# Generated by pormake.
# Topology unb, (4)-cn, num edge types: 1
# Building blocks:
#     Node 0, Type 0, BuildingBlock: CEKHIL_clean_sbu_0, # of connection points: 4
#     Node 1, Type 0, BuildingBlock: CEKHIL_clean_sbu_0, # of connection points: 4
#     Node 2, Type 0, BuildingBlock: CEKHIL_clean_sbu_0, # of connection points: 4
#     Node 3, Type 0, BuildingBlock: CEKHIL_clean_sbu_0, # of connection points: 4
#     Node 4, Type 0, BuildingBlock: CEKHIL_clean_sbu_0, # of connection points: 4
#     Node 5, Type 0, BuildingBlock: CEKHIL_clean_sbu_0, # of connection points: 4
#     Node 6, Type 0, BuildingBlock: CEKHIL_clean_sbu_0, # of connection points: 4
#     Node 7, Type 0, BuildingBlock: CEKHIL_clean_sbu_0, # of connection points: 4
#     Node 8, Type 0, BuildingBlock: CEKHIL_clean_sbu_0, # of connection points: 4
#     Node 9, Type 0, BuildingBlock: CEKHIL_clean_sbu_0, # of connection points: 4
#     Node 10, Type 0, BuildingBlock: CEKHIL_clean_sbu_0, # of connection points: 4
#     Node 11, Type 0, BuildingBlock: CEKHIL_clean_sbu_0, # of connection points: 4
#     Node 12, Type 0, BuildingBlock: CEKHIL_clean_sbu_0, # of connection points: 4
#     Node 13, Type 0, BuildingBlock: CEKHIL_clean_sbu_0, # of connection points: 4
#     Node 14, Type 0, BuildingBlock: CEKHIL_clean_sbu_0, # of connection points: 4
#     Node 15, Type 0, BuildingBlock: CEKHIL_clean_sbu_0, # of connection points: 4
#     Node 16, Type 0, BuildingBlock: CEKHIL_clean_sbu_0, # of connection points: 4
#     Node 17, Type 0, BuildingBlock: CEKHIL_clean_sbu_0, # of connection points: 4
#     Edge 18, Type (0, 0), BuildingBlock: CIFDUS_clean_linker_0, # of connection points: 2
#     Edge 19, Type (0, 0), BuildingBlock: CIFDUS_clean_linker_0, # of connection points: 2
#     Edge 20, Type (0, 0), BuildingBlock: CIFDUS_clean_linker_0, # of connection points: 2
#     Edge 21, Type (0, 0), BuildingBlock: CIFDUS_clean_linker_0, # of connection points: 2
#     Edge 22, Type (0, 0), BuildingBlock: CIFDUS_clean_linker_0, # of connection points: 2
#     Edge 23, Type (0, 0), BuildingBlock: CIFDUS_clean_linker_0, # of connection points: 2
#     Edge 24, Type (0, 0), BuildingBlock: CIFDUS_clean_linker_0, # of connection points: 2
#     Edge 25, Type (0, 0), BuildingBlock: CIFDUS_clean_linker_0, # of connection points: 2
#     Edge 26, Type (0, 0), BuildingBlock: CIFDUS_clean_linker_0, # of connection points: 2
#     Edge 27, Type (0, 0), BuildingBlock: CIFDUS_clean_linker_0, # of connection points: 2
#     Edge 28, Type (0, 0), BuildingBlock: CIFDUS_clean_linker_0, # of connection points: 2
#     Edge 29, Type (0, 0), BuildingBlock: CIFDUS_clean_linker_0, # of connection points: 2
#     Edge 30, Type (0, 0), BuildingBlock: CIFDUS_clean_linker_0, # of connection points: 2
#     Edge 31, Type (0, 0), BuildingBlock: CIFDUS_clean_linker_0, # of connection points: 2
#     Edge 32, Type (0, 0), BuildingBlock: CIFDUS_clean_linker_0, # of connection points: 2
#     Edge 33, Type (0, 0), BuildingBlock: CIFDUS_clean_linker_0, # of connection points: 2
#     Edge 34, Type (0, 0), BuildingBlock: CIFDUS_clean_linker_0, # of connection points: 2
#     Edge 35, Type (0, 0), BuildingBlock: CIFDUS_clean_linker_0, # of connection points: 2
#     Edge 36, Type (0, 0), BuildingBlock: CIFDUS_clean_linker_0, # of connection points: 2
#     Edge 37, Type (0, 0), BuildingBlock: CIFDUS_clean_linker_0, # of connection points: 2
#     Edge 38, Type (0, 0), BuildingBlock: CIFDUS_clean_linker_0, # of connection points: 2
#     Edge 39, Type (0, 0), BuildingBlock: CIFDUS_clean_linker_0, # of connection points: 2
#     Edge 40, Type (0, 0), BuildingBlock: CIFDUS_clean_linker_0, # of connection points: 2
#     Edge 41, Type (0, 0), BuildingBlock: CIFDUS_clean_linker_0, # of connection points: 2
#     Edge 42, Type (0, 0), BuildingBlock: CIFDUS_clean_linker_0, # of connection points: 2
#     Edge 43, Type (0, 0), BuildingBlock: CIFDUS_clean_linker_0, # of connection points: 2
#     Edge 44, Type (0, 0), BuildingBlock: CIFDUS_clean_linker_0, # of connection points: 2
#     Edge 45, Type (0, 0), BuildingBlock: CIFDUS_clean_linker_0, # of connection points: 2
#     Edge 46, Type (0, 0), BuildingBlock: CIFDUS_clean_linker_0, # of connection points: 2
#     Edge 47, Type (0, 0), BuildingBlock: CIFDUS_clean_linker_0, # of connection points: 2
#     Edge 48, Type (0, 0), BuildingBlock: CIFDUS_clean_linker_0, # of connection points: 2
#     Edge 49, Type (0, 0), BuildingBlock: CIFDUS_clean_linker_0, # of connection points: 2
#     Edge 50, Type (0, 0), BuildingBlock: CIFDUS_clean_linker_0, # of connection points: 2
#     Edge 51, Type (0, 0), BuildingBlock: CIFDUS_clean_linker_0, # of connection points: 2
#     Edge 52, Type (0, 0), BuildingBlock: CIFDUS_clean_linker_0, # of connection points: 2
#     Edge 53, Type (0, 0), BuildingBlock: CIFDUS_clean_linker_0, # of connection points: 2
# Relax obj value: 0.113
# Max RMSD: 0.094
# Mean RMSD: 0.094
data_MOF--net-unb--node1-CEKHIL_clean_sbu_0--edge1-CIFDUS_clean_linker_0
_symmetry_space_group_name_H-M    P1
_symmetry_Int_Tables_number       1
_symmetry_cell_setting            triclinic
loop_
_symmetry_equiv_pos_as_xyz
'x, y, z'
_cell_length_a     53.728355
_cell_length_b     53.635569
_cell_length_c     22.16472
_cell_angle_alpha  90.050528
_cell_angle_beta   90.033829
_cell_angle_gamma 120.12478
loop_
_atom_site_label
_atom_site_type_symbol
_atom_site_fract_x
_atom_site_fract_y
_atom_site_fract_z
_atom_type_partial_charge
Co0 Co 0.16832 0.29422 0.09684 0.0
O1 O 0.13243 0.29483 0.09766 0.0
O2 O 0.13735 0.25956 0.05965 0.0
C3 C 0.18134 0.31095 0.19348 0.0
O4 O 0.20071 0.28447 0.08547 0.0
Co5 Co 0.22848 0.34878 0.11759 0.0
O6 O 0.24408 0.32257 0.10659 0.0
C7 C 0.19356 0.34282 0.00997 0.0
C8 C 0.12074 0.2703 0.06919 0.0
C9 C 0.22837 0.29646 0.08971 0.0
O10 O 0.17824 0.31536 0.01796 0.0
O11 O 0.21202 0.35989 0.0485 0.0
O12 O 0.16376 0.28354 0.18378 0.0
O13 O 0.18941 0.32652 0.14589 0.0
Co14 Co 0.77123 0.88516 0.09539 0.0
O15 O 0.76625 0.84659 0.09834 0.0
O16 O 0.80434 0.88482 0.06136 0.0
C17 C 0.75415 0.88405 0.19047 0.0
O18 O 0.78592 0.92843 0.08197 0.0
Co19 Co 0.72153 0.89841 0.10832 0.0
O20 O 0.75012 0.93853 0.08534 0.0
C21 C 0.72426 0.86513 0.00586 0.0
C22 C 0.791 0.85725 0.07124 0.0
C23 C 0.77633 0.94607 0.07553 0.0
O24 O 0.75132 0.87541 0.01523 0.0
O25 O 0.708 0.8687 0.04271 0.0
O26 O 0.78095 0.891 0.1825 0.0
O27 O 0.73911 0.87766 0.14206 0.0
Co28 Co 0.16498 0.89741 0.09759 0.0
O29 O 0.20135 0.93414 0.09855 0.0
O30 O 0.16003 0.928 0.0646 0.0
C31 C 0.16908 0.88313 0.19234 0.0
O32 O 0.12285 0.86509 0.08631 0.0
Co33 Co 0.15852 0.83694 0.1113 0.0
O34 O 0.11706 0.82077 0.09304 0.0
C35 C 0.18826 0.87404 0.00724 0.0
C36 C 0.18731 0.94533 0.07327 0.0
C37 C 0.10702 0.8374 0.08265 0.0
O38 O 0.17572 0.88879 0.01686 0.0
O39 O 0.18706 0.85522 0.04434 0.0
O40 O 0.15918 0.90072 0.18479 0.0
O41 O 0.17658 0.87569 0.14372 0.0
Co42 Co 0.29946 0.15289 0.90893 0.0
O43 O 0.3026 0.11821 0.90608 0.0
O44 O 0.26568 0.12025 0.94358 0.0
C45 C 0.31644 0.1681 0.81346 0.0
O46 O 0.28656 0.18283 0.9224 0.0
Co47 Co 0.35082 0.21519 0.89432 0.0
O48 O 0.32356 0.22828 0.91727 0.0
C49 C 0.34709 0.17907 0.99744 0.0
C50 C 0.27783 0.10498 0.93341 0.0
C51 C 0.29719 0.21032 0.92798 0.0
O52 O 0.31984 0.16279 0.9887 0.0
O53 O 0.3636 0.19853 0.96007 0.0
O54 O 0.28939 0.14896 0.82197 0.0
O55 O 0.33172 0.17652 0.86157 0.0
Co56 Co 0.91432 0.15825 0.90754 0.0
O57 O 0.95146 0.19359 0.90469 0.0
O58 O 0.94523 0.15075 0.92714 0.0
C59 C 0.89647 0.1672 0.82156 0.0
O60 O 0.88012 0.11672 0.91797 0.0
Co61 Co 0.85639 0.15862 0.91506 0.0
O62 O 0.83793 0.1161 0.91792 0.0
C63 C 0.89957 0.18152 0.01279 0.0
C64 C 0.96277 0.17836 0.92239 0.0
C65 C 0.85235 0.1032 0.92224 0.0
O66 O 0.91099 0.16689 0.99386 0.0
O67 O 0.88054 0.18399 0.98281 0.0
O68 O 0.91248 0.15531 0.81763 0.0
O69 O 0.89287 0.17353 0.87519 0.0
Co70 Co 0.8934 0.75164 0.91689 0.0
O71 O 0.85885 0.75484 0.90916 0.0
O72 O 0.901 0.78939 0.94191 0.0
C73 C 0.88864 0.72836 0.82764 0.0
O74 O 0.93422 0.75844 0.93378 0.0
Co75 Co 0.89382 0.69369 0.91835 0.0
O76 O 0.93593 0.7175 0.93028 0.0
C77 C 0.86259 0.70792 0.00807 0.0
C78 C 0.87409 0.78068 0.93159 0.0
C79 C 0.94814 0.74465 0.93838 0.0
O80 O 0.87977 0.73504 0.9991 0.0
O81 O 0.86224 0.68846 0.97407 0.0
O82 O 0.90037 0.7564 0.82809 0.0
O83 O 0.87984 0.7163 0.87887 0.0
Co84 Co 0.83078 0.61878 0.42398 0.0
O85 O 0.79461 0.61941 0.42813 0.0
O86 O 0.79863 0.58238 0.39819 0.0
C87 C 0.84856 0.64192 0.51385 0.0
O88 O 0.86184 0.60734 0.41026 0.0
Co89 Co 0.89293 0.67154 0.42716 0.0
O90 O 0.90705 0.64468 0.40948 0.0
C91 C 0.85019 0.6637 0.33432 0.0
C92 C 0.78214 0.59327 0.40663 0.0
C93 C 0.88919 0.61792 0.40285 0.0
O94 O 0.83684 0.63613 0.3417 0.0
O95 O 0.8703 0.68112 0.36959 0.0
O96 O 0.83073 0.6141 0.51342 0.0
O97 O 0.85479 0.65371 0.46195 0.0
Co98 Co 0.43685 0.22223 0.42727 0.0
O99 O 0.43874 0.18679 0.42878 0.0
O100 O 0.47279 0.2285 0.39333 0.0
C101 C 0.41881 0.21786 0.52256 0.0
O102 O 0.44438 0.26369 0.4154 0.0
Co103 Co 0.3802 0.22406 0.44306 0.0
O104 O 0.40453 0.2663 0.43182 0.0
C105 C 0.38974 0.19674 0.33704 0.0
C106 C 0.46367 0.20136 0.40256 0.0
C107 C 0.43102 0.2781 0.41734 0.0
O108 O 0.41706 0.2103 0.34697 0.0
O109 O 0.37149 0.19662 0.37426 0.0
O110 O 0.44644 0.22897 0.51448 0.0
O111 O 0.40369 0.20921 0.47429 0.0
Co112 Co 0.83539 0.22423 0.4299 0.0
O113 O 0.87306 0.25869 0.43357 0.0
O114 O 0.83334 0.25832 0.40711 0.0
C115 C 0.84053 0.20481 0.51776 0.0
O116 O 0.79235 0.19323 0.41882 0.0
Co117 Co 0.82853 0.16271 0.42497 0.0
O118 O 0.78679 0.14874 0.42317 0.0
C119 C 0.85681 0.20546 0.32806 0.0
C120 C 0.86118 0.27299 0.41343 0.0
C121 C 0.77643 0.1654 0.41694 0.0
O122 O 0.84378 0.21888 0.3447 0.0
O123 O 0.85608 0.18482 0.35848 0.0
O124 O 0.83207 0.22376 0.51963 0.0
O125 O 0.84615 0.19954 0.46484 0.0
Co126 Co 0.96428 0.48046 0.24571 0.0
O127 O 0.96095 0.44244 0.24753 0.0
O128 O 0.92787 0.45197 0.28035 0.0
C129 C 0.98231 0.49271 0.15018 0.0
O130 O 0.95802 0.51523 0.25432 0.0
Co131 Co 1.02208 0.53814 0.22844 0.0
O132 O 0.99883 0.55717 0.23875 0.0
C133 C 1.01094 0.50287 0.33768 0.0
C134 C 0.936 0.43311 0.27305 0.0
C135 C 0.97219 0.54305 0.25234 0.0
O136 O 0.98373 0.48919 0.32655 0.0
O137 O 1.02976 0.52025 0.30021 0.0
O138 O 0.95471 0.47617 0.15853 0.0
O139 O 0.99765 0.49961 0.19822 0.0
Co140 Co 0.57371 0.49613 0.24647 0.0
O141 O 0.60824 0.53422 0.24378 0.0
O142 O 0.60649 0.49536 0.28132 0.0
C143 C 0.55845 0.49779 0.15083 0.0
O144 O 0.544 0.45304 0.2597 0.0
Co145 Co 0.51131 0.48439 0.2313 0.0
O146 O 0.49847 0.44381 0.25257 0.0
C147 C 0.5471 0.51707 0.33493 0.0
C148 C 0.62162 0.52286 0.27113 0.0
C149 C 0.51657 0.43571 0.26402 0.0
O150 O 0.56369 0.5065 0.32623 0.0
O151 O 0.52757 0.51379 0.29744 0.0
O152 O 0.57769 0.49008 0.15944 0.0
O153 O 0.54994 0.50451 0.19895 0.0
Co154 Co 0.55947 0.08886 0.24414 0.0
O155 O 0.52138 0.08508 0.2416 0.0
O156 O 0.56037 0.12272 0.27774 0.0
C157 C 0.55753 0.07125 0.14883 0.0
O158 O 0.60258 0.10288 0.25698 0.0
Co159 Co 0.57174 0.03855 0.23084 0.0
O160 O 0.61196 0.06657 0.25416 0.0
C161 C 0.5391 0.04178 0.33395 0.0
C162 C 0.53289 0.11018 0.26791 0.0
C163 C 0.6199 0.09296 0.26349 0.0
O164 O 0.54952 0.06896 0.32473 0.0
O165 O 0.54235 0.0254 0.29669 0.0
O166 O 0.56513 0.09827 0.15681 0.0
O167 O 0.55108 0.05629 0.19736 0.0
Co168 Co 0.49204 0.94872 0.76345 0.0
O169 O 0.45576 0.94914 0.76538 0.0
O170 O 0.46072 0.91322 0.73148 0.0
C171 C 0.50718 0.96752 0.85817 0.0
O172 O 0.52332 0.93762 0.75122 0.0
Co173 Co 0.55317 1.0016 0.77552 0.0
O174 O 0.56812 0.97554 0.75472 0.0
C175 C 0.51596 0.99522 0.6723 0.0
C176 C 0.4439 0.92364 0.74074 0.0
C177 C 0.5508 0.94883 0.74548 0.0
O178 O 0.50051 0.96793 0.68221 0.0
O179 O 0.53524 1.01259 0.70914 0.0
O180 O 0.48918 0.94002 0.85092 0.0
O181 O 0.51471 0.98227 0.80926 0.0
Co182 Co 0.10082 0.55608 0.76641 0.0
O183 O 0.09685 0.51786 0.76883 0.0
O184 O 0.13403 0.55656 0.73073 0.0
C185 C 0.08472 0.55475 0.86235 0.0
O186 O 0.11472 0.59926 0.75315 0.0
Co187 Co 0.05091 0.56844 0.78249 0.0
O188 O 0.07862 0.60878 0.7594 0.0
C189 C 0.05298 0.53578 0.67806 0.0
C190 C 0.12146 0.52905 0.74096 0.0
C191 C 0.10479 0.61667 0.74813 0.0
O192 O 0.08006 0.54577 0.68693 0.0
O193 O 0.03701 0.53945 0.71555 0.0
O194 O 0.11156 0.56229 0.85296 0.0
O195 O 0.0689 0.5478 0.81501 0.0
Co196 Co 0.50234 0.56258 0.76456 0.0
O197 O 0.53721 0.60048 0.76649 0.0
O198 O 0.49526 0.59184 0.73099 0.0
C199 C 0.50705 0.54895 0.8598 0.0
O200 O 0.46129 0.52811 0.75208 0.0
Co201 Co 0.50113 0.50432 0.77989 0.0
O202 O 0.45896 0.48565 0.76733 0.0
C203 C 0.52833 0.54163 0.67429 0.0
C204 C 0.52221 0.61038 0.74048 0.0
C205 C 0.44709 0.50027 0.75305 0.0
O206 O 0.51461 0.55522 0.68419 0.0
O207 O 0.52854 0.52348 0.71142 0.0
O208 O 0.49547 0.56506 0.85182 0.0
O209 O 0.51584 0.54274 0.81145 0.0
Co210 Co 0.63425 0.81853 0.57662 0.0
O211 O 0.63533 0.78289 0.573 0.0
O212 O 0.59946 0.78654 0.61128 0.0
C213 C 0.65167 0.83328 0.48115 0.0
O214 O 0.62455 0.85095 0.59024 0.0
Co215 Co 0.68961 0.87872 0.56152 0.0
O216 O 0.66353 0.8944 0.57363 0.0
C217 C 0.68168 0.84178 0.66631 0.0
C218 C 0.6107 0.77042 0.60066 0.0
C219 C 0.63716 0.8788 0.58852 0.0
O220 O 0.65439 0.82712 0.65646 0.0
O221 O 0.69954 0.86059 0.62942 0.0
O222 O 0.62427 0.81542 0.48945 0.0
O223 O 0.66686 0.84039 0.52931 0.0
Co224 Co 0.23569 0.83077 0.57951 0.0
O225 O 0.27125 0.86778 0.57723 0.0
O226 O 0.26735 0.82809 0.61555 0.0
C227 C 0.22171 0.83352 0.48337 0.0
O228 O 0.20358 0.78832 0.59192 0.0
Co229 Co 0.17526 0.82464 0.5609 0.0
O230 O 0.16011 0.78279 0.57149 0.0
C231 C 0.21083 0.85404 0.66749 0.0
C232 C 0.28354 0.85552 0.60522 0.0
C233 C 0.17588 0.77248 0.58794 0.0
O234 O 0.22617 0.84206 0.65873 0.0
O235 O 0.19217 0.85254 0.62957 0.0
O236 O 0.23966 0.82422 0.49253 0.0
O237 O 0.214 0.84126 0.53112 0.0
Co238 Co 0.23238 0.43228 0.57941 0.0
O239 O 0.19603 0.43255 0.5773 0.0
O240 O 0.23728 0.46798 0.61148 0.0
C241 C 0.22884 0.41355 0.485 0.0
O242 O 0.27444 0.44243 0.59192 0.0
Co243 Co 0.23903 0.37838 0.56787 0.0
O244 O 0.28028 0.4039 0.5884 0.0
C245 C 0.20897 0.38594 0.67076 0.0
C246 C 0.21006 0.45795 0.60226 0.0
C247 C 0.29022 0.4307 0.59764 0.0
O248 O 0.2214 0.41322 0.66048 0.0
O249 O 0.21016 0.36813 0.63412 0.0
O250 O 0.23861 0.4411 0.49215 0.0
O251 O 0.22102 0.3987 0.53376 0.0
H252 H 0.20249 0.35586 0.46386 0.0
H253 H 0.24492 0.43793 0.37235 0.0
H254 H 0.23522 0.41299 0.275 0.0
H255 H 0.21318 0.36819 0.2162 0.0
H256 H 0.16871 0.28594 0.30665 0.0
H257 H 0.18094 0.31077 0.40464 0.0
C258 C 0.20984 0.3684 0.42269 0.0
C259 C 0.22453 0.39888 0.42557 0.0
C260 C 0.20377 0.35386 0.36688 0.0
C261 C 0.23366 0.41459 0.37161 0.0
C262 C 0.22807 0.40029 0.31595 0.0
C263 C 0.20627 0.35552 0.25725 0.0
C264 C 0.19003 0.32507 0.25387 0.0
C265 C 0.21293 0.36996 0.31309 0.0
C266 C 0.18124 0.30926 0.30776 0.0
C267 C 0.18819 0.32351 0.36376 0.0
H268 H 0.70903 0.86364 0.45975 0.0
H269 H 0.62707 0.8247 0.36814 0.0
H270 H 0.65201 0.83887 0.27061 0.0
H271 H 0.69694 0.8603 0.21186 0.0
H272 H 0.77873 0.89672 0.30363 0.0
H273 H 0.75389 0.88562 0.40119 0.0
C274 C 0.69649 0.85838 0.41855 0.0
C275 C 0.66606 0.8431 0.42141 0.0
C276 C 0.71099 0.86609 0.36285 0.0
C277 C 0.65037 0.83641 0.36738 0.0
C278 C 0.66468 0.84449 0.31165 0.0
C279 C 0.70947 0.86608 0.25314 0.0
C280 C 0.73982 0.87947 0.25028 0.0
C281 C 0.69496 0.85905 0.30889 0.0
C282 C 0.7555 0.88653 0.30438 0.0
C283 C 0.74124 0.8801 0.36013 0.0
H284 H 0.18907 0.85789 0.46134 0.0
H285 H 0.23286 0.81974 0.37026 0.0
H286 H 0.21886 0.8305 0.27244 0.0
H287 H 0.19602 0.85259 0.21347 0.0
H288 H 0.15431 0.89272 0.30527 0.0
H289 H 0.16567 0.87919 0.40274 0.0
C290 C 0.19545 0.85166 0.42019 0.0
C291 C 0.21203 0.8379 0.42329 0.0
C292 C 0.18777 0.85839 0.36444 0.0
C293 C 0.22011 0.83022 0.36932 0.0
C294 C 0.21214 0.83646 0.31344 0.0
C295 C 0.18917 0.85824 0.25474 0.0
C296 C 0.17421 0.87368 0.25194 0.0
C297 C 0.19623 0.8508 0.31052 0.0
C298 C 0.16574 0.88088 0.30599 0.0
C299 C 0.1723 0.87316 0.3617 0.0
H300 H 0.36137 0.19019 0.5439 0.0
H301 H 0.44334 0.23497 0.63532 0.0
H302 H 0.41842 0.2249 0.73272 0.0
H303 H 0.37358 0.20172 0.79154 0.0
H304 H 0.2917 0.15496 0.70035 0.0
H305 H 0.3165 0.16773 0.60264 0.0
C306 C 0.37391 0.19799 0.58504 0.0
C307 C 0.40434 0.21342 0.58215 0.0
C308 C 0.35942 0.19171 0.64073 0.0
C309 C 0.42003 0.22313 0.63608 0.0
C310 C 0.40574 0.21732 0.69175 0.0
C311 C 0.36101 0.19446 0.75035 0.0
C312 C 0.33066 0.17738 0.75343 0.0
C313 C 0.37547 0.20141 0.69458 0.0
C314 C 0.31494 0.16813 0.69944 0.0
C315 C 0.32917 0.17538 0.6436 0.0
H316 H 0.84404 0.21941 0.63811 0.0
H317 H 0.85329 0.16192 0.51597 0.0
H318 H 0.87162 0.14517 0.59707 0.0
H319 H 0.88771 0.1483 0.7029 0.0
H320 H 0.87701 0.2048 0.82541 0.0
H321 H 0.85701 0.22013 0.74512 0.0
C322 C 0.84959 0.20288 0.62955 0.0
C323 C 0.84729 0.19215 0.57077 0.0
C324 C 0.86039 0.19323 0.67673 0.0
C325 C 0.85483 0.17078 0.56063 0.0
C326 C 0.86551 0.16116 0.60707 0.0
C327 C 0.88097 0.16391 0.71188 0.0
C328 C 0.8841 0.17537 0.77021 0.0
C329 C 0.86892 0.17256 0.66525 0.0
C330 C 0.87493 0.19546 0.78103 0.0
C331 C 0.8634 0.20436 0.73502 0.0
H332 H 0.89484 0.74267 0.70685 0.0
H333 H 0.87052 0.67125 0.82823 0.0
H334 H 0.85615 0.63799 0.74408 0.0
H335 H 0.84771 0.62801 0.63474 0.0
H336 H 0.87331 0.69985 0.51363 0.0
H337 H 0.88945 0.73318 0.59754 0.0
C338 C 0.88682 0.71994 0.71472 0.0
C339 C 0.88379 0.70974 0.77399 0.0
C340 C 0.87832 0.70049 0.66569 0.0
C341 C 0.87315 0.68 0.78319 0.0
C342 C 0.86472 0.66071 0.73493 0.0
C343 C 0.85695 0.65093 0.62687 0.0
C344 C 0.85909 0.66109 0.56773 0.0
C345 C 0.86671 0.67053 0.67583 0.0
C346 C 0.87132 0.69108 0.55853 0.0
C347 C 0.88065 0.71042 0.60665 0.0
H348 H 1.0217 0.54594 0.10958 0.0
H349 H 0.97696 0.45614 0.05996 0.0
H350 H 1.00714 0.46726 0.96982 0.0
H351 H 0.04606 0.5026 0.90459 0.0
H352 H 0.08993 0.59269 0.95113 0.0
H353 H 0.06018 0.58171 0.04243 0.0
C354 C 1.01821 0.52896 0.07815 0.0
C355 C 0.99662 0.50032 0.09044 0.0
C356 C 0.0357 0.53562 0.02631 0.0
C357 C 0.99271 0.4784 0.05031 0.0
C358 C 1.01025 0.48474 0.99927 0.0
C359 C 0.04944 0.51972 0.93551 0.0
C360 C 0.07074 0.54831 0.92237 0.0
C361 C 1.03186 0.51322 0.98694 0.0
C362 C 0.07442 0.57045 0.96158 0.0
C363 C 0.05712 0.56417 0.01325 0.0
H364 H 0.52425 0.52058 0.12882 0.0
H365 H 0.57176 0.4865 0.03762 0.0
H366 H 0.55859 0.49814 0.93991 0.0
H367 H 0.53549 0.51993 0.88111 0.0
H368 H 0.48988 0.55603 0.97263 0.0
H369 H 0.50044 0.54158 0.07 0.0
C370 C 0.5316 0.51542 0.08764 0.0
C371 C 0.54901 0.50255 0.09074 0.0
C372 C 0.52439 0.5227 0.03185 0.0
C373 C 0.55835 0.49627 0.03672 0.0
C374 C 0.55087 0.50303 0.98087 0.0
C375 C 0.52763 0.52453 0.92226 0.0
C376 C 0.5118 0.5391 0.91939 0.0
C377 C 0.53418 0.51654 0.97798 0.0
C378 C 0.50201 0.54489 0.97336 0.0
C379 C 0.50811 0.53664 0.02902 0.0
H380 H 0.53329 1.01382 0.12742 0.0
H381 H 0.57021 0.09559 0.03532 0.0
H382 H 0.55914 0.07049 0.93782 0.0
H383 H 0.53727 0.02529 0.87912 0.0
H384 H 0.49815 0.9435 0.97154 0.0
H385 H 0.51189 0.96873 0.06885 0.0
C386 C 0.53917 0.0263 0.08609 0.0
C387 C 0.55273 0.05673 0.08892 0.0
C388 C 0.53222 1.01165 0.03033 0.0
C389 C 0.5599 0.0723 0.03469 0.0
C390 C 0.55349 0.05789 0.97892 0.0
C391 C 0.53187 1.01287 0.92048 0.0
C392 C 0.51669 0.98237 0.9178 0.0
C393 C 0.53941 0.02757 0.97623 0.0
C394 C 0.5098 0.96685 0.97207 0.0
C395 C 0.51764 0.98132 0.02773 0.0
H396 H 0.16622 0.3146 0.90721 0.0
H397 H 0.21664 0.39984 0.98375 0.0
H398 H 0.22139 0.42133 0.88488 0.0
H399 H 0.21819 0.4156 0.77529 0.0
H400 H 0.16981 0.33034 0.69822 0.0
H401 H 0.15678 0.30933 0.79866 0.0
C402 C 0.1778 0.33789 0.90246 0.0
C403 C 0.19175 0.3555 0.95236 0.0
C404 C 0.18101 0.35015 0.84523 0.0
C405 C 0.20629 0.38569 0.94569 0.0
C406 C 0.20899 0.39806 0.88916 0.0
C407 C 0.20419 0.3925 0.78048 0.0
C408 C 0.1956 0.3745 0.72973 0.0
C409 C 0.19753 0.38047 0.83832 0.0
C410 C 0.17724 0.34461 0.73692 0.0
C411 C 0.16981 0.33255 0.79429 0.0
H412 H 0.65192 0.82047 0.77015 0.0
H413 H 0.73715 0.85796 0.69384 0.0
H414 H 0.75781 0.86404 0.79434 0.0
H415 H 0.75234 0.86644 0.90325 0.0
H416 H 0.6673 0.83175 0.97924 0.0
H417 H 0.64592 0.81643 0.87956 0.0
C418 C 0.67494 0.82935 0.77545 0.0
C419 C 0.69305 0.83943 0.72502 0.0
C420 C 0.68677 0.83365 0.83334 0.0
C421 C 0.72281 0.85064 0.73234 0.0
C422 C 0.73466 0.85414 0.78972 0.0
C423 C 0.72911 0.85499 0.89816 0.0
C424 C 0.7115 0.85094 0.94811 0.0
C425 C 0.71697 0.84699 0.84057 0.0
C426 C 0.68139 0.83576 0.94107 0.0
C427 C 0.66911 0.82696 0.88413 0.0
H428 H 0.18277 0.89787 0.9037 0.0
H429 H 0.2258 0.85559 0.98049 0.0
H430 H 0.24111 0.84997 0.88063 0.0
H431 H 0.23509 0.84956 0.77134 0.0
H432 H 0.19002 0.88974 0.6944 0.0
H433 H 0.18323 0.90413 0.79438 0.0
C434 C 0.19603 0.888 0.8987 0.0
C435 C 0.20242 0.87644 0.94903 0.0
C436 C 0.20413 0.88414 0.84101 0.0
C437 C 0.21996 0.86404 0.94207 0.0
C438 C 0.22875 0.86081 0.88501 0.0
C439 C 0.22433 0.862 0.77632 0.0
C440 C 0.21236 0.86782 0.72588 0.0
C441 C 0.21982 0.86956 0.83402 0.0
C442 C 0.19882 0.88433 0.73286 0.0
C443 C 0.19492 0.89259 0.79 0.0
H444 H 0.41966 0.20644 0.23285 0.0
H445 H 0.33458 0.15648 0.30897 0.0
H446 H 0.31392 0.14239 0.20838 0.0
H447 H 0.31919 0.15127 0.09974 0.0
H448 H 0.40411 0.2033 0.02398 0.0
H449 H 0.4256 0.20912 0.12333 0.0
C450 C 0.39669 0.19191 0.22746 0.0
C451 C 0.3786 0.18317 0.27797 0.0
C452 C 0.38484 0.18459 0.1695 0.0
C453 C 0.3489 0.16408 0.27049 0.0
C454 C 0.33705 0.15602 0.21302 0.0
C455 C 0.34243 0.1634 0.10477 0.0
C456 C 0.35993 0.17751 0.05498 0.0
C457 C 0.35464 0.16728 0.16224 0.0
C458 C 0.39005 0.1928 0.06199 0.0
C459 C 0.40241 0.19613 0.11878 0.0
H460 H 0.88922 0.22218 0.05701 0.0
H461 H 0.92258 0.16668 0.10684 0.0
H462 H 0.91742 0.17473 0.21344 0.0
H463 H 0.89339 0.18831 0.2889 0.0
H464 H 0.85484 0.2391 0.23749 0.0
H465 H 0.87231 0.24231 0.13454 0.0
C466 C 0.89587 0.21225 0.09123 0.0
C467 C 0.90517 0.19298 0.07449 0.0
C468 C 0.89136 0.21568 0.15181 0.0
C469 C 0.91481 0.18116 0.11887 0.0
C470 C 0.91163 0.18556 0.1797 0.0
C471 C 0.88905 0.20037 0.25539 0.0
C472 C 0.87189 0.21248 0.26992 0.0
C473 C 0.89821 0.20123 0.19623 0.0
C474 C 0.86741 0.22899 0.22684 0.0
C475 C 0.87737 0.23082 0.16808 0.0
H476 H 0.8694 0.73844 0.11031 0.0
H477 H 0.81742 0.65429 0.03055 0.0
H478 H 0.80308 0.63268 0.13005 0.0
H479 H 0.81657 0.63636 0.23676 0.0
H480 H 0.86976 0.72067 0.31552 0.0
H481 H 0.87182 0.74339 0.21983 0.0
C482 C 0.85412 0.71556 0.11469 0.0
C483 C 0.84575 0.69775 0.06383 0.0
C484 C 0.84673 0.70311 0.17195 0.0
C485 C 0.82516 0.66828 0.06969 0.0
C486 C 0.81699 0.65584 0.12652 0.0
C487 C 0.82795 0.65969 0.2333 0.0
C488 C 0.84427 0.67667 0.28193 0.0
C489 C 0.82952 0.67276 0.17776 0.0
C490 C 0.85805 0.70696 0.2777 0.0
C491 C 0.85918 0.72009 0.22305 0.0
H492 H 0.98052 0.4884 0.4418 0.0
H493 H 0.06473 0.51477 0.36948 0.0
H494 H 0.08481 0.52352 0.47108 0.0
H495 H 0.07984 0.53116 0.57822 0.0
H496 H 0.9959 0.50712 0.64947 0.0
H497 H 0.97439 0.48976 0.55073 0.0
C498 C 1.00311 0.49537 0.44838 0.0
C499 C 1.02124 0.50154 0.39841 0.0
C500 C 1.0147 0.50128 0.50669 0.0
C501 C 0.05045 0.51042 0.40745 0.0
C502 C 0.06197 0.5155 0.46547 0.0
C503 C 0.05678 0.52171 0.57239 0.0
C504 C 0.03969 0.52118 0.62072 0.0
C505 C 0.04456 0.51228 0.51515 0.0
C506 C 1.00974 0.50843 0.61265 0.0
C507 C 0.99734 0.49842 0.55618 0.0
H508 H 0.51859 0.56167 0.56977 0.0
H509 H 0.56897 0.52735 0.64692 0.0
H510 H 0.58335 0.52095 0.54662 0.0
H511 H 0.57472 0.51723 0.4378 0.0
H512 H 0.52243 0.54946 0.36095 0.0
H513 H 0.51615 0.56493 0.46013 0.0
C514 C 0.53327 0.55345 0.56467 0.0
C515 C 0.54205 0.54428 0.61539 0.0
C516 C 0.54081 0.54904 0.50684 0.0
C517 C 0.56134 0.53394 0.60827 0.0
C518 C 0.56958 0.53024 0.55096 0.0
C519 C 0.56244 0.52816 0.44257 0.0
C520 C 0.54839 0.53141 0.39249 0.0
C521 C 0.55832 0.53641 0.49994 0.0
C522 C 0.5329 0.54602 0.39918 0.0
C523 C 0.52929 0.55492 0.45587 0.0
H524 H 0.49399 0.96678 0.56661 0.0
H525 H 0.53357 0.05133 0.64791 0.0
H526 H 0.5402 0.07341 0.54896 0.0
H527 H 0.54208 0.06921 0.43926 0.0
H528 H 0.50435 0.98474 0.35801 0.0
H529 H 0.4893 0.96226 0.45667 0.0
C530 C 0.50343 0.98996 0.56272 0.0
C531 C 0.51391 1.00741 0.61421 0.0
C532 C 0.50788 1.00264 0.50554 0.0
C533 C 0.52589 0.03743 0.60863 0.0
C534 C 0.52972 0.05013 0.55208 0.0
C535 C 0.53 0.0459 0.44304 0.0
C536 C 0.52502 0.02873 0.39171 0.0
C537 C 0.52198 0.03304 0.5001 0.0
C538 C 0.50908 0.9985 0.39717 0.0
C539 C 0.50042 0.98557 0.45357 0.0
H540 H 0.20684 0.24523 0.02497 0.0
H541 H 0.2847 0.31285 0.10662 0.0
H542 H 0.31216 0.29281 0.06256 0.0
H543 H 0.31526 0.25771 0.99775 0.0
H544 H 0.23834 0.18795 0.91932 0.0
H545 H 0.20962 0.20719 0.96464 0.0
C546 C 0.22973 0.25534 0.03386 0.0
C547 C 0.2435 0.28084 0.06902 0.0
C548 C 0.24579 0.24356 0.00807 0.0
C549 C 0.27329 0.29346 0.07963 0.0
C550 C 0.2892 0.28205 0.05418 0.0
C551 C 0.29222 0.24675 0.99004 0.0
C552 C 0.27914 0.2217 0.954 0.0
C553 C 0.27584 0.25748 0.0175 0.0
C554 C 0.24909 0.20743 0.94622 0.0
C555 C 0.23264 0.21842 0.97234 0.0
H556 H 0.87153 0.0703 0.9809 0.0
H557 H 0.79555 0.06564 0.90337 0.0
H558 H 0.7659 1.01764 0.94499 0.0
H559 H 0.76054 0.97785 0.00774 0.0
H560 H 0.83554 0.98003 0.08323 0.0
H561 H 0.86632 0.0279 0.03874 0.0
C562 C 0.84858 0.05855 0.9721 0.0
C563 C 0.83594 0.07192 0.93899 0.0
C564 C 0.83128 0.03061 0.9969 0.0
C565 C 0.80603 0.05623 0.92876 0.0
C566 C 0.78892 0.0287 0.95287 0.0
C567 C 0.78362 0.98882 0.01496 0.0
C568 C 0.79556 0.97547 0.04998 0.0
C569 C 0.80116 1.01594 0.98808 0.0
C570 C 0.82565 0.98983 0.05715 0.0
C571 C 0.84328 1.01721 0.03147 0.0
H572 H 0.98069 0.79942 0.98744 0.0
H573 H 0.98543 0.72422 0.93572 0.0
H574 H 1.03362 0.74557 0.97754 0.0
H575 H 0.07431 0.78467 0.03094 0.0
H576 H 0.07175 0.8611 0.08056 0.0
H577 H 1.02312 0.84015 0.03818 0.0
C578 C 0.99237 0.78783 0.98468 0.0
C579 C 0.97901 0.76002 0.95837 0.0
C580 C 1.0205 0.8003 0.00933 0.0
C581 C 0.99474 0.74548 0.95572 0.0
C582 C 1.02245 0.75766 0.9799 0.0
C583 C 0.0631 0.79675 0.03314 0.0
C584 C 0.07673 0.82435 0.05993 0.0
C585 C 0.03541 0.78484 0.00751 0.0
C586 C 0.06186 0.83975 0.06082 0.0
C587 C 1.03401 0.82779 0.03631 0.0
H588 H 0.81969 0.76278 0.97366 0.0
H589 H 0.90063 0.83911 0.93423 0.0
H590 H 0.88232 0.86941 0.97367 0.0
H591 H 0.8438 0.87443 0.02198 0.0
H592 H 0.76366 0.79823 0.06722 0.0
H593 H 0.78115 0.76787 0.02388 0.0
C594 C 0.83312 0.78606 0.97291 0.0
C595 C 0.8614 0.79866 0.95015 0.0
C596 C 0.82271 0.80343 0.99766 0.0
C597 C 0.87876 0.82885 0.95098 0.0
C598 C 0.86833 0.84621 0.97383 0.0
C599 C 0.83016 0.85118 0.02262 0.0
C600 C 0.80242 0.83873 0.04814 0.0
C601 C 0.84045 0.83378 0.9979 0.0
C602 C 0.78515 0.8085 0.04839 0.0
C603 C 0.7951 0.79107 0.02323 0.0
H604 H 0.24265 0.98007 0.03251 0.0
H605 H 0.16293 0.97883 0.06503 0.0
H606 H 0.18359 0.02762 0.02485 0.0
H607 H 0.22394 0.07058 0.97883 0.0
H608 H 0.30302 0.07144 0.94031 0.0
H609 H 0.28304 1.02311 0.9835 0.0
C610 C 0.22997 0.99065 0.03137 0.0
C611 C 0.20133 0.97586 0.05248 0.0
C612 C 0.24179 1.01862 0.00633 0.0
C613 C 0.18501 0.9897 0.04942 0.0
C614 C 0.19681 1.01762 0.02624 0.0
C615 C 0.23682 0.06019 0.97961 0.0
C616 C 0.265 0.07477 0.95614 0.0
C617 C 0.22508 0.03225 0.00414 0.0
C618 C 0.28123 0.06079 0.9576 0.0
C619 C 0.26984 0.03313 0.98265 0.0
H620 H 0.99648 0.23283 0.96591 0.0
H621 H 0.99708 0.15422 0.92914 0.0
H622 H 0.0458 0.17546 0.97084 0.0
H623 H 0.08819 0.21631 0.01975 0.0
H624 H 0.08591 0.29365 0.0622 0.0
H625 H 0.03811 0.27299 0.0171 0.0
C626 C 1.00741 0.22047 0.96632 0.0
C627 C 0.99323 0.19207 0.9435 0.0
C628 C 0.03513 0.23253 0.9922 0.0
C629 C 1.00752 0.17616 0.94585 0.0
C630 C 0.03538 0.18829 0.96996 0.0
C631 C 0.0772 0.22861 0.01935 0.0
C632 C 0.0908 0.25658 0.04458 0.0
C633 C 0.04937 0.21641 0.99373 0.0
C634 C 0.07606 0.27208 0.0436 0.0
C635 C 0.04869 0.26031 0.01746 0.0
H636 H 0.93946 0.63476 0.34381 0.0
H637 H 0.86354 0.55851 0.40689 0.0
H638 H 0.88146 0.52831 0.3637 0.0
H639 H 0.91947 0.52372 0.30849 0.0
H640 H 0.99396 0.60102 0.24301 0.0
H641 H 0.97558 0.63027 0.28582 0.0
C642 C 0.92682 0.61154 0.34876 0.0
C643 C 0.9003 0.59908 0.37959 0.0
C644 C 0.93692 0.59432 0.32259 0.0
C645 C 0.88411 0.56883 0.384 0.0
C646 C 0.89434 0.55151 0.35902 0.0
C647 C 0.93151 0.54693 0.30284 0.0
C648 C 0.95826 0.55992 0.27232 0.0
C649 C 0.92076 0.564 0.32799 0.0
C650 C 0.97345 0.59015 0.2661 0.0
C651 C 0.96299 0.60706 0.2909 0.0
H652 H 0.46657 0.40326 0.32444 0.0
H653 H 0.54165 0.4015 0.26214 0.0
H654 H 0.52288 0.35327 0.30605 0.0
H655 H 0.48408 0.31077 0.36101 0.0
H656 H 0.4107 0.31537 0.42625 0.0
H657 H 0.43007 0.36311 0.38322 0.0
C658 C 0.47883 0.39232 0.31988 0.0
C659 C 0.50532 0.40597 0.28887 0.0
C660 C 0.46826 0.36498 0.34648 0.0
C661 C 0.5211 0.39154 0.28513 0.0
C662 C 0.51037 0.36393 0.31046 0.0
C663 C 0.4725 0.32234 0.3665 0.0
C664 C 0.44569 0.30898 0.39691 0.0
C665 C 0.48388 0.35032 0.34132 0.0
C666 C 0.43117 0.32462 0.40311 0.0
C667 C 0.44222 0.35208 0.37821 0.0
H668 H 0.64827 0.0778 0.34235 0.0
H669 H 0.65724 0.1511 0.24411 0.0
H670 H 0.70574 0.18125 0.2867 0.0
H671 H 0.74697 0.18582 0.34861 0.0
H672 H 0.73506 0.1118 0.44958 0.0
H673 H 0.68645 0.08335 0.41043 0.0
C674 C 0.66085 0.10037 0.32994 0.0
C675 C 0.64933 0.11196 0.28892 0.0
C676 C 0.68827 0.11763 0.3558 0.0
C677 C 0.66568 0.14149 0.27494 0.0
C678 C 0.69341 0.15875 0.29949 0.0
C679 C 0.7335 0.16368 0.36308 0.0
C680 C 0.74503 0.15105 0.40189 0.0
C681 C 0.70512 0.14701 0.33977 0.0
C682 C 0.7271 0.12217 0.41957 0.0
C683 C 0.69921 0.10573 0.39691 0.0
H684 H 0.55236 0.16527 0.30661 0.0
H685 H 0.47425 0.08407 0.2794 0.0
H686 H 0.44605 0.10432 0.32157 0.0
H687 H 0.44351 0.14538 0.36696 0.0
H688 H 0.5216 0.2272 0.38782 0.0
H689 H 0.54972 0.20648 0.34816 0.0
C690 C 0.52915 0.152 0.30963 0.0
C691 C 0.51552 0.12311 0.28974 0.0
C692 C 0.513 0.1639 0.33342 0.0
C693 C 0.48537 0.10637 0.29393 0.0
C694 C 0.46921 0.11793 0.3184 0.0
C695 C 0.46671 0.15857 0.36329 0.0
C696 C 0.48044 0.18778 0.3811 0.0
C697 C 0.48277 0.14666 0.33862 0.0
C698 C 0.51047 0.20468 0.3748 0.0
C699 C 0.52659 0.19284 0.35195 0.0
H700 H 0.84323 0.31004 0.37378 0.0
H701 H 0.91959 0.30426 0.40238 0.0
H702 H 0.94917 0.35207 0.35875 0.0
H703 H 0.95372 0.39589 0.31119 0.0
H704 H 0.87786 0.40299 0.28802 0.0
H705 H 0.848 0.35467 0.32986 0.0
C706 C 0.86636 0.31933 0.37095 0.0
C707 C 0.87903 0.30338 0.39169 0.0
C708 C 0.88346 0.34716 0.346 0.0
C709 C 0.90912 0.31592 0.38734 0.0
C710 C 0.92613 0.34331 0.36197 0.0
C711 C 0.93062 0.38674 0.31485 0.0
C712 C 0.91806 0.40301 0.29577 0.0
C713 C 0.91358 0.35912 0.34073 0.0
C714 C 0.88813 0.39097 0.30203 0.0
C715 C 0.87101 0.3633 0.32615 0.0
H716 H 0.65543 0.50375 0.32134 0.0
H717 H 0.65599 0.58181 0.27233 0.0
H718 H 0.70465 0.61067 0.31365 0.0
H719 H 0.74778 0.61382 0.36323 0.0
H720 H 0.74733 0.53528 0.40685 0.0
H721 H 0.69814 0.50677 0.36914 0.0
C722 C 0.66618 0.52708 0.31947 0.0
C723 C 0.6519 0.54048 0.29348 0.0
C724 C 0.69429 0.54358 0.34307 0.0
C725 C 0.66637 0.5708 0.29163 0.0
C726 C 0.69423 0.58737 0.3156 0.0
C727 C 0.73672 0.59048 0.36523 0.0
C728 C 0.7512 0.57674 0.38863 0.0
C729 C 0.70846 0.57404 0.34162 0.0
C730 C 0.73672 0.54644 0.3895 0.0
C731 C 0.70857 0.53008 0.36768 0.0
H732 H 0.58529 0.85762 0.65053 0.0
H733 H 0.65502 0.93574 0.57471 0.0
H734 H 0.63541 0.96364 0.61844 0.0
H735 H 0.59972 0.967 0.68058 0.0
H736 H 0.52798 0.88986 0.75304 0.0
H737 H 0.54711 0.86083 0.70898 0.0
C738 C 0.59598 0.88067 0.64286 0.0
C739 C 0.6219 0.89432 0.60931 0.0
C740 C 0.58444 0.89703 0.66844 0.0
C741 C 0.63527 0.92436 0.60037 0.0
C742 C 0.6241 0.94054 0.62565 0.0
C743 C 0.58832 0.94385 0.68736 0.0
C744 C 0.56266 0.9308 0.72123 0.0
C745 C 0.59901 0.92725 0.66051 0.0
C746 C 0.54791 0.90062 0.72783 0.0
C747 C 0.55883 0.88397 0.70237 0.0
H748 H 0.1967 0.74263 0.65442 0.0
H749 H 0.11998 0.73211 0.56744 0.0
H750 H 0.09196 0.68432 0.61029 0.0
H751 H 0.08788 0.64599 0.67591 0.0
H752 H 0.16363 0.6532 0.75941 0.0
H753 H 0.19306 0.70143 0.71504 0.0
C754 C 0.17396 0.72973 0.6441 0.0
C755 C 0.16065 0.74151 0.60788 0.0
C756 C 0.15753 0.70166 0.66915 0.0
C757 C 0.13103 0.72415 0.59538 0.0
C758 C 0.1148 0.69664 0.6201 0.0
C759 C 0.11083 0.65814 0.68487 0.0
C760 C 0.12335 0.64613 0.72214 0.0
C761 C 0.12762 0.68539 0.65793 0.0
C762 C 0.1533 0.66196 0.73153 0.0
C763 C 0.17015 0.68956 0.70597 0.0
H764 H 0.41516 0.52121 0.69687 0.0
H765 H 0.40976 0.44228 0.75875 0.0
H766 H 0.3622 0.41438 0.71413 0.0
H767 H 0.32222 0.41161 0.65564 0.0
H768 H 0.32557 0.48977 0.59622 0.0
H769 H 0.37359 0.51841 0.641 0.0
C770 C 0.40348 0.49794 0.70127 0.0
C771 C 0.41645 0.48409 0.73139 0.0
C772 C 0.37574 0.48168 0.67504 0.0
C773 C 0.40071 0.45379 0.73601 0.0
C774 C 0.37339 0.43766 0.71017 0.0
C775 C 0.3335 0.43491 0.65181 0.0
C776 C 0.32026 0.44837 0.62158 0.0
C777 C 0.36081 0.45128 0.67894 0.0
C778 C 0.33517 0.47869 0.61862 0.0
C779 C 0.36266 0.49513 0.64452 0.0
H780 H 0.15478 0.43775 0.64326 0.0
H781 H 0.23474 0.51601 0.60811 0.0
H782 H 0.21465 0.54468 0.64748 0.0
H783 H 0.17488 0.54789 0.694 0.0
H784 H 0.09552 0.47005 0.73514 0.0
H785 H 0.11479 0.44106 0.69227 0.0
C786 C 0.16762 0.46109 0.6436 0.0
C787 C 0.19618 0.47469 0.62206 0.0
C788 C 0.15613 0.47759 0.6682 0.0
C789 C 0.21271 0.50495 0.62407 0.0
C790 C 0.20125 0.52141 0.6468 0.0
C791 C 0.16178 0.52457 0.69383 0.0
C792 C 0.13374 0.51126 0.71801 0.0
C793 C 0.1731 0.50801 0.6695 0.0
C794 C 0.11721 0.48096 0.7173 0.0
C795 C 0.12819 0.46433 0.69244 0.0
H796 H 0.57709 0.64627 0.70059 0.0
H797 H 0.49596 0.6424 0.7301 0.0
H798 H 0.51578 0.69127 0.69017 0.0
H799 H 0.55621 0.7353 0.64535 0.0
H800 H 0.63617 0.73755 0.609 0.0
H801 H 0.61684 0.68948 0.65215 0.0
C802 C 0.56387 0.65626 0.69881 0.0
C803 C 0.53516 0.64077 0.71914 0.0
C804 C 0.57516 0.68414 0.67379 0.0
C805 C 0.51815 0.65384 0.71515 0.0
C806 C 0.52947 0.68182 0.69213 0.0
C807 C 0.56936 0.72522 0.64662 0.0
C808 C 0.59768 0.74022 0.62375 0.0
C809 C 0.55792 0.69718 0.67093 0.0
C810 C 0.61429 0.72663 0.62578 0.0
C811 C 0.60328 0.69909 0.65082 0.0
H812 H 0.31718 0.8352 0.65214 0.0
H813 H 0.31802 0.91415 0.61063 0.0
H814 H 0.36657 0.94224 0.65235 0.0
H815 H 0.40952 0.94462 0.70033 0.0
H816 H 0.40946 0.86557 0.73551 0.0
H817 H 0.36023 0.83755 0.69754 0.0
C818 C 0.328 0.85856 0.65203 0.0
C819 C 0.31379 0.87243 0.62805 0.0
C820 C 0.35619 0.87469 0.6756 0.0
C821 C 0.32834 0.90278 0.62834 0.0
C822 C 0.35615 0.91892 0.65253 0.0
C823 C 0.39857 0.92126 0.70029 0.0
C824 C 0.41314 0.90724 0.72145 0.0
C825 C 0.37035 0.90516 0.67646 0.0
C826 C 0.39879 0.87694 0.71981 0.0
C827 C 0.3706 0.86086 0.69789 0.0
loop_
_geom_bond_atom_site_label_1
_geom_bond_atom_site_label_2
_geom_bond_distance
_geom_bond_site_symmetry_2
_ccdc_geom_bond_type
Co0 O1 2.216 . S
Co0 O2 2.091 . S
Co0 O4 2.004 . S
Co0 O10 2.021 1_554 S
Co0 O12 2.137 . S
Co0 O13 2.244 . S
O1 Co0 2.216 . S
O1 C8 1.247 . S
O2 Co0 2.091 . S
O2 C8 1.261 . S
C3 O12 1.247 . S
C3 O13 1.272 . S
O4 Co0 2.004 . S
O4 C9 1.259 . S
Co5 O6 2.061 . S
Co5 O11 2.052 1_554 S
Co5 O13 2.135 . S
O6 Co5 2.061 . S
O6 C9 1.235 . S
C7 O10 1.238 . S
C7 O11 1.241 . S
C8 O1 1.247 . S
C8 O2 1.261 . S
C9 O4 1.259 . S
C9 O6 1.235 . S
O10 Co0 2.021 1_556 S
O10 C7 1.238 . S
O11 Co5 2.052 1_556 S
O11 C7 1.241 . S
O12 Co0 2.137 . S
O12 C3 1.247 . S
O13 Co0 2.244 . S
O13 C3 1.272 . S
O13 Co5 2.135 . S
Co14 O15 2.216 . S
Co14 O16 2.091 . S
Co14 O18 2.004 . S
Co14 O24 2.021 1_554 S
Co14 O26 2.137 . S
Co14 O27 2.244 . S
O15 Co14 2.216 . S
O15 C22 1.247 . S
O16 Co14 2.091 . S
O16 C22 1.261 . S
C17 O26 1.247 . S
C17 O27 1.272 . S
O18 Co14 2.004 . S
O18 C23 1.259 . S
Co19 O20 2.061 . S
Co19 O25 2.052 1_554 S
Co19 O27 2.135 . S
O20 Co19 2.061 . S
O20 C23 1.235 . S
C21 O24 1.238 . S
C21 O25 1.241 . S
C22 O15 1.247 . S
C22 O16 1.261 . S
C23 O18 1.259 . S
C23 O20 1.235 . S
O24 Co14 2.021 1_556 S
O24 C21 1.238 . S
O25 Co19 2.052 1_556 S
O25 C21 1.241 . S
O26 Co14 2.137 . S
O26 C17 1.247 . S
O27 Co14 2.244 . S
O27 C17 1.272 . S
O27 Co19 2.135 . S
Co28 O29 2.216 . S
Co28 O30 2.091 . S
Co28 O32 2.004 . S
Co28 O38 2.021 1_554 S
Co28 O40 2.137 . S
Co28 O41 2.244 . S
O29 Co28 2.216 . S
O29 C36 1.247 . S
O30 Co28 2.091 . S
O30 C36 1.261 . S
C31 O40 1.247 . S
C31 O41 1.272 . S
O32 Co28 2.004 . S
O32 C37 1.259 . S
Co33 O34 2.061 . S
Co33 O39 2.052 1_554 S
Co33 O41 2.135 . S
O34 Co33 2.061 . S
O34 C37 1.235 . S
C35 O38 1.238 . S
C35 O39 1.241 . S
C36 O29 1.247 . S
C36 O30 1.261 . S
C37 O32 1.259 . S
C37 O34 1.235 . S
O38 Co28 2.021 1_556 S
O38 C35 1.238 . S
O39 Co33 2.052 1_556 S
O39 C35 1.241 . S
O40 Co28 2.137 . S
O40 C31 1.247 . S
O41 Co28 2.244 . S
O41 C31 1.272 . S
O41 Co33 2.135 . S
Co42 O43 2.216 . S
Co42 O44 2.091 . S
Co42 O46 2.004 . S
Co42 O52 2.021 1_556 S
Co42 O54 2.137 . S
Co42 O55 2.244 . S
O43 Co42 2.216 . S
O43 C50 1.247 . S
O44 Co42 2.091 . S
O44 C50 1.261 . S
C45 O54 1.247 . S
C45 O55 1.272 . S
O46 Co42 2.004 . S
O46 C51 1.259 . S
Co47 O48 2.061 . S
Co47 O53 2.052 1_556 S
Co47 O55 2.135 . S
O48 Co47 2.061 . S
O48 C51 1.235 . S
C49 O52 1.238 . S
C49 O53 1.241 . S
C50 O43 1.247 . S
C50 O44 1.261 . S
C51 O46 1.259 . S
C51 O48 1.235 . S
O52 Co42 2.021 1_554 S
O52 C49 1.238 . S
O53 Co47 2.052 1_554 S
O53 C49 1.241 . S
O54 Co42 2.137 . S
O54 C45 1.247 . S
O55 Co42 2.244 . S
O55 C45 1.272 . S
O55 Co47 2.135 . S
Co56 O57 2.216 . S
Co56 O58 2.091 . S
Co56 O60 2.004 . S
Co56 O66 2.021 1_556 S
Co56 O68 2.137 . S
Co56 O69 2.244 . S
O57 Co56 2.216 . S
O57 C64 1.247 . S
O58 Co56 2.091 . S
O58 C64 1.261 . S
C59 O68 1.247 . S
C59 O69 1.272 . S
O60 Co56 2.004 . S
O60 C65 1.259 . S
Co61 O62 2.061 . S
Co61 O67 2.052 1_556 S
Co61 O69 2.135 . S
O62 Co61 2.061 . S
O62 C65 1.235 . S
C63 O66 1.238 . S
C63 O67 1.241 . S
C64 O57 1.247 . S
C64 O58 1.261 . S
C65 O60 1.259 . S
C65 O62 1.235 . S
O66 Co56 2.021 1_554 S
O66 C63 1.238 . S
O67 Co61 2.052 1_554 S
O67 C63 1.241 . S
O68 Co56 2.137 . S
O68 C59 1.247 . S
O69 Co56 2.244 . S
O69 C59 1.272 . S
O69 Co61 2.135 . S
Co70 O71 2.216 . S
Co70 O72 2.091 . S
Co70 O74 2.004 . S
Co70 O80 2.021 1_556 S
Co70 O82 2.137 . S
Co70 O83 2.244 . S
O71 Co70 2.216 . S
O71 C78 1.247 . S
O72 Co70 2.091 . S
O72 C78 1.261 . S
C73 O82 1.247 . S
C73 O83 1.272 . S
O74 Co70 2.004 . S
O74 C79 1.259 . S
Co75 O76 2.061 . S
Co75 O81 2.052 1_556 S
Co75 O83 2.135 . S
O76 Co75 2.061 . S
O76 C79 1.235 . S
C77 O80 1.238 . S
C77 O81 1.241 . S
C78 O71 1.247 . S
C78 O72 1.261 . S
C79 O74 1.259 . S
C79 O76 1.235 . S
O80 Co70 2.021 1_554 S
O80 C77 1.238 . S
O81 Co75 2.052 1_554 S
O81 C77 1.241 . S
O82 Co70 2.137 . S
O82 C73 1.247 . S
O83 Co70 2.244 . S
O83 C73 1.272 . S
O83 Co75 2.135 . S
Co84 O85 2.216 . S
Co84 O86 2.091 . S
Co84 O88 2.004 . S
Co84 O94 2.021 . S
Co84 O96 2.137 . S
Co84 O97 2.244 . S
O85 Co84 2.216 . S
O85 C92 1.247 . S
O86 Co84 2.091 . S
O86 C92 1.261 . S
C87 O96 1.247 . S
C87 O97 1.272 . S
O88 Co84 2.004 . S
O88 C93 1.259 . S
Co89 O90 2.061 . S
Co89 O95 2.052 . S
Co89 O97 2.135 . S
O90 Co89 2.061 . S
O90 C93 1.235 . S
C91 O94 1.238 . S
C91 O95 1.241 . S
C92 O85 1.247 . S
C92 O86 1.261 . S
C93 O88 1.259 . S
C93 O90 1.235 . S
O94 Co84 2.021 . S
O94 C91 1.238 . S
O95 Co89 2.052 . S
O95 C91 1.241 . S
O96 Co84 2.137 . S
O96 C87 1.247 . S
O97 Co84 2.244 . S
O97 C87 1.272 . S
O97 Co89 2.135 . S
Co98 O99 2.216 . S
Co98 O100 2.091 . S
Co98 O102 2.004 . S
Co98 O108 2.021 . S
Co98 O110 2.137 . S
Co98 O111 2.244 . S
O99 Co98 2.216 . S
O99 C106 1.247 . S
O100 Co98 2.091 . S
O100 C106 1.261 . S
C101 O110 1.247 . S
C101 O111 1.272 . S
O102 Co98 2.004 . S
O102 C107 1.259 . S
Co103 O104 2.061 . S
Co103 O109 2.052 . S
Co103 O111 2.135 . S
O104 Co103 2.061 . S
O104 C107 1.235 . S
C105 O108 1.238 . S
C105 O109 1.241 . S
C106 O99 1.247 . S
C106 O100 1.261 . S
C107 O102 1.259 . S
C107 O104 1.235 . S
O108 Co98 2.021 . S
O108 C105 1.238 . S
O109 Co103 2.052 . S
O109 C105 1.241 . S
O110 Co98 2.137 . S
O110 C101 1.247 . S
O111 Co98 2.244 . S
O111 C101 1.272 . S
O111 Co103 2.135 . S
Co112 O113 2.216 . S
Co112 O114 2.091 . S
Co112 O116 2.004 . S
Co112 O122 2.021 . S
Co112 O124 2.137 . S
Co112 O125 2.244 . S
O113 Co112 2.216 . S
O113 C120 1.247 . S
O114 Co112 2.091 . S
O114 C120 1.261 . S
C115 O124 1.247 . S
C115 O125 1.272 . S
O116 Co112 2.004 . S
O116 C121 1.259 . S
Co117 O118 2.061 . S
Co117 O123 2.052 . S
Co117 O125 2.135 . S
O118 Co117 2.061 . S
O118 C121 1.235 . S
C119 O122 1.238 . S
C119 O123 1.241 . S
C120 O113 1.247 . S
C120 O114 1.261 . S
C121 O116 1.259 . S
C121 O118 1.235 . S
O122 Co112 2.021 . S
O122 C119 1.238 . S
O123 Co117 2.052 . S
O123 C119 1.241 . S
O124 Co112 2.137 . S
O124 C115 1.247 . S
O125 Co112 2.244 . S
O125 C115 1.272 . S
O125 Co117 2.135 . S
Co126 O127 2.216 . S
Co126 O128 2.091 . S
Co126 O130 2.004 . S
Co126 O136 2.021 . S
Co126 O138 2.137 . S
Co126 O139 2.244 . S
O127 Co126 2.216 . S
O127 C134 1.247 . S
O128 Co126 2.091 . S
O128 C134 1.261 . S
C129 O138 1.247 . S
C129 O139 1.272 . S
O130 Co126 2.004 . S
O130 C135 1.259 . S
Co131 O132 2.061 . S
Co131 O137 2.052 . S
Co131 O139 2.135 . S
O132 Co131 2.061 . S
O132 C135 1.235 . S
C133 O136 1.238 . S
C133 O137 1.241 . S
C134 O127 1.247 . S
C134 O128 1.261 . S
C135 O130 1.259 . S
C135 O132 1.235 . S
O136 Co126 2.021 . S
O136 C133 1.238 . S
O137 Co131 2.052 . S
O137 C133 1.241 . S
O138 Co126 2.137 . S
O138 C129 1.247 . S
O139 Co126 2.244 . S
O139 C129 1.272 . S
O139 Co131 2.135 . S
Co140 O141 2.216 . S
Co140 O142 2.091 . S
Co140 O144 2.004 . S
Co140 O150 2.021 . S
Co140 O152 2.137 . S
Co140 O153 2.244 . S
O141 Co140 2.216 . S
O141 C148 1.247 . S
O142 Co140 2.091 . S
O142 C148 1.261 . S
C143 O152 1.247 . S
C143 O153 1.272 . S
O144 Co140 2.004 . S
O144 C149 1.259 . S
Co145 O146 2.061 . S
Co145 O151 2.052 . S
Co145 O153 2.135 . S
O146 Co145 2.061 . S
O146 C149 1.235 . S
C147 O150 1.238 . S
C147 O151 1.241 . S
C148 O141 1.247 . S
C148 O142 1.261 . S
C149 O144 1.259 . S
C149 O146 1.235 . S
O150 Co140 2.021 . S
O150 C147 1.238 . S
O151 Co145 2.052 . S
O151 C147 1.241 . S
O152 Co140 2.137 . S
O152 C143 1.247 . S
O153 Co140 2.244 . S
O153 C143 1.272 . S
O153 Co145 2.135 . S
Co154 O155 2.216 . S
Co154 O156 2.091 . S
Co154 O158 2.004 . S
Co154 O164 2.021 . S
Co154 O166 2.137 . S
Co154 O167 2.244 . S
O155 Co154 2.216 . S
O155 C162 1.247 . S
O156 Co154 2.091 . S
O156 C162 1.261 . S
C157 O166 1.247 . S
C157 O167 1.272 . S
O158 Co154 2.004 . S
O158 C163 1.259 . S
Co159 O160 2.061 . S
Co159 O165 2.052 . S
Co159 O167 2.135 . S
O160 Co159 2.061 . S
O160 C163 1.235 . S
C161 O164 1.238 . S
C161 O165 1.241 . S
C162 O155 1.247 . S
C162 O156 1.261 . S
C163 O158 1.259 . S
C163 O160 1.235 . S
O164 Co154 2.021 . S
O164 C161 1.238 . S
O165 Co159 2.052 . S
O165 C161 1.241 . S
O166 Co154 2.137 . S
O166 C157 1.247 . S
O167 Co154 2.244 . S
O167 C157 1.272 . S
O167 Co159 2.135 . S
Co168 O169 2.216 . S
Co168 O170 2.091 . S
Co168 O172 2.004 . S
Co168 O178 2.021 . S
Co168 O180 2.137 . S
Co168 O181 2.244 . S
O169 Co168 2.216 . S
O169 C176 1.247 . S
O170 Co168 2.091 . S
O170 C176 1.261 . S
C171 O180 1.247 . S
C171 O181 1.272 . S
O172 Co168 2.004 . S
O172 C177 1.259 . S
Co173 O174 2.061 . S
Co173 O179 2.052 . S
Co173 O181 2.135 . S
O174 Co173 2.061 . S
O174 C177 1.235 . S
C175 O178 1.238 . S
C175 O179 1.241 . S
C176 O169 1.247 . S
C176 O170 1.261 . S
C177 O172 1.259 . S
C177 O174 1.235 . S
O178 Co168 2.021 . S
O178 C175 1.238 . S
O179 Co173 2.052 . S
O179 C175 1.241 . S
O180 Co168 2.137 . S
O180 C171 1.247 . S
O181 Co168 2.244 . S
O181 C171 1.272 . S
O181 Co173 2.135 . S
Co182 O183 2.216 . S
Co182 O184 2.091 . S
Co182 O186 2.004 . S
Co182 O192 2.021 . S
Co182 O194 2.137 . S
Co182 O195 2.244 . S
O183 Co182 2.216 . S
O183 C190 1.247 . S
O184 Co182 2.091 . S
O184 C190 1.261 . S
C185 O194 1.247 . S
C185 O195 1.272 . S
O186 Co182 2.004 . S
O186 C191 1.259 . S
Co187 O188 2.061 . S
Co187 O193 2.052 . S
Co187 O195 2.135 . S
O188 Co187 2.061 . S
O188 C191 1.235 . S
C189 O192 1.238 . S
C189 O193 1.241 . S
C190 O183 1.247 . S
C190 O184 1.261 . S
C191 O186 1.259 . S
C191 O188 1.235 . S
O192 Co182 2.021 . S
O192 C189 1.238 . S
O193 Co187 2.052 . S
O193 C189 1.241 . S
O194 Co182 2.137 . S
O194 C185 1.247 . S
O195 Co182 2.244 . S
O195 C185 1.272 . S
O195 Co187 2.135 . S
Co196 O197 2.216 . S
Co196 O198 2.091 . S
Co196 O200 2.004 . S
Co196 O206 2.021 . S
Co196 O208 2.137 . S
Co196 O209 2.244 . S
O197 Co196 2.216 . S
O197 C204 1.247 . S
O198 Co196 2.091 . S
O198 C204 1.261 . S
C199 O208 1.247 . S
C199 O209 1.272 . S
O200 Co196 2.004 . S
O200 C205 1.259 . S
Co201 O202 2.061 . S
Co201 O207 2.052 . S
Co201 O209 2.135 . S
O202 Co201 2.061 . S
O202 C205 1.235 . S
C203 O206 1.238 . S
C203 O207 1.241 . S
C204 O197 1.247 . S
C204 O198 1.261 . S
C205 O200 1.259 . S
C205 O202 1.235 . S
O206 Co196 2.021 . S
O206 C203 1.238 . S
O207 Co201 2.052 . S
O207 C203 1.241 . S
O208 Co196 2.137 . S
O208 C199 1.247 . S
O209 Co196 2.244 . S
O209 C199 1.272 . S
O209 Co201 2.135 . S
Co210 O211 2.216 . S
Co210 O212 2.091 . S
Co210 O214 2.004 . S
Co210 O220 2.021 . S
Co210 O222 2.137 . S
Co210 O223 2.244 . S
O211 Co210 2.216 . S
O211 C218 1.247 . S
O212 Co210 2.091 . S
O212 C218 1.261 . S
C213 O222 1.247 . S
C213 O223 1.272 . S
O214 Co210 2.004 . S
O214 C219 1.259 . S
Co215 O216 2.061 . S
Co215 O221 2.052 . S
Co215 O223 2.135 . S
O216 Co215 2.061 . S
O216 C219 1.235 . S
C217 O220 1.238 . S
C217 O221 1.241 . S
C218 O211 1.247 . S
C218 O212 1.261 . S
C219 O214 1.259 . S
C219 O216 1.235 . S
O220 Co210 2.021 . S
O220 C217 1.238 . S
O221 Co215 2.052 . S
O221 C217 1.241 . S
O222 Co210 2.137 . S
O222 C213 1.247 . S
O223 Co210 2.244 . S
O223 C213 1.272 . S
O223 Co215 2.135 . S
Co224 O225 2.216 . S
Co224 O226 2.091 . S
Co224 O228 2.004 . S
Co224 O234 2.021 . S
Co224 O236 2.137 . S
Co224 O237 2.244 . S
O225 Co224 2.216 . S
O225 C232 1.247 . S
O226 Co224 2.091 . S
O226 C232 1.261 . S
C227 O236 1.247 . S
C227 O237 1.272 . S
O228 Co224 2.004 . S
O228 C233 1.259 . S
Co229 O230 2.061 . S
Co229 O235 2.052 . S
Co229 O237 2.135 . S
O230 Co229 2.061 . S
O230 C233 1.235 . S
C231 O234 1.238 . S
C231 O235 1.241 . S
C232 O225 1.247 . S
C232 O226 1.261 . S
C233 O228 1.259 . S
C233 O230 1.235 . S
O234 Co224 2.021 . S
O234 C231 1.238 . S
O235 Co229 2.052 . S
O235 C231 1.241 . S
O236 Co224 2.137 . S
O236 C227 1.247 . S
O237 Co224 2.244 . S
O237 C227 1.272 . S
O237 Co229 2.135 . S
Co238 O239 2.216 . S
Co238 O240 2.091 . S
Co238 O242 2.004 . S
Co238 O248 2.021 . S
Co238 O250 2.137 . S
Co238 O251 2.244 . S
O239 Co238 2.216 . S
O239 C246 1.247 . S
O240 Co238 2.091 . S
O240 C246 1.261 . S
C241 O250 1.247 . S
C241 O251 1.272 . S
O242 Co238 2.004 . S
O242 C247 1.259 . S
Co243 O244 2.061 . S
Co243 O249 2.052 . S
Co243 O251 2.135 . S
O244 Co243 2.061 . S
O244 C247 1.235 . S
C245 O248 1.238 . S
C245 O249 1.241 . S
C246 O239 1.247 . S
C246 O240 1.261 . S
C247 O242 1.259 . S
C247 O244 1.235 . S
O248 Co238 2.021 . S
O248 C245 1.238 . S
O249 Co243 2.052 . S
O249 C245 1.241 . S
O250 Co238 2.137 . S
O250 C241 1.247 . S
O251 Co238 2.244 . S
O251 C241 1.272 . S
O251 Co243 2.135 . S
H252 C258 0.930 . S
H253 C261 0.930 . S
H254 C262 0.930 . S
H255 C263 0.930 . S
H256 C266 0.930 . S
H257 C267 0.930 . S
C258 H252 0.930 . S
C258 C259 1.355 . S
C258 C260 1.415 . S
C259 C258 1.355 . S
C259 C261 1.419 . S
C260 C258 1.415 . S
C260 C265 1.425 . S
C260 C267 1.409 . S
C261 H253 0.930 . S
C261 C259 1.419 . S
C261 C262 1.362 . S
C262 H254 0.930 . S
C262 C261 1.362 . S
C262 C265 1.409 . S
C263 H255 0.930 . S
C263 C264 1.355 . S
C263 C265 1.415 . S
C264 C263 1.355 . S
C264 C266 1.419 . S
C265 C260 1.425 . S
C265 C262 1.409 . S
C265 C263 1.415 . S
C266 H256 0.930 . S
C266 C264 1.419 . S
C266 C267 1.362 . S
C267 H257 0.930 . S
C267 C260 1.409 . S
C267 C266 1.362 . S
H268 C274 0.930 . S
H269 C277 0.930 . S
H270 C278 0.930 . S
H271 C279 0.930 . S
H272 C282 0.930 . S
H273 C283 0.930 . S
C274 H268 0.930 . S
C274 C275 1.355 . S
C274 C276 1.415 . S
C275 C274 1.355 . S
C275 C277 1.419 . S
C276 C274 1.415 . S
C276 C281 1.425 . S
C276 C283 1.409 . S
C277 H269 0.930 . S
C277 C275 1.419 . S
C277 C278 1.362 . S
C278 H270 0.930 . S
C278 C277 1.362 . S
C278 C281 1.409 . S
C279 H271 0.930 . S
C279 C280 1.355 . S
C279 C281 1.415 . S
C280 C279 1.355 . S
C280 C282 1.419 . S
C281 C276 1.425 . S
C281 C278 1.409 . S
C281 C279 1.415 . S
C282 H272 0.930 . S
C282 C280 1.419 . S
C282 C283 1.362 . S
C283 H273 0.930 . S
C283 C276 1.409 . S
C283 C282 1.362 . S
H284 C290 0.930 . S
H285 C293 0.930 . S
H286 C294 0.930 . S
H287 C295 0.930 . S
H288 C298 0.930 . S
H289 C299 0.930 . S
C290 H284 0.930 . S
C290 C291 1.355 . S
C290 C292 1.415 . S
C291 C290 1.355 . S
C291 C293 1.419 . S
C292 C290 1.415 . S
C292 C297 1.425 . S
C292 C299 1.409 . S
C293 H285 0.930 . S
C293 C291 1.419 . S
C293 C294 1.362 . S
C294 H286 0.930 . S
C294 C293 1.362 . S
C294 C297 1.409 . S
C295 H287 0.930 . S
C295 C296 1.355 . S
C295 C297 1.415 . S
C296 C295 1.355 . S
C296 C298 1.419 . S
C297 C292 1.425 . S
C297 C294 1.409 . S
C297 C295 1.415 . S
C298 H288 0.930 . S
C298 C296 1.419 . S
C298 C299 1.362 . S
C299 H289 0.930 . S
C299 C292 1.409 . S
C299 C298 1.362 . S
H300 C306 0.930 . S
H301 C309 0.930 . S
H302 C310 0.930 . S
H303 C311 0.930 . S
H304 C314 0.930 . S
H305 C315 0.930 . S
C306 H300 0.930 . S
C306 C307 1.355 . S
C306 C308 1.415 . S
C307 C306 1.355 . S
C307 C309 1.419 . S
C308 C306 1.415 . S
C308 C313 1.425 . S
C308 C315 1.409 . S
C309 H301 0.930 . S
C309 C307 1.419 . S
C309 C310 1.362 . S
C310 H302 0.930 . S
C310 C309 1.362 . S
C310 C313 1.409 . S
C311 H303 0.930 . S
C311 C312 1.355 . S
C311 C313 1.415 . S
C312 C311 1.355 . S
C312 C314 1.419 . S
C313 C308 1.425 . S
C313 C310 1.409 . S
C313 C311 1.415 . S
C314 H304 0.930 . S
C314 C312 1.419 . S
C314 C315 1.362 . S
C315 H305 0.930 . S
C315 C308 1.409 . S
C315 C314 1.362 . S
H316 C322 0.930 . S
H317 C325 0.930 . S
H318 C326 0.930 . S
H319 C327 0.930 . S
H320 C330 0.930 . S
H321 C331 0.930 . S
C322 H316 0.930 . S
C322 C323 1.355 . S
C322 C324 1.415 . S
C323 C322 1.355 . S
C323 C325 1.419 . S
C324 C322 1.415 . S
C324 C329 1.425 . S
C324 C331 1.409 . S
C325 H317 0.930 . S
C325 C323 1.419 . S
C325 C326 1.362 . S
C326 H318 0.930 . S
C326 C325 1.362 . S
C326 C329 1.409 . S
C327 H319 0.930 . S
C327 C328 1.355 . S
C327 C329 1.415 . S
C328 C327 1.355 . S
C328 C330 1.419 . S
C329 C324 1.425 . S
C329 C326 1.409 . S
C329 C327 1.415 . S
C330 H320 0.930 . S
C330 C328 1.419 . S
C330 C331 1.362 . S
C331 H321 0.930 . S
C331 C324 1.409 . S
C331 C330 1.362 . S
H332 C338 0.930 . S
H333 C341 0.930 . S
H334 C342 0.930 . S
H335 C343 0.930 . S
H336 C346 0.930 . S
H337 C347 0.930 . S
C338 H332 0.930 . S
C338 C339 1.355 . S
C338 C340 1.415 . S
C339 C338 1.355 . S
C339 C341 1.419 . S
C340 C338 1.415 . S
C340 C345 1.425 . S
C340 C347 1.409 . S
C341 H333 0.930 . S
C341 C339 1.419 . S
C341 C342 1.362 . S
C342 H334 0.930 . S
C342 C341 1.362 . S
C342 C345 1.409 . S
C343 H335 0.930 . S
C343 C344 1.355 . S
C343 C345 1.415 . S
C344 C343 1.355 . S
C344 C346 1.419 . S
C345 C340 1.425 . S
C345 C342 1.409 . S
C345 C343 1.415 . S
C346 H336 0.930 . S
C346 C344 1.419 . S
C346 C347 1.362 . S
C347 H337 0.930 . S
C347 C340 1.409 . S
C347 C346 1.362 . S
H348 C354 0.930 . S
H349 C357 0.930 . S
H350 C358 0.930 . S
H351 C359 0.930 . S
H352 C362 0.930 . S
H353 C363 0.930 . S
C354 H348 0.930 . S
C354 C355 1.355 . S
C354 C356 1.415 1_554 S
C355 C354 1.355 . S
C355 C357 1.419 1_655 S
C356 C354 1.415 1_556 S
C356 C361 1.425 1_656 S
C356 C363 1.409 . S
C357 H349 0.930 . S
C357 C355 1.419 1_455 S
C357 C358 1.362 . S
C358 H350 0.930 . S
C358 C357 1.362 . S
C358 C361 1.409 . S
C359 H351 0.930 . S
C359 C360 1.355 . S
C359 C361 1.415 1_556 S
C360 C359 1.355 . S
C360 C362 1.419 1_455 S
C361 C356 1.425 1_454 S
C361 C358 1.409 . S
C361 C359 1.415 1_554 S
C362 H352 0.930 . S
C362 C360 1.419 1_655 S
C362 C363 1.362 . S
C363 H353 0.930 . S
C363 C356 1.409 . S
C363 C362 1.362 . S
H364 C370 0.930 . S
H365 C373 0.930 . S
H366 C374 0.930 1_556 S
H367 C375 0.930 . S
H368 C378 0.930 . S
H369 C379 0.930 1_554 S
C370 H364 0.930 . S
C370 C371 1.355 . S
C370 C372 1.415 . S
C371 C370 1.355 . S
C371 C373 1.419 . S
C372 C370 1.415 . S
C372 C377 1.425 1_554 S
C372 C379 1.409 1_554 S
C373 H365 0.930 . S
C373 C371 1.419 . S
C373 C374 1.362 . S
C374 H366 0.930 1_554 S
C374 C373 1.362 . S
C374 C377 1.409 1_554 S
C375 H367 0.930 . S
C375 C376 1.355 . S
C375 C377 1.415 . S
C376 C375 1.355 . S
C376 C378 1.419 . S
C377 C372 1.425 1_556 S
C377 C374 1.409 1_556 S
C377 C375 1.415 . S
C378 H368 0.930 . S
C378 C376 1.419 . S
C378 C379 1.362 . S
C379 H369 0.930 1_556 S
C379 C372 1.409 1_556 S
C379 C378 1.362 . S
H380 C386 0.930 . S
H381 C389 0.930 . S
H382 C390 0.930 . S
H383 C391 0.930 . S
H384 C394 0.930 . S
H385 C395 0.930 . S
C386 H380 0.930 . S
C386 C387 1.355 . S
C386 C388 1.427 . S
C387 C386 1.355 . S
C387 C389 1.419 . S
C388 C386 1.427 . S
C388 C393 1.409 1_544 S
C388 C395 1.413 1_544 S
C389 H381 0.930 . S
C389 C387 1.419 . S
C389 C390 1.362 . S
C390 H382 0.930 . S
C390 C389 1.362 . S
C390 C393 1.409 1_544 S
C391 H383 0.930 . S
C391 C392 1.355 . S
C391 C393 1.415 . S
C392 C391 1.355 . S
C392 C394 1.419 . S
C393 C388 1.409 1_566 S
C393 C390 1.409 1_566 S
C393 C391 1.415 . S
C394 H384 0.930 . S
C394 C392 1.419 . S
C394 C395 1.362 . S
C395 H385 0.930 . S
C395 C388 1.413 1_566 S
C395 C394 1.362 . S
H396 C402 0.930 . S
H397 C405 0.930 . S
H398 C406 0.930 . S
H399 C407 0.930 . S
H400 C410 0.930 . S
H401 C411 0.930 . S
C402 H396 0.930 . S
C402 C403 1.355 . S
C402 C404 1.415 . S
C403 C402 1.355 . S
C403 C405 1.419 . S
C404 C402 1.415 . S
C404 C409 1.425 . S
C404 C411 1.409 . S
C405 H397 0.930 . S
C405 C403 1.419 . S
C405 C406 1.362 . S
C406 H398 0.930 . S
C406 C405 1.362 . S
C406 C409 1.409 . S
C407 H399 0.930 . S
C407 C408 1.355 . S
C407 C409 1.415 . S
C408 C407 1.355 . S
C408 C410 1.419 . S
C409 C404 1.425 . S
C409 C406 1.409 . S
C409 C407 1.415 . S
C410 H400 0.930 . S
C410 C408 1.419 . S
C410 C411 1.362 . S
C411 H401 0.930 . S
C411 C404 1.409 . S
C411 C410 1.362 . S
H412 C418 0.930 . S
H413 C421 0.930 . S
H414 C422 0.930 . S
H415 C423 0.930 . S
H416 C426 0.930 . S
H417 C427 0.930 . S
C418 H412 0.930 . S
C418 C419 1.355 . S
C418 C420 1.415 . S
C419 C418 1.355 . S
C419 C421 1.419 . S
C420 C418 1.415 . S
C420 C425 1.425 . S
C420 C427 1.409 . S
C421 H413 0.930 . S
C421 C419 1.419 . S
C421 C422 1.362 . S
C422 H414 0.930 . S
C422 C421 1.362 . S
C422 C425 1.409 . S
C423 H415 0.930 . S
C423 C424 1.355 . S
C423 C425 1.415 . S
C424 C423 1.355 . S
C424 C426 1.419 . S
C425 C420 1.425 . S
C425 C422 1.409 . S
C425 C423 1.415 . S
C426 H416 0.930 . S
C426 C424 1.419 . S
C426 C427 1.362 . S
C427 H417 0.930 . S
C427 C420 1.409 . S
C427 C426 1.362 . S
H428 C434 0.930 . S
H429 C437 0.930 . S
H430 C438 0.930 . S
H431 C439 0.930 . S
H432 C442 0.930 . S
H433 C443 0.930 . S
C434 H428 0.930 . S
C434 C435 1.355 . S
C434 C436 1.415 . S
C435 C434 1.355 . S
C435 C437 1.419 . S
C436 C434 1.415 . S
C436 C441 1.425 . S
C436 C443 1.409 . S
C437 H429 0.930 . S
C437 C435 1.419 . S
C437 C438 1.362 . S
C438 H430 0.930 . S
C438 C437 1.362 . S
C438 C441 1.409 . S
C439 H431 0.930 . S
C439 C440 1.355 . S
C439 C441 1.415 . S
C440 C439 1.355 . S
C440 C442 1.419 . S
C441 C436 1.425 . S
C441 C438 1.409 . S
C441 C439 1.415 . S
C442 H432 0.930 . S
C442 C440 1.419 . S
C442 C443 1.362 . S
C443 H433 0.930 . S
C443 C436 1.409 . S
C443 C442 1.362 . S
H444 C450 0.930 . S
H445 C453 0.930 . S
H446 C454 0.930 . S
H447 C455 0.930 . S
H448 C458 0.930 . S
H449 C459 0.930 . S
C450 H444 0.930 . S
C450 C451 1.355 . S
C450 C452 1.415 . S
C451 C450 1.355 . S
C451 C453 1.419 . S
C452 C450 1.415 . S
C452 C457 1.425 . S
C452 C459 1.409 . S
C453 H445 0.930 . S
C453 C451 1.419 . S
C453 C454 1.362 . S
C454 H446 0.930 . S
C454 C453 1.362 . S
C454 C457 1.409 . S
C455 H447 0.930 . S
C455 C456 1.355 . S
C455 C457 1.415 . S
C456 C455 1.355 . S
C456 C458 1.419 . S
C457 C452 1.425 . S
C457 C454 1.409 . S
C457 C455 1.415 . S
C458 H448 0.930 . S
C458 C456 1.419 . S
C458 C459 1.362 . S
C459 H449 0.930 . S
C459 C452 1.409 . S
C459 C458 1.362 . S
H460 C466 0.930 . S
H461 C469 0.930 . S
H462 C470 0.930 . S
H463 C471 0.930 . S
H464 C474 0.930 . S
H465 C475 0.930 . S
C466 H460 0.930 . S
C466 C467 1.355 . S
C466 C468 1.415 . S
C467 C466 1.355 . S
C467 C469 1.419 . S
C468 C466 1.415 . S
C468 C473 1.425 . S
C468 C475 1.409 . S
C469 H461 0.930 . S
C469 C467 1.419 . S
C469 C470 1.362 . S
C470 H462 0.930 . S
C470 C469 1.362 . S
C470 C473 1.409 . S
C471 H463 0.930 . S
C471 C472 1.355 . S
C471 C473 1.415 . S
C472 C471 1.355 . S
C472 C474 1.419 . S
C473 C468 1.425 . S
C473 C470 1.409 . S
C473 C471 1.415 . S
C474 H464 0.930 . S
C474 C472 1.419 . S
C474 C475 1.362 . S
C475 H465 0.930 . S
C475 C468 1.409 . S
C475 C474 1.362 . S
H476 C482 0.930 . S
H477 C485 0.930 . S
H478 C486 0.930 . S
H479 C487 0.930 . S
H480 C490 0.930 . S
H481 C491 0.930 . S
C482 H476 0.930 . S
C482 C483 1.355 . S
C482 C484 1.415 . S
C483 C482 1.355 . S
C483 C485 1.419 . S
C484 C482 1.415 . S
C484 C489 1.425 . S
C484 C491 1.409 . S
C485 H477 0.930 . S
C485 C483 1.419 . S
C485 C486 1.362 . S
C486 H478 0.930 . S
C486 C485 1.362 . S
C486 C489 1.409 . S
C487 H479 0.930 . S
C487 C488 1.355 . S
C487 C489 1.415 . S
C488 C487 1.355 . S
C488 C490 1.419 . S
C489 C484 1.425 . S
C489 C486 1.409 . S
C489 C487 1.415 . S
C490 H480 0.930 . S
C490 C488 1.419 . S
C490 C491 1.362 . S
C491 H481 0.930 . S
C491 C484 1.409 . S
C491 C490 1.362 . S
H492 C498 0.930 . S
H493 C501 0.930 . S
H494 C502 0.930 . S
H495 C503 0.930 . S
H496 C506 0.930 . S
H497 C507 0.930 . S
C498 H492 0.930 . S
C498 C499 1.355 . S
C498 C500 1.415 . S
C499 C498 1.355 . S
C499 C501 1.419 1_655 S
C500 C498 1.415 . S
C500 C505 1.425 1_655 S
C500 C507 1.409 . S
C501 H493 0.930 . S
C501 C499 1.419 1_455 S
C501 C502 1.362 . S
C502 H494 0.930 . S
C502 C501 1.362 . S
C502 C505 1.409 . S
C503 H495 0.930 . S
C503 C504 1.355 . S
C503 C505 1.415 . S
C504 C503 1.355 . S
C504 C506 1.419 1_455 S
C505 C500 1.425 1_455 S
C505 C502 1.409 . S
C505 C503 1.415 . S
C506 H496 0.930 . S
C506 C504 1.419 1_655 S
C506 C507 1.362 . S
C507 H497 0.930 . S
C507 C500 1.409 . S
C507 C506 1.362 . S
H508 C514 0.930 . S
H509 C517 0.930 . S
H510 C518 0.930 . S
H511 C519 0.930 . S
H512 C522 0.930 . S
H513 C523 0.930 . S
C514 H508 0.930 . S
C514 C515 1.355 . S
C514 C516 1.415 . S
C515 C514 1.355 . S
C515 C517 1.419 . S
C516 C514 1.415 . S
C516 C521 1.425 . S
C516 C523 1.409 . S
C517 H509 0.930 . S
C517 C515 1.419 . S
C517 C518 1.362 . S
C518 H510 0.930 . S
C518 C517 1.362 . S
C518 C521 1.409 . S
C519 H511 0.930 . S
C519 C520 1.355 . S
C519 C521 1.415 . S
C520 C519 1.355 . S
C520 C522 1.419 . S
C521 C516 1.425 . S
C521 C518 1.409 . S
C521 C519 1.415 . S
C522 H512 0.930 . S
C522 C520 1.419 . S
C522 C523 1.362 . S
C523 H513 0.930 . S
C523 C516 1.409 . S
C523 C522 1.362 . S
H524 C530 0.930 . S
H525 C533 0.930 . S
H526 C534 0.930 . S
H527 C535 0.930 . S
H528 C538 0.930 . S
H529 C539 0.930 . S
C530 H524 0.930 . S
C530 C531 1.355 . S
C530 C532 1.415 . S
C531 C530 1.355 . S
C531 C533 1.419 1_565 S
C532 C530 1.415 . S
C532 C537 1.425 1_565 S
C532 C539 1.409 . S
C533 H525 0.930 . S
C533 C531 1.419 1_545 S
C533 C534 1.362 . S
C534 H526 0.930 . S
C534 C533 1.362 . S
C534 C537 1.409 . S
C535 H527 0.930 . S
C535 C536 1.355 . S
C535 C537 1.415 . S
C536 C535 1.355 . S
C536 C538 1.419 1_545 S
C537 C532 1.425 1_545 S
C537 C534 1.409 . S
C537 C535 1.415 . S
C538 H528 0.930 . S
C538 C536 1.419 1_565 S
C538 C539 1.362 . S
C539 H529 0.930 . S
C539 C532 1.409 . S
C539 C538 1.362 . S
H540 C546 0.930 . S
H541 C549 0.930 . S
H542 C550 0.930 . S
H543 C551 0.930 . S
H544 C554 0.930 . S
H545 C555 0.930 . S
C546 H540 0.930 . S
C546 C547 1.355 . S
C546 C548 1.415 1_554 S
C547 C546 1.355 . S
C547 C549 1.419 . S
C548 C546 1.415 1_556 S
C548 C553 1.425 1_556 S
C548 C555 1.409 . S
C549 H541 0.930 . S
C549 C547 1.419 . S
C549 C550 1.362 . S
C550 H542 0.930 . S
C550 C549 1.362 . S
C550 C553 1.409 . S
C551 H543 0.930 . S
C551 C552 1.355 . S
C551 C553 1.415 1_556 S
C552 C551 1.355 . S
C552 C554 1.419 . S
C553 C548 1.425 1_554 S
C553 C550 1.409 . S
C553 C551 1.415 1_554 S
C554 H544 0.930 . S
C554 C552 1.419 . S
C554 C555 1.362 . S
C555 H545 0.930 . S
C555 C548 1.409 . S
C555 C554 1.362 . S
H556 C562 0.930 . S
H557 C565 0.930 . S
H558 C566 0.930 1_565 S
H559 C567 0.930 . S
H560 C570 0.930 . S
H561 C571 0.930 1_545 S
C562 H556 0.930 . S
C562 C563 1.355 1_554 S
C562 C564 1.415 . S
C563 C562 1.355 1_556 S
C563 C565 1.419 . S
C564 C562 1.415 . S
C564 C569 1.425 1_544 S
C564 C571 1.409 1_545 S
C565 H557 0.930 . S
C565 C563 1.419 . S
C565 C566 1.362 . S
C566 H558 0.930 1_545 S
C566 C565 1.362 . S
C566 C569 1.409 1_545 S
C567 H559 0.930 . S
C567 C568 1.355 1_556 S
C567 C569 1.415 . S
C568 C567 1.355 1_554 S
C568 C570 1.419 . S
C569 C564 1.425 1_566 S
C569 C566 1.409 1_565 S
C569 C567 1.415 . S
C570 H560 0.930 . S
C570 C568 1.419 . S
C570 C571 1.362 . S
C571 H561 0.930 1_565 S
C571 C564 1.409 1_565 S
C571 C570 1.362 . S
H572 C578 0.930 . S
H573 C581 0.930 . S
H574 C582 0.930 1_554 S
H575 C583 0.930 . S
H576 C586 0.930 . S
H577 C587 0.930 1_556 S
C578 H572 0.930 . S
C578 C579 1.355 . S
C578 C580 1.415 . S
C579 C578 1.355 . S
C579 C581 1.419 . S
C580 C578 1.415 . S
C580 C585 1.425 1_656 S
C580 C587 1.409 1_656 S
C581 H573 0.930 . S
C581 C579 1.419 . S
C581 C582 1.362 . S
C582 H574 0.930 1_556 S
C582 C581 1.362 . S
C582 C585 1.409 1_656 S
C583 H575 0.930 . S
C583 C584 1.355 . S
C583 C585 1.415 . S
C584 C583 1.355 . S
C584 C586 1.419 . S
C585 C580 1.425 1_454 S
C585 C582 1.409 1_454 S
C585 C583 1.415 . S
C586 H576 0.930 . S
C586 C584 1.419 . S
C586 C587 1.362 . S
C587 H577 0.930 1_554 S
C587 C580 1.409 1_454 S
C587 C586 1.362 . S
H588 C594 0.930 . S
H589 C597 0.930 . S
H590 C598 0.930 . S
H591 C599 0.930 . S
H592 C602 0.930 . S
H593 C603 0.930 . S
C594 H588 0.930 . S
C594 C595 1.355 . S
C594 C596 1.415 . S
C595 C594 1.355 . S
C595 C597 1.419 . S
C596 C594 1.415 . S
C596 C601 1.425 1_556 S
C596 C603 1.409 . S
C597 H589 0.930 . S
C597 C595 1.419 . S
C597 C598 1.362 1_556 S
C598 H590 0.930 . S
C598 C597 1.362 1_554 S
C598 C601 1.409 . S
C599 H591 0.930 . S
C599 C600 1.355 . S
C599 C601 1.415 . S
C600 C599 1.355 . S
C600 C602 1.419 . S
C601 C596 1.425 1_554 S
C601 C598 1.409 . S
C601 C599 1.415 . S
C602 H592 0.930 . S
C602 C600 1.419 . S
C602 C603 1.362 1_554 S
C603 H593 0.930 . S
C603 C596 1.409 . S
C603 C602 1.362 1_556 S
H604 C610 0.930 . S
H605 C613 0.930 . S
H606 C614 0.930 1_545 S
H607 C615 0.930 . S
H608 C618 0.930 . S
H609 C619 0.930 1_565 S
C610 H604 0.930 . S
C610 C611 1.355 1_556 S
C610 C612 1.415 . S
C611 C610 1.355 1_554 S
C611 C613 1.419 . S
C612 C610 1.415 . S
C612 C617 1.425 1_566 S
C612 C619 1.409 1_565 S
C613 H605 0.930 . S
C613 C611 1.419 . S
C613 C614 1.362 . S
C614 H606 0.930 1_565 S
C614 C613 1.362 . S
C614 C617 1.409 1_565 S
C615 H607 0.930 . S
C615 C616 1.355 1_554 S
C615 C617 1.415 . S
C616 C615 1.355 1_556 S
C616 C618 1.419 . S
C617 C612 1.425 1_544 S
C617 C614 1.409 1_545 S
C617 C615 1.415 . S
C618 H608 0.930 . S
C618 C616 1.419 . S
C618 C619 1.362 . S
C619 H609 0.930 1_545 S
C619 C612 1.409 1_545 S
C619 C618 1.362 . S
H620 C626 0.930 . S
H621 C629 0.930 . S
H622 C630 0.930 . S
H623 C631 0.930 . S
H624 C634 0.930 . S
H625 C635 0.930 . S
C626 H620 0.930 . S
C626 C627 1.355 . S
C626 C628 1.415 . S
C627 C626 1.355 . S
C627 C629 1.419 1_556 S
C628 C626 1.415 . S
C628 C633 1.415 1_656 S
C628 C635 1.409 1_655 S
C629 H621 0.930 . S
C629 C627 1.419 1_554 S
C629 C630 1.362 . S
C630 H622 0.930 . S
C630 C629 1.362 . S
C630 C633 1.388 1_655 S
C631 H623 0.930 . S
C631 C632 1.355 . S
C631 C633 1.447 . S
C632 C631 1.355 . S
C632 C634 1.419 1_554 S
C633 C628 1.415 1_454 S
C633 C630 1.388 1_455 S
C633 C631 1.447 . S
C634 H624 0.930 . S
C634 C632 1.419 1_556 S
C634 C635 1.362 . S
C635 H625 0.930 . S
C635 C628 1.409 1_455 S
C635 C634 1.362 . S
H636 C642 0.930 . S
H637 C645 0.930 . S
H638 C646 0.930 . S
H639 C647 0.930 . S
H640 C650 0.930 . S
H641 C651 0.930 . S
C642 H636 0.930 . S
C642 C643 1.355 . S
C642 C644 1.415 . S
C643 C642 1.355 . S
C643 C645 1.419 . S
C644 C642 1.415 . S
C644 C649 1.425 . S
C644 C651 1.409 . S
C645 H637 0.930 . S
C645 C643 1.419 . S
C645 C646 1.362 . S
C646 H638 0.930 . S
C646 C645 1.362 . S
C646 C649 1.409 . S
C647 H639 0.930 . S
C647 C648 1.355 . S
C647 C649 1.415 . S
C648 C647 1.355 . S
C648 C650 1.419 . S
C649 C644 1.425 . S
C649 C646 1.409 . S
C649 C647 1.415 . S
C650 H640 0.930 . S
C650 C648 1.419 . S
C650 C651 1.362 . S
C651 H641 0.930 . S
C651 C644 1.409 . S
C651 C650 1.362 . S
H652 C658 0.930 . S
H653 C661 0.930 . S
H654 C662 0.930 . S
H655 C663 0.930 . S
H656 C666 0.930 . S
H657 C667 0.930 . S
C658 H652 0.930 . S
C658 C659 1.355 . S
C658 C660 1.415 . S
C659 C658 1.355 . S
C659 C661 1.419 . S
C660 C658 1.415 . S
C660 C665 1.425 . S
C660 C667 1.409 . S
C661 H653 0.930 . S
C661 C659 1.419 . S
C661 C662 1.362 . S
C662 H654 0.930 . S
C662 C661 1.362 . S
C662 C665 1.409 . S
C663 H655 0.930 . S
C663 C664 1.355 . S
C663 C665 1.415 . S
C664 C663 1.355 . S
C664 C666 1.419 . S
C665 C660 1.425 . S
C665 C662 1.409 . S
C665 C663 1.415 . S
C666 H656 0.930 . S
C666 C664 1.419 . S
C666 C667 1.362 . S
C667 H657 0.930 . S
C667 C660 1.409 . S
C667 C666 1.362 . S
H668 C674 0.930 . S
H669 C677 0.930 . S
H670 C678 0.930 . S
H671 C679 0.930 . S
H672 C682 0.930 . S
H673 C683 0.930 . S
C674 H668 0.930 . S
C674 C675 1.355 . S
C674 C676 1.415 . S
C675 C674 1.355 . S
C675 C677 1.419 . S
C676 C674 1.415 . S
C676 C681 1.425 . S
C676 C683 1.409 . S
C677 H669 0.930 . S
C677 C675 1.419 . S
C677 C678 1.362 . S
C678 H670 0.930 . S
C678 C677 1.362 . S
C678 C681 1.409 . S
C679 H671 0.930 . S
C679 C680 1.355 . S
C679 C681 1.415 . S
C680 C679 1.355 . S
C680 C682 1.419 . S
C681 C676 1.425 . S
C681 C678 1.409 . S
C681 C679 1.415 . S
C682 H672 0.930 . S
C682 C680 1.419 . S
C682 C683 1.362 . S
C683 H673 0.930 . S
C683 C676 1.409 . S
C683 C682 1.362 . S
H684 C690 0.930 . S
H685 C693 0.930 . S
H686 C694 0.930 . S
H687 C695 0.930 . S
H688 C698 0.930 . S
H689 C699 0.930 . S
C690 H684 0.930 . S
C690 C691 1.355 . S
C690 C692 1.415 . S
C691 C690 1.355 . S
C691 C693 1.419 . S
C692 C690 1.415 . S
C692 C697 1.425 . S
C692 C699 1.409 . S
C693 H685 0.930 . S
C693 C691 1.419 . S
C693 C694 1.362 . S
C694 H686 0.930 . S
C694 C693 1.362 . S
C694 C697 1.409 . S
C695 H687 0.930 . S
C695 C696 1.355 . S
C695 C697 1.415 . S
C696 C695 1.355 . S
C696 C698 1.419 . S
C697 C692 1.425 . S
C697 C694 1.409 . S
C697 C695 1.415 . S
C698 H688 0.930 . S
C698 C696 1.419 . S
C698 C699 1.362 . S
C699 H689 0.930 . S
C699 C692 1.409 . S
C699 C698 1.362 . S
H700 C706 0.930 . S
H701 C709 0.930 . S
H702 C710 0.930 . S
H703 C711 0.930 . S
H704 C714 0.930 . S
H705 C715 0.930 . S
C706 H700 0.930 . S
C706 C707 1.355 . S
C706 C708 1.415 . S
C707 C706 1.355 . S
C707 C709 1.419 . S
C708 C706 1.415 . S
C708 C713 1.425 . S
C708 C715 1.409 . S
C709 H701 0.930 . S
C709 C707 1.419 . S
C709 C710 1.362 . S
C710 H702 0.930 . S
C710 C709 1.362 . S
C710 C713 1.409 . S
C711 H703 0.930 . S
C711 C712 1.355 . S
C711 C713 1.415 . S
C712 C711 1.355 . S
C712 C714 1.419 . S
C713 C708 1.425 . S
C713 C710 1.409 . S
C713 C711 1.415 . S
C714 H704 0.930 . S
C714 C712 1.419 . S
C714 C715 1.362 . S
C715 H705 0.930 . S
C715 C708 1.409 . S
C715 C714 1.362 . S
H716 C722 0.930 . S
H717 C725 0.930 . S
H718 C726 0.930 . S
H719 C727 0.930 . S
H720 C730 0.930 . S
H721 C731 0.930 . S
C722 H716 0.930 . S
C722 C723 1.355 . S
C722 C724 1.415 . S
C723 C722 1.355 . S
C723 C725 1.419 . S
C724 C722 1.415 . S
C724 C729 1.425 . S
C724 C731 1.409 . S
C725 H717 0.930 . S
C725 C723 1.419 . S
C725 C726 1.362 . S
C726 H718 0.930 . S
C726 C725 1.362 . S
C726 C729 1.409 . S
C727 H719 0.930 . S
C727 C728 1.355 . S
C727 C729 1.415 . S
C728 C727 1.355 . S
C728 C730 1.419 . S
C729 C724 1.425 . S
C729 C726 1.409 . S
C729 C727 1.415 . S
C730 H720 0.930 . S
C730 C728 1.419 . S
C730 C731 1.362 . S
C731 H721 0.930 . S
C731 C724 1.409 . S
C731 C730 1.362 . S
H732 C738 0.930 . S
H733 C741 0.930 . S
H734 C742 0.930 . S
H735 C743 0.930 . S
H736 C746 0.930 . S
H737 C747 0.930 . S
C738 H732 0.930 . S
C738 C739 1.355 . S
C738 C740 1.415 . S
C739 C738 1.355 . S
C739 C741 1.419 . S
C740 C738 1.415 . S
C740 C745 1.425 . S
C740 C747 1.409 . S
C741 H733 0.930 . S
C741 C739 1.419 . S
C741 C742 1.362 . S
C742 H734 0.930 . S
C742 C741 1.362 . S
C742 C745 1.409 . S
C743 H735 0.930 . S
C743 C744 1.355 . S
C743 C745 1.415 . S
C744 C743 1.355 . S
C744 C746 1.419 . S
C745 C740 1.425 . S
C745 C742 1.409 . S
C745 C743 1.415 . S
C746 H736 0.930 . S
C746 C744 1.419 . S
C746 C747 1.362 . S
C747 H737 0.930 . S
C747 C740 1.409 . S
C747 C746 1.362 . S
H748 C754 0.930 . S
H749 C757 0.930 . S
H750 C758 0.930 . S
H751 C759 0.930 . S
H752 C762 0.930 . S
H753 C763 0.930 . S
C754 H748 0.930 . S
C754 C755 1.355 . S
C754 C756 1.415 . S
C755 C754 1.355 . S
C755 C757 1.419 . S
C756 C754 1.415 . S
C756 C761 1.425 . S
C756 C763 1.409 . S
C757 H749 0.930 . S
C757 C755 1.419 . S
C757 C758 1.362 . S
C758 H750 0.930 . S
C758 C757 1.362 . S
C758 C761 1.409 . S
C759 H751 0.930 . S
C759 C760 1.355 . S
C759 C761 1.415 . S
C760 C759 1.355 . S
C760 C762 1.419 . S
C761 C756 1.425 . S
C761 C758 1.409 . S
C761 C759 1.415 . S
C762 H752 0.930 . S
C762 C760 1.419 . S
C762 C763 1.362 . S
C763 H753 0.930 . S
C763 C756 1.409 . S
C763 C762 1.362 . S
H764 C770 0.930 . S
H765 C773 0.930 . S
H766 C774 0.930 . S
H767 C775 0.930 . S
H768 C778 0.930 . S
H769 C779 0.930 . S
C770 H764 0.930 . S
C770 C771 1.355 . S
C770 C772 1.415 . S
C771 C770 1.355 . S
C771 C773 1.419 . S
C772 C770 1.415 . S
C772 C777 1.425 . S
C772 C779 1.409 . S
C773 H765 0.930 . S
C773 C771 1.419 . S
C773 C774 1.362 . S
C774 H766 0.930 . S
C774 C773 1.362 . S
C774 C777 1.409 . S
C775 H767 0.930 . S
C775 C776 1.355 . S
C775 C777 1.415 . S
C776 C775 1.355 . S
C776 C778 1.419 . S
C777 C772 1.425 . S
C777 C774 1.409 . S
C777 C775 1.415 . S
C778 H768 0.930 . S
C778 C776 1.419 . S
C778 C779 1.362 . S
C779 H769 0.930 . S
C779 C772 1.409 . S
C779 C778 1.362 . S
H780 C786 0.930 . S
H781 C789 0.930 . S
H782 C790 0.930 . S
H783 C791 0.930 . S
H784 C794 0.930 . S
H785 C795 0.930 . S
C786 H780 0.930 . S
C786 C787 1.355 . S
C786 C788 1.415 . S
C787 C786 1.355 . S
C787 C789 1.419 . S
C788 C786 1.415 . S
C788 C793 1.425 . S
C788 C795 1.409 . S
C789 H781 0.930 . S
C789 C787 1.419 . S
C789 C790 1.362 . S
C790 H782 0.930 . S
C790 C789 1.362 . S
C790 C793 1.409 . S
C791 H783 0.930 . S
C791 C792 1.355 . S
C791 C793 1.415 . S
C792 C791 1.355 . S
C792 C794 1.419 . S
C793 C788 1.425 . S
C793 C790 1.409 . S
C793 C791 1.415 . S
C794 H784 0.930 . S
C794 C792 1.419 . S
C794 C795 1.362 . S
C795 H785 0.930 . S
C795 C788 1.409 . S
C795 C794 1.362 . S
H796 C802 0.930 . S
H797 C805 0.930 . S
H798 C806 0.930 . S
H799 C807 0.930 . S
H800 C810 0.930 . S
H801 C811 0.930 . S
C802 H796 0.930 . S
C802 C803 1.355 . S
C802 C804 1.415 . S
C803 C802 1.355 . S
C803 C805 1.419 . S
C804 C802 1.415 . S
C804 C809 1.425 . S
C804 C811 1.409 . S
C805 H797 0.930 . S
C805 C803 1.419 . S
C805 C806 1.362 . S
C806 H798 0.930 . S
C806 C805 1.362 . S
C806 C809 1.409 . S
C807 H799 0.930 . S
C807 C808 1.355 . S
C807 C809 1.415 . S
C808 C807 1.355 . S
C808 C810 1.419 . S
C809 C804 1.425 . S
C809 C806 1.409 . S
C809 C807 1.415 . S
C810 H800 0.930 . S
C810 C808 1.419 . S
C810 C811 1.362 . S
C811 H801 0.930 . S
C811 C804 1.409 . S
C811 C810 1.362 . S
H812 C818 0.930 . S
H813 C821 0.930 . S
H814 C822 0.930 . S
H815 C823 0.930 . S
H816 C826 0.930 . S
H817 C827 0.930 . S
C818 H812 0.930 . S
C818 C819 1.355 . S
C818 C820 1.415 . S
C819 C818 1.355 . S
C819 C821 1.419 . S
C820 C818 1.415 . S
C820 C825 1.425 . S
C820 C827 1.409 . S
C821 H813 0.930 . S
C821 C819 1.419 . S
C821 C822 1.362 . S
C822 H814 0.930 . S
C822 C821 1.362 . S
C822 C825 1.409 . S
C823 H815 0.930 . S
C823 C824 1.355 . S
C823 C825 1.415 . S
C824 C823 1.355 . S
C824 C826 1.419 . S
C825 C820 1.425 . S
C825 C822 1.409 . S
C825 C823 1.415 . S
C826 H816 0.930 . S
C826 C824 1.419 . S
C826 C827 1.362 . S
C827 H817 0.930 . S
C827 C820 1.409 . S
C827 C826 1.362 . S
C259 C241 1.805 . S
C264 C3 1.799 . S
C275 C213 1.801 . S
C280 C17 1.803 . S
C291 C227 1.800 . S
C296 C31 1.803 . S
C307 C101 1.801 . S
C312 C45 1.802 . S
C323 C115 1.801 . S
C328 C59 1.807 . S
C339 C73 1.803 . S
C344 C87 1.806 . S
C355 C129 1.802 . S
C360 C185 1.807 . S
C371 C143 1.800 . S
C376 C199 1.804 . S
C387 C157 1.807 . S
C392 C171 1.800 . S
C403 C7 0.504 . S
C408 C245 0.609 . S
C419 C217 0.566 . S
C424 C21 0.532 . S
C435 C35 0.538 . S
C440 C231 0.560 . S
C451 C105 0.550 . S
C456 C49 0.548 . S
C467 C63 0.549 . S
C472 C119 0.597 . S
C483 C77 0.587 . S
C488 C91 0.515 . S
C499 C133 0.559 . S
C504 C189 0.539 . S
C515 C203 0.504 . S
C520 C147 0.605 . S
C531 C175 0.559 . S
C536 C161 0.538 . S
C547 C9 1.709 . S
C552 C51 1.724 . S
C563 C65 1.717 . S
C568 C23 1.725 . S
C579 C79 1.704 . S
C584 C37 1.722 . S
C595 C78 1.685 . S
C600 C22 1.706 . S
C611 C36 1.699 . S
C616 C50 1.708 . S
C627 C64 1.681 . S
C632 C8 1.695 . S
C643 C93 1.700 . S
C648 C135 1.699 . S
C659 C149 1.705 . S
C664 C107 1.696 . S
C675 C163 1.711 . S
C680 C121 1.697 . S
C691 C162 1.696 . S
C696 C106 1.681 . S
C707 C120 1.688 . S
C712 C134 1.684 . S
C723 C148 1.708 . S
C728 C92 1.698 . S
C739 C219 1.700 . S
C744 C177 1.717 . S
C755 C233 1.705 . S
C760 C191 1.723 . S
C771 C205 1.696 . S
C776 C247 1.710 . S
C787 C246 1.701 . S
C792 C190 1.707 . S
C803 C204 1.707 . S
C808 C218 1.701 . S
C819 C232 1.688 . S
C824 C176 1.684 . S
