# Generated by pormake.
# Topology vbm, (6)-cn, num edge types: 1
# Building blocks:
#     Node 0, Type 0, BuildingBlock: PAMTOO_clean_sbu_0, # of connection points: 6
#     Node 1, Type 0, BuildingBlock: PAMTOO_clean_sbu_0, # of connection points: 6
#     Node 2, Type 0, BuildingBlock: PAMTOO_clean_sbu_0, # of connection points: 6
#     Node 3, Type 0, BuildingBlock: PAMTOO_clean_sbu_0, # of connection points: 6
#     Node 4, Type 0, BuildingBlock: PAMTOO_clean_sbu_0, # of connection points: 6
#     Node 5, Type 0, BuildingBlock: PAMTOO_clean_sbu_0, # of connection points: 6
#     Node 6, Type 0, BuildingBlock: PAMTOO_clean_sbu_0, # of connection points: 6
#     Node 7, Type 0, BuildingBlock: PAMTOO_clean_sbu_0, # of connection points: 6
#     Node 8, Type 0, BuildingBlock: PAMTOO_clean_sbu_0, # of connection points: 6
#     Node 9, Type 0, BuildingBlock: PAMTOO_clean_sbu_0, # of connection points: 6
#     Node 10, Type 0, BuildingBlock: PAMTOO_clean_sbu_0, # of connection points: 6
#     Node 11, Type 0, BuildingBlock: PAMTOO_clean_sbu_0, # of connection points: 6
#     Node 12, Type 0, BuildingBlock: PAMTOO_clean_sbu_0, # of connection points: 6
#     Node 13, Type 0, BuildingBlock: PAMTOO_clean_sbu_0, # of connection points: 6
#     Node 14, Type 0, BuildingBlock: PAMTOO_clean_sbu_0, # of connection points: 6
#     Node 15, Type 0, BuildingBlock: PAMTOO_clean_sbu_0, # of connection points: 6
#     Edge 16, Type (0, 0), BuildingBlock: XIVTED_clean_linker_0, # of connection points: 2
#     Edge 17, Type (0, 0), BuildingBlock: XIVTED_clean_linker_0, # of connection points: 2
#     Edge 18, Type (0, 0), BuildingBlock: XIVTED_clean_linker_0, # of connection points: 2
#     Edge 19, Type (0, 0), BuildingBlock: XIVTED_clean_linker_0, # of connection points: 2
#     Edge 20, Type (0, 0), BuildingBlock: XIVTED_clean_linker_0, # of connection points: 2
#     Edge 21, Type (0, 0), BuildingBlock: XIVTED_clean_linker_0, # of connection points: 2
#     Edge 22, Type (0, 0), BuildingBlock: XIVTED_clean_linker_0, # of connection points: 2
#     Edge 23, Type (0, 0), BuildingBlock: XIVTED_clean_linker_0, # of connection points: 2
#     Edge 24, Type (0, 0), BuildingBlock: XIVTED_clean_linker_0, # of connection points: 2
#     Edge 25, Type (0, 0), BuildingBlock: XIVTED_clean_linker_0, # of connection points: 2
#     Edge 26, Type (0, 0), BuildingBlock: XIVTED_clean_linker_0, # of connection points: 2
#     Edge 27, Type (0, 0), BuildingBlock: XIVTED_clean_linker_0, # of connection points: 2
#     Edge 28, Type (0, 0), BuildingBlock: XIVTED_clean_linker_0, # of connection points: 2
#     Edge 29, Type (0, 0), BuildingBlock: XIVTED_clean_linker_0, # of connection points: 2
#     Edge 30, Type (0, 0), BuildingBlock: XIVTED_clean_linker_0, # of connection points: 2
#     Edge 31, Type (0, 0), BuildingBlock: XIVTED_clean_linker_0, # of connection points: 2
#     Edge 32, Type (0, 0), BuildingBlock: XIVTED_clean_linker_0, # of connection points: 2
#     Edge 33, Type (0, 0), BuildingBlock: XIVTED_clean_linker_0, # of connection points: 2
#     Edge 34, Type (0, 0), BuildingBlock: XIVTED_clean_linker_0, # of connection points: 2
#     Edge 35, Type (0, 0), BuildingBlock: XIVTED_clean_linker_0, # of connection points: 2
#     Edge 36, Type (0, 0), BuildingBlock: XIVTED_clean_linker_0, # of connection points: 2
#     Edge 37, Type (0, 0), BuildingBlock: XIVTED_clean_linker_0, # of connection points: 2
#     Edge 38, Type (0, 0), BuildingBlock: XIVTED_clean_linker_0, # of connection points: 2
#     Edge 39, Type (0, 0), BuildingBlock: XIVTED_clean_linker_0, # of connection points: 2
#     Edge 40, Type (0, 0), BuildingBlock: XIVTED_clean_linker_0, # of connection points: 2
#     Edge 41, Type (0, 0), BuildingBlock: XIVTED_clean_linker_0, # of connection points: 2
#     Edge 42, Type (0, 0), BuildingBlock: XIVTED_clean_linker_0, # of connection points: 2
#     Edge 43, Type (0, 0), BuildingBlock: XIVTED_clean_linker_0, # of connection points: 2
#     Edge 44, Type (0, 0), BuildingBlock: XIVTED_clean_linker_0, # of connection points: 2
#     Edge 45, Type (0, 0), BuildingBlock: XIVTED_clean_linker_0, # of connection points: 2
#     Edge 46, Type (0, 0), BuildingBlock: XIVTED_clean_linker_0, # of connection points: 2
#     Edge 47, Type (0, 0), BuildingBlock: XIVTED_clean_linker_0, # of connection points: 2
#     Edge 48, Type (0, 0), BuildingBlock: XIVTED_clean_linker_0, # of connection points: 2
#     Edge 49, Type (0, 0), BuildingBlock: XIVTED_clean_linker_0, # of connection points: 2
#     Edge 50, Type (0, 0), BuildingBlock: XIVTED_clean_linker_0, # of connection points: 2
#     Edge 51, Type (0, 0), BuildingBlock: XIVTED_clean_linker_0, # of connection points: 2
#     Edge 52, Type (0, 0), BuildingBlock: XIVTED_clean_linker_0, # of connection points: 2
#     Edge 53, Type (0, 0), BuildingBlock: XIVTED_clean_linker_0, # of connection points: 2
#     Edge 54, Type (0, 0), BuildingBlock: XIVTED_clean_linker_0, # of connection points: 2
#     Edge 55, Type (0, 0), BuildingBlock: XIVTED_clean_linker_0, # of connection points: 2
#     Edge 56, Type (0, 0), BuildingBlock: XIVTED_clean_linker_0, # of connection points: 2
#     Edge 57, Type (0, 0), BuildingBlock: XIVTED_clean_linker_0, # of connection points: 2
#     Edge 58, Type (0, 0), BuildingBlock: XIVTED_clean_linker_0, # of connection points: 2
#     Edge 59, Type (0, 0), BuildingBlock: XIVTED_clean_linker_0, # of connection points: 2
#     Edge 60, Type (0, 0), BuildingBlock: XIVTED_clean_linker_0, # of connection points: 2
#     Edge 61, Type (0, 0), BuildingBlock: XIVTED_clean_linker_0, # of connection points: 2
#     Edge 62, Type (0, 0), BuildingBlock: XIVTED_clean_linker_0, # of connection points: 2
#     Edge 63, Type (0, 0), BuildingBlock: XIVTED_clean_linker_0, # of connection points: 2
# Relax obj value: 0.043
# Max RMSD: 0.118
# Mean RMSD: 0.118
data_MOF--net-vbm--node1-PAMTOO_clean_sbu_0--edge1-XIVTED_clean_linker_0
_symmetry_space_group_name_H-M    P1
_symmetry_Int_Tables_number       1
_symmetry_cell_setting            triclinic
loop_
_symmetry_equiv_pos_as_xyz
'x, y, z'
_cell_length_a     55.461489
_cell_length_b     26.36309
_cell_length_c     58.564651
_cell_angle_alpha  90.0998
_cell_angle_beta   90.035728
_cell_angle_gamma 89.986747
loop_
_atom_site_label
_atom_site_type_symbol
_atom_site_fract_x
_atom_site_fract_y
_atom_site_fract_z
_atom_type_partial_charge
Dy0 Dy 0.10521 0.19242 0.13613 0.0
Dy1 Dy 0.12824 0.07561 0.12579 0.0
C2 C 0.10921 0.14669 0.08581 0.0
O3 O 0.07344 0.14266 0.13011 0.0
O4 O 0.09002 0.06348 0.13661 0.0
O5 O 0.08266 0.25664 0.12749 0.0
O6 O 0.10376 0.25775 0.15864 0.0
O7 O 0.13869 0.10473 0.16002 0.0
O8 O 0.10359 0.14468 0.16795 0.0
O9 O 0.15747 0.12979 0.11562 0.0
O10 O 0.14503 0.20037 0.13595 0.0
O11 O 0.14175 1.00667 0.14085 0.0
O12 O 0.14043 1.01342 0.10405 0.0
C13 C 0.07132 0.09369 0.13391 0.0
O14 O 0.11302 0.1871 0.09857 0.0
O15 O 0.10863 0.1008 0.09457 0.0
C16 C 0.09456 0.33777 0.14184 0.0
C17 C 0.10217 0.44359 0.13562 0.0
C18 C 0.11287 0.40776 0.12081 0.0
C19 C 0.10908 0.3554 0.12387 0.0
C20 C 0.08423 0.37322 0.1568 0.0
C21 C 0.08796 0.42533 0.15377 0.0
C22 C 0.08931 0.28311 0.14527 0.0
C23 C 0.12197 0.11712 0.17471 0.0
C24 C 0.16113 0.17587 0.12372 0.0
C25 C 0.13702 0.9296 0.11992 0.0
C26 C 0.12756 0.82333 0.12026 0.0
C27 C 0.11587 0.85628 0.1357 0.0
C28 C 0.12053 0.90867 0.13554 0.0
C29 C 0.14813 0.89715 0.10406 0.0
C30 C 0.14344 0.84483 0.10417 0.0
C31 C 0.14477 0.98361 0.12135 0.0
H32 H 0.12379 0.42018 0.10655 0.0
H33 H 0.11728 0.32876 0.1121 0.0
H34 H 0.07306 0.36056 0.17086 0.0
H35 H 0.0798 0.45134 0.16582 0.0
H36 H 0.1037 0.84147 0.14851 0.0
H37 H 0.11171 0.93255 0.14808 0.0
H38 H 0.16097 0.91215 0.09188 0.0
H39 H 0.15247 0.82117 0.0917 0.0
Dy40 Dy 0.87092 0.84546 0.13469 0.0
Dy41 Dy 0.8497 0.96143 0.11994 0.0
C42 C 0.86647 0.8799 0.08305 0.0
O43 O 0.90317 0.89376 0.12785 0.0
O44 O 0.88703 0.97383 0.133 0.0
O45 O 0.89283 0.77922 0.12772 0.0
O46 O 0.87039 0.78126 0.15791 0.0
O47 O 0.84286 0.94895 0.15699 0.0
O48 O 0.87439 0.89588 0.16563 0.0
O49 O 0.82074 0.90475 0.11136 0.0
O50 O 0.83123 0.84724 0.13901 0.0
O51 O 0.82595 0.02549 0.126 0.0
O52 O 0.8502 0.02635 0.0972 0.0
C53 C 0.90559 0.94295 0.13111 0.0
O54 O 0.86158 0.84293 0.09736 0.0
O55 O 0.86822 0.92709 0.08999 0.0
C56 C 0.8791 0.69946 0.14224 0.0
C57 C 0.87083 0.59341 0.13658 0.0
C58 C 0.86357 0.62847 0.1197 0.0
C59 C 0.86769 0.68085 0.12248 0.0
C60 C 0.88599 0.66479 0.1592 0.0
C61 C 0.88193 0.61262 0.15645 0.0
C62 C 0.88497 0.75412 0.14539 0.0
C63 C 0.85835 0.93025 0.17169 0.0
C64 C 0.8156 0.86563 0.12443 0.0
C65 C 0.83929 0.10671 0.11277 0.0
C66 C 0.84704 0.21277 0.119 0.0
C67 C 0.85488 0.17734 0.13549 0.0
C68 C 0.85104 0.12493 0.13242 0.0
C69 C 0.83171 0.14175 0.09624 0.0
C70 C 0.83552 0.19393 0.09927 0.0
C71 C 0.8344 0.05186 0.10897 0.0
H72 H 0.85516 0.6154 0.10408 0.0
H73 H 0.86221 0.70671 0.10909 0.0
H74 H 0.89478 0.6781 0.17462 0.0
H75 H 0.8874 0.58733 0.17005 0.0
H76 H 0.86363 0.19009 0.151 0.0
H77 H 0.85711 0.09871 0.14544 0.0
H78 H 0.82273 0.12871 0.08088 0.0
H79 H 0.82961 0.21947 0.08594 0.0
Dy80 Dy 0.10715 0.83961 0.35881 0.0
Dy81 Dy 0.13046 0.95665 0.3687 0.0
C82 C 0.11175 0.88608 0.40891 0.0
O83 O 0.07555 0.88975 0.36485 0.0
O84 O 0.09221 0.96888 0.35825 0.0
O85 O 0.08467 0.77559 0.36789 0.0
O86 O 0.10551 0.77379 0.33663 0.0
O87 O 0.14004 0.92757 0.33422 0.0
O88 O 0.1049 0.88701 0.32694 0.0
O89 O 0.15944 0.90209 0.37896 0.0
O90 O 0.14695 0.83225 0.35819 0.0
O91 O 0.14389 0.02556 0.35353 0.0
O92 O 0.1431 0.01859 0.39033 0.0
C93 C 0.07351 0.93873 0.36101 0.0
O94 O 0.11553 0.84552 0.39625 0.0
O95 O 0.1109 0.93182 0.39999 0.0
C96 C 0.0964 0.69422 0.35382 0.0
C97 C 0.10484 0.58871 0.36022 0.0
C98 C 0.11837 0.62534 0.37234 0.0
C99 C 0.11417 0.67755 0.36919 0.0
C100 C 0.08309 0.65798 0.34161 0.0
C101 C 0.08723 0.60602 0.34473 0.0
C102 C 0.09111 0.74876 0.35016 0.0
C103 C 0.12298 0.91506 0.31987 0.0
C104 C 0.16298 0.85615 0.37072 0.0
C105 C 0.13982 0.10245 0.37461 0.0
C106 C 0.13001 0.20853 0.3742 0.0
C107 C 0.11608 0.17447 0.36107 0.0
C108 C 0.12092 0.12213 0.36127 0.0
C109 C 0.15326 0.13602 0.38822 0.0
C110 C 0.14843 0.18827 0.38806 0.0
C111 C 0.14736 0.04839 0.37302 0.0
H112 H 0.13194 0.61371 0.38454 0.0
H113 H 0.12469 0.70484 0.37881 0.0
H114 H 0.06938 0.66992 0.32957 0.0
H115 H 0.07675 0.57938 0.33473 0.0
H116 H 0.10189 0.18835 0.35002 0.0
H117 H 0.11028 0.09723 0.35051 0.0
H118 H 0.16796 0.12192 0.39862 0.0
H119 H 0.15928 0.21283 0.39875 0.0
Dy120 Dy 0.87484 0.19095 0.36054 0.0
Dy121 Dy 0.85189 0.07389 0.37045 0.0
C122 C 0.87035 0.14537 0.41063 0.0
O123 O 0.90651 0.14094 0.36665 0.0
O124 O 0.88997 0.06194 0.3595 0.0
O125 O 0.89702 0.25543 0.36974 0.0
O126 O 0.87672 0.2561 0.33811 0.0
O127 O 0.84229 0.10176 0.33579 0.0
O128 O 0.87714 0.14363 0.32863 0.0
O129 O 0.82266 0.128 0.38045 0.0
O130 O 0.83499 0.19807 0.35985 0.0
O131 O 0.83743 1.00536 0.35568 0.0
O132 O 0.84059 1.01154 0.39239 0.0
C133 C 0.90863 0.09209 0.36245 0.0
O134 O 0.86641 0.18568 0.39793 0.0
O135 O 0.87133 0.09956 0.40175 0.0
C136 C 0.88538 0.33623 0.35502 0.0
C137 C 0.87648 0.44184 0.36033 0.0
C138 C 0.86447 0.40589 0.37409 0.0
C139 C 0.86884 0.3536 0.37143 0.0
C140 C 0.89734 0.37182 0.34134 0.0
C141 C 0.89299 0.42384 0.34394 0.0
C142 C 0.89083 0.28164 0.35177 0.0
C143 C 0.8592 0.11527 0.32149 0.0
C144 C 0.81889 0.17366 0.37206 0.0
C145 C 0.84297 0.92814 0.37603 0.0
C146 C 0.85293 0.82228 0.37435 0.0
C147 C 0.86588 0.85676 0.36064 0.0
C148 C 0.86098 0.90902 0.36148 0.0
C149 C 0.83054 0.89413 0.3902 0.0
C150 C 0.83547 0.84194 0.38943 0.0
C151 C 0.83523 0.98211 0.37518 0.0
H152 H 0.85145 0.41807 0.38673 0.0
H153 H 0.85932 0.3268 0.38214 0.0
H154 H 0.91024 0.35934 0.32863 0.0
H155 H 0.90293 0.45003 0.33328 0.0
H156 H 0.87972 0.84334 0.34908 0.0
H157 H 0.87092 0.93431 0.35037 0.0
H158 H 0.81644 0.90779 0.40144 0.0
H159 H 0.82493 0.81681 0.40009 0.0
Dy160 Dy 0.84958 0.9592 0.8769 0.0
Dy161 Dy 0.87012 0.84226 0.86174 0.0
C162 C 0.8592 0.92992 0.82473 0.0
O163 O 0.82038 0.90316 0.88569 0.0
O164 O 0.83032 0.84208 0.8593 0.0
O165 O 0.8253 0.02293 0.87233 0.0
O166 O 0.8515 0.02408 0.89965 0.0
O167 O 0.86192 0.8406 0.89933 0.0
O168 O 0.86888 0.92487 0.90636 0.0
O169 O 0.90271 0.89 0.86816 0.0
O170 O 0.88705 0.97084 0.86405 0.0
O171 O 0.89185 0.77577 0.86859 0.0
O172 O 0.86931 0.77815 0.83842 0.0
C173 C 0.81541 0.86125 0.87433 0.0
O174 O 0.84469 0.95207 0.83938 0.0
O175 O 0.87306 0.89126 0.8304 0.0
C176 C 0.83963 0.1043 0.88481 0.0
C177 C 0.84725 0.21027 0.87868 0.0
C178 C 0.8497 0.17607 0.86024 0.0
C179 C 0.84599 0.12366 0.86327 0.0
C180 C 0.83723 0.13822 0.90316 0.0
C181 C 0.84097 0.19037 0.90018 0.0
C182 C 0.83495 0.04948 0.88879 0.0
C183 C 0.86723 0.87783 0.91343 0.0
C184 C 0.90541 0.93928 0.8654 0.0
C185 C 0.87725 0.6963 0.85418 0.0
C186 C 0.8683 0.59054 0.85947 0.0
C187 C 0.86588 0.62427 0.87808 0.0
C188 C 0.87026 0.67652 0.87547 0.0
C189 C 0.87936 0.66293 0.83558 0.0
C190 C 0.87493 0.61088 0.83815 0.0
C191 C 0.88366 0.75066 0.85099 0.0
H192 H 0.85477 0.18968 0.84348 0.0
H193 H 0.84806 0.09837 0.84881 0.0
H194 H 0.83223 0.12435 0.91991 0.0
H195 H 0.83849 0.2152 0.91473 0.0
H196 H 0.86049 0.61037 0.8947 0.0
H197 H 0.86841 0.70131 0.89013 0.0
H198 H 0.88487 0.67707 0.81903 0.0
H199 H 0.87734 0.58638 0.82347 0.0
Dy200 Dy 0.12836 0.06676 0.87755 0.0
Dy201 Dy 0.10691 0.18372 0.86381 0.0
C202 C 0.11813 0.09808 0.82581 0.0
O203 O 0.15754 0.12311 0.8862 0.0
O204 O 0.14663 0.18547 0.86082 0.0
O205 O 0.15241 1.00313 0.87162 0.0
O206 O 0.12782 1.00175 0.90018 0.0
O207 O 0.11538 0.18372 0.90141 0.0
O208 O 0.10902 0.09898 0.90744 0.0
O209 O 0.07471 0.13474 0.86985 0.0
O210 O 0.09079 0.05442 0.86496 0.0
O211 O 0.08527 0.24984 0.87178 0.0
O212 O 0.1065 0.24817 0.8408 0.0
C213 C 0.16209 0.16555 0.87513 0.0
O214 O 0.13295 0.07585 0.84012 0.0
O215 O 0.10398 0.13592 0.83199 0.0
C216 C 0.13914 0.92176 0.88468 0.0
C217 C 0.13113 0.81587 0.87867 0.0
C218 C 0.12363 0.85113 0.86197 0.0
C219 C 0.12754 0.90351 0.86497 0.0
C220 C 0.14662 0.88684 0.90129 0.0
C221 C 0.1427 0.83471 0.89836 0.0
C222 C 0.14386 0.97657 0.88855 0.0
C223 C 0.11053 0.14559 0.91513 0.0
C224 C 0.07227 0.08552 0.86663 0.0
C225 C 0.09856 0.32965 0.85692 0.0
C226 C 0.10769 0.43536 0.86218 0.0
C227 C 0.11503 0.40029 0.87901 0.0
C228 C 0.11055 0.34803 0.8764 0.0
C229 C 0.09145 0.36434 0.84006 0.0
C230 C 0.09594 0.41638 0.84261 0.0
C231 C 0.09244 0.27515 0.85389 0.0
H232 H 0.11443 0.83835 0.8467 0.0
H233 H 0.12149 0.92969 0.85193 0.0
H234 H 0.15567 0.89993 0.91661 0.0
H235 H 0.14914 0.80909 0.91144 0.0
H236 H 0.12439 0.41315 0.89418 0.0
H237 H 0.11633 0.32208 0.88965 0.0
H238 H 0.08208 0.35118 0.82493 0.0
H239 H 0.08965 0.44187 0.82941 0.0
Dy240 Dy 0.8498 0.06236 0.61809 0.0
Dy241 Dy 0.87001 0.17981 0.63274 0.0
C242 C 0.85939 0.09256 0.6701 0.0
O243 O 0.82041 0.11794 0.60918 0.0
O244 O 0.83022 0.18037 0.63501 0.0
O245 O 0.82521 0.99912 0.62255 0.0
O246 O 0.85207 0.99671 0.59589 0.0
O247 O 0.86208 0.18064 0.59503 0.0
O248 O 0.86877 0.09609 0.5884 0.0
O249 O 0.90258 0.13234 0.62623 0.0
O250 O 0.8874 0.05129 0.63088 0.0
O251 O 0.89175 0.24615 0.62567 0.0
O252 O 0.86938 0.24413 0.65593 0.0
C253 C 0.81523 0.16001 0.62035 0.0
O254 O 0.84494 0.06993 0.65555 0.0
O255 O 0.87312 0.1313 0.66426 0.0
C256 C 0.83913 0.91735 0.61064 0.0
C257 C 0.84665 0.81158 0.61717 0.0
C258 C 0.85502 0.84729 0.63334 0.0
C259 C 0.85136 0.89965 0.63008 0.0
C260 C 0.83071 0.88197 0.5946 0.0
C261 C 0.83438 0.82988 0.59779 0.0
C262 C 0.83499 0.97211 0.60633 0.0
C263 C 0.86723 0.14295 0.5811 0.0
C264 C 0.90558 0.08325 0.62926 0.0
C265 C 0.87792 0.3257 0.64032 0.0
C266 C 0.86907 0.43137 0.63483 0.0
C267 C 0.8612 0.39599 0.61829 0.0
C268 C 0.86555 0.34374 0.62101 0.0
C269 C 0.88554 0.36069 0.6569 0.0
C270 C 0.8812 0.41273 0.65422 0.0
C271 C 0.88391 0.27124 0.64341 0.0
H272 H 0.86474 0.83488 0.64836 0.0
H273 H 0.85814 0.92624 0.64266 0.0
H274 H 0.82119 0.89469 0.57949 0.0
H275 H 0.82727 0.80389 0.58514 0.0
H276 H 0.85154 0.4086 0.60326 0.0
H277 H 0.85939 0.31752 0.608 0.0
H278 H 0.89522 0.34777 0.67188 0.0
H279 H 0.8879 0.43846 0.66718 0.0
Dy280 Dy 0.13175 0.97663 0.61594 0.0
Dy281 Dy 0.11206 0.86006 0.63107 0.0
C282 C 0.11989 0.94915 0.66818 0.0
O283 O 0.16144 0.92031 0.60874 0.0
O284 O 0.15135 0.86525 0.63729 0.0
O285 O 0.15645 0.03969 0.62018 0.0
O286 O 0.12989 0.04125 0.59316 0.0
O287 O 0.12148 0.85814 0.59364 0.0
O288 O 0.11316 0.9415 0.58636 0.0
O289 O 0.07901 0.90621 0.62464 0.0
O290 O 0.09382 0.98805 0.62763 0.0
O291 O 0.09085 0.79296 0.62394 0.0
O292 O 0.11362 0.79533 0.65393 0.0
C293 C 0.16699 0.88301 0.62267 0.0
O294 O 0.13412 0.97299 0.65382 0.0
O295 O 0.10717 0.90886 0.6623 0.0
C296 C 0.14228 0.12116 0.60798 0.0
C297 C 0.13512 0.22712 0.61453 0.0
C298 C 0.13225 0.19271 0.63278 0.0
C299 C 0.13573 0.1403 0.62953 0.0
C300 C 0.14507 0.15527 0.58981 0.0
C301 C 0.14155 0.20744 0.593 0.0
C302 C 0.14671 0.06633 0.60383 0.0
C303 C 0.11562 0.89459 0.57935 0.0
C304 C 0.0758 0.95551 0.62677 0.0
C305 C 0.10577 0.71353 0.63792 0.0
C306 C 0.11446 0.6078 0.63211 0.0
C307 C 0.11659 0.6417 0.61359 0.0
C308 C 0.11231 0.69392 0.61645 0.0
C309 C 0.10403 0.68003 0.65646 0.0
C310 C 0.10832 0.62797 0.65363 0.0
C311 C 0.09928 0.76777 0.64136 0.0
H312 H 0.12704 0.20618 0.64954 0.0
H313 H 0.13333 0.11482 0.64384 0.0
H314 H 0.15021 0.14153 0.57305 0.0
H315 H 0.14434 0.23247 0.5786 0.0
H316 H 0.12161 0.62792 0.59682 0.0
H317 H 0.11386 0.71881 0.60183 0.0
H318 H 0.09884 0.69405 0.67315 0.0
H319 H 0.10613 0.60335 0.66826 0.0
Dy320 Dy 0.61082 0.67754 0.13336 0.0
Dy321 Dy 0.63126 0.56134 0.1182 0.0
C322 C 0.61504 0.64375 0.08155 0.0
O323 O 0.57831 0.63039 0.12611 0.0
O324 O 0.59382 0.54981 0.13111 0.0
O325 O 0.58914 0.74419 0.12669 0.0
O326 O 0.61174 0.74152 0.1568 0.0
O327 O 0.63801 0.57273 0.15536 0.0
O328 O 0.60696 0.62694 0.16413 0.0
O329 O 0.6606 0.61724 0.10994 0.0
O330 O 0.65048 0.67468 0.13784 0.0
O331 O 0.65488 0.49695 0.12386 0.0
O332 O 0.6302 0.49649 0.09533 0.0
C333 C 0.57549 0.58129 0.12921 0.0
O334 O 0.62016 0.68041 0.09602 0.0
O335 O 0.61308 0.59651 0.08828 0.0
C336 C 0.60336 0.8236 0.14138 0.0
C337 C 0.61184 0.9296 0.13616 0.0
C338 C 0.61659 0.89533 0.11815 0.0
C339 C 0.61242 0.84297 0.12073 0.0
C340 C 0.59889 0.85749 0.15939 0.0
C341 C 0.60305 0.90966 0.15686 0.0
C342 C 0.59725 0.76905 0.14439 0.0
C343 C 0.62271 0.59195 0.17011 0.0
C344 C 0.66602 0.6558 0.12329 0.0
C345 C 0.64101 0.41593 0.11064 0.0
C346 C 0.633 0.30999 0.11656 0.0
C347 C 0.62789 0.34479 0.13428 0.0
C348 C 0.6318 0.39717 0.13134 0.0
C349 C 0.64603 0.38145 0.09299 0.0
C350 C 0.64211 0.32932 0.09587 0.0
C351 C 0.64606 0.47071 0.10691 0.0
H352 H 0.62366 0.90889 0.10206 0.0
H353 H 0.6161 0.81774 0.10654 0.0
H354 H 0.59173 0.84365 0.17543 0.0
H355 H 0.59878 0.9345 0.17103 0.0
H356 H 0.62062 0.33165 0.15037 0.0
H357 H 0.62768 0.42293 0.14522 0.0
H358 H 0.65324 0.39487 0.0769 0.0
H359 H 0.64667 0.30405 0.08194 0.0
Dy360 Dy 0.37313 0.34629 0.13203 0.0
Dy361 Dy 0.34982 0.46333 0.12328 0.0
C362 C 0.3678 0.39404 0.08213 0.0
O363 O 0.40475 0.39606 0.1258 0.0
O364 O 0.38843 0.47524 0.133 0.0
O365 O 0.39533 0.28224 0.12225 0.0
O366 O 0.37543 0.28049 0.15405 0.0
O367 O 0.34047 0.43378 0.15768 0.0
O368 O 0.37565 0.39282 0.16426 0.0
O369 O 0.32018 0.40939 0.11374 0.0
O370 O 0.33338 0.33795 0.13289 0.0
O371 O 0.33767 0.53263 0.1391 0.0
O372 O 0.33602 0.52517 0.10232 0.0
C373 C 0.40702 0.44489 0.12987 0.0
O374 O 0.36453 0.35311 0.09465 0.0
O375 O 0.36848 0.43959 0.0913 0.0
C376 C 0.38406 0.20092 0.13657 0.0
C377 C 0.37558 0.0954 0.13035 0.0
C378 C 0.36241 0.13182 0.11782 0.0
C379 C 0.36663 0.18405 0.12089 0.0
C380 C 0.39699 0.16487 0.14921 0.0
C381 C 0.39283 0.11289 0.14617 0.0
C382 C 0.38943 0.25546 0.14012 0.0
C383 C 0.35756 0.42029 0.17179 0.0
C384 C 0.31683 0.36298 0.12149 0.0
C385 C 0.34064 0.60916 0.11771 0.0
C386 C 0.35049 0.71519 0.11738 0.0
C387 C 0.36447 0.68164 0.13068 0.0
C388 C 0.35961 0.62934 0.13085 0.0
C389 C 0.32717 0.64219 0.10392 0.0
C390 C 0.33203 0.69442 0.1037 0.0
C391 C 0.33303 0.55527 0.11981 0.0
H392 H 0.34911 0.12 0.10536 0.0
H393 H 0.35639 0.2112 0.11095 0.0
H394 H 0.41043 0.17698 0.1615 0.0
H395 H 0.40301 0.08639 0.15648 0.0
H396 H 0.37868 0.69593 0.14162 0.0
H397 H 0.37029 0.6049 0.14174 0.0
H398 H 0.31241 0.62771 0.09368 0.0
H399 H 0.32115 0.71858 0.09288 0.0
Dy400 Dy 0.6062 0.33753 0.36046 0.0
Dy401 Dy 0.62907 0.45492 0.36936 0.0
C402 C 0.61037 0.38612 0.41022 0.0
O403 O 0.57447 0.38723 0.36626 0.0
O404 O 0.59073 0.46632 0.35888 0.0
O405 O 0.58419 0.27322 0.37015 0.0
O406 O 0.60406 0.27183 0.3383 0.0
O407 O 0.63875 0.42522 0.33501 0.0
O408 O 0.60375 0.38369 0.32825 0.0
O409 O 0.65841 0.40137 0.37967 0.0
O410 O 0.64599 0.32995 0.35997 0.0
O411 O 0.64212 0.52366 0.35381 0.0
O412 O 0.64189 0.51725 0.39064 0.0
C413 C 0.57218 0.4359 0.36191 0.0
O414 O 0.6142 0.34503 0.39791 0.0
O415 O 0.60963 0.43145 0.4009 0.0
C416 C 0.59547 0.19213 0.35545 0.0
C417 C 0.60445 0.08665 0.36064 0.0
C418 C 0.61758 0.12279 0.37341 0.0
C419 C 0.61317 0.17505 0.3708 0.0
C420 C 0.58237 0.15634 0.3428 0.0
C421 C 0.58675 0.10436 0.34535 0.0
C422 C 0.59009 0.24666 0.35216 0.0
C423 C 0.62177 0.41137 0.32083 0.0
C424 C 0.66215 0.35518 0.37181 0.0
C425 C 0.63816 0.60067 0.3747 0.0
C426 C 0.62816 0.70647 0.37377 0.0
C427 C 0.61408 0.67196 0.36105 0.0
C428 C 0.61899 0.61971 0.36153 0.0
C429 C 0.65173 0.6347 0.38795 0.0
C430 C 0.64678 0.68689 0.38755 0.0
C431 C 0.64584 0.54679 0.37318 0.0
H432 H 0.6315 0.11077 0.38519 0.0
H433 H 0.62357 0.20204 0.3807 0.0
H434 H 0.56857 0.16864 0.33093 0.0
H435 H 0.57595 0.078 0.3355 0.0
H436 H 0.59934 0.68537 0.35053 0.0
H437 H 0.60816 0.59438 0.35116 0.0
H438 H 0.66672 0.62107 0.39811 0.0
H439 H 0.65819 0.71207 0.39741 0.0
Dy440 Dy 0.37231 0.68141 0.36096 0.0
Dy441 Dy 0.34935 0.56457 0.37059 0.0
C442 C 0.36788 0.63501 0.41108 0.0
O443 O 0.40397 0.63178 0.36704 0.0
O444 O 0.38754 0.55279 0.35969 0.0
O445 O 0.39406 0.74634 0.37038 0.0
O446 O 0.37456 0.74618 0.33831 0.0
O447 O 0.33952 0.59285 0.33606 0.0
O448 O 0.37445 0.63429 0.32888 0.0
O449 O 0.32021 0.61874 0.38095 0.0
O450 O 0.33255 0.68867 0.3603 0.0
O451 O 0.33495 0.49624 0.35559 0.0
O452 O 0.33793 0.50199 0.39233 0.0
C453 C 0.40617 0.58307 0.36268 0.0
O454 O 0.36418 0.67562 0.39848 0.0
O455 O 0.36876 0.58938 0.40201 0.0
C456 C 0.38239 0.8268 0.35513 0.0
C457 C 0.37334 0.93249 0.35986 0.0
C458 C 0.36451 0.89758 0.37608 0.0
C459 C 0.36894 0.84526 0.37372 0.0
C460 C 0.39111 0.86139 0.33896 0.0
C461 C 0.38669 0.91344 0.34126 0.0
C462 C 0.38815 0.77222 0.35223 0.0
C463 C 0.35636 0.60637 0.32169 0.0
C464 C 0.31654 0.6646 0.37272 0.0
C465 C 0.34064 0.41873 0.37582 0.0
C466 C 0.35039 0.31275 0.37465 0.0
C467 C 0.36104 0.34588 0.35871 0.0
C468 C 0.35627 0.39818 0.3593 0.0
C469 C 0.33056 0.38604 0.39214 0.0
C470 C 0.33541 0.33379 0.39163 0.0
C471 C 0.33278 0.47267 0.37503 0.0
H472 H 0.35395 0.91059 0.39049 0.0
H473 H 0.36193 0.81931 0.3864 0.0
H474 H 0.40162 0.84812 0.32454 0.0
H475 H 0.39416 0.93887 0.32861 0.0
H476 H 0.37298 0.33135 0.34561 0.0
H477 H 0.3644 0.42231 0.34649 0.0
H478 H 0.3183 0.40074 0.40494 0.0
H479 H 0.32668 0.30964 0.40407 0.0
Dy480 Dy 0.34874 0.45984 0.86935 0.0
Dy481 Dy 0.37272 0.34329 0.86092 0.0
C482 C 0.35679 0.41631 0.82103 0.0
O483 O 0.31961 0.40508 0.87964 0.0
O484 O 0.33299 0.33405 0.86024 0.0
O485 O 0.33572 0.528 0.85323 0.0
O486 O 0.33516 0.52245 0.89009 0.0
O487 O 0.3647 0.3513 0.89843 0.0
O488 O 0.3681 0.438 0.90116 0.0
O489 O 0.40419 0.39383 0.86674 0.0
O490 O 0.38733 0.47251 0.85955 0.0
O491 O 0.3945 0.27892 0.87109 0.0
O492 O 0.37568 0.27781 0.83867 0.0
C493 C 0.31651 0.35834 0.87206 0.0
O494 O 0.33954 0.42899 0.83511 0.0
O495 O 0.37506 0.38949 0.82862 0.0
C496 C 0.33943 0.60565 0.87383 0.0
C497 C 0.34943 0.71162 0.87295 0.0
C498 C 0.36257 0.67743 0.8592 0.0
C499 C 0.35767 0.62516 0.85966 0.0
C500 C 0.32682 0.63939 0.88807 0.0
C501 C 0.33178 0.69162 0.8877 0.0
C502 C 0.33166 0.55167 0.87241 0.0
C503 C 0.36789 0.39284 0.91063 0.0
C504 C 0.40615 0.44271 0.86265 0.0
C505 C 0.38346 0.19781 0.85601 0.0
C506 C 0.37416 0.0922 0.8609 0.0
C507 C 0.36254 0.12816 0.87502 0.0
C508 C 0.36709 0.18043 0.87256 0.0
C509 C 0.39502 0.1622 0.84198 0.0
C510 C 0.39049 0.1102 0.84437 0.0
C511 C 0.3891 0.2524 0.85295 0.0
H512 H 0.37658 0.69109 0.8479 0.0
H513 H 0.36779 0.60019 0.8485 0.0
H514 H 0.31254 0.6255 0.89902 0.0
H515 H 0.32111 0.71653 0.89839 0.0
H516 H 0.34967 0.11602 0.88778 0.0
H517 H 0.35786 0.2072 0.88356 0.0
H518 H 0.40778 0.17463 0.82914 0.0
H519 H 0.40014 0.08403 0.83343 0.0
Dy520 Dy 0.62979 0.56202 0.87605 0.0
Dy521 Dy 0.60974 0.67897 0.85998 0.0
C522 C 0.62053 0.58924 0.82359 0.0
O523 O 0.65894 0.61831 0.8849 0.0
O524 O 0.64954 0.67836 0.85793 0.0
O525 O 0.65502 0.49933 0.8732 0.0
O526 O 0.62619 0.4963 0.89796 0.0
O527 O 0.61767 0.68195 0.89767 0.0
O528 O 0.61081 0.59789 0.90536 0.0
O529 O 0.57698 0.63181 0.86644 0.0
O530 O 0.5925 0.55077 0.86267 0.0
O531 O 0.58788 0.74565 0.86622 0.0
O532 O 0.61111 0.74274 0.83657 0.0
C533 C 0.66417 0.65972 0.87333 0.0
O534 O 0.63477 0.5672 0.8385 0.0
O535 O 0.60701 0.62882 0.82881 0.0
C536 C 0.64067 0.4171 0.88405 0.0
C537 C 0.63451 0.31093 0.87689 0.0
C538 C 0.62632 0.34651 0.86061 0.0
C539 C 0.62937 0.39902 0.86415 0.0
C540 C 0.6487 0.3819 0.9003 0.0
C541 C 0.64568 0.32967 0.89682 0.0
C542 C 0.64415 0.47207 0.88867 0.0
C543 C 0.61243 0.64528 0.91203 0.0
C544 C 0.5742 0.58252 0.86376 0.0
C545 C 0.60213 0.82494 0.85164 0.0
C546 C 0.61015 0.93109 0.85708 0.0
C547 C 0.61746 0.8963 0.87406 0.0
C548 C 0.61347 0.84384 0.87139 0.0
C549 C 0.59528 0.85931 0.83456 0.0
C550 C 0.59923 0.91153 0.8372 0.0
C551 C 0.59627 0.77027 0.84862 0.0
H552 H 0.61783 0.33383 0.84496 0.0
H553 H 0.62295 0.42542 0.85137 0.0
H554 H 0.6573 0.39488 0.91588 0.0
H555 H 0.65181 0.30398 0.91 0.0
H556 H 0.62577 0.90966 0.88968 0.0
H557 H 0.61894 0.81818 0.88485 0.0
H558 H 0.58659 0.84574 0.81914 0.0
H559 H 0.59376 0.93659 0.82351 0.0
Dy560 Dy 0.3473 0.56621 0.62233 0.0
Dy561 Dy 0.37051 0.68209 0.63277 0.0
C562 C 0.35736 0.60444 0.67188 0.0
O563 O 0.31815 0.62251 0.61343 0.0
O564 O 0.33091 0.68604 0.63754 0.0
O565 O 0.33117 0.49871 0.63642 0.0
O566 O 0.33677 0.50368 0.6 0.0
O567 O 0.36105 0.67745 0.59539 0.0
O568 O 0.36651 0.59181 0.59112 0.0
O569 O 0.40231 0.63272 0.62634 0.0
O570 O 0.38593 0.55295 0.63198 0.0
O571 O 0.39156 0.74754 0.62276 0.0
O572 O 0.37306 0.74735 0.6553 0.0
C573 C 0.3143 0.66511 0.62469 0.0
O574 O 0.34002 0.59041 0.65808 0.0
O575 O 0.3747 0.63409 0.66439 0.0
C576 C 0.33783 0.42063 0.6168 0.0
C577 C 0.34737 0.31454 0.61903 0.0
C578 C 0.35796 0.34848 0.63474 0.0
C579 C 0.35329 0.40081 0.63363 0.0
C580 C 0.32779 0.38713 0.60073 0.0
C581 C 0.33253 0.33484 0.60177 0.0
C582 C 0.3302 0.47482 0.61695 0.0
C583 C 0.36525 0.63756 0.5824 0.0
C584 C 0.40458 0.58355 0.62954 0.0
C585 C 0.37983 0.82808 0.63808 0.0
C586 C 0.37059 0.93373 0.63291 0.0
C587 C 0.36207 0.89829 0.6167 0.0
C588 C 0.36661 0.84605 0.61926 0.0
C589 C 0.38817 0.86315 0.6543 0.0
C590 C 0.38365 0.91515 0.65178 0.0
C591 C 0.38601 0.77361 0.64098 0.0
H592 H 0.3698 0.33459 0.64805 0.0
H593 H 0.36139 0.42559 0.64626 0.0
H594 H 0.31567 0.40125 0.58769 0.0
H595 H 0.32384 0.31013 0.58948 0.0
H596 H 0.35171 0.91081 0.60208 0.0
H597 H 0.35992 0.8198 0.6065 0.0
H598 H 0.39853 0.85032 0.66889 0.0
H599 H 0.3909 0.94091 0.66446 0.0
Dy600 Dy 0.62856 0.45591 0.6211 0.0
Dy601 Dy 0.60588 0.33901 0.63167 0.0
C602 C 0.62021 0.41723 0.67069 0.0
O603 O 0.65791 0.40094 0.61153 0.0
O604 O 0.64568 0.33234 0.63302 0.0
O605 O 0.64396 0.52442 0.63497 0.0
O606 O 0.63923 0.51749 0.59847 0.0
O607 O 0.61409 0.3445 0.59414 0.0
O608 O 0.60845 0.43021 0.59033 0.0
O609 O 0.57395 0.38863 0.62622 0.0
O610 O 0.59022 0.46863 0.63166 0.0
O611 O 0.58301 0.27541 0.62239 0.0
O612 O 0.60475 0.27242 0.65313 0.0
C613 C 0.66173 0.35567 0.6204 0.0
O614 O 0.63701 0.43191 0.6565 0.0
O615 O 0.60342 0.38533 0.66395 0.0
C616 C 0.63772 0.60119 0.61451 0.0
C617 C 0.62794 0.70711 0.61573 0.0
C618 C 0.61609 0.67347 0.63069 0.0
C619 C 0.6209 0.62118 0.63009 0.0
C620 C 0.64903 0.63432 0.59915 0.0
C621 C 0.64419 0.68653 0.5997 0.0
C622 C 0.64539 0.54722 0.61531 0.0
C623 C 0.60969 0.38458 0.58141 0.0
C624 C 0.57163 0.43776 0.6296 0.0
C625 C 0.59604 0.19339 0.6346 0.0
C626 C 0.60424 0.08761 0.62854 0.0
C627 C 0.58184 0.10962 0.62296 0.0
C628 C 0.57781 0.16168 0.62602 0.0
C629 C 0.61864 0.17195 0.6397 0.0
C630 C 0.62268 0.11973 0.63671 0.0
C631 C 0.59041 0.24755 0.63941 0.0
H632 H 0.60364 0.68765 0.64342 0.0
H633 H 0.61194 0.59659 0.64221 0.0
H634 H 0.66209 0.61993 0.58701 0.0
H635 H 0.65334 0.71079 0.58759 0.0
H636 H 0.56732 0.08662 0.61621 0.0
H637 H 0.56022 0.17713 0.62196 0.0
H638 H 0.63308 0.19529 0.6464 0.0
H639 H 0.64009 0.10439 0.64142 0.0
H640 H 0.20519 0.1349 0.11239 0.0
H641 H 0.27228 0.40447 0.11249 0.0
H642 H 0.16909 0.27756 0.12449 0.0
H643 H 0.30891 0.26128 0.12127 0.0
H644 H 0.23396 0.35844 0.10901 0.0
H645 H 0.24331 0.18113 0.10778 0.0
C646 C 0.20525 0.17586 0.11388 0.0
C647 C 0.18407 0.20235 0.1192 0.0
C648 C 0.25046 0.33723 0.11156 0.0
C649 C 0.22732 0.25528 0.11378 0.0
C650 C 0.27228 0.36345 0.11348 0.0
C651 C 0.2937 0.33673 0.11755 0.0
C652 C 0.25021 0.28403 0.11343 0.0
C653 C 0.29274 0.2835 0.11858 0.0
C654 C 0.22696 0.20219 0.11131 0.0
C655 C 0.18511 0.2555 0.12084 0.0
N656 N 0.27136 0.25893 0.11662 0.0
N657 N 0.20637 0.28018 0.11822 0.0
H658 H 0.78639 0.85035 0.08684 0.0
H659 H 0.69171 0.68856 0.15929 0.0
H660 H 0.79211 0.82015 0.15901 0.0
H661 H 0.69354 0.68057 0.08578 0.0
H662 H 0.72743 0.74176 0.1588 0.0
H663 H 0.75039 0.79529 0.08531 0.0
C664 C 0.77981 0.8329 0.10237 0.0
C665 C 0.79212 0.83974 0.12309 0.0
C666 C 0.7203 0.7281 0.14271 0.0
C667 C 0.75162 0.77676 0.12144 0.0
C668 C 0.69996 0.69751 0.14301 0.0
C669 C 0.68987 0.68002 0.12257 0.0
C670 C 0.73056 0.74217 0.12175 0.0
C671 C 0.7011 0.69288 0.10191 0.0
C672 C 0.75955 0.80107 0.10144 0.0
C673 C 0.7832 0.81574 0.14266 0.0
N674 N 0.72083 0.72379 0.10198 0.0
N675 N 0.76358 0.78544 0.14134 0.0
H676 H 0.27209 0.62426 0.38278 0.0
H677 H 0.20702 0.89578 0.38284 0.0
H678 H 0.30954 0.76633 0.37359 0.0
H679 H 0.17009 0.7543 0.37018 0.0
H680 H 0.24468 0.84829 0.38821 0.0
H681 H 0.23416 0.67149 0.387 0.0
C682 C 0.27234 0.66529 0.38189 0.0
C683 C 0.2938 0.69142 0.3774 0.0
C684 C 0.22824 0.82778 0.38441 0.0
C685 C 0.25088 0.74537 0.38236 0.0
C686 C 0.20682 0.85482 0.38138 0.0
C687 C 0.18559 0.82899 0.37563 0.0
C688 C 0.22822 0.77469 0.38195 0.0
C689 C 0.1862 0.77582 0.37411 0.0
C690 C 0.25077 0.69217 0.38423 0.0
C691 C 0.29325 0.74464 0.37654 0.0
N692 N 0.2072 0.75044 0.37714 0.0
N693 N 0.27211 0.76986 0.37888 0.0
H694 H 0.77521 0.13148 0.38329 0.0
H695 H 0.70597 0.39818 0.38199 0.0
H696 H 0.81021 0.27503 0.37071 0.0
H697 H 0.6708 0.25377 0.37183 0.0
H698 H 0.74455 0.35357 0.38628 0.0
H699 H 0.73671 0.17641 0.3875 0.0
C700 C 0.77481 0.17238 0.3816 0.0
C701 C 0.79578 0.19951 0.37627 0.0
C702 C 0.72831 0.33179 0.38325 0.0
C703 C 0.75214 0.2509 0.38124 0.0
C704 C 0.70635 0.35717 0.38086 0.0
C705 C 0.68531 0.32966 0.37617 0.0
C706 C 0.72903 0.27866 0.38122 0.0
C707 C 0.68671 0.27653 0.37499 0.0
C708 C 0.7529 0.19795 0.38395 0.0
C709 C 0.79435 0.25253 0.37439 0.0
N710 N 0.70822 0.25275 0.37742 0.0
N711 N 0.77288 0.27649 0.37679 0.0
H712 H 0.669 0.76171 0.87155 0.0
H713 H 0.81059 0.75922 0.87299 0.0
H714 H 0.70903 0.62553 0.88668 0.0
H715 H 0.77028 0.89591 0.88662 0.0
H716 H 0.77382 0.70957 0.8775 0.0
H717 H 0.70566 0.81156 0.87655 0.0
C718 C 0.68557 0.7423 0.87601 0.0
C719 C 0.68613 0.6893 0.87838 0.0
C720 C 0.77301 0.75032 0.87977 0.0
C721 C 0.72819 0.74629 0.88401 0.0
C722 C 0.79394 0.77879 0.87703 0.0
C723 C 0.79335 0.83186 0.87911 0.0
C724 C 0.75115 0.77508 0.88417 0.0
C725 C 0.77143 0.85512 0.88475 0.0
C726 C 0.70643 0.77089 0.87904 0.0
C727 C 0.70792 0.66625 0.88459 0.0
N728 N 0.75105 0.8266 0.88671 0.0
N729 N 0.72825 0.69486 0.88681 0.0
H730 H 0.31057 0.2562 0.87424 0.0
H731 H 0.16825 0.26717 0.87185 0.0
H732 H 0.27116 0.39665 0.88085 0.0
H733 H 0.207 0.12961 0.88753 0.0
H734 H 0.20563 0.31505 0.87514 0.0
H735 H 0.27311 0.2092 0.87911 0.0
C736 C 0.29399 0.27723 0.87678 0.0
C737 C 0.29392 0.33055 0.87681 0.0
C738 C 0.20599 0.2745 0.87808 0.0
C739 C 0.25089 0.27664 0.88237 0.0
C740 C 0.18468 0.247 0.87606 0.0
C741 C 0.18462 0.19415 0.8791 0.0
C742 C 0.22759 0.24901 0.88282 0.0
C743 C 0.20632 0.17023 0.88494 0.0
C744 C 0.27264 0.25025 0.87972 0.0
C745 C 0.272 0.35563 0.88059 0.0
N746 N 0.22706 0.19779 0.88628 0.0
N747 N 0.25127 0.32842 0.88289 0.0
H748 H 0.70656 0.39493 0.61043 0.0
H749 H 0.77107 0.12234 0.60683 0.0
H750 H 0.6686 0.25372 0.62021 0.0
H751 H 0.80814 0.26143 0.6236 0.0
H752 H 0.73338 0.17094 0.60281 0.0
H753 H 0.74434 0.34686 0.60634 0.0
C754 C 0.70615 0.35392 0.61149 0.0
C755 C 0.68454 0.32834 0.61603 0.0
C756 C 0.74987 0.19068 0.60721 0.0
C757 C 0.72735 0.27333 0.6111 0.0
C758 C 0.7713 0.16303 0.60943 0.0
C759 C 0.79258 0.18779 0.61593 0.0
C760 C 0.74996 0.24341 0.61108 0.0
C761 C 0.79199 0.24067 0.61901 0.0
C762 C 0.72765 0.32655 0.60922 0.0
C763 C 0.68496 0.27506 0.61715 0.0
N764 N 0.77104 0.26668 0.6166 0.0
N765 N 0.70601 0.24936 0.61475 0.0
H766 H 0.19315 0.8525 0.65881 0.0
H767 H 0.28371 0.67681 0.58779 0.0
H768 H 0.19359 0.85335 0.58521 0.0
H769 H 0.29259 0.71632 0.65879 0.0
H770 H 0.24837 0.73379 0.58601 0.0
H771 H 0.22821 0.79717 0.65865 0.0
C772 C 0.20098 0.84162 0.64257 0.0
C773 C 0.19069 0.85783 0.62201 0.0
C774 C 0.25806 0.7296 0.60195 0.0
C775 C 0.23056 0.793 0.6216 0.0
C776 C 0.27794 0.69667 0.60304 0.0
C777 C 0.29096 0.69185 0.62348 0.0
C778 C 0.25118 0.75705 0.62153 0.0
C779 C 0.28309 0.71902 0.64267 0.0
C780 C 0.22093 0.80976 0.64246 0.0
C781 C 0.20134 0.84223 0.60142 0.0
N782 N 0.26379 0.75029 0.64121 0.0
N783 N 0.22064 0.81009 0.6017 0.0
H784 H 0.08393 0.93252 0.29195 0.0
H785 H 0.16083 0.07945 0.19744 0.0
H786 H 0.16064 0.95733 0.29691 0.0
H787 H 0.08365 0.09561 0.20294 0.0
H788 H 0.16085 0.02851 0.23218 0.0
H789 H 0.08319 0.98424 0.25707 0.0
C790 C 0.10065 0.94813 0.28552 0.0
C791 C 0.1224 0.94044 0.29732 0.0
C792 C 0.14391 0.0435 0.22594 0.0
C793 C 0.12164 0.99993 0.25766 0.0
C794 C 0.14389 0.07274 0.20612 0.0
C795 C 0.12222 0.09209 0.19734 0.0
C796 C 0.12205 0.03265 0.23698 0.0
C797 C 0.1008 0.08192 0.20927 0.0
C798 C 0.10017 0.9781 0.26577 0.0
C799 C 0.14347 0.96224 0.28839 0.0
N800 N 0.10121 0.05248 0.22839 0.0
N801 N 0.14256 0.99083 0.26913 0.0
H802 H 0.898 0.09961 0.29312 0.0
H803 H 0.82007 0.96876 0.19481 0.0
H804 H 0.82128 0.07497 0.2981 0.0
H805 H 0.89664 0.94363 0.201 0.0
H806 H 0.82056 0.01484 0.23096 0.0
H807 H 0.89832 0.05125 0.25718 0.0
C808 C 0.88119 0.08471 0.28649 0.0
C809 C 0.85955 0.09152 0.29856 0.0
C810 C 0.83725 0.99892 0.22457 0.0
C811 C 0.85984 0.036 0.2577 0.0
C812 C 0.83698 0.97251 0.20394 0.0
C813 C 0.85833 0.95211 0.19497 0.0
C814 C 0.85912 1.00597 0.23621 0.0
C815 C 0.87973 0.95827 0.20749 0.0
C816 C 0.88144 0.05666 0.26615 0.0
C817 C 0.83837 0.0707 0.28937 0.0
N818 N 0.87965 0.98517 0.2274 0.0
N819 N 0.83904 0.04409 0.2695 0.0
H820 H 0.87062 0.13955 0.71084 0.0
H821 H 0.87164 0.88392 0.78412 0.0
H822 H 0.85303 0.99379 0.68165 0.0
H823 H 0.85142 0.02838 0.81311 0.0
H824 H 0.87363 0.92418 0.74626 0.0
H825 H 0.87241 0.09956 0.74881 0.0
C826 C 0.86726 0.09924 0.71241 0.0
C827 C 0.86135 0.07009 0.69317 0.0
C828 C 0.86881 0.9469 0.76099 0.0
C829 C 0.86388 0.02415 0.73617 0.0
C830 C 0.86772 0.92401 0.78253 0.0
C831 C 0.86104 0.95267 0.8017 0.0
C832 C 0.86381 0.99898 0.75878 0.0
C833 C 0.85626 1.00464 0.79872 0.0
C834 C 0.86822 0.07651 0.73401 0.0
C835 C 0.85725 0.01786 0.69611 0.0
N836 N 0.85784 0.02617 0.77771 0.0
N837 N 0.8587 0.99654 0.71716 0.0
H838 H 0.12637 1.00037 0.81328 0.0
H839 H 0.12483 0.04818 0.68036 0.0
H840 H 0.10563 0.14549 0.78553 0.0
H841 H 0.10905 0.9008 0.70857 0.0
H842 H 0.122 0.08502 0.71859 0.0
H843 H 0.12435 0.96361 0.77502 0.0
C844 C 0.12147 0.02461 0.79909 0.0
C845 C 0.11638 0.07628 0.80255 0.0
C846 C 0.11903 0.0447 0.7164 0.0
C847 C 0.11416 0.03423 0.75867 0.0
C848 C 0.12081 0.0235 0.69463 0.0
C849 C 0.11737 0.97119 0.69132 0.0
C850 C 0.11429 1.01328 0.73514 0.0
C851 C 0.11187 0.94124 0.71039 0.0
C852 C 0.12013 1.00342 0.7773 0.0
C853 C 0.10974 0.10558 0.78359 0.0
N854 N 0.11082 0.96262 0.73157 0.0
N855 N 0.10914 0.08428 0.76237 0.0
H856 H 0.58283 0.4271 0.29259 0.0
H857 H 0.66079 0.55193 0.193 0.0
H858 H 0.65974 0.44966 0.29695 0.0
H859 H 0.58457 0.5806 0.19976 0.0
H860 H 0.66025 0.50676 0.22931 0.0
H861 H 0.58254 0.47411 0.25635 0.0
C862 C 0.59968 0.44125 0.28577 0.0
C863 C 0.62138 0.43426 0.29775 0.0
C864 C 0.64365 0.52324 0.22299 0.0
C865 C 0.62111 0.48823 0.25654 0.0
C866 C 0.64395 0.54912 0.20227 0.0
C867 C 0.62271 0.57029 0.19341 0.0
C868 C 0.62186 0.51749 0.23487 0.0
C869 C 0.60139 0.56533 0.20614 0.0
C870 C 0.59945 0.46853 0.26525 0.0
C871 C 0.64262 0.4541 0.2883 0.0
N872 N 0.60143 0.53894 0.22616 0.0
N873 N 0.64196 0.47996 0.26826 0.0
H874 H 0.31796 0.56825 0.29828 0.0
H875 H 0.39636 0.43569 0.20034 0.0
H876 H 0.39489 0.58937 0.29305 0.0
H877 H 0.31953 0.45902 0.19555 0.0
H878 H 0.39653 0.48318 0.23652 0.0
H879 H 0.31851 0.52107 0.26238 0.0
C880 C 0.33497 0.56338 0.28944 0.0
C881 C 0.35639 0.58308 0.29862 0.0
C882 C 0.37965 0.47763 0.22756 0.0
C883 C 0.35723 0.52797 0.25762 0.0
C884 C 0.3795 0.45009 0.20705 0.0
C885 C 0.35788 0.44325 0.19493 0.0
C886 C 0.35799 0.49782 0.23612 0.0
C887 C 0.33662 0.46338 0.20428 0.0
C888 C 0.33527 0.5363 0.26895 0.0
C889 C 0.37791 0.57533 0.28645 0.0
N890 N 0.33721 0.48958 0.22428 0.0
N891 N 0.37783 0.54798 0.26666 0.0
H892 H 0.31847 0.45266 0.79711 0.0
H893 H 0.39662 0.58894 0.69999 0.0
H894 H 0.39571 0.43577 0.79309 0.0
H895 H 0.31973 0.56594 0.69601 0.0
H896 H 0.39719 0.54097 0.73606 0.0
H897 H 0.31909 0.50058 0.76156 0.0
C898 C 0.33557 0.4586 0.7886 0.0
C899 C 0.35705 0.43986 0.79804 0.0
C900 C 0.38022 0.54673 0.72729 0.0
C901 C 0.35797 0.49589 0.75735 0.0
C902 C 0.37984 0.57455 0.70687 0.0
C903 C 0.35808 0.58159 0.695 0.0
C904 C 0.35864 0.52644 0.73598 0.0
C905 C 0.33693 0.56144 0.70452 0.0
C906 C 0.33593 0.48614 0.7683 0.0
C907 C 0.3787 0.44902 0.78627 0.0
N908 N 0.33775 0.53496 0.72438 0.0
N909 N 0.37864 0.47676 0.76661 0.0
H910 H 0.62256 0.48849 0.81449 0.0
H911 H 0.63496 0.51264 0.68134 0.0
H912 H 0.61323 0.63321 0.7814 0.0
H913 H 0.60184 0.38041 0.71119 0.0
H914 H 0.63251 0.55581 0.71822 0.0
H915 H 0.62018 0.44643 0.7773 0.0
C916 C 0.62006 0.51146 0.79934 0.0
C917 C 0.6183 0.56453 0.80097 0.0
C918 C 0.62572 0.51743 0.71668 0.0
C919 C 0.61582 0.51646 0.75837 0.0
C920 C 0.6273 0.4925 0.69571 0.0
C921 C 0.6188 0.44257 0.69325 0.0
C922 C 0.61611 0.49193 0.73556 0.0
C923 C 0.60868 0.41878 0.71238 0.0
C924 C 0.61852 0.48733 0.77819 0.0
C925 C 0.61472 0.59228 0.78085 0.0
N926 N 0.60793 0.44344 0.73287 0.0
N927 N 0.61397 0.56796 0.76029 0.0
H928 H 0.12398 0.22731 0.94213 0.0
H929 H 0.09017 0.07738 0.05648 0.0
H930 H 0.08898 0.08122 0.94484 0.0
H931 H 0.12112 0.22756 0.05807 0.0
H932 H 0.08763 0.08237 0.0152 0.0
H933 H 0.12109 0.23274 0.98407 0.0
C934 C 0.11546 0.19676 0.95147 0.0
C935 C 0.10699 0.15347 0.93997 0.0
C936 C 0.09489 0.11451 0.02446 0.0
C937 C 0.10368 0.15933 0.98769 0.0
C938 C 0.09639 0.1116 0.04813 0.0
C939 C 0.10606 0.15193 0.06079 0.0
C940 C 0.10335 0.15789 0.01309 0.0
C941 C 0.11356 0.19553 0.04895 0.0
C942 C 0.11388 0.1998 0.97537 0.0
C943 C 0.09612 0.11501 0.95291 0.0
N944 N 0.11228 0.1972 0.0257 0.0
N945 N 0.09493 0.11876 0.97595 0.0
H946 H 0.8953 0.93264 0.94198 0.0
H947 H 0.84962 0.79978 0.05691 0.0
H948 H 0.8485 0.802 0.94079 0.0
H949 H 0.8915 0.93742 0.05307 0.0
H950 H 0.85291 0.79106 0.01507 0.0
H951 H 0.8985 0.92538 0.98313 0.0
C952 C 0.88577 0.9021 0.95043 0.0
C953 C 0.87135 0.86829 0.93799 0.0
C954 C 0.86154 0.8228 0.02351 0.0
C955 C 0.87463 0.86004 0.98552 0.0
C956 C 0.85975 0.8277 0.04734 0.0
C957 C 0.87006 0.86973 0.05843 0.0
C958 C 0.87393 0.85997 0.01091 0.0
C959 C 0.88294 0.90482 0.04525 0.0
C960 C 0.88759 0.89793 0.97401 0.0
C961 C 0.85975 0.82894 0.94982 0.0
N962 N 0.8844 0.89923 0.02231 0.0
N963 N 0.86135 0.82627 0.97306 0.0
H964 H 0.09155 0.95429 0.43798 0.0
H965 H 0.1316 0.81385 0.55292 0.0
H966 H 0.12576 0.80725 0.43695 0.0
H967 H 0.09092 0.95323 0.54953 0.0
H968 H 0.12813 0.806 0.51105 0.0
H969 H 0.0897 0.95038 0.47932 0.0
C970 C 0.09862 0.92097 0.44648 0.0
C971 C 0.10899 0.88123 0.43396 0.0
C972 C 0.1198 0.83796 0.5196 0.0
C973 C 0.10712 0.87653 0.48171 0.0
C974 C 0.12172 0.84235 0.54346 0.0
C975 C 0.11184 0.88462 0.5547 0.0
C976 C 0.10786 0.87604 0.50711 0.0
C977 C 0.09922 0.92043 0.54163 0.0
C978 C 0.09752 0.91866 0.47018 0.0
C979 C 0.11761 0.83876 0.44597 0.0
N980 N 0.09775 0.91546 0.51866 0.0
N981 N 0.11673 0.83772 0.46925 0.0
H982 H 0.85292 0.2241 0.55427 0.0
H983 H 0.88985 0.07682 0.43994 0.0
H984 H 0.89051 0.08084 0.55155 0.0
H985 H 0.85743 0.22563 0.4384 0.0
H986 H 0.89206 0.08189 0.48124 0.0
H987 H 0.85631 0.23013 0.51238 0.0
C988 C 0.86212 0.19434 0.54494 0.0
C989 C 0.87115 0.15159 0.55639 0.0
C990 C 0.88455 0.11373 0.47199 0.0
C991 C 0.87501 0.1581 0.50876 0.0
C992 C 0.88324 0.11076 0.44831 0.0
C993 C 0.87326 0.15067 0.43566 0.0
C994 C 0.87557 0.15673 0.48337 0.0
C995 C 0.86524 0.19394 0.44751 0.0
C996 C 0.86398 0.1977 0.52107 0.0
C997 C 0.8829 0.11413 0.54348 0.0
N998 N 0.86634 0.19565 0.47077 0.0
N999 N 0.88433 0.11815 0.52048 0.0
H1000 H 0.63254 0.72312 0.05542 0.0
H1001 H 0.58344 0.59341 0.94072 0.0
H1002 H 0.58889 0.58791 0.0517 0.0
H1003 H 0.63252 0.72021 0.93919 0.0
H1004 H 0.58071 0.60129 0.98189 0.0
H1005 H 0.62879 0.73224 0.01362 0.0
C1006 C 0.62193 0.69584 0.04588 0.0
C1007 C 0.61125 0.65434 0.05699 0.0
C1008 C 0.59201 0.62779 0.9727 0.0
C1009 C 0.60683 0.66458 0.00952 0.0
C1010 C 0.59355 0.62329 0.94911 0.0
C1011 C 0.60846 0.65579 0.93656 0.0
C1012 C 0.60579 0.66464 0.98412 0.0
C1013 C 0.62085 0.69431 0.94831 0.0
C1014 C 0.61987 0.70096 0.02208 0.0
C1015 C 0.59775 0.62006 0.04386 0.0
N1016 N 0.61953 0.69726 0.97156 0.0
N1017 N 0.59604 0.62587 0.02095 0.0
H1018 H 0.38105 0.46873 0.93973 0.0
H1019 H 0.36132 0.3097 0.05471 0.0
H1020 H 0.36084 0.31058 0.93911 0.0
H1021 H 0.37958 0.46878 0.05197 0.0
H1022 H 0.36333 0.30628 0.01281 0.0
H1023 H 0.38303 0.46633 0.98109 0.0
C1024 C 0.37707 0.43331 0.94828 0.0
C1025 C 0.37059 0.38986 0.93582 0.0
C1026 C 0.367 0.34179 0.02145 0.0
C1027 C 0.37275 0.38691 0.98366 0.0
C1028 C 0.36589 0.34378 0.04537 0.0
C1029 C 0.37015 0.38968 0.05695 0.0
C1030 C 0.37247 0.38598 0.00908 0.0
C1031 C 0.37598 0.43259 0.0439 0.0
C1032 C 0.37822 0.43197 0.97202 0.0
C1033 C 0.36588 0.34502 0.948 0.0
N1034 N 0.37689 0.42966 0.02079 0.0
N1035 N 0.36689 0.34477 0.97128 0.0
H1036 H 0.59505 0.45988 0.43946 0.0
H1037 H 0.61891 0.3015 0.55389 0.0
H1038 H 0.61895 0.30402 0.43833 0.0
H1039 H 0.59433 0.45682 0.55157 0.0
H1040 H 0.61687 0.29827 0.51196 0.0
H1041 H 0.59251 0.45611 0.48078 0.0
C1042 C 0.59973 0.42468 0.44789 0.0
C1043 C 0.6074 0.3823 0.43533 0.0
C1044 C 0.6118 0.33287 0.52071 0.0
C1045 C 0.60461 0.37775 0.48307 0.0
C1046 C 0.6129 0.33471 0.54463 0.0
C1047 C 0.60696 0.37962 0.5563 0.0
C1048 C 0.60466 0.37621 0.50847 0.0
C1049 C 0.59932 0.42148 0.5434 0.0
C1050 C 0.59824 0.42253 0.4716 0.0
C1051 C 0.61298 0.33764 0.44732 0.0
N1052 N 0.5985 0.41876 0.52029 0.0
N1053 N 0.61164 0.33662 0.47057 0.0
H1054 H 0.35566 0.72049 0.55484 0.0
H1055 H 0.38374 0.56285 0.44072 0.0
H1056 H 0.38141 0.566 0.5526 0.0
H1057 H 0.35771 0.71713 0.43892 0.0
H1058 H 0.38527 0.56719 0.48206 0.0
H1059 H 0.35842 0.72386 0.51289 0.0
C1060 C 0.36205 0.6875 0.5456 0.0
C1061 C 0.36812 0.64276 0.5573 0.0
C1062 C 0.37929 0.60033 0.47274 0.0
C1063 C 0.3713 0.64636 0.50948 0.0
C1064 C 0.37839 0.59785 0.44901 0.0
C1065 C 0.37041 0.63957 0.43624 0.0
C1066 C 0.372 0.64477 0.48406 0.0
C1067 C 0.36396 0.68401 0.44808 0.0
C1068 C 0.36357 0.68942 0.52168 0.0
C1069 C 0.37627 0.60119 0.54443 0.0
N1070 N 0.36471 0.68535 0.47137 0.0
N1071 N 0.37753 0.60401 0.52135 0.0
H1072 H 0.94861 0.89172 0.13135 0.0
H1073 H 0.02821 0.14416 0.13331 0.0
H1074 H 0.91863 0.04282 0.13491 0.0
H1075 H 0.05852 0.9934 0.13702 0.0
H1076 H 0.98794 0.10743 0.13386 0.0
H1077 H 0.98901 0.92805 0.13335 0.0
C1078 C 0.95048 0.93253 0.13259 0.0
C1079 C 0.93015 0.96427 0.13288 0.0
C1080 C 0.00339 0.08237 0.13464 0.0
C1081 C 0.9764 1.00605 0.13516 0.0
C1082 C 0.02643 0.10331 0.13428 0.0
C1083 C 0.04683 0.07182 0.13503 0.0
C1084 C 0.00064 0.0295 0.13562 0.0
C1085 C 0.04333 0.01917 0.1364 0.0
C1086 C 0.97358 0.95322 0.13377 0.0
C1087 C 0.93374 0.01684 0.1346 0.0
N1088 N 0.02067 0.99965 0.13654 0.0
N1089 N 0.95642 0.03607 0.13558 0.0
H1090 H 0.95181 0.1423 0.36335 0.0
H1091 H 0.03032 0.88865 0.36142 0.0
H1092 H 0.92112 0.99205 0.35811 0.0
H1093 H 0.06107 0.03905 0.35789 0.0
H1094 H -0.00985 0.92596 0.36056 0.0
H1095 H -0.00799 0.10515 0.36174 0.0
C1096 C 0.9535 0.1015 0.36184 0.0
C1097 C 0.93304 0.07022 0.36095 0.0
C1098 C 0.00568 0.95078 0.35989 0.0
C1099 C 0.97904 0.02752 0.35912 0.0
C1100 C 0.02865 0.92953 0.36043 0.0
C1101 C 0.04912 0.96079 0.35982 0.0
C1102 C 0.00314 1.00368 0.35886 0.0
C1103 C 0.04582 1.01347 0.35841 0.0
C1104 C 0.97648 0.08034 0.36086 0.0
C1105 C 0.93636 0.01765 0.35887 0.0
N1106 N 0.02323 0.03328 0.35809 0.0
N1107 N 0.95895 0.99793 0.35812 0.0
H1108 H 0.02946 0.13733 0.86616 0.0
H1109 H 0.94816 0.88699 0.86508 0.0
H1110 H 0.05878 0.98562 0.86322 0.0
H1111 H 0.91914 0.03897 0.86251 0.0
H1112 H 0.9888 0.92229 0.86405 0.0
H1113 H 0.98893 0.10182 0.8645 0.0
C1114 C 0.02742 0.09653 0.86513 0.0
C1115 C 0.04762 0.06443 0.86492 0.0
C1116 C 0.97353 0.9479 0.86363 0.0
C1117 C 0.00113 0.02349 0.86305 0.0
C1118 C 0.95029 0.92778 0.86424 0.0
C1119 C 0.93014 0.96004 0.86397 0.0
C1120 C 0.97671 1.00069 0.86283 0.0
C1121 C 0.93409 1.01258 0.86279 0.0
C1122 C 0.00423 0.07628 0.86414 0.0
C1123 C 0.04377 1.01187 0.86346 0.0
N1124 N 0.95691 0.03124 0.86236 0.0
N1125 N 0.02098 0.99305 0.86267 0.0
H1126 H 0.9204 0.98407 0.63232 0.0
H1127 H 0.06083 0.05446 0.62984 0.0
H1128 H 0.94766 0.13741 0.62912 0.0
H1129 H 0.03379 0.90084 0.62758 0.0
H1130 H 0.01942 0.08543 0.63187 0.0
H1131 H 0.96186 0.95273 0.63297 0.0
C1132 C 0.93506 1.01118 0.63184 0.0
C1133 C 0.93049 0.06347 0.63056 0.0
C1134 C 0.02256 0.04494 0.63096 0.0
C1135 C 0.97799 0.02782 0.63127 0.0
C1136 C 0.04622 0.02719 0.62981 0.0
C1137 C 0.05084 0.97494 0.62844 0.0
C1138 C 0.00335 1.01022 0.63078 0.0
C1139 C 0.03114 0.94146 0.62852 0.0
C1140 C 0.95874 0.99324 0.63218 0.0
C1141 C 0.95026 0.09676 0.63001 0.0
N1142 N 0.00826 0.95969 0.62963 0.0
N1143 N 0.97311 0.07836 0.63032 0.0
H1144 H 0.42043 0.54482 0.13377 0.0
H1145 H 0.56162 0.48193 0.13285 0.0
H1146 H 0.44976 0.39333 0.1288 0.0
H1147 H 0.53294 0.63409 0.12906 0.0
H1148 H 0.52057 0.44903 0.13431 0.0
H1149 H 0.46148 0.57851 0.13491 0.0
C1150 C 0.43546 0.51862 0.13297 0.0
C1151 C 0.43162 0.46617 0.13108 0.0
C1152 C 0.52326 0.48963 0.13318 0.0
C1153 C 0.47857 0.50446 0.13242 0.0
C1154 C 0.54671 0.50847 0.13238 0.0
C1155 C 0.55076 0.56087 0.13073 0.0
C1156 C 0.50368 0.52338 0.13238 0.0
C1157 C 0.5307 0.59339 0.13022 0.0
C1158 C 0.45889 0.5379 0.1336 0.0
C1159 C 0.4518 0.43406 0.13013 0.0
N1160 N 0.50802 0.5741 0.13101 0.0
N1161 N 0.47438 0.45374 0.1308 0.0
H1162 H 0.44891 0.63463 0.36287 0.0
H1163 H 0.52947 0.3842 0.36234 0.0
H1164 H 0.41934 0.48325 0.35861 0.0
H1165 H 0.55892 0.53565 0.35801 0.0
H1166 H 0.489 0.41981 0.36102 0.0
H1167 H 0.48934 0.59897 0.36116 0.0
C1168 C 0.45089 0.59386 0.36155 0.0
C1169 C 0.43068 0.56183 0.361 0.0
C1170 C 0.50431 0.44524 0.36027 0.0
C1171 C 0.47699 0.52082 0.35904 0.0
C1172 C 0.52746 0.42497 0.36108 0.0
C1173 C 0.54764 0.45704 0.3604 0.0
C1174 C 0.50129 0.49796 0.3589 0.0
C1175 C 0.54388 0.5095 0.35862 0.0
C1176 C 0.47401 0.57356 0.36051 0.0
C1177 C 0.43439 0.50936 0.35912 0.0
N1178 N 0.52113 0.52836 0.35804 0.0
N1179 N 0.45714 0.49046 0.35832 0.0
H1180 H 0.41903 0.54305 0.85876 0.0
H1181 H 0.56055 0.48302 0.86008 0.0
H1182 H 0.44921 0.39234 0.86363 0.0
H1183 H 0.5314 0.63485 0.86349 0.0
H1184 H 0.51965 0.44953 0.85847 0.0
H1185 H 0.45992 0.57777 0.85767 0.0
C1186 C 0.4342 0.51724 0.85953 0.0
C1187 C 0.43064 0.46468 0.86139 0.0
C1188 C 0.52219 0.4902 0.85954 0.0
C1189 C 0.47742 0.50417 0.86011 0.0
C1190 C 0.54557 0.5094 0.86043 0.0
C1191 C 0.54947 0.56188 0.86203 0.0
C1192 C 0.50248 0.52363 0.8602 0.0
C1193 C 0.52929 0.59411 0.86236 0.0
C1194 C 0.45754 0.53711 0.85894 0.0
C1195 C 0.45102 0.43311 0.86231 0.0
N1196 N 0.50666 0.57445 0.86149 0.0
N1197 N 0.47349 0.45336 0.86168 0.0
H1198 H 0.44732 0.63533 0.62903 0.0
H1199 H 0.52893 0.38572 0.6298 0.0
H1200 H 0.41822 0.48355 0.63265 0.0
H1201 H 0.55791 0.53773 0.6324 0.0
H1202 H 0.48833 0.42082 0.63083 0.0
H1203 H 0.48788 0.60015 0.63018 0.0
C1204 C 0.44941 0.59455 0.63008 0.0
C1205 C 0.42925 0.56234 0.63066 0.0
C1206 C 0.50355 0.44651 0.63124 0.0
C1207 C 0.47584 0.5218 0.63198 0.0
C1208 C 0.52681 0.42652 0.63063 0.0
C1209 C 0.54695 0.45883 0.63093 0.0
C1210 C 0.50032 0.49926 0.63207 0.0
C1211 C 0.54296 0.51134 0.63211 0.0
C1212 C 0.47264 0.57451 0.63078 0.0
C1213 C 0.43319 0.50985 0.63213 0.0
N1214 N 0.5201 0.52991 0.63255 0.0
N1215 N 0.45604 0.49122 0.63266 0.0
H1216 H 0.16074 0.7468 0.11301 0.0
H1217 H 0.0689 0.52016 0.14155 0.0
H1218 H 0.0859 0.77005 0.13031 0.0
H1219 H 0.14298 0.49572 0.1219 0.0
H1220 H 0.07487 0.61142 0.13736 0.0
H1221 H 0.15452 0.65524 0.11559 0.0
C1222 C 0.14291 0.73287 0.11715 0.0
C1223 C 0.12382 0.76686 0.12139 0.0
C1224 C 0.08984 0.58618 0.13392 0.0
C1225 C 0.11668 0.66104 0.12476 0.0
C1226 C 0.0865 0.53384 0.13645 0.0
C1227 C 0.1055 0.49966 0.13225 0.0
C1228 C 0.1124 0.60514 0.12713 0.0
C1229 C 0.1277 0.5202 0.12518 0.0
C1230 C 0.13943 0.68034 0.11878 0.0
C1231 C 0.1013 0.74584 0.12717 0.0
N1232 N 0.13054 0.57139 0.12295 0.0
N1233 N 0.0984 0.69458 0.12868 0.0
H1234 H 0.88577 0.26318 0.13844 0.0
H1235 H 0.83235 0.54298 0.11675 0.0
H1236 H 0.81677 0.29157 0.10684 0.0
H1237 H 0.90076 0.51465 0.14948 0.0
H1238 H 0.82661 0.45136 0.11252 0.0
H1239 H 0.89149 0.35479 0.14275 0.0
C1240 C 0.87171 0.28845 0.13252 0.0
C1241 C 0.85074 0.26897 0.12218 0.0
C1242 C 0.84288 0.46516 0.12065 0.0
C1243 C 0.85739 0.37486 0.12688 0.0
C1244 C 0.84627 0.5177 0.12295 0.0
C1245 C 0.86708 0.53719 0.13357 0.0
C1246 C 0.86043 0.4313 0.12894 0.0
C1247 C 0.88423 0.50189 0.14151 0.0
C1248 C 0.87509 0.34099 0.13487 0.0
C1249 C 0.83343 0.3043 0.11458 0.0
N1250 N 0.88054 0.451 0.13903 0.0
N1251 N 0.83713 0.35517 0.11707 0.0
H1252 H 0.08692 0.26062 0.37016 0.0
H1253 H 0.14777 0.53751 0.36713 0.0
H1254 H 0.16362 0.28584 0.37531 0.0
H1255 H 0.07122 0.51156 0.36092 0.0
H1256 H 0.15385 0.44599 0.37135 0.0
H1257 H 0.08085 0.3523 0.36737 0.0
C1258 C 0.10253 0.28523 0.37063 0.0
C1259 C 0.12586 0.26487 0.37299 0.0
C1260 C 0.13572 0.46032 0.36908 0.0
C1261 C 0.11893 0.37081 0.37002 0.0
C1262 C 0.13219 0.51279 0.36681 0.0
C1263 C 0.10893 0.53281 0.36353 0.0
C1264 C 0.11586 0.42717 0.36814 0.0
C1265 C 0.08955 0.49826 0.36299 0.0
C1266 C 0.09901 0.33781 0.36917 0.0
C1267 C 0.14526 0.29934 0.37386 0.0
N1268 N 0.09345 0.44745 0.36523 0.0
N1269 N 0.14137 0.3503 0.37234 0.0
H1270 H 0.86894 0.49722 0.39986 0.0
H1271 H 0.86145 0.76593 0.33553 0.0
H1272 H 0.87394 0.51486 0.32677 0.0
H1273 H 0.85317 0.7497 0.40841 0.0
H1274 H 0.86684 0.67425 0.33231 0.0
H1275 H 0.86315 0.58903 0.40354 0.0
C1276 C 0.86865 0.52016 0.38455 0.0
C1277 C 0.87207 0.49778 0.36296 0.0
C1278 C 0.86388 0.69066 0.34903 0.0
C1279 C 0.86571 0.60364 0.36712 0.0
C1280 C 0.86098 0.74328 0.35093 0.0
C1281 C 0.85689 0.76609 0.37231 0.0
C1282 C 0.86277 0.66006 0.36865 0.0
C1283 C 0.856 0.73408 0.39152 0.0
C1284 C 0.8655 0.57278 0.3867 0.0
C1285 C 0.87183 0.53007 0.34383 0.0
N1286 N 0.85894 0.68293 0.38924 0.0
N1287 N 0.86876 0.58105 0.34637 0.0
H1288 H 0.86853 0.27812 0.90842 0.0
H1289 H 0.84725 0.52296 0.82936 0.0
H1290 H 0.83463 0.27127 0.84215 0.0
H1291 H 0.88063 0.52919 0.89588 0.0
H1292 H 0.84261 0.4312 0.83361 0.0
H1293 H 0.8731 0.36973 0.90402 0.0
C1294 C 0.86192 0.29574 0.89295 0.0
C1295 C 0.85102 0.26638 0.87569 0.0
C1296 C 0.85093 0.45261 0.8473 0.0
C1297 C 0.85649 0.37225 0.87044 0.0
C1298 C 0.85371 0.50518 0.84485 0.0
C1299 C 0.86445 0.53441 0.86225 0.0
C1300 C 0.85895 0.42849 0.8673 0.0
C1301 C 0.87199 0.50877 0.88208 0.0
C1302 C 0.86467 0.34826 0.89041 0.0
C1303 C 0.84334 0.29184 0.85586 0.0
N1304 N 0.86917 0.45754 0.88401 0.0
N1305 N 0.84615 0.34308 0.85383 0.0
H1306 H 0.10489 0.4933 0.90146 0.0
H1307 H 0.13412 0.75818 0.83927 0.0
H1308 H 0.11976 0.50626 0.82939 0.0
H1309 H 0.11907 0.74476 0.91129 0.0
H1310 H 0.12861 0.66644 0.83522 0.0
H1311 H 0.11048 0.58496 0.90541 0.0
C1312 C 0.10952 0.51517 0.88646 0.0
C1313 C 0.11179 0.49144 0.86503 0.0
C1314 C 0.12651 0.68355 0.85192 0.0
C1315 C 0.11795 0.59741 0.86943 0.0
C1316 C 0.12949 0.73618 0.85424 0.0
C1317 C 0.12716 0.75978 0.87569 0.0
C1318 C 0.12107 0.65382 0.87117 0.0
C1319 C 0.12148 0.72859 0.89445 0.0
C1320 C 0.11254 0.56778 0.88872 0.0
C1321 C 0.11744 0.52252 0.84622 0.0
N1322 N 0.11866 0.67755 0.89176 0.0
N1323 N 0.1203 0.57359 0.84886 0.0
H1324 H 0.84479 0.75532 0.65695 0.0
H1325 H 0.87119 0.4881 0.59526 0.0
H1326 H 0.85732 0.73927 0.58458 0.0
H1327 H 0.85805 0.50336 0.66757 0.0
H1328 H 0.86587 0.57973 0.59105 0.0
H1329 H 0.85007 0.6636 0.66129 0.0
C1330 C 0.84881 0.73274 0.64197 0.0
C1331 C 0.8505 0.75557 0.62033 0.0
C1332 C 0.86412 0.56306 0.60785 0.0
C1333 C 0.85634 0.6497 0.6252 0.0
C1334 C 0.86699 0.51048 0.61026 0.0
C1335 C 0.86512 0.48741 0.63183 0.0
C1336 C 0.85929 0.59332 0.62712 0.0
C1337 C 0.86004 0.51911 0.65063 0.0
C1338 C 0.85167 0.68014 0.64445 0.0
C1339 C 0.85543 0.72369 0.60156 0.0
N1340 N 0.85733 0.57014 0.64783 0.0
N1341 N 0.85815 0.6727 0.60443 0.0
H1342 H 0.14794 0.28681 0.65144 0.0
H1343 H 0.10128 0.5475 0.59559 0.0
H1344 H 0.11449 0.29619 0.58503 0.0
H1345 H 0.13559 0.53916 0.66164 0.0
H1346 H 0.1062 0.45579 0.59141 0.0
H1347 H 0.14311 0.37866 0.65576 0.0
C1348 C 0.13942 0.30796 0.63781 0.0
C1349 C 0.13169 0.28323 0.61779 0.0
C1350 C 0.11269 0.47399 0.60682 0.0
C1351 C 0.12633 0.38923 0.62257 0.0
C1352 C 0.11004 0.52663 0.60917 0.0
C1353 C 0.118 0.55166 0.62902 0.0
C1354 C 0.12342 0.44562 0.62443 0.0
C1355 C 0.12883 0.52184 0.64614 0.0
C1356 C 0.13681 0.36063 0.64024 0.0
C1357 C 0.1211 0.31329 0.60064 0.0
N1358 N 0.13119 0.47067 0.64345 0.0
N1359 N 0.11875 0.3644 0.60342 0.0
H1360 H 0.62848 0.99904 0.16789 0.0
H1361 H 0.61645 0.24037 0.08497 0.0
H1362 H 0.6037 0.9894 0.09815 0.0
H1363 H 0.64067 0.25068 0.15485 0.0
H1364 H 0.6118 0.14879 0.08952 0.0
H1365 H 0.633 0.09075 0.16349 0.0
C1366 C 0.62387 0.01603 0.15165 0.0
C1367 C 0.61558 0.98583 0.1334 0.0
C1368 C 0.61812 0.17101 0.10389 0.0
C1369 C 0.62101 0.09179 0.12818 0.0
C1370 C 0.62092 0.22352 0.10128 0.0
C1371 C 0.62913 0.25386 0.1195 0.0
C1372 C 0.62354 0.148 0.12491 0.0
C1373 C 0.63408 0.22935 0.14034 0.0
C1374 C 0.62659 0.06861 0.14913 0.0
C1375 C 0.61041 1.01057 0.11267 0.0
N1376 N 0.63129 0.17811 0.14242 0.0
N1377 N 0.61314 0.06182 0.11067 0.0
H1378 H 0.39357 0.76733 0.12114 0.0
H1379 H 0.33275 0.0443 0.12285 0.0
H1380 H 0.31687 0.79244 0.11584 0.0
H1381 H 0.40915 0.0182 0.13038 0.0
H1382 H 0.32668 0.9527 0.11876 0.0
H1383 H 0.39963 0.85904 0.12362 0.0
C1384 C 0.37795 0.79193 0.12056 0.0
C1385 C 0.35463 0.77152 0.11827 0.0
C1386 C 0.34479 0.96702 0.1213 0.0
C1387 C 0.36155 0.87749 0.12089 0.0
C1388 C 0.3483 0.01951 0.12349 0.0
C1389 C 0.37152 0.03949 0.1271 0.0
C1390 C 0.36461 0.93384 0.12263 0.0
C1391 C 0.39086 1.00491 0.12804 0.0
C1392 C 0.38146 0.84451 0.12186 0.0
C1393 C 0.33522 0.80596 0.11725 0.0
N1394 N 0.38697 0.95409 0.12585 0.0
N1395 N 0.33911 0.85695 0.1186 0.0
H1396 H 0.61476 0.03199 0.39972 0.0
H1397 H 0.61684 0.76225 0.33555 0.0
H1398 H 0.60446 1.01312 0.32716 0.0
H1399 H 0.63068 0.77946 0.40767 0.0
H1400 H 0.61144 0.85392 0.33255 0.0
H1401 H 0.62061 0.94017 0.40322 0.0
C1402 C 0.61389 1.00876 0.38448 0.0
C1403 C 0.60896 0.03077 0.36311 0.0
C1404 C 0.61563 0.83774 0.34906 0.0
C1405 C 0.6154 0.92498 0.36707 0.0
C1406 C 0.61853 0.78514 0.35084 0.0
C1407 C 0.62417 0.76262 0.37193 0.0
C1408 C 0.6183 0.8686 0.36851 0.0
C1409 C 0.62659 0.79487 0.39099 0.0
C1410 C 0.61709 0.95616 0.38653 0.0
C1411 C 0.60777 0.99818 0.34407 0.0
N1412 N 0.62362 0.84601 0.38883 0.0
N1413 N 0.61091 0.94724 0.34652 0.0
H1414 H 0.36365 1.00195 0.32598 0.0
H1415 H 0.35655 0.2435 0.40955 0.0
H1416 H 0.3729 0.99148 0.39899 0.0
H1417 H 0.35246 0.25295 0.33611 0.0
H1418 H 0.36139 0.15136 0.40636 0.0
H1419 H 0.35841 0.09348 0.3297 0.0
C1420 C 0.3647 0.01878 0.34283 0.0
C1421 C 0.36893 0.98848 0.36217 0.0
C1422 C 0.35947 0.1736 0.39094 0.0
C1423 C 0.36261 0.09423 0.36659 0.0
C1424 C 0.3566 0.22632 0.39274 0.0
C1425 C 0.35411 0.25647 0.37307 0.0
C1426 C 0.35974 0.15042 0.3693 0.0
C1427 C 0.35465 0.23171 0.35177 0.0
C1428 C 0.36158 0.07126 0.34494 0.0
C1429 C 0.36949 1.01289 0.38357 0.0
N1430 N 0.35732 0.1804 0.35048 0.0
N1431 N 0.36645 0.06416 0.38519 0.0
H1432 H 0.35827 0.76865 0.8345 0.0
H1433 H 0.36677 0.03614 0.90021 0.0
H1434 H 0.34943 0.78367 0.90739 0.0
H1435 H 0.37096 0.01978 0.82699 0.0
H1436 H 0.36061 0.94435 0.90344 0.0
H1437 H 0.36389 0.86032 0.83178 0.0
C1438 C 0.35772 0.79104 0.85001 0.0
C1439 C 0.35343 0.76787 0.87124 0.0
C1440 C 0.36286 0.96088 0.88667 0.0
C1441 C 0.3596 0.87395 0.86816 0.0
C1442 C 0.36623 1.0135 0.88478 0.0
C1443 C 0.36953 0.03625 0.86328 0.0
C1444 C 0.36275 0.93038 0.86693 0.0
C1445 C 0.36896 1.0043 0.84398 0.0
C1446 C 0.36075 0.84367 0.8484 0.0
C1447 C 0.35244 0.79957 0.89061 0.0
N1448 N 0.3657 0.95333 0.84628 0.0
N1449 N 0.35554 0.85074 0.88861 0.0
H1450 H 0.66562 0.23341 0.88871 0.0
H1451 H 0.57975 1.00871 0.84399 0.0
H1452 H 0.59643 0.25907 0.857 0.0
H1453 H 0.64821 0.9829 0.87702 0.0
H1454 H 0.58583 0.10005 0.84811 0.0
H1455 H 0.65972 0.14211 0.88427 0.0
C1456 C 0.6491 0.22006 0.88091 0.0
C1457 C 0.63145 0.25467 0.87337 0.0
C1458 C 0.59955 0.07448 0.85446 0.0
C1459 C 0.62471 0.14901 0.86794 0.0
C1460 C 0.59617 0.02205 0.85199 0.0
C1461 C 0.61353 0.98741 0.86004 0.0
C1462 C 0.62049 0.09308 0.86508 0.0
C1463 C 0.63416 1.00768 0.87071 0.0
C1464 C 0.64582 0.16765 0.87826 0.0
C1465 C 0.6107 0.23437 0.86291 0.0
N1466 N 0.63706 0.05891 0.87285 0.0
N1467 N 0.60791 0.18315 0.86058 0.0
H1468 H 0.37018 0.99104 0.59335 0.0
H1469 H 0.34955 0.25668 0.65811 0.0
H1470 H 0.36114 1.00514 0.66628 0.0
H1471 H 0.35335 0.2432 0.58477 0.0
H1472 H 0.35482 0.16494 0.66127 0.0
H1473 H 0.36437 0.08277 0.5897 0.0
C1474 C 0.36679 1.01315 0.60861 0.0
C1475 C 0.36627 0.98974 0.63019 0.0
C1476 C 0.35453 0.18197 0.64446 0.0
C1477 C 0.3599 0.09568 0.6261 0.0
C1478 C 0.3517 0.23462 0.64263 0.0
C1479 C 0.35106 0.25824 0.62112 0.0
C1480 C 0.35685 0.15212 0.62466 0.0
C1481 C 0.35347 0.22696 0.60172 0.0
C1482 C 0.36363 0.06577 0.6065 0.0
C1483 C 0.36216 0.02111 0.6493 0.0
N1484 N 0.3563 0.17577 0.60396 0.0
N1485 N 0.35919 0.07213 0.6468 0.0
H1486 H 0.5858 0.75911 0.62516 0.0
H1487 H 0.64532 0.03608 0.61515 0.0
H1488 H 0.66098 0.78429 0.6099 0.0
H1489 H 0.57198 1.0101 0.63683 0.0
H1490 H 0.65108 0.94434 0.61201 0.0
H1491 H 0.58009 0.85084 0.62829 0.0
C1492 C 0.60117 0.78373 0.62255 0.0
C1493 C 0.62394 0.76338 0.61723 0.0
C1494 C 0.63371 0.95872 0.61743 0.0
C1495 C 0.61739 0.86926 0.62057 0.0
C1496 C 0.63042 1.01127 0.61937 0.0
C1497 C 0.60808 0.03142 0.62626 0.0
C1498 C 0.61455 0.9256 0.62238 0.0
C1499 C 0.58942 0.99683 0.63109 0.0
C1500 C 0.59784 0.8363 0.62423 0.0
C1501 C 0.643 0.7978 0.61367 0.0
N1502 N 0.59307 0.9459 0.62906 0.0
N1503 N 0.6393 0.84877 0.61542 0.0
loop_
_geom_bond_atom_site_label_1
_geom_bond_atom_site_label_2
_geom_bond_distance
_geom_bond_site_symmetry_2
_ccdc_geom_bond_type
Dy0 O3 2.307 . S
Dy0 O5 2.395 . S
Dy0 O6 2.379 . S
Dy0 O8 2.339 . S
Dy0 O10 2.298 . S
Dy0 O14 2.275 . S
Dy0 C22 2.738 . S
Dy1 O4 2.298 . S
Dy1 O7 2.275 . S
Dy1 O9 2.307 . S
Dy1 O11 2.395 1_545 S
Dy1 O12 2.379 1_545 S
Dy1 O15 2.339 . S
Dy1 C31 2.738 1_545 S
C2 O14 1.254 . S
C2 O15 1.257 . S
O3 Dy0 2.307 . S
O3 C13 1.266 . S
O4 Dy1 2.298 . S
O4 C13 1.236 . S
O5 Dy0 2.395 . S
O5 C22 1.255 . S
O6 Dy0 2.379 . S
O6 C22 1.249 . S
O7 Dy1 2.275 . S
O7 C23 1.254 . S
O8 Dy0 2.339 . S
O8 C23 1.257 . S
O9 Dy1 2.307 . S
O9 C24 1.266 . S
O10 Dy0 2.298 . S
O10 C24 1.236 . S
O11 Dy1 2.395 1_565 S
O11 C31 1.255 . S
O12 Dy1 2.379 1_565 S
O12 C31 1.249 . S
C13 O3 1.266 . S
C13 O4 1.236 . S
O14 Dy0 2.275 . S
O14 C2 1.254 . S
O15 Dy1 2.339 . S
O15 C2 1.257 . S
C16 C19 1.344 . S
C16 C20 1.328 . S
C16 C22 1.516 . S
C17 C18 1.304 . S
C17 C21 1.323 . S
C18 C17 1.304 . S
C18 C19 1.371 . S
C18 H32 0.930 . S
C19 C16 1.344 . S
C19 C18 1.371 . S
C19 H33 0.931 . S
C20 C16 1.328 . S
C20 C21 1.433 . S
C20 H34 0.931 . S
C21 C17 1.323 . S
C21 C20 1.433 . S
C21 H35 0.933 . S
C22 Dy0 2.738 . S
C22 O5 1.255 . S
C22 O6 1.249 . S
C22 C16 1.516 . S
C23 O7 1.254 . S
C23 O8 1.257 . S
C24 O9 1.266 . S
C24 O10 1.236 . S
C25 C28 1.344 . S
C25 C29 1.328 . S
C25 C31 1.516 . S
C26 C27 1.304 . S
C26 C30 1.323 . S
C27 C26 1.304 . S
C27 C28 1.371 . S
C27 H36 0.930 . S
C28 C25 1.344 . S
C28 C27 1.371 . S
C28 H37 0.931 . S
C29 C25 1.328 . S
C29 C30 1.433 . S
C29 H38 0.931 . S
C30 C26 1.323 . S
C30 C29 1.433 . S
C30 H39 0.933 . S
C31 Dy1 2.738 1_565 S
C31 O11 1.255 . S
C31 O12 1.249 . S
C31 C25 1.516 . S
H32 C18 0.930 . S
H33 C19 0.931 . S
H34 C20 0.931 . S
H35 C21 0.933 . S
H36 C27 0.930 . S
H37 C28 0.931 . S
H38 C29 0.931 . S
H39 C30 0.933 . S
Dy40 O43 2.307 . S
Dy40 O45 2.395 . S
Dy40 O46 2.379 . S
Dy40 O48 2.339 . S
Dy40 O50 2.298 . S
Dy40 O54 2.275 . S
Dy40 C62 2.738 . S
Dy41 O44 2.298 . S
Dy41 O47 2.275 . S
Dy41 O49 2.307 . S
Dy41 O51 2.395 1_565 S
Dy41 O52 2.379 1_565 S
Dy41 O55 2.339 . S
Dy41 C71 2.738 1_565 S
C42 O54 1.254 . S
C42 O55 1.257 . S
O43 Dy40 2.307 . S
O43 C53 1.266 . S
O44 Dy41 2.298 . S
O44 C53 1.236 . S
O45 Dy40 2.395 . S
O45 C62 1.255 . S
O46 Dy40 2.379 . S
O46 C62 1.249 . S
O47 Dy41 2.275 . S
O47 C63 1.254 . S
O48 Dy40 2.339 . S
O48 C63 1.257 . S
O49 Dy41 2.307 . S
O49 C64 1.266 . S
O50 Dy40 2.298 . S
O50 C64 1.236 . S
O51 Dy41 2.395 1_545 S
O51 C71 1.255 . S
O52 Dy41 2.379 1_545 S
O52 C71 1.249 . S
C53 O43 1.266 . S
C53 O44 1.236 . S
O54 Dy40 2.275 . S
O54 C42 1.254 . S
O55 Dy41 2.339 . S
O55 C42 1.257 . S
C56 C59 1.344 . S
C56 C60 1.328 . S
C56 C62 1.516 . S
C57 C58 1.304 . S
C57 C61 1.323 . S
C58 C57 1.304 . S
C58 C59 1.371 . S
C58 H72 0.930 . S
C59 C56 1.344 . S
C59 C58 1.371 . S
C59 H73 0.931 . S
C60 C56 1.328 . S
C60 C61 1.433 . S
C60 H74 0.931 . S
C61 C57 1.323 . S
C61 C60 1.433 . S
C61 H75 0.933 . S
C62 Dy40 2.738 . S
C62 O45 1.255 . S
C62 O46 1.249 . S
C62 C56 1.516 . S
C63 O47 1.254 . S
C63 O48 1.257 . S
C64 O49 1.266 . S
C64 O50 1.236 . S
C65 C68 1.344 . S
C65 C69 1.328 . S
C65 C71 1.516 . S
C66 C67 1.304 . S
C66 C70 1.323 . S
C67 C66 1.304 . S
C67 C68 1.371 . S
C67 H76 0.930 . S
C68 C65 1.344 . S
C68 C67 1.371 . S
C68 H77 0.931 . S
C69 C65 1.328 . S
C69 C70 1.433 . S
C69 H78 0.931 . S
C70 C66 1.323 . S
C70 C69 1.433 . S
C70 H79 0.933 . S
C71 Dy41 2.738 1_545 S
C71 O51 1.255 . S
C71 O52 1.249 . S
C71 C65 1.516 . S
H72 C58 0.930 . S
H73 C59 0.931 . S
H74 C60 0.931 . S
H75 C61 0.933 . S
H76 C67 0.930 . S
H77 C68 0.931 . S
H78 C69 0.931 . S
H79 C70 0.933 . S
Dy80 O83 2.307 . S
Dy80 O85 2.395 . S
Dy80 O86 2.379 . S
Dy80 O88 2.339 . S
Dy80 O90 2.298 . S
Dy80 O94 2.275 . S
Dy80 C102 2.738 . S
Dy81 O84 2.298 . S
Dy81 O87 2.275 . S
Dy81 O89 2.307 . S
Dy81 O91 2.395 1_565 S
Dy81 O92 2.379 1_565 S
Dy81 O95 2.339 . S
Dy81 C111 2.738 1_565 S
C82 O94 1.254 . S
C82 O95 1.257 . S
O83 Dy80 2.307 . S
O83 C93 1.266 . S
O84 Dy81 2.298 . S
O84 C93 1.236 . S
O85 Dy80 2.395 . S
O85 C102 1.255 . S
O86 Dy80 2.379 . S
O86 C102 1.249 . S
O87 Dy81 2.275 . S
O87 C103 1.254 . S
O88 Dy80 2.339 . S
O88 C103 1.257 . S
O89 Dy81 2.307 . S
O89 C104 1.266 . S
O90 Dy80 2.298 . S
O90 C104 1.236 . S
O91 Dy81 2.395 1_545 S
O91 C111 1.255 . S
O92 Dy81 2.379 1_545 S
O92 C111 1.249 . S
C93 O83 1.266 . S
C93 O84 1.236 . S
O94 Dy80 2.275 . S
O94 C82 1.254 . S
O95 Dy81 2.339 . S
O95 C82 1.257 . S
C96 C99 1.344 . S
C96 C100 1.328 . S
C96 C102 1.516 . S
C97 C98 1.304 . S
C97 C101 1.323 . S
C98 C97 1.304 . S
C98 C99 1.371 . S
C98 H112 0.930 . S
C99 C96 1.344 . S
C99 C98 1.371 . S
C99 H113 0.931 . S
C100 C96 1.328 . S
C100 C101 1.433 . S
C100 H114 0.931 . S
C101 C97 1.323 . S
C101 C100 1.433 . S
C101 H115 0.933 . S
C102 Dy80 2.738 . S
C102 O85 1.255 . S
C102 O86 1.249 . S
C102 C96 1.516 . S
C103 O87 1.254 . S
C103 O88 1.257 . S
C104 O89 1.266 . S
C104 O90 1.236 . S
C105 C108 1.344 . S
C105 C109 1.328 . S
C105 C111 1.516 . S
C106 C107 1.304 . S
C106 C110 1.323 . S
C107 C106 1.304 . S
C107 C108 1.371 . S
C107 H116 0.930 . S
C108 C105 1.344 . S
C108 C107 1.371 . S
C108 H117 0.931 . S
C109 C105 1.328 . S
C109 C110 1.433 . S
C109 H118 0.931 . S
C110 C106 1.323 . S
C110 C109 1.433 . S
C110 H119 0.933 . S
C111 Dy81 2.738 1_545 S
C111 O91 1.255 . S
C111 O92 1.249 . S
C111 C105 1.516 . S
H112 C98 0.930 . S
H113 C99 0.931 . S
H114 C100 0.931 . S
H115 C101 0.933 . S
H116 C107 0.930 . S
H117 C108 0.931 . S
H118 C109 0.931 . S
H119 C110 0.933 . S
Dy120 O123 2.307 . S
Dy120 O125 2.395 . S
Dy120 O126 2.379 . S
Dy120 O128 2.339 . S
Dy120 O130 2.298 . S
Dy120 O134 2.275 . S
Dy120 C142 2.738 . S
Dy121 O124 2.298 . S
Dy121 O127 2.275 . S
Dy121 O129 2.307 . S
Dy121 O131 2.395 1_545 S
Dy121 O132 2.379 1_545 S
Dy121 O135 2.339 . S
Dy121 C151 2.738 1_545 S
C122 O134 1.254 . S
C122 O135 1.257 . S
O123 Dy120 2.307 . S
O123 C133 1.266 . S
O124 Dy121 2.298 . S
O124 C133 1.236 . S
O125 Dy120 2.395 . S
O125 C142 1.255 . S
O126 Dy120 2.379 . S
O126 C142 1.249 . S
O127 Dy121 2.275 . S
O127 C143 1.254 . S
O128 Dy120 2.339 . S
O128 C143 1.257 . S
O129 Dy121 2.307 . S
O129 C144 1.266 . S
O130 Dy120 2.298 . S
O130 C144 1.236 . S
O131 Dy121 2.395 1_565 S
O131 C151 1.255 . S
O132 Dy121 2.379 1_565 S
O132 C151 1.249 . S
C133 O123 1.266 . S
C133 O124 1.236 . S
O134 Dy120 2.275 . S
O134 C122 1.254 . S
O135 Dy121 2.339 . S
O135 C122 1.257 . S
C136 C139 1.344 . S
C136 C140 1.328 . S
C136 C142 1.516 . S
C137 C138 1.304 . S
C137 C141 1.323 . S
C138 C137 1.304 . S
C138 C139 1.371 . S
C138 H152 0.930 . S
C139 C136 1.344 . S
C139 C138 1.371 . S
C139 H153 0.931 . S
C140 C136 1.328 . S
C140 C141 1.433 . S
C140 H154 0.931 . S
C141 C137 1.323 . S
C141 C140 1.433 . S
C141 H155 0.933 . S
C142 Dy120 2.738 . S
C142 O125 1.255 . S
C142 O126 1.249 . S
C142 C136 1.516 . S
C143 O127 1.254 . S
C143 O128 1.257 . S
C144 O129 1.266 . S
C144 O130 1.236 . S
C145 C148 1.344 . S
C145 C149 1.328 . S
C145 C151 1.516 . S
C146 C147 1.304 . S
C146 C150 1.323 . S
C147 C146 1.304 . S
C147 C148 1.371 . S
C147 H156 0.930 . S
C148 C145 1.344 . S
C148 C147 1.371 . S
C148 H157 0.931 . S
C149 C145 1.328 . S
C149 C150 1.433 . S
C149 H158 0.931 . S
C150 C146 1.323 . S
C150 C149 1.433 . S
C150 H159 0.933 . S
C151 Dy121 2.738 1_565 S
C151 O131 1.255 . S
C151 O132 1.249 . S
C151 C145 1.516 . S
H152 C138 0.930 . S
H153 C139 0.931 . S
H154 C140 0.931 . S
H155 C141 0.933 . S
H156 C147 0.930 . S
H157 C148 0.931 . S
H158 C149 0.931 . S
H159 C150 0.933 . S
Dy160 O163 2.307 . S
Dy160 O165 2.395 1_565 S
Dy160 O166 2.379 1_565 S
Dy160 O168 2.339 . S
Dy160 O170 2.298 . S
Dy160 O174 2.275 . S
Dy160 C182 2.738 1_565 S
Dy161 O164 2.298 . S
Dy161 O167 2.275 . S
Dy161 O169 2.307 . S
Dy161 O171 2.395 . S
Dy161 O172 2.379 . S
Dy161 O175 2.339 . S
Dy161 C191 2.738 . S
C162 O174 1.254 . S
C162 O175 1.257 . S
O163 Dy160 2.307 . S
O163 C173 1.266 . S
O164 Dy161 2.298 . S
O164 C173 1.236 . S
O165 Dy160 2.395 1_545 S
O165 C182 1.255 . S
O166 Dy160 2.379 1_545 S
O166 C182 1.249 . S
O167 Dy161 2.275 . S
O167 C183 1.254 . S
O168 Dy160 2.339 . S
O168 C183 1.257 . S
O169 Dy161 2.307 . S
O169 C184 1.266 . S
O170 Dy160 2.298 . S
O170 C184 1.236 . S
O171 Dy161 2.395 . S
O171 C191 1.255 . S
O172 Dy161 2.379 . S
O172 C191 1.249 . S
C173 O163 1.266 . S
C173 O164 1.236 . S
O174 Dy160 2.275 . S
O174 C162 1.254 . S
O175 Dy161 2.339 . S
O175 C162 1.257 . S
C176 C179 1.344 . S
C176 C180 1.328 . S
C176 C182 1.516 . S
C177 C178 1.304 . S
C177 C181 1.323 . S
C178 C177 1.304 . S
C178 C179 1.371 . S
C178 H192 0.930 . S
C179 C176 1.344 . S
C179 C178 1.371 . S
C179 H193 0.931 . S
C180 C176 1.328 . S
C180 C181 1.433 . S
C180 H194 0.931 . S
C181 C177 1.323 . S
C181 C180 1.433 . S
C181 H195 0.933 . S
C182 Dy160 2.738 1_545 S
C182 O165 1.255 . S
C182 O166 1.249 . S
C182 C176 1.516 . S
C183 O167 1.254 . S
C183 O168 1.257 . S
C184 O169 1.266 . S
C184 O170 1.236 . S
C185 C188 1.344 . S
C185 C189 1.328 . S
C185 C191 1.516 . S
C186 C187 1.304 . S
C186 C190 1.323 . S
C187 C186 1.304 . S
C187 C188 1.371 . S
C187 H196 0.930 . S
C188 C185 1.344 . S
C188 C187 1.371 . S
C188 H197 0.931 . S
C189 C185 1.328 . S
C189 C190 1.433 . S
C189 H198 0.931 . S
C190 C186 1.323 . S
C190 C189 1.433 . S
C190 H199 0.933 . S
C191 Dy161 2.738 . S
C191 O171 1.255 . S
C191 O172 1.249 . S
C191 C185 1.516 . S
H192 C178 0.930 . S
H193 C179 0.931 . S
H194 C180 0.931 . S
H195 C181 0.933 . S
H196 C187 0.930 . S
H197 C188 0.931 . S
H198 C189 0.931 . S
H199 C190 0.933 . S
Dy200 O203 2.307 . S
Dy200 O205 2.395 1_545 S
Dy200 O206 2.379 1_545 S
Dy200 O208 2.339 . S
Dy200 O210 2.298 . S
Dy200 O214 2.275 . S
Dy200 C222 2.738 1_545 S
Dy201 O204 2.298 . S
Dy201 O207 2.275 . S
Dy201 O209 2.307 . S
Dy201 O211 2.395 . S
Dy201 O212 2.379 . S
Dy201 O215 2.339 . S
Dy201 C231 2.738 . S
C202 O214 1.254 . S
C202 O215 1.257 . S
O203 Dy200 2.307 . S
O203 C213 1.266 . S
O204 Dy201 2.298 . S
O204 C213 1.236 . S
O205 Dy200 2.395 1_565 S
O205 C222 1.255 . S
O206 Dy200 2.379 1_565 S
O206 C222 1.249 . S
O207 Dy201 2.275 . S
O207 C223 1.254 . S
O208 Dy200 2.339 . S
O208 C223 1.257 . S
O209 Dy201 2.307 . S
O209 C224 1.266 . S
O210 Dy200 2.298 . S
O210 C224 1.236 . S
O211 Dy201 2.395 . S
O211 C231 1.255 . S
O212 Dy201 2.379 . S
O212 C231 1.249 . S
C213 O203 1.266 . S
C213 O204 1.236 . S
O214 Dy200 2.275 . S
O214 C202 1.254 . S
O215 Dy201 2.339 . S
O215 C202 1.257 . S
C216 C219 1.344 . S
C216 C220 1.328 . S
C216 C222 1.516 . S
C217 C218 1.304 . S
C217 C221 1.323 . S
C218 C217 1.304 . S
C218 C219 1.371 . S
C218 H232 0.930 . S
C219 C216 1.344 . S
C219 C218 1.371 . S
C219 H233 0.931 . S
C220 C216 1.328 . S
C220 C221 1.433 . S
C220 H234 0.931 . S
C221 C217 1.323 . S
C221 C220 1.433 . S
C221 H235 0.933 . S
C222 Dy200 2.738 1_565 S
C222 O205 1.255 . S
C222 O206 1.249 . S
C222 C216 1.516 . S
C223 O207 1.254 . S
C223 O208 1.257 . S
C224 O209 1.266 . S
C224 O210 1.236 . S
C225 C228 1.344 . S
C225 C229 1.328 . S
C225 C231 1.516 . S
C226 C227 1.304 . S
C226 C230 1.323 . S
C227 C226 1.304 . S
C227 C228 1.371 . S
C227 H236 0.930 . S
C228 C225 1.344 . S
C228 C227 1.371 . S
C228 H237 0.931 . S
C229 C225 1.328 . S
C229 C230 1.433 . S
C229 H238 0.931 . S
C230 C226 1.323 . S
C230 C229 1.433 . S
C230 H239 0.933 . S
C231 Dy201 2.738 . S
C231 O211 1.255 . S
C231 O212 1.249 . S
C231 C225 1.516 . S
H232 C218 0.930 . S
H233 C219 0.931 . S
H234 C220 0.931 . S
H235 C221 0.933 . S
H236 C227 0.930 . S
H237 C228 0.931 . S
H238 C229 0.931 . S
H239 C230 0.933 . S
Dy240 O243 2.307 . S
Dy240 O245 2.395 1_545 S
Dy240 O246 2.379 1_545 S
Dy240 O248 2.339 . S
Dy240 O250 2.298 . S
Dy240 O254 2.275 . S
Dy240 C262 2.738 1_545 S
Dy241 O244 2.298 . S
Dy241 O247 2.275 . S
Dy241 O249 2.307 . S
Dy241 O251 2.395 . S
Dy241 O252 2.379 . S
Dy241 O255 2.339 . S
Dy241 C271 2.738 . S
C242 O254 1.254 . S
C242 O255 1.257 . S
O243 Dy240 2.307 . S
O243 C253 1.266 . S
O244 Dy241 2.298 . S
O244 C253 1.236 . S
O245 Dy240 2.395 1_565 S
O245 C262 1.255 . S
O246 Dy240 2.379 1_565 S
O246 C262 1.249 . S
O247 Dy241 2.275 . S
O247 C263 1.254 . S
O248 Dy240 2.339 . S
O248 C263 1.257 . S
O249 Dy241 2.307 . S
O249 C264 1.266 . S
O250 Dy240 2.298 . S
O250 C264 1.236 . S
O251 Dy241 2.395 . S
O251 C271 1.255 . S
O252 Dy241 2.379 . S
O252 C271 1.249 . S
C253 O243 1.266 . S
C253 O244 1.236 . S
O254 Dy240 2.275 . S
O254 C242 1.254 . S
O255 Dy241 2.339 . S
O255 C242 1.257 . S
C256 C259 1.344 . S
C256 C260 1.328 . S
C256 C262 1.516 . S
C257 C258 1.304 . S
C257 C261 1.323 . S
C258 C257 1.304 . S
C258 C259 1.371 . S
C258 H272 0.930 . S
C259 C256 1.344 . S
C259 C258 1.371 . S
C259 H273 0.931 . S
C260 C256 1.328 . S
C260 C261 1.433 . S
C260 H274 0.931 . S
C261 C257 1.323 . S
C261 C260 1.433 . S
C261 H275 0.933 . S
C262 Dy240 2.738 1_565 S
C262 O245 1.255 . S
C262 O246 1.249 . S
C262 C256 1.516 . S
C263 O247 1.254 . S
C263 O248 1.257 . S
C264 O249 1.266 . S
C264 O250 1.236 . S
C265 C268 1.344 . S
C265 C269 1.328 . S
C265 C271 1.516 . S
C266 C267 1.304 . S
C266 C270 1.323 . S
C267 C266 1.304 . S
C267 C268 1.371 . S
C267 H276 0.930 . S
C268 C265 1.344 . S
C268 C267 1.371 . S
C268 H277 0.931 . S
C269 C265 1.328 . S
C269 C270 1.433 . S
C269 H278 0.931 . S
C270 C266 1.323 . S
C270 C269 1.433 . S
C270 H279 0.933 . S
C271 Dy241 2.738 . S
C271 O251 1.255 . S
C271 O252 1.249 . S
C271 C265 1.516 . S
H272 C258 0.930 . S
H273 C259 0.931 . S
H274 C260 0.931 . S
H275 C261 0.933 . S
H276 C267 0.930 . S
H277 C268 0.931 . S
H278 C269 0.931 . S
H279 C270 0.933 . S
Dy280 O283 2.307 . S
Dy280 O285 2.395 1_565 S
Dy280 O286 2.379 1_565 S
Dy280 O288 2.339 . S
Dy280 O290 2.298 . S
Dy280 O294 2.275 . S
Dy280 C302 2.738 1_565 S
Dy281 O284 2.298 . S
Dy281 O287 2.275 . S
Dy281 O289 2.307 . S
Dy281 O291 2.395 . S
Dy281 O292 2.379 . S
Dy281 O295 2.339 . S
Dy281 C311 2.738 . S
C282 O294 1.254 . S
C282 O295 1.257 . S
O283 Dy280 2.307 . S
O283 C293 1.266 . S
O284 Dy281 2.298 . S
O284 C293 1.236 . S
O285 Dy280 2.395 1_545 S
O285 C302 1.255 . S
O286 Dy280 2.379 1_545 S
O286 C302 1.249 . S
O287 Dy281 2.275 . S
O287 C303 1.254 . S
O288 Dy280 2.339 . S
O288 C303 1.257 . S
O289 Dy281 2.307 . S
O289 C304 1.266 . S
O290 Dy280 2.298 . S
O290 C304 1.236 . S
O291 Dy281 2.395 . S
O291 C311 1.255 . S
O292 Dy281 2.379 . S
O292 C311 1.249 . S
C293 O283 1.266 . S
C293 O284 1.236 . S
O294 Dy280 2.275 . S
O294 C282 1.254 . S
O295 Dy281 2.339 . S
O295 C282 1.257 . S
C296 C299 1.344 . S
C296 C300 1.328 . S
C296 C302 1.516 . S
C297 C298 1.304 . S
C297 C301 1.323 . S
C298 C297 1.304 . S
C298 C299 1.371 . S
C298 H312 0.930 . S
C299 C296 1.344 . S
C299 C298 1.371 . S
C299 H313 0.931 . S
C300 C296 1.328 . S
C300 C301 1.433 . S
C300 H314 0.931 . S
C301 C297 1.323 . S
C301 C300 1.433 . S
C301 H315 0.933 . S
C302 Dy280 2.738 1_545 S
C302 O285 1.255 . S
C302 O286 1.249 . S
C302 C296 1.516 . S
C303 O287 1.254 . S
C303 O288 1.257 . S
C304 O289 1.266 . S
C304 O290 1.236 . S
C305 C308 1.344 . S
C305 C309 1.328 . S
C305 C311 1.516 . S
C306 C307 1.304 . S
C306 C310 1.323 . S
C307 C306 1.304 . S
C307 C308 1.371 . S
C307 H316 0.930 . S
C308 C305 1.344 . S
C308 C307 1.371 . S
C308 H317 0.931 . S
C309 C305 1.328 . S
C309 C310 1.433 . S
C309 H318 0.931 . S
C310 C306 1.323 . S
C310 C309 1.433 . S
C310 H319 0.933 . S
C311 Dy281 2.738 . S
C311 O291 1.255 . S
C311 O292 1.249 . S
C311 C305 1.516 . S
H312 C298 0.930 . S
H313 C299 0.931 . S
H314 C300 0.931 . S
H315 C301 0.933 . S
H316 C307 0.930 . S
H317 C308 0.931 . S
H318 C309 0.931 . S
H319 C310 0.933 . S
Dy320 O323 2.307 . S
Dy320 O325 2.395 . S
Dy320 O326 2.379 . S
Dy320 O328 2.339 . S
Dy320 O330 2.298 . S
Dy320 O334 2.275 . S
Dy320 C342 2.738 . S
Dy321 O324 2.298 . S
Dy321 O327 2.275 . S
Dy321 O329 2.307 . S
Dy321 O331 2.395 . S
Dy321 O332 2.379 . S
Dy321 O335 2.339 . S
Dy321 C351 2.738 . S
C322 O334 1.254 . S
C322 O335 1.257 . S
O323 Dy320 2.307 . S
O323 C333 1.266 . S
O324 Dy321 2.298 . S
O324 C333 1.236 . S
O325 Dy320 2.395 . S
O325 C342 1.255 . S
O326 Dy320 2.379 . S
O326 C342 1.249 . S
O327 Dy321 2.275 . S
O327 C343 1.254 . S
O328 Dy320 2.339 . S
O328 C343 1.257 . S
O329 Dy321 2.307 . S
O329 C344 1.266 . S
O330 Dy320 2.298 . S
O330 C344 1.236 . S
O331 Dy321 2.395 . S
O331 C351 1.255 . S
O332 Dy321 2.379 . S
O332 C351 1.249 . S
C333 O323 1.266 . S
C333 O324 1.236 . S
O334 Dy320 2.275 . S
O334 C322 1.254 . S
O335 Dy321 2.339 . S
O335 C322 1.257 . S
C336 C339 1.344 . S
C336 C340 1.328 . S
C336 C342 1.516 . S
C337 C338 1.304 . S
C337 C341 1.323 . S
C338 C337 1.304 . S
C338 C339 1.371 . S
C338 H352 0.930 . S
C339 C336 1.344 . S
C339 C338 1.371 . S
C339 H353 0.931 . S
C340 C336 1.328 . S
C340 C341 1.433 . S
C340 H354 0.931 . S
C341 C337 1.323 . S
C341 C340 1.433 . S
C341 H355 0.933 . S
C342 Dy320 2.738 . S
C342 O325 1.255 . S
C342 O326 1.249 . S
C342 C336 1.516 . S
C343 O327 1.254 . S
C343 O328 1.257 . S
C344 O329 1.266 . S
C344 O330 1.236 . S
C345 C348 1.344 . S
C345 C349 1.328 . S
C345 C351 1.516 . S
C346 C347 1.304 . S
C346 C350 1.323 . S
C347 C346 1.304 . S
C347 C348 1.371 . S
C347 H356 0.930 . S
C348 C345 1.344 . S
C348 C347 1.371 . S
C348 H357 0.931 . S
C349 C345 1.328 . S
C349 C350 1.433 . S
C349 H358 0.931 . S
C350 C346 1.323 . S
C350 C349 1.433 . S
C350 H359 0.933 . S
C351 Dy321 2.738 . S
C351 O331 1.255 . S
C351 O332 1.249 . S
C351 C345 1.516 . S
H352 C338 0.930 . S
H353 C339 0.931 . S
H354 C340 0.931 . S
H355 C341 0.933 . S
H356 C347 0.930 . S
H357 C348 0.931 . S
H358 C349 0.931 . S
H359 C350 0.933 . S
Dy360 O363 2.307 . S
Dy360 O365 2.395 . S
Dy360 O366 2.379 . S
Dy360 O368 2.339 . S
Dy360 O370 2.298 . S
Dy360 O374 2.275 . S
Dy360 C382 2.738 . S
Dy361 O364 2.298 . S
Dy361 O367 2.275 . S
Dy361 O369 2.307 . S
Dy361 O371 2.395 . S
Dy361 O372 2.379 . S
Dy361 O375 2.339 . S
Dy361 C391 2.738 . S
C362 O374 1.254 . S
C362 O375 1.257 . S
O363 Dy360 2.307 . S
O363 C373 1.266 . S
O364 Dy361 2.298 . S
O364 C373 1.236 . S
O365 Dy360 2.395 . S
O365 C382 1.255 . S
O366 Dy360 2.379 . S
O366 C382 1.249 . S
O367 Dy361 2.275 . S
O367 C383 1.254 . S
O368 Dy360 2.339 . S
O368 C383 1.257 . S
O369 Dy361 2.307 . S
O369 C384 1.266 . S
O370 Dy360 2.298 . S
O370 C384 1.236 . S
O371 Dy361 2.395 . S
O371 C391 1.255 . S
O372 Dy361 2.379 . S
O372 C391 1.249 . S
C373 O363 1.266 . S
C373 O364 1.236 . S
O374 Dy360 2.275 . S
O374 C362 1.254 . S
O375 Dy361 2.339 . S
O375 C362 1.257 . S
C376 C379 1.344 . S
C376 C380 1.328 . S
C376 C382 1.516 . S
C377 C378 1.304 . S
C377 C381 1.323 . S
C378 C377 1.304 . S
C378 C379 1.371 . S
C378 H392 0.930 . S
C379 C376 1.344 . S
C379 C378 1.371 . S
C379 H393 0.931 . S
C380 C376 1.328 . S
C380 C381 1.433 . S
C380 H394 0.931 . S
C381 C377 1.323 . S
C381 C380 1.433 . S
C381 H395 0.933 . S
C382 Dy360 2.738 . S
C382 O365 1.255 . S
C382 O366 1.249 . S
C382 C376 1.516 . S
C383 O367 1.254 . S
C383 O368 1.257 . S
C384 O369 1.266 . S
C384 O370 1.236 . S
C385 C388 1.344 . S
C385 C389 1.328 . S
C385 C391 1.516 . S
C386 C387 1.304 . S
C386 C390 1.323 . S
C387 C386 1.304 . S
C387 C388 1.371 . S
C387 H396 0.930 . S
C388 C385 1.344 . S
C388 C387 1.371 . S
C388 H397 0.931 . S
C389 C385 1.328 . S
C389 C390 1.433 . S
C389 H398 0.931 . S
C390 C386 1.323 . S
C390 C389 1.433 . S
C390 H399 0.933 . S
C391 Dy361 2.738 . S
C391 O371 1.255 . S
C391 O372 1.249 . S
C391 C385 1.516 . S
H392 C378 0.930 . S
H393 C379 0.931 . S
H394 C380 0.931 . S
H395 C381 0.933 . S
H396 C387 0.930 . S
H397 C388 0.931 . S
H398 C389 0.931 . S
H399 C390 0.933 . S
Dy400 O403 2.307 . S
Dy400 O405 2.395 . S
Dy400 O406 2.379 . S
Dy400 O408 2.339 . S
Dy400 O410 2.298 . S
Dy400 O414 2.275 . S
Dy400 C422 2.738 . S
Dy401 O404 2.298 . S
Dy401 O407 2.275 . S
Dy401 O409 2.307 . S
Dy401 O411 2.395 . S
Dy401 O412 2.379 . S
Dy401 O415 2.339 . S
Dy401 C431 2.738 . S
C402 O414 1.254 . S
C402 O415 1.257 . S
O403 Dy400 2.307 . S
O403 C413 1.266 . S
O404 Dy401 2.298 . S
O404 C413 1.236 . S
O405 Dy400 2.395 . S
O405 C422 1.255 . S
O406 Dy400 2.379 . S
O406 C422 1.249 . S
O407 Dy401 2.275 . S
O407 C423 1.254 . S
O408 Dy400 2.339 . S
O408 C423 1.257 . S
O409 Dy401 2.307 . S
O409 C424 1.266 . S
O410 Dy400 2.298 . S
O410 C424 1.236 . S
O411 Dy401 2.395 . S
O411 C431 1.255 . S
O412 Dy401 2.379 . S
O412 C431 1.249 . S
C413 O403 1.266 . S
C413 O404 1.236 . S
O414 Dy400 2.275 . S
O414 C402 1.254 . S
O415 Dy401 2.339 . S
O415 C402 1.257 . S
C416 C419 1.344 . S
C416 C420 1.328 . S
C416 C422 1.516 . S
C417 C418 1.304 . S
C417 C421 1.323 . S
C418 C417 1.304 . S
C418 C419 1.371 . S
C418 H432 0.930 . S
C419 C416 1.344 . S
C419 C418 1.371 . S
C419 H433 0.931 . S
C420 C416 1.328 . S
C420 C421 1.433 . S
C420 H434 0.931 . S
C421 C417 1.323 . S
C421 C420 1.433 . S
C421 H435 0.933 . S
C422 Dy400 2.738 . S
C422 O405 1.255 . S
C422 O406 1.249 . S
C422 C416 1.516 . S
C423 O407 1.254 . S
C423 O408 1.257 . S
C424 O409 1.266 . S
C424 O410 1.236 . S
C425 C428 1.344 . S
C425 C429 1.328 . S
C425 C431 1.516 . S
C426 C427 1.304 . S
C426 C430 1.323 . S
C427 C426 1.304 . S
C427 C428 1.371 . S
C427 H436 0.930 . S
C428 C425 1.344 . S
C428 C427 1.371 . S
C428 H437 0.931 . S
C429 C425 1.328 . S
C429 C430 1.433 . S
C429 H438 0.931 . S
C430 C426 1.323 . S
C430 C429 1.433 . S
C430 H439 0.933 . S
C431 Dy401 2.738 . S
C431 O411 1.255 . S
C431 O412 1.249 . S
C431 C425 1.516 . S
H432 C418 0.930 . S
H433 C419 0.931 . S
H434 C420 0.931 . S
H435 C421 0.933 . S
H436 C427 0.930 . S
H437 C428 0.931 . S
H438 C429 0.931 . S
H439 C430 0.933 . S
Dy440 O443 2.307 . S
Dy440 O445 2.395 . S
Dy440 O446 2.379 . S
Dy440 O448 2.339 . S
Dy440 O450 2.298 . S
Dy440 O454 2.275 . S
Dy440 C462 2.738 . S
Dy441 O444 2.298 . S
Dy441 O447 2.275 . S
Dy441 O449 2.307 . S
Dy441 O451 2.395 . S
Dy441 O452 2.379 . S
Dy441 O455 2.339 . S
Dy441 C471 2.738 . S
C442 O454 1.254 . S
C442 O455 1.257 . S
O443 Dy440 2.307 . S
O443 C453 1.266 . S
O444 Dy441 2.298 . S
O444 C453 1.236 . S
O445 Dy440 2.395 . S
O445 C462 1.255 . S
O446 Dy440 2.379 . S
O446 C462 1.249 . S
O447 Dy441 2.275 . S
O447 C463 1.254 . S
O448 Dy440 2.339 . S
O448 C463 1.257 . S
O449 Dy441 2.307 . S
O449 C464 1.266 . S
O450 Dy440 2.298 . S
O450 C464 1.236 . S
O451 Dy441 2.395 . S
O451 C471 1.255 . S
O452 Dy441 2.379 . S
O452 C471 1.249 . S
C453 O443 1.266 . S
C453 O444 1.236 . S
O454 Dy440 2.275 . S
O454 C442 1.254 . S
O455 Dy441 2.339 . S
O455 C442 1.257 . S
C456 C459 1.344 . S
C456 C460 1.328 . S
C456 C462 1.516 . S
C457 C458 1.304 . S
C457 C461 1.323 . S
C458 C457 1.304 . S
C458 C459 1.371 . S
C458 H472 0.930 . S
C459 C456 1.344 . S
C459 C458 1.371 . S
C459 H473 0.931 . S
C460 C456 1.328 . S
C460 C461 1.433 . S
C460 H474 0.931 . S
C461 C457 1.323 . S
C461 C460 1.433 . S
C461 H475 0.933 . S
C462 Dy440 2.738 . S
C462 O445 1.255 . S
C462 O446 1.249 . S
C462 C456 1.516 . S
C463 O447 1.254 . S
C463 O448 1.257 . S
C464 O449 1.266 . S
C464 O450 1.236 . S
C465 C468 1.344 . S
C465 C469 1.328 . S
C465 C471 1.516 . S
C466 C467 1.304 . S
C466 C470 1.323 . S
C467 C466 1.304 . S
C467 C468 1.371 . S
C467 H476 0.930 . S
C468 C465 1.344 . S
C468 C467 1.371 . S
C468 H477 0.931 . S
C469 C465 1.328 . S
C469 C470 1.433 . S
C469 H478 0.931 . S
C470 C466 1.323 . S
C470 C469 1.433 . S
C470 H479 0.933 . S
C471 Dy441 2.738 . S
C471 O451 1.255 . S
C471 O452 1.249 . S
C471 C465 1.516 . S
H472 C458 0.930 . S
H473 C459 0.931 . S
H474 C460 0.931 . S
H475 C461 0.933 . S
H476 C467 0.930 . S
H477 C468 0.931 . S
H478 C469 0.931 . S
H479 C470 0.933 . S
Dy480 O483 2.307 . S
Dy480 O485 2.395 . S
Dy480 O486 2.379 . S
Dy480 O488 2.339 . S
Dy480 O490 2.298 . S
Dy480 O494 2.275 . S
Dy480 C502 2.738 . S
Dy481 O484 2.298 . S
Dy481 O487 2.275 . S
Dy481 O489 2.307 . S
Dy481 O491 2.395 . S
Dy481 O492 2.379 . S
Dy481 O495 2.339 . S
Dy481 C511 2.738 . S
C482 O494 1.254 . S
C482 O495 1.257 . S
O483 Dy480 2.307 . S
O483 C493 1.266 . S
O484 Dy481 2.298 . S
O484 C493 1.236 . S
O485 Dy480 2.395 . S
O485 C502 1.255 . S
O486 Dy480 2.379 . S
O486 C502 1.249 . S
O487 Dy481 2.275 . S
O487 C503 1.254 . S
O488 Dy480 2.339 . S
O488 C503 1.257 . S
O489 Dy481 2.307 . S
O489 C504 1.266 . S
O490 Dy480 2.298 . S
O490 C504 1.236 . S
O491 Dy481 2.395 . S
O491 C511 1.255 . S
O492 Dy481 2.379 . S
O492 C511 1.249 . S
C493 O483 1.266 . S
C493 O484 1.236 . S
O494 Dy480 2.275 . S
O494 C482 1.254 . S
O495 Dy481 2.339 . S
O495 C482 1.257 . S
C496 C499 1.344 . S
C496 C500 1.328 . S
C496 C502 1.516 . S
C497 C498 1.304 . S
C497 C501 1.323 . S
C498 C497 1.304 . S
C498 C499 1.371 . S
C498 H512 0.930 . S
C499 C496 1.344 . S
C499 C498 1.371 . S
C499 H513 0.931 . S
C500 C496 1.328 . S
C500 C501 1.433 . S
C500 H514 0.931 . S
C501 C497 1.323 . S
C501 C500 1.433 . S
C501 H515 0.933 . S
C502 Dy480 2.738 . S
C502 O485 1.255 . S
C502 O486 1.249 . S
C502 C496 1.516 . S
C503 O487 1.254 . S
C503 O488 1.257 . S
C504 O489 1.266 . S
C504 O490 1.236 . S
C505 C508 1.344 . S
C505 C509 1.328 . S
C505 C511 1.516 . S
C506 C507 1.304 . S
C506 C510 1.323 . S
C507 C506 1.304 . S
C507 C508 1.371 . S
C507 H516 0.930 . S
C508 C505 1.344 . S
C508 C507 1.371 . S
C508 H517 0.931 . S
C509 C505 1.328 . S
C509 C510 1.433 . S
C509 H518 0.931 . S
C510 C506 1.323 . S
C510 C509 1.433 . S
C510 H519 0.933 . S
C511 Dy481 2.738 . S
C511 O491 1.255 . S
C511 O492 1.249 . S
C511 C505 1.516 . S
H512 C498 0.930 . S
H513 C499 0.931 . S
H514 C500 0.931 . S
H515 C501 0.933 . S
H516 C507 0.930 . S
H517 C508 0.931 . S
H518 C509 0.931 . S
H519 C510 0.933 . S
Dy520 O523 2.307 . S
Dy520 O525 2.395 . S
Dy520 O526 2.379 . S
Dy520 O528 2.339 . S
Dy520 O530 2.298 . S
Dy520 O534 2.275 . S
Dy520 C542 2.738 . S
Dy521 O524 2.298 . S
Dy521 O527 2.275 . S
Dy521 O529 2.307 . S
Dy521 O531 2.395 . S
Dy521 O532 2.379 . S
Dy521 O535 2.339 . S
Dy521 C551 2.738 . S
C522 O534 1.254 . S
C522 O535 1.257 . S
O523 Dy520 2.307 . S
O523 C533 1.266 . S
O524 Dy521 2.298 . S
O524 C533 1.236 . S
O525 Dy520 2.395 . S
O525 C542 1.255 . S
O526 Dy520 2.379 . S
O526 C542 1.249 . S
O527 Dy521 2.275 . S
O527 C543 1.254 . S
O528 Dy520 2.339 . S
O528 C543 1.257 . S
O529 Dy521 2.307 . S
O529 C544 1.266 . S
O530 Dy520 2.298 . S
O530 C544 1.236 . S
O531 Dy521 2.395 . S
O531 C551 1.255 . S
O532 Dy521 2.379 . S
O532 C551 1.249 . S
C533 O523 1.266 . S
C533 O524 1.236 . S
O534 Dy520 2.275 . S
O534 C522 1.254 . S
O535 Dy521 2.339 . S
O535 C522 1.257 . S
C536 C539 1.344 . S
C536 C540 1.328 . S
C536 C542 1.516 . S
C537 C538 1.304 . S
C537 C541 1.323 . S
C538 C537 1.304 . S
C538 C539 1.371 . S
C538 H552 0.930 . S
C539 C536 1.344 . S
C539 C538 1.371 . S
C539 H553 0.931 . S
C540 C536 1.328 . S
C540 C541 1.433 . S
C540 H554 0.931 . S
C541 C537 1.323 . S
C541 C540 1.433 . S
C541 H555 0.933 . S
C542 Dy520 2.738 . S
C542 O525 1.255 . S
C542 O526 1.249 . S
C542 C536 1.516 . S
C543 O527 1.254 . S
C543 O528 1.257 . S
C544 O529 1.266 . S
C544 O530 1.236 . S
C545 C548 1.344 . S
C545 C549 1.328 . S
C545 C551 1.516 . S
C546 C547 1.304 . S
C546 C550 1.323 . S
C547 C546 1.304 . S
C547 C548 1.371 . S
C547 H556 0.930 . S
C548 C545 1.344 . S
C548 C547 1.371 . S
C548 H557 0.931 . S
C549 C545 1.328 . S
C549 C550 1.433 . S
C549 H558 0.931 . S
C550 C546 1.323 . S
C550 C549 1.433 . S
C550 H559 0.933 . S
C551 Dy521 2.738 . S
C551 O531 1.255 . S
C551 O532 1.249 . S
C551 C545 1.516 . S
H552 C538 0.930 . S
H553 C539 0.931 . S
H554 C540 0.931 . S
H555 C541 0.933 . S
H556 C547 0.930 . S
H557 C548 0.931 . S
H558 C549 0.931 . S
H559 C550 0.933 . S
Dy560 O563 2.307 . S
Dy560 O565 2.395 . S
Dy560 O566 2.379 . S
Dy560 O568 2.339 . S
Dy560 O570 2.298 . S
Dy560 O574 2.275 . S
Dy560 C582 2.738 . S
Dy561 O564 2.298 . S
Dy561 O567 2.275 . S
Dy561 O569 2.307 . S
Dy561 O571 2.395 . S
Dy561 O572 2.379 . S
Dy561 O575 2.339 . S
Dy561 C591 2.738 . S
C562 O574 1.254 . S
C562 O575 1.257 . S
O563 Dy560 2.307 . S
O563 C573 1.266 . S
O564 Dy561 2.298 . S
O564 C573 1.236 . S
O565 Dy560 2.395 . S
O565 C582 1.255 . S
O566 Dy560 2.379 . S
O566 C582 1.249 . S
O567 Dy561 2.275 . S
O567 C583 1.254 . S
O568 Dy560 2.339 . S
O568 C583 1.257 . S
O569 Dy561 2.307 . S
O569 C584 1.266 . S
O570 Dy560 2.298 . S
O570 C584 1.236 . S
O571 Dy561 2.395 . S
O571 C591 1.255 . S
O572 Dy561 2.379 . S
O572 C591 1.249 . S
C573 O563 1.266 . S
C573 O564 1.236 . S
O574 Dy560 2.275 . S
O574 C562 1.254 . S
O575 Dy561 2.339 . S
O575 C562 1.257 . S
C576 C579 1.344 . S
C576 C580 1.328 . S
C576 C582 1.516 . S
C577 C578 1.304 . S
C577 C581 1.323 . S
C578 C577 1.304 . S
C578 C579 1.371 . S
C578 H592 0.930 . S
C579 C576 1.344 . S
C579 C578 1.371 . S
C579 H593 0.931 . S
C580 C576 1.328 . S
C580 C581 1.433 . S
C580 H594 0.931 . S
C581 C577 1.323 . S
C581 C580 1.433 . S
C581 H595 0.933 . S
C582 Dy560 2.738 . S
C582 O565 1.255 . S
C582 O566 1.249 . S
C582 C576 1.516 . S
C583 O567 1.254 . S
C583 O568 1.257 . S
C584 O569 1.266 . S
C584 O570 1.236 . S
C585 C588 1.344 . S
C585 C589 1.328 . S
C585 C591 1.516 . S
C586 C587 1.304 . S
C586 C590 1.323 . S
C587 C586 1.304 . S
C587 C588 1.371 . S
C587 H596 0.930 . S
C588 C585 1.344 . S
C588 C587 1.371 . S
C588 H597 0.931 . S
C589 C585 1.328 . S
C589 C590 1.433 . S
C589 H598 0.931 . S
C590 C586 1.323 . S
C590 C589 1.433 . S
C590 H599 0.933 . S
C591 Dy561 2.738 . S
C591 O571 1.255 . S
C591 O572 1.249 . S
C591 C585 1.516 . S
H592 C578 0.930 . S
H593 C579 0.931 . S
H594 C580 0.931 . S
H595 C581 0.933 . S
H596 C587 0.930 . S
H597 C588 0.931 . S
H598 C589 0.931 . S
H599 C590 0.933 . S
Dy600 O603 2.307 . S
Dy600 O605 2.395 . S
Dy600 O606 2.379 . S
Dy600 O608 2.339 . S
Dy600 O610 2.298 . S
Dy600 O614 2.275 . S
Dy600 C622 2.738 . S
Dy601 O604 2.298 . S
Dy601 O607 2.275 . S
Dy601 O609 2.307 . S
Dy601 O611 2.395 . S
Dy601 O612 2.379 . S
Dy601 O615 2.339 . S
Dy601 C631 2.738 . S
C602 O614 1.254 . S
C602 O615 1.257 . S
O603 Dy600 2.307 . S
O603 C613 1.266 . S
O604 Dy601 2.298 . S
O604 C613 1.236 . S
O605 Dy600 2.395 . S
O605 C622 1.255 . S
O606 Dy600 2.379 . S
O606 C622 1.249 . S
O607 Dy601 2.275 . S
O607 C623 1.254 . S
O608 Dy600 2.339 . S
O608 C623 1.257 . S
O609 Dy601 2.307 . S
O609 C624 1.266 . S
O610 Dy600 2.298 . S
O610 C624 1.236 . S
O611 Dy601 2.395 . S
O611 C631 1.255 . S
O612 Dy601 2.379 . S
O612 C631 1.249 . S
C613 O603 1.266 . S
C613 O604 1.236 . S
O614 Dy600 2.275 . S
O614 C602 1.254 . S
O615 Dy601 2.339 . S
O615 C602 1.257 . S
C616 C619 1.344 . S
C616 C620 1.328 . S
C616 C622 1.516 . S
C617 C618 1.304 . S
C617 C621 1.323 . S
C618 C617 1.304 . S
C618 C619 1.371 . S
C618 H632 0.930 . S
C619 C616 1.344 . S
C619 C618 1.371 . S
C619 H633 0.931 . S
C620 C616 1.328 . S
C620 C621 1.433 . S
C620 H634 0.931 . S
C621 C617 1.323 . S
C621 C620 1.433 . S
C621 H635 0.933 . S
C622 Dy600 2.738 . S
C622 O605 1.255 . S
C622 O606 1.249 . S
C622 C616 1.516 . S
C623 O607 1.254 . S
C623 O608 1.257 . S
C624 O609 1.266 . S
C624 O610 1.236 . S
C625 C628 1.344 . S
C625 C629 1.328 . S
C625 C631 1.516 . S
C626 C627 1.304 . S
C626 C630 1.323 . S
C627 C626 1.304 . S
C627 C628 1.371 . S
C627 H636 0.930 . S
C628 C625 1.344 . S
C628 C627 1.371 . S
C628 H637 0.931 . S
C629 C625 1.328 . S
C629 C630 1.433 . S
C629 H638 0.931 . S
C630 C626 1.323 . S
C630 C629 1.433 . S
C630 H639 0.933 . S
C631 Dy601 2.738 . S
C631 O611 1.255 . S
C631 O612 1.249 . S
C631 C625 1.516 . S
H632 C618 0.930 . S
H633 C619 0.931 . S
H634 C620 0.931 . S
H635 C621 0.933 . S
H636 C627 0.930 . S
H637 C628 0.931 . S
H638 C629 0.931 . S
H639 C630 0.933 . S
H640 C646 0.930 . S
H641 C650 0.930 . S
H642 C655 0.929 . S
H643 C653 0.929 . S
H644 C648 0.929 . S
H645 C654 0.929 . S
C646 H640 0.930 . S
C646 C647 1.367 . S
C646 C654 1.378 . S
C647 C646 1.367 . S
C647 C655 1.433 . S
C648 H644 0.929 . S
C648 C650 1.378 . S
C648 C652 1.350 . S
C649 C652 1.463 . S
C649 C654 1.350 . S
C649 N657 1.427 . S
C650 H641 0.930 . S
C650 C648 1.378 . S
C650 C651 1.367 . S
C651 C650 1.367 . S
C651 C653 1.433 . S
C652 C648 1.350 . S
C652 C649 1.463 . S
C652 N656 1.427 . S
C653 H643 0.929 . S
C653 C651 1.433 . S
C653 N656 1.384 . S
C654 H645 0.929 . S
C654 C646 1.378 . S
C654 C649 1.350 . S
C655 H642 0.929 . S
C655 C647 1.433 . S
C655 N657 1.384 . S
N656 C652 1.427 . S
N656 C653 1.384 . S
N657 C649 1.427 . S
N657 C655 1.384 . S
H658 C664 0.930 . S
H659 C668 0.930 . S
H660 C673 0.929 . S
H661 C671 0.929 . S
H662 C666 0.929 . S
H663 C672 0.929 . S
C664 H658 0.930 . S
C664 C665 1.367 . S
C664 C672 1.378 . S
C665 C664 1.367 . S
C665 C673 1.433 . S
C666 H662 0.929 . S
C666 C668 1.378 . S
C666 C670 1.350 . S
C667 C670 1.463 . S
C667 C672 1.350 . S
C667 N675 1.427 . S
C668 H659 0.930 . S
C668 C666 1.378 . S
C668 C669 1.367 . S
C669 C668 1.367 . S
C669 C671 1.433 . S
C670 C666 1.350 . S
C670 C667 1.463 . S
C670 N674 1.427 . S
C671 H661 0.929 . S
C671 C669 1.433 . S
C671 N674 1.384 . S
C672 H663 0.929 . S
C672 C664 1.378 . S
C672 C667 1.350 . S
C673 H660 0.929 . S
C673 C665 1.433 . S
C673 N675 1.384 . S
N674 C670 1.427 . S
N674 C671 1.384 . S
N675 C667 1.427 . S
N675 C673 1.384 . S
H676 C682 0.930 . S
H677 C686 0.930 . S
H678 C691 0.929 . S
H679 C689 0.929 . S
H680 C684 0.929 . S
H681 C690 0.929 . S
C682 H676 0.930 . S
C682 C683 1.367 . S
C682 C690 1.378 . S
C683 C682 1.367 . S
C683 C691 1.433 . S
C684 H680 0.929 . S
C684 C686 1.378 . S
C684 C688 1.350 . S
C685 C688 1.463 . S
C685 C690 1.350 . S
C685 N693 1.427 . S
C686 H677 0.930 . S
C686 C684 1.378 . S
C686 C687 1.367 . S
C687 C686 1.367 . S
C687 C689 1.433 . S
C688 C684 1.350 . S
C688 C685 1.463 . S
C688 N692 1.427 . S
C689 H679 0.929 . S
C689 C687 1.433 . S
C689 N692 1.384 . S
C690 H681 0.929 . S
C690 C682 1.378 . S
C690 C685 1.350 . S
C691 H678 0.929 . S
C691 C683 1.433 . S
C691 N693 1.384 . S
N692 C688 1.427 . S
N692 C689 1.384 . S
N693 C685 1.427 . S
N693 C691 1.384 . S
H694 C700 0.930 . S
H695 C704 0.930 . S
H696 C709 0.929 . S
H697 C707 0.929 . S
H698 C702 0.929 . S
H699 C708 0.929 . S
C700 H694 0.930 . S
C700 C701 1.367 . S
C700 C708 1.378 . S
C701 C700 1.367 . S
C701 C709 1.433 . S
C702 H698 0.929 . S
C702 C704 1.378 . S
C702 C706 1.350 . S
C703 C706 1.463 . S
C703 C708 1.350 . S
C703 N711 1.427 . S
C704 H695 0.930 . S
C704 C702 1.378 . S
C704 C705 1.367 . S
C705 C704 1.367 . S
C705 C707 1.433 . S
C706 C702 1.350 . S
C706 C703 1.463 . S
C706 N710 1.427 . S
C707 H697 0.929 . S
C707 C705 1.433 . S
C707 N710 1.384 . S
C708 H699 0.929 . S
C708 C700 1.378 . S
C708 C703 1.350 . S
C709 H696 0.929 . S
C709 C701 1.433 . S
C709 N711 1.384 . S
N710 C706 1.427 . S
N710 C707 1.384 . S
N711 C703 1.427 . S
N711 C709 1.384 . S
H712 C718 0.930 . S
H713 C722 0.930 . S
H714 C727 0.929 . S
H715 C725 0.929 . S
H716 C720 0.929 . S
H717 C726 0.929 . S
C718 H712 0.930 . S
C718 C719 1.367 . S
C718 C726 1.378 . S
C719 C718 1.367 . S
C719 C727 1.433 . S
C720 H716 0.929 . S
C720 C722 1.378 . S
C720 C724 1.350 . S
C721 C724 1.463 . S
C721 C726 1.350 . S
C721 N729 1.427 . S
C722 H713 0.930 . S
C722 C720 1.378 . S
C722 C723 1.367 . S
C723 C722 1.367 . S
C723 C725 1.433 . S
C724 C720 1.350 . S
C724 C721 1.463 . S
C724 N728 1.427 . S
C725 H715 0.929 . S
C725 C723 1.433 . S
C725 N728 1.384 . S
C726 H717 0.929 . S
C726 C718 1.378 . S
C726 C721 1.350 . S
C727 H714 0.929 . S
C727 C719 1.433 . S
C727 N729 1.384 . S
N728 C724 1.427 . S
N728 C725 1.384 . S
N729 C721 1.427 . S
N729 C727 1.384 . S
H730 C736 0.930 . S
H731 C740 0.930 . S
H732 C745 0.929 . S
H733 C743 0.929 . S
H734 C738 0.929 . S
H735 C744 0.929 . S
C736 H730 0.930 . S
C736 C737 1.367 . S
C736 C744 1.378 . S
C737 C736 1.367 . S
C737 C745 1.433 . S
C738 H734 0.929 . S
C738 C740 1.378 . S
C738 C742 1.350 . S
C739 C742 1.463 . S
C739 C744 1.350 . S
C739 N747 1.427 . S
C740 H731 0.930 . S
C740 C738 1.378 . S
C740 C741 1.367 . S
C741 C740 1.367 . S
C741 C743 1.433 . S
C742 C738 1.350 . S
C742 C739 1.463 . S
C742 N746 1.427 . S
C743 H733 0.929 . S
C743 C741 1.433 . S
C743 N746 1.384 . S
C744 H735 0.929 . S
C744 C736 1.378 . S
C744 C739 1.350 . S
C745 H732 0.929 . S
C745 C737 1.433 . S
C745 N747 1.384 . S
N746 C742 1.427 . S
N746 C743 1.384 . S
N747 C739 1.427 . S
N747 C745 1.384 . S
H748 C754 0.930 . S
H749 C758 0.930 . S
H750 C763 0.929 . S
H751 C761 0.929 . S
H752 C756 0.929 . S
H753 C762 0.929 . S
C754 H748 0.930 . S
C754 C755 1.367 . S
C754 C762 1.378 . S
C755 C754 1.367 . S
C755 C763 1.433 . S
C756 H752 0.929 . S
C756 C758 1.378 . S
C756 C760 1.350 . S
C757 C760 1.463 . S
C757 C762 1.350 . S
C757 N765 1.427 . S
C758 H749 0.930 . S
C758 C756 1.378 . S
C758 C759 1.367 . S
C759 C758 1.367 . S
C759 C761 1.433 . S
C760 C756 1.350 . S
C760 C757 1.463 . S
C760 N764 1.427 . S
C761 H751 0.929 . S
C761 C759 1.433 . S
C761 N764 1.384 . S
C762 H753 0.929 . S
C762 C754 1.378 . S
C762 C757 1.350 . S
C763 H750 0.929 . S
C763 C755 1.433 . S
C763 N765 1.384 . S
N764 C760 1.427 . S
N764 C761 1.384 . S
N765 C757 1.427 . S
N765 C763 1.384 . S
H766 C772 0.930 . S
H767 C776 0.930 . S
H768 C781 0.929 . S
H769 C779 0.929 . S
H770 C774 0.929 . S
H771 C780 0.929 . S
C772 H766 0.930 . S
C772 C773 1.367 . S
C772 C780 1.378 . S
C773 C772 1.367 . S
C773 C781 1.433 . S
C774 H770 0.929 . S
C774 C776 1.378 . S
C774 C778 1.350 . S
C775 C778 1.463 . S
C775 C780 1.350 . S
C775 N783 1.427 . S
C776 H767 0.930 . S
C776 C774 1.378 . S
C776 C777 1.367 . S
C777 C776 1.367 . S
C777 C779 1.433 . S
C778 C774 1.350 . S
C778 C775 1.463 . S
C778 N782 1.427 . S
C779 H769 0.929 . S
C779 C777 1.433 . S
C779 N782 1.384 . S
C780 H771 0.929 . S
C780 C772 1.378 . S
C780 C775 1.350 . S
C781 H768 0.929 . S
C781 C773 1.433 . S
C781 N783 1.384 . S
N782 C778 1.427 . S
N782 C779 1.384 . S
N783 C775 1.427 . S
N783 C781 1.384 . S
H784 C790 0.930 . S
H785 C794 0.930 . S
H786 C799 0.929 1_545 S
H787 C797 0.929 1_565 S
H788 C792 0.929 . S
H789 C798 0.929 . S
C790 H784 0.930 . S
C790 C791 1.367 . S
C790 C798 1.378 . S
C791 C790 1.367 . S
C791 C799 1.433 . S
C792 H788 0.929 . S
C792 C794 1.378 . S
C792 C796 1.350 . S
C793 C796 1.463 1_565 S
C793 C798 1.350 . S
C793 N801 1.427 1_565 S
C794 H785 0.930 . S
C794 C792 1.378 . S
C794 C795 1.367 . S
C795 C794 1.367 . S
C795 C797 1.433 . S
C796 C792 1.350 . S
C796 C793 1.463 1_545 S
C796 N800 1.427 1_545 S
C797 H787 0.929 1_545 S
C797 C795 1.433 . S
C797 N800 1.384 1_545 S
C798 H789 0.929 . S
C798 C790 1.378 . S
C798 C793 1.350 . S
C799 H786 0.929 1_565 S
C799 C791 1.433 . S
C799 N801 1.384 1_565 S
N800 C796 1.427 1_565 S
N800 C797 1.384 1_565 S
N801 C793 1.427 1_545 S
N801 C799 1.384 1_545 S
H802 C808 0.930 . S
H803 C812 0.930 . S
H804 C817 0.929 . S
H805 C815 0.929 . S
H806 C810 0.923 1_545 S
H807 C816 0.923 1_565 S
C808 H802 0.930 . S
C808 C809 1.367 . S
C808 C816 1.378 . S
C809 C808 1.367 . S
C809 C817 1.433 . S
C810 H806 0.923 1_565 S
C810 C812 1.378 . S
C810 C814 1.350 . S
C811 C814 1.463 1_545 S
C811 C816 1.350 . S
C811 N819 1.427 . S
C812 H803 0.930 . S
C812 C810 1.378 . S
C812 C813 1.367 . S
C813 C812 1.367 . S
C813 C815 1.433 . S
C814 C810 1.350 . S
C814 C811 1.463 1_565 S
C814 N818 1.427 . S
C815 H805 0.929 . S
C815 C813 1.433 . S
C815 N818 1.384 . S
C816 H807 0.923 1_545 S
C816 C808 1.378 . S
C816 C811 1.350 . S
C817 H804 0.929 . S
C817 C809 1.433 . S
C817 N819 1.384 . S
N818 C814 1.427 . S
N818 C815 1.384 . S
N819 C811 1.427 . S
N819 C817 1.384 . S
H820 C826 0.930 . S
H821 C830 0.930 . S
H822 C835 0.929 1_565 S
H823 C833 0.929 1_545 S
H824 C828 0.929 . S
H825 C834 0.929 . S
C826 H820 0.930 . S
C826 C827 1.367 . S
C826 C834 1.378 . S
C827 C826 1.367 . S
C827 C835 1.433 . S
C828 H824 0.929 . S
C828 C830 1.378 . S
C828 C832 1.350 . S
C829 C832 1.463 1_545 S
C829 C834 1.350 . S
C829 N837 1.427 1_545 S
C830 H821 0.930 . S
C830 C828 1.378 . S
C830 C831 1.367 . S
C831 C830 1.367 . S
C831 C833 1.433 . S
C832 C828 1.350 . S
C832 C829 1.463 1_565 S
C832 N836 1.427 1_565 S
C833 H823 0.929 1_565 S
C833 C831 1.433 . S
C833 N836 1.384 1_565 S
C834 H825 0.929 . S
C834 C826 1.378 . S
C834 C829 1.350 . S
C835 H822 0.929 1_545 S
C835 C827 1.433 . S
C835 N837 1.384 1_545 S
N836 C832 1.427 1_545 S
N836 C833 1.384 1_545 S
N837 C829 1.427 1_565 S
N837 C835 1.384 1_565 S
H838 C844 0.930 1_565 S
H839 C848 0.930 1_545 S
H840 C853 0.929 . S
H841 C851 0.929 . S
H842 C846 0.929 . S
H843 C852 0.929 . S
C844 H838 0.930 1_545 S
C844 C845 1.367 . S
C844 C852 1.378 1_545 S
C845 C844 1.367 . S
C845 C853 1.433 . S
C846 H842 0.929 . S
C846 C848 1.378 1_545 S
C846 C850 1.350 1_545 S
C847 C850 1.463 1_545 S
C847 C852 1.350 1_545 S
C847 N855 1.427 . S
C848 H839 0.930 1_565 S
C848 C846 1.378 1_565 S
C848 C849 1.367 . S
C849 C848 1.367 . S
C849 C851 1.433 . S
C850 C846 1.350 1_565 S
C850 C847 1.463 1_565 S
C850 N854 1.427 . S
C851 H841 0.929 . S
C851 C849 1.433 . S
C851 N854 1.384 . S
C852 H843 0.929 . S
C852 C844 1.378 1_565 S
C852 C847 1.350 1_565 S
C853 H840 0.929 . S
C853 C845 1.433 . S
C853 N855 1.384 . S
N854 C850 1.427 . S
N854 C851 1.384 . S
N855 C847 1.427 . S
N855 C853 1.384 . S
H856 C862 0.930 . S
H857 C866 0.930 . S
H858 C871 0.929 . S
H859 C869 0.929 . S
H860 C864 0.929 . S
H861 C870 0.929 . S
C862 H856 0.930 . S
C862 C863 1.367 . S
C862 C870 1.378 . S
C863 C862 1.367 . S
C863 C871 1.433 . S
C864 H860 0.929 . S
C864 C866 1.378 . S
C864 C868 1.350 . S
C865 C868 1.463 . S
C865 C870 1.350 . S
C865 N873 1.427 . S
C866 H857 0.930 . S
C866 C864 1.378 . S
C866 C867 1.367 . S
C867 C866 1.367 . S
C867 C869 1.433 . S
C868 C864 1.350 . S
C868 C865 1.463 . S
C868 N872 1.427 . S
C869 H859 0.929 . S
C869 C867 1.433 . S
C869 N872 1.384 . S
C870 H861 0.929 . S
C870 C862 1.378 . S
C870 C865 1.350 . S
C871 H858 0.929 . S
C871 C863 1.433 . S
C871 N873 1.384 . S
N872 C868 1.427 . S
N872 C869 1.384 . S
N873 C865 1.427 . S
N873 C871 1.384 . S
H874 C880 0.930 . S
H875 C884 0.930 . S
H876 C889 0.929 . S
H877 C887 0.929 . S
H878 C882 0.929 . S
H879 C888 0.929 . S
C880 H874 0.930 . S
C880 C881 1.367 . S
C880 C888 1.378 . S
C881 C880 1.367 . S
C881 C889 1.433 . S
C882 H878 0.929 . S
C882 C884 1.378 . S
C882 C886 1.350 . S
C883 C886 1.463 . S
C883 C888 1.350 . S
C883 N891 1.427 . S
C884 H875 0.930 . S
C884 C882 1.378 . S
C884 C885 1.367 . S
C885 C884 1.367 . S
C885 C887 1.433 . S
C886 C882 1.350 . S
C886 C883 1.463 . S
C886 N890 1.427 . S
C887 H877 0.929 . S
C887 C885 1.433 . S
C887 N890 1.384 . S
C888 H879 0.929 . S
C888 C880 1.378 . S
C888 C883 1.350 . S
C889 H876 0.929 . S
C889 C881 1.433 . S
C889 N891 1.384 . S
N890 C886 1.427 . S
N890 C887 1.384 . S
N891 C883 1.427 . S
N891 C889 1.384 . S
H892 C898 0.930 . S
H893 C902 0.930 . S
H894 C907 0.929 . S
H895 C905 0.929 . S
H896 C900 0.929 . S
H897 C906 0.929 . S
C898 H892 0.930 . S
C898 C899 1.367 . S
C898 C906 1.378 . S
C899 C898 1.367 . S
C899 C907 1.433 . S
C900 H896 0.929 . S
C900 C902 1.378 . S
C900 C904 1.350 . S
C901 C904 1.463 . S
C901 C906 1.350 . S
C901 N909 1.427 . S
C902 H893 0.930 . S
C902 C900 1.378 . S
C902 C903 1.367 . S
C903 C902 1.367 . S
C903 C905 1.433 . S
C904 C900 1.350 . S
C904 C901 1.463 . S
C904 N908 1.427 . S
C905 H895 0.929 . S
C905 C903 1.433 . S
C905 N908 1.384 . S
C906 H897 0.929 . S
C906 C898 1.378 . S
C906 C901 1.350 . S
C907 H894 0.929 . S
C907 C899 1.433 . S
C907 N909 1.384 . S
N908 C904 1.427 . S
N908 C905 1.384 . S
N909 C901 1.427 . S
N909 C907 1.384 . S
H910 C916 0.930 . S
H911 C920 0.930 . S
H912 C925 0.929 . S
H913 C923 0.929 . S
H914 C918 0.929 . S
H915 C924 0.929 . S
C916 H910 0.930 . S
C916 C917 1.367 . S
C916 C924 1.378 . S
C917 C916 1.367 . S
C917 C925 1.433 . S
C918 H914 0.929 . S
C918 C920 1.378 . S
C918 C922 1.350 . S
C919 C922 1.463 . S
C919 C924 1.350 . S
C919 N927 1.427 . S
C920 H911 0.930 . S
C920 C918 1.378 . S
C920 C921 1.367 . S
C921 C920 1.367 . S
C921 C923 1.433 . S
C922 C918 1.350 . S
C922 C919 1.463 . S
C922 N926 1.427 . S
C923 H913 0.929 . S
C923 C921 1.433 . S
C923 N926 1.384 . S
C924 H915 0.929 . S
C924 C916 1.378 . S
C924 C919 1.350 . S
C925 H912 0.929 . S
C925 C917 1.433 . S
C925 N927 1.384 . S
N926 C922 1.427 . S
N926 C923 1.384 . S
N927 C919 1.427 . S
N927 C925 1.384 . S
H928 C934 0.930 . S
H929 C938 0.930 . S
H930 C943 0.929 . S
H931 C941 0.929 . S
H932 C936 0.929 . S
H933 C942 0.929 . S
C934 H928 0.930 . S
C934 C935 1.367 . S
C934 C942 1.378 . S
C935 C934 1.367 . S
C935 C943 1.433 . S
C936 H932 0.929 . S
C936 C938 1.378 . S
C936 C940 1.350 . S
C937 C940 1.463 1_556 S
C937 C942 1.350 . S
C937 N945 1.427 . S
C938 H929 0.930 . S
C938 C936 1.378 . S
C938 C939 1.367 . S
C939 C938 1.367 . S
C939 C941 1.433 . S
C940 C936 1.350 . S
C940 C937 1.463 1_554 S
C940 N944 1.427 . S
C941 H931 0.929 . S
C941 C939 1.433 . S
C941 N944 1.384 . S
C942 H933 0.929 . S
C942 C934 1.378 . S
C942 C937 1.350 . S
C943 H930 0.929 . S
C943 C935 1.433 . S
C943 N945 1.384 . S
N944 C940 1.427 . S
N944 C941 1.384 . S
N945 C937 1.427 . S
N945 C943 1.384 . S
H946 C952 0.930 . S
H947 C956 0.930 . S
H948 C961 0.929 . S
H949 C959 0.929 . S
H950 C954 0.929 . S
H951 C960 0.929 . S
C952 H946 0.930 . S
C952 C953 1.367 . S
C952 C960 1.378 . S
C953 C952 1.367 . S
C953 C961 1.433 . S
C954 H950 0.929 . S
C954 C956 1.378 . S
C954 C958 1.350 . S
C955 C958 1.463 1_556 S
C955 C960 1.350 . S
C955 N963 1.427 . S
C956 H947 0.930 . S
C956 C954 1.378 . S
C956 C957 1.367 . S
C957 C956 1.367 . S
C957 C959 1.433 . S
C958 C954 1.350 . S
C958 C955 1.463 1_554 S
C958 N962 1.427 . S
C959 H949 0.929 . S
C959 C957 1.433 . S
C959 N962 1.384 . S
C960 H951 0.929 . S
C960 C952 1.378 . S
C960 C955 1.350 . S
C961 H948 0.929 . S
C961 C953 1.433 . S
C961 N963 1.384 . S
N962 C958 1.427 . S
N962 C959 1.384 . S
N963 C955 1.427 . S
N963 C961 1.384 . S
H964 C970 0.930 . S
H965 C974 0.930 . S
H966 C979 0.929 . S
H967 C977 0.929 . S
H968 C972 0.929 . S
H969 C978 0.929 . S
C970 H964 0.930 . S
C970 C971 1.367 . S
C970 C978 1.378 . S
C971 C970 1.367 . S
C971 C979 1.433 . S
C972 H968 0.929 . S
C972 C974 1.378 . S
C972 C976 1.350 . S
C973 C976 1.463 . S
C973 C978 1.350 . S
C973 N981 1.427 . S
C974 H965 0.930 . S
C974 C972 1.378 . S
C974 C975 1.367 . S
C975 C974 1.367 . S
C975 C977 1.433 . S
C976 C972 1.350 . S
C976 C973 1.463 . S
C976 N980 1.427 . S
C977 H967 0.929 . S
C977 C975 1.433 . S
C977 N980 1.384 . S
C978 H969 0.929 . S
C978 C970 1.378 . S
C978 C973 1.350 . S
C979 H966 0.929 . S
C979 C971 1.433 . S
C979 N981 1.384 . S
N980 C976 1.427 . S
N980 C977 1.384 . S
N981 C973 1.427 . S
N981 C979 1.384 . S
H982 C988 0.930 . S
H983 C992 0.930 . S
H984 C997 0.929 . S
H985 C995 0.929 . S
H986 C990 0.929 . S
H987 C996 0.929 . S
C988 H982 0.930 . S
C988 C989 1.367 . S
C988 C996 1.378 . S
C989 C988 1.367 . S
C989 C997 1.433 . S
C990 H986 0.929 . S
C990 C992 1.378 . S
C990 C994 1.350 . S
C991 C994 1.463 . S
C991 C996 1.350 . S
C991 N999 1.427 . S
C992 H983 0.930 . S
C992 C990 1.378 . S
C992 C993 1.367 . S
C993 C992 1.367 . S
C993 C995 1.433 . S
C994 C990 1.350 . S
C994 C991 1.463 . S
C994 N998 1.427 . S
C995 H985 0.929 . S
C995 C993 1.433 . S
C995 N998 1.384 . S
C996 H987 0.929 . S
C996 C988 1.378 . S
C996 C991 1.350 . S
C997 H984 0.929 . S
C997 C989 1.433 . S
C997 N999 1.384 . S
N998 C994 1.427 . S
N998 C995 1.384 . S
N999 C991 1.427 . S
N999 C997 1.384 . S
H1000 C1006 0.930 . S
H1001 C1010 0.930 . S
H1002 C1015 0.929 . S
H1003 C1013 0.929 . S
H1004 C1008 0.929 . S
H1005 C1014 0.929 . S
C1006 H1000 0.930 . S
C1006 C1007 1.367 . S
C1006 C1014 1.378 . S
C1007 C1006 1.367 . S
C1007 C1015 1.433 . S
C1008 H1004 0.929 . S
C1008 C1010 1.378 . S
C1008 C1012 1.350 . S
C1009 C1012 1.463 1_554 S
C1009 C1014 1.350 . S
C1009 N1017 1.427 . S
C1010 H1001 0.930 . S
C1010 C1008 1.378 . S
C1010 C1011 1.367 . S
C1011 C1010 1.367 . S
C1011 C1013 1.433 . S
C1012 C1008 1.350 . S
C1012 C1009 1.463 1_556 S
C1012 N1016 1.427 . S
C1013 H1003 0.929 . S
C1013 C1011 1.433 . S
C1013 N1016 1.384 . S
C1014 H1005 0.929 . S
C1014 C1006 1.378 . S
C1014 C1009 1.350 . S
C1015 H1002 0.929 . S
C1015 C1007 1.433 . S
C1015 N1017 1.384 . S
N1016 C1012 1.427 . S
N1016 C1013 1.384 . S
N1017 C1009 1.427 . S
N1017 C1015 1.384 . S
H1018 C1024 0.930 . S
H1019 C1028 0.930 . S
H1020 C1033 0.929 . S
H1021 C1031 0.929 . S
H1022 C1026 0.929 . S
H1023 C1032 0.929 . S
C1024 H1018 0.930 . S
C1024 C1025 1.367 . S
C1024 C1032 1.378 . S
C1025 C1024 1.367 . S
C1025 C1033 1.433 . S
C1026 H1022 0.929 . S
C1026 C1028 1.378 . S
C1026 C1030 1.350 . S
C1027 C1030 1.463 1_556 S
C1027 C1032 1.350 . S
C1027 N1035 1.427 . S
C1028 H1019 0.930 . S
C1028 C1026 1.378 . S
C1028 C1029 1.367 . S
C1029 C1028 1.367 . S
C1029 C1031 1.433 . S
C1030 C1026 1.350 . S
C1030 C1027 1.463 1_554 S
C1030 N1034 1.427 . S
C1031 H1021 0.929 . S
C1031 C1029 1.433 . S
C1031 N1034 1.384 . S
C1032 H1023 0.929 . S
C1032 C1024 1.378 . S
C1032 C1027 1.350 . S
C1033 H1020 0.929 . S
C1033 C1025 1.433 . S
C1033 N1035 1.384 . S
N1034 C1030 1.427 . S
N1034 C1031 1.384 . S
N1035 C1027 1.427 . S
N1035 C1033 1.384 . S
H1036 C1042 0.930 . S
H1037 C1046 0.930 . S
H1038 C1051 0.929 . S
H1039 C1049 0.929 . S
H1040 C1044 0.929 . S
H1041 C1050 0.929 . S
C1042 H1036 0.930 . S
C1042 C1043 1.367 . S
C1042 C1050 1.378 . S
C1043 C1042 1.367 . S
C1043 C1051 1.433 . S
C1044 H1040 0.929 . S
C1044 C1046 1.378 . S
C1044 C1048 1.350 . S
C1045 C1048 1.463 . S
C1045 C1050 1.350 . S
C1045 N1053 1.427 . S
C1046 H1037 0.930 . S
C1046 C1044 1.378 . S
C1046 C1047 1.367 . S
C1047 C1046 1.367 . S
C1047 C1049 1.433 . S
C1048 C1044 1.350 . S
C1048 C1045 1.463 . S
C1048 N1052 1.427 . S
C1049 H1039 0.929 . S
C1049 C1047 1.433 . S
C1049 N1052 1.384 . S
C1050 H1041 0.929 . S
C1050 C1042 1.378 . S
C1050 C1045 1.350 . S
C1051 H1038 0.929 . S
C1051 C1043 1.433 . S
C1051 N1053 1.384 . S
N1052 C1048 1.427 . S
N1052 C1049 1.384 . S
N1053 C1045 1.427 . S
N1053 C1051 1.384 . S
H1054 C1060 0.930 . S
H1055 C1064 0.930 . S
H1056 C1069 0.929 . S
H1057 C1067 0.929 . S
H1058 C1062 0.929 . S
H1059 C1068 0.929 . S
C1060 H1054 0.930 . S
C1060 C1061 1.367 . S
C1060 C1068 1.378 . S
C1061 C1060 1.367 . S
C1061 C1069 1.433 . S
C1062 H1058 0.929 . S
C1062 C1064 1.378 . S
C1062 C1066 1.350 . S
C1063 C1066 1.463 . S
C1063 C1068 1.350 . S
C1063 N1071 1.427 . S
C1064 H1055 0.930 . S
C1064 C1062 1.378 . S
C1064 C1065 1.367 . S
C1065 C1064 1.367 . S
C1065 C1067 1.433 . S
C1066 C1062 1.350 . S
C1066 C1063 1.463 . S
C1066 N1070 1.427 . S
C1067 H1057 0.929 . S
C1067 C1065 1.433 . S
C1067 N1070 1.384 . S
C1068 H1059 0.929 . S
C1068 C1060 1.378 . S
C1068 C1063 1.350 . S
C1069 H1056 0.929 . S
C1069 C1061 1.433 . S
C1069 N1071 1.384 . S
N1070 C1066 1.427 . S
N1070 C1067 1.384 . S
N1071 C1063 1.427 . S
N1071 C1069 1.384 . S
H1072 C1078 0.930 . S
H1073 C1082 0.930 . S
H1074 C1087 0.929 . S
H1075 C1085 0.929 . S
H1076 C1080 0.929 . S
H1077 C1086 0.929 . S
C1078 H1072 0.930 . S
C1078 C1079 1.367 . S
C1078 C1086 1.378 . S
C1079 C1078 1.367 . S
C1079 C1087 1.433 1_565 S
C1080 H1076 0.929 . S
C1080 C1082 1.378 . S
C1080 C1084 1.350 . S
C1081 C1084 1.463 1_665 S
C1081 C1086 1.350 . S
C1081 N1089 1.427 1_565 S
C1082 H1073 0.930 . S
C1082 C1080 1.378 . S
C1082 C1083 1.367 . S
C1083 C1082 1.367 . S
C1083 C1085 1.433 1_545 S
C1084 C1080 1.350 . S
C1084 C1081 1.463 1_445 S
C1084 N1088 1.427 1_545 S
C1085 H1075 0.929 . S
C1085 C1083 1.433 1_565 S
C1085 N1088 1.384 . S
C1086 H1077 0.929 . S
C1086 C1078 1.378 . S
C1086 C1081 1.350 . S
C1087 H1074 0.929 . S
C1087 C1079 1.433 1_545 S
C1087 N1089 1.384 . S
N1088 C1084 1.427 1_565 S
N1088 C1085 1.384 . S
N1089 C1081 1.427 1_545 S
N1089 C1087 1.384 . S
H1090 C1096 0.930 . S
H1091 C1100 0.930 . S
H1092 C1105 0.929 . S
H1093 C1103 0.929 . S
H1094 C1098 0.929 . S
H1095 C1104 0.929 . S
C1096 H1090 0.930 . S
C1096 C1097 1.367 . S
C1096 C1104 1.378 . S
C1097 C1096 1.367 . S
C1097 C1105 1.433 1_545 S
C1098 H1094 0.929 . S
C1098 C1100 1.378 . S
C1098 C1102 1.350 . S
C1099 C1102 1.463 1_645 S
C1099 C1104 1.350 . S
C1099 N1107 1.427 1_545 S
C1100 H1091 0.930 . S
C1100 C1098 1.378 . S
C1100 C1101 1.367 . S
C1101 C1100 1.367 . S
C1101 C1103 1.433 1_565 S
C1102 C1098 1.350 . S
C1102 C1099 1.463 1_465 S
C1102 N1106 1.427 1_565 S
C1103 H1093 0.929 . S
C1103 C1101 1.433 1_545 S
C1103 N1106 1.384 . S
C1104 H1095 0.929 . S
C1104 C1096 1.378 . S
C1104 C1099 1.350 . S
C1105 H1092 0.929 . S
C1105 C1097 1.433 1_565 S
C1105 N1107 1.384 . S
N1106 C1102 1.427 1_545 S
N1106 C1103 1.384 . S
N1107 C1099 1.427 1_565 S
N1107 C1105 1.384 . S
H1108 C1114 0.930 . S
H1109 C1118 0.930 . S
H1110 C1123 0.929 . S
H1111 C1121 0.929 . S
H1112 C1116 0.929 . S
H1113 C1122 0.929 . S
C1114 H1108 0.930 . S
C1114 C1115 1.367 . S
C1114 C1122 1.378 . S
C1115 C1114 1.367 . S
C1115 C1123 1.433 1_545 S
C1116 H1112 0.929 . S
C1116 C1118 1.378 . S
C1116 C1120 1.350 . S
C1117 C1120 1.463 1_445 S
C1117 C1122 1.350 . S
C1117 N1125 1.427 1_545 S
C1118 H1109 0.930 . S
C1118 C1116 1.378 . S
C1118 C1119 1.367 . S
C1119 C1118 1.367 . S
C1119 C1121 1.433 1_565 S
C1120 C1116 1.350 . S
C1120 C1117 1.463 1_665 S
C1120 N1124 1.427 1_565 S
C1121 H1111 0.929 . S
C1121 C1119 1.433 1_545 S
C1121 N1124 1.384 . S
C1122 H1113 0.929 . S
C1122 C1114 1.378 . S
C1122 C1117 1.350 . S
C1123 H1110 0.929 . S
C1123 C1115 1.433 1_565 S
C1123 N1125 1.384 . S
N1124 C1120 1.427 1_545 S
N1124 C1121 1.384 . S
N1125 C1117 1.427 1_565 S
N1125 C1123 1.384 . S
H1126 C1132 0.930 . S
H1127 C1136 0.930 . S
H1128 C1141 0.929 . S
H1129 C1139 0.929 . S
H1130 C1134 0.929 . S
H1131 C1140 0.929 . S
C1132 H1126 0.930 . S
C1132 C1133 1.367 1_565 S
C1132 C1140 1.378 . S
C1133 C1132 1.367 1_545 S
C1133 C1141 1.433 . S
C1134 H1130 0.929 . S
C1134 C1136 1.378 . S
C1134 C1138 1.350 1_545 S
C1135 C1138 1.463 1_645 S
C1135 C1140 1.350 1_545 S
C1135 N1143 1.427 . S
C1136 H1127 0.930 . S
C1136 C1134 1.378 . S
C1136 C1137 1.367 1_545 S
C1137 C1136 1.367 1_565 S
C1137 C1139 1.433 . S
C1138 C1134 1.350 1_565 S
C1138 C1135 1.463 1_465 S
C1138 N1142 1.427 . S
C1139 H1129 0.929 . S
C1139 C1137 1.433 . S
C1139 N1142 1.384 . S
C1140 H1131 0.929 . S
C1140 C1132 1.378 . S
C1140 C1135 1.350 1_565 S
C1141 H1128 0.929 . S
C1141 C1133 1.433 . S
C1141 N1143 1.384 . S
N1142 C1138 1.427 . S
N1142 C1139 1.384 . S
N1143 C1135 1.427 . S
N1143 C1141 1.384 . S
H1144 C1150 0.930 . S
H1145 C1154 0.930 . S
H1146 C1159 0.929 . S
H1147 C1157 0.929 . S
H1148 C1152 0.929 . S
H1149 C1158 0.929 . S
C1150 H1144 0.930 . S
C1150 C1151 1.367 . S
C1150 C1158 1.378 . S
C1151 C1150 1.367 . S
C1151 C1159 1.433 . S
C1152 H1148 0.929 . S
C1152 C1154 1.378 . S
C1152 C1156 1.350 . S
C1153 C1156 1.463 . S
C1153 C1158 1.350 . S
C1153 N1161 1.427 . S
C1154 H1145 0.930 . S
C1154 C1152 1.378 . S
C1154 C1155 1.367 . S
C1155 C1154 1.367 . S
C1155 C1157 1.433 . S
C1156 C1152 1.350 . S
C1156 C1153 1.463 . S
C1156 N1160 1.427 . S
C1157 H1147 0.929 . S
C1157 C1155 1.433 . S
C1157 N1160 1.384 . S
C1158 H1149 0.929 . S
C1158 C1150 1.378 . S
C1158 C1153 1.350 . S
C1159 H1146 0.929 . S
C1159 C1151 1.433 . S
C1159 N1161 1.384 . S
N1160 C1156 1.427 . S
N1160 C1157 1.384 . S
N1161 C1153 1.427 . S
N1161 C1159 1.384 . S
H1162 C1168 0.930 . S
H1163 C1172 0.930 . S
H1164 C1177 0.929 . S
H1165 C1175 0.929 . S
H1166 C1170 0.929 . S
H1167 C1176 0.929 . S
C1168 H1162 0.930 . S
C1168 C1169 1.367 . S
C1168 C1176 1.378 . S
C1169 C1168 1.367 . S
C1169 C1177 1.433 . S
C1170 H1166 0.929 . S
C1170 C1172 1.378 . S
C1170 C1174 1.350 . S
C1171 C1174 1.463 . S
C1171 C1176 1.350 . S
C1171 N1179 1.427 . S
C1172 H1163 0.930 . S
C1172 C1170 1.378 . S
C1172 C1173 1.367 . S
C1173 C1172 1.367 . S
C1173 C1175 1.433 . S
C1174 C1170 1.350 . S
C1174 C1171 1.463 . S
C1174 N1178 1.427 . S
C1175 H1165 0.929 . S
C1175 C1173 1.433 . S
C1175 N1178 1.384 . S
C1176 H1167 0.929 . S
C1176 C1168 1.378 . S
C1176 C1171 1.350 . S
C1177 H1164 0.929 . S
C1177 C1169 1.433 . S
C1177 N1179 1.384 . S
N1178 C1174 1.427 . S
N1178 C1175 1.384 . S
N1179 C1171 1.427 . S
N1179 C1177 1.384 . S
H1180 C1186 0.930 . S
H1181 C1190 0.930 . S
H1182 C1195 0.929 . S
H1183 C1193 0.929 . S
H1184 C1188 0.929 . S
H1185 C1194 0.929 . S
C1186 H1180 0.930 . S
C1186 C1187 1.367 . S
C1186 C1194 1.378 . S
C1187 C1186 1.367 . S
C1187 C1195 1.433 . S
C1188 H1184 0.929 . S
C1188 C1190 1.378 . S
C1188 C1192 1.350 . S
C1189 C1192 1.463 . S
C1189 C1194 1.350 . S
C1189 N1197 1.427 . S
C1190 H1181 0.930 . S
C1190 C1188 1.378 . S
C1190 C1191 1.367 . S
C1191 C1190 1.367 . S
C1191 C1193 1.433 . S
C1192 C1188 1.350 . S
C1192 C1189 1.463 . S
C1192 N1196 1.427 . S
C1193 H1183 0.929 . S
C1193 C1191 1.433 . S
C1193 N1196 1.384 . S
C1194 H1185 0.929 . S
C1194 C1186 1.378 . S
C1194 C1189 1.350 . S
C1195 H1182 0.929 . S
C1195 C1187 1.433 . S
C1195 N1197 1.384 . S
N1196 C1192 1.427 . S
N1196 C1193 1.384 . S
N1197 C1189 1.427 . S
N1197 C1195 1.384 . S
H1198 C1204 0.930 . S
H1199 C1208 0.930 . S
H1200 C1213 0.929 . S
H1201 C1211 0.929 . S
H1202 C1206 0.929 . S
H1203 C1212 0.929 . S
C1204 H1198 0.930 . S
C1204 C1205 1.367 . S
C1204 C1212 1.378 . S
C1205 C1204 1.367 . S
C1205 C1213 1.433 . S
C1206 H1202 0.929 . S
C1206 C1208 1.378 . S
C1206 C1210 1.350 . S
C1207 C1210 1.463 . S
C1207 C1212 1.350 . S
C1207 N1215 1.427 . S
C1208 H1199 0.930 . S
C1208 C1206 1.378 . S
C1208 C1209 1.367 . S
C1209 C1208 1.367 . S
C1209 C1211 1.433 . S
C1210 C1206 1.350 . S
C1210 C1207 1.463 . S
C1210 N1214 1.427 . S
C1211 H1201 0.929 . S
C1211 C1209 1.433 . S
C1211 N1214 1.384 . S
C1212 H1203 0.929 . S
C1212 C1204 1.378 . S
C1212 C1207 1.350 . S
C1213 H1200 0.929 . S
C1213 C1205 1.433 . S
C1213 N1215 1.384 . S
N1214 C1210 1.427 . S
N1214 C1211 1.384 . S
N1215 C1207 1.427 . S
N1215 C1213 1.384 . S
H1216 C1222 0.930 . S
H1217 C1226 0.930 . S
H1218 C1231 0.929 . S
H1219 C1229 0.929 . S
H1220 C1224 0.929 . S
H1221 C1230 0.929 . S
C1222 H1216 0.930 . S
C1222 C1223 1.367 . S
C1222 C1230 1.378 . S
C1223 C1222 1.367 . S
C1223 C1231 1.433 . S
C1224 H1220 0.929 . S
C1224 C1226 1.378 . S
C1224 C1228 1.350 . S
C1225 C1228 1.463 . S
C1225 C1230 1.350 . S
C1225 N1233 1.427 . S
C1226 H1217 0.930 . S
C1226 C1224 1.378 . S
C1226 C1227 1.367 . S
C1227 C1226 1.367 . S
C1227 C1229 1.433 . S
C1228 C1224 1.350 . S
C1228 C1225 1.463 . S
C1228 N1232 1.427 . S
C1229 H1219 0.929 . S
C1229 C1227 1.433 . S
C1229 N1232 1.384 . S
C1230 H1221 0.929 . S
C1230 C1222 1.378 . S
C1230 C1225 1.350 . S
C1231 H1218 0.929 . S
C1231 C1223 1.433 . S
C1231 N1233 1.384 . S
N1232 C1228 1.427 . S
N1232 C1229 1.384 . S
N1233 C1225 1.427 . S
N1233 C1231 1.384 . S
H1234 C1240 0.930 . S
H1235 C1244 0.930 . S
H1236 C1249 0.929 . S
H1237 C1247 0.929 . S
H1238 C1242 0.929 . S
H1239 C1248 0.929 . S
C1240 H1234 0.930 . S
C1240 C1241 1.367 . S
C1240 C1248 1.378 . S
C1241 C1240 1.367 . S
C1241 C1249 1.433 . S
C1242 H1238 0.929 . S
C1242 C1244 1.378 . S
C1242 C1246 1.350 . S
C1243 C1246 1.463 . S
C1243 C1248 1.350 . S
C1243 N1251 1.427 . S
C1244 H1235 0.930 . S
C1244 C1242 1.378 . S
C1244 C1245 1.367 . S
C1245 C1244 1.367 . S
C1245 C1247 1.433 . S
C1246 C1242 1.350 . S
C1246 C1243 1.463 . S
C1246 N1250 1.427 . S
C1247 H1237 0.929 . S
C1247 C1245 1.433 . S
C1247 N1250 1.384 . S
C1248 H1239 0.929 . S
C1248 C1240 1.378 . S
C1248 C1243 1.350 . S
C1249 H1236 0.929 . S
C1249 C1241 1.433 . S
C1249 N1251 1.384 . S
N1250 C1246 1.427 . S
N1250 C1247 1.384 . S
N1251 C1243 1.427 . S
N1251 C1249 1.384 . S
H1252 C1258 0.930 . S
H1253 C1262 0.930 . S
H1254 C1267 0.929 . S
H1255 C1265 0.929 . S
H1256 C1260 0.929 . S
H1257 C1266 0.929 . S
C1258 H1252 0.930 . S
C1258 C1259 1.367 . S
C1258 C1266 1.378 . S
C1259 C1258 1.367 . S
C1259 C1267 1.433 . S
C1260 H1256 0.929 . S
C1260 C1262 1.378 . S
C1260 C1264 1.350 . S
C1261 C1264 1.463 . S
C1261 C1266 1.350 . S
C1261 N1269 1.427 . S
C1262 H1253 0.930 . S
C1262 C1260 1.378 . S
C1262 C1263 1.367 . S
C1263 C1262 1.367 . S
C1263 C1265 1.433 . S
C1264 C1260 1.350 . S
C1264 C1261 1.463 . S
C1264 N1268 1.427 . S
C1265 H1255 0.929 . S
C1265 C1263 1.433 . S
C1265 N1268 1.384 . S
C1266 H1257 0.929 . S
C1266 C1258 1.378 . S
C1266 C1261 1.350 . S
C1267 H1254 0.929 . S
C1267 C1259 1.433 . S
C1267 N1269 1.384 . S
N1268 C1264 1.427 . S
N1268 C1265 1.384 . S
N1269 C1261 1.427 . S
N1269 C1267 1.384 . S
H1270 C1276 0.930 . S
H1271 C1280 0.930 . S
H1272 C1285 0.929 . S
H1273 C1283 0.929 . S
H1274 C1278 0.929 . S
H1275 C1284 0.929 . S
C1276 H1270 0.930 . S
C1276 C1277 1.367 . S
C1276 C1284 1.378 . S
C1277 C1276 1.367 . S
C1277 C1285 1.433 . S
C1278 H1274 0.929 . S
C1278 C1280 1.378 . S
C1278 C1282 1.350 . S
C1279 C1282 1.463 . S
C1279 C1284 1.350 . S
C1279 N1287 1.427 . S
C1280 H1271 0.930 . S
C1280 C1278 1.378 . S
C1280 C1281 1.367 . S
C1281 C1280 1.367 . S
C1281 C1283 1.433 . S
C1282 C1278 1.350 . S
C1282 C1279 1.463 . S
C1282 N1286 1.427 . S
C1283 H1273 0.929 . S
C1283 C1281 1.433 . S
C1283 N1286 1.384 . S
C1284 H1275 0.929 . S
C1284 C1276 1.378 . S
C1284 C1279 1.350 . S
C1285 H1272 0.929 . S
C1285 C1277 1.433 . S
C1285 N1287 1.384 . S
N1286 C1282 1.427 . S
N1286 C1283 1.384 . S
N1287 C1279 1.427 . S
N1287 C1285 1.384 . S
H1288 C1294 0.930 . S
H1289 C1298 0.930 . S
H1290 C1303 0.929 . S
H1291 C1301 0.929 . S
H1292 C1296 0.929 . S
H1293 C1302 0.929 . S
C1294 H1288 0.930 . S
C1294 C1295 1.367 . S
C1294 C1302 1.378 . S
C1295 C1294 1.367 . S
C1295 C1303 1.433 . S
C1296 H1292 0.929 . S
C1296 C1298 1.378 . S
C1296 C1300 1.350 . S
C1297 C1300 1.463 . S
C1297 C1302 1.350 . S
C1297 N1305 1.427 . S
C1298 H1289 0.930 . S
C1298 C1296 1.378 . S
C1298 C1299 1.367 . S
C1299 C1298 1.367 . S
C1299 C1301 1.433 . S
C1300 C1296 1.350 . S
C1300 C1297 1.463 . S
C1300 N1304 1.427 . S
C1301 H1291 0.929 . S
C1301 C1299 1.433 . S
C1301 N1304 1.384 . S
C1302 H1293 0.929 . S
C1302 C1294 1.378 . S
C1302 C1297 1.350 . S
C1303 H1290 0.929 . S
C1303 C1295 1.433 . S
C1303 N1305 1.384 . S
N1304 C1300 1.427 . S
N1304 C1301 1.384 . S
N1305 C1297 1.427 . S
N1305 C1303 1.384 . S
H1306 C1312 0.930 . S
H1307 C1316 0.930 . S
H1308 C1321 0.929 . S
H1309 C1319 0.929 . S
H1310 C1314 0.929 . S
H1311 C1320 0.929 . S
C1312 H1306 0.930 . S
C1312 C1313 1.367 . S
C1312 C1320 1.378 . S
C1313 C1312 1.367 . S
C1313 C1321 1.433 . S
C1314 H1310 0.929 . S
C1314 C1316 1.378 . S
C1314 C1318 1.350 . S
C1315 C1318 1.463 . S
C1315 C1320 1.350 . S
C1315 N1323 1.427 . S
C1316 H1307 0.930 . S
C1316 C1314 1.378 . S
C1316 C1317 1.367 . S
C1317 C1316 1.367 . S
C1317 C1319 1.433 . S
C1318 C1314 1.350 . S
C1318 C1315 1.463 . S
C1318 N1322 1.427 . S
C1319 H1309 0.929 . S
C1319 C1317 1.433 . S
C1319 N1322 1.384 . S
C1320 H1311 0.929 . S
C1320 C1312 1.378 . S
C1320 C1315 1.350 . S
C1321 H1308 0.929 . S
C1321 C1313 1.433 . S
C1321 N1323 1.384 . S
N1322 C1318 1.427 . S
N1322 C1319 1.384 . S
N1323 C1315 1.427 . S
N1323 C1321 1.384 . S
H1324 C1330 0.930 . S
H1325 C1334 0.930 . S
H1326 C1339 0.929 . S
H1327 C1337 0.929 . S
H1328 C1332 0.929 . S
H1329 C1338 0.929 . S
C1330 H1324 0.930 . S
C1330 C1331 1.367 . S
C1330 C1338 1.378 . S
C1331 C1330 1.367 . S
C1331 C1339 1.433 . S
C1332 H1328 0.929 . S
C1332 C1334 1.378 . S
C1332 C1336 1.350 . S
C1333 C1336 1.463 . S
C1333 C1338 1.350 . S
C1333 N1341 1.427 . S
C1334 H1325 0.930 . S
C1334 C1332 1.378 . S
C1334 C1335 1.367 . S
C1335 C1334 1.367 . S
C1335 C1337 1.433 . S
C1336 C1332 1.350 . S
C1336 C1333 1.463 . S
C1336 N1340 1.427 . S
C1337 H1327 0.929 . S
C1337 C1335 1.433 . S
C1337 N1340 1.384 . S
C1338 H1329 0.929 . S
C1338 C1330 1.378 . S
C1338 C1333 1.350 . S
C1339 H1326 0.929 . S
C1339 C1331 1.433 . S
C1339 N1341 1.384 . S
N1340 C1336 1.427 . S
N1340 C1337 1.384 . S
N1341 C1333 1.427 . S
N1341 C1339 1.384 . S
H1342 C1348 0.930 . S
H1343 C1352 0.930 . S
H1344 C1357 0.929 . S
H1345 C1355 0.929 . S
H1346 C1350 0.929 . S
H1347 C1356 0.929 . S
C1348 H1342 0.930 . S
C1348 C1349 1.367 . S
C1348 C1356 1.378 . S
C1349 C1348 1.367 . S
C1349 C1357 1.433 . S
C1350 H1346 0.929 . S
C1350 C1352 1.378 . S
C1350 C1354 1.350 . S
C1351 C1354 1.463 . S
C1351 C1356 1.350 . S
C1351 N1359 1.427 . S
C1352 H1343 0.930 . S
C1352 C1350 1.378 . S
C1352 C1353 1.367 . S
C1353 C1352 1.367 . S
C1353 C1355 1.433 . S
C1354 C1350 1.350 . S
C1354 C1351 1.463 . S
C1354 N1358 1.427 . S
C1355 H1345 0.929 . S
C1355 C1353 1.433 . S
C1355 N1358 1.384 . S
C1356 H1347 0.929 . S
C1356 C1348 1.378 . S
C1356 C1351 1.350 . S
C1357 H1344 0.929 . S
C1357 C1349 1.433 . S
C1357 N1359 1.384 . S
N1358 C1354 1.427 . S
N1358 C1355 1.384 . S
N1359 C1351 1.427 . S
N1359 C1357 1.384 . S
H1360 C1366 0.930 . S
H1361 C1370 0.930 . S
H1362 C1375 0.929 . S
H1363 C1373 0.929 . S
H1364 C1368 0.929 . S
H1365 C1374 0.929 . S
C1366 H1360 0.930 . S
C1366 C1367 1.367 . S
C1366 C1374 1.378 1_565 S
C1367 C1366 1.367 . S
C1367 C1375 1.433 . S
C1368 H1364 0.929 . S
C1368 C1370 1.378 . S
C1368 C1372 1.350 . S
C1369 C1372 1.463 . S
C1369 C1374 1.350 . S
C1369 N1377 1.427 . S
C1370 H1361 0.930 . S
C1370 C1368 1.378 . S
C1370 C1371 1.367 . S
C1371 C1370 1.367 . S
C1371 C1373 1.433 . S
C1372 C1368 1.350 . S
C1372 C1369 1.463 . S
C1372 N1376 1.427 . S
C1373 H1363 0.929 . S
C1373 C1371 1.433 . S
C1373 N1376 1.384 . S
C1374 H1365 0.929 . S
C1374 C1366 1.378 1_545 S
C1374 C1369 1.350 . S
C1375 H1362 0.929 . S
C1375 C1367 1.433 . S
C1375 N1377 1.384 1_565 S
N1376 C1372 1.427 . S
N1376 C1373 1.384 . S
N1377 C1369 1.427 . S
N1377 C1375 1.384 1_545 S
H1378 C1384 0.930 . S
H1379 C1388 0.930 . S
H1380 C1393 0.929 . S
H1381 C1391 0.929 . S
H1382 C1386 0.929 . S
H1383 C1392 0.929 . S
C1384 H1378 0.930 . S
C1384 C1385 1.367 . S
C1384 C1392 1.378 . S
C1385 C1384 1.367 . S
C1385 C1393 1.433 . S
C1386 H1382 0.929 . S
C1386 C1388 1.378 1_565 S
C1386 C1390 1.350 . S
C1387 C1390 1.463 . S
C1387 C1392 1.350 . S
C1387 N1395 1.427 . S
C1388 H1379 0.930 . S
C1388 C1386 1.378 1_545 S
C1388 C1389 1.367 . S
C1389 C1388 1.367 . S
C1389 C1391 1.433 . S
C1390 C1386 1.350 . S
C1390 C1387 1.463 . S
C1390 N1394 1.427 . S
C1391 H1381 0.929 . S
C1391 C1389 1.433 . S
C1391 N1394 1.384 1_545 S
C1392 H1383 0.929 . S
C1392 C1384 1.378 . S
C1392 C1387 1.350 . S
C1393 H1380 0.929 . S
C1393 C1385 1.433 . S
C1393 N1395 1.384 . S
N1394 C1390 1.427 . S
N1394 C1391 1.384 1_565 S
N1395 C1387 1.427 . S
N1395 C1393 1.384 . S
H1396 C1402 0.930 . S
H1397 C1406 0.930 . S
H1398 C1411 0.929 . S
H1399 C1409 0.929 . S
H1400 C1404 0.929 . S
H1401 C1410 0.929 . S
C1402 H1396 0.930 . S
C1402 C1403 1.367 . S
C1402 C1410 1.378 1_545 S
C1403 C1402 1.367 . S
C1403 C1411 1.433 . S
C1404 H1400 0.929 . S
C1404 C1406 1.378 . S
C1404 C1408 1.350 . S
C1405 C1408 1.463 . S
C1405 C1410 1.350 . S
C1405 N1413 1.427 . S
C1406 H1397 0.930 . S
C1406 C1404 1.378 . S
C1406 C1407 1.367 . S
C1407 C1406 1.367 . S
C1407 C1409 1.433 . S
C1408 C1404 1.350 . S
C1408 C1405 1.463 . S
C1408 N1412 1.427 . S
C1409 H1399 0.929 . S
C1409 C1407 1.433 . S
C1409 N1412 1.384 . S
C1410 H1401 0.929 . S
C1410 C1402 1.378 1_565 S
C1410 C1405 1.350 . S
C1411 H1398 0.929 . S
C1411 C1403 1.433 . S
C1411 N1413 1.384 1_545 S
N1412 C1408 1.427 . S
N1412 C1409 1.384 . S
N1413 C1405 1.427 . S
N1413 C1411 1.384 1_565 S
H1414 C1420 0.930 . S
H1415 C1424 0.930 . S
H1416 C1429 0.929 . S
H1417 C1427 0.929 . S
H1418 C1422 0.929 . S
H1419 C1428 0.929 . S
C1420 H1414 0.930 . S
C1420 C1421 1.367 . S
C1420 C1428 1.378 1_565 S
C1421 C1420 1.367 . S
C1421 C1429 1.433 . S
C1422 H1418 0.929 . S
C1422 C1424 1.378 . S
C1422 C1426 1.350 . S
C1423 C1426 1.463 . S
C1423 C1428 1.350 . S
C1423 N1431 1.427 . S
C1424 H1415 0.930 . S
C1424 C1422 1.378 . S
C1424 C1425 1.367 . S
C1425 C1424 1.367 . S
C1425 C1427 1.433 . S
C1426 C1422 1.350 . S
C1426 C1423 1.463 . S
C1426 N1430 1.427 . S
C1427 H1417 0.929 . S
C1427 C1425 1.433 . S
C1427 N1430 1.384 . S
C1428 H1419 0.929 . S
C1428 C1420 1.378 1_545 S
C1428 C1423 1.350 . S
C1429 H1416 0.929 . S
C1429 C1421 1.433 . S
C1429 N1431 1.384 1_565 S
N1430 C1426 1.427 . S
N1430 C1427 1.384 . S
N1431 C1423 1.427 . S
N1431 C1429 1.384 1_545 S
H1432 C1438 0.930 . S
H1433 C1442 0.930 . S
H1434 C1447 0.929 . S
H1435 C1445 0.929 . S
H1436 C1440 0.929 . S
H1437 C1446 0.929 . S
C1438 H1432 0.930 . S
C1438 C1439 1.367 . S
C1438 C1446 1.378 . S
C1439 C1438 1.367 . S
C1439 C1447 1.433 . S
C1440 H1436 0.929 . S
C1440 C1442 1.378 1_565 S
C1440 C1444 1.350 . S
C1441 C1444 1.463 . S
C1441 C1446 1.350 . S
C1441 N1449 1.427 . S
C1442 H1433 0.930 . S
C1442 C1440 1.378 1_545 S
C1442 C1443 1.367 . S
C1443 C1442 1.367 . S
C1443 C1445 1.433 . S
C1444 C1440 1.350 . S
C1444 C1441 1.463 . S
C1444 N1448 1.427 . S
C1445 H1435 0.929 . S
C1445 C1443 1.433 . S
C1445 N1448 1.384 1_545 S
C1446 H1437 0.929 . S
C1446 C1438 1.378 . S
C1446 C1441 1.350 . S
C1447 H1434 0.929 . S
C1447 C1439 1.433 . S
C1447 N1449 1.384 . S
N1448 C1444 1.427 . S
N1448 C1445 1.384 1_565 S
N1449 C1441 1.427 . S
N1449 C1447 1.384 . S
H1450 C1456 0.930 . S
H1451 C1460 0.930 . S
H1452 C1465 0.929 . S
H1453 C1463 0.929 . S
H1454 C1458 0.929 . S
H1455 C1464 0.929 . S
C1456 H1450 0.930 . S
C1456 C1457 1.367 . S
C1456 C1464 1.378 . S
C1457 C1456 1.367 . S
C1457 C1465 1.433 . S
C1458 H1454 0.929 . S
C1458 C1460 1.378 1_545 S
C1458 C1462 1.350 . S
C1459 C1462 1.463 . S
C1459 C1464 1.350 . S
C1459 N1467 1.427 . S
C1460 H1451 0.930 . S
C1460 C1458 1.378 1_565 S
C1460 C1461 1.367 . S
C1461 C1460 1.367 . S
C1461 C1463 1.433 . S
C1462 C1458 1.350 . S
C1462 C1459 1.463 . S
C1462 N1466 1.427 . S
C1463 H1453 0.929 . S
C1463 C1461 1.433 . S
C1463 N1466 1.384 1_565 S
C1464 H1455 0.929 . S
C1464 C1456 1.378 . S
C1464 C1459 1.350 . S
C1465 H1452 0.929 . S
C1465 C1457 1.433 . S
C1465 N1467 1.384 . S
N1466 C1462 1.427 . S
N1466 C1463 1.384 1_545 S
N1467 C1459 1.427 . S
N1467 C1465 1.384 . S
H1468 C1474 0.930 . S
H1469 C1478 0.930 . S
H1470 C1483 0.929 . S
H1471 C1481 0.929 . S
H1472 C1476 0.929 . S
H1473 C1482 0.929 . S
C1474 H1468 0.930 . S
C1474 C1475 1.367 . S
C1474 C1482 1.378 1_565 S
C1475 C1474 1.367 . S
C1475 C1483 1.433 . S
C1476 H1472 0.929 . S
C1476 C1478 1.378 . S
C1476 C1480 1.350 . S
C1477 C1480 1.463 . S
C1477 C1482 1.350 . S
C1477 N1485 1.427 . S
C1478 H1469 0.930 . S
C1478 C1476 1.378 . S
C1478 C1479 1.367 . S
C1479 C1478 1.367 . S
C1479 C1481 1.433 . S
C1480 C1476 1.350 . S
C1480 C1477 1.463 . S
C1480 N1484 1.427 . S
C1481 H1471 0.929 . S
C1481 C1479 1.433 . S
C1481 N1484 1.384 . S
C1482 H1473 0.929 . S
C1482 C1474 1.378 1_545 S
C1482 C1477 1.350 . S
C1483 H1470 0.929 . S
C1483 C1475 1.433 . S
C1483 N1485 1.384 1_565 S
N1484 C1480 1.427 . S
N1484 C1481 1.384 . S
N1485 C1477 1.427 . S
N1485 C1483 1.384 1_545 S
H1486 C1492 0.930 . S
H1487 C1496 0.930 . S
H1488 C1501 0.929 . S
H1489 C1499 0.929 . S
H1490 C1494 0.929 . S
H1491 C1500 0.929 . S
C1492 H1486 0.930 . S
C1492 C1493 1.367 . S
C1492 C1500 1.378 . S
C1493 C1492 1.367 . S
C1493 C1501 1.433 . S
C1494 H1490 0.929 . S
C1494 C1496 1.378 1_565 S
C1494 C1498 1.350 . S
C1495 C1498 1.463 . S
C1495 C1500 1.350 . S
C1495 N1503 1.427 . S
C1496 H1487 0.930 . S
C1496 C1494 1.378 1_545 S
C1496 C1497 1.367 . S
C1497 C1496 1.367 . S
C1497 C1499 1.433 . S
C1498 C1494 1.350 . S
C1498 C1495 1.463 . S
C1498 N1502 1.427 . S
C1499 H1489 0.929 . S
C1499 C1497 1.433 . S
C1499 N1502 1.384 1_545 S
C1500 H1491 0.929 . S
C1500 C1492 1.378 . S
C1500 C1495 1.350 . S
C1501 H1488 0.929 . S
C1501 C1493 1.433 . S
C1501 N1503 1.384 . S
N1502 C1498 1.427 . S
N1502 C1499 1.384 1_565 S
N1503 C1495 1.427 . S
N1503 C1501 1.384 . S
C647 C24 1.547 . S
C651 C384 1.550 . S
C665 C64 1.549 . S
C669 C344 1.546 . S
C683 C464 1.550 . S
C687 C104 1.547 . S
C701 C144 1.547 . S
C705 C424 1.550 . S
C719 C533 1.547 . S
C723 C173 1.546 . S
C737 C493 1.545 . S
C741 C213 1.548 . S
C755 C613 1.550 . S
C759 C253 1.548 . S
C773 C293 1.546 . S
C777 C573 1.549 . S
C791 C103 1.678 . S
C795 C23 1.679 . S
C809 C143 1.679 . S
C813 C63 1.681 . S
C827 C242 1.678 . S
C831 C162 1.679 . S
C845 C202 1.680 . S
C849 C282 1.681 . S
C863 C423 1.679 . S
C867 C343 1.680 . S
C881 C463 1.681 . S
C885 C383 1.680 . S
C899 C482 1.679 . S
C903 C562 1.678 . S
C917 C522 1.681 . S
C921 C602 1.681 . S
C935 C223 1.564 . S
C939 C2 1.550 . S
C953 C183 1.551 . S
C957 C42 1.564 . S
C971 C82 1.553 . S
C975 C303 1.562 . S
C989 C263 1.564 . S
C993 C122 1.551 . S
C1007 C322 1.563 . S
C1011 C543 1.552 . S
C1025 C503 1.550 . S
C1029 C362 1.564 . S
C1043 C402 1.551 . S
C1047 C623 1.563 . S
C1061 C583 1.561 . S
C1065 C442 1.553 . S
C1079 C53 1.561 . S
C1083 C13 1.559 . S
C1097 C133 1.559 . S
C1101 C93 1.561 . S
C1115 C224 1.560 . S
C1119 C184 1.559 . S
C1133 C264 1.567 . S
C1137 C304 1.566 . S
C1151 C373 1.564 . S
C1155 C333 1.567 . S
C1169 C453 1.560 . S
C1173 C413 1.559 . S
C1187 C504 1.566 . S
C1191 C544 1.563 . S
C1205 C584 1.559 . S
C1209 C624 1.560 . S
C1223 C26 1.441 . S
C1227 C17 1.441 . S
C1241 C66 1.440 . S
C1245 C57 1.440 . S
C1259 C106 1.441 . S
C1263 C97 1.441 . S
C1277 C137 1.438 . S
C1281 C146 1.438 . S
C1295 C177 1.442 . S
C1299 C186 1.442 . S
C1313 C226 1.438 . S
C1317 C217 1.438 . S
C1331 C257 1.438 . S
C1335 C266 1.438 . S
C1349 C297 1.438 . S
C1353 C306 1.438 . S
C1367 C337 1.442 . S
C1371 C346 1.442 . S
C1385 C386 1.440 . S
C1389 C377 1.440 . S
C1403 C417 1.438 . S
C1407 C426 1.438 . S
C1421 C457 1.442 . S
C1425 C466 1.442 . S
C1439 C497 1.439 . S
C1443 C506 1.439 . S
C1457 C537 1.440 . S
C1461 C546 1.440 . S
C1475 C586 1.438 . S
C1479 C577 1.438 . S
C1493 C617 1.441 . S
C1497 C626 1.441 . S
