# Generated by pormake.
# Topology zfy, (5)-cn, num edge types: 1
# Building blocks:
#     Node 0, Type 0, BuildingBlock: XOMCOT_clean_sbu_1, # of connection points: 5
#     Node 1, Type 0, BuildingBlock: XOMCOT_clean_sbu_1, # of connection points: 5
#     Node 2, Type 0, BuildingBlock: XOMCOT_clean_sbu_1, # of connection points: 5
#     Node 3, Type 0, BuildingBlock: XOMCOT_clean_sbu_1, # of connection points: 5
#     Node 4, Type 0, BuildingBlock: XOMCOT_clean_sbu_1, # of connection points: 5
#     Node 5, Type 0, BuildingBlock: XOMCOT_clean_sbu_1, # of connection points: 5
#     Node 6, Type 0, BuildingBlock: XOMCOT_clean_sbu_1, # of connection points: 5
#     Node 7, Type 0, BuildingBlock: XOMCOT_clean_sbu_1, # of connection points: 5
#     Node 8, Type 0, BuildingBlock: XOMCOT_clean_sbu_1, # of connection points: 5
#     Node 9, Type 0, BuildingBlock: XOMCOT_clean_sbu_1, # of connection points: 5
#     Node 10, Type 0, BuildingBlock: XOMCOT_clean_sbu_1, # of connection points: 5
#     Node 11, Type 0, BuildingBlock: XOMCOT_clean_sbu_1, # of connection points: 5
#     Node 12, Type 0, BuildingBlock: XOMCOT_clean_sbu_1, # of connection points: 5
#     Node 13, Type 0, BuildingBlock: XOMCOT_clean_sbu_1, # of connection points: 5
#     Node 14, Type 0, BuildingBlock: XOMCOT_clean_sbu_1, # of connection points: 5
#     Node 15, Type 0, BuildingBlock: XOMCOT_clean_sbu_1, # of connection points: 5
#     Edge 16, Type (0, 0), BuildingBlock: CIFDUS_clean_linker_0, # of connection points: 2
#     Edge 17, Type (0, 0), BuildingBlock: CIFDUS_clean_linker_0, # of connection points: 2
#     Edge 18, Type (0, 0), BuildingBlock: CIFDUS_clean_linker_0, # of connection points: 2
#     Edge 19, Type (0, 0), BuildingBlock: CIFDUS_clean_linker_0, # of connection points: 2
#     Edge 20, Type (0, 0), BuildingBlock: CIFDUS_clean_linker_0, # of connection points: 2
#     Edge 21, Type (0, 0), BuildingBlock: CIFDUS_clean_linker_0, # of connection points: 2
#     Edge 22, Type (0, 0), BuildingBlock: CIFDUS_clean_linker_0, # of connection points: 2
#     Edge 23, Type (0, 0), BuildingBlock: CIFDUS_clean_linker_0, # of connection points: 2
#     Edge 24, Type (0, 0), BuildingBlock: CIFDUS_clean_linker_0, # of connection points: 2
#     Edge 25, Type (0, 0), BuildingBlock: CIFDUS_clean_linker_0, # of connection points: 2
#     Edge 26, Type (0, 0), BuildingBlock: CIFDUS_clean_linker_0, # of connection points: 2
#     Edge 27, Type (0, 0), BuildingBlock: CIFDUS_clean_linker_0, # of connection points: 2
#     Edge 28, Type (0, 0), BuildingBlock: CIFDUS_clean_linker_0, # of connection points: 2
#     Edge 29, Type (0, 0), BuildingBlock: CIFDUS_clean_linker_0, # of connection points: 2
#     Edge 30, Type (0, 0), BuildingBlock: CIFDUS_clean_linker_0, # of connection points: 2
#     Edge 31, Type (0, 0), BuildingBlock: CIFDUS_clean_linker_0, # of connection points: 2
#     Edge 32, Type (0, 0), BuildingBlock: CIFDUS_clean_linker_0, # of connection points: 2
#     Edge 33, Type (0, 0), BuildingBlock: CIFDUS_clean_linker_0, # of connection points: 2
#     Edge 34, Type (0, 0), BuildingBlock: CIFDUS_clean_linker_0, # of connection points: 2
#     Edge 35, Type (0, 0), BuildingBlock: CIFDUS_clean_linker_0, # of connection points: 2
#     Edge 36, Type (0, 0), BuildingBlock: CIFDUS_clean_linker_0, # of connection points: 2
#     Edge 37, Type (0, 0), BuildingBlock: CIFDUS_clean_linker_0, # of connection points: 2
#     Edge 38, Type (0, 0), BuildingBlock: CIFDUS_clean_linker_0, # of connection points: 2
#     Edge 39, Type (0, 0), BuildingBlock: CIFDUS_clean_linker_0, # of connection points: 2
#     Edge 40, Type (0, 0), BuildingBlock: CIFDUS_clean_linker_0, # of connection points: 2
#     Edge 41, Type (0, 0), BuildingBlock: CIFDUS_clean_linker_0, # of connection points: 2
#     Edge 42, Type (0, 0), BuildingBlock: CIFDUS_clean_linker_0, # of connection points: 2
#     Edge 43, Type (0, 0), BuildingBlock: CIFDUS_clean_linker_0, # of connection points: 2
#     Edge 44, Type (0, 0), BuildingBlock: CIFDUS_clean_linker_0, # of connection points: 2
#     Edge 45, Type (0, 0), BuildingBlock: CIFDUS_clean_linker_0, # of connection points: 2
#     Edge 46, Type (0, 0), BuildingBlock: CIFDUS_clean_linker_0, # of connection points: 2
#     Edge 47, Type (0, 0), BuildingBlock: CIFDUS_clean_linker_0, # of connection points: 2
#     Edge 48, Type (0, 0), BuildingBlock: CIFDUS_clean_linker_0, # of connection points: 2
#     Edge 49, Type (0, 0), BuildingBlock: CIFDUS_clean_linker_0, # of connection points: 2
#     Edge 50, Type (0, 0), BuildingBlock: CIFDUS_clean_linker_0, # of connection points: 2
#     Edge 51, Type (0, 0), BuildingBlock: CIFDUS_clean_linker_0, # of connection points: 2
#     Edge 52, Type (0, 0), BuildingBlock: CIFDUS_clean_linker_0, # of connection points: 2
#     Edge 53, Type (0, 0), BuildingBlock: CIFDUS_clean_linker_0, # of connection points: 2
#     Edge 54, Type (0, 0), BuildingBlock: CIFDUS_clean_linker_0, # of connection points: 2
#     Edge 55, Type (0, 0), BuildingBlock: CIFDUS_clean_linker_0, # of connection points: 2
# Relax obj value: 0.138
# Max RMSD: 0.188
# Mean RMSD: 0.188
data_MOF--net-zfy--node1-XOMCOT_clean_sbu_1--edge1-CIFDUS_clean_linker_0
_symmetry_space_group_name_H-M    P1
_symmetry_Int_Tables_number       1
_symmetry_cell_setting            triclinic
loop_
_symmetry_equiv_pos_as_xyz
'x, y, z'
_cell_length_a     44.979374
_cell_length_b     44.953286
_cell_length_c     28.121127
_cell_angle_alpha  89.985184
_cell_angle_beta   89.855286
_cell_angle_gamma 90.078351
loop_
_atom_site_label
_atom_site_type_symbol
_atom_site_fract_x
_atom_site_fract_y
_atom_site_fract_z
_atom_type_partial_charge
C0 C 0.27766 0.25788 0.06097 0.0
C1 C 0.26734 0.27173 0.1014 0.0
N2 N 0.28636 0.26609 0.13707 0.0
N3 N 0.30315 0.24322 0.07062 0.0
C4 C 0.30822 0.24942 0.11726 0.0
H5 H 0.26693 0.25844 0.02669 0.0
Co6 Co 0.32485 0.2199 1.02539 0.0
C7 C 0.33423 0.18254 0.11572 0.0
O8 O 0.30801 0.18752 0.13483 0.0
N9 N 0.34651 0.19671 0.98099 0.0
C10 C 0.36671 0.15633 0.9484 0.0
C11 C 0.34882 0.16677 0.98402 0.0
C12 C 0.36376 0.20396 0.94286 0.0
N13 N 0.37623 0.17959 0.92262 0.0
O14 O 0.35869 0.24651 0.03068 0.0
H15 H 0.33874 0.1531 1.01114 0.0
H16 H 0.36711 0.22647 0.93029 0.0
O17 O 0.34102 0.1942 0.07561 0.0
C18 C 0.3542 0.27164 1.01066 0.0
O19 O 0.32762 0.27733 0.99376 0.0
N20 N 0.29076 0.19559 1.0143 0.0
C21 C 0.24303 0.1636 0.9753 0.0
C22 C 0.25917 0.15224 1.0139 0.0
C23 C 0.28283 0.16865 0.03318 0.0
C24 C 0.27503 0.20693 0.97705 0.0
C25 C 0.25084 0.19164 0.95758 0.0
H26 H 0.29564 0.15842 0.06085 0.0
H27 H 0.28206 0.22769 0.96108 0.0
H28 H 0.32748 0.24176 0.13666 0.0
H29 H 0.24679 0.28408 0.10473 0.0
H30 H 0.3727 0.13333 0.94215 0.0
H31 H 0.25413 0.13039 0.02808 0.0
H32 H 0.23944 0.20093 0.92713 0.0
C33 C 0.51941 0.53436 0.3224 0.0
C34 C 0.51042 0.522 0.36463 0.0
N35 N 0.53241 0.52511 0.39672 0.0
N36 N 0.54704 0.54552 0.32704 0.0
C37 C 0.55447 0.53964 0.37301 0.0
H38 H 0.50659 0.53491 0.28997 0.0
Co39 Co 0.56649 0.56345 0.27474 0.0
C40 C 0.59093 0.60598 0.34625 0.0
O41 O 0.56558 0.62019 0.35063 0.0
N42 N 0.58513 0.58122 0.22143 0.0
C43 C 0.6007 0.58643 0.14682 0.0
C44 C 0.5898 0.56685 0.18002 0.0
C45 C 0.59314 0.60978 0.21228 0.0
N46 N 0.60263 0.61364 0.16675 0.0
O47 O 0.53747 0.59507 0.27464 0.0
H48 H 0.5849 0.54361 0.17393 0.0
H49 H 0.59088 0.62755 0.23798 0.0
O50 O 0.59314 0.58421 0.31742 0.0
C51 C 0.51942 0.59074 0.24031 0.0
O52 O 0.523 0.56677 0.21413 0.0
N53 N 0.5931 0.53133 0.27069 0.0
C54 C 0.62852 0.48727 0.22957 0.0
C55 C 0.64137 0.51304 0.24905 0.0
C56 C 0.62325 0.53491 0.2694 0.0
C57 C 0.58052 0.50529 0.25603 0.0
C58 C 0.59786 0.48286 0.23558 0.0
H59 H 0.63323 0.55586 0.27932 0.0
H60 H 0.55659 0.50306 0.2557 0.0
H61 H 0.57574 0.54533 0.38846 0.0
H62 H 0.48904 0.51171 0.37124 0.0
H63 H 0.60665 0.58086 0.11061 0.0
H64 H 0.66499 0.51726 0.2455 0.0
H65 H 0.58691 0.46355 0.22064 0.0
C66 C 0.23197 0.75977 0.57322 0.0
C67 C 0.24338 0.75224 0.6169 0.0
N68 N 0.24127 0.77598 0.64611 0.0
N69 N 0.2224 0.78811 0.57437 0.0
C70 C 0.22855 0.79751 0.61909 0.0
H71 H 0.23038 0.74527 0.54266 0.0
Co72 Co 0.20382 0.80744 0.52321 0.0
C73 C 0.16751 0.8574 0.56925 0.0
O74 O 0.16156 0.87076 0.52898 0.0
N75 N 0.18508 0.82595 0.47042 0.0
C76 C 0.17654 0.84821 0.40094 0.0
C77 C 0.19809 0.83765 0.43129 0.0
C78 C 0.15556 0.82839 0.4617 0.0
N79 N 0.14973 0.84268 0.42042 0.0
O80 O 0.17188 0.77847 0.52516 0.0
H81 H 0.22179 0.83889 0.4252 0.0
H82 H 0.13861 0.82096 0.48638 0.0
O83 O 0.18358 0.83388 0.57004 0.0
C84 C 0.17584 0.76044 0.49052 0.0
O85 O 0.1995 0.76417 0.46359 0.0
N86 N 0.2367 0.83322 0.51747 0.0
C87 C 0.28404 0.86607 0.48 0.0
C88 C 0.26042 0.88029 0.50354 0.0
C89 C 0.23692 0.86346 0.52217 0.0
C90 C 0.26063 0.81894 0.49829 0.0
C91 C 0.28461 0.83491 0.47954 0.0
H92 H 0.21828 0.87511 0.53699 0.0
H93 H 0.26001 0.79504 0.494 0.0
H94 H 0.22373 0.81976 0.63147 0.0
H95 H 0.25181 0.73053 0.62643 0.0
H96 H 0.18039 0.8603 0.3682 0.0
H97 H 0.25927 0.90434 0.50509 0.0
H98 H 0.30219 0.82298 0.46136 0.0
C99 C 0.01581 0.49721 0.80115 0.0
C100 C 0.02326 0.5071 0.84593 0.0
N101 N 1.00422 0.49504 0.87771 0.0
N102 N 0.99215 0.47892 0.80419 0.0
C103 C 0.98558 0.478 0.85128 0.0
H104 H 0.02671 0.50331 0.76823 0.0
Co105 Co 0.97398 0.46096 0.75131 0.0
C106 C 0.91419 0.44263 0.78575 0.0
O107 O 0.90313 0.45263 0.7456 0.0
N108 N 0.95639 0.4421 0.69762 0.0
C109 C 0.94071 0.42819 0.62567 0.0
C110 C 0.95377 0.4507 0.65172 0.0
C111 C 0.94567 0.41392 0.69784 0.0
N112 N 0.93541 0.40512 0.65497 0.0
O113 O 0.99875 0.42618 0.75856 0.0
H114 H 0.96097 0.47175 0.63735 0.0
H115 H 0.94532 0.40002 0.72927 0.0
O116 O 0.94228 0.44423 0.79315 0.0
C117 C 0.02018 0.4295 0.72903 0.0
O118 O 0.02174 0.45437 0.70464 0.0
N119 N 0.953 0.49688 0.74019 0.0
C120 C 0.92886 0.55102 0.71004 0.0
C121 C 0.9169 0.53598 0.74947 0.0
C122 C 0.93008 0.50942 0.7652 0.0
C123 C 0.96633 0.51267 0.70464 0.0
C124 C 0.95451 0.53953 0.68864 0.0
H125 H 0.92174 0.49918 0.79726 0.0
H126 H 0.98619 0.50402 0.68796 0.0
H127 H 0.96752 0.46501 0.86598 0.0
H128 H 0.04094 0.5226 0.8541 0.0
H129 H 0.93486 0.42907 0.58839 0.0
H130 H 0.89777 0.54481 0.76816 0.0
H131 H 0.96487 0.55075 0.65877 0.0
C132 C 0.74085 0.76214 0.99111 0.0
C133 C 0.75087 0.7544 0.94649 0.0
N134 N 0.74341 0.77613 0.91568 0.0
N135 N 0.727 0.78865 0.98891 0.0
C136 C 0.72906 0.7967 0.94253 0.0
H137 H 0.74317 0.74901 1.0231 0.0
Co138 Co 0.7085 0.80755 0.04084 0.0
C139 C 0.67122 0.85743 0.99831 0.0
O140 O 0.6707 0.87232 0.0384 0.0
N141 N 0.68957 0.82566 0.09351 0.0
C142 C 0.67793 0.84976 0.16021 0.0
C143 C 0.70095 0.83943 0.13207 0.0
C144 C 0.65978 0.82684 0.10016 0.0
N145 N 0.65204 0.84209 0.13957 0.0
O146 O 0.67812 0.77667 0.04241 0.0
H147 H 0.7244 0.84266 0.13868 0.0
H148 H 0.64392 0.8183 0.07468 0.0
O149 O 0.68549 0.83277 0.99518 0.0
C150 C 0.68495 0.75999 0.07768 0.0
O151 O 0.70994 0.76551 0.10018 0.0
N152 N 0.74052 0.8348 0.04418 0.0
C153 C 0.79133 0.86795 0.06855 0.0
C154 C 0.76717 0.88124 0.04484 0.0
C155 C 0.74217 0.86423 0.03242 0.0
C156 C 0.76411 0.82131 0.06548 0.0
C157 C 0.7897 0.83724 0.07741 0.0
H158 H 0.72426 0.87524 1.01456 0.0
H159 H 0.76271 0.79797 0.07451 0.0
H160 H 0.72025 0.81733 0.9287 0.0
H161 H 0.76205 0.73387 0.93742 0.0
H162 H 0.68008 0.86343 0.19171 0.0
H163 H 0.76697 0.90482 0.03713 0.0
H164 H 0.80786 0.82541 0.09401 0.0
C165 C 0.50524 0.50844 0.75021 0.0
C166 C 0.51972 0.52055 0.71157 0.0
N167 N 0.52019 0.50034 0.67616 0.0
N168 N 0.49604 0.48067 0.73957 0.0
C169 C 0.50647 0.47604 0.69478 0.0
H170 H 0.50086 0.51977 0.78334 0.0
Co171 Co 0.47148 0.45575 0.77789 0.0
C172 C 0.44151 0.44926 0.68062 0.0
O173 O 0.44591 0.47684 0.66672 0.0
N174 N 0.44662 0.43063 0.81525 0.0
C175 C 0.40489 0.40757 0.83713 0.0
C176 C 0.41773 0.42599 0.80425 0.0
C177 C 0.45076 0.41439 0.8556 0.0
N178 N 0.42556 0.40013 0.86931 0.0
O179 O 0.50083 0.42462 0.77334 0.0
H180 H 0.40628 0.43573 0.77434 0.0
H181 H 0.47144 0.41355 0.87511 0.0
O182 O 0.4508 0.44058 0.72129 0.0
C183 C 0.51844 0.42828 0.80846 0.0
O184 O 0.51365 0.45098 0.83689 0.0
N185 N 0.44454 0.48754 0.78887 0.0
C186 C 0.41086 0.53515 0.82519 0.0
C187 C 0.40299 0.52101 0.78229 0.0
C188 C 0.41984 0.49701 0.76506 0.0
C189 C 0.45212 0.50068 0.83082 0.0
C190 C 0.43582 0.52439 0.84947 0.0
H191 H 0.41212 0.48579 0.73375 0.0
H192 H 0.47109 0.49244 0.85032 0.0
H193 H 0.50305 0.45551 0.67551 0.0
H194 H 0.52781 0.54318 0.70913 0.0
H195 H 0.38189 0.40043 0.83786 0.0
H196 H 0.38381 0.52821 0.76219 0.0
H197 H 0.44244 0.53363 0.88338 0.0
C198 C 0.77102 0.25547 0.48865 0.0
C199 C 0.76243 0.26376 0.44357 0.0
N200 N 0.77938 0.24912 0.41158 0.0
N201 N 0.79326 0.23555 0.4856 0.0
C202 C 0.79797 0.2322 0.43824 0.0
H203 H 0.76199 0.26388 0.52167 0.0
Co204 Co 0.8132 0.21938 0.53823 0.0
C205 C 0.83829 0.1619 0.50356 0.0
O206 O 0.83149 0.14941 0.54444 0.0
N207 N 0.83406 0.20388 0.59164 0.0
C208 C 0.84904 0.18882 0.66329 0.0
C209 C 0.82522 0.19876 0.63689 0.0
C210 C 0.86352 0.19761 0.59209 0.0
N211 N 0.87318 0.18796 0.63492 0.0
O212 O 0.84556 0.24696 0.52843 0.0
H213 H 0.80304 0.20207 0.65052 0.0
H214 H 0.87765 0.20009 0.56114 0.0
O215 O 0.83204 0.18935 0.49652 0.0
C216 C 0.84153 0.26789 0.5585 0.0
O217 O 0.81729 0.26716 0.58467 0.0
N218 N 0.77939 0.19538 0.55156 0.0
C219 C 0.72759 0.16808 0.58579 0.0
C220 C 0.74421 0.15494 0.54905 0.0
C221 C 0.76959 0.16953 0.53119 0.0
C222 C 0.76226 0.20917 0.58499 0.0
C223 C 0.73645 0.19593 0.60275 0.0
H224 H 0.78098 0.15995 0.50114 0.0
H225 H 0.76917 0.23049 0.59894 0.0
H226 H 0.81484 0.21773 0.4236 0.0
H227 H 0.74552 0.28003 0.4353 0.0
H228 H 0.84839 0.18207 0.70023 0.0
H229 H 0.73743 0.13383 0.53399 0.0
H230 H 0.72399 0.20701 0.63059 0.0
C231 C 1.01354 0.52972 0.22938 0.0
C232 C 1.00638 0.51995 0.18445 0.0
N233 N 0.02543 0.53231 0.153 0.0
N234 N 0.03704 0.54822 0.22681 0.0
C235 C 0.04385 0.54938 0.17981 0.0
H236 H 1.00249 0.52346 0.2621 0.0
Co237 Co 0.05425 0.56616 0.28044 0.0
C238 C 0.11335 0.58764 0.24827 0.0
O239 O 0.12446 0.57763 0.28839 0.0
N240 N 0.07087 0.58496 0.33527 0.0
C241 C 0.08573 0.59776 0.40819 0.0
C242 C 0.07393 0.57532 0.38057 0.0
C243 C 0.08016 0.61366 0.337 0.0
N244 N 0.08985 0.62185 0.38057 0.0
O245 O 0.02821 0.60001 0.27353 0.0
H246 H 0.06784 0.55357 0.39351 0.0
H247 H 0.07988 0.62834 0.3065 0.0
O248 O 0.08548 0.58458 0.23998 0.0
C249 C 1.00766 0.5958 0.30433 0.0
O250 O 1.00796 0.57087 0.32875 0.0
N251 N 0.07634 0.53096 0.29075 0.0
C252 C 0.10145 0.477 0.31957 0.0
C253 C 0.11366 0.49309 0.28133 0.0
C254 C 0.10009 0.5196 0.26631 0.0
C255 C 0.06282 0.51416 0.32486 0.0
C256 C 0.07513 0.48743 0.34028 0.0
H257 H 0.10877 0.53074 0.23525 0.0
H258 H 0.04247 0.52198 0.34108 0.0
H259 H 0.06186 0.5626 0.16546 0.0
H260 H 0.98883 0.50437 0.17594 0.0
H261 H 0.0915 0.59617 0.44545 0.0
H262 H 0.13337 0.48516 0.26314 0.0
H263 H 0.06461 0.47559 0.36936 0.0
C264 C 0.78787 0.76906 0.56649 0.0
C265 C 0.77877 0.77731 0.61134 0.0
N266 N 0.78752 0.75632 0.6426 0.0
N267 N 0.80246 0.74298 0.56895 0.0
C268 C 0.80185 0.7357 0.61575 0.0
H269 H 0.78421 0.7814 0.53403 0.0
Co270 Co 0.81888 0.72384 0.51573 0.0
C271 C 0.83796 0.66461 0.55032 0.0
O272 O 0.82668 0.65299 0.51146 0.0
N273 N 0.8362 0.70522 0.46137 0.0
C274 C 0.84783 0.6888 0.38876 0.0
C275 C 0.82592 0.70142 0.41662 0.0
C276 C 0.86462 0.69536 0.45917 0.0
N277 N 0.87216 0.68486 0.41576 0.0
O278 O 0.85383 0.74873 0.52 0.0
H279 H 0.80415 0.70768 0.4042 0.0
H280 H 0.87968 0.69605 0.48912 0.0
O281 O 0.83649 0.69276 0.55728 0.0
C282 C 0.84992 0.76845 0.48779 0.0
O283 O 0.82489 0.76792 0.46381 0.0
N284 N 0.78262 0.70316 0.50771 0.0
C285 C 0.72615 0.68223 0.48325 0.0
C286 C 0.74225 0.66877 0.52014 0.0
C287 C 0.77014 0.68034 0.5331 0.0
C288 C 0.76622 0.71752 0.47414 0.0
C289 C 0.73818 0.70733 0.46102 0.0
H290 H 0.78125 0.6711 0.56365 0.0
H291 H 0.77516 0.7371 0.45699 0.0
H292 H 0.81148 0.71552 0.62981 0.0
H293 H 0.76707 0.7976 0.62011 0.0
H294 H 0.84578 0.68248 0.35178 0.0
H295 H 0.73309 0.64998 0.53935 0.0
H296 H 0.72622 0.71873 0.43304 0.0
C297 C 1.01276 0.04098 0.80377 0.0
C298 C 1.00049 0.02994 0.84491 0.0
N299 N 0.01742 0.03855 0.88195 0.0
N300 N 0.03743 0.0566 0.81423 0.0
C301 C 0.03987 0.05466 0.86226 0.0
H302 H 1.00425 0.03778 0.7682 0.0
Co303 Co 0.05975 0.07525 0.76634 0.0
C304 C 0.11666 0.09243 0.81169 0.0
O305 O 0.13068 0.08144 0.77461 0.0
N306 N 0.08152 0.09468 0.71682 0.0
C307 C 0.10019 0.10865 0.64664 0.0
C308 C 0.08693 0.08586 0.67162 0.0
C309 C 0.09146 0.12319 0.71788 0.0
N310 N 0.10305 0.13217 0.67579 0.0
O311 O 0.03463 0.11007 0.77132 0.0
H312 H 0.08098 0.06464 0.65656 0.0
H313 H 0.08948 0.13741 0.74878 0.0
O314 O 0.0882 0.09111 0.81384 0.0
C315 C 0.01658 0.10824 0.73632 0.0
O316 O 0.01896 0.08528 0.70768 0.0
N317 N 0.08049 0.03912 0.75703 0.0
C318 C 0.09832 0.98184 0.72956 0.0
C319 C 0.11121 0.99583 0.76932 0.0
C320 C 0.1013 0.02429 0.78341 0.0
C321 C 0.06691 0.025 0.7202 0.0
C322 C 0.07579 0.99696 0.7053 0.0
H323 H 0.10984 0.0338 0.81587 0.0
H324 H 0.04872 0.03574 0.70203 0.0
H325 H 0.05743 0.06517 0.88243 0.0
H326 H 0.98073 0.01624 0.84716 0.0
H327 H 0.10728 0.10788 0.60985 0.0
H328 H 0.12804 0.98456 0.79004 0.0
H329 H 0.065 0.98728 0.67457 0.0
C330 C 0.75828 0.27114 0.05825 0.0
C331 C 0.76653 0.26222 0.1032 0.0
N332 N 0.75019 0.27735 0.13538 0.0
N333 N 0.73687 0.29195 0.06161 0.0
C334 C 0.73232 0.29518 0.10903 0.0
H335 H 0.76707 0.26267 1.02509 0.0
Co336 Co 0.71802 0.3099 1.00934 0.0
C337 C 0.6945 0.36731 0.04756 0.0
O338 O 0.70195 0.381 1.00796 0.0
N339 N 0.69831 0.32727 0.95631 0.0
C340 C 0.68483 0.34334 0.88443 0.0
C341 C 0.7077 0.33165 0.91114 0.0
C342 C 0.6694 0.33572 0.95551 0.0
N343 N 0.66074 0.34607 0.91255 0.0
O344 O 0.68465 0.28339 1.01674 0.0
H345 H 0.72959 0.32651 0.89776 0.0
H346 H 0.65488 0.33425 0.98617 0.0
O347 O 0.69985 0.3395 0.05229 0.0
C348 C 0.68858 0.26281 0.98604 0.0
O349 O 0.71337 0.26312 0.96118 0.0
N350 N 0.75273 0.33286 0.99806 0.0
C351 C 0.80528 0.35899 0.96473 0.0
C352 C 0.7889 0.37234 1.00155 0.0
C353 C 0.7631 0.35831 1.01898 0.0
C354 C 0.76967 0.31876 0.96474 0.0
C355 C 0.79586 0.33141 0.94744 0.0
H356 H 0.7518 0.36804 0.04898 0.0
H357 H 0.76224 0.29775 0.95032 0.0
H358 H 0.71618 0.31034 0.12401 0.0
H359 H 0.78283 0.2453 0.1113 0.0
H360 H 0.68609 0.34994 0.84746 0.0
H361 H 0.79607 0.39327 1.01679 0.0
H362 H 0.80806 0.3202 0.91944 0.0
C363 C 0.51389 0.97855 0.323 0.0
C364 C 0.52208 0.98845 0.36732 0.0
N365 N 0.49805 0.98778 0.39613 0.0
N366 N 0.48485 0.97132 0.32341 0.0
C367 C 0.4757 0.97725 0.36838 0.0
H368 H 0.52826 0.97676 0.29225 0.0
Co369 Co 0.46462 0.9577 0.26957 0.0
C370 C 0.40893 0.92868 0.30421 0.0
O371 O 0.39534 0.93645 0.26483 0.0
N372 N 0.44501 0.94388 0.21341 0.0
C373 C 0.42301 0.94236 0.14264 0.0
C374 C 0.43409 0.96054 0.17755 0.0
C375 C 0.44061 0.9154 0.19862 0.0
N376 N 0.42713 0.91377 0.15552 0.0
O377 O 0.49045 0.92354 0.26746 0.0
H378 H 0.43401 0.98449 0.17612 0.0
H379 H 0.4473 0.89628 0.2193 0.0
O380 O 0.43615 0.93602 0.31069 0.0
C381 C 0.50923 0.92585 0.23355 0.0
O382 O 0.5078 0.94918 0.20548 0.0
N383 N 0.44216 0.99324 0.26962 0.0
C384 C 0.41494 0.04801 0.25068 0.0
C385 C 0.40088 0.02656 0.2795 0.0
C386 C 0.41519 0.99963 0.28956 0.0
C387 C 0.45729 1.01481 0.24555 0.0
C388 C 0.44417 0.04223 0.23562 0.0
H389 H 0.40416 0.98425 0.31294 0.0
H390 H 0.47929 1.01005 0.23193 0.0
H391 H 0.45297 0.97433 0.38016 0.0
H392 H 0.54428 0.99518 0.37745 0.0
H393 H 0.41232 0.95 0.11051 0.0
H394 H 0.37863 0.02997 0.29311 0.0
H395 H 0.45673 0.05843 0.21535 0.0
C396 C 0.24913 0.26893 0.49368 0.0
C397 C 0.26056 0.25684 0.45278 0.0
N398 N 0.25231 0.27374 0.41533 0.0
N399 N 0.2336 0.29354 0.48303 0.0
C400 C 0.23595 0.29609 0.43495 0.0
H401 H 0.25261 0.26073 0.52939 0.0
Co402 Co 0.21747 0.31699 0.53201 0.0
C403 C 0.19493 0.3716 0.48687 0.0
O404 O 0.20603 0.38649 0.52282 0.0
N405 N 0.20092 0.34038 0.58377 0.0
C406 C 0.19599 0.36971 0.64739 0.0
C407 C 0.21541 0.35848 0.6145 0.0
C408 C 0.17216 0.34158 0.59929 0.0
N409 N 0.16869 0.35894 0.63843 0.0
O410 O 0.18339 0.29084 0.53501 0.0
H411 H 0.23855 0.36445 0.61321 0.0
H412 H 0.15411 0.32962 0.58259 0.0
O413 O 0.19786 0.34326 0.48499 0.0
C414 C 0.18655 0.27354 0.57076 0.0
O415 O 0.21018 0.277 0.59762 0.0
N416 N 0.25317 0.33909 0.53204 0.0
C417 C 0.30754 0.36771 0.54819 0.0
C418 C 0.29045 0.37427 0.50758 0.0
C419 C 0.26356 0.35924 0.49962 0.0
C420 C 0.27129 0.32965 0.56773 0.0
C421 C 0.29798 0.3442 0.57742 0.0
H422 H 0.25127 0.36396 0.46761 0.0
H423 H 0.26378 0.31206 0.59114 0.0
H424 H 0.22619 0.31415 0.41497 0.0
H425 H 0.27469 0.23743 0.45142 0.0
H426 H 0.20163 0.38536 0.67519 0.0
H427 H 0.29764 0.39095 0.48226 0.0
H428 H 0.31009 0.33783 0.60899 0.0
C429 C 1.01432 1.00097 0.23687 0.0
C430 C 0.02682 1.01165 0.19569 0.0
N431 N 1.01119 1.00106 0.15866 0.0
N432 N 0.9903 0.98411 0.22676 0.0
C433 C 0.9895 0.984 0.17834 0.0
H434 H 0.02278 1.00471 0.27233 0.0
Co435 Co 0.97077 0.96322 0.27687 0.0
C436 C 0.92558 0.9519 0.20065 0.0
O437 O 0.92396 0.98049 0.19117 0.0
N438 N 0.95331 0.94224 0.32757 0.0
C439 C 0.93896 0.92928 0.40044 0.0
C440 C 0.95075 0.95177 0.37288 0.0
C441 C 0.94331 0.91389 0.32852 0.0
N442 N 0.93427 0.90542 0.37244 0.0
O443 O 1.00008 0.93211 0.2714 0.0
H444 H 0.95726 0.97364 0.38508 0.0
H445 H 0.94346 0.89945 0.29778 0.0
O446 O 0.94378 0.94259 0.23233 0.0
C447 C 0.01842 0.93438 0.30582 0.0
O448 O 0.01558 0.95691 0.33525 0.0
N449 N 0.94315 0.9948 0.28707 0.0
C450 C 0.90708 0.03757 0.33149 0.0
C451 C 0.89512 1.01046 0.31572 0.0
C452 C 0.91351 0.98932 0.29404 0.0
C453 C 0.95475 0.02167 0.30019 0.0
C454 C 0.93709 0.04345 0.32177 0.0
H455 H 0.90434 0.96757 0.28675 0.0
H456 H 0.9783 0.0256 0.29814 0.0
H457 H 0.97466 0.97043 0.15745 0.0
H458 H 0.04611 0.026 0.19326 0.0
H459 H 0.9338 0.9306 0.43799 0.0
H460 H 0.87207 1.00487 0.3226 0.0
H461 H 0.94751 0.06369 0.33433 0.0
C462 C 0.28432 0.75807 0.99391 0.0
C463 C 0.27468 0.76756 0.95009 0.0
N464 N 0.28915 0.75205 0.91624 0.0
N465 N 0.30411 0.73577 0.98866 0.0
C466 C 0.30751 0.73369 0.94074 0.0
H467 H 0.27768 0.76756 0.0276 0.0
Co468 Co 0.32446 0.71708 0.04029 0.0
C469 C 0.33332 0.66999 0.96636 0.0
O470 O 0.30443 0.66933 0.95941 0.0
N471 N 0.34506 0.70023 0.09139 0.0
C472 C 0.35899 0.6878 0.16457 0.0
C473 C 0.33719 0.70124 0.13766 0.0
C474 C 0.3717 0.68638 0.091 0.0
N475 N 0.38066 0.67838 0.13504 0.0
O476 O 0.35613 0.74575 0.03404 0.0
H477 H 0.31692 0.7112 0.1509 0.0
H478 H 0.3846 0.6827 0.05903 0.0
O479 O 0.34428 0.68864 0.99616 0.0
C480 C 0.35122 0.76625 0.06455 0.0
O481 O 0.32647 0.76516 0.08937 0.0
N482 N 0.29223 0.69028 0.05225 0.0
C483 C 0.24726 0.65524 0.09374 0.0
C484 C 0.27451 0.64264 0.07995 0.0
C485 C 0.29679 0.66056 0.06005 0.0
C486 C 0.26567 0.70267 0.06502 0.0
C487 C 0.24281 0.68557 0.08489 0.0
H488 H 0.31837 0.65079 0.05373 0.0
H489 H 0.26269 0.72634 0.06381 0.0
H490 H 0.32407 0.71997 0.92385 0.0
H491 H 0.25823 0.78465 0.94408 0.0
H492 H 0.35862 0.68471 0.20273 0.0
H493 H 0.27915 0.61937 0.08649 0.0
H494 H 0.22267 0.69657 0.09655 0.0
C495 C 0.5169 0.02864 0.74339 0.0
C496 C 0.5088 0.01862 0.69915 0.0
N497 N 0.52254 0.03543 0.66597 0.0
N498 N 0.53583 0.05171 0.73878 0.0
C499 C 0.53885 0.05541 0.69115 0.0
H500 H 0.50967 0.01942 0.77701 0.0
Co501 Co 0.55309 0.07137 0.791 0.0
C502 C 0.61493 0.08368 0.75884 0.0
O503 O 0.62445 0.07354 0.7999 0.0
N504 N 0.56965 0.09181 0.84404 0.0
C505 C 0.58032 0.10901 0.91656 0.0
C506 C 0.56674 0.0866 0.89123 0.0
C507 C 0.58411 0.11827 0.8421 0.0
N508 N 0.59141 0.1289 0.88553 0.0
O509 O 0.53127 0.10738 0.77712 0.0
H510 H 0.55491 0.0683 0.90718 0.0
H511 H 0.58868 0.12994 0.80924 0.0
O512 O 0.58695 0.08421 0.75022 0.0
C513 C 0.50389 0.10559 0.78904 0.0
O514 O 0.49319 0.07951 0.80134 0.0
N515 N 0.57159 0.03485 0.80839 0.0
C516 C 0.58981 0.97928 0.84403 0.0
C517 C 0.60264 0.99123 0.80242 0.0
C518 C 0.5927 0.01876 0.78452 0.0
C519 C 0.55735 0.02233 0.84617 0.0
C520 C 0.5666 0.99535 0.86541 0.0
H521 H 0.60162 0.02667 0.75115 0.0
H522 H 0.53801 0.03315 0.86099 0.0
H523 H 0.55272 0.07244 0.67537 0.0
H524 H 0.49446 0.99978 0.69225 0.0
H525 H 0.58212 0.11033 0.95487 0.0
H526 H 0.61968 0.97918 0.78322 0.0
H527 H 0.55548 0.98738 0.89711 0.0
H528 H 0.44678 0.11607 0.76614 0.0
H529 H 0.52038 0.15261 0.8444 0.0
H530 H 0.48629 0.18471 0.88914 0.0
H531 H 0.43439 0.19382 0.9172 0.0
H532 H 0.36151 0.15603 0.83912 0.0
H533 H 0.3961 0.13367 0.78229 0.0
C534 C 0.45544 0.13204 0.79153 0.0
C535 C 0.486 0.13204 0.80189 0.0
C536 C 0.43562 0.14996 0.81763 0.0
C537 C 0.49699 0.15252 0.83527 0.0
C538 C 0.4774 0.17058 0.86137 0.0
C539 C 0.42623 0.18191 0.88636 0.0
C540 C 0.39546 0.1767 0.88193 0.0
C541 C 0.44649 0.16839 0.85449 0.0
C542 C 0.38505 0.16058 0.84261 0.0
C543 C 0.40487 0.1475 0.81055 0.0
H544 H 0.62406 0.66385 0.20788 0.0
H545 H 0.60318 0.62513 0.07161 0.0
H546 H 0.62404 0.66827 0.03121 0.0
H547 H 0.65216 0.71588 0.03401 0.0
H548 H 0.67284 0.75396 0.17062 0.0
H549 H 0.64757 0.71307 0.21085 0.0
C550 C 0.6236 0.66496 0.16941 0.0
C551 C 0.61247 0.64072 0.14321 0.0
C552 C 0.63564 0.69005 0.14607 0.0
C553 C 0.61227 0.64286 0.09312 0.0
C554 C 0.62404 0.66776 0.06974 0.0
C555 C 0.65045 0.71548 0.07247 0.0
C556 C 0.66442 0.73788 0.09925 0.0
C557 C 0.63635 0.69132 0.09574 0.0
C558 C 0.66239 0.73688 0.14918 0.0
C559 C 0.64803 0.71342 0.17231 0.0
H560 H 0.13151 0.85289 0.33 0.0
H561 H 0.10458 0.86069 0.47687 0.0
H562 H 0.05996 0.88729 0.45315 0.0
H563 H 0.03112 0.91274 0.39193 0.0
H564 H 0.05629 0.90524 0.24457 0.0
H565 H 0.09893 0.87397 0.26694 0.0
C566 C 0.1157 0.8602 0.35667 0.0
C567 C 0.12159 0.85491 0.40525 0.0
C568 C 0.08989 0.87569 0.34269 0.0
C569 C 0.10063 0.86414 0.43934 0.0
C570 C 0.07515 0.87961 0.42581 0.0
C571 C 0.04574 0.9039 0.36464 0.0
C572 C 0.04089 0.91144 0.31678 0.0
C573 C 0.06994 0.8861 0.37781 0.0
C574 C 0.05963 0.8996 0.28163 0.0
C575 C 0.08408 0.88194 0.29451 0.0
H576 H 0.9336 0.37471 0.57146 0.0
H577 H 0.89956 0.3752 0.7151 0.0
H578 H 0.86911 0.3318 0.69791 0.0
H579 H 0.85003 0.29543 0.64179 0.0
H580 H 0.88333 0.29282 0.49803 0.0
H581 H 0.91635 0.33518 0.51546 0.0
C582 C 0.91954 0.36521 0.5989 0.0
C583 C 0.91891 0.37829 0.64458 0.0
C584 C 0.90193 0.33997 0.58872 0.0
C585 C 0.90084 0.36548 0.67994 0.0
C586 C 0.88322 0.34073 0.67004 0.0
C587 C 0.86455 0.30404 0.61414 0.0
C588 C 0.86395 0.29129 0.56846 0.0
C589 C 0.88332 0.32806 0.62452 0.0
C590 C 0.88336 0.3023 0.53343 0.0
C591 C 0.9021 0.32659 0.5434 0.0
H592 H 0.62747 0.85065 0.22655 0.0
H593 H 0.61124 0.86045 0.07625 0.0
H594 H 0.56397 0.88461 0.09263 0.0
H595 H 0.52925 0.90689 0.14914 0.0
H596 H 0.54333 0.8968 0.29969 0.0
H597 H 0.58907 0.86847 0.28406 0.0
C598 C 0.61336 0.85788 0.19758 0.0
C599 C 0.62294 0.85382 0.15026 0.0
C600 C 0.58585 0.87169 0.20731 0.0
C601 C 0.60434 0.863 0.11293 0.0
C602 C 0.57733 0.877 0.12225 0.0
C603 C 0.5421 0.89803 0.17852 0.0
C604 C 0.53316 0.90397 0.22542 0.0
C605 C 0.56815 0.88194 0.1692 0.0
C606 C 0.54975 0.89225 0.26326 0.0
C607 C 0.57602 0.87633 0.25428 0.0
H608 H 0.35373 0.33111 1.02003 0.0
H609 H 0.40807 0.25887 0.96979 0.0
H610 H 0.43947 0.29408 0.92562 0.0
H611 H 0.44507 0.34469 0.88951 0.0
H612 H 0.38985 0.41596 0.94049 0.0
H613 H 0.36568 0.38235 0.99697 0.0
C614 C 0.37314 0.32323 1.00084 0.0
C615 C 0.37854 0.29249 0.99804 0.0
C616 C 0.39077 0.34357 0.97521 0.0
C617 C 0.40361 0.28246 0.97285 0.0
C618 C 0.42136 0.30262 0.94711 0.0
C619 C 0.42867 0.35295 0.91452 0.0
C620 C 0.41928 0.38278 0.91121 0.0
C621 C 0.41434 0.33312 0.94633 0.0
C622 C 0.39753 0.39319 0.94295 0.0
C623 C 0.38353 0.37389 0.97483 0.0
H624 H 0.99545 0.12237 0.65048 0.0
H625 H 0.98392 0.14261 0.79913 0.0
H626 H 0.93859 0.17094 0.78042 0.0
H627 H 0.89988 0.18583 0.72173 0.0
H628 H 0.91241 0.16319 0.57376 0.0
H629 H 0.95974 0.14012 0.59229 0.0
C630 C 0.98324 0.1333 0.67885 0.0
C631 C 0.99286 0.13021 0.72618 0.0
C632 C 0.9572 0.14891 0.66788 0.0
C633 C 0.97705 0.1448 0.76241 0.0
C634 C 0.95099 0.16071 0.75168 0.0
C635 C 0.913 0.17591 0.69356 0.0
C636 C 0.9023 0.17627 0.64629 0.0
C637 C 0.9404 0.16223 0.7046 0.0
C638 C 0.91998 0.16368 0.61023 0.0
C639 C 0.94707 0.15024 0.62085 0.0
H640 H 0.09019 0.64913 0.46687 0.0
H641 H 0.12322 0.6565 0.3231 0.0
H642 H 0.15095 0.70103 0.34443 0.0
H643 H 0.16818 0.73619 0.40416 0.0
H644 H 0.13596 0.73053 0.54836 0.0
H645 H 0.1054 0.68716 0.5267 0.0
C646 C 0.10342 0.66056 0.44028 0.0
C647 C 0.10458 0.64934 0.39335 0.0
C648 C 0.1195 0.68639 0.45289 0.0
C649 C 0.12154 0.6647 0.35919 0.0
C650 C 0.13762 0.69011 0.37147 0.0
C651 C 0.1544 0.72559 0.43097 0.0
C652 C 0.15462 0.73636 0.47799 0.0
C653 C 0.13706 0.7009 0.41823 0.0
C654 C 0.1362 0.72267 0.51196 0.0
C655 C 0.11887 0.69779 0.49957 0.0
H656 H 0.89887 0.68382 0.32893 0.0
H657 H 0.90689 0.6519 0.4731 0.0
H658 H 0.95108 0.62381 0.45138 0.0
H659 H 0.98536 0.60551 0.39109 0.0
H660 H 0.97908 0.63645 0.24645 0.0
H661 H 0.93651 0.66803 0.26862 0.0
C662 C 0.91038 0.67076 0.35551 0.0
C663 C 0.89942 0.66993 0.40265 0.0
C664 C 0.93603 0.65451 0.34268 0.0
C665 C 0.91489 0.65324 0.43682 0.0
C666 C 0.94011 0.637 0.42435 0.0
C667 C 0.97483 0.61934 0.36437 0.0
C668 C 0.98508 0.61843 0.31708 0.0
C669 C 0.95057 0.63712 0.37736 0.0
C670 C 0.9716 0.63684 0.28309 0.0
C671 C 0.94715 0.65468 0.29575 0.0
H672 H 0.1034 0.16054 0.59072 0.0
H673 H 0.13361 0.16762 0.73575 0.0
H674 H 0.16012 0.21348 0.71633 0.0
H675 H 0.17758 0.2495 0.65735 0.0
H676 H 0.14774 0.24356 0.51209 0.0
H677 H 0.11796 0.19943 0.53236 0.0
C678 C 0.11576 0.17217 0.61803 0.0
C679 C 0.11671 0.16046 0.66463 0.0
C680 C 0.13101 0.19867 0.60653 0.0
C681 C 0.13235 0.17615 0.69981 0.0
C682 C 0.14765 0.20231 0.68863 0.0
C683 C 0.16438 0.23872 0.6301 0.0
C684 C 0.16511 0.2496 0.58312 0.0
C685 C 0.14752 0.21347 0.64202 0.0
C686 C 0.14752 0.23566 0.54848 0.0
C687 C 0.13067 0.21032 0.56005 0.0
H688 H 0.54306 0.41952 0.89422 0.0
H689 H 0.55001 0.39133 0.74812 0.0
H690 H 0.5947 0.36232 0.76774 0.0
H691 H 0.63339 0.34738 0.82643 0.0
H692 H 0.62479 0.37642 0.97211 0.0
H693 H 0.57905 0.40252 0.95267 0.0
C694 C 0.55423 0.40694 0.86654 0.0
C695 C 0.54341 0.40785 0.81962 0.0
C696 C 0.57969 0.39051 0.87811 0.0
C697 C 0.55788 0.39099 0.78449 0.0
C698 C 0.58351 0.37456 0.79571 0.0
C699 C 0.62145 0.3594 0.85386 0.0
C700 C 0.63267 0.3599 0.90077 0.0
C701 C 0.59492 0.37455 0.84234 0.0
C702 C 0.61664 0.37527 0.93598 0.0
C703 C 0.59052 0.39041 0.92481 0.0
H704 H 0.42331 0.85649 0.18722 0.0
H705 H 0.41006 0.911 0.06247 0.0
H706 H 0.38881 0.86896 1.02067 0.0
H707 H 0.36884 0.81767 1.02171 0.0
H708 H 0.3827 0.76306 0.14538 0.0
H709 H 0.40955 0.8036 0.18443 0.0
C710 C 0.4163 0.85926 0.1507 0.0
C711 C 0.41775 0.88757 0.12906 0.0
C712 C 0.40427 0.83465 0.12615 0.0
C713 C 0.40851 0.8901 0.08127 0.0
C714 C 0.39649 0.86583 0.05683 0.0
C715 C 0.37875 0.81441 0.05645 0.0
C716 C 0.37432 0.78735 0.08037 0.0
C717 C 0.39357 0.83816 0.07921 0.0
C718 C 0.38639 0.7836 0.12601 0.0
C719 C 0.40142 0.8069 0.14856 0.0
H720 H 0.11114 0.35754 0.60819 0.0
H721 H 0.16567 0.37543 0.73097 0.0
H722 H 0.12284 0.39469 0.77368 0.0
H723 H 0.07118 0.41293 0.77267 0.0
H724 H 0.01622 0.39505 0.651 0.0
H725 H 0.05725 0.36861 0.61228 0.0
C726 C 0.11356 0.36505 0.64458 0.0
C727 C 0.14202 0.36581 0.66548 0.0
C728 C 0.08852 0.37606 0.6695 0.0
C729 C 0.14443 0.37552 0.71301 0.0
C730 C 0.1198 0.38637 0.73784 0.0
C731 C 0.06789 0.40207 0.73863 0.0
C732 C 0.04061 0.40534 0.71512 0.0
C733 C 0.09191 0.38765 0.716 0.0
C734 C 0.03688 0.39214 0.67022 0.0
C735 C 0.06049 0.37741 0.64777 0.0
H736 H 0.93553 0.8786 0.45907 0.0
H737 H 0.90208 0.86909 0.3161 0.0
H738 H 0.87591 0.82389 0.33891 0.0
H739 H 0.85912 0.78948 0.40016 0.0
H740 H 0.89087 0.79791 0.54397 0.0
H741 H 0.92146 0.84093 0.52016 0.0
C742 C 0.92254 0.86659 0.43295 0.0
C743 C 0.92067 0.87748 0.38588 0.0
C744 C 0.90727 0.84047 0.44648 0.0
C745 C 0.90418 0.86126 0.35231 0.0
C746 C 0.88903 0.83544 0.36542 0.0
C747 C 0.87297 0.80054 0.42632 0.0
C748 C 0.87253 0.7908 0.47387 0.0
C749 C 0.88999 0.82519 0.41247 0.0
C750 C 0.89093 0.80498 0.50714 0.0
C751 C 0.90817 0.8297 0.49355 0.0
H752 H 0.48984 0.59333 0.15745 0.0
H753 H 0.49437 0.63512 0.29528 0.0
H754 H 0.45164 0.66662 0.27457 0.0
H755 H 0.41188 0.68083 0.2175 0.0
H756 H 0.40889 0.63811 0.08014 0.0
H757 H 0.4523 0.60853 0.10043 0.0
C758 C 0.48157 0.60933 0.18315 0.0
C759 C 0.49509 0.61164 0.22809 0.0
C760 C 0.45724 0.62719 0.17098 0.0
C761 C 0.48434 0.63286 0.26049 0.0
C762 C 0.45986 0.65077 0.24867 0.0
C763 C 0.42072 0.66499 0.19214 0.0
C764 C 0.40702 0.66173 0.14729 0.0
C765 C 0.4459 0.64788 0.20413 0.0
C766 C 0.41907 0.64139 0.11458 0.0
C767 C 0.44384 0.6243 0.12628 0.0
H768 H 0.58975 0.16283 0.96549 0.0
H769 H 0.63384 0.15329 0.8298 0.0
H770 H 0.66652 0.19476 0.84875 0.0
H771 H 0.68436 0.23189 0.90464 0.0
H772 H 0.64137 0.2429 0.04073 0.0
H773 H 0.60642 0.20262 1.02091 0.0
C774 C 0.60652 0.16984 0.94013 0.0
C775 C 0.6093 0.15478 0.89622 0.0
C776 C 0.6255 0.19382 0.95142 0.0
C777 C 0.63087 0.16454 0.8635 0.0
C778 C 0.64977 0.18817 0.87447 0.0
C779 C 0.66737 0.22556 0.93017 0.0
C780 C 0.66573 0.24011 0.97444 0.0
C781 C 0.64752 0.20267 0.91845 0.0
C782 C 0.64317 0.23198 1.00652 0.0
C783 C 0.62328 0.20891 0.99519 0.0
H784 H 0.29486 0.23012 0.21246 0.0
H785 H 0.26563 0.3178 0.17309 0.0
H786 H 0.25267 0.32857 0.25611 0.0
H787 H 0.24838 0.31236 0.34011 0.0
H788 H 0.27424 0.22265 0.3766 0.0
H789 H 0.28972 0.2137 0.29553 0.0
C790 C 0.28611 0.25173 0.22227 0.0
C791 C 0.28155 0.27324 0.18671 0.0
C792 C 0.27785 0.25742 0.26989 0.0
C793 C 0.26946 0.30092 0.19984 0.0
C794 C 0.26196 0.30703 0.24732 0.0
C795 C 0.25724 0.2908 0.33053 0.0
C796 C 0.26036 0.26854 0.36571 0.0
C797 C 0.26571 0.28531 0.28274 0.0
C798 C 0.27202 0.24074 0.35158 0.0
C799 C 0.28084 0.23537 0.30467 0.0
H800 H 0.50127 0.47127 0.59703 0.0
H801 H 0.55922 0.54202 0.64346 0.0
H802 H 0.56963 0.55524 0.56091 0.0
H803 H 0.55964 0.5489 0.47454 0.0
H804 H 0.5026 0.47709 0.42956 0.0
H805 H 0.49494 0.46212 0.51179 0.0
C806 C 0.51663 0.48922 0.5894 0.0
C807 C 0.52909 0.50571 0.62709 0.0
C808 C 0.52261 0.49679 0.54157 0.0
C809 C 0.54875 0.52914 0.61565 0.0
C810 C 0.55486 0.53671 0.5682 0.0
C811 C 0.54594 0.52972 0.48272 0.0
C812 C 0.53133 0.51456 0.44554 0.0
C813 C 0.5415 0.52106 0.5307 0.0
C814 C 0.51359 0.48972 0.45717 0.0
C815 C 0.50926 0.48098 0.50438 0.0
H816 H 0.27663 0.7374 0.69452 0.0
H817 H 0.22453 0.81735 0.7121 0.0
H818 H 0.23632 0.81796 0.79653 0.0
H819 H 0.25966 0.79486 0.86617 0.0
H820 H 0.30874 0.71292 0.84893 0.0
H821 H 0.29979 0.71433 0.76389 0.0
C822 C 0.26753 0.75492 0.71652 0.0
C823 C 0.24941 0.77717 0.69612 0.0
C824 C 0.27388 0.75486 0.76555 0.0
C825 C 0.23864 0.79995 0.72594 0.0
C826 C 0.24525 0.80025 0.77462 0.0
C827 C 0.26838 0.77714 0.84423 0.0
C828 C 0.28497 0.7538 0.865 0.0
C829 C 0.26259 0.77763 0.79495 0.0
C830 C 0.29627 0.73145 0.83483 0.0
C831 C 0.29096 0.73208 0.78582 0.0
H832 H 0.0496 0.51394 0.93388 0.0
H833 H 0.95714 0.48813 0.93771 0.0
H834 H 0.9556 0.49749 1.02306 0.0
H835 H 0.98008 0.51378 0.09665 0.0
H836 H 0.07251 0.53963 0.09306 0.0
H837 H 0.07408 0.53038 1.00758 0.0
C838 C 0.02899 0.51056 0.95309 0.0
C839 C 1.00352 0.50023 0.92873 0.0
C840 C 0.02814 0.51627 1.00244 0.0
C841 C 0.97724 0.49562 0.95504 0.0
C842 C 0.97626 0.50119 1.00404 0.0
C843 C 1.00071 0.51718 0.07747 0.0
C844 C 0.02617 0.52742 0.10191 0.0
C845 C 1.00156 0.51154 0.02814 0.0
C846 C 0.05244 0.53215 0.07564 0.0
C847 C 0.05342 0.52664 0.02659 0.0
H848 H 0.74615 0.78756 0.6924 0.0
H849 H 0.81853 0.72551 0.70954 0.0
H850 H 0.81134 0.72632 0.79549 0.0
H851 H 0.78512 0.74518 0.8662 0.0
H852 H 0.71288 0.80736 0.84884 0.0
H853 H 0.7202 0.80665 0.76294 0.0
C854 C 0.76063 0.77438 0.71469 0.0
C855 C 0.78294 0.75649 0.6938 0.0
C856 C 0.7566 0.77517 0.76442 0.0
C857 C 0.80096 0.73923 0.72396 0.0
C858 C 0.79699 0.73983 0.77339 0.0
C859 C 0.77076 0.75845 0.8438 0.0
C860 C 0.7484 0.7763 0.86461 0.0
C861 C 0.7749 0.75774 0.79406 0.0
C862 C 0.73049 0.79367 0.83445 0.0
C863 C 0.73452 0.79311 0.78505 0.0
H864 H 0.79569 0.25608 0.18891 0.0
H865 H 0.70676 0.29158 0.19903 0.0
H866 H 0.708 0.28592 0.2852 0.0
H867 H 0.73379 0.27009 0.35783 0.0
H868 H 0.82284 0.23481 0.34783 0.0
H869 H 0.82154 0.24033 0.26167 0.0
C870 C 0.77642 0.26238 0.20971 0.0
C871 C 0.75114 0.27429 0.18682 0.0
C872 C 0.77715 0.25884 0.25956 0.0
C873 C 0.72669 0.28272 0.21511 0.0
C874 C 0.72729 0.27929 0.26463 0.0
C875 C 0.7531 0.26382 0.33712 0.0
C876 C 0.77841 0.25202 0.36008 0.0
C877 C 0.75238 0.26735 0.28728 0.0
C878 C 0.80288 0.2436 0.33178 0.0
C879 C 0.80225 0.24695 0.28224 0.0
H880 H 0.97129 1.00452 0.08705 0.0
H881 H 0.06491 1.01089 0.11774 0.0
H882 H 0.07528 0.02387 0.03505 0.0
H883 H 0.05778 0.03376 0.9533 0.0
H884 H 0.96395 0.02813 0.92329 0.0
H885 H 0.95382 1.01444 1.0055 0.0
C886 C 0.99397 1.00843 0.07549 0.0
C887 C 0.01721 1.00677 0.10882 0.0
C888 C 0.99982 0.01616 0.02769 0.0
C889 C 0.04648 1.01232 0.09318 0.0
C890 C 0.05248 0.01971 0.04573 0.0
C891 C 0.03512 0.02979 0.96482 0.0
C892 C 1.01177 0.03183 0.93165 0.0
C893 C 0.02931 0.02194 1.01263 0.0
C894 C 0.98252 0.02628 0.94748 0.0
C895 C 0.97662 0.01854 0.99475 0.0
H896 H 0.53742 0.02246 0.44423 0.0
H897 H 0.45647 0.97181 0.46199 0.0
H898 H 0.45605 0.98371 0.54654 0.0
H899 H 0.4795 1.00681 0.61605 0.0
H900 H 0.56202 0.05492 0.59919 0.0
H901 H 0.56076 0.04574 0.51374 0.0
C902 C 0.51975 1.01371 0.46638 0.0
C903 C 0.49711 0.99595 0.44611 0.0
C904 C 0.51988 0.02023 0.5154 0.0
C905 C 0.4741 0.98564 0.47591 0.0
C906 C 0.47394 0.99232 0.52457 0.0
C907 C 0.49743 0.01515 0.59401 0.0
C908 C 0.52099 0.03141 0.61477 0.0
C909 C 0.49688 1.00931 0.5448 0.0
C910 C 0.54348 0.04257 0.58475 0.0
C911 C 0.54288 0.03713 0.5357 0.0
H912 H 0.17046 0.07563 0.84452 0.0
H913 H 0.10289 0.14254 0.86248 0.0
H914 H 0.13564 0.1704 0.91627 0.0
H915 H 0.18527 0.17734 0.95366 0.0
H916 H 0.25118 0.10842 0.93885 0.0
H917 H 0.21739 0.07964 0.88874 0.0
C918 C 0.16279 0.09614 0.86072 0.0
C919 C 0.1344 0.10715 0.84936 0.0
C920 C 0.18155 0.11173 0.89201 0.0
C921 C 0.12459 0.13356 0.8709 0.0
C922 C 0.1434 0.14958 0.90138 0.0
C923 C 0.19199 0.15584 0.93987 0.0
C924 C 0.22073 0.14504 0.94982 0.0
C925 C 0.17217 0.13914 0.91154 0.0
C926 C 0.22914 0.11709 0.93198 0.0
C927 C 0.20988 0.10071 0.90311 0.0
H928 H 0.62813 0.42619 0.22301 0.0
H929 H 0.66699 0.50493 0.16048 0.0
H930 H 0.69112 0.47478 0.09985 0.0
H931 H 0.69908 0.42667 0.06152 0.0
H932 H 0.66177 0.34719 0.12357 0.0
H933 H 0.63908 0.37694 0.18711 0.0
C934 C 0.64209 0.43667 0.19632 0.0
C935 C 0.6458 0.46784 0.19662 0.0
C936 C 0.65593 0.41911 0.16109 0.0
C937 C 0.66411 0.48101 0.16183 0.0
C938 C 0.67771 0.4638 0.12672 0.0
C939 C 0.68599 0.4158 0.08893 0.0
C940 C 0.68179 0.38481 0.08743 0.0
C941 C 0.67342 0.43294 0.12556 0.0
C942 C 0.66523 0.37104 0.12377 0.0
C943 C 0.65223 0.38806 0.16008 0.0
H944 H 0.34464 0.8596 0.47189 0.0
H945 H 0.27053 0.91058 0.41878 0.0
H946 H 0.30287 0.93487 0.36109 0.0
H947 H 0.35113 0.93935 0.32196 0.0
H948 H 0.42641 0.89045 0.37505 0.0
H949 H 0.39478 0.86758 0.43646 0.0
C950 C 0.33572 0.87626 0.44797 0.0
C951 C 0.30517 0.88328 0.4498 0.0
C952 C 0.35455 0.89025 0.41456 0.0
C953 C 0.29397 0.90505 0.41875 0.0
C954 C 0.3124 0.91877 0.38536 0.0
C955 C 0.36066 0.92368 0.34699 0.0
C956 C 0.3909 0.91613 0.34351 0.0
C957 C 0.34254 0.91115 0.38237 0.0
C958 C 0.40311 0.89641 0.37689 0.0
C959 C 0.38501 0.88334 0.4119 0.0
H960 H 0.89057 0.66711 0.5986 0.0
H961 H 0.81029 0.61564 0.5834 0.0
H962 H 0.8299 0.57754 0.63673 0.0
H963 H 0.87172 0.55637 0.68135 0.0
H964 H 0.95398 0.60512 0.69078 0.0
H965 H 0.93201 0.64665 0.64671 0.0
C966 C 0.87728 0.6478 0.60786 0.0
C967 C 0.84901 0.64416 0.58743 0.0
C968 C 0.88922 0.62532 0.63723 0.0
C969 C 0.83213 0.61882 0.5988 0.0
C970 C 0.84334 0.59702 0.62921 0.0
C971 C 0.88457 0.57638 0.67459 0.0
C972 C 0.91433 0.57778 0.68947 0.0
C973 C 0.87211 0.59966 0.64776 0.0
C974 C 0.93099 0.60357 0.67966 0.0
C975 C 0.91845 0.62728 0.65436 0.0
H976 H 0.82654 0.85841 0.14697 0.0
H977 H 0.8157 0.9185 0.02821 0.0
H978 H 0.85614 0.94924 0.05813 0.0
H979 H 0.89403 0.95994 0.11906 0.0
H980 H 0.90718 0.89775 0.2339 0.0
H981 H 0.86718 0.86647 0.20327 0.0
C982 C 0.83325 0.87779 0.1267 0.0
C983 C 0.81748 0.88595 0.08528 0.0
C984 C 0.85722 0.89504 0.14332 0.0
C985 C 0.82659 0.91176 0.06073 0.0
C986 C 0.85004 0.92932 0.07759 0.0
C987 C 0.88831 0.9394 0.13716 0.0
C988 C 0.90357 0.93132 0.17894 0.0
C989 C 0.86535 0.92133 0.11908 0.0
C990 C 0.89599 0.9045 0.20166 0.0
C991 C 0.87295 0.88666 0.18427 0.0
H992 H 0.42975 0.58377 0.8765 0.0
H993 H 0.35025 0.54226 0.82144 0.0
H994 H 0.32001 0.58097 0.85775 0.0
H995 H 0.31555 0.6252 0.908 0.0
H996 H 0.39431 0.66543 0.96746 0.0
H997 H 0.42523 0.62826 0.92733 0.0
C998 C 0.40579 0.58294 0.87266 0.0
C999 C 0.39252 0.55984 0.84591 0.0
C1000 C 0.38829 0.60499 0.89476 0.0
C1001 C 0.36138 0.55982 0.84083 0.0
C1002 C 0.34393 0.58187 0.86207 0.0
C1003 C 0.3395 0.62603 0.91212 0.0
C1004 C 0.35252 0.64822 0.9408 0.0
C1005 C 0.3571 0.60439 0.88943 0.0
C1006 C 0.38362 0.6487 0.94567 0.0
C1007 C 0.40133 0.6274 0.92271 0.0
H1008 H 0.72774 0.11636 0.63504 0.0
H1009 H 0.66998 0.1868 0.58851 0.0
H1010 H 0.62869 0.16535 0.63433 0.0
H1011 H 0.61016 0.12857 0.69324 0.0
H1012 H 0.66995 0.06108 0.74492 0.0
H1013 H 0.709 0.07902 0.69174 0.0
C1014 C 0.70592 0.12659 0.63428 0.0
C1015 C 0.70173 0.15286 0.60808 0.0
C1016 C 0.68267 0.11476 0.66216 0.0
C1017 C 0.67358 0.1664 0.60817 0.0
C1018 C 0.65004 0.15421 0.63454 0.0
C1019 C 0.63162 0.11761 0.69225 0.0
C1020 C 0.63714 0.09353 0.72299 0.0
C1021 C 0.65445 0.1287 0.66249 0.0
C1022 C 0.66518 0.07976 0.72183 0.0
C1023 C 0.68756 0.08999 0.69137 0.0
H1024 H 0.1596 0.47189 0.34311 0.0
H1025 H 0.07697 0.42327 0.34405 0.0
H1026 H 0.09987 0.38363 0.39104 0.0
H1027 H 0.14193 0.36581 0.44038 0.0
H1028 H 0.22298 0.41696 0.44353 0.0
H1029 H 0.20259 0.45208 0.38601 0.0
C1030 C 0.14684 0.45225 0.35255 0.0
C1031 C 0.11663 0.4506 0.34027 0.0
C1032 C 0.15991 0.43 0.38077 0.0
C1033 C 0.10024 0.42519 0.35343 0.0
C1034 C 0.11331 0.40252 0.38036 0.0
C1035 C 0.15524 0.38426 0.42743 0.0
C1036 C 0.18386 0.38886 0.44594 0.0
C1037 C 0.1429 0.4051 0.39553 0.0
C1038 C 0.20084 0.41308 0.42968 0.0
C1039 C 0.18917 0.43322 0.39693 0.0
H1040 H 0.59977 0.65796 0.3945 0.0
H1041 H 0.64117 0.57369 0.36287 0.0
H1042 H 0.68548 0.58863 0.40666 0.0
H1043 H 0.71397 0.6269 0.44994 0.0
H1044 H 0.67366 0.71199 0.47803 0.0
H1045 H 0.62745 0.69542 0.44054 0.0
C1046 C 0.61839 0.64278 0.39748 0.0
C1047 C 0.61718 0.61486 0.37493 0.0
C1048 C 0.64407 0.65166 0.42233 0.0
C1049 C 0.64159 0.5955 0.37919 0.0
C1050 C 0.66695 0.60396 0.40447 0.0
C1051 C 0.69481 0.64152 0.4486 0.0
C1052 C 0.69706 0.67052 0.4669 0.0
C1053 C 0.66863 0.63213 0.42567 0.0
C1054 C 0.67234 0.68953 0.46424 0.0
C1055 C 0.64599 0.6801 0.44263 0.0
H1056 H 0.15482 0.95945 0.7183 0.0
H1057 H 0.06227 0.93644 0.70154 0.0
H1058 H 0.07585 0.89295 0.65483 0.0
H1059 H 0.11345 0.86623 0.60783 0.0
H1060 H 0.2061 0.88701 0.62636 0.0
H1061 H 0.19327 0.92607 0.68379 0.0
C1062 C 0.1377 0.94443 0.70563 0.0
C1063 C 0.10752 0.95181 0.71219 0.0
C1064 C 0.14569 0.91914 0.67865 0.0
C1065 C 0.08564 0.93188 0.69576 0.0
C1066 C 0.09337 0.9069 0.66906 0.0
C1067 C 0.13081 0.87863 0.62585 0.0
C1068 C 0.1606 0.8738 0.61327 0.0
C1069 C 0.12322 0.90103 0.65857 0.0
C1070 C 0.183 0.89018 0.63612 0.0
C1071 C 0.17563 0.91271 0.66856 0.0
H1072 H 0.80533 0.41172 0.91866 0.0
H1073 H 0.86234 0.33885 0.95737 0.0
H1074 H 0.90274 0.35986 0.90907 0.0
H1075 H 0.92026 0.39686 0.84956 0.0
H1076 H 0.86076 0.46675 0.80581 0.0
H1077 H 0.82323 0.44937 0.86209 0.0
C1078 C 0.82685 0.40087 0.91729 0.0
C1079 C 0.83104 0.37403 0.94187 0.0
C1080 C 0.84948 0.41244 0.88793 0.0
C1081 C 0.85876 0.35971 0.93896 0.0
C1082 C 0.88177 0.37164 0.91116 0.0
C1083 C 0.89923 0.40843 0.85299 0.0
C1084 C 0.89325 0.43299 0.82351 0.0
C1085 C 0.8772 0.39767 0.88454 0.0
C1086 C 0.86578 0.44764 0.82784 0.0
C1087 C 0.8443 0.43774 0.86009 0.0
H1088 H 0.42113 0.07751 0.1661 0.0
H1089 H 0.37219 0.08062 0.29846 0.0
H1090 H 0.34336 0.12257 0.26883 0.0
H1091 H 0.33077 0.15746 0.20412 0.0
H1092 H 0.38251 0.15612 0.07457 0.0
H1093 H 0.41208 0.11507 0.10524 0.0
C1094 C 0.40472 0.08764 0.18923 0.0
C1095 C 0.39892 0.07542 0.23454 0.0
C1096 C 0.38863 0.11225 0.17246 0.0
C1097 C 0.37689 0.08884 0.26306 0.0
C1098 C 0.36047 0.11309 0.24627 0.0
C1099 C 0.34865 0.14833 0.18272 0.0
C1100 C 0.35407 0.1597 0.13679 0.0
C1101 C 0.36589 0.12477 0.20078 0.0
C1102 C 0.37761 0.14779 0.10987 0.0
C1103 C 0.39456 0.12421 0.12735 0.0
H1104 H 0.35817 0.35008 0.59508 0.0
H1105 H 0.3166 0.42748 0.53299 0.0
H1106 H 0.35635 0.45878 0.56359 0.0
H1107 H 0.4 0.46525 0.61513 0.0
H1108 H 0.43816 0.38874 0.68454 0.0
H1109 H 0.40229 0.3563 0.64494 0.0
C1110 C 0.35751 0.37381 0.58839 0.0
C1111 C 0.33393 0.38618 0.56193 0.0
C1112 C 0.37977 0.39203 0.60799 0.0
C1113 C 0.33441 0.41697 0.55258 0.0
C1114 C 0.35705 0.43508 0.57061 0.0
C1115 C 0.40075 0.44143 0.62105 0.0
C1116 C 0.42175 0.42944 0.65276 0.0
C1117 C 0.37944 0.42298 0.59931 0.0
C1118 C 0.42218 0.39855 0.66043 0.0
C1119 C 0.40165 0.37998 0.63781 0.0
H1120 H 0.83711 0.10185 0.49687 0.0
H1121 H 0.86835 0.18018 0.4235 0.0
H1122 H 0.89146 0.14883 0.36236 0.0
H1123 H 0.90437 0.09871 0.33152 0.0
H1124 H 0.87172 0.02107 0.40554 0.0
H1125 H 0.84726 0.0526 0.46405 0.0
C1126 C 0.84897 0.11215 0.46753 0.0
C1127 C 0.8513 0.14333 0.46512 0.0
C1128 C 0.86183 0.09405 0.43236 0.0
C1129 C 0.86632 0.15623 0.42634 0.0
C1130 C 0.87956 0.1383 0.3914 0.0
C1131 C 0.89174 0.08874 0.36031 0.0
C1132 C 0.88983 0.05747 0.36383 0.0
C1133 C 0.87769 0.10712 0.39427 0.0
C1134 C 0.87319 0.04497 0.40128 0.0
C1135 C 0.8594 0.06301 0.43514 0.0
H1136 H 0.17327 0.58316 0.24609 0.0
H1137 H 0.09961 0.62145 0.16969 0.0
H1138 H 0.1344 0.64478 0.11354 0.0
H1139 H 0.1862 0.65577 0.0882 0.0
H1140 H 0.25901 0.61664 0.16595 0.0
H1141 H 0.22405 0.59183 0.2189 0.0
C1142 C 0.16471 0.5966 0.21717 0.0
C1143 C 0.13384 0.60082 0.21247 0.0
C1144 C 0.18475 0.60968 0.18502 0.0
C1145 C 0.12325 0.61792 0.17427 0.0
C1146 C 0.14316 0.63129 0.14219 0.0
C1147 C 0.19438 0.6417 0.11662 0.0
C1148 C 0.22532 0.63806 0.12278 0.0
C1149 C 0.17402 0.62756 0.1475 0.0
C1150 C 0.23545 0.61952 0.15963 0.0
C1151 C 0.21544 0.60551 0.19034 0.0
H1152 H 0.64642 0.95551 0.84632 0.0
H1153 H 0.55605 0.93703 0.88984 0.0
H1154 H 0.57303 0.89557 0.93788 0.0
H1155 H 0.61412 0.86832 0.97575 0.0
H1156 H 0.70392 0.88346 0.92846 0.0
H1157 H 0.68657 0.92167 0.87274 0.0
C1158 C 0.63028 0.94205 0.86528 0.0
C1159 C 0.60003 0.95049 0.86567 0.0
C1160 C 0.64011 0.91744 0.89227 0.0
C1161 C 0.57963 0.93228 0.8904 0.0
C1162 C 0.58926 0.9082 0.91766 0.0
C1163 C 0.62968 0.87926 0.95192 0.0
C1164 C 0.66014 0.87299 0.95572 0.0
C1165 C 0.61952 0.90118 0.92014 0.0
C1166 C 0.68028 0.88763 0.92545 0.0
C1167 C 0.67038 0.90972 0.89403 0.0
loop_
_geom_bond_atom_site_label_1
_geom_bond_atom_site_label_2
_geom_bond_distance
_geom_bond_site_symmetry_2
_ccdc_geom_bond_type
C0 C1 1.351 . S
C0 N3 1.368 . S
C0 H5 0.931 . S
C1 C0 1.351 . S
C1 N2 1.373 . S
C1 H29 0.930 . S
N2 C1 1.373 . S
N2 C4 1.340 . S
N3 C0 1.368 . S
N3 C4 1.321 . S
N3 Co6 2.135 . S
C4 N2 1.340 . S
C4 N3 1.321 . S
C4 H28 0.930 . S
H5 C0 0.931 . S
Co6 N3 2.135 . S
Co6 N9 2.121 1_554 S
Co6 O14 2.055 . S
Co6 O17 2.039 . S
Co6 N20 2.140 1_554 S
C7 O8 1.227 . S
C7 O17 1.265 . S
O8 C7 1.227 . S
N9 Co6 2.121 1_556 S
N9 C11 1.375 . S
N9 C12 1.313 . S
C10 C11 1.338 . S
C10 N13 1.377 . S
C10 H30 0.930 . S
C11 N9 1.375 . S
C11 C10 1.338 . S
C11 H15 0.931 . S
C12 N9 1.313 . S
C12 N13 1.344 . S
C12 H16 0.930 . S
N13 C10 1.377 . S
N13 C12 1.344 . S
O14 Co6 2.055 . S
O14 C18 1.253 1_554 S
H15 C11 0.931 . S
H16 C12 0.930 . S
O17 Co6 2.039 . S
O17 C7 1.265 . S
C18 O14 1.253 1_556 S
C18 O19 1.227 . S
O19 C18 1.227 . S
N20 Co6 2.140 1_556 S
N20 C23 1.346 1_556 S
N20 C24 1.345 . S
C21 C22 1.387 . S
C21 C25 1.391 . S
C22 C21 1.387 . S
C22 C23 1.369 1_556 S
C22 H31 0.929 1_556 S
C23 N20 1.346 1_554 S
C23 C22 1.369 1_554 S
C23 H26 0.928 . S
C24 N20 1.345 . S
C24 C25 1.371 . S
C24 H27 0.931 . S
C25 C21 1.391 . S
C25 C24 1.371 . S
C25 H32 0.930 . S
H26 C23 0.928 . S
H27 C24 0.931 . S
H28 C4 0.930 . S
H29 C1 0.930 . S
H30 C10 0.930 . S
H31 C22 0.929 1_554 S
H32 C25 0.930 . S
C33 C34 1.351 . S
C33 N36 1.368 . S
C33 H38 0.931 . S
C34 C33 1.351 . S
C34 N35 1.373 . S
C34 H62 0.930 . S
N35 C34 1.373 . S
N35 C37 1.340 . S
N36 C33 1.368 . S
N36 C37 1.321 . S
N36 Co39 2.135 . S
C37 N35 1.340 . S
C37 N36 1.321 . S
C37 H61 0.930 . S
H38 C33 0.931 . S
Co39 N36 2.135 . S
Co39 N42 2.121 . S
Co39 O47 2.055 . S
Co39 O50 2.039 . S
Co39 N53 2.140 . S
C40 O41 1.227 . S
C40 O50 1.265 . S
O41 C40 1.227 . S
N42 Co39 2.121 . S
N42 C44 1.375 . S
N42 C45 1.313 . S
C43 C44 1.338 . S
C43 N46 1.377 . S
C43 H63 0.930 . S
C44 N42 1.375 . S
C44 C43 1.338 . S
C44 H48 0.931 . S
C45 N42 1.313 . S
C45 N46 1.344 . S
C45 H49 0.930 . S
N46 C43 1.377 . S
N46 C45 1.344 . S
O47 Co39 2.055 . S
O47 C51 1.253 . S
H48 C44 0.931 . S
H49 C45 0.930 . S
O50 Co39 2.039 . S
O50 C40 1.265 . S
C51 O47 1.253 . S
C51 O52 1.227 . S
O52 C51 1.227 . S
N53 Co39 2.140 . S
N53 C56 1.346 . S
N53 C57 1.345 . S
C54 C55 1.387 . S
C54 C58 1.391 . S
C55 C54 1.387 . S
C55 C56 1.369 . S
C55 H64 0.929 . S
C56 N53 1.346 . S
C56 C55 1.369 . S
C56 H59 0.928 . S
C57 N53 1.345 . S
C57 C58 1.371 . S
C57 H60 0.931 . S
C58 C54 1.391 . S
C58 C57 1.371 . S
C58 H65 0.930 . S
H59 C56 0.928 . S
H60 C57 0.931 . S
H61 C37 0.930 . S
H62 C34 0.930 . S
H63 C43 0.930 . S
H64 C55 0.929 . S
H65 C58 0.930 . S
C66 C67 1.351 . S
C66 N69 1.368 . S
C66 H71 0.931 . S
C67 C66 1.351 . S
C67 N68 1.373 . S
C67 H95 0.930 . S
N68 C67 1.373 . S
N68 C70 1.340 . S
N69 C66 1.368 . S
N69 C70 1.321 . S
N69 Co72 2.135 . S
C70 N68 1.340 . S
C70 N69 1.321 . S
C70 H94 0.930 . S
H71 C66 0.931 . S
Co72 N69 2.135 . S
Co72 N75 2.121 . S
Co72 O80 2.055 . S
Co72 O83 2.039 . S
Co72 N86 2.140 . S
C73 O74 1.227 . S
C73 O83 1.265 . S
O74 C73 1.227 . S
N75 Co72 2.121 . S
N75 C77 1.375 . S
N75 C78 1.313 . S
C76 C77 1.338 . S
C76 N79 1.377 . S
C76 H96 0.930 . S
C77 N75 1.375 . S
C77 C76 1.338 . S
C77 H81 0.931 . S
C78 N75 1.313 . S
C78 N79 1.344 . S
C78 H82 0.930 . S
N79 C76 1.377 . S
N79 C78 1.344 . S
O80 Co72 2.055 . S
O80 C84 1.253 . S
H81 C77 0.931 . S
H82 C78 0.930 . S
O83 Co72 2.039 . S
O83 C73 1.265 . S
C84 O80 1.253 . S
C84 O85 1.227 . S
O85 C84 1.227 . S
N86 Co72 2.140 . S
N86 C89 1.346 . S
N86 C90 1.345 . S
C87 C88 1.387 . S
C87 C91 1.391 . S
C88 C87 1.387 . S
C88 C89 1.369 . S
C88 H97 0.929 . S
C89 N86 1.346 . S
C89 C88 1.369 . S
C89 H92 0.928 . S
C90 N86 1.345 . S
C90 C91 1.371 . S
C90 H93 0.931 . S
C91 C87 1.391 . S
C91 C90 1.371 . S
C91 H98 0.930 . S
H92 C89 0.928 . S
H93 C90 0.931 . S
H94 C70 0.930 . S
H95 C67 0.930 . S
H96 C76 0.930 . S
H97 C88 0.929 . S
H98 C91 0.930 . S
C99 C100 1.351 . S
C99 N102 1.368 . S
C99 H104 0.931 . S
C100 C99 1.351 . S
C100 N101 1.373 . S
C100 H128 0.930 1_655 S
N101 C100 1.373 . S
N101 C103 1.340 . S
N102 C99 1.368 . S
N102 C103 1.321 . S
N102 Co105 2.135 . S
C103 N101 1.340 . S
C103 N102 1.321 . S
C103 H127 0.930 . S
H104 C99 0.931 . S
Co105 N102 2.135 . S
Co105 N108 2.121 . S
Co105 O113 2.055 . S
Co105 O116 2.039 . S
Co105 N119 2.140 . S
C106 O107 1.227 . S
C106 O116 1.265 . S
O107 C106 1.227 . S
N108 Co105 2.121 . S
N108 C110 1.375 . S
N108 C111 1.313 . S
C109 C110 1.338 . S
C109 N112 1.377 . S
C109 H129 0.930 . S
C110 N108 1.375 . S
C110 C109 1.338 . S
C110 H114 0.931 . S
C111 N108 1.313 . S
C111 N112 1.344 . S
C111 H115 0.930 . S
N112 C109 1.377 . S
N112 C111 1.344 . S
O113 Co105 2.055 . S
O113 C117 1.253 . S
H114 C110 0.931 . S
H115 C111 0.930 . S
O116 Co105 2.039 . S
O116 C106 1.265 . S
C117 O113 1.253 . S
C117 O118 1.227 . S
O118 C117 1.227 . S
N119 Co105 2.140 . S
N119 C122 1.346 . S
N119 C123 1.345 . S
C120 C121 1.387 . S
C120 C124 1.391 . S
C121 C120 1.387 . S
C121 C122 1.369 . S
C121 H130 0.929 . S
C122 N119 1.346 . S
C122 C121 1.369 . S
C122 H125 0.928 . S
C123 N119 1.345 . S
C123 C124 1.371 . S
C123 H126 0.931 . S
C124 C120 1.391 . S
C124 C123 1.371 . S
C124 H131 0.930 . S
H125 C122 0.928 . S
H126 C123 0.931 . S
H127 C103 0.930 . S
H128 C100 0.930 1_455 S
H129 C109 0.930 . S
H130 C121 0.929 . S
H131 C124 0.930 . S
C132 C133 1.351 . S
C132 N135 1.368 . S
C132 H137 0.931 . S
C133 C132 1.351 . S
C133 N134 1.373 . S
C133 H161 0.930 . S
N134 C133 1.373 . S
N134 C136 1.340 . S
N135 C132 1.368 . S
N135 C136 1.321 . S
N135 Co138 2.135 . S
C136 N134 1.340 . S
C136 N135 1.321 . S
C136 H160 0.930 . S
H137 C132 0.931 . S
Co138 N135 2.135 . S
Co138 N141 2.121 1_556 S
Co138 O146 2.055 . S
Co138 O149 2.039 . S
Co138 N152 2.140 1_556 S
C139 O140 1.227 . S
C139 O149 1.265 . S
O140 C139 1.227 . S
N141 Co138 2.121 1_554 S
N141 C143 1.375 . S
N141 C144 1.313 . S
C142 C143 1.338 . S
C142 N145 1.377 . S
C142 H162 0.930 . S
C143 N141 1.375 . S
C143 C142 1.338 . S
C143 H147 0.931 . S
C144 N141 1.313 . S
C144 N145 1.344 . S
C144 H148 0.930 . S
N145 C142 1.377 . S
N145 C144 1.344 . S
O146 Co138 2.055 . S
O146 C150 1.253 1_556 S
H147 C143 0.931 . S
H148 C144 0.930 . S
O149 Co138 2.039 . S
O149 C139 1.265 . S
C150 O146 1.253 1_554 S
C150 O151 1.227 . S
O151 C150 1.227 . S
N152 Co138 2.140 1_554 S
N152 C155 1.346 1_554 S
N152 C156 1.345 . S
C153 C154 1.387 . S
C153 C157 1.391 . S
C154 C153 1.387 . S
C154 C155 1.369 1_554 S
C154 H163 0.929 1_554 S
C155 N152 1.346 1_556 S
C155 C154 1.369 1_556 S
C155 H158 0.928 . S
C156 N152 1.345 . S
C156 C157 1.371 . S
C156 H159 0.931 . S
C157 C153 1.391 . S
C157 C156 1.371 . S
C157 H164 0.930 . S
H158 C155 0.928 . S
H159 C156 0.931 . S
H160 C136 0.930 . S
H161 C133 0.930 . S
H162 C142 0.930 . S
H163 C154 0.929 1_556 S
H164 C157 0.930 . S
C165 C166 1.351 . S
C165 N168 1.368 . S
C165 H170 0.931 . S
C166 C165 1.351 . S
C166 N167 1.373 . S
C166 H194 0.930 . S
N167 C166 1.373 . S
N167 C169 1.340 . S
N168 C165 1.368 . S
N168 C169 1.321 . S
N168 Co171 2.135 . S
C169 N167 1.340 . S
C169 N168 1.321 . S
C169 H193 0.930 . S
H170 C165 0.931 . S
Co171 N168 2.135 . S
Co171 N174 2.121 . S
Co171 O179 2.055 . S
Co171 O182 2.039 . S
Co171 N185 2.140 . S
C172 O173 1.227 . S
C172 O182 1.265 . S
O173 C172 1.227 . S
N174 Co171 2.121 . S
N174 C176 1.375 . S
N174 C177 1.313 . S
C175 C176 1.338 . S
C175 N178 1.377 . S
C175 H195 0.930 . S
C176 N174 1.375 . S
C176 C175 1.338 . S
C176 H180 0.931 . S
C177 N174 1.313 . S
C177 N178 1.344 . S
C177 H181 0.930 . S
N178 C175 1.377 . S
N178 C177 1.344 . S
O179 Co171 2.055 . S
O179 C183 1.253 . S
H180 C176 0.931 . S
H181 C177 0.930 . S
O182 Co171 2.039 . S
O182 C172 1.265 . S
C183 O179 1.253 . S
C183 O184 1.227 . S
O184 C183 1.227 . S
N185 Co171 2.140 . S
N185 C188 1.346 . S
N185 C189 1.345 . S
C186 C187 1.387 . S
C186 C190 1.391 . S
C187 C186 1.387 . S
C187 C188 1.369 . S
C187 H196 0.929 . S
C188 N185 1.346 . S
C188 C187 1.369 . S
C188 H191 0.928 . S
C189 N185 1.345 . S
C189 C190 1.371 . S
C189 H192 0.931 . S
C190 C186 1.391 . S
C190 C189 1.371 . S
C190 H197 0.930 . S
H191 C188 0.928 . S
H192 C189 0.931 . S
H193 C169 0.930 . S
H194 C166 0.930 . S
H195 C175 0.930 . S
H196 C187 0.929 . S
H197 C190 0.930 . S
C198 C199 1.351 . S
C198 N201 1.368 . S
C198 H203 0.931 . S
C199 C198 1.351 . S
C199 N200 1.373 . S
C199 H227 0.930 . S
N200 C199 1.373 . S
N200 C202 1.340 . S
N201 C198 1.368 . S
N201 C202 1.321 . S
N201 Co204 2.135 . S
C202 N200 1.340 . S
C202 N201 1.321 . S
C202 H226 0.930 . S
H203 C198 0.931 . S
Co204 N201 2.135 . S
Co204 N207 2.121 . S
Co204 O212 2.055 . S
Co204 O215 2.039 . S
Co204 N218 2.140 . S
C205 O206 1.227 . S
C205 O215 1.265 . S
O206 C205 1.227 . S
N207 Co204 2.121 . S
N207 C209 1.375 . S
N207 C210 1.313 . S
C208 C209 1.338 . S
C208 N211 1.377 . S
C208 H228 0.930 . S
C209 N207 1.375 . S
C209 C208 1.338 . S
C209 H213 0.931 . S
C210 N207 1.313 . S
C210 N211 1.344 . S
C210 H214 0.930 . S
N211 C208 1.377 . S
N211 C210 1.344 . S
O212 Co204 2.055 . S
O212 C216 1.253 . S
H213 C209 0.931 . S
H214 C210 0.930 . S
O215 Co204 2.039 . S
O215 C205 1.265 . S
C216 O212 1.253 . S
C216 O217 1.227 . S
O217 C216 1.227 . S
N218 Co204 2.140 . S
N218 C221 1.346 . S
N218 C222 1.345 . S
C219 C220 1.387 . S
C219 C223 1.391 . S
C220 C219 1.387 . S
C220 C221 1.369 . S
C220 H229 0.929 . S
C221 N218 1.346 . S
C221 C220 1.369 . S
C221 H224 0.928 . S
C222 N218 1.345 . S
C222 C223 1.371 . S
C222 H225 0.931 . S
C223 C219 1.391 . S
C223 C222 1.371 . S
C223 H230 0.930 . S
H224 C221 0.928 . S
H225 C222 0.931 . S
H226 C202 0.930 . S
H227 C199 0.930 . S
H228 C208 0.930 . S
H229 C220 0.929 . S
H230 C223 0.930 . S
C231 C232 1.351 . S
C231 N234 1.368 . S
C231 H236 0.931 . S
C232 C231 1.351 . S
C232 N233 1.373 . S
C232 H260 0.930 1_455 S
N233 C232 1.373 . S
N233 C235 1.340 . S
N234 C231 1.368 . S
N234 C235 1.321 . S
N234 Co237 2.135 . S
C235 N233 1.340 . S
C235 N234 1.321 . S
C235 H259 0.930 . S
H236 C231 0.931 . S
Co237 N234 2.135 . S
Co237 N240 2.121 . S
Co237 O245 2.055 . S
Co237 O248 2.039 . S
Co237 N251 2.140 . S
C238 O239 1.227 . S
C238 O248 1.265 . S
O239 C238 1.227 . S
N240 Co237 2.121 . S
N240 C242 1.375 . S
N240 C243 1.313 . S
C241 C242 1.338 . S
C241 N244 1.377 . S
C241 H261 0.930 . S
C242 N240 1.375 . S
C242 C241 1.338 . S
C242 H246 0.931 . S
C243 N240 1.313 . S
C243 N244 1.344 . S
C243 H247 0.930 . S
N244 C241 1.377 . S
N244 C243 1.344 . S
O245 Co237 2.055 . S
O245 C249 1.253 . S
H246 C242 0.931 . S
H247 C243 0.930 . S
O248 Co237 2.039 . S
O248 C238 1.265 . S
C249 O245 1.253 . S
C249 O250 1.227 . S
O250 C249 1.227 . S
N251 Co237 2.140 . S
N251 C254 1.346 . S
N251 C255 1.345 . S
C252 C253 1.387 . S
C252 C256 1.391 . S
C253 C252 1.387 . S
C253 C254 1.369 . S
C253 H262 0.929 . S
C254 N251 1.346 . S
C254 C253 1.369 . S
C254 H257 0.928 . S
C255 N251 1.345 . S
C255 C256 1.371 . S
C255 H258 0.931 . S
C256 C252 1.391 . S
C256 C255 1.371 . S
C256 H263 0.930 . S
H257 C254 0.928 . S
H258 C255 0.931 . S
H259 C235 0.930 . S
H260 C232 0.930 1_655 S
H261 C241 0.930 . S
H262 C253 0.929 . S
H263 C256 0.930 . S
C264 C265 1.351 . S
C264 N267 1.368 . S
C264 H269 0.931 . S
C265 C264 1.351 . S
C265 N266 1.373 . S
C265 H293 0.930 . S
N266 C265 1.373 . S
N266 C268 1.340 . S
N267 C264 1.368 . S
N267 C268 1.321 . S
N267 Co270 2.135 . S
C268 N266 1.340 . S
C268 N267 1.321 . S
C268 H292 0.930 . S
H269 C264 0.931 . S
Co270 N267 2.135 . S
Co270 N273 2.121 . S
Co270 O278 2.055 . S
Co270 O281 2.039 . S
Co270 N284 2.140 . S
C271 O272 1.227 . S
C271 O281 1.265 . S
O272 C271 1.227 . S
N273 Co270 2.121 . S
N273 C275 1.375 . S
N273 C276 1.313 . S
C274 C275 1.338 . S
C274 N277 1.377 . S
C274 H294 0.930 . S
C275 N273 1.375 . S
C275 C274 1.338 . S
C275 H279 0.931 . S
C276 N273 1.313 . S
C276 N277 1.344 . S
C276 H280 0.930 . S
N277 C274 1.377 . S
N277 C276 1.344 . S
O278 Co270 2.055 . S
O278 C282 1.253 . S
H279 C275 0.931 . S
H280 C276 0.930 . S
O281 Co270 2.039 . S
O281 C271 1.265 . S
C282 O278 1.253 . S
C282 O283 1.227 . S
O283 C282 1.227 . S
N284 Co270 2.140 . S
N284 C287 1.346 . S
N284 C288 1.345 . S
C285 C286 1.387 . S
C285 C289 1.391 . S
C286 C285 1.387 . S
C286 C287 1.369 . S
C286 H295 0.929 . S
C287 N284 1.346 . S
C287 C286 1.369 . S
C287 H290 0.928 . S
C288 N284 1.345 . S
C288 C289 1.371 . S
C288 H291 0.931 . S
C289 C285 1.391 . S
C289 C288 1.371 . S
C289 H296 0.930 . S
H290 C287 0.928 . S
H291 C288 0.931 . S
H292 C268 0.930 . S
H293 C265 0.930 . S
H294 C274 0.930 . S
H295 C286 0.929 . S
H296 C289 0.930 . S
C297 C298 1.351 . S
C297 N300 1.368 . S
C297 H302 0.931 . S
C298 C297 1.351 . S
C298 N299 1.373 . S
C298 H326 0.930 1_455 S
N299 C298 1.373 . S
N299 C301 1.340 . S
N300 C297 1.368 . S
N300 C301 1.321 . S
N300 Co303 2.135 . S
C301 N299 1.340 . S
C301 N300 1.321 . S
C301 H325 0.930 . S
H302 C297 0.931 . S
Co303 N300 2.135 . S
Co303 N306 2.121 . S
Co303 O311 2.055 . S
Co303 O314 2.039 . S
Co303 N317 2.140 . S
C304 O305 1.227 . S
C304 O314 1.265 . S
O305 C304 1.227 . S
N306 Co303 2.121 . S
N306 C308 1.375 . S
N306 C309 1.313 . S
C307 C308 1.338 . S
C307 N310 1.377 . S
C307 H327 0.930 . S
C308 N306 1.375 . S
C308 C307 1.338 . S
C308 H312 0.931 . S
C309 N306 1.313 . S
C309 N310 1.344 . S
C309 H313 0.930 . S
N310 C307 1.377 . S
N310 C309 1.344 . S
O311 Co303 2.055 . S
O311 C315 1.253 . S
H312 C308 0.931 . S
H313 C309 0.930 . S
O314 Co303 2.039 . S
O314 C304 1.265 . S
C315 O311 1.253 . S
C315 O316 1.227 . S
O316 C315 1.227 . S
N317 Co303 2.140 . S
N317 C320 1.346 . S
N317 C321 1.345 . S
C318 C319 1.387 . S
C318 C322 1.391 1_565 S
C319 C318 1.387 . S
C319 C320 1.369 1_565 S
C319 H328 0.929 . S
C320 N317 1.346 . S
C320 C319 1.369 1_545 S
C320 H323 0.928 . S
C321 N317 1.345 . S
C321 C322 1.371 . S
C321 H324 0.931 . S
C322 C318 1.391 1_545 S
C322 C321 1.371 . S
C322 H329 0.930 . S
H323 C320 0.928 . S
H324 C321 0.931 . S
H325 C301 0.930 . S
H326 C298 0.930 1_655 S
H327 C307 0.930 . S
H328 C319 0.929 . S
H329 C322 0.930 . S
C330 C331 1.351 . S
C330 N333 1.368 . S
C330 H335 0.931 . S
C331 C330 1.351 . S
C331 N332 1.373 . S
C331 H359 0.930 . S
N332 C331 1.373 . S
N332 C334 1.340 . S
N333 C330 1.368 . S
N333 C334 1.321 . S
N333 Co336 2.135 . S
C334 N332 1.340 . S
C334 N333 1.321 . S
C334 H358 0.930 . S
H335 C330 0.931 . S
Co336 N333 2.135 . S
Co336 N339 2.121 1_554 S
Co336 O344 2.055 . S
Co336 O347 2.039 . S
Co336 N350 2.140 1_554 S
C337 O338 1.227 . S
C337 O347 1.265 . S
O338 C337 1.227 . S
N339 Co336 2.121 1_556 S
N339 C341 1.375 . S
N339 C342 1.313 . S
C340 C341 1.338 . S
C340 N343 1.377 . S
C340 H360 0.930 . S
C341 N339 1.375 . S
C341 C340 1.338 . S
C341 H345 0.931 . S
C342 N339 1.313 . S
C342 N343 1.344 . S
C342 H346 0.930 . S
N343 C340 1.377 . S
N343 C342 1.344 . S
O344 Co336 2.055 . S
O344 C348 1.253 1_554 S
H345 C341 0.931 . S
H346 C342 0.930 . S
O347 Co336 2.039 . S
O347 C337 1.265 . S
C348 O344 1.253 1_556 S
C348 O349 1.227 . S
O349 C348 1.227 . S
N350 Co336 2.140 1_556 S
N350 C353 1.346 1_556 S
N350 C354 1.345 . S
C351 C352 1.387 . S
C351 C355 1.391 . S
C352 C351 1.387 . S
C352 C353 1.369 1_556 S
C352 H361 0.929 1_556 S
C353 N350 1.346 1_554 S
C353 C352 1.369 1_554 S
C353 H356 0.928 . S
C354 N350 1.345 . S
C354 C355 1.371 . S
C354 H357 0.931 . S
C355 C351 1.391 . S
C355 C354 1.371 . S
C355 H362 0.930 . S
H356 C353 0.928 . S
H357 C354 0.931 . S
H358 C334 0.930 . S
H359 C331 0.930 . S
H360 C340 0.930 . S
H361 C352 0.929 1_554 S
H362 C355 0.930 . S
C363 C364 1.351 . S
C363 N366 1.368 . S
C363 H368 0.931 . S
C364 C363 1.351 . S
C364 N365 1.373 . S
C364 H392 0.930 . S
N365 C364 1.373 . S
N365 C367 1.340 . S
N366 C363 1.368 . S
N366 C367 1.321 . S
N366 Co369 2.135 . S
C367 N365 1.340 . S
C367 N366 1.321 . S
C367 H391 0.930 . S
H368 C363 0.931 . S
Co369 N366 2.135 . S
Co369 N372 2.121 . S
Co369 O377 2.055 . S
Co369 O380 2.039 . S
Co369 N383 2.140 . S
C370 O371 1.227 . S
C370 O380 1.265 . S
O371 C370 1.227 . S
N372 Co369 2.121 . S
N372 C374 1.375 . S
N372 C375 1.313 . S
C373 C374 1.338 . S
C373 N376 1.377 . S
C373 H393 0.930 . S
C374 N372 1.375 . S
C374 C373 1.338 . S
C374 H378 0.931 . S
C375 N372 1.313 . S
C375 N376 1.344 . S
C375 H379 0.930 . S
N376 C373 1.377 . S
N376 C375 1.344 . S
O377 Co369 2.055 . S
O377 C381 1.253 . S
H378 C374 0.931 . S
H379 C375 0.930 . S
O380 Co369 2.039 . S
O380 C370 1.265 . S
C381 O377 1.253 . S
C381 O382 1.227 . S
O382 C381 1.227 . S
N383 Co369 2.140 . S
N383 C386 1.346 . S
N383 C387 1.345 . S
C384 C385 1.387 . S
C384 C388 1.391 1_545 S
C385 C384 1.387 . S
C385 C386 1.369 1_545 S
C385 H394 0.929 . S
C386 N383 1.346 . S
C386 C385 1.369 1_565 S
C386 H389 0.928 . S
C387 N383 1.345 . S
C387 C388 1.371 . S
C387 H390 0.931 . S
C388 C384 1.391 1_565 S
C388 C387 1.371 . S
C388 H395 0.930 . S
H389 C386 0.928 . S
H390 C387 0.931 . S
H391 C367 0.930 . S
H392 C364 0.930 . S
H393 C373 0.930 . S
H394 C385 0.929 . S
H395 C388 0.930 . S
C396 C397 1.351 . S
C396 N399 1.368 . S
C396 H401 0.931 . S
C397 C396 1.351 . S
C397 N398 1.373 . S
C397 H425 0.930 . S
N398 C397 1.373 . S
N398 C400 1.340 . S
N399 C396 1.368 . S
N399 C400 1.321 . S
N399 Co402 2.135 . S
C400 N398 1.340 . S
C400 N399 1.321 . S
C400 H424 0.930 . S
H401 C396 0.931 . S
Co402 N399 2.135 . S
Co402 N405 2.121 . S
Co402 O410 2.055 . S
Co402 O413 2.039 . S
Co402 N416 2.140 . S
C403 O404 1.227 . S
C403 O413 1.265 . S
O404 C403 1.227 . S
N405 Co402 2.121 . S
N405 C407 1.375 . S
N405 C408 1.313 . S
C406 C407 1.338 . S
C406 N409 1.377 . S
C406 H426 0.930 . S
C407 N405 1.375 . S
C407 C406 1.338 . S
C407 H411 0.931 . S
C408 N405 1.313 . S
C408 N409 1.344 . S
C408 H412 0.930 . S
N409 C406 1.377 . S
N409 C408 1.344 . S
O410 Co402 2.055 . S
O410 C414 1.253 . S
H411 C407 0.931 . S
H412 C408 0.930 . S
O413 Co402 2.039 . S
O413 C403 1.265 . S
C414 O410 1.253 . S
C414 O415 1.227 . S
O415 C414 1.227 . S
N416 Co402 2.140 . S
N416 C419 1.346 . S
N416 C420 1.345 . S
C417 C418 1.387 . S
C417 C421 1.391 . S
C418 C417 1.387 . S
C418 C419 1.369 . S
C418 H427 0.929 . S
C419 N416 1.346 . S
C419 C418 1.369 . S
C419 H422 0.928 . S
C420 N416 1.345 . S
C420 C421 1.371 . S
C420 H423 0.931 . S
C421 C417 1.391 . S
C421 C420 1.371 . S
C421 H428 0.930 . S
H422 C419 0.928 . S
H423 C420 0.931 . S
H424 C400 0.930 . S
H425 C397 0.930 . S
H426 C406 0.930 . S
H427 C418 0.929 . S
H428 C421 0.930 . S
C429 C430 1.351 . S
C429 N432 1.368 . S
C429 H434 0.931 . S
C430 C429 1.351 . S
C430 N431 1.373 . S
C430 H458 0.930 1_655 S
N431 C430 1.373 . S
N431 C433 1.340 . S
N432 C429 1.368 . S
N432 C433 1.321 . S
N432 Co435 2.135 . S
C433 N431 1.340 . S
C433 N432 1.321 . S
C433 H457 0.930 . S
H434 C429 0.931 . S
Co435 N432 2.135 . S
Co435 N438 2.121 . S
Co435 O443 2.055 . S
Co435 O446 2.039 . S
Co435 N449 2.140 . S
C436 O437 1.227 . S
C436 O446 1.265 . S
O437 C436 1.227 . S
N438 Co435 2.121 . S
N438 C440 1.375 . S
N438 C441 1.313 . S
C439 C440 1.338 . S
C439 N442 1.377 . S
C439 H459 0.930 . S
C440 N438 1.375 . S
C440 C439 1.338 . S
C440 H444 0.931 . S
C441 N438 1.313 . S
C441 N442 1.344 . S
C441 H445 0.930 . S
N442 C439 1.377 . S
N442 C441 1.344 . S
O443 Co435 2.055 . S
O443 C447 1.253 . S
H444 C440 0.931 . S
H445 C441 0.930 . S
O446 Co435 2.039 . S
O446 C436 1.265 . S
C447 O443 1.253 . S
C447 O448 1.227 . S
O448 C447 1.227 . S
N449 Co435 2.140 . S
N449 C452 1.346 . S
N449 C453 1.345 . S
C450 C451 1.387 . S
C450 C454 1.391 1_545 S
C451 C450 1.387 . S
C451 C452 1.369 1_545 S
C451 H460 0.929 . S
C452 N449 1.346 . S
C452 C451 1.369 1_565 S
C452 H455 0.928 . S
C453 N449 1.345 . S
C453 C454 1.371 . S
C453 H456 0.931 . S
C454 C450 1.391 1_565 S
C454 C453 1.371 . S
C454 H461 0.930 . S
H455 C452 0.928 . S
H456 C453 0.931 . S
H457 C433 0.930 . S
H458 C430 0.930 1_455 S
H459 C439 0.930 . S
H460 C451 0.929 . S
H461 C454 0.930 . S
C462 C463 1.351 . S
C462 N465 1.368 . S
C462 H467 0.931 . S
C463 C462 1.351 . S
C463 N464 1.373 . S
C463 H491 0.930 . S
N464 C463 1.373 . S
N464 C466 1.340 . S
N465 C462 1.368 . S
N465 C466 1.321 . S
N465 Co468 2.135 . S
C466 N464 1.340 . S
C466 N465 1.321 . S
C466 H490 0.930 . S
H467 C462 0.931 . S
Co468 N465 2.135 . S
Co468 N471 2.121 1_556 S
Co468 O476 2.055 . S
Co468 O479 2.039 . S
Co468 N482 2.140 1_556 S
C469 O470 1.227 . S
C469 O479 1.265 . S
O470 C469 1.227 . S
N471 Co468 2.121 1_554 S
N471 C473 1.375 . S
N471 C474 1.313 . S
C472 C473 1.338 . S
C472 N475 1.377 . S
C472 H492 0.930 . S
C473 N471 1.375 . S
C473 C472 1.338 . S
C473 H477 0.931 . S
C474 N471 1.313 . S
C474 N475 1.344 . S
C474 H478 0.930 . S
N475 C472 1.377 . S
N475 C474 1.344 . S
O476 Co468 2.055 . S
O476 C480 1.253 1_556 S
H477 C473 0.931 . S
H478 C474 0.930 . S
O479 Co468 2.039 . S
O479 C469 1.265 . S
C480 O476 1.253 1_554 S
C480 O481 1.227 . S
O481 C480 1.227 . S
N482 Co468 2.140 1_554 S
N482 C485 1.346 1_554 S
N482 C486 1.345 . S
C483 C484 1.387 . S
C483 C487 1.391 . S
C484 C483 1.387 . S
C484 C485 1.369 1_554 S
C484 H493 0.929 1_554 S
C485 N482 1.346 1_556 S
C485 C484 1.369 1_556 S
C485 H488 0.928 . S
C486 N482 1.345 . S
C486 C487 1.371 . S
C486 H489 0.931 . S
C487 C483 1.391 . S
C487 C486 1.371 . S
C487 H494 0.930 . S
H488 C485 0.928 . S
H489 C486 0.931 . S
H490 C466 0.930 . S
H491 C463 0.930 . S
H492 C472 0.930 . S
H493 C484 0.929 1_556 S
H494 C487 0.930 . S
C495 C496 1.351 . S
C495 N498 1.368 . S
C495 H500 0.931 . S
C496 C495 1.351 . S
C496 N497 1.373 . S
C496 H524 0.930 . S
N497 C496 1.373 . S
N497 C499 1.340 . S
N498 C495 1.368 . S
N498 C499 1.321 . S
N498 Co501 2.135 . S
C499 N497 1.340 . S
C499 N498 1.321 . S
C499 H523 0.930 . S
H500 C495 0.931 . S
Co501 N498 2.135 . S
Co501 N504 2.121 . S
Co501 O509 2.055 . S
Co501 O512 2.039 . S
Co501 N515 2.140 . S
C502 O503 1.227 . S
C502 O512 1.265 . S
O503 C502 1.227 . S
N504 Co501 2.121 . S
N504 C506 1.375 . S
N504 C507 1.313 . S
C505 C506 1.338 . S
C505 N508 1.377 . S
C505 H525 0.930 . S
C506 N504 1.375 . S
C506 C505 1.338 . S
C506 H510 0.931 . S
C507 N504 1.313 . S
C507 N508 1.344 . S
C507 H511 0.930 . S
N508 C505 1.377 . S
N508 C507 1.344 . S
O509 Co501 2.055 . S
O509 C513 1.253 . S
H510 C506 0.931 . S
H511 C507 0.930 . S
O512 Co501 2.039 . S
O512 C502 1.265 . S
C513 O509 1.253 . S
C513 O514 1.227 . S
O514 C513 1.227 . S
N515 Co501 2.140 . S
N515 C518 1.346 . S
N515 C519 1.345 . S
C516 C517 1.387 . S
C516 C520 1.391 1_565 S
C517 C516 1.387 . S
C517 C518 1.369 1_565 S
C517 H526 0.929 . S
C518 N515 1.346 . S
C518 C517 1.369 1_545 S
C518 H521 0.928 . S
C519 N515 1.345 . S
C519 C520 1.371 . S
C519 H522 0.931 . S
C520 C516 1.391 1_545 S
C520 C519 1.371 . S
C520 H527 0.930 . S
H521 C518 0.928 . S
H522 C519 0.931 . S
H523 C499 0.930 . S
H524 C496 0.930 . S
H525 C505 0.930 . S
H526 C517 0.929 . S
H527 C520 0.930 . S
H528 C534 0.930 . S
H529 C537 0.930 . S
H530 C538 0.930 . S
H531 C539 0.930 . S
H532 C542 0.930 . S
H533 C543 0.930 . S
C534 H528 0.930 . S
C534 C535 1.355 . S
C534 C536 1.415 . S
C535 C534 1.355 . S
C535 C537 1.419 . S
C536 C534 1.415 . S
C536 C541 1.425 . S
C536 C543 1.409 . S
C537 H529 0.930 . S
C537 C535 1.419 . S
C537 C538 1.362 . S
C538 H530 0.930 . S
C538 C537 1.362 . S
C538 C541 1.409 . S
C539 H531 0.930 . S
C539 C540 1.355 . S
C539 C541 1.415 . S
C540 C539 1.355 . S
C540 C542 1.419 . S
C541 C536 1.425 . S
C541 C538 1.409 . S
C541 C539 1.415 . S
C542 H532 0.930 . S
C542 C540 1.419 . S
C542 C543 1.362 . S
C543 H533 0.930 . S
C543 C536 1.409 . S
C543 C542 1.362 . S
H544 C550 0.930 . S
H545 C553 0.930 . S
H546 C554 0.930 . S
H547 C555 0.930 . S
H548 C558 0.930 . S
H549 C559 0.930 . S
C550 H544 0.930 . S
C550 C551 1.355 . S
C550 C552 1.415 . S
C551 C550 1.355 . S
C551 C553 1.419 . S
C552 C550 1.415 . S
C552 C557 1.425 . S
C552 C559 1.409 . S
C553 H545 0.930 . S
C553 C551 1.419 . S
C553 C554 1.362 . S
C554 H546 0.930 . S
C554 C553 1.362 . S
C554 C557 1.409 . S
C555 H547 0.930 . S
C555 C556 1.355 . S
C555 C557 1.415 . S
C556 C555 1.355 . S
C556 C558 1.419 . S
C557 C552 1.425 . S
C557 C554 1.409 . S
C557 C555 1.415 . S
C558 H548 0.930 . S
C558 C556 1.419 . S
C558 C559 1.362 . S
C559 H549 0.930 . S
C559 C552 1.409 . S
C559 C558 1.362 . S
H560 C566 0.930 . S
H561 C569 0.930 . S
H562 C570 0.930 . S
H563 C571 0.930 . S
H564 C574 0.930 . S
H565 C575 0.930 . S
C566 H560 0.930 . S
C566 C567 1.355 . S
C566 C568 1.415 . S
C567 C566 1.355 . S
C567 C569 1.419 . S
C568 C566 1.415 . S
C568 C573 1.425 . S
C568 C575 1.409 . S
C569 H561 0.930 . S
C569 C567 1.419 . S
C569 C570 1.362 . S
C570 H562 0.930 . S
C570 C569 1.362 . S
C570 C573 1.409 . S
C571 H563 0.930 . S
C571 C572 1.355 . S
C571 C573 1.415 . S
C572 C571 1.355 . S
C572 C574 1.419 . S
C573 C568 1.425 . S
C573 C570 1.409 . S
C573 C571 1.415 . S
C574 H564 0.930 . S
C574 C572 1.419 . S
C574 C575 1.362 . S
C575 H565 0.930 . S
C575 C568 1.409 . S
C575 C574 1.362 . S
H576 C582 0.930 . S
H577 C585 0.930 . S
H578 C586 0.930 . S
H579 C587 0.930 . S
H580 C590 0.930 . S
H581 C591 0.930 . S
C582 H576 0.930 . S
C582 C583 1.355 . S
C582 C584 1.415 . S
C583 C582 1.355 . S
C583 C585 1.419 . S
C584 C582 1.415 . S
C584 C589 1.425 . S
C584 C591 1.409 . S
C585 H577 0.930 . S
C585 C583 1.419 . S
C585 C586 1.362 . S
C586 H578 0.930 . S
C586 C585 1.362 . S
C586 C589 1.409 . S
C587 H579 0.930 . S
C587 C588 1.355 . S
C587 C589 1.415 . S
C588 C587 1.355 . S
C588 C590 1.419 . S
C589 C584 1.425 . S
C589 C586 1.409 . S
C589 C587 1.415 . S
C590 H580 0.930 . S
C590 C588 1.419 . S
C590 C591 1.362 . S
C591 H581 0.930 . S
C591 C584 1.409 . S
C591 C590 1.362 . S
H592 C598 0.930 . S
H593 C601 0.930 . S
H594 C602 0.930 . S
H595 C603 0.930 . S
H596 C606 0.930 . S
H597 C607 0.930 . S
C598 H592 0.930 . S
C598 C599 1.355 . S
C598 C600 1.415 . S
C599 C598 1.355 . S
C599 C601 1.419 . S
C600 C598 1.415 . S
C600 C605 1.425 . S
C600 C607 1.409 . S
C601 H593 0.930 . S
C601 C599 1.419 . S
C601 C602 1.362 . S
C602 H594 0.930 . S
C602 C601 1.362 . S
C602 C605 1.409 . S
C603 H595 0.930 . S
C603 C604 1.355 . S
C603 C605 1.415 . S
C604 C603 1.355 . S
C604 C606 1.419 . S
C605 C600 1.425 . S
C605 C602 1.409 . S
C605 C603 1.415 . S
C606 H596 0.930 . S
C606 C604 1.419 . S
C606 C607 1.362 . S
C607 H597 0.930 . S
C607 C600 1.409 . S
C607 C606 1.362 . S
H608 C614 0.930 . S
H609 C617 0.930 . S
H610 C618 0.930 . S
H611 C619 0.930 . S
H612 C622 0.930 . S
H613 C623 0.930 . S
C614 H608 0.930 . S
C614 C615 1.355 . S
C614 C616 1.415 . S
C615 C614 1.355 . S
C615 C617 1.419 . S
C616 C614 1.415 . S
C616 C621 1.425 . S
C616 C623 1.409 . S
C617 H609 0.930 . S
C617 C615 1.419 . S
C617 C618 1.362 . S
C618 H610 0.930 . S
C618 C617 1.362 . S
C618 C621 1.409 . S
C619 H611 0.930 . S
C619 C620 1.355 . S
C619 C621 1.415 . S
C620 C619 1.355 . S
C620 C622 1.419 . S
C621 C616 1.425 . S
C621 C618 1.409 . S
C621 C619 1.415 . S
C622 H612 0.930 . S
C622 C620 1.419 . S
C622 C623 1.362 . S
C623 H613 0.930 . S
C623 C616 1.409 . S
C623 C622 1.362 . S
H624 C630 0.930 . S
H625 C633 0.930 . S
H626 C634 0.930 . S
H627 C635 0.930 . S
H628 C638 0.930 . S
H629 C639 0.930 . S
C630 H624 0.930 . S
C630 C631 1.355 . S
C630 C632 1.415 . S
C631 C630 1.355 . S
C631 C633 1.419 . S
C632 C630 1.415 . S
C632 C637 1.425 . S
C632 C639 1.409 . S
C633 H625 0.930 . S
C633 C631 1.419 . S
C633 C634 1.362 . S
C634 H626 0.930 . S
C634 C633 1.362 . S
C634 C637 1.409 . S
C635 H627 0.930 . S
C635 C636 1.355 . S
C635 C637 1.415 . S
C636 C635 1.355 . S
C636 C638 1.419 . S
C637 C632 1.425 . S
C637 C634 1.409 . S
C637 C635 1.415 . S
C638 H628 0.930 . S
C638 C636 1.419 . S
C638 C639 1.362 . S
C639 H629 0.930 . S
C639 C632 1.409 . S
C639 C638 1.362 . S
H640 C646 0.930 . S
H641 C649 0.930 . S
H642 C650 0.930 . S
H643 C651 0.930 . S
H644 C654 0.930 . S
H645 C655 0.930 . S
C646 H640 0.930 . S
C646 C647 1.355 . S
C646 C648 1.415 . S
C647 C646 1.355 . S
C647 C649 1.419 . S
C648 C646 1.415 . S
C648 C653 1.425 . S
C648 C655 1.409 . S
C649 H641 0.930 . S
C649 C647 1.419 . S
C649 C650 1.362 . S
C650 H642 0.930 . S
C650 C649 1.362 . S
C650 C653 1.409 . S
C651 H643 0.930 . S
C651 C652 1.355 . S
C651 C653 1.415 . S
C652 C651 1.355 . S
C652 C654 1.419 . S
C653 C648 1.425 . S
C653 C650 1.409 . S
C653 C651 1.415 . S
C654 H644 0.930 . S
C654 C652 1.419 . S
C654 C655 1.362 . S
C655 H645 0.930 . S
C655 C648 1.409 . S
C655 C654 1.362 . S
H656 C662 0.930 . S
H657 C665 0.930 . S
H658 C666 0.930 . S
H659 C667 0.930 . S
H660 C670 0.926 1_455 S
H661 C671 0.930 . S
C662 H656 0.930 . S
C662 C663 1.355 . S
C662 C664 1.415 . S
C663 C662 1.355 . S
C663 C665 1.419 . S
C664 C662 1.415 . S
C664 C669 1.425 . S
C664 C671 1.409 . S
C665 H657 0.930 . S
C665 C663 1.419 . S
C665 C666 1.362 . S
C666 H658 0.930 . S
C666 C665 1.362 . S
C666 C669 1.409 . S
C667 H659 0.930 . S
C667 C668 1.355 . S
C667 C669 1.415 . S
C668 C667 1.355 . S
C668 C670 1.420 . S
C669 C664 1.425 . S
C669 C666 1.409 . S
C669 C667 1.415 . S
C670 H660 0.926 1_655 S
C670 C668 1.420 . S
C670 C671 1.365 . S
C671 H661 0.930 . S
C671 C664 1.409 . S
C671 C670 1.365 . S
H672 C678 0.930 . S
H673 C681 0.930 . S
H674 C682 0.930 . S
H675 C683 0.930 . S
H676 C686 0.930 . S
H677 C687 0.930 . S
C678 H672 0.930 . S
C678 C679 1.355 . S
C678 C680 1.415 . S
C679 C678 1.355 . S
C679 C681 1.419 . S
C680 C678 1.415 . S
C680 C685 1.425 . S
C680 C687 1.409 . S
C681 H673 0.930 . S
C681 C679 1.419 . S
C681 C682 1.362 . S
C682 H674 0.930 . S
C682 C681 1.362 . S
C682 C685 1.409 . S
C683 H675 0.930 . S
C683 C684 1.355 . S
C683 C685 1.415 . S
C684 C683 1.355 . S
C684 C686 1.419 . S
C685 C680 1.425 . S
C685 C682 1.409 . S
C685 C683 1.415 . S
C686 H676 0.930 . S
C686 C684 1.419 . S
C686 C687 1.362 . S
C687 H677 0.930 . S
C687 C680 1.409 . S
C687 C686 1.362 . S
H688 C694 0.930 . S
H689 C697 0.930 . S
H690 C698 0.930 . S
H691 C699 0.930 . S
H692 C702 0.930 . S
H693 C703 0.930 . S
C694 H688 0.930 . S
C694 C695 1.355 . S
C694 C696 1.415 . S
C695 C694 1.355 . S
C695 C697 1.419 . S
C696 C694 1.415 . S
C696 C701 1.425 . S
C696 C703 1.409 . S
C697 H689 0.930 . S
C697 C695 1.419 . S
C697 C698 1.362 . S
C698 H690 0.930 . S
C698 C697 1.362 . S
C698 C701 1.409 . S
C699 H691 0.930 . S
C699 C700 1.355 . S
C699 C701 1.415 . S
C700 C699 1.355 . S
C700 C702 1.419 . S
C701 C696 1.425 . S
C701 C698 1.409 . S
C701 C699 1.415 . S
C702 H692 0.930 . S
C702 C700 1.419 . S
C702 C703 1.362 . S
C703 H693 0.930 . S
C703 C696 1.409 . S
C703 C702 1.362 . S
H704 C710 0.930 . S
H705 C713 0.930 . S
H706 C714 0.930 . S
H707 C715 0.930 1_556 S
H708 C718 0.930 . S
H709 C719 0.930 . S
C710 H704 0.930 . S
C710 C711 1.355 . S
C710 C712 1.415 . S
C711 C710 1.355 . S
C711 C713 1.419 . S
C712 C710 1.415 . S
C712 C717 1.425 . S
C712 C719 1.409 . S
C713 H705 0.930 . S
C713 C711 1.419 . S
C713 C714 1.362 . S
C714 H706 0.930 . S
C714 C713 1.362 . S
C714 C717 1.409 . S
C715 H707 0.930 1_554 S
C715 C716 1.355 . S
C715 C717 1.415 . S
C716 C715 1.355 . S
C716 C718 1.419 . S
C717 C712 1.425 . S
C717 C714 1.409 . S
C717 C715 1.415 . S
C718 H708 0.930 . S
C718 C716 1.419 . S
C718 C719 1.362 . S
C719 H709 0.930 . S
C719 C712 1.409 . S
C719 C718 1.362 . S
H720 C726 0.930 . S
H721 C729 0.930 . S
H722 C730 0.930 . S
H723 C731 0.930 . S
H724 C734 0.930 1_655 S
H725 C735 0.930 . S
C726 H720 0.930 . S
C726 C727 1.355 . S
C726 C728 1.415 . S
C727 C726 1.355 . S
C727 C729 1.419 . S
C728 C726 1.415 . S
C728 C733 1.425 . S
C728 C735 1.409 . S
C729 H721 0.930 . S
C729 C727 1.419 . S
C729 C730 1.362 . S
C730 H722 0.930 . S
C730 C729 1.362 . S
C730 C733 1.409 . S
C731 H723 0.930 . S
C731 C732 1.355 . S
C731 C733 1.415 . S
C732 C731 1.355 . S
C732 C734 1.419 . S
C733 C728 1.425 . S
C733 C730 1.409 . S
C733 C731 1.415 . S
C734 H724 0.930 1_455 S
C734 C732 1.419 . S
C734 C735 1.362 . S
C735 H725 0.930 . S
C735 C728 1.409 . S
C735 C734 1.362 . S
H736 C742 0.930 . S
H737 C745 0.930 . S
H738 C746 0.930 . S
H739 C747 0.930 . S
H740 C750 0.930 . S
H741 C751 0.930 . S
C742 H736 0.930 . S
C742 C743 1.355 . S
C742 C744 1.415 . S
C743 C742 1.355 . S
C743 C745 1.419 . S
C744 C742 1.415 . S
C744 C749 1.425 . S
C744 C751 1.409 . S
C745 H737 0.930 . S
C745 C743 1.419 . S
C745 C746 1.362 . S
C746 H738 0.930 . S
C746 C745 1.362 . S
C746 C749 1.409 . S
C747 H739 0.930 . S
C747 C748 1.355 . S
C747 C749 1.415 . S
C748 C747 1.355 . S
C748 C750 1.419 . S
C749 C744 1.425 . S
C749 C746 1.409 . S
C749 C747 1.415 . S
C750 H740 0.930 . S
C750 C748 1.419 . S
C750 C751 1.362 . S
C751 H741 0.930 . S
C751 C744 1.409 . S
C751 C750 1.362 . S
H752 C758 0.930 . S
H753 C761 0.930 . S
H754 C762 0.930 . S
H755 C763 0.930 . S
H756 C766 0.930 . S
H757 C767 0.930 . S
C758 H752 0.930 . S
C758 C759 1.355 . S
C758 C760 1.415 . S
C759 C758 1.355 . S
C759 C761 1.419 . S
C760 C758 1.415 . S
C760 C765 1.425 . S
C760 C767 1.409 . S
C761 H753 0.930 . S
C761 C759 1.419 . S
C761 C762 1.362 . S
C762 H754 0.930 . S
C762 C761 1.362 . S
C762 C765 1.409 . S
C763 H755 0.930 . S
C763 C764 1.355 . S
C763 C765 1.415 . S
C764 C763 1.355 . S
C764 C766 1.419 . S
C765 C760 1.425 . S
C765 C762 1.409 . S
C765 C763 1.415 . S
C766 H756 0.930 . S
C766 C764 1.419 . S
C766 C767 1.362 . S
C767 H757 0.930 . S
C767 C760 1.409 . S
C767 C766 1.362 . S
H768 C774 0.930 . S
H769 C777 0.930 . S
H770 C778 0.930 . S
H771 C779 0.930 . S
H772 C782 0.930 . S
H773 C783 0.930 . S
C774 H768 0.930 . S
C774 C775 1.355 . S
C774 C776 1.415 . S
C775 C774 1.355 . S
C775 C777 1.419 . S
C776 C774 1.415 . S
C776 C781 1.425 . S
C776 C783 1.409 . S
C777 H769 0.930 . S
C777 C775 1.419 . S
C777 C778 1.362 . S
C778 H770 0.930 . S
C778 C777 1.362 . S
C778 C781 1.409 . S
C779 H771 0.930 . S
C779 C780 1.355 . S
C779 C781 1.415 . S
C780 C779 1.355 . S
C780 C782 1.419 . S
C781 C776 1.425 . S
C781 C778 1.409 . S
C781 C779 1.415 . S
C782 H772 0.930 . S
C782 C780 1.419 . S
C782 C783 1.362 . S
C783 H773 0.930 . S
C783 C776 1.409 . S
C783 C782 1.362 . S
H784 C790 0.930 . S
H785 C793 0.930 . S
H786 C794 0.930 . S
H787 C795 0.930 . S
H788 C798 0.930 . S
H789 C799 0.930 . S
C790 H784 0.930 . S
C790 C791 1.355 . S
C790 C792 1.415 . S
C791 C790 1.355 . S
C791 C793 1.419 . S
C792 C790 1.415 . S
C792 C797 1.425 . S
C792 C799 1.409 . S
C793 H785 0.930 . S
C793 C791 1.419 . S
C793 C794 1.362 . S
C794 H786 0.930 . S
C794 C793 1.362 . S
C794 C797 1.409 . S
C795 H787 0.930 . S
C795 C796 1.355 . S
C795 C797 1.415 . S
C796 C795 1.355 . S
C796 C798 1.419 . S
C797 C792 1.425 . S
C797 C794 1.409 . S
C797 C795 1.415 . S
C798 H788 0.930 . S
C798 C796 1.419 . S
C798 C799 1.362 . S
C799 H789 0.930 . S
C799 C792 1.409 . S
C799 C798 1.362 . S
H800 C806 0.930 . S
H801 C809 0.930 . S
H802 C810 0.930 . S
H803 C811 0.930 . S
H804 C814 0.930 . S
H805 C815 0.930 . S
C806 H800 0.930 . S
C806 C807 1.355 . S
C806 C808 1.415 . S
C807 C806 1.355 . S
C807 C809 1.419 . S
C808 C806 1.415 . S
C808 C813 1.425 . S
C808 C815 1.409 . S
C809 H801 0.930 . S
C809 C807 1.419 . S
C809 C810 1.362 . S
C810 H802 0.930 . S
C810 C809 1.362 . S
C810 C813 1.409 . S
C811 H803 0.930 . S
C811 C812 1.355 . S
C811 C813 1.415 . S
C812 C811 1.355 . S
C812 C814 1.419 . S
C813 C808 1.425 . S
C813 C810 1.409 . S
C813 C811 1.415 . S
C814 H804 0.930 . S
C814 C812 1.419 . S
C814 C815 1.362 . S
C815 H805 0.930 . S
C815 C808 1.409 . S
C815 C814 1.362 . S
H816 C822 0.930 . S
H817 C825 0.930 . S
H818 C826 0.930 . S
H819 C827 0.930 . S
H820 C830 0.930 . S
H821 C831 0.930 . S
C822 H816 0.930 . S
C822 C823 1.355 . S
C822 C824 1.415 . S
C823 C822 1.355 . S
C823 C825 1.419 . S
C824 C822 1.415 . S
C824 C829 1.425 . S
C824 C831 1.409 . S
C825 H817 0.930 . S
C825 C823 1.419 . S
C825 C826 1.362 . S
C826 H818 0.930 . S
C826 C825 1.362 . S
C826 C829 1.409 . S
C827 H819 0.930 . S
C827 C828 1.355 . S
C827 C829 1.415 . S
C828 C827 1.355 . S
C828 C830 1.419 . S
C829 C824 1.425 . S
C829 C826 1.409 . S
C829 C827 1.415 . S
C830 H820 0.930 . S
C830 C828 1.419 . S
C830 C831 1.362 . S
C831 H821 0.930 . S
C831 C824 1.409 . S
C831 C830 1.362 . S
H832 C838 0.930 . S
H833 C841 0.930 . S
H834 C842 0.930 1_554 S
H835 C843 0.930 . S
H836 C846 0.930 . S
H837 C847 0.930 1_556 S
C838 H832 0.930 . S
C838 C839 1.355 1_455 S
C838 C840 1.415 . S
C839 C838 1.355 1_655 S
C839 C841 1.419 . S
C840 C838 1.415 . S
C840 C845 1.425 1_456 S
C840 C847 1.409 1_556 S
C841 H833 0.930 . S
C841 C839 1.419 . S
C841 C842 1.362 . S
C842 H834 0.930 1_556 S
C842 C841 1.362 . S
C842 C845 1.409 1_556 S
C843 H835 0.930 . S
C843 C844 1.355 1_655 S
C843 C845 1.415 . S
C844 C843 1.355 1_455 S
C844 C846 1.419 . S
C845 C840 1.425 1_654 S
C845 C842 1.409 1_554 S
C845 C843 1.415 . S
C846 H836 0.930 . S
C846 C844 1.419 . S
C846 C847 1.362 . S
C847 H837 0.930 1_554 S
C847 C840 1.409 1_554 S
C847 C846 1.362 . S
H848 C854 0.930 . S
H849 C857 0.930 . S
H850 C858 0.930 . S
H851 C859 0.930 . S
H852 C862 0.930 . S
H853 C863 0.930 . S
C854 H848 0.930 . S
C854 C855 1.355 . S
C854 C856 1.415 . S
C855 C854 1.355 . S
C855 C857 1.419 . S
C856 C854 1.415 . S
C856 C861 1.425 . S
C856 C863 1.409 . S
C857 H849 0.930 . S
C857 C855 1.419 . S
C857 C858 1.362 . S
C858 H850 0.930 . S
C858 C857 1.362 . S
C858 C861 1.409 . S
C859 H851 0.930 . S
C859 C860 1.355 . S
C859 C861 1.415 . S
C860 C859 1.355 . S
C860 C862 1.419 . S
C861 C856 1.425 . S
C861 C858 1.409 . S
C861 C859 1.415 . S
C862 H852 0.930 . S
C862 C860 1.419 . S
C862 C863 1.362 . S
C863 H853 0.930 . S
C863 C856 1.409 . S
C863 C862 1.362 . S
H864 C870 0.930 . S
H865 C873 0.930 . S
H866 C874 0.930 . S
H867 C875 0.930 . S
H868 C878 0.930 . S
H869 C879 0.930 . S
C870 H864 0.930 . S
C870 C871 1.355 . S
C870 C872 1.415 . S
C871 C870 1.355 . S
C871 C873 1.419 . S
C872 C870 1.415 . S
C872 C877 1.425 . S
C872 C879 1.409 . S
C873 H865 0.930 . S
C873 C871 1.419 . S
C873 C874 1.362 . S
C874 H866 0.930 . S
C874 C873 1.362 . S
C874 C877 1.409 . S
C875 H867 0.930 . S
C875 C876 1.355 . S
C875 C877 1.415 . S
C876 C875 1.355 . S
C876 C878 1.419 . S
C877 C872 1.425 . S
C877 C874 1.409 . S
C877 C875 1.415 . S
C878 H868 0.930 . S
C878 C876 1.419 . S
C878 C879 1.362 . S
C879 H869 0.930 . S
C879 C872 1.409 . S
C879 C878 1.362 . S
H880 C886 0.930 . S
H881 C889 0.930 . S
H882 C890 0.936 . S
H883 C891 0.930 . S
H884 C894 0.930 . S
H885 C895 0.936 . S
C886 H880 0.930 . S
C886 C887 1.355 . S
C886 C888 1.415 1_554 S
C887 C886 1.355 . S
C887 C889 1.419 1_655 S
C888 C886 1.415 1_556 S
C888 C893 1.425 1_666 S
C888 C895 1.412 . S
C889 H881 0.930 . S
C889 C887 1.419 1_455 S
C889 C890 1.354 1_565 S
C890 H882 0.936 . S
C890 C889 1.354 1_545 S
C890 C893 1.412 . S
C891 H883 0.930 . S
C891 C892 1.355 . S
C891 C893 1.415 1_556 S
C892 C891 1.355 . S
C892 C894 1.419 1_455 S
C893 C888 1.425 1_444 S
C893 C890 1.412 . S
C893 C891 1.415 1_554 S
C894 H884 0.930 . S
C894 C892 1.419 1_655 S
C894 C895 1.354 1_545 S
C895 H885 0.936 . S
C895 C888 1.412 . S
C895 C894 1.354 1_565 S
H896 C902 0.930 . S
H897 C905 0.930 . S
H898 C906 0.930 . S
H899 C907 0.930 . S
H900 C910 0.930 . S
H901 C911 0.930 . S
C902 H896 0.930 . S
C902 C903 1.355 1_545 S
C902 C904 1.415 . S
C903 C902 1.355 1_565 S
C903 C905 1.419 . S
C904 C902 1.415 . S
C904 C909 1.425 1_545 S
C904 C911 1.409 . S
C905 H897 0.930 . S
C905 C903 1.419 . S
C905 C906 1.362 . S
C906 H898 0.930 . S
C906 C905 1.362 . S
C906 C909 1.409 . S
C907 H899 0.930 . S
C907 C908 1.355 1_565 S
C907 C909 1.415 . S
C908 C907 1.355 1_545 S
C908 C910 1.419 . S
C909 C904 1.425 1_565 S
C909 C906 1.409 . S
C909 C907 1.415 . S
C910 H900 0.930 . S
C910 C908 1.419 . S
C910 C911 1.362 . S
C911 H901 0.930 . S
C911 C904 1.409 . S
C911 C910 1.362 . S
H912 C918 0.930 . S
H913 C921 0.930 . S
H914 C922 0.930 . S
H915 C923 0.930 . S
H916 C926 0.930 . S
H917 C927 0.930 . S
C918 H912 0.930 . S
C918 C919 1.355 . S
C918 C920 1.415 . S
C919 C918 1.355 . S
C919 C921 1.419 . S
C920 C918 1.415 . S
C920 C925 1.425 . S
C920 C927 1.409 . S
C921 H913 0.930 . S
C921 C919 1.419 . S
C921 C922 1.362 . S
C922 H914 0.930 . S
C922 C921 1.362 . S
C922 C925 1.409 . S
C923 H915 0.930 . S
C923 C924 1.355 . S
C923 C925 1.415 . S
C924 C923 1.355 . S
C924 C926 1.419 . S
C925 C920 1.425 . S
C925 C922 1.409 . S
C925 C923 1.415 . S
C926 H916 0.930 . S
C926 C924 1.419 . S
C926 C927 1.362 . S
C927 H917 0.930 . S
C927 C920 1.409 . S
C927 C926 1.362 . S
H928 C934 0.930 . S
H929 C937 0.930 . S
H930 C938 0.930 . S
H931 C939 0.930 . S
H932 C942 0.930 . S
H933 C943 0.930 . S
C934 H928 0.930 . S
C934 C935 1.355 . S
C934 C936 1.415 . S
C935 C934 1.355 . S
C935 C937 1.419 . S
C936 C934 1.415 . S
C936 C941 1.425 . S
C936 C943 1.409 . S
C937 H929 0.930 . S
C937 C935 1.419 . S
C937 C938 1.362 . S
C938 H930 0.930 . S
C938 C937 1.362 . S
C938 C941 1.409 . S
C939 H931 0.930 . S
C939 C940 1.355 . S
C939 C941 1.415 . S
C940 C939 1.355 . S
C940 C942 1.419 . S
C941 C936 1.425 . S
C941 C938 1.409 . S
C941 C939 1.415 . S
C942 H932 0.930 . S
C942 C940 1.419 . S
C942 C943 1.362 . S
C943 H933 0.930 . S
C943 C936 1.409 . S
C943 C942 1.362 . S
H944 C950 0.930 . S
H945 C953 0.930 . S
H946 C954 0.930 . S
H947 C955 0.930 . S
H948 C958 0.930 . S
H949 C959 0.930 . S
C950 H944 0.930 . S
C950 C951 1.355 . S
C950 C952 1.415 . S
C951 C950 1.355 . S
C951 C953 1.419 . S
C952 C950 1.415 . S
C952 C957 1.425 . S
C952 C959 1.409 . S
C953 H945 0.930 . S
C953 C951 1.419 . S
C953 C954 1.362 . S
C954 H946 0.930 . S
C954 C953 1.362 . S
C954 C957 1.409 . S
C955 H947 0.930 . S
C955 C956 1.355 . S
C955 C957 1.415 . S
C956 C955 1.355 . S
C956 C958 1.419 . S
C957 C952 1.425 . S
C957 C954 1.409 . S
C957 C955 1.415 . S
C958 H948 0.930 . S
C958 C956 1.419 . S
C958 C959 1.362 . S
C959 H949 0.930 . S
C959 C952 1.409 . S
C959 C958 1.362 . S
H960 C966 0.930 . S
H961 C969 0.930 . S
H962 C970 0.930 . S
H963 C971 0.930 . S
H964 C974 0.930 . S
H965 C975 0.930 . S
C966 H960 0.930 . S
C966 C967 1.355 . S
C966 C968 1.415 . S
C967 C966 1.355 . S
C967 C969 1.419 . S
C968 C966 1.415 . S
C968 C973 1.425 . S
C968 C975 1.409 . S
C969 H961 0.930 . S
C969 C967 1.419 . S
C969 C970 1.362 . S
C970 H962 0.930 . S
C970 C969 1.362 . S
C970 C973 1.409 . S
C971 H963 0.930 . S
C971 C972 1.355 . S
C971 C973 1.415 . S
C972 C971 1.355 . S
C972 C974 1.419 . S
C973 C968 1.425 . S
C973 C970 1.409 . S
C973 C971 1.415 . S
C974 H964 0.930 . S
C974 C972 1.419 . S
C974 C975 1.362 . S
C975 H965 0.930 . S
C975 C968 1.409 . S
C975 C974 1.362 . S
H976 C982 0.930 . S
H977 C985 0.948 . S
H978 C986 0.930 . S
H979 C987 0.930 . S
H980 C990 0.930 . S
H981 C991 0.930 . S
C982 H976 0.930 . S
C982 C983 1.355 . S
C982 C984 1.415 . S
C983 C982 1.355 . S
C983 C985 1.419 . S
C984 C982 1.415 . S
C984 C989 1.425 . S
C984 C991 1.409 . S
C985 H977 0.948 . S
C985 C983 1.419 . S
C985 C986 1.362 . S
C986 H978 0.930 . S
C986 C985 1.362 . S
C986 C989 1.409 . S
C987 H979 0.930 . S
C987 C988 1.355 . S
C987 C989 1.415 . S
C988 C987 1.355 . S
C988 C990 1.419 . S
C989 C984 1.425 . S
C989 C986 1.409 . S
C989 C987 1.415 . S
C990 H980 0.930 . S
C990 C988 1.419 . S
C990 C991 1.362 . S
C991 H981 0.930 . S
C991 C984 1.409 . S
C991 C990 1.362 . S
H992 C998 0.930 . S
H993 C1001 0.930 . S
H994 C1002 0.930 . S
H995 C1003 0.930 . S
H996 C1006 0.930 . S
H997 C1007 0.930 . S
C998 H992 0.930 . S
C998 C999 1.355 . S
C998 C1000 1.415 . S
C999 C998 1.355 . S
C999 C1001 1.419 . S
C1000 C998 1.415 . S
C1000 C1005 1.425 . S
C1000 C1007 1.409 . S
C1001 H993 0.930 . S
C1001 C999 1.419 . S
C1001 C1002 1.362 . S
C1002 H994 0.930 . S
C1002 C1001 1.362 . S
C1002 C1005 1.409 . S
C1003 H995 0.930 . S
C1003 C1004 1.355 . S
C1003 C1005 1.415 . S
C1004 C1003 1.355 . S
C1004 C1006 1.419 . S
C1005 C1000 1.425 . S
C1005 C1002 1.409 . S
C1005 C1003 1.415 . S
C1006 H996 0.930 . S
C1006 C1004 1.419 . S
C1006 C1007 1.362 . S
C1007 H997 0.930 . S
C1007 C1000 1.409 . S
C1007 C1006 1.362 . S
H1008 C1014 0.930 . S
H1009 C1017 0.930 . S
H1010 C1018 0.930 . S
H1011 C1019 0.930 . S
H1012 C1022 0.930 . S
H1013 C1023 0.930 . S
C1014 H1008 0.930 . S
C1014 C1015 1.355 . S
C1014 C1016 1.415 . S
C1015 C1014 1.355 . S
C1015 C1017 1.419 . S
C1016 C1014 1.415 . S
C1016 C1021 1.425 . S
C1016 C1023 1.409 . S
C1017 H1009 0.930 . S
C1017 C1015 1.419 . S
C1017 C1018 1.362 . S
C1018 H1010 0.930 . S
C1018 C1017 1.362 . S
C1018 C1021 1.409 . S
C1019 H1011 0.930 . S
C1019 C1020 1.355 . S
C1019 C1021 1.415 . S
C1020 C1019 1.355 . S
C1020 C1022 1.419 . S
C1021 C1016 1.425 . S
C1021 C1018 1.409 . S
C1021 C1019 1.415 . S
C1022 H1012 0.930 . S
C1022 C1020 1.419 . S
C1022 C1023 1.362 . S
C1023 H1013 0.930 . S
C1023 C1016 1.409 . S
C1023 C1022 1.362 . S
H1024 C1030 0.930 . S
H1025 C1033 0.930 . S
H1026 C1034 0.930 . S
H1027 C1035 0.930 . S
H1028 C1038 0.930 . S
H1029 C1039 0.930 . S
C1030 H1024 0.930 . S
C1030 C1031 1.355 . S
C1030 C1032 1.415 . S
C1031 C1030 1.355 . S
C1031 C1033 1.419 . S
C1032 C1030 1.415 . S
C1032 C1037 1.425 . S
C1032 C1039 1.409 . S
C1033 H1025 0.930 . S
C1033 C1031 1.419 . S
C1033 C1034 1.362 . S
C1034 H1026 0.930 . S
C1034 C1033 1.362 . S
C1034 C1037 1.409 . S
C1035 H1027 0.930 . S
C1035 C1036 1.355 . S
C1035 C1037 1.415 . S
C1036 C1035 1.355 . S
C1036 C1038 1.419 . S
C1037 C1032 1.425 . S
C1037 C1034 1.409 . S
C1037 C1035 1.415 . S
C1038 H1028 0.930 . S
C1038 C1036 1.419 . S
C1038 C1039 1.362 . S
C1039 H1029 0.930 . S
C1039 C1032 1.409 . S
C1039 C1038 1.362 . S
H1040 C1046 0.930 . S
H1041 C1049 0.930 . S
H1042 C1050 0.930 . S
H1043 C1051 0.930 . S
H1044 C1054 0.930 . S
H1045 C1055 0.930 . S
C1046 H1040 0.930 . S
C1046 C1047 1.355 . S
C1046 C1048 1.415 . S
C1047 C1046 1.355 . S
C1047 C1049 1.419 . S
C1048 C1046 1.415 . S
C1048 C1053 1.425 . S
C1048 C1055 1.409 . S
C1049 H1041 0.930 . S
C1049 C1047 1.419 . S
C1049 C1050 1.362 . S
C1050 H1042 0.930 . S
C1050 C1049 1.362 . S
C1050 C1053 1.409 . S
C1051 H1043 0.930 . S
C1051 C1052 1.355 . S
C1051 C1053 1.415 . S
C1052 C1051 1.355 . S
C1052 C1054 1.419 . S
C1053 C1048 1.425 . S
C1053 C1050 1.409 . S
C1053 C1051 1.415 . S
C1054 H1044 0.930 . S
C1054 C1052 1.419 . S
C1054 C1055 1.362 . S
C1055 H1045 0.930 . S
C1055 C1048 1.409 . S
C1055 C1054 1.362 . S
H1056 C1062 0.930 . S
H1057 C1065 0.930 . S
H1058 C1066 0.930 . S
H1059 C1067 0.930 . S
H1060 C1070 0.930 . S
H1061 C1071 0.930 . S
C1062 H1056 0.930 . S
C1062 C1063 1.355 . S
C1062 C1064 1.415 . S
C1063 C1062 1.355 . S
C1063 C1065 1.419 . S
C1064 C1062 1.415 . S
C1064 C1069 1.425 . S
C1064 C1071 1.409 . S
C1065 H1057 0.930 . S
C1065 C1063 1.419 . S
C1065 C1066 1.362 . S
C1066 H1058 0.930 . S
C1066 C1065 1.362 . S
C1066 C1069 1.409 . S
C1067 H1059 0.930 . S
C1067 C1068 1.355 . S
C1067 C1069 1.415 . S
C1068 C1067 1.355 . S
C1068 C1070 1.419 . S
C1069 C1064 1.425 . S
C1069 C1066 1.409 . S
C1069 C1067 1.415 . S
C1070 H1060 0.930 . S
C1070 C1068 1.419 . S
C1070 C1071 1.362 . S
C1071 H1061 0.930 . S
C1071 C1064 1.409 . S
C1071 C1070 1.362 . S
H1072 C1078 0.930 . S
H1073 C1081 0.930 . S
H1074 C1082 0.930 . S
H1075 C1083 0.930 . S
H1076 C1086 0.930 . S
H1077 C1087 0.930 . S
C1078 H1072 0.930 . S
C1078 C1079 1.355 . S
C1078 C1080 1.415 . S
C1079 C1078 1.355 . S
C1079 C1081 1.419 . S
C1080 C1078 1.415 . S
C1080 C1085 1.425 . S
C1080 C1087 1.409 . S
C1081 H1073 0.930 . S
C1081 C1079 1.419 . S
C1081 C1082 1.362 . S
C1082 H1074 0.930 . S
C1082 C1081 1.362 . S
C1082 C1085 1.409 . S
C1083 H1075 0.930 . S
C1083 C1084 1.355 . S
C1083 C1085 1.415 . S
C1084 C1083 1.355 . S
C1084 C1086 1.419 . S
C1085 C1080 1.425 . S
C1085 C1082 1.409 . S
C1085 C1083 1.415 . S
C1086 H1076 0.930 . S
C1086 C1084 1.419 . S
C1086 C1087 1.362 . S
C1087 H1077 0.930 . S
C1087 C1080 1.409 . S
C1087 C1086 1.362 . S
H1088 C1094 0.930 . S
H1089 C1097 0.930 . S
H1090 C1098 0.930 . S
H1091 C1099 0.930 . S
H1092 C1102 0.930 . S
H1093 C1103 0.930 . S
C1094 H1088 0.930 . S
C1094 C1095 1.355 . S
C1094 C1096 1.415 . S
C1095 C1094 1.355 . S
C1095 C1097 1.419 . S
C1096 C1094 1.415 . S
C1096 C1101 1.425 . S
C1096 C1103 1.409 . S
C1097 H1089 0.930 . S
C1097 C1095 1.419 . S
C1097 C1098 1.362 . S
C1098 H1090 0.930 . S
C1098 C1097 1.362 . S
C1098 C1101 1.409 . S
C1099 H1091 0.930 . S
C1099 C1100 1.355 . S
C1099 C1101 1.415 . S
C1100 C1099 1.355 . S
C1100 C1102 1.419 . S
C1101 C1096 1.425 . S
C1101 C1098 1.409 . S
C1101 C1099 1.415 . S
C1102 H1092 0.930 . S
C1102 C1100 1.419 . S
C1102 C1103 1.362 . S
C1103 H1093 0.930 . S
C1103 C1096 1.409 . S
C1103 C1102 1.362 . S
H1104 C1110 0.930 . S
H1105 C1113 0.930 . S
H1106 C1114 0.930 . S
H1107 C1115 0.930 . S
H1108 C1118 0.930 . S
H1109 C1119 0.930 . S
C1110 H1104 0.930 . S
C1110 C1111 1.355 . S
C1110 C1112 1.415 . S
C1111 C1110 1.355 . S
C1111 C1113 1.419 . S
C1112 C1110 1.415 . S
C1112 C1117 1.425 . S
C1112 C1119 1.409 . S
C1113 H1105 0.930 . S
C1113 C1111 1.419 . S
C1113 C1114 1.362 . S
C1114 H1106 0.930 . S
C1114 C1113 1.362 . S
C1114 C1117 1.409 . S
C1115 H1107 0.930 . S
C1115 C1116 1.355 . S
C1115 C1117 1.415 . S
C1116 C1115 1.355 . S
C1116 C1118 1.419 . S
C1117 C1112 1.425 . S
C1117 C1114 1.409 . S
C1117 C1115 1.415 . S
C1118 H1108 0.930 . S
C1118 C1116 1.419 . S
C1118 C1119 1.362 . S
C1119 H1109 0.930 . S
C1119 C1112 1.409 . S
C1119 C1118 1.362 . S
H1120 C1126 0.930 . S
H1121 C1129 0.930 . S
H1122 C1130 0.930 . S
H1123 C1131 0.930 . S
H1124 C1134 0.930 . S
H1125 C1135 0.930 . S
C1126 H1120 0.930 . S
C1126 C1127 1.355 . S
C1126 C1128 1.415 . S
C1127 C1126 1.355 . S
C1127 C1129 1.419 . S
C1128 C1126 1.415 . S
C1128 C1133 1.425 . S
C1128 C1135 1.409 . S
C1129 H1121 0.930 . S
C1129 C1127 1.419 . S
C1129 C1130 1.362 . S
C1130 H1122 0.930 . S
C1130 C1129 1.362 . S
C1130 C1133 1.409 . S
C1131 H1123 0.930 . S
C1131 C1132 1.355 . S
C1131 C1133 1.415 . S
C1132 C1131 1.355 . S
C1132 C1134 1.419 . S
C1133 C1128 1.425 . S
C1133 C1130 1.409 . S
C1133 C1131 1.415 . S
C1134 H1124 0.930 . S
C1134 C1132 1.419 . S
C1134 C1135 1.362 . S
C1135 H1125 0.930 . S
C1135 C1128 1.409 . S
C1135 C1134 1.362 . S
H1136 C1142 0.930 . S
H1137 C1145 0.930 . S
H1138 C1146 0.930 . S
H1139 C1147 0.930 . S
H1140 C1150 0.930 . S
H1141 C1151 0.930 . S
C1142 H1136 0.930 . S
C1142 C1143 1.355 . S
C1142 C1144 1.415 . S
C1143 C1142 1.355 . S
C1143 C1145 1.419 . S
C1144 C1142 1.415 . S
C1144 C1149 1.425 . S
C1144 C1151 1.409 . S
C1145 H1137 0.930 . S
C1145 C1143 1.419 . S
C1145 C1146 1.362 . S
C1146 H1138 0.930 . S
C1146 C1145 1.362 . S
C1146 C1149 1.409 . S
C1147 H1139 0.930 . S
C1147 C1148 1.355 . S
C1147 C1149 1.415 . S
C1148 C1147 1.355 . S
C1148 C1150 1.419 . S
C1149 C1144 1.425 . S
C1149 C1146 1.409 . S
C1149 C1147 1.415 . S
C1150 H1140 0.930 . S
C1150 C1148 1.419 . S
C1150 C1151 1.362 . S
C1151 H1141 0.930 . S
C1151 C1144 1.409 . S
C1151 C1150 1.362 . S
H1152 C1158 0.930 . S
H1153 C1161 0.930 . S
H1154 C1162 0.930 . S
H1155 C1163 0.930 . S
H1156 C1166 0.930 . S
H1157 C1167 0.930 . S
C1158 H1152 0.930 . S
C1158 C1159 1.355 . S
C1158 C1160 1.415 . S
C1159 C1158 1.355 . S
C1159 C1161 1.419 . S
C1160 C1158 1.415 . S
C1160 C1165 1.425 . S
C1160 C1167 1.409 . S
C1161 H1153 0.930 . S
C1161 C1159 1.419 . S
C1161 C1162 1.362 . S
C1162 H1154 0.930 . S
C1162 C1161 1.362 . S
C1162 C1165 1.409 . S
C1163 H1155 0.930 . S
C1163 C1164 1.355 . S
C1163 C1165 1.415 . S
C1164 C1163 1.355 . S
C1164 C1166 1.419 . S
C1165 C1160 1.425 . S
C1165 C1162 1.409 . S
C1165 C1163 1.415 . S
C1166 H1156 0.930 . S
C1166 C1164 1.419 . S
C1166 C1167 1.362 . S
C1167 H1157 0.930 . S
C1167 C1160 1.409 . S
C1167 C1166 1.362 . S
C535 C513 1.447 . S
C540 N13 1.439 . S
C551 N46 1.462 . S
C556 C150 1.442 . S
C567 N79 1.400 . S
C572 C447 1.474 1_455 S
C583 N112 1.418 . S
C588 C216 1.472 . S
C599 N145 1.425 . S
C604 C381 1.456 . S
C615 C18 1.450 . S
C620 N178 1.435 . S
C631 C315 1.477 1_655 S
C636 N211 1.397 . S
C647 N244 1.464 . S
C652 C84 1.436 . S
C663 N277 1.454 . S
C668 C249 1.440 1_655 S
C679 N310 1.396 . S
C684 C414 1.478 . S
C695 C183 1.458 . S
C700 N343 1.422 . S
C711 N376 1.464 . S
C716 C480 1.436 . S
C727 N409 1.462 . S
C732 C117 1.436 1_455 S
C743 N442 1.450 . S
C748 C282 1.452 . S
C759 C51 1.436 . S
C764 N475 1.465 . S
C775 N508 1.394 . S
C780 C348 1.480 . S
C791 N2 1.576 . S
C796 N398 1.576 . S
C807 N167 1.583 . S
C812 N35 1.583 . S
C823 N68 1.627 . S
C828 N464 1.627 . S
C839 N101 1.620 . S
C844 N233 1.620 . S
C855 N266 1.568 . S
C860 N134 1.568 . S
C871 N332 1.568 . S
C876 N200 1.568 . S
C887 N431 1.571 . S
C892 N299 1.571 . S
C903 N365 1.575 . S
C908 N497 1.575 . S
C919 C304 1.362 . S
C924 C21 1.363 . S
C935 C54 1.362 . S
C940 C337 1.366 . S
C951 C87 1.361 . S
C956 C370 1.365 . S
C967 C271 1.334 . S
C972 C120 1.365 . S
C983 C153 1.359 . S
C988 C436 1.323 . S
C999 C186 1.359 . S
C1004 C469 1.334 . S
C1015 C219 1.365 . S
C1020 C502 1.335 . S
C1031 C252 1.365 . S
C1036 C403 1.340 . S
C1047 C40 1.329 . S
C1052 C285 1.364 . S
C1063 C318 1.365 . S
C1068 C73 1.342 . S
C1079 C351 1.364 . S
C1084 C106 1.356 . S
C1095 C384 1.364 . S
C1100 C7 1.320 . S
C1111 C417 1.359 . S
C1116 C172 1.352 . S
C1127 C205 1.359 . S
C1132 C450 1.360 . S
C1143 C238 1.362 . S
C1148 C483 1.360 . S
C1159 C516 1.364 . S
C1164 C139 1.320 . S
