# Generated by pormake.
# Topology qtz-e, (6)-cn, num edge types: 1
# Building blocks:
#     Node 0, Type 0, BuildingBlock: CUKXOW_clean_sbu_0, # of connection points: 6
#     Node 1, Type 0, BuildingBlock: CUKXOW_clean_sbu_0, # of connection points: 6
#     Node 2, Type 0, BuildingBlock: CUKXOW_clean_sbu_0, # of connection points: 6
#     Node 3, Type 0, BuildingBlock: CUKXOW_clean_sbu_0, # of connection points: 6
#     Node 4, Type 0, BuildingBlock: CUKXOW_clean_sbu_0, # of connection points: 6
#     Node 5, Type 0, BuildingBlock: CUKXOW_clean_sbu_0, # of connection points: 6
#     Edge 6, Type (0, 0), BuildingBlock: KIFKEQ_clean_linker_1, # of connection points: 2
#     Edge 7, Type (0, 0), BuildingBlock: KIFKEQ_clean_linker_1, # of connection points: 2
#     Edge 8, Type (0, 0), BuildingBlock: KIFKEQ_clean_linker_1, # of connection points: 2
#     Edge 9, Type (0, 0), BuildingBlock: KIFKEQ_clean_linker_1, # of connection points: 2
#     Edge 10, Type (0, 0), BuildingBlock: KIFKEQ_clean_linker_1, # of connection points: 2
#     Edge 11, Type (0, 0), BuildingBlock: KIFKEQ_clean_linker_1, # of connection points: 2
#     Edge 12, Type (0, 0), BuildingBlock: KIFKEQ_clean_linker_1, # of connection points: 2
#     Edge 13, Type (0, 0), BuildingBlock: KIFKEQ_clean_linker_1, # of connection points: 2
#     Edge 14, Type (0, 0), BuildingBlock: KIFKEQ_clean_linker_1, # of connection points: 2
#     Edge 15, Type (0, 0), BuildingBlock: KIFKEQ_clean_linker_1, # of connection points: 2
#     Edge 16, Type (0, 0), BuildingBlock: KIFKEQ_clean_linker_1, # of connection points: 2
#     Edge 17, Type (0, 0), BuildingBlock: KIFKEQ_clean_linker_1, # of connection points: 2
#     Edge 18, Type (0, 0), BuildingBlock: KIFKEQ_clean_linker_1, # of connection points: 2
#     Edge 19, Type (0, 0), BuildingBlock: KIFKEQ_clean_linker_1, # of connection points: 2
#     Edge 20, Type (0, 0), BuildingBlock: KIFKEQ_clean_linker_1, # of connection points: 2
#     Edge 21, Type (0, 0), BuildingBlock: KIFKEQ_clean_linker_1, # of connection points: 2
#     Edge 22, Type (0, 0), BuildingBlock: KIFKEQ_clean_linker_1, # of connection points: 2
#     Edge 23, Type (0, 0), BuildingBlock: KIFKEQ_clean_linker_1, # of connection points: 2
# Relax obj value: 0.116
# Max RMSD: 0.164
# Mean RMSD: 0.164
data_MOF--net-qtz-e--node1-CUKXOW_clean_sbu_0--edge1-KIFKEQ_clean_linker_1
_symmetry_space_group_name_H-M    P1
_symmetry_Int_Tables_number       1
_symmetry_cell_setting            triclinic
loop_
_symmetry_equiv_pos_as_xyz
'x, y, z'
_cell_length_a     26.839741
_cell_length_b     26.789188
_cell_length_c     37.969773
_cell_angle_alpha  89.89494
_cell_angle_beta   89.925449
_cell_angle_gamma 119.56887
loop_
_atom_site_label
_atom_site_type_symbol
_atom_site_fract_x
_atom_site_fract_y
_atom_site_fract_z
_atom_type_partial_charge
Tb0 Tb 0.14274 0.35991 0.05031 0.0
C1 C 0.27147 0.396 0.05875 0.0
Tb2 Tb 0.2294 0.44685 0.9985 0.0
O3 O 0.14802 0.2897 1.02361 0.0
O4 O 0.16093 0.36188 0.99587 0.0
O5 O 0.22371 0.38269 0.0763 0.0
C6 C 0.30537 0.50185 0.94716 0.0
O7 O 0.27948 0.41457 1.02572 0.0
C8 C 0.20533 0.49097 0.05329 0.0
C9 C 0.10333 0.42079 0.99267 0.0
O10 O 0.26826 0.44748 0.94753 0.0
O11 O 0.30017 0.52495 0.9759 0.0
O12 O 0.22141 0.51636 1.02293 0.0
O13 O 0.20939 0.44608 0.05291 0.0
O14 O 0.15242 0.43928 0.97558 0.0
O15 O 0.09119 0.39088 1.02261 0.0
C16 C 0.06649 0.30672 0.10207 0.0
O17 O 0.07831 0.35537 0.08777 0.0
O18 O 0.09714 0.28768 0.08693 0.0
C19 C 0.16348 0.31651 0.99369 0.0
Tb20 Tb 0.79478 0.15619 0.39101 0.0
C21 C 0.88595 0.288 0.40071 0.0
Tb22 Tb 0.79688 0.24705 0.33981 0.0
O23 O 0.833 0.12695 0.34966 0.0
O24 O 0.84864 0.21071 0.35105 0.0
O25 O 0.85646 0.23721 0.41638 0.0
C26 C 0.80825 0.3078 0.28167 0.0
O27 O 0.87671 0.29764 0.3677 0.0
C28 C 0.73905 0.23192 0.39806 0.0
C29 C 0.69821 0.1166 0.33311 0.0
O30 O 0.80149 0.32193 0.31329 0.0
O31 O 0.80846 0.2595 0.28283 0.0
O32 O 0.76137 0.27939 0.38001 0.0
O33 O 0.74372 0.19445 0.38084 0.0
O34 O 0.72778 0.16747 0.31744 0.0
O35 O 0.71334 0.10524 0.3642 0.0
C36 C 0.78144 0.09567 0.44983 0.0
O37 O 0.7928 0.08305 0.41889 0.0
O38 O 0.7783 0.14227 0.4475 0.0
C39 C 0.85575 0.17577 0.33303 0.0
Tb40 Tb 0.60769 0.77909 0.72191 0.0
C41 C 0.5534 0.86103 0.73232 0.0
Tb42 Tb 0.52274 0.78018 0.66738 0.0
O43 O 0.6799 0.82506 0.6851 0.0
O44 O 0.60811 0.83541 0.68284 0.0
O45 O 0.58013 0.83559 0.747 0.0
C46 C 0.46998 0.78718 0.60945 0.0
O47 O 0.53441 0.85192 0.69939 0.0
C48 C 0.47772 0.71654 0.72336 0.0
C49 C 0.56977 0.69314 0.65835 0.0
O50 O 0.44587 0.75121 0.63518 0.0
O51 O 0.524 0.8197 0.61638 0.0
O52 O 0.45367 0.74116 0.70635 0.0
O53 O 0.52188 0.72442 0.70711 0.0
O54 O 0.54994 0.72396 0.64242 0.0
O55 O 0.58803 0.70264 0.69152 0.0
C56 C 0.64902 0.76321 0.78252 0.0
O57 O 0.67739 0.78009 0.75307 0.0
O58 O 0.59809 0.75587 0.77771 0.0
C59 C 0.65374 0.84671 0.66726 0.0
Tb60 Tb 0.79894 0.61418 0.06334 0.0
C61 C 0.66367 0.54054 0.07446 0.0
Tb62 Tb 0.72394 0.52453 1.00839 0.0
O63 O 0.81625 0.68543 0.02711 0.0
O64 O 0.74107 0.60733 1.02336 0.0
O65 O 0.71413 0.57717 0.0884 0.0
C66 C 0.67108 0.4674 0.95035 0.0
O67 O 0.65693 0.51928 0.04222 0.0
C68 C 0.74851 0.48315 0.06405 0.0
C69 C 0.85605 0.58824 0.99959 0.0
O70 O 0.65951 0.50272 0.96702 0.0
O71 O 0.71208 0.46428 0.96635 0.0
O72 O 0.70335 0.45371 0.04483 0.0
O73 O 0.78048 0.53046 0.04919 0.0
O74 O 0.80724 0.57113 0.98267 0.0
O75 O 0.86022 0.59941 0.03386 0.0
C76 C 0.85729 0.66393 0.12203 0.0
O77 O 0.87058 0.68578 0.09059 0.0
O78 O 0.8106 0.61477 0.12044 0.0
C79 C 0.77079 0.65479 1.00835 0.0
Tb80 Tb 0.17954 0.82166 0.39011 0.0
C81 C 0.10154 0.68816 0.38644 0.0
Tb82 Tb 0.19887 0.75719 0.32898 0.0
O83 O 0.09836 0.8058 0.3669 0.0
O84 O 0.1652 0.81329 0.3349 0.0
O85 O 0.12159 0.73403 0.40706 0.0
C86 C 0.19234 0.6979 0.27082 0.0
O87 O 0.12187 0.68917 0.35427 0.0
C88 C 0.26236 0.77334 0.38529 0.0
C89 C 0.28067 0.88611 0.33539 0.0
O90 O 0.14877 0.69426 0.28798 0.0
O91 O 0.23908 0.73484 0.28632 0.0
O92 O 0.27656 0.76497 0.35413 0.0
O93 O 0.21218 0.76488 0.38385 0.0
O94 O 0.25025 0.84548 0.31226 0.0
O95 O 0.26414 0.88206 0.36878 0.0
C96 C 0.19223 0.88369 0.44795 0.0
O97 O 0.18399 0.89696 0.41639 0.0
O98 O 0.19277 0.83566 0.44677 0.0
C99 C 0.11344 0.80084 0.3351 0.0
Tb100 Tb 0.36157 0.1946 0.72139 0.0
C101 C 0.39955 0.09986 0.73326 0.0
Tb102 Tb 0.44847 0.18755 0.67147 0.0
O103 O 0.2943 0.15779 0.68071 0.0
O104 O 0.36016 0.13841 0.68203 0.0
O105 O 0.37723 0.12993 0.74741 0.0
C106 C 0.50902 0.18142 0.61743 0.0
O107 O 0.42188 0.10932 0.70109 0.0
C108 C 0.48941 0.24315 0.73018 0.0
C109 C 0.41615 0.28535 0.66051 0.0
O110 O 0.53001 0.21212 0.64551 0.0
O111 O 0.45349 0.15351 0.61974 0.0
O112 O 0.51049 0.21485 0.71425 0.0
O113 O 0.45051 0.24318 0.71172 0.0
O114 O 0.43389 0.25212 0.64555 0.0
O115 O 0.39308 0.275 0.69255 0.0
C116 C 0.31353 0.2113 0.77885 0.0
O117 O 0.29065 0.19878 0.74772 0.0
O118 O 0.36302 0.21393 0.77758 0.0
C119 C 0.31876 0.13326 0.66409 0.0
H120 H 0.279 0.72239 0.22517 0.0
H121 H 0.10094 0.60044 0.24477 0.0
H122 H 0.27701 0.66952 0.17229 0.0
H123 H 0.09953 0.54632 0.19206 0.0
H124 H 0.17202 0.44444 0.11935 0.0
H125 H 0.16314 0.49223 0.17229 0.0
H126 H 0.2136 0.64641 0.11179 0.0
H127 H 0.22056 0.59847 0.05886 0.0
C128 C 0.23948 0.68416 0.21818 0.0
C129 C 0.19006 0.66554 0.2389 0.0
C130 C 0.23836 0.65404 0.18795 0.0
C131 C 0.18815 0.60399 0.17824 0.0
C132 C 0.13877 0.58474 0.19916 0.0
C133 C 0.13953 0.61574 0.22909 0.0
C134 C 0.18029 0.4882 0.11733 0.0
C135 C 0.19702 0.51781 0.08505 0.0
C136 C 0.17514 0.51541 0.14752 0.0
C137 C 0.18787 0.57293 0.14597 0.0
C138 C 0.20377 0.6021 0.11361 0.0
C139 C 0.20773 0.57464 0.08339 0.0
H140 H 0.47161 0.11873 0.55679 0.0
H141 H 0.62365 0.24805 0.60879 0.0
H142 H 0.52872 0.12784 0.50416 0.0
H143 H 0.68041 0.2572 0.55647 0.0
H144 H 0.73847 0.31182 0.44142 0.0
H145 H 0.68319 0.29562 0.49555 0.0
H146 H 0.61102 0.11255 0.48324 0.0
H147 H 0.66647 0.12889 0.42889 0.0
C148 C 0.51726 0.1486 0.55704 0.0
C149 C 0.54326 0.1829 0.58668 0.0
C150 C 0.54991 0.15367 0.52706 0.0
C151 C 0.60889 0.19356 0.52619 0.0
C152 C 0.63493 0.22666 0.55625 0.0
C153 C 0.60249 0.22122 0.58623 0.0
C154 C 0.71088 0.26817 0.45036 0.0
C155 C 0.70663 0.22163 0.4311 0.0
C156 C 0.67952 0.25888 0.48139 0.0
C157 C 0.64288 0.20281 0.4936 0.0
C158 C 0.63864 0.15616 0.47429 0.0
C159 C 0.67055 0.16552 0.44338 0.0
H160 H 0.36561 0.61749 0.93879 0.0
H161 H 0.32334 0.45838 0.88658 0.0
H162 H 0.41282 0.67071 0.88522 0.0
H163 H 0.3715 0.51192 0.83302 0.0
H164 H 0.50818 0.64325 0.75395 0.0
H165 H 0.47335 0.5918 0.81008 0.0
H166 H 0.36677 0.66924 0.82437 0.0
H167 H 0.4007 0.71971 0.76822 0.0
C168 C 0.36739 0.59405 0.91606 0.0
C169 C 0.34065 0.5339 0.91665 0.0
C170 C 0.39413 0.62445 0.88542 0.0
C171 C 0.39534 0.59529 0.85503 0.0
C172 C 0.37129 0.53534 0.8562 0.0
C173 C 0.34372 0.5048 0.88673 0.0
C174 C 0.47738 0.64922 0.76921 0.0
C175 C 0.45723 0.68557 0.757 0.0
C176 C 0.45746 0.61979 0.80116 0.0
C177 C 0.41776 0.62697 0.82154 0.0
C178 C 0.39795 0.66358 0.80933 0.0
C179 C 0.41712 0.69219 0.77719 0.0
H180 H 0.81773 0.41365 0.2759 0.0
H181 H 0.80158 0.27098 0.21439 0.0
H182 H 0.81024 0.46012 0.22198 0.0
H183 H 0.79295 0.31686 0.16075 0.0
H184 H 0.68649 0.37722 0.09246 0.0
H185 H 0.70902 0.33829 0.14434 0.0
H186 H 0.86474 0.49941 0.15925 0.0
H187 H 0.84328 0.53796 0.10619 0.0
C188 C 0.81321 0.39263 0.25082 0.0
C189 C 0.80968 0.3386 0.24921 0.0
C190 C 0.80919 0.41926 0.22007 0.0
C191 C 0.80065 0.39175 0.1874 0.0
C192 C 0.79913 0.33865 0.18572 0.0
C193 C 0.80412 0.31253 0.21633 0.0
C194 C 0.72571 0.40427 0.10665 0.0
C195 C 0.76298 0.46069 0.09551 0.0
C196 C 0.73864 0.38192 0.13623 0.0
C197 C 0.78864 0.41586 0.15559 0.0
C198 C 0.82585 0.47255 0.14471 0.0
C199 C 0.81346 0.49459 0.11456 0.0
H200 H 0.51472 0.86159 0.55389 0.0
H201 H 0.3593 0.7155 0.59168 0.0
H202 H 0.46558 0.86197 0.49966 0.0
H203 H 0.31069 0.71459 0.53744 0.0
H204 H 0.22191 0.75757 0.45238 0.0
H205 H 0.27363 0.76655 0.5067 0.0
H206 H 0.4258 0.80711 0.44637 0.0
H207 H 0.37426 0.80101 0.39196 0.0
C208 C 0.47008 0.82959 0.55053 0.0
C209 C 0.44068 0.78862 0.57694 0.0
C210 C 0.44202 0.82952 0.51943 0.0
C211 C 0.38407 0.78839 0.51415 0.0
C212 C 0.35495 0.74756 0.54079 0.0
C213 C 0.38289 0.74781 0.57183 0.0
C214 C 0.26674 0.7697 0.45079 0.0
C215 C 0.29433 0.7794 0.41805 0.0
C216 C 0.29623 0.77396 0.4819 0.0
C217 C 0.35391 0.78727 0.48099 0.0
C218 C 0.38165 0.79746 0.44812 0.0
C219 C 0.35209 0.7935 0.41694 0.0
H220 H 0.56765 0.44537 0.92397 0.0
H221 H 0.7108 0.41798 0.90472 0.0
H222 H 0.51906 0.3881 0.87207 0.0
H223 H 0.66473 0.36426 0.85185 0.0
H224 H 0.55239 0.22507 0.77862 0.0
H225 H 0.59174 0.27691 0.83312 0.0
H226 H 0.51721 0.38454 0.8105 0.0
H227 H 0.4745 0.32936 0.757 0.0
C228 C 0.58887 0.42756 0.90832 0.0
C229 C 0.64258 0.43549 0.91831 0.0
C230 C 0.5613 0.39506 0.87848 0.0
C231 C 0.58757 0.37089 0.85778 0.0
C232 C 0.6422 0.38051 0.86758 0.0
C233 C 0.66901 0.41182 0.89772 0.0
C234 C 0.54401 0.25944 0.78557 0.0
C235 C 0.51077 0.27352 0.7637 0.0
C236 C 0.56705 0.28968 0.81664 0.0
C237 C 0.55873 0.33585 0.82607 0.0
C238 C 0.52422 0.34904 0.80437 0.0
C239 C 0.50003 0.31776 0.77359 0.0
H240 H 0.31483 0.45044 0.12077 0.0
H241 H 0.34163 0.35682 0.03751 0.0
H242 H 0.41191 0.48205 0.1429 0.0
H243 H 0.43714 0.38646 0.05999 0.0
H244 H 0.60781 0.59793 0.09302 0.0
H245 H 0.50509 0.55146 0.10593 0.0
H246 H 0.49852 0.38742 0.11295 0.0
H247 H 0.60092 0.434 0.09988 0.0
C248 C 0.34062 0.4346 0.10827 0.0
C249 C 0.32138 0.40131 0.07756 0.0
C250 C 0.39597 0.45281 0.1208 0.0
C251 C 0.43175 0.43649 0.10323 0.0
C252 C 0.41016 0.39896 0.07438 0.0
C253 C 0.35569 0.38213 0.06138 0.0
C254 C 0.58487 0.55255 0.09934 0.0
C255 C 0.61147 0.51921 0.09545 0.0
C256 C 0.5262 0.5259 0.10674 0.0
C257 C 0.49399 0.46578 0.10995 0.0
C258 C 0.52246 0.43374 0.11043 0.0
C259 C 0.58088 0.46033 0.10304 0.0
H260 H 0.09762 0.65131 0.45402 0.0
H261 H 0.01911 0.59709 0.35168 0.0
H262 H 0.04963 0.55055 0.47371 0.0
H263 H 0.97109 0.49744 0.37151 0.0
H264 H -0.00041 0.35134 0.38975 0.0
H265 H 0.05369 0.45458 0.40018 0.0
H266 H 0.91404 0.4437 0.46228 0.0
H267 H 0.86046 0.33974 0.45272 0.0
C268 C 0.06846 0.61813 0.43627 0.0
C269 C 0.0621 0.63151 0.40128 0.0
C270 C 0.0415 0.56082 0.44749 0.0
C271 C 0.00763 0.51705 0.42385 0.0
C272 C -0.00246 0.53096 0.38996 0.0
C273 C 0.02478 0.58773 0.37869 0.0
C274 C 0.98234 0.37041 0.40773 0.0
C275 C 0.92638 0.33818 0.42064 0.0
C276 C 0.01303 0.42934 0.41355 0.0
C277 C -0.0125 0.45646 0.43178 0.0
C278 C 0.93458 0.42326 0.44856 0.0
C279 C 0.90419 0.36392 0.44321 0.0
H280 H 0.47142 0.12331 0.78786 0.0
H281 H 0.34761 0.98517 0.72379 0.0
H282 H 0.51239 0.06327 0.806 0.0
H283 H 0.38642 0.92424 0.74312 0.0
H284 H 0.60425 0.97686 0.73106 0.0
H285 H 0.56015 0.03286 0.75108 0.0
H286 H 0.42124 0.88055 0.79774 0.0
H287 H 0.46691 0.82516 0.77887 0.0
C288 C 0.45084 0.07894 0.77946 0.0
C289 C 0.40643 0.05835 0.75467 0.0
C290 C 0.47433 0.04481 0.78973 0.0
C291 C 0.45245 -0.01065 0.77593 0.0
C292 C 0.40347 0.96661 0.7545 0.0
C293 C 0.38118 0.00128 0.74346 0.0
C294 C 0.56608 0.95632 0.74733 0.0
C295 C 0.53894 0.89723 0.75381 0.0
C296 C 0.54087 0.98818 0.75883 0.0
C297 C 0.4874 0.9608 0.77595 0.0
C298 C 0.46274 0.90254 0.78494 0.0
C299 C 0.48877 0.87102 0.77418 0.0
H300 H 0.62251 0.63032 0.67152 0.0
H301 H 0.48769 0.63124 0.60985 0.0
H302 H 0.58436 0.52884 0.65775 0.0
H303 H 0.44886 0.52946 0.59711 0.0
H304 H 0.36574 0.35142 0.66835 0.0
H305 H 0.40784 0.45303 0.65317 0.0
H306 H 0.55063 0.44923 0.60356 0.0
H307 H 0.50786 0.34715 0.61767 0.0
C308 C 0.58598 0.60939 0.65409 0.0
C309 C 0.55778 0.63846 0.64208 0.0
C310 C 0.5643 0.55148 0.64612 0.0
C311 C 0.51357 0.52171 0.62661 0.0
C312 C 0.48809 0.5518 0.61215 0.0
C313 C 0.51053 0.61004 0.61942 0.0
C314 C 0.40504 0.37179 0.65312 0.0
C315 C 0.43368 0.34163 0.64438 0.0
C316 C 0.42896 0.42972 0.64431 0.0
C317 C 0.48239 0.45852 0.6273 0.0
C318 C 0.50926 0.42761 0.61653 0.0
C319 C 0.48464 0.36929 0.62457 0.0
H320 H -0.0103 0.3769 1.00836 0.0
H321 H 0.13014 0.51257 0.95027 0.0
H322 H 0.9322 0.42337 0.99747 0.0
H323 H 0.07303 0.55939 0.94057 0.0
H324 H 0.96876 0.63467 1.01693 0.0
H325 H 0.02982 0.5931 1.00342 0.0
H326 H 0.89905 0.46918 0.93527 0.0
H327 H 0.83866 0.51165 0.94752 0.0
C328 C 0.00773 0.4157 0.99259 0.0
C329 C 0.06439 0.44112 0.98029 0.0
C330 C 0.97487 0.4421 0.98629 0.0
C331 C -0.00137 0.49469 0.96822 0.0
C332 C 0.05403 0.51863 0.95435 0.0
C333 C 0.08643 0.49163 0.95991 0.0
C334 C 0.95412 0.60021 0.99789 0.0
C335 C 0.89896 0.57626 0.98347 0.0
C336 C -0.0111 0.57645 0.99024 0.0
C337 C 0.96849 0.5279 0.9686 0.0
C338 C 0.91538 0.50673 0.95197 0.0
C339 C 0.88114 0.53136 0.9589 0.0
H340 H 0.35912 0.97123 0.37703 0.0
H341 H 0.33606 0.89941 0.27236 0.0
H342 H 0.46209 0.02574 0.367 0.0
H343 H 0.43971 0.95497 0.26258 0.0
H344 H 0.63839 0.13562 0.28115 0.0
H345 H 0.5342 0.08311 0.2738 0.0
H346 H 0.52106 0.95786 0.35015 0.0
H347 H 0.62462 0.00921 0.35751 0.0
C348 C 0.37565 0.96826 0.35155 0.0
C349 C 0.33946 0.93022 0.32573 0.0
C350 C 0.43455 -0.00067 0.34592 0.0
C351 C 0.45812 -0.00654 0.31429 0.0
C352 C 0.42198 0.95972 0.28718 0.0
C353 C 0.36283 0.92818 0.29286 0.0
C354 C 0.61358 0.0958 0.29548 0.0
C355 C 0.63965 0.07721 0.32053 0.0
C356 C 0.55408 0.06603 0.29125 0.0
C357 C 0.52037 0.01748 0.31193 0.0
C358 C 0.54669 -0.00424 0.33427 0.0
C359 C 0.60591 0.02515 0.33838 0.0
H360 H 0.21545 0.21803 0.78333 0.0
H361 H 0.35617 0.23174 0.84549 0.0
H362 H 0.17645 0.2407 0.83539 0.0
H363 H 0.31736 0.25442 0.89749 0.0
H364 H 0.19921 0.23738 0.9902 0.0
H365 H 0.23331 0.20902 0.93817 0.0
H366 H 0.20344 0.32512 0.87419 0.0
H367 H 0.16876 0.35273 0.92609 0.0
C368 C 0.23785 0.22566 0.80816 0.0
C369 C 0.28874 0.22308 0.81042 0.0
C370 C 0.21573 0.23891 0.83791 0.0
C371 C 0.2438 0.24934 0.87059 0.0
C372 C 0.29436 0.24597 0.87283 0.0
C373 C 0.31672 0.23324 0.84303 0.0
C374 C 0.19966 0.25647 0.96494 0.0
C375 C 0.18183 0.29754 0.96215 0.0
C376 C 0.2195 0.24057 0.93522 0.0
C377 C 0.22123 0.26492 0.90205 0.0
C378 C 0.20221 0.30519 0.89926 0.0
C379 C 0.18282 0.32136 0.92901 0.0
H380 H 0.92179 0.28183 0.30612 0.0
H381 H 0.85765 0.10282 0.2827 0.0
H382 H 0.968 0.30856 0.24899 0.0
H383 H 0.9037 0.12962 0.22444 0.0
H384 H 0.05106 0.21369 0.14031 0.0
H385 H -0.00247 0.17771 0.19542 0.0
H386 H 0.94335 0.30488 0.18817 0.0
H387 H -0.00173 0.34172 0.13388 0.0
C388 C 0.91742 0.24806 0.2886 0.0
C389 C 0.88575 0.19019 0.29874 0.0
C390 C 0.94359 0.26339 0.25564 0.0
C391 C 0.93887 0.22125 0.23178 0.0
C392 C 0.90825 0.16317 0.24221 0.0
C393 C 0.88189 0.14776 0.27548 0.0
C394 C 0.02719 0.23347 0.15042 0.0
C395 C 0.02916 0.28078 0.13308 0.0
C396 C -0.00369 0.2127 0.18188 0.0
C397 C 0.96672 0.23884 0.19651 0.0
C398 C 0.96673 0.28455 0.17811 0.0
C399 C -0.00217 0.30545 0.14687 0.0
H400 H 0.61582 0.91535 0.63988 0.0
H401 H 0.74236 0.86259 0.62425 0.0
H402 H 0.64953 0.9749 0.58727 0.0
H403 H 0.77786 0.92414 0.5718 0.0
H404 H 0.7767 -0.00826 0.45806 0.0
H405 H 0.74878 0.93175 0.51123 0.0
H406 H 0.73153 0.06246 0.56756 0.0
H407 H 0.75802 0.12128 0.51452 0.0
C408 C 0.65091 0.9165 0.62508 0.0
C409 C 0.67612 0.88395 0.63588 0.0
C410 C 0.67072 0.95117 0.59514 0.0
C411 C 0.71664 0.95458 0.57536 0.0
C412 C 0.7421 0.92209 0.58627 0.0
C413 C 0.72212 0.88722 0.61638 0.0
C414 C 0.76732 0.0076 0.48195 0.0
C415 C 0.76923 0.06093 0.4822 0.0
C416 C 0.75158 0.97345 0.51241 0.0
C417 C 0.73742 -0.00792 0.54358 0.0
C418 C 0.74109 0.04629 0.54387 0.0
C419 C 0.75667 0.08021 0.51353 0.0
H420 H 0.75358 0.77284 0.79636 0.0
H421 H 0.5901 0.7262 0.84387 0.0
H422 H 0.78455 0.74836 0.85129 0.0
H423 H 0.62112 0.70305 0.89876 0.0
H424 H 0.66715 0.60295 0.97616 0.0
H425 H 0.64003 0.63032 0.92132 0.0
H426 H 0.80982 0.77752 0.91271 0.0
H427 H 0.83742 0.74844 0.96724 0.0
C428 C 0.72454 0.75783 0.81865 0.0
C429 C 0.66946 0.75126 0.81589 0.0
C430 C 0.7423 0.74408 0.85016 0.0
C431 C 0.70522 0.72341 0.87944 0.0
C432 C 0.65046 0.71788 0.87662 0.0
C433 C 0.63279 0.73154 0.84522 0.0
C434 C 0.69885 0.64073 0.96232 0.0
C435 C 0.75452 0.67318 0.97569 0.0
C436 C 0.68314 0.65692 0.93111 0.0
C437 C 0.72268 0.70628 0.91257 0.0
C438 C 0.77849 0.73894 0.92609 0.0
C439 C 0.7942 0.7226 0.95742 0.0
H440 H -0.00059 0.76543 0.33332 0.0
H441 H 0.14239 0.79585 0.26688 0.0
H442 H 0.93646 0.73495 0.28196 0.0
H443 H 0.07942 0.76467 0.21556 0.0
H444 H 0.9616 0.76068 0.12705 0.0
H445 H 0.02346 0.79581 0.17887 0.0
H446 H 0.89554 0.6542 0.24004 0.0
H447 H 0.83371 0.6195 0.18832 0.0
C448 C 0.01731 0.76558 0.30771 0.0
C449 C 0.07567 0.78297 0.30402 0.0
C450 C 0.98126 0.74787 0.27835 0.0
C451 C 0.00295 0.74746 0.24468 0.0
C452 C 0.06154 0.76522 0.24105 0.0
C453 C 0.09751 0.7827 0.27044 0.0
C454 C 0.9466 0.73748 0.15169 0.0
C455 C 0.89288 0.68755 0.15378 0.0
C456 C 0.98213 0.75729 0.18127 0.0
C457 C 0.96447 0.72769 0.21354 0.0
C458 C 0.91014 0.67832 0.21569 0.0
C459 C 0.8748 0.65837 0.18607 0.0
H460 H 0.35322 0.06109 0.63822 0.0
H461 H 0.23512 0.1235 0.61864 0.0
H462 H 0.31961 0.00181 0.58582 0.0
H463 H 0.19973 0.06227 0.56621 0.0
H464 H 0.20301 -0.00944 0.45378 0.0
H465 H 0.23068 0.05145 0.50636 0.0
H466 H 0.23476 0.91636 0.56643 0.0
H467 H 0.20849 0.85656 0.51403 0.0
C468 C 0.32006 0.0622 0.62259 0.0
C469 C 0.29705 0.09719 0.63232 0.0
C470 C 0.30028 0.02767 0.59274 0.0
C471 C 0.25663 0.0269 0.57193 0.0
C472 C 0.23366 0.06218 0.58157 0.0
C473 C 0.25359 0.09691 0.61163 0.0
C474 C 0.20942 0.97394 0.47836 0.0
C475 C 0.20399 0.91909 0.47986 0.0
C476 C 0.22501 0.00863 0.50846 0.0
C477 C 0.23551 -0.01101 0.54051 0.0
C478 C 0.2281 0.93327 0.54204 0.0
C479 C 0.21267 0.89882 0.51207 0.0
loop_
_geom_bond_atom_site_label_1
_geom_bond_atom_site_label_2
_geom_bond_distance
_geom_bond_site_symmetry_2
_ccdc_geom_bond_type
Tb0 O3 2.453 1_554 S
Tb0 O4 2.596 1_554 S
Tb0 O5 2.374 . S
Tb0 O13 2.343 . S
Tb0 O15 2.353 1_554 S
Tb0 O17 2.427 . S
Tb0 O18 2.513 . S
C1 O5 1.251 . S
C1 O7 1.263 . S
Tb2 O4 2.343 . S
Tb2 O7 2.353 1_556 S
Tb2 O10 2.427 . S
Tb2 O11 2.513 . S
Tb2 O12 2.453 1_556 S
Tb2 O13 2.596 1_556 S
Tb2 O14 2.374 . S
O3 Tb0 2.453 1_556 S
O3 C19 1.245 . S
O4 Tb0 2.596 1_556 S
O4 Tb2 2.343 . S
O4 C19 1.259 . S
O5 Tb0 2.374 . S
O5 C1 1.251 . S
C6 O10 1.275 . S
C6 O11 1.246 . S
O7 C1 1.263 . S
O7 Tb2 2.353 1_554 S
C8 O12 1.245 . S
C8 O13 1.259 . S
C9 O14 1.250 . S
C9 O15 1.263 . S
O10 Tb2 2.427 . S
O10 C6 1.275 . S
O11 Tb2 2.513 . S
O11 C6 1.246 . S
O12 Tb2 2.453 1_554 S
O12 C8 1.245 . S
O13 Tb0 2.343 . S
O13 Tb2 2.596 1_554 S
O13 C8 1.259 . S
O14 Tb2 2.374 . S
O14 C9 1.250 . S
O15 Tb0 2.353 1_556 S
O15 C9 1.263 . S
C16 O17 1.275 . S
C16 O18 1.246 . S
O17 Tb0 2.427 . S
O17 C16 1.275 . S
O18 Tb0 2.513 . S
O18 C16 1.246 . S
C19 O3 1.245 . S
C19 O4 1.259 . S
Tb20 O23 2.453 . S
Tb20 O24 2.596 . S
Tb20 O25 2.374 . S
Tb20 O33 2.343 . S
Tb20 O35 2.353 . S
Tb20 O37 2.427 . S
Tb20 O38 2.513 . S
C21 O25 1.251 . S
C21 O27 1.263 . S
Tb22 O24 2.343 . S
Tb22 O27 2.353 . S
Tb22 O30 2.427 . S
Tb22 O31 2.513 . S
Tb22 O32 2.453 . S
Tb22 O33 2.596 . S
Tb22 O34 2.374 . S
O23 Tb20 2.453 . S
O23 C39 1.245 . S
O24 Tb20 2.596 . S
O24 Tb22 2.343 . S
O24 C39 1.259 . S
O25 Tb20 2.374 . S
O25 C21 1.251 . S
C26 O30 1.275 . S
C26 O31 1.246 . S
O27 C21 1.263 . S
O27 Tb22 2.353 . S
C28 O32 1.245 . S
C28 O33 1.259 . S
C29 O34 1.250 . S
C29 O35 1.263 . S
O30 Tb22 2.427 . S
O30 C26 1.275 . S
O31 Tb22 2.513 . S
O31 C26 1.246 . S
O32 Tb22 2.453 . S
O32 C28 1.245 . S
O33 Tb20 2.343 . S
O33 Tb22 2.596 . S
O33 C28 1.259 . S
O34 Tb22 2.374 . S
O34 C29 1.250 . S
O35 Tb20 2.353 . S
O35 C29 1.263 . S
C36 O37 1.275 . S
C36 O38 1.246 . S
O37 Tb20 2.427 . S
O37 C36 1.275 . S
O38 Tb20 2.513 . S
O38 C36 1.246 . S
C39 O23 1.245 . S
C39 O24 1.259 . S
Tb40 O43 2.453 . S
Tb40 O44 2.596 . S
Tb40 O45 2.374 . S
Tb40 O53 2.343 . S
Tb40 O55 2.353 . S
Tb40 O57 2.427 . S
Tb40 O58 2.513 . S
C41 O45 1.251 . S
C41 O47 1.263 . S
Tb42 O44 2.343 . S
Tb42 O47 2.353 . S
Tb42 O50 2.427 . S
Tb42 O51 2.513 . S
Tb42 O52 2.453 . S
Tb42 O53 2.596 . S
Tb42 O54 2.374 . S
O43 Tb40 2.453 . S
O43 C59 1.245 . S
O44 Tb40 2.596 . S
O44 Tb42 2.343 . S
O44 C59 1.259 . S
O45 Tb40 2.374 . S
O45 C41 1.251 . S
C46 O50 1.275 . S
C46 O51 1.246 . S
O47 C41 1.263 . S
O47 Tb42 2.353 . S
C48 O52 1.245 . S
C48 O53 1.259 . S
C49 O54 1.250 . S
C49 O55 1.263 . S
O50 Tb42 2.427 . S
O50 C46 1.275 . S
O51 Tb42 2.513 . S
O51 C46 1.246 . S
O52 Tb42 2.453 . S
O52 C48 1.245 . S
O53 Tb40 2.343 . S
O53 Tb42 2.596 . S
O53 C48 1.259 . S
O54 Tb42 2.374 . S
O54 C49 1.250 . S
O55 Tb40 2.353 . S
O55 C49 1.263 . S
C56 O57 1.275 . S
C56 O58 1.246 . S
O57 Tb40 2.427 . S
O57 C56 1.275 . S
O58 Tb40 2.513 . S
O58 C56 1.246 . S
C59 O43 1.245 . S
C59 O44 1.259 . S
Tb60 O63 2.453 1_554 S
Tb60 O64 2.596 1_554 S
Tb60 O65 2.374 . S
Tb60 O73 2.343 . S
Tb60 O75 2.353 1_554 S
Tb60 O77 2.427 . S
Tb60 O78 2.513 . S
C61 O65 1.251 . S
C61 O67 1.263 . S
Tb62 O64 2.343 . S
Tb62 O67 2.353 1_556 S
Tb62 O70 2.427 . S
Tb62 O71 2.513 . S
Tb62 O72 2.453 1_556 S
Tb62 O73 2.596 1_556 S
Tb62 O74 2.374 . S
O63 Tb60 2.453 1_556 S
O63 C79 1.245 . S
O64 Tb60 2.596 1_556 S
O64 Tb62 2.343 . S
O64 C79 1.259 . S
O65 Tb60 2.374 . S
O65 C61 1.251 . S
C66 O70 1.275 . S
C66 O71 1.246 . S
O67 C61 1.263 . S
O67 Tb62 2.353 1_554 S
C68 O72 1.245 . S
C68 O73 1.259 . S
C69 O74 1.250 . S
C69 O75 1.263 . S
O70 Tb62 2.427 . S
O70 C66 1.275 . S
O71 Tb62 2.513 . S
O71 C66 1.246 . S
O72 Tb62 2.453 1_554 S
O72 C68 1.245 . S
O73 Tb60 2.343 . S
O73 Tb62 2.596 1_554 S
O73 C68 1.259 . S
O74 Tb62 2.374 . S
O74 C69 1.250 . S
O75 Tb60 2.353 1_556 S
O75 C69 1.263 . S
C76 O77 1.275 . S
C76 O78 1.246 . S
O77 Tb60 2.427 . S
O77 C76 1.275 . S
O78 Tb60 2.513 . S
O78 C76 1.246 . S
C79 O63 1.245 . S
C79 O64 1.259 . S
Tb80 O83 2.453 . S
Tb80 O84 2.596 . S
Tb80 O85 2.374 . S
Tb80 O93 2.343 . S
Tb80 O95 2.353 . S
Tb80 O97 2.427 . S
Tb80 O98 2.513 . S
C81 O85 1.251 . S
C81 O87 1.263 . S
Tb82 O84 2.343 . S
Tb82 O87 2.353 . S
Tb82 O90 2.427 . S
Tb82 O91 2.513 . S
Tb82 O92 2.453 . S
Tb82 O93 2.596 . S
Tb82 O94 2.374 . S
O83 Tb80 2.453 . S
O83 C99 1.245 . S
O84 Tb80 2.596 . S
O84 Tb82 2.343 . S
O84 C99 1.259 . S
O85 Tb80 2.374 . S
O85 C81 1.251 . S
C86 O90 1.275 . S
C86 O91 1.246 . S
O87 C81 1.263 . S
O87 Tb82 2.353 . S
C88 O92 1.245 . S
C88 O93 1.259 . S
C89 O94 1.250 . S
C89 O95 1.263 . S
O90 Tb82 2.427 . S
O90 C86 1.275 . S
O91 Tb82 2.513 . S
O91 C86 1.246 . S
O92 Tb82 2.453 . S
O92 C88 1.245 . S
O93 Tb80 2.343 . S
O93 Tb82 2.596 . S
O93 C88 1.259 . S
O94 Tb82 2.374 . S
O94 C89 1.250 . S
O95 Tb80 2.353 . S
O95 C89 1.263 . S
C96 O97 1.275 . S
C96 O98 1.246 . S
O97 Tb80 2.427 . S
O97 C96 1.275 . S
O98 Tb80 2.513 . S
O98 C96 1.246 . S
C99 O83 1.245 . S
C99 O84 1.259 . S
Tb100 O103 2.453 . S
Tb100 O104 2.596 . S
Tb100 O105 2.374 . S
Tb100 O113 2.343 . S
Tb100 O115 2.353 . S
Tb100 O117 2.427 . S
Tb100 O118 2.513 . S
C101 O105 1.251 . S
C101 O107 1.263 . S
Tb102 O104 2.343 . S
Tb102 O107 2.353 . S
Tb102 O110 2.427 . S
Tb102 O111 2.513 . S
Tb102 O112 2.453 . S
Tb102 O113 2.596 . S
Tb102 O114 2.374 . S
O103 Tb100 2.453 . S
O103 C119 1.245 . S
O104 Tb100 2.596 . S
O104 Tb102 2.343 . S
O104 C119 1.259 . S
O105 Tb100 2.374 . S
O105 C101 1.251 . S
C106 O110 1.275 . S
C106 O111 1.246 . S
O107 C101 1.263 . S
O107 Tb102 2.353 . S
C108 O112 1.245 . S
C108 O113 1.259 . S
C109 O114 1.250 . S
C109 O115 1.263 . S
O110 Tb102 2.427 . S
O110 C106 1.275 . S
O111 Tb102 2.513 . S
O111 C106 1.246 . S
O112 Tb102 2.453 . S
O112 C108 1.245 . S
O113 Tb100 2.343 . S
O113 Tb102 2.596 . S
O113 C108 1.259 . S
O114 Tb102 2.374 . S
O114 C109 1.250 . S
O115 Tb100 2.353 . S
O115 C109 1.263 . S
C116 O117 1.275 . S
C116 O118 1.246 . S
O117 Tb100 2.427 . S
O117 C116 1.275 . S
O118 Tb100 2.513 . S
O118 C116 1.246 . S
C119 O103 1.245 . S
C119 O104 1.259 . S
H120 C128 0.950 . S
H121 C133 0.950 . S
H122 C130 0.950 . S
H123 C132 0.950 . S
H124 C134 0.950 . S
H125 C136 0.950 . S
H126 C138 0.950 . S
H127 C139 0.950 . S
C128 H120 0.950 . S
C128 C129 1.386 . S
C128 C130 1.391 . S
C129 C128 1.386 . S
C129 C133 1.393 . S
C130 H122 0.950 . S
C130 C128 1.391 . S
C130 C131 1.400 . S
C131 C130 1.400 . S
C131 C132 1.398 . S
C131 C137 1.491 . S
C132 H123 0.950 . S
C132 C131 1.398 . S
C132 C133 1.391 . S
C133 H121 0.950 . S
C133 C129 1.393 . S
C133 C132 1.391 . S
C134 H124 0.950 . S
C134 C135 1.386 . S
C134 C136 1.391 . S
C135 C134 1.386 . S
C135 C139 1.393 . S
C136 H125 0.950 . S
C136 C134 1.391 . S
C136 C137 1.400 . S
C137 C131 1.491 . S
C137 C136 1.400 . S
C137 C138 1.398 . S
C138 H126 0.950 . S
C138 C137 1.398 . S
C138 C139 1.391 . S
C139 H127 0.950 . S
C139 C135 1.393 . S
C139 C138 1.391 . S
H140 C148 0.950 . S
H141 C153 0.950 . S
H142 C150 0.950 . S
H143 C152 0.950 . S
H144 C154 0.950 . S
H145 C156 0.950 . S
H146 C158 0.950 . S
H147 C159 0.950 . S
C148 H140 0.950 . S
C148 C149 1.386 . S
C148 C150 1.391 . S
C149 C148 1.386 . S
C149 C153 1.393 . S
C150 H142 0.950 . S
C150 C148 1.391 . S
C150 C151 1.400 . S
C151 C150 1.400 . S
C151 C152 1.398 . S
C151 C157 1.491 . S
C152 H143 0.950 . S
C152 C151 1.398 . S
C152 C153 1.391 . S
C153 H141 0.950 . S
C153 C149 1.393 . S
C153 C152 1.391 . S
C154 H144 0.950 . S
C154 C155 1.386 . S
C154 C156 1.391 . S
C155 C154 1.386 . S
C155 C159 1.393 . S
C156 H145 0.950 . S
C156 C154 1.391 . S
C156 C157 1.400 . S
C157 C151 1.491 . S
C157 C156 1.400 . S
C157 C158 1.398 . S
C158 H146 0.950 . S
C158 C157 1.398 . S
C158 C159 1.391 . S
C159 H147 0.950 . S
C159 C155 1.393 . S
C159 C158 1.391 . S
H160 C168 0.950 . S
H161 C173 0.950 . S
H162 C170 0.950 . S
H163 C172 0.950 . S
H164 C174 0.950 . S
H165 C176 0.950 . S
H166 C178 0.950 . S
H167 C179 0.950 . S
C168 H160 0.950 . S
C168 C169 1.386 . S
C168 C170 1.391 . S
C169 C168 1.386 . S
C169 C173 1.393 . S
C170 H162 0.950 . S
C170 C168 1.391 . S
C170 C171 1.400 . S
C171 C170 1.400 . S
C171 C172 1.398 . S
C171 C177 1.491 . S
C172 H163 0.950 . S
C172 C171 1.398 . S
C172 C173 1.391 . S
C173 H161 0.950 . S
C173 C169 1.393 . S
C173 C172 1.391 . S
C174 H164 0.950 . S
C174 C175 1.386 . S
C174 C176 1.391 . S
C175 C174 1.386 . S
C175 C179 1.393 . S
C176 H165 0.950 . S
C176 C174 1.391 . S
C176 C177 1.400 . S
C177 C171 1.491 . S
C177 C176 1.400 . S
C177 C178 1.398 . S
C178 H166 0.950 . S
C178 C177 1.398 . S
C178 C179 1.391 . S
C179 H167 0.950 . S
C179 C175 1.393 . S
C179 C178 1.391 . S
H180 C188 0.950 . S
H181 C193 0.950 . S
H182 C190 0.950 . S
H183 C192 0.950 . S
H184 C194 0.950 . S
H185 C196 0.950 . S
H186 C198 0.950 . S
H187 C199 0.950 . S
C188 H180 0.950 . S
C188 C189 1.386 . S
C188 C190 1.391 . S
C189 C188 1.386 . S
C189 C193 1.393 . S
C190 H182 0.950 . S
C190 C188 1.391 . S
C190 C191 1.400 . S
C191 C190 1.400 . S
C191 C192 1.398 . S
C191 C197 1.491 . S
C192 H183 0.950 . S
C192 C191 1.398 . S
C192 C193 1.391 . S
C193 H181 0.950 . S
C193 C189 1.393 . S
C193 C192 1.391 . S
C194 H184 0.950 . S
C194 C195 1.386 . S
C194 C196 1.391 . S
C195 C194 1.386 . S
C195 C199 1.393 . S
C196 H185 0.950 . S
C196 C194 1.391 . S
C196 C197 1.400 . S
C197 C191 1.491 . S
C197 C196 1.400 . S
C197 C198 1.398 . S
C198 H186 0.950 . S
C198 C197 1.398 . S
C198 C199 1.391 . S
C199 H187 0.950 . S
C199 C195 1.393 . S
C199 C198 1.391 . S
H200 C208 0.950 . S
H201 C213 0.950 . S
H202 C210 0.950 . S
H203 C212 0.950 . S
H204 C214 0.950 . S
H205 C216 0.950 . S
H206 C218 0.950 . S
H207 C219 0.950 . S
C208 H200 0.950 . S
C208 C209 1.386 . S
C208 C210 1.391 . S
C209 C208 1.386 . S
C209 C213 1.393 . S
C210 H202 0.950 . S
C210 C208 1.391 . S
C210 C211 1.400 . S
C211 C210 1.400 . S
C211 C212 1.398 . S
C211 C217 1.491 . S
C212 H203 0.950 . S
C212 C211 1.398 . S
C212 C213 1.391 . S
C213 H201 0.950 . S
C213 C209 1.393 . S
C213 C212 1.391 . S
C214 H204 0.950 . S
C214 C215 1.386 . S
C214 C216 1.391 . S
C215 C214 1.386 . S
C215 C219 1.393 . S
C216 H205 0.950 . S
C216 C214 1.391 . S
C216 C217 1.400 . S
C217 C211 1.491 . S
C217 C216 1.400 . S
C217 C218 1.398 . S
C218 H206 0.950 . S
C218 C217 1.398 . S
C218 C219 1.391 . S
C219 H207 0.950 . S
C219 C215 1.393 . S
C219 C218 1.391 . S
H220 C228 0.950 . S
H221 C233 0.950 . S
H222 C230 0.950 . S
H223 C232 0.950 . S
H224 C234 0.950 . S
H225 C236 0.950 . S
H226 C238 0.950 . S
H227 C239 0.950 . S
C228 H220 0.950 . S
C228 C229 1.386 . S
C228 C230 1.391 . S
C229 C228 1.386 . S
C229 C233 1.393 . S
C230 H222 0.950 . S
C230 C228 1.391 . S
C230 C231 1.400 . S
C231 C230 1.400 . S
C231 C232 1.398 . S
C231 C237 1.491 . S
C232 H223 0.950 . S
C232 C231 1.398 . S
C232 C233 1.391 . S
C233 H221 0.950 . S
C233 C229 1.393 . S
C233 C232 1.391 . S
C234 H224 0.950 . S
C234 C235 1.386 . S
C234 C236 1.391 . S
C235 C234 1.386 . S
C235 C239 1.393 . S
C236 H225 0.950 . S
C236 C234 1.391 . S
C236 C237 1.400 . S
C237 C231 1.491 . S
C237 C236 1.400 . S
C237 C238 1.398 . S
C238 H226 0.950 . S
C238 C237 1.398 . S
C238 C239 1.391 . S
C239 H227 0.950 . S
C239 C235 1.393 . S
C239 C238 1.391 . S
H240 C248 0.950 . S
H241 C253 0.950 1_556 S
H242 C250 0.950 . S
H243 C252 0.944 1_556 S
H244 C254 0.950 1_556 S
H245 C256 0.950 1_556 S
H246 C258 0.950 . S
H247 C259 0.950 . S
C248 H240 0.950 . S
C248 C249 1.386 . S
C248 C250 1.391 . S
C249 C248 1.386 . S
C249 C253 1.393 . S
C250 H242 0.950 . S
C250 C248 1.391 . S
C250 C251 1.400 . S
C251 C250 1.400 . S
C251 C252 1.398 . S
C251 C257 1.491 . S
C252 H243 0.944 1_554 S
C252 C251 1.398 . S
C252 C253 1.391 . S
C253 H241 0.950 1_554 S
C253 C249 1.393 . S
C253 C252 1.391 . S
C254 H244 0.950 1_554 S
C254 C255 1.386 . S
C254 C256 1.391 . S
C255 C254 1.386 . S
C255 C259 1.393 . S
C256 H245 0.950 1_554 S
C256 C254 1.391 . S
C256 C257 1.400 . S
C257 C251 1.491 . S
C257 C256 1.400 . S
C257 C258 1.398 . S
C258 H246 0.950 . S
C258 C257 1.398 . S
C258 C259 1.391 . S
C259 H247 0.950 . S
C259 C255 1.393 . S
C259 C258 1.391 . S
H260 C268 0.950 . S
H261 C273 0.950 1_655 S
H262 C270 0.950 . S
H263 C272 0.950 . S
H264 C274 0.950 . S
H265 C276 0.950 . S
H266 C278 0.950 . S
H267 C279 0.950 1_455 S
C268 H260 0.950 . S
C268 C269 1.386 . S
C268 C270 1.391 . S
C269 C268 1.386 . S
C269 C273 1.393 . S
C270 H262 0.950 . S
C270 C268 1.391 . S
C270 C271 1.400 . S
C271 C270 1.400 . S
C271 C272 1.398 1_455 S
C271 C277 1.491 1_455 S
C272 H263 0.950 . S
C272 C271 1.398 1_655 S
C272 C273 1.391 1_655 S
C273 H261 0.950 1_455 S
C273 C269 1.393 . S
C273 C272 1.391 1_455 S
C274 H264 0.950 . S
C274 C275 1.386 . S
C274 C276 1.391 . S
C275 C274 1.386 . S
C275 C279 1.393 . S
C276 H265 0.950 . S
C276 C274 1.391 . S
C276 C277 1.400 . S
C277 C271 1.491 1_655 S
C277 C276 1.400 . S
C277 C278 1.398 1_655 S
C278 H266 0.950 . S
C278 C277 1.398 1_455 S
C278 C279 1.391 1_455 S
C279 H267 0.950 1_655 S
C279 C275 1.393 . S
C279 C278 1.391 1_655 S
H280 C288 0.950 . S
H281 C293 0.950 . S
H282 C290 0.950 . S
H283 C292 0.941 1_565 S
H284 C294 0.950 . S
H285 C296 0.950 . S
H286 C298 0.941 1_545 S
H287 C299 0.950 . S
C288 H280 0.950 . S
C288 C289 1.386 . S
C288 C290 1.391 . S
C289 C288 1.386 . S
C289 C293 1.393 . S
C290 H282 0.950 . S
C290 C288 1.391 . S
C290 C291 1.400 . S
C291 C290 1.400 . S
C291 C292 1.396 . S
C291 C297 1.491 1_545 S
C292 H283 0.941 1_545 S
C292 C291 1.396 . S
C292 C293 1.401 . S
C293 H281 0.950 . S
C293 C289 1.393 . S
C293 C292 1.401 . S
C294 H284 0.950 . S
C294 C295 1.386 . S
C294 C296 1.391 . S
C295 C294 1.386 . S
C295 C299 1.393 . S
C296 H285 0.950 . S
C296 C294 1.391 . S
C296 C297 1.400 . S
C297 C291 1.491 1_565 S
C297 C296 1.400 . S
C297 C298 1.396 . S
C298 H286 0.941 1_565 S
C298 C297 1.396 . S
C298 C299 1.401 . S
C299 H287 0.950 . S
C299 C295 1.393 . S
C299 C298 1.401 . S
H300 C308 0.950 . S
H301 C313 0.950 . S
H302 C310 0.950 . S
H303 C312 0.950 . S
H304 C314 0.950 . S
H305 C316 0.950 . S
H306 C318 0.950 . S
H307 C319 0.950 . S
C308 H300 0.950 . S
C308 C309 1.386 . S
C308 C310 1.391 . S
C309 C308 1.386 . S
C309 C313 1.393 . S
C310 H302 0.950 . S
C310 C308 1.391 . S
C310 C311 1.400 . S
C311 C310 1.400 . S
C311 C312 1.398 . S
C311 C317 1.491 . S
C312 H303 0.950 . S
C312 C311 1.398 . S
C312 C313 1.391 . S
C313 H301 0.950 . S
C313 C309 1.393 . S
C313 C312 1.391 . S
C314 H304 0.950 . S
C314 C315 1.386 . S
C314 C316 1.391 . S
C315 C314 1.386 . S
C315 C319 1.393 . S
C316 H305 0.950 . S
C316 C314 1.391 . S
C316 C317 1.400 . S
C317 C311 1.491 . S
C317 C316 1.400 . S
C317 C318 1.398 . S
C318 H306 0.950 . S
C318 C317 1.398 . S
C318 C319 1.391 . S
C319 H307 0.950 . S
C319 C315 1.393 . S
C319 C318 1.391 . S
H320 C328 0.958 . S
H321 C333 0.950 . S
H322 C330 0.953 . S
H323 C332 0.950 . S
H324 C334 0.950 . S
H325 C336 0.950 . S
H326 C338 0.950 1_554 S
H327 C339 0.950 1_554 S
C328 H320 0.958 . S
C328 C329 1.379 1_554 S
C328 C330 1.391 1_455 S
C329 C328 1.379 1_556 S
C329 C333 1.393 . S
C330 H322 0.953 . S
C330 C328 1.391 1_655 S
C330 C331 1.397 1_654 S
C331 C330 1.397 1_456 S
C331 C332 1.398 . S
C331 C337 1.491 1_455 S
C332 H323 0.950 . S
C332 C331 1.398 . S
C332 C333 1.391 . S
C333 H321 0.950 . S
C333 C329 1.393 . S
C333 C332 1.391 . S
C334 H324 0.950 . S
C334 C335 1.386 . S
C334 C336 1.391 1_655 S
C335 C334 1.386 . S
C335 C339 1.393 . S
C336 H325 0.950 . S
C336 C334 1.391 1_455 S
C336 C337 1.400 1_455 S
C337 C331 1.491 1_655 S
C337 C336 1.400 1_655 S
C337 C338 1.398 . S
C338 H326 0.950 1_556 S
C338 C337 1.398 . S
C338 C339 1.391 . S
C339 H327 0.950 1_556 S
C339 C335 1.393 . S
C339 C338 1.391 . S
H340 C348 0.950 . S
H341 C353 0.950 . S
H342 C350 0.945 1_545 S
H343 C352 0.950 . S
H344 C354 0.950 . S
H345 C356 0.945 1_565 S
H346 C358 0.950 . S
H347 C359 0.950 . S
C348 H340 0.950 . S
C348 C349 1.386 . S
C348 C350 1.391 . S
C349 C348 1.386 . S
C349 C353 1.393 . S
C350 H342 0.945 1_565 S
C350 C348 1.391 . S
C350 C351 1.400 . S
C351 C350 1.400 . S
C351 C352 1.398 . S
C351 C357 1.491 1_565 S
C352 H343 0.950 . S
C352 C351 1.398 . S
C352 C353 1.391 . S
C353 H341 0.950 . S
C353 C349 1.393 . S
C353 C352 1.391 . S
C354 H344 0.950 . S
C354 C355 1.386 . S
C354 C356 1.391 . S
C355 C354 1.386 . S
C355 C359 1.393 . S
C356 H345 0.945 1_545 S
C356 C354 1.391 . S
C356 C357 1.400 . S
C357 C351 1.491 1_545 S
C357 C356 1.400 . S
C357 C358 1.398 . S
C358 H346 0.950 . S
C358 C357 1.398 . S
C358 C359 1.391 . S
C359 H347 0.950 . S
C359 C355 1.393 . S
C359 C358 1.391 . S
H360 C368 0.950 . S
H361 C373 0.950 . S
H362 C370 0.950 . S
H363 C372 0.950 . S
H364 C374 0.950 . S
H365 C376 0.950 . S
H366 C378 0.950 . S
H367 C379 0.950 . S
C368 H360 0.950 . S
C368 C369 1.386 . S
C368 C370 1.391 . S
C369 C368 1.386 . S
C369 C373 1.393 . S
C370 H362 0.950 . S
C370 C368 1.391 . S
C370 C371 1.400 . S
C371 C370 1.400 . S
C371 C372 1.398 . S
C371 C377 1.491 . S
C372 H363 0.950 . S
C372 C371 1.398 . S
C372 C373 1.391 . S
C373 H361 0.950 . S
C373 C369 1.393 . S
C373 C372 1.391 . S
C374 H364 0.950 . S
C374 C375 1.386 . S
C374 C376 1.391 . S
C375 C374 1.386 . S
C375 C379 1.393 . S
C376 H365 0.950 . S
C376 C374 1.391 . S
C376 C377 1.400 . S
C377 C371 1.491 . S
C377 C376 1.400 . S
C377 C378 1.398 . S
C378 H366 0.950 . S
C378 C377 1.398 . S
C378 C379 1.391 . S
C379 H367 0.950 . S
C379 C375 1.393 . S
C379 C378 1.391 . S
H380 C388 0.950 . S
H381 C393 0.950 . S
H382 C390 0.950 . S
H383 C392 0.950 . S
H384 C394 0.950 . S
H385 C396 0.950 . S
H386 C398 0.950 . S
H387 C399 0.950 . S
C388 H380 0.950 . S
C388 C389 1.386 . S
C388 C390 1.391 . S
C389 C388 1.386 . S
C389 C393 1.393 . S
C390 H382 0.950 . S
C390 C388 1.391 . S
C390 C391 1.400 . S
C391 C390 1.400 . S
C391 C392 1.398 . S
C391 C397 1.491 1_655 S
C392 H383 0.950 . S
C392 C391 1.398 . S
C392 C393 1.391 . S
C393 H381 0.950 . S
C393 C389 1.393 . S
C393 C392 1.391 . S
C394 H384 0.950 . S
C394 C395 1.386 . S
C394 C396 1.391 . S
C395 C394 1.386 . S
C395 C399 1.393 . S
C396 H385 0.950 . S
C396 C394 1.391 . S
C396 C397 1.400 . S
C397 C391 1.491 1_455 S
C397 C396 1.400 . S
C397 C398 1.398 . S
C398 H386 0.950 . S
C398 C397 1.398 . S
C398 C399 1.391 . S
C399 H387 0.950 . S
C399 C395 1.393 . S
C399 C398 1.391 . S
H400 C408 0.950 . S
H401 C413 0.950 . S
H402 C410 0.964 . S
H403 C412 0.950 . S
H404 C414 0.950 . S
H405 C416 0.950 1_565 S
H406 C418 0.950 . S
H407 C419 0.950 . S
C408 H400 0.950 . S
C408 C409 1.386 . S
C408 C410 1.391 . S
C409 C408 1.386 . S
C409 C413 1.393 . S
C410 H402 0.964 . S
C410 C408 1.391 . S
C410 C411 1.400 . S
C411 C410 1.400 . S
C411 C412 1.398 . S
C411 C417 1.491 1_565 S
C412 H403 0.950 . S
C412 C411 1.398 . S
C412 C413 1.391 . S
C413 H401 0.950 . S
C413 C409 1.393 . S
C413 C412 1.391 . S
C414 H404 0.950 . S
C414 C415 1.386 . S
C414 C416 1.391 . S
C415 C414 1.386 . S
C415 C419 1.393 . S
C416 H405 0.950 1_545 S
C416 C414 1.391 . S
C416 C417 1.400 . S
C417 C411 1.491 1_545 S
C417 C416 1.400 . S
C417 C418 1.398 . S
C418 H406 0.950 . S
C418 C417 1.398 . S
C418 C419 1.391 . S
C419 H407 0.950 . S
C419 C415 1.393 . S
C419 C418 1.391 . S
H420 C428 0.950 . S
H421 C433 0.950 . S
H422 C430 0.950 . S
H423 C432 0.950 . S
H424 C434 0.950 . S
H425 C436 0.950 . S
H426 C438 0.950 . S
H427 C439 0.950 . S
C428 H420 0.950 . S
C428 C429 1.386 . S
C428 C430 1.391 . S
C429 C428 1.386 . S
C429 C433 1.393 . S
C430 H422 0.950 . S
C430 C428 1.391 . S
C430 C431 1.400 . S
C431 C430 1.400 . S
C431 C432 1.398 . S
C431 C437 1.491 . S
C432 H423 0.950 . S
C432 C431 1.398 . S
C432 C433 1.391 . S
C433 H421 0.950 . S
C433 C429 1.393 . S
C433 C432 1.391 . S
C434 H424 0.950 . S
C434 C435 1.386 . S
C434 C436 1.391 . S
C435 C434 1.386 . S
C435 C439 1.393 . S
C436 H425 0.950 . S
C436 C434 1.391 . S
C436 C437 1.400 . S
C437 C431 1.491 . S
C437 C436 1.400 . S
C437 C438 1.398 . S
C438 H426 0.950 . S
C438 C437 1.398 . S
C438 C439 1.391 . S
C439 H427 0.950 . S
C439 C435 1.393 . S
C439 C438 1.391 . S
H440 C448 0.950 . S
H441 C453 0.950 . S
H442 C450 0.950 . S
H443 C452 0.950 . S
H444 C454 0.950 . S
H445 C456 0.950 1_455 S
H446 C458 0.950 . S
H447 C459 0.950 . S
C448 H440 0.950 . S
C448 C449 1.386 . S
C448 C450 1.391 . S
C449 C448 1.386 . S
C449 C453 1.393 . S
C450 H442 0.950 . S
C450 C448 1.391 . S
C450 C451 1.400 . S
C451 C450 1.400 . S
C451 C452 1.398 . S
C451 C457 1.491 1_455 S
C452 H443 0.950 . S
C452 C451 1.398 . S
C452 C453 1.391 . S
C453 H441 0.950 . S
C453 C449 1.393 . S
C453 C452 1.391 . S
C454 H444 0.950 . S
C454 C455 1.386 . S
C454 C456 1.391 . S
C455 C454 1.386 . S
C455 C459 1.393 . S
C456 H445 0.950 1_655 S
C456 C454 1.391 . S
C456 C457 1.400 . S
C457 C451 1.491 1_655 S
C457 C456 1.400 . S
C457 C458 1.398 . S
C458 H446 0.950 . S
C458 C457 1.398 . S
C458 C459 1.391 . S
C459 H447 0.950 . S
C459 C455 1.393 . S
C459 C458 1.391 . S
H460 C468 0.950 . S
H461 C473 0.950 . S
H462 C470 0.950 . S
H463 C472 0.950 . S
H464 C474 0.950 . S
H465 C476 0.950 1_545 S
H466 C478 0.950 . S
H467 C479 0.950 . S
C468 H460 0.950 . S
C468 C469 1.386 . S
C468 C470 1.391 . S
C469 C468 1.386 . S
C469 C473 1.393 . S
C470 H462 0.950 . S
C470 C468 1.391 . S
C470 C471 1.400 . S
C471 C470 1.400 . S
C471 C472 1.398 . S
C471 C477 1.491 1_545 S
C472 H463 0.950 . S
C472 C471 1.398 . S
C472 C473 1.391 . S
C473 H461 0.950 . S
C473 C469 1.393 . S
C473 C472 1.391 . S
C474 H464 0.950 . S
C474 C475 1.386 . S
C474 C476 1.391 . S
C475 C474 1.386 . S
C475 C479 1.393 . S
C476 H465 0.950 1_565 S
C476 C474 1.391 . S
C476 C477 1.400 . S
C477 C471 1.491 1_565 S
C477 C476 1.400 . S
C477 C478 1.398 . S
C478 H466 0.950 . S
C478 C477 1.398 . S
C478 C479 1.391 . S
C479 H467 0.950 . S
C479 C475 1.393 . S
C479 C478 1.391 . S
C129 C86 1.360 . S
C135 C8 1.325 . S
C149 C106 1.366 . S
C155 C28 1.337 . S
C169 C6 1.361 . S
C175 C48 1.329 . S
C189 C26 1.381 . S
C195 C68 1.330 . S
C209 C46 1.371 . S
C215 C88 1.340 . S
C229 C66 1.378 . S
C235 C108 1.335 . S
C249 C1 0.811 . S
C255 C61 0.819 . S
C269 C81 0.804 . S
C275 C21 0.813 . S
C289 C101 0.823 . S
C295 C41 0.827 . S
C309 C49 0.826 . S
C315 C109 0.818 . S
C329 C9 0.815 . S
C335 C69 0.806 . S
C349 C89 0.803 . S
C355 C29 0.801 . S
C369 C116 1.542 . S
C375 C19 1.529 . S
C389 C39 1.511 . S
C395 C16 1.531 . S
C409 C59 1.508 . S
C415 C36 1.531 . S
C429 C56 1.547 . S
C435 C79 1.524 . S
C449 C99 1.518 . S
C455 C76 1.545 . S
C469 C119 1.509 . S
C475 C96 1.531 . S
