# Generated by pormake.
# Topology ukb, (4)-cn, num edge types: 1
# Building blocks:
#     Node 0, Type 0, BuildingBlock: UXUYUI_clean_sbu_0, # of connection points: 4
#     Node 1, Type 0, BuildingBlock: UXUYUI_clean_sbu_0, # of connection points: 4
#     Node 2, Type 0, BuildingBlock: UXUYUI_clean_sbu_0, # of connection points: 4
#     Node 3, Type 0, BuildingBlock: UXUYUI_clean_sbu_0, # of connection points: 4
#     Node 4, Type 0, BuildingBlock: UXUYUI_clean_sbu_0, # of connection points: 4
#     Node 5, Type 0, BuildingBlock: UXUYUI_clean_sbu_0, # of connection points: 4
#     Node 6, Type 0, BuildingBlock: UXUYUI_clean_sbu_0, # of connection points: 4
#     Node 7, Type 0, BuildingBlock: UXUYUI_clean_sbu_0, # of connection points: 4
#     Node 8, Type 0, BuildingBlock: UXUYUI_clean_sbu_0, # of connection points: 4
#     Node 9, Type 0, BuildingBlock: UXUYUI_clean_sbu_0, # of connection points: 4
#     Node 10, Type 0, BuildingBlock: UXUYUI_clean_sbu_0, # of connection points: 4
#     Node 11, Type 0, BuildingBlock: UXUYUI_clean_sbu_0, # of connection points: 4
#     Node 12, Type 0, BuildingBlock: UXUYUI_clean_sbu_0, # of connection points: 4
#     Node 13, Type 0, BuildingBlock: UXUYUI_clean_sbu_0, # of connection points: 4
#     Node 14, Type 0, BuildingBlock: UXUYUI_clean_sbu_0, # of connection points: 4
#     Node 15, Type 0, BuildingBlock: UXUYUI_clean_sbu_0, # of connection points: 4
#     Edge 16, Type (0, 0), BuildingBlock: AJUNOK_clean_linker_0, # of connection points: 2
#     Edge 17, Type (0, 0), BuildingBlock: AJUNOK_clean_linker_0, # of connection points: 2
#     Edge 18, Type (0, 0), BuildingBlock: AJUNOK_clean_linker_0, # of connection points: 2
#     Edge 19, Type (0, 0), BuildingBlock: AJUNOK_clean_linker_0, # of connection points: 2
#     Edge 20, Type (0, 0), BuildingBlock: AJUNOK_clean_linker_0, # of connection points: 2
#     Edge 21, Type (0, 0), BuildingBlock: AJUNOK_clean_linker_0, # of connection points: 2
#     Edge 22, Type (0, 0), BuildingBlock: AJUNOK_clean_linker_0, # of connection points: 2
#     Edge 23, Type (0, 0), BuildingBlock: AJUNOK_clean_linker_0, # of connection points: 2
#     Edge 24, Type (0, 0), BuildingBlock: AJUNOK_clean_linker_0, # of connection points: 2
#     Edge 25, Type (0, 0), BuildingBlock: AJUNOK_clean_linker_0, # of connection points: 2
#     Edge 26, Type (0, 0), BuildingBlock: AJUNOK_clean_linker_0, # of connection points: 2
#     Edge 27, Type (0, 0), BuildingBlock: AJUNOK_clean_linker_0, # of connection points: 2
#     Edge 28, Type (0, 0), BuildingBlock: AJUNOK_clean_linker_0, # of connection points: 2
#     Edge 29, Type (0, 0), BuildingBlock: AJUNOK_clean_linker_0, # of connection points: 2
#     Edge 30, Type (0, 0), BuildingBlock: AJUNOK_clean_linker_0, # of connection points: 2
#     Edge 31, Type (0, 0), BuildingBlock: AJUNOK_clean_linker_0, # of connection points: 2
#     Edge 32, Type (0, 0), BuildingBlock: AJUNOK_clean_linker_0, # of connection points: 2
#     Edge 33, Type (0, 0), BuildingBlock: AJUNOK_clean_linker_0, # of connection points: 2
#     Edge 34, Type (0, 0), BuildingBlock: AJUNOK_clean_linker_0, # of connection points: 2
#     Edge 35, Type (0, 0), BuildingBlock: AJUNOK_clean_linker_0, # of connection points: 2
#     Edge 36, Type (0, 0), BuildingBlock: AJUNOK_clean_linker_0, # of connection points: 2
#     Edge 37, Type (0, 0), BuildingBlock: AJUNOK_clean_linker_0, # of connection points: 2
#     Edge 38, Type (0, 0), BuildingBlock: AJUNOK_clean_linker_0, # of connection points: 2
#     Edge 39, Type (0, 0), BuildingBlock: AJUNOK_clean_linker_0, # of connection points: 2
#     Edge 40, Type (0, 0), BuildingBlock: AJUNOK_clean_linker_0, # of connection points: 2
#     Edge 41, Type (0, 0), BuildingBlock: AJUNOK_clean_linker_0, # of connection points: 2
#     Edge 42, Type (0, 0), BuildingBlock: AJUNOK_clean_linker_0, # of connection points: 2
#     Edge 43, Type (0, 0), BuildingBlock: AJUNOK_clean_linker_0, # of connection points: 2
#     Edge 44, Type (0, 0), BuildingBlock: AJUNOK_clean_linker_0, # of connection points: 2
#     Edge 45, Type (0, 0), BuildingBlock: AJUNOK_clean_linker_0, # of connection points: 2
#     Edge 46, Type (0, 0), BuildingBlock: AJUNOK_clean_linker_0, # of connection points: 2
#     Edge 47, Type (0, 0), BuildingBlock: AJUNOK_clean_linker_0, # of connection points: 2
# Relax obj value: 0.234
# Max RMSD: 0.198
# Mean RMSD: 0.198
data_MOF--net-ukb--node1-UXUYUI_clean_sbu_0--edge1-AJUNOK_clean_linker_0
_symmetry_space_group_name_H-M    P1
_symmetry_Int_Tables_number       1
_symmetry_cell_setting            triclinic
loop_
_symmetry_equiv_pos_as_xyz
'x, y, z'
_cell_length_a     50.315186
_cell_length_b     50.313419
_cell_length_c     48.249256
_cell_angle_alpha  89.999585
_cell_angle_beta   90.008413
_cell_angle_gamma 90.00927
loop_
_atom_site_label
_atom_site_type_symbol
_atom_site_fract_x
_atom_site_fract_y
_atom_site_fract_z
_atom_type_partial_charge
Li0 Li 0.5154 0.21685 0.15391 0.0
Li1 Li 0.52738 0.23387 0.20061 0.0
Li2 Li 0.53677 0.18714 0.18807 0.0
Li3 Li 0.49121 0.20329 0.19566 0.0
C4 C 0.57014 0.22712 0.1531 0.0
N5 N 0.60811 0.24259 0.11502 0.0
C6 C 0.58048 0.25291 0.15381 0.0
C7 C 0.57932 0.20913 0.13323 0.0
C8 C 0.59961 0.26037 0.13433 0.0
C9 C 0.59846 0.21735 0.1141 0.0
C10 C 0.46803 0.24627 0.18138 0.0
C11 C 0.43082 0.26285 0.20767 0.0
N12 N 0.41434 0.25664 0.18627 0.0
C13 C 0.45078 0.24012 0.15961 0.0
C14 C 0.45804 0.25779 0.20559 0.0
C15 C 0.42368 0.2455 0.16249 0.0
C16 C 0.49787 0.21083 0.09824 0.0
N17 N 0.51279 0.22601 0.11561 0.0
C18 C 0.5245 0.25512 0.07841 0.0
C19 C 0.52554 0.24811 0.10636 0.0
C20 C 0.50926 0.23988 0.05988 0.0
C21 C 0.49578 0.21747 0.07018 0.0
H22 H 0.48746 0.19366 0.10622 0.0
H23 H 0.53658 0.26033 0.12068 0.0
C24 C 0.56748 0.25874 0.23069 0.0
N25 N 0.54325 0.26318 0.21915 0.0
C26 C 0.58128 0.27938 0.24344 0.0
C27 C 0.54539 0.30916 0.23142 0.0
C28 C 0.532 0.28774 0.21928 0.0
C29 C 0.57042 0.3051 0.24372 0.0
H30 H 0.57625 0.23916 0.22961 0.0
H31 H 0.51298 0.29081 0.20934 0.0
C32 C 0.50681 0.15563 0.15444 0.0
N33 N 0.51199 0.10458 0.13405 0.0
C34 C 0.49379 0.13451 0.16746 0.0
C35 C 0.52226 0.15083 0.13091 0.0
C36 C 0.49672 0.10883 0.15688 0.0
C37 C 0.52469 0.12487 0.12096 0.0
C38 C 0.52969 0.20747 0.24828 0.0
C39 C 0.55232 0.19499 0.25895 0.0
C40 C 0.51692 0.22711 0.26386 0.0
C41 C 0.56193 0.20257 0.28494 0.0
C42 C 0.52718 0.23416 0.28974 0.0
N43 N 0.54929 0.22185 0.29965 0.0
C44 C 0.58782 0.16501 0.19179 0.0
C45 C 0.55336 0.13524 0.20429 0.0
C46 C 0.60705 0.14653 0.19967 0.0
N47 N 0.56157 0.15915 0.19432 0.0
C48 C 0.57196 0.11602 0.21214 0.0
C49 C 0.59923 0.12181 0.21045 0.0
H50 H 0.59389 0.18448 0.18483 0.0
H51 H 0.53243 0.13143 0.20719 0.0
C52 C 0.44153 0.17772 0.19184 0.0
N53 N 0.45761 0.1916 0.20924 0.0
C54 C 0.41943 0.16417 0.20219 0.0
C55 C 0.42966 0.18125 0.24777 0.0
C56 C 0.45175 0.19418 0.2366 0.0
C57 C 0.41367 0.16525 0.23067 0.0
H58 H 0.44682 0.17583 0.17019 0.0
H59 H 0.46492 0.20518 0.25002 0.0
O60 O 0.55126 0.21953 0.17189 0.0
O61 O 0.49445 0.24036 0.17929 0.0
O62 O 0.50422 0.1809 0.16453 0.0
O63 O 0.52018 0.20056 0.22271 0.0
H64 H 0.5736 0.2671 0.16906 0.0
H65 H 0.57182 0.189 0.13266 0.0
H66 H 0.60767 0.2803 0.13452 0.0
H67 H 0.60568 0.20366 0.09854 0.0
H68 H 0.42277 0.27164 0.22633 0.0
H69 H 0.4582 0.23103 0.14082 0.0
H70 H 0.47115 0.26255 0.22266 0.0
H71 H 0.41006 0.24074 0.14587 0.0
H72 H 0.53584 0.27213 0.07142 0.0
H73 H 0.48361 0.20526 0.05672 0.0
H74 H 0.60045 0.27529 0.25271 0.0
H75 H 0.5366 0.32877 0.23039 0.0
H76 H 0.48185 0.13783 0.18578 0.0
H77 H 0.53218 0.16699 0.12036 0.0
H78 H 0.4869 0.09227 0.16686 0.0
H79 H 0.53664 0.12087 0.10279 0.0
H80 H 0.56244 0.1797 0.24727 0.0
H81 H 0.49957 0.23719 0.25582 0.0
H82 H 0.57948 0.19315 0.29339 0.0
H83 H 0.51763 0.24949 0.30189 0.0
H84 H 0.62784 0.152 0.19843 0.0
H85 H 0.56504 0.09709 0.22003 0.0
H86 H 0.40809 0.15161 0.18833 0.0
H87 H 0.42586 0.18272 0.26981 0.0
Li88 Li 0.31099 0.53829 0.68991 0.0
Li89 Li 0.29759 0.49156 0.69775 0.0
Li90 Li 0.28332 0.51415 0.65514 0.0
Li91 Li 0.26548 0.52581 0.70169 0.0
C92 C 0.34574 0.5033 0.65982 0.0
N93 N 0.39837 0.49685 0.6449 0.0
C94 C 0.36375 0.49186 0.67838 0.0
C95 C 0.35447 0.51134 0.63363 0.0
C96 C 0.39028 0.48877 0.67045 0.0
C97 C 0.38117 0.50798 0.62651 0.0
C98 C 0.2894 0.52992 0.74969 0.0
C99 C 0.26061 0.52515 0.78938 0.0
N100 N 0.27039 0.54822 0.79995 0.0
C101 C 0.29936 0.55344 0.76111 0.0
C102 C 0.27008 0.5155 0.7641 0.0
C103 C 0.28943 0.56241 0.78649 0.0
C104 C 0.32597 0.59025 0.70174 0.0
N105 N 0.33648 0.56593 0.69612 0.0
C106 C 0.38019 0.58185 0.70653 0.0
C107 C 0.3631 0.56151 0.69801 0.0
C108 C 0.36962 0.6067 0.71363 0.0
C109 C 0.34224 0.61101 0.71063 0.0
H110 H 0.30471 0.59317 0.70065 0.0
H111 H 0.37108 0.54204 0.69404 0.0
C112 C 0.32268 0.4412 0.69431 0.0
N113 N 0.31068 0.45862 0.71184 0.0
C114 C 0.3364 0.41925 0.70482 0.0
C115 C 0.32336 0.4325 0.751 0.0
C116 C 0.31022 0.45436 0.73964 0.0
C117 C 0.33758 0.41523 0.7336 0.0
H118 H 0.32281 0.44515 0.67227 0.0
H119 H 0.30057 0.46848 0.75313 0.0
C120 C 0.27961 0.57 0.65305 0.0
N121 N 0.28288 0.6103 0.61435 0.0
C122 C 0.25882 0.58822 0.65029 0.0
C123 C 0.30208 0.57229 0.63623 0.0
C124 C 0.26084 0.60845 0.63057 0.0
C125 C 0.30336 0.5928 0.61677 0.0
C126 C 0.25624 0.46548 0.68236 0.0
C127 C 0.26225 0.44907 0.65985 0.0
C128 C 0.24617 0.45433 0.70672 0.0
C129 C 0.25827 0.42168 0.66217 0.0
C130 C 0.24249 0.42685 0.70824 0.0
N131 N 0.24859 0.41122 0.68613 0.0
C132 C 0.28988 0.49461 0.60036 0.0
C133 C 0.25517 0.52596 0.6061 0.0
C134 C 0.2844 0.49265 0.57203 0.0
N135 N 0.27542 0.51123 0.61666 0.0
C136 C 0.24923 0.52487 0.57786 0.0
C137 C 0.26408 0.50822 0.56035 0.0
H138 H 0.30558 0.48276 0.60942 0.0
H139 H 0.24369 0.53869 0.61961 0.0
C140 C 0.23765 0.5672 0.725 0.0
N141 N 0.23538 0.54083 0.71946 0.0
C142 C 0.21642 0.58112 0.73646 0.0
C143 C 0.19096 0.54033 0.73702 0.0
C144 C 0.21275 0.52714 0.72535 0.0
C145 C 0.19258 0.56775 0.74216 0.0
H146 H 0.25593 0.57749 0.7201 0.0
H147 H 0.21148 0.50619 0.72056 0.0
O148 O 0.31956 0.50604 0.66695 0.0
O149 O 0.29856 0.52106 0.72461 0.0
O150 O 0.2778 0.54997 0.6721 0.0
O151 O 0.26071 0.49225 0.68072 0.0
H152 H 0.35746 0.48582 0.69887 0.0
H153 H 0.34079 0.52003 0.6189 0.0
H154 H 0.40446 0.48006 0.68464 0.0
H155 H 0.3882 0.51416 0.60632 0.0
H156 H 0.24544 0.51433 0.80057 0.0
H157 H 0.31467 0.5646 0.75063 0.0
H158 H 0.2621 0.4973 0.7556 0.0
H159 H 0.2969 0.58063 0.79549 0.0
H160 H 0.40124 0.57787 0.70876 0.0
H161 H 0.33346 0.63002 0.71583 0.0
H162 H 0.34711 0.40641 0.69069 0.0
H163 H 0.32319 0.4297 0.77325 0.0
H164 H 0.24128 0.58666 0.66317 0.0
H165 H 0.31837 0.55843 0.63827 0.0
H166 H 0.24488 0.62267 0.62815 0.0
H167 H 0.32064 0.59482 0.6036 0.0
H168 H 0.27014 0.45736 0.64089 0.0
H169 H 0.24143 0.46672 0.72434 0.0
H170 H 0.26297 0.40873 0.64496 0.0
H171 H 0.23485 0.41793 0.72701 0.0
H172 H 0.29582 0.47894 0.55949 0.0
H173 H 0.2334 0.5372 0.56974 0.0
H174 H 0.21848 0.60219 0.74054 0.0
H175 H 0.17281 0.52946 0.74117 0.0
Li176 Li 0.95893 0.31475 0.19088 0.0
Li177 Li 0.00494 0.299 0.19767 0.0
Li178 Li 0.98209 0.28576 0.15612 0.0
Li179 Li 0.96973 0.26815 0.20267 0.0
C180 C 0.9843 0.34105 0.14787 0.0
N181 N 0.97013 0.37819 0.10835 0.0
C182 C 0.99938 0.36415 0.1445 0.0
C183 C 0.96199 0.33687 0.13118 0.0
C184 C 0.9919 0.38269 0.1244 0.0
C185 C 0.95517 0.35586 0.11129 0.0
C186 C 0.96793 0.29385 0.25102 0.0
C187 C 0.97213 0.26616 0.29162 0.0
N188 N 0.95093 0.27873 0.30317 0.0
C189 C 0.94632 0.30665 0.26341 0.0
C190 C 0.98109 0.2736 0.26534 0.0
C191 C 0.93798 0.29867 0.28975 0.0
C192 C 0.90828 0.33343 0.20332 0.0
N193 N 0.93327 0.34172 0.19708 0.0
C194 C 0.92093 0.38704 0.20461 0.0
C195 C 0.93993 0.36791 0.19751 0.0
C196 C 0.89495 0.37899 0.21119 0.0
C197 C 0.8887 0.35181 0.2104 0.0
H198 H 0.9038 0.31241 0.20372 0.0
H199 H 0.96012 0.37389 0.19302 0.0
C200 C 0.05339 0.32652 0.1946 0.0
N201 N 0.03834 0.31109 0.21156 0.0
C202 C 0.0761 0.33914 0.20478 0.0
C203 C 0.06808 0.31877 0.24936 0.0
C204 C 0.04542 0.30666 0.23835 0.0
C205 C 0.08345 0.3357 0.23265 0.0
H206 H 0.04717 0.32985 0.17343 0.0
H207 H 0.03304 0.29448 0.25146 0.0
C208 C 0.92456 0.27053 0.16135 0.0
N209 N 0.88031 0.24677 0.13807 0.0
C210 C 0.92211 0.24284 0.16117 0.0
C211 C 0.90449 0.2861 0.14961 0.0
C212 C 0.89959 0.23121 0.14934 0.0
C213 C 0.88229 0.27372 0.13794 0.0
C214 C 0.02925 0.25655 0.18436 0.0
C215 C 0.04735 0.2642 0.1639 0.0
C216 C 0.03838 0.2438 0.20827 0.0
C217 C 0.0744 0.25919 0.16783 0.0
C218 C 0.06558 0.23913 0.21143 0.0
N219 N 0.08288 0.24688 0.19132 0.0
C220 C 0.00351 0.29097 0.10182 0.0
C221 C 0.9694 0.2588 0.10591 0.0
C222 C 0.00611 0.28554 0.07351 0.0
N223 N 0.98522 0.27775 0.11735 0.0
C224 C 0.97105 0.25301 0.07769 0.0
C225 C 0.98947 0.26655 0.061 0.0
H226 H 0.0162 0.30566 0.11145 0.0
H227 H 0.95549 0.24807 0.11862 0.0
C228 C 0.92962 0.24328 0.23258 0.0
N229 N 0.9539 0.23877 0.22118 0.0
C230 C 0.91539 0.22252 0.24457 0.0
C231 C 0.95127 0.19265 0.23271 0.0
C232 C 0.96503 0.21415 0.22121 0.0
C233 C 0.92587 0.19667 0.24411 0.0
H234 H 0.92109 0.26299 0.23182 0.0
H235 H 0.98416 0.21106 0.21153 0.0
O236 O 0.99133 0.32287 0.16765 0.0
O237 O 0.97614 0.30119 0.22508 0.0
O238 O 0.94621 0.28237 0.1734 0.0
O239 O 0.00281 0.26203 0.18125 0.0
H240 H 0.01664 0.36777 0.15735 0.0
H241 H 0.95017 0.31911 0.13339 0.0
H242 H 0.00338 0.40067 0.12159 0.0
H243 H 0.93798 0.35282 0.09819 0.0
H244 H 0.98197 0.25033 0.30278 0.0
H245 H 0.93611 0.3226 0.25286 0.0
H246 H 0.99771 0.26334 0.25603 0.0
H247 H 0.92123 0.30834 0.29952 0.0
H248 H 0.92651 0.40782 0.20526 0.0
H249 H 0.86914 0.34474 0.21617 0.0
H250 H 0.08697 0.35251 0.19132 0.0
H251 H 0.07307 0.31558 0.27094 0.0
H252 H 0.93761 0.23039 0.16962 0.0
H253 H 0.90596 0.30755 0.14951 0.0
H254 H 0.8975 0.20982 0.14902 0.0
H255 H 0.86662 0.28556 0.12882 0.0
H256 H 0.04062 0.2742 0.14535 0.0
H257 H 0.02465 0.23775 0.22431 0.0
H258 H 0.08865 0.26516 0.15225 0.0
H259 H 0.07295 0.22941 0.22989 0.0
H260 H 0.02115 0.29591 0.06167 0.0
H261 H 0.95784 0.2382 0.06897 0.0
H262 H 0.89618 0.22662 0.25374 0.0
H263 H 0.95998 0.17298 0.23187 0.0
Li264 Li 0.18651 0.95788 0.68835 0.0
Li265 Li 0.19791 0.00444 0.69566 0.0
Li266 Li 0.21538 0.98056 0.65382 0.0
Li267 Li 0.23321 0.97241 0.70039 0.0
C268 C 0.15687 0.98395 0.64652 0.0
N269 N 0.11497 0.97481 0.61064 0.0
C270 C 0.13273 0.99728 0.65013 0.0
C271 C 0.15978 0.96634 0.62433 0.0
C272 C 0.11175 0.99227 0.63189 0.0
C273 C 0.13837 0.9619 0.6065 0.0
C274 C 0.19071 0.98575 0.74652 0.0
C275 C 0.19587 0.01535 0.78548 0.0
N276 N 0.17081 0.00928 0.79393 0.0
C277 C 0.16511 0.9796 0.75574 0.0
C278 C 0.20633 0.00356 0.76164 0.0
C279 C 0.15537 0.99177 0.7797 0.0
C280 C 0.1684 0.90667 0.7019 0.0
N281 N 0.16014 0.93164 0.69547 0.0
C282 C 0.11505 0.92001 0.70535 0.0
C283 C 0.13404 0.93856 0.69685 0.0
C284 C 0.1231 0.8942 0.71247 0.0
C285 C 0.15006 0.88743 0.71018 0.0
H286 H 0.18935 0.90191 0.70136 0.0
H287 H 0.1281 0.95875 0.69248 0.0
C288 C 0.19557 0.0595 0.71267 0.0
N289 N 0.18218 0.03622 0.70931 0.0
C290 C 0.18231 0.08198 0.7228 0.0
C291 C 0.14205 0.0559 0.7258 0.0
C292 C 0.156 0.03407 0.71572 0.0
C293 C 0.15515 0.08027 0.72936 0.0
H294 H 0.21641 0.06065 0.70733 0.0
H295 H 0.14597 0.01524 0.71309 0.0
C296 C 0.22588 0.92371 0.65692 0.0
N297 N 0.23572 0.87872 0.62561 0.0
C298 C 0.25157 0.91322 0.65533 0.0
C299 C 0.20512 0.91094 0.643 0.0
C300 C 0.25617 0.89058 0.63926 0.0
C301 C 0.2105 0.88832 0.62718 0.0
C302 C 0.2596 0.01471 0.6815 0.0
C303 C 0.27755 0.01146 0.65965 0.0
C304 C 0.2681 0.02649 0.70619 0.0
C305 C 0.30388 0.01966 0.66306 0.0
C306 C 0.2946 0.03439 0.7088 0.0
N307 N 0.3118 0.03082 0.68738 0.0
C308 C 0.2115 0.0025 0.60008 0.0
C309 C 0.24244 0.96719 0.60373 0.0
C310 C 0.21669 0.00497 0.57174 0.0
N311 N 0.22407 0.98358 0.61535 0.0
C312 C 0.24813 0.96886 0.57547 0.0
C313 C 0.23495 0.98773 0.55902 0.0
H314 H 0.1973 0.01559 0.60994 0.0
H315 H 0.25279 0.95287 0.61636 0.0
C316 C 0.26169 0.95505 0.74747 0.0
N317 N 0.26413 0.96146 0.72022 0.0
C318 C 0.28298 0.94361 0.76173 0.0
C319 C 0.30912 0.94622 0.71981 0.0
C320 C 0.28737 0.95768 0.7064 0.0
C321 C 0.30684 0.93842 0.74764 0.0
H322 H 0.24292 0.95793 0.75792 0.0
H323 H 0.28868 0.96246 0.68462 0.0
O324 O 0.17766 0.98873 0.66419 0.0
O325 O 0.20038 0.97449 0.72276 0.0
O326 O 0.22104 0.94583 0.67273 0.0
O327 O 0.23379 0.00663 0.67862 0.0
H328 H 0.13014 0.01134 0.66683 0.0
H329 H 0.17847 0.95647 0.6206 0.0
H330 H 0.09292 0.00234 0.63458 0.0
H331 H 0.1404 0.94828 0.58928 0.0
H332 H 0.20768 0.02932 0.79726 0.0
H333 H 0.15279 0.96575 0.74442 0.0
H334 H 0.22627 0.00833 0.75497 0.0
H335 H 0.13552 0.98732 0.78697 0.0
H336 H 0.09439 0.92589 0.70687 0.0
H337 H 0.157 0.86778 0.71583 0.0
H338 H 0.193 0.10054 0.725 0.0
H339 H 0.12119 0.05371 0.73089 0.0
H340 H 0.26786 0.92254 0.66617 0.0
H341 H 0.18495 0.91807 0.64472 0.0
H342 H 0.276 0.88243 0.63768 0.0
H343 H 0.1946 0.87831 0.61628 0.0
H344 H 0.27129 0.00256 0.64034 0.0
H345 H 0.25442 0.02944 0.72316 0.0
H346 H 0.31802 0.01711 0.64639 0.0
H347 H 0.30149 0.04338 0.72786 0.0
H348 H 0.20663 0.02029 0.55998 0.0
H349 H 0.26245 0.95528 0.56652 0.0
H350 H 0.28058 0.93827 0.78333 0.0
H351 H 0.32712 0.94238 0.70816 0.0
Li352 Li 0.48943 0.29426 0.80407 0.0
Li353 Li 0.53549 0.30939 0.81048 0.0
Li354 Li 0.52443 0.26355 0.80026 0.0
Li355 Li 0.51287 0.28209 0.84607 0.0
C356 C 0.52377 0.28521 0.75076 0.0
N357 N 0.53525 0.26363 0.6994 0.0
C358 C 0.54636 0.29339 0.7362 0.0
C359 C 0.50672 0.26652 0.73883 0.0
C360 C 0.5519 0.28214 0.71036 0.0
C361 C 0.51293 0.2557 0.71297 0.0
C362 C 0.49455 0.34366 0.83016 0.0
C363 C 0.47387 0.38323 0.84835 0.0
N364 N 0.47378 0.39398 0.82248 0.0
C365 C 0.49426 0.35511 0.80374 0.0
C366 C 0.48425 0.35781 0.85265 0.0
C367 C 0.48366 0.38056 0.80029 0.0
C368 C 0.4379 0.31502 0.81025 0.0
N369 N 0.4558 0.30662 0.79104 0.0
C370 C 0.42987 0.32541 0.75447 0.0
C371 C 0.45194 0.311 0.76352 0.0
C372 C 0.41198 0.3357 0.77401 0.0
C373 C 0.41567 0.32963 0.80213 0.0
H374 H 0.4418 0.31185 0.83204 0.0
H375 H 0.4668 0.30484 0.74873 0.0
C376 C 0.58418 0.32571 0.7908 0.0
N377 N 0.56254 0.33543 0.80424 0.0
C378 C 0.60442 0.34272 0.78221 0.0
C379 C 0.58106 0.37925 0.80374 0.0
C380 C 0.56101 0.36151 0.81165 0.0
C381 C 0.60264 0.36992 0.78813 0.0
H382 H 0.58531 0.30473 0.78605 0.0
H383 H 0.54418 0.3687 0.8233 0.0
C384 C 0.46475 0.25209 0.82228 0.0
N385 N 0.41095 0.24081 0.82305 0.0
C386 C 0.44983 0.2565 0.84627 0.0
C387 C 0.45233 0.24153 0.79881 0.0
C388 C 0.42266 0.25078 0.84623 0.0
C389 C 0.42511 0.23608 0.79957 0.0
C390 C 0.56811 0.28417 0.84801 0.0
C391 C 0.59113 0.26881 0.85037 0.0
C392 C 0.56487 0.30656 0.86486 0.0
C393 C 0.61054 0.27606 0.86966 0.0
C394 C 0.58474 0.31314 0.88388 0.0
N395 N 0.60697 0.29788 0.88587 0.0
C396 C 0.56632 0.23484 0.77884 0.0
C397 C 0.5253 0.21224 0.77345 0.0
C398 C 0.57994 0.21396 0.76631 0.0
N399 N 0.53958 0.23355 0.78233 0.0
C400 C 0.53812 0.19099 0.76035 0.0
C401 C 0.56588 0.19157 0.75694 0.0
H402 H 0.5771 0.25213 0.78598 0.0
H403 H 0.50402 0.21181 0.77636 0.0
C404 C 0.49335 0.28863 0.90093 0.0
N405 N 0.511 0.27517 0.88489 0.0
C406 C 0.49174 0.28348 0.92934 0.0
C407 C 0.5271 0.25136 0.92432 0.0
C408 C 0.52755 0.25664 0.89592 0.0
C409 C 0.50904 0.26488 0.94152 0.0
H410 H 0.48018 0.30303 0.89154 0.0
H411 H 0.54126 0.24604 0.88266 0.0
O412 O 0.51824 0.2956 0.77639 0.0
O413 O 0.5036 0.31825 0.83385 0.0
O414 O 0.49133 0.25802 0.82183 0.0
O415 O 0.54898 0.27728 0.82917 0.0
H416 H 0.55936 0.30845 0.74451 0.0
H417 H 0.48897 0.26027 0.74953 0.0
H418 H 0.5694 0.28822 0.69898 0.0
H419 H 0.50001 0.241 0.70369 0.0
H420 H 0.46581 0.39439 0.86556 0.0
H421 H 0.50198 0.34444 0.78604 0.0
H422 H 0.48413 0.34918 0.87319 0.0
H423 H 0.48322 0.38961 0.77996 0.0
H424 H 0.42779 0.33 0.73264 0.0
H425 H 0.40221 0.33724 0.81775 0.0
H426 H 0.62112 0.33478 0.77071 0.0
H427 H 0.57934 0.40012 0.80898 0.0
H428 H 0.45903 0.26445 0.86468 0.0
H429 H 0.4635 0.23755 0.78019 0.0
H430 H 0.41088 0.2543 0.86462 0.0
H431 H 0.41526 0.22806 0.78148 0.0
H432 H 0.59394 0.25143 0.83749 0.0
H433 H 0.54723 0.31874 0.86332 0.0
H434 H 0.62845 0.26433 0.87174 0.0
H435 H 0.58248 0.33038 0.89706 0.0
H436 H 0.60134 0.2152 0.76434 0.0
H437 H 0.52641 0.17443 0.75286 0.0
H438 H 0.47683 0.29371 0.94149 0.0
H439 H 0.5409 0.23695 0.93274 0.0
Li440 Li 0.18891 0.53686 0.31253 0.0
Li441 Li 0.20126 0.489 0.30577 0.0
Li442 Li 0.21635 0.51466 0.34825 0.0
Li443 Li 0.23332 0.52418 0.30323 0.0
C444 C 0.15339 0.49843 0.33762 0.0
N445 N 0.10075 0.48306 0.34005 0.0
C446 C 0.13941 0.49298 0.31324 0.0
C447 C 0.14063 0.49611 0.36322 0.0
C448 C 0.11281 0.48518 0.31491 0.0
C449 C 0.11398 0.48836 0.36401 0.0
C450 C 0.21414 0.52145 0.2538 0.0
C451 C 0.24343 0.50473 0.21826 0.0
N452 N 0.24053 0.52788 0.20402 0.0
C453 C 0.21133 0.545 0.23873 0.0
C454 C 0.23025 0.5011 0.24346 0.0
C455 C 0.22489 0.5479 0.21364 0.0
C456 C 0.17422 0.58584 0.29264 0.0
N457 N 0.16347 0.56412 0.30505 0.0
C458 C 0.11988 0.58277 0.3012 0.0
C459 C 0.13691 0.56253 0.31016 0.0
C460 C 0.13038 0.60474 0.28698 0.0
C461 C 0.158 0.60648 0.28341 0.0
H462 H 0.19546 0.58685 0.28941 0.0
H463 H 0.12876 0.54552 0.32073 0.0
C464 C 0.18225 0.43622 0.31137 0.0
N465 N 0.1878 0.45585 0.29289 0.0
C466 C 0.16859 0.41343 0.30281 0.0
C467 C 0.16755 0.43114 0.25625 0.0
C468 C 0.18093 0.45364 0.26573 0.0
C469 C 0.16085 0.41088 0.27496 0.0
H470 H 0.18744 0.4388 0.33297 0.0
H471 H 0.18462 0.4699 0.25166 0.0
C472 C 0.21426 0.56916 0.35009 0.0
N473 N 0.20026 0.60754 0.38839 0.0
C474 C 0.23001 0.59181 0.35348 0.0
C475 C 0.19136 0.56605 0.3662 0.0
C476 C 0.22261 0.61098 0.37294 0.0
C477 C 0.18463 0.58567 0.38544 0.0
C478 C 0.26203 0.48166 0.32241 0.0
C479 C 0.28187 0.49521 0.33694 0.0
C480 C 0.26858 0.45937 0.30655 0.0
C481 C 0.30813 0.48639 0.33505 0.0
C482 C 0.29508 0.45115 0.30523 0.0
N483 N 0.31414 0.46473 0.31936 0.0
C484 C 0.21274 0.49348 0.40288 0.0
C485 C 0.24316 0.52903 0.39714 0.0
C486 C 0.21933 0.49148 0.43099 0.0
N487 N 0.22469 0.51207 0.38666 0.0
C488 C 0.25013 0.52791 0.42509 0.0
C489 C 0.23839 0.50876 0.44238 0.0
H490 H 0.19824 0.48012 0.39394 0.0
H491 H 0.25253 0.54348 0.38376 0.0
C492 C 0.26404 0.56509 0.28343 0.0
N493 N 0.26411 0.53811 0.28459 0.0
C494 C 0.28523 0.57875 0.27156 0.0
C495 C 0.30601 0.53664 0.26112 0.0
C496 C 0.28426 0.52372 0.27319 0.0
C497 C 0.30686 0.56452 0.2608 0.0
H498 H 0.24743 0.57607 0.2918 0.0
H499 H 0.28358 0.5023 0.27336 0.0
O500 O 0.17958 0.50558 0.33661 0.0
O501 O 0.20153 0.51843 0.27873 0.0
O502 O 0.22144 0.55027 0.33109 0.0
O503 O 0.23621 0.48985 0.32405 0.0
H504 H 0.14889 0.49505 0.29324 0.0
H505 H 0.15121 0.5003 0.38227 0.0
H506 H 0.10173 0.4809 0.29623 0.0
H507 H 0.10382 0.48652 0.38368 0.0
H508 H 0.2561 0.48922 0.21012 0.0
H509 H 0.19884 0.5609 0.24628 0.0
H510 H 0.23292 0.48286 0.25503 0.0
H511 H 0.22297 0.56607 0.20182 0.0
H512 H 0.09869 0.58091 0.30463 0.0
H513 H 0.16695 0.62349 0.27331 0.0
H514 H 0.16349 0.39831 0.31788 0.0
H515 H 0.16125 0.43026 0.2348 0.0
H516 H 0.24784 0.59451 0.34125 0.0
H517 H 0.17887 0.54873 0.36399 0.0
H518 H 0.23465 0.62859 0.37579 0.0
H519 H 0.16698 0.5835 0.39803 0.0
H520 H 0.27707 0.51251 0.34927 0.0
H521 H 0.25336 0.44863 0.2953 0.0
H522 H 0.32375 0.49677 0.34602 0.0
H523 H 0.30049 0.43399 0.29295 0.0
H524 H 0.20983 0.47642 0.44361 0.0
H525 H 0.26436 0.5421 0.43311 0.0
H526 H 0.28477 0.60027 0.27091 0.0
H527 H 0.32221 0.52501 0.25268 0.0
Li528 Li 0.97553 0.23537 0.80195 0.0
Li529 Li 0.98606 0.21736 0.8489 0.0
Li530 Li 0.01029 0.2036 0.80763 0.0
Li531 Li 0.96366 0.18878 0.81349 0.0
C532 C 0.03488 0.24545 0.82262 0.0
N533 N 0.08898 0.25397 0.81859 0.0
C534 C 0.05176 0.23749 0.84407 0.0
C535 C 0.04547 0.25788 0.79919 0.0
C536 C 0.07907 0.24194 0.84162 0.0
C537 C 0.07288 0.26197 0.79753 0.0
C538 C 0.92872 0.22918 0.84437 0.0
C539 C 0.89072 0.21858 0.87277 0.0
N540 N 0.88351 0.24464 0.87261 0.0
C541 C 0.9208 0.25581 0.84426 0.0
C542 C 0.91345 0.21036 0.85854 0.0
C543 C 0.89794 0.26324 0.85875 0.0
C544 C 0.93732 0.26187 0.77052 0.0
N545 N 0.96107 0.2654 0.78344 0.0
C546 C 0.9611 0.31155 0.7717 0.0
C547 C 0.9731 0.28959 0.78433 0.0
C548 C 0.93675 0.30832 0.75789 0.0
C549 C 0.92487 0.28312 0.7573 0.0
H550 H 0.9279 0.24255 0.77081 0.0
H551 H 0.99174 0.2919 0.79522 0.0
C552 C 0.00447 0.21251 0.90459 0.0
N553 N 0.988 0.22624 0.88741 0.0
C554 C 0.00624 0.21931 0.93264 0.0
C555 C 0.97408 0.25414 0.92479 0.0
C556 C 0.9732 0.24691 0.89689 0.0
C557 C 0.99096 0.24045 0.94307 0.0
H558 H 0.01635 0.19638 0.89647 0.0
H559 H 0.96076 0.25793 0.88278 0.0
C560 C 0.97456 0.2099 0.75352 0.0
N561 N 0.95928 0.22608 0.70113 0.0
C562 C 0.95309 0.19767 0.74028 0.0
C563 C 0.98849 0.23012 0.73993 0.0
C564 C 0.94562 0.20618 0.71383 0.0
C565 C 0.98038 0.2381 0.71352 0.0
C566 C 0.99048 0.15939 0.85441 0.0
C567 C 0.0047 0.13578 0.85082 0.0
C568 C 0.97117 0.16102 0.87513 0.0
C569 C 0.99922 0.11409 0.86798 0.0
C570 C 0.9663 0.13892 0.89189 0.0
N571 N 0.98029 0.1161 0.88799 0.0
C572 C 0.05849 0.17539 0.81187 0.0
C573 C 0.0505 0.1941 0.76757 0.0
C574 C 0.08032 0.1613 0.80166 0.0
N575 N 0.04367 0.19075 0.79459 0.0
C576 C 0.07227 0.18055 0.75654 0.0
C577 C 0.08698 0.16322 0.77345 0.0
H578 H 0.05249 0.17297 0.83324 0.0
H579 H 0.03833 0.20627 0.75424 0.0
C580 C 0.91313 0.17139 0.79861 0.0
N581 N 0.93744 0.16234 0.80644 0.0
C582 C 0.89338 0.15361 0.79037 0.0
C583 C 0.92372 0.11736 0.79922 0.0
C584 C 0.94304 0.13591 0.80696 0.0
C585 C 0.89864 0.12619 0.79023 0.0
H586 H 0.9094 0.19255 0.79785 0.0
H587 H 0.96265 0.1292 0.81275 0.0
O588 O 0.00822 0.2405 0.82429 0.0
O589 O 0.95095 0.22153 0.83012 0.0
O590 O 0.98187 0.20211 0.77962 0.0
O591 O 0.99547 0.18068 0.83756 0.0
H592 H 0.04389 0.22769 0.86225 0.0
H593 H 0.03268 0.26415 0.7824 0.0
H594 H 0.09239 0.23574 0.85799 0.0
H595 H 0.08137 0.27146 0.77946 0.0
H596 H 0.87876 0.20423 0.88387 0.0
H597 H 0.93233 0.27065 0.83336 0.0
H598 H 0.91892 0.18958 0.85837 0.0
H599 H 0.89167 0.28381 0.85899 0.0
H600 H 0.97064 0.33083 0.77275 0.0
H601 H 0.90581 0.28006 0.74736 0.0
H602 H 0.0196 0.20829 0.94597 0.0
H603 H 0.96143 0.27012 0.93198 0.0
H604 H 0.94232 0.18174 0.75025 0.0
H605 H 0.00503 0.23994 0.74991 0.0
H606 H 0.92897 0.19696 0.7034 0.0
H607 H 0.9908 0.25393 0.70292 0.0
H608 H 0.01962 0.13412 0.83475 0.0
H609 H 0.96019 0.1792 0.87836 0.0
H610 H 0.00999 0.09566 0.86535 0.0
H611 H 0.95141 0.13992 0.90803 0.0
H612 H 0.09074 0.14777 0.81531 0.0
H613 H 0.07681 0.18262 0.7347 0.0
H614 H 0.87445 0.16133 0.78335 0.0
H615 H 0.92846 0.09639 0.80002 0.0
Li616 Li 0.26332 0.97617 0.29967 0.0
Li617 Li 0.2811 0.98328 0.34654 0.0
Li618 Li 0.29916 0.00748 0.30536 0.0
Li619 Li 0.30963 0.96053 0.31166 0.0
C620 C 0.23782 0.019 0.31854 0.0
N621 N 0.18643 0.037 0.31124 0.0
C622 C 0.21949 0.01731 0.34024 0.0
C623 C 0.23012 0.03015 0.29326 0.0
C624 C 0.19357 0.02646 0.33611 0.0
C625 C 0.20401 0.03903 0.28994 0.0
C626 C 0.26916 0.92609 0.34069 0.0
C627 C 0.28319 0.88731 0.36625 0.0
N628 N 0.25752 0.87895 0.36758 0.0
C629 C 0.24296 0.91691 0.34202 0.0
C630 C 0.28948 0.91099 0.35265 0.0
C631 C 0.23746 0.89313 0.35583 0.0
C632 C 0.23627 0.95662 0.25307 0.0
N633 N 0.23262 0.96536 0.27946 0.0
C634 C 0.18737 0.95087 0.27881 0.0
C635 C 0.20865 0.96315 0.29228 0.0
C636 C 0.19098 0.94048 0.25209 0.0
C637 C 0.21556 0.94413 0.23887 0.0
H638 H 0.25562 0.95824 0.2435 0.0
H639 H 0.20642 0.96957 0.31351 0.0
C640 C 0.28487 0.0031 0.40139 0.0
N641 N 0.27185 0.98548 0.38488 0.0
C642 C 0.27859 0.00496 0.42955 0.0
C643 C 0.24543 0.97078 0.42309 0.0
C644 C 0.25226 0.96966 0.39508 0.0
C645 C 0.25858 0.98868 0.44071 0.0
H646 H 0.3002 0.01565 0.39268 0.0
H647 H 0.24182 0.95624 0.38149 0.0
C648 C 0.30744 0.98904 0.25447 0.0
N649 N 0.33028 0.01175 0.20812 0.0
C650 C 0.33365 0.98292 0.24731 0.0
C651 C 0.29273 0.00641 0.23789 0.0
C652 C 0.34487 0.99468 0.22383 0.0
C653 C 0.30467 0.01778 0.2146 0.0
C654 C 0.33885 0.98507 0.35513 0.0
C655 C 0.36291 0.99895 0.35409 0.0
C656 C 0.33499 0.96577 0.37556 0.0
C657 C 0.38287 0.99292 0.37322 0.0
C658 C 0.3554 0.96034 0.39433 0.0
N659 N 0.37874 0.97389 0.39276 0.0
C660 C 0.3025 0.06258 0.28871 0.0
C661 C 0.342 0.03694 0.28733 0.0
C662 C 0.31629 0.08501 0.27922 0.0
N663 N 0.31559 0.03921 0.29254 0.0
C664 C 0.35644 0.05865 0.27775 0.0
C665 C 0.34366 0.08313 0.27364 0.0
H666 H 0.28149 0.06386 0.29319 0.0
H667 H 0.35183 0.01808 0.29052 0.0
C668 C 0.32447 0.91207 0.28962 0.0
N669 N 0.33453 0.93318 0.3037 0.0
C670 C 0.34119 0.89177 0.28053 0.0
C671 C 0.3784 0.91514 0.30083 0.0
C672 C 0.36093 0.93511 0.30944 0.0
C673 C 0.36854 0.89324 0.28601 0.0
H674 H 0.30343 0.9113 0.28502 0.0
H675 H 0.36859 0.95241 0.31996 0.0
O676 O 0.26323 0.01003 0.32215 0.0
O677 O 0.27491 0.94921 0.32693 0.0
O678 O 0.29627 0.97812 0.27767 0.0
O679 O 0.31914 0.99075 0.33649 0.0
H680 H 0.22517 0.00891 0.36 0.0
H681 H 0.24412 0.03181 0.27636 0.0
H682 H 0.17914 0.02514 0.35267 0.0
H683 H 0.19773 0.04756 0.27042 0.0
H684 H 0.29874 0.8755 0.37564 0.0
H685 H 0.22697 0.92812 0.33274 0.0
H686 H 0.30997 0.91726 0.35125 0.0
H687 H 0.21724 0.88594 0.35718 0.0
H688 H 0.16877 0.94819 0.28976 0.0
H689 H 0.21898 0.9366 0.21814 0.0
H690 H 0.28915 0.01909 0.44243 0.0
H691 H 0.23025 0.95749 0.43091 0.0
H692 H 0.34529 0.96948 0.2599 0.0
H693 H 0.27235 0.01113 0.24301 0.0
H694 H 0.36519 0.99028 0.21813 0.0
H695 H 0.29358 0.0314 0.20167 0.0
H696 H 0.36618 0.01419 0.33867 0.0
H697 H 0.31631 0.95533 0.37716 0.0
H698 H 0.40163 0.00342 0.37256 0.0
H699 H 0.35265 0.94542 0.41023 0.0
H700 H 0.3058 0.10364 0.27673 0.0
H701 H 0.37744 0.05628 0.27345 0.0
H702 H 0.33288 0.87517 0.26916 0.0
H703 H 0.39946 0.91718 0.30497 0.0
Li704 Li 0.48026 0.78643 0.84719 0.0
Li705 Li 0.50533 0.8024 0.80492 0.0
Li706 Li 0.46022 0.81278 0.81132 0.0
Li707 Li 0.47059 0.76807 0.79884 0.0
C708 C 0.48207 0.84761 0.84389 0.0
N709 N 0.46408 0.89752 0.85853 0.0
C710 C 0.48694 0.86935 0.8266 0.0
C711 C 0.46825 0.85124 0.86872 0.0
C712 C 0.4776 0.89443 0.83433 0.0
C713 C 0.45929 0.87665 0.87574 0.0
C714 C 0.52586 0.75152 0.82759 0.0
C715 C 0.55524 0.71448 0.81937 0.0
N716 N 0.57058 0.7224 0.84108 0.0
C717 C 0.54181 0.75921 0.84989 0.0
C718 C 0.53251 0.7289 0.81228 0.0
C719 C 0.56438 0.74426 0.85635 0.0
C720 C 0.46492 0.75776 0.89433 0.0
N721 N 0.48168 0.77706 0.88527 0.0
C722 C 0.49976 0.78223 0.93076 0.0
C723 C 0.49876 0.7895 0.90282 0.0
C724 C 0.4828 0.76218 0.94075 0.0
C725 C 0.46496 0.75015 0.92216 0.0
H726 H 0.45138 0.74838 0.87991 0.0
H727 H 0.51168 0.805 0.89508 0.0
C728 C 0.53439 0.83597 0.7717 0.0
N729 N 0.53794 0.8169 0.7913 0.0
C730 C 0.55607 0.84959 0.76077 0.0
C731 C 0.585 0.82396 0.7905 0.0
C732 C 0.56264 0.81059 0.80075 0.0
C733 C 0.58173 0.84385 0.77036 0.0
H734 H 0.51454 0.841 0.76491 0.0
H735 H 0.56505 0.79561 0.81652 0.0
C736 C 0.41904 0.7812 0.82639 0.0
N737 N 0.36444 0.78507 0.82212 0.0
C738 C 0.40692 0.78163 0.80033 0.0
C739 C 0.40342 0.7826 0.85029 0.0
C740 C 0.37928 0.78365 0.7986 0.0
C741 C 0.37583 0.78456 0.84768 0.0
C742 C 0.48755 0.79282 0.7515 0.0
C743 C 0.47752 0.8028 0.72656 0.0
C744 C 0.50867 0.77477 0.75097 0.0
C745 C 0.48874 0.79452 0.70153 0.0
C746 C 0.51937 0.76699 0.72552 0.0
N747 N 0.50926 0.77694 0.70153 0.0
C748 C 0.43438 0.85152 0.77949 0.0
C749 C 0.41571 0.84647 0.82428 0.0
C750 C 0.41457 0.86959 0.77217 0.0
N751 N 0.43425 0.83993 0.80493 0.0
C752 C 0.39544 0.86439 0.81779 0.0
C753 C 0.39442 0.87571 0.79121 0.0
H754 H 0.44957 0.84627 0.76466 0.0
H755 H 0.4163 0.83735 0.84454 0.0
C756 C 0.45848 0.71376 0.79568 0.0
N757 N 0.45863 0.73665 0.78071 0.0
C758 C 0.44646 0.69091 0.78499 0.0
C759 C 0.43589 0.71536 0.74329 0.0
C760 C 0.44786 0.73778 0.75487 0.0
C761 C 0.43454 0.69178 0.7587 0.0
H762 H 0.46685 0.71356 0.81633 0.0
H763 H 0.44745 0.75635 0.74369 0.0
O764 O 0.49057 0.82283 0.83644 0.0
O765 O 0.50341 0.76557 0.8212 0.0
O766 O 0.4461 0.77986 0.82849 0.0
O767 O 0.47658 0.8008 0.77614 0.0
H768 H 0.49755 0.86684 0.80729 0.0
H769 H 0.46421 0.83457 0.88225 0.0
H770 H 0.48105 0.91141 0.82107 0.0
H771 H 0.44843 0.87975 0.89481 0.0
H772 H 0.56066 0.69697 0.80766 0.0
H773 H 0.53707 0.77676 0.8618 0.0
H774 H 0.52021 0.72252 0.7951 0.0
H775 H 0.577 0.75008 0.87345 0.0
H776 H 0.5138 0.79205 0.94436 0.0
H777 H 0.45092 0.73526 0.92906 0.0
H778 H 0.55271 0.86504 0.74553 0.0
H779 H 0.60455 0.81893 0.79829 0.0
H780 H 0.41877 0.78093 0.78164 0.0
H781 H 0.41253 0.78244 0.87061 0.0
H782 H 0.36964 0.78422 0.77857 0.0
H783 H 0.36348 0.78578 0.86599 0.0
H784 H 0.4611 0.81669 0.72651 0.0
H785 H 0.51687 0.76694 0.76991 0.0
H786 H 0.48111 0.80205 0.68209 0.0
H787 H 0.53573 0.75307 0.72486 0.0
H788 H 0.41446 0.87793 0.75147 0.0
H789 H 0.38049 0.86902 0.8332 0.0
H790 H 0.44586 0.67297 0.79739 0.0
H791 H 0.42662 0.7168 0.72308 0.0
Li792 Li 0.69937 0.5052 0.30873 0.0
Li793 Li 0.71696 0.48298 0.35126 0.0
Li794 Li 0.73733 0.47535 0.305 0.0
Li795 Li 0.69379 0.45826 0.31572 0.0
C796 C 0.75007 0.5284 0.31315 0.0
N797 N 0.77993 0.56681 0.28659 0.0
C798 C 0.76821 0.54377 0.32812 0.0
C799 C 0.74712 0.53255 0.28466 0.0
C800 C 0.78312 0.5631 0.31432 0.0
C801 C 0.76239 0.55206 0.27162 0.0
C802 C 0.65368 0.48018 0.34238 0.0
C803 C 0.62051 0.45202 0.36338 0.0
N804 N 0.60152 0.46367 0.34742 0.0
C805 C 0.63379 0.49204 0.32637 0.0
C806 C 0.64698 0.46018 0.36123 0.0
C807 C 0.60755 0.48336 0.32917 0.0
C808 C 0.67075 0.53464 0.26974 0.0
N809 N 0.68313 0.53644 0.29468 0.0
C810 C 0.66892 0.58148 0.2999 0.0
C811 C 0.68271 0.55926 0.30975 0.0
C812 C 0.65569 0.58008 0.2743 0.0
C813 C 0.65687 0.55633 0.25908 0.0
H814 H 0.67098 0.51605 0.25853 0.0
H815 H 0.69261 0.56 0.32964 0.0
C816 C 0.75029 0.4841 0.3978 0.0
N817 N 0.72459 0.48665 0.38955 0.0
C818 C 0.7568 0.48539 0.4259 0.0
C819 C 0.71027 0.49195 0.43644 0.0
C820 C 0.70466 0.49066 0.4081 0.0
C821 C 0.73663 0.48933 0.44561 0.0
H822 H 0.76564 0.48066 0.38252 0.0
H823 H 0.68439 0.4925 0.4009 0.0
C824 C 0.70802 0.45899 0.25981 0.0
N825 N 0.71488 0.42366 0.21651 0.0
C826 C 0.71735 0.43328 0.2649 0.0
C827 C 0.70222 0.46672 0.23265 0.0
C828 C 0.72067 0.41571 0.24276 0.0
C829 C 0.7058 0.44857 0.21105 0.0
C830 C 0.7306 0.4259 0.34786 0.0
C831 C 0.74615 0.40548 0.33672 0.0
C832 C 0.718 0.42214 0.37339 0.0
C833 C 0.74866 0.38159 0.35123 0.0
C834 C 0.72103 0.39797 0.38727 0.0
N835 N 0.73615 0.37835 0.37599 0.0
C836 C 0.78845 0.45388 0.30159 0.0
C837 C 0.77322 0.47234 0.25926 0.0
C838 C 0.81062 0.44309 0.28836 0.0
N839 N 0.76991 0.46741 0.28677 0.0
C840 C 0.79513 0.46192 0.24519 0.0
C841 C 0.81366 0.44631 0.25963 0.0
H842 H 0.78534 0.45039 0.32347 0.0
H843 H 0.7583 0.48336 0.24797 0.0
C844 C 0.64933 0.43643 0.28949 0.0
N845 N 0.66921 0.42997 0.3074 0.0
C846 C 0.63142 0.41711 0.28038 0.0
C847 C 0.65498 0.38462 0.30787 0.0
C848 C 0.67212 0.40465 0.31686 0.0
C849 C 0.63446 0.39082 0.28935 0.0
H850 H 0.64777 0.45654 0.28176 0.0
H851 H 0.68804 0.39965 0.33078 0.0
O852 O 0.73542 0.50937 0.32642 0.0
O853 O 0.67958 0.48801 0.33947 0.0
O854 O 0.70502 0.47678 0.28109 0.0
O855 O 0.72808 0.44949 0.33397 0.0
H856 H 0.77073 0.54076 0.35019 0.0
H857 H 0.73321 0.52084 0.27271 0.0
H858 H 0.79724 0.57514 0.32564 0.0
H859 H 0.76031 0.55547 0.24959 0.0
H860 H 0.61509 0.43641 0.37772 0.0
H861 H 0.63857 0.5076 0.31175 0.0
H862 H 0.66204 0.45086 0.37388 0.0
H863 H 0.592 0.49224 0.31676 0.0
H864 H 0.66827 0.59942 0.31229 0.0
H865 H 0.64632 0.5542 0.23964 0.0
H866 H 0.77729 0.48277 0.4322 0.0
H867 H 0.6942 0.49501 0.45104 0.0
H868 H 0.72206 0.42693 0.28567 0.0
H869 H 0.69524 0.48661 0.22823 0.0
H870 H 0.72789 0.39578 0.24645 0.0
H871 H 0.70143 0.45433 0.18993 0.0
H872 H 0.75608 0.40797 0.31701 0.0
H873 H 0.7059 0.4376 0.38236 0.0
H874 H 0.76055 0.36561 0.34279 0.0
H875 H 0.71133 0.39479 0.407 0.0
H876 H 0.82448 0.43116 0.30022 0.0
H877 H 0.7971 0.4653 0.22312 0.0
H878 H 0.61597 0.42241 0.26576 0.0
H879 H 0.65789 0.36441 0.31502 0.0
Li880 Li 0.01762 0.71506 0.85072 0.0
Li881 Li 0.99221 0.69976 0.80803 0.0
Li882 Li 0.03932 0.69076 0.81334 0.0
Li883 Li 0.0253 0.73538 0.80422 0.0
C884 C 0.01882 0.65391 0.84455 0.0
N885 N 0.03916 0.60432 0.85676 0.0
C886 C 0.01354 0.6324 0.82709 0.0
C887 C 0.03426 0.65023 0.86831 0.0
C888 C 0.02407 0.60748 0.83359 0.0
C889 C 0.04439 0.62499 0.87411 0.0
C890 C 0.97436 0.75341 0.81561 0.0
C891 C 0.94878 0.76977 0.77695 0.0
N892 N 0.93959 0.78996 0.79305 0.0
C893 C 0.96472 0.77433 0.83178 0.0
C894 C 0.96638 0.75108 0.78798 0.0
C895 C 0.94712 0.7926 0.81999 0.0
C896 C 0.03184 0.74113 0.90004 0.0
N897 N 0.01548 0.72232 0.8892 0.0
C898 C 0.9961 0.71434 0.93364 0.0
C899 C 0.99769 0.70905 0.90524 0.0
C900 C 0.01329 0.73316 0.94563 0.0
C901 C 0.03123 0.74673 0.92835 0.0
H902 H 0.04554 0.75162 0.88667 0.0
H903 H 0.98467 0.69446 0.89593 0.0
C904 C 0.96219 0.66825 0.77281 0.0
N905 N 0.9601 0.68461 0.79509 0.0
C906 C 0.94012 0.65413 0.76342 0.0
C907 C 0.914 0.67411 0.79998 0.0
C908 C 0.93662 0.68804 0.80859 0.0
C909 C 0.91578 0.65661 0.77736 0.0
H910 H 0.98126 0.66552 0.76289 0.0
H911 H 0.93567 0.70103 0.82643 0.0
C912 C 0.07785 0.72261 0.83829 0.0
N913 N 0.13143 0.72111 0.85081 0.0
C914 C 0.09658 0.73136 0.81894 0.0
C915 C 0.08636 0.71352 0.86419 0.0
C916 C 0.12357 0.73031 0.8256 0.0
C917 C 0.11354 0.71281 0.87008 0.0
C918 C 0.02977 0.70871 0.75431 0.0
C919 C 0.05698 0.71237 0.75 0.0
C920 C 0.01229 0.71011 0.73182 0.0
C921 C 0.06626 0.71772 0.7233 0.0
C922 C 0.02235 0.71551 0.70543 0.0
N923 N 0.04889 0.7192 0.70175 0.0
C924 C 0.06232 0.65236 0.77887 0.0
C925 C 0.08588 0.65733 0.82103 0.0
C926 C 0.08148 0.63481 0.76887 0.0
N927 N 0.06537 0.66412 0.80405 0.0
C928 C 0.1055 0.63972 0.8119 0.0
C929 C 0.10379 0.62896 0.78515 0.0
H930 H 0.04521 0.65697 0.76625 0.0
H931 H 0.08726 0.66569 0.84152 0.0
C932 C 0.05185 0.78381 0.80186 0.0
N933 N 0.03509 0.76813 0.78701 0.0
C934 C 0.06306 0.80641 0.78987 0.0
C935 C 0.03865 0.79704 0.74784 0.0
C936 C 0.02765 0.77476 0.76078 0.0
C937 C 0.0569 0.81291 0.76234 0.0
H938 H 0.05727 0.77822 0.82275 0.0
H939 H 0.01378 0.76241 0.74959 0.0
O940 O 0.00937 0.6786 0.83812 0.0
O941 O 0.99178 0.73552 0.82676 0.0
O942 O 0.05128 0.72383 0.83231 0.0
O943 O 0.02023 0.70362 0.78034 0.0
H944 H 0.0017 0.63502 0.80855 0.0
H945 H 0.03858 0.66675 0.88196 0.0
H946 H 0.02032 0.59066 0.82018 0.0
H947 H 0.0565 0.62184 0.89235 0.0
H948 H 0.94247 0.76823 0.75558 0.0
H949 H 0.9708 0.77641 0.85319 0.0
H950 H 0.9738 0.73513 0.77513 0.0
H951 H 0.93947 0.80889 0.83226 0.0
H952 H 0.98139 0.70401 0.94597 0.0
H953 H 0.04485 0.76136 0.93668 0.0
H954 H 0.94233 0.64059 0.74612 0.0
H955 H 0.89548 0.67662 0.81111 0.0
H956 H 0.09037 0.73915 0.79909 0.0
H957 H 0.07218 0.70661 0.87942 0.0
H958 H 0.13828 0.73694 0.81077 0.0
H959 H 0.12041 0.70558 0.88994 0.0
H960 H 0.07079 0.7109 0.76707 0.0
H961 H 0.99115 0.70731 0.73475 0.0
H962 H 0.08728 0.72064 0.7197 0.0
H963 H 0.00904 0.71681 0.68787 0.0
H964 H 0.07913 0.62625 0.74841 0.0
H965 H 0.12226 0.63529 0.82521 0.0
H966 H 0.07728 0.81802 0.8016 0.0
H967 H 0.03335 0.80159 0.7266 0.0
Li968 Li 0.78069 0.01614 0.34619 0.0
Li969 Li 0.79525 0.99294 0.30468 0.0
Li970 Li 0.80623 0.03983 0.31189 0.0
Li971 Li 0.7608 0.02572 0.30094 0.0
C972 C 0.84367 0.0144 0.33845 0.0
N973 N 0.89675 0.02716 0.34488 0.0
C974 C 0.86313 0.00037 0.32383 0.0
C975 C 0.85123 0.03492 0.35633 0.0
C976 C 0.88986 0.0071 0.32739 0.0
C977 C 0.87816 0.04108 0.35928 0.0
C978 C 0.75488 0.96564 0.32159 0.0
C979 C 0.74233 0.92583 0.29706 0.0
N980 N 0.74848 0.91115 0.31985 0.0
C981 C 0.761 0.95021 0.34481 0.0
C982 C 0.74538 0.95342 0.29754 0.0
C983 C 0.75764 0.92267 0.34351 0.0
C984 C 0.74703 0.01021 0.39229 0.0
N985 N 0.77288 0.01308 0.38467 0.0
C986 C 0.78652 0.0145 0.43207 0.0
C987 C 0.79261 0.01476 0.40383 0.0
C988 C 0.75991 0.01248 0.44055 0.0
C989 C 0.74005 0.00987 0.42028 0.0
H990 H 0.7318 0.00862 0.37655 0.0
H991 H 0.81301 0.01667 0.39724 0.0
C992 C 0.81062 0.9564 0.26309 0.0
N993 N 0.80934 0.96041 0.2909 0.0
C994 C 0.82467 0.93478 0.25246 0.0
C995 C 0.83511 0.92134 0.29931 0.0
C996 C 0.82064 0.94311 0.30905 0.0
C997 C 0.83778 0.91734 0.27063 0.0
H998 H 0.80178 0.97062 0.24911 0.0
H999 H 0.81971 0.9471 0.33106 0.0
C1000 C 0.76071 0.06391 0.35074 0.0
N1001 N 0.73571 0.08689 0.39574 0.0
C1002 C 0.73298 0.06396 0.35248 0.0
C1003 C 0.77572 0.07573 0.37178 0.0
C1004 C 0.72072 0.07567 0.37541 0.0
C1005 C 0.76271 0.08717 0.3944 0.0
C1006 C 0.78467 0.0307 0.25258 0.0
C1007 C 0.79242 0.05558 0.2425 0.0
C1008 C 0.76722 0.01501 0.23705 0.0
C1009 C 0.7824 0.06443 0.21712 0.0
C1010 C 0.7576 0.0246 0.2118 0.0
N1011 N 0.76532 0.0489 0.20244 0.0
C1012 C 0.85361 0.06178 0.28968 0.0
C1013 C 0.8248 0.09254 0.31172 0.0
C1014 C 0.87051 0.08233 0.28142 0.0
N1015 N 0.83126 0.06725 0.30448 0.0
C1016 C 0.84092 0.1137 0.30354 0.0
C1017 C 0.86384 0.10866 0.28788 0.0
H1018 H 0.8578 0.04158 0.28343 0.0
H1019 H 0.80661 0.09638 0.32292 0.0
C1020 C 0.70735 0.0229 0.27969 0.0
N1021 N 0.72968 0.0379 0.28257 0.0
C1022 C 0.68485 0.03359 0.26677 0.0
C1023 C 0.70904 0.0746 0.25978 0.0
C1024 C 0.7308 0.06334 0.27318 0.0
C1025 C 0.68567 0.05975 0.25665 0.0
H1026 H 0.70693 0.00283 0.2877 0.0
H1027 H 0.74865 0.07493 0.27632 0.0
O1028 O 0.81736 0.00826 0.33509 0.0
O1029 O 0.75864 0.99253 0.32223 0.0
O1030 O 0.77313 0.05177 0.32893 0.0
O1031 O 0.79388 0.02188 0.27764 0.0
H1032 H 0.85772 0.98467 0.30963 0.0
H1033 H 0.83645 0.04628 0.36747 0.0
H1034 H 0.90511 0.99646 0.31615 0.0
H1035 H 0.88426 0.05701 0.37292 0.0
H1036 H 0.73513 0.91607 0.27854 0.0
H1037 H 0.76853 0.95937 0.36352 0.0
H1038 H 0.74065 0.9651 0.27937 0.0
H1039 H 0.76241 0.91045 0.36127 0.0
H1040 H 0.8024 0.01646 0.4471 0.0
H1041 H 0.71936 0.00764 0.42601 0.0
H1042 H 0.82623 0.93237 0.23021 0.0
H1043 H 0.84543 0.9088 0.31404 0.0
H1044 H 0.72104 0.05473 0.33651 0.0
H1045 H 0.7972 0.07576 0.37082 0.0
H1046 H 0.69928 0.0757 0.37712 0.0
H1047 H 0.77409 0.09619 0.41094 0.0
H1048 H 0.80582 0.06806 0.25421 0.0
H1049 H 0.76079 0.99584 0.24465 0.0
H1050 H 0.78813 0.08369 0.20913 0.0
H1051 H 0.74391 0.01276 0.19969 0.0
H1052 H 0.88791 0.07786 0.26904 0.0
H1053 H 0.83521 0.13385 0.30878 0.0
H1054 H 0.66704 0.02166 0.26472 0.0
H1055 H 0.71021 0.09495 0.25255 0.0
Li1056 Li 0.46924 0.7319 0.20022 0.0
Li1057 Li 0.45913 0.68693 0.18838 0.0
Li1058 Li 0.50411 0.6979 0.19531 0.0
Li1059 Li 0.47992 0.71316 0.15275 0.0
C1060 C 0.48563 0.70777 0.24807 0.0
N1061 N 0.50644 0.7239 0.29836 0.0
C1062 C 0.47627 0.69667 0.27277 0.0
C1063 C 0.5056 0.7271 0.24898 0.0
C1064 C 0.48703 0.70509 0.29797 0.0
C1065 C 0.51586 0.73496 0.2746 0.0
C1066 C 0.41816 0.71895 0.17079 0.0
C1067 C 0.37618 0.71737 0.14675 0.0
N1068 N 0.36331 0.71704 0.17154 0.0
C1069 C 0.40454 0.71864 0.19603 0.0
C1070 C 0.40392 0.71833 0.14593 0.0
C1071 C 0.37679 0.71764 0.19597 0.0
C1072 C 0.45933 0.78689 0.20572 0.0
N1073 N 0.4569 0.76299 0.21861 0.0
C1074 C 0.43218 0.78276 0.25554 0.0
C1075 C 0.44384 0.76059 0.24316 0.0
C1076 C 0.43386 0.8076 0.24244 0.0
C1077 C 0.44783 0.8096 0.21732 0.0
H1078 H 0.46952 0.78812 0.18602 0.0
H1079 H 0.44158 0.74128 0.25267 0.0
C1080 C 0.43797 0.64646 0.22039 0.0
N1081 N 0.43389 0.65942 0.19605 0.0
C1082 C 0.41916 0.62853 0.23033 0.0
C1083 C 0.39292 0.63624 0.18915 0.0
C1084 C 0.41241 0.65394 0.17987 0.0
C1085 C 0.3958 0.62404 0.21516 0.0
H1086 H 0.45557 0.65063 0.23247 0.0
H1087 H 0.40991 0.66394 0.16024 0.0
C1088 C 0.5262 0.74526 0.16967 0.0
N1089 N 0.57328 0.76707 0.15099 0.0
C1090 C 0.54125 0.73205 0.14962 0.0
C1091 C 0.53507 0.76955 0.18025 0.0
C1092 C 0.56499 0.74341 0.14042 0.0
C1093 C 0.55895 0.78024 0.17056 0.0
C1094 C 0.47979 0.65305 0.15473 0.0
C1095 C 0.48619 0.6294 0.16838 0.0
C1096 C 0.46266 0.65249 0.13194 0.0
C1097 C 0.47516 0.60553 0.15907 0.0
C1098 C 0.45209 0.62821 0.12323 0.0
N1099 N 0.45848 0.60544 0.13688 0.0
C1100 C 0.53124 0.66132 0.22582 0.0
C1101 C 0.56113 0.69299 0.20709 0.0
C1102 C 0.55215 0.64717 0.23761 0.0
N1103 N 0.53601 0.68352 0.21057 0.0
C1104 C 0.58278 0.67926 0.21839 0.0
C1105 C 0.57834 0.65586 0.23359 0.0
H1106 H 0.51104 0.65442 0.22851 0.0
H1107 H 0.56452 0.71098 0.19548 0.0
C1108 C 0.46657 0.74195 0.10474 0.0
N1109 N 0.48187 0.72172 0.11441 0.0
C1110 C 0.46675 0.74839 0.07658 0.0
C1111 C 0.49899 0.71353 0.069 0.0
C1112 C 0.49786 0.70748 0.09723 0.0
C1113 C 0.483 0.734 0.05823 0.0
H1114 H 0.45401 0.75289 0.11891 0.0
H1115 H 0.50971 0.69138 0.10545 0.0
O1116 O 0.47513 0.69962 0.22328 0.0
O1117 O 0.4453 0.71954 0.17037 0.0
O1118 O 0.50276 0.73471 0.17882 0.0
O1119 O 0.48982 0.67671 0.16393 0.0
H1120 H 0.46075 0.68178 0.27248 0.0
H1121 H 0.51318 0.73597 0.23022 0.0
H1122 H 0.47993 0.69668 0.31723 0.0
H1123 H 0.53132 0.74988 0.27559 0.0
H1124 H 0.36489 0.71682 0.12767 0.0
H1125 H 0.41529 0.71863 0.21543 0.0
H1126 H 0.41421 0.71839 0.12623 0.0
H1127 H 0.36598 0.71721 0.21534 0.0
H1128 H 0.42099 0.78026 0.27454 0.0
H1129 H 0.4494 0.82843 0.20655 0.0
H1130 H 0.42247 0.61886 0.25009 0.0
H1131 H 0.37526 0.63307 0.17674 0.0
H1132 H 0.53492 0.71298 0.14171 0.0
H1133 H 0.52361 0.78 0.19581 0.0
H1134 H 0.57691 0.73336 0.12498 0.0
H1135 H 0.56608 0.79901 0.17858 0.0
H1136 H 0.49939 0.62948 0.18606 0.0
H1137 H 0.45725 0.67066 0.12135 0.0
H1138 H 0.47984 0.58709 0.1695 0.0
H1139 H 0.43868 0.62749 0.10572 0.0
H1140 H 0.54793 0.62917 0.24913 0.0
H1141 H 0.60272 0.68678 0.21525 0.0
H1142 H 0.45403 0.76424 0.06918 0.0
H1143 H 0.51237 0.7024 0.05583 0.0
Li1144 Li 0.76282 0.47116 0.70252 0.0
Li1145 Li 0.80919 0.45907 0.69158 0.0
Li1146 Li 0.79753 0.50527 0.69924 0.0
Li1147 Li 0.78256 0.48095 0.65803 0.0
C1148 C 0.78803 0.48475 0.75154 0.0
N1149 N 0.77388 0.50342 0.80331 0.0
C1150 C 0.8005 0.47479 0.77523 0.0
C1151 C 0.76836 0.50422 0.75414 0.0
C1152 C 0.79306 0.48448 0.80123 0.0
C1153 C 0.76149 0.51339 0.78051 0.0
C1154 C 0.76504 0.43253 0.65281 0.0
C1155 C 0.76925 0.40851 0.60976 0.0
N1156 N 0.74233 0.40822 0.60722 0.0
C1157 C 0.73742 0.43182 0.64987 0.0
C1158 C 0.78111 0.42061 0.63271 0.0
C1159 C 0.72632 0.41948 0.62666 0.0
C1160 C 0.70744 0.46729 0.71346 0.0
N1161 N 0.73205 0.45931 0.72157 0.0
C1162 C 0.71342 0.42925 0.75461 0.0
C1163 C 0.73544 0.44099 0.74197 0.0
C1164 C 0.68779 0.43614 0.74574 0.0
C1165 C 0.68484 0.45576 0.72527 0.0
H1166 H 0.7054 0.48178 0.69703 0.0
H1167 H 0.75528 0.43486 0.74777 0.0
C1168 C 0.85809 0.44047 0.71315 0.0
N1169 N 0.83561 0.43314 0.6995 0.0
C1170 C 0.87697 0.42141 0.7206 0.0
C1171 C 0.84892 0.38759 0.70029 0.0
C1172 C 0.83074 0.40733 0.69299 0.0
C1173 C 0.87243 0.39452 0.71428 0.0
H1174 H 0.86118 0.46111 0.71856 0.0
H1175 H 0.81238 0.40198 0.68279 0.0
C1176 C 0.75571 0.52892 0.6694 0.0
N1177 N 0.74466 0.57631 0.64284 0.0
C1178 C 0.77373 0.53945 0.65024 0.0
C1179 C 0.73207 0.54246 0.67498 0.0
C1180 C 0.76776 0.56342 0.63702 0.0
C1181 C 0.72687 0.56642 0.66139 0.0
C1182 C 0.84553 0.48583 0.66328 0.0
C1183 C 0.86499 0.50303 0.67357 0.0
C1184 C 0.85312 0.46388 0.64737 0.0
C1185 C 0.89176 0.49763 0.66832 0.0
C1186 C 0.88009 0.45913 0.64261 0.0
N1187 N 0.8987 0.47595 0.65312 0.0
C1188 C 0.8324 0.53186 0.73339 0.0
C1189 C 0.80359 0.56213 0.71073 0.0
C1190 C 0.8462 0.55272 0.74579 0.0
N1191 N 0.81181 0.53682 0.71588 0.0
C1192 C 0.81709 0.58368 0.72248 0.0
C1193 C 0.83879 0.57902 0.74009 0.0
H1194 H 0.83865 0.51159 0.73703 0.0
H1195 H 0.78692 0.56581 0.69727 0.0
C1196 C 0.7487 0.48688 0.61153 0.0
N1197 N 0.77447 0.4837 0.61936 0.0
C1198 C 0.74206 0.48865 0.58348 0.0
C1199 C 0.78861 0.48405 0.57208 0.0
C1200 C 0.79434 0.4824 0.60034 0.0
C1201 C 0.76218 0.48733 0.56336 0.0
H1202 H 0.73329 0.48796 0.62712 0.0
H1203 H 0.81465 0.47997 0.60709 0.0
O1204 O 0.79525 0.47548 0.72597 0.0
O1205 O 0.7763 0.44516 0.67503 0.0
O1206 O 0.76065 0.50514 0.68213 0.0
O1207 O 0.81921 0.49069 0.66842 0.0
H1208 H 0.8158 0.45974 0.77351 0.0
H1209 H 0.75852 0.51222 0.73605 0.0
H1210 H 0.80255 0.47695 0.81975 0.0
H1211 H 0.74632 0.52846 0.78285 0.0
H1212 H 0.78146 0.39938 0.59396 0.0
H1213 H 0.72468 0.44096 0.66516 0.0
H1214 H 0.8025 0.42084 0.63467 0.0
H1215 H 0.70497 0.41895 0.62404 0.0
H1216 H 0.7164 0.41403 0.77019 0.0
H1217 H 0.66531 0.46158 0.71804 0.0
H1218 H 0.89476 0.42757 0.73148 0.0
H1219 H 0.84417 0.36704 0.69584 0.0
H1220 H 0.79218 0.52936 0.64567 0.0
H1221 H 0.71787 0.53449 0.68966 0.0
H1222 H 0.78151 0.57181 0.62218 0.0
H1223 H 0.70866 0.57712 0.66555 0.0
H1224 H 0.85953 0.52047 0.68531 0.0
H1225 H 0.83837 0.45043 0.63914 0.0
H1226 H 0.90702 0.51072 0.67628 0.0
H1227 H 0.88622 0.44205 0.63059 0.0
H1228 H 0.86315 0.54835 0.75886 0.0
H1229 H 0.81085 0.60376 0.71766 0.0
H1230 H 0.72145 0.49123 0.57758 0.0
H1231 H 0.80464 0.48242 0.55721 0.0
Li1232 Li 0.04039 0.80993 0.19144 0.0
Li1233 Li 0.02789 0.76591 0.20349 0.0
Li1234 Li 0.01837 0.78296 0.15721 0.0
Li1235 Li 0.99452 0.80011 0.19823 0.0
C1236 C 0.07879 0.77074 0.18254 0.0
N1237 N 0.12967 0.75789 0.19948 0.0
C1238 C 0.08757 0.77778 0.20905 0.0
C1239 C 0.09592 0.7572 0.16465 0.0
C1240 C 0.11335 0.77111 0.21722 0.0
C1241 C 0.12156 0.75086 0.17361 0.0
C1242 C 0.01222 0.79181 0.25121 0.0
C1243 C 0.98143 0.76598 0.2785 0.0
N1244 N 0.99005 0.77857 0.30177 0.0
C1245 C 0.02074 0.8045 0.2754 0.0
C1246 C 0.99239 0.77238 0.25275 0.0
C1247 C 0.0093 0.79752 0.30076 0.0
C1248 C 0.06357 0.8526 0.21982 0.0
N1249 N 0.06644 0.83683 0.19717 0.0
C1250 C 0.10789 0.85741 0.18611 0.0
C1251 C 0.08781 0.83913 0.18009 0.0
C1252 C 0.10603 0.87318 0.21007 0.0
C1253 C 0.08323 0.87102 0.2267 0.0
H1254 H 0.04629 0.85036 0.23294 0.0
H1255 H 0.08953 0.82635 0.16216 0.0
C1256 C 0.03799 0.71136 0.20825 0.0
N1257 N 0.03945 0.73472 0.22231 0.0
C1258 C 0.05007 0.68856 0.21892 0.0
C1259 C 0.06406 0.71407 0.2588 0.0
C1260 C 0.05176 0.73638 0.24736 0.0
C1261 C 0.06391 0.68998 0.24416 0.0
H1262 H 0.02835 0.71074 0.18821 0.0
H1263 H 0.05323 0.75528 0.25785 0.0
C1264 C 0.02055 0.84224 0.15431 0.0
N1265 N 0.0427 0.88669 0.12984 0.0
C1266 C 0.01376 0.86763 0.16369 0.0
C1267 C 0.03854 0.83946 0.13242 0.0
C1268 C 0.0252 0.88985 0.15107 0.0
C1269 C 0.04952 0.86218 0.12033 0.0
C1270 C 0.97087 0.75711 0.16905 0.0
C1271 C 0.95741 0.77684 0.15427 0.0
C1272 C 0.96089 0.7312 0.1694 0.0
C1273 C 0.93409 0.77032 0.1401 0.0
C1274 C 0.93749 0.72546 0.15498 0.0
N1275 N 0.9247 0.74497 0.14075 0.0
C1276 C 0.03076 0.75282 0.11001 0.0
C1277 C 0.99981 0.78741 0.10167 0.0
C1278 C 0.02997 0.7453 0.08216 0.0
N1279 N 0.01586 0.77355 0.11913 0.0
C1280 C 0.99811 0.78033 0.07374 0.0
C1281 C 0.01329 0.75898 0.06363 0.0
H1282 H 0.04345 0.74227 0.12437 0.0
H1283 H 0.98838 0.80402 0.10942 0.0
C1284 C 0.96714 0.84067 0.22246 0.0
N1285 N 0.96291 0.81574 0.21265 0.0
C1286 C 0.94606 0.8558 0.23244 0.0
C1287 C 0.91657 0.81888 0.22331 0.0
C1288 C 0.93839 0.80434 0.21358 0.0
C1289 C 0.92029 0.84512 0.23252 0.0
H1290 H 0.98702 0.84883 0.22234 0.0
H1291 H 0.9356 0.78415 0.20654 0.0
O1292 O 0.05354 0.77679 0.17406 0.0
O1293 O 0.02328 0.79865 0.22629 0.0
O1294 O 0.0101 0.82019 0.16682 0.0
O1295 O 0.99401 0.76279 0.1827 0.0
H1296 H 0.07464 0.78822 0.22324 0.0
H1297 H 0.08947 0.75161 0.14407 0.0
H1298 H 0.12037 0.77641 0.23767 0.0
H1299 H 0.13501 0.74035 0.15998 0.0
H1300 H 0.96608 0.75099 0.27998 0.0
H1301 H 0.03608 0.81956 0.27458 0.0
H1302 H 0.98546 0.76229 0.23437 0.0
H1303 H 0.01573 0.80717 0.31964 0.0
H1304 H 0.12489 0.85887 0.17243 0.0
H1305 H 0.08107 0.88276 0.24538 0.0
H1306 H 0.04927 0.67021 0.20721 0.0
H1307 H 0.07472 0.71597 0.27821 0.0
H1308 H 0.99986 0.8702 0.18054 0.0
H1309 H 0.04436 0.81998 0.12517 0.0
H1310 H 0.02018 0.90962 0.15817 0.0
H1311 H 0.06359 0.86031 0.10349 0.0
H1312 H 0.96474 0.79704 0.15389 0.0
H1313 H 0.97116 0.71567 0.18066 0.0
H1314 H 0.92345 0.78541 0.12862 0.0
H1315 H 0.92954 0.70549 0.15507 0.0
H1316 H 0.04265 0.72926 0.07516 0.0
H1317 H 0.98501 0.79143 0.06019 0.0
H1318 H 0.94984 0.87576 0.23987 0.0
H1319 H 0.89699 0.80996 0.22297 0.0
Li1320 Li 0.69276 0.04062 0.68938 0.0
Li1321 Li 0.7392 0.02563 0.70087 0.0
Li1322 Li 0.71795 0.01803 0.65402 0.0
Li1323 Li 0.70316 0.99391 0.69317 0.0
C1324 C 0.72467 0.07921 0.67193 0.0
N1325 N 0.71873 0.13384 0.67197 0.0
C1326 C 0.73963 0.0949 0.69007 0.0
C1327 C 0.70678 0.09137 0.65373 0.0
C1328 C 0.73634 0.12248 0.68977 0.0
C1329 C 0.70402 0.11899 0.65411 0.0
C1330 C 0.69356 0.00995 0.74417 0.0
C1331 C 0.69408 0.9819 0.7847 0.0
N1332 N 0.66716 0.98383 0.78635 0.0
C1333 C 0.66591 0.01173 0.74631 0.0
C1334 C 0.7078 0.99497 0.76352 0.0
C1335 C 0.65293 0.99835 0.76777 0.0
C1336 C 0.64231 0.0666 0.68825 0.0
N1337 N 0.66751 0.06738 0.69847 0.0
C1338 C 0.65772 0.10665 0.7243 0.0
C1339 C 0.67528 0.08656 0.71658 0.0
C1340 C 0.63172 0.10643 0.71396 0.0
C1341 C 0.62387 0.08606 0.6959 0.0
H1342 H 0.63644 0.05069 0.6745 0.0
H1343 H 0.69514 0.08616 0.72512 0.0
C1344 C 0.79167 0.04373 0.70349 0.0
N1345 N 0.77072 0.0362 0.71942 0.0
C1346 C 0.81395 0.0555 0.71562 0.0
C1347 C 0.79321 0.05031 0.76048 0.0
C1348 C 0.77113 0.03906 0.74742 0.0
C1349 C 0.81486 0.05914 0.74451 0.0
H1350 H 0.79047 0.04178 0.68119 0.0
H1351 H 0.75394 0.03353 0.75952 0.0
C1352 C 0.67017 0.00643 0.63972 0.0
N1353 N 0.6507 0.99604 0.58725 0.0
C1354 C 0.66922 0.98033 0.62979 0.0
C1355 C 0.66107 0.02721 0.623 0.0
C1356 C 0.6593 0.97549 0.60322 0.0
C1357 C 0.65137 0.02156 0.59651 0.0
C1358 C 0.7488 0.96837 0.68346 0.0
C1359 C 0.73929 0.9462 0.66909 0.0
C1360 C 0.76787 0.96502 0.70425 0.0
C1361 C 0.74889 0.92097 0.67591 0.0
C1362 C 0.777 0.93947 0.71042 0.0
N1363 N 0.76738 0.91816 0.69626 0.0
C1364 C 0.72968 0.04005 0.60126 0.0
C1365 C 0.72745 0.99304 0.60203 0.0
C1366 C 0.73475 0.03985 0.57281 0.0
N1367 N 0.72582 0.01689 0.61519 0.0
C1368 C 0.73237 0.9919 0.57357 0.0
C1369 C 0.73584 0.01554 0.55857 0.0
H1370 H 0.72897 0.05872 0.61222 0.0
H1371 H 0.72462 0.97489 0.61356 0.0
C1372 C 0.66106 0.95869 0.69959 0.0
N1373 N 0.68713 0.96147 0.70639 0.0
C1374 C 0.64642 0.93718 0.70936 0.0
C1375 C 0.68542 0.92175 0.73373 0.0
C1376 C 0.69943 0.9436 0.7233 0.0
C1377 C 0.65852 0.91846 0.72679 0.0
H1378 H 0.65133 0.97363 0.68714 0.0
H1379 H 0.71985 0.94664 0.72938 0.0
O1380 O 0.72735 0.05211 0.67217 0.0
O1381 O 0.70649 0.02217 0.72274 0.0
O1382 O 0.68032 0.01163 0.66548 0.0
O1383 O 0.73991 0.99327 0.67693 0.0
H1384 H 0.75343 0.08595 0.70446 0.0
H1385 H 0.69489 0.07959 0.6397 0.0
H1386 H 0.74771 0.13483 0.70378 0.0
H1387 H 0.69012 0.1286 0.64025 0.0
H1388 H 0.70481 0.97005 0.79969 0.0
H1389 H 0.65456 0.023 0.73134 0.0
H1390 H 0.72914 0.99294 0.76186 0.0
H1391 H 0.63153 0.99942 0.76959 0.0
H1392 H 0.6642 0.12194 0.7386 0.0
H1393 H 0.60381 0.0853 0.68781 0.0
H1394 H 0.82969 0.06279 0.70234 0.0
H1395 H 0.79304 0.05277 0.78278 0.0
H1396 H 0.67646 0.96401 0.64227 0.0
H1397 H 0.66165 0.04751 0.6303 0.0
H1398 H 0.65861 0.95542 0.59522 0.0
H1399 H 0.64441 0.03748 0.58331 0.0
H1400 H 0.72433 0.94835 0.65317 0.0
H1401 H 0.77551 0.98194 0.71554 0.0
H1402 H 0.74156 0.90363 0.66509 0.0
H1403 H 0.7917 0.93658 0.7265 0.0
H1404 H 0.73811 0.05849 0.56216 0.0
H1405 H 0.73315 0.97275 0.56335 0.0
H1406 H 0.62556 0.93563 0.70403 0.0
H1407 H 0.69539 0.90774 0.74723 0.0
C1408 C 0.40082 0.13167 0.26634 0.0
C1409 C 0.3937 0.14696 0.24306 0.0
C1410 C 0.38403 0.11184 0.27662 0.0
C1411 C 0.3594 0.10637 0.26406 0.0
H1412 H 0.42006 0.13425 0.27607 0.0
H1413 H 0.39069 0.10024 0.29422 0.0
S1414 S 0.33038 0.14204 0.20396 0.0
N1415 N 0.35942 0.1566 0.20897 0.0
N1416 N 0.32806 0.11871 0.22792 0.0
C1417 C 0.35147 0.12218 0.24148 0.0
C1418 C 0.36861 0.14252 0.23101 0.0
C1419 C 0.35566 0.36863 0.73426 0.0
C1420 C 0.35532 0.39449 0.74544 0.0
C1421 C 0.37361 0.34939 0.744 0.0
C1422 C 0.39166 0.35531 0.76537 0.0
H1423 H 0.34212 0.3633 0.71772 0.0
H1424 H 0.37352 0.32983 0.73462 0.0
S1425 S 0.40028 0.42043 0.80019 0.0
N1426 N 0.3757 0.42524 0.77808 0.0
N1427 N 0.40896 0.38899 0.79658 0.0
C1428 C 0.39149 0.381 0.77676 0.0
C1429 C 0.37342 0.4006 0.76677 0.0
C1430 C 0.10072 0.36585 0.26977 0.0
C1431 C 0.1052 0.3519 0.2449 0.0
C1432 C 0.11948 0.38392 0.28008 0.0
C1433 C 0.14338 0.38879 0.26588 0.0
H1434 H 0.08205 0.36375 0.28071 0.0
H1435 H 0.11464 0.3951 0.2986 0.0
S1436 S 0.16638 0.35477 0.20208 0.0
N1437 N 0.1366 0.34214 0.20796 0.0
N1438 N 0.17172 0.37641 0.22722 0.0
C1439 C 0.14872 0.37404 0.24178 0.0
C1440 C 0.12968 0.35553 0.23132 0.0
C1441 C 0.11549 0.10988 0.72674 0.0
C1442 C 0.13991 0.10363 0.73932 0.0
C1443 C 0.09915 0.12995 0.73729 0.0
C1444 C 0.1065 0.14457 0.76094 0.0
H1445 H 0.10867 0.09873 0.70888 0.0
H1446 H 0.08008 0.13327 0.72745 0.0
S1447 S 0.16929 0.1372 0.8005 0.0
N1448 N 0.17129 0.11441 0.77594 0.0
N1449 N 0.14063 0.15254 0.79565 0.0
C1450 C 0.13133 0.13922 0.77315 0.0
C1451 C 0.14806 0.11874 0.76232 0.0
C1452 C 0.60763 0.86319 0.73112 0.0
C1453 C 0.60451 0.8596 0.75984 0.0
C1454 C 0.62621 0.88127 0.72057 0.0
C1455 C 0.64235 0.89645 0.73834 0.0
H1456 H 0.59499 0.85256 0.71671 0.0
H1457 H 0.62736 0.88404 0.69833 0.0
S1458 S 0.64239 0.89401 0.81515 0.0
N1459 N 0.61961 0.8721 0.80588 0.0
N1460 N 0.65456 0.9062 0.78601 0.0
C1461 C 0.64027 0.89223 0.76707 0.0
C1462 C 0.62133 0.87376 0.77783 0.0
C1463 C 0.60028 0.63102 0.27222 0.0
C1464 C 0.60064 0.63967 0.24449 0.0
C1465 C 0.61908 0.61278 0.28209 0.0
C1466 C 0.63874 0.6023 0.2645 0.0
H1467 H 0.58487 0.63786 0.28619 0.0
H1468 H 0.61741 0.60589 0.30329 0.0
S1469 S 0.64945 0.61994 0.19071 0.0
N1470 N 0.62316 0.63746 0.19998 0.0
N1471 N 0.65863 0.60327 0.2186 0.0
C1472 C 0.64003 0.61164 0.23706 0.0
C1473 C 0.62098 0.63035 0.22705 0.0
C1474 C 0.88545 0.63806 0.74109 0.0
C1475 C 0.89311 0.63952 0.7691 0.0
C1476 C 0.86664 0.61938 0.73211 0.0
C1477 C 0.85513 0.60127 0.75078 0.0
H1478 H 0.89464 0.65097 0.72588 0.0
H1479 H 0.86207 0.61824 0.7102 0.0
S1480 S 0.86709 0.59798 0.82651 0.0
N1481 N 0.88668 0.62217 0.81565 0.0
N1482 N 0.85134 0.58704 0.79872 0.0
C1483 C 0.86177 0.60324 0.77899 0.0
C1484 C 0.88073 0.62241 0.78818 0.0
C1485 C 0.87555 0.90528 0.2396 0.0
C1486 C 0.85686 0.8974 0.25966 0.0
C1487 C 0.89548 0.88798 0.23057 0.0
C1488 C 0.8976 0.86204 0.2412 0.0
H1489 H 0.87535 0.92534 0.23142 0.0
H1490 H 0.90961 0.89512 0.21535 0.0
S1491 S 0.85278 0.83107 0.29298 0.0
N1492 N 0.84086 0.86141 0.28888 0.0
N1493 N 0.87881 0.82893 0.27224 0.0
C1494 C 0.87862 0.85355 0.26068 0.0
C1495 C 0.85822 0.87124 0.26991 0.0
C1496 C 0.61345 0.32941 0.24992 0.0
C1497 C 0.58601 0.32757 0.25553 0.0
C1498 C 0.62893 0.34989 0.26109 0.0
C1499 C 0.61752 0.36953 0.27794 0.0
H1500 H 0.62308 0.315 0.23661 0.0
H1501 H 0.64996 0.35054 0.25629 0.0
S1502 S 0.54715 0.37373 0.29984 0.0
N1503 N 0.54841 0.34694 0.28007 0.0
N1504 N 0.57759 0.38604 0.30017 0.0
C1505 C 0.59023 0.36823 0.28362 0.0
C1506 C 0.57444 0.34713 0.27259 0.0
C1507 C 0.15666 0.57547 0.77728 0.0
C1508 C 0.16929 0.58279 0.75241 0.0
C1509 C 0.13541 0.59047 0.78787 0.0
C1510 C 0.12586 0.61293 0.77363 0.0
H1511 H 0.16362 0.5584 0.78887 0.0
H1512 H 0.12635 0.58444 0.80724 0.0
S1513 S 0.15177 0.6399 0.7074 0.0
N1514 N 0.17044 0.61359 0.71363 0.0
N1515 N 0.13059 0.6417 0.73347 0.0
C1516 C 0.13811 0.62017 0.74858 0.0
C1517 C 0.15981 0.60511 0.73798 0.0
C1518 C 0.90663 0.13369 0.283 0.0
C1519 C 0.87955 0.13094 0.27649 0.0
C1520 C 0.92159 0.15494 0.27239 0.0
C1521 C 0.90997 0.17397 0.25473 0.0
H1522 H 0.91617 0.11953 0.29669 0.0
H1523 H 0.94227 0.15669 0.27835 0.0
S1524 S 0.84044 0.17348 0.22891 0.0
N1525 N 0.84214 0.14768 0.24998 0.0
N1526 N 0.87026 0.18717 0.22939 0.0
C1527 C 0.88306 0.17083 0.24743 0.0
C1528 C 0.86785 0.14942 0.25846 0.0
C1529 C 0.35514 0.93216 0.75873 0.0
C1530 C 0.32869 0.92336 0.76114 0.0
C1531 C 0.37628 0.91704 0.76925 0.0
C1532 C 0.37172 0.8926 0.78261 0.0
H1533 H 0.35955 0.95072 0.74833 0.0
H1534 H 0.39637 0.92435 0.76662 0.0
S1535 S 0.30634 0.8601 0.79315 0.0
N1536 N 0.29923 0.88827 0.77725 0.0
N1537 N 0.33893 0.85999 0.79711 0.0
C1538 C 0.34538 0.88374 0.78548 0.0
C1539 C 0.32387 0.89908 0.77473 0.0
C1540 C 0.60131 0.17424 0.72522 0.0
C1541 C 0.58054 0.16904 0.74407 0.0
C1542 C 0.61733 0.15374 0.71492 0.0
C1543 C 0.61288 0.12725 0.72271 0.0
H1544 H 0.60554 0.19441 0.71873 0.0
H1545 H 0.63358 0.15865 0.7011 0.0
S1546 S 0.56137 0.10262 0.77109 0.0
N1547 N 0.55668 0.1351 0.7701 0.0
N1548 N 0.58635 0.09654 0.7498 0.0
C1549 C 0.59179 0.12152 0.74074 0.0
C1550 C 0.57568 0.14242 0.7516 0.0
C1551 C 0.36147 0.58788 0.21202 0.0
C1552 C 0.3738 0.60826 0.22732 0.0
C1553 C 0.34018 0.57332 0.22317 0.0
C1554 C 0.33029 0.57894 0.24981 0.0
H1555 H 0.36837 0.58315 0.19133 0.0
H1556 H 0.33102 0.55797 0.21065 0.0
S1557 S 0.35569 0.63025 0.29828 0.0
N1558 N 0.37445 0.63335 0.27041 0.0
N1559 N 0.33487 0.60575 0.29145 0.0
C1560 C 0.34262 0.59909 0.26537 0.0
C1561 C 0.36426 0.6138 0.2541 0.0
C1562 C 0.90064 0.37411 0.75144 0.0
C1563 C 0.89111 0.37359 0.72399 0.0
C1564 C 0.91631 0.35338 0.76195 0.0
C1565 C 0.92283 0.33132 0.74546 0.0
H1566 H 0.89517 0.39016 0.76526 0.0
H1567 H 0.92248 0.35412 0.78346 0.0
S1568 S 0.90583 0.3218 0.6714 0.0
N1569 N 0.89169 0.35032 0.67978 0.0
N1570 N 0.92061 0.31108 0.69985 0.0
C1571 C 0.91437 0.33099 0.71773 0.0
C1572 C 0.89864 0.35218 0.70693 0.0
C1573 C 0.12315 0.91693 0.22762 0.0
C1574 C 0.12826 0.89078 0.21866 0.0
C1575 C 0.14362 0.93317 0.23778 0.0
C1576 C 0.16995 0.92391 0.23922 0.0
H1577 H 0.10312 0.9248 0.227 0.0
H1578 H 0.13879 0.95305 0.24479 0.0
S1579 S 0.19359 0.85658 0.2199 0.0
N1580 N 0.16148 0.85612 0.2129 0.0
N1581 N 0.19991 0.88671 0.23172 0.0
C1582 C 0.17537 0.89791 0.23014 0.0
C1583 C 0.15455 0.88135 0.21992 0.0
C1584 C 0.40856 0.63763 0.71089 0.0
C1585 C 0.38673 0.62759 0.72576 0.0
C1586 C 0.42424 0.65823 0.72179 0.0
C1587 C 0.4189 0.66898 0.74814 0.0
H1588 H 0.41315 0.62992 0.69048 0.0
H1589 H 0.44058 0.66587 0.70954 0.0
S1590 S 0.36458 0.64878 0.79561 0.0
N1591 N 0.36096 0.62935 0.76829 0.0
N1592 N 0.39051 0.66785 0.78887 0.0
C1593 C 0.39748 0.65866 0.7634 0.0
C1594 C 0.38136 0.63801 0.75217 0.0
C1595 C 0.88082 0.41579 0.24284 0.0
C1596 C 0.87482 0.39846 0.22082 0.0
C1597 C 0.86115 0.43194 0.2547 0.0
C1598 C 0.83486 0.43156 0.24476 0.0
H1599 H 0.90059 0.41604 0.25174 0.0
H1600 H 0.86641 0.4444 0.27217 0.0
S1601 S 0.80939 0.3909 0.18632 0.0
N1602 N 0.84117 0.38299 0.18849 0.0
N1603 N 0.80411 0.41304 0.21097 0.0
C1604 C 0.82887 0.41507 0.22204 0.0
C1605 C 0.84886 0.39857 0.21006 0.0
C1606 C 0.08576 0.82963 0.72403 0.0
C1607 C 0.07116 0.83485 0.74828 0.0
C1608 C 0.10204 0.84916 0.71212 0.0
C1609 C 0.10392 0.87469 0.72381 0.0
H1610 H 0.08541 0.80999 0.71481 0.0
H1611 H 0.11357 0.84414 0.69389 0.0
S1612 S 0.06861 0.89874 0.78643 0.0
N1613 N 0.05878 0.86759 0.78295 0.0
N1614 N 0.08925 0.90439 0.76048 0.0
C1615 C 0.08871 0.88043 0.7475 0.0
C1616 C 0.07238 0.86046 0.75979 0.0
C1617 C 0.64314 0.09863 0.20618 0.0
C1618 C 0.61962 0.10309 0.2213 0.0
C1619 C 0.66404 0.08365 0.21732 0.0
C1620 C 0.6621 0.07233 0.24387 0.0
H1621 H 0.64565 0.10729 0.18579 0.0
H1622 H 0.68212 0.08137 0.20535 0.0
S1623 S 0.60511 0.07799 0.29209 0.0
N1624 N 0.59584 0.09495 0.26443 0.0
N1625 N 0.63497 0.06624 0.28495 0.0
C1626 C 0.63847 0.07583 0.25887 0.0
C1627 C 0.61725 0.09132 0.24769 0.0
C1628 C 0.40141 0.84473 0.23654 0.0
C1629 C 0.41909 0.8307 0.25373 0.0
C1630 C 0.38539 0.8651 0.24713 0.0
C1631 C 0.38663 0.87239 0.27525 0.0
H1632 H 0.39935 0.83939 0.21489 0.0
H1633 H 0.37178 0.87514 0.23322 0.0
S1634 S 0.43051 0.84266 0.32865 0.0
N1635 N 0.43764 0.82614 0.30001 0.0
N1636 N 0.40741 0.86446 0.31996 0.0
C1637 C 0.4047 0.85901 0.29252 0.0
C1638 C 0.42091 0.83812 0.28177 0.0
C1639 C 0.65956 0.41938 0.78486 0.0
C1640 C 0.66454 0.42115 0.75621 0.0
C1641 C 0.63885 0.40346 0.79513 0.0
C1642 C 0.6229 0.3884 0.77708 0.0
H1643 H 0.67196 0.43015 0.79939 0.0
H1644 H 0.63581 0.40225 0.81733 0.0
S1645 S 0.62762 0.38639 0.70045 0.0
N1646 N 0.65155 0.40689 0.71003 0.0
N1647 N 0.61291 0.37675 0.72936 0.0
C1648 C 0.62744 0.39032 0.74844 0.0
C1649 C 0.6482 0.40676 0.73799 0.0
C1650 C 0.09337 0.63778 0.29219 0.0
C1651 C 0.11269 0.62556 0.27541 0.0
C1652 C 0.07735 0.65837 0.28186 0.0
C1653 C 0.07984 0.66715 0.25429 0.0
H1654 H 0.09105 0.63181 0.31363 0.0
H1655 H 0.06299 0.66757 0.29557 0.0
S1656 S 0.12684 0.64106 0.20168 0.0
N1657 N 0.1328 0.62312 0.22965 0.0
N1658 N 0.103 0.66198 0.21041 0.0
C1659 C 0.09875 0.65476 0.23719 0.0
C1660 C 0.11511 0.63394 0.24771 0.0
C1661 C 0.85145 0.11039 0.78806 0.0
C1662 C 0.87813 0.10725 0.77996 0.0
C1663 C 0.83133 0.09425 0.77709 0.0
C1664 C 0.83704 0.07422 0.7576 0.0
H1665 H 0.84596 0.12571 0.80276 0.0
H1666 H 0.81102 0.09812 0.78332 0.0
S1667 S 0.90388 0.05689 0.73053 0.0
N1668 N 0.90926 0.08221 0.75155 0.0
N1669 N 0.8716 0.05112 0.73189 0.0
C1670 C 0.86375 0.07028 0.74998 0.0
C1671 C 0.88425 0.08689 0.76098 0.0
C1672 C 0.51026 0.22674 0.00971 0.0
C1673 C 0.50802 0.24684 0.02986 0.0
C1674 C 0.51025 0.23275 0.98134 0.0
C1675 C 0.50819 0.25915 0.97185 0.0
H1676 H 0.51253 0.20617 0.01586 0.0
H1677 H 0.51186 0.21649 0.96672 0.0
S1678 S 0.50113 0.31915 0.01609 0.0
N1679 N 0.50232 0.2942 0.03825 0.0
N1680 N 0.50394 0.30564 0.98506 0.0
C1681 C 0.50574 0.27946 0.99177 0.0
C1682 C 0.50534 0.27329 0.02069 0.0
C1683 C 0.22552 0.50564 0.49251 0.0
C1684 C 0.24558 0.50728 0.47227 0.0
C1685 C 0.2317 0.50565 0.52085 0.0
C1686 C 0.25819 0.50722 0.53012 0.0
H1687 H 0.20481 0.50493 0.48642 0.0
H1688 H 0.21555 0.50446 0.53564 0.0
S1689 S 0.31818 0.51091 0.4855 0.0
N1690 N 0.29314 0.5093 0.46345 0.0
N1691 N 0.30469 0.5103 0.51667 0.0
C1692 C 0.27848 0.50847 0.51009 0.0
C1693 C 0.2722 0.50832 0.48122 0.0
C1694 C 0.99062 0.23397 0.02163 0.0
C1695 C 0.99123 0.26053 0.03082 0.0
C1696 C 0.99102 0.22769 0.99333 0.0
C1697 C 0.99205 0.2477 0.97299 0.0
H1698 H 0.98974 0.21782 0.03646 0.0
H1699 H 0.98991 0.20697 0.98734 0.0
S1700 S 0.99504 0.32039 0.986 0.0
N1701 N 0.99316 0.30704 0.01719 0.0
N1702 N 0.99505 0.29521 0.96407 0.0
C1703 C 0.9933 0.27434 0.98187 0.0
C1704 C 0.99269 0.28075 0.01072 0.0
C1705 C 0.27246 0.98914 0.49059 0.0
C1706 C 0.25199 0.98982 0.47073 0.0
C1707 C 0.26678 0.98879 0.51903 0.0
C1708 C 0.2404 0.98924 0.52876 0.0
H1709 H 0.29306 0.98828 0.4841 0.0
H1710 H 0.2832 0.9881 0.53354 0.0
S1711 S 0.1796 0.99198 0.48529 0.0
N1712 N 0.20431 0.99202 0.46279 0.0
N1713 N 0.19361 0.99062 0.51621 0.0
C1714 C 0.21975 0.99035 0.50913 0.0
C1715 C 0.22554 0.99075 0.48016 0.0
C1716 C 0.48425 0.77401 0.99126 0.0
C1717 C 0.48335 0.75435 0.97052 0.0
C1718 C 0.48423 0.76724 0.01945 0.0
C1719 C 0.48328 0.74053 0.02811 0.0
H1720 H 0.48462 0.79486 0.9857 0.0
H1721 H 0.48511 0.78311 0.0346 0.0
S1722 S 0.481 0.68142 0.98207 0.0
N1723 N 0.48233 0.70695 0.96063 0.0
N1724 N 0.48105 0.69428 0.01355 0.0
C1725 C 0.48242 0.72065 0.00759 0.0
C1726 C 0.48268 0.72754 0.97886 0.0
C1727 C 0.73493 0.47306 0.52249 0.0
C1728 C 0.75554 0.48883 0.53339 0.0
C1729 C 0.72875 0.47358 0.49415 0.0
C1730 C 0.74297 0.48985 0.47565 0.0
H1731 H 0.72383 0.45981 0.53588 0.0
H1732 H 0.71306 0.46074 0.48658 0.0
S1733 S 0.79696 0.53682 0.49409 0.0
N1734 N 0.78892 0.52253 0.52375 0.0
N1735 N 0.77739 0.52336 0.47046 0.0
C1736 C 0.76323 0.50613 0.48635 0.0
C1737 C 0.76949 0.50566 0.5152 0.0
C1738 C 0.01349 0.77178 0.01342 0.0
C1739 C 0.0124 0.75172 0.03373 0.0
C1740 C 0.0135 0.76558 0.98511 0.0
C1741 C 0.01247 0.73905 0.97587 0.0
H1742 H 0.0148 0.79248 0.01943 0.0
H1743 H 0.01427 0.78176 0.97033 0.0
S1744 S 0.00881 0.6791 0.02059 0.0
N1745 N 0.00924 0.70423 0.04259 0.0
N1746 N 0.01043 0.69251 0.98941 0.0
C1747 C 0.01118 0.71878 0.99594 0.0
C1748 C 0.01094 0.72512 0.02481 0.0
C1749 C 0.76084 0.99764 0.51775 0.0
C1750 C 0.74119 0.01476 0.52831 0.0
C1751 C 0.76672 0.99698 0.48936 0.0
C1752 C 0.75302 0.01325 0.47044 0.0
H1753 H 0.77205 0.98493 0.5316 0.0
H1754 H 0.78205 0.98353 0.48214 0.0
S1755 S 0.69952 0.0613 0.48743 0.0
N1756 N 0.70762 0.04797 0.51754 0.0
N1757 N 0.71905 0.0471 0.46426 0.0
C1758 C 0.7332 0.03033 0.48069 0.0
C1759 C 0.72724 0.03104 0.5096 0.0
loop_
_geom_bond_atom_site_label_1
_geom_bond_atom_site_label_2
_geom_bond_distance
_geom_bond_site_symmetry_2
_ccdc_geom_bond_type
Li0 N17 1.990 . S
Li0 O60 1.956 . S
Li0 O61 1.970 . S
Li0 O62 1.961 . S
Li1 N25 1.990 . S
Li1 O60 1.970 . S
Li1 O61 1.956 . S
Li1 O63 1.961 . S
Li2 N47 1.990 . S
Li2 O60 1.961 . S
Li2 O62 1.956 . S
Li2 O63 1.970 . S
Li3 N53 1.990 . S
Li3 O61 1.961 . S
Li3 O62 1.970 . S
Li3 O63 1.956 . S
C4 C6 1.348 . S
C4 C7 1.356 . S
C4 O60 1.325 . S
N5 C8 1.314 . S
N5 C9 1.279 . S
C6 C4 1.348 . S
C6 C8 1.353 . S
C6 H64 0.929 . S
C7 C4 1.356 . S
C7 C9 1.358 . S
C7 H65 0.930 . S
C8 N5 1.314 . S
C8 C6 1.353 . S
C8 H66 0.930 . S
C9 N5 1.279 . S
C9 C7 1.358 . S
C9 H67 0.930 . S
C10 C13 1.348 . S
C10 C14 1.356 . S
C10 O61 1.325 . S
C11 N12 1.279 . S
C11 C14 1.358 . S
C11 H68 0.930 . S
N12 C11 1.279 . S
N12 C15 1.314 . S
C13 C10 1.348 . S
C13 C15 1.353 . S
C13 H69 0.929 . S
C14 C10 1.356 . S
C14 C11 1.358 . S
C14 H70 0.930 . S
C15 N12 1.314 . S
C15 C13 1.353 . S
C15 H71 0.930 . S
C16 N17 1.314 . S
C16 C21 1.353 . S
C16 H22 0.930 . S
N17 Li0 1.990 . S
N17 C16 1.314 . S
N17 C19 1.279 . S
C18 C19 1.358 . S
C18 C20 1.356 . S
C18 H72 0.930 . S
C19 N17 1.279 . S
C19 C18 1.358 . S
C19 H23 0.930 . S
C20 C18 1.356 . S
C20 C21 1.348 . S
C21 C16 1.353 . S
C21 C20 1.348 . S
C21 H73 0.929 . S
H22 C16 0.930 . S
H23 C19 0.930 . S
C24 N25 1.314 . S
C24 C26 1.353 . S
C24 H30 0.930 . S
N25 Li1 1.990 . S
N25 C24 1.314 . S
N25 C28 1.279 . S
C26 C24 1.353 . S
C26 C29 1.348 . S
C26 H74 0.929 . S
C27 C28 1.358 . S
C27 C29 1.356 . S
C27 H75 0.930 . S
C28 N25 1.279 . S
C28 C27 1.358 . S
C28 H31 0.930 . S
C29 C26 1.348 . S
C29 C27 1.356 . S
H30 C24 0.930 . S
H31 C28 0.930 . S
C32 C34 1.348 . S
C32 C35 1.356 . S
C32 O62 1.325 . S
N33 C36 1.314 . S
N33 C37 1.279 . S
C34 C32 1.348 . S
C34 C36 1.353 . S
C34 H76 0.929 . S
C35 C32 1.356 . S
C35 C37 1.358 . S
C35 H77 0.930 . S
C36 N33 1.314 . S
C36 C34 1.353 . S
C36 H78 0.930 . S
C37 N33 1.279 . S
C37 C35 1.358 . S
C37 H79 0.930 . S
C38 C39 1.348 . S
C38 C40 1.356 . S
C38 O63 1.325 . S
C39 C38 1.348 . S
C39 C41 1.353 . S
C39 H80 0.929 . S
C40 C38 1.356 . S
C40 C42 1.358 . S
C40 H81 0.930 . S
C41 C39 1.353 . S
C41 N43 1.314 . S
C41 H82 0.930 . S
C42 C40 1.358 . S
C42 N43 1.279 . S
C42 H83 0.930 . S
N43 C41 1.314 . S
N43 C42 1.279 . S
C44 C46 1.353 . S
C44 N47 1.314 . S
C44 H50 0.930 . S
C45 N47 1.279 . S
C45 C48 1.358 . S
C45 H51 0.930 . S
C46 C44 1.353 . S
C46 C49 1.348 . S
C46 H84 0.929 . S
N47 Li2 1.990 . S
N47 C44 1.314 . S
N47 C45 1.279 . S
C48 C45 1.358 . S
C48 C49 1.356 . S
C48 H85 0.930 . S
C49 C46 1.348 . S
C49 C48 1.356 . S
H50 C44 0.930 . S
H51 C45 0.930 . S
C52 N53 1.314 . S
C52 C54 1.353 . S
C52 H58 0.930 . S
N53 Li3 1.990 . S
N53 C52 1.314 . S
N53 C56 1.279 . S
C54 C52 1.353 . S
C54 C57 1.348 . S
C54 H86 0.929 . S
C55 C56 1.358 . S
C55 C57 1.356 . S
C55 H87 0.930 . S
C56 N53 1.279 . S
C56 C55 1.358 . S
C56 H59 0.930 . S
C57 C54 1.348 . S
C57 C55 1.356 . S
H58 C52 0.930 . S
H59 C56 0.930 . S
O60 Li0 1.956 . S
O60 Li1 1.970 . S
O60 Li2 1.961 . S
O60 C4 1.325 . S
O61 Li0 1.970 . S
O61 Li1 1.956 . S
O61 Li3 1.961 . S
O61 C10 1.325 . S
O62 Li0 1.961 . S
O62 Li2 1.956 . S
O62 Li3 1.970 . S
O62 C32 1.325 . S
O63 Li1 1.961 . S
O63 Li2 1.970 . S
O63 Li3 1.956 . S
O63 C38 1.325 . S
H64 C6 0.929 . S
H65 C7 0.930 . S
H66 C8 0.930 . S
H67 C9 0.930 . S
H68 C11 0.930 . S
H69 C13 0.929 . S
H70 C14 0.930 . S
H71 C15 0.930 . S
H72 C18 0.930 . S
H73 C21 0.929 . S
H74 C26 0.929 . S
H75 C27 0.930 . S
H76 C34 0.929 . S
H77 C35 0.930 . S
H78 C36 0.930 . S
H79 C37 0.930 . S
H80 C39 0.929 . S
H81 C40 0.930 . S
H82 C41 0.930 . S
H83 C42 0.930 . S
H84 C46 0.929 . S
H85 C48 0.930 . S
H86 C54 0.929 . S
H87 C55 0.930 . S
Li88 N105 1.990 . S
Li88 O148 1.956 . S
Li88 O149 1.970 . S
Li88 O150 1.961 . S
Li89 N113 1.990 . S
Li89 O148 1.970 . S
Li89 O149 1.956 . S
Li89 O151 1.961 . S
Li90 N135 1.990 . S
Li90 O148 1.961 . S
Li90 O150 1.956 . S
Li90 O151 1.970 . S
Li91 N141 1.990 . S
Li91 O149 1.961 . S
Li91 O150 1.970 . S
Li91 O151 1.956 . S
C92 C94 1.348 . S
C92 C95 1.356 . S
C92 O148 1.325 . S
N93 C96 1.314 . S
N93 C97 1.279 . S
C94 C92 1.348 . S
C94 C96 1.353 . S
C94 H152 0.929 . S
C95 C92 1.356 . S
C95 C97 1.358 . S
C95 H153 0.930 . S
C96 N93 1.314 . S
C96 C94 1.353 . S
C96 H154 0.930 . S
C97 N93 1.279 . S
C97 C95 1.358 . S
C97 H155 0.930 . S
C98 C101 1.348 . S
C98 C102 1.356 . S
C98 O149 1.325 . S
C99 N100 1.279 . S
C99 C102 1.358 . S
C99 H156 0.930 . S
N100 C99 1.279 . S
N100 C103 1.314 . S
C101 C98 1.348 . S
C101 C103 1.353 . S
C101 H157 0.929 . S
C102 C98 1.356 . S
C102 C99 1.358 . S
C102 H158 0.930 . S
C103 N100 1.314 . S
C103 C101 1.353 . S
C103 H159 0.930 . S
C104 N105 1.314 . S
C104 C109 1.353 . S
C104 H110 0.930 . S
N105 Li88 1.990 . S
N105 C104 1.314 . S
N105 C107 1.279 . S
C106 C107 1.358 . S
C106 C108 1.356 . S
C106 H160 0.930 . S
C107 N105 1.279 . S
C107 C106 1.358 . S
C107 H111 0.930 . S
C108 C106 1.356 . S
C108 C109 1.348 . S
C109 C104 1.353 . S
C109 C108 1.348 . S
C109 H161 0.929 . S
H110 C104 0.930 . S
H111 C107 0.930 . S
C112 N113 1.314 . S
C112 C114 1.353 . S
C112 H118 0.930 . S
N113 Li89 1.990 . S
N113 C112 1.314 . S
N113 C116 1.279 . S
C114 C112 1.353 . S
C114 C117 1.348 . S
C114 H162 0.929 . S
C115 C116 1.358 . S
C115 C117 1.356 . S
C115 H163 0.930 . S
C116 N113 1.279 . S
C116 C115 1.358 . S
C116 H119 0.930 . S
C117 C114 1.348 . S
C117 C115 1.356 . S
H118 C112 0.930 . S
H119 C116 0.930 . S
C120 C122 1.348 . S
C120 C123 1.356 . S
C120 O150 1.325 . S
N121 C124 1.314 . S
N121 C125 1.279 . S
C122 C120 1.348 . S
C122 C124 1.353 . S
C122 H164 0.929 . S
C123 C120 1.356 . S
C123 C125 1.358 . S
C123 H165 0.930 . S
C124 N121 1.314 . S
C124 C122 1.353 . S
C124 H166 0.930 . S
C125 N121 1.279 . S
C125 C123 1.358 . S
C125 H167 0.930 . S
C126 C127 1.348 . S
C126 C128 1.356 . S
C126 O151 1.325 . S
C127 C126 1.348 . S
C127 C129 1.353 . S
C127 H168 0.929 . S
C128 C126 1.356 . S
C128 C130 1.358 . S
C128 H169 0.930 . S
C129 C127 1.353 . S
C129 N131 1.314 . S
C129 H170 0.930 . S
C130 C128 1.358 . S
C130 N131 1.279 . S
C130 H171 0.930 . S
N131 C129 1.314 . S
N131 C130 1.279 . S
C132 C134 1.353 . S
C132 N135 1.314 . S
C132 H138 0.930 . S
C133 N135 1.279 . S
C133 C136 1.358 . S
C133 H139 0.930 . S
C134 C132 1.353 . S
C134 C137 1.348 . S
C134 H172 0.929 . S
N135 Li90 1.990 . S
N135 C132 1.314 . S
N135 C133 1.279 . S
C136 C133 1.358 . S
C136 C137 1.356 . S
C136 H173 0.930 . S
C137 C134 1.348 . S
C137 C136 1.356 . S
H138 C132 0.930 . S
H139 C133 0.930 . S
C140 N141 1.314 . S
C140 C142 1.353 . S
C140 H146 0.930 . S
N141 Li91 1.990 . S
N141 C140 1.314 . S
N141 C144 1.279 . S
C142 C140 1.353 . S
C142 C145 1.348 . S
C142 H174 0.929 . S
C143 C144 1.358 . S
C143 C145 1.356 . S
C143 H175 0.930 . S
C144 N141 1.279 . S
C144 C143 1.358 . S
C144 H147 0.930 . S
C145 C142 1.348 . S
C145 C143 1.356 . S
H146 C140 0.930 . S
H147 C144 0.930 . S
O148 Li88 1.956 . S
O148 Li89 1.970 . S
O148 Li90 1.961 . S
O148 C92 1.325 . S
O149 Li88 1.970 . S
O149 Li89 1.956 . S
O149 Li91 1.961 . S
O149 C98 1.325 . S
O150 Li88 1.961 . S
O150 Li90 1.956 . S
O150 Li91 1.970 . S
O150 C120 1.325 . S
O151 Li89 1.961 . S
O151 Li90 1.970 . S
O151 Li91 1.956 . S
O151 C126 1.325 . S
H152 C94 0.929 . S
H153 C95 0.930 . S
H154 C96 0.930 . S
H155 C97 0.930 . S
H156 C99 0.930 . S
H157 C101 0.929 . S
H158 C102 0.930 . S
H159 C103 0.930 . S
H160 C106 0.930 . S
H161 C109 0.929 . S
H162 C114 0.929 . S
H163 C115 0.930 . S
H164 C122 0.929 . S
H165 C123 0.930 . S
H166 C124 0.930 . S
H167 C125 0.930 . S
H168 C127 0.929 . S
H169 C128 0.930 . S
H170 C129 0.930 . S
H171 C130 0.930 . S
H172 C134 0.929 . S
H173 C136 0.930 . S
H174 C142 0.929 . S
H175 C143 0.930 . S
Li176 N193 1.990 . S
Li176 O236 1.956 . S
Li176 O237 1.970 . S
Li176 O238 1.961 . S
Li177 N201 1.990 . S
Li177 O236 1.970 1_455 S
Li177 O237 1.956 1_455 S
Li177 O239 1.961 . S
Li178 N223 1.990 . S
Li178 O236 1.961 . S
Li178 O238 1.956 . S
Li178 O239 1.970 1_655 S
Li179 N229 1.990 . S
Li179 O237 1.961 . S
Li179 O238 1.970 . S
Li179 O239 1.956 1_655 S
C180 C182 1.348 1_655 S
C180 C183 1.356 . S
C180 O236 1.325 . S
N181 C184 1.314 . S
N181 C185 1.279 1_455 S
C182 C180 1.348 1_455 S
C182 C184 1.353 . S
C182 H240 0.929 . S
C183 C180 1.356 . S
C183 C185 1.358 . S
C183 H241 0.930 . S
C184 N181 1.314 . S
C184 C182 1.353 . S
C184 H242 0.930 . S
C185 N181 1.279 1_655 S
C185 C183 1.358 . S
C185 H243 0.930 . S
C186 C189 1.348 . S
C186 C190 1.356 . S
C186 O237 1.325 . S
C187 N188 1.279 . S
C187 C190 1.358 . S
C187 H244 0.930 . S
N188 C187 1.279 . S
N188 C191 1.314 . S
C189 C186 1.348 . S
C189 C191 1.353 . S
C189 H245 0.929 . S
C190 C186 1.356 . S
C190 C187 1.358 . S
C190 H246 0.930 1_655 S
C191 N188 1.314 . S
C191 C189 1.353 . S
C191 H247 0.930 . S
C192 N193 1.314 . S
C192 C197 1.353 . S
C192 H198 0.930 . S
N193 Li176 1.990 . S
N193 C192 1.314 . S
N193 C195 1.279 . S
C194 C195 1.358 . S
C194 C196 1.356 . S
C194 H248 0.930 . S
C195 N193 1.279 . S
C195 C194 1.358 . S
C195 H199 0.930 . S
C196 C194 1.356 . S
C196 C197 1.348 . S
C197 C192 1.353 . S
C197 C196 1.348 . S
C197 H249 0.929 . S
H198 C192 0.930 . S
H199 C195 0.930 . S
C200 N201 1.314 . S
C200 C202 1.353 . S
C200 H206 0.930 . S
N201 Li177 1.990 . S
N201 C200 1.314 . S
N201 C204 1.279 . S
C202 C200 1.353 . S
C202 C205 1.348 . S
C202 H250 0.929 . S
C203 C204 1.358 . S
C203 C205 1.356 . S
C203 H251 0.930 . S
C204 N201 1.279 . S
C204 C203 1.358 . S
C204 H207 0.930 . S
C205 C202 1.348 . S
C205 C203 1.356 . S
H206 C200 0.930 . S
H207 C204 0.930 . S
C208 C210 1.348 . S
C208 C211 1.356 . S
C208 O238 1.325 . S
N209 C212 1.314 . S
N209 C213 1.279 . S
C210 C208 1.348 . S
C210 C212 1.353 . S
C210 H252 0.929 . S
C211 C208 1.356 . S
C211 C213 1.358 . S
C211 H253 0.930 . S
C212 N209 1.314 . S
C212 C210 1.353 . S
C212 H254 0.930 . S
C213 N209 1.279 . S
C213 C211 1.358 . S
C213 H255 0.930 . S
C214 C215 1.348 . S
C214 C216 1.356 . S
C214 O239 1.325 . S
C215 C214 1.348 . S
C215 C217 1.353 . S
C215 H256 0.929 . S
C216 C214 1.356 . S
C216 C218 1.358 . S
C216 H257 0.930 . S
C217 C215 1.353 . S
C217 N219 1.314 . S
C217 H258 0.930 . S
C218 C216 1.358 . S
C218 N219 1.279 . S
C218 H259 0.930 . S
N219 C217 1.314 . S
N219 C218 1.279 . S
C220 C222 1.353 . S
C220 N223 1.314 1_455 S
C220 H226 0.930 . S
C221 N223 1.279 . S
C221 C224 1.358 . S
C221 H227 0.930 . S
C222 C220 1.353 . S
C222 C225 1.348 1_455 S
C222 H260 0.929 . S
N223 Li178 1.990 . S
N223 C220 1.314 1_655 S
N223 C221 1.279 . S
C224 C221 1.358 . S
C224 C225 1.356 . S
C224 H261 0.930 . S
C225 C222 1.348 1_655 S
C225 C224 1.356 . S
H226 C220 0.930 . S
H227 C221 0.930 . S
C228 N229 1.314 . S
C228 C230 1.353 . S
C228 H234 0.930 . S
N229 Li179 1.990 . S
N229 C228 1.314 . S
N229 C232 1.279 . S
C230 C228 1.353 . S
C230 C233 1.348 . S
C230 H262 0.929 . S
C231 C232 1.358 . S
C231 C233 1.356 . S
C231 H263 0.930 . S
C232 N229 1.279 . S
C232 C231 1.358 . S
C232 H235 0.930 . S
C233 C230 1.348 . S
C233 C231 1.356 . S
H234 C228 0.930 . S
H235 C232 0.930 . S
O236 Li176 1.956 . S
O236 Li177 1.970 1_655 S
O236 Li178 1.961 . S
O236 C180 1.325 . S
O237 Li176 1.970 . S
O237 Li177 1.956 1_655 S
O237 Li179 1.961 . S
O237 C186 1.325 . S
O238 Li176 1.961 . S
O238 Li178 1.956 . S
O238 Li179 1.970 . S
O238 C208 1.325 . S
O239 Li177 1.961 . S
O239 Li178 1.970 1_455 S
O239 Li179 1.956 1_455 S
O239 C214 1.325 . S
H240 C182 0.929 . S
H241 C183 0.930 . S
H242 C184 0.930 . S
H243 C185 0.930 . S
H244 C187 0.930 . S
H245 C189 0.929 . S
H246 C190 0.930 1_455 S
H247 C191 0.930 . S
H248 C194 0.930 . S
H249 C197 0.929 . S
H250 C202 0.929 . S
H251 C203 0.930 . S
H252 C210 0.929 . S
H253 C211 0.930 . S
H254 C212 0.930 . S
H255 C213 0.930 . S
H256 C215 0.929 . S
H257 C216 0.930 . S
H258 C217 0.930 . S
H259 C218 0.930 . S
H260 C222 0.929 . S
H261 C224 0.930 . S
H262 C230 0.929 . S
H263 C231 0.930 . S
Li264 N281 1.990 . S
Li264 O324 1.956 . S
Li264 O325 1.970 . S
Li264 O326 1.961 . S
Li265 N289 1.990 . S
Li265 O324 1.970 1_545 S
Li265 O325 1.956 1_545 S
Li265 O327 1.961 . S
Li266 N311 1.990 . S
Li266 O324 1.961 . S
Li266 O326 1.956 . S
Li266 O327 1.970 1_565 S
Li267 N317 1.990 . S
Li267 O325 1.961 . S
Li267 O326 1.970 . S
Li267 O327 1.956 1_565 S
C268 C270 1.348 1_565 S
C268 C271 1.356 . S
C268 O324 1.325 . S
N269 C272 1.314 . S
N269 C273 1.279 1_545 S
C270 C268 1.348 1_545 S
C270 C272 1.353 . S
C270 H328 0.929 . S
C271 C268 1.356 . S
C271 C273 1.358 . S
C271 H329 0.930 . S
C272 N269 1.314 . S
C272 C270 1.353 . S
C272 H330 0.930 . S
C273 N269 1.279 1_565 S
C273 C271 1.358 . S
C273 H331 0.930 . S
C274 C277 1.348 . S
C274 C278 1.356 . S
C274 O325 1.325 . S
C275 N276 1.279 . S
C275 C278 1.358 . S
C275 H332 0.930 . S
N276 C275 1.279 . S
N276 C279 1.314 . S
C277 C274 1.348 . S
C277 C279 1.353 . S
C277 H333 0.929 . S
C278 C274 1.356 . S
C278 C275 1.358 . S
C278 H334 0.930 1_565 S
C279 N276 1.314 . S
C279 C277 1.353 . S
C279 H335 0.930 . S
C280 N281 1.314 . S
C280 C285 1.353 . S
C280 H286 0.930 . S
N281 Li264 1.990 . S
N281 C280 1.314 . S
N281 C283 1.279 . S
C282 C283 1.358 . S
C282 C284 1.356 . S
C282 H336 0.930 . S
C283 N281 1.279 . S
C283 C282 1.358 . S
C283 H287 0.930 . S
C284 C282 1.356 . S
C284 C285 1.348 . S
C285 C280 1.353 . S
C285 C284 1.348 . S
C285 H337 0.929 . S
H286 C280 0.930 . S
H287 C283 0.930 . S
C288 N289 1.314 . S
C288 C290 1.353 . S
C288 H294 0.930 . S
N289 Li265 1.990 . S
N289 C288 1.314 . S
N289 C292 1.279 . S
C290 C288 1.353 . S
C290 C293 1.348 . S
C290 H338 0.929 . S
C291 C292 1.358 . S
C291 C293 1.356 . S
C291 H339 0.930 . S
C292 N289 1.279 . S
C292 C291 1.358 . S
C292 H295 0.930 . S
C293 C290 1.348 . S
C293 C291 1.356 . S
H294 C288 0.930 . S
H295 C292 0.930 . S
C296 C298 1.348 . S
C296 C299 1.356 . S
C296 O326 1.325 . S
N297 C300 1.314 . S
N297 C301 1.279 . S
C298 C296 1.348 . S
C298 C300 1.353 . S
C298 H340 0.929 . S
C299 C296 1.356 . S
C299 C301 1.358 . S
C299 H341 0.930 . S
C300 N297 1.314 . S
C300 C298 1.353 . S
C300 H342 0.930 . S
C301 N297 1.279 . S
C301 C299 1.358 . S
C301 H343 0.930 . S
C302 C303 1.348 . S
C302 C304 1.356 . S
C302 O327 1.325 . S
C303 C302 1.348 . S
C303 C305 1.353 . S
C303 H344 0.929 . S
C304 C302 1.356 . S
C304 C306 1.358 . S
C304 H345 0.930 . S
C305 C303 1.353 . S
C305 N307 1.314 . S
C305 H346 0.930 . S
C306 C304 1.358 . S
C306 N307 1.279 . S
C306 H347 0.930 . S
N307 C305 1.314 . S
N307 C306 1.279 . S
C308 C310 1.353 . S
C308 N311 1.314 1_545 S
C308 H314 0.930 . S
C309 N311 1.279 . S
C309 C312 1.358 . S
C309 H315 0.930 . S
C310 C308 1.353 . S
C310 C313 1.348 1_545 S
C310 H348 0.929 . S
N311 Li266 1.990 . S
N311 C308 1.314 1_565 S
N311 C309 1.279 . S
C312 C309 1.358 . S
C312 C313 1.356 . S
C312 H349 0.930 . S
C313 C310 1.348 1_565 S
C313 C312 1.356 . S
H314 C308 0.930 . S
H315 C309 0.930 . S
C316 N317 1.314 . S
C316 C318 1.353 . S
C316 H322 0.930 . S
N317 Li267 1.990 . S
N317 C316 1.314 . S
N317 C320 1.279 . S
C318 C316 1.353 . S
C318 C321 1.348 . S
C318 H350 0.929 . S
C319 C320 1.358 . S
C319 C321 1.356 . S
C319 H351 0.930 . S
C320 N317 1.279 . S
C320 C319 1.358 . S
C320 H323 0.930 . S
C321 C318 1.348 . S
C321 C319 1.356 . S
H322 C316 0.930 . S
H323 C320 0.930 . S
O324 Li264 1.956 . S
O324 Li265 1.970 1_565 S
O324 Li266 1.961 . S
O324 C268 1.325 . S
O325 Li264 1.970 . S
O325 Li265 1.956 1_565 S
O325 Li267 1.961 . S
O325 C274 1.325 . S
O326 Li264 1.961 . S
O326 Li266 1.956 . S
O326 Li267 1.970 . S
O326 C296 1.325 . S
O327 Li265 1.961 . S
O327 Li266 1.970 1_545 S
O327 Li267 1.956 1_545 S
O327 C302 1.325 . S
H328 C270 0.929 . S
H329 C271 0.930 . S
H330 C272 0.930 . S
H331 C273 0.930 . S
H332 C275 0.930 . S
H333 C277 0.929 . S
H334 C278 0.930 1_545 S
H335 C279 0.930 . S
H336 C282 0.930 . S
H337 C285 0.929 . S
H338 C290 0.929 . S
H339 C291 0.930 . S
H340 C298 0.929 . S
H341 C299 0.930 . S
H342 C300 0.930 . S
H343 C301 0.930 . S
H344 C303 0.929 . S
H345 C304 0.930 . S
H346 C305 0.930 . S
H347 C306 0.930 . S
H348 C310 0.929 . S
H349 C312 0.930 . S
H350 C318 0.929 . S
H351 C319 0.930 . S
Li352 N369 1.990 . S
Li352 O412 1.956 . S
Li352 O413 1.970 . S
Li352 O414 1.961 . S
Li353 N377 1.990 . S
Li353 O412 1.970 . S
Li353 O413 1.956 . S
Li353 O415 1.961 . S
Li354 N399 1.990 . S
Li354 O412 1.961 . S
Li354 O414 1.956 . S
Li354 O415 1.970 . S
Li355 N405 1.990 . S
Li355 O413 1.961 . S
Li355 O414 1.970 . S
Li355 O415 1.956 . S
C356 C358 1.348 . S
C356 C359 1.356 . S
C356 O412 1.325 . S
N357 C360 1.314 . S
N357 C361 1.279 . S
C358 C356 1.348 . S
C358 C360 1.353 . S
C358 H416 0.929 . S
C359 C356 1.356 . S
C359 C361 1.358 . S
C359 H417 0.930 . S
C360 N357 1.314 . S
C360 C358 1.353 . S
C360 H418 0.930 . S
C361 N357 1.279 . S
C361 C359 1.358 . S
C361 H419 0.930 . S
C362 C365 1.348 . S
C362 C366 1.356 . S
C362 O413 1.325 . S
C363 N364 1.279 . S
C363 C366 1.358 . S
C363 H420 0.930 . S
N364 C363 1.279 . S
N364 C367 1.314 . S
C365 C362 1.348 . S
C365 C367 1.353 . S
C365 H421 0.929 . S
C366 C362 1.356 . S
C366 C363 1.358 . S
C366 H422 0.930 . S
C367 N364 1.314 . S
C367 C365 1.353 . S
C367 H423 0.930 . S
C368 N369 1.314 . S
C368 C373 1.353 . S
C368 H374 0.930 . S
N369 Li352 1.990 . S
N369 C368 1.314 . S
N369 C371 1.279 . S
C370 C371 1.358 . S
C370 C372 1.356 . S
C370 H424 0.930 . S
C371 N369 1.279 . S
C371 C370 1.358 . S
C371 H375 0.930 . S
C372 C370 1.356 . S
C372 C373 1.348 . S
C373 C368 1.353 . S
C373 C372 1.348 . S
C373 H425 0.929 . S
H374 C368 0.930 . S
H375 C371 0.930 . S
C376 N377 1.314 . S
C376 C378 1.353 . S
C376 H382 0.930 . S
N377 Li353 1.990 . S
N377 C376 1.314 . S
N377 C380 1.279 . S
C378 C376 1.353 . S
C378 C381 1.348 . S
C378 H426 0.929 . S
C379 C380 1.358 . S
C379 C381 1.356 . S
C379 H427 0.930 . S
C380 N377 1.279 . S
C380 C379 1.358 . S
C380 H383 0.930 . S
C381 C378 1.348 . S
C381 C379 1.356 . S
H382 C376 0.930 . S
H383 C380 0.930 . S
C384 C386 1.348 . S
C384 C387 1.356 . S
C384 O414 1.325 . S
N385 C388 1.314 . S
N385 C389 1.279 . S
C386 C384 1.348 . S
C386 C388 1.353 . S
C386 H428 0.929 . S
C387 C384 1.356 . S
C387 C389 1.358 . S
C387 H429 0.930 . S
C388 N385 1.314 . S
C388 C386 1.353 . S
C388 H430 0.930 . S
C389 N385 1.279 . S
C389 C387 1.358 . S
C389 H431 0.930 . S
C390 C391 1.348 . S
C390 C392 1.356 . S
C390 O415 1.325 . S
C391 C390 1.348 . S
C391 C393 1.353 . S
C391 H432 0.929 . S
C392 C390 1.356 . S
C392 C394 1.358 . S
C392 H433 0.930 . S
C393 C391 1.353 . S
C393 N395 1.314 . S
C393 H434 0.930 . S
C394 C392 1.358 . S
C394 N395 1.279 . S
C394 H435 0.930 . S
N395 C393 1.314 . S
N395 C394 1.279 . S
C396 C398 1.353 . S
C396 N399 1.314 . S
C396 H402 0.930 . S
C397 N399 1.279 . S
C397 C400 1.358 . S
C397 H403 0.930 . S
C398 C396 1.353 . S
C398 C401 1.348 . S
C398 H436 0.929 . S
N399 Li354 1.990 . S
N399 C396 1.314 . S
N399 C397 1.279 . S
C400 C397 1.358 . S
C400 C401 1.356 . S
C400 H437 0.930 . S
C401 C398 1.348 . S
C401 C400 1.356 . S
H402 C396 0.930 . S
H403 C397 0.930 . S
C404 N405 1.314 . S
C404 C406 1.353 . S
C404 H410 0.930 . S
N405 Li355 1.990 . S
N405 C404 1.314 . S
N405 C408 1.279 . S
C406 C404 1.353 . S
C406 C409 1.348 . S
C406 H438 0.929 . S
C407 C408 1.358 . S
C407 C409 1.356 . S
C407 H439 0.930 . S
C408 N405 1.279 . S
C408 C407 1.358 . S
C408 H411 0.930 . S
C409 C406 1.348 . S
C409 C407 1.356 . S
H410 C404 0.930 . S
H411 C408 0.930 . S
O412 Li352 1.956 . S
O412 Li353 1.970 . S
O412 Li354 1.961 . S
O412 C356 1.325 . S
O413 Li352 1.970 . S
O413 Li353 1.956 . S
O413 Li355 1.961 . S
O413 C362 1.325 . S
O414 Li352 1.961 . S
O414 Li354 1.956 . S
O414 Li355 1.970 . S
O414 C384 1.325 . S
O415 Li353 1.961 . S
O415 Li354 1.970 . S
O415 Li355 1.956 . S
O415 C390 1.325 . S
H416 C358 0.929 . S
H417 C359 0.930 . S
H418 C360 0.930 . S
H419 C361 0.930 . S
H420 C363 0.930 . S
H421 C365 0.929 . S
H422 C366 0.930 . S
H423 C367 0.930 . S
H424 C370 0.930 . S
H425 C373 0.929 . S
H426 C378 0.929 . S
H427 C379 0.930 . S
H428 C386 0.929 . S
H429 C387 0.930 . S
H430 C388 0.930 . S
H431 C389 0.930 . S
H432 C391 0.929 . S
H433 C392 0.930 . S
H434 C393 0.930 . S
H435 C394 0.930 . S
H436 C398 0.929 . S
H437 C400 0.930 . S
H438 C406 0.929 . S
H439 C407 0.930 . S
Li440 N457 1.990 . S
Li440 O500 1.956 . S
Li440 O501 1.970 . S
Li440 O502 1.961 . S
Li441 N465 1.990 . S
Li441 O500 1.970 . S
Li441 O501 1.956 . S
Li441 O503 1.961 . S
Li442 N487 1.990 . S
Li442 O500 1.961 . S
Li442 O502 1.956 . S
Li442 O503 1.970 . S
Li443 N493 1.990 . S
Li443 O501 1.961 . S
Li443 O502 1.970 . S
Li443 O503 1.956 . S
C444 C446 1.348 . S
C444 C447 1.356 . S
C444 O500 1.325 . S
N445 C448 1.314 . S
N445 C449 1.279 . S
C446 C444 1.348 . S
C446 C448 1.353 . S
C446 H504 0.929 . S
C447 C444 1.356 . S
C447 C449 1.358 . S
C447 H505 0.930 . S
C448 N445 1.314 . S
C448 C446 1.353 . S
C448 H506 0.930 . S
C449 N445 1.279 . S
C449 C447 1.358 . S
C449 H507 0.930 . S
C450 C453 1.348 . S
C450 C454 1.356 . S
C450 O501 1.325 . S
C451 N452 1.279 . S
C451 C454 1.358 . S
C451 H508 0.930 . S
N452 C451 1.279 . S
N452 C455 1.314 . S
C453 C450 1.348 . S
C453 C455 1.353 . S
C453 H509 0.929 . S
C454 C450 1.356 . S
C454 C451 1.358 . S
C454 H510 0.930 . S
C455 N452 1.314 . S
C455 C453 1.353 . S
C455 H511 0.930 . S
C456 N457 1.314 . S
C456 C461 1.353 . S
C456 H462 0.930 . S
N457 Li440 1.990 . S
N457 C456 1.314 . S
N457 C459 1.279 . S
C458 C459 1.358 . S
C458 C460 1.356 . S
C458 H512 0.930 . S
C459 N457 1.279 . S
C459 C458 1.358 . S
C459 H463 0.930 . S
C460 C458 1.356 . S
C460 C461 1.348 . S
C461 C456 1.353 . S
C461 C460 1.348 . S
C461 H513 0.929 . S
H462 C456 0.930 . S
H463 C459 0.930 . S
C464 N465 1.314 . S
C464 C466 1.353 . S
C464 H470 0.930 . S
N465 Li441 1.990 . S
N465 C464 1.314 . S
N465 C468 1.279 . S
C466 C464 1.353 . S
C466 C469 1.348 . S
C466 H514 0.929 . S
C467 C468 1.358 . S
C467 C469 1.356 . S
C467 H515 0.930 . S
C468 N465 1.279 . S
C468 C467 1.358 . S
C468 H471 0.930 . S
C469 C466 1.348 . S
C469 C467 1.356 . S
H470 C464 0.930 . S
H471 C468 0.930 . S
C472 C474 1.348 . S
C472 C475 1.356 . S
C472 O502 1.325 . S
N473 C476 1.314 . S
N473 C477 1.279 . S
C474 C472 1.348 . S
C474 C476 1.353 . S
C474 H516 0.929 . S
C475 C472 1.356 . S
C475 C477 1.358 . S
C475 H517 0.930 . S
C476 N473 1.314 . S
C476 C474 1.353 . S
C476 H518 0.930 . S
C477 N473 1.279 . S
C477 C475 1.358 . S
C477 H519 0.930 . S
C478 C479 1.348 . S
C478 C480 1.356 . S
C478 O503 1.325 . S
C479 C478 1.348 . S
C479 C481 1.353 . S
C479 H520 0.929 . S
C480 C478 1.356 . S
C480 C482 1.358 . S
C480 H521 0.930 . S
C481 C479 1.353 . S
C481 N483 1.314 . S
C481 H522 0.930 . S
C482 C480 1.358 . S
C482 N483 1.279 . S
C482 H523 0.930 . S
N483 C481 1.314 . S
N483 C482 1.279 . S
C484 C486 1.353 . S
C484 N487 1.314 . S
C484 H490 0.930 . S
C485 N487 1.279 . S
C485 C488 1.358 . S
C485 H491 0.930 . S
C486 C484 1.353 . S
C486 C489 1.348 . S
C486 H524 0.929 . S
N487 Li442 1.990 . S
N487 C484 1.314 . S
N487 C485 1.279 . S
C488 C485 1.358 . S
C488 C489 1.356 . S
C488 H525 0.930 . S
C489 C486 1.348 . S
C489 C488 1.356 . S
H490 C484 0.930 . S
H491 C485 0.930 . S
C492 N493 1.314 . S
C492 C494 1.353 . S
C492 H498 0.930 . S
N493 Li443 1.990 . S
N493 C492 1.314 . S
N493 C496 1.279 . S
C494 C492 1.353 . S
C494 C497 1.348 . S
C494 H526 0.929 . S
C495 C496 1.358 . S
C495 C497 1.356 . S
C495 H527 0.930 . S
C496 N493 1.279 . S
C496 C495 1.358 . S
C496 H499 0.930 . S
C497 C494 1.348 . S
C497 C495 1.356 . S
H498 C492 0.930 . S
H499 C496 0.930 . S
O500 Li440 1.956 . S
O500 Li441 1.970 . S
O500 Li442 1.961 . S
O500 C444 1.325 . S
O501 Li440 1.970 . S
O501 Li441 1.956 . S
O501 Li443 1.961 . S
O501 C450 1.325 . S
O502 Li440 1.961 . S
O502 Li442 1.956 . S
O502 Li443 1.970 . S
O502 C472 1.325 . S
O503 Li441 1.961 . S
O503 Li442 1.970 . S
O503 Li443 1.956 . S
O503 C478 1.325 . S
H504 C446 0.929 . S
H505 C447 0.930 . S
H506 C448 0.930 . S
H507 C449 0.930 . S
H508 C451 0.930 . S
H509 C453 0.929 . S
H510 C454 0.930 . S
H511 C455 0.930 . S
H512 C458 0.930 . S
H513 C461 0.929 . S
H514 C466 0.929 . S
H515 C467 0.930 . S
H516 C474 0.929 . S
H517 C475 0.930 . S
H518 C476 0.930 . S
H519 C477 0.930 . S
H520 C479 0.929 . S
H521 C480 0.930 . S
H522 C481 0.930 . S
H523 C482 0.930 . S
H524 C486 0.929 . S
H525 C488 0.930 . S
H526 C494 0.929 . S
H527 C495 0.930 . S
Li528 N545 1.990 . S
Li528 O588 1.956 1_655 S
Li528 O589 1.970 . S
Li528 O590 1.961 . S
Li529 N553 1.990 . S
Li529 O588 1.970 1_655 S
Li529 O589 1.956 . S
Li529 O591 1.961 . S
Li530 N575 1.990 . S
Li530 O588 1.961 . S
Li530 O590 1.956 1_455 S
Li530 O591 1.970 1_455 S
Li531 N581 1.990 . S
Li531 O589 1.961 . S
Li531 O590 1.970 . S
Li531 O591 1.956 . S
C532 C534 1.348 . S
C532 C535 1.356 . S
C532 O588 1.325 . S
N533 C536 1.314 . S
N533 C537 1.279 . S
C534 C532 1.348 . S
C534 C536 1.353 . S
C534 H592 0.929 . S
C535 C532 1.356 . S
C535 C537 1.358 . S
C535 H593 0.930 . S
C536 N533 1.314 . S
C536 C534 1.353 . S
C536 H594 0.930 . S
C537 N533 1.279 . S
C537 C535 1.358 . S
C537 H595 0.930 . S
C538 C541 1.348 . S
C538 C542 1.356 . S
C538 O589 1.325 . S
C539 N540 1.279 . S
C539 C542 1.358 . S
C539 H596 0.930 . S
N540 C539 1.279 . S
N540 C543 1.314 . S
C541 C538 1.348 . S
C541 C543 1.353 . S
C541 H597 0.929 . S
C542 C538 1.356 . S
C542 C539 1.358 . S
C542 H598 0.930 . S
C543 N540 1.314 . S
C543 C541 1.353 . S
C543 H599 0.930 . S
C544 N545 1.314 . S
C544 C549 1.353 . S
C544 H550 0.930 . S
N545 Li528 1.990 . S
N545 C544 1.314 . S
N545 C547 1.279 . S
C546 C547 1.358 . S
C546 C548 1.356 . S
C546 H600 0.930 . S
C547 N545 1.279 . S
C547 C546 1.358 . S
C547 H551 0.930 . S
C548 C546 1.356 . S
C548 C549 1.348 . S
C549 C544 1.353 . S
C549 C548 1.348 . S
C549 H601 0.929 . S
H550 C544 0.930 . S
H551 C547 0.930 . S
C552 N553 1.314 1_455 S
C552 C554 1.353 . S
C552 H558 0.930 . S
N553 Li529 1.990 . S
N553 C552 1.314 1_655 S
N553 C556 1.279 . S
C554 C552 1.353 . S
C554 C557 1.348 1_455 S
C554 H602 0.929 . S
C555 C556 1.358 . S
C555 C557 1.356 . S
C555 H603 0.930 . S
C556 N553 1.279 . S
C556 C555 1.358 . S
C556 H559 0.930 . S
C557 C554 1.348 1_655 S
C557 C555 1.356 . S
H558 C552 0.930 . S
H559 C556 0.930 . S
C560 C562 1.348 . S
C560 C563 1.356 . S
C560 O590 1.325 . S
N561 C564 1.314 . S
N561 C565 1.279 . S
C562 C560 1.348 . S
C562 C564 1.353 . S
C562 H604 0.929 . S
C563 C560 1.356 . S
C563 C565 1.358 . S
C563 H605 0.930 1_655 S
C564 N561 1.314 . S
C564 C562 1.353 . S
C564 H606 0.930 . S
C565 N561 1.279 . S
C565 C563 1.358 . S
C565 H607 0.930 . S
C566 C567 1.348 1_655 S
C566 C568 1.356 . S
C566 O591 1.325 . S
C567 C566 1.348 1_455 S
C567 C569 1.353 . S
C567 H608 0.929 . S
C568 C566 1.356 . S
C568 C570 1.358 . S
C568 H609 0.930 . S
C569 C567 1.353 . S
C569 N571 1.314 . S
C569 H610 0.930 . S
C570 C568 1.358 . S
C570 N571 1.279 1_655 S
C570 H611 0.930 . S
N571 C569 1.314 . S
N571 C570 1.279 1_455 S
C572 C574 1.353 . S
C572 N575 1.314 . S
C572 H578 0.930 . S
C573 N575 1.279 . S
C573 C576 1.358 . S
C573 H579 0.930 . S
C574 C572 1.353 . S
C574 C577 1.348 . S
C574 H612 0.929 . S
N575 Li530 1.990 . S
N575 C572 1.314 . S
N575 C573 1.279 . S
C576 C573 1.358 . S
C576 C577 1.356 . S
C576 H613 0.930 . S
C577 C574 1.348 . S
C577 C576 1.356 . S
H578 C572 0.930 . S
H579 C573 0.930 . S
C580 N581 1.314 . S
C580 C582 1.353 . S
C580 H586 0.930 . S
N581 Li531 1.990 . S
N581 C580 1.314 . S
N581 C584 1.279 . S
C582 C580 1.353 . S
C582 C585 1.348 . S
C582 H614 0.929 . S
C583 C584 1.358 . S
C583 C585 1.356 . S
C583 H615 0.930 . S
C584 N581 1.279 . S
C584 C583 1.358 . S
C584 H587 0.930 . S
C585 C582 1.348 . S
C585 C583 1.356 . S
H586 C580 0.930 . S
H587 C584 0.930 . S
O588 Li528 1.956 1_455 S
O588 Li529 1.970 1_455 S
O588 Li530 1.961 . S
O588 C532 1.325 . S
O589 Li528 1.970 . S
O589 Li529 1.956 . S
O589 Li531 1.961 . S
O589 C538 1.325 . S
O590 Li528 1.961 . S
O590 Li530 1.956 1_655 S
O590 Li531 1.970 . S
O590 C560 1.325 . S
O591 Li529 1.961 . S
O591 Li530 1.970 1_655 S
O591 Li531 1.956 . S
O591 C566 1.325 . S
H592 C534 0.929 . S
H593 C535 0.930 . S
H594 C536 0.930 . S
H595 C537 0.930 . S
H596 C539 0.930 . S
H597 C541 0.929 . S
H598 C542 0.930 . S
H599 C543 0.930 . S
H600 C546 0.930 . S
H601 C549 0.929 . S
H602 C554 0.929 . S
H603 C555 0.930 . S
H604 C562 0.929 . S
H605 C563 0.930 1_455 S
H606 C564 0.930 . S
H607 C565 0.930 . S
H608 C567 0.929 . S
H609 C568 0.930 . S
H610 C569 0.930 . S
H611 C570 0.930 . S
H612 C574 0.929 . S
H613 C576 0.930 . S
H614 C582 0.929 . S
H615 C583 0.930 . S
Li616 N633 1.990 . S
Li616 O676 1.956 1_565 S
Li616 O677 1.970 . S
Li616 O678 1.961 . S
Li617 N641 1.990 . S
Li617 O676 1.970 1_565 S
Li617 O677 1.956 . S
Li617 O679 1.961 . S
Li618 N663 1.990 . S
Li618 O676 1.961 . S
Li618 O678 1.956 1_545 S
Li618 O679 1.970 1_545 S
Li619 N669 1.990 . S
Li619 O677 1.961 . S
Li619 O678 1.970 . S
Li619 O679 1.956 . S
C620 C622 1.348 . S
C620 C623 1.356 . S
C620 O676 1.325 . S
N621 C624 1.314 . S
N621 C625 1.279 . S
C622 C620 1.348 . S
C622 C624 1.353 . S
C622 H680 0.929 . S
C623 C620 1.356 . S
C623 C625 1.358 . S
C623 H681 0.930 . S
C624 N621 1.314 . S
C624 C622 1.353 . S
C624 H682 0.930 . S
C625 N621 1.279 . S
C625 C623 1.358 . S
C625 H683 0.930 . S
C626 C629 1.348 . S
C626 C630 1.356 . S
C626 O677 1.325 . S
C627 N628 1.279 . S
C627 C630 1.358 . S
C627 H684 0.930 . S
N628 C627 1.279 . S
N628 C631 1.314 . S
C629 C626 1.348 . S
C629 C631 1.353 . S
C629 H685 0.929 . S
C630 C626 1.356 . S
C630 C627 1.358 . S
C630 H686 0.930 . S
C631 N628 1.314 . S
C631 C629 1.353 . S
C631 H687 0.930 . S
C632 N633 1.314 . S
C632 C637 1.353 . S
C632 H638 0.930 . S
N633 Li616 1.990 . S
N633 C632 1.314 . S
N633 C635 1.279 . S
C634 C635 1.358 . S
C634 C636 1.356 . S
C634 H688 0.930 . S
C635 N633 1.279 . S
C635 C634 1.358 . S
C635 H639 0.930 . S
C636 C634 1.356 . S
C636 C637 1.348 . S
C637 C632 1.353 . S
C637 C636 1.348 . S
C637 H689 0.929 . S
H638 C632 0.930 . S
H639 C635 0.930 . S
C640 N641 1.314 1_545 S
C640 C642 1.353 . S
C640 H646 0.930 . S
N641 Li617 1.990 . S
N641 C640 1.314 1_565 S
N641 C644 1.279 . S
C642 C640 1.353 . S
C642 C645 1.348 1_545 S
C642 H690 0.929 . S
C643 C644 1.358 . S
C643 C645 1.356 . S
C643 H691 0.930 . S
C644 N641 1.279 . S
C644 C643 1.358 . S
C644 H647 0.930 . S
C645 C642 1.348 1_565 S
C645 C643 1.356 . S
H646 C640 0.930 . S
H647 C644 0.930 . S
C648 C650 1.348 . S
C648 C651 1.356 . S
C648 O678 1.325 . S
N649 C652 1.314 . S
N649 C653 1.279 . S
C650 C648 1.348 . S
C650 C652 1.353 . S
C650 H692 0.929 . S
C651 C648 1.356 . S
C651 C653 1.358 . S
C651 H693 0.930 1_565 S
C652 N649 1.314 . S
C652 C650 1.353 . S
C652 H694 0.930 . S
C653 N649 1.279 . S
C653 C651 1.358 . S
C653 H695 0.930 . S
C654 C655 1.348 1_565 S
C654 C656 1.356 . S
C654 O679 1.325 . S
C655 C654 1.348 1_545 S
C655 C657 1.353 . S
C655 H696 0.929 . S
C656 C654 1.356 . S
C656 C658 1.358 . S
C656 H697 0.930 . S
C657 C655 1.353 . S
C657 N659 1.314 . S
C657 H698 0.930 . S
C658 C656 1.358 . S
C658 N659 1.279 1_565 S
C658 H699 0.930 . S
N659 C657 1.314 . S
N659 C658 1.279 1_545 S
C660 C662 1.353 . S
C660 N663 1.314 . S
C660 H666 0.930 . S
C661 N663 1.279 . S
C661 C664 1.358 . S
C661 H667 0.930 . S
C662 C660 1.353 . S
C662 C665 1.348 . S
C662 H700 0.929 . S
N663 Li618 1.990 . S
N663 C660 1.314 . S
N663 C661 1.279 . S
C664 C661 1.358 . S
C664 C665 1.356 . S
C664 H701 0.930 . S
C665 C662 1.348 . S
C665 C664 1.356 . S
H666 C660 0.930 . S
H667 C661 0.930 . S
C668 N669 1.314 . S
C668 C670 1.353 . S
C668 H674 0.930 . S
N669 Li619 1.990 . S
N669 C668 1.314 . S
N669 C672 1.279 . S
C670 C668 1.353 . S
C670 C673 1.348 . S
C670 H702 0.929 . S
C671 C672 1.358 . S
C671 C673 1.356 . S
C671 H703 0.930 . S
C672 N669 1.279 . S
C672 C671 1.358 . S
C672 H675 0.930 . S
C673 C670 1.348 . S
C673 C671 1.356 . S
H674 C668 0.930 . S
H675 C672 0.930 . S
O676 Li616 1.956 1_545 S
O676 Li617 1.970 1_545 S
O676 Li618 1.961 . S
O676 C620 1.325 . S
O677 Li616 1.970 . S
O677 Li617 1.956 . S
O677 Li619 1.961 . S
O677 C626 1.325 . S
O678 Li616 1.961 . S
O678 Li618 1.956 1_565 S
O678 Li619 1.970 . S
O678 C648 1.325 . S
O679 Li617 1.961 . S
O679 Li618 1.970 1_565 S
O679 Li619 1.956 . S
O679 C654 1.325 . S
H680 C622 0.929 . S
H681 C623 0.930 . S
H682 C624 0.930 . S
H683 C625 0.930 . S
H684 C627 0.930 . S
H685 C629 0.929 . S
H686 C630 0.930 . S
H687 C631 0.930 . S
H688 C634 0.930 . S
H689 C637 0.929 . S
H690 C642 0.929 . S
H691 C643 0.930 . S
H692 C650 0.929 . S
H693 C651 0.930 1_545 S
H694 C652 0.930 . S
H695 C653 0.930 . S
H696 C655 0.929 . S
H697 C656 0.930 . S
H698 C657 0.930 . S
H699 C658 0.930 . S
H700 C662 0.929 . S
H701 C664 0.930 . S
H702 C670 0.929 . S
H703 C671 0.930 . S
Li704 N721 1.990 . S
Li704 O764 1.956 . S
Li704 O765 1.970 . S
Li704 O766 1.961 . S
Li705 N729 1.990 . S
Li705 O764 1.970 . S
Li705 O765 1.956 . S
Li705 O767 1.961 . S
Li706 N751 1.990 . S
Li706 O764 1.961 . S
Li706 O766 1.956 . S
Li706 O767 1.970 . S
Li707 N757 1.990 . S
Li707 O765 1.961 . S
Li707 O766 1.970 . S
Li707 O767 1.956 . S
C708 C710 1.348 . S
C708 C711 1.356 . S
C708 O764 1.325 . S
N709 C712 1.314 . S
N709 C713 1.279 . S
C710 C708 1.348 . S
C710 C712 1.353 . S
C710 H768 0.929 . S
C711 C708 1.356 . S
C711 C713 1.358 . S
C711 H769 0.930 . S
C712 N709 1.314 . S
C712 C710 1.353 . S
C712 H770 0.930 . S
C713 N709 1.279 . S
C713 C711 1.358 . S
C713 H771 0.930 . S
C714 C717 1.348 . S
C714 C718 1.356 . S
C714 O765 1.325 . S
C715 N716 1.279 . S
C715 C718 1.358 . S
C715 H772 0.930 . S
N716 C715 1.279 . S
N716 C719 1.314 . S
C717 C714 1.348 . S
C717 C719 1.353 . S
C717 H773 0.929 . S
C718 C714 1.356 . S
C718 C715 1.358 . S
C718 H774 0.930 . S
C719 N716 1.314 . S
C719 C717 1.353 . S
C719 H775 0.930 . S
C720 N721 1.314 . S
C720 C725 1.353 . S
C720 H726 0.930 . S
N721 Li704 1.990 . S
N721 C720 1.314 . S
N721 C723 1.279 . S
C722 C723 1.358 . S
C722 C724 1.356 . S
C722 H776 0.930 . S
C723 N721 1.279 . S
C723 C722 1.358 . S
C723 H727 0.930 . S
C724 C722 1.356 . S
C724 C725 1.348 . S
C725 C720 1.353 . S
C725 C724 1.348 . S
C725 H777 0.929 . S
H726 C720 0.930 . S
H727 C723 0.930 . S
C728 N729 1.314 . S
C728 C730 1.353 . S
C728 H734 0.930 . S
N729 Li705 1.990 . S
N729 C728 1.314 . S
N729 C732 1.279 . S
C730 C728 1.353 . S
C730 C733 1.348 . S
C730 H778 0.929 . S
C731 C732 1.358 . S
C731 C733 1.356 . S
C731 H779 0.930 . S
C732 N729 1.279 . S
C732 C731 1.358 . S
C732 H735 0.930 . S
C733 C730 1.348 . S
C733 C731 1.356 . S
H734 C728 0.930 . S
H735 C732 0.930 . S
C736 C738 1.348 . S
C736 C739 1.356 . S
C736 O766 1.325 . S
N737 C740 1.314 . S
N737 C741 1.279 . S
C738 C736 1.348 . S
C738 C740 1.353 . S
C738 H780 0.929 . S
C739 C736 1.356 . S
C739 C741 1.358 . S
C739 H781 0.930 . S
C740 N737 1.314 . S
C740 C738 1.353 . S
C740 H782 0.930 . S
C741 N737 1.279 . S
C741 C739 1.358 . S
C741 H783 0.930 . S
C742 C743 1.348 . S
C742 C744 1.356 . S
C742 O767 1.325 . S
C743 C742 1.348 . S
C743 C745 1.353 . S
C743 H784 0.929 . S
C744 C742 1.356 . S
C744 C746 1.358 . S
C744 H785 0.930 . S
C745 C743 1.353 . S
C745 N747 1.314 . S
C745 H786 0.930 . S
C746 C744 1.358 . S
C746 N747 1.279 . S
C746 H787 0.930 . S
N747 C745 1.314 . S
N747 C746 1.279 . S
C748 C750 1.353 . S
C748 N751 1.314 . S
C748 H754 0.930 . S
C749 N751 1.279 . S
C749 C752 1.358 . S
C749 H755 0.930 . S
C750 C748 1.353 . S
C750 C753 1.348 . S
C750 H788 0.929 . S
N751 Li706 1.990 . S
N751 C748 1.314 . S
N751 C749 1.279 . S
C752 C749 1.358 . S
C752 C753 1.356 . S
C752 H789 0.930 . S
C753 C750 1.348 . S
C753 C752 1.356 . S
H754 C748 0.930 . S
H755 C749 0.930 . S
C756 N757 1.314 . S
C756 C758 1.353 . S
C756 H762 0.930 . S
N757 Li707 1.990 . S
N757 C756 1.314 . S
N757 C760 1.279 . S
C758 C756 1.353 . S
C758 C761 1.348 . S
C758 H790 0.929 . S
C759 C760 1.358 . S
C759 C761 1.356 . S
C759 H791 0.930 . S
C760 N757 1.279 . S
C760 C759 1.358 . S
C760 H763 0.930 . S
C761 C758 1.348 . S
C761 C759 1.356 . S
H762 C756 0.930 . S
H763 C760 0.930 . S
O764 Li704 1.956 . S
O764 Li705 1.970 . S
O764 Li706 1.961 . S
O764 C708 1.325 . S
O765 Li704 1.970 . S
O765 Li705 1.956 . S
O765 Li707 1.961 . S
O765 C714 1.325 . S
O766 Li704 1.961 . S
O766 Li706 1.956 . S
O766 Li707 1.970 . S
O766 C736 1.325 . S
O767 Li705 1.961 . S
O767 Li706 1.970 . S
O767 Li707 1.956 . S
O767 C742 1.325 . S
H768 C710 0.929 . S
H769 C711 0.930 . S
H770 C712 0.930 . S
H771 C713 0.930 . S
H772 C715 0.930 . S
H773 C717 0.929 . S
H774 C718 0.930 . S
H775 C719 0.930 . S
H776 C722 0.930 . S
H777 C725 0.929 . S
H778 C730 0.929 . S
H779 C731 0.930 . S
H780 C738 0.929 . S
H781 C739 0.930 . S
H782 C740 0.930 . S
H783 C741 0.930 . S
H784 C743 0.929 . S
H785 C744 0.930 . S
H786 C745 0.930 . S
H787 C746 0.930 . S
H788 C750 0.929 . S
H789 C752 0.930 . S
H790 C758 0.929 . S
H791 C759 0.930 . S
Li792 N809 1.990 . S
Li792 O852 1.956 . S
Li792 O853 1.970 . S
Li792 O854 1.961 . S
Li793 N817 1.990 . S
Li793 O852 1.970 . S
Li793 O853 1.956 . S
Li793 O855 1.961 . S
Li794 N839 1.990 . S
Li794 O852 1.961 . S
Li794 O854 1.956 . S
Li794 O855 1.970 . S
Li795 N845 1.990 . S
Li795 O853 1.961 . S
Li795 O854 1.970 . S
Li795 O855 1.956 . S
C796 C798 1.348 . S
C796 C799 1.356 . S
C796 O852 1.325 . S
N797 C800 1.314 . S
N797 C801 1.279 . S
C798 C796 1.348 . S
C798 C800 1.353 . S
C798 H856 0.929 . S
C799 C796 1.356 . S
C799 C801 1.358 . S
C799 H857 0.930 . S
C800 N797 1.314 . S
C800 C798 1.353 . S
C800 H858 0.930 . S
C801 N797 1.279 . S
C801 C799 1.358 . S
C801 H859 0.930 . S
C802 C805 1.348 . S
C802 C806 1.356 . S
C802 O853 1.325 . S
C803 N804 1.279 . S
C803 C806 1.358 . S
C803 H860 0.930 . S
N804 C803 1.279 . S
N804 C807 1.314 . S
C805 C802 1.348 . S
C805 C807 1.353 . S
C805 H861 0.929 . S
C806 C802 1.356 . S
C806 C803 1.358 . S
C806 H862 0.930 . S
C807 N804 1.314 . S
C807 C805 1.353 . S
C807 H863 0.930 . S
C808 N809 1.314 . S
C808 C813 1.353 . S
C808 H814 0.930 . S
N809 Li792 1.990 . S
N809 C808 1.314 . S
N809 C811 1.279 . S
C810 C811 1.358 . S
C810 C812 1.356 . S
C810 H864 0.930 . S
C811 N809 1.279 . S
C811 C810 1.358 . S
C811 H815 0.930 . S
C812 C810 1.356 . S
C812 C813 1.348 . S
C813 C808 1.353 . S
C813 C812 1.348 . S
C813 H865 0.929 . S
H814 C808 0.930 . S
H815 C811 0.930 . S
C816 N817 1.314 . S
C816 C818 1.353 . S
C816 H822 0.930 . S
N817 Li793 1.990 . S
N817 C816 1.314 . S
N817 C820 1.279 . S
C818 C816 1.353 . S
C818 C821 1.348 . S
C818 H866 0.929 . S
C819 C820 1.358 . S
C819 C821 1.356 . S
C819 H867 0.930 . S
C820 N817 1.279 . S
C820 C819 1.358 . S
C820 H823 0.930 . S
C821 C818 1.348 . S
C821 C819 1.356 . S
H822 C816 0.930 . S
H823 C820 0.930 . S
C824 C826 1.348 . S
C824 C827 1.356 . S
C824 O854 1.325 . S
N825 C828 1.314 . S
N825 C829 1.279 . S
C826 C824 1.348 . S
C826 C828 1.353 . S
C826 H868 0.929 . S
C827 C824 1.356 . S
C827 C829 1.358 . S
C827 H869 0.930 . S
C828 N825 1.314 . S
C828 C826 1.353 . S
C828 H870 0.930 . S
C829 N825 1.279 . S
C829 C827 1.358 . S
C829 H871 0.930 . S
C830 C831 1.348 . S
C830 C832 1.356 . S
C830 O855 1.325 . S
C831 C830 1.348 . S
C831 C833 1.353 . S
C831 H872 0.929 . S
C832 C830 1.356 . S
C832 C834 1.358 . S
C832 H873 0.930 . S
C833 C831 1.353 . S
C833 N835 1.314 . S
C833 H874 0.930 . S
C834 C832 1.358 . S
C834 N835 1.279 . S
C834 H875 0.930 . S
N835 C833 1.314 . S
N835 C834 1.279 . S
C836 C838 1.353 . S
C836 N839 1.314 . S
C836 H842 0.930 . S
C837 N839 1.279 . S
C837 C840 1.358 . S
C837 H843 0.930 . S
C838 C836 1.353 . S
C838 C841 1.348 . S
C838 H876 0.929 . S
N839 Li794 1.990 . S
N839 C836 1.314 . S
N839 C837 1.279 . S
C840 C837 1.358 . S
C840 C841 1.356 . S
C840 H877 0.930 . S
C841 C838 1.348 . S
C841 C840 1.356 . S
H842 C836 0.930 . S
H843 C837 0.930 . S
C844 N845 1.314 . S
C844 C846 1.353 . S
C844 H850 0.930 . S
N845 Li795 1.990 . S
N845 C844 1.314 . S
N845 C848 1.279 . S
C846 C844 1.353 . S
C846 C849 1.348 . S
C846 H878 0.929 . S
C847 C848 1.358 . S
C847 C849 1.356 . S
C847 H879 0.930 . S
C848 N845 1.279 . S
C848 C847 1.358 . S
C848 H851 0.930 . S
C849 C846 1.348 . S
C849 C847 1.356 . S
H850 C844 0.930 . S
H851 C848 0.930 . S
O852 Li792 1.956 . S
O852 Li793 1.970 . S
O852 Li794 1.961 . S
O852 C796 1.325 . S
O853 Li792 1.970 . S
O853 Li793 1.956 . S
O853 Li795 1.961 . S
O853 C802 1.325 . S
O854 Li792 1.961 . S
O854 Li794 1.956 . S
O854 Li795 1.970 . S
O854 C824 1.325 . S
O855 Li793 1.961 . S
O855 Li794 1.970 . S
O855 Li795 1.956 . S
O855 C830 1.325 . S
H856 C798 0.929 . S
H857 C799 0.930 . S
H858 C800 0.930 . S
H859 C801 0.930 . S
H860 C803 0.930 . S
H861 C805 0.929 . S
H862 C806 0.930 . S
H863 C807 0.930 . S
H864 C810 0.930 . S
H865 C813 0.929 . S
H866 C818 0.929 . S
H867 C819 0.930 . S
H868 C826 0.929 . S
H869 C827 0.930 . S
H870 C828 0.930 . S
H871 C829 0.930 . S
H872 C831 0.929 . S
H873 C832 0.930 . S
H874 C833 0.930 . S
H875 C834 0.930 . S
H876 C838 0.929 . S
H877 C840 0.930 . S
H878 C846 0.929 . S
H879 C847 0.930 . S
Li880 N897 1.990 . S
Li880 O940 1.956 . S
Li880 O941 1.970 1_455 S
Li880 O942 1.961 . S
Li881 N905 1.990 . S
Li881 O940 1.970 1_655 S
Li881 O941 1.956 . S
Li881 O943 1.961 1_655 S
Li882 N927 1.990 . S
Li882 O940 1.961 . S
Li882 O942 1.956 . S
Li882 O943 1.970 . S
Li883 N933 1.990 . S
Li883 O941 1.961 1_455 S
Li883 O942 1.970 . S
Li883 O943 1.956 . S
C884 C886 1.348 1_455 S
C884 C887 1.356 . S
C884 O940 1.325 . S
N885 C888 1.314 . S
N885 C889 1.279 1_655 S
C886 C884 1.348 1_655 S
C886 C888 1.353 . S
C886 H944 0.929 . S
C887 C884 1.356 . S
C887 C889 1.358 . S
C887 H945 0.930 . S
C888 N885 1.314 . S
C888 C886 1.353 . S
C888 H946 0.930 . S
C889 N885 1.279 1_455 S
C889 C887 1.358 . S
C889 H947 0.930 . S
C890 C893 1.348 . S
C890 C894 1.356 . S
C890 O941 1.325 . S
C891 N892 1.279 . S
C891 C894 1.358 . S
C891 H948 0.930 . S
N892 C891 1.279 . S
N892 C895 1.314 . S
C893 C890 1.348 . S
C893 C895 1.353 . S
C893 H949 0.929 . S
C894 C890 1.356 . S
C894 C891 1.358 . S
C894 H950 0.930 . S
C895 N892 1.314 . S
C895 C893 1.353 . S
C895 H951 0.930 . S
C896 N897 1.314 . S
C896 C901 1.353 . S
C896 H902 0.930 . S
N897 Li880 1.990 . S
N897 C896 1.314 . S
N897 C899 1.279 1_455 S
C898 C899 1.358 . S
C898 C900 1.356 1_655 S
C898 H952 0.930 . S
C899 N897 1.279 1_655 S
C899 C898 1.358 . S
C899 H903 0.930 . S
C900 C898 1.356 1_455 S
C900 C901 1.348 . S
C901 C896 1.353 . S
C901 C900 1.348 . S
C901 H953 0.929 . S
H902 C896 0.930 . S
H903 C899 0.930 . S
C904 N905 1.314 . S
C904 C906 1.353 . S
C904 H910 0.930 . S
N905 Li881 1.990 . S
N905 C904 1.314 . S
N905 C908 1.279 . S
C906 C904 1.353 . S
C906 C909 1.348 . S
C906 H954 0.929 . S
C907 C908 1.358 . S
C907 C909 1.356 . S
C907 H955 0.930 . S
C908 N905 1.279 . S
C908 C907 1.358 . S
C908 H911 0.930 . S
C909 C906 1.348 . S
C909 C907 1.356 . S
H910 C904 0.930 . S
H911 C908 0.930 . S
C912 C914 1.348 . S
C912 C915 1.356 . S
C912 O942 1.325 . S
N913 C916 1.314 . S
N913 C917 1.279 . S
C914 C912 1.348 . S
C914 C916 1.353 . S
C914 H956 0.929 . S
C915 C912 1.356 . S
C915 C917 1.358 . S
C915 H957 0.930 . S
C916 N913 1.314 . S
C916 C914 1.353 . S
C916 H958 0.930 . S
C917 N913 1.279 . S
C917 C915 1.358 . S
C917 H959 0.930 . S
C918 C919 1.348 . S
C918 C920 1.353 . S
C918 O943 1.325 . S
C919 C918 1.348 . S
C919 C921 1.353 . S
C919 H960 0.929 . S
C920 C918 1.353 . S
C920 C922 1.358 . S
C920 H961 0.933 1_455 S
C921 C919 1.353 . S
C921 N923 1.314 . S
C921 H962 0.930 . S
C922 C920 1.358 . S
C922 N923 1.279 . S
C922 H963 0.930 1_455 S
N923 C921 1.314 . S
N923 C922 1.279 . S
C924 C926 1.353 . S
C924 N927 1.314 . S
C924 H930 0.930 . S
C925 N927 1.279 . S
C925 C928 1.358 . S
C925 H931 0.930 . S
C926 C924 1.353 . S
C926 C929 1.348 . S
C926 H964 0.929 . S
N927 Li882 1.990 . S
N927 C924 1.314 . S
N927 C925 1.279 . S
C928 C925 1.358 . S
C928 C929 1.356 . S
C928 H965 0.930 . S
C929 C926 1.348 . S
C929 C928 1.356 . S
H930 C924 0.930 . S
H931 C925 0.930 . S
C932 N933 1.314 . S
C932 C934 1.353 . S
C932 H938 0.930 . S
N933 Li883 1.990 . S
N933 C932 1.314 . S
N933 C936 1.279 . S
C934 C932 1.353 . S
C934 C937 1.348 . S
C934 H966 0.929 . S
C935 C936 1.358 . S
C935 C937 1.356 . S
C935 H967 0.930 . S
C936 N933 1.279 . S
C936 C935 1.358 . S
C936 H939 0.930 . S
C937 C934 1.348 . S
C937 C935 1.356 . S
H938 C932 0.930 . S
H939 C936 0.930 . S
O940 Li880 1.956 . S
O940 Li881 1.970 1_455 S
O940 Li882 1.961 . S
O940 C884 1.325 . S
O941 Li880 1.970 1_655 S
O941 Li881 1.956 . S
O941 Li883 1.961 1_655 S
O941 C890 1.325 . S
O942 Li880 1.961 . S
O942 Li882 1.956 . S
O942 Li883 1.970 . S
O942 C912 1.325 . S
O943 Li881 1.961 1_455 S
O943 Li882 1.970 . S
O943 Li883 1.956 . S
O943 C918 1.325 . S
H944 C886 0.929 . S
H945 C887 0.930 . S
H946 C888 0.930 . S
H947 C889 0.930 . S
H948 C891 0.930 . S
H949 C893 0.929 . S
H950 C894 0.930 . S
H951 C895 0.930 . S
H952 C898 0.930 . S
H953 C901 0.929 . S
H954 C906 0.929 . S
H955 C907 0.930 . S
H956 C914 0.929 . S
H957 C915 0.930 . S
H958 C916 0.930 . S
H959 C917 0.930 . S
H960 C919 0.929 . S
H961 C920 0.933 1_655 S
H962 C921 0.930 . S
H963 C922 0.930 1_655 S
H964 C926 0.929 . S
H965 C928 0.930 . S
H966 C934 0.929 . S
H967 C935 0.930 . S
Li968 N985 1.990 . S
Li968 O1028 1.956 . S
Li968 O1029 1.970 1_545 S
Li968 O1030 1.961 . S
Li969 N993 1.990 . S
Li969 O1028 1.970 1_565 S
Li969 O1029 1.956 . S
Li969 O1031 1.961 1_565 S
Li970 N1015 1.990 . S
Li970 O1028 1.961 . S
Li970 O1030 1.956 . S
Li970 O1031 1.970 . S
Li971 N1021 1.990 . S
Li971 O1029 1.961 1_545 S
Li971 O1030 1.970 . S
Li971 O1031 1.956 . S
C972 C974 1.348 1_545 S
C972 C975 1.356 . S
C972 O1028 1.325 . S
N973 C976 1.314 . S
N973 C977 1.279 1_565 S
C974 C972 1.348 1_565 S
C974 C976 1.353 . S
C974 H1032 0.929 . S
C975 C972 1.356 . S
C975 C977 1.358 . S
C975 H1033 0.930 . S
C976 N973 1.314 . S
C976 C974 1.353 . S
C976 H1034 0.930 . S
C977 N973 1.279 1_545 S
C977 C975 1.358 . S
C977 H1035 0.930 . S
C978 C981 1.348 . S
C978 C982 1.356 . S
C978 O1029 1.325 . S
C979 N980 1.279 . S
C979 C982 1.358 . S
C979 H1036 0.930 . S
N980 C979 1.279 . S
N980 C983 1.314 . S
C981 C978 1.348 . S
C981 C983 1.353 . S
C981 H1037 0.929 . S
C982 C978 1.356 . S
C982 C979 1.358 . S
C982 H1038 0.930 . S
C983 N980 1.314 . S
C983 C981 1.353 . S
C983 H1039 0.930 . S
C984 N985 1.314 . S
C984 C989 1.353 . S
C984 H990 0.930 . S
N985 Li968 1.990 . S
N985 C984 1.314 . S
N985 C987 1.279 1_545 S
C986 C987 1.358 . S
C986 C988 1.356 1_565 S
C986 H1040 0.930 . S
C987 N985 1.279 1_565 S
C987 C986 1.358 . S
C987 H991 0.930 . S
C988 C986 1.356 1_545 S
C988 C989 1.348 . S
C989 C984 1.353 . S
C989 C988 1.348 . S
C989 H1041 0.929 . S
H990 C984 0.930 . S
H991 C987 0.930 . S
C992 N993 1.314 . S
C992 C994 1.353 . S
C992 H998 0.930 . S
N993 Li969 1.990 . S
N993 C992 1.314 . S
N993 C996 1.279 . S
C994 C992 1.353 . S
C994 C997 1.348 . S
C994 H1042 0.929 . S
C995 C996 1.358 . S
C995 C997 1.356 . S
C995 H1043 0.930 . S
C996 N993 1.279 . S
C996 C995 1.358 . S
C996 H999 0.930 . S
C997 C994 1.348 . S
C997 C995 1.356 . S
H998 C992 0.930 . S
H999 C996 0.930 . S
C1000 C1002 1.348 . S
C1000 C1003 1.356 . S
C1000 O1030 1.325 . S
N1001 C1004 1.314 . S
N1001 C1005 1.279 . S
C1002 C1000 1.348 . S
C1002 C1004 1.353 . S
C1002 H1044 0.929 . S
C1003 C1000 1.356 . S
C1003 C1005 1.358 . S
C1003 H1045 0.930 . S
C1004 N1001 1.314 . S
C1004 C1002 1.353 . S
C1004 H1046 0.930 . S
C1005 N1001 1.279 . S
C1005 C1003 1.358 . S
C1005 H1047 0.930 . S
C1006 C1007 1.348 . S
C1006 C1008 1.353 . S
C1006 O1031 1.325 . S
C1007 C1006 1.348 . S
C1007 C1009 1.353 . S
C1007 H1048 0.929 . S
C1008 C1006 1.353 . S
C1008 C1010 1.358 . S
C1008 H1049 0.933 1_545 S
C1009 C1007 1.353 . S
C1009 N1011 1.314 . S
C1009 H1050 0.930 . S
C1010 C1008 1.358 . S
C1010 N1011 1.279 . S
C1010 H1051 0.930 1_545 S
N1011 C1009 1.314 . S
N1011 C1010 1.279 . S
C1012 C1014 1.353 . S
C1012 N1015 1.314 . S
C1012 H1018 0.930 . S
C1013 N1015 1.279 . S
C1013 C1016 1.358 . S
C1013 H1019 0.930 . S
C1014 C1012 1.353 . S
C1014 C1017 1.348 . S
C1014 H1052 0.929 . S
N1015 Li970 1.990 . S
N1015 C1012 1.314 . S
N1015 C1013 1.279 . S
C1016 C1013 1.358 . S
C1016 C1017 1.356 . S
C1016 H1053 0.930 . S
C1017 C1014 1.348 . S
C1017 C1016 1.356 . S
H1018 C1012 0.930 . S
H1019 C1013 0.930 . S
C1020 N1021 1.314 . S
C1020 C1022 1.353 . S
C1020 H1026 0.930 . S
N1021 Li971 1.990 . S
N1021 C1020 1.314 . S
N1021 C1024 1.279 . S
C1022 C1020 1.353 . S
C1022 C1025 1.348 . S
C1022 H1054 0.929 . S
C1023 C1024 1.358 . S
C1023 C1025 1.356 . S
C1023 H1055 0.930 . S
C1024 N1021 1.279 . S
C1024 C1023 1.358 . S
C1024 H1027 0.930 . S
C1025 C1022 1.348 . S
C1025 C1023 1.356 . S
H1026 C1020 0.930 . S
H1027 C1024 0.930 . S
O1028 Li968 1.956 . S
O1028 Li969 1.970 1_545 S
O1028 Li970 1.961 . S
O1028 C972 1.325 . S
O1029 Li968 1.970 1_565 S
O1029 Li969 1.956 . S
O1029 Li971 1.961 1_565 S
O1029 C978 1.325 . S
O1030 Li968 1.961 . S
O1030 Li970 1.956 . S
O1030 Li971 1.970 . S
O1030 C1000 1.325 . S
O1031 Li969 1.961 1_545 S
O1031 Li970 1.970 . S
O1031 Li971 1.956 . S
O1031 C1006 1.325 . S
H1032 C974 0.929 . S
H1033 C975 0.930 . S
H1034 C976 0.930 . S
H1035 C977 0.930 . S
H1036 C979 0.930 . S
H1037 C981 0.929 . S
H1038 C982 0.930 . S
H1039 C983 0.930 . S
H1040 C986 0.930 . S
H1041 C989 0.929 . S
H1042 C994 0.929 . S
H1043 C995 0.930 . S
H1044 C1002 0.929 . S
H1045 C1003 0.930 . S
H1046 C1004 0.930 . S
H1047 C1005 0.930 . S
H1048 C1007 0.929 . S
H1049 C1008 0.933 1_565 S
H1050 C1009 0.930 . S
H1051 C1010 0.930 1_565 S
H1052 C1014 0.929 . S
H1053 C1016 0.930 . S
H1054 C1022 0.929 . S
H1055 C1023 0.930 . S
Li1056 N1073 1.990 . S
Li1056 O1116 1.956 . S
Li1056 O1117 1.970 . S
Li1056 O1118 1.961 . S
Li1057 N1081 1.990 . S
Li1057 O1116 1.970 . S
Li1057 O1117 1.956 . S
Li1057 O1119 1.961 . S
Li1058 N1103 1.990 . S
Li1058 O1116 1.961 . S
Li1058 O1118 1.956 . S
Li1058 O1119 1.970 . S
Li1059 N1109 1.990 . S
Li1059 O1117 1.961 . S
Li1059 O1118 1.970 . S
Li1059 O1119 1.956 . S
C1060 C1062 1.348 . S
C1060 C1063 1.356 . S
C1060 O1116 1.325 . S
N1061 C1064 1.314 . S
N1061 C1065 1.279 . S
C1062 C1060 1.348 . S
C1062 C1064 1.353 . S
C1062 H1120 0.929 . S
C1063 C1060 1.356 . S
C1063 C1065 1.358 . S
C1063 H1121 0.930 . S
C1064 N1061 1.314 . S
C1064 C1062 1.353 . S
C1064 H1122 0.930 . S
C1065 N1061 1.279 . S
C1065 C1063 1.358 . S
C1065 H1123 0.930 . S
C1066 C1069 1.348 . S
C1066 C1070 1.356 . S
C1066 O1117 1.325 . S
C1067 N1068 1.279 . S
C1067 C1070 1.358 . S
C1067 H1124 0.930 . S
N1068 C1067 1.279 . S
N1068 C1071 1.314 . S
C1069 C1066 1.348 . S
C1069 C1071 1.353 . S
C1069 H1125 0.929 . S
C1070 C1066 1.356 . S
C1070 C1067 1.358 . S
C1070 H1126 0.930 . S
C1071 N1068 1.314 . S
C1071 C1069 1.353 . S
C1071 H1127 0.930 . S
C1072 N1073 1.314 . S
C1072 C1077 1.353 . S
C1072 H1078 0.930 . S
N1073 Li1056 1.990 . S
N1073 C1072 1.314 . S
N1073 C1075 1.279 . S
C1074 C1075 1.358 . S
C1074 C1076 1.356 . S
C1074 H1128 0.930 . S
C1075 N1073 1.279 . S
C1075 C1074 1.358 . S
C1075 H1079 0.930 . S
C1076 C1074 1.356 . S
C1076 C1077 1.348 . S
C1077 C1072 1.353 . S
C1077 C1076 1.348 . S
C1077 H1129 0.929 . S
H1078 C1072 0.930 . S
H1079 C1075 0.930 . S
C1080 N1081 1.314 . S
C1080 C1082 1.353 . S
C1080 H1086 0.930 . S
N1081 Li1057 1.990 . S
N1081 C1080 1.314 . S
N1081 C1084 1.279 . S
C1082 C1080 1.353 . S
C1082 C1085 1.348 . S
C1082 H1130 0.929 . S
C1083 C1084 1.358 . S
C1083 C1085 1.356 . S
C1083 H1131 0.930 . S
C1084 N1081 1.279 . S
C1084 C1083 1.358 . S
C1084 H1087 0.930 . S
C1085 C1082 1.348 . S
C1085 C1083 1.356 . S
H1086 C1080 0.930 . S
H1087 C1084 0.930 . S
C1088 C1090 1.348 . S
C1088 C1091 1.356 . S
C1088 O1118 1.325 . S
N1089 C1092 1.314 . S
N1089 C1093 1.279 . S
C1090 C1088 1.348 . S
C1090 C1092 1.353 . S
C1090 H1132 0.929 . S
C1091 C1088 1.356 . S
C1091 C1093 1.358 . S
C1091 H1133 0.930 . S
C1092 N1089 1.314 . S
C1092 C1090 1.353 . S
C1092 H1134 0.930 . S
C1093 N1089 1.279 . S
C1093 C1091 1.358 . S
C1093 H1135 0.930 . S
C1094 C1095 1.348 . S
C1094 C1096 1.356 . S
C1094 O1119 1.325 . S
C1095 C1094 1.348 . S
C1095 C1097 1.353 . S
C1095 H1136 0.929 . S
C1096 C1094 1.356 . S
C1096 C1098 1.358 . S
C1096 H1137 0.930 . S
C1097 C1095 1.353 . S
C1097 N1099 1.314 . S
C1097 H1138 0.930 . S
C1098 C1096 1.358 . S
C1098 N1099 1.279 . S
C1098 H1139 0.930 . S
N1099 C1097 1.314 . S
N1099 C1098 1.279 . S
C1100 C1102 1.353 . S
C1100 N1103 1.314 . S
C1100 H1106 0.930 . S
C1101 N1103 1.279 . S
C1101 C1104 1.358 . S
C1101 H1107 0.930 . S
C1102 C1100 1.353 . S
C1102 C1105 1.348 . S
C1102 H1140 0.929 . S
N1103 Li1058 1.990 . S
N1103 C1100 1.314 . S
N1103 C1101 1.279 . S
C1104 C1101 1.358 . S
C1104 C1105 1.356 . S
C1104 H1141 0.930 . S
C1105 C1102 1.348 . S
C1105 C1104 1.356 . S
H1106 C1100 0.930 . S
H1107 C1101 0.930 . S
C1108 N1109 1.314 . S
C1108 C1110 1.353 . S
C1108 H1114 0.930 . S
N1109 Li1059 1.990 . S
N1109 C1108 1.314 . S
N1109 C1112 1.279 . S
C1110 C1108 1.353 . S
C1110 C1113 1.348 . S
C1110 H1142 0.929 . S
C1111 C1112 1.358 . S
C1111 C1113 1.356 . S
C1111 H1143 0.930 . S
C1112 N1109 1.279 . S
C1112 C1111 1.358 . S
C1112 H1115 0.930 . S
C1113 C1110 1.348 . S
C1113 C1111 1.356 . S
H1114 C1108 0.930 . S
H1115 C1112 0.930 . S
O1116 Li1056 1.956 . S
O1116 Li1057 1.970 . S
O1116 Li1058 1.961 . S
O1116 C1060 1.325 . S
O1117 Li1056 1.970 . S
O1117 Li1057 1.956 . S
O1117 Li1059 1.961 . S
O1117 C1066 1.325 . S
O1118 Li1056 1.961 . S
O1118 Li1058 1.956 . S
O1118 Li1059 1.970 . S
O1118 C1088 1.325 . S
O1119 Li1057 1.961 . S
O1119 Li1058 1.970 . S
O1119 Li1059 1.956 . S
O1119 C1094 1.325 . S
H1120 C1062 0.929 . S
H1121 C1063 0.930 . S
H1122 C1064 0.930 . S
H1123 C1065 0.930 . S
H1124 C1067 0.930 . S
H1125 C1069 0.929 . S
H1126 C1070 0.930 . S
H1127 C1071 0.930 . S
H1128 C1074 0.930 . S
H1129 C1077 0.929 . S
H1130 C1082 0.929 . S
H1131 C1083 0.930 . S
H1132 C1090 0.929 . S
H1133 C1091 0.930 . S
H1134 C1092 0.930 . S
H1135 C1093 0.930 . S
H1136 C1095 0.929 . S
H1137 C1096 0.930 . S
H1138 C1097 0.930 . S
H1139 C1098 0.930 . S
H1140 C1102 0.929 . S
H1141 C1104 0.930 . S
H1142 C1110 0.929 . S
H1143 C1111 0.930 . S
Li1144 N1161 1.990 . S
Li1144 O1204 1.956 . S
Li1144 O1205 1.970 . S
Li1144 O1206 1.961 . S
Li1145 N1169 1.990 . S
Li1145 O1204 1.970 . S
Li1145 O1205 1.956 . S
Li1145 O1207 1.961 . S
Li1146 N1191 1.990 . S
Li1146 O1204 1.961 . S
Li1146 O1206 1.956 . S
Li1146 O1207 1.970 . S
Li1147 N1197 1.990 . S
Li1147 O1205 1.961 . S
Li1147 O1206 1.970 . S
Li1147 O1207 1.956 . S
C1148 C1150 1.348 . S
C1148 C1151 1.356 . S
C1148 O1204 1.325 . S
N1149 C1152 1.314 . S
N1149 C1153 1.279 . S
C1150 C1148 1.348 . S
C1150 C1152 1.353 . S
C1150 H1208 0.929 . S
C1151 C1148 1.356 . S
C1151 C1153 1.358 . S
C1151 H1209 0.930 . S
C1152 N1149 1.314 . S
C1152 C1150 1.353 . S
C1152 H1210 0.930 . S
C1153 N1149 1.279 . S
C1153 C1151 1.358 . S
C1153 H1211 0.930 . S
C1154 C1157 1.348 . S
C1154 C1158 1.356 . S
C1154 O1205 1.325 . S
C1155 N1156 1.279 . S
C1155 C1158 1.358 . S
C1155 H1212 0.930 . S
N1156 C1155 1.279 . S
N1156 C1159 1.314 . S
C1157 C1154 1.348 . S
C1157 C1159 1.353 . S
C1157 H1213 0.929 . S
C1158 C1154 1.356 . S
C1158 C1155 1.358 . S
C1158 H1214 0.930 . S
C1159 N1156 1.314 . S
C1159 C1157 1.353 . S
C1159 H1215 0.930 . S
C1160 N1161 1.314 . S
C1160 C1165 1.353 . S
C1160 H1166 0.930 . S
N1161 Li1144 1.990 . S
N1161 C1160 1.314 . S
N1161 C1163 1.279 . S
C1162 C1163 1.358 . S
C1162 C1164 1.356 . S
C1162 H1216 0.930 . S
C1163 N1161 1.279 . S
C1163 C1162 1.358 . S
C1163 H1167 0.930 . S
C1164 C1162 1.356 . S
C1164 C1165 1.348 . S
C1165 C1160 1.353 . S
C1165 C1164 1.348 . S
C1165 H1217 0.929 . S
H1166 C1160 0.930 . S
H1167 C1163 0.930 . S
C1168 N1169 1.314 . S
C1168 C1170 1.353 . S
C1168 H1174 0.930 . S
N1169 Li1145 1.990 . S
N1169 C1168 1.314 . S
N1169 C1172 1.279 . S
C1170 C1168 1.353 . S
C1170 C1173 1.348 . S
C1170 H1218 0.929 . S
C1171 C1172 1.358 . S
C1171 C1173 1.356 . S
C1171 H1219 0.930 . S
C1172 N1169 1.279 . S
C1172 C1171 1.358 . S
C1172 H1175 0.930 . S
C1173 C1170 1.348 . S
C1173 C1171 1.356 . S
H1174 C1168 0.930 . S
H1175 C1172 0.930 . S
C1176 C1178 1.348 . S
C1176 C1179 1.356 . S
C1176 O1206 1.325 . S
N1177 C1180 1.314 . S
N1177 C1181 1.279 . S
C1178 C1176 1.348 . S
C1178 C1180 1.353 . S
C1178 H1220 0.929 . S
C1179 C1176 1.356 . S
C1179 C1181 1.358 . S
C1179 H1221 0.930 . S
C1180 N1177 1.314 . S
C1180 C1178 1.353 . S
C1180 H1222 0.930 . S
C1181 N1177 1.279 . S
C1181 C1179 1.358 . S
C1181 H1223 0.930 . S
C1182 C1183 1.348 . S
C1182 C1184 1.356 . S
C1182 O1207 1.325 . S
C1183 C1182 1.348 . S
C1183 C1185 1.353 . S
C1183 H1224 0.929 . S
C1184 C1182 1.356 . S
C1184 C1186 1.358 . S
C1184 H1225 0.930 . S
C1185 C1183 1.353 . S
C1185 N1187 1.314 . S
C1185 H1226 0.930 . S
C1186 C1184 1.358 . S
C1186 N1187 1.279 . S
C1186 H1227 0.930 . S
N1187 C1185 1.314 . S
N1187 C1186 1.279 . S
C1188 C1190 1.353 . S
C1188 N1191 1.314 . S
C1188 H1194 0.930 . S
C1189 N1191 1.279 . S
C1189 C1192 1.358 . S
C1189 H1195 0.930 . S
C1190 C1188 1.353 . S
C1190 C1193 1.348 . S
C1190 H1228 0.929 . S
N1191 Li1146 1.990 . S
N1191 C1188 1.314 . S
N1191 C1189 1.279 . S
C1192 C1189 1.358 . S
C1192 C1193 1.356 . S
C1192 H1229 0.930 . S
C1193 C1190 1.348 . S
C1193 C1192 1.356 . S
H1194 C1188 0.930 . S
H1195 C1189 0.930 . S
C1196 N1197 1.314 . S
C1196 C1198 1.353 . S
C1196 H1202 0.930 . S
N1197 Li1147 1.990 . S
N1197 C1196 1.314 . S
N1197 C1200 1.279 . S
C1198 C1196 1.353 . S
C1198 C1201 1.348 . S
C1198 H1230 0.929 . S
C1199 C1200 1.358 . S
C1199 C1201 1.356 . S
C1199 H1231 0.930 . S
C1200 N1197 1.279 . S
C1200 C1199 1.358 . S
C1200 H1203 0.930 . S
C1201 C1198 1.348 . S
C1201 C1199 1.356 . S
H1202 C1196 0.930 . S
H1203 C1200 0.930 . S
O1204 Li1144 1.956 . S
O1204 Li1145 1.970 . S
O1204 Li1146 1.961 . S
O1204 C1148 1.325 . S
O1205 Li1144 1.970 . S
O1205 Li1145 1.956 . S
O1205 Li1147 1.961 . S
O1205 C1154 1.325 . S
O1206 Li1144 1.961 . S
O1206 Li1146 1.956 . S
O1206 Li1147 1.970 . S
O1206 C1176 1.325 . S
O1207 Li1145 1.961 . S
O1207 Li1146 1.970 . S
O1207 Li1147 1.956 . S
O1207 C1182 1.325 . S
H1208 C1150 0.929 . S
H1209 C1151 0.930 . S
H1210 C1152 0.930 . S
H1211 C1153 0.930 . S
H1212 C1155 0.930 . S
H1213 C1157 0.929 . S
H1214 C1158 0.930 . S
H1215 C1159 0.930 . S
H1216 C1162 0.930 . S
H1217 C1165 0.929 . S
H1218 C1170 0.929 . S
H1219 C1171 0.930 . S
H1220 C1178 0.929 . S
H1221 C1179 0.930 . S
H1222 C1180 0.930 . S
H1223 C1181 0.930 . S
H1224 C1183 0.929 . S
H1225 C1184 0.930 . S
H1226 C1185 0.930 . S
H1227 C1186 0.930 . S
H1228 C1190 0.929 . S
H1229 C1192 0.930 . S
H1230 C1198 0.929 . S
H1231 C1199 0.930 . S
Li1232 N1249 1.990 . S
Li1232 O1292 1.956 . S
Li1232 O1293 1.970 . S
Li1232 O1294 1.961 . S
Li1233 N1257 1.990 . S
Li1233 O1292 1.970 . S
Li1233 O1293 1.956 . S
Li1233 O1295 1.961 1_455 S
Li1234 N1279 1.990 . S
Li1234 O1292 1.961 . S
Li1234 O1294 1.956 . S
Li1234 O1295 1.970 1_455 S
Li1235 N1285 1.990 . S
Li1235 O1293 1.961 1_655 S
Li1235 O1294 1.970 1_655 S
Li1235 O1295 1.956 . S
C1236 C1238 1.348 . S
C1236 C1239 1.356 . S
C1236 O1292 1.325 . S
N1237 C1240 1.314 . S
N1237 C1241 1.279 . S
C1238 C1236 1.348 . S
C1238 C1240 1.353 . S
C1238 H1296 0.929 . S
C1239 C1236 1.356 . S
C1239 C1241 1.358 . S
C1239 H1297 0.930 . S
C1240 N1237 1.314 . S
C1240 C1238 1.353 . S
C1240 H1298 0.930 . S
C1241 N1237 1.279 . S
C1241 C1239 1.358 . S
C1241 H1299 0.930 . S
C1242 C1245 1.348 . S
C1242 C1246 1.353 . S
C1242 O1293 1.325 . S
C1243 N1244 1.279 . S
C1243 C1246 1.358 . S
C1243 H1300 0.930 1_455 S
N1244 C1243 1.279 . S
N1244 C1247 1.314 . S
C1245 C1242 1.348 . S
C1245 C1247 1.353 . S
C1245 H1301 0.929 . S
C1246 C1242 1.353 . S
C1246 C1243 1.358 . S
C1246 H1302 0.933 1_455 S
C1247 N1244 1.314 . S
C1247 C1245 1.353 . S
C1247 H1303 0.930 . S
C1248 N1249 1.314 . S
C1248 C1253 1.353 . S
C1248 H1254 0.930 . S
N1249 Li1232 1.990 . S
N1249 C1248 1.314 . S
N1249 C1251 1.279 . S
C1250 C1251 1.358 . S
C1250 C1252 1.356 . S
C1250 H1304 0.930 . S
C1251 N1249 1.279 . S
C1251 C1250 1.358 . S
C1251 H1255 0.930 . S
C1252 C1250 1.356 . S
C1252 C1253 1.348 . S
C1253 C1248 1.353 . S
C1253 C1252 1.348 . S
C1253 H1305 0.929 . S
H1254 C1248 0.930 . S
H1255 C1251 0.930 . S
C1256 N1257 1.314 . S
C1256 C1258 1.353 . S
C1256 H1262 0.930 . S
N1257 Li1233 1.990 . S
N1257 C1256 1.314 . S
N1257 C1260 1.279 . S
C1258 C1256 1.353 . S
C1258 C1261 1.348 . S
C1258 H1306 0.929 . S
C1259 C1260 1.358 . S
C1259 C1261 1.356 . S
C1259 H1307 0.930 . S
C1260 N1257 1.279 . S
C1260 C1259 1.358 . S
C1260 H1263 0.930 . S
C1261 C1258 1.348 . S
C1261 C1259 1.356 . S
H1262 C1256 0.930 . S
H1263 C1260 0.930 . S
C1264 C1266 1.348 1_455 S
C1264 C1267 1.356 . S
C1264 O1294 1.325 . S
N1265 C1268 1.314 . S
N1265 C1269 1.279 1_655 S
C1266 C1264 1.348 1_655 S
C1266 C1268 1.353 . S
C1266 H1308 0.929 . S
C1267 C1264 1.356 . S
C1267 C1269 1.358 . S
C1267 H1309 0.930 . S
C1268 N1265 1.314 . S
C1268 C1266 1.353 . S
C1268 H1310 0.930 . S
C1269 N1265 1.279 1_455 S
C1269 C1267 1.358 . S
C1269 H1311 0.930 . S
C1270 C1271 1.348 . S
C1270 C1272 1.356 . S
C1270 O1295 1.325 . S
C1271 C1270 1.348 . S
C1271 C1273 1.353 . S
C1271 H1312 0.929 . S
C1272 C1270 1.356 . S
C1272 C1274 1.358 . S
C1272 H1313 0.930 . S
C1273 C1271 1.353 . S
C1273 N1275 1.314 . S
C1273 H1314 0.930 . S
C1274 C1272 1.358 . S
C1274 N1275 1.279 . S
C1274 H1315 0.930 . S
N1275 C1273 1.314 . S
N1275 C1274 1.279 . S
C1276 C1278 1.353 . S
C1276 N1279 1.314 . S
C1276 H1282 0.930 . S
C1277 N1279 1.279 1_655 S
C1277 C1280 1.358 . S
C1277 H1283 0.930 . S
C1278 C1276 1.353 . S
C1278 C1281 1.348 . S
C1278 H1316 0.929 . S
N1279 Li1234 1.990 . S
N1279 C1276 1.314 . S
N1279 C1277 1.279 1_455 S
C1280 C1277 1.358 . S
C1280 C1281 1.356 1_655 S
C1280 H1317 0.930 . S
C1281 C1278 1.348 . S
C1281 C1280 1.356 1_455 S
H1282 C1276 0.930 . S
H1283 C1277 0.930 . S
C1284 N1285 1.314 . S
C1284 C1286 1.353 . S
C1284 H1290 0.930 . S
N1285 Li1235 1.990 . S
N1285 C1284 1.314 . S
N1285 C1288 1.279 . S
C1286 C1284 1.353 . S
C1286 C1289 1.348 . S
C1286 H1318 0.929 . S
C1287 C1288 1.358 . S
C1287 C1289 1.356 . S
C1287 H1319 0.930 . S
C1288 N1285 1.279 . S
C1288 C1287 1.358 . S
C1288 H1291 0.930 . S
C1289 C1286 1.348 . S
C1289 C1287 1.356 . S
H1290 C1284 0.930 . S
H1291 C1288 0.930 . S
O1292 Li1232 1.956 . S
O1292 Li1233 1.970 . S
O1292 Li1234 1.961 . S
O1292 C1236 1.325 . S
O1293 Li1232 1.970 . S
O1293 Li1233 1.956 . S
O1293 Li1235 1.961 1_455 S
O1293 C1242 1.325 . S
O1294 Li1232 1.961 . S
O1294 Li1234 1.956 . S
O1294 Li1235 1.970 1_455 S
O1294 C1264 1.325 . S
O1295 Li1233 1.961 1_655 S
O1295 Li1234 1.970 1_655 S
O1295 Li1235 1.956 . S
O1295 C1270 1.325 . S
H1296 C1238 0.929 . S
H1297 C1239 0.930 . S
H1298 C1240 0.930 . S
H1299 C1241 0.930 . S
H1300 C1243 0.930 1_655 S
H1301 C1245 0.929 . S
H1302 C1246 0.933 1_655 S
H1303 C1247 0.930 . S
H1304 C1250 0.930 . S
H1305 C1253 0.929 . S
H1306 C1258 0.929 . S
H1307 C1259 0.930 . S
H1308 C1266 0.929 . S
H1309 C1267 0.930 . S
H1310 C1268 0.930 . S
H1311 C1269 0.930 . S
H1312 C1271 0.929 . S
H1313 C1272 0.930 . S
H1314 C1273 0.930 . S
H1315 C1274 0.930 . S
H1316 C1278 0.929 . S
H1317 C1280 0.930 . S
H1318 C1286 0.929 . S
H1319 C1287 0.930 . S
Li1320 N1337 1.990 . S
Li1320 O1380 1.956 . S
Li1320 O1381 1.970 . S
Li1320 O1382 1.961 . S
Li1321 N1345 1.990 . S
Li1321 O1380 1.970 . S
Li1321 O1381 1.956 . S
Li1321 O1383 1.961 1_545 S
Li1322 N1367 1.990 . S
Li1322 O1380 1.961 . S
Li1322 O1382 1.956 . S
Li1322 O1383 1.970 1_545 S
Li1323 N1373 1.990 . S
Li1323 O1381 1.961 1_565 S
Li1323 O1382 1.970 1_565 S
Li1323 O1383 1.956 . S
C1324 C1326 1.348 . S
C1324 C1327 1.356 . S
C1324 O1380 1.325 . S
N1325 C1328 1.314 . S
N1325 C1329 1.279 . S
C1326 C1324 1.348 . S
C1326 C1328 1.353 . S
C1326 H1384 0.929 . S
C1327 C1324 1.356 . S
C1327 C1329 1.358 . S
C1327 H1385 0.930 . S
C1328 N1325 1.314 . S
C1328 C1326 1.353 . S
C1328 H1386 0.930 . S
C1329 N1325 1.279 . S
C1329 C1327 1.358 . S
C1329 H1387 0.930 . S
C1330 C1333 1.348 . S
C1330 C1334 1.353 . S
C1330 O1381 1.325 . S
C1331 N1332 1.279 . S
C1331 C1334 1.358 . S
C1331 H1388 0.930 1_545 S
N1332 C1331 1.279 . S
N1332 C1335 1.314 . S
C1333 C1330 1.348 . S
C1333 C1335 1.353 . S
C1333 H1389 0.929 . S
C1334 C1330 1.353 . S
C1334 C1331 1.358 . S
C1334 H1390 0.933 1_545 S
C1335 N1332 1.314 . S
C1335 C1333 1.353 . S
C1335 H1391 0.930 . S
C1336 N1337 1.314 . S
C1336 C1341 1.353 . S
C1336 H1342 0.930 . S
N1337 Li1320 1.990 . S
N1337 C1336 1.314 . S
N1337 C1339 1.279 . S
C1338 C1339 1.358 . S
C1338 C1340 1.356 . S
C1338 H1392 0.930 . S
C1339 N1337 1.279 . S
C1339 C1338 1.358 . S
C1339 H1343 0.930 . S
C1340 C1338 1.356 . S
C1340 C1341 1.348 . S
C1341 C1336 1.353 . S
C1341 C1340 1.348 . S
C1341 H1393 0.929 . S
H1342 C1336 0.930 . S
H1343 C1339 0.930 . S
C1344 N1345 1.314 . S
C1344 C1346 1.353 . S
C1344 H1350 0.930 . S
N1345 Li1321 1.990 . S
N1345 C1344 1.314 . S
N1345 C1348 1.279 . S
C1346 C1344 1.353 . S
C1346 C1349 1.348 . S
C1346 H1394 0.929 . S
C1347 C1348 1.358 . S
C1347 C1349 1.356 . S
C1347 H1395 0.930 . S
C1348 N1345 1.279 . S
C1348 C1347 1.358 . S
C1348 H1351 0.930 . S
C1349 C1346 1.348 . S
C1349 C1347 1.356 . S
H1350 C1344 0.930 . S
H1351 C1348 0.930 . S
C1352 C1354 1.348 1_545 S
C1352 C1355 1.356 . S
C1352 O1382 1.325 . S
N1353 C1356 1.314 . S
N1353 C1357 1.279 1_565 S
C1354 C1352 1.348 1_565 S
C1354 C1356 1.353 . S
C1354 H1396 0.929 . S
C1355 C1352 1.356 . S
C1355 C1357 1.358 . S
C1355 H1397 0.930 . S
C1356 N1353 1.314 . S
C1356 C1354 1.353 . S
C1356 H1398 0.930 . S
C1357 N1353 1.279 1_545 S
C1357 C1355 1.358 . S
C1357 H1399 0.930 . S
C1358 C1359 1.348 . S
C1358 C1360 1.356 . S
C1358 O1383 1.325 . S
C1359 C1358 1.348 . S
C1359 C1361 1.353 . S
C1359 H1400 0.929 . S
C1360 C1358 1.356 . S
C1360 C1362 1.358 . S
C1360 H1401 0.930 . S
C1361 C1359 1.353 . S
C1361 N1363 1.314 . S
C1361 H1402 0.930 . S
C1362 C1360 1.358 . S
C1362 N1363 1.279 . S
C1362 H1403 0.930 . S
N1363 C1361 1.314 . S
N1363 C1362 1.279 . S
C1364 C1366 1.353 . S
C1364 N1367 1.314 . S
C1364 H1370 0.930 . S
C1365 N1367 1.279 1_565 S
C1365 C1368 1.358 . S
C1365 H1371 0.930 . S
C1366 C1364 1.353 . S
C1366 C1369 1.348 . S
C1366 H1404 0.929 . S
N1367 Li1322 1.990 . S
N1367 C1364 1.314 . S
N1367 C1365 1.279 1_545 S
C1368 C1365 1.358 . S
C1368 C1369 1.356 1_565 S
C1368 H1405 0.930 . S
C1369 C1366 1.348 . S
C1369 C1368 1.356 1_545 S
H1370 C1364 0.930 . S
H1371 C1365 0.930 . S
C1372 N1373 1.314 . S
C1372 C1374 1.353 . S
C1372 H1378 0.930 . S
N1373 Li1323 1.990 . S
N1373 C1372 1.314 . S
N1373 C1376 1.279 . S
C1374 C1372 1.353 . S
C1374 C1377 1.348 . S
C1374 H1406 0.929 . S
C1375 C1376 1.358 . S
C1375 C1377 1.356 . S
C1375 H1407 0.930 . S
C1376 N1373 1.279 . S
C1376 C1375 1.358 . S
C1376 H1379 0.930 . S
C1377 C1374 1.348 . S
C1377 C1375 1.356 . S
H1378 C1372 0.930 . S
H1379 C1376 0.930 . S
O1380 Li1320 1.956 . S
O1380 Li1321 1.970 . S
O1380 Li1322 1.961 . S
O1380 C1324 1.325 . S
O1381 Li1320 1.970 . S
O1381 Li1321 1.956 . S
O1381 Li1323 1.961 1_545 S
O1381 C1330 1.325 . S
O1382 Li1320 1.961 . S
O1382 Li1322 1.956 . S
O1382 Li1323 1.970 1_545 S
O1382 C1352 1.325 . S
O1383 Li1321 1.961 1_565 S
O1383 Li1322 1.970 1_565 S
O1383 Li1323 1.956 . S
O1383 C1358 1.325 . S
H1384 C1326 0.929 . S
H1385 C1327 0.930 . S
H1386 C1328 0.930 . S
H1387 C1329 0.930 . S
H1388 C1331 0.930 1_565 S
H1389 C1333 0.929 . S
H1390 C1334 0.933 1_565 S
H1391 C1335 0.930 . S
H1392 C1338 0.930 . S
H1393 C1341 0.929 . S
H1394 C1346 0.929 . S
H1395 C1347 0.930 . S
H1396 C1354 0.929 . S
H1397 C1355 0.930 . S
H1398 C1356 0.930 . S
H1399 C1357 0.930 . S
H1400 C1359 0.929 . S
H1401 C1360 0.930 . S
H1402 C1361 0.930 . S
H1403 C1362 0.930 . S
H1404 C1366 0.929 . S
H1405 C1368 0.930 . S
H1406 C1374 0.929 . S
H1407 C1375 0.930 . S
C1408 C1409 1.369 . S
C1408 C1410 1.419 . S
C1408 H1412 0.930 . S
C1409 C1408 1.369 . S
C1409 C1418 1.429 . S
C1410 C1408 1.419 . S
C1410 C1411 1.363 . S
C1410 H1413 0.929 . S
C1411 C1410 1.363 . S
C1411 C1417 1.428 . S
H1412 C1408 0.930 . S
H1413 C1410 0.929 . S
S1414 N1415 1.613 . S
S1414 N1416 1.610 . S
N1415 S1414 1.613 . S
N1415 C1418 1.350 . S
N1416 S1414 1.610 . S
N1416 C1417 1.351 . S
C1417 C1411 1.428 . S
C1417 N1416 1.351 . S
C1417 C1418 1.434 . S
C1418 C1409 1.429 . S
C1418 N1415 1.350 . S
C1418 C1417 1.434 . S
C1419 C1420 1.369 . S
C1419 C1421 1.419 . S
C1419 H1423 0.930 . S
C1420 C1419 1.369 . S
C1420 C1429 1.429 . S
C1421 C1419 1.419 . S
C1421 C1422 1.363 . S
C1421 H1424 0.929 . S
C1422 C1421 1.363 . S
C1422 C1428 1.428 . S
H1423 C1419 0.930 . S
H1424 C1421 0.929 . S
S1425 N1426 1.613 . S
S1425 N1427 1.610 . S
N1426 S1425 1.613 . S
N1426 C1429 1.350 . S
N1427 S1425 1.610 . S
N1427 C1428 1.351 . S
C1428 C1422 1.428 . S
C1428 N1427 1.351 . S
C1428 C1429 1.434 . S
C1429 C1420 1.429 . S
C1429 N1426 1.350 . S
C1429 C1428 1.434 . S
C1430 C1431 1.369 . S
C1430 C1432 1.419 . S
C1430 H1434 0.930 . S
C1431 C1430 1.369 . S
C1431 C1440 1.429 . S
C1432 C1430 1.419 . S
C1432 C1433 1.363 . S
C1432 H1435 0.929 . S
C1433 C1432 1.363 . S
C1433 C1439 1.428 . S
H1434 C1430 0.930 . S
H1435 C1432 0.929 . S
S1436 N1437 1.613 . S
S1436 N1438 1.610 . S
N1437 S1436 1.613 . S
N1437 C1440 1.350 . S
N1438 S1436 1.610 . S
N1438 C1439 1.351 . S
C1439 C1433 1.428 . S
C1439 N1438 1.351 . S
C1439 C1440 1.434 . S
C1440 C1431 1.429 . S
C1440 N1437 1.350 . S
C1440 C1439 1.434 . S
C1441 C1442 1.369 . S
C1441 C1443 1.419 . S
C1441 H1445 0.930 . S
C1442 C1441 1.369 . S
C1442 C1451 1.429 . S
C1443 C1441 1.419 . S
C1443 C1444 1.363 . S
C1443 H1446 0.929 . S
C1444 C1443 1.363 . S
C1444 C1450 1.428 . S
H1445 C1441 0.930 . S
H1446 C1443 0.929 . S
S1447 N1448 1.613 . S
S1447 N1449 1.610 . S
N1448 S1447 1.613 . S
N1448 C1451 1.350 . S
N1449 S1447 1.610 . S
N1449 C1450 1.351 . S
C1450 C1444 1.428 . S
C1450 N1449 1.351 . S
C1450 C1451 1.434 . S
C1451 C1442 1.429 . S
C1451 N1448 1.350 . S
C1451 C1450 1.434 . S
C1452 C1453 1.369 . S
C1452 C1454 1.419 . S
C1452 H1456 0.930 . S
C1453 C1452 1.369 . S
C1453 C1462 1.429 . S
C1454 C1452 1.419 . S
C1454 C1455 1.363 . S
C1454 H1457 0.929 . S
C1455 C1454 1.363 . S
C1455 C1461 1.428 . S
H1456 C1452 0.930 . S
H1457 C1454 0.929 . S
S1458 N1459 1.613 . S
S1458 N1460 1.610 . S
N1459 S1458 1.613 . S
N1459 C1462 1.350 . S
N1460 S1458 1.610 . S
N1460 C1461 1.351 . S
C1461 C1455 1.428 . S
C1461 N1460 1.351 . S
C1461 C1462 1.434 . S
C1462 C1453 1.429 . S
C1462 N1459 1.350 . S
C1462 C1461 1.434 . S
C1463 C1464 1.369 . S
C1463 C1465 1.419 . S
C1463 H1467 0.930 . S
C1464 C1463 1.369 . S
C1464 C1473 1.429 . S
C1465 C1463 1.419 . S
C1465 C1466 1.363 . S
C1465 H1468 0.929 . S
C1466 C1465 1.363 . S
C1466 C1472 1.428 . S
H1467 C1463 0.930 . S
H1468 C1465 0.929 . S
S1469 N1470 1.613 . S
S1469 N1471 1.610 . S
N1470 S1469 1.613 . S
N1470 C1473 1.350 . S
N1471 S1469 1.610 . S
N1471 C1472 1.351 . S
C1472 C1466 1.428 . S
C1472 N1471 1.351 . S
C1472 C1473 1.434 . S
C1473 C1464 1.429 . S
C1473 N1470 1.350 . S
C1473 C1472 1.434 . S
C1474 C1475 1.369 . S
C1474 C1476 1.419 . S
C1474 H1478 0.930 . S
C1475 C1474 1.369 . S
C1475 C1484 1.429 . S
C1476 C1474 1.419 . S
C1476 C1477 1.363 . S
C1476 H1479 0.929 . S
C1477 C1476 1.363 . S
C1477 C1483 1.428 . S
H1478 C1474 0.930 . S
H1479 C1476 0.929 . S
S1480 N1481 1.613 . S
S1480 N1482 1.610 . S
N1481 S1480 1.613 . S
N1481 C1484 1.350 . S
N1482 S1480 1.610 . S
N1482 C1483 1.351 . S
C1483 C1477 1.428 . S
C1483 N1482 1.351 . S
C1483 C1484 1.434 . S
C1484 C1475 1.429 . S
C1484 N1481 1.350 . S
C1484 C1483 1.434 . S
C1485 C1486 1.369 . S
C1485 C1487 1.419 . S
C1485 H1489 0.930 . S
C1486 C1485 1.369 . S
C1486 C1495 1.429 . S
C1487 C1485 1.419 . S
C1487 C1488 1.363 . S
C1487 H1490 0.929 . S
C1488 C1487 1.363 . S
C1488 C1494 1.428 . S
H1489 C1485 0.930 . S
H1490 C1487 0.929 . S
S1491 N1492 1.613 . S
S1491 N1493 1.610 . S
N1492 S1491 1.613 . S
N1492 C1495 1.350 . S
N1493 S1491 1.610 . S
N1493 C1494 1.351 . S
C1494 C1488 1.428 . S
C1494 N1493 1.351 . S
C1494 C1495 1.434 . S
C1495 C1486 1.429 . S
C1495 N1492 1.350 . S
C1495 C1494 1.434 . S
C1496 C1497 1.369 . S
C1496 C1498 1.419 . S
C1496 H1500 0.930 . S
C1497 C1496 1.369 . S
C1497 C1506 1.429 . S
C1498 C1496 1.419 . S
C1498 C1499 1.363 . S
C1498 H1501 0.929 . S
C1499 C1498 1.363 . S
C1499 C1505 1.428 . S
H1500 C1496 0.930 . S
H1501 C1498 0.929 . S
S1502 N1503 1.613 . S
S1502 N1504 1.610 . S
N1503 S1502 1.613 . S
N1503 C1506 1.350 . S
N1504 S1502 1.610 . S
N1504 C1505 1.351 . S
C1505 C1499 1.428 . S
C1505 N1504 1.351 . S
C1505 C1506 1.434 . S
C1506 C1497 1.429 . S
C1506 N1503 1.350 . S
C1506 C1505 1.434 . S
C1507 C1508 1.369 . S
C1507 C1509 1.419 . S
C1507 H1511 0.930 . S
C1508 C1507 1.369 . S
C1508 C1517 1.429 . S
C1509 C1507 1.419 . S
C1509 C1510 1.363 . S
C1509 H1512 0.929 . S
C1510 C1509 1.363 . S
C1510 C1516 1.428 . S
H1511 C1507 0.930 . S
H1512 C1509 0.929 . S
S1513 N1514 1.613 . S
S1513 N1515 1.610 . S
N1514 S1513 1.613 . S
N1514 C1517 1.350 . S
N1515 S1513 1.610 . S
N1515 C1516 1.351 . S
C1516 C1510 1.428 . S
C1516 N1515 1.351 . S
C1516 C1517 1.434 . S
C1517 C1508 1.429 . S
C1517 N1514 1.350 . S
C1517 C1516 1.434 . S
C1518 C1519 1.369 . S
C1518 C1520 1.419 . S
C1518 H1522 0.930 . S
C1519 C1518 1.369 . S
C1519 C1528 1.429 . S
C1520 C1518 1.419 . S
C1520 C1521 1.363 . S
C1520 H1523 0.929 . S
C1521 C1520 1.363 . S
C1521 C1527 1.428 . S
H1522 C1518 0.930 . S
H1523 C1520 0.929 . S
S1524 N1525 1.613 . S
S1524 N1526 1.610 . S
N1525 S1524 1.613 . S
N1525 C1528 1.350 . S
N1526 S1524 1.610 . S
N1526 C1527 1.351 . S
C1527 C1521 1.428 . S
C1527 N1526 1.351 . S
C1527 C1528 1.434 . S
C1528 C1519 1.429 . S
C1528 N1525 1.350 . S
C1528 C1527 1.434 . S
C1529 C1530 1.369 . S
C1529 C1531 1.419 . S
C1529 H1533 0.930 . S
C1530 C1529 1.369 . S
C1530 C1539 1.429 . S
C1531 C1529 1.419 . S
C1531 C1532 1.363 . S
C1531 H1534 0.929 . S
C1532 C1531 1.363 . S
C1532 C1538 1.428 . S
H1533 C1529 0.930 . S
H1534 C1531 0.929 . S
S1535 N1536 1.613 . S
S1535 N1537 1.610 . S
N1536 S1535 1.613 . S
N1536 C1539 1.350 . S
N1537 S1535 1.610 . S
N1537 C1538 1.351 . S
C1538 C1532 1.428 . S
C1538 N1537 1.351 . S
C1538 C1539 1.434 . S
C1539 C1530 1.429 . S
C1539 N1536 1.350 . S
C1539 C1538 1.434 . S
C1540 C1541 1.369 . S
C1540 C1542 1.419 . S
C1540 H1544 0.930 . S
C1541 C1540 1.369 . S
C1541 C1550 1.429 . S
C1542 C1540 1.419 . S
C1542 C1543 1.363 . S
C1542 H1545 0.929 . S
C1543 C1542 1.363 . S
C1543 C1549 1.428 . S
H1544 C1540 0.930 . S
H1545 C1542 0.929 . S
S1546 N1547 1.613 . S
S1546 N1548 1.610 . S
N1547 S1546 1.613 . S
N1547 C1550 1.350 . S
N1548 S1546 1.610 . S
N1548 C1549 1.351 . S
C1549 C1543 1.428 . S
C1549 N1548 1.351 . S
C1549 C1550 1.434 . S
C1550 C1541 1.429 . S
C1550 N1547 1.350 . S
C1550 C1549 1.434 . S
C1551 C1552 1.369 . S
C1551 C1553 1.419 . S
C1551 H1555 0.930 . S
C1552 C1551 1.369 . S
C1552 C1561 1.429 . S
C1553 C1551 1.419 . S
C1553 C1554 1.363 . S
C1553 H1556 0.929 . S
C1554 C1553 1.363 . S
C1554 C1560 1.428 . S
H1555 C1551 0.930 . S
H1556 C1553 0.929 . S
S1557 N1558 1.613 . S
S1557 N1559 1.610 . S
N1558 S1557 1.613 . S
N1558 C1561 1.350 . S
N1559 S1557 1.610 . S
N1559 C1560 1.351 . S
C1560 C1554 1.428 . S
C1560 N1559 1.351 . S
C1560 C1561 1.434 . S
C1561 C1552 1.429 . S
C1561 N1558 1.350 . S
C1561 C1560 1.434 . S
C1562 C1563 1.369 . S
C1562 C1564 1.419 . S
C1562 H1566 0.930 . S
C1563 C1562 1.369 . S
C1563 C1572 1.429 . S
C1564 C1562 1.419 . S
C1564 C1565 1.363 . S
C1564 H1567 0.929 . S
C1565 C1564 1.363 . S
C1565 C1571 1.428 . S
H1566 C1562 0.930 . S
H1567 C1564 0.929 . S
S1568 N1569 1.613 . S
S1568 N1570 1.610 . S
N1569 S1568 1.613 . S
N1569 C1572 1.350 . S
N1570 S1568 1.610 . S
N1570 C1571 1.351 . S
C1571 C1565 1.428 . S
C1571 N1570 1.351 . S
C1571 C1572 1.434 . S
C1572 C1563 1.429 . S
C1572 N1569 1.350 . S
C1572 C1571 1.434 . S
C1573 C1574 1.369 . S
C1573 C1575 1.419 . S
C1573 H1577 0.930 . S
C1574 C1573 1.369 . S
C1574 C1583 1.429 . S
C1575 C1573 1.419 . S
C1575 C1576 1.363 . S
C1575 H1578 0.929 . S
C1576 C1575 1.363 . S
C1576 C1582 1.428 . S
H1577 C1573 0.930 . S
H1578 C1575 0.929 . S
S1579 N1580 1.613 . S
S1579 N1581 1.610 . S
N1580 S1579 1.613 . S
N1580 C1583 1.350 . S
N1581 S1579 1.610 . S
N1581 C1582 1.351 . S
C1582 C1576 1.428 . S
C1582 N1581 1.351 . S
C1582 C1583 1.434 . S
C1583 C1574 1.429 . S
C1583 N1580 1.350 . S
C1583 C1582 1.434 . S
C1584 C1585 1.369 . S
C1584 C1586 1.419 . S
C1584 H1588 0.930 . S
C1585 C1584 1.369 . S
C1585 C1594 1.429 . S
C1586 C1584 1.419 . S
C1586 C1587 1.363 . S
C1586 H1589 0.929 . S
C1587 C1586 1.363 . S
C1587 C1593 1.428 . S
H1588 C1584 0.930 . S
H1589 C1586 0.929 . S
S1590 N1591 1.613 . S
S1590 N1592 1.610 . S
N1591 S1590 1.613 . S
N1591 C1594 1.350 . S
N1592 S1590 1.610 . S
N1592 C1593 1.351 . S
C1593 C1587 1.428 . S
C1593 N1592 1.351 . S
C1593 C1594 1.434 . S
C1594 C1585 1.429 . S
C1594 N1591 1.350 . S
C1594 C1593 1.434 . S
C1595 C1596 1.369 . S
C1595 C1597 1.419 . S
C1595 H1599 0.930 . S
C1596 C1595 1.369 . S
C1596 C1605 1.429 . S
C1597 C1595 1.419 . S
C1597 C1598 1.363 . S
C1597 H1600 0.929 . S
C1598 C1597 1.363 . S
C1598 C1604 1.428 . S
H1599 C1595 0.930 . S
H1600 C1597 0.929 . S
S1601 N1602 1.613 . S
S1601 N1603 1.610 . S
N1602 S1601 1.613 . S
N1602 C1605 1.350 . S
N1603 S1601 1.610 . S
N1603 C1604 1.351 . S
C1604 C1598 1.428 . S
C1604 N1603 1.351 . S
C1604 C1605 1.434 . S
C1605 C1596 1.429 . S
C1605 N1602 1.350 . S
C1605 C1604 1.434 . S
C1606 C1607 1.369 . S
C1606 C1608 1.419 . S
C1606 H1610 0.930 . S
C1607 C1606 1.369 . S
C1607 C1616 1.429 . S
C1608 C1606 1.419 . S
C1608 C1609 1.363 . S
C1608 H1611 0.929 . S
C1609 C1608 1.363 . S
C1609 C1615 1.428 . S
H1610 C1606 0.930 . S
H1611 C1608 0.929 . S
S1612 N1613 1.613 . S
S1612 N1614 1.610 . S
N1613 S1612 1.613 . S
N1613 C1616 1.350 . S
N1614 S1612 1.610 . S
N1614 C1615 1.351 . S
C1615 C1609 1.428 . S
C1615 N1614 1.351 . S
C1615 C1616 1.434 . S
C1616 C1607 1.429 . S
C1616 N1613 1.350 . S
C1616 C1615 1.434 . S
C1617 C1618 1.369 . S
C1617 C1619 1.419 . S
C1617 H1621 0.930 . S
C1618 C1617 1.369 . S
C1618 C1627 1.429 . S
C1619 C1617 1.419 . S
C1619 C1620 1.363 . S
C1619 H1622 0.929 . S
C1620 C1619 1.363 . S
C1620 C1626 1.428 . S
H1621 C1617 0.930 . S
H1622 C1619 0.929 . S
S1623 N1624 1.613 . S
S1623 N1625 1.610 . S
N1624 S1623 1.613 . S
N1624 C1627 1.350 . S
N1625 S1623 1.610 . S
N1625 C1626 1.351 . S
C1626 C1620 1.428 . S
C1626 N1625 1.351 . S
C1626 C1627 1.434 . S
C1627 C1618 1.429 . S
C1627 N1624 1.350 . S
C1627 C1626 1.434 . S
C1628 C1629 1.369 . S
C1628 C1630 1.419 . S
C1628 H1632 0.930 . S
C1629 C1628 1.369 . S
C1629 C1638 1.429 . S
C1630 C1628 1.419 . S
C1630 C1631 1.363 . S
C1630 H1633 0.929 . S
C1631 C1630 1.363 . S
C1631 C1637 1.428 . S
H1632 C1628 0.930 . S
H1633 C1630 0.929 . S
S1634 N1635 1.613 . S
S1634 N1636 1.610 . S
N1635 S1634 1.613 . S
N1635 C1638 1.350 . S
N1636 S1634 1.610 . S
N1636 C1637 1.351 . S
C1637 C1631 1.428 . S
C1637 N1636 1.351 . S
C1637 C1638 1.434 . S
C1638 C1629 1.429 . S
C1638 N1635 1.350 . S
C1638 C1637 1.434 . S
C1639 C1640 1.369 . S
C1639 C1641 1.419 . S
C1639 H1643 0.930 . S
C1640 C1639 1.369 . S
C1640 C1649 1.429 . S
C1641 C1639 1.419 . S
C1641 C1642 1.363 . S
C1641 H1644 0.929 . S
C1642 C1641 1.363 . S
C1642 C1648 1.428 . S
H1643 C1639 0.930 . S
H1644 C1641 0.929 . S
S1645 N1646 1.613 . S
S1645 N1647 1.610 . S
N1646 S1645 1.613 . S
N1646 C1649 1.350 . S
N1647 S1645 1.610 . S
N1647 C1648 1.351 . S
C1648 C1642 1.428 . S
C1648 N1647 1.351 . S
C1648 C1649 1.434 . S
C1649 C1640 1.429 . S
C1649 N1646 1.350 . S
C1649 C1648 1.434 . S
C1650 C1651 1.369 . S
C1650 C1652 1.419 . S
C1650 H1654 0.930 . S
C1651 C1650 1.369 . S
C1651 C1660 1.429 . S
C1652 C1650 1.419 . S
C1652 C1653 1.363 . S
C1652 H1655 0.929 . S
C1653 C1652 1.363 . S
C1653 C1659 1.428 . S
H1654 C1650 0.930 . S
H1655 C1652 0.929 . S
S1656 N1657 1.613 . S
S1656 N1658 1.610 . S
N1657 S1656 1.613 . S
N1657 C1660 1.350 . S
N1658 S1656 1.610 . S
N1658 C1659 1.351 . S
C1659 C1653 1.428 . S
C1659 N1658 1.351 . S
C1659 C1660 1.434 . S
C1660 C1651 1.429 . S
C1660 N1657 1.350 . S
C1660 C1659 1.434 . S
C1661 C1662 1.369 . S
C1661 C1663 1.419 . S
C1661 H1665 0.930 . S
C1662 C1661 1.369 . S
C1662 C1671 1.429 . S
C1663 C1661 1.419 . S
C1663 C1664 1.363 . S
C1663 H1666 0.929 . S
C1664 C1663 1.363 . S
C1664 C1670 1.428 . S
H1665 C1661 0.930 . S
H1666 C1663 0.929 . S
S1667 N1668 1.613 . S
S1667 N1669 1.610 . S
N1668 S1667 1.613 . S
N1668 C1671 1.350 . S
N1669 S1667 1.610 . S
N1669 C1670 1.351 . S
C1670 C1664 1.428 . S
C1670 N1669 1.351 . S
C1670 C1671 1.434 . S
C1671 C1662 1.429 . S
C1671 N1668 1.350 . S
C1671 C1670 1.434 . S
C1672 C1673 1.369 . S
C1672 C1674 1.419 1_554 S
C1672 H1676 0.930 . S
C1673 C1672 1.369 . S
C1673 C1682 1.429 . S
C1674 C1672 1.419 1_556 S
C1674 C1675 1.363 . S
C1674 H1677 0.929 . S
C1675 C1674 1.363 . S
C1675 C1681 1.428 . S
H1676 C1672 0.930 . S
H1677 C1674 0.929 . S
S1678 N1679 1.613 . S
S1678 N1680 1.610 1_554 S
N1679 S1678 1.613 . S
N1679 C1682 1.350 . S
N1680 S1678 1.610 1_556 S
N1680 C1681 1.351 . S
C1681 C1675 1.428 . S
C1681 N1680 1.351 . S
C1681 C1682 1.434 1_556 S
C1682 C1673 1.429 . S
C1682 N1679 1.350 . S
C1682 C1681 1.434 1_554 S
C1683 C1684 1.369 . S
C1683 C1685 1.419 . S
C1683 H1687 0.930 . S
C1684 C1683 1.369 . S
C1684 C1693 1.429 . S
C1685 C1683 1.419 . S
C1685 C1686 1.363 . S
C1685 H1688 0.929 . S
C1686 C1685 1.363 . S
C1686 C1692 1.428 . S
H1687 C1683 0.930 . S
H1688 C1685 0.929 . S
S1689 N1690 1.613 . S
S1689 N1691 1.610 . S
N1690 S1689 1.613 . S
N1690 C1693 1.350 . S
N1691 S1689 1.610 . S
N1691 C1692 1.351 . S
C1692 C1686 1.428 . S
C1692 N1691 1.351 . S
C1692 C1693 1.434 . S
C1693 C1684 1.429 . S
C1693 N1690 1.350 . S
C1693 C1692 1.434 . S
C1694 C1695 1.369 . S
C1694 C1696 1.419 1_554 S
C1694 H1698 0.930 . S
C1695 C1694 1.369 . S
C1695 C1704 1.429 1_655 S
C1696 C1694 1.419 1_556 S
C1696 C1697 1.363 . S
C1696 H1699 0.929 . S
C1697 C1696 1.363 . S
C1697 C1703 1.428 1_655 S
H1698 C1694 0.930 . S
H1699 C1696 0.929 . S
S1700 N1701 1.613 1_556 S
S1700 N1702 1.610 . S
N1701 S1700 1.613 1_554 S
N1701 C1704 1.350 . S
N1702 S1700 1.610 . S
N1702 C1703 1.351 . S
C1703 C1697 1.428 1_455 S
C1703 N1702 1.351 . S
C1703 C1704 1.434 1_556 S
C1704 C1695 1.429 1_455 S
C1704 N1701 1.350 . S
C1704 C1703 1.434 1_554 S
C1705 C1706 1.369 . S
C1705 C1707 1.419 . S
C1705 H1709 0.930 . S
C1706 C1705 1.369 . S
C1706 C1715 1.429 1_565 S
C1707 C1705 1.419 . S
C1707 C1708 1.363 . S
C1707 H1710 0.929 . S
C1708 C1707 1.363 . S
C1708 C1714 1.428 . S
H1709 C1705 0.930 . S
H1710 C1707 0.929 . S
S1711 N1712 1.613 . S
S1711 N1713 1.610 . S
N1712 S1711 1.613 . S
N1712 C1715 1.349 . S
N1713 S1711 1.610 . S
N1713 C1714 1.351 1_545 S
C1714 C1708 1.428 . S
C1714 N1713 1.351 1_565 S
C1714 C1715 1.434 1_565 S
C1715 C1706 1.429 1_545 S
C1715 N1712 1.349 . S
C1715 C1714 1.434 1_545 S
C1716 C1717 1.369 . S
C1716 C1718 1.419 1_556 S
C1716 H1720 0.930 . S
C1717 C1716 1.369 . S
C1717 C1726 1.429 . S
C1718 C1716 1.419 1_554 S
C1718 C1719 1.363 . S
C1718 H1721 0.929 . S
C1719 C1718 1.363 . S
C1719 C1725 1.428 . S
H1720 C1716 0.930 . S
H1721 C1718 0.929 . S
S1722 N1723 1.613 . S
S1722 N1724 1.610 1_556 S
N1723 S1722 1.613 . S
N1723 C1726 1.350 . S
N1724 S1722 1.610 1_554 S
N1724 C1725 1.351 . S
C1725 C1719 1.428 . S
C1725 N1724 1.351 . S
C1725 C1726 1.434 1_554 S
C1726 C1717 1.429 . S
C1726 N1723 1.350 . S
C1726 C1725 1.434 1_556 S
C1727 C1728 1.369 . S
C1727 C1729 1.419 . S
C1727 H1731 0.930 . S
C1728 C1727 1.369 . S
C1728 C1737 1.429 . S
C1729 C1727 1.419 . S
C1729 C1730 1.363 . S
C1729 H1732 0.929 . S
C1730 C1729 1.363 . S
C1730 C1736 1.428 . S
H1731 C1727 0.930 . S
H1732 C1729 0.929 . S
S1733 N1734 1.613 . S
S1733 N1735 1.610 . S
N1734 S1733 1.613 . S
N1734 C1737 1.350 . S
N1735 S1733 1.610 . S
N1735 C1736 1.351 . S
C1736 C1730 1.428 . S
C1736 N1735 1.351 . S
C1736 C1737 1.434 . S
C1737 C1728 1.429 . S
C1737 N1734 1.350 . S
C1737 C1736 1.434 . S
C1738 C1739 1.369 1_655 S
C1738 C1740 1.419 1_554 S
C1738 H1742 0.930 . S
C1739 C1738 1.369 1_455 S
C1739 C1748 1.429 . S
C1740 C1738 1.419 1_556 S
C1740 C1741 1.363 1_655 S
C1740 H1743 0.929 . S
C1741 C1740 1.363 1_455 S
C1741 C1747 1.428 . S
H1742 C1738 0.930 . S
H1743 C1740 0.929 . S
S1744 N1745 1.613 . S
S1744 N1746 1.610 1_554 S
N1745 S1744 1.613 . S
N1745 C1748 1.350 . S
N1746 S1744 1.610 1_556 S
N1746 C1747 1.351 . S
C1747 C1741 1.428 . S
C1747 N1746 1.351 . S
C1747 C1748 1.434 1_556 S
C1748 C1739 1.429 . S
C1748 N1745 1.350 . S
C1748 C1747 1.434 1_554 S
C1749 C1750 1.366 1_565 S
C1749 C1751 1.419 . S
C1749 H1753 0.930 . S
C1750 C1749 1.366 1_545 S
C1750 C1759 1.432 . S
C1751 C1749 1.419 . S
C1751 C1752 1.361 1_565 S
C1751 H1754 0.929 . S
C1752 C1751 1.361 1_545 S
C1752 C1758 1.430 . S
H1753 C1749 0.930 . S
H1754 C1751 0.929 . S
S1755 N1756 1.613 . S
S1755 N1757 1.610 . S
N1756 S1755 1.613 . S
N1756 C1759 1.350 . S
N1757 S1755 1.610 . S
N1757 C1758 1.351 . S
C1758 C1752 1.430 . S
C1758 N1757 1.351 . S
C1758 C1759 1.434 . S
C1759 C1750 1.432 . S
C1759 N1756 1.350 . S
C1759 C1758 1.434 . S
C1409 C57 1.187 . S
C1411 C665 1.185 . S
C1420 C117 1.180 . S
C1422 C372 1.180 . S
C1431 C205 1.186 . S
C1433 C469 1.187 . S
C1442 C293 1.188 . S
C1444 C577 1.185 . S
C1453 C733 1.184 . S
C1455 C1377 1.188 . S
C1464 C1105 1.184 . S
C1466 C812 1.189 . S
C1475 C909 1.185 . S
C1477 C1193 1.190 . S
C1486 C997 1.191 . S
C1488 C1289 1.191 . S
C1497 C29 1.499 . S
C1499 C849 1.594 . S
C1508 C145 1.488 . S
C1510 C929 1.598 . S
C1519 C1017 1.597 . S
C1521 C233 1.489 . S
C1530 C321 1.489 . S
C1532 C753 1.598 . S
C1541 C401 1.495 . S
C1543 C1340 1.594 . S
C1552 C1085 1.598 . S
C1554 C497 1.488 . S
C1563 C1173 1.599 . S
C1565 C548 1.490 . S
C1574 C1252 1.598 . S
C1576 C636 1.488 . S
C1585 C108 1.601 . S
C1587 C761 1.493 . S
C1596 C196 1.602 . S
C1598 C841 1.495 . S
C1607 C937 1.501 . S
C1609 C284 1.598 . S
C1618 C49 1.600 . S
C1620 C1025 1.496 . S
C1629 C1076 1.496 . S
C1631 C673 1.601 . S
C1640 C1164 1.494 . S
C1642 C381 1.600 . S
C1651 C460 1.603 . S
C1653 C1261 1.491 . S
C1662 C585 1.597 . S
C1664 C1349 1.499 . S
C1673 C20 1.593 . S
C1675 C409 1.596 . S
C1684 C489 1.592 . S
C1686 C137 1.596 . S
C1695 C225 1.596 . S
C1697 C557 1.593 . S
C1706 C645 1.593 . S
C1708 C313 1.596 . S
C1717 C724 1.588 . S
C1719 C1113 1.591 . S
C1728 C1201 1.591 . S
C1730 C821 1.589 . S
C1739 C1281 1.588 . S
C1741 C900 1.590 . S
C1750 C1369 1.590 . S
C1752 C988 1.588 . S
