# Generated by pormake.
# Topology wjh, (4)-cn, num edge types: 1
# Building blocks:
#     Node 0, Type 0, BuildingBlock: QUQFOY_clean_sbu_1, # of connection points: 4
#     Node 1, Type 0, BuildingBlock: QUQFOY_clean_sbu_1, # of connection points: 4
#     Node 2, Type 0, BuildingBlock: QUQFOY_clean_sbu_1, # of connection points: 4
#     Node 3, Type 0, BuildingBlock: QUQFOY_clean_sbu_1, # of connection points: 4
#     Node 4, Type 0, BuildingBlock: QUQFOY_clean_sbu_1, # of connection points: 4
#     Node 5, Type 0, BuildingBlock: QUQFOY_clean_sbu_1, # of connection points: 4
#     Node 6, Type 0, BuildingBlock: QUQFOY_clean_sbu_1, # of connection points: 4
#     Node 7, Type 0, BuildingBlock: QUQFOY_clean_sbu_1, # of connection points: 4
#     Node 8, Type 0, BuildingBlock: QUQFOY_clean_sbu_1, # of connection points: 4
#     Node 9, Type 0, BuildingBlock: QUQFOY_clean_sbu_1, # of connection points: 4
#     Node 10, Type 0, BuildingBlock: QUQFOY_clean_sbu_1, # of connection points: 4
#     Node 11, Type 0, BuildingBlock: QUQFOY_clean_sbu_1, # of connection points: 4
#     Edge 12, Type (0, 0), BuildingBlock: CIFDUS_clean_linker_0, # of connection points: 2
#     Edge 13, Type (0, 0), BuildingBlock: CIFDUS_clean_linker_0, # of connection points: 2
#     Edge 14, Type (0, 0), BuildingBlock: CIFDUS_clean_linker_0, # of connection points: 2
#     Edge 15, Type (0, 0), BuildingBlock: CIFDUS_clean_linker_0, # of connection points: 2
#     Edge 16, Type (0, 0), BuildingBlock: CIFDUS_clean_linker_0, # of connection points: 2
#     Edge 17, Type (0, 0), BuildingBlock: CIFDUS_clean_linker_0, # of connection points: 2
#     Edge 18, Type (0, 0), BuildingBlock: CIFDUS_clean_linker_0, # of connection points: 2
#     Edge 19, Type (0, 0), BuildingBlock: CIFDUS_clean_linker_0, # of connection points: 2
#     Edge 20, Type (0, 0), BuildingBlock: CIFDUS_clean_linker_0, # of connection points: 2
#     Edge 21, Type (0, 0), BuildingBlock: CIFDUS_clean_linker_0, # of connection points: 2
#     Edge 22, Type (0, 0), BuildingBlock: CIFDUS_clean_linker_0, # of connection points: 2
#     Edge 23, Type (0, 0), BuildingBlock: CIFDUS_clean_linker_0, # of connection points: 2
#     Edge 24, Type (0, 0), BuildingBlock: CIFDUS_clean_linker_0, # of connection points: 2
#     Edge 25, Type (0, 0), BuildingBlock: CIFDUS_clean_linker_0, # of connection points: 2
#     Edge 26, Type (0, 0), BuildingBlock: CIFDUS_clean_linker_0, # of connection points: 2
#     Edge 27, Type (0, 0), BuildingBlock: CIFDUS_clean_linker_0, # of connection points: 2
#     Edge 28, Type (0, 0), BuildingBlock: CIFDUS_clean_linker_0, # of connection points: 2
#     Edge 29, Type (0, 0), BuildingBlock: CIFDUS_clean_linker_0, # of connection points: 2
#     Edge 30, Type (0, 0), BuildingBlock: CIFDUS_clean_linker_0, # of connection points: 2
#     Edge 31, Type (0, 0), BuildingBlock: CIFDUS_clean_linker_0, # of connection points: 2
#     Edge 32, Type (0, 0), BuildingBlock: CIFDUS_clean_linker_0, # of connection points: 2
#     Edge 33, Type (0, 0), BuildingBlock: CIFDUS_clean_linker_0, # of connection points: 2
#     Edge 34, Type (0, 0), BuildingBlock: CIFDUS_clean_linker_0, # of connection points: 2
#     Edge 35, Type (0, 0), BuildingBlock: CIFDUS_clean_linker_0, # of connection points: 2
# Relax obj value: 0.025
# Max RMSD: 0.075
# Mean RMSD: 0.075
data_MOF--net-wjh--node1-QUQFOY_clean_sbu_1--edge1-CIFDUS_clean_linker_0
_symmetry_space_group_name_H-M    P1
_symmetry_Int_Tables_number       1
_symmetry_cell_setting            triclinic
loop_
_symmetry_equiv_pos_as_xyz
'x, y, z'
_cell_length_a     55.352257
_cell_length_b     55.019407
_cell_length_c     24.746844
_cell_angle_alpha  90.079315
_cell_angle_beta   90.0746
_cell_angle_gamma 119.53361
loop_
_atom_site_label
_atom_site_type_symbol
_atom_site_fract_x
_atom_site_fract_y
_atom_site_fract_z
_atom_type_partial_charge
O0 O 0.52322 0.10555 0.06832 0.0
Cd1 Cd 0.54936 0.14816 0.06749 0.0
Cd2 Cd 0.50508 0.14395 0.1219 0.0
O3 O 0.48385 0.10403 0.08949 0.0
O4 O 0.58028 0.1521 0.02018 0.0
O5 O 0.55225 0.16825 0.99738 0.0
C6 C 0.57251 0.16399 0.98487 0.0
C7 C 0.49234 0.17816 0.11787 0.0
C8 C 0.49704 0.0917 0.07454 0.0
C9 C 0.55698 0.16125 0.18446 0.0
O10 O 0.53066 0.14947 0.18651 0.0
O11 O 0.56926 0.16613 0.13912 0.0
O12 O 0.47845 0.15611 0.14695 0.0
O13 O 0.51212 0.17974 0.08768 0.0
O14 O 0.41298 0.50629 0.21493 0.0
Cd15 Cd 0.4011 0.53638 0.20745 0.0
Cd16 Cd 0.35788 0.49655 0.26695 0.0
O17 O 0.37422 0.47109 0.24667 0.0
O18 O 0.42502 0.56191 0.1487 0.0
O19 O 0.37953 0.53534 0.14078 0.0
C20 C 0.40299 0.55301 0.11936 0.0
C21 C 0.31071 0.48213 0.26424 0.0
C22 C 0.39886 0.48081 0.22908 0.0
C23 C 0.39692 0.55176 0.3206 0.0
O24 O 0.37844 0.5263 0.32558 0.0
O25 O 0.40753 0.56135 0.27459 0.0
O26 O 0.32095 0.47341 0.30134 0.0
O27 O 0.32699 0.49754 0.22613 0.0
O28 O 0.91242 0.4098 0.37276 0.0
Cd29 Cd 0.87107 0.39921 0.36787 0.0
Cd30 Cd 0.86857 0.35479 0.42792 0.0
O31 O 0.90946 0.37091 0.40464 0.0
O32 O 0.8717 0.42827 0.31872 0.0
O33 O 0.85033 0.38346 0.2976 0.0
C34 C 0.85745 0.40881 0.28436 0.0
C35 C 0.83654 0.30732 0.42885 0.0
C36 C 0.92387 0.3955 0.38605 0.0
C37 C 0.85302 0.39431 0.48246 0.0
O38 O 0.86033 0.37589 0.48723 0.0
O39 O 0.85337 0.40477 0.43656 0.0
O40 O 0.85629 0.31826 0.46398 0.0
O41 O 0.8362 0.32301 0.39034 0.0
O42 O 0.49227 0.90548 0.56367 0.0
Cd43 Cd 0.46552 0.86314 0.55611 0.0
Cd44 Cd 0.50765 0.86393 0.61332 0.0
O45 O 0.53022 0.90568 0.59195 0.0
O46 O 0.43889 0.86001 0.49802 0.0
O47 O 0.46843 0.84423 0.48844 0.0
C48 C 0.44959 0.84877 0.46761 0.0
C49 C 0.52332 0.83182 0.60718 0.0
C50 C 0.51792 0.91878 0.57604 0.0
C51 C 0.45288 0.84529 0.66978 0.0
O52 O 0.47883 0.85442 0.67362 0.0
O53 O 0.44192 0.84394 0.62385 0.0
O54 O 0.53242 0.85076 0.64434 0.0
O55 O 0.50683 0.83243 0.57082 0.0
O56 O 0.5987 0.50133 0.69634 0.0
Cd57 Cd 0.6084 0.46951 0.69339 0.0
Cd58 Cd 0.65678 0.5145 0.74493 0.0
O59 O 0.639 0.53787 0.71898 0.0
O60 O 0.58035 0.44103 0.64249 0.0
O61 O 0.62503 0.46479 0.62352 0.0
C62 C 0.6001 0.44687 0.60853 0.0
C63 C 0.70468 0.53339 0.75632 0.0
C64 C 0.6137 0.52747 0.70473 0.0
C65 C 0.618 0.46158 0.80891 0.0
O66 O 0.63723 0.48683 0.80667 0.0
O67 O 0.60453 0.44903 0.7665 0.0
O68 O 0.69063 0.54109 0.78614 0.0
O69 O 0.69207 0.51688 0.71621 0.0
O70 O 0.10026 0.59879 0.87734 0.0
Cd71 Cd 0.14154 0.6091 0.87359 0.0
Cd72 Cd 0.14446 0.6535 0.93341 0.0
O73 O 0.10358 0.63775 0.90994 0.0
O74 O 0.14104 0.58031 0.82383 0.0
O75 O 0.16279 0.62529 0.80431 0.0
C76 C 0.15563 0.6 0.79033 0.0
C77 C 0.17693 0.70079 0.93232 0.0
C78 C 0.08902 0.61327 0.89067 0.0
C79 C 0.15955 0.61373 0.98817 0.0
O80 O 0.15271 0.63251 0.99294 0.0
O81 O 0.1588 0.60302 0.94231 0.0
O82 O 0.15757 0.69054 0.96816 0.0
O83 O 0.17669 0.68447 0.89444 0.0
O84 O 0.91024 0.49243 0.88645 0.0
Cd85 Cd 0.86824 0.46422 0.88994 0.0
Cd86 Cd 0.87135 0.50906 0.82498 0.0
O87 O 0.91193 0.53041 0.85251 0.0
O88 O 0.86707 0.43483 0.93893 0.0
O89 O 0.84819 0.46068 0.96052 0.0
C90 C 0.85404 0.44146 0.97366 0.0
C91 C 0.84384 0.52962 0.80984 0.0
C92 C 0.92403 0.51805 0.87315 0.0
C93 C 0.85211 0.45191 0.7745 0.0
O94 O 0.86191 0.47803 0.76906 0.0
O95 O 0.85016 0.44135 0.82098 0.0
O96 O 0.86491 0.53528 0.77969 0.0
O97 O 0.83984 0.51423 0.85195 0.0
O98 O 0.41708 0.91418 0.07159 0.0
Cd99 Cd 0.40511 0.87221 0.0773 0.0
Cd100 Cd 0.36199 0.86936 0.01752 0.0
O101 O 0.37828 0.91079 0.03939 0.0
O102 O 0.4282 0.86935 0.13665 0.0
O103 O 0.38266 0.85107 0.14234 0.0
C104 C 0.4058 0.8561 0.16467 0.0
C105 C 0.31469 0.83761 0.01817 0.0
C106 C 0.40277 0.92554 0.05782 0.0
C107 C 0.40093 0.85286 0.96388 0.0
O108 O 0.38243 0.85997 0.95881 0.0
O109 O 0.41166 0.85393 1.0099 0.0
O110 O 0.32547 0.85682 0.98191 0.0
O111 O 0.33051 0.83762 0.05665 0.0
O112 O 0.52241 0.42471 0.2122 0.0
Cd113 Cd 0.54965 0.40931 0.20973 0.0
Cd114 Cd 0.50358 0.3662 0.17302 0.0
O115 O 0.48288 0.38504 0.20758 0.0
O116 O 0.58165 0.43544 0.257 0.0
O117 O 0.55264 0.39173 0.27954 0.0
C118 C 0.57321 0.41584 0.29262 0.0
C119 C 0.49893 0.32257 0.18789 0.0
C120 C 0.49603 0.41138 0.2148 0.0
C121 C 0.54792 0.39688 0.09228 0.0
O122 O 0.52197 0.38206 0.10009 0.0
O123 O 0.56432 0.4075 0.13253 0.0
O124 O 0.4801 0.32511 0.1616 0.0
O125 O 0.51874 0.34461 0.21063 0.0
O126 O 0.10219 0.51838 0.39102 0.0
Cd127 Cd 0.14429 0.54614 0.39546 0.0
Cd128 Cd 0.14275 0.50266 0.33702 0.0
O129 O 0.10155 0.48042 0.35998 0.0
O130 O 0.14621 0.57576 0.44477 0.0
O131 O 0.16426 0.54905 0.46578 0.0
C132 C 0.159 0.56865 0.47926 0.0
C133 C 0.17391 0.48598 0.34153 0.0
C134 C 0.08883 0.49263 0.37823 0.0
C135 C 0.16163 0.55767 0.28078 0.0
O136 O 0.15235 0.53155 0.27654 0.0
O137 O 0.16282 0.56858 0.32664 0.0
O138 O 0.15469 0.47706 0.30516 0.0
O139 O 0.17412 0.50288 0.37813 0.0
O140 O 0.59912 0.09625 0.5882 0.0
Cd141 Cd 0.60858 0.13757 0.59171 0.0
Cd142 Cd 0.65262 0.14089 0.52816 0.0
O143 O 0.63677 0.09957 0.55016 0.0
O144 O 0.58023 0.13683 0.64243 0.0
O145 O 0.62516 0.16002 0.66014 0.0
C146 C 0.60007 0.15248 0.67488 0.0
C147 C 0.70002 0.17241 0.52491 0.0
C148 C 0.6131 0.08495 0.57192 0.0
C149 C 0.61156 0.15547 0.47708 0.0
O150 O 0.63099 0.14975 0.47121 0.0
O151 O 0.60083 0.15377 0.5232 0.0
O152 O 0.68822 0.15287 0.48937 0.0
O153 O 0.68522 0.17291 0.56481 0.0
O154 O 0.49275 0.58719 0.72091 0.0
Cd155 Cd 0.46594 0.60299 0.72832 0.0
Cd156 Cd 0.50785 0.64381 0.6697 0.0
O157 O 0.53026 0.6241 0.68991 0.0
O158 O 0.43936 0.57986 0.78644 0.0
O159 O 0.46893 0.62494 0.7959 0.0
C160 C 0.45002 0.6018 0.81671 0.0
C161 C 0.52389 0.69154 0.67593 0.0
C162 C 0.51819 0.59906 0.70713 0.0
C163 C 0.45252 0.60844 0.61466 0.0
O164 O 0.47843 0.62501 0.61014 0.0
O165 O 0.44203 0.59878 0.66074 0.0
O166 O 0.53257 0.68144 0.63841 0.0
O167 O 0.5077 0.67472 0.71266 0.0
H168 H 0.53895 0.16038 0.28684 0.0
H169 H 0.61121 0.17448 0.19574 0.0
H170 H 0.63558 0.17671 0.27941 0.0
H171 H 0.6345 0.16961 0.37727 0.0
H172 H 0.56218 0.15519 0.46847 0.0
H173 H 0.53985 0.1585 0.38581 0.0
C174 C 0.56015 0.16426 0.28529 0.0
C175 C 0.57307 0.16681 0.23509 0.0
C176 C 0.57397 0.1653 0.33349 0.0
C177 C 0.60069 0.17228 0.23381 0.0
C178 C 0.61463 0.17345 0.28164 0.0
C179 C 0.61397 0.1675 0.37919 0.0
C180 C 0.59985 0.16172 0.42881 0.0
C181 C 0.60117 0.16918 0.33154 0.0
C182 C 0.57346 0.15951 0.43076 0.0
C183 C 0.56062 0.16127 0.38347 0.0
H184 H 0.37504 0.53961 0.42169 0.0
H185 H 0.44342 0.60316 0.33042 0.0
H186 H 0.46511 0.62816 0.41397 0.0
H187 H 0.46725 0.62895 0.51296 0.0
H188 H 0.39944 0.56478 0.60435 0.0
H189 H 0.37475 0.54326 0.52047 0.0
C190 C 0.39453 0.55912 0.41991 0.0
C191 C 0.40779 0.56925 0.36984 0.0
C192 C 0.40707 0.57318 0.46813 0.0
C193 C 0.43282 0.59478 0.36834 0.0
C194 C 0.4453 0.60903 0.41615 0.0
C195 C 0.44689 0.61046 0.51467 0.0
C196 C 0.43542 0.59825 0.56494 0.0
C197 C 0.43302 0.59796 0.46631 0.0
C198 C 0.40885 0.57454 0.5663 0.0
C199 C 0.39477 0.56213 0.51831 0.0
H200 H 0.8453 0.46559 0.67271 0.0
H201 H 0.84443 0.39894 0.76611 0.0
H202 H 0.84155 0.3736 0.68301 0.0
H203 H 0.84493 0.37318 0.58417 0.0
H204 H 0.84673 0.44042 0.49112 0.0
H205 H 0.8433 0.46258 0.574 0.0
C206 C 0.84414 0.44535 0.67498 0.0
C207 C 0.84556 0.43439 0.72547 0.0
C208 C 0.84288 0.43112 0.62715 0.0
C209 C 0.84353 0.40792 0.72775 0.0
C210 C 0.84203 0.39349 0.68024 0.0
C211 C 0.84423 0.39252 0.58192 0.0
C212 C 0.84657 0.40536 0.53156 0.0
C213 C 0.84259 0.40533 0.62974 0.0
C214 C 0.84518 0.43017 0.52933 0.0
C215 C 0.84332 0.44293 0.57673 0.0
H216 H 0.46875 0.8413 0.77177 0.0
H217 H 0.40003 0.8368 0.68083 0.0
H218 H 0.37652 0.83589 0.7649 0.0
H219 H 0.37808 0.84193 0.86336 0.0
H220 H 0.44733 0.84748 0.95408 0.0
H221 H 0.46791 0.84217 0.87077 0.0
C222 C 0.44844 0.83972 0.77023 0.0
C223 C 0.43637 0.83954 0.71996 0.0
C224 C 0.43526 0.83967 0.81866 0.0
C225 C 0.40988 0.8371 0.71886 0.0
C226 C 0.39648 0.83674 0.76696 0.0
C227 C 0.39754 0.84167 0.86507 0.0
C228 C 0.41136 0.84555 0.91487 0.0
C229 C 0.4094 0.83892 0.81697 0.0
C230 C 0.43632 0.84471 0.91635 0.0
C231 C 0.44816 0.84178 0.86867 0.0
H232 H 0.60066 0.43252 0.0569 0.0
H233 H 0.51827 0.37409 0.99993 0.0
H234 H 0.53327 0.38656 0.90677 0.0
H235 H 0.56866 0.4172 0.84123 0.0
H236 H 0.65066 0.47642 0.89852 0.0
H237 H 0.63706 0.46025 0.99088 0.0
C238 C 0.58608 0.42227 0.02412 0.0
C239 C 0.55831 0.40264 0.03575 0.0
C240 C 0.59474 0.42975 0.97026 0.0
C241 C 0.53974 0.38951 0.99249 0.0
C242 C 0.54828 0.39661 0.93896 0.0
C243 C 0.58368 0.42615 0.87378 0.0
C244 C 0.61054 0.44813 0.86287 0.0
C245 C 0.57557 0.41715 0.92732 0.0
C246 C 0.62972 0.45963 0.90572 0.0
C247 C 0.62197 0.45045 0.95872 0.0
H248 H 0.16673 0.54252 0.17885 0.0
H249 H 0.17099 0.61115 0.27135 0.0
H250 H 0.17375 0.63604 0.188 0.0
H251 H 0.16931 0.63573 0.08939 0.0
H252 H 0.16419 0.56668 0.99702 0.0
H253 H 0.16771 0.5447 0.07998 0.0
C254 C 0.16863 0.56309 0.18086 0.0
C255 C 0.16817 0.57473 0.23123 0.0
C256 C 0.16981 0.57711 0.13284 0.0
C257 C 0.17111 0.6016 0.23312 0.0
C258 C 0.17255 0.61581 0.18546 0.0
C259 C 0.16929 0.61603 0.0873 0.0
C260 C 0.166 0.60264 0.03716 0.0
C261 C 0.17102 0.60335 0.13515 0.0
C262 C 0.16649 0.57735 0.0351 0.0
C263 C 0.1684 0.5647 0.08254 0.0
H264 H 0.45893 0.27152 0.15112 0.0
H265 H 0.54216 0.31481 0.21629 0.0
H266 H 0.5478 0.27445 0.19704 0.0
H267 H 0.53003 0.22762 0.15799 0.0
H268 H 0.4459 0.18241 0.09946 0.0
H269 H 0.4397 0.22285 0.11885 0.0
C270 C 0.47815 0.27196 0.16184 0.0
C271 C 0.50012 0.29626 0.18497 0.0
C272 C 0.48127 0.24855 0.15076 0.0
C273 C 0.52484 0.29641 0.19874 0.0
C274 C 0.52821 0.27341 0.18728 0.0
C275 C 0.51047 0.22685 0.14904 0.0
C276 C 0.48867 0.20261 0.12602 0.0
C277 C 0.50679 0.24962 0.16239 0.0
C278 C 0.46306 0.20121 0.11621 0.0
C279 C 0.45951 0.22421 0.12764 0.0
H280 H 0.28257 0.47672 0.35641 0.0
H281 H 0.27548 0.47821 0.18306 0.0
H282 H 0.23023 0.47571 0.19234 0.0
H283 H 0.19496 0.47743 0.24989 0.0
H284 H 0.2052 0.48218 0.42302 0.0
H285 H 0.2469 0.47765 0.41399 0.0
C286 C 0.27085 0.47596 0.32067 0.0
C287 C 0.28213 0.47737 0.26908 0.0
C288 C 0.24556 0.47583 0.32646 0.0
C289 C 0.2671 0.47704 0.22312 0.0
C290 C 0.24131 0.47568 0.22846 0.0
C291 C 0.20604 0.47692 0.28567 0.0
C292 C 0.19695 0.47984 0.33711 0.0
C293 C 0.23063 0.47566 0.27994 0.0
C294 C 0.21181 0.47984 0.38309 0.0
C295 C 0.23564 0.47733 0.37788 0.0
H296 H 0.72581 0.19175 0.4294 0.0
H297 H 0.73783 0.20504 0.60139 0.0
H298 H 0.7833 0.2463 0.58611 0.0
H299 H 0.81744 0.28075 0.52376 0.0
H300 H 0.80255 0.27066 0.35196 0.0
H301 H 0.76042 0.22575 0.36699 0.0
C302 C 0.73864 0.2034 0.46353 0.0
C303 C 0.72868 0.19531 0.51649 0.0
C304 C 0.76409 0.22772 0.45431 0.0
C305 C 0.74516 0.21088 0.56034 0.0
C306 C 0.77108 0.23446 0.55157 0.0
C307 C 0.80524 0.26844 0.48956 0.0
C308 C 0.81314 0.27878 0.43677 0.0
C309 C 0.78047 0.24338 0.49873 0.0
C310 C 0.79687 0.263 0.39289 0.0
C311 C 0.77279 0.23741 0.40152 0.0
H312 H 0.53089 0.80889 0.69745 0.0
H313 H 0.52686 0.80113 0.52385 0.0
H314 H 0.53054 0.75862 0.53021 0.0
H315 H 0.5305 0.72151 0.5855 0.0
H316 H 0.52826 0.72613 0.75921 0.0
H317 H 0.53169 0.77218 0.75275 0.0
C318 C 0.53137 0.79816 0.66099 0.0
C319 C 0.52889 0.80821 0.61018 0.0
C320 C 0.53215 0.7731 0.66517 0.0
C321 C 0.52885 0.7938 0.56332 0.0
C322 C 0.53088 0.7695 0.567 0.0
C323 C 0.53132 0.73288 0.62195 0.0
C324 C 0.52943 0.72065 0.67282 0.0
C325 C 0.53194 0.75864 0.61775 0.0
C326 C 0.52982 0.73523 0.71969 0.0
C327 C 0.53169 0.76148 0.71594 0.0
H328 H 0.7467 0.53683 0.69327 0.0
H329 H 0.72518 0.54292 0.85824 0.0
H330 H 0.76751 0.54425 0.89018 0.0
H331 H 0.80815 0.53843 0.87179 0.0
H332 H 0.83164 0.53602 0.70664 0.0
H333 H 0.79146 0.53889 0.67431 0.0
C334 C 0.75161 0.539 0.73606 0.0
C335 C 0.73275 0.53951 0.77329 0.0
C336 C 0.77629 0.54022 0.75424 0.0
C337 C 0.73943 0.54258 0.82867 0.0
C338 C 0.76355 0.54314 0.84708 0.0
C339 C 0.80472 0.53909 0.82879 0.0
C340 C 0.82265 0.53675 0.79173 0.0
C341 C 0.78177 0.54121 0.81035 0.0
C342 C 0.81816 0.53789 0.73605 0.0
C343 C 0.79506 0.53933 0.71745 0.0
H344 H 0.19784 0.72865 0.02569 0.0
H345 H 0.20935 0.73634 0.853 0.0
H346 H 0.25154 0.78162 0.86484 0.0
H347 H 0.28711 0.81672 0.92463 0.0
H348 H 0.27863 0.80588 0.09741 0.0
H349 H 0.23307 0.76414 0.08548 0.0
C350 C 0.20933 0.74052 0.99063 0.0
C351 C 0.20045 0.72941 0.93849 0.0
C352 C 0.23415 0.7658 0.99795 0.0
C353 C 0.2158 0.7446 0.89344 0.0
C354 C 0.23991 0.7704 0.90026 0.0
C355 C 0.27503 0.80549 0.95968 0.0
C356 C 0.28599 0.81442 1.01187 0.0
C357 C 0.24956 0.7809 0.95235 0.0
C358 C 0.27049 0.79939 0.05692 0.0
C359 C 0.24453 0.77554 0.05006 0.0
H360 H 0.63163 0.16689 0.76631 0.0
H361 H 0.55373 0.15458 0.70306 0.0
H362 H 0.54 0.16134 0.79306 0.0
H363 H 0.54784 0.1655 0.89115 0.0
H364 H 0.62384 0.17352 0.9556 0.0
H365 H 0.64078 0.17416 0.86413 0.0
C366 C 0.61188 0.16619 0.77217 0.0
C367 C 0.59368 0.16011 0.72819 0.0
C368 C 0.6037 0.1692 0.82445 0.0
C369 C 0.56803 0.15901 0.7364 0.0
C370 C 0.56014 0.16288 0.78786 0.0
C371 C 0.56836 0.16805 0.88507 0.0
C372 C 0.58457 0.16948 0.92998 0.0
C373 C 0.57748 0.16724 0.83243 0.0
C374 C 0.61096 0.17233 0.92158 0.0
C375 C 0.62061 0.17259 0.8693 0.0
H376 H 0.40324 0.56166 0.86537 0.0
H377 H 0.48043 0.63687 0.89862 0.0
H378 H 0.47186 0.6294 0.9957 0.0
H379 H 0.44452 0.5991 0.0711 0.0
H380 H 0.36642 0.52492 0.03795 0.0
H381 H 0.3731 0.53452 0.94104 0.0
C382 C 0.41799 0.57662 0.89387 0.0
C383 C 0.44258 0.59964 0.87476 0.0
C384 C 0.41284 0.57228 0.94969 0.0
C385 C 0.46134 0.619 0.91219 0.0
C386 C 0.45652 0.61465 0.96777 0.0
C387 C 0.42879 0.58523 0.04268 0.0
C388 C 0.40514 0.56115 0.0617 0.0
C389 C 0.43268 0.591 0.98698 0.0
C390 C 0.3848 0.54358 0.02443 0.0
C391 C 0.38868 0.54899 0.96894 0.0
H392 H 0.84931 0.46429 0.06774 0.0
H393 H 0.84666 0.39048 1.00153 0.0
H394 H 0.84394 0.37205 0.09245 0.0
H395 H 0.84737 0.3792 0.19095 0.0
H396 H 0.85429 0.45498 0.25687 0.0
H397 H 0.85005 0.47021 0.16641 0.0
C398 C 0.84756 0.44393 0.07328 0.0
C399 C 0.84818 0.42877 0.02808 0.0
C400 C 0.84706 0.43393 0.1258 0.0
C401 C 0.84631 0.40259 0.03579 0.0
C402 C 0.84482 0.39206 0.08777 0.0
C403 C 0.84743 0.39879 0.18552 0.0
C404 C 0.8512 0.41596 0.23046 0.0
C405 C 0.84594 0.40788 0.13313 0.0
C406 C 0.85157 0.44146 0.22282 0.0
C407 C 0.84917 0.4502 0.17109 0.0
H408 H 0.40341 0.84373 0.41797 0.0
H409 H 0.48011 0.84392 0.38613 0.0
H410 H 0.47242 0.84431 0.28892 0.0
H411 H 0.4462 0.84935 0.21329 0.0
H412 H 0.36862 0.84734 0.24486 0.0
H413 H 0.3742 0.84265 0.34168 0.0
C414 C 0.41823 0.84343 0.38973 0.0
C415 C 0.44245 0.8441 0.40931 0.0
C416 C 0.41361 0.84355 0.33381 0.0
C417 C 0.4613 0.84339 0.3722 0.0
C418 C 0.45699 0.84379 0.31655 0.0
C419 C 0.43034 0.84752 0.24133 0.0
C420 C 0.40719 0.84903 0.22197 0.0
C421 C 0.43359 0.84461 0.29694 0.0
C422 C 0.38664 0.84625 0.25868 0.0
C423 C 0.38989 0.84371 0.31412 0.0
H424 H 0.63105 0.46752 0.5167 0.0
H425 H 0.55428 0.39914 0.57549 0.0
H426 H 0.54069 0.38158 0.48341 0.0
H427 H 0.54855 0.3879 0.38526 0.0
H428 H 0.62353 0.45834 0.32572 0.0
H429 H 0.63994 0.47257 0.41837 0.0
C430 C 0.61157 0.44852 0.50941 0.0
C431 C 0.59374 0.43468 0.5531 0.0
C432 C 0.60344 0.43895 0.45591 0.0
C433 C 0.56839 0.41027 0.54273 0.0
C434 C 0.56056 0.40021 0.48997 0.0
C435 C 0.56873 0.40605 0.39253 0.0
C436 C 0.58482 0.42195 0.34845 0.0
C437 C 0.57763 0.41468 0.44609 0.0
C438 C 0.61072 0.44569 0.35878 0.0
C439 C 0.62008 0.45391 0.41185 0.0
H440 H 0.16375 0.54539 0.57253 0.0
H441 H 0.16711 0.61981 0.50831 0.0
H442 H 0.17008 0.63795 0.5997 0.0
H443 H 0.16638 0.63027 0.69796 0.0
H444 H 0.15872 0.55389 0.7618 0.0
H445 H 0.16303 0.53905 0.67096 0.0
C446 C 0.16572 0.56582 0.57861 0.0
C447 C 0.16517 0.58122 0.53385 0.0
C448 C 0.16635 0.57565 0.63136 0.0
C449 C 0.16737 0.60751 0.54224 0.0
C450 C 0.169 0.61787 0.59448 0.0
C451 C 0.16619 0.61064 0.692 0.0
C452 C 0.16215 0.59317 0.73641 0.0
C453 C 0.1677 0.60178 0.6394 0.0
C454 C 0.16164 0.56763 0.72812 0.0
C455 C 0.16407 0.55911 0.67619 0.0
H456 H 0.44096 0.0545 0.07316 0.0
H457 H 0.52117 0.05946 0.06162 0.0
H458 H 0.49906 0.00893 0.05661 0.0
H459 H 0.45743 0.96323 0.0572 0.0
H460 H 0.37669 0.95691 0.06416 0.0
H461 H 0.3985 0.00795 0.06935 0.0
C462 C 0.45355 0.0445 0.0693 0.0
C463 C 0.48272 0.06089 0.06801 0.0
C464 C 0.44065 0.01515 0.06593 0.0
C465 C 0.4987 0.04753 0.06266 0.0
C466 C 0.4861 0.01854 0.05997 0.0
C467 C 0.44455 0.97297 0.06012 0.0
C468 C 0.41551 0.95631 0.06093 0.0
C469 C 0.45716 1.00216 0.062 0.0
C470 C 0.39913 0.9693 0.06365 0.0
C471 C 0.41159 0.99847 0.06661 0.0
H472 H 0.43969 0.3916 0.21937 0.0
H473 H 0.51905 0.46754 0.22657 0.0
H474 H 0.49592 0.49517 0.23094 0.0
H475 H 0.4537 0.49839 0.22991 0.0
H476 H 0.37377 0.42346 0.22624 0.0
H477 H 0.39658 0.39491 0.22324 0.0
C478 C 0.45189 0.41417 0.22231 0.0
C479 C 0.48113 0.42737 0.22225 0.0
C480 C 0.4384 0.43019 0.22501 0.0
C481 C 0.49656 0.45668 0.22631 0.0
C482 C 0.48337 0.47261 0.22868 0.0
C483 C 0.4412 0.4758 0.22821 0.0
C484 C 0.4121 0.46309 0.22759 0.0
C485 C 0.45438 0.45965 0.2274 0.0
C486 C 0.39624 0.43377 0.22651 0.0
C487 C 0.40927 0.41745 0.22481 0.0
H488 H 0.05265 0.43609 0.37564 0.0
H489 H 0.05587 0.51599 0.38775 0.0
H490 H 1.00552 0.49294 0.38936 0.0
H491 H 0.96059 0.4506 0.38696 0.0
H492 H 0.95586 0.37004 0.38008 0.0
H493 H 1.00672 0.39282 0.37668 0.0
C494 C 0.04229 0.4484 0.37873 0.0
C495 C 0.05811 0.47775 0.38148 0.0
C496 C 0.01306 0.43494 0.38035 0.0
C497 C 0.04434 0.49339 0.38585 0.0
C498 C 0.01547 0.48025 0.38656 0.0
C499 C 0.97062 0.43796 0.38434 0.0
C500 C 0.95448 0.40869 0.38315 0.0
C501 C 0.99966 0.45111 0.38364 0.0
C502 C 0.96786 0.39264 0.38085 0.0
C503 C 0.99691 0.40566 0.37893 0.0
H504 H 0.5741 0.95553 0.57431 0.0
H505 H 0.49421 0.95161 0.57655 0.0
H506 H 0.51672 1.00224 0.57806 0.0
H507 H 0.55856 0.0476 0.57813 0.0
H508 H 0.63897 0.05319 0.57015 0.0
H509 H 0.61684 1.00203 0.57169 0.0
C510 C 0.5617 0.96581 0.57509 0.0
C511 C 0.5325 0.94971 0.57529 0.0
C512 C 0.57482 0.99523 0.57513 0.0
C513 C 0.5167 0.96338 0.57598 0.0
C514 C 0.52953 0.9924 0.57708 0.0
C515 C 0.57133 0.0377 0.57719 0.0
C516 C 0.60036 0.05417 0.57463 0.0
C517 C 0.55851 0.0085 0.57669 0.0
C518 C 0.61654 0.04094 0.57234 0.0
C519 C 0.60389 0.01171 0.57317 0.0
H520 H 0.55901 0.51058 0.71023 0.0
H521 H 0.6391 0.58462 0.69441 0.0
H522 H 0.6168 0.61364 0.6933 0.0
H523 H 0.57414 0.61776 0.69776 0.0
H524 H 0.49485 0.54292 0.71841 0.0
H525 H 0.51733 0.51459 0.71695 0.0
C526 C 0.57165 0.53306 0.70607 0.0
C527 C 0.60065 0.54537 0.70188 0.0
C528 C 0.55882 0.54954 0.70673 0.0
C529 C 0.6167 0.57459 0.69752 0.0
C530 C 0.60396 0.59119 0.69696 0.0
C531 C 0.56184 0.59527 0.70203 0.0
C532 C 0.53281 0.58258 0.70819 0.0
C533 C 0.57498 0.57889 0.70177 0.0
C534 C 0.51721 0.55338 0.71391 0.0
C535 C 0.53002 0.53705 0.71287 0.0
H536 H 0.0517 0.55838 0.89107 0.0
H537 H 0.05781 0.63949 0.8823 0.0
H538 H 0.00706 0.61737 0.87574 0.0
H539 H 0.96082 0.57449 0.87201 0.0
H540 H 0.95618 0.49402 0.88617 0.0
H541 H 1.00644 0.51644 0.8913 0.0
C542 C 0.04199 0.57128 0.88741 0.0
C543 C 0.05848 0.6005 0.88653 0.0
C544 C 0.013 0.55851 0.88487 0.0
C545 C 0.04553 0.61691 0.88288 0.0
C546 C 0.01654 0.60427 0.87912 0.0
C547 C 0.97086 0.56193 0.87634 0.0
C548 C 0.95466 0.53259 0.87858 0.0
C549 C 1.00003 0.57502 0.88004 0.0
C550 C 0.96801 0.51662 0.88459 0.0
C551 C 0.99682 0.5294 0.88733 0.0
loop_
_geom_bond_atom_site_label_1
_geom_bond_atom_site_label_2
_geom_bond_distance
_geom_bond_site_symmetry_2
_ccdc_geom_bond_type
O0 Cd1 2.223 . S
O0 C8 1.315 . S
Cd1 O0 2.223 . S
Cd1 O4 2.297 1_554 S
Cd1 O5 2.439 1_554 S
Cd1 O11 2.240 . S
Cd2 O3 2.240 . S
Cd2 O10 2.223 . S
Cd2 O12 2.297 . S
Cd2 O13 2.439 . S
O3 Cd2 2.240 . S
O3 C8 1.279 . S
O4 Cd1 2.297 1_556 S
O4 C6 1.247 . S
O5 Cd1 2.439 1_556 S
O5 C6 1.208 . S
C6 O4 1.247 . S
C6 O5 1.208 . S
C7 O12 1.247 . S
C7 O13 1.208 . S
C8 O0 1.315 . S
C8 O3 1.279 . S
C9 O10 1.315 . S
C9 O11 1.279 . S
O10 Cd2 2.223 . S
O10 C9 1.315 . S
O11 Cd1 2.240 . S
O11 C9 1.279 . S
O12 Cd2 2.297 . S
O12 C7 1.247 . S
O13 Cd2 2.439 . S
O13 C7 1.208 . S
O14 Cd15 2.223 . S
O14 C22 1.315 . S
Cd15 O14 2.223 . S
Cd15 O18 2.297 . S
Cd15 O19 2.439 . S
Cd15 O25 2.240 . S
Cd16 O17 2.240 . S
Cd16 O24 2.223 . S
Cd16 O26 2.297 . S
Cd16 O27 2.439 . S
O17 Cd16 2.240 . S
O17 C22 1.279 . S
O18 Cd15 2.297 . S
O18 C20 1.247 . S
O19 Cd15 2.439 . S
O19 C20 1.208 . S
C20 O18 1.247 . S
C20 O19 1.208 . S
C21 O26 1.247 . S
C21 O27 1.208 . S
C22 O14 1.315 . S
C22 O17 1.279 . S
C23 O24 1.315 . S
C23 O25 1.279 . S
O24 Cd16 2.223 . S
O24 C23 1.315 . S
O25 Cd15 2.240 . S
O25 C23 1.279 . S
O26 Cd16 2.297 . S
O26 C21 1.247 . S
O27 Cd16 2.439 . S
O27 C21 1.208 . S
O28 Cd29 2.223 . S
O28 C36 1.315 . S
Cd29 O28 2.223 . S
Cd29 O32 2.297 . S
Cd29 O33 2.439 . S
Cd29 O39 2.240 . S
Cd30 O31 2.240 . S
Cd30 O38 2.223 . S
Cd30 O40 2.297 . S
Cd30 O41 2.439 . S
O31 Cd30 2.240 . S
O31 C36 1.279 . S
O32 Cd29 2.297 . S
O32 C34 1.247 . S
O33 Cd29 2.439 . S
O33 C34 1.208 . S
C34 O32 1.247 . S
C34 O33 1.208 . S
C35 O40 1.247 . S
C35 O41 1.208 . S
C36 O28 1.315 . S
C36 O31 1.279 . S
C37 O38 1.315 . S
C37 O39 1.279 . S
O38 Cd30 2.223 . S
O38 C37 1.315 . S
O39 Cd29 2.240 . S
O39 C37 1.279 . S
O40 Cd30 2.297 . S
O40 C35 1.247 . S
O41 Cd30 2.439 . S
O41 C35 1.208 . S
O42 Cd43 2.223 . S
O42 C50 1.315 . S
Cd43 O42 2.223 . S
Cd43 O46 2.297 . S
Cd43 O47 2.439 . S
Cd43 O53 2.240 . S
Cd44 O45 2.240 . S
Cd44 O52 2.223 . S
Cd44 O54 2.297 . S
Cd44 O55 2.439 . S
O45 Cd44 2.240 . S
O45 C50 1.279 . S
O46 Cd43 2.297 . S
O46 C48 1.247 . S
O47 Cd43 2.439 . S
O47 C48 1.208 . S
C48 O46 1.247 . S
C48 O47 1.208 . S
C49 O54 1.247 . S
C49 O55 1.208 . S
C50 O42 1.315 . S
C50 O45 1.279 . S
C51 O52 1.315 . S
C51 O53 1.279 . S
O52 Cd44 2.223 . S
O52 C51 1.315 . S
O53 Cd43 2.240 . S
O53 C51 1.279 . S
O54 Cd44 2.297 . S
O54 C49 1.247 . S
O55 Cd44 2.439 . S
O55 C49 1.208 . S
O56 Cd57 2.223 . S
O56 C64 1.315 . S
Cd57 O56 2.223 . S
Cd57 O60 2.297 . S
Cd57 O61 2.439 . S
Cd57 O67 2.240 . S
Cd58 O59 2.240 . S
Cd58 O66 2.223 . S
Cd58 O68 2.297 . S
Cd58 O69 2.439 . S
O59 Cd58 2.240 . S
O59 C64 1.279 . S
O60 Cd57 2.297 . S
O60 C62 1.247 . S
O61 Cd57 2.439 . S
O61 C62 1.208 . S
C62 O60 1.247 . S
C62 O61 1.208 . S
C63 O68 1.247 . S
C63 O69 1.208 . S
C64 O56 1.315 . S
C64 O59 1.279 . S
C65 O66 1.315 . S
C65 O67 1.279 . S
O66 Cd58 2.223 . S
O66 C65 1.315 . S
O67 Cd57 2.240 . S
O67 C65 1.279 . S
O68 Cd58 2.297 . S
O68 C63 1.247 . S
O69 Cd58 2.439 . S
O69 C63 1.208 . S
O70 Cd71 2.223 . S
O70 C78 1.315 . S
Cd71 O70 2.223 . S
Cd71 O74 2.297 . S
Cd71 O75 2.439 . S
Cd71 O81 2.240 . S
Cd72 O73 2.240 . S
Cd72 O80 2.223 . S
Cd72 O82 2.297 . S
Cd72 O83 2.439 . S
O73 Cd72 2.240 . S
O73 C78 1.279 . S
O74 Cd71 2.297 . S
O74 C76 1.247 . S
O75 Cd71 2.439 . S
O75 C76 1.208 . S
C76 O74 1.247 . S
C76 O75 1.208 . S
C77 O82 1.247 . S
C77 O83 1.208 . S
C78 O70 1.315 . S
C78 O73 1.279 . S
C79 O80 1.315 . S
C79 O81 1.279 . S
O80 Cd72 2.223 . S
O80 C79 1.315 . S
O81 Cd71 2.240 . S
O81 C79 1.279 . S
O82 Cd72 2.297 . S
O82 C77 1.247 . S
O83 Cd72 2.439 . S
O83 C77 1.208 . S
O84 Cd85 2.223 . S
O84 C92 1.315 . S
Cd85 O84 2.223 . S
Cd85 O88 2.297 . S
Cd85 O89 2.439 . S
Cd85 O95 2.240 . S
Cd86 O87 2.240 . S
Cd86 O94 2.223 . S
Cd86 O96 2.297 . S
Cd86 O97 2.439 . S
O87 Cd86 2.240 . S
O87 C92 1.279 . S
O88 Cd85 2.297 . S
O88 C90 1.247 . S
O89 Cd85 2.439 . S
O89 C90 1.208 . S
C90 O88 1.247 . S
C90 O89 1.208 . S
C91 O96 1.247 . S
C91 O97 1.208 . S
C92 O84 1.315 . S
C92 O87 1.279 . S
C93 O94 1.315 . S
C93 O95 1.279 . S
O94 Cd86 2.223 . S
O94 C93 1.315 . S
O95 Cd85 2.240 . S
O95 C93 1.279 . S
O96 Cd86 2.297 . S
O96 C91 1.247 . S
O97 Cd86 2.439 . S
O97 C91 1.208 . S
O98 Cd99 2.223 . S
O98 C106 1.315 . S
Cd99 O98 2.223 . S
Cd99 O102 2.297 . S
Cd99 O103 2.439 . S
Cd99 O109 2.240 1_554 S
Cd100 O101 2.240 1_556 S
Cd100 O108 2.223 . S
Cd100 O110 2.297 . S
Cd100 O111 2.439 1_556 S
O101 Cd100 2.240 1_554 S
O101 C106 1.279 . S
O102 Cd99 2.297 . S
O102 C104 1.247 . S
O103 Cd99 2.439 . S
O103 C104 1.208 . S
C104 O102 1.247 . S
C104 O103 1.208 . S
C105 O110 1.247 . S
C105 O111 1.208 1_556 S
C106 O98 1.315 . S
C106 O101 1.279 . S
C107 O108 1.315 . S
C107 O109 1.279 . S
O108 Cd100 2.223 . S
O108 C107 1.315 . S
O109 Cd99 2.240 1_556 S
O109 C107 1.279 . S
O110 Cd100 2.297 . S
O110 C105 1.247 . S
O111 Cd100 2.439 1_554 S
O111 C105 1.208 1_554 S
O112 Cd113 2.223 . S
O112 C120 1.315 . S
Cd113 O112 2.223 . S
Cd113 O116 2.297 . S
Cd113 O117 2.439 . S
Cd113 O123 2.240 . S
Cd114 O115 2.240 . S
Cd114 O122 2.223 . S
Cd114 O124 2.297 . S
Cd114 O125 2.439 . S
O115 Cd114 2.240 . S
O115 C120 1.279 . S
O116 Cd113 2.297 . S
O116 C118 1.247 . S
O117 Cd113 2.439 . S
O117 C118 1.208 . S
C118 O116 1.247 . S
C118 O117 1.208 . S
C119 O124 1.247 . S
C119 O125 1.208 . S
C120 O112 1.315 . S
C120 O115 1.279 . S
C121 O122 1.315 . S
C121 O123 1.279 . S
O122 Cd114 2.223 . S
O122 C121 1.315 . S
O123 Cd113 2.240 . S
O123 C121 1.279 . S
O124 Cd114 2.297 . S
O124 C119 1.247 . S
O125 Cd114 2.439 . S
O125 C119 1.208 . S
O126 Cd127 2.223 . S
O126 C134 1.315 . S
Cd127 O126 2.223 . S
Cd127 O130 2.297 . S
Cd127 O131 2.439 . S
Cd127 O137 2.240 . S
Cd128 O129 2.240 . S
Cd128 O136 2.223 . S
Cd128 O138 2.297 . S
Cd128 O139 2.439 . S
O129 Cd128 2.240 . S
O129 C134 1.279 . S
O130 Cd127 2.297 . S
O130 C132 1.247 . S
O131 Cd127 2.439 . S
O131 C132 1.208 . S
C132 O130 1.247 . S
C132 O131 1.208 . S
C133 O138 1.247 . S
C133 O139 1.208 . S
C134 O126 1.315 . S
C134 O129 1.279 . S
C135 O136 1.315 . S
C135 O137 1.279 . S
O136 Cd128 2.223 . S
O136 C135 1.315 . S
O137 Cd127 2.240 . S
O137 C135 1.279 . S
O138 Cd128 2.297 . S
O138 C133 1.247 . S
O139 Cd128 2.439 . S
O139 C133 1.208 . S
O140 Cd141 2.223 . S
O140 C148 1.315 . S
Cd141 O140 2.223 . S
Cd141 O144 2.297 . S
Cd141 O145 2.439 . S
Cd141 O151 2.240 . S
Cd142 O143 2.240 . S
Cd142 O150 2.223 . S
Cd142 O152 2.297 . S
Cd142 O153 2.439 . S
O143 Cd142 2.240 . S
O143 C148 1.279 . S
O144 Cd141 2.297 . S
O144 C146 1.247 . S
O145 Cd141 2.439 . S
O145 C146 1.208 . S
C146 O144 1.247 . S
C146 O145 1.208 . S
C147 O152 1.247 . S
C147 O153 1.208 . S
C148 O140 1.315 . S
C148 O143 1.279 . S
C149 O150 1.315 . S
C149 O151 1.279 . S
O150 Cd142 2.223 . S
O150 C149 1.315 . S
O151 Cd141 2.240 . S
O151 C149 1.279 . S
O152 Cd142 2.297 . S
O152 C147 1.247 . S
O153 Cd142 2.439 . S
O153 C147 1.208 . S
O154 Cd155 2.223 . S
O154 C162 1.315 . S
Cd155 O154 2.223 . S
Cd155 O158 2.297 . S
Cd155 O159 2.439 . S
Cd155 O165 2.240 . S
Cd156 O157 2.240 . S
Cd156 O164 2.223 . S
Cd156 O166 2.297 . S
Cd156 O167 2.439 . S
O157 Cd156 2.240 . S
O157 C162 1.279 . S
O158 Cd155 2.297 . S
O158 C160 1.247 . S
O159 Cd155 2.439 . S
O159 C160 1.208 . S
C160 O158 1.247 . S
C160 O159 1.208 . S
C161 O166 1.247 . S
C161 O167 1.208 . S
C162 O154 1.315 . S
C162 O157 1.279 . S
C163 O164 1.315 . S
C163 O165 1.279 . S
O164 Cd156 2.223 . S
O164 C163 1.315 . S
O165 Cd155 2.240 . S
O165 C163 1.279 . S
O166 Cd156 2.297 . S
O166 C161 1.247 . S
O167 Cd156 2.439 . S
O167 C161 1.208 . S
H168 C174 0.930 . S
H169 C177 0.930 . S
H170 C178 0.930 . S
H171 C179 0.930 . S
H172 C182 0.930 . S
H173 C183 0.930 . S
C174 H168 0.930 . S
C174 C175 1.355 . S
C174 C176 1.415 . S
C175 C174 1.355 . S
C175 C177 1.419 . S
C176 C174 1.415 . S
C176 C181 1.425 . S
C176 C183 1.409 . S
C177 H169 0.930 . S
C177 C175 1.419 . S
C177 C178 1.362 . S
C178 H170 0.930 . S
C178 C177 1.362 . S
C178 C181 1.409 . S
C179 H171 0.930 . S
C179 C180 1.355 . S
C179 C181 1.415 . S
C180 C179 1.355 . S
C180 C182 1.419 . S
C181 C176 1.425 . S
C181 C178 1.409 . S
C181 C179 1.415 . S
C182 H172 0.930 . S
C182 C180 1.419 . S
C182 C183 1.362 . S
C183 H173 0.930 . S
C183 C176 1.409 . S
C183 C182 1.362 . S
H184 C190 0.930 . S
H185 C193 0.930 . S
H186 C194 0.930 . S
H187 C195 0.930 . S
H188 C198 0.930 . S
H189 C199 0.930 . S
C190 H184 0.930 . S
C190 C191 1.355 . S
C190 C192 1.415 . S
C191 C190 1.355 . S
C191 C193 1.419 . S
C192 C190 1.415 . S
C192 C197 1.425 . S
C192 C199 1.409 . S
C193 H185 0.930 . S
C193 C191 1.419 . S
C193 C194 1.362 . S
C194 H186 0.930 . S
C194 C193 1.362 . S
C194 C197 1.409 . S
C195 H187 0.930 . S
C195 C196 1.355 . S
C195 C197 1.415 . S
C196 C195 1.355 . S
C196 C198 1.419 . S
C197 C192 1.425 . S
C197 C194 1.409 . S
C197 C195 1.415 . S
C198 H188 0.930 . S
C198 C196 1.419 . S
C198 C199 1.362 . S
C199 H189 0.930 . S
C199 C192 1.409 . S
C199 C198 1.362 . S
H200 C206 0.930 . S
H201 C209 0.930 . S
H202 C210 0.930 . S
H203 C211 0.930 . S
H204 C214 0.930 . S
H205 C215 0.930 . S
C206 H200 0.930 . S
C206 C207 1.355 . S
C206 C208 1.415 . S
C207 C206 1.355 . S
C207 C209 1.419 . S
C208 C206 1.415 . S
C208 C213 1.425 . S
C208 C215 1.409 . S
C209 H201 0.930 . S
C209 C207 1.419 . S
C209 C210 1.362 . S
C210 H202 0.930 . S
C210 C209 1.362 . S
C210 C213 1.409 . S
C211 H203 0.930 . S
C211 C212 1.355 . S
C211 C213 1.415 . S
C212 C211 1.355 . S
C212 C214 1.419 . S
C213 C208 1.425 . S
C213 C210 1.409 . S
C213 C211 1.415 . S
C214 H204 0.930 . S
C214 C212 1.419 . S
C214 C215 1.362 . S
C215 H205 0.930 . S
C215 C208 1.409 . S
C215 C214 1.362 . S
H216 C222 0.930 . S
H217 C225 0.930 . S
H218 C226 0.930 . S
H219 C227 0.930 . S
H220 C230 0.930 . S
H221 C231 0.930 . S
C222 H216 0.930 . S
C222 C223 1.355 . S
C222 C224 1.415 . S
C223 C222 1.355 . S
C223 C225 1.419 . S
C224 C222 1.415 . S
C224 C229 1.425 . S
C224 C231 1.409 . S
C225 H217 0.930 . S
C225 C223 1.419 . S
C225 C226 1.362 . S
C226 H218 0.930 . S
C226 C225 1.362 . S
C226 C229 1.409 . S
C227 H219 0.930 . S
C227 C228 1.355 . S
C227 C229 1.415 . S
C228 C227 1.355 . S
C228 C230 1.419 . S
C229 C224 1.425 . S
C229 C226 1.409 . S
C229 C227 1.415 . S
C230 H220 0.930 . S
C230 C228 1.419 . S
C230 C231 1.362 . S
C231 H221 0.930 . S
C231 C224 1.409 . S
C231 C230 1.362 . S
H232 C238 0.930 . S
H233 C241 0.930 . S
H234 C242 0.930 . S
H235 C243 0.930 . S
H236 C246 0.930 . S
H237 C247 0.930 . S
C238 H232 0.930 . S
C238 C239 1.355 . S
C238 C240 1.415 1_554 S
C239 C238 1.355 . S
C239 C241 1.419 . S
C240 C238 1.415 1_556 S
C240 C245 1.425 . S
C240 C247 1.409 . S
C241 H233 0.930 . S
C241 C239 1.419 . S
C241 C242 1.362 1_554 S
C242 H234 0.930 . S
C242 C241 1.362 1_556 S
C242 C245 1.409 . S
C243 H235 0.930 . S
C243 C244 1.355 . S
C243 C245 1.415 . S
C244 C243 1.355 . S
C244 C246 1.419 . S
C245 C240 1.425 . S
C245 C242 1.409 . S
C245 C243 1.415 . S
C246 H236 0.930 . S
C246 C244 1.419 . S
C246 C247 1.362 . S
C247 H237 0.930 . S
C247 C240 1.409 . S
C247 C246 1.362 . S
H248 C254 0.930 . S
H249 C257 0.930 . S
H250 C258 0.930 . S
H251 C259 0.930 . S
H252 C262 0.930 . S
H253 C263 0.930 . S
C254 H248 0.930 . S
C254 C255 1.355 . S
C254 C256 1.415 . S
C255 C254 1.355 . S
C255 C257 1.419 . S
C256 C254 1.415 . S
C256 C261 1.425 . S
C256 C263 1.409 . S
C257 H249 0.930 . S
C257 C255 1.419 . S
C257 C258 1.362 . S
C258 H250 0.930 . S
C258 C257 1.362 . S
C258 C261 1.409 . S
C259 H251 0.930 . S
C259 C260 1.355 . S
C259 C261 1.415 . S
C260 C259 1.355 . S
C260 C262 1.419 . S
C261 C256 1.425 . S
C261 C258 1.409 . S
C261 C259 1.415 . S
C262 H252 0.930 . S
C262 C260 1.419 . S
C262 C263 1.362 . S
C263 H253 0.930 . S
C263 C256 1.409 . S
C263 C262 1.362 . S
H264 C270 0.930 . S
H265 C273 0.930 . S
H266 C274 0.930 . S
H267 C275 0.930 . S
H268 C278 0.930 . S
H269 C279 0.930 . S
C270 H264 0.930 . S
C270 C271 1.355 . S
C270 C272 1.415 . S
C271 C270 1.355 . S
C271 C273 1.419 . S
C272 C270 1.415 . S
C272 C277 1.425 . S
C272 C279 1.409 . S
C273 H265 0.930 . S
C273 C271 1.419 . S
C273 C274 1.362 . S
C274 H266 0.930 . S
C274 C273 1.362 . S
C274 C277 1.409 . S
C275 H267 0.930 . S
C275 C276 1.355 . S
C275 C277 1.415 . S
C276 C275 1.355 . S
C276 C278 1.419 . S
C277 C272 1.425 . S
C277 C274 1.409 . S
C277 C275 1.415 . S
C278 H268 0.930 . S
C278 C276 1.419 . S
C278 C279 1.362 . S
C279 H269 0.930 . S
C279 C272 1.409 . S
C279 C278 1.362 . S
H280 C286 0.930 . S
H281 C289 0.930 . S
H282 C290 0.930 . S
H283 C291 0.930 . S
H284 C294 0.930 . S
H285 C295 0.930 . S
C286 H280 0.930 . S
C286 C287 1.355 . S
C286 C288 1.415 . S
C287 C286 1.355 . S
C287 C289 1.419 . S
C288 C286 1.415 . S
C288 C293 1.425 . S
C288 C295 1.409 . S
C289 H281 0.930 . S
C289 C287 1.419 . S
C289 C290 1.362 . S
C290 H282 0.930 . S
C290 C289 1.362 . S
C290 C293 1.409 . S
C291 H283 0.930 . S
C291 C292 1.355 . S
C291 C293 1.415 . S
C292 C291 1.355 . S
C292 C294 1.419 . S
C293 C288 1.425 . S
C293 C290 1.409 . S
C293 C291 1.415 . S
C294 H284 0.930 . S
C294 C292 1.419 . S
C294 C295 1.362 . S
C295 H285 0.930 . S
C295 C288 1.409 . S
C295 C294 1.362 . S
H296 C302 0.930 . S
H297 C305 0.930 . S
H298 C306 0.930 . S
H299 C307 0.930 . S
H300 C310 0.930 . S
H301 C311 0.930 . S
C302 H296 0.930 . S
C302 C303 1.355 . S
C302 C304 1.415 . S
C303 C302 1.355 . S
C303 C305 1.419 . S
C304 C302 1.415 . S
C304 C309 1.425 . S
C304 C311 1.409 . S
C305 H297 0.930 . S
C305 C303 1.419 . S
C305 C306 1.362 . S
C306 H298 0.930 . S
C306 C305 1.362 . S
C306 C309 1.409 . S
C307 H299 0.930 . S
C307 C308 1.355 . S
C307 C309 1.415 . S
C308 C307 1.355 . S
C308 C310 1.419 . S
C309 C304 1.425 . S
C309 C306 1.409 . S
C309 C307 1.415 . S
C310 H300 0.930 . S
C310 C308 1.419 . S
C310 C311 1.362 . S
C311 H301 0.930 . S
C311 C304 1.409 . S
C311 C310 1.362 . S
H312 C318 0.930 . S
H313 C321 0.930 . S
H314 C322 0.930 . S
H315 C323 0.930 . S
H316 C326 0.930 . S
H317 C327 0.930 . S
C318 H312 0.930 . S
C318 C319 1.355 . S
C318 C320 1.415 . S
C319 C318 1.355 . S
C319 C321 1.419 . S
C320 C318 1.415 . S
C320 C325 1.425 . S
C320 C327 1.409 . S
C321 H313 0.930 . S
C321 C319 1.419 . S
C321 C322 1.362 . S
C322 H314 0.930 . S
C322 C321 1.362 . S
C322 C325 1.409 . S
C323 H315 0.930 . S
C323 C324 1.355 . S
C323 C325 1.415 . S
C324 C323 1.355 . S
C324 C326 1.419 . S
C325 C320 1.425 . S
C325 C322 1.409 . S
C325 C323 1.415 . S
C326 H316 0.930 . S
C326 C324 1.419 . S
C326 C327 1.362 . S
C327 H317 0.930 . S
C327 C320 1.409 . S
C327 C326 1.362 . S
H328 C334 0.930 . S
H329 C337 0.930 . S
H330 C338 0.930 . S
H331 C339 0.930 . S
H332 C342 0.930 . S
H333 C343 0.930 . S
C334 H328 0.930 . S
C334 C335 1.355 . S
C334 C336 1.415 . S
C335 C334 1.355 . S
C335 C337 1.419 . S
C336 C334 1.415 . S
C336 C341 1.425 . S
C336 C343 1.409 . S
C337 H329 0.930 . S
C337 C335 1.419 . S
C337 C338 1.362 . S
C338 H330 0.930 . S
C338 C337 1.362 . S
C338 C341 1.409 . S
C339 H331 0.930 . S
C339 C340 1.355 . S
C339 C341 1.415 . S
C340 C339 1.355 . S
C340 C342 1.419 . S
C341 C336 1.425 . S
C341 C338 1.409 . S
C341 C339 1.415 . S
C342 H332 0.930 . S
C342 C340 1.419 . S
C342 C343 1.362 . S
C343 H333 0.930 . S
C343 C336 1.409 . S
C343 C342 1.362 . S
H344 C350 0.930 . S
H345 C353 0.930 . S
H346 C354 0.930 . S
H347 C355 0.930 . S
H348 C358 0.930 . S
H349 C359 0.930 . S
C350 H344 0.930 . S
C350 C351 1.355 . S
C350 C352 1.415 . S
C351 C350 1.355 . S
C351 C353 1.419 . S
C352 C350 1.415 . S
C352 C357 1.425 . S
C352 C359 1.409 . S
C353 H345 0.930 . S
C353 C351 1.419 . S
C353 C354 1.362 . S
C354 H346 0.930 . S
C354 C353 1.362 . S
C354 C357 1.409 . S
C355 H347 0.930 . S
C355 C356 1.355 . S
C355 C357 1.415 . S
C356 C355 1.355 . S
C356 C358 1.419 . S
C357 C352 1.425 . S
C357 C354 1.409 . S
C357 C355 1.415 . S
C358 H348 0.930 . S
C358 C356 1.419 . S
C358 C359 1.362 . S
C359 H349 0.930 . S
C359 C352 1.409 . S
C359 C358 1.362 . S
H360 C366 0.930 . S
H361 C369 0.930 . S
H362 C370 0.930 . S
H363 C371 0.930 . S
H364 C374 0.930 . S
H365 C375 0.930 . S
C366 H360 0.930 . S
C366 C367 1.355 . S
C366 C368 1.415 . S
C367 C366 1.355 . S
C367 C369 1.419 . S
C368 C366 1.415 . S
C368 C373 1.425 . S
C368 C375 1.409 . S
C369 H361 0.930 . S
C369 C367 1.419 . S
C369 C370 1.362 . S
C370 H362 0.930 . S
C370 C369 1.362 . S
C370 C373 1.409 . S
C371 H363 0.930 . S
C371 C372 1.355 . S
C371 C373 1.415 . S
C372 C371 1.355 . S
C372 C374 1.419 . S
C373 C368 1.425 . S
C373 C370 1.409 . S
C373 C371 1.415 . S
C374 H364 0.930 . S
C374 C372 1.419 . S
C374 C375 1.362 . S
C375 H365 0.930 . S
C375 C368 1.409 . S
C375 C374 1.362 . S
H376 C382 0.930 . S
H377 C385 0.930 . S
H378 C386 0.930 . S
H379 C387 0.930 . S
H380 C390 0.930 . S
H381 C391 0.930 . S
C382 H376 0.930 . S
C382 C383 1.355 . S
C382 C384 1.415 . S
C383 C382 1.355 . S
C383 C385 1.419 . S
C384 C382 1.415 . S
C384 C389 1.425 . S
C384 C391 1.409 . S
C385 H377 0.930 . S
C385 C383 1.419 . S
C385 C386 1.362 . S
C386 H378 0.930 . S
C386 C385 1.362 . S
C386 C389 1.409 . S
C387 H379 0.930 . S
C387 C388 1.355 . S
C387 C389 1.415 1_554 S
C388 C387 1.355 . S
C388 C390 1.419 . S
C389 C384 1.425 . S
C389 C386 1.409 . S
C389 C387 1.415 1_556 S
C390 H380 0.930 . S
C390 C388 1.419 . S
C390 C391 1.362 1_554 S
C391 H381 0.930 . S
C391 C384 1.409 . S
C391 C390 1.362 1_556 S
H392 C398 0.930 . S
H393 C401 0.930 . S
H394 C402 0.930 . S
H395 C403 0.930 . S
H396 C406 0.930 . S
H397 C407 0.930 . S
C398 H392 0.930 . S
C398 C399 1.355 . S
C398 C400 1.415 . S
C399 C398 1.355 . S
C399 C401 1.419 . S
C400 C398 1.415 . S
C400 C405 1.425 . S
C400 C407 1.409 . S
C401 H393 0.930 . S
C401 C399 1.419 . S
C401 C402 1.362 . S
C402 H394 0.930 . S
C402 C401 1.362 . S
C402 C405 1.409 . S
C403 H395 0.930 . S
C403 C404 1.355 . S
C403 C405 1.415 . S
C404 C403 1.355 . S
C404 C406 1.419 . S
C405 C400 1.425 . S
C405 C402 1.409 . S
C405 C403 1.415 . S
C406 H396 0.930 . S
C406 C404 1.419 . S
C406 C407 1.362 . S
C407 H397 0.930 . S
C407 C400 1.409 . S
C407 C406 1.362 . S
H408 C414 0.930 . S
H409 C417 0.930 . S
H410 C418 0.930 . S
H411 C419 0.930 . S
H412 C422 0.930 . S
H413 C423 0.930 . S
C414 H408 0.930 . S
C414 C415 1.355 . S
C414 C416 1.415 . S
C415 C414 1.355 . S
C415 C417 1.419 . S
C416 C414 1.415 . S
C416 C421 1.425 . S
C416 C423 1.409 . S
C417 H409 0.930 . S
C417 C415 1.419 . S
C417 C418 1.362 . S
C418 H410 0.930 . S
C418 C417 1.362 . S
C418 C421 1.409 . S
C419 H411 0.930 . S
C419 C420 1.355 . S
C419 C421 1.415 . S
C420 C419 1.355 . S
C420 C422 1.419 . S
C421 C416 1.425 . S
C421 C418 1.409 . S
C421 C419 1.415 . S
C422 H412 0.930 . S
C422 C420 1.419 . S
C422 C423 1.362 . S
C423 H413 0.930 . S
C423 C416 1.409 . S
C423 C422 1.362 . S
H424 C430 0.930 . S
H425 C433 0.930 . S
H426 C434 0.930 . S
H427 C435 0.930 . S
H428 C438 0.930 . S
H429 C439 0.930 . S
C430 H424 0.930 . S
C430 C431 1.355 . S
C430 C432 1.415 . S
C431 C430 1.355 . S
C431 C433 1.419 . S
C432 C430 1.415 . S
C432 C437 1.425 . S
C432 C439 1.409 . S
C433 H425 0.930 . S
C433 C431 1.419 . S
C433 C434 1.362 . S
C434 H426 0.930 . S
C434 C433 1.362 . S
C434 C437 1.409 . S
C435 H427 0.930 . S
C435 C436 1.355 . S
C435 C437 1.415 . S
C436 C435 1.355 . S
C436 C438 1.419 . S
C437 C432 1.425 . S
C437 C434 1.409 . S
C437 C435 1.415 . S
C438 H428 0.930 . S
C438 C436 1.419 . S
C438 C439 1.362 . S
C439 H429 0.930 . S
C439 C432 1.409 . S
C439 C438 1.362 . S
H440 C446 0.930 . S
H441 C449 0.930 . S
H442 C450 0.930 . S
H443 C451 0.930 . S
H444 C454 0.930 . S
H445 C455 0.930 . S
C446 H440 0.930 . S
C446 C447 1.355 . S
C446 C448 1.415 . S
C447 C446 1.355 . S
C447 C449 1.419 . S
C448 C446 1.415 . S
C448 C453 1.425 . S
C448 C455 1.409 . S
C449 H441 0.930 . S
C449 C447 1.419 . S
C449 C450 1.362 . S
C450 H442 0.930 . S
C450 C449 1.362 . S
C450 C453 1.409 . S
C451 H443 0.930 . S
C451 C452 1.355 . S
C451 C453 1.415 . S
C452 C451 1.355 . S
C452 C454 1.419 . S
C453 C448 1.425 . S
C453 C450 1.409 . S
C453 C451 1.415 . S
C454 H444 0.930 . S
C454 C452 1.419 . S
C454 C455 1.362 . S
C455 H445 0.930 . S
C455 C448 1.409 . S
C455 C454 1.362 . S
H456 C462 0.930 . S
H457 C465 0.930 1_556 S
H458 C466 0.930 . S
H459 C467 0.918 1_556 S
H460 C470 0.930 . S
H461 C471 0.930 . S
C462 H456 0.930 . S
C462 C463 1.355 . S
C462 C464 1.415 . S
C463 C462 1.355 . S
C463 C465 1.419 . S
C464 C462 1.415 . S
C464 C469 1.425 1_545 S
C464 C471 1.409 1_545 S
C465 H457 0.930 1_554 S
C465 C463 1.419 . S
C465 C466 1.362 1_554 S
C466 H458 0.930 . S
C466 C465 1.362 1_556 S
C466 C469 1.409 1_546 S
C467 H459 0.918 1_554 S
C467 C468 1.362 . S
C467 C469 1.419 . S
C468 C467 1.362 . S
C468 C470 1.419 . S
C469 C464 1.425 1_565 S
C469 C466 1.409 1_564 S
C469 C467 1.419 . S
C470 H460 0.930 . S
C470 C468 1.419 . S
C470 C471 1.362 . S
C471 H461 0.930 . S
C471 C464 1.409 1_565 S
C471 C470 1.362 . S
H472 C478 0.930 . S
H473 C481 0.930 . S
H474 C482 0.930 . S
H475 C483 0.930 . S
H476 C486 0.930 . S
H477 C487 0.930 . S
C478 H472 0.930 . S
C478 C479 1.355 . S
C478 C480 1.415 . S
C479 C478 1.355 . S
C479 C481 1.419 . S
C480 C478 1.415 . S
C480 C485 1.425 . S
C480 C487 1.409 . S
C481 H473 0.930 . S
C481 C479 1.419 . S
C481 C482 1.362 . S
C482 H474 0.930 . S
C482 C481 1.362 . S
C482 C485 1.409 . S
C483 H475 0.930 . S
C483 C484 1.355 . S
C483 C485 1.415 . S
C484 C483 1.355 . S
C484 C486 1.419 . S
C485 C480 1.425 . S
C485 C482 1.409 . S
C485 C483 1.415 . S
C486 H476 0.930 . S
C486 C484 1.419 . S
C486 C487 1.362 . S
C487 H477 0.930 . S
C487 C480 1.409 . S
C487 C486 1.362 . S
H488 C494 0.930 . S
H489 C497 0.930 . S
H490 C498 0.930 . S
H491 C499 0.930 . S
H492 C502 0.930 . S
H493 C503 0.930 . S
C494 H488 0.930 . S
C494 C495 1.355 . S
C494 C496 1.415 . S
C495 C494 1.355 . S
C495 C497 1.419 . S
C496 C494 1.415 . S
C496 C501 1.425 1_455 S
C496 C503 1.409 1_455 S
C497 H489 0.930 . S
C497 C495 1.419 . S
C497 C498 1.362 . S
C498 H490 0.930 . S
C498 C497 1.362 . S
C498 C501 1.409 1_455 S
C499 H491 0.930 . S
C499 C500 1.355 . S
C499 C501 1.415 . S
C500 C499 1.355 . S
C500 C502 1.419 . S
C501 C496 1.425 1_655 S
C501 C498 1.409 1_655 S
C501 C499 1.415 . S
C502 H492 0.930 . S
C502 C500 1.419 . S
C502 C503 1.362 . S
C503 H493 0.930 . S
C503 C496 1.409 1_655 S
C503 C502 1.362 . S
H504 C510 0.930 . S
H505 C513 0.930 . S
H506 C514 0.930 . S
H507 C515 0.930 . S
H508 C518 0.930 . S
H509 C519 0.930 . S
C510 H504 0.930 . S
C510 C511 1.355 . S
C510 C512 1.415 . S
C511 C510 1.355 . S
C511 C513 1.419 . S
C512 C510 1.415 . S
C512 C517 1.425 1_565 S
C512 C519 1.409 1_565 S
C513 H505 0.930 . S
C513 C511 1.419 . S
C513 C514 1.362 . S
C514 H506 0.930 . S
C514 C513 1.362 . S
C514 C517 1.409 1_565 S
C515 H507 0.930 . S
C515 C516 1.355 . S
C515 C517 1.415 . S
C516 C515 1.355 . S
C516 C518 1.419 . S
C517 C512 1.425 1_545 S
C517 C514 1.409 1_545 S
C517 C515 1.415 . S
C518 H508 0.930 . S
C518 C516 1.419 . S
C518 C519 1.362 . S
C519 H509 0.930 . S
C519 C512 1.409 1_545 S
C519 C518 1.362 . S
H520 C526 0.930 . S
H521 C529 0.930 . S
H522 C530 0.930 . S
H523 C531 0.930 . S
H524 C534 0.930 . S
H525 C535 0.930 . S
C526 H520 0.930 . S
C526 C527 1.355 . S
C526 C528 1.415 . S
C527 C526 1.355 . S
C527 C529 1.419 . S
C528 C526 1.415 . S
C528 C533 1.425 . S
C528 C535 1.409 . S
C529 H521 0.930 . S
C529 C527 1.419 . S
C529 C530 1.362 . S
C530 H522 0.930 . S
C530 C529 1.362 . S
C530 C533 1.409 . S
C531 H523 0.930 . S
C531 C532 1.355 . S
C531 C533 1.415 . S
C532 C531 1.355 . S
C532 C534 1.419 . S
C533 C528 1.425 . S
C533 C530 1.409 . S
C533 C531 1.415 . S
C534 H524 0.930 . S
C534 C532 1.419 . S
C534 C535 1.362 . S
C535 H525 0.930 . S
C535 C528 1.409 . S
C535 C534 1.362 . S
H536 C542 0.930 . S
H537 C545 0.930 . S
H538 C546 0.930 . S
H539 C547 0.930 . S
H540 C550 0.930 . S
H541 C551 0.930 . S
C542 H536 0.930 . S
C542 C543 1.355 . S
C542 C544 1.415 . S
C543 C542 1.355 . S
C543 C545 1.419 . S
C544 C542 1.415 . S
C544 C549 1.425 1_455 S
C544 C551 1.409 1_455 S
C545 H537 0.930 . S
C545 C543 1.419 . S
C545 C546 1.362 . S
C546 H538 0.930 . S
C546 C545 1.362 . S
C546 C549 1.409 1_455 S
C547 H539 0.930 . S
C547 C548 1.355 . S
C547 C549 1.415 . S
C548 C547 1.355 . S
C548 C550 1.419 . S
C549 C544 1.425 1_655 S
C549 C546 1.409 1_655 S
C549 C547 1.415 . S
C550 H540 0.930 . S
C550 C548 1.419 . S
C550 C551 1.362 . S
C551 H541 0.930 . S
C551 C544 1.409 1_655 S
C551 C550 1.362 . S
C175 C9 1.658 . S
C180 C149 1.645 . S
C191 C23 1.648 . S
C196 C163 1.661 . S
C207 C93 1.644 . S
C212 C37 1.658 . S
C223 C51 1.635 . S
C228 C107 1.649 . S
C239 C121 1.654 . S
C244 C65 1.640 . S
C255 C135 1.648 . S
C260 C79 1.661 1_554 S
C271 C119 1.427 . S
C276 C7 1.398 . S
C287 C21 1.412 . S
C292 C133 1.430 . S
C303 C147 1.430 . S
C308 C35 1.415 . S
C319 C49 1.424 . S
C324 C161 1.392 . S
C335 C63 1.398 . S
C340 C91 1.383 . S
C351 C77 1.388 . S
C356 C105 1.419 . S
C367 C146 1.350 . S
C372 C6 1.327 . S
C383 C160 1.351 . S
C388 C20 1.375 . S
C399 C90 1.334 1_554 S
C404 C34 1.320 . S
C415 C48 1.369 . S
C420 C104 1.344 . S
C431 C62 1.325 . S
C436 C118 1.320 . S
C447 C132 1.324 . S
C452 C76 1.345 . S
C463 C8 1.275 . S
C468 C106 1.330 . S
C479 C120 1.289 . S
C484 C22 1.351 . S
C495 C134 1.286 . S
C500 C36 1.349 . S
C511 C50 1.275 . S
C516 C148 1.331 . S
C527 C64 1.354 . S
C532 C162 1.303 . S
C543 C78 1.296 . S
C548 C92 1.286 . S
