# Generated by pormake.
# Topology unj, (4)-cn, num edge types: 1
# Building blocks:
#     Node 0, Type 0, BuildingBlock: GALJAG_clean_sbu_0, # of connection points: 4
#     Node 1, Type 0, BuildingBlock: GALJAG_clean_sbu_0, # of connection points: 4
#     Node 2, Type 0, BuildingBlock: GALJAG_clean_sbu_0, # of connection points: 4
#     Node 3, Type 0, BuildingBlock: GALJAG_clean_sbu_0, # of connection points: 4
#     Node 4, Type 0, BuildingBlock: GALJAG_clean_sbu_0, # of connection points: 4
#     Node 5, Type 0, BuildingBlock: GALJAG_clean_sbu_0, # of connection points: 4
#     Edge 6, Type (0, 0), BuildingBlock: MIFKUJ_clean_linker_0, # of connection points: 2
#     Edge 7, Type (0, 0), BuildingBlock: MIFKUJ_clean_linker_0, # of connection points: 2
#     Edge 8, Type (0, 0), BuildingBlock: MIFKUJ_clean_linker_0, # of connection points: 2
#     Edge 9, Type (0, 0), BuildingBlock: MIFKUJ_clean_linker_0, # of connection points: 2
#     Edge 10, Type (0, 0), BuildingBlock: MIFKUJ_clean_linker_0, # of connection points: 2
#     Edge 11, Type (0, 0), BuildingBlock: MIFKUJ_clean_linker_0, # of connection points: 2
#     Edge 12, Type (0, 0), BuildingBlock: MIFKUJ_clean_linker_0, # of connection points: 2
#     Edge 13, Type (0, 0), BuildingBlock: MIFKUJ_clean_linker_0, # of connection points: 2
#     Edge 14, Type (0, 0), BuildingBlock: MIFKUJ_clean_linker_0, # of connection points: 2
#     Edge 15, Type (0, 0), BuildingBlock: MIFKUJ_clean_linker_0, # of connection points: 2
#     Edge 16, Type (0, 0), BuildingBlock: MIFKUJ_clean_linker_0, # of connection points: 2
#     Edge 17, Type (0, 0), BuildingBlock: MIFKUJ_clean_linker_0, # of connection points: 2
# Relax obj value: 0.013
# Max RMSD: 0.059
# Mean RMSD: 0.059
data_MOF--net-unj--node1-GALJAG_clean_sbu_0--edge1-MIFKUJ_clean_linker_0
_symmetry_space_group_name_H-M    P1
_symmetry_Int_Tables_number       1
_symmetry_cell_setting            triclinic
loop_
_symmetry_equiv_pos_as_xyz
'x, y, z'
_cell_length_a     39.985328
_cell_length_b     39.993372
_cell_length_c     52.151191
_cell_angle_alpha  90.001428
_cell_angle_beta   89.995437
_cell_angle_gamma 119.98024
loop_
_atom_site_label
_atom_site_type_symbol
_atom_site_fract_x
_atom_site_fract_y
_atom_site_fract_z
_atom_type_partial_charge
In0 In 0.50886 0.25791 0.58609 0.0
O1 O 0.55853 0.27754 0.55747 0.0
O2 O 0.51789 0.29612 0.5513 0.0
C3 C 0.54403 0.25538 0.62964 0.0
C4 C 0.46832 0.18674 0.56529 0.0
C5 C 0.47313 0.29371 0.6062 0.0
O6 O 0.56229 0.27813 0.61148 0.0
O7 O 0.50844 0.2337 0.62561 0.0
O8 O 0.45533 0.25818 0.60071 0.0
O9 O 0.50881 0.31121 0.60116 0.0
C10 C 0.54763 0.29599 0.54346 0.0
O11 O 0.45457 0.20894 0.56748 0.0
O12 O 0.50197 0.20012 0.57408 0.0
In13 In 0.26073 0.52209 0.75132 0.0
O14 O 0.26098 0.46716 0.74044 0.0
O15 O 0.3131 0.52088 0.73553 0.0
C16 C 0.18881 0.47853 0.77062 0.0
C17 C 0.25904 0.55581 0.70673 0.0
C18 C 0.29935 0.56327 0.79338 0.0
O19 O 0.21422 0.46874 0.77227 0.0
O20 O 0.1995 0.50985 0.75894 0.0
O21 O 0.27399 0.56795 0.78228 0.0
O22 O 0.30601 0.53887 0.78286 0.0
C23 C 0.29583 0.48456 0.7332 0.0
O24 O 0.27606 0.57537 0.7264 0.0
O25 O 0.24265 0.51982 0.70978 0.0
In26 In 0.74857 0.25215 0.91641 0.0
O27 O 0.71609 0.27234 0.89034 0.0
O28 O 0.72599 0.22791 0.87673 0.0
C29 C 0.7454 0.29044 0.95824 0.0
C30 C 0.82044 0.28685 0.89674 0.0
C31 C 0.71808 0.18101 0.93721 0.0
O32 O 0.71654 0.27097 0.94402 0.0
O33 O 0.77595 0.29152 0.95091 0.0
O34 O 0.75369 0.20526 0.93816 0.0
O35 O 0.69813 0.19236 0.92533 0.0
C36 C 0.7122 0.24962 0.87227 0.0
O37 O 0.80313 0.25201 0.90388 0.0
O38 O 0.80171 0.30427 0.89995 0.0
In39 In 0.49068 0.74399 0.08709 0.0
O40 O 0.43706 0.71324 0.06156 0.0
O41 O 0.48855 0.71545 0.04882 0.0
C42 C 0.45849 0.74859 0.13166 0.0
C43 C 0.52956 0.81695 0.0686 0.0
C44 C 0.52403 0.70373 0.10347 0.0
O45 O 0.43862 0.73231 0.11198 0.0
O46 O 0.49436 0.76301 0.12872 0.0
O47 O 0.54314 0.73766 0.09478 0.0
O48 O 0.48784 0.68971 0.10349 0.0
C49 C 0.45372 0.70494 0.04421 0.0
O50 O 0.54638 0.80024 0.07797 0.0
O51 O 0.49325 0.79728 0.06913 0.0
In52 In 0.73825 0.47718 0.24959 0.0
O53 O 0.70936 0.42551 0.2223 0.0
O54 O 0.76729 0.46845 0.21465 0.0
C55 C 0.70056 0.44274 0.29326 0.0
C56 C 0.70595 0.51544 0.22786 0.0
C57 C 0.80912 0.51625 0.27079 0.0
O58 O 0.71198 0.42645 0.27763 0.0
O59 O 0.7074 0.47586 0.28656 0.0
O60 O 0.79089 0.5328 0.2635 0.0
O61 O 0.79186 0.4803 0.26696 0.0
C62 C 0.73826 0.43725 0.20774 0.0
O63 O 0.74207 0.52989 0.22968 0.0
O64 O 0.68634 0.4821 0.23731 0.0
In65 In 0.24848 0.75017 0.41692 0.0
O66 O 0.19346 0.74825 0.40329 0.0
O67 O 0.19194 0.69477 0.40818 0.0
C68 C 0.28512 0.8248 0.43163 0.0
C69 C 0.28535 0.75069 0.37325 0.0
C70 C 0.24775 0.71574 0.46173 0.0
O71 O 0.2491 0.80546 0.42822 0.0
O72 O 0.30287 0.80676 0.42702 0.0
O73 O 0.25663 0.70641 0.44073 0.0
O74 O 0.23869 0.74163 0.45992 0.0
C75 C 0.17407 0.71196 0.40156 0.0
O76 O 0.29326 0.74153 0.39464 0.0
O77 O 0.2595 0.75988 0.37408 0.0
H78 H 0.49615 0.13882 0.55371 0.0
H79 H 0.46375 0.07828 0.52969 0.0
H80 H 0.36194 0.08892 0.52305 0.0
H81 H 0.39428 0.14974 0.5471 0.0
H82 H 0.34606 0.01435 0.53629 0.0
H83 H 0.41908 0.11152 0.47328 0.0
H84 H 0.47769 0.16666 0.4552 0.0
H85 H 0.53375 0.09893 0.45368 0.0
H86 H 0.47565 0.04352 0.47213 0.0
H87 H 0.25273 0.86907 0.44268 0.0
H88 H 0.28334 0.93199 0.46391 0.0
H89 H 0.39128 0.93215 0.4665 0.0
H90 H 0.36099 0.8695 0.44483 0.0
H91 H 0.40298 0.00238 0.45461 0.0
H92 H 0.33297 0.90669 0.51877 0.0
H93 H 0.27603 0.85115 0.53811 0.0
H94 H 0.21621 0.9153 0.53892 0.0
H95 H 0.27264 0.97107 0.51921 0.0
C96 C 0.46678 0.12817 0.54728 0.0
C97 C 0.44775 0.14904 0.55219 0.0
C98 C 0.4484 0.09369 0.53347 0.0
C99 C 0.41066 0.07943 0.52437 0.0
C100 C 0.39114 0.09958 0.52987 0.0
C101 C 0.40964 0.13428 0.54355 0.0
C102 C 0.39186 0.04369 0.50883 0.0
C103 C 0.3581 0.01186 0.51822 0.0
C104 C 0.40825 0.0403 0.48562 0.0
C105 C 0.44312 0.07348 0.47431 0.0
C106 C 0.44401 0.10847 0.46928 0.0
C107 C 0.47712 0.13976 0.45894 0.0
C108 C 0.50946 0.13633 0.45335 0.0
C109 C 0.5087 0.10156 0.45804 0.0
C110 C 0.47567 0.07019 0.46842 0.0
C111 C 0.28309 0.88271 0.44752 0.0
C112 C 0.30444 0.8643 0.44224 0.0
C113 C 0.30048 0.91855 0.45977 0.0
C114 C 0.33941 0.93643 0.46718 0.0
C115 C 0.36116 0.91879 0.46102 0.0
C116 C 0.34382 0.88299 0.44868 0.0
C117 C 0.35713 0.9729 0.48206 0.0
C118 C 0.39075 0.00488 0.47259 0.0
C119 C 0.3408 0.97633 0.50533 0.0
C120 C 0.30687 0.9429 0.51726 0.0
C121 C 0.30756 0.90884 0.52288 0.0
C122 C 0.2754 0.87734 0.53393 0.0
C123 C 0.24248 0.87966 0.53967 0.0
C124 C 0.2417 0.91353 0.53442 0.0
C125 C 0.27377 0.9451 0.52332 0.0
H126 H 0.21762 0.85525 0.54824 0.0
H127 H 0.53507 0.16059 0.44535 0.0
H128 H 0.50531 0.36986 0.61864 0.0
H129 H 0.4745 0.40141 0.64059 0.0
H130 H 0.36746 0.2929 0.6439 0.0
H131 H 0.39797 0.26126 0.62151 0.0
H132 H 0.35499 0.35063 0.63085 0.0
H133 H 0.42543 0.32815 0.69641 0.0
H134 H 0.48266 0.33084 0.71632 0.0
H135 H 0.54149 0.45472 0.71505 0.0
H136 H 0.48478 0.45277 0.69478 0.0
H137 H 0.26328 0.40741 0.72364 0.0
H138 H 0.29327 0.37425 0.70262 0.0
H139 H 0.40008 0.48238 0.69573 0.0
H140 H 0.37037 0.5157 0.71692 0.0
H141 H 0.41191 0.42378 0.71117 0.0
H142 H 0.34138 0.44582 0.64499 0.0
H143 H 0.28387 0.44275 0.62526 0.0
H144 H 0.22476 0.31891 0.6281 0.0
H145 H 0.28177 0.32127 0.64821 0.0
C146 C 0.47516 0.35275 0.62395 0.0
C147 C 0.45407 0.31307 0.61847 0.0
C148 C 0.45765 0.37078 0.6366 0.0
C149 C 0.41884 0.34938 0.64424 0.0
C150 C 0.39747 0.30992 0.63825 0.0
C151 C 0.41494 0.29189 0.62551 0.0
C152 C 0.40065 0.36815 0.6586 0.0
C153 C 0.36712 0.36616 0.6486 0.0
C154 C 0.41692 0.38903 0.68151 0.0
C155 C 0.45098 0.3903 0.69385 0.0
C156 C 0.45067 0.35597 0.7002 0.0
C157 C 0.483 0.35736 0.71158 0.0
C158 C 0.51572 0.39293 0.71689 0.0
C159 C 0.51614 0.42719 0.7109 0.0
C160 C 0.4839 0.42596 0.69948 0.0
C161 C 0.29322 0.42408 0.71778 0.0
C162 C 0.31445 0.46416 0.72181 0.0
C163 C 0.31025 0.40513 0.70569 0.0
C164 C 0.34874 0.42596 0.69735 0.0
C165 C 0.37031 0.46581 0.70199 0.0
C166 C 0.35328 0.48479 0.71403 0.0
C167 C 0.36636 0.40633 0.68337 0.0
C168 C 0.39976 0.40817 0.69345 0.0
C169 C 0.34992 0.38522 0.66057 0.0
C170 C 0.3157 0.38374 0.64834 0.0
C171 C 0.31601 0.41794 0.64159 0.0
C172 C 0.28352 0.41633 0.63031 0.0
C173 C 0.25065 0.38066 0.62549 0.0
C174 C 0.25023 0.34652 0.63188 0.0
C175 C 0.28263 0.34798 0.6432 0.0
H176 H 0.22552 0.37947 0.61675 0.0
H177 H 0.54072 0.39395 0.7257 0.0
H178 H 0.86801 0.25679 0.89013 0.0
H179 H 0.93071 0.28696 0.8684 0.0
H180 H 0.92217 0.38865 0.854 0.0
H181 H 0.85953 0.3587 0.87564 0.0
H182 H 0.94329 0.36346 0.81106 0.0
H183 H 0.98084 0.38995 0.89998 0.0
H184 H 0.98176 0.37272 0.94528 0.0
H185 H 0.02883 0.30107 0.92345 0.0
H186 H 0.02769 0.31746 0.87796 0.0
H187 H 0.13343 0.4989 0.77441 0.0
H188 H 0.07056 0.46319 0.79527 0.0
H189 H 0.09351 0.37134 0.81367 0.0
H190 H 0.15712 0.4076 0.7934 0.0
H191 H 0.06412 0.38721 0.85375 0.0
H192 H 0.02958 0.36187 0.76541 0.0
H193 H 0.02817 0.37741 0.71981 0.0
H194 H 0.97458 0.44393 0.73964 0.0
H195 H 0.97615 0.42923 0.78541 0.0
C196 C 0.87962 0.28566 0.88245 0.0
C197 C 0.85895 0.30545 0.88461 0.0
C198 C 0.91543 0.30286 0.8701 0.0
C199 C 0.93111 0.34009 0.8597 0.0
C200 C 0.91052 0.35988 0.86188 0.0
C201 C 0.87485 0.3428 0.87434 0.0
C202 C 0.96869 0.35829 0.84616 0.0
C203 C 0.96983 0.36906 0.82044 0.0
C204 C 0.00297 0.36437 0.8582 0.0
C205 C 0.00379 0.3546 0.88555 0.0
C206 C 0.99108 0.37026 0.90482 0.0
C207 C 0.9917 0.3607 0.93053 0.0
C208 C 0.00524 0.33573 0.93723 0.0
C209 C 0.01829 0.32036 0.91823 0.0
C210 C 0.01769 0.32979 0.89248 0.0
C211 C 0.125 0.47099 0.78276 0.0
C212 C 0.15011 0.45596 0.78221 0.0
C213 C 0.08896 0.4505 0.79458 0.0
C214 C 0.07703 0.41429 0.80572 0.0
C215 C 0.10206 0.39917 0.80515 0.0
C216 C 0.13832 0.41984 0.7935 0.0
C217 C 0.03893 0.39288 0.81864 0.0
C218 C 0.03762 0.38142 0.84425 0.0
C219 C 0.00438 0.38587 0.80641 0.0
C220 C 0.00329 0.3947 0.77888 0.0
C221 C 0.01775 0.38005 0.76007 0.0
C222 C 0.01688 0.38867 0.73419 0.0
C223 C 0.00137 0.41171 0.72684 0.0
C224 C 0.98661 0.42611 0.74536 0.0
C225 C 0.98745 0.41761 0.77128 0.0
H226 H 0.00072 0.41836 0.70679 0.0
H227 H 0.0057 0.32837 0.95715 0.0
H228 H 0.49914 0.85337 0.04116 0.0
H229 H 0.53408 0.91533 0.01891 0.0
H230 H 0.64216 0.92936 0.04629 0.0
H231 H 0.60734 0.8672 0.06858 0.0
H232 H 0.63784 0.9963 0.05062 0.0
H233 H 0.61825 0.90288 0.9865 0.0
H234 H 0.58235 0.84485 0.95964 0.0
H235 H 0.51254 0.88977 0.92994 0.0
H236 H 0.54777 0.94795 0.95685 0.0
H237 H 0.75457 0.15135 0.9657 0.0
H238 H 0.72489 0.08948 0.98843 0.0
H239 H 0.61279 0.06368 0.96075 0.0
H240 H 0.64228 0.12512 0.93776 0.0
H241 H 0.62239 0.0022 0.9566 0.0
H242 H 0.64198 0.09566 0.02181 0.0
H243 H 0.67961 0.15416 0.04799 0.0
H244 H 0.75039 0.10909 0.07562 0.0
H245 H 0.71357 0.05057 0.04929 0.0
C246 C 0.53033 0.86975 0.04258 0.0
C247 C 0.55056 0.85545 0.05655 0.0
C248 C 0.55024 0.90503 0.02976 0.0
C249 C 0.5907 0.92667 0.03074 0.0
C250 C 0.61093 0.913 0.04526 0.0
C251 C 0.59103 0.87752 0.05793 0.0
C252 C 0.61176 0.96341 0.01638 0.0
C253 C 0.63497 0.99759 0.03001 0.0
C254 C 0.60741 0.96502 0.98957 0.0
C255 C 0.58546 0.92964 0.97385 0.0
C256 C 0.59498 0.90022 0.97445 0.0
C257 C 0.57484 0.86736 0.95915 0.0
C258 C 0.54527 0.86369 0.94305 0.0
C259 C 0.53555 0.89273 0.94236 0.0
C260 C 0.55561 0.92566 0.95762 0.0
C261 C 0.72363 0.13237 0.96437 0.0
C262 C 0.70071 0.14305 0.95 0.0
C263 C 0.7067 0.09716 0.97747 0.0
C264 C 0.66657 0.07221 0.97653 0.0
C265 C 0.64379 0.08254 0.96177 0.0
C266 C 0.66067 0.11766 0.94867 0.0
C267 C 0.64811 0.03526 0.99086 0.0
C268 C 0.62539 0.00096 0.97721 0.0
C269 C 0.65298 0.03359 0.01764 0.0
C270 C 0.67527 0.0689 0.03336 0.0
C271 C 0.6658 0.09838 0.03328 0.0
C272 C 0.68694 0.13152 0.04818 0.0
C273 C 0.71741 0.13536 0.06342 0.0
C274 C 0.72681 0.10609 0.06378 0.0
C275 C 0.70581 0.07293 0.04888 0.0
H276 H 0.73366 0.16094 0.07503 0.0
H277 H 0.52995 0.83839 0.93105 0.0
H278 H 0.74186 0.58508 0.20324 0.0
H279 H 0.71144 0.61685 0.18094 0.0
H280 H 0.59894 0.5227 0.20138 0.0
H281 H 0.62914 0.49049 0.22327 0.0
H282 H 0.60052 0.54207 0.15227 0.0
H283 H 0.63877 0.60963 0.23271 0.0
H284 H 0.68415 0.64691 0.26738 0.0
H285 H 0.75317 0.73751 0.21422 0.0
H286 H 0.70846 0.70051 0.17914 0.0
H287 H 0.48958 0.63262 0.12611 0.0
H288 H 0.52132 0.60024 0.14583 0.0
H289 H 0.63253 0.69543 0.1242 0.0
H290 H 0.60101 0.72821 0.10482 0.0
H291 H 0.63256 0.67588 0.17312 0.0
H292 H 0.59319 0.60879 0.0928 0.0
H293 H 0.54749 0.57146 0.0583 0.0
H294 H 0.48021 0.47994 0.11131 0.0
H295 H 0.52523 0.51697 0.14623 0.0
C296 C 0.71065 0.57125 0.20306 0.0
C297 C 0.68787 0.53538 0.21506 0.0
C298 C 0.69331 0.58947 0.19037 0.0
C299 C 0.65291 0.57231 0.18971 0.0
C300 C 0.63015 0.53644 0.20164 0.0
C301 C 0.64745 0.51816 0.21423 0.0
C302 C 0.63426 0.5915 0.17637 0.0
C303 C 0.60716 0.57117 0.15704 0.0
C304 C 0.64362 0.62978 0.18217 0.0
C305 C 0.67048 0.65212 0.20325 0.0
C306 C 0.66379 0.63736 0.22837 0.0
C307 C 0.68936 0.65847 0.24811 0.0
C308 C 0.72158 0.69451 0.24299 0.0
C309 C 0.72823 0.70956 0.21814 0.0
C310 C 0.70277 0.68855 0.19833 0.0
C311 C 0.52077 0.64647 0.12538 0.0
C312 C 0.54283 0.68292 0.11392 0.0
C313 C 0.53887 0.6279 0.13657 0.0
C314 C 0.5793 0.6453 0.13631 0.0
C315 C 0.60131 0.6815 0.12463 0.0
C316 C 0.58325 0.70012 0.1135 0.0
C317 C 0.59874 0.62644 0.14905 0.0
C318 C 0.62598 0.64683 0.16829 0.0
C319 C 0.58947 0.5882 0.14317 0.0
C320 C 0.5624 0.56583 0.12219 0.0
C321 C 0.56848 0.58084 0.09715 0.0
C322 C 0.54273 0.55971 0.07751 0.0
C323 C 0.51091 0.5234 0.08262 0.0
C324 C 0.50484 0.50809 0.10738 0.0
C325 C 0.53049 0.52913 0.1271 0.0
H326 H 0.49101 0.50708 0.06739 0.0
H327 H 0.74134 0.71081 0.25829 0.0
H328 H 0.12613 0.63414 0.39675 0.0
H329 H 0.06304 0.60084 0.37567 0.0
H330 H 0.07055 0.7104 0.36025 0.0
H331 H 0.1332 0.74377 0.38179 0.0
H332 H 0.99911 0.6581 0.37472 0.0
H333 H 0.0921 0.66321 0.31398 0.0
H334 H 0.1447 0.65286 0.29892 0.0
H335 H 0.07268 0.53067 0.30994 0.0
H336 H 0.01981 0.54035 0.32542 0.0
H337 H 0.85437 0.59397 0.27847 0.0
H338 H 0.9161 0.62754 0.30125 0.0
H339 H 0.91039 0.51855 0.31569 0.0
H340 H 0.84928 0.48502 0.29242 0.0
H341 H 0.98096 0.57088 0.30182 0.0
H342 H 0.88779 0.5658 0.36246 0.0
H343 H 0.83528 0.57631 0.37751 0.0
H344 H 0.90758 0.69848 0.36657 0.0
H345 H 0.96037 0.68864 0.35112 0.0
C346 C 0.11415 0.65108 0.38908 0.0
C347 C 0.13466 0.69155 0.39078 0.0
C348 C 0.07821 0.63205 0.37693 0.0
C349 C 0.0624 0.65319 0.36599 0.0
C350 C 0.08225 0.69352 0.36848 0.0
C351 C 0.11807 0.71255 0.38075 0.0
C352 C 0.0257 0.63342 0.35135 0.0
C353 C 0.99527 0.63937 0.35859 0.0
C354 C 0.02047 0.60845 0.33059 0.0
C355 C 0.05213 0.60255 0.32109 0.0
C356 C 0.08757 0.63416 0.31336 0.0
C357 C 0.11742 0.62841 0.30472 0.0
C358 C 0.11207 0.59114 0.30353 0.0
C359 C 0.0768 0.55953 0.31091 0.0
C360 C 0.04688 0.56512 0.31959 0.0
C361 C 0.86639 0.57723 0.28643 0.0
C362 C 0.84698 0.53689 0.28374 0.0
C363 C 0.90154 0.5964 0.29955 0.0
C364 C 0.91759 0.5755 0.31053 0.0
C365 C 0.89854 0.53527 0.30744 0.0
C366 C 0.86358 0.51614 0.29417 0.0
C367 C 0.95425 0.59541 0.32523 0.0
C368 C 0.98473 0.58955 0.31797 0.0
C369 C 0.95951 0.62046 0.34596 0.0
C370 C 0.92789 0.62644 0.35541 0.0
C371 C 0.89239 0.59488 0.3631 0.0
C372 C 0.8626 0.60072 0.37173 0.0
C373 C 0.86806 0.63803 0.37294 0.0
C374 C 0.90337 0.6696 0.3656 0.0
C375 C 0.93325 0.66391 0.35692 0.0
H376 H 0.84495 0.6425 0.37962 0.0
H377 H 0.13521 0.58674 0.29685 0.0
H378 H 0.59661 0.28149 0.51555 0.0
H379 H 0.62291 0.30631 0.47301 0.0
H380 H 0.568 0.37581 0.47364 0.0
H381 H 0.54013 0.34954 0.51568 0.0
H382 H 0.55649 0.34339 0.42991 0.0
H383 H 0.66926 0.4142 0.48169 0.0
H384 H 0.71849 0.42366 0.51381 0.0
H385 H 0.75184 0.35553 0.46842 0.0
H386 H 0.70245 0.34523 0.43617 0.0
H387 H 0.66444 0.46728 0.32622 0.0
H388 H 0.63812 0.44122 0.36863 0.0
H389 H 0.67076 0.35419 0.35927 0.0
H390 H 0.69684 0.37987 0.31664 0.0
H391 H 0.69402 0.39518 0.40673 0.0
H392 H 0.58008 0.32686 0.35439 0.0
H393 H 0.53224 0.32158 0.32243 0.0
H394 H 0.50314 0.39115 0.36982 0.0
H395 H 0.55123 0.3973 0.40192 0.0
C396 C 0.59052 0.30239 0.50671 0.0
C397 C 0.56645 0.31371 0.5189 0.0
C398 C 0.60569 0.31669 0.48242 0.0
C399 C 0.59791 0.34338 0.47017 0.0
C400 C 0.5744 0.35522 0.48263 0.0
C401 C 0.55863 0.34036 0.50669 0.0
C402 C 0.61286 0.35772 0.44395 0.0
C403 C 0.5867 0.35524 0.42502 0.0
C404 C 0.65213 0.37247 0.43728 0.0
C405 C 0.68189 0.37864 0.45664 0.0
C406 C 0.68689 0.40099 0.47865 0.0
C407 C 0.71486 0.40654 0.49687 0.0
C408 C 0.73821 0.39012 0.4932 0.0
C409 C 0.7337 0.36819 0.47126 0.0
C410 C 0.70575 0.36251 0.45299 0.0
C411 C 0.66571 0.44239 0.3331 0.0
C412 C 0.68259 0.42552 0.31813 0.0
C413 C 0.65065 0.42754 0.3573 0.0
C414 C 0.65245 0.39576 0.367 0.0
C415 C 0.66914 0.37874 0.35207 0.0
C416 C 0.68381 0.3933 0.32771 0.0
C417 C 0.63768 0.38092 0.393 0.0
C418 C 0.66386 0.38331 0.4118 0.0
C419 C 0.5986 0.36669 0.39966 0.0
C420 C 0.56952 0.36284 0.38044 0.0
C421 C 0.56371 0.3413 0.3579 0.0
C422 C 0.5365 0.3381 0.33978 0.0
C423 C 0.51473 0.3561 0.34406 0.0
C424 C 0.52005 0.37725 0.36652 0.0
C425 C 0.54725 0.38057 0.38469 0.0
H426 H 0.49367 0.35358 0.33001 0.0
H427 H 0.75984 0.39446 0.50732 0.0
H428 H 0.25449 0.65185 0.4706 0.0
H429 H 0.25681 0.62466 0.51235 0.0
H430 H 0.24681 0.71479 0.55071 0.0
H431 H 0.24397 0.74176 0.50922 0.0
H432 H 0.30626 0.70205 0.57036 0.0
H433 H 0.17062 0.6305 0.54811 0.0
H434 H 0.11552 0.58948 0.52 0.0
H435 H 0.14647 0.501 0.52187 0.0
H436 H 0.20211 0.54176 0.54971 0.0
H437 H 0.27064 0.62818 0.69731 0.0
H438 H 0.26877 0.65563 0.6557 0.0
H439 H 0.24751 0.55044 0.61826 0.0
H440 H 0.24708 0.52233 0.65986 0.0
H441 H 0.2045 0.57135 0.59733 0.0
H442 H 0.33916 0.6393 0.61814 0.0
H443 H 0.39696 0.67906 0.64447 0.0
H444 H 0.37264 0.77218 0.64322 0.0
H445 H 0.3144 0.73279 0.61714 0.0
C446 C 0.25271 0.66577 0.48795 0.0
C447 C 0.2489 0.6988 0.48667 0.0
C448 C 0.254 0.65022 0.51174 0.0
C449 C 0.25189 0.66772 0.53457 0.0
C450 C 0.24853 0.70093 0.53331 0.0
C451 C 0.24672 0.71615 0.50959 0.0
C452 C 0.253 0.65139 0.55985 0.0
C453 C 0.28387 0.67363 0.57645 0.0
C454 C 0.22433 0.61393 0.56737 0.0
C455 C 0.19074 0.58934 0.55078 0.0
C456 C 0.16586 0.60243 0.54235 0.0
C457 C 0.1345 0.57921 0.5265 0.0
C458 C 0.12756 0.5427 0.5191 0.0
C459 C 0.15191 0.52931 0.52759 0.0
C460 C 0.18334 0.55244 0.54342 0.0
C461 C 0.26559 0.61105 0.68015 0.0
C462 C 0.25899 0.57319 0.68176 0.0
C463 C 0.26479 0.6268 0.65634 0.0
C464 C 0.25864 0.60541 0.63364 0.0
C465 C 0.25222 0.56759 0.63538 0.0
C466 C 0.25208 0.55156 0.65918 0.0
C467 C 0.25804 0.62188 0.60812 0.0
C468 C 0.22715 0.59972 0.59139 0.0
C469 C 0.28716 0.65916 0.60028 0.0
C470 C 0.32221 0.68295 0.6159 0.0
C471 C 0.34599 0.66816 0.62363 0.0
C472 C 0.37885 0.69064 0.63849 0.0
C473 C 0.38841 0.72808 0.64557 0.0
C474 C 0.36518 0.74315 0.63775 0.0
C475 C 0.33226 0.72078 0.62291 0.0
H476 H 0.41386 0.74544 0.65707 0.0
H477 H 0.10327 0.52476 0.50683 0.0
H478 H 0.70963 0.21012 0.82913 0.0
H479 H 0.683 0.21183 0.78734 0.0
H480 H 0.64705 0.28941 0.81753 0.0
H481 H 0.67476 0.2887 0.85926 0.0
H482 H 0.61415 0.19039 0.7711 0.0
H483 H 0.65088 0.35033 0.77095 0.0
H484 H 0.70013 0.41305 0.78869 0.0
H485 H 0.78157 0.3729 0.79219 0.0
H486 H 0.733 0.31018 0.77416 0.0
H487 H 0.50837 0.21773 0.67357 0.0
H488 H 0.53833 0.21725 0.71423 0.0
H489 H 0.65114 0.29026 0.68146 0.0
H490 H 0.62112 0.29187 0.64086 0.0
H491 H 0.64935 0.31405 0.72764 0.0
H492 H 0.61418 0.19178 0.69051 0.0
H493 H 0.57106 0.12888 0.67025 0.0
H494 H 0.49798 0.09329 0.73676 0.0
H495 H 0.5404 0.15619 0.75729 0.0
C496 C 0.69601 0.22751 0.82688 0.0
C497 C 0.6944 0.2494 0.84742 0.0
C498 C 0.68074 0.22841 0.80299 0.0
C499 C 0.66342 0.2511 0.79917 0.0
C500 C 0.66095 0.27229 0.81986 0.0
C501 C 0.67658 0.27169 0.84373 0.0
C502 C 0.64791 0.25239 0.77354 0.0
C503 C 0.62185 0.21744 0.76162 0.0
C504 C 0.65858 0.28764 0.76085 0.0
C505 C 0.68814 0.32543 0.77146 0.0
C506 C 0.67934 0.35495 0.77543 0.0
C507 C 0.70713 0.39049 0.78554 0.0
C508 C 0.74391 0.39691 0.79165 0.0
C509 C 0.75303 0.36785 0.78755 0.0
C510 C 0.72536 0.33228 0.77741 0.0
C511 C 0.53957 0.2336 0.675 0.0
C512 C 0.56245 0.25466 0.65401 0.0
C513 C 0.55667 0.23319 0.69824 0.0
C514 C 0.59703 0.25322 0.70082 0.0
C515 C 0.61995 0.27454 0.67991 0.0
C516 C 0.6028 0.27533 0.65671 0.0
C517 C 0.6152 0.25205 0.72539 0.0
C518 C 0.64168 0.287 0.73713 0.0
C519 C 0.6058 0.21677 0.73757 0.0
C520 C 0.5803 0.17883 0.72534 0.0
C521 C 0.58877 0.17063 0.70075 0.0
C522 C 0.56448 0.13497 0.68923 0.0
C523 C 0.53176 0.10714 0.70219 0.0
C524 C 0.52332 0.11489 0.72673 0.0
C525 C 0.5475 0.15052 0.73833 0.0
H526 H 0.51298 0.07955 0.69324 0.0
H527 H 0.76538 0.42443 0.79949 0.0
H528 H 0.36144 0.56562 0.8167 0.0
H529 H 0.38724 0.59082 0.85926 0.0
H530 H 0.30264 0.62681 0.86872 0.0
H531 H 0.27759 0.60281 0.82569 0.0
H532 H 0.36835 0.67887 0.88885 0.0
H533 H 0.29032 0.5417 0.8955 0.0
H534 H 0.26802 0.47381 0.88443 0.0
H535 H 0.37947 0.48967 0.90363 0.0
H536 H 0.40261 0.55784 0.91449 0.0
H537 H 0.38528 0.69416 0.02531 0.0
H538 H 0.35763 0.66979 0.98279 0.0
H539 H 0.45233 0.65096 0.96516 0.0
H540 H 0.4803 0.67559 0.00749 0.0
H541 H 0.37913 0.58969 0.95008 0.0
H542 H 0.45509 0.72828 0.945 0.0
H543 H 0.47326 0.79421 0.95849 0.0
H544 H 0.36107 0.77436 0.93721 0.0
H545 H 0.34156 0.70758 0.92465 0.0
C546 C 0.34864 0.57932 0.82773 0.0
C547 C 0.31735 0.58204 0.81796 0.0
C548 C 0.36323 0.59348 0.85214 0.0
C549 C 0.34629 0.60989 0.86749 0.0
C550 C 0.31606 0.61408 0.85732 0.0
C551 C 0.30176 0.60036 0.83273 0.0
C552 C 0.35939 0.62155 0.89438 0.0
C553 C 0.37019 0.65918 0.90232 0.0
C554 C 0.36216 0.59601 0.91197 0.0
C555 C 0.34829 0.55497 0.90558 0.0
C556 C 0.31015 0.53078 0.89719 0.0
C557 C 0.29735 0.49224 0.89098 0.0
C558 C 0.32234 0.47746 0.89327 0.0
C559 C 0.36016 0.50117 0.90184 0.0
C560 C 0.37312 0.53976 0.90805 0.0
C561 C 0.39995 0.68442 0.01247 0.0
C562 C 0.43501 0.6869 0.01965 0.0
C563 C 0.38421 0.67065 0.98818 0.0
C564 C 0.40315 0.65891 0.97079 0.0
C565 C 0.43733 0.65993 0.97831 0.0
C566 C 0.45329 0.67409 0.00245 0.0
C567 C 0.38824 0.64693 0.94439 0.0
C568 C 0.37712 0.60926 0.93658 0.0
C569 C 0.38469 0.67226 0.92708 0.0
C570 C 0.39669 0.7127 0.93416 0.0
C571 C 0.43412 0.73778 0.94343 0.0
C572 C 0.4447 0.77536 0.95088 0.0
C573 C 0.41842 0.78855 0.94861 0.0
C574 C 0.38142 0.76411 0.93896 0.0
C575 C 0.37053 0.72633 0.93176 0.0
H576 H 0.42674 0.81771 0.95432 0.0
H577 H 0.31238 0.44762 0.88845 0.0
H578 H 0.80482 0.33845 0.9894 0.0
H579 H 0.80063 0.36166 0.03193 0.0
H580 H 0.67651 0.30355 0.0254 0.0
H581 H 0.68062 0.28101 0.98245 0.0
H582 H 0.70266 0.37162 0.04809 0.0
H583 H 0.72031 0.26361 0.05884 0.0
H584 H 0.75078 0.22392 0.05198 0.0
H585 H 0.85584 0.31221 0.08598 0.0
H586 H 0.82633 0.35299 0.0924 0.0
H587 H 0.6753 0.38032 0.183 0.0
H588 H 0.67378 0.35265 0.14076 0.0
H589 H 0.7977 0.42263 0.13563 0.0
H590 H 0.79943 0.45072 0.17766 0.0
H591 H 0.76701 0.34404 0.11976 0.0
H592 H 0.74693 0.45282 0.10615 0.0
H593 H 0.71333 0.48961 0.11319 0.0
H594 H 0.60747 0.39366 0.08587 0.0
H595 H 0.64036 0.35608 0.07902 0.0
C596 C 0.77667 0.33098 0.9969 0.0
C597 C 0.74302 0.30771 0.9827 0.0
C598 C 0.77429 0.34408 0.02126 0.0
C599 C 0.7382 0.33364 0.03207 0.0
C600 C 0.70464 0.31178 0.01748 0.0
C601 C 0.70703 0.29891 0.99297 0.0
C602 C 0.73559 0.34458 0.05889 0.0
C603 C 0.71625 0.36508 0.0638 0.0
C604 C 0.75341 0.33613 0.07942 0.0
C605 C 0.77119 0.31153 0.0759 0.0
C606 C 0.75001 0.27472 0.06469 0.0
C607 C 0.7671 0.25199 0.06089 0.0
C608 C 0.80521 0.26549 0.06857 0.0
C609 C 0.82632 0.30179 0.08004 0.0
C610 C 0.80943 0.32475 0.08374 0.0
C611 C 0.70224 0.38945 0.17299 0.0
C612 C 0.73748 0.41775 0.18354 0.0
C613 C 0.7013 0.37375 0.14886 0.0
C614 C 0.73561 0.38586 0.13507 0.0
C615 C 0.77094 0.41296 0.14601 0.0
C616 C 0.77186 0.42902 0.16996 0.0
C617 C 0.73471 0.37155 0.10876 0.0
C618 C 0.75329 0.35032 0.10401 0.0
C619 C 0.71567 0.37877 0.08848 0.0
C620 C 0.69601 0.4015 0.09234 0.0
C621 C 0.71642 0.43946 0.10184 0.0
C622 C 0.69752 0.46048 0.10576 0.0
C623 C 0.65826 0.44395 0.10005 0.0
C624 C 0.63786 0.40641 0.09032 0.0
C625 C 0.65662 0.38524 0.08641 0.0
H626 H 0.64367 0.46026 0.10311 0.0
H627 H 0.81837 0.24782 0.06564 0.0
H628 H 0.34869 0.74217 0.36657 0.0
H629 H 0.37916 0.74147 0.32584 0.0
H630 H 0.29433 0.75675 0.2845 0.0
H631 H 0.26404 0.7578 0.32497 0.0
H632 H 0.30634 0.69822 0.26435 0.0
H633 H 0.38098 0.83152 0.29192 0.0
H634 H 0.42129 0.88323 0.32248 0.0
H635 H 0.50563 0.84667 0.32188 0.0
H636 H 0.46553 0.79439 0.29158 0.0
H637 H 0.38791 0.74156 0.14031 0.0
H638 H 0.35942 0.7423 0.18168 0.0
H639 H 0.46086 0.75564 0.22041 0.0
H640 H 0.49025 0.75735 0.179 0.0
H641 H 0.44076 0.79805 0.24317 0.0
H642 H 0.36987 0.66602 0.21652 0.0
H643 H 0.33047 0.61144 0.18761 0.0
H644 H 0.24056 0.64044 0.18848 0.0
H645 H 0.27964 0.69551 0.21714 0.0
C646 C 0.33662 0.74541 0.34879 0.0
C647 C 0.30409 0.75017 0.34894 0.0
C648 C 0.35406 0.74508 0.32557 0.0
C649 C 0.33904 0.74922 0.30219 0.0
C650 C 0.30632 0.7535 0.30233 0.0
C651 C 0.28917 0.75424 0.32548 0.0
C652 C 0.35733 0.74919 0.27748 0.0
C653 C 0.33561 0.7202 0.25955 0.0
C654 C 0.39587 0.77721 0.27163 0.0
C655 C 0.42008 0.80882 0.28969 0.0
C656 C 0.40797 0.83432 0.29847 0.0
C657 C 0.43081 0.86377 0.31571 0.0
C658 C 0.46595 0.86817 0.32417 0.0
C659 C 0.47838 0.8432 0.31534 0.0
C660 C 0.45563 0.81368 0.29812 0.0
C661 C 0.40408 0.74476 0.15769 0.0
C662 C 0.4412 0.74932 0.15651 0.0
C663 C 0.38769 0.74487 0.18137 0.0
C664 C 0.40755 0.74815 0.20435 0.0
C665 C 0.44484 0.75302 0.20306 0.0
C666 C 0.46161 0.75393 0.17938 0.0
C667 C 0.38979 0.74697 0.22972 0.0
C668 C 0.41156 0.77579 0.24785 0.0
C669 C 0.35148 0.71828 0.23595 0.0
C670 C 0.32785 0.6851 0.21879 0.0
C671 C 0.3418 0.6609 0.21041 0.0
C672 C 0.31951 0.62986 0.19409 0.0
C673 C 0.28308 0.62253 0.18617 0.0
C674 C 0.26881 0.64618 0.19461 0.0
C675 C 0.291 0.67728 0.21091 0.0
H676 H 0.26587 0.59849 0.17352 0.0
H677 H 0.48358 0.89098 0.33752 0.0
loop_
_geom_bond_atom_site_label_1
_geom_bond_atom_site_label_2
_geom_bond_distance
_geom_bond_site_symmetry_2
_ccdc_geom_bond_type
In0 O1 2.294 . S
In0 O2 2.326 . S
In0 O6 2.266 . S
In0 O7 2.326 . S
In0 O8 2.266 . S
In0 O9 2.326 . S
In0 O11 2.294 . S
In0 O12 2.326 . S
O1 In0 2.294 . S
O1 C10 1.240 . S
O2 In0 2.326 . S
O2 C10 1.252 . S
C3 O6 1.252 . S
C3 O7 1.260 . S
C4 O11 1.240 . S
C4 O12 1.252 . S
C5 O8 1.252 . S
C5 O9 1.260 . S
O6 In0 2.266 . S
O6 C3 1.252 . S
O7 In0 2.326 . S
O7 C3 1.260 . S
O8 In0 2.266 . S
O8 C5 1.252 . S
O9 In0 2.326 . S
O9 C5 1.260 . S
C10 O1 1.240 . S
C10 O2 1.252 . S
O11 In0 2.294 . S
O11 C4 1.240 . S
O12 In0 2.326 . S
O12 C4 1.252 . S
In13 O14 2.294 . S
In13 O15 2.326 . S
In13 O19 2.266 . S
In13 O20 2.326 . S
In13 O21 2.266 . S
In13 O22 2.326 . S
In13 O24 2.294 . S
In13 O25 2.326 . S
O14 In13 2.294 . S
O14 C23 1.240 . S
O15 In13 2.326 . S
O15 C23 1.252 . S
C16 O19 1.252 . S
C16 O20 1.260 . S
C17 O24 1.240 . S
C17 O25 1.252 . S
C18 O21 1.252 . S
C18 O22 1.260 . S
O19 In13 2.266 . S
O19 C16 1.252 . S
O20 In13 2.326 . S
O20 C16 1.260 . S
O21 In13 2.266 . S
O21 C18 1.252 . S
O22 In13 2.326 . S
O22 C18 1.260 . S
C23 O14 1.240 . S
C23 O15 1.252 . S
O24 In13 2.294 . S
O24 C17 1.240 . S
O25 In13 2.326 . S
O25 C17 1.252 . S
In26 O27 2.294 . S
In26 O28 2.326 . S
In26 O32 2.266 . S
In26 O33 2.326 . S
In26 O34 2.266 . S
In26 O35 2.326 . S
In26 O37 2.294 . S
In26 O38 2.326 . S
O27 In26 2.294 . S
O27 C36 1.240 . S
O28 In26 2.326 . S
O28 C36 1.252 . S
C29 O32 1.252 . S
C29 O33 1.260 . S
C30 O37 1.240 . S
C30 O38 1.252 . S
C31 O34 1.252 . S
C31 O35 1.260 . S
O32 In26 2.266 . S
O32 C29 1.252 . S
O33 In26 2.326 . S
O33 C29 1.260 . S
O34 In26 2.266 . S
O34 C31 1.252 . S
O35 In26 2.326 . S
O35 C31 1.260 . S
C36 O27 1.240 . S
C36 O28 1.252 . S
O37 In26 2.294 . S
O37 C30 1.240 . S
O38 In26 2.326 . S
O38 C30 1.252 . S
In39 O40 2.294 . S
In39 O41 2.326 . S
In39 O45 2.266 . S
In39 O46 2.326 . S
In39 O47 2.266 . S
In39 O48 2.326 . S
In39 O50 2.294 . S
In39 O51 2.326 . S
O40 In39 2.294 . S
O40 C49 1.240 . S
O41 In39 2.326 . S
O41 C49 1.252 . S
C42 O45 1.252 . S
C42 O46 1.260 . S
C43 O50 1.240 . S
C43 O51 1.252 . S
C44 O47 1.252 . S
C44 O48 1.260 . S
O45 In39 2.266 . S
O45 C42 1.252 . S
O46 In39 2.326 . S
O46 C42 1.260 . S
O47 In39 2.266 . S
O47 C44 1.252 . S
O48 In39 2.326 . S
O48 C44 1.260 . S
C49 O40 1.240 . S
C49 O41 1.252 . S
O50 In39 2.294 . S
O50 C43 1.240 . S
O51 In39 2.326 . S
O51 C43 1.252 . S
In52 O53 2.294 . S
In52 O54 2.326 . S
In52 O58 2.266 . S
In52 O59 2.326 . S
In52 O60 2.266 . S
In52 O61 2.326 . S
In52 O63 2.294 . S
In52 O64 2.326 . S
O53 In52 2.294 . S
O53 C62 1.240 . S
O54 In52 2.326 . S
O54 C62 1.252 . S
C55 O58 1.252 . S
C55 O59 1.260 . S
C56 O63 1.240 . S
C56 O64 1.252 . S
C57 O60 1.252 . S
C57 O61 1.260 . S
O58 In52 2.266 . S
O58 C55 1.252 . S
O59 In52 2.326 . S
O59 C55 1.260 . S
O60 In52 2.266 . S
O60 C57 1.252 . S
O61 In52 2.326 . S
O61 C57 1.260 . S
C62 O53 1.240 . S
C62 O54 1.252 . S
O63 In52 2.294 . S
O63 C56 1.240 . S
O64 In52 2.326 . S
O64 C56 1.252 . S
In65 O66 2.294 . S
In65 O67 2.326 . S
In65 O71 2.266 . S
In65 O72 2.326 . S
In65 O73 2.266 . S
In65 O74 2.326 . S
In65 O76 2.294 . S
In65 O77 2.326 . S
O66 In65 2.294 . S
O66 C75 1.240 . S
O67 In65 2.326 . S
O67 C75 1.252 . S
C68 O71 1.252 . S
C68 O72 1.260 . S
C69 O76 1.240 . S
C69 O77 1.252 . S
C70 O73 1.252 . S
C70 O74 1.260 . S
O71 In65 2.266 . S
O71 C68 1.252 . S
O72 In65 2.326 . S
O72 C68 1.260 . S
O73 In65 2.266 . S
O73 C70 1.252 . S
O74 In65 2.326 . S
O74 C70 1.260 . S
C75 O66 1.240 . S
C75 O67 1.252 . S
O76 In65 2.294 . S
O76 C69 1.240 . S
O77 In65 2.326 . S
O77 C69 1.252 . S
H78 C96 0.951 . S
H79 C98 0.951 . S
H80 C100 0.950 . S
H81 C101 0.950 . S
H82 C103 0.950 . S
H83 C106 0.950 . S
H84 C107 0.950 . S
H85 C109 0.950 . S
H86 C110 0.950 . S
H87 C111 0.951 . S
H88 C113 0.951 . S
H89 C115 0.950 . S
H90 C116 0.950 . S
H91 C118 0.950 . S
H92 C121 0.950 . S
H93 C122 0.950 . S
H94 C124 0.950 . S
H95 C125 0.950 . S
C96 H78 0.951 . S
C96 C97 1.366 . S
C96 C98 1.388 . S
C97 C96 1.366 . S
C97 C101 1.385 . S
C98 H79 0.951 . S
C98 C96 1.388 . S
C98 C99 1.366 . S
C99 C98 1.366 . S
C99 C100 1.414 . S
C99 C102 1.499 . S
C100 H80 0.950 . S
C100 C99 1.414 . S
C100 C101 1.374 . S
C101 H81 0.950 . S
C101 C97 1.385 . S
C101 C100 1.374 . S
C102 C99 1.499 . S
C102 C103 1.373 . S
C102 C104 1.389 . S
C103 H82 0.950 . S
C103 C102 1.373 . S
C103 C119 1.377 1_545 S
C104 C102 1.389 . S
C104 C105 1.524 . S
C104 C118 1.377 1_545 S
C105 C104 1.524 . S
C105 C106 1.397 . S
C105 C110 1.363 . S
C106 H83 0.950 . S
C106 C105 1.397 . S
C106 C107 1.334 . S
C107 H84 0.950 . S
C107 C106 1.334 . S
C107 C108 1.287 . S
C108 C107 1.287 . S
C108 C109 1.524 . S
C108 H127 0.913 . S
C109 H85 0.950 . S
C109 C108 1.524 . S
C109 C110 1.415 . S
C110 H86 0.950 . S
C110 C105 1.363 . S
C110 C109 1.415 . S
C111 H87 0.951 . S
C111 C112 1.366 . S
C111 C113 1.388 . S
C112 C111 1.366 . S
C112 C116 1.385 . S
C113 H88 0.951 . S
C113 C111 1.388 . S
C113 C114 1.366 . S
C114 C113 1.366 . S
C114 C115 1.414 . S
C114 C117 1.499 . S
C115 H89 0.950 . S
C115 C114 1.414 . S
C115 C116 1.374 . S
C116 H90 0.950 . S
C116 C112 1.385 . S
C116 C115 1.374 . S
C117 C114 1.499 . S
C117 C118 1.373 . S
C117 C119 1.389 . S
C118 H91 0.950 . S
C118 C104 1.377 1_565 S
C118 C117 1.373 . S
C119 C103 1.377 1_565 S
C119 C117 1.389 . S
C119 C120 1.524 . S
C120 C119 1.524 . S
C120 C121 1.397 . S
C120 C125 1.363 . S
C121 H92 0.950 . S
C121 C120 1.397 . S
C121 C122 1.334 . S
C122 H93 0.950 . S
C122 C121 1.334 . S
C122 C123 1.287 . S
C123 C122 1.287 . S
C123 C124 1.524 . S
C123 H126 0.999 . S
C124 H94 0.950 . S
C124 C123 1.524 . S
C124 C125 1.415 . S
C125 H95 0.950 . S
C125 C120 1.363 . S
C125 C124 1.415 . S
H126 C123 0.999 . S
H127 C108 0.913 . S
H128 C146 0.951 . S
H129 C148 0.951 . S
H130 C150 0.950 . S
H131 C151 0.950 . S
H132 C153 0.950 . S
H133 C156 0.950 . S
H134 C157 0.950 . S
H135 C159 0.950 . S
H136 C160 0.950 . S
H137 C161 0.951 . S
H138 C163 0.951 . S
H139 C165 0.950 . S
H140 C166 0.950 . S
H141 C168 0.950 . S
H142 C171 0.950 . S
H143 C172 0.950 . S
H144 C174 0.950 . S
H145 C175 0.950 . S
C146 H128 0.951 . S
C146 C147 1.366 . S
C146 C148 1.388 . S
C147 C146 1.366 . S
C147 C151 1.385 . S
C148 H129 0.951 . S
C148 C146 1.388 . S
C148 C149 1.366 . S
C149 C148 1.366 . S
C149 C150 1.414 . S
C149 C152 1.499 . S
C150 H130 0.950 . S
C150 C149 1.414 . S
C150 C151 1.374 . S
C151 H131 0.950 . S
C151 C147 1.385 . S
C151 C150 1.374 . S
C152 C149 1.499 . S
C152 C153 1.373 . S
C152 C154 1.389 . S
C153 H132 0.950 . S
C153 C152 1.373 . S
C153 C169 1.377 . S
C154 C152 1.389 . S
C154 C155 1.524 . S
C154 C168 1.377 . S
C155 C154 1.524 . S
C155 C156 1.397 . S
C155 C160 1.363 . S
C156 H133 0.950 . S
C156 C155 1.397 . S
C156 C157 1.334 . S
C157 H134 0.950 . S
C157 C156 1.334 . S
C157 C158 1.287 . S
C158 C157 1.287 . S
C158 C159 1.524 . S
C158 H177 0.913 . S
C159 H135 0.950 . S
C159 C158 1.524 . S
C159 C160 1.415 . S
C160 H136 0.950 . S
C160 C155 1.363 . S
C160 C159 1.415 . S
C161 H137 0.951 . S
C161 C162 1.366 . S
C161 C163 1.388 . S
C162 C161 1.366 . S
C162 C166 1.385 . S
C163 H138 0.951 . S
C163 C161 1.388 . S
C163 C164 1.366 . S
C164 C163 1.366 . S
C164 C165 1.414 . S
C164 C167 1.499 . S
C165 H139 0.950 . S
C165 C164 1.414 . S
C165 C166 1.374 . S
C166 H140 0.950 . S
C166 C162 1.385 . S
C166 C165 1.374 . S
C167 C164 1.499 . S
C167 C168 1.373 . S
C167 C169 1.389 . S
C168 H141 0.950 . S
C168 C154 1.377 . S
C168 C167 1.373 . S
C169 C153 1.377 . S
C169 C167 1.389 . S
C169 C170 1.524 . S
C170 C169 1.524 . S
C170 C171 1.397 . S
C170 C175 1.363 . S
C171 H142 0.950 . S
C171 C170 1.397 . S
C171 C172 1.334 . S
C172 H143 0.950 . S
C172 C171 1.334 . S
C172 C173 1.287 . S
C173 C172 1.287 . S
C173 C174 1.524 . S
C173 H176 0.999 . S
C174 H144 0.950 . S
C174 C173 1.524 . S
C174 C175 1.415 . S
C175 H145 0.950 . S
C175 C170 1.363 . S
C175 C174 1.415 . S
H176 C173 0.999 . S
H177 C158 0.913 . S
H178 C196 0.951 . S
H179 C198 0.951 . S
H180 C200 0.950 . S
H181 C201 0.950 . S
H182 C203 0.950 . S
H183 C206 0.950 . S
H184 C207 0.950 . S
H185 C209 0.950 . S
H186 C210 0.950 . S
H187 C211 0.951 . S
H188 C213 0.951 . S
H189 C215 0.950 . S
H190 C216 0.950 . S
H191 C218 0.950 . S
H192 C221 0.950 . S
H193 C222 0.950 . S
H194 C224 0.950 . S
H195 C225 0.950 . S
C196 H178 0.951 . S
C196 C197 1.366 . S
C196 C198 1.388 . S
C197 C196 1.366 . S
C197 C201 1.385 . S
C198 H179 0.951 . S
C198 C196 1.388 . S
C198 C199 1.366 . S
C199 C198 1.366 . S
C199 C200 1.414 . S
C199 C202 1.499 . S
C200 H180 0.950 . S
C200 C199 1.414 . S
C200 C201 1.374 . S
C201 H181 0.950 . S
C201 C197 1.385 . S
C201 C200 1.374 . S
C202 C199 1.499 . S
C202 C203 1.373 . S
C202 C204 1.389 . S
C203 H182 0.950 . S
C203 C202 1.373 . S
C203 C219 1.377 1_655 S
C204 C202 1.389 . S
C204 C205 1.524 . S
C204 C218 1.377 1_655 S
C205 C204 1.524 . S
C205 C206 1.397 . S
C205 C210 1.363 1_655 S
C206 H183 0.950 . S
C206 C205 1.397 . S
C206 C207 1.334 . S
C207 H184 0.950 . S
C207 C206 1.334 . S
C207 C208 1.287 . S
C208 C207 1.287 . S
C208 C209 1.524 1_655 S
C208 H227 0.913 . S
C209 H185 0.950 . S
C209 C208 1.524 1_455 S
C209 C210 1.415 . S
C210 H186 0.950 . S
C210 C205 1.363 1_455 S
C210 C209 1.415 . S
C211 H187 0.951 . S
C211 C212 1.366 . S
C211 C213 1.388 . S
C212 C211 1.366 . S
C212 C216 1.385 . S
C213 H188 0.951 . S
C213 C211 1.388 . S
C213 C214 1.366 . S
C214 C213 1.366 . S
C214 C215 1.414 . S
C214 C217 1.499 . S
C215 H189 0.950 . S
C215 C214 1.414 . S
C215 C216 1.374 . S
C216 H190 0.950 . S
C216 C212 1.385 . S
C216 C215 1.374 . S
C217 C214 1.499 . S
C217 C218 1.373 . S
C217 C219 1.389 . S
C218 H191 0.950 . S
C218 C204 1.377 1_455 S
C218 C217 1.373 . S
C219 C203 1.377 1_455 S
C219 C217 1.389 . S
C219 C220 1.524 . S
C220 C219 1.524 . S
C220 C221 1.397 . S
C220 C225 1.363 1_455 S
C221 H192 0.950 . S
C221 C220 1.397 . S
C221 C222 1.334 . S
C222 H193 0.950 . S
C222 C221 1.334 . S
C222 C223 1.287 . S
C223 C222 1.287 . S
C223 C224 1.524 1_455 S
C223 H226 0.999 . S
C224 H194 0.950 . S
C224 C223 1.524 1_655 S
C224 C225 1.415 . S
C225 H195 0.950 . S
C225 C220 1.363 1_655 S
C225 C224 1.415 . S
H226 C223 0.999 . S
H227 C208 0.913 . S
H228 C246 0.951 . S
H229 C248 0.951 . S
H230 C250 0.950 . S
H231 C251 0.950 . S
H232 C253 0.950 . S
H233 C256 0.950 . S
H234 C257 0.950 . S
H235 C259 0.950 . S
H236 C260 0.950 . S
H237 C261 0.951 . S
H238 C263 0.951 . S
H239 C265 0.950 . S
H240 C266 0.950 . S
H241 C268 0.950 . S
H242 C271 0.950 . S
H243 C272 0.950 . S
H244 C274 0.950 . S
H245 C275 0.950 . S
C246 H228 0.951 . S
C246 C247 1.366 . S
C246 C248 1.388 . S
C247 C246 1.366 . S
C247 C251 1.385 . S
C248 H229 0.951 . S
C248 C246 1.388 . S
C248 C249 1.366 . S
C249 C248 1.366 . S
C249 C250 1.414 . S
C249 C252 1.499 . S
C250 H230 0.950 . S
C250 C249 1.414 . S
C250 C251 1.374 . S
C251 H231 0.950 . S
C251 C247 1.385 . S
C251 C250 1.374 . S
C252 C249 1.499 . S
C252 C253 1.373 . S
C252 C254 1.389 1_554 S
C253 H232 0.950 . S
C253 C252 1.373 . S
C253 C269 1.377 1_565 S
C254 C252 1.389 1_556 S
C254 C255 1.524 . S
C254 C268 1.377 1_565 S
C255 C254 1.524 . S
C255 C256 1.397 . S
C255 C260 1.363 . S
C256 H233 0.950 . S
C256 C255 1.397 . S
C256 C257 1.334 . S
C257 H234 0.950 . S
C257 C256 1.334 . S
C257 C258 1.287 . S
C258 C257 1.287 . S
C258 C259 1.524 . S
C258 H277 0.913 . S
C259 H235 0.950 . S
C259 C258 1.524 . S
C259 C260 1.415 . S
C260 H236 0.950 . S
C260 C255 1.363 . S
C260 C259 1.415 . S
C261 H237 0.951 . S
C261 C262 1.366 . S
C261 C263 1.388 . S
C262 C261 1.366 . S
C262 C266 1.385 . S
C263 H238 0.951 . S
C263 C261 1.388 . S
C263 C264 1.366 . S
C264 C263 1.366 . S
C264 C265 1.414 . S
C264 C267 1.499 . S
C265 H239 0.950 . S
C265 C264 1.414 . S
C265 C266 1.374 . S
C266 H240 0.950 . S
C266 C262 1.385 . S
C266 C265 1.374 . S
C267 C264 1.499 . S
C267 C268 1.373 . S
C267 C269 1.389 1_556 S
C268 H241 0.950 . S
C268 C254 1.377 1_545 S
C268 C267 1.373 . S
C269 C253 1.377 1_545 S
C269 C267 1.389 1_554 S
C269 C270 1.524 . S
C270 C269 1.524 . S
C270 C271 1.397 . S
C270 C275 1.363 . S
C271 H242 0.950 . S
C271 C270 1.397 . S
C271 C272 1.334 . S
C272 H243 0.950 . S
C272 C271 1.334 . S
C272 C273 1.287 . S
C273 C272 1.287 . S
C273 C274 1.524 . S
C273 H276 0.999 . S
C274 H244 0.950 . S
C274 C273 1.524 . S
C274 C275 1.415 . S
C275 H245 0.950 . S
C275 C270 1.363 . S
C275 C274 1.415 . S
H276 C273 0.999 . S
H277 C258 0.913 . S
H278 C296 0.951 . S
H279 C298 0.951 . S
H280 C300 0.950 . S
H281 C301 0.950 . S
H282 C303 0.950 . S
H283 C306 0.950 . S
H284 C307 0.950 . S
H285 C309 0.950 . S
H286 C310 0.950 . S
H287 C311 0.951 . S
H288 C313 0.951 . S
H289 C315 0.950 . S
H290 C316 0.950 . S
H291 C318 0.950 . S
H292 C321 0.950 . S
H293 C322 0.950 . S
H294 C324 0.950 . S
H295 C325 0.950 . S
C296 H278 0.951 . S
C296 C297 1.366 . S
C296 C298 1.388 . S
C297 C296 1.366 . S
C297 C301 1.385 . S
C298 H279 0.951 . S
C298 C296 1.388 . S
C298 C299 1.366 . S
C299 C298 1.366 . S
C299 C300 1.414 . S
C299 C302 1.499 . S
C300 H280 0.950 . S
C300 C299 1.414 . S
C300 C301 1.374 . S
C301 H281 0.950 . S
C301 C297 1.385 . S
C301 C300 1.374 . S
C302 C299 1.499 . S
C302 C303 1.373 . S
C302 C304 1.389 . S
C303 H282 0.950 . S
C303 C302 1.373 . S
C303 C319 1.377 . S
C304 C302 1.389 . S
C304 C305 1.524 . S
C304 C318 1.377 . S
C305 C304 1.524 . S
C305 C306 1.397 . S
C305 C310 1.363 . S
C306 H283 0.950 . S
C306 C305 1.397 . S
C306 C307 1.334 . S
C307 H284 0.950 . S
C307 C306 1.334 . S
C307 C308 1.287 . S
C308 C307 1.287 . S
C308 C309 1.524 . S
C308 H327 0.913 . S
C309 H285 0.950 . S
C309 C308 1.524 . S
C309 C310 1.415 . S
C310 H286 0.950 . S
C310 C305 1.363 . S
C310 C309 1.415 . S
C311 H287 0.951 . S
C311 C312 1.366 . S
C311 C313 1.388 . S
C312 C311 1.366 . S
C312 C316 1.385 . S
C313 H288 0.951 . S
C313 C311 1.388 . S
C313 C314 1.366 . S
C314 C313 1.366 . S
C314 C315 1.414 . S
C314 C317 1.499 . S
C315 H289 0.950 . S
C315 C314 1.414 . S
C315 C316 1.374 . S
C316 H290 0.950 . S
C316 C312 1.385 . S
C316 C315 1.374 . S
C317 C314 1.499 . S
C317 C318 1.373 . S
C317 C319 1.389 . S
C318 H291 0.950 . S
C318 C304 1.377 . S
C318 C317 1.373 . S
C319 C303 1.377 . S
C319 C317 1.389 . S
C319 C320 1.524 . S
C320 C319 1.524 . S
C320 C321 1.397 . S
C320 C325 1.363 . S
C321 H292 0.950 . S
C321 C320 1.397 . S
C321 C322 1.334 . S
C322 H293 0.950 . S
C322 C321 1.334 . S
C322 C323 1.287 . S
C323 C322 1.287 . S
C323 C324 1.524 . S
C323 H326 0.999 . S
C324 H294 0.950 . S
C324 C323 1.524 . S
C324 C325 1.415 . S
C325 H295 0.950 . S
C325 C320 1.363 . S
C325 C324 1.415 . S
H326 C323 0.999 . S
H327 C308 0.913 . S
H328 C346 0.951 . S
H329 C348 0.951 . S
H330 C350 0.950 . S
H331 C351 0.950 . S
H332 C353 0.950 . S
H333 C356 0.950 . S
H334 C357 0.950 . S
H335 C359 0.950 1_655 S
H336 C360 0.950 1_655 S
H337 C361 0.951 . S
H338 C363 0.951 . S
H339 C365 0.950 . S
H340 C366 0.950 . S
H341 C368 0.950 . S
H342 C371 0.950 . S
H343 C372 0.950 . S
H344 C374 0.950 1_455 S
H345 C375 0.950 1_455 S
C346 H328 0.951 . S
C346 C347 1.366 . S
C346 C348 1.388 . S
C347 C346 1.366 . S
C347 C351 1.385 . S
C348 H329 0.951 . S
C348 C346 1.388 . S
C348 C349 1.366 . S
C349 C348 1.366 . S
C349 C350 1.414 . S
C349 C352 1.499 . S
C350 H330 0.950 . S
C350 C349 1.414 . S
C350 C351 1.374 . S
C351 H331 0.950 . S
C351 C347 1.385 . S
C351 C350 1.374 . S
C352 C349 1.499 . S
C352 C353 1.373 . S
C352 C354 1.389 . S
C353 H332 0.950 . S
C353 C352 1.373 . S
C353 C369 1.377 1_455 S
C354 C352 1.389 . S
C354 C355 1.524 . S
C354 C368 1.377 1_455 S
C355 C354 1.524 . S
C355 C356 1.397 . S
C355 C360 1.363 . S
C356 H333 0.950 . S
C356 C355 1.397 . S
C356 C357 1.334 . S
C357 H334 0.950 . S
C357 C356 1.334 . S
C357 C358 1.287 . S
C358 C357 1.287 . S
C358 C359 1.524 . S
C358 H377 0.913 . S
C359 H335 0.950 1_455 S
C359 C358 1.524 . S
C359 C360 1.415 . S
C360 H336 0.950 1_455 S
C360 C355 1.363 . S
C360 C359 1.415 . S
C361 H337 0.951 . S
C361 C362 1.366 . S
C361 C363 1.388 . S
C362 C361 1.366 . S
C362 C366 1.385 . S
C363 H338 0.951 . S
C363 C361 1.388 . S
C363 C364 1.366 . S
C364 C363 1.366 . S
C364 C365 1.414 . S
C364 C367 1.499 . S
C365 H339 0.950 . S
C365 C364 1.414 . S
C365 C366 1.374 . S
C366 H340 0.950 . S
C366 C362 1.385 . S
C366 C365 1.374 . S
C367 C364 1.499 . S
C367 C368 1.373 . S
C367 C369 1.389 . S
C368 H341 0.950 . S
C368 C354 1.377 1_655 S
C368 C367 1.373 . S
C369 C353 1.377 1_655 S
C369 C367 1.389 . S
C369 C370 1.524 . S
C370 C369 1.524 . S
C370 C371 1.397 . S
C370 C375 1.363 . S
C371 H342 0.950 . S
C371 C370 1.397 . S
C371 C372 1.334 . S
C372 H343 0.950 . S
C372 C371 1.334 . S
C372 C373 1.287 . S
C373 C372 1.287 . S
C373 C374 1.524 . S
C373 H376 0.999 . S
C374 H344 0.950 1_655 S
C374 C373 1.524 . S
C374 C375 1.415 . S
C375 H345 0.950 1_655 S
C375 C370 1.363 . S
C375 C374 1.415 . S
H376 C373 0.999 . S
H377 C358 0.913 . S
H378 C396 0.951 . S
H379 C398 0.951 . S
H380 C400 0.950 . S
H381 C401 0.950 . S
H382 C403 0.950 . S
H383 C406 0.950 . S
H384 C407 0.950 . S
H385 C409 0.950 . S
H386 C410 0.950 . S
H387 C411 0.951 . S
H388 C413 0.951 . S
H389 C415 0.950 . S
H390 C416 0.950 . S
H391 C418 0.950 . S
H392 C421 0.950 . S
H393 C422 0.950 . S
H394 C424 0.950 . S
H395 C425 0.950 . S
C396 H378 0.951 . S
C396 C397 1.366 . S
C396 C398 1.388 . S
C397 C396 1.366 . S
C397 C401 1.385 . S
C398 H379 0.951 . S
C398 C396 1.388 . S
C398 C399 1.366 . S
C399 C398 1.366 . S
C399 C400 1.414 . S
C399 C402 1.499 . S
C400 H380 0.950 . S
C400 C399 1.414 . S
C400 C401 1.374 . S
C401 H381 0.950 . S
C401 C397 1.385 . S
C401 C400 1.374 . S
C402 C399 1.499 . S
C402 C403 1.373 . S
C402 C404 1.389 . S
C403 H382 0.950 . S
C403 C402 1.373 . S
C403 C419 1.377 . S
C404 C402 1.389 . S
C404 C405 1.524 . S
C404 C418 1.377 . S
C405 C404 1.524 . S
C405 C406 1.397 . S
C405 C410 1.363 . S
C406 H383 0.950 . S
C406 C405 1.397 . S
C406 C407 1.334 . S
C407 H384 0.950 . S
C407 C406 1.334 . S
C407 C408 1.287 . S
C408 C407 1.287 . S
C408 C409 1.524 . S
C408 H427 0.913 . S
C409 H385 0.950 . S
C409 C408 1.524 . S
C409 C410 1.415 . S
C410 H386 0.950 . S
C410 C405 1.363 . S
C410 C409 1.415 . S
C411 H387 0.951 . S
C411 C412 1.366 . S
C411 C413 1.388 . S
C412 C411 1.366 . S
C412 C416 1.385 . S
C413 H388 0.951 . S
C413 C411 1.388 . S
C413 C414 1.366 . S
C414 C413 1.366 . S
C414 C415 1.414 . S
C414 C417 1.499 . S
C415 H389 0.950 . S
C415 C414 1.414 . S
C415 C416 1.374 . S
C416 H390 0.950 . S
C416 C412 1.385 . S
C416 C415 1.374 . S
C417 C414 1.499 . S
C417 C418 1.373 . S
C417 C419 1.389 . S
C418 H391 0.950 . S
C418 C404 1.377 . S
C418 C417 1.373 . S
C419 C403 1.377 . S
C419 C417 1.389 . S
C419 C420 1.524 . S
C420 C419 1.524 . S
C420 C421 1.397 . S
C420 C425 1.363 . S
C421 H392 0.950 . S
C421 C420 1.397 . S
C421 C422 1.334 . S
C422 H393 0.950 . S
C422 C421 1.334 . S
C422 C423 1.287 . S
C423 C422 1.287 . S
C423 C424 1.524 . S
C423 H426 0.999 . S
C424 H394 0.950 . S
C424 C423 1.524 . S
C424 C425 1.415 . S
C425 H395 0.950 . S
C425 C420 1.363 . S
C425 C424 1.415 . S
H426 C423 0.999 . S
H427 C408 0.913 . S
H428 C446 0.951 . S
H429 C448 0.951 . S
H430 C450 0.950 . S
H431 C451 0.950 . S
H432 C453 0.950 . S
H433 C456 0.950 . S
H434 C457 0.950 . S
H435 C459 0.950 . S
H436 C460 0.950 . S
H437 C461 0.951 . S
H438 C463 0.951 . S
H439 C465 0.950 . S
H440 C466 0.950 . S
H441 C468 0.950 . S
H442 C471 0.950 . S
H443 C472 0.950 . S
H444 C474 0.950 . S
H445 C475 0.950 . S
C446 H428 0.951 . S
C446 C447 1.366 . S
C446 C448 1.388 . S
C447 C446 1.366 . S
C447 C451 1.385 . S
C448 H429 0.951 . S
C448 C446 1.388 . S
C448 C449 1.366 . S
C449 C448 1.366 . S
C449 C450 1.414 . S
C449 C452 1.499 . S
C450 H430 0.950 . S
C450 C449 1.414 . S
C450 C451 1.374 . S
C451 H431 0.950 . S
C451 C447 1.385 . S
C451 C450 1.374 . S
C452 C449 1.499 . S
C452 C453 1.373 . S
C452 C454 1.389 . S
C453 H432 0.950 . S
C453 C452 1.373 . S
C453 C469 1.377 . S
C454 C452 1.389 . S
C454 C455 1.524 . S
C454 C468 1.377 . S
C455 C454 1.524 . S
C455 C456 1.397 . S
C455 C460 1.363 . S
C456 H433 0.950 . S
C456 C455 1.397 . S
C456 C457 1.334 . S
C457 H434 0.950 . S
C457 C456 1.334 . S
C457 C458 1.287 . S
C458 C457 1.287 . S
C458 C459 1.524 . S
C458 H477 0.913 . S
C459 H435 0.950 . S
C459 C458 1.524 . S
C459 C460 1.415 . S
C460 H436 0.950 . S
C460 C455 1.363 . S
C460 C459 1.415 . S
C461 H437 0.951 . S
C461 C462 1.366 . S
C461 C463 1.388 . S
C462 C461 1.366 . S
C462 C466 1.385 . S
C463 H438 0.951 . S
C463 C461 1.388 . S
C463 C464 1.366 . S
C464 C463 1.366 . S
C464 C465 1.414 . S
C464 C467 1.499 . S
C465 H439 0.950 . S
C465 C464 1.414 . S
C465 C466 1.374 . S
C466 H440 0.950 . S
C466 C462 1.385 . S
C466 C465 1.374 . S
C467 C464 1.499 . S
C467 C468 1.373 . S
C467 C469 1.389 . S
C468 H441 0.950 . S
C468 C454 1.377 . S
C468 C467 1.373 . S
C469 C453 1.377 . S
C469 C467 1.389 . S
C469 C470 1.524 . S
C470 C469 1.524 . S
C470 C471 1.397 . S
C470 C475 1.363 . S
C471 H442 0.950 . S
C471 C470 1.397 . S
C471 C472 1.334 . S
C472 H443 0.950 . S
C472 C471 1.334 . S
C472 C473 1.287 . S
C473 C472 1.287 . S
C473 C474 1.524 . S
C473 H476 0.999 . S
C474 H444 0.950 . S
C474 C473 1.524 . S
C474 C475 1.415 . S
C475 H445 0.950 . S
C475 C470 1.363 . S
C475 C474 1.415 . S
H476 C473 0.999 . S
H477 C458 0.913 . S
H478 C496 0.951 . S
H479 C498 0.951 . S
H480 C500 0.950 . S
H481 C501 0.950 . S
H482 C503 0.950 . S
H483 C506 0.950 . S
H484 C507 0.950 . S
H485 C509 0.950 . S
H486 C510 0.950 . S
H487 C511 0.951 . S
H488 C513 0.951 . S
H489 C515 0.950 . S
H490 C516 0.950 . S
H491 C518 0.950 . S
H492 C521 0.950 . S
H493 C522 0.950 . S
H494 C524 0.950 . S
H495 C525 0.950 . S
C496 H478 0.951 . S
C496 C497 1.366 . S
C496 C498 1.388 . S
C497 C496 1.366 . S
C497 C501 1.385 . S
C498 H479 0.951 . S
C498 C496 1.388 . S
C498 C499 1.366 . S
C499 C498 1.366 . S
C499 C500 1.414 . S
C499 C502 1.499 . S
C500 H480 0.950 . S
C500 C499 1.414 . S
C500 C501 1.374 . S
C501 H481 0.950 . S
C501 C497 1.385 . S
C501 C500 1.374 . S
C502 C499 1.499 . S
C502 C503 1.373 . S
C502 C504 1.389 . S
C503 H482 0.950 . S
C503 C502 1.373 . S
C503 C519 1.377 . S
C504 C502 1.389 . S
C504 C505 1.524 . S
C504 C518 1.377 . S
C505 C504 1.524 . S
C505 C506 1.397 . S
C505 C510 1.363 . S
C506 H483 0.950 . S
C506 C505 1.397 . S
C506 C507 1.334 . S
C507 H484 0.950 . S
C507 C506 1.334 . S
C507 C508 1.287 . S
C508 C507 1.287 . S
C508 C509 1.524 . S
C508 H527 0.913 . S
C509 H485 0.950 . S
C509 C508 1.524 . S
C509 C510 1.415 . S
C510 H486 0.950 . S
C510 C505 1.363 . S
C510 C509 1.415 . S
C511 H487 0.951 . S
C511 C512 1.366 . S
C511 C513 1.388 . S
C512 C511 1.366 . S
C512 C516 1.385 . S
C513 H488 0.951 . S
C513 C511 1.388 . S
C513 C514 1.366 . S
C514 C513 1.366 . S
C514 C515 1.414 . S
C514 C517 1.499 . S
C515 H489 0.950 . S
C515 C514 1.414 . S
C515 C516 1.374 . S
C516 H490 0.950 . S
C516 C512 1.385 . S
C516 C515 1.374 . S
C517 C514 1.499 . S
C517 C518 1.373 . S
C517 C519 1.389 . S
C518 H491 0.950 . S
C518 C504 1.377 . S
C518 C517 1.373 . S
C519 C503 1.377 . S
C519 C517 1.389 . S
C519 C520 1.524 . S
C520 C519 1.524 . S
C520 C521 1.397 . S
C520 C525 1.363 . S
C521 H492 0.950 . S
C521 C520 1.397 . S
C521 C522 1.334 . S
C522 H493 0.950 . S
C522 C521 1.334 . S
C522 C523 1.287 . S
C523 C522 1.287 . S
C523 C524 1.524 . S
C523 H526 0.999 . S
C524 H494 0.950 . S
C524 C523 1.524 . S
C524 C525 1.415 . S
C525 H495 0.950 . S
C525 C520 1.363 . S
C525 C524 1.415 . S
H526 C523 0.999 . S
H527 C508 0.913 . S
H528 C546 0.951 . S
H529 C548 0.951 . S
H530 C550 0.950 . S
H531 C551 0.950 . S
H532 C553 0.950 . S
H533 C556 0.950 . S
H534 C557 0.950 . S
H535 C559 0.950 . S
H536 C560 0.950 . S
H537 C561 0.951 . S
H538 C563 0.951 . S
H539 C565 0.950 . S
H540 C566 0.942 1_554 S
H541 C568 0.950 . S
H542 C571 0.950 . S
H543 C572 0.950 . S
H544 C574 0.950 . S
H545 C575 0.950 . S
C546 H528 0.951 . S
C546 C547 1.366 . S
C546 C548 1.388 . S
C547 C546 1.366 . S
C547 C551 1.385 . S
C548 H529 0.951 . S
C548 C546 1.388 . S
C548 C549 1.366 . S
C549 C548 1.366 . S
C549 C550 1.414 . S
C549 C552 1.499 . S
C550 H530 0.950 . S
C550 C549 1.414 . S
C550 C551 1.374 . S
C551 H531 0.950 . S
C551 C547 1.385 . S
C551 C550 1.374 . S
C552 C549 1.499 . S
C552 C553 1.373 . S
C552 C554 1.389 . S
C553 H532 0.950 . S
C553 C552 1.373 . S
C553 C569 1.377 . S
C554 C552 1.389 . S
C554 C555 1.524 . S
C554 C568 1.377 . S
C555 C554 1.524 . S
C555 C556 1.397 . S
C555 C560 1.363 . S
C556 H533 0.950 . S
C556 C555 1.397 . S
C556 C557 1.334 . S
C557 H534 0.950 . S
C557 C556 1.334 . S
C557 C558 1.287 . S
C558 C557 1.287 . S
C558 C559 1.524 . S
C558 H577 0.913 . S
C559 H535 0.950 . S
C559 C558 1.524 . S
C559 C560 1.415 . S
C560 H536 0.950 . S
C560 C555 1.363 . S
C560 C559 1.415 . S
C561 H537 0.951 . S
C561 C562 1.366 . S
C561 C563 1.388 1_554 S
C562 C561 1.366 . S
C562 C566 1.385 1_554 S
C563 H538 0.951 . S
C563 C561 1.388 1_556 S
C563 C564 1.366 . S
C564 C563 1.366 . S
C564 C565 1.414 . S
C564 C567 1.499 . S
C565 H539 0.950 . S
C565 C564 1.414 . S
C565 C566 1.374 . S
C566 H540 0.942 1_556 S
C566 C562 1.385 1_556 S
C566 C565 1.374 . S
C567 C564 1.499 . S
C567 C568 1.373 . S
C567 C569 1.389 . S
C568 H541 0.950 . S
C568 C554 1.377 . S
C568 C567 1.373 . S
C569 C553 1.377 . S
C569 C567 1.389 . S
C569 C570 1.524 . S
C570 C569 1.524 . S
C570 C571 1.397 . S
C570 C575 1.363 . S
C571 H542 0.950 . S
C571 C570 1.397 . S
C571 C572 1.334 . S
C572 H543 0.950 . S
C572 C571 1.334 . S
C572 C573 1.287 . S
C573 C572 1.287 . S
C573 C574 1.524 . S
C573 H576 0.999 . S
C574 H544 0.950 . S
C574 C573 1.524 . S
C574 C575 1.415 . S
C575 H545 0.950 . S
C575 C570 1.363 . S
C575 C574 1.415 . S
H576 C573 0.999 . S
H577 C558 0.913 . S
H578 C596 0.951 . S
H579 C598 0.951 . S
H580 C600 0.950 . S
H581 C601 0.950 1_556 S
H582 C603 0.950 . S
H583 C606 0.950 . S
H584 C607 0.950 . S
H585 C609 0.950 . S
H586 C610 0.950 . S
H587 C611 0.951 . S
H588 C613 0.951 . S
H589 C615 0.950 . S
H590 C616 0.950 . S
H591 C618 0.950 . S
H592 C621 0.950 . S
H593 C622 0.950 . S
H594 C624 0.950 . S
H595 C625 0.950 . S
C596 H578 0.951 . S
C596 C597 1.366 . S
C596 C598 1.388 1_556 S
C597 C596 1.366 . S
C597 C601 1.385 1_556 S
C598 H579 0.951 . S
C598 C596 1.388 1_554 S
C598 C599 1.366 . S
C599 C598 1.366 . S
C599 C600 1.414 . S
C599 C602 1.499 . S
C600 H580 0.950 . S
C600 C599 1.414 . S
C600 C601 1.374 . S
C601 H581 0.950 1_554 S
C601 C597 1.385 1_554 S
C601 C600 1.374 . S
C602 C599 1.499 . S
C602 C603 1.373 . S
C602 C604 1.389 . S
C603 H582 0.950 . S
C603 C602 1.373 . S
C603 C619 1.377 . S
C604 C602 1.389 . S
C604 C605 1.524 . S
C604 C618 1.377 . S
C605 C604 1.524 . S
C605 C606 1.397 . S
C605 C610 1.363 . S
C606 H583 0.950 . S
C606 C605 1.397 . S
C606 C607 1.334 . S
C607 H584 0.950 . S
C607 C606 1.334 . S
C607 C608 1.287 . S
C608 C607 1.287 . S
C608 C609 1.524 . S
C608 H627 0.913 . S
C609 H585 0.950 . S
C609 C608 1.524 . S
C609 C610 1.415 . S
C610 H586 0.950 . S
C610 C605 1.363 . S
C610 C609 1.415 . S
C611 H587 0.951 . S
C611 C612 1.366 . S
C611 C613 1.388 . S
C612 C611 1.366 . S
C612 C616 1.385 . S
C613 H588 0.951 . S
C613 C611 1.388 . S
C613 C614 1.366 . S
C614 C613 1.366 . S
C614 C615 1.414 . S
C614 C617 1.499 . S
C615 H589 0.950 . S
C615 C614 1.414 . S
C615 C616 1.374 . S
C616 H590 0.950 . S
C616 C612 1.385 . S
C616 C615 1.374 . S
C617 C614 1.499 . S
C617 C618 1.373 . S
C617 C619 1.389 . S
C618 H591 0.950 . S
C618 C604 1.377 . S
C618 C617 1.373 . S
C619 C603 1.377 . S
C619 C617 1.389 . S
C619 C620 1.524 . S
C620 C619 1.524 . S
C620 C621 1.397 . S
C620 C625 1.363 . S
C621 H592 0.950 . S
C621 C620 1.397 . S
C621 C622 1.334 . S
C622 H593 0.950 . S
C622 C621 1.334 . S
C622 C623 1.287 . S
C623 C622 1.287 . S
C623 C624 1.524 . S
C623 H626 0.999 . S
C624 H594 0.950 . S
C624 C623 1.524 . S
C624 C625 1.415 . S
C625 H595 0.950 . S
C625 C620 1.363 . S
C625 C624 1.415 . S
H626 C623 0.999 . S
H627 C608 0.913 . S
H628 C646 0.951 . S
H629 C648 0.951 . S
H630 C650 0.950 . S
H631 C651 0.950 . S
H632 C653 0.950 . S
H633 C656 0.950 . S
H634 C657 0.950 . S
H635 C659 0.950 . S
H636 C660 0.950 . S
H637 C661 0.951 . S
H638 C663 0.951 . S
H639 C665 0.950 . S
H640 C666 0.950 . S
H641 C668 0.950 . S
H642 C671 0.950 . S
H643 C672 0.950 . S
H644 C674 0.950 . S
H645 C675 0.950 . S
C646 H628 0.951 . S
C646 C647 1.366 . S
C646 C648 1.388 . S
C647 C646 1.366 . S
C647 C651 1.385 . S
C648 H629 0.951 . S
C648 C646 1.388 . S
C648 C649 1.366 . S
C649 C648 1.366 . S
C649 C650 1.414 . S
C649 C652 1.499 . S
C650 H630 0.950 . S
C650 C649 1.414 . S
C650 C651 1.374 . S
C651 H631 0.950 . S
C651 C647 1.385 . S
C651 C650 1.374 . S
C652 C649 1.499 . S
C652 C653 1.373 . S
C652 C654 1.389 . S
C653 H632 0.950 . S
C653 C652 1.373 . S
C653 C669 1.377 . S
C654 C652 1.389 . S
C654 C655 1.524 . S
C654 C668 1.377 . S
C655 C654 1.524 . S
C655 C656 1.397 . S
C655 C660 1.363 . S
C656 H633 0.950 . S
C656 C655 1.397 . S
C656 C657 1.334 . S
C657 H634 0.950 . S
C657 C656 1.334 . S
C657 C658 1.287 . S
C658 C657 1.287 . S
C658 C659 1.524 . S
C658 H677 0.913 . S
C659 H635 0.950 . S
C659 C658 1.524 . S
C659 C660 1.415 . S
C660 H636 0.950 . S
C660 C655 1.363 . S
C660 C659 1.415 . S
C661 H637 0.951 . S
C661 C662 1.366 . S
C661 C663 1.388 . S
C662 C661 1.366 . S
C662 C666 1.385 . S
C663 H638 0.951 . S
C663 C661 1.388 . S
C663 C664 1.366 . S
C664 C663 1.366 . S
C664 C665 1.414 . S
C664 C667 1.499 . S
C665 H639 0.950 . S
C665 C664 1.414 . S
C665 C666 1.374 . S
C666 H640 0.950 . S
C666 C662 1.385 . S
C666 C665 1.374 . S
C667 C664 1.499 . S
C667 C668 1.373 . S
C667 C669 1.389 . S
C668 H641 0.950 . S
C668 C654 1.377 . S
C668 C667 1.373 . S
C669 C653 1.377 . S
C669 C667 1.389 . S
C669 C670 1.524 . S
C670 C669 1.524 . S
C670 C671 1.397 . S
C670 C675 1.363 . S
C671 H642 0.950 . S
C671 C670 1.397 . S
C671 C672 1.334 . S
C672 H643 0.950 . S
C672 C671 1.334 . S
C672 C673 1.287 . S
C673 C672 1.287 . S
C673 C674 1.524 . S
C673 H676 0.999 . S
C674 H644 0.950 . S
C674 C673 1.524 . S
C674 C675 1.415 . S
C675 H645 0.950 . S
C675 C670 1.363 . S
C675 C674 1.415 . S
H676 C673 0.999 . S
H677 C658 0.913 . S
C97 C4 1.642 . S
C112 C68 1.644 . S
C147 C5 1.644 . S
C162 C23 1.643 . S
C197 C30 1.642 . S
C212 C16 1.644 . S
C247 C43 1.642 . S
C262 C31 1.644 . S
C297 C56 1.642 . S
C312 C44 1.644 . S
C347 C75 1.642 . S
C362 C57 1.644 . S
C397 C10 1.446 . S
C412 C55 1.447 . S
C447 C70 1.447 . S
C462 C17 1.446 . S
C497 C36 1.446 . S
C512 C3 1.447 . S
C547 C18 1.447 . S
C562 C49 1.446 . S
C597 C29 1.447 . S
C612 C62 1.446 . S
C647 C69 1.446 . S
C662 C42 1.447 . S
