# Generated by pormake.
# Topology wnr, (7)-cn, num edge types: 1
# Building blocks:
#     Node 0, Type 0, BuildingBlock: NUHQUE_clean_sbu_2, # of connection points: 7
#     Node 1, Type 0, BuildingBlock: NUHQUE_clean_sbu_2, # of connection points: 7
#     Node 2, Type 0, BuildingBlock: NUHQUE_clean_sbu_2, # of connection points: 7
#     Node 3, Type 0, BuildingBlock: NUHQUE_clean_sbu_2, # of connection points: 7
#     Node 4, Type 0, BuildingBlock: NUHQUE_clean_sbu_2, # of connection points: 7
#     Node 5, Type 0, BuildingBlock: NUHQUE_clean_sbu_2, # of connection points: 7
#     Edge 6, Type (0, 0), BuildingBlock: CIFDUS_clean_linker_0, # of connection points: 2
#     Edge 7, Type (0, 0), BuildingBlock: CIFDUS_clean_linker_0, # of connection points: 2
#     Edge 8, Type (0, 0), BuildingBlock: CIFDUS_clean_linker_0, # of connection points: 2
#     Edge 9, Type (0, 0), BuildingBlock: CIFDUS_clean_linker_0, # of connection points: 2
#     Edge 10, Type (0, 0), BuildingBlock: CIFDUS_clean_linker_0, # of connection points: 2
#     Edge 11, Type (0, 0), BuildingBlock: CIFDUS_clean_linker_0, # of connection points: 2
#     Edge 12, Type (0, 0), BuildingBlock: CIFDUS_clean_linker_0, # of connection points: 2
#     Edge 13, Type (0, 0), BuildingBlock: CIFDUS_clean_linker_0, # of connection points: 2
#     Edge 14, Type (0, 0), BuildingBlock: CIFDUS_clean_linker_0, # of connection points: 2
#     Edge 15, Type (0, 0), BuildingBlock: CIFDUS_clean_linker_0, # of connection points: 2
#     Edge 16, Type (0, 0), BuildingBlock: CIFDUS_clean_linker_0, # of connection points: 2
#     Edge 17, Type (0, 0), BuildingBlock: CIFDUS_clean_linker_0, # of connection points: 2
#     Edge 18, Type (0, 0), BuildingBlock: CIFDUS_clean_linker_0, # of connection points: 2
#     Edge 19, Type (0, 0), BuildingBlock: CIFDUS_clean_linker_0, # of connection points: 2
#     Edge 20, Type (0, 0), BuildingBlock: CIFDUS_clean_linker_0, # of connection points: 2
#     Edge 21, Type (0, 0), BuildingBlock: CIFDUS_clean_linker_0, # of connection points: 2
#     Edge 22, Type (0, 0), BuildingBlock: CIFDUS_clean_linker_0, # of connection points: 2
#     Edge 23, Type (0, 0), BuildingBlock: CIFDUS_clean_linker_0, # of connection points: 2
#     Edge 24, Type (0, 0), BuildingBlock: CIFDUS_clean_linker_0, # of connection points: 2
#     Edge 25, Type (0, 0), BuildingBlock: CIFDUS_clean_linker_0, # of connection points: 2
#     Edge 26, Type (0, 0), BuildingBlock: CIFDUS_clean_linker_0, # of connection points: 2
# Relax obj value: 0.189
# Max RMSD: 0.215
# Mean RMSD: 0.215
data_MOF--net-wnr--node1-NUHQUE_clean_sbu_2--edge1-CIFDUS_clean_linker_0
_symmetry_space_group_name_H-M    P1
_symmetry_Int_Tables_number       1
_symmetry_cell_setting            triclinic
loop_
_symmetry_equiv_pos_as_xyz
'x, y, z'
_cell_length_a     40.295616
_cell_length_b     40.680667
_cell_length_c     16.67008
_cell_angle_alpha  89.974974
_cell_angle_beta   89.719162
_cell_angle_gamma 120.11572
loop_
_atom_site_label
_atom_site_type_symbol
_atom_site_fract_x
_atom_site_fract_y
_atom_site_fract_z
_atom_type_partial_charge
O0 O 0.28034 0.46935 0.83299 0.0
Tb1 Tb 0.31082 0.48788 0.94659 0.0
Eu2 Eu 0.27659 0.44578 0.13893 0.0
C3 C 0.27735 0.4402 0.79243 0.0
O4 O 0.28727 0.41734 0.82662 0.0
C5 C 0.33832 0.43659 0.03809 0.0
O6 O 0.26924 0.44152 0.27431 0.0
C7 C 0.21401 0.39379 0.07166 0.0
C8 C 0.28578 0.47228 0.31912 0.0
O9 O 0.30748 0.50539 0.28453 0.0
C10 C 0.27304 0.51728 0.07384 0.0
C11 C 0.17218 0.37982 0.07286 0.0
C12 C 0.15204 0.37139 -0.00019 0.0
C13 C 0.11195 0.35558 -0.00039 0.0
C14 C 0.09242 0.34917 0.07257 0.0
C15 C 0.11155 0.3565 0.14578 0.0
C16 C 0.15166 0.37247 0.14592 0.0
O17 O 0.32353 0.44214 0.97236 0.0
O18 O 0.33037 0.44461 0.10945 0.0
O19 O 0.35071 0.52527 0.85496 0.0
O20 O 0.36307 0.54177 0.97671 0.0
C21 C 0.37459 0.55165 0.90268 0.0
O22 O 0.28273 0.50345 0.13455 0.0
O23 O 0.27179 0.50514 -0.00025 0.0
O24 O 0.22872 0.38789 0.13659 0.0
O25 O 0.23646 0.42713 0.03841 0.0
H26 H 0.16738 0.37613 0.94348 0.0
H27 H 0.06171 0.33823 0.07236 0.0
H28 H 0.16659 0.3781 0.20258 0.0
O29 O 0.58548 0.81506 0.55601 0.0
Tb30 Tb 0.56158 0.82533 0.66442 0.0
Eu31 Eu 0.61746 0.83937 0.84044 0.0
C32 C 0.5986 0.84086 0.49852 0.0
O33 O 0.59984 0.8733 0.51145 0.0
C34 C 0.62295 0.90934 0.73478 0.0
O35 O 0.62854 0.85016 0.97299 0.0
C36 C 0.66257 0.81806 0.77645 0.0
C37 C 0.61906 0.82313 0.02674 0.0
O38 O 0.60382 0.78767 0.00316 0.0
C39 C 0.53823 0.76628 0.80767 0.0
C40 C 0.67286 0.7878 0.77813 0.0
C41 C 0.68102 0.77566 0.70541 0.0
C42 C 0.69698 0.75176 0.70517 0.0
C43 C 0.70465 0.74034 0.77872 0.0
C44 C 0.69547 0.75078 0.85197 0.0
C45 C 0.67931 0.7745 0.85126 0.0
O46 O 0.60266 0.88692 0.67504 0.0
O47 O 0.62815 0.89664 0.80326 0.0
O48 O 0.51806 0.81509 0.57453 0.0
O49 O 0.50851 0.82577 0.6944 0.0
C50 C 0.49433 0.8184 0.62215 0.0
O51 O 0.5571 0.79298 0.86056 0.0
O52 O 0.54659 0.77253 0.73037 0.0
O53 O 0.67135 0.83981 0.84021 0.0
O54 O 0.62984 0.81053 0.74354 0.0
H55 H 0.67596 0.7858 0.64923 0.0
H56 H 0.71995 0.72479 0.77903 0.0
H57 H 0.67282 0.78351 0.90743 0.0
O58 O 0.24903 0.77563 0.16813 0.0
Tb59 Tb 0.23625 0.74373 0.27967 0.0
Eu60 Eu 0.21878 0.7733 0.45749 0.0
C61 C 0.22291 0.76231 0.11149 0.0
O62 O 0.19 0.73135 0.12616 0.0
C63 C 0.15205 0.71669 0.34535 0.0
O64 O 0.20802 0.77389 0.58954 0.0
C65 C 0.23417 0.83742 0.39183 0.0
C66 C 0.23533 0.79508 0.64028 0.0
O67 O 0.27034 0.81762 0.61345 0.0
C68 C 0.29747 0.77785 0.41914 0.0
C69 C 0.26386 0.87827 0.39169 0.0
C70 C 0.27515 0.89808 0.31816 0.0
C71 C 0.30019 0.93772 0.31626 0.0
C72 C 0.31359 0.95711 0.38891 0.0
C73 C 0.30288 0.93807 0.46259 0.0
C74 C 0.27845 0.89844 0.46396 0.0
O75 O 0.17685 0.73257 0.28594 0.0
O76 O 0.1637 0.72219 0.41987 0.0
O77 O 0.24379 0.70685 0.19549 0.0
O78 O 0.22761 0.68791 0.31558 0.0
C79 C 0.23568 0.67932 0.24547 0.0
O80 O 0.27072 0.76768 0.47426 0.0
O81 O 0.29027 0.78053 0.34288 0.0
O82 O 0.21369 0.82385 0.45778 0.0
O83 O 0.24273 0.81351 0.35722 0.0
H84 H 0.26386 0.88264 0.26268 0.0
H85 H 0.33186 0.98774 0.38868 0.0
H86 H 0.26966 0.88371 0.52109 0.0
O87 O 0.48584 0.26749 0.12611 0.0
Tb88 Tb 0.50962 0.30044 0.01703 0.0
Eu89 Eu 0.45777 0.25799 0.83995 0.0
C90 C 0.4729 0.28069 0.18275 0.0
O91 O 0.4721 0.31209 0.16902 0.0
C92 C 0.44869 0.32186 0.94099 0.0
O93 O 0.45036 0.26255 0.70781 0.0
C94 C 0.4089 0.19039 0.89255 0.0
C95 C 0.45515 0.24198 0.65328 0.0
O96 O 0.46447 0.21667 0.67544 0.0
C97 C 0.53378 0.26028 0.88622 0.0
C98 C 0.39987 0.1502 0.89019 0.0
C99 C 0.39367 0.12999 0.96259 0.0
C100 C 0.37942 0.09058 0.96169 0.0
C101 C 0.37221 0.07166 0.88831 0.0
C102 C 0.37848 0.091 0.81535 0.0
C103 C 0.39268 0.1305 0.81668 0.0
O104 O 0.46796 0.32006 0.00313 0.0
O105 O 0.44538 0.30409 0.87316 0.0
O106 O 0.55286 0.33577 0.10527 0.0
O107 O 0.5637 0.35165 0.98255 0.0
C108 C 0.57741 0.36057 0.05508 0.0
O109 O 0.51742 0.26797 0.82717 0.0
O110 O 0.52211 0.25898 0.96084 0.0
O111 O 0.40472 0.20479 0.82535 0.0
O112 O 0.4384 0.21495 0.93535 0.0
H113 H 0.39815 0.14451 0.01947 0.0
H114 H 0.36023 0.04113 0.88861 0.0
H115 H 0.39718 0.14567 0.76062 0.0
O116 O 0.7811 0.22236 0.82374 0.0
Tb117 Tb 0.75737 0.21137 0.7031 0.0
Eu118 Eu 0.79155 0.20165 0.5152 0.0
C119 C 0.7914 0.20042 0.86124 0.0
O120 O 0.79257 0.17307 0.82183 0.0
C121 C 0.73116 0.13191 0.61981 0.0
O122 O 0.79632 0.20369 0.37964 0.0
C123 C 0.8547 0.21091 0.57767 0.0
C124 C 0.77599 0.2145 0.3371 0.0
O125 O 0.75247 0.2229 0.37464 0.0
C126 C 0.79879 0.27825 0.57916 0.0
C127 C 0.89671 0.23786 0.57569 0.0
C128 C 0.9172 0.2492 0.64827 0.0
C129 C 0.95752 0.27183 0.64796 0.0
C130 C 0.97693 0.28249 0.57424 0.0
C131 C 0.95726 0.27273 0.50132 0.0
C132 C 0.91695 0.25032 0.50233 0.0
O133 O 0.7463 0.1532 0.68405 0.0
O134 O 0.73808 0.14702 0.54762 0.0
O135 O 0.71384 0.21165 0.78058 0.0
O136 O 0.70687 0.212 0.65461 0.0
C137 C 0.69223 0.21262 0.7243 0.0
O138 O 0.78792 0.25476 0.51831 0.0
O139 O 0.79983 0.2667 0.65269 0.0
O140 O 0.8392 0.19105 0.51233 0.0
O141 O 0.8329 0.22202 0.61364 0.0
H142 H 0.90172 0.23995 0.70472 0.0
H143 H 1.008 0.29729 0.57352 0.0
H144 H 0.90144 0.24217 0.44621 0.0
O145 O 0.82396 0.56191 0.50145 0.0
Tb146 Tb 0.83713 0.54388 0.38891 0.0
Eu147 Eu 0.85394 0.59077 0.21198 0.0
C148 C 0.85007 0.5745 0.55809 0.0
O149 O 0.88315 0.57667 0.54314 0.0
C150 C 0.92118 0.60132 0.32384 0.0
O151 O 0.86476 0.60179 0.07991 0.0
C152 C 0.83774 0.63922 0.27651 0.0
C153 C 0.83745 0.59564 0.02902 0.0
O154 O 0.80241 0.58334 0.0557 0.0
C155 C 0.77549 0.51728 0.25113 0.0
C156 C 0.80716 0.64938 0.27629 0.0
C157 C 0.79447 0.65646 0.3498 0.0
C158 C 0.76839 0.66988 0.35086 0.0
C159 C 0.75441 0.67518 0.27845 0.0
C160 C 0.76704 0.66902 0.20483 0.0
C161 C 0.79297 0.65542 0.2037 0.0
O162 O 0.89637 0.59206 0.38336 0.0
O163 O 0.90951 0.59537 0.24932 0.0
O164 O 0.83047 0.49896 0.47057 0.0
O165 O 0.84519 0.49681 0.34896 0.0
C166 C 0.83786 0.47973 0.41852 0.0
O167 O 0.80216 0.5333 0.19574 0.0
O168 O 0.783 0.52764 0.32702 0.0
O169 O 0.85795 0.64591 0.21018 0.0
O170 O 0.83024 0.60736 0.31233 0.0
H171 H 0.80593 0.65292 0.40577 0.0
H172 H 0.73362 0.68471 0.27942 0.0
H173 H 0.80309 0.65098 0.14662 0.0
H174 H 0.04671 0.28936 0.97008 0.0
H175 H 0.12562 0.39757 0.86237 0.0
H176 H 0.08303 0.38217 0.74665 0.0
H177 H 1.02249 0.33904 0.67957 0.0
H178 H 0.94493 0.22957 0.78511 0.0
H179 H 0.98691 0.24552 0.9013 0.0
C180 C 0.05461 0.30956 0.9211 0.0
C181 C 0.08917 0.34465 0.92473 0.0
C182 C 1.0298 0.30074 0.85583 0.0
C183 C 0.09938 0.3703 0.86051 0.0
C184 C 0.07482 0.36166 0.79497 0.0
C185 C 1.01482 0.31841 0.72756 0.0
C186 C 0.98056 0.28296 0.72303 0.0
C187 C 1.0398 0.32715 0.79256 0.0
C188 C 0.97072 0.25719 0.7871 0.0
C189 C 0.99502 0.26608 0.85309 0.0
H190 H 0.7696 0.73557 0.38152 0.0
H191 H 0.73915 0.62719 0.48723 0.0
H192 H 0.71136 0.64187 0.60358 0.0
H193 H 0.69386 0.68453 0.67168 0.0
H194 H 0.72812 0.79467 0.56886 0.0
H195 H 0.75419 0.77916 0.45196 0.0
C196 C 0.757 0.71524 0.43032 0.0
C197 C 0.75623 0.68029 0.42603 0.0
C198 C 0.74087 0.72373 0.49606 0.0
C199 C 0.74031 0.65436 0.48976 0.0
C200 C 0.72408 0.66259 0.55562 0.0
C201 C 0.70738 0.70543 0.62422 0.0
C202 C 0.70907 0.74089 0.62973 0.0
C203 C 0.72387 0.69703 0.55886 0.0
C204 C 0.72575 0.76699 0.56619 0.0
C205 C 0.74122 0.75837 0.49974 0.0
H206 H 0.36882 0.99999 0.27601 0.0
H207 H 0.25448 0.92659 0.18574 0.0
H208 H 0.26882 0.96823 0.06965 0.0
H209 H 0.31256 0.02698 0.99737 0.0
H210 H 0.42525 0.10248 0.09142 0.0
H211 H 0.41183 0.05962 0.20598 0.0
C212 C 0.34678 0.99317 0.2315 0.0
C213 C 0.31043 0.96017 0.24034 0.0
C214 C 0.35456 1.01815 0.16694 0.0
C215 C 0.28282 0.95136 0.18038 0.0
C216 C 0.2908 0.9755 0.11451 0.0
C217 C 0.33411 0.03407 0.04325 0.0
C218 C 0.36988 0.06771 0.03623 0.0
C219 C 0.32631 1.00922 0.10797 0.0
C220 C 0.39743 0.07691 0.09619 0.0
C221 C 0.3899 0.05222 0.16096 0.0
H222 H 0.25522 0.5353 0.2187 0.0
H223 H 0.26786 0.56612 0.96794 0.0
H224 H 0.25597 0.61816 0.9989 0.0
H225 H 0.24525 0.65686 0.09831 0.0
H226 H 0.23179 0.6253 0.3484 0.0
H227 H 0.2407 0.57144 0.31655 0.0
C228 C 0.25525 0.55326 0.17056 0.0
C229 C 0.26275 0.54693 0.09101 0.0
C230 C 0.24837 0.58305 0.18882 0.0
C231 C 0.26216 0.57027 0.02956 0.0
C232 C 0.25551 0.60014 0.04731 0.0
C233 C 0.24402 0.63801 0.14573 0.0
C234 C 0.2381 0.64512 0.22572 0.0
C235 C 0.24907 0.60708 0.12684 0.0
C236 C 0.23632 0.62039 0.28648 0.0
C237 C 0.24151 0.58968 0.26827 0.0
H238 H 0.42026 0.61509 0.99108 0.0
H239 H 0.40028 0.57134 0.74984 0.0
H240 H 0.4491 0.63329 0.6986 0.0
H241 H 0.49617 0.70083 0.72131 0.0
H242 H 0.51571 0.7447 0.96288 0.0
H243 H 0.46874 0.68231 0.01425 0.0
C244 C 0.42694 0.61909 0.92748 0.0
C245 C 0.40672 0.58863 0.87447 0.0
C246 C 0.45489 0.65506 0.89807 0.0
C247 C 0.41548 0.59431 0.79205 0.0
C248 C 0.44335 0.62981 0.76254 0.0
C249 C 0.49023 0.69677 0.78518 0.0
C250 C 0.50957 0.7277 0.83773 0.0
C251 C 0.46299 0.66057 0.81482 0.0
C252 C 0.50139 0.72164 0.92053 0.0
C253 C 0.47444 0.68583 0.95028 0.0
H254 H 0.46717 0.81093 0.47078 0.0
H255 H 0.43701 0.81397 0.71807 0.0
H256 H 0.37369 0.80235 0.6771 0.0
H257 H 0.32635 0.78962 0.57112 0.0
H258 H 0.35727 0.78802 0.32339 0.0
H259 H 0.42084 0.80098 0.36439 0.0
C260 C 0.44676 0.80918 0.51568 0.0
C261 C 0.45667 0.81313 0.59742 0.0
C262 C 0.41053 0.80271 0.49156 0.0
C263 C 0.43005 0.81102 0.65484 0.0
C264 C 0.39383 0.8043 0.6314 0.0
C265 C 0.34698 0.79218 0.52593 0.0
C266 C 0.33681 0.78764 0.44411 0.0
C267 C 0.38364 0.79983 0.54994 0.0
C268 C 0.36418 0.79141 0.38665 0.0
C269 C 0.40057 0.79873 0.4101 0.0
H270 H 0.55797 0.25047 0.73875 0.0
H271 H 0.57536 0.24479 0.99273 0.0
H272 H 0.6242 0.22772 0.9644 0.0
H273 H 0.66348 0.21633 0.8683 0.0
H274 H 0.64742 0.22244 0.61439 0.0
H275 H 0.5963 0.23706 0.64187 0.0
C276 C 0.57236 0.24543 0.78798 0.0
C277 C 0.56292 0.24906 0.86793 0.0
C278 C 0.60061 0.2356 0.77126 0.0
C279 C 0.58188 0.24224 0.93072 0.0
C280 C 0.6099 0.23247 0.91459 0.0
C281 C 0.64859 0.22056 0.81887 0.0
C282 C 0.65918 0.21829 0.73938 0.0
C283 C 0.61964 0.22929 0.83522 0.0
C284 C 0.63969 0.22391 0.67606 0.0
C285 C 0.61059 0.23242 0.69183 0.0
H286 H 0.81516 0.31471 0.43495 0.0
H287 H 0.80702 0.33223 0.68804 0.0
H288 H 0.81993 0.39669 0.66061 0.0
H289 H 0.83014 0.44686 0.564 0.0
H290 H 0.83926 0.42968 0.31145 0.0
H291 H 0.82947 0.36627 0.33941 0.0
C292 C 0.81639 0.33265 0.48431 0.0
C293 C 0.80984 0.31846 0.56354 0.0
C294 C 0.82389 0.3697 0.46809 0.0
C295 C 0.81198 0.34235 0.62661 0.0
C296 C 0.81922 0.37919 0.6109 0.0
C297 C 0.83026 0.42931 0.51516 0.0
C298 C 0.83518 0.44278 0.43567 0.0
C299 C 0.82471 0.39297 0.53181 0.0
C300 C 0.83552 0.41991 0.37305 0.0
C301 C 0.82982 0.38363 0.38905 0.0
H302 H 0.60452 0.38337 0.20534 0.0
H303 H 0.63562 0.40979 0.95607 0.0
H304 H 0.69944 0.46107 0.9946 0.0
H305 H 0.74687 0.49724 0.09934 0.0
H306 H 0.71503 0.47107 0.34881 0.0
H307 H 0.65105 0.42103 0.30996 0.0
C308 C 0.62524 0.40046 0.15944 0.0
C309 C 0.61543 0.39273 0.07792 0.0
C310 C 0.66176 0.42991 0.18213 0.0
C311 C 0.64249 0.41519 0.01917 0.0
C312 C 0.67899 0.44446 0.04124 0.0
C313 C 0.72596 0.48068 0.14535 0.0
C314 C 0.73599 0.48795 0.22708 0.0
C315 C 0.68904 0.45191 0.12256 0.0
C316 C 0.70826 0.46626 0.28558 0.0
C317 C 0.67161 0.43752 0.26339 0.0
H318 H 1.02196 0.34017 0.4682 0.0
H319 H 0.94422 0.23096 0.364 0.0
H320 H 0.986 0.24709 0.24647 0.0
H321 H 0.04587 0.2907 0.17665 0.0
H322 H 0.12488 0.39896 0.28207 0.0
H323 H 0.08229 0.38362 0.39885 0.0
C324 C 1.01418 0.31973 0.42003 0.0
C325 C 0.97997 0.28425 0.42537 0.0
C326 C 1.03902 0.3286 0.3541 0.0
C327 C 0.96999 0.25861 0.36131 0.0
C328 C 0.99417 0.2676 0.29456 0.0
C329 C 0.05375 0.31101 0.22517 0.0
C330 C 0.08836 0.34604 0.22067 0.0
C331 C 1.02894 0.30224 0.29098 0.0
C332 C 0.09857 0.37173 0.28452 0.0
C333 C 0.07403 0.36313 0.35069 0.0
H334 H 0.76651 0.73397 0.17515 0.0
H335 H 0.73767 0.62624 0.06906 0.0
H336 H 0.70967 0.64075 0.95346 0.0
H337 H 0.69216 0.6834 0.88535 0.0
H338 H 0.72466 0.79277 0.98908 0.0
H339 H 0.75025 0.77706 0.10588 0.0
C340 C 0.75405 0.71364 0.12665 0.0
C341 C 0.75389 0.67897 0.13059 0.0
C342 C 0.7378 0.72202 0.06136 0.0
C343 C 0.73832 0.65317 0.06695 0.0
C344 C 0.72198 0.66132 0.00147 0.0
C345 C 0.70509 0.70403 0.93313 0.0
C346 C 0.70656 0.7394 0.92779 0.0
C347 C 0.72133 0.69554 0.99849 0.0
C348 C 0.7225 0.76517 0.99162 0.0
C349 C 0.73772 0.75645 0.05801 0.0
H350 H 0.38458 0.02892 0.7756 0.0
H351 H 0.34364 0.10168 0.68502 0.0
H352 H 0.31569 0.05994 0.56991 0.0
H353 H 0.29995 1.0013 0.49863 0.0
H354 H 0.33746 0.9265 0.59188 0.0
H355 H 0.3675 0.96937 0.70584 0.0
C356 C 0.36929 0.03561 0.73115 0.0
C357 C 0.36617 0.06851 0.73968 0.0
C358 C 0.35173 1.01057 0.66695 0.0
C359 C 0.34715 0.07707 0.67988 0.0
C360 C 0.33058 0.05284 0.61455 0.0
C361 C 0.31469 0.99437 0.54405 0.0
C362 C 0.31671 0.96093 0.5369 0.0
C363 C 0.33218 1.01928 0.60827 0.0
C364 C 0.3353 0.95192 0.59659 0.0
C365 C 0.35282 0.97664 0.66105 0.0
H366 H 0.35425 0.40739 0.90488 0.0
H367 H 0.37523 0.42247 0.15954 0.0
H368 H 0.41185 0.38962 0.15241 0.0
H369 H 0.43698 0.35499 0.07441 0.0
H370 H 0.41484 0.33956 0.81995 0.0
H371 H 0.38004 0.37395 0.82701 0.0
C372 C 0.3669 0.40366 0.95891 0.0
C373 C 0.36169 0.41745 0.03264 0.0
C374 C 0.38785 0.38445 0.95464 0.0
C375 C 0.37846 0.41216 0.10182 0.0
C376 C 0.39952 0.39331 0.09789 0.0
C377 C 0.42473 0.35929 0.0204 0.0
C378 C 0.42867 0.34438 0.94685 0.0
C379 C 0.40427 0.37909 0.02468 0.0
C380 C 0.41233 0.35033 0.87769 0.0
C381 C 0.39232 0.37013 0.88148 0.0
H382 H 0.63389 0.95154 0.59707 0.0
H383 H 0.65584 0.96291 0.85185 0.0
H384 H 0.69004 0.03167 0.83921 0.0
H385 H 0.71552 0.08923 0.75651 0.0
H386 H 0.69481 0.07895 0.50153 0.0
H387 H 0.65863 1.0098 0.51399 0.0
C388 C 0.64593 0.96901 0.64991 0.0
C389 C 0.64219 0.95159 0.72524 0.0
C390 C 0.66609 1.00908 0.64238 0.0
C391 C 0.65826 0.97508 0.79282 0.0
C392 C 0.67793 1.01465 0.78583 0.0
C393 C 0.70304 0.07197 0.70354 0.0
C394 C 0.70818 0.08963 0.62817 0.0
C395 C 0.68232 0.03203 0.71094 0.0
C396 C 0.6916 0.06644 0.56045 0.0
C397 C 0.67079 0.02672 0.56746 0.0
H398 H 0.98102 0.63042 0.21626 0.0
H399 H 0.95644 0.61814 0.47038 0.0
H400 H 1.02499 0.65191 0.49925 0.0
H401 H 0.09223 0.68568 0.45289 0.0
H402 H 0.11681 0.69859 0.19878 0.0
H403 H 0.04826 0.66395 0.16989 0.0
C404 C 0.99055 0.63503 0.27805 0.0
C405 C 0.96324 0.62161 0.34095 0.0
C406 C 1.03023 0.65473 0.29444 0.0
C407 C 0.97649 0.62804 0.42055 0.0
C408 C 1.01584 0.64743 0.43723 0.0
C409 C 0.0827 0.68092 0.39109 0.0
C410 C 0.11001 0.69495 0.32821 0.0
C411 C 1.04301 0.66101 0.37471 0.0
C412 C 0.09676 0.68833 0.2486 0.0
C413 C 0.05741 0.66845 0.23192 0.0
H414 H 0.26357 0.4109 0.41833 0.0
H415 H 0.29668 0.52958 0.41868 0.0
H416 H 0.29267 0.52885 0.56463 0.0
H417 H 0.28442 0.49612 0.69265 0.0
H418 H 0.25577 0.37875 0.69471 0.0
H419 H 0.25286 0.3772 0.548 0.0
C420 C 0.26952 0.43645 0.45043 0.0
C421 C 0.28064 0.47029 0.40755 0.0
C422 C 0.26798 0.4361 0.53501 0.0
C423 C 0.28845 0.50323 0.4501 0.0
C424 C 0.28606 0.50285 0.53369 0.0
C425 C 0.27684 0.46996 0.66119 0.0
C426 C 0.27019 0.43756 0.70474 0.0
C427 C 0.27649 0.46965 0.57686 0.0
C428 C 0.26099 0.4041 0.6627 0.0
C429 C 0.25947 0.40324 0.57873 0.0
H430 H 0.62972 0.88948 0.37313 0.0
H431 H 0.58398 0.77189 0.43903 0.0
H432 H 0.58844 0.75615 0.29909 0.0
H433 H 0.60043 0.77514 0.15604 0.0
H434 H 0.64565 0.89309 0.09272 0.0
H435 H 0.64626 0.90915 0.23341 0.0
C436 C 0.62106 0.86042 0.35723 0.0
C437 C 0.60619 0.83187 0.41652 0.0
C438 C 0.62328 0.85153 0.27674 0.0
C439 C 0.59548 0.79446 0.39469 0.0
C440 C 0.59784 0.7854 0.31452 0.0
C441 C 0.61075 0.8044 0.17308 0.0
C442 C 0.6226 0.83274 0.11342 0.0
C443 C 0.61091 0.81358 0.25468 0.0
C444 C 0.63611 0.87057 0.13691 0.0
C445 C 0.63647 0.87986 0.21757 0.0
H446 H 0.28578 0.82575 0.76478 0.0
H447 H 0.16536 0.75448 0.71149 0.0
H448 H 0.15084 0.7412 0.85353 0.0
H449 H 0.17247 0.74525 0.99105 0.0
H450 H 0.29257 0.81492 0.04722 0.0
H451 H 0.30695 0.8339 0.90607 0.0
C452 C 0.25633 0.80767 0.78437 0.0
C453 C 0.22679 0.79077 0.72734 0.0
C454 C 0.2481 0.79975 0.8666 0.0
C455 C 0.18875 0.76756 0.75383 0.0
C456 C 0.18035 0.75992 0.83517 0.0
C457 C 0.2018 0.76488 0.97273 0.0
C458 C 0.23147 0.77827 0.02932 0.0
C459 C 0.20985 0.77514 0.89177 0.0
C460 C 0.26921 0.80409 0.00472 0.0
C461 C 0.27747 0.8148 0.92396 0.0
H462 H 0.46768 0.20915 0.52188 0.0
H463 H 0.43553 0.29172 0.59161 0.0
H464 H 0.43498 0.30838 0.45186 0.0
H465 H 0.44781 0.303 0.31101 0.0
H466 H 0.48116 0.22176 0.23871 0.0
H467 H 0.47639 0.20072 0.37795 0.0
C468 C 0.46025 0.23054 0.5064 0.0
C469 C 0.45206 0.24938 0.56743 0.0
C470 C 0.4602 0.2403 0.4254 0.0
C471 C 0.44228 0.27691 0.54618 0.0
C472 C 0.44191 0.28651 0.4661 0.0
C473 C 0.45368 0.2804 0.32538 0.0
C474 C 0.46518 0.26426 0.26459 0.0
C475 C 0.45146 0.26889 0.40542 0.0
C476 C 0.47238 0.23481 0.28439 0.0
C477 C 0.46982 0.22286 0.36409 0.0
H478 H 0.8078 0.18482 0.23515 0.0
H479 H 0.75158 0.25144 0.23936 0.0
H480 H 0.75434 0.25548 0.09352 0.0
H481 H 0.7697 0.2378 0.96444 0.0
H482 H 0.82269 0.16833 0.95733 0.0
H483 H 0.82455 0.16806 0.10415 0.0
C484 C 0.79638 0.2004 0.20409 0.0
C485 C 0.77935 0.21764 0.24834 0.0
C486 C 0.79748 0.20215 0.11953 0.0
C487 C 0.76457 0.23761 0.20703 0.0
C488 C 0.76621 0.24005 0.12346 0.0
C489 C 0.78215 0.22298 0.9948 0.0
C490 C 0.79615 0.20321 0.94974 0.0
C491 C 0.78221 0.22212 0.07906 0.0
C492 C 0.81171 0.1838 0.99044 0.0
C493 C 0.81269 0.18355 0.07447 0.0
H494 H 0.90043 0.60746 0.67871 0.0
H495 H 0.78037 0.55779 0.62215 0.0
H496 H 0.76593 0.56269 0.76311 0.0
H497 H 0.78705 0.57589 0.90437 0.0
H498 H 0.90745 0.62441 0.95804 0.0
H499 H 0.92201 0.62519 0.81615 0.0
C500 C 0.87109 0.59796 0.69691 0.0
C501 C 0.84146 0.58183 0.64027 0.0
C502 C 0.86301 0.60039 0.77775 0.0
C503 C 0.8037 0.57018 0.66471 0.0
C504 C 0.79542 0.57283 0.74535 0.0
C505 C 0.8165 0.58702 0.88488 0.0
C506 C 0.84602 0.59962 0.94199 0.0
C507 C 0.82476 0.58707 0.80275 0.0
C508 C 0.88407 0.61414 0.91565 0.0
C509 C 0.8925 0.61463 0.83439 0.0
loop_
_geom_bond_atom_site_label_1
_geom_bond_atom_site_label_2
_geom_bond_distance
_geom_bond_site_symmetry_2
_ccdc_geom_bond_type
O0 Tb1 2.292 . S
O0 C3 1.255 . S
Tb1 O0 2.292 . S
Tb1 O17 2.326 1_556 S
Tb1 O19 2.500 . S
Tb1 O20 2.473 1_556 S
Tb1 O23 2.324 1_556 S
Eu2 O6 2.292 . S
Eu2 C7 2.852 . S
Eu2 O18 2.324 . S
Eu2 O22 2.326 . S
Eu2 O24 2.500 . S
Eu2 O25 2.473 . S
C3 O0 1.255 . S
C3 O4 1.247 . S
O4 C3 1.247 . S
C5 O17 1.242 . S
C5 O18 1.258 . S
O6 Eu2 2.292 . S
O6 C8 1.255 . S
C7 Eu2 2.852 . S
C7 C11 1.503 . S
C7 O24 1.273 . S
C7 O25 1.257 . S
C8 O6 1.255 . S
C8 O9 1.247 . S
O9 C8 1.247 . S
C10 O22 1.242 . S
C10 O23 1.258 . S
C11 C7 1.503 . S
C11 C12 1.379 . S
C11 C16 1.392 . S
C12 C11 1.379 . S
C12 C13 1.404 . S
C12 H26 0.929 . S
C13 C12 1.404 . S
C13 C14 1.389 . S
C14 C13 1.389 . S
C14 C15 1.399 . S
C14 H27 0.931 . S
C15 C14 1.399 . S
C15 C16 1.390 . S
C16 C11 1.392 . S
C16 C15 1.390 . S
C16 H28 0.929 . S
O17 Tb1 2.326 1_554 S
O17 C5 1.242 . S
O18 Eu2 2.324 . S
O18 C5 1.258 . S
O19 Tb1 2.500 . S
O19 C21 1.273 . S
O20 Tb1 2.473 1_554 S
O20 C21 1.257 1_554 S
C21 O19 1.273 . S
C21 O20 1.257 1_556 S
O22 Eu2 2.326 . S
O22 C10 1.242 . S
O23 Tb1 2.324 1_554 S
O23 C10 1.258 . S
O24 Eu2 2.500 . S
O24 C7 1.273 . S
O25 Eu2 2.473 . S
O25 C7 1.257 . S
H26 C12 0.929 . S
H27 C14 0.931 . S
H28 C16 0.929 . S
O29 Tb30 2.292 . S
O29 C32 1.255 . S
Tb30 O29 2.292 . S
Tb30 O46 2.326 . S
Tb30 O48 2.500 . S
Tb30 O49 2.473 . S
Tb30 O52 2.324 . S
Eu31 O35 2.292 . S
Eu31 C36 2.852 . S
Eu31 O47 2.324 . S
Eu31 O51 2.326 . S
Eu31 O53 2.500 . S
Eu31 O54 2.473 . S
C32 O29 1.255 . S
C32 O33 1.247 . S
O33 C32 1.247 . S
C34 O46 1.242 . S
C34 O47 1.258 . S
O35 Eu31 2.292 . S
O35 C37 1.255 1_556 S
C36 Eu31 2.852 . S
C36 C40 1.503 . S
C36 O53 1.273 . S
C36 O54 1.257 . S
C37 O35 1.255 1_554 S
C37 O38 1.247 . S
O38 C37 1.247 . S
C39 O51 1.242 . S
C39 O52 1.258 . S
C40 C36 1.503 . S
C40 C41 1.379 . S
C40 C45 1.392 . S
C41 C40 1.379 . S
C41 C42 1.404 . S
C41 H55 0.929 . S
C42 C41 1.404 . S
C42 C43 1.389 . S
C43 C42 1.389 . S
C43 C44 1.399 . S
C43 H56 0.931 . S
C44 C43 1.399 . S
C44 C45 1.390 . S
C45 C40 1.392 . S
C45 C44 1.390 . S
C45 H57 0.929 . S
O46 Tb30 2.326 . S
O46 C34 1.242 . S
O47 Eu31 2.324 . S
O47 C34 1.258 . S
O48 Tb30 2.500 . S
O48 C50 1.273 . S
O49 Tb30 2.473 . S
O49 C50 1.257 . S
C50 O48 1.273 . S
C50 O49 1.257 . S
O51 Eu31 2.326 . S
O51 C39 1.242 . S
O52 Tb30 2.324 . S
O52 C39 1.258 . S
O53 Eu31 2.500 . S
O53 C36 1.273 . S
O54 Eu31 2.473 . S
O54 C36 1.257 . S
H55 C41 0.929 . S
H56 C43 0.931 . S
H57 C45 0.929 . S
O58 Tb59 2.292 . S
O58 C61 1.255 . S
Tb59 O58 2.292 . S
Tb59 O75 2.326 . S
Tb59 O77 2.500 . S
Tb59 O78 2.473 . S
Tb59 O81 2.324 . S
Eu60 O64 2.292 . S
Eu60 C65 2.852 . S
Eu60 O76 2.324 . S
Eu60 O80 2.326 . S
Eu60 O82 2.500 . S
Eu60 O83 2.473 . S
C61 O58 1.255 . S
C61 O62 1.247 . S
O62 C61 1.247 . S
C63 O75 1.242 . S
C63 O76 1.258 . S
O64 Eu60 2.292 . S
O64 C66 1.255 . S
C65 Eu60 2.852 . S
C65 C69 1.503 . S
C65 O82 1.273 . S
C65 O83 1.257 . S
C66 O64 1.255 . S
C66 O67 1.247 . S
O67 C66 1.247 . S
C68 O80 1.242 . S
C68 O81 1.258 . S
C69 C65 1.503 . S
C69 C70 1.379 . S
C69 C74 1.392 . S
C70 C69 1.379 . S
C70 C71 1.404 . S
C70 H84 0.929 . S
C71 C70 1.404 . S
C71 C72 1.389 . S
C72 C71 1.389 . S
C72 C73 1.399 . S
C72 H85 0.931 . S
C73 C72 1.399 . S
C73 C74 1.390 . S
C74 C69 1.392 . S
C74 C73 1.390 . S
C74 H86 0.929 . S
O75 Tb59 2.326 . S
O75 C63 1.242 . S
O76 Eu60 2.324 . S
O76 C63 1.258 . S
O77 Tb59 2.500 . S
O77 C79 1.273 . S
O78 Tb59 2.473 . S
O78 C79 1.257 . S
C79 O77 1.273 . S
C79 O78 1.257 . S
O80 Eu60 2.326 . S
O80 C68 1.242 . S
O81 Tb59 2.324 . S
O81 C68 1.258 . S
O82 Eu60 2.500 . S
O82 C65 1.273 . S
O83 Eu60 2.473 . S
O83 C65 1.257 . S
H84 C70 0.929 . S
H85 C72 0.931 . S
H86 C74 0.929 . S
O87 Tb88 2.292 . S
O87 C90 1.255 . S
Tb88 O87 2.292 . S
Tb88 O104 2.326 1_554 S
Tb88 O106 2.500 . S
Tb88 O107 2.473 1_554 S
Tb88 O110 2.324 1_554 S
Eu89 O93 2.292 . S
Eu89 C94 2.852 . S
Eu89 O105 2.324 . S
Eu89 O109 2.326 . S
Eu89 O111 2.500 . S
Eu89 O112 2.473 . S
C90 O87 1.255 . S
C90 O91 1.247 . S
O91 C90 1.247 . S
C92 O104 1.242 . S
C92 O105 1.258 . S
O93 Eu89 2.292 . S
O93 C95 1.255 . S
C94 Eu89 2.852 . S
C94 C98 1.503 . S
C94 O111 1.273 . S
C94 O112 1.257 . S
C95 O93 1.255 . S
C95 O96 1.247 . S
O96 C95 1.247 . S
C97 O109 1.242 . S
C97 O110 1.258 . S
C98 C94 1.503 . S
C98 C99 1.379 . S
C98 C103 1.392 . S
C99 C98 1.379 . S
C99 C100 1.404 . S
C99 H113 0.929 . S
C100 C99 1.404 . S
C100 C101 1.389 . S
C101 C100 1.389 . S
C101 C102 1.399 . S
C101 H114 0.931 . S
C102 C101 1.399 . S
C102 C103 1.390 . S
C103 C98 1.392 . S
C103 C102 1.390 . S
C103 H115 0.929 . S
O104 Tb88 2.326 1_556 S
O104 C92 1.242 . S
O105 Eu89 2.324 . S
O105 C92 1.258 . S
O106 Tb88 2.500 . S
O106 C108 1.273 . S
O107 Tb88 2.473 1_556 S
O107 C108 1.257 1_556 S
C108 O106 1.273 . S
C108 O107 1.257 1_554 S
O109 Eu89 2.326 . S
O109 C97 1.242 . S
O110 Tb88 2.324 1_556 S
O110 C97 1.258 . S
O111 Eu89 2.500 . S
O111 C94 1.273 . S
O112 Eu89 2.473 . S
O112 C94 1.257 . S
H113 C99 0.929 . S
H114 C101 0.931 . S
H115 C103 0.929 . S
O116 Tb117 2.292 . S
O116 C119 1.255 . S
Tb117 O116 2.292 . S
Tb117 O133 2.326 . S
Tb117 O135 2.500 . S
Tb117 O136 2.473 . S
Tb117 O139 2.324 . S
Eu118 O122 2.292 . S
Eu118 C123 2.852 . S
Eu118 O134 2.324 . S
Eu118 O138 2.326 . S
Eu118 O140 2.500 . S
Eu118 O141 2.473 . S
C119 O116 1.255 . S
C119 O120 1.247 . S
O120 C119 1.247 . S
C121 O133 1.242 . S
C121 O134 1.258 . S
O122 Eu118 2.292 . S
O122 C124 1.255 . S
C123 Eu118 2.852 . S
C123 C127 1.503 . S
C123 O140 1.273 . S
C123 O141 1.257 . S
C124 O122 1.255 . S
C124 O125 1.247 . S
O125 C124 1.247 . S
C126 O138 1.242 . S
C126 O139 1.258 . S
C127 C123 1.503 . S
C127 C128 1.379 . S
C127 C132 1.392 . S
C128 C127 1.379 . S
C128 C129 1.404 . S
C128 H142 0.929 . S
C129 C128 1.404 . S
C129 C130 1.389 . S
C130 C129 1.389 . S
C130 C131 1.399 . S
C130 H143 0.931 . S
C131 C130 1.399 . S
C131 C132 1.390 . S
C132 C127 1.392 . S
C132 C131 1.390 . S
C132 H144 0.929 . S
O133 Tb117 2.326 . S
O133 C121 1.242 . S
O134 Eu118 2.324 . S
O134 C121 1.258 . S
O135 Tb117 2.500 . S
O135 C137 1.273 . S
O136 Tb117 2.473 . S
O136 C137 1.257 . S
C137 O135 1.273 . S
C137 O136 1.257 . S
O138 Eu118 2.326 . S
O138 C126 1.242 . S
O139 Tb117 2.324 . S
O139 C126 1.258 . S
O140 Eu118 2.500 . S
O140 C123 1.273 . S
O141 Eu118 2.473 . S
O141 C123 1.257 . S
H142 C128 0.929 . S
H143 C130 0.931 . S
H144 C132 0.929 . S
O145 Tb146 2.292 . S
O145 C148 1.255 . S
Tb146 O145 2.292 . S
Tb146 O162 2.326 . S
Tb146 O164 2.500 . S
Tb146 O165 2.473 . S
Tb146 O168 2.324 . S
Eu147 O151 2.292 . S
Eu147 C152 2.852 . S
Eu147 O163 2.324 . S
Eu147 O167 2.326 . S
Eu147 O169 2.500 . S
Eu147 O170 2.473 . S
C148 O145 1.255 . S
C148 O149 1.247 . S
O149 C148 1.247 . S
C150 O162 1.242 . S
C150 O163 1.258 . S
O151 Eu147 2.292 . S
O151 C153 1.255 1_554 S
C152 Eu147 2.852 . S
C152 C156 1.503 . S
C152 O169 1.273 . S
C152 O170 1.257 . S
C153 O151 1.255 1_556 S
C153 O154 1.247 . S
O154 C153 1.247 . S
C155 O167 1.242 . S
C155 O168 1.258 . S
C156 C152 1.503 . S
C156 C157 1.379 . S
C156 C161 1.392 . S
C157 C156 1.379 . S
C157 C158 1.404 . S
C157 H171 0.929 . S
C158 C157 1.404 . S
C158 C159 1.389 . S
C159 C158 1.389 . S
C159 C160 1.399 . S
C159 H172 0.931 . S
C160 C159 1.399 . S
C160 C161 1.390 . S
C161 C156 1.392 . S
C161 C160 1.390 . S
C161 H173 0.929 . S
O162 Tb146 2.326 . S
O162 C150 1.242 . S
O163 Eu147 2.324 . S
O163 C150 1.258 . S
O164 Tb146 2.500 . S
O164 C166 1.273 . S
O165 Tb146 2.473 . S
O165 C166 1.257 . S
C166 O164 1.273 . S
C166 O165 1.257 . S
O167 Eu147 2.326 . S
O167 C155 1.242 . S
O168 Tb146 2.324 . S
O168 C155 1.258 . S
O169 Eu147 2.500 . S
O169 C152 1.273 . S
O170 Eu147 2.473 . S
O170 C152 1.257 . S
H171 C157 0.929 . S
H172 C159 0.931 . S
H173 C161 0.929 . S
H174 C180 0.930 . S
H175 C183 0.930 . S
H176 C184 0.930 . S
H177 C185 0.930 . S
H178 C188 0.930 . S
H179 C189 0.930 . S
C180 H174 0.930 . S
C180 C181 1.355 . S
C180 C182 1.415 1_455 S
C181 C180 1.355 . S
C181 C183 1.419 . S
C182 C180 1.415 1_655 S
C182 C187 1.425 . S
C182 C189 1.409 . S
C183 H175 0.930 . S
C183 C181 1.419 . S
C183 C184 1.362 . S
C184 H176 0.930 . S
C184 C183 1.362 . S
C184 C187 1.409 1_455 S
C185 H177 0.930 . S
C185 C186 1.355 . S
C185 C187 1.415 . S
C186 C185 1.355 . S
C186 C188 1.419 . S
C187 C182 1.425 . S
C187 C184 1.409 1_655 S
C187 C185 1.415 . S
C188 H178 0.930 . S
C188 C186 1.419 . S
C188 C189 1.362 . S
C189 H179 0.930 . S
C189 C182 1.409 . S
C189 C188 1.362 . S
H190 C196 0.930 . S
H191 C199 0.930 . S
H192 C200 0.930 . S
H193 C201 0.930 . S
H194 C204 0.930 . S
H195 C205 0.930 . S
C196 H190 0.930 . S
C196 C197 1.355 . S
C196 C198 1.415 . S
C197 C196 1.355 . S
C197 C199 1.419 . S
C198 C196 1.415 . S
C198 C203 1.425 . S
C198 C205 1.409 . S
C199 H191 0.930 . S
C199 C197 1.419 . S
C199 C200 1.362 . S
C200 H192 0.930 . S
C200 C199 1.362 . S
C200 C203 1.409 . S
C201 H193 0.930 . S
C201 C202 1.355 . S
C201 C203 1.415 . S
C202 C201 1.355 . S
C202 C204 1.419 . S
C203 C198 1.425 . S
C203 C200 1.409 . S
C203 C201 1.415 . S
C204 H194 0.930 . S
C204 C202 1.419 . S
C204 C205 1.362 . S
C205 H195 0.930 . S
C205 C198 1.409 . S
C205 C204 1.362 . S
H206 C212 0.930 . S
H207 C215 0.930 . S
H208 C216 0.930 . S
H209 C217 0.930 . S
H210 C220 0.930 1_556 S
H211 C221 0.930 . S
C212 H206 0.930 . S
C212 C213 1.355 . S
C212 C214 1.415 . S
C213 C212 1.355 . S
C213 C215 1.419 . S
C214 C212 1.415 . S
C214 C219 1.425 1_565 S
C214 C221 1.409 . S
C215 H207 0.930 . S
C215 C213 1.419 . S
C215 C216 1.362 1_565 S
C216 H208 0.930 . S
C216 C215 1.362 1_545 S
C216 C219 1.409 . S
C217 H209 0.930 . S
C217 C218 1.355 . S
C217 C219 1.415 . S
C218 C217 1.355 . S
C218 C220 1.419 . S
C219 C214 1.425 1_545 S
C219 C216 1.409 . S
C219 C217 1.415 . S
C220 H210 0.930 1_554 S
C220 C218 1.419 . S
C220 C221 1.362 1_545 S
C221 H211 0.930 . S
C221 C214 1.409 . S
C221 C220 1.362 1_565 S
H222 C228 0.930 . S
H223 C231 0.930 . S
H224 C232 0.930 . S
H225 C233 0.930 . S
H226 C236 0.930 . S
H227 C237 0.930 . S
C228 H222 0.930 . S
C228 C229 1.355 . S
C228 C230 1.415 . S
C229 C228 1.355 . S
C229 C231 1.419 . S
C230 C228 1.415 . S
C230 C235 1.425 . S
C230 C237 1.409 . S
C231 H223 0.930 . S
C231 C229 1.419 . S
C231 C232 1.362 . S
C232 H224 0.930 . S
C232 C231 1.362 . S
C232 C235 1.409 . S
C233 H225 0.930 . S
C233 C234 1.355 . S
C233 C235 1.415 . S
C234 C233 1.355 . S
C234 C236 1.419 . S
C235 C230 1.425 . S
C235 C232 1.409 . S
C235 C233 1.415 . S
C236 H226 0.930 . S
C236 C234 1.419 . S
C236 C237 1.362 . S
C237 H227 0.930 . S
C237 C230 1.409 . S
C237 C236 1.362 . S
H238 C244 0.933 . S
H239 C247 0.930 . S
H240 C248 0.930 . S
H241 C249 0.930 . S
H242 C252 0.930 . S
H243 C253 0.930 1_554 S
C244 H238 0.933 . S
C244 C245 1.353 1_554 S
C244 C246 1.412 1_554 S
C245 C244 1.353 1_556 S
C245 C247 1.419 . S
C246 C244 1.412 1_556 S
C246 C251 1.425 . S
C246 C253 1.409 . S
C247 H239 0.930 . S
C247 C245 1.419 . S
C247 C248 1.362 . S
C248 H240 0.930 . S
C248 C247 1.362 . S
C248 C251 1.409 . S
C249 H241 0.930 . S
C249 C250 1.355 . S
C249 C251 1.415 . S
C250 C249 1.355 . S
C250 C252 1.419 . S
C251 C246 1.425 . S
C251 C248 1.409 . S
C251 C249 1.415 . S
C252 H242 0.930 . S
C252 C250 1.419 . S
C252 C253 1.362 . S
C253 H243 0.930 1_556 S
C253 C246 1.409 . S
C253 C252 1.362 . S
H254 C260 0.930 . S
H255 C263 0.930 . S
H256 C264 0.930 . S
H257 C265 0.930 . S
H258 C268 0.930 . S
H259 C269 0.930 . S
C260 H254 0.930 . S
C260 C261 1.355 . S
C260 C262 1.415 . S
C261 C260 1.355 . S
C261 C263 1.419 . S
C262 C260 1.415 . S
C262 C267 1.425 . S
C262 C269 1.409 . S
C263 H255 0.930 . S
C263 C261 1.419 . S
C263 C264 1.362 . S
C264 H256 0.930 . S
C264 C263 1.362 . S
C264 C267 1.409 . S
C265 H257 0.930 . S
C265 C266 1.355 . S
C265 C267 1.415 . S
C266 C265 1.355 . S
C266 C268 1.419 . S
C267 C262 1.425 . S
C267 C264 1.409 . S
C267 C265 1.415 . S
C268 H258 0.930 . S
C268 C266 1.419 . S
C268 C269 1.362 . S
C269 H259 0.930 . S
C269 C262 1.409 . S
C269 C268 1.362 . S
H270 C276 0.930 . S
H271 C279 0.930 . S
H272 C280 0.930 . S
H273 C281 0.930 . S
H274 C284 0.930 . S
H275 C285 0.930 . S
C276 H270 0.930 . S
C276 C277 1.355 . S
C276 C278 1.415 . S
C277 C276 1.355 . S
C277 C279 1.419 . S
C278 C276 1.415 . S
C278 C283 1.425 . S
C278 C285 1.409 . S
C279 H271 0.930 . S
C279 C277 1.419 . S
C279 C280 1.362 . S
C280 H272 0.930 . S
C280 C279 1.362 . S
C280 C283 1.409 . S
C281 H273 0.930 . S
C281 C282 1.355 . S
C281 C283 1.415 . S
C282 C281 1.355 . S
C282 C284 1.419 . S
C283 C278 1.425 . S
C283 C280 1.409 . S
C283 C281 1.415 . S
C284 H274 0.930 . S
C284 C282 1.419 . S
C284 C285 1.362 . S
C285 H275 0.930 . S
C285 C278 1.409 . S
C285 C284 1.362 . S
H286 C292 0.930 . S
H287 C295 0.930 . S
H288 C296 0.930 . S
H289 C297 0.930 . S
H290 C300 0.930 . S
H291 C301 0.930 . S
C292 H286 0.930 . S
C292 C293 1.355 . S
C292 C294 1.415 . S
C293 C292 1.355 . S
C293 C295 1.419 . S
C294 C292 1.415 . S
C294 C299 1.425 . S
C294 C301 1.409 . S
C295 H287 0.930 . S
C295 C293 1.419 . S
C295 C296 1.362 . S
C296 H288 0.930 . S
C296 C295 1.362 . S
C296 C299 1.409 . S
C297 H289 0.930 . S
C297 C298 1.355 . S
C297 C299 1.415 . S
C298 C297 1.355 . S
C298 C300 1.419 . S
C299 C294 1.425 . S
C299 C296 1.409 . S
C299 C297 1.415 . S
C300 H290 0.930 . S
C300 C298 1.419 . S
C300 C301 1.362 . S
C301 H291 0.930 . S
C301 C294 1.409 . S
C301 C300 1.362 . S
H302 C308 0.930 . S
H303 C311 0.930 . S
H304 C312 0.930 . S
H305 C313 0.930 . S
H306 C316 0.930 . S
H307 C317 0.930 . S
C308 H302 0.930 . S
C308 C309 1.355 . S
C308 C310 1.415 . S
C309 C308 1.355 . S
C309 C311 1.419 1_554 S
C310 C308 1.415 . S
C310 C315 1.425 . S
C310 C317 1.409 . S
C311 H303 0.930 . S
C311 C309 1.419 1_556 S
C311 C312 1.362 . S
C312 H304 0.930 . S
C312 C311 1.362 . S
C312 C315 1.409 1_556 S
C313 H305 0.930 . S
C313 C314 1.355 . S
C313 C315 1.415 . S
C314 C313 1.355 . S
C314 C316 1.419 . S
C315 C310 1.425 . S
C315 C312 1.409 1_554 S
C315 C313 1.415 . S
C316 H306 0.930 . S
C316 C314 1.419 . S
C316 C317 1.362 . S
C317 H307 0.930 . S
C317 C310 1.409 . S
C317 C316 1.362 . S
H318 C324 0.930 . S
H319 C327 0.930 . S
H320 C328 0.930 . S
H321 C329 0.930 . S
H322 C332 0.930 . S
H323 C333 0.930 . S
C324 H318 0.930 . S
C324 C325 1.355 . S
C324 C326 1.415 . S
C325 C324 1.355 . S
C325 C327 1.419 . S
C326 C324 1.415 . S
C326 C331 1.425 . S
C326 C333 1.409 1_655 S
C327 H319 0.930 . S
C327 C325 1.419 . S
C327 C328 1.362 . S
C328 H320 0.930 . S
C328 C327 1.362 . S
C328 C331 1.409 . S
C329 H321 0.930 . S
C329 C330 1.355 . S
C329 C331 1.415 1_455 S
C330 C329 1.355 . S
C330 C332 1.419 . S
C331 C326 1.425 . S
C331 C328 1.409 . S
C331 C329 1.415 1_655 S
C332 H322 0.930 . S
C332 C330 1.419 . S
C332 C333 1.362 . S
C333 H323 0.930 . S
C333 C326 1.409 1_455 S
C333 C332 1.362 . S
H334 C340 0.930 . S
H335 C343 0.930 . S
H336 C344 0.930 . S
H337 C345 0.930 . S
H338 C348 0.930 . S
H339 C349 0.930 . S
C340 H334 0.930 . S
C340 C341 1.355 . S
C340 C342 1.415 . S
C341 C340 1.355 . S
C341 C343 1.419 . S
C342 C340 1.415 . S
C342 C347 1.425 1_554 S
C342 C349 1.409 . S
C343 H335 0.930 . S
C343 C341 1.419 . S
C343 C344 1.362 1_554 S
C344 H336 0.930 . S
C344 C343 1.362 1_556 S
C344 C347 1.409 . S
C345 H337 0.930 . S
C345 C346 1.355 . S
C345 C347 1.415 . S
C346 C345 1.355 . S
C346 C348 1.419 . S
C347 C342 1.425 1_556 S
C347 C344 1.409 . S
C347 C345 1.415 . S
C348 H338 0.930 . S
C348 C346 1.419 . S
C348 C349 1.362 1_556 S
C349 H339 0.930 . S
C349 C342 1.409 . S
C349 C348 1.362 1_554 S
H350 C356 0.930 . S
H351 C359 0.930 . S
H352 C360 0.930 . S
H353 C361 0.930 . S
H354 C364 0.930 . S
H355 C365 0.930 1_545 S
C356 H350 0.930 . S
C356 C357 1.355 . S
C356 C358 1.415 . S
C357 C356 1.355 . S
C357 C359 1.419 . S
C358 C356 1.415 . S
C358 C363 1.425 1_545 S
C358 C365 1.409 1_545 S
C359 H351 0.930 . S
C359 C357 1.419 . S
C359 C360 1.362 1_545 S
C360 H352 0.930 . S
C360 C359 1.362 1_565 S
C360 C363 1.409 . S
C361 H353 0.930 . S
C361 C362 1.355 . S
C361 C363 1.415 . S
C362 C361 1.355 . S
C362 C364 1.419 . S
C363 C358 1.425 1_565 S
C363 C360 1.409 . S
C363 C361 1.415 . S
C364 H354 0.930 . S
C364 C362 1.419 . S
C364 C365 1.362 . S
C365 H355 0.930 1_565 S
C365 C358 1.409 1_565 S
C365 C364 1.362 . S
H366 C372 0.930 . S
H367 C375 0.930 . S
H368 C376 0.930 . S
H369 C377 0.930 . S
H370 C380 0.930 . S
H371 C381 0.930 . S
C372 H366 0.930 . S
C372 C373 1.355 1_556 S
C372 C374 1.415 . S
C373 C372 1.355 1_554 S
C373 C375 1.419 . S
C374 C372 1.415 . S
C374 C379 1.425 1_556 S
C374 C381 1.409 . S
C375 H367 0.930 . S
C375 C373 1.419 . S
C375 C376 1.362 . S
C376 H368 0.930 . S
C376 C375 1.362 . S
C376 C379 1.409 . S
C377 H369 0.930 . S
C377 C378 1.355 1_554 S
C377 C379 1.415 . S
C378 C377 1.355 1_556 S
C378 C380 1.419 . S
C379 C374 1.425 1_554 S
C379 C376 1.409 . S
C379 C377 1.415 . S
C380 H370 0.930 . S
C380 C378 1.419 . S
C380 C381 1.362 . S
C381 H371 0.930 . S
C381 C374 1.409 . S
C381 C380 1.362 . S
H382 C388 0.930 . S
H383 C391 0.930 . S
H384 C392 0.930 . S
H385 C393 0.930 . S
H386 C396 0.930 . S
H387 C397 0.930 . S
C388 H382 0.930 . S
C388 C389 1.355 . S
C388 C390 1.415 . S
C389 C388 1.355 . S
C389 C391 1.419 . S
C390 C388 1.415 . S
C390 C395 1.425 . S
C390 C397 1.409 1_565 S
C391 H383 0.930 . S
C391 C389 1.419 . S
C391 C392 1.362 . S
C392 H384 0.930 . S
C392 C391 1.362 . S
C392 C395 1.409 . S
C393 H385 0.930 . S
C393 C394 1.355 . S
C393 C395 1.415 1_545 S
C394 C393 1.355 . S
C394 C396 1.419 . S
C395 C390 1.425 . S
C395 C392 1.409 . S
C395 C393 1.415 1_565 S
C396 H386 0.930 . S
C396 C394 1.419 . S
C396 C397 1.362 . S
C397 H387 0.930 . S
C397 C390 1.409 1_545 S
C397 C396 1.362 . S
H398 C404 0.930 . S
H399 C407 0.930 . S
H400 C408 0.930 . S
H401 C409 0.930 . S
H402 C412 0.930 . S
H403 C413 0.930 . S
C404 H398 0.930 . S
C404 C405 1.355 . S
C404 C406 1.415 . S
C405 C404 1.355 . S
C405 C407 1.419 . S
C406 C404 1.415 . S
C406 C411 1.425 . S
C406 C413 1.409 1_655 S
C407 H399 0.930 . S
C407 C405 1.419 . S
C407 C408 1.362 . S
C408 H400 0.930 . S
C408 C407 1.362 . S
C408 C411 1.409 . S
C409 H401 0.930 . S
C409 C410 1.355 . S
C409 C411 1.415 1_455 S
C410 C409 1.355 . S
C410 C412 1.419 . S
C411 C406 1.425 . S
C411 C408 1.409 . S
C411 C409 1.415 1_655 S
C412 H402 0.930 . S
C412 C410 1.419 . S
C412 C413 1.362 . S
C413 H403 0.930 . S
C413 C406 1.409 1_455 S
C413 C412 1.362 . S
H414 C420 0.930 . S
H415 C423 0.930 . S
H416 C424 0.930 . S
H417 C425 0.930 . S
H418 C428 0.930 . S
H419 C429 0.930 . S
C420 H414 0.930 . S
C420 C421 1.355 . S
C420 C422 1.415 . S
C421 C420 1.355 . S
C421 C423 1.419 . S
C422 C420 1.415 . S
C422 C427 1.425 . S
C422 C429 1.409 . S
C423 H415 0.930 . S
C423 C421 1.419 . S
C423 C424 1.362 . S
C424 H416 0.930 . S
C424 C423 1.362 . S
C424 C427 1.409 . S
C425 H417 0.930 . S
C425 C426 1.355 . S
C425 C427 1.415 . S
C426 C425 1.355 . S
C426 C428 1.419 . S
C427 C422 1.425 . S
C427 C424 1.409 . S
C427 C425 1.415 . S
C428 H418 0.930 . S
C428 C426 1.419 . S
C428 C429 1.362 . S
C429 H419 0.930 . S
C429 C422 1.409 . S
C429 C428 1.362 . S
H430 C436 0.930 . S
H431 C439 0.930 . S
H432 C440 0.930 . S
H433 C441 0.930 . S
H434 C444 0.930 . S
H435 C445 0.930 . S
C436 H430 0.930 . S
C436 C437 1.355 . S
C436 C438 1.415 . S
C437 C436 1.355 . S
C437 C439 1.419 . S
C438 C436 1.415 . S
C438 C443 1.425 . S
C438 C445 1.409 . S
C439 H431 0.930 . S
C439 C437 1.419 . S
C439 C440 1.362 . S
C440 H432 0.930 . S
C440 C439 1.362 . S
C440 C443 1.409 . S
C441 H433 0.930 . S
C441 C442 1.355 . S
C441 C443 1.415 . S
C442 C441 1.355 . S
C442 C444 1.419 . S
C443 C438 1.425 . S
C443 C440 1.409 . S
C443 C441 1.415 . S
C444 H434 0.930 . S
C444 C442 1.419 . S
C444 C445 1.362 . S
C445 H435 0.930 . S
C445 C438 1.409 . S
C445 C444 1.362 . S
H446 C452 0.930 . S
H447 C455 0.930 . S
H448 C456 0.930 . S
H449 C457 0.930 . S
H450 C460 0.930 . S
H451 C461 0.930 . S
C452 H446 0.930 . S
C452 C453 1.355 . S
C452 C454 1.415 . S
C453 C452 1.355 . S
C453 C455 1.419 . S
C454 C452 1.415 . S
C454 C459 1.425 . S
C454 C461 1.409 . S
C455 H447 0.930 . S
C455 C453 1.419 . S
C455 C456 1.362 . S
C456 H448 0.930 . S
C456 C455 1.362 . S
C456 C459 1.409 . S
C457 H449 0.930 . S
C457 C458 1.355 . S
C457 C459 1.415 1_554 S
C458 C457 1.355 . S
C458 C460 1.419 . S
C459 C454 1.425 . S
C459 C456 1.409 . S
C459 C457 1.415 1_556 S
C460 H450 0.930 . S
C460 C458 1.419 . S
C460 C461 1.362 1_554 S
C461 H451 0.930 . S
C461 C454 1.409 . S
C461 C460 1.362 1_556 S
H462 C468 0.930 . S
H463 C471 0.930 . S
H464 C472 0.930 . S
H465 C473 0.930 . S
H466 C476 0.930 . S
H467 C477 0.930 . S
C468 H462 0.930 . S
C468 C469 1.355 . S
C468 C470 1.415 . S
C469 C468 1.355 . S
C469 C471 1.419 . S
C470 C468 1.415 . S
C470 C475 1.425 . S
C470 C477 1.409 . S
C471 H463 0.930 . S
C471 C469 1.419 . S
C471 C472 1.362 . S
C472 H464 0.930 . S
C472 C471 1.362 . S
C472 C475 1.409 . S
C473 H465 0.930 . S
C473 C474 1.355 . S
C473 C475 1.415 . S
C474 C473 1.355 . S
C474 C476 1.419 . S
C475 C470 1.425 . S
C475 C472 1.409 . S
C475 C473 1.415 . S
C476 H466 0.930 . S
C476 C474 1.419 . S
C476 C477 1.362 . S
C477 H467 0.930 . S
C477 C470 1.409 . S
C477 C476 1.362 . S
H478 C484 0.930 . S
H479 C487 0.930 . S
H480 C488 0.930 . S
H481 C489 0.930 . S
H482 C492 0.930 . S
H483 C493 0.930 . S
C484 H478 0.930 . S
C484 C485 1.355 . S
C484 C486 1.415 . S
C485 C484 1.355 . S
C485 C487 1.419 . S
C486 C484 1.415 . S
C486 C491 1.425 . S
C486 C493 1.409 . S
C487 H479 0.930 . S
C487 C485 1.419 . S
C487 C488 1.362 . S
C488 H480 0.930 . S
C488 C487 1.362 . S
C488 C491 1.409 . S
C489 H481 0.930 . S
C489 C490 1.355 . S
C489 C491 1.415 1_556 S
C490 C489 1.355 . S
C490 C492 1.419 . S
C491 C486 1.425 . S
C491 C488 1.409 . S
C491 C489 1.415 1_554 S
C492 H482 0.930 . S
C492 C490 1.419 . S
C492 C493 1.362 1_556 S
C493 H483 0.930 . S
C493 C486 1.409 . S
C493 C492 1.362 1_554 S
H494 C500 0.930 . S
H495 C503 0.930 . S
H496 C504 0.930 . S
H497 C505 0.930 . S
H498 C508 0.930 . S
H499 C509 0.930 . S
C500 H494 0.930 . S
C500 C501 1.355 . S
C500 C502 1.415 . S
C501 C500 1.355 . S
C501 C503 1.419 . S
C502 C500 1.415 . S
C502 C507 1.425 . S
C502 C509 1.409 . S
C503 H495 0.930 . S
C503 C501 1.419 . S
C503 C504 1.362 . S
C504 H496 0.930 . S
C504 C503 1.362 . S
C504 C507 1.409 . S
C505 H497 0.930 . S
C505 C506 1.355 . S
C505 C507 1.415 . S
C506 C505 1.355 . S
C506 C508 1.419 . S
C507 C502 1.425 . S
C507 C504 1.409 . S
C507 C505 1.415 . S
C508 H498 0.930 . S
C508 C506 1.419 . S
C508 C509 1.362 . S
C509 H499 0.930 . S
C509 C502 1.409 . S
C509 C508 1.362 . S
C181 C13 2.384 1_556 S
C186 C129 2.384 . S
C197 C158 2.358 . S
C202 C42 2.356 . S
C213 C71 2.336 . S
C218 C100 2.336 1_554 S
C229 C10 1.987 . S
C234 C79 1.669 . S
C245 C21 1.648 . S
C250 C39 2.012 . S
C261 C50 1.715 . S
C266 C68 1.986 . S
C277 C97 1.985 . S
C282 C137 1.693 . S
C293 C126 1.991 . S
C298 C166 1.720 . S
C309 C108 1.681 . S
C314 C155 1.986 . S
C325 C131 1.375 . S
C330 C15 1.404 . S
C341 C160 1.405 . S
C346 C44 1.364 . S
C357 C102 1.362 . S
C362 C73 1.401 . S
C373 C5 2.598 . S
C378 C92 2.598 . S
C389 C34 2.600 . S
C394 C121 2.599 . S
C405 C150 2.640 . S
C410 C63 2.642 . S
C421 C8 1.204 . S
C426 C3 1.204 . S
C437 C32 1.168 . S
C442 C37 1.168 . S
C453 C66 1.164 . S
C458 C61 1.164 . S
C469 C95 1.121 . S
C474 C90 1.121 . S
C485 C124 1.204 . S
C490 C119 1.204 . S
C501 C148 1.156 . S
C506 C153 1.156 . S
