# Generated by pormake.
# Topology ukd, (4)-cn, num edge types: 1
# Building blocks:
#     Node 0, Type 0, BuildingBlock: ICAMEG_clean_sbu_1, # of connection points: 4
#     Node 1, Type 0, BuildingBlock: ICAMEG_clean_sbu_1, # of connection points: 4
#     Node 2, Type 0, BuildingBlock: ICAMEG_clean_sbu_1, # of connection points: 4
#     Node 3, Type 0, BuildingBlock: ICAMEG_clean_sbu_1, # of connection points: 4
#     Node 4, Type 0, BuildingBlock: ICAMEG_clean_sbu_1, # of connection points: 4
#     Node 5, Type 0, BuildingBlock: ICAMEG_clean_sbu_1, # of connection points: 4
#     Node 6, Type 0, BuildingBlock: ICAMEG_clean_sbu_1, # of connection points: 4
#     Node 7, Type 0, BuildingBlock: ICAMEG_clean_sbu_1, # of connection points: 4
#     Node 8, Type 0, BuildingBlock: ICAMEG_clean_sbu_1, # of connection points: 4
#     Node 9, Type 0, BuildingBlock: ICAMEG_clean_sbu_1, # of connection points: 4
#     Node 10, Type 0, BuildingBlock: ICAMEG_clean_sbu_1, # of connection points: 4
#     Node 11, Type 0, BuildingBlock: ICAMEG_clean_sbu_1, # of connection points: 4
#     Node 12, Type 0, BuildingBlock: ICAMEG_clean_sbu_1, # of connection points: 4
#     Node 13, Type 0, BuildingBlock: ICAMEG_clean_sbu_1, # of connection points: 4
#     Node 14, Type 0, BuildingBlock: ICAMEG_clean_sbu_1, # of connection points: 4
#     Node 15, Type 0, BuildingBlock: ICAMEG_clean_sbu_1, # of connection points: 4
#     Node 16, Type 0, BuildingBlock: ICAMEG_clean_sbu_1, # of connection points: 4
#     Node 17, Type 0, BuildingBlock: ICAMEG_clean_sbu_1, # of connection points: 4
#     Node 18, Type 0, BuildingBlock: ICAMEG_clean_sbu_1, # of connection points: 4
#     Node 19, Type 0, BuildingBlock: ICAMEG_clean_sbu_1, # of connection points: 4
#     Node 20, Type 0, BuildingBlock: ICAMEG_clean_sbu_1, # of connection points: 4
#     Node 21, Type 0, BuildingBlock: ICAMEG_clean_sbu_1, # of connection points: 4
#     Node 22, Type 0, BuildingBlock: ICAMEG_clean_sbu_1, # of connection points: 4
#     Node 23, Type 0, BuildingBlock: ICAMEG_clean_sbu_1, # of connection points: 4
#     Node 24, Type 0, BuildingBlock: ICAMEG_clean_sbu_1, # of connection points: 4
#     Node 25, Type 0, BuildingBlock: ICAMEG_clean_sbu_1, # of connection points: 4
#     Node 26, Type 0, BuildingBlock: ICAMEG_clean_sbu_1, # of connection points: 4
#     Node 27, Type 0, BuildingBlock: ICAMEG_clean_sbu_1, # of connection points: 4
#     Node 28, Type 0, BuildingBlock: ICAMEG_clean_sbu_1, # of connection points: 4
#     Node 29, Type 0, BuildingBlock: ICAMEG_clean_sbu_1, # of connection points: 4
#     Node 30, Type 0, BuildingBlock: ICAMEG_clean_sbu_1, # of connection points: 4
#     Node 31, Type 0, BuildingBlock: ICAMEG_clean_sbu_1, # of connection points: 4
#     Edge 32, Type (0, 0), BuildingBlock: KIFKEQ_clean_linker_1, # of connection points: 2
#     Edge 33, Type (0, 0), BuildingBlock: KIFKEQ_clean_linker_1, # of connection points: 2
#     Edge 34, Type (0, 0), BuildingBlock: KIFKEQ_clean_linker_1, # of connection points: 2
#     Edge 35, Type (0, 0), BuildingBlock: KIFKEQ_clean_linker_1, # of connection points: 2
#     Edge 36, Type (0, 0), BuildingBlock: KIFKEQ_clean_linker_1, # of connection points: 2
#     Edge 37, Type (0, 0), BuildingBlock: KIFKEQ_clean_linker_1, # of connection points: 2
#     Edge 38, Type (0, 0), BuildingBlock: KIFKEQ_clean_linker_1, # of connection points: 2
#     Edge 39, Type (0, 0), BuildingBlock: KIFKEQ_clean_linker_1, # of connection points: 2
#     Edge 40, Type (0, 0), BuildingBlock: KIFKEQ_clean_linker_1, # of connection points: 2
#     Edge 41, Type (0, 0), BuildingBlock: KIFKEQ_clean_linker_1, # of connection points: 2
#     Edge 42, Type (0, 0), BuildingBlock: KIFKEQ_clean_linker_1, # of connection points: 2
#     Edge 43, Type (0, 0), BuildingBlock: KIFKEQ_clean_linker_1, # of connection points: 2
#     Edge 44, Type (0, 0), BuildingBlock: KIFKEQ_clean_linker_1, # of connection points: 2
#     Edge 45, Type (0, 0), BuildingBlock: KIFKEQ_clean_linker_1, # of connection points: 2
#     Edge 46, Type (0, 0), BuildingBlock: KIFKEQ_clean_linker_1, # of connection points: 2
#     Edge 47, Type (0, 0), BuildingBlock: KIFKEQ_clean_linker_1, # of connection points: 2
#     Edge 48, Type (0, 0), BuildingBlock: KIFKEQ_clean_linker_1, # of connection points: 2
#     Edge 49, Type (0, 0), BuildingBlock: KIFKEQ_clean_linker_1, # of connection points: 2
#     Edge 50, Type (0, 0), BuildingBlock: KIFKEQ_clean_linker_1, # of connection points: 2
#     Edge 51, Type (0, 0), BuildingBlock: KIFKEQ_clean_linker_1, # of connection points: 2
#     Edge 52, Type (0, 0), BuildingBlock: KIFKEQ_clean_linker_1, # of connection points: 2
#     Edge 53, Type (0, 0), BuildingBlock: KIFKEQ_clean_linker_1, # of connection points: 2
#     Edge 54, Type (0, 0), BuildingBlock: KIFKEQ_clean_linker_1, # of connection points: 2
#     Edge 55, Type (0, 0), BuildingBlock: KIFKEQ_clean_linker_1, # of connection points: 2
#     Edge 56, Type (0, 0), BuildingBlock: KIFKEQ_clean_linker_1, # of connection points: 2
#     Edge 57, Type (0, 0), BuildingBlock: KIFKEQ_clean_linker_1, # of connection points: 2
#     Edge 58, Type (0, 0), BuildingBlock: KIFKEQ_clean_linker_1, # of connection points: 2
#     Edge 59, Type (0, 0), BuildingBlock: KIFKEQ_clean_linker_1, # of connection points: 2
#     Edge 60, Type (0, 0), BuildingBlock: KIFKEQ_clean_linker_1, # of connection points: 2
#     Edge 61, Type (0, 0), BuildingBlock: KIFKEQ_clean_linker_1, # of connection points: 2
#     Edge 62, Type (0, 0), BuildingBlock: KIFKEQ_clean_linker_1, # of connection points: 2
#     Edge 63, Type (0, 0), BuildingBlock: KIFKEQ_clean_linker_1, # of connection points: 2
#     Edge 64, Type (0, 0), BuildingBlock: KIFKEQ_clean_linker_1, # of connection points: 2
#     Edge 65, Type (0, 0), BuildingBlock: KIFKEQ_clean_linker_1, # of connection points: 2
#     Edge 66, Type (0, 0), BuildingBlock: KIFKEQ_clean_linker_1, # of connection points: 2
#     Edge 67, Type (0, 0), BuildingBlock: KIFKEQ_clean_linker_1, # of connection points: 2
#     Edge 68, Type (0, 0), BuildingBlock: KIFKEQ_clean_linker_1, # of connection points: 2
#     Edge 69, Type (0, 0), BuildingBlock: KIFKEQ_clean_linker_1, # of connection points: 2
#     Edge 70, Type (0, 0), BuildingBlock: KIFKEQ_clean_linker_1, # of connection points: 2
#     Edge 71, Type (0, 0), BuildingBlock: KIFKEQ_clean_linker_1, # of connection points: 2
#     Edge 72, Type (0, 0), BuildingBlock: KIFKEQ_clean_linker_1, # of connection points: 2
#     Edge 73, Type (0, 0), BuildingBlock: KIFKEQ_clean_linker_1, # of connection points: 2
#     Edge 74, Type (0, 0), BuildingBlock: KIFKEQ_clean_linker_1, # of connection points: 2
#     Edge 75, Type (0, 0), BuildingBlock: KIFKEQ_clean_linker_1, # of connection points: 2
#     Edge 76, Type (0, 0), BuildingBlock: KIFKEQ_clean_linker_1, # of connection points: 2
#     Edge 77, Type (0, 0), BuildingBlock: KIFKEQ_clean_linker_1, # of connection points: 2
#     Edge 78, Type (0, 0), BuildingBlock: KIFKEQ_clean_linker_1, # of connection points: 2
#     Edge 79, Type (0, 0), BuildingBlock: KIFKEQ_clean_linker_1, # of connection points: 2
#     Edge 80, Type (0, 0), BuildingBlock: KIFKEQ_clean_linker_1, # of connection points: 2
#     Edge 81, Type (0, 0), BuildingBlock: KIFKEQ_clean_linker_1, # of connection points: 2
#     Edge 82, Type (0, 0), BuildingBlock: KIFKEQ_clean_linker_1, # of connection points: 2
#     Edge 83, Type (0, 0), BuildingBlock: KIFKEQ_clean_linker_1, # of connection points: 2
#     Edge 84, Type (0, 0), BuildingBlock: KIFKEQ_clean_linker_1, # of connection points: 2
#     Edge 85, Type (0, 0), BuildingBlock: KIFKEQ_clean_linker_1, # of connection points: 2
#     Edge 86, Type (0, 0), BuildingBlock: KIFKEQ_clean_linker_1, # of connection points: 2
#     Edge 87, Type (0, 0), BuildingBlock: KIFKEQ_clean_linker_1, # of connection points: 2
#     Edge 88, Type (0, 0), BuildingBlock: KIFKEQ_clean_linker_1, # of connection points: 2
#     Edge 89, Type (0, 0), BuildingBlock: KIFKEQ_clean_linker_1, # of connection points: 2
#     Edge 90, Type (0, 0), BuildingBlock: KIFKEQ_clean_linker_1, # of connection points: 2
#     Edge 91, Type (0, 0), BuildingBlock: KIFKEQ_clean_linker_1, # of connection points: 2
#     Edge 92, Type (0, 0), BuildingBlock: KIFKEQ_clean_linker_1, # of connection points: 2
#     Edge 93, Type (0, 0), BuildingBlock: KIFKEQ_clean_linker_1, # of connection points: 2
#     Edge 94, Type (0, 0), BuildingBlock: KIFKEQ_clean_linker_1, # of connection points: 2
#     Edge 95, Type (0, 0), BuildingBlock: KIFKEQ_clean_linker_1, # of connection points: 2
# Relax obj value: 0.008
# Max RMSD: 0.028
# Mean RMSD: 0.028
data_MOF--net-ukd--node1-ICAMEG_clean_sbu_1--edge1-KIFKEQ_clean_linker_1
_symmetry_space_group_name_H-M    P1
_symmetry_Int_Tables_number       1
_symmetry_cell_setting            triclinic
loop_
_symmetry_equiv_pos_as_xyz
'x, y, z'
_cell_length_a     48.761246
_cell_length_b     48.756693
_cell_length_c     80.154093
_cell_angle_alpha  89.996265
_cell_angle_beta   90.002117
_cell_angle_gamma 89.967517
loop_
_atom_site_label
_atom_site_type_symbol
_atom_site_fract_x
_atom_site_fract_y
_atom_site_fract_z
_atom_type_partial_charge
Co0 Co 0.18296 0.18814 0.33057 0.0
Co1 Co 0.21505 0.18531 0.36878 0.0
O2 O 0.2153 0.18106 0.34443 0.0
C3 C 0.22286 0.22379 0.31233 0.0
O4 O 0.22728 0.23751 0.32617 0.0
C5 C 0.23774 0.12916 0.36412 0.0
O6 O 0.2186 0.12483 0.35291 0.0
O7 O 0.18215 0.16135 0.37084 0.0
O8 O 0.15799 0.17296 0.34811 0.0
H9 H 0.17152 0.20241 0.42465 0.0
H10 H 0.22948 0.15672 0.31644 0.0
O11 O 0.20683 0.20317 0.31231 0.0
H12 H 0.14999 0.09445 0.31328 0.0
H13 H 0.13013 0.19065 0.2766 0.0
H14 H 0.12749 0.21084 0.33686 0.0
H15 H 0.14485 0.14117 0.32462 0.0
H16 H 0.17032 0.1812 0.29437 0.0
O17 O 0.23947 0.15236 0.37136 0.0
H18 H 0.17229 0.19749 0.39403 0.0
H19 H 0.25783 0.18115 0.39528 0.0
H20 H 0.08676 0.2204 0.31956 0.0
H21 H 0.23549 0.11023 0.30483 0.0
H22 H 0.08793 0.21029 0.28919 0.0
H23 H 0.19557 0.07872 0.30326 0.0
O24 O 0.17881 0.22552 0.3404 0.0
H25 H 0.30849 0.21086 0.3475 0.0
H26 H 0.23041 0.24025 0.3823 0.0
H27 H 0.27043 0.27075 0.37923 0.0
H28 H 0.30987 0.25607 0.36176 0.0
H29 H 0.26794 0.18108 0.35081 0.0
H30 H 0.25795 0.18567 0.42593 0.0
H31 H 0.21459 0.19648 0.44081 0.0
O32 O 0.19078 0.21837 0.36712 0.0
C33 C 0.16005 0.16136 0.36233 0.0
C34 C 0.19057 0.1978 0.4183 0.0
C35 C 0.23907 0.18836 0.41903 0.0
N36 N 0.21511 0.1893 0.39286 0.0
C37 C 0.19115 0.19508 0.40096 0.0
C38 C 0.23886 0.18579 0.40167 0.0
C39 C 0.21473 0.19444 0.42737 0.0
C40 C 0.21196 0.1432 0.31565 0.0
N41 N 0.18684 0.15167 0.32117 0.0
C42 C 0.21551 0.11687 0.30913 0.0
C43 C 0.19311 0.09918 0.30827 0.0
C44 C 0.16754 0.10798 0.31391 0.0
C45 C 0.16478 0.13444 0.32037 0.0
C46 C 0.12936 0.1951 0.28982 0.0
C47 C 0.12811 0.20625 0.32367 0.0
C48 C 0.15207 0.18985 0.29994 0.0
N49 N 0.15119 0.1953 0.31667 0.0
C50 C 0.105 0.21177 0.31393 0.0
C51 C 0.10568 0.20611 0.29689 0.0
C52 C 0.18023 0.23309 0.35562 0.0
C53 C 0.29146 0.21745 0.35519 0.0
C54 C 0.24746 0.23375 0.37464 0.0
C55 C 0.27009 0.25108 0.37298 0.0
C56 C 0.29221 0.24283 0.36318 0.0
N57 N 0.24693 0.20885 0.36681 0.0
C58 C 0.2685 0.20064 0.35715 0.0
Co59 Co 0.07376 0.93079 0.57801 0.0
Co60 Co 0.07258 0.96783 0.61503 0.0
O61 O 0.07909 0.96469 0.59088 0.0
C62 C 0.03856 0.97084 0.55944 0.0
O63 O 0.02992 0.98087 0.57371 0.0
C64 C 0.13031 0.98736 0.61123 0.0
O65 O 0.13446 0.96798 0.60014 0.0
O66 O 0.0939 0.93364 0.61974 0.0
O67 O 0.09156 0.9089 0.59608 0.0
H68 H 0.04543 0.93305 0.67168 0.0
H69 H 0.10145 0.97869 0.56281 0.0
O70 O 0.0562 0.95158 0.55921 0.0
H71 H 0.16865 0.90325 0.55964 0.0
H72 H 0.07337 0.87306 0.52587 0.0
H73 H 0.05564 0.87451 0.58644 0.0
H74 H 0.12266 0.89549 0.57156 0.0
H75 H 0.08054 0.91536 0.54216 0.0
O76 O 0.10684 0.99019 0.61799 0.0
H77 H 0.05381 0.92957 0.64141 0.0
H78 H 0.0774 0.01337 0.63976 0.0
H79 H 0.04846 0.83167 0.57065 0.0
H80 H 0.14709 0.98734 0.55059 0.0
H81 H 0.05732 0.83079 0.54014 0.0
H82 H 0.18109 0.94947 0.54903 0.0
O83 O 0.03672 0.92464 0.58817 0.0
H84 H 0.05647 0.05989 0.58865 0.0
H85 H 0.01765 0.9888 0.62548 0.0
H86 H 0.99065 0.03038 0.61936 0.0
H87 H 0.01008 0.06631 0.60084 0.0
H88 H 0.08267 0.01785 0.595 0.0
H89 H 0.0695 0.0177 0.67003 0.0
H90 H 0.0533 0.97736 0.68619 0.0
O91 O 0.03831 0.94595 0.61296 0.0
C92 C 0.09881 0.91205 0.61125 0.0
C93 C 0.05244 0.95078 0.66477 0.0
C94 C 0.06598 0.99828 0.66385 0.0
N95 N 0.06598 0.97126 0.63881 0.0
C96 C 0.05717 0.94895 0.64762 0.0
C97 C 0.07049 0.99569 0.64671 0.0
C98 C 0.05688 0.97565 0.67291 0.0
C99 C 0.1161 0.96208 0.56207 0.0
N100 N 0.1095 0.93665 0.568 0.0
C101 C 0.14192 0.96711 0.55519 0.0
C102 C 0.161 0.94587 0.55433 0.0
C103 C 0.15405 0.91994 0.56031 0.0
C104 C 0.12805 0.91569 0.56713 0.0
C105 C 0.06946 0.87318 0.53916 0.0
C106 C 0.0597 0.87423 0.57318 0.0
C107 C 0.0734 0.8971 0.54844 0.0
N108 N 0.06864 0.89736 0.56525 0.0
C109 C 0.05552 0.84994 0.5643 0.0
C110 C 0.06047 0.84947 0.54718 0.0
C111 C 0.02617 0.931 0.60222 0.0
C112 C 0.04781 0.04441 0.59677 0.0
C113 C 0.0262 1.00429 0.61736 0.0
C114 C 0.01085 0.02783 0.61397 0.0
C115 C 0.02177 0.04798 0.60359 0.0
N116 N 0.05176 1.00096 0.61064 0.0
C117 C 0.06259 0.02062 0.60045 0.0
Co118 Co 0.33199 0.82315 0.82911 0.0
Co119 Co 0.29494 0.82522 0.86566 0.0
O120 O 0.29827 0.83105 0.84154 0.0
C121 C 0.29053 0.79251 0.80914 0.0
O122 O 0.28083 0.78219 0.82307 0.0
C123 C 0.27616 0.8837 0.86352 0.0
O124 O 0.29918 0.89015 0.85597 0.0
O125 O 0.32874 0.84735 0.87002 0.0
O126 O 0.35501 0.83658 0.84801 0.0
H127 H 0.32959 0.80188 0.92297 0.0
H128 H 0.28847 0.85717 0.81377 0.0
O129 O 0.3102 0.80965 0.80954 0.0
H130 H 0.37055 0.91618 0.8151 0.0
H131 H 0.39176 0.82105 0.77788 0.0
H132 H 0.38545 0.79777 0.83763 0.0
H133 H 0.37256 0.8687 0.82562 0.0
H134 H 0.34979 0.83147 0.79384 0.0
O135 O 0.27147 0.85894 0.86773 0.0
H136 H 0.33331 0.80885 0.89258 0.0
H137 H 0.24891 0.83009 0.89006 0.0
H138 H 0.4279 0.78719 0.82218 0.0
H139 H 0.28559 0.90449 0.80298 0.0
H140 H 0.43124 0.79884 0.79208 0.0
H141 H 0.32683 0.93435 0.80364 0.0
O142 O 0.33349 0.78514 0.83834 0.0
H143 H 0.20373 0.80588 0.83902 0.0
H144 H 0.27482 0.77049 0.87711 0.0
H145 H 0.23393 0.74237 0.87126 0.0
H146 H 0.19799 0.76007 0.85211 0.0
H147 H 0.2451 0.83322 0.8451 0.0
H148 H 0.24434 0.82357 0.92044 0.0
H149 H 0.28485 0.80926 0.9371 0.0
O150 O 0.31765 0.79109 0.86437 0.0
C151 C 0.35173 0.84727 0.86239 0.0
C152 C 0.31177 0.80805 0.91584 0.0
C153 C 0.26393 0.82026 0.91442 0.0
N154 N 0.29132 0.8197 0.88953 0.0
C155 C 0.31373 0.81196 0.89862 0.0
C156 C 0.26667 0.82399 0.89723 0.0
C157 C 0.28667 0.81221 0.92376 0.0
C158 C 0.30655 0.86999 0.81399 0.0
N159 N 0.33067 0.86015 0.82026 0.0
C160 C 0.30477 0.89679 0.80791 0.0
C161 C 0.32791 0.91354 0.8083 0.0
C162 C 0.35244 0.90336 0.81474 0.0
C163 C 0.35344 0.87648 0.82072 0.0
C164 C 0.39057 0.8159 0.79099 0.0
C165 C 0.3868 0.80302 0.82455 0.0
C166 C 0.36682 0.82168 0.80008 0.0
N167 N 0.36522 0.81535 0.81667 0.0
C168 C 0.41087 0.79693 0.81586 0.0
C169 C 0.41272 0.80345 0.79897 0.0
C170 C 0.32936 0.7766 0.85318 0.0
C171 C 0.21922 0.79797 0.84741 0.0
C172 C 0.25936 0.77828 0.8687 0.0
C173 C 0.2362 0.7623 0.86548 0.0
C174 C 0.21603 0.77225 0.85474 0.0
N175 N 0.26233 0.8035 0.86147 0.0
C176 C 0.24264 0.81339 0.85094 0.0
Co177 Co 0.43741 0.07813 0.08013 0.0
Co178 Co 0.43628 0.04402 0.11791 0.0
O179 O 0.43074 0.04526 0.09366 0.0
C180 C 0.47296 0.03876 0.06148 0.0
O181 O 0.48632 0.03367 0.07537 0.0
C182 C 0.37911 0.02317 0.11396 0.0
O183 O 0.37477 0.04232 0.10275 0.0
O184 O 0.41384 0.07788 0.1212 0.0
O185 O 0.42229 0.10226 0.09803 0.0
H186 H 0.45923 0.08382 0.17401 0.0
H187 H 0.40636 0.03172 0.06559 0.0
O188 O 0.45249 0.05501 0.06153 0.0
H189 H 0.34303 0.11056 0.06383 0.0
H190 H 0.43847 0.13262 0.02675 0.0
H191 H 0.45957 0.13365 0.08692 0.0
H192 H 0.38987 0.11586 0.07497 0.0
H193 H 0.42973 0.09182 0.04413 0.0
O194 O 0.40252 0.02091 0.12087 0.0
H195 H 0.45234 0.0848 0.14353 0.0
H196 H 0.43165 1.00018 0.14377 0.0
H197 H 0.46844 0.17498 0.07002 0.0
H198 H 0.35977 0.02557 0.05419 0.0
H199 H 0.45787 0.17463 0.03971 0.0
H200 H 0.32773 0.06516 0.05331 0.0
O201 O 0.47496 0.0826 0.08974 0.0
H202 H 0.45632 0.95081 0.09417 0.0
H203 H 0.49109 0.02522 0.13004 0.0
H204 H 0.5195 0.98404 0.12551 0.0
H205 H 0.5021 0.94643 0.10749 0.0
H206 H 0.42868 0.9925 0.09893 0.0
H207 H 0.43809 0.99835 0.17427 0.0
H208 H 0.45209 0.04035 0.18959 0.0
O209 O 0.47023 0.06671 0.11587 0.0
C210 C 0.41247 0.09998 0.11271 0.0
C211 C 0.45321 0.06536 0.16747 0.0
C212 C 0.44131 0.0174 0.16762 0.0
N213 N 0.44178 0.04254 0.14187 0.0
C214 C 0.44934 0.06577 0.15021 0.0
C215 C 0.43763 0.01858 0.15035 0.0
C216 C 0.44917 0.04097 0.17621 0.0
C217 C 0.39261 0.0491 0.06511 0.0
N218 N 0.40085 0.07413 0.0709 0.0
C219 C 0.36622 0.04547 0.0587 0.0
C220 C 0.34824 0.06768 0.05824 0.0
C221 C 0.35681 0.09315 0.06415 0.0
C222 C 0.38333 0.09601 0.07049 0.0
C223 C 0.44312 0.13305 0.03995 0.0
C224 C 0.45478 0.13339 0.07376 0.0
C225 C 0.43826 0.10998 0.04986 0.0
N226 N 0.44396 0.11041 0.06655 0.0
C227 C 0.4599 0.15683 0.06424 0.0
C228 C 0.45399 0.15661 0.04723 0.0
C229 C 0.48396 0.0789 0.10453 0.0
C230 C 0.46409 0.96703 0.10208 0.0
C231 C 0.48343 0.00901 0.12212 0.0
C232 C 0.49957 0.9857 0.11964 0.0
C233 C 0.48979 0.9646 0.10954 0.0
N234 N 0.45821 0.01121 0.1148 0.0
C235 C 0.4485 0.99063 0.10485 0.0
Co236 Co 0.1827 0.82323 0.1808 0.0
Co237 Co 0.21698 0.82453 0.14311 0.0
O238 O 0.21559 0.83018 0.16735 0.0
C239 C 0.22274 0.78871 0.19962 0.0
O240 O 0.22828 0.7755 0.18575 0.0
C241 C 0.23765 0.88181 0.14698 0.0
O242 O 0.21842 0.88619 0.15813 0.0
O243 O 0.18307 0.84687 0.13975 0.0
O244 O 0.15851 0.83788 0.16277 0.0
H245 H 0.17751 0.80125 0.08697 0.0
H246 H 0.22857 0.85508 0.19534 0.0
O247 O 0.20588 0.80867 0.19953 0.0
H248 H 0.14886 0.91734 0.19662 0.0
H249 H 0.12775 0.82202 0.23401 0.0
H250 H 0.12754 0.80027 0.17392 0.0
H251 H 0.14428 0.8703 0.18568 0.0
H252 H 0.1686 0.8311 0.21673 0.0
O253 O 0.24001 0.85835 0.14015 0.0
H254 H 0.17637 0.80827 0.11744 0.0
H255 H 0.26092 0.82919 0.11733 0.0
H256 H 0.08618 0.79105 0.19071 0.0
H257 H 0.23399 0.90188 0.20656 0.0
H258 H 0.08612 0.80195 0.22099 0.0
H259 H 0.19396 0.93339 0.20719 0.0
O260 O 0.17882 0.7855 0.17133 0.0
H261 H 0.31011 0.80488 0.16709 0.0
H262 H 0.23605 0.76976 0.13108 0.0
H263 H 0.2773 0.7415 0.13572 0.0
H264 H 0.31473 0.75907 0.15382 0.0
H265 H 0.26836 0.83236 0.1622 0.0
H266 H 0.26292 0.82263 0.08684 0.0
H267 H 0.22103 0.80846 0.07147 0.0
O268 O 0.1944 0.79051 0.14515 0.0
C269 C 0.16085 0.84789 0.14814 0.0
C270 C 0.19592 0.80736 0.09354 0.0
C271 C 0.24385 0.81939 0.09346 0.0
N272 N 0.21859 0.81896 0.11917 0.0
C273 C 0.19542 0.8113 0.11079 0.0
C274 C 0.24257 0.82314 0.11072 0.0
C275 C 0.22034 0.81143 0.08484 0.0
C276 C 0.211 0.86859 0.19572 0.0
N277 N 0.18613 0.85994 0.1899 0.0
C278 C 0.21422 0.8951 0.20203 0.0
C279 C 0.19176 0.91279 0.20235 0.0
C280 C 0.16645 0.9038 0.19641 0.0
C281 C 0.16401 0.87717 0.19017 0.0
C282 C 0.12751 0.81723 0.22082 0.0
C283 C 0.12763 0.8052 0.18707 0.0
C284 C 0.1506 0.82227 0.21098 0.0
N285 N 0.15039 0.81639 0.1943 0.0
C286 C 0.10417 0.79988 0.19652 0.0
C287 C 0.10415 0.80597 0.21351 0.0
C288 C 0.18246 0.7766 0.15651 0.0
C289 C 0.29396 0.79702 0.15915 0.0
C290 C 0.25218 0.7775 0.13902 0.0
C291 C 0.27553 0.76143 0.14157 0.0
C292 C 0.29653 0.77131 0.15172 0.0
N293 N 0.24985 0.80273 0.14632 0.0
C294 C 0.27033 0.81253 0.1563 0.0
Co295 Co 0.43429 0.93031 0.42953 0.0
Co296 Co 0.43646 0.96628 0.3922 0.0
O297 O 0.4295 0.96381 0.41628 0.0
C298 C 0.47186 0.96776 0.44826 0.0
O299 O 0.48501 0.97288 0.43431 0.0
C300 C 0.37896 0.98649 0.39561 0.0
O301 O 0.37451 0.96714 0.40667 0.0
O302 O 0.41494 0.93218 0.38767 0.0
O303 O 0.41708 0.90784 0.4115 0.0
H304 H 0.46438 0.92997 0.33603 0.0
H305 H 0.4062 0.9787 0.44397 0.0
O306 O 0.45103 0.95201 0.44824 0.0
H307 H 0.33878 0.90353 0.44703 0.0
H308 H 0.43327 0.87464 0.48248 0.0
H309 H 0.45228 0.87358 0.42206 0.0
H310 H 0.38509 0.89536 0.43568 0.0
H311 H 0.42674 0.91635 0.46554 0.0
O312 O 0.40249 0.98898 0.38888 0.0
H313 H 0.45547 0.92726 0.36628 0.0
H314 H 0.43236 0.01126 0.36705 0.0
H315 H 0.45886 0.83133 0.43852 0.0
H316 H 0.36023 0.98775 0.4556 0.0
H317 H 0.44934 0.8317 0.46896 0.0
H318 H 0.32612 0.95002 0.45712 0.0
O319 O 0.47156 0.92355 0.41977 0.0
H320 H 0.45328 0.05864 0.41799 0.0
H321 H 0.4917 0.98641 0.38182 0.0
H322 H 0.51906 0.0278 0.38772 0.0
H323 H 0.49983 0.06432 0.4059 0.0
H324 H 0.4267 0.01679 0.41187 0.0
H325 H 0.4408 0.01481 0.33678 0.0
H326 H 0.45702 0.97399 0.32108 0.0
O327 O 0.47043 0.94406 0.39469 0.0
C328 C 0.41006 0.9107 0.39626 0.0
C329 C 0.45735 0.94791 0.34274 0.0
C330 C 0.44409 0.99552 0.34316 0.0
N331 N 0.44349 0.96908 0.36843 0.0
C332 C 0.45232 0.94651 0.35987 0.0
C333 C 0.43927 0.99336 0.36029 0.0
C334 C 0.4532 0.97261 0.33436 0.0
C335 C 0.39151 0.96215 0.44468 0.0
N336 N 0.39824 0.93657 0.43905 0.0
C337 C 0.3655 0.96741 0.45124 0.0
C338 C 0.34635 0.94624 0.45207 0.0
C339 C 0.35343 0.92016 0.44639 0.0
C340 C 0.37962 0.91568 0.43988 0.0
C341 C 0.43745 0.87421 0.46922 0.0
C342 C 0.44793 0.87385 0.43528 0.0
C343 C 0.43386 0.89779 0.45957 0.0
N344 N 0.43896 0.89735 0.4428 0.0
C345 C 0.45177 0.84989 0.44454 0.0
C346 C 0.44645 0.85012 0.46163 0.0
C347 C 0.48232 0.92935 0.40567 0.0
C348 C 0.46185 0.04291 0.41002 0.0
C349 C 0.48323 1.00216 0.38979 0.0
C350 C 0.49879 0.02558 0.39305 0.0
C351 C 0.48799 0.04606 0.40325 0.0
N352 N 0.45757 0.99925 0.39643 0.0
C353 C 0.44687 0.01921 0.40647 0.0
Co354 Co 0.32723 0.18386 0.67857 0.0
Co355 Co 0.29252 0.18553 0.6408 0.0
O356 O 0.29415 0.179 0.66495 0.0
C357 C 0.28955 0.22206 0.69676 0.0
O358 O 0.28502 0.23531 0.68276 0.0
C359 C 0.27228 0.12806 0.64422 0.0
O360 O 0.29135 0.12375 0.65548 0.0
O361 O 0.32666 0.16378 0.63685 0.0
O362 O 0.35024 0.1662 0.66094 0.0
H363 H 0.33086 0.21223 0.58493 0.0
H364 H 0.27819 0.1562 0.69243 0.0
O365 O 0.30501 0.201 0.69691 0.0
H366 H 0.35307 0.08865 0.69728 0.0
H367 H 0.38115 0.18364 0.7322 0.0
H368 H 0.38426 0.20144 0.67166 0.0
H369 H 0.36183 0.13473 0.68574 0.0
H370 H 0.33999 0.17695 0.7148 0.0
O371 O 0.26986 0.15156 0.63742 0.0
H372 H 0.33248 0.20388 0.61526 0.0
H373 H 0.2484 0.18117 0.61511 0.0
H374 H 0.42598 0.20815 0.68858 0.0
H375 H 0.26853 0.11049 0.70426 0.0
H376 H 0.42457 0.19924 0.71908 0.0
H377 H 0.30612 0.07631 0.70666 0.0
O378 O 0.33444 0.22094 0.66865 0.0
H379 H 0.19935 0.20313 0.66531 0.0
H380 H 0.27289 0.24066 0.62981 0.0
H381 H 0.23139 0.26828 0.63501 0.0
H382 H 0.19421 0.2495 0.65285 0.0
H383 H 0.24133 0.1763 0.65988 0.0
H384 H 0.24593 0.18906 0.58475 0.0
H385 H 0.28734 0.20479 0.56947 0.0
O386 O 0.31474 0.21949 0.64335 0.0
C387 C 0.34784 0.15889 0.64572 0.0
C388 C 0.31266 0.20542 0.59145 0.0
C389 C 0.265 0.19238 0.59135 0.0
N390 N 0.29055 0.19214 0.61696 0.0
C391 C 0.31344 0.20071 0.60863 0.0
C392 C 0.26655 0.18787 0.60853 0.0
C393 C 0.28825 0.20122 0.58278 0.0
C394 C 0.29467 0.14147 0.69352 0.0
N395 N 0.32051 0.14802 0.68826 0.0
C396 C 0.28907 0.11561 0.70019 0.0
C397 C 0.31016 0.09643 0.70152 0.0
C398 C 0.3365 0.10332 0.69623 0.0
C399 C 0.34131 0.12937 0.6896 0.0
C400 C 0.38203 0.18755 0.71892 0.0
C401 C 0.38354 0.19735 0.68491 0.0
C402 C 0.35877 0.18387 0.709 0.0
N403 N 0.35977 0.18863 0.6922 0.0
C404 C 0.40721 0.20126 0.69443 0.0
C405 C 0.40639 0.19629 0.71155 0.0
C406 C 0.32911 0.23152 0.65443 0.0
C407 C 0.21537 0.21151 0.65748 0.0
C408 C 0.25686 0.23239 0.63763 0.0
C409 C 0.23337 0.2481 0.6405 0.0
C410 C 0.21252 0.23754 0.6505 0.0
N411 N 0.25947 0.20684 0.64448 0.0
C412 C 0.23914 0.19638 0.65432 0.0
Co413 Co 0.07418 0.08079 0.93048 0.0
Co414 Co 0.07511 0.04501 0.89338 0.0
O415 O 0.081 0.04743 0.91751 0.0
C416 C 0.03983 0.04129 0.94966 0.0
O417 O 0.02707 0.03514 0.93572 0.0
C418 C 0.13327 0.02564 0.89557 0.0
O419 O 0.13955 0.04812 0.90375 0.0
O420 O 0.09753 0.07871 0.88938 0.0
O421 O 0.08874 0.1042 0.91207 0.0
H422 H 0.05188 0.08181 0.83656 0.0
H423 H 0.10625 0.03525 0.94525 0.0
O424 O 0.05964 0.0583 0.94954 0.0
H425 H 0.16837 0.11503 0.94565 0.0
H426 H 0.0733 0.13765 0.98293 0.0
H427 H 0.05133 0.13577 0.92289 0.0
H428 H 0.12119 0.11934 0.93489 0.0
H429 H 0.08223 0.09615 0.96619 0.0
O430 O 0.10862 0.02133 0.89098 0.0
H431 H 0.05899 0.08444 0.86698 0.0
H432 H 0.07943 0.99977 0.86842 0.0
H433 H 0.04227 0.17776 0.93914 0.0
H434 H 0.15323 0.03006 0.95626 0.0
H435 H 0.05328 0.17888 0.96939 0.0
H436 H 0.18465 0.07014 0.95647 0.0
O437 O 0.03642 0.08442 0.92104 0.0
H438 H 0.05479 0.95322 0.91901 0.0
H439 H 0.02013 0.0259 0.88177 0.0
H440 H 0.99156 0.98515 0.88717 0.0
H441 H 0.00889 0.94841 0.90589 0.0
H442 H 0.08259 0.99445 0.91337 0.0
H443 H 0.07277 0.99629 0.838 0.0
H444 H 0.05879 0.03749 0.82186 0.0
O445 O 0.04128 0.06801 0.89505 0.0
C446 C 0.09861 0.10127 0.89744 0.0
C447 C 0.0579 0.0637 0.84345 0.0
C448 C 0.06966 0.01571 0.84426 0.0
N449 N 0.06945 0.04226 0.86948 0.0
C450 C 0.06189 0.06504 0.86069 0.0
C451 C 0.07347 0.01783 0.86148 0.0
C452 C 0.06181 0.03883 0.83522 0.0
C453 C 0.11976 0.05282 0.94542 0.0
N454 N 0.11096 0.07758 0.9395 0.0
C455 C 0.14635 0.04974 0.95162 0.0
C456 C 0.16399 0.07223 0.95171 0.0
C457 C 0.15487 0.09742 0.94564 0.0
C458 C 0.12815 0.09972 0.93952 0.0
C459 C 0.06846 0.13743 0.96976 0.0
C460 C 0.05632 0.13614 0.93603 0.0
C461 C 0.07341 0.11397 0.96022 0.0
N462 N 0.06748 0.1136 0.94355 0.0
C463 C 0.05108 0.15996 0.94517 0.0
C464 C 0.05723 0.16056 0.96215 0.0
C465 C 0.02745 0.08036 0.90629 0.0
C466 C 0.04703 0.96906 0.9108 0.0
C467 C 0.02777 0.01007 0.88999 0.0
C468 C 0.01153 0.987 0.89296 0.0
C469 C 0.02127 0.96639 0.90345 0.0
N470 N 0.05305 0.01251 0.89721 0.0
C471 C 0.06272 0.99241 0.90753 0.0
Co472 Co 0.82954 0.82278 0.67828 0.0
Co473 Co 0.79386 0.82416 0.64105 0.0
O474 O 0.79621 0.83022 0.66527 0.0
C475 C 0.78778 0.79132 0.69765 0.0
O476 O 0.77835 0.78119 0.6836 0.0
C477 C 0.77351 0.8817 0.64496 0.0
O478 O 0.79273 0.88606 0.65611 0.0
O479 O 0.82797 0.84595 0.63708 0.0
O480 O 0.85315 0.83668 0.6598 0.0
H481 H 0.83099 0.79933 0.58456 0.0
H482 H 0.78493 0.8556 0.69342 0.0
O483 O 0.80725 0.80871 0.69748 0.0
H484 H 0.86564 0.91649 0.69305 0.0
H485 H 0.88718 0.82161 0.73043 0.0
H486 H 0.88376 0.79831 0.6706 0.0
H487 H 0.86896 0.86924 0.68228 0.0
H488 H 0.84572 0.83134 0.71383 0.0
O489 O 0.77114 0.85824 0.63812 0.0
H490 H 0.83332 0.80689 0.61496 0.0
H491 H 0.74905 0.82894 0.61582 0.0
H492 H 0.92572 0.78844 0.6867 0.0
H493 H 0.78076 0.90263 0.7045 0.0
H494 H 0.92761 0.8001 0.71684 0.0
H495 H 0.8213 0.93345 0.7043 0.0
O496 O 0.83211 0.78484 0.66906 0.0
H497 H 0.7013 0.80641 0.66632 0.0
H498 H 0.77366 0.76941 0.6297 0.0
H499 H 0.73222 0.74185 0.63511 0.0
H500 H 0.69565 0.76037 0.65351 0.0
H501 H 0.74322 0.83317 0.66068 0.0
H502 H 0.74586 0.82185 0.58542 0.0
H503 H 0.78701 0.80683 0.56959 0.0
O504 O 0.81607 0.78983 0.643 0.0
C505 C 0.85051 0.84658 0.64516 0.0
C506 C 0.8129 0.8058 0.59133 0.0
C507 C 0.76513 0.81847 0.59181 0.0
N508 N 0.79132 0.81818 0.61717 0.0
C509 C 0.81408 0.81005 0.60854 0.0
C510 C 0.76708 0.82252 0.60902 0.0
C511 C 0.78822 0.81004 0.58293 0.0
C512 C 0.80272 0.86882 0.69344 0.0
N513 N 0.82716 0.85967 0.68724 0.0
C514 C 0.80021 0.89546 0.69967 0.0
C515 C 0.82295 0.91276 0.69953 0.0
C516 C 0.84783 0.90326 0.6932 0.0
C517 C 0.84956 0.87652 0.68705 0.0
C518 C 0.88662 0.81646 0.7173 0.0
C519 C 0.88447 0.80357 0.68369 0.0
C520 C 0.86317 0.82185 0.70785 0.0
N521 N 0.86236 0.81551 0.69124 0.0
C522 C 0.90827 0.79788 0.69275 0.0
C523 C 0.9093 0.8044 0.70967 0.0
C524 C 0.82799 0.77583 0.65433 0.0
C525 C 0.71706 0.79815 0.65824 0.0
C526 C 0.75791 0.77756 0.63778 0.0
C527 C 0.73444 0.76189 0.64076 0.0
C528 C 0.71392 0.7723 0.65107 0.0
N529 N 0.76082 0.80291 0.64484 0.0
C530 C 0.74079 0.81325 0.65497 0.0
Co531 Co 0.93647 0.08178 0.42836 0.0
Co532 Co 0.9339 0.04476 0.39179 0.0
O533 O 0.92828 0.04808 0.41592 0.0
C534 C 0.96843 0.04112 0.44809 0.0
O535 O 0.98043 0.03363 0.43414 0.0
C536 C 0.87635 0.02493 0.39608 0.0
O537 O 0.87199 0.04494 0.40672 0.0
O538 O 0.91181 0.07852 0.38768 0.0
O539 O 0.92341 0.10524 0.4094 0.0
H540 H 0.95719 0.07989 0.3346 0.0
H541 H 0.90235 0.03883 0.44425 0.0
O542 O 0.94978 0.05943 0.44786 0.0
H543 H 0.84372 0.1212 0.44217 0.0
H544 H 0.93913 0.14087 0.47986 0.0
H545 H 0.96249 0.13507 0.42011 0.0
H546 H 0.89109 0.12261 0.43142 0.0
H547 H 0.92844 0.09916 0.46372 0.0
O548 O 0.89989 0.02183 0.38947 0.0
H549 H 0.95029 0.08332 0.36501 0.0
H550 H 0.92882 0.99898 0.36723 0.0
H551 H 0.97335 0.17724 0.43575 0.0
H552 H 0.85518 0.03659 0.4553 0.0
H553 H 0.96165 0.18033 0.46585 0.0
H554 H 0.8255 0.07798 0.45425 0.0
O555 O 0.97437 0.08309 0.41908 0.0
H556 H 0.95289 0.95336 0.41829 0.0
H557 H 0.98846 0.02433 0.38019 0.0
H558 H 0.0164 0.98325 0.38596 0.0
H559 H 0.99861 0.94738 0.40511 0.0
H560 H 0.92572 0.99492 0.41226 0.0
H561 H 0.93524 0.9947 0.33682 0.0
H562 H 0.94963 0.03532 0.3203 0.0
O563 O 0.9682 0.06719 0.39309 0.0
C564 C 0.91256 0.10169 0.39507 0.0
C565 C 0.95098 0.06202 0.34166 0.0
C566 C 0.93863 0.01422 0.34291 0.0
N567 N 0.93933 0.04135 0.3679 0.0
C568 C 0.94711 0.06383 0.35889 0.0
C569 C 0.93496 0.01679 0.36012 0.0
C570 C 0.94672 0.03702 0.33365 0.0
C571 C 0.88963 0.05698 0.4439 0.0
N572 N 0.89949 0.08083 0.43726 0.0
C573 C 0.86291 0.05557 0.45011 0.0
C574 C 0.84625 0.07878 0.44949 0.0
C575 C 0.85646 0.10304 0.4427 0.0
C576 C 0.88327 0.10368 0.43659 0.0
C577 C 0.94426 0.1398 0.46674 0.0
C578 C 0.95714 0.13633 0.43317 0.0
C579 C 0.93829 0.11622 0.45754 0.0
N580 N 0.94458 0.11479 0.44094 0.0
C581 C 0.96343 0.16023 0.44198 0.0
C582 C 0.95689 0.16194 0.45887 0.0
C583 C 0.98278 0.07891 0.40423 0.0
C584 C 0.96084 0.96882 0.40989 0.0
C585 C 0.98062 0.00888 0.38858 0.0
C586 C 0.99651 0.98562 0.39177 0.0
C587 C 0.98651 0.96549 0.40251 0.0
N588 N 0.95544 0.01197 0.39584 0.0
C589 C 0.94551 0.99234 0.40639 0.0
Co590 Co 0.68151 0.18724 0.17955 0.0
Co591 Co 0.71687 0.18533 0.14228 0.0
O592 O 0.71469 0.17938 0.1665 0.0
C593 C 0.72369 0.21793 0.19904 0.0
O594 O 0.73291 0.22846 0.18503 0.0
C595 C 0.73678 0.12767 0.14609 0.0
O596 O 0.71733 0.12337 0.15711 0.0
O597 O 0.68272 0.16356 0.13848 0.0
O598 O 0.65761 0.17391 0.16105 0.0
H599 H 0.67933 0.20991 0.08585 0.0
H600 H 0.72556 0.15347 0.19455 0.0
O601 O 0.70412 0.20068 0.19879 0.0
H602 H 0.64378 0.09402 0.19396 0.0
H603 H 0.62401 0.18888 0.23175 0.0
H604 H 0.62771 0.21275 0.17201 0.0
H605 H 0.64128 0.14144 0.18338 0.0
H606 H 0.66526 0.1786 0.21509 0.0
O607 O 0.73949 0.15118 0.13937 0.0
H608 H 0.67723 0.20252 0.11626 0.0
H609 H 0.76147 0.18032 0.11693 0.0
H610 H 0.58596 0.22319 0.18818 0.0
H611 H 0.72891 0.10624 0.20543 0.0
H612 H 0.58394 0.21124 0.21828 0.0
H613 H 0.68782 0.07615 0.20512 0.0
O614 O 0.67955 0.22528 0.17042 0.0
H615 H 0.80965 0.20308 0.16724 0.0
H616 H 0.73708 0.23997 0.13074 0.0
H617 H 0.77861 0.26749 0.13596 0.0
H618 H 0.8153 0.24903 0.1543 0.0
H619 H 0.76764 0.17635 0.16179 0.0
H620 H 0.76442 0.18724 0.0865 0.0
H621 H 0.72317 0.20225 0.07076 0.0
O622 O 0.69471 0.21974 0.14421 0.0
C623 C 0.66014 0.16354 0.14653 0.0
C624 C 0.69747 0.20344 0.09257 0.0
C625 C 0.74521 0.19068 0.09294 0.0
N626 N 0.71923 0.19117 0.11838 0.0
C627 C 0.69641 0.19929 0.1098 0.0
C628 C 0.7434 0.18673 0.11016 0.0
C629 C 0.72206 0.19911 0.08412 0.0
C630 C 0.70754 0.14057 0.19452 0.0
N631 N 0.68325 0.15022 0.18837 0.0
C632 C 0.70958 0.11382 0.20064 0.0
C633 C 0.68654 0.09693 0.20044 0.0
C634 C 0.66182 0.10693 0.19416 0.0
C635 C 0.66056 0.13378 0.18813 0.0
C636 C 0.62463 0.19416 0.21864 0.0
C637 C 0.62694 0.20737 0.18508 0.0
C638 C 0.64796 0.18846 0.20915 0.0
N639 N 0.64885 0.19495 0.19257 0.0
C640 C 0.60327 0.21339 0.19418 0.0
C641 C 0.60215 0.2067 0.21108 0.0
C642 C 0.68328 0.23405 0.15559 0.0
C643 C 0.79384 0.21132 0.15919 0.0
C644 C 0.75288 0.23185 0.13879 0.0
C645 C 0.7764 0.24749 0.14166 0.0
C646 C 0.79698 0.23711 0.15195 0.0
N647 N 0.74998 0.20655 0.14592 0.0
C648 C 0.77006 0.19624 0.15602 0.0
Co649 Co 0.57341 0.93054 0.92958 0.0
Co650 Co 0.57512 0.9665 0.89249 0.0
O651 O 0.58114 0.96394 0.9167 0.0
C652 C 0.54246 0.97228 0.94926 0.0
O653 O 0.53204 0.98177 0.9353 0.0
C654 C 0.63279 0.98631 0.89635 0.0
O655 O 0.6371 0.96676 0.9073 0.0
O656 O 0.59686 0.93238 0.88846 0.0
O657 O 0.58683 0.90695 0.91095 0.0
H658 H 0.55035 0.92988 0.83588 0.0
H659 H 0.60697 0.97446 0.94483 0.0
O660 O 0.55983 0.95279 0.94893 0.0
H661 H 0.66678 0.89288 0.94378 0.0
H662 H 0.57202 0.87222 0.98145 0.0
H663 H 0.54811 0.87677 0.92173 0.0
H664 H 0.61938 0.89039 0.93318 0.0
H665 H 0.58213 0.91376 0.96501 0.0
O666 O 0.60927 0.98912 0.88966 0.0
H667 H 0.55782 0.92729 0.86627 0.0
H668 H 0.58004 0.01149 0.8674 0.0
H669 H 0.53784 0.83475 0.93767 0.0
H670 H 0.65417 0.97779 0.95574 0.0
H671 H 0.54981 0.83229 0.96776 0.0
H672 H 0.68445 0.93682 0.9552 0.0
O673 O 0.53538 0.9286 0.92045 0.0
H674 H 0.55751 0.05895 0.91798 0.0
H675 H 0.52042 0.98693 0.88117 0.0
H676 H 0.49295 0.02843 0.88665 0.0
H677 H 0.5115 0.06483 0.90516 0.0
H678 H 0.5842 0.01697 0.91226 0.0
H679 H 0.57303 0.01493 0.83699 0.0
H680 H 0.55798 0.97394 0.82104 0.0
O681 O 0.54071 0.94436 0.89435 0.0
C682 C 0.59704 0.90969 0.8964 0.0
C683 C 0.55684 0.9479 0.8427 0.0
C684 C 0.56961 0.99562 0.84332 0.0
N685 N 0.56919 0.96925 0.86862 0.0
C686 C 0.56104 0.94657 0.85992 0.0
C687 C 0.5736 0.99353 0.86053 0.0
C688 C 0.56115 0.97262 0.83438 0.0
C689 C 0.61995 0.95648 0.9447 0.0
N690 N 0.61041 0.93226 0.93841 0.0
C691 C 0.64669 0.95852 0.95083 0.0
C692 C 0.66368 0.93553 0.9505 0.0
C693 C 0.65379 0.91088 0.94408 0.0
C694 C 0.62695 0.90962 0.93803 0.0
C695 C 0.56673 0.87303 0.96834 0.0
C696 C 0.5535 0.87582 0.9348 0.0
C697 C 0.57234 0.89653 0.95898 0.0
N698 N 0.56583 0.89765 0.94241 0.0
C699 C 0.54758 0.85199 0.94377 0.0
C700 C 0.55428 0.85063 0.96065 0.0
C701 C 0.52651 0.93267 0.90568 0.0
C702 C 0.54923 0.04326 0.90986 0.0
C703 C 0.52859 1.00261 0.88929 0.0
C704 C 0.51297 0.02611 0.89231 0.0
C705 C 0.5234 0.04653 0.90268 0.0
N706 N 0.55392 0.99958 0.89635 0.0
C707 C 0.56428 0.0195 0.90654 0.0
Co708 Co 0.82974 0.18775 0.83066 0.0
Co709 Co 0.79416 0.18563 0.86788 0.0
O710 O 0.79649 0.17986 0.84365 0.0
C711 C 0.78765 0.21881 0.81128 0.0
O712 O 0.77812 0.22888 0.82533 0.0
C713 C 0.77434 0.12796 0.86384 0.0
O714 O 0.79369 0.1238 0.85274 0.0
O715 O 0.82839 0.16394 0.87172 0.0
O716 O 0.85352 0.17406 0.84913 0.0
H717 H 0.83128 0.20994 0.92445 0.0
H718 H 0.78562 0.15443 0.81543 0.0
O719 O 0.8073 0.2016 0.81147 0.0
H720 H 0.86715 0.09454 0.81583 0.0
H721 H 0.88746 0.18979 0.77856 0.0
H722 H 0.8836 0.2129 0.83841 0.0
H723 H 0.8698 0.14179 0.82667 0.0
H724 H 0.84611 0.17949 0.79512 0.0
O725 O 0.77166 0.15139 0.87068 0.0
H726 H 0.83358 0.20278 0.89402 0.0
H727 H 0.74944 0.18031 0.89313 0.0
H728 H 0.92545 0.22336 0.82235 0.0
H729 H 0.78213 0.10739 0.80428 0.0
H730 H 0.92756 0.21179 0.79219 0.0
H731 H 0.82308 0.07707 0.80449 0.0
O732 O 0.8318 0.22566 0.83997 0.0
H733 H 0.70143 0.20321 0.84277 0.0
H734 H 0.77363 0.24013 0.87951 0.0
H735 H 0.73201 0.26753 0.87426 0.0
H736 H 0.69551 0.24906 0.85579 0.0
H737 H 0.74354 0.1766 0.84825 0.0
H738 H 0.74629 0.18701 0.92357 0.0
H739 H 0.78739 0.20203 0.93943 0.0
O740 O 0.81617 0.22012 0.86608 0.0
C741 C 0.85096 0.16378 0.86366 0.0
C742 C 0.81321 0.20347 0.91767 0.0
C743 C 0.76552 0.19056 0.91718 0.0
N744 N 0.79164 0.19131 0.89179 0.0
C745 C 0.81437 0.19944 0.90044 0.0
C746 C 0.76745 0.18674 0.89995 0.0
C747 C 0.78859 0.199 0.92607 0.0
C748 C 0.80359 0.14143 0.81541 0.0
N749 N 0.82789 0.15086 0.82166 0.0
C750 C 0.80146 0.11479 0.80915 0.0
C751 C 0.82443 0.09777 0.8093 0.0
C752 C 0.84916 0.10755 0.81567 0.0
C753 C 0.85051 0.1343 0.82185 0.0
C754 C 0.88681 0.1949 0.79169 0.0
C755 C 0.88441 0.20769 0.82531 0.0
C756 C 0.86341 0.18918 0.80112 0.0
N757 N 0.86248 0.19548 0.81773 0.0
C758 C 0.90814 0.21371 0.81627 0.0
C759 C 0.9093 0.20724 0.79935 0.0
C760 C 0.8278 0.23441 0.85477 0.0
C761 C 0.71716 0.21146 0.85087 0.0
C762 C 0.75792 0.232 0.8714 0.0
C763 C 0.73435 0.24758 0.86851 0.0
C764 C 0.71387 0.2372 0.85816 0.0
N765 N 0.76098 0.20676 0.86422 0.0
C766 C 0.741 0.19644 0.85406 0.0
Co767 Co 0.57207 0.07932 0.57928 0.0
Co768 Co 0.57464 0.04489 0.61671 0.0
O769 O 0.57969 0.04619 0.5924 0.0
C770 C 0.54083 0.03723 0.56 0.0
O771 O 0.53031 0.0282 0.57404 0.0
C772 C 0.63128 0.02288 0.61238 0.0
O773 O 0.63592 0.04242 0.60148 0.0
O774 O 0.5981 0.07797 0.61976 0.0
O775 O 0.58584 0.10339 0.59769 0.0
H776 H 0.55529 0.08495 0.67326 0.0
H777 H 0.60535 0.03489 0.56434 0.0
O778 O 0.55825 0.05667 0.56016 0.0
H779 H 0.66536 0.11627 0.56429 0.0
H780 H 0.5703 0.13645 0.52693 0.0
H781 H 0.54711 0.1334 0.58678 0.0
H782 H 0.6181 0.11921 0.57507 0.0
H783 H 0.58039 0.09522 0.54366 0.0
O784 O 0.60781 0.02072 0.61924 0.0
H785 H 0.56122 0.08603 0.64271 0.0
H786 H 0.57833 1.0006 0.64232 0.0
H787 H 0.53689 0.17514 0.57054 0.0
H788 H 0.65241 0.03108 0.55326 0.0
H789 H 0.5485 0.17684 0.54039 0.0
H790 H 0.68279 0.07196 0.55324 0.0
O791 O 0.53418 0.08148 0.5886 0.0
H792 H 0.55121 0.95234 0.59321 0.0
H793 H 0.51941 0.02807 0.62913 0.0
H794 H 0.4896 0.98785 0.62481 0.0
H795 H 0.50549 0.94959 0.60676 0.0
H796 H 0.58028 0.99308 0.59776 0.0
H797 H 0.57282 0.99865 0.67289 0.0
H798 H 0.5611 0.04102 0.68855 0.0
O799 O 0.5413 0.06885 0.61519 0.0
C800 C 0.59745 0.10066 0.61186 0.0
C801 C 0.56029 0.06633 0.66657 0.0
C802 C 0.57016 0.0179 0.66636 0.0
N803 N 0.56984 0.04336 0.64072 0.0
C804 C 0.56358 0.06679 0.64926 0.0
C805 C 0.5733 0.01915 0.64906 0.0
C806 C 0.56358 0.04168 0.67514 0.0
C807 C 0.61838 0.05282 0.56423 0.0
N808 N 0.60897 0.07724 0.57031 0.0
C809 C 0.64503 0.05052 0.558 0.0
C810 C 0.66208 0.07345 0.55802 0.0
C811 C 0.65232 0.09831 0.56423 0.0
C812 C 0.62557 0.09983 0.57038 0.0
C813 C 0.56517 0.13597 0.54006 0.0
C814 C 0.55233 0.13402 0.57368 0.0
C815 C 0.57076 0.11265 0.54959 0.0
N816 N 0.56445 0.11194 0.56621 0.0
C817 C 0.54645 0.1577 0.56454 0.0
C818 C 0.55294 0.15863 0.54762 0.0
C819 C 0.52645 0.07947 0.60376 0.0
C820 C 0.5441 0.96884 0.60114 0.0
C821 C 0.52644 0.01154 0.62122 0.0
C822 C 0.50949 0.98879 0.61885 0.0
C823 C 0.51843 0.96733 0.60873 0.0
N824 N 0.55162 0.01284 0.61376 0.0
C825 C 0.56051 0.9919 0.60381 0.0
Co826 Co 0.68053 0.8222 0.33102 0.0
Co827 Co 0.71642 0.82484 0.36814 0.0
O828 O 0.71378 0.83055 0.3439 0.0
C829 C 0.72263 0.79144 0.31142 0.0
O830 O 0.73225 0.78116 0.32539 0.0
C831 C 0.7353 0.88278 0.36404 0.0
O832 O 0.71583 0.88667 0.35298 0.0
O833 O 0.68188 0.84598 0.3721 0.0
O834 O 0.65675 0.8356 0.34955 0.0
H835 H 0.68022 0.79994 0.42483 0.0
H836 H 0.72411 0.85605 0.31565 0.0
O837 O 0.70298 0.80863 0.31175 0.0
H838 H 0.64184 0.91491 0.3162 0.0
H839 H 0.62237 0.81938 0.27911 0.0
H840 H 0.62706 0.79638 0.33895 0.0
H841 H 0.63987 0.86765 0.32708 0.0
H842 H 0.66374 0.83022 0.29552 0.0
O843 O 0.73839 0.8594 0.37086 0.0
H844 H 0.67751 0.80708 0.39441 0.0
H845 H 0.76129 0.83084 0.39323 0.0
H846 H 0.58521 0.78538 0.32304 0.0
H847 H 0.72694 0.90311 0.30446 0.0
H848 H 0.58268 0.79689 0.29289 0.0
H849 H 0.68561 0.93291 0.30475 0.0
O850 O 0.67902 0.78428 0.34038 0.0
H851 H 0.80912 0.80865 0.34266 0.0
H852 H 0.73791 0.77068 0.3797 0.0
H853 H 0.77989 0.74391 0.3743 0.0
H854 H 0.81589 0.76291 0.35568 0.0
H855 H 0.76668 0.83463 0.3483 0.0
H856 H 0.76483 0.82418 0.42365 0.0
H857 H 0.72412 0.80852 0.43965 0.0
O858 O 0.69494 0.79007 0.36641 0.0
C859 C 0.65925 0.84583 0.36411 0.0
C860 C 0.69812 0.8067 0.41799 0.0
C861 C 0.7456 0.82034 0.41733 0.0
N862 N 0.71925 0.8192 0.39204 0.0
C863 C 0.69673 0.81071 0.40076 0.0
C864 C 0.74345 0.82413 0.40011 0.0
C865 C 0.72275 0.81154 0.4263 0.0
C866 C 0.70599 0.86882 0.31567 0.0
N867 N 0.68185 0.85909 0.32198 0.0
C868 C 0.70774 0.89548 0.30939 0.0
C869 C 0.68455 0.9122 0.30958 0.0
C870 C 0.65999 0.90212 0.31602 0.0
C871 C 0.65902 0.87537 0.32222 0.0
C872 C 0.62321 0.81428 0.29224 0.0
C873 C 0.62608 0.80156 0.32585 0.0
C874 C 0.64661 0.8203 0.30159 0.0
N875 N 0.64778 0.81404 0.3182 0.0
C876 C 0.60234 0.79523 0.3169 0.0
C877 C 0.60095 0.80167 0.29998 0.0
C878 C 0.68333 0.77563 0.35517 0.0
C879 C 0.79361 0.80018 0.35083 0.0
C880 C 0.75341 0.77904 0.37153 0.0
C881 C 0.77718 0.76382 0.36855 0.0
C882 C 0.79738 0.7745 0.35811 0.0
N883 N 0.74988 0.80423 0.36436 0.0
C884 C 0.76959 0.81483 0.35411 0.0
Co885 Co 0.9388 0.93062 0.08065 0.0
Co886 Co 0.93623 0.96623 0.11785 0.0
O887 O 0.93081 0.96391 0.09358 0.0
C888 C 0.97021 0.97263 0.06142 0.0
O889 O 0.98007 0.98219 0.07551 0.0
C890 C 0.87867 0.98625 0.11355 0.0
O891 O 0.87458 0.96691 0.10243 0.0
O892 O 0.91439 0.9321 0.12158 0.0
O893 O 0.92474 0.9069 0.09905 0.0
H894 H 0.95962 0.92905 0.17456 0.0
H895 H 0.90584 0.97488 0.06523 0.0
O896 O 0.95301 0.953 0.06152 0.0
H897 H 0.84571 0.89359 0.06529 0.0
H898 H 0.94145 0.87286 0.02857 0.0
H899 H 0.96365 0.87664 0.08855 0.0
H900 H 0.89278 0.89075 0.0764 0.0
H901 H 0.93103 0.91427 0.04506 0.0
O902 O 0.90204 0.98887 0.12047 0.0
H903 H 0.95287 0.92675 0.14409 0.0
H904 H 0.93072 0.01101 0.14305 0.0
H905 H 0.97422 0.83474 0.07255 0.0
H906 H 0.85898 0.97857 0.05382 0.0
H907 H 0.96311 0.83267 0.04233 0.0
H908 H 0.82855 0.93773 0.05386 0.0
O909 O 0.97655 0.9284 0.09017 0.0
H910 H 0.95445 0.05887 0.09281 0.0
H911 H 0.99063 0.98654 0.12975 0.0
H912 H 0.01823 0.02805 0.12463 0.0
H913 H 1.00013 0.06461 0.10606 0.0
H914 H 0.92763 0.01688 0.09816 0.0
H915 H 0.937 0.01415 0.17353 0.0
H916 H 0.95166 0.97299 0.18948 0.0
O917 O 0.97067 0.94408 0.11624 0.0
C918 C 0.91425 0.90952 0.11352 0.0
C919 C 0.9533 0.94714 0.16774 0.0
C920 C 0.94057 0.9949 0.16716 0.0
N921 N 0.94158 0.96875 0.14179 0.0
C922 C 0.94951 0.94598 0.15048 0.0
C923 C 0.93699 0.99297 0.14992 0.0
C924 C 0.94881 0.9718 0.17611 0.0
C925 C 0.89279 0.95696 0.06514 0.0
N926 N 0.90206 0.93262 0.07144 0.0
C927 C 0.86625 0.9592 0.05873 0.0
C928 C 0.84917 0.93629 0.05878 0.0
C929 C 0.85878 0.91153 0.06521 0.0
C930 C 0.88542 0.91007 0.07154 0.0
C931 C 0.94636 0.8735 0.04173 0.0
C932 C 0.95864 0.87586 0.07542 0.0
C933 C 0.94058 0.89692 0.05112 0.0
N934 N 0.94661 0.89783 0.06777 0.0
C935 C 0.96472 0.85209 0.06642 0.0
C936 C 0.95851 0.85096 0.04946 0.0
C937 C 0.98509 0.93236 0.10502 0.0
C938 C 0.96253 0.04312 0.10095 0.0
C939 C 0.98267 1.00229 0.1216 0.0
C940 C 0.99835 0.02579 0.11879 0.0
C941 C 0.98818 0.04631 0.10838 0.0
N942 N 0.95751 0.99933 0.11429 0.0
C943 C 0.9474 0.01935 0.10407 0.0
Co944 Co 0.6803 0.68739 0.82865 0.0
Co945 Co 0.7158 0.68601 0.86582 0.0
O946 O 0.71355 0.68035 0.84167 0.0
C947 C 0.71992 0.72172 0.80955 0.0
O948 O 0.72597 0.73455 0.82349 0.0
C949 C 0.73529 0.62786 0.86355 0.0
O950 O 0.71274 0.62147 0.85549 0.0
O951 O 0.68208 0.66352 0.86965 0.0
O952 O 0.65674 0.6729 0.84699 0.0
H953 H 0.67863 0.70864 0.92264 0.0
H954 H 0.72574 0.65514 0.81392 0.0
O955 O 0.70294 0.70188 0.80966 0.0
H956 H 0.64564 0.59344 0.81328 0.0
H957 H 0.6237 0.68875 0.7761 0.0
H958 H 0.62541 0.71052 0.83617 0.0
H959 H 0.64153 0.6406 0.8241 0.0
H960 H 0.66507 0.67955 0.79291 0.0
O961 O 0.73955 0.65252 0.86814 0.0
H962 H 0.6762 0.70183 0.89219 0.0
H963 H 0.76087 0.68145 0.89088 0.0
H964 H 0.58355 0.71985 0.81986 0.0
H965 H 0.73074 0.60817 0.80285 0.0
H966 H 0.58252 0.70894 0.7896 0.0
H967 H 0.6905 0.57696 0.80252 0.0
O968 O 0.67682 0.72513 0.83816 0.0
H969 H 0.80771 0.70674 0.84048 0.0
H970 H 0.73479 0.74087 0.87771 0.0
H971 H 0.77552 0.76956 0.87251 0.0
H972 H 0.81238 0.75249 0.85381 0.0
H973 H 0.76649 0.67882 0.84591 0.0
H974 H 0.76416 0.68781 0.92134 0.0
H975 H 0.72286 0.70161 0.93742 0.0
O976 O 0.69277 0.71983 0.86423 0.0
C977 C 0.65953 0.66278 0.86157 0.0
C978 C 0.69678 0.7027 0.91577 0.0
C979 C 0.74478 0.69097 0.91504 0.0
N980 N 0.7184 0.69142 0.88975 0.0
C981 C 0.69555 0.69887 0.89852 0.0
C982 C 0.74278 0.68733 0.8978 0.0
C983 C 0.7216 0.69872 0.92405 0.0
C984 C 0.7081 0.64172 0.8137 0.0
N985 N 0.68336 0.65063 0.81958 0.0
C986 C 0.71107 0.61514 0.80747 0.0
C987 C 0.68849 0.59762 0.80731 0.0
C988 C 0.66332 0.60685 0.81335 0.0
C989 C 0.66113 0.63356 0.8195 0.0
C990 C 0.62388 0.69355 0.78928 0.0
C991 C 0.62507 0.70558 0.82303 0.0
C992 C 0.64727 0.68844 0.79886 0.0
N993 N 0.64759 0.69432 0.81553 0.0
C994 C 0.60133 0.71097 0.81385 0.0
C995 C 0.60078 0.70487 0.79686 0.0
C996 C 0.68066 0.73387 0.85299 0.0
C997 C 0.79181 0.71438 0.84868 0.0
C998 C 0.75067 0.73335 0.86949 0.0
C999 C 0.77373 0.74966 0.86664 0.0
C1000 C 0.79441 0.74006 0.85615 0.0
N1001 N 0.7483 0.70816 0.86216 0.0
C1002 C 0.76847 0.69863 0.85184 0.0
Co1003 Co 0.57388 0.43067 0.07994 0.0
Co1004 Co 0.57545 0.46616 0.1172 0.0
O1005 O 0.58134 0.46398 0.09297 0.0
C1006 C 0.54237 0.47248 0.06061 0.0
O1007 O 0.53221 0.48184 0.07468 0.0
C1008 C 0.6329 0.48658 0.11331 0.0
O1009 O 0.63734 0.46724 0.10225 0.0
O1010 O 0.59755 0.4322 0.12102 0.0
O1011 O 0.58782 0.40698 0.0984 0.0
H1012 H 0.55138 0.42854 0.17369 0.0
H1013 H 0.60673 0.47524 0.06482 0.0
O1014 O 0.5598 0.45303 0.06076 0.0
H1015 H 0.66756 0.39442 0.06517 0.0
H1016 H 0.57263 0.37311 0.02776 0.0
H1017 H 0.54935 0.37649 0.0876 0.0
H1018 H 0.62031 0.39116 0.07593 0.0
H1019 H 0.58242 0.41453 0.04438 0.0
O1020 O 0.60939 0.48905 0.12007 0.0
H1021 H 0.55871 0.42643 0.14327 0.0
H1022 H 0.5801 0.51086 0.14251 0.0
H1023 H 0.53942 0.33457 0.07148 0.0
H1024 H 0.65378 0.47935 0.05377 0.0
H1025 H 0.55107 0.33271 0.04133 0.0
H1026 H 0.68457 0.43875 0.05396 0.0
O1027 O 0.53596 0.42816 0.08918 0.0
H1028 H 0.55683 0.55879 0.09223 0.0
H1029 H 0.52064 0.48594 0.12876 0.0
H1030 H 0.49275 0.52726 0.12355 0.0
H1031 H 0.51085 0.56408 0.10518 0.0
H1032 H 0.58393 0.51698 0.09767 0.0
H1033 H 0.57323 0.51382 0.17294 0.0
H1034 H 0.55866 0.47248 0.18873 0.0
O1035 O 0.54124 0.44374 0.11532 0.0
C1036 C 0.59807 0.40965 0.11294 0.0
C1037 C 0.55766 0.44671 0.16694 0.0
C1038 C 0.56995 0.49457 0.16653 0.0
N1039 N 0.56965 0.46853 0.14111 0.0
C1040 C 0.56177 0.44566 0.14971 0.0
C1041 C 0.57387 0.49275 0.1493 0.0
C1042 C 0.56177 0.47137 0.17537 0.0
C1043 C 0.61994 0.45743 0.0648 0.0
N1044 N 0.61076 0.43299 0.07098 0.0
C1045 C 0.64658 0.4599 0.05859 0.0
C1046 C 0.66386 0.43713 0.05872 0.0
C1047 C 0.65435 0.41225 0.06503 0.0
C1048 C 0.62759 0.41056 0.07116 0.0
C1049 C 0.56749 0.37366 0.04089 0.0
C1050 C 0.5546 0.37579 0.0745 0.0
C1051 C 0.57291 0.39709 0.05036 0.0
N1052 N 0.56658 0.39789 0.06696 0.0
C1053 C 0.54888 0.35202 0.06543 0.0
C1054 C 0.5554 0.351 0.04851 0.0
C1055 C 0.5271 0.43204 0.10397 0.0
C1056 C 0.54874 0.54292 0.10028 0.0
C1057 C 0.52861 0.5018 0.1207 0.0
C1058 C 0.51276 0.52519 0.11783 0.0
C1059 C 0.52293 0.54585 0.10754 0.0
N1060 N 0.55392 0.49909 0.11356 0.0
C1061 C 0.56403 0.51925 0.10345 0.0
Co1062 Co 0.82733 0.32651 0.32969 0.0
Co1063 Co 0.79209 0.32058 0.36721 0.0
O1064 O 0.794 0.32913 0.34329 0.0
C1065 C 0.7911 0.28771 0.31098 0.0
O1066 O 0.78636 0.27438 0.32492 0.0
C1067 C 0.77272 0.3785 0.36507 0.0
O1068 O 0.79176 0.383 0.35383 0.0
O1069 O 0.82673 0.34121 0.37204 0.0
O1070 O 0.84918 0.34437 0.34761 0.0
H1071 H 0.82948 0.28811 0.42218 0.0
H1072 H 0.77718 0.35216 0.31582 0.0
O1073 O 0.80618 0.30902 0.31102 0.0
H1074 H 0.84825 0.42394 0.31316 0.0
H1075 H 0.88152 0.33195 0.27628 0.0
H1076 H 0.8852 0.31164 0.33651 0.0
H1077 H 0.85927 0.37786 0.32397 0.0
H1078 H 0.83994 0.33571 0.29365 0.0
O1079 O 0.77013 0.35479 0.37158 0.0
H1080 H 0.83142 0.29893 0.39214 0.0
H1081 H 0.748 0.32403 0.39297 0.0
H1082 H 0.92731 0.30784 0.31962 0.0
H1083 H 0.7653 0.39787 0.30476 0.0
H1084 H 0.92563 0.31803 0.28928 0.0
H1085 H 0.80096 0.43417 0.30344 0.0
O1086 O 0.8364 0.28951 0.33912 0.0
H1087 H 0.69896 0.30715 0.34168 0.0
H1088 H 0.77073 0.26551 0.37686 0.0
H1089 H 0.72865 0.23933 0.37071 0.0
H1090 H 0.69236 0.2602 0.35303 0.0
H1091 H 0.74151 0.33246 0.34802 0.0
H1092 H 0.74523 0.31371 0.42305 0.0
H1093 H 0.78614 0.29552 0.43784 0.0
O1094 O 0.81354 0.28627 0.36347 0.0
C1095 C 0.84715 0.3488 0.36322 0.0
C1096 C 0.81149 0.29596 0.41587 0.0
C1097 C 0.76422 0.31037 0.41636 0.0
N1098 N 0.78983 0.31196 0.3908 0.0
C1099 C 0.81245 0.30206 0.39885 0.0
C1100 C 0.76594 0.31625 0.39934 0.0
C1101 C 0.78718 0.30015 0.42465 0.0
C1102 C 0.79285 0.3678 0.31517 0.0
N1103 N 0.81887 0.36239 0.32057 0.0
C1104 C 0.78599 0.39366 0.30894 0.0
C1105 C 0.80599 0.41403 0.30823 0.0
C1106 C 0.83252 0.40832 0.3137 0.0
C1107 C 0.83862 0.38223 0.31987 0.0
C1108 C 0.88252 0.32749 0.2895 0.0
C1109 C 0.88433 0.31624 0.32333 0.0
C1110 C 0.85903 0.3295 0.29939 0.0
N1111 N 0.86017 0.32402 0.3161 0.0
C1112 C 0.90823 0.31399 0.31383 0.0
C1113 C 0.90726 0.31969 0.2968 0.0
C1114 C 0.82969 0.27664 0.3524 0.0
C1115 C 0.71461 0.29784 0.34941 0.0
C1116 C 0.75513 0.27462 0.36906 0.0
C1117 C 0.73129 0.25976 0.36567 0.0
C1118 C 0.71093 0.27149 0.35577 0.0
N1119 N 0.75857 0.30046 0.36279 0.0
C1120 C 0.73871 0.3121 0.35307 0.0
Co1121 Co 0.9384 0.57925 0.57934 0.0
Co1122 Co 0.93543 0.54344 0.61639 0.0
O1123 O 0.93027 0.54599 0.59218 0.0
C1124 C 0.96966 0.53651 0.56091 0.0
O1125 O 0.97817 0.52697 0.57533 0.0
C1126 C 0.877 0.52487 0.61386 0.0
O1127 O 0.87083 0.54763 0.60594 0.0
O1128 O 0.91334 0.57746 0.62011 0.0
O1129 O 0.92378 0.60285 0.59764 0.0
H1130 H 0.95727 0.57986 0.67351 0.0
H1131 H 0.90569 0.53469 0.56408 0.0
O1132 O 0.95321 0.55678 0.5604 0.0
H1133 H 0.84564 0.61609 0.56307 0.0
H1134 H 0.9424 0.63675 0.52719 0.0
H1135 H 0.96249 0.63344 0.58745 0.0
H1136 H 0.89254 0.61909 0.57443 0.0
H1137 H 0.9318 0.59532 0.54362 0.0
O1138 O 0.90161 0.52023 0.61839 0.0
H1139 H 0.95115 0.58263 0.64301 0.0
H1140 H 0.92979 0.49823 0.64128 0.0
H1141 H 0.97322 0.67536 0.57152 0.0
H1142 H 0.85898 0.5308 0.55247 0.0
H1143 H 0.96316 0.67719 0.54116 0.0
H1144 H 0.82859 0.5717 0.55196 0.0
O1145 O 0.97591 0.58159 0.58914 0.0
H1146 H 0.95502 0.45112 0.59122 0.0
H1147 H 0.98987 0.52356 0.62853 0.0
H1148 H 0.01799 0.48235 0.62347 0.0
H1149 H 1.00056 0.44574 0.60472 0.0
H1150 H 0.92769 0.49282 0.5965 0.0
H1151 H 0.93546 0.49461 0.67177 0.0
H1152 H 0.9494 0.53561 0.68809 0.0
O1153 O 0.96962 0.56595 0.61519 0.0
C1154 C 0.91312 0.60007 0.61208 0.0
C1155 C 0.95126 0.56184 0.66653 0.0
C1156 C 0.93898 0.514 0.66556 0.0
N1157 N 0.94029 0.54058 0.64036 0.0
C1158 C 0.94783 0.56326 0.64925 0.0
C1159 C 0.93574 0.51619 0.6483 0.0
C1160 C 0.94682 0.53701 0.67471 0.0
C1161 C 0.89264 0.55261 0.56378 0.0
N1162 N 0.90186 0.57711 0.56985 0.0
C1163 C 0.86619 0.55027 0.55724 0.0
C1164 C 0.84914 0.57322 0.55698 0.0
C1165 C 0.85868 0.59813 0.56322 0.0
C1166 C 0.88524 0.59969 0.56967 0.0
C1167 C 0.94683 0.63622 0.54042 0.0
C1168 C 0.95792 0.63413 0.57426 0.0
C1169 C 0.94093 0.61279 0.54978 0.0
N1170 N 0.94636 0.61203 0.5665 0.0
C1171 C 0.9641 0.6579 0.5653 0.0
C1172 C 0.95848 0.6589 0.54826 0.0
C1173 C 0.98417 0.5777 0.60406 0.0
C1174 C 0.96281 0.46691 0.59944 0.0
C1175 C 0.98221 0.50781 0.62028 0.0
C1176 C 0.99818 0.48447 0.61751 0.0
C1177 C 0.98838 0.46392 0.607 0.0
N1178 N 0.95714 0.51059 0.61283 0.0
C1179 C 0.94739 0.49051 0.60253 0.0
Co1180 Co 0.6798 0.32251 0.68031 0.0
Co1181 Co 0.71533 0.32459 0.64318 0.0
O1182 O 0.71306 0.32982 0.66737 0.0
C1183 C 0.71939 0.28792 0.69934 0.0
O1184 O 0.72541 0.27509 0.6854 0.0
C1185 C 0.73463 0.3827 0.64572 0.0
O1186 O 0.71207 0.38897 0.65383 0.0
O1187 O 0.68161 0.34715 0.63949 0.0
O1188 O 0.65622 0.33727 0.66205 0.0
H1189 H 0.6782 0.30303 0.58619 0.0
H1190 H 0.72511 0.35465 0.69525 0.0
O1191 O 0.70244 0.3078 0.69924 0.0
H1192 H 0.64478 0.41612 0.69626 0.0
H1193 H 0.62308 0.32014 0.7328 0.0
H1194 H 0.62501 0.29939 0.6726 0.0
H1195 H 0.64084 0.36913 0.68514 0.0
H1196 H 0.66445 0.32973 0.71609 0.0
O1197 O 0.73899 0.35809 0.64108 0.0
H1198 H 0.67574 0.30929 0.61669 0.0
H1199 H 0.76042 0.32953 0.61817 0.0
H1200 H 0.58314 0.28967 0.68882 0.0
H1201 H 0.72992 0.40143 0.70661 0.0
H1202 H 0.58201 0.30006 0.71915 0.0
H1203 H 0.68956 0.43253 0.70712 0.0
O1204 O 0.67647 0.28493 0.67057 0.0
H1205 H 0.80725 0.3034 0.6684 0.0
H1206 H 0.73436 0.26992 0.63095 0.0
H1207 H 0.77513 0.24114 0.63597 0.0
H1208 H 0.81197 0.25788 0.65478 0.0
H1209 H 0.766 0.33143 0.66313 0.0
H1210 H 0.76374 0.32371 0.58767 0.0
H1211 H 0.72244 0.31026 0.57148 0.0
O1212 O 0.69234 0.29078 0.64453 0.0
C1213 C 0.65905 0.34774 0.64757 0.0
C1214 C 0.69635 0.30882 0.59311 0.0
C1215 C 0.74435 0.32047 0.59394 0.0
N1216 N 0.71794 0.3196 0.61922 0.0
C1217 C 0.6951 0.31234 0.61039 0.0
C1218 C 0.74233 0.3238 0.61121 0.0
C1219 C 0.72118 0.31291 0.58487 0.0
C1220 C 0.70742 0.36801 0.69555 0.0
N1221 N 0.68271 0.35913 0.6896 0.0
C1222 C 0.71028 0.3945 0.70194 0.0
C1223 C 0.68764 0.41195 0.70221 0.0
C1224 C 0.66251 0.40276 0.69611 0.0
C1225 C 0.66042 0.37615 0.68979 0.0
C1226 C 0.62331 0.31556 0.71959 0.0
C1227 C 0.62462 0.30411 0.68577 0.0
C1228 C 0.64669 0.32089 0.71007 0.0
N1229 N 0.64708 0.3153 0.69336 0.0
C1230 C 0.60088 0.2985 0.6949 0.0
C1231 C 0.60027 0.30431 0.71192 0.0
C1232 C 0.68029 0.2765 0.65567 0.0
C1233 C 0.79136 0.29591 0.66015 0.0
C1234 C 0.75023 0.2773 0.63921 0.0
C1235 C 0.77331 0.26094 0.64197 0.0
C1236 C 0.79398 0.27035 0.65252 0.0
N1237 N 0.74784 0.30237 0.64671 0.0
C1238 C 0.768 0.31172 0.65708 0.0
Co1239 Co 0.9381 0.4311 0.93004 0.0
Co1240 Co 0.93629 0.46616 0.89272 0.0
O1241 O 0.93095 0.46421 0.91691 0.0
C1242 C 0.97268 0.47097 0.94881 0.0
O1243 O 0.98539 0.47685 0.93481 0.0
C1244 C 0.8782 0.48573 0.89522 0.0
O1245 O 0.87197 0.46329 0.90345 0.0
O1246 O 0.91367 0.43245 0.88916 0.0
O1247 O 0.92328 0.40732 0.91188 0.0
H1248 H 0.95807 0.42828 0.83595 0.0
H1249 H 0.9061 0.47679 0.9447 0.0
O1250 O 0.95286 0.45395 0.94885 0.0
H1251 H 0.84432 0.39677 0.94607 0.0
H1252 H 0.94012 0.37513 0.98283 0.0
H1253 H 0.96102 0.37608 0.92264 0.0
H1254 H 0.89133 0.39244 0.93503 0.0
H1255 H 0.93074 0.41631 0.96589 0.0
O1256 O 0.90279 0.48993 0.89047 0.0
H1257 H 0.95167 0.42622 0.86645 0.0
H1258 H 0.93145 0.51095 0.8675 0.0
H1259 H 0.97053 0.33439 0.93908 0.0
H1260 H 0.8593 0.482 0.95597 0.0
H1261 H 0.96006 0.33375 0.96941 0.0
H1262 H 0.82805 0.4418 0.95667 0.0
O1263 O 0.9757 0.42746 0.92037 0.0
H1264 H 0.9575 0.55836 0.91753 0.0
H1265 H 0.99102 0.4849 0.88049 0.0
H1266 H 0.01984 0.52566 0.88535 0.0
H1267 H 1.00308 0.56279 0.90396 0.0
H1268 H 0.92944 0.51711 0.91243 0.0
H1269 H 0.93741 0.51387 0.83699 0.0
H1270 H 0.95093 0.47235 0.82102 0.0
O1271 O 0.9701 0.4431 0.89424 0.0
C1272 C 0.91291 0.41001 0.89736 0.0
C1273 C 0.95225 0.44653 0.84278 0.0
C1274 C 0.94062 0.49456 0.84336 0.0
N1275 N 0.94137 0.46847 0.86876 0.0
C1276 C 0.94866 0.4455 0.86005 0.0
C1277 C 0.93721 0.49276 0.86063 0.0
C1278 C 0.94822 0.47126 0.83441 0.0
C1279 C 0.89267 0.45917 0.94507 0.0
N1280 N 0.90147 0.43433 0.93927 0.0
C1281 C 0.86618 0.46226 0.95142 0.0
C1282 C 0.84864 0.4397 0.95179 0.0
C1283 C 0.85775 0.41444 0.94584 0.0
C1284 C 0.88437 0.41212 0.93956 0.0
C1285 C 0.94473 0.37514 0.96962 0.0
C1286 C 0.95627 0.37591 0.93581 0.0
C1287 C 0.93952 0.39842 0.95997 0.0
N1288 N 0.94515 0.39853 0.94326 0.0
C1289 C 0.96176 0.35227 0.94507 0.0
C1290 C 0.95591 0.35193 0.96208 0.0
C1291 C 0.98427 0.43111 0.90548 0.0
C1292 C 0.965 0.54235 0.90937 0.0
C1293 C 0.98363 0.5009 0.88866 0.0
C1294 C 1.00001 0.52397 0.89133 0.0
C1295 C 0.99059 0.54481 0.90176 0.0
N1296 N 0.95853 0.49867 0.89613 0.0
C1297 C 0.94917 0.51899 0.90639 0.0
Co1298 Co 0.82866 0.68717 0.18024 0.0
Co1299 Co 0.79439 0.68581 0.14253 0.0
O1300 O 0.79574 0.68033 0.16678 0.0
C1301 C 0.78933 0.7226 0.19904 0.0
O1302 O 0.78415 0.73604 0.1852 0.0
C1303 C 0.77369 0.62855 0.14652 0.0
O1304 O 0.79288 0.62426 0.15771 0.0
O1305 O 0.82827 0.66343 0.13921 0.0
O1306 O 0.85275 0.67214 0.1623 0.0
H1307 H 0.83391 0.70868 0.08634 0.0
H1308 H 0.78249 0.65589 0.19488 0.0
O1309 O 0.80558 0.70215 0.19891 0.0
H1310 H 0.86166 0.59296 0.19649 0.0
H1311 H 0.88351 0.68851 0.23349 0.0
H1312 H 0.88402 0.7096 0.17332 0.0
H1313 H 0.86666 0.63983 0.18535 0.0
H1314 H 0.84263 0.67957 0.21622 0.0
O1315 O 0.77133 0.65198 0.13962 0.0
H1316 H 0.83502 0.70188 0.11683 0.0
H1317 H 0.75046 0.68102 0.11674 0.0
H1318 H 0.92542 0.71866 0.19011 0.0
H1319 H 0.77664 0.60927 0.2063 0.0
H1320 H 0.92533 0.7081 0.22042 0.0
H1321 H 0.81639 0.57742 0.2071 0.0
O1322 O 0.8329 0.72474 0.17061 0.0
H1323 H 0.70124 0.70568 0.16639 0.0
H1324 H 0.77541 0.74054 0.13037 0.0
H1325 H 0.73417 0.76886 0.13493 0.0
H1326 H 0.69669 0.75143 0.15303 0.0
H1327 H 0.74297 0.67813 0.1616 0.0
H1328 H 0.74849 0.68736 0.08623 0.0
H1329 H 0.79041 0.70139 0.07084 0.0
O1330 O 0.81701 0.71982 0.14449 0.0
C1331 C 0.85043 0.66221 0.14765 0.0
C1332 C 0.81549 0.70264 0.09291 0.0
C1333 C 0.76756 0.69064 0.09285 0.0
N1334 N 0.7928 0.69124 0.11857 0.0
C1335 C 0.81598 0.69882 0.11018 0.0
C1336 C 0.76881 0.68701 0.11012 0.0
C1337 C 0.79108 0.69852 0.08422 0.0
C1338 C 0.79994 0.64223 0.19534 0.0
N1339 N 0.82489 0.6506 0.18949 0.0
C1340 C 0.79648 0.61582 0.20175 0.0
C1341 C 0.81878 0.59795 0.20217 0.0
C1342 C 0.84418 0.60664 0.19621 0.0
C1343 C 0.84687 0.63318 0.18986 0.0
C1344 C 0.88382 0.69316 0.22029 0.0
C1345 C 0.88387 0.70481 0.18648 0.0
C1346 C 0.86071 0.68819 0.21044 0.0
N1347 N 0.861 0.69388 0.19375 0.0
C1348 C 0.90735 0.71005 0.19593 0.0
C1349 C 0.90728 0.70414 0.21295 0.0
C1350 C 0.82917 0.73365 0.1558 0.0
C1351 C 0.7174 0.71348 0.15845 0.0
C1352 C 0.75925 0.73286 0.13832 0.0
C1353 C 0.73591 0.74896 0.14082 0.0
C1354 C 0.71488 0.73916 0.15096 0.0
N1355 N 0.76154 0.70767 0.14567 0.0
C1356 C 0.74103 0.69794 0.15565 0.0
Co1357 Co 0.57362 0.57766 0.43021 0.0
Co1358 Co 0.57565 0.54439 0.39232 0.0
O1359 O 0.58021 0.54485 0.41665 0.0
C1360 C 0.53763 0.53855 0.44876 0.0
O1361 O 0.5241 0.5338 0.43489 0.0
C1362 C 0.63169 0.52122 0.39703 0.0
O1363 O 0.63631 0.5404 0.40818 0.0
O1364 O 0.59971 0.57715 0.38976 0.0
O1365 O 0.58902 0.60193 0.41241 0.0
H1366 H 0.55783 0.58635 0.3361 0.0
H1367 H 0.60444 0.53108 0.44477 0.0
O1368 O 0.55833 0.55448 0.44872 0.0
H1369 H 0.66786 0.60975 0.44699 0.0
H1370 H 0.57214 0.6319 0.48368 0.0
H1371 H 0.55166 0.63328 0.42344 0.0
H1372 H 0.62116 0.61524 0.43568 0.0
H1373 H 0.58094 0.59113 0.46627 0.0
O1374 O 0.60845 0.51973 0.38982 0.0
H1375 H 0.56322 0.58645 0.36669 0.0
H1376 H 0.57924 0.50081 0.36627 0.0
H1377 H 0.54277 0.67458 0.44036 0.0
H1378 H 0.65089 0.52473 0.45636 0.0
H1379 H 0.55302 0.67405 0.47072 0.0
H1380 H 0.68299 0.56424 0.45746 0.0
O1381 O 0.53622 0.58212 0.42044 0.0
H1382 H 0.55007 0.45169 0.41478 0.0
H1383 H 0.52046 0.52882 0.37926 0.0
H1384 H 0.48988 0.489 0.38293 0.0
H1385 H 0.50467 0.45004 0.40076 0.0
H1386 H 0.57993 0.49203 0.41087 0.0
H1387 H 0.57425 0.49982 0.33565 0.0
H1388 H 0.56336 0.54279 0.32037 0.0
O1389 O 0.54269 0.56878 0.39391 0.0
C1390 C 0.6002 0.59942 0.3981 0.0
C1391 C 0.56248 0.56747 0.34262 0.0
C1392 C 0.57173 0.51891 0.34237 0.0
N1393 N 0.57129 0.54363 0.36827 0.0
C1394 C 0.56547 0.56738 0.35995 0.0
C1395 C 0.57458 0.51961 0.3597 0.0
C1396 C 0.56561 0.54303 0.3338 0.0
C1397 C 0.61821 0.54842 0.44536 0.0
N1398 N 0.61008 0.57351 0.43958 0.0
C1399 C 0.64452 0.54468 0.45187 0.0
C1400 C 0.66253 0.56684 0.45246 0.0
C1401 C 0.65407 0.59238 0.44657 0.0
C1402 C 0.62762 0.59534 0.44012 0.0
C1403 C 0.56763 0.6324 0.47047 0.0
C1404 C 0.55632 0.63294 0.43662 0.0
C1405 C 0.57251 0.60936 0.46055 0.0
N1406 N 0.56699 0.60989 0.44383 0.0
C1407 C 0.55117 0.65636 0.44615 0.0
C1408 C 0.55691 0.65604 0.46318 0.0
C1409 C 0.5283 0.58004 0.40532 0.0
C1410 C 0.54343 0.46851 0.40694 0.0
C1411 C 0.52702 0.51198 0.38708 0.0
C1412 C 0.50963 0.48947 0.38908 0.0
C1413 C 0.51794 0.46761 0.39909 0.0
N1414 N 0.55203 0.51266 0.39478 0.0
C1415 C 0.56029 0.49135 0.40464 0.0
Co1416 Co 0.33214 0.32275 0.18017 0.0
Co1417 Co 0.29516 0.32498 0.14359 0.0
O1418 O 0.29845 0.33073 0.16773 0.0
C1419 C 0.29075 0.29199 0.20015 0.0
O1420 O 0.28106 0.28163 0.18622 0.0
C1421 C 0.27651 0.38348 0.14585 0.0
O1422 O 0.29945 0.38978 0.15354 0.0
O1423 O 0.32901 0.34704 0.13927 0.0
O1424 O 0.35519 0.33618 0.16131 0.0
H1425 H 0.32984 0.30167 0.08629 0.0
H1426 H 0.28866 0.35677 0.19554 0.0
O1427 O 0.31033 0.30923 0.19973 0.0
H1428 H 0.3708 0.41571 0.19426 0.0
H1429 H 0.39188 0.32047 0.23142 0.0
H1430 H 0.38557 0.29728 0.17166 0.0
H1431 H 0.37276 0.36825 0.1837 0.0
H1432 H 0.34993 0.331 0.21546 0.0
O1433 O 0.27179 0.35877 0.14154 0.0
H1434 H 0.33353 0.30858 0.11669 0.0
H1435 H 0.24918 0.33001 0.11918 0.0
H1436 H 0.42798 0.2866 0.18712 0.0
H1437 H 0.28582 0.40407 0.20637 0.0
H1438 H 0.43132 0.2982 0.21723 0.0
H1439 H 0.32709 0.43389 0.20573 0.0
O1440 O 0.33361 0.28478 0.1709 0.0
H1441 H 0.20387 0.30579 0.17018 0.0
H1442 H 0.27491 0.27034 0.13208 0.0
H1443 H 0.23395 0.24229 0.13789 0.0
H1444 H 0.19804 0.26002 0.15704 0.0
H1445 H 0.24531 0.33305 0.16414 0.0
H1446 H 0.24464 0.32356 0.08878 0.0
H1447 H 0.28514 0.30918 0.07214 0.0
O1448 O 0.31778 0.29079 0.14487 0.0
C1449 C 0.35198 0.34688 0.14693 0.0
C1450 C 0.31203 0.30787 0.09341 0.0
C1451 C 0.26422 0.32019 0.09481 0.0
N1452 N 0.29157 0.31953 0.11972 0.0
C1453 C 0.31397 0.31175 0.11064 0.0
C1454 C 0.26693 0.32388 0.11201 0.0
C1455 C 0.28695 0.31211 0.08548 0.0
C1456 C 0.30675 0.36958 0.19534 0.0
N1457 N 0.33086 0.35973 0.18906 0.0
C1458 C 0.305 0.39636 0.20144 0.0
C1459 C 0.32815 0.41309 0.20106 0.0
C1460 C 0.35268 0.40291 0.19461 0.0
C1461 C 0.35365 0.37604 0.18861 0.0
C1462 C 0.39068 0.31534 0.21831 0.0
C1463 C 0.38691 0.30251 0.18474 0.0
C1464 C 0.36696 0.32118 0.20921 0.0
N1465 N 0.36535 0.31488 0.19262 0.0
C1466 C 0.41096 0.29636 0.19344 0.0
C1467 C 0.41281 0.30286 0.21033 0.0
C1468 C 0.32949 0.27628 0.15605 0.0
C1469 C 0.21935 0.29786 0.16179 0.0
C1470 C 0.25946 0.27814 0.14049 0.0
C1471 C 0.23626 0.2622 0.14369 0.0
C1472 C 0.21611 0.27217 0.15443 0.0
N1473 N 0.26248 0.30333 0.14775 0.0
C1474 C 0.24281 0.31324 0.15828 0.0
Co1475 Co 0.4375 0.57999 0.92985 0.0
Co1476 Co 0.43579 0.54446 0.89268 0.0
O1477 O 0.43032 0.54674 0.91685 0.0
C1478 C 0.47215 0.54041 0.94883 0.0
O1479 O 0.48493 0.53443 0.93487 0.0
C1480 C 0.37755 0.52526 0.89504 0.0
O1481 O 0.3713 0.54775 0.90322 0.0
O1482 O 0.41341 0.57829 0.8889 0.0
O1483 O 0.42273 0.60358 0.91159 0.0
H1484 H 0.45816 0.58155 0.8358 0.0
H1485 H 0.40549 0.53451 0.9447 0.0
O1486 O 0.45224 0.55733 0.94877 0.0
H1487 H 0.34371 0.61462 0.94571 0.0
H1488 H 0.43946 0.63652 0.98242 0.0
H1489 H 0.46044 0.63491 0.92224 0.0
H1490 H 0.39072 0.61876 0.93465 0.0
H1491 H 0.4301 0.59517 0.96564 0.0
O1492 O 0.40218 0.52091 0.89042 0.0
H1493 H 0.45158 0.58399 0.86627 0.0
H1494 H 0.43091 0.4994 0.86763 0.0
H1495 H 0.46993 0.67675 0.93853 0.0
H1496 H 0.35869 0.5295 0.956 0.0
H1497 H 0.45942 0.67773 0.96885 0.0
H1498 H 0.32744 0.56974 0.95652 0.0
O1499 O 0.47513 0.5835 0.92018 0.0
H1500 H 0.45625 0.45245 0.91801 0.0
H1501 H 0.49045 0.5251 0.88063 0.0
H1502 H 0.51898 0.4842 0.88578 0.0
H1503 H 0.50188 0.44747 0.90456 0.0
H1504 H 0.4285 0.49384 0.91263 0.0
H1505 H 0.43704 0.4961 0.83715 0.0
H1506 H 0.45087 0.53735 0.82104 0.0
O1507 O 0.46972 0.56728 0.89418 0.0
C1508 C 0.41257 0.6008 0.89702 0.0
C1509 C 0.4522 0.56341 0.84269 0.0
C1510 C 0.44031 0.51546 0.84345 0.0
N1511 N 0.44103 0.54184 0.86874 0.0
C1512 C 0.44851 0.56465 0.85995 0.0
C1513 C 0.4368 0.51748 0.8607 0.0
C1514 C 0.44808 0.53861 0.83441 0.0
C1515 C 0.39206 0.55215 0.945 0.0
N1516 N 0.40086 0.57691 0.93909 0.0
C1517 C 0.36556 0.54917 0.95136 0.0
C1518 C 0.34803 0.57175 0.95163 0.0
C1519 C 0.35714 0.59693 0.94556 0.0
C1520 C 0.38376 0.59914 0.93927 0.0
C1521 C 0.44409 0.63636 0.96922 0.0
C1522 C 0.45567 0.63522 0.93541 0.0
C1523 C 0.43889 0.61299 0.95966 0.0
N1524 N 0.44455 0.61269 0.94295 0.0
C1525 C 0.46115 0.65895 0.94458 0.0
C1526 C 0.45528 0.65948 0.96159 0.0
C1527 C 0.48381 0.57949 0.90535 0.0
C1528 C 0.46391 0.46829 0.90978 0.0
C1529 C 0.48292 0.50929 0.88888 0.0
C1530 C 0.49913 0.48613 0.89171 0.0
C1531 C 0.48952 0.46552 0.90224 0.0
N1532 N 0.4578 0.51183 0.89629 0.0
C1533 C 0.44825 0.49173 0.90665 0.0
Co1534 Co 0.18205 0.68915 0.67867 0.0
Co1535 Co 0.21483 0.68683 0.64063 0.0
O1536 O 0.21466 0.68242 0.66496 0.0
C1537 C 0.22153 0.72508 0.69703 0.0
O1538 O 0.22604 0.73875 0.68318 0.0
C1539 C 0.23739 0.63054 0.64518 0.0
O1540 O 0.21807 0.62613 0.65627 0.0
O1541 O 0.18197 0.66288 0.63828 0.0
O1542 O 0.15749 0.6737 0.66103 0.0
H1543 H 0.17222 0.70441 0.58456 0.0
H1544 H 0.22879 0.65827 0.69299 0.0
O1545 O 0.20553 0.70444 0.69703 0.0
H1546 H 0.15003 0.59503 0.69577 0.0
H1547 H 0.12859 0.69093 0.73243 0.0
H1548 H 0.12636 0.71117 0.67216 0.0
H1549 H 0.14445 0.64172 0.68444 0.0
H1550 H 0.16909 0.68201 0.71481 0.0
O1551 O 0.2393 0.65385 0.63808 0.0
H1552 H 0.17249 0.69921 0.61517 0.0
H1553 H 0.25806 0.68292 0.61438 0.0
H1554 H 0.08532 0.72018 0.6893 0.0
H1555 H 0.23523 0.61183 0.70459 0.0
H1556 H 0.08628 0.71004 0.71966 0.0
H1557 H 0.19567 0.57983 0.70598 0.0
O1558 O 0.17748 0.72652 0.66884 0.0
H1559 H 0.30791 0.71214 0.66258 0.0
H1560 H 0.23043 0.7419 0.62741 0.0
H1561 H 0.2704 0.77236 0.63083 0.0
H1562 H 0.30954 0.75749 0.6485 0.0
H1563 H 0.26742 0.6824 0.65891 0.0
H1564 H 0.25868 0.68771 0.58375 0.0
H1565 H 0.21555 0.69864 0.56864 0.0
O1566 O 0.19056 0.71989 0.64227 0.0
C1567 C 0.15982 0.66243 0.64673 0.0
C1568 C 0.19117 0.69975 0.59101 0.0
C1569 C 0.23968 0.69034 0.59055 0.0
N1570 N 0.2153 0.69104 0.61657 0.0
C1571 C 0.19146 0.69687 0.60834 0.0
C1572 C 0.23919 0.68761 0.60789 0.0
C1573 C 0.21548 0.69648 0.58208 0.0
C1574 C 0.21143 0.64454 0.6937 0.0
N1575 N 0.18627 0.65272 0.68808 0.0
C1576 C 0.21522 0.61824 0.70022 0.0
C1577 C 0.19303 0.60028 0.70097 0.0
C1578 C 0.16742 0.60878 0.69523 0.0
C1579 C 0.16441 0.63522 0.68877 0.0
C1580 C 0.12791 0.69539 0.71921 0.0
C1581 C 0.12689 0.70657 0.68535 0.0
C1582 C 0.1508 0.69044 0.70917 0.0
N1583 N 0.15003 0.6959 0.69245 0.0
C1584 C 0.10361 0.71178 0.695 0.0
C1585 C 0.10417 0.70611 0.71203 0.0
C1586 C 0.17934 0.73434 0.65368 0.0
C1587 C 0.29102 0.71881 0.65481 0.0
C1588 C 0.24735 0.73531 0.63515 0.0
C1589 C 0.26995 0.75263 0.63701 0.0
C1590 C 0.2919 0.74427 0.64692 0.0
N1591 N 0.24668 0.71033 0.64288 0.0
C1592 C 0.26809 0.70202 0.65265 0.0
Co1593 Co 0.07262 0.43399 0.42804 0.0
Co1594 Co 0.07192 0.4661 0.38934 0.0
O1595 O 0.07631 0.46639 0.4137 0.0
C1596 C 0.03028 0.44928 0.45259 0.0
O1597 O 0.01818 0.42636 0.44816 0.0
C1598 C 0.1281 0.48884 0.39407 0.0
O1599 O 0.13208 0.47036 0.40573 0.0
O1600 O 0.09545 0.43283 0.3869 0.0
O1601 O 0.09279 0.41084 0.4115 0.0
H1602 H 0.05238 0.42299 0.33365 0.0
H1603 H 0.09537 0.48544 0.44191 0.0
O1604 O 0.05225 0.45676 0.44514 0.0
H1605 H 0.16882 0.41675 0.44859 0.0
H1606 H 0.07674 0.3823 0.48254 0.0
H1607 H 0.05748 0.37596 0.42226 0.0
H1608 H 0.12427 0.40381 0.43636 0.0
H1609 H 0.08087 0.42307 0.4645 0.0
O1610 O 0.10514 0.49011 0.38651 0.0
H1611 H 0.058 0.42368 0.36422 0.0
H1612 H 0.07648 0.50875 0.36277 0.0
H1613 H 0.05312 0.33467 0.43985 0.0
H1614 H 0.13946 0.49922 0.45444 0.0
H1615 H 0.06277 0.3377 0.47022 0.0
H1616 H 0.17661 0.46478 0.45777 0.0
O1617 O 0.03689 0.4241 0.41716 0.0
H1618 H 0.04825 0.56034 0.41022 0.0
H1619 H 0.01686 0.48203 0.3763 0.0
H1620 H 0.98713 0.52269 0.37921 0.0
H1621 H 1.00283 0.56226 0.39623 0.0
H1622 H 0.07723 0.51915 0.40709 0.0
H1623 H 0.07129 0.50895 0.33216 0.0
H1624 H 0.05905 0.46586 0.3174 0.0
O1625 O 0.03884 0.44234 0.39141 0.0
C1626 C 0.10075 0.41248 0.39637 0.0
C1627 C 0.05764 0.44191 0.33994 0.0
C1628 C 0.06829 0.49015 0.3391 0.0
N1629 N 0.0674 0.46624 0.36529 0.0
C1630 C 0.06078 0.44244 0.35725 0.0
C1631 C 0.07127 0.48989 0.35643 0.0
C1632 C 0.06142 0.46597 0.33083 0.0
C1633 C 0.11134 0.47027 0.44347 0.0
N1634 N 0.10725 0.44384 0.43838 0.0
C1635 C 0.13631 0.47823 0.45051 0.0
C1636 C 0.15716 0.4589 0.45234 0.0
C1637 C 0.15281 0.43196 0.44717 0.0
C1638 C 0.1276 0.42477 0.44016 0.0
C1639 C 0.07251 0.38071 0.46932 0.0
C1640 C 0.06176 0.37743 0.43546 0.0
C1641 C 0.07484 0.40372 0.45904 0.0
N1642 N 0.06946 0.40189 0.44232 0.0
C1643 C 0.05924 0.35399 0.44536 0.0
C1644 C 0.06466 0.3557 0.4624 0.0
C1645 C 0.02697 0.42801 0.40259 0.0
C1646 C 0.04121 0.54326 0.40274 0.0
C1647 C 0.02378 0.49911 0.38379 0.0
C1648 C 0.00689 0.52211 0.38536 0.0
C1649 C 0.01572 0.54431 0.3949 0.0
N1650 N 0.04882 0.4983 0.39145 0.0
C1651 C 0.05756 0.51992 0.40088 0.0
Co1652 Co 0.33123 0.68426 0.33033 0.0
Co1653 Co 0.29471 0.68558 0.36743 0.0
O1654 O 0.29733 0.67954 0.34322 0.0
C1655 C 0.29199 0.7198 0.31141 0.0
O1656 O 0.28269 0.72964 0.32558 0.0
C1657 C 0.27219 0.62912 0.36317 0.0
O1658 O 0.29192 0.62406 0.35247 0.0
O1659 O 0.32754 0.66216 0.37178 0.0
O1660 O 0.35309 0.66666 0.34856 0.0
H1661 H 0.331 0.70817 0.42448 0.0
H1662 H 0.28313 0.65646 0.31546 0.0
O1663 O 0.31056 0.70144 0.31139 0.0
H1664 H 0.35833 0.58897 0.31243 0.0
H1665 H 0.38903 0.68325 0.27821 0.0
H1666 H 0.3876 0.70223 0.33864 0.0
H1667 H 0.36634 0.63514 0.32403 0.0
H1668 H 0.34668 0.67664 0.29453 0.0
O1669 O 0.27024 0.65267 0.36996 0.0
H1670 H 0.33404 0.70065 0.39411 0.0
H1671 H 0.24885 0.68301 0.39204 0.0
H1672 H 0.4305 0.70883 0.32282 0.0
H1673 H 0.27423 0.61065 0.30355 0.0
H1674 H 0.43137 0.69934 0.29238 0.0
H1675 H 0.31197 0.5765 0.30206 0.0
O1676 O 0.33745 0.72144 0.34024 0.0
H1677 H 0.20371 0.70832 0.3415 0.0
H1678 H 0.27751 0.74152 0.37839 0.0
H1679 H 0.23774 0.77133 0.37265 0.0
H1680 H 0.20046 0.75474 0.3541 0.0
H1681 H 0.24397 0.67925 0.34747 0.0
H1682 H 0.2449 0.6901 0.42241 0.0
H1683 H 0.28616 0.70288 0.43884 0.0
O1684 O 0.31885 0.71852 0.36582 0.0
C1685 C 0.34947 0.65812 0.36345 0.0
C1686 C 0.31286 0.70267 0.41746 0.0
C1687 C 0.26455 0.6925 0.4163 0.0
N1688 N 0.29165 0.69157 0.39129 0.0
C1689 C 0.31445 0.69846 0.40026 0.0
C1690 C 0.26693 0.68845 0.39911 0.0
C1691 C 0.2877 0.69968 0.42551 0.0
C1692 C 0.29968 0.64174 0.31477 0.0
N1693 N 0.32517 0.64835 0.32058 0.0
C1694 C 0.2945 0.61582 0.30805 0.0
C1695 C 0.31568 0.59666 0.30723 0.0
C1696 C 0.34168 0.60362 0.31308 0.0
C1697 C 0.34607 0.62972 0.31974 0.0
C1698 C 0.38891 0.68743 0.29147 0.0
C1699 C 0.38788 0.6979 0.32541 0.0
C1700 C 0.36497 0.68382 0.30077 0.0
N1701 N 0.3647 0.68893 0.31754 0.0
C1702 C 0.4122 0.70175 0.31652 0.0
C1703 C 0.41267 0.69645 0.29943 0.0
C1704 C 0.33293 0.73105 0.35479 0.0
C1705 C 0.21978 0.71574 0.34964 0.0
C1706 C 0.2614 0.73418 0.37027 0.0
C1707 C 0.23891 0.75113 0.3671 0.0
C1708 C 0.21799 0.7418 0.3567 0.0
N1709 N 0.26297 0.70861 0.36334 0.0
C1710 C 0.24256 0.69934 0.35312 0.0
Co1711 Co 0.07304 0.58155 0.08019 0.0
Co1712 Co 0.0753 0.54465 0.11682 0.0
O1713 O 0.08103 0.54791 0.09268 0.0
C1714 C 0.04223 0.53993 0.06046 0.0
O1715 O 0.03229 0.53017 0.07448 0.0
C1716 C 0.13382 0.52609 0.11453 0.0
O1717 O 0.14007 0.549 0.1068 0.0
O1718 O 0.09727 0.57858 0.12112 0.0
O1719 O 0.08662 0.60466 0.09899 0.0
H1720 H 0.05194 0.57937 0.1741 0.0
H1721 H 0.10685 0.53793 0.06479 0.0
O1722 O 0.0593 0.55967 0.06072 0.0
H1723 H 0.16599 0.61992 0.06584 0.0
H1724 H 0.0706 0.64101 0.02882 0.0
H1725 H 0.04778 0.63511 0.08865 0.0
H1726 H 0.11862 0.62203 0.07653 0.0
H1727 H 0.08109 0.59911 0.04485 0.0
O1728 O 0.10914 0.52136 0.11888 0.0
H1729 H 0.05883 0.58304 0.1437 0.0
H1730 H 0.08042 0.49872 0.14126 0.0
H1731 H 0.03714 0.67747 0.07313 0.0
H1732 H 0.15405 0.53495 0.05384 0.0
H1733 H 0.04856 0.68061 0.04299 0.0
H1734 H 0.18398 0.57615 0.05436 0.0
O1735 O 0.03513 0.58315 0.08952 0.0
H1736 H 0.05635 0.45324 0.09031 0.0
H1737 H 0.02068 0.52433 0.12831 0.0
H1738 H 0.99272 0.4833 0.12251 0.0
H1739 H 0.01056 0.44737 0.10341 0.0
H1740 H 0.08351 0.49475 0.09633 0.0
H1741 H 0.07398 0.4942 0.17165 0.0
H1742 H 0.05954 0.5347 0.18827 0.0
O1743 O 0.04107 0.5672 0.11553 0.0
C1744 C 0.0972 0.60151 0.11342 0.0
C1745 C 0.05817 0.56156 0.16699 0.0
C1746 C 0.07058 0.51377 0.16561 0.0
N1747 N 0.06986 0.54109 0.14069 0.0
C1748 C 0.06204 0.56349 0.14976 0.0
C1749 C 0.07426 0.51647 0.14841 0.0
C1750 C 0.06246 0.5365 0.17493 0.0
C1751 C 0.1197 0.55599 0.06494 0.0
N1752 N 0.10996 0.58014 0.07122 0.0
C1753 C 0.14643 0.55415 0.05877 0.0
C1754 C 0.16322 0.57727 0.05909 0.0
C1755 C 0.15315 0.60183 0.06554 0.0
C1756 C 0.12633 0.60289 0.07161 0.0
C1757 C 0.06555 0.6399 0.04195 0.0
C1758 C 0.05293 0.63636 0.07555 0.0
C1759 C 0.07138 0.61621 0.05108 0.0
N1760 N 0.06518 0.61472 0.06769 0.0
C1761 C 0.0468 0.66038 0.06682 0.0
C1762 C 0.0532 0.66212 0.04991 0.0
C1763 C 0.0266 0.57899 0.10436 0.0
C1764 C 0.04837 0.46873 0.09868 0.0
C1765 C 0.02852 0.50887 0.11992 0.0
C1766 C 0.01264 0.48563 0.11672 0.0
C1767 C 0.02267 0.46547 0.10602 0.0
N1768 N 0.05372 0.51192 0.11269 0.0
C1769 C 0.0637 0.49223 0.10218 0.0
Co1770 Co 0.1792 0.32248 0.82832 0.0
Co1771 Co 0.21625 0.32489 0.86486 0.0
O1772 O 0.21287 0.33061 0.84073 0.0
C1773 C 0.22087 0.29197 0.80842 0.0
O1774 O 0.23054 0.28177 0.82239 0.0
C1775 C 0.23475 0.38348 0.86279 0.0
O1776 O 0.21164 0.38996 0.85535 0.0
O1777 O 0.18234 0.34688 0.86919 0.0
O1778 O 0.15611 0.33586 0.8472 0.0
H1779 H 0.18175 0.30166 0.92221 0.0
H1780 H 0.22249 0.35666 0.8129 0.0
O1781 O 0.20108 0.30902 0.80876 0.0
H1782 H 0.14006 0.41527 0.8142 0.0
H1783 H 0.11944 0.31993 0.77708 0.0
H1784 H 0.12586 0.29691 0.83686 0.0
H1785 H 0.13836 0.36783 0.8248 0.0
H1786 H 0.16137 0.33056 0.79302 0.0
O1787 O 0.23958 0.35869 0.86688 0.0
H1788 H 0.17798 0.30849 0.89181 0.0
H1789 H 0.26228 0.32998 0.88923 0.0
H1790 H 0.08346 0.28613 0.82143 0.0
H1791 H 0.22506 0.40394 0.80203 0.0
H1792 H 0.08007 0.29765 0.79131 0.0
H1793 H 0.18364 0.4336 0.80268 0.0
O1794 O 0.1779 0.2845 0.83761 0.0
H1795 H 0.30752 0.30579 0.83819 0.0
H1796 H 0.23666 0.27028 0.87637 0.0
H1797 H 0.27766 0.24227 0.87053 0.0
H1798 H 0.31348 0.26003 0.85134 0.0
H1799 H 0.26603 0.333 0.84427 0.0
H1800 H 0.2669 0.32361 0.91963 0.0
H1801 H 0.22646 0.30924 0.93632 0.0
O1802 O 0.19371 0.29068 0.86362 0.0
C1803 C 0.15933 0.34659 0.86158 0.0
C1804 C 0.19953 0.30785 0.91506 0.0
C1805 C 0.24731 0.32021 0.91362 0.0
N1806 N 0.21991 0.31947 0.88873 0.0
C1807 C 0.19754 0.31169 0.89784 0.0
C1808 C 0.24455 0.32386 0.89642 0.0
C1809 C 0.22462 0.31213 0.92297 0.0
C1810 C 0.20434 0.3694 0.81311 0.0
N1811 N 0.18029 0.35946 0.81941 0.0
C1812 C 0.20594 0.39617 0.80699 0.0
C1813 C 0.1827 0.41281 0.80737 0.0
C1814 C 0.15824 0.40254 0.81384 0.0
C1815 C 0.15742 0.37568 0.81987 0.0
C1816 C 0.12066 0.31484 0.7902 0.0
C1817 C 0.12449 0.30211 0.82378 0.0
C1818 C 0.14438 0.32074 0.79928 0.0
N1819 N 0.14601 0.31449 0.81588 0.0
C1820 C 0.10045 0.2959 0.8151 0.0
C1821 C 0.09857 0.30235 0.7982 0.0
C1822 C 0.18203 0.27609 0.85248 0.0
C1823 C 0.29208 0.29784 0.8466 0.0
C1824 C 0.25206 0.27809 0.86794 0.0
C1825 C 0.27529 0.26217 0.86472 0.0
C1826 C 0.2954 0.27216 0.85396 0.0
N1827 N 0.24897 0.30327 0.86069 0.0
C1828 C 0.26859 0.3132 0.85013 0.0
Co1829 Co 0.43683 0.4301 0.58042 0.0
Co1830 Co 0.43458 0.46555 0.61766 0.0
O1831 O 0.42883 0.46332 0.59341 0.0
C1832 C 0.46783 0.47202 0.5609 0.0
O1833 O 0.47831 0.48135 0.57489 0.0
C1834 C 0.37718 0.48633 0.61343 0.0
O1835 O 0.37284 0.46736 0.60212 0.0
O1836 O 0.41276 0.43138 0.62145 0.0
O1837 O 0.4234 0.40627 0.59893 0.0
H1838 H 0.45869 0.42812 0.6742 0.0
H1839 H 0.40321 0.47402 0.56519 0.0
O1840 O 0.45042 0.45259 0.56119 0.0
H1841 H 0.34378 0.39222 0.56574 0.0
H1842 H 0.43892 0.3723 0.52835 0.0
H1843 H 0.46236 0.37637 0.58814 0.0
H1844 H 0.39107 0.38982 0.57654 0.0
H1845 H 0.42845 0.41363 0.5449 0.0
O1846 O 0.4005 0.4883 0.62048 0.0
H1847 H 0.45153 0.42595 0.64376 0.0
H1848 H 0.42948 0.51024 0.64296 0.0
H1849 H 0.47299 0.33455 0.57209 0.0
H1850 H 0.35613 0.47727 0.55407 0.0
H1851 H 0.46126 0.33234 0.54196 0.0
H1852 H 0.32604 0.43618 0.55437 0.0
O1853 O 0.47479 0.42824 0.58966 0.0
H1854 H 0.45269 0.55819 0.59257 0.0
H1855 H 0.4891 0.48582 0.6294 0.0
H1856 H 0.5167 0.5273 0.62421 0.0
H1857 H 0.49848 0.56389 0.6057 0.0
H1858 H 0.42588 0.51623 0.598 0.0
H1859 H 0.43617 0.51325 0.67341 0.0
H1860 H 0.45099 0.47201 0.68922 0.0
O1861 O 0.46898 0.44338 0.61586 0.0
C1862 C 0.41295 0.40876 0.61343 0.0
C1863 C 0.4523 0.44625 0.66744 0.0
C1864 C 0.43963 0.49402 0.667 0.0
N1865 N 0.44026 0.46797 0.64158 0.0
C1866 C 0.44827 0.44516 0.6502 0.0
C1867 C 0.43581 0.49217 0.64976 0.0
C1868 C 0.44795 0.47087 0.67586 0.0
C1869 C 0.39031 0.456 0.56521 0.0
N1870 N 0.39989 0.43176 0.57148 0.0
C1871 C 0.36364 0.45798 0.55896 0.0
C1872 C 0.34676 0.43493 0.55916 0.0
C1873 C 0.35669 0.41027 0.56556 0.0
C1874 C 0.38345 0.40907 0.57172 0.0
C1875 C 0.44411 0.373 0.54147 0.0
C1876 C 0.45708 0.37552 0.57506 0.0
C1877 C 0.4383 0.39638 0.5509 0.0
N1878 N 0.44468 0.39737 0.5675 0.0
C1879 C 0.4632 0.3518 0.56602 0.0
C1880 C 0.45663 0.35059 0.54911 0.0
C1881 C 0.48341 0.43202 0.60451 0.0
C1882 C 0.46082 0.54242 0.60069 0.0
C1883 C 0.48108 0.50157 0.62127 0.0
C1884 C 0.49677 0.52506 0.61842 0.0
C1885 C 0.48653 0.54559 0.60804 0.0
N1886 N 0.45587 0.49863 0.61404 0.0
C1887 C 0.4457 0.51867 0.60385 0.0
H1888 H 0.10157 0.39454 0.36394 0.0
H1889 H 0.13341 0.37617 0.41291 0.0
H1890 H 0.12092 0.35178 0.35336 0.0
H1891 H 0.15422 0.33458 0.40228 0.0
H1892 H 0.15927 0.24717 0.38576 0.0
H1893 H 0.14136 0.2911 0.39461 0.0
H1894 H 0.1587 0.32481 0.3458 0.0
H1895 H 0.17527 0.27985 0.33667 0.0
C1896 C 0.1132 0.38166 0.37237 0.0
C1897 C 0.11565 0.38861 0.38933 0.0
C1898 C 0.12443 0.35713 0.36629 0.0
C1899 C 0.1388 0.33923 0.37699 0.0
C1900 C 0.14251 0.34717 0.39373 0.0
C1901 C 0.1308 0.37128 0.39985 0.0
C1902 C 0.15925 0.26394 0.37689 0.0
C1903 C 0.16882 0.26006 0.36054 0.0
C1904 C 0.14918 0.28935 0.38201 0.0
C1905 C 0.14895 0.31193 0.37107 0.0
C1906 C 0.15829 0.30796 0.35459 0.0
C1907 C 0.1679 0.28222 0.34934 0.0
H1908 H 0.99745 0.94102 0.63079 0.0
H1909 H 0.99228 0.89637 0.58426 0.0
H1910 H 0.95418 0.92155 0.63958 0.0
H1911 H 0.94848 0.87654 0.59335 0.0
H1912 H 0.85693 0.86791 0.61339 0.0
H1913 H 0.89835 0.88901 0.60154 0.0
H1914 H 0.94138 0.87415 0.64772 0.0
H1915 H 0.90074 0.85341 0.65949 0.0
C1916 C 0.98709 0.92715 0.62234 0.0
C1917 C 0.99866 0.92014 0.60682 0.0
C1918 C 0.96221 0.91589 0.62746 0.0
C1919 C 0.94806 0.89726 0.61726 0.0
C1920 C 0.95891 0.89092 0.60146 0.0
C1921 C 0.98405 0.90219 0.5963 0.0
C1922 C 0.87524 0.86922 0.621 0.0
C1923 C 0.87526 0.85923 0.63749 0.0
C1924 C 0.89897 0.88114 0.61417 0.0
C1925 C 0.92301 0.88351 0.62377 0.0
C1926 C 0.92306 0.87311 0.6401 0.0
C1927 C 0.89963 0.86112 0.64684 0.0
H1928 H 0.40627 0.65127 0.91115 0.0
H1929 H 0.38951 0.60656 0.86567 0.0
H1930 H 0.38538 0.69182 0.89938 0.0
H1931 H 0.36799 0.64777 0.85387 0.0
H1932 H 0.36042 0.73989 0.83493 0.0
H1933 H 0.37945 0.69606 0.84448 0.0
H1934 H 0.3394 0.70689 0.89206 0.0
H1935 H 0.32101 0.75043 0.88284 0.0
C1936 C 0.39797 0.64993 0.89864 0.0
C1937 C 0.39942 0.62538 0.88945 0.0
C1938 C 0.38583 0.6733 0.89191 0.0
C1939 C 0.37469 0.67299 0.87575 0.0
C1940 C 0.37644 0.64866 0.86635 0.0
C1941 C 0.38861 0.62504 0.87315 0.0
C1942 C 0.35551 0.73278 0.84738 0.0
C1943 C 0.33933 0.74893 0.85813 0.0
C1944 C 0.36632 0.70761 0.85281 0.0
C1945 C 0.36122 0.69815 0.8691 0.0
C1946 C 0.3442 0.71381 0.87956 0.0
C1947 C 0.3335 0.73882 0.87419 0.0
H1948 H 0.52015 0.10926 0.08546 0.0
H1949 H 0.51031 0.07292 0.13433 0.0
H1950 H 0.56395 0.12916 0.09442 0.0
H1951 H 0.55371 0.09226 0.14298 0.0
H1952 H 0.60915 0.16017 0.1603 0.0
H1953 H 0.56834 0.13935 0.14887 0.0
H1954 H 0.61264 0.11749 0.10418 0.0
H1955 H 0.65419 0.13887 0.11564 0.0
C1956 C 0.52737 0.10526 0.09801 0.0
C1957 C 0.51146 0.08965 0.10919 0.0
C1958 C 0.55251 0.11656 0.1031 0.0
C1959 C 0.56213 0.11255 0.11947 0.0
C1960 C 0.54666 0.09618 0.13038 0.0
C1961 C 0.52172 0.08495 0.12535 0.0
C1962 C 0.61049 0.15095 0.14804 0.0
C1963 C 0.63524 0.15099 0.139 0.0
C1964 C 0.58696 0.13887 0.1415 0.0
C1965 C 0.5873 0.12642 0.12571 0.0
C1966 C 0.61176 0.12695 0.11639 0.0
C1967 C 0.63556 0.13905 0.123 0.0
H1968 H 0.18872 0.75035 0.12671 0.0
H1969 H 0.15215 0.74019 0.17548 0.0
H1970 H 0.16935 0.70705 0.1179 0.0
H1971 H 0.13223 0.69645 0.16636 0.0
H1972 H 0.12225 0.60638 0.1443 0.0
H1973 H 0.14393 0.64753 0.15615 0.0
H1974 H 0.12176 0.69326 0.11205 0.0
H1975 H 0.10059 0.65291 0.10027 0.0
C1976 C 0.17666 0.73887 0.13564 0.0
C1977 C 0.17186 0.74904 0.15181 0.0
C1978 C 0.16543 0.71399 0.13052 0.0
C1979 C 0.14895 0.69847 0.14135 0.0
C1980 C 0.14491 0.70794 0.15775 0.0
C1981 C 0.15622 0.73304 0.16293 0.0
C1982 C 0.12206 0.62524 0.13717 0.0
C1983 C 0.10993 0.6261 0.12122 0.0
C1984 C 0.13433 0.6488 0.14399 0.0
C1985 C 0.13487 0.67353 0.13493 0.0
C1986 C 0.12222 0.67441 0.11921 0.0
C1987 C 0.10996 0.65114 0.11247 0.0
H1988 H 0.51625 0.89565 0.42432 0.0
H1989 H 0.51122 0.93824 0.37706 0.0
H1990 H 0.56037 0.87579 0.4157 0.0
H1991 H 0.55472 0.91877 0.36876 0.0
H1992 H 0.6086 0.85035 0.35001 0.0
H1993 H 0.56759 0.87064 0.36158 0.0
H1994 H 0.61077 0.88901 0.40723 0.0
H1995 H 0.65262 0.86836 0.39557 0.0
C1996 C 0.52456 0.90099 0.41222 0.0
C1997 C 0.50991 0.91837 0.40135 0.0
C1998 C 0.54986 0.88972 0.40734 0.0
C1999 C 0.56082 0.8955 0.39148 0.0
C2000 C 0.54661 0.91357 0.38094 0.0
C2001 C 0.52159 0.92481 0.38578 0.0
C2002 C 0.60967 0.85871 0.36251 0.0
C2003 C 0.63422 0.85799 0.37174 0.0
C2004 C 0.58602 0.87042 0.36914 0.0
C2005 C 0.58602 0.88172 0.38524 0.0
C2006 C 0.61021 0.88043 0.39477 0.0
C2007 C 0.63417 0.86877 0.38805 0.0
H2008 H 0.32122 0.26004 0.62556 0.0
H2009 H 0.362 0.26579 0.67337 0.0
H2010 H 0.34064 0.30361 0.61738 0.0
H2011 H 0.38186 0.30995 0.66487 0.0
H2012 H 0.38971 0.40204 0.64472 0.0
H2013 H 0.36895 0.36011 0.65619 0.0
H2014 H 0.3885 0.31704 0.61068 0.0
H2015 H 0.40883 0.35812 0.59929 0.0
C2016 C 0.33425 0.27058 0.63442 0.0
C2017 C 0.34018 0.25909 0.65013 0.0
C2018 C 0.34548 0.29564 0.62965 0.0
C2019 C 0.36304 0.31009 0.64039 0.0
C2020 C 0.36832 0.29929 0.65635 0.0
C2021 C 0.35706 0.27394 0.66116 0.0
C2022 C 0.38952 0.3836 0.63719 0.0
C2023 C 0.40065 0.38371 0.62097 0.0
C2024 C 0.3778 0.35958 0.6438 0.0
C2025 C 0.37681 0.33538 0.63425 0.0
C2026 C 0.38846 0.33546 0.61824 0.0
C2027 C 0.4002 0.35916 0.61172 0.0
H2028 H 0.99117 0.11117 0.92504 0.0
H2029 H 1.00103 0.07337 0.87659 0.0
H2030 H 0.94726 0.13065 0.91591 0.0
H2031 H 0.95751 0.0923 0.86777 0.0
H2032 H 0.90181 0.15969 0.84978 0.0
H2033 H 0.94266 0.13909 0.86133 0.0
H2034 H 0.89861 0.11867 0.90636 0.0
H2035 H 0.85702 0.13982 0.89477 0.0
C2036 C 0.98393 0.10676 0.91255 0.0
C2037 C 0.99988 0.09087 0.90153 0.0
C2038 C 0.95872 0.11781 0.90736 0.0
C2039 C 0.94907 0.11328 0.89105 0.0
C2040 C 0.96458 0.09662 0.88031 0.0
C2041 C 0.98959 0.08564 0.88544 0.0
C2042 C 0.90053 0.15081 0.86214 0.0
C2043 C 0.87584 0.15121 0.87123 0.0
C2044 C 0.92409 0.13886 0.86875 0.0
C2045 C 0.92383 0.12691 0.88468 0.0
C2046 C 0.89942 0.12775 0.89404 0.0
C2047 C 0.8756 0.13972 0.88736 0.0
H2048 H 0.90806 0.65076 0.59807 0.0
H2049 H 0.88878 0.60576 0.64307 0.0
H2050 H 0.88663 0.69127 0.60952 0.0
H2051 H 0.86684 0.64699 0.65458 0.0
H2052 H 0.85877 0.73965 0.67314 0.0
H2053 H 0.87837 0.69579 0.66406 0.0
H2054 H 0.83959 0.70554 0.61601 0.0
H2055 H 0.82051 0.74904 0.62479 0.0
C2056 C 0.89913 0.64936 0.6104 0.0
C2057 C 0.89997 0.62472 0.61955 0.0
C2058 C 0.8867 0.67271 0.61696 0.0
C2059 C 0.87471 0.67229 0.63288 0.0
C2060 C 0.87594 0.64793 0.64227 0.0
C2061 C 0.88836 0.6243 0.63564 0.0
C2062 C 0.85424 0.73229 0.6607 0.0
C2063 C 0.83823 0.74812 0.64967 0.0
C2064 C 0.86538 0.70711 0.65554 0.0
C2065 C 0.8608 0.69737 0.63925 0.0
C2066 C 0.84394 0.7127 0.62853 0.0
C2067 C 0.83287 0.73768 0.63363 0.0
H2068 H 0.11019 0.15573 0.34725 0.0
H2069 H 0.15306 0.13701 0.39311 0.0
H2070 H 0.06896 0.13493 0.3583 0.0
H2071 H 0.11135 0.11564 0.40413 0.0
H2072 H 0.01984 0.10901 0.42267 0.0
H2073 H 0.06378 0.12775 0.41326 0.0
H2074 H 0.0522 0.08949 0.36519 0.0
H2075 H 0.00847 0.07133 0.37431 0.0
C2076 C 0.11097 0.14699 0.35966 0.0
C2077 C 0.13516 0.14793 0.36922 0.0
C2078 C 0.08723 0.13491 0.36598 0.0
C2079 C 0.08689 0.12338 0.38204 0.0
C2080 C 0.11093 0.12445 0.39173 0.0
C2081 C 0.13487 0.13653 0.38536 0.0
C2082 C 0.02678 0.10444 0.41014 0.0
C2083 C 0.01042 0.0888 0.39924 0.0
C2084 C 0.05202 0.11508 0.40478 0.0
C2085 C 0.06135 0.11035 0.38842 0.0
C2086 C 0.04539 0.09397 0.37777 0.0
C2087 C 0.0203 0.08341 0.38307 0.0
H2088 H 0.62224 0.404 0.144 0.0
H2089 H 0.60301 0.35886 0.09904 0.0
H2090 H 0.64416 0.36281 0.15557 0.0
H2091 H 0.62439 0.31837 0.11058 0.0
H2092 H 0.69039 0.2605 0.1259 0.0
H2093 H 0.6712 0.3039 0.11702 0.0
H2094 H 0.63308 0.31425 0.16522 0.0
H2095 H 0.65283 0.2705 0.17441 0.0
C2096 C 0.62265 0.38543 0.13659 0.0
C2097 C 0.61109 0.38497 0.12049 0.0
C2098 C 0.63507 0.36182 0.14326 0.0
C2099 C 0.63632 0.33742 0.13391 0.0
C2100 C 0.62433 0.33695 0.11798 0.0
C2101 C 0.61192 0.36029 0.11139 0.0
C2102 C 0.67815 0.27197 0.13476 0.0
C2103 C 0.67304 0.26174 0.15088 0.0
C2104 C 0.66701 0.2969 0.12959 0.0
C2105 C 0.65029 0.31237 0.14032 0.0
C2106 C 0.64595 0.30282 0.15668 0.0
C2107 C 0.65718 0.27771 0.1619 0.0
H2108 H 0.50012 0.93979 0.87596 0.0
H2109 H 0.48994 0.90243 0.92452 0.0
H2110 H 0.45678 0.92053 0.86704 0.0
H2111 H 0.4462 0.88272 0.91531 0.0
H2112 H 0.35635 0.87236 0.89327 0.0
H2113 H 0.39727 0.89442 0.90513 0.0
H2114 H 0.44322 0.87278 0.86102 0.0
H2115 H 0.4031 0.85116 0.84925 0.0
C2116 C 0.48861 0.92761 0.88483 0.0
C2117 C 0.4988 0.92251 0.90096 0.0
C2118 C 0.46371 0.91646 0.87965 0.0
C2119 C 0.44821 0.8998 0.89039 0.0
C2120 C 0.45767 0.89555 0.90677 0.0
C2121 C 0.48278 0.90675 0.912 0.0
C2122 C 0.37521 0.87236 0.88613 0.0
C2123 C 0.3762 0.86022 0.87019 0.0
C2124 C 0.39864 0.88487 0.89296 0.0
C2125 C 0.42336 0.88566 0.88391 0.0
C2126 C 0.42437 0.87305 0.86818 0.0
C2127 C 0.40123 0.86052 0.86144 0.0
H2128 H 0.88919 0.40414 0.8662 0.0
H2129 H 0.90671 0.35966 0.91167 0.0
H2130 H 0.86714 0.36301 0.8547 0.0
H2131 H 0.88525 0.31919 0.9002 0.0
H2132 H 0.82001 0.261 0.88436 0.0
H2133 H 0.8389 0.30449 0.8933 0.0
H2134 H 0.87815 0.31452 0.84541 0.0
H2135 H 0.85866 0.27074 0.83616 0.0
C2136 C 0.88835 0.38573 0.87375 0.0
C2137 C 0.89953 0.38543 0.88995 0.0
C2138 C 0.87586 0.36215 0.86712 0.0
C2139 C 0.87416 0.33792 0.87662 0.0
C2140 C 0.88566 0.33764 0.89267 0.0
C2141 C 0.89813 0.36097 0.89923 0.0
C2142 C 0.83243 0.27244 0.87558 0.0
C2143 C 0.83792 0.26211 0.85953 0.0
C2144 C 0.84341 0.29741 0.88078 0.0
C2145 C 0.86035 0.31282 0.87016 0.0
C2146 C 0.86509 0.30316 0.85387 0.0
C2147 C 0.85401 0.27802 0.84861 0.0
H2148 H 0.36782 0.16381 0.61386 0.0
H2149 H 0.38114 0.1213 0.66033 0.0
H2150 H 0.41034 0.14428 0.60278 0.0
H2151 H 0.42247 0.10067 0.64919 0.0
H2152 H 0.51075 0.09558 0.63475 0.0
H2153 H 0.467 0.11372 0.6436 0.0
H2154 H 0.4361 0.10611 0.59323 0.0
H2155 H 0.48097 0.0891 0.58417 0.0
C2156 C 0.37957 0.14987 0.62158 0.0
C2157 C 0.37141 0.14445 0.63807 0.0
C2158 C 0.40393 0.13858 0.61523 0.0
C2159 C 0.42035 0.12126 0.62517 0.0
C2160 C 0.41108 0.11467 0.64132 0.0
C2161 C 0.38718 0.12636 0.64773 0.0
C2162 C 0.49468 0.09769 0.62552 0.0
C2163 C 0.49936 0.09067 0.60876 0.0
C2164 C 0.46934 0.10794 0.63064 0.0
C2165 C 0.44759 0.11099 0.61924 0.0
C2166 C 0.45233 0.10424 0.60238 0.0
C2167 C 0.47801 0.09436 0.59718 0.0
H2168 H 0.69213 0.74924 0.38472 0.0
H2169 H 0.65232 0.73899 0.3369 0.0
H2170 H 0.67386 0.70564 0.3939 0.0
H2171 H 0.63344 0.69511 0.3464 0.0
H2172 H 0.60707 0.64937 0.41284 0.0
H2173 H 0.62811 0.69014 0.40137 0.0
H2174 H 0.64517 0.64701 0.35548 0.0
H2175 H 0.62356 0.60571 0.36695 0.0
C2176 C 0.67958 0.73767 0.37608 0.0
C2177 C 0.6736 0.74787 0.36006 0.0
C2178 C 0.66895 0.71264 0.38143 0.0
C2179 C 0.65188 0.69705 0.37098 0.0
C2180 C 0.64663 0.70661 0.35472 0.0
C2181 C 0.65736 0.7318 0.34931 0.0
C2182 C 0.61537 0.64831 0.40032 0.0
C2183 C 0.61376 0.62403 0.3909 0.0
C2184 C 0.62758 0.67179 0.39376 0.0
C2185 C 0.63858 0.67179 0.37756 0.0
C2186 C 0.63679 0.64767 0.36798 0.0
C2187 C 0.62459 0.62398 0.37461 0.0
H2188 H 0.15459 0.87097 0.11686 0.0
H2189 H 0.11063 0.85433 0.16262 0.0
H2190 H 0.11334 0.8927 0.10534 0.0
H2191 H 0.06995 0.87544 0.15111 0.0
H2192 H 0.01127 0.94014 0.13475 0.0
H2193 H 0.05466 0.92127 0.14391 0.0
H2194 H 0.06521 0.88177 0.09612 0.0
H2195 H 0.02157 0.90127 0.08666 0.0
C2196 C 0.13625 0.87193 0.12447 0.0
C2197 C 0.13615 0.86109 0.14076 0.0
C2198 C 0.11259 0.88423 0.11782 0.0
C2199 C 0.08843 0.88608 0.12737 0.0
C2200 C 0.08833 0.87491 0.14353 0.0
C2201 C 0.11177 0.86264 0.15012 0.0
C2202 C 0.0228 0.92766 0.12605 0.0
C2203 C 0.01268 0.92214 0.10995 0.0
C2204 C 0.04771 0.91668 0.13138 0.0
C2205 C 0.06326 0.89969 0.12084 0.0
C2206 C 0.05376 0.89487 0.10452 0.0
C2207 C 0.02869 0.90596 0.09913 0.0
H2208 H 0.68743 0.75989 0.88282 0.0
H2209 H 0.65 0.7704 0.83431 0.0
H2210 H 0.66841 0.80327 0.89181 0.0
H2211 H 0.6304 0.81417 0.84362 0.0
H2212 H 0.60091 0.85858 0.90996 0.0
H2213 H 0.62153 0.8179 0.89819 0.0
H2214 H 0.64227 0.86272 0.85349 0.0
H2215 H 0.6211 0.90413 0.8653 0.0
C2216 C 0.67523 0.77145 0.87399 0.0
C2217 C 0.67013 0.76138 0.85784 0.0
C2218 C 0.66419 0.79637 0.87922 0.0
C2219 C 0.64759 0.81201 0.86852 0.0
C2220 C 0.64319 0.8026 0.85214 0.0
C2221 C 0.65431 0.77747 0.84685 0.0
C2222 C 0.60985 0.86006 0.89762 0.0
C2223 C 0.60955 0.88491 0.88868 0.0
C2224 C 0.62181 0.83661 0.89089 0.0
C2225 C 0.63388 0.83713 0.87499 0.0
C2226 C 0.6331 0.8617 0.86578 0.0
C2227 C 0.62113 0.88542 0.87259 0.0
H2228 H 0.50082 0.43867 0.13375 0.0
H2229 H 0.4905 0.40204 0.085 0.0
H2230 H 0.4574 0.41947 0.14256 0.0
H2231 H 0.44669 0.38235 0.09412 0.0
H2232 H 0.35674 0.37223 0.11612 0.0
H2233 H 0.39781 0.39415 0.10434 0.0
H2234 H 0.44363 0.37174 0.14836 0.0
H2235 H 0.40339 0.35029 0.16006 0.0
C2236 C 0.48927 0.42666 0.12483 0.0
C2237 C 0.49944 0.42176 0.10867 0.0
C2238 C 0.46433 0.41553 0.12995 0.0
C2239 C 0.44877 0.39909 0.11912 0.0
C2240 C 0.45821 0.39501 0.10272 0.0
C2241 C 0.48336 0.40619 0.09755 0.0
C2242 C 0.3756 0.37203 0.12325 0.0
C2243 C 0.37653 0.35974 0.13915 0.0
C2244 C 0.39912 0.38446 0.11647 0.0
C2245 C 0.42385 0.38499 0.12553 0.0
C2246 C 0.42478 0.37221 0.1412 0.0
C2247 C 0.40157 0.35978 0.14789 0.0
H2248 H 0.92926 0.15466 0.39815 0.0
H2249 H 0.8698 0.10391 0.37284 0.0
H2250 H 0.90964 0.19542 0.38508 0.0
H2251 H 0.84963 0.14509 0.36008 0.0
H2252 H 0.80457 0.23292 0.36695 0.0
H2253 H 0.82509 0.18908 0.37492 0.0
H2254 H 0.90215 0.21457 0.35352 0.0
H2255 H 0.88139 0.25837 0.34513 0.0
C2256 C 0.912 0.15221 0.38978 0.0
C2257 C 0.90098 0.12608 0.38658 0.0
C2258 C 0.90095 0.17553 0.3822 0.0
C2259 C 0.87823 0.17334 0.37154 0.0
C2260 C 0.86721 0.14726 0.36824 0.0
C2261 C 0.87874 0.12376 0.37551 0.0
C2262 C 0.82578 0.22904 0.36374 0.0
C2263 C 0.84143 0.24911 0.3555 0.0
C2264 C 0.83744 0.20389 0.36821 0.0
C2265 C 0.86517 0.19852 0.36485 0.0
C2266 C 0.88071 0.21828 0.35625 0.0
C2267 C 0.86883 0.24323 0.3514 0.0
H2268 H 0.10988 0.65603 0.66159 0.0
H2269 H 0.15348 0.63826 0.61585 0.0
H2270 H 0.06907 0.63473 0.65034 0.0
H2271 H 0.1122 0.61636 0.60462 0.0
H2272 H 0.02094 0.60841 0.58576 0.0
H2273 H 0.06452 0.62776 0.59533 0.0
H2274 H 0.05311 0.58911 0.64331 0.0
H2275 H 0.00973 0.57038 0.63404 0.0
C2276 C 0.11091 0.6474 0.64916 0.0
C2277 C 0.13518 0.64874 0.6397 0.0
C2278 C 0.08742 0.63503 0.64272 0.0
C2279 C 0.08741 0.6236 0.62663 0.0
C2280 C 0.11153 0.62509 0.61704 0.0
C2281 C 0.13521 0.63747 0.62352 0.0
C2282 C 0.02785 0.60389 0.59831 0.0
C2283 C 0.01162 0.58797 0.60914 0.0
C2284 C 0.05288 0.61488 0.60376 0.0
C2285 C 0.06214 0.61021 0.62014 0.0
C2286 C 0.04634 0.59355 0.63072 0.0
C2287 C 0.02145 0.58266 0.62533 0.0
H2288 H 0.6222 0.10628 0.64268 0.0
H2289 H 0.60116 0.15168 0.59811 0.0
H2290 H 0.64315 0.14775 0.65443 0.0
H2291 H 0.6216 0.19254 0.60984 0.0
H2292 H 0.68681 0.25133 0.62554 0.0
H2293 H 0.66808 0.20803 0.61625 0.0
H2294 H 0.63077 0.19568 0.66451 0.0
H2295 H 0.65008 0.23937 0.67412 0.0
C2296 C 0.62204 0.12497 0.63538 0.0
C2297 C 0.61022 0.12545 0.61935 0.0
C2298 C 0.63388 0.14874 0.64217 0.0
C2299 C 0.63428 0.17335 0.63299 0.0
C2300 C 0.62212 0.17381 0.61711 0.0
C2301 C 0.61028 0.15028 0.6104 0.0
C2302 C 0.67481 0.23947 0.63432 0.0
C2303 C 0.66985 0.24909 0.6506 0.0
C2304 C 0.66392 0.2146 0.62891 0.0
C2305 C 0.64764 0.19856 0.63956 0.0
C2306 C 0.64333 0.20757 0.65604 0.0
C2307 C 0.65429 0.23264 0.6615 0.0
H2308 H 0.15459 0.37178 0.89242 0.0
H2309 H 0.10778 0.34965 0.8486 0.0
H2310 H 0.11341 0.39325 0.90439 0.0
H2311 H 0.0674 0.3706 0.8605 0.0
H2312 H 0.0098 0.43716 0.87542 0.0
H2313 H 0.05307 0.41797 0.86636 0.0
H2314 H 0.06489 0.38133 0.91485 0.0
H2315 H 0.0212 0.40105 0.92423 0.0
C2316 C 0.13566 0.37144 0.88536 0.0
C2317 C 0.13472 0.35923 0.86944 0.0
C2318 C 0.11208 0.3836 0.89225 0.0
C2319 C 0.08725 0.38393 0.88329 0.0
C2320 C 0.08631 0.37123 0.86759 0.0
C2321 C 0.1096 0.35908 0.86078 0.0
C2322 C 0.02154 0.42522 0.8843 0.0
C2323 C 0.01174 0.42052 0.90057 0.0
C2324 C 0.0464 0.4141 0.87903 0.0
C2325 C 0.06226 0.39783 0.88981 0.0
C2326 C 0.05314 0.39385 0.90628 0.0
C2327 C 0.02806 0.40504 0.91161 0.0
H2328 H 0.88968 0.90368 0.14446 0.0
H2329 H 0.91022 0.85863 0.09967 0.0
H2330 H 0.86811 0.86226 0.15595 0.0
H2331 H 0.8892 0.81793 0.11112 0.0
H2332 H 0.82296 0.75993 0.12599 0.0
H2333 H 0.84229 0.80329 0.11723 0.0
H2334 H 0.87958 0.81364 0.16567 0.0
H2335 H 0.85968 0.7699 0.17474 0.0
C2336 C 0.88964 0.88508 0.13707 0.0
C2337 C 0.90145 0.88472 0.12103 0.0
C2338 C 0.87743 0.86134 0.14369 0.0
C2339 C 0.87665 0.8369 0.13435 0.0
C2340 C 0.88892 0.83653 0.11851 0.0
C2341 C 0.90111 0.86 0.11196 0.0
C2342 C 0.83507 0.77137 0.13492 0.0
C2343 C 0.83987 0.76115 0.15108 0.0
C2344 C 0.84629 0.79627 0.12982 0.0
C2345 C 0.86278 0.81176 0.14066 0.0
C2346 C 0.86688 0.80219 0.15704 0.0
C2347 C 0.85559 0.77708 0.16219 0.0
H2348 H 0.51163 0.59446 0.37418 0.0
H2349 H 0.48364 0.59124 0.42526 0.0
H2350 H 0.4675 0.61192 0.36548 0.0
H2351 H 0.43846 0.6077 0.41639 0.0
H2352 H 0.37007 0.66482 0.39499 0.0
H2353 H 0.41267 0.64557 0.40614 0.0
H2354 H 0.4226 0.59804 0.36098 0.0
H2355 H 0.38107 0.61829 0.34976 0.0
C2356 C 0.4959 0.59721 0.38357 0.0
C2357 C 0.50118 0.59128 0.40042 0.0
C2358 C 0.47036 0.60704 0.37854 0.0
C2359 C 0.44902 0.6108 0.39014 0.0
C2360 C 0.45437 0.60522 0.40709 0.0
C2361 C 0.48024 0.5957 0.41219 0.0
C2362 C 0.3813 0.65003 0.38758 0.0
C2363 C 0.37256 0.64342 0.37138 0.0
C2364 C 0.40571 0.63892 0.39397 0.0
C2365 C 0.42158 0.62065 0.38434 0.0
C2366 C 0.41162 0.61279 0.36856 0.0
C2367 C 0.38765 0.62426 0.36211 0.0
H2368 H 0.39012 0.10652 0.14415 0.0
H2369 H 0.40527 0.14992 0.098 0.0
H2370 H 0.36867 0.14788 0.15572 0.0
H2371 H 0.3845 0.19072 0.10956 0.0
H2372 H 0.32088 0.25001 0.12645 0.0
H2373 H 0.33919 0.20644 0.11723 0.0
H2374 H 0.37985 0.19592 0.16466 0.0
H2375 H 0.36084 0.23974 0.17421 0.0
C2376 C 0.38887 0.12475 0.13647 0.0
C2377 C 0.39924 0.12468 0.12007 0.0
C2378 C 0.37674 0.14848 0.14314 0.0
C2379 C 0.37461 0.17254 0.13351 0.0
C2380 C 0.38525 0.17243 0.11722 0.0
C2381 C 0.39733 0.14892 0.1106 0.0
C2382 C 0.33349 0.23845 0.13506 0.0
C2383 C 0.33947 0.24862 0.15108 0.0
C2384 C 0.34416 0.21343 0.12969 0.0
C2385 C 0.36131 0.19783 0.14011 0.0
C2386 C 0.36661 0.2074 0.15636 0.0
C2387 C 0.35581 0.23257 0.16179 0.0
H2388 H 0.51003 0.57165 0.87567 0.0
H2389 H 0.5202 0.61081 0.92369 0.0
H2390 H 0.55347 0.59024 0.86655 0.0
H2391 H 0.56399 0.63008 0.91422 0.0
H2392 H 0.65377 0.63973 0.89294 0.0
H2393 H 0.61247 0.61849 0.90479 0.0
H2394 H 0.56833 0.63638 0.85938 0.0
H2395 H 0.60894 0.65697 0.84756 0.0
C2396 C 0.52153 0.58415 0.88437 0.0
C2397 C 0.51135 0.58984 0.90043 0.0
C2398 C 0.54649 0.59496 0.87905 0.0
C2399 C 0.56205 0.61196 0.88956 0.0
C2400 C 0.55251 0.61697 0.90585 0.0
C2401 C 0.52736 0.60604 0.91123 0.0
C2402 C 0.63525 0.639 0.88549 0.0
C2403 C 0.6349 0.64984 0.8692 0.0
C2404 C 0.61157 0.627 0.89232 0.0
C2405 C 0.5872 0.62546 0.88295 0.0
C2406 C 0.58687 0.63668 0.86682 0.0
C2407 C 0.61029 0.64864 0.86005 0.0
H2408 H 0.16707 0.77892 0.67352 0.0
H2409 H 0.16497 0.7507 0.62246 0.0
H2410 H 0.14966 0.82369 0.66453 0.0
H2411 H 0.14659 0.79438 0.61365 0.0
H2412 H 0.13895 0.88067 0.59776 0.0
H2413 H 0.15962 0.83947 0.60913 0.0
H2414 H 0.11138 0.84883 0.65404 0.0
H2415 H 0.09164 0.89118 0.64274 0.0
C2416 C 0.16269 0.78218 0.66043 0.0
C2417 C 0.16771 0.76129 0.6487 0.0
C2418 C 0.1526 0.80781 0.65526 0.0
C2419 C 0.14705 0.81299 0.63829 0.0
C2420 C 0.15141 0.79169 0.62674 0.0
C2421 C 0.1618 0.76639 0.63183 0.0
C2422 C 0.13288 0.87403 0.61009 0.0
C2423 C 0.11341 0.88891 0.61924 0.0
C2424 C 0.1446 0.85024 0.61662 0.0
C2425 C 0.13671 0.84022 0.63238 0.0
C2426 C 0.11806 0.85584 0.64189 0.0
C2427 C 0.10667 0.88009 0.63542 0.0
H2428 H 0.98573 0.40997 0.42349 0.0
H2429 H 0.00733 0.41779 0.37145 0.0
H2430 H 0.94053 0.39267 0.41551 0.0
H2431 H 0.96319 0.39944 0.36353 0.0
H2432 H 0.8753 0.39238 0.35127 0.0
H2433 H 0.91737 0.41215 0.36208 0.0
H2434 H 0.9149 0.35582 0.40374 0.0
H2435 H 0.87169 0.33697 0.39314 0.0
C2436 C 0.981 0.40772 0.41037 0.0
C2437 C 1.00012 0.41559 0.39813 0.0
C2438 C 0.95507 0.3977 0.40578 0.0
C2439 C 0.94784 0.39504 0.38884 0.0
C2440 C 0.96747 0.40202 0.37669 0.0
C2441 C 0.99304 0.41236 0.38125 0.0
C2442 C 0.88359 0.38445 0.36283 0.0
C2443 C 0.87041 0.36299 0.37128 0.0
C2444 C 0.9079 0.3956 0.369 0.0
C2445 C 0.92012 0.38514 0.38359 0.0
C2446 C 0.90617 0.36447 0.39249 0.0
C2447 C 0.88141 0.35363 0.38644 0.0
H2448 H 0.3474 0.77433 0.33445 0.0
H2449 H 0.34506 0.74883 0.38601 0.0
H2450 H 0.36399 0.81959 0.34312 0.0
H2451 H 0.36274 0.79288 0.39457 0.0
H2452 H 0.3692 0.87972 0.40927 0.0
H2453 H 0.34952 0.83796 0.39801 0.0
H2454 H 0.40074 0.84575 0.35421 0.0
H2455 H 0.41933 0.8887 0.36531 0.0
C2456 C 0.35071 0.77828 0.3476 0.0
C2457 C 0.3446 0.75806 0.35954 0.0
C2458 C 0.3603 0.8042 0.35259 0.0
C2459 C 0.36433 0.81027 0.36962 0.0
C2460 C 0.35905 0.78955 0.3814 0.0
C2461 C 0.34909 0.76402 0.37647 0.0
C2462 C 0.37608 0.87263 0.39718 0.0
C2463 C 0.39602 0.88726 0.38827 0.0
C2464 C 0.36496 0.8485 0.39073 0.0
C2465 C 0.374 0.83785 0.37534 0.0
C2466 C 0.39316 0.85322 0.36606 0.0
C2467 C 0.40389 0.87782 0.37242 0.0
H2468 H 0.99009 0.61031 0.08616 0.0
H2469 H 1.00033 0.57048 0.13398 0.0
H2470 H 0.9463 0.62939 0.09569 0.0
H2471 H 0.95679 0.5889 0.14318 0.0
H2472 H 0.85688 0.63965 0.11626 0.0
H2473 H 0.89821 0.61814 0.10469 0.0
H2474 H 0.94122 0.6344 0.15073 0.0
H2475 H 0.90045 0.65525 0.16229 0.0
C2476 C 0.98292 0.60532 0.09859 0.0
C2477 C 0.99896 0.589 0.10932 0.0
C2478 C 0.95777 0.61616 0.10401 0.0
C2479 C 0.9482 0.61093 0.12027 0.0
C2480 C 0.96378 0.5938 0.1307 0.0
C2481 C 0.98879 0.58308 0.12535 0.0
C2482 C 0.87514 0.63849 0.12391 0.0
C2483 C 0.87513 0.649 0.14028 0.0
C2484 C 0.89885 0.62633 0.11725 0.0
C2485 C 0.92294 0.6243 0.12685 0.0
C2486 C 0.9229 0.63508 0.1431 0.0
C2487 C 0.89941 0.64721 0.14971 0.0
H2488 H 0.1506 0.23938 0.83448 0.0
H2489 H 0.19073 0.2501 0.88215 0.0
H2490 H 0.13142 0.19577 0.8443 0.0
H2491 H 0.17219 0.2068 0.89163 0.0
H2492 H 0.12116 0.10657 0.86593 0.0
H2493 H 0.14269 0.1475 0.85383 0.0
H2494 H 0.12623 0.19217 0.89925 0.0
H2495 H 0.10533 0.15187 0.91132 0.0
C2496 C 0.15564 0.23235 0.84693 0.0
C2497 C 0.17205 0.24848 0.85754 0.0
C2498 C 0.14474 0.20731 0.85251 0.0
C2499 C 0.15 0.19799 0.86882 0.0
C2500 C 0.16727 0.21362 0.87912 0.0
C2501 C 0.17805 0.23849 0.87361 0.0
C2502 C 0.12227 0.12512 0.87333 0.0
C2503 C 0.11172 0.12571 0.88969 0.0
C2504 C 0.13444 0.14859 0.86636 0.0
C2505 C 0.13645 0.17301 0.87565 0.0
C2506 C 0.12557 0.17358 0.89186 0.0
C2507 C 0.11342 0.15035 0.89877 0.0
H2508 H 0.50976 0.43976 0.63417 0.0
H2509 H 0.52005 0.40148 0.58589 0.0
H2510 H 0.5533 0.4211 0.64316 0.0
H2511 H 0.56391 0.38218 0.59521 0.0
H2512 H 0.65349 0.37166 0.61644 0.0
H2513 H 0.61234 0.3935 0.60477 0.0
H2514 H 0.56798 0.37464 0.64995 0.0
H2515 H 0.60845 0.3534 0.66159 0.0
C2516 C 0.52132 0.42748 0.62538 0.0
C2517 C 0.51114 0.42201 0.6093 0.0
C2518 C 0.54633 0.41663 0.63062 0.0
C2519 C 0.56191 0.39983 0.61999 0.0
C2520 C 0.5524 0.39513 0.60367 0.0
C2521 C 0.52722 0.4061 0.59837 0.0
C2522 C 0.63495 0.37229 0.62388 0.0
C2523 C 0.6345 0.36098 0.64004 0.0
C2524 C 0.61137 0.38465 0.61715 0.0
C2525 C 0.58699 0.38609 0.62651 0.0
C2526 C 0.58655 0.37443 0.64253 0.0
C2527 C 0.60987 0.36209 0.64918 0.0
H2528 H 0.24565 0.25998 0.20674 0.0
H2529 H 0.31236 0.30261 0.2309 0.0
H2530 H 0.22953 0.24394 0.23388 0.0
H2531 H 0.297 0.28583 0.25782 0.0
H2532 H 0.24758 0.27304 0.3055 0.0
H2533 H 0.26296 0.29008 0.27848 0.0
H2534 H 0.24011 0.21303 0.25571 0.0
H2535 H 0.22385 0.19648 0.28257 0.0
C2536 C 0.25693 0.26586 0.21782 0.0
C2537 C 0.28027 0.28263 0.2166 0.0
C2538 C 0.24782 0.25649 0.23341 0.0
C2539 C 0.26198 0.26346 0.24815 0.0
C2540 C 0.28525 0.28035 0.24686 0.0
C2541 C 0.29418 0.28988 0.23134 0.0
C2542 C 0.24602 0.25969 0.29474 0.0
C2543 C 0.23445 0.23342 0.29623 0.0
C2544 C 0.25491 0.26942 0.27921 0.0
C2545 C 0.25271 0.25303 0.26478 0.0
C2546 C 0.24164 0.22652 0.2664 0.0
C2547 C 0.23253 0.2169 0.28188 0.0
H2548 H 0.0424 0.94656 0.5289 0.0
H2549 H 0.00961 0.01828 0.55344 0.0
H2550 H 0.02452 0.96261 0.50242 0.0
H2551 H 0.99257 0.03512 0.52665 0.0
H2552 H 0.94359 0.04602 0.47859 0.0
H2553 H 0.95967 0.02889 0.50542 0.0
H2554 H 0.03134 0.99482 0.48134 0.0
H2555 H 0.01459 0.01092 0.45448 0.0
C2556 C 0.03158 0.96596 0.52862 0.0
C2557 C 0.02753 0.98117 0.54333 0.0
C2558 C 0.02142 0.9753 0.51334 0.0
C2559 C 0.00719 1.00034 0.51221 0.0
C2560 C 1.00307 0.01556 0.52697 0.0
C2561 C 0.01298 0.00601 0.54236 0.0
C2562 C 0.96269 0.03469 0.47902 0.0
C2563 C 0.97774 0.02976 0.46434 0.0
C2564 C 0.97208 0.02506 0.49447 0.0
C2565 C 0.99691 0.01045 0.4957 0.0
C2566 C 0.01188 0.00551 0.48096 0.0
C2567 C 1.00234 0.01487 0.46549 0.0
H2568 H 0.22239 0.69777 0.72679 0.0
H2569 H 0.2465 0.77422 0.70386 0.0
H2570 H 0.23891 0.71415 0.75362 0.0
H2571 H 0.26215 0.79109 0.73087 0.0
H2572 H 0.31204 0.80305 0.77834 0.0
H2573 H 0.29634 0.78651 0.75143 0.0
H2574 H 0.2287 0.74508 0.7755 0.0
H2575 H 0.24515 0.76088 0.80262 0.0
C2576 C 0.2312 0.71814 0.72747 0.0
C2577 C 0.23316 0.73466 0.71313 0.0
C2578 C 0.24046 0.72766 0.74294 0.0
C2579 C 0.25173 0.75409 0.74456 0.0
C2580 C 0.25395 0.7705 0.73014 0.0
C2581 C 0.2449 0.76086 0.71461 0.0
C2582 C 0.29375 0.79047 0.77793 0.0
C2583 C 0.27989 0.78327 0.7927 0.0
C2584 C 0.28462 0.78108 0.76242 0.0
C2585 C 0.2612 0.76439 0.76117 0.0
C2586 C 0.2471 0.75748 0.77594 0.0
C2587 C 0.2564 0.7667 0.79152 0.0
H2588 H 0.44612 0.03872 0.03155 0.0
H2589 H 0.52224 0.01409 0.05469 0.0
H2590 H 0.46299 0.02292 0.00465 0.0
H2591 H 0.53962 0.99925 0.02766 0.0
H2592 H 0.55273 0.95049 0.98 0.0
H2593 H 0.53563 0.96564 0.00687 0.0
H2594 H 0.49405 0.03338 0.98294 0.0
H2595 H 0.51039 0.01742 0.95582 0.0
C2596 C 0.46651 0.02995 0.03089 0.0
C2597 C 0.4828 0.0276 0.04531 0.0
C2598 C 0.47632 0.02112 0.01539 0.0
C2599 C 0.5028 0.00992 0.01383 0.0
C2600 C 0.51898 0.00737 0.02833 0.0
C2601 C 0.50905 0.01596 0.04388 0.0
C2602 C 0.54002 0.9687 0.98042 0.0
C2603 C 0.53293 0.98272 0.96569 0.0
C2604 C 0.53029 0.97751 0.99592 0.0
C2605 C 0.5134 1.0008 0.99721 0.0
C2606 C 0.5066 0.01507 0.98247 0.0
C2607 C 0.51614 0.00606 0.9669 0.0
H2608 H 0.31464 0.71201 0.28068 0.0
H2609 H 0.24646 0.75159 0.30526 0.0
H2610 H 0.29896 0.72932 0.25398 0.0
H2611 H 0.22998 0.76816 0.27828 0.0
H2612 H 0.22179 0.81558 0.22956 0.0
H2613 H 0.23863 0.79951 0.25643 0.0
H2614 H 0.26531 0.72389 0.2334 0.0
H2615 H 0.24943 0.74051 0.20642 0.0
C2616 C 0.29608 0.72422 0.28038 0.0
C2617 C 0.28178 0.73035 0.29516 0.0
C2618 C 0.28696 0.73405 0.26497 0.0
C2619 C 0.26306 0.75009 0.26382 0.0
C2620 C 0.24869 0.75622 0.27864 0.0
C2621 C 0.25803 0.74658 0.29413 0.0
C2622 C 0.23144 0.79558 0.23021 0.0
C2623 C 0.23433 0.77936 0.2158 0.0
C2624 C 0.24089 0.78623 0.24569 0.0
C2625 C 0.25327 0.76028 0.24723 0.0
C2626 C 0.25631 0.74416 0.23274 0.0
C2627 C 0.24711 0.75364 0.21722 0.0
H2628 H 0.52144 0.99193 0.45495 0.0
H2629 H 0.44518 0.96824 0.47824 0.0
H2630 H 0.53882 0.00734 0.48188 0.0
H2631 H 0.46202 0.9846 0.505 0.0
H2632 H 0.50876 0.99194 0.55391 0.0
H2633 H 0.4928 0.97494 0.52694 0.0
H2634 H 0.5348 0.04163 0.50226 0.0
H2635 H 0.55153 0.0578 0.52899 0.0
C2636 C 0.50825 0.99034 0.46578 0.0
C2637 C 0.48194 0.97883 0.46441 0.0
C2638 C 0.51817 0.99926 0.48126 0.0
C2639 C 0.50191 0.9972 0.49576 0.0
C2640 C 0.47542 0.98604 0.49427 0.0
C2641 C 0.46563 0.97687 0.47884 0.0
C2642 C 0.51469 1.00284 0.5427 0.0
C2643 C 0.53147 0.0262 0.54367 0.0
C2644 C 0.50537 0.99323 0.52721 0.0
C2645 C 0.51239 0.0069 0.5123 0.0
C2646 C 0.5293 0.0302 0.51334 0.0
C2647 C 0.5388 0.03961 0.52877 0.0
H2648 H 0.26617 0.2601 0.80211 0.0
H2649 H 0.1998 0.30264 0.7775 0.0
H2650 H 0.28274 0.24396 0.77511 0.0
H2651 H 0.21565 0.28578 0.75068 0.0
H2652 H 0.26547 0.27186 0.70321 0.0
H2653 H 0.25003 0.28955 0.73009 0.0
H2654 H 0.27221 0.21277 0.75345 0.0
H2655 H 0.28849 0.19557 0.72677 0.0
C2656 C 0.25506 0.26595 0.79096 0.0
C2657 C 0.23166 0.28267 0.79202 0.0
C2658 C 0.26444 0.25653 0.77544 0.0
C2659 C 0.25051 0.26341 0.7606 0.0
C2660 C 0.22722 0.28034 0.76172 0.0
C2661 C 0.218 0.28992 0.77719 0.0
C2662 C 0.26691 0.25873 0.71408 0.0
C2663 C 0.27827 0.23232 0.71281 0.0
C2664 C 0.25798 0.26884 0.72953 0.0
C2665 C 0.25995 0.25269 0.74408 0.0
C2666 C 0.27087 0.22608 0.74267 0.0
C2667 C 0.28 0.21609 0.72729 0.0
H2668 H 0.99163 0.01452 0.9562 0.0
H2669 H 0.06578 0.0433 0.97988 0.0
H2670 H 0.97437 0.99917 0.98313 0.0
H2671 H 0.0491 0.02695 0.00672 0.0
H2672 H 1.00076 0.01894 0.0552 0.0
H2673 H 0.01722 0.03555 0.02824 0.0
H2674 H 0.97946 0.96598 1.00395 0.0
H2675 H 0.9622 0.9502 0.03063 0.0
C2676 C 1.00443 0.01722 0.96712 0.0
C2677 C 0.03009 0.03014 0.96585 0.0
C2678 C 0.99457 0.00832 0.98262 0.0
C2679 C 0.01026 0.01179 0.99724 0.0
C2680 C 0.03614 0.02436 0.99587 0.0
C2681 C 0.04585 0.03353 0.98041 0.0
C2682 C 0.99589 0.00731 0.04407 0.0
C2683 C 0.98006 0.98331 0.04511 0.0
C2684 C 0.0055 0.01671 0.02859 0.0
C2685 C 0.99975 1.00215 0.01379 0.0
C2686 C 0.98393 0.97812 0.01493 0.0
C2687 C 0.97411 0.96893 0.03033 0.0
H2688 H 0.81017 0.79983 0.7284 0.0
H2689 H 0.74179 0.7604 0.70398 0.0
H2690 H 0.79463 0.78257 0.75514 0.0
H2691 H 0.72541 0.74394 0.73099 0.0
H2692 H 0.71828 0.69554 0.7794 0.0
H2693 H 0.73446 0.71225 0.75254 0.0
H2694 H 0.76144 0.78741 0.77597 0.0
H2695 H 0.74627 0.77012 0.80294 0.0
C2696 C 0.79156 0.78773 0.72875 0.0
C2697 C 0.77722 0.78153 0.71399 0.0
C2698 C 0.78252 0.77791 0.74417 0.0
C2699 C 0.75866 0.76184 0.74537 0.0
C2700 C 0.74413 0.75585 0.73059 0.0
C2701 C 0.75338 0.76546 0.71509 0.0
C2702 C 0.72785 0.71557 0.77884 0.0
C2703 C 0.73106 0.73146 0.79336 0.0
C2704 C 0.73691 0.7253 0.76336 0.0
C2705 C 0.74919 0.75131 0.76194 0.0
C2706 C 0.75251 0.76711 0.77653 0.0
C2707 C 0.74371 0.75724 0.79204 0.0
H2708 H 0.70333 0.20639 0.22998 0.0
H2709 H 0.76849 0.25058 0.2053 0.0
H2710 H 0.71911 0.22316 0.25679 0.0
H2711 H 0.78507 0.26664 0.23234 0.0
H2712 H 0.78996 0.31446 0.28105 0.0
H2713 H 0.77425 0.29724 0.25424 0.0
H2714 H 0.75356 0.21976 0.27723 0.0
H2715 H 0.76836 0.23746 0.30422 0.0
C2716 C 0.72128 0.21945 0.23027 0.0
C2717 C 0.7346 0.22718 0.21542 0.0
C2718 C 0.73047 0.22897 0.24574 0.0
C2719 C 0.75342 0.24633 0.24686 0.0
C2720 C 0.76703 0.25371 0.232 0.0
C2721 C 0.75767 0.24434 0.21647 0.0
C2722 C 0.78194 0.29377 0.28042 0.0
C2723 C 0.78038 0.27736 0.29482 0.0
C2724 C 0.77314 0.28378 0.26496 0.0
C2725 C 0.76275 0.25698 0.26342 0.0
C2726 C 0.76106 0.24062 0.27789 0.0
C2727 C 0.76963 0.25074 0.29341 0.0
H2728 H 0.80995 0.21015 0.78052 0.0
H2729 H 0.74151 0.24957 0.80494 0.0
H2730 H 0.79428 0.22723 0.75377 0.0
H2731 H 0.72502 0.26585 0.77791 0.0
H2732 H 0.71779 0.31415 0.72946 0.0
H2733 H 0.73403 0.29751 0.75633 0.0
H2734 H 0.76102 0.22228 0.73295 0.0
H2735 H 0.74578 0.2395 0.70597 0.0
C2736 C 0.79131 0.22221 0.78017 0.0
C2737 C 0.77699 0.22847 0.79493 0.0
C2738 C 0.78219 0.23192 0.76473 0.0
C2739 C 0.75828 0.24795 0.76353 0.0
C2740 C 0.74376 0.25397 0.77831 0.0
C2741 C 0.75309 0.24447 0.79383 0.0
C2742 C 0.72737 0.29412 0.73004 0.0
C2743 C 0.73056 0.2782 0.71553 0.0
C2744 C 0.73646 0.28443 0.74552 0.0
C2745 C 0.74876 0.25842 0.74696 0.0
C2746 C 0.75206 0.24258 0.73238 0.0
C2747 C 0.74323 0.25241 0.71686 0.0
H2748 H 0.70074 0.80151 0.28069 0.0
H2749 H 0.768 0.75966 0.30483 0.0
H2750 H 0.71598 0.78456 0.25381 0.0
H2751 H 0.78406 0.74346 0.27769 0.0
H2752 H 0.78971 0.69572 0.22897 0.0
H2753 H 0.77391 0.7124 0.25593 0.0
H2754 H 0.7495 0.78889 0.23302 0.0
H2755 H 0.76435 0.77169 0.20595 0.0
C2756 C 0.71904 0.78894 0.28026 0.0
C2757 C 0.73313 0.78195 0.29499 0.0
C2758 C 0.72791 0.7793 0.26475 0.0
C2759 C 0.75133 0.7626 0.26344 0.0
C2760 C 0.76566 0.75588 0.27817 0.0
C2761 C 0.75659 0.76534 0.29376 0.0
C2762 C 0.78078 0.71604 0.22966 0.0
C2763 C 0.77823 0.73233 0.21526 0.0
C2764 C 0.77195 0.72574 0.24519 0.0
C2765 C 0.76053 0.75212 0.2468 0.0
C2766 C 0.75779 0.76832 0.23232 0.0
C2767 C 0.76639 0.75849 0.21675 0.0
H2768 H 0.55104 0.45028 0.02982 0.0
H2769 H 0.51119 0.51836 0.05435 0.0
H2770 H 0.53366 0.46585 1.00311 0.0
H2771 H 0.49461 0.53477 0.02737 0.0
H2772 H 0.44606 0.54183 0.97901 0.0
H2773 H 0.46295 0.52564 0.00585 0.0
H2774 H 0.53819 0.49911 0.9823 0.0
H2775 H 0.52073 0.51428 0.95536 0.0
C2776 C 0.53882 0.46883 0.0295 0.0
C2777 C 0.53253 0.48307 0.04428 0.0
C2778 C 0.52894 0.47789 0.01409 0.0
C2779 C 0.5127 0.50167 0.01294 0.0
C2780 C 0.50665 0.51611 0.02774 0.0
C2781 C 0.51632 0.50684 0.04323 0.0
C2782 C 0.46615 0.53235 0.97955 0.0
C2783 C 0.48201 0.52927 0.965 0.0
C2784 C 0.47598 0.52329 0.995 0.0
C2785 C 0.50207 0.51114 0.99639 0.0
C2786 C 0.51784 0.50794 0.98177 0.0
C2787 C 0.50787 0.51673 0.96628 0.0
H2788 H 0.04479 0.5005 0.46403 0.0
H2789 H 0.99501 0.42994 0.47614 0.0
H2790 H 0.03085 0.52221 0.49034 0.0
H2791 H 0.98164 0.45138 0.50234 0.0
H2792 H 0.99198 0.48557 0.55596 0.0
H2793 H 0.00703 0.46533 0.52951 0.0
H2794 H 0.98497 0.53978 0.50367 0.0
H2795 H 0.96955 0.55991 0.52998 0.0
C2796 C 0.03082 0.4897 0.47223 0.0
C2797 C 0.02093 0.46355 0.46793 0.0
C2798 C 0.02286 0.50211 0.48727 0.0
C2799 C 0.00533 0.48836 0.49843 0.0
C2800 C 0.99541 0.46232 0.49408 0.0
C2801 C 1.00292 0.45016 0.47897 0.0
C2802 C 0.99041 0.49763 0.54464 0.0
C2803 C 0.97944 0.52427 0.54506 0.0
C2804 C 0.99893 0.48602 0.52952 0.0
C2805 C 0.99716 0.50101 0.51455 0.0
C2806 C 0.98674 0.52784 0.51502 0.0
C2807 C 0.97774 0.53925 0.53008 0.0
H2808 H 0.01187 0.49362 0.05413 0.0
H2809 H 0.05052 0.56244 0.02969 0.0
H2810 H 0.9955 0.4771 0.02716 0.0
H2811 H 0.03334 0.5467 1.00295 0.0
H2812 H 0.02092 0.49782 0.95518 0.0
H2813 H 0.03827 0.51341 0.98206 0.0
H2814 H 0.9635 0.48606 0.00578 0.0
H2815 H 0.94673 0.4695 0.97902 0.0
C2816 C 0.01678 0.50528 0.04302 0.0
C2817 C 0.03257 0.52931 0.04411 0.0
C2818 C 0.00722 0.49594 0.02753 0.0
C2819 C 0.01297 0.51055 0.01276 0.0
C2820 C 0.02884 0.53456 0.01392 0.0
C2821 C 0.03861 0.54371 0.02935 0.0
C2822 C 0.00814 0.49527 0.96612 0.0
C2823 C 0.98245 0.48238 0.96492 0.0
C2824 C 0.01804 0.50431 0.98158 0.0
C2825 C 1.00239 0.50097 0.99623 0.0
C2826 C 0.97645 0.48851 0.99491 0.0
C2827 C 0.96669 0.47922 0.9795 0.0
H2828 H 0.48809 0.51447 0.45557 0.0
H2829 H 0.56457 0.53798 0.47867 0.0
H2830 H 0.47064 0.49967 0.48259 0.0
H2831 H 0.54761 0.52223 0.50556 0.0
H2832 H 0.5003 0.51691 0.55444 0.0
H2833 H 0.5167 0.53291 0.52734 0.0
H2834 H 0.47438 0.46583 0.50327 0.0
H2835 H 0.45723 0.45065 0.53011 0.0
C2836 C 0.50134 0.5161 0.46637 0.0
C2837 C 0.52772 0.52742 0.46492 0.0
C2838 C 0.49136 0.50754 0.48191 0.0
C2839 C 0.50762 0.50979 0.49639 0.0
C2840 C 0.53422 0.52067 0.49482 0.0
C2841 C 0.54408 0.52946 0.47933 0.0
C2842 C 0.49439 0.50571 0.54333 0.0
C2843 C 0.47739 0.48254 0.54449 0.0
C2844 C 0.50397 0.51474 0.52777 0.0
C2845 C 0.49698 0.50067 0.513 0.0
C2846 C 0.47987 0.47755 0.51424 0.0
C2847 C 0.47011 0.46872 0.52973 0.0
H2848 H 0.26708 0.12421 0.39294 0.0
H2849 H 0.25246 0.08411 0.34572 0.0
H2850 H 0.29962 0.08816 0.40057 0.0
H2851 H 0.28559 0.04831 0.35328 0.0
H2852 H 0.37463 0.01598 0.36683 0.0
H2853 H 0.33908 0.049 0.35913 0.0
H2854 H 0.29803 0.03449 0.40599 0.0
H2855 H 0.33334 1.00086 0.41361 0.0
C2856 C 0.27084 0.10772 0.38418 0.0
C2857 C 0.25723 0.10704 0.3687 0.0
C2858 C 0.28934 0.087 0.38861 0.0
C2859 C 0.29508 0.06544 0.37753 0.0
C2860 C 0.28156 0.06475 0.36203 0.0
C2861 C 0.26258 0.08517 0.35774 0.0
C2862 C 0.35794 0.01969 0.37547 0.0
C2863 C 0.3568 0.00583 0.39085 0.0
C2864 C 0.33753 0.03849 0.371 0.0
C2865 C 0.31582 0.04429 0.38196 0.0
C2866 C 0.3146 0.03043 0.39733 0.0
C2867 C 0.33473 0.01114 0.40166 0.0
H2868 H 0.17626 1.00119 0.59336 0.0
H2869 H 0.1351 0.01622 0.64019 0.0
H2870 H 0.21218 0.03399 0.60127 0.0
H2871 H 0.17121 0.04838 0.64817 0.0
H2872 H 0.25775 0.08237 0.66208 0.0
H2873 H 0.22467 0.04678 0.65411 0.0
H2874 H 0.21128 0.08761 0.60705 0.0
H2875 H 0.24374 0.12343 0.6151 0.0
C2876 C 0.17502 0.01127 0.60538 0.0
C2877 C 0.1528 0.0062 0.61612 0.0
C2878 C 0.1955 0.03007 0.60988 0.0
C2879 C 0.19448 0.04365 0.62536 0.0
C2880 C 0.17262 0.03806 0.63623 0.0
C2881 C 0.15188 0.01977 0.6316 0.0
C2882 C 0.24784 0.08365 0.65001 0.0
C2883 C 0.25327 0.10576 0.63925 0.0
C2884 C 0.22888 0.06335 0.64548 0.0
C2885 C 0.21549 0.06442 0.62994 0.0
C2886 C 0.22145 0.08615 0.61903 0.0
C2887 C 0.23991 0.10673 0.6237 0.0
H2888 H 0.22553 0.87623 0.87729 0.0
H2889 H 0.28016 0.93975 0.85976 0.0
H2890 H 0.19209 0.91077 0.88525 0.0
H2891 H 0.24623 0.97453 0.86759 0.0
H2892 H 0.18909 0.02894 0.90051 0.0
H2893 H 0.22405 0.99531 0.89253 0.0
H2894 H 0.16098 0.94302 0.87211 0.0
H2895 H 0.12623 0.97617 0.88021 0.0
C2896 C 0.23041 0.89758 0.87505 0.0
C2897 C 0.25561 0.90514 0.86783 0.0
C2898 C 0.2111 0.91743 0.87956 0.0
C2899 C 0.21638 0.94547 0.87702 0.0
C2900 C 0.24161 0.95313 0.86986 0.0
C2901 C 0.26097 0.93318 0.86525 0.0
C2902 C 0.1827 0.01022 0.89437 0.0
C2903 C 0.15479 0.00528 0.89107 0.0
C2904 C 0.20277 0.99104 0.88968 0.0
C2905 C 0.19535 0.9664 0.88171 0.0
C2906 C 0.16744 0.96156 0.87843 0.0
C2907 C 0.14748 0.9807 0.88302 0.0
H2908 H 0.26651 0.88628 0.11798 0.0
H2909 H 0.25208 0.92759 0.16484 0.0
H2910 H 0.29897 0.92209 0.10995 0.0
H2911 H 0.28517 0.96319 0.15687 0.0
H2912 H 0.37449 0.99445 0.143 0.0
H2913 H 0.33865 0.96201 0.15103 0.0
H2914 H 0.29783 0.97553 0.10398 0.0
H2915 H 0.33347 0.00858 0.09602 0.0
C2916 C 0.27027 0.90302 0.12657 0.0
C2917 C 0.25676 0.90407 0.14208 0.0
C2918 C 0.28873 0.92359 0.12191 0.0
C2919 C 0.29456 0.94541 0.13277 0.0
C2920 C 0.28107 0.94654 0.14827 0.0
C2921 C 0.26211 0.92624 0.1528 0.0
C2922 C 0.35781 0.99063 0.13438 0.0
C2923 C 0.35685 1.00405 0.11885 0.0
C2924 C 0.33721 0.97219 0.13904 0.0
C2925 C 0.31546 0.96628 0.12814 0.0
C2926 C 0.31442 0.97968 0.11261 0.0
C2927 C 0.33475 0.99863 0.10808 0.0
H2928 H 0.74488 0.88636 0.61589 0.0
H2929 H 0.75849 0.92712 0.66301 0.0
H2930 H 0.71205 0.92195 0.60796 0.0
H2931 H 0.72501 0.96248 0.65515 0.0
H2932 H 0.63543 0.99313 0.6411 0.0
H2933 H 0.67139 0.9607 0.64904 0.0
H2934 H 0.71286 0.97566 0.60238 0.0
H2935 H 0.67714 0.00872 0.59452 0.0
C2936 C 0.74087 0.90294 0.62456 0.0
C2937 C 0.75426 0.9039 0.6401 0.0
C2938 C 0.72219 0.92338 0.61996 0.0
C2939 C 0.716 0.94496 0.63093 0.0
C2940 C 0.72938 0.94601 0.64647 0.0
C2941 C 0.74858 0.92586 0.65094 0.0
C2942 C 0.65226 0.98961 0.63254 0.0
C2943 C 0.6534 1.00346 0.61715 0.0
C2944 C 0.67293 0.97117 0.63715 0.0
C2945 C 0.69492 0.96571 0.62634 0.0
C2946 C 0.69609 0.97947 0.61093 0.0
C2947 C 0.6757 0.99842 0.60646 0.0
H2948 H 0.83024 0.01158 0.41396 0.0
H2949 H 0.87182 0.99524 0.36743 0.0
H2950 H 0.79438 0.97856 0.40626 0.0
H2951 H 0.83576 0.9629 0.35964 0.0
H2952 H 0.74924 0.9284 0.34588 0.0
H2953 H 0.78202 0.96445 0.35361 0.0
H2954 H 0.79578 0.92459 0.40094 0.0
H2955 H 0.76367 0.88832 0.39312 0.0
C2956 C 0.83158 1.00116 0.40205 0.0
C2957 C 0.85392 0.00592 0.39134 0.0
C2958 C 0.81113 0.98225 0.39767 0.0
C2959 C 0.81228 0.96827 0.38233 0.0
C2960 C 0.83424 0.97355 0.37147 0.0
C2961 C 0.85496 0.99193 0.376 0.0
C2962 C 0.75916 0.92745 0.35796 0.0
C2963 C 0.75396 0.90547 0.36885 0.0
C2964 C 0.77795 0.948 0.36236 0.0
C2965 C 0.79136 0.94732 0.37789 0.0
C2966 C 0.78558 0.92574 0.38895 0.0
C2967 C 0.76733 0.90491 0.38441 0.0
H2968 H 0.7659 0.12311 0.11718 0.0
H2969 H 0.75075 0.08168 0.16391 0.0
H2970 H 0.79832 0.08716 0.10924 0.0
H2971 H 0.78381 0.04595 0.15604 0.0
H2972 H 0.87351 0.01489 0.14258 0.0
H2973 H 0.83745 0.0472 0.15045 0.0
H2974 H 0.79723 0.03359 0.10324 0.0
H2975 H 0.83309 1.00062 0.09543 0.0
C2976 C 0.76948 0.10631 0.12576 0.0
C2977 C 0.7558 0.10527 0.14121 0.0
C2978 C 0.78792 0.08565 0.12114 0.0
C2979 C 0.79356 0.06377 0.132 0.0
C2980 C 0.77987 0.06264 0.14744 0.0
C2981 C 0.76091 0.08301 0.15192 0.0
C2982 C 0.85691 0.01864 0.13389 0.0
C2983 C 0.85619 0.00523 0.11835 0.0
C2984 C 0.83618 0.03702 0.13847 0.0
C2985 C 0.81454 0.04288 0.12747 0.0
C2986 C 0.81373 0.02947 0.11193 0.0
C2987 C 0.83418 0.01057 0.1075 0.0
H2988 H 0.63739 0.01552 0.86748 0.0
H2989 H 0.67877 1.00018 0.9142 0.0
H2990 H 0.67337 0.04788 0.85957 0.0
H2991 H 0.71453 0.0332 0.90637 0.0
H2992 H 0.74565 0.12294 0.89287 0.0
H2993 H 0.71329 0.08694 0.90076 0.0
H2994 H 0.72701 0.04654 0.85361 0.0
H2995 H 0.76003 0.08232 0.84579 0.0
C2996 C 0.65418 0.01905 0.87607 0.0
C2997 C 0.65519 0.00532 0.8915 0.0
C2998 C 0.67486 0.03746 0.87147 0.0
C2999 C 0.69674 0.04303 0.88234 0.0
C3000 C 0.69784 0.02931 0.89777 0.0
C3001 C 0.67745 0.01038 0.90222 0.0
C3002 C 0.74191 0.10631 0.8842 0.0
C3003 C 0.75537 0.10551 0.86868 0.0
C3004 C 0.72351 0.08562 0.88878 0.0
C3005 C 0.71766 0.06395 0.87781 0.0
C3006 C 0.73112 0.06307 0.86229 0.0
C3007 C 0.75005 0.08347 0.85785 0.0
H3008 H 0.78544 0.63529 0.878 0.0
H3009 H 0.73179 0.57193 0.85919 0.0
H3010 H 0.81893 0.60072 0.8859 0.0
H3011 H 0.76573 0.53715 0.867 0.0
H3012 H 0.82236 0.48219 0.89992 0.0
H3013 H 0.7874 0.51592 0.89209 0.0
H3014 H 0.85056 0.56895 0.8725 0.0
H3015 H 0.88532 0.53565 0.88041 0.0
C3016 C 0.78078 0.61397 0.87548 0.0
C3017 C 0.75585 0.60645 0.86791 0.0
C3018 C 0.80012 0.59411 0.87996 0.0
C3019 C 0.79511 0.56612 0.87706 0.0
C3020 C 0.77014 0.55851 0.86955 0.0
C3021 C 0.75077 0.57846 0.86496 0.0
C3022 C 0.82877 0.50109 0.89399 0.0
C3023 C 0.8567 0.50618 0.89086 0.0
C3024 C 0.80871 0.52033 0.88939 0.0
C3025 C 0.81615 0.5452 0.88169 0.0
C3026 C 0.84408 0.55021 0.8786 0.0
C3027 C 0.86405 0.53099 0.88309 0.0
H3028 H 0.74508 0.62382 0.11743 0.0
H3029 H 0.75922 0.58284 0.16442 0.0
H3030 H 0.71285 0.58782 0.10935 0.0
H3031 H 0.72635 0.54706 0.15641 0.0
H3032 H 0.6372 0.51551 0.1423 0.0
H3033 H 0.67289 0.54807 0.15036 0.0
H3034 H 0.71426 0.53424 0.10353 0.0
H3035 H 0.67877 0.50103 0.09554 0.0
C3036 C 0.74131 0.60712 0.12604 0.0
C3037 C 0.75466 0.60621 0.1416 0.0
C3038 C 0.72298 0.58643 0.12135 0.0
C3039 C 0.71713 0.56464 0.13224 0.0
C3040 C 0.73046 0.56366 0.14779 0.0
C3041 C 0.7493 0.58407 0.15235 0.0
C3042 C 0.65397 0.51927 0.13373 0.0
C3043 C 0.65513 0.50573 0.11824 0.0
C3044 C 0.67448 0.5378 0.13842 0.0
C3045 C 0.69634 0.54366 0.12759 0.0
C3046 C 0.69758 0.53012 0.1121 0.0
C3047 C 0.67735 0.51108 0.10756 0.0
H3048 H 0.74334 0.38262 0.39396 0.0
H3049 H 0.75872 0.42453 0.34742 0.0
H3050 H 0.71065 0.41842 0.40189 0.0
H3051 H 0.72548 0.46002 0.35526 0.0
H3052 H 0.63625 0.49175 0.36824 0.0
H3053 H 0.67181 0.45869 0.36064 0.0
H3054 H 0.71181 0.47209 0.40795 0.0
H3055 H 0.67649 0.50578 0.41548 0.0
C3056 C 0.73977 0.3995 0.38543 0.0
C3057 C 0.75361 0.40074 0.37005 0.0
C3058 C 0.72117 0.42004 0.39003 0.0
C3059 C 0.71554 0.44197 0.37919 0.0
C3060 C 0.72939 0.44328 0.36382 0.0
C3061 C 0.74847 0.42304 0.35937 0.0
C3062 C 0.65266 0.48774 0.37702 0.0
C3063 C 0.65353 0.50137 0.39248 0.0
C3064 C 0.6731 0.46893 0.37261 0.0
C3065 C 0.69457 0.46286 0.38369 0.0
C3066 C 0.69543 0.47636 0.39919 0.0
C3067 C 0.67529 0.49567 0.40347 0.0
H3068 H 0.82105 0.52893 0.60958 0.0
H3069 H 0.88412 0.47462 0.62816 0.0
H3070 H 0.78607 0.49523 0.61744 0.0
H3071 H 0.8494 0.44144 0.63612 0.0
H3072 H 0.78434 0.37553 0.63073 0.0
H3073 H 0.81753 0.41019 0.62269 0.0
H3074 H 0.76483 0.47348 0.64253 0.0
H3075 H 0.73112 0.43857 0.65047 0.0
C3076 C 0.82748 0.50986 0.61531 0.0
C3077 C 0.85544 0.50451 0.61817 0.0
C3078 C 0.80742 0.49064 0.61992 0.0
C3079 C 0.81492 0.46558 0.62738 0.0
C3080 C 0.84288 0.46033 0.63021 0.0
C3081 C 0.86282 0.47949 0.62569 0.0
C3082 C 0.77972 0.3968 0.63344 0.0
C3083 C 0.75501 0.4042 0.64131 0.0
C3084 C 0.79888 0.41672 0.62887 0.0
C3085 C 0.79394 0.44465 0.63201 0.0
C3086 C 0.76917 0.45216 0.6398 0.0
C3087 C 0.74995 0.43214 0.64446 0.0
H3088 H 0.12678 0.47589 0.12896 0.0
H3089 H 0.18975 0.52993 0.11007 0.0
H3090 H 0.16152 0.44261 0.13681 0.0
H3091 H 0.22474 0.49613 0.11778 0.0
H3092 H 0.28032 0.43942 0.15027 0.0
H3093 H 0.24652 0.47438 0.14252 0.0
H3094 H 0.19305 0.4111 0.12353 0.0
H3095 H 0.22633 0.37638 0.13141 0.0
C3096 C 0.14805 0.48068 0.12639 0.0
C3097 C 0.15539 0.50566 0.11882 0.0
C3098 C 0.16802 0.46145 0.13084 0.0
C3099 C 0.19597 0.46659 0.12788 0.0
C3100 C 0.20342 0.49162 0.12038 0.0
C3101 C 0.18334 0.5109 0.11584 0.0
C3102 C 0.2613 0.43299 0.14449 0.0
C3103 C 0.25607 0.40503 0.14153 0.0
C3104 C 0.24202 0.45305 0.13994 0.0
C3105 C 0.21699 0.44558 0.13243 0.0
C3106 C 0.21188 0.41762 0.12949 0.0
C3107 C 0.2311 0.39766 0.13396 0.0
H3108 H 0.32173 0.52856 0.90007 0.0
H3109 H 0.38455 0.47587 0.87958 0.0
H3110 H 0.28676 0.49498 0.89205 0.0
H3111 H 0.34982 0.4428 0.87144 0.0
H3112 H 0.28547 0.37597 0.87645 0.0
H3113 H 0.31883 0.41047 0.88449 0.0
H3114 H 0.26446 0.47433 0.86713 0.0
H3115 H 0.23059 0.43957 0.85922 0.0
C3116 C 0.32811 0.50987 0.89387 0.0
C3117 C 0.35601 0.50494 0.89054 0.0
C3118 C 0.30804 0.49072 0.88916 0.0
C3119 C 0.31545 0.46613 0.88113 0.0
C3120 C 0.34335 0.4613 0.87781 0.0
C3121 C 0.36332 0.4804 0.88243 0.0
C3122 C 0.28051 0.39734 0.87428 0.0
C3123 C 0.25527 0.40492 0.86713 0.0
C3124 C 0.29979 0.41717 0.87884 0.0
C3125 C 0.29443 0.44523 0.87642 0.0
C3126 C 0.26915 0.45291 0.86931 0.0
C3127 C 0.24982 0.43298 0.86467 0.0
H3128 H 0.37243 0.51497 0.64249 0.0
H3129 H 0.33232 0.50213 0.59509 0.0
H3130 H 0.33733 0.54844 0.65018 0.0
H3131 H 0.29743 0.53623 0.60272 0.0
H3132 H 0.26732 0.62595 0.61652 0.0
H3133 H 0.29946 0.5896 0.60876 0.0
H3134 H 0.28397 0.54875 0.65556 0.0
H3135 H 0.25127 0.58485 0.66325 0.0
C3136 C 0.35609 0.51927 0.63371 0.0
C3137 C 0.35517 0.5059 0.61816 0.0
C3138 C 0.33593 0.53834 0.63817 0.0
C3139 C 0.31467 0.54494 0.62706 0.0
C3140 C 0.31366 0.53158 0.61151 0.0
C3141 C 0.33353 0.51201 0.60718 0.0
C3142 C 0.27069 0.60918 0.62516 0.0
C3143 C 0.25678 0.60832 0.64053 0.0
C3144 C 0.28895 0.58829 0.62064 0.0
C3145 C 0.29417 0.56634 0.63154 0.0
C3146 C 0.28036 0.56548 0.64694 0.0
C3147 C 0.26162 0.58609 0.65131 0.0
H3148 H 0.1723 0.50462 0.41286 0.0
H3149 H 0.13396 0.5171 0.36488 0.0
H3150 H 0.20808 0.53776 0.40538 0.0
H3151 H 0.17 0.54969 0.35733 0.0
H3152 H 0.25787 0.5834 0.34523 0.0
H3153 H 0.22372 0.54851 0.35265 0.0
H3154 H 0.20751 0.59083 0.39888 0.0
H3155 H 0.24107 0.62594 0.39138 0.0
C3156 C 0.17162 0.51427 0.40069 0.0
C3157 C 0.15025 0.5083 0.38949 0.0
C3158 C 0.19203 0.53327 0.39644 0.0
C3159 C 0.19183 0.54623 0.38076 0.0
C3160 C 0.17077 0.53986 0.36945 0.0
C3161 C 0.15007 0.52133 0.37383 0.0
C3162 C 0.24705 0.5852 0.35699 0.0
C3163 C 0.25212 0.60747 0.36769 0.0
C3164 C 0.22747 0.5653 0.3612 0.0
C3165 C 0.21303 0.56694 0.37636 0.0
C3166 C 0.21847 0.58893 0.38718 0.0
C3167 C 0.23757 0.60911 0.38282 0.0
loop_
_geom_bond_atom_site_label_1
_geom_bond_atom_site_label_2
_geom_bond_distance
_geom_bond_site_symmetry_2
_ccdc_geom_bond_type
Co0 O2 2.143 . S
Co0 O8 2.074 . S
Co0 O11 2.093 . S
Co0 O24 2.097 . S
Co0 N41 2.151 . S
Co0 N49 2.214 . S
Co1 O2 2.160 . S
Co1 O7 2.058 . S
Co1 O17 2.057 . S
Co1 O32 2.037 . S
Co1 N36 2.145 . S
Co1 N57 2.257 . S
O2 Co0 2.143 . S
O2 Co1 2.160 . S
C3 O4 1.278 . S
C3 O11 1.224 . S
O4 C3 1.278 . S
C5 O6 1.245 . S
C5 O17 1.232 . S
O6 C5 1.245 . S
O7 Co1 2.058 . S
O7 C33 1.269 . S
O8 Co0 2.074 . S
O8 C33 1.257 . S
H9 C34 0.930 . S
H10 C40 0.930 . S
O11 Co0 2.093 . S
O11 C3 1.224 . S
H12 C44 0.929 . S
H13 C46 0.930 . S
H14 C47 0.930 . S
H15 C45 0.929 . S
H16 C48 0.928 . S
O17 Co1 2.057 . S
O17 C5 1.232 . S
H18 C37 0.929 . S
H19 C38 0.929 . S
H20 C50 0.931 . S
H21 C42 0.929 . S
H22 C51 0.930 . S
H23 C43 0.931 . S
O24 Co0 2.097 . S
O24 C52 1.214 . S
H25 C53 0.929 . S
H26 C54 0.929 . S
H27 C55 0.930 . S
H28 C56 0.929 . S
H29 C58 0.930 . S
H30 C35 0.930 . S
H31 C39 0.930 . S
O32 Co1 2.037 . S
O32 C52 1.234 . S
C33 O7 1.269 . S
C33 O8 1.257 . S
C34 H9 0.930 . S
C34 C37 1.388 . S
C34 C39 1.418 . S
C35 H30 0.930 . S
C35 C38 1.404 . S
C35 C39 1.353 . S
N36 Co1 2.145 . S
N36 C37 1.397 . S
N36 C38 1.334 . S
C37 H18 0.929 . S
C37 C34 1.388 . S
C37 N36 1.397 . S
C38 H19 0.929 . S
C38 C35 1.404 . S
C38 N36 1.334 . S
C39 H31 0.930 . S
C39 C34 1.418 . S
C39 C35 1.353 . S
C40 H10 0.930 . S
C40 N41 1.330 . S
C40 C42 1.446 . S
N41 Co0 2.151 . S
N41 C40 1.330 . S
N41 C45 1.418 . S
C42 H21 0.929 . S
C42 C40 1.446 . S
C42 C43 1.332 . S
C43 H23 0.931 . S
C43 C42 1.332 . S
C43 C44 1.267 . S
C44 H12 0.929 . S
C44 C43 1.267 . S
C44 C45 1.251 . S
C45 H15 0.929 . S
C45 N41 1.418 . S
C45 C44 1.251 . S
C46 H13 0.930 . S
C46 C48 1.406 . S
C46 C51 1.261 . S
C47 H14 0.930 . S
C47 N49 1.325 . S
C47 C50 1.357 . S
C48 H16 0.928 . S
C48 C46 1.406 . S
C48 N49 1.261 . S
N49 Co0 2.214 . S
N49 C47 1.325 . S
N49 C48 1.261 . S
C50 H20 0.931 . S
C50 C47 1.357 . S
C50 C51 1.312 . S
C51 H22 0.930 . S
C51 C46 1.261 . S
C51 C50 1.312 . S
C52 O24 1.214 . S
C52 O32 1.234 . S
C53 H25 0.929 . S
C53 C56 1.391 . S
C53 C58 1.391 . S
C54 H26 0.929 . S
C54 C55 1.390 . S
C54 N57 1.391 . S
C55 H27 0.930 . S
C55 C54 1.390 . S
C55 C56 1.392 . S
C56 H28 0.929 . S
C56 C53 1.391 . S
C56 C55 1.392 . S
N57 Co1 2.257 . S
N57 C54 1.391 . S
N57 C58 1.388 . S
C58 H29 0.930 . S
C58 C53 1.391 . S
C58 N57 1.388 . S
Co59 O61 2.143 . S
Co59 O67 2.074 . S
Co59 O70 2.093 . S
Co59 O83 2.097 . S
Co59 N100 2.151 . S
Co59 N108 2.214 . S
Co60 O61 2.160 . S
Co60 O66 2.058 . S
Co60 O76 2.057 . S
Co60 O91 2.037 . S
Co60 N95 2.145 . S
Co60 N116 2.257 . S
O61 Co59 2.143 . S
O61 Co60 2.160 . S
C62 O63 1.278 . S
C62 O70 1.224 . S
O63 C62 1.278 . S
C64 O65 1.245 . S
C64 O76 1.232 . S
O65 C64 1.245 . S
O66 Co60 2.058 . S
O66 C92 1.269 . S
O67 Co59 2.074 . S
O67 C92 1.257 . S
H68 C93 0.930 . S
H69 C99 0.930 . S
O70 Co59 2.093 . S
O70 C62 1.224 . S
H71 C103 0.929 . S
H72 C105 0.930 . S
H73 C106 0.930 . S
H74 C104 0.929 . S
H75 C107 0.928 . S
O76 Co60 2.057 . S
O76 C64 1.232 . S
H77 C96 0.929 . S
H78 C97 0.929 . S
H79 C109 0.931 . S
H80 C101 0.929 . S
H81 C110 0.930 . S
H82 C102 0.931 . S
O83 Co59 2.097 . S
O83 C111 1.214 . S
H84 C112 0.929 . S
H85 C113 0.929 . S
H86 C114 0.930 . S
H87 C115 0.929 . S
H88 C117 0.930 . S
H89 C94 0.930 . S
H90 C98 0.930 . S
O91 Co60 2.037 . S
O91 C111 1.234 . S
C92 O66 1.269 . S
C92 O67 1.257 . S
C93 H68 0.930 . S
C93 C96 1.388 . S
C93 C98 1.418 . S
C94 H89 0.930 . S
C94 C97 1.404 . S
C94 C98 1.353 . S
N95 Co60 2.145 . S
N95 C96 1.397 . S
N95 C97 1.334 . S
C96 H77 0.929 . S
C96 C93 1.388 . S
C96 N95 1.397 . S
C97 H78 0.929 . S
C97 C94 1.404 . S
C97 N95 1.334 . S
C98 H90 0.930 . S
C98 C93 1.418 . S
C98 C94 1.353 . S
C99 H69 0.930 . S
C99 N100 1.330 . S
C99 C101 1.446 . S
N100 Co59 2.151 . S
N100 C99 1.330 . S
N100 C104 1.418 . S
C101 H80 0.929 . S
C101 C99 1.446 . S
C101 C102 1.332 . S
C102 H82 0.931 . S
C102 C101 1.332 . S
C102 C103 1.267 . S
C103 H71 0.929 . S
C103 C102 1.267 . S
C103 C104 1.251 . S
C104 H74 0.929 . S
C104 N100 1.418 . S
C104 C103 1.251 . S
C105 H72 0.930 . S
C105 C107 1.406 . S
C105 C110 1.261 . S
C106 H73 0.930 . S
C106 N108 1.325 . S
C106 C109 1.357 . S
C107 H75 0.928 . S
C107 C105 1.406 . S
C107 N108 1.261 . S
N108 Co59 2.214 . S
N108 C106 1.325 . S
N108 C107 1.261 . S
C109 H79 0.931 . S
C109 C106 1.357 . S
C109 C110 1.312 . S
C110 H81 0.930 . S
C110 C105 1.261 . S
C110 C109 1.312 . S
C111 O83 1.214 . S
C111 O91 1.234 . S
C112 H84 0.929 . S
C112 C115 1.391 1_455 S
C112 C117 1.391 . S
C113 H85 0.929 . S
C113 C114 1.390 1_465 S
C113 N116 1.391 . S
C114 H86 0.930 . S
C114 C113 1.390 1_645 S
C114 C115 1.392 . S
C115 H87 0.929 . S
C115 C112 1.391 1_655 S
C115 C114 1.392 . S
N116 Co60 2.257 . S
N116 C113 1.391 . S
N116 C117 1.388 1_565 S
C117 H88 0.930 . S
C117 C112 1.391 . S
C117 N116 1.388 1_545 S
Co118 O120 2.143 . S
Co118 O126 2.074 . S
Co118 O129 2.093 . S
Co118 O142 2.097 . S
Co118 N159 2.151 . S
Co118 N167 2.214 . S
Co119 O120 2.160 . S
Co119 O125 2.058 . S
Co119 O135 2.057 . S
Co119 O150 2.037 . S
Co119 N154 2.145 . S
Co119 N175 2.257 . S
O120 Co118 2.143 . S
O120 Co119 2.160 . S
C121 O122 1.278 . S
C121 O129 1.224 . S
O122 C121 1.278 . S
C123 O124 1.245 . S
C123 O135 1.232 . S
O124 C123 1.245 . S
O125 Co119 2.058 . S
O125 C151 1.269 . S
O126 Co118 2.074 . S
O126 C151 1.257 . S
H127 C152 0.930 . S
H128 C158 0.930 . S
O129 Co118 2.093 . S
O129 C121 1.224 . S
H130 C162 0.929 . S
H131 C164 0.930 . S
H132 C165 0.930 . S
H133 C163 0.929 . S
H134 C166 0.928 . S
O135 Co119 2.057 . S
O135 C123 1.232 . S
H136 C155 0.929 . S
H137 C156 0.929 . S
H138 C168 0.931 . S
H139 C160 0.929 . S
H140 C169 0.930 . S
H141 C161 0.931 . S
O142 Co118 2.097 . S
O142 C170 1.214 . S
H143 C171 0.929 . S
H144 C172 0.929 . S
H145 C173 0.930 . S
H146 C174 0.929 . S
H147 C176 0.930 . S
H148 C153 0.930 . S
H149 C157 0.930 . S
O150 Co119 2.037 . S
O150 C170 1.234 . S
C151 O125 1.269 . S
C151 O126 1.257 . S
C152 H127 0.930 . S
C152 C155 1.388 . S
C152 C157 1.418 . S
C153 H148 0.930 . S
C153 C156 1.404 . S
C153 C157 1.353 . S
N154 Co119 2.145 . S
N154 C155 1.397 . S
N154 C156 1.334 . S
C155 H136 0.929 . S
C155 C152 1.388 . S
C155 N154 1.397 . S
C156 H137 0.929 . S
C156 C153 1.404 . S
C156 N154 1.334 . S
C157 H149 0.930 . S
C157 C152 1.418 . S
C157 C153 1.353 . S
C158 H128 0.930 . S
C158 N159 1.330 . S
C158 C160 1.446 . S
N159 Co118 2.151 . S
N159 C158 1.330 . S
N159 C163 1.418 . S
C160 H139 0.929 . S
C160 C158 1.446 . S
C160 C161 1.332 . S
C161 H141 0.931 . S
C161 C160 1.332 . S
C161 C162 1.267 . S
C162 H130 0.929 . S
C162 C161 1.267 . S
C162 C163 1.251 . S
C163 H133 0.929 . S
C163 N159 1.418 . S
C163 C162 1.251 . S
C164 H131 0.930 . S
C164 C166 1.406 . S
C164 C169 1.261 . S
C165 H132 0.930 . S
C165 N167 1.325 . S
C165 C168 1.357 . S
C166 H134 0.928 . S
C166 C164 1.406 . S
C166 N167 1.261 . S
N167 Co118 2.214 . S
N167 C165 1.325 . S
N167 C166 1.261 . S
C168 H138 0.931 . S
C168 C165 1.357 . S
C168 C169 1.312 . S
C169 H140 0.930 . S
C169 C164 1.261 . S
C169 C168 1.312 . S
C170 O142 1.214 . S
C170 O150 1.234 . S
C171 H143 0.929 . S
C171 C174 1.391 . S
C171 C176 1.391 . S
C172 H144 0.929 . S
C172 C173 1.390 . S
C172 N175 1.391 . S
C173 H145 0.930 . S
C173 C172 1.390 . S
C173 C174 1.392 . S
C174 H146 0.929 . S
C174 C171 1.391 . S
C174 C173 1.392 . S
N175 Co119 2.257 . S
N175 C172 1.391 . S
N175 C176 1.388 . S
C176 H147 0.930 . S
C176 C171 1.391 . S
C176 N175 1.388 . S
Co177 O179 2.143 . S
Co177 O185 2.074 . S
Co177 O188 2.093 . S
Co177 O201 2.097 . S
Co177 N218 2.151 . S
Co177 N226 2.214 . S
Co178 O179 2.160 . S
Co178 O184 2.058 . S
Co178 O194 2.057 . S
Co178 O209 2.037 . S
Co178 N213 2.145 . S
Co178 N234 2.257 . S
O179 Co177 2.143 . S
O179 Co178 2.160 . S
C180 O181 1.278 . S
C180 O188 1.224 . S
O181 C180 1.278 . S
C182 O183 1.245 . S
C182 O194 1.232 . S
O183 C182 1.245 . S
O184 Co178 2.058 . S
O184 C210 1.269 . S
O185 Co177 2.074 . S
O185 C210 1.257 . S
H186 C211 0.930 . S
H187 C217 0.930 . S
O188 Co177 2.093 . S
O188 C180 1.224 . S
H189 C221 0.929 . S
H190 C223 0.930 . S
H191 C224 0.930 . S
H192 C222 0.929 . S
H193 C225 0.928 . S
O194 Co178 2.057 . S
O194 C182 1.232 . S
H195 C214 0.929 . S
H196 C215 0.929 . S
H197 C227 0.931 . S
H198 C219 0.929 . S
H199 C228 0.930 . S
H200 C220 0.931 . S
O201 Co177 2.097 . S
O201 C229 1.214 . S
H202 C230 0.929 . S
H203 C231 0.929 . S
H204 C232 0.930 . S
H205 C233 0.929 . S
H206 C235 0.930 . S
H207 C212 0.930 . S
H208 C216 0.930 . S
O209 Co178 2.037 . S
O209 C229 1.234 . S
C210 O184 1.269 . S
C210 O185 1.257 . S
C211 H186 0.930 . S
C211 C214 1.388 . S
C211 C216 1.418 . S
C212 H207 0.930 . S
C212 C215 1.404 . S
C212 C216 1.353 . S
N213 Co178 2.145 . S
N213 C214 1.397 . S
N213 C215 1.334 . S
C214 H195 0.929 . S
C214 C211 1.388 . S
C214 N213 1.397 . S
C215 H196 0.929 . S
C215 C212 1.404 . S
C215 N213 1.334 . S
C216 H208 0.930 . S
C216 C211 1.418 . S
C216 C212 1.353 . S
C217 H187 0.930 . S
C217 N218 1.330 . S
C217 C219 1.446 . S
N218 Co177 2.151 . S
N218 C217 1.330 . S
N218 C222 1.418 . S
C219 H198 0.929 . S
C219 C217 1.446 . S
C219 C220 1.332 . S
C220 H200 0.931 . S
C220 C219 1.332 . S
C220 C221 1.267 . S
C221 H189 0.929 . S
C221 C220 1.267 . S
C221 C222 1.251 . S
C222 H192 0.929 . S
C222 N218 1.418 . S
C222 C221 1.251 . S
C223 H190 0.930 . S
C223 C225 1.406 . S
C223 C228 1.261 . S
C224 H191 0.930 . S
C224 N226 1.325 . S
C224 C227 1.357 . S
C225 H193 0.928 . S
C225 C223 1.406 . S
C225 N226 1.261 . S
N226 Co177 2.214 . S
N226 C224 1.325 . S
N226 C225 1.261 . S
C227 H197 0.931 . S
C227 C224 1.357 . S
C227 C228 1.312 . S
C228 H199 0.930 . S
C228 C223 1.261 . S
C228 C227 1.312 . S
C229 O201 1.214 . S
C229 O209 1.234 . S
C230 H202 0.929 . S
C230 C233 1.391 . S
C230 C235 1.391 . S
C231 H203 0.929 . S
C231 C232 1.390 1_545 S
C231 N234 1.391 . S
C232 H204 0.930 . S
C232 C231 1.390 1_565 S
C232 C233 1.392 . S
C233 H205 0.929 . S
C233 C230 1.391 . S
C233 C232 1.392 . S
N234 Co178 2.257 . S
N234 C231 1.391 . S
N234 C235 1.388 1_545 S
C235 H206 0.930 . S
C235 C230 1.391 . S
C235 N234 1.388 1_565 S
Co236 O238 2.143 . S
Co236 O244 2.074 . S
Co236 O247 2.093 . S
Co236 O260 2.097 . S
Co236 N277 2.151 . S
Co236 N285 2.214 . S
Co237 O238 2.160 . S
Co237 O243 2.058 . S
Co237 O253 2.057 . S
Co237 O268 2.037 . S
Co237 N272 2.145 . S
Co237 N293 2.257 . S
O238 Co236 2.143 . S
O238 Co237 2.160 . S
C239 O240 1.278 . S
C239 O247 1.224 . S
O240 C239 1.278 . S
C241 O242 1.245 . S
C241 O253 1.232 . S
O242 C241 1.245 . S
O243 Co237 2.058 . S
O243 C269 1.269 . S
O244 Co236 2.074 . S
O244 C269 1.257 . S
H245 C270 0.930 . S
H246 C276 0.930 . S
O247 Co236 2.093 . S
O247 C239 1.224 . S
H248 C280 0.929 . S
H249 C282 0.930 . S
H250 C283 0.930 . S
H251 C281 0.929 . S
H252 C284 0.928 . S
O253 Co237 2.057 . S
O253 C241 1.232 . S
H254 C273 0.929 . S
H255 C274 0.929 . S
H256 C286 0.931 . S
H257 C278 0.929 . S
H258 C287 0.930 . S
H259 C279 0.931 . S
O260 Co236 2.097 . S
O260 C288 1.214 . S
H261 C289 0.929 . S
H262 C290 0.929 . S
H263 C291 0.930 . S
H264 C292 0.929 . S
H265 C294 0.930 . S
H266 C271 0.930 . S
H267 C275 0.930 . S
O268 Co237 2.037 . S
O268 C288 1.234 . S
C269 O243 1.269 . S
C269 O244 1.257 . S
C270 H245 0.930 . S
C270 C273 1.388 . S
C270 C275 1.418 . S
C271 H266 0.930 . S
C271 C274 1.404 . S
C271 C275 1.353 . S
N272 Co237 2.145 . S
N272 C273 1.397 . S
N272 C274 1.334 . S
C273 H254 0.929 . S
C273 C270 1.388 . S
C273 N272 1.397 . S
C274 H255 0.929 . S
C274 C271 1.404 . S
C274 N272 1.334 . S
C275 H267 0.930 . S
C275 C270 1.418 . S
C275 C271 1.353 . S
C276 H246 0.930 . S
C276 N277 1.330 . S
C276 C278 1.446 . S
N277 Co236 2.151 . S
N277 C276 1.330 . S
N277 C281 1.418 . S
C278 H257 0.929 . S
C278 C276 1.446 . S
C278 C279 1.332 . S
C279 H259 0.931 . S
C279 C278 1.332 . S
C279 C280 1.267 . S
C280 H248 0.929 . S
C280 C279 1.267 . S
C280 C281 1.251 . S
C281 H251 0.929 . S
C281 N277 1.418 . S
C281 C280 1.251 . S
C282 H249 0.930 . S
C282 C284 1.406 . S
C282 C287 1.261 . S
C283 H250 0.930 . S
C283 N285 1.325 . S
C283 C286 1.357 . S
C284 H252 0.928 . S
C284 C282 1.406 . S
C284 N285 1.261 . S
N285 Co236 2.214 . S
N285 C283 1.325 . S
N285 C284 1.261 . S
C286 H256 0.931 . S
C286 C283 1.357 . S
C286 C287 1.312 . S
C287 H258 0.930 . S
C287 C282 1.261 . S
C287 C286 1.312 . S
C288 O260 1.214 . S
C288 O268 1.234 . S
C289 H261 0.929 . S
C289 C292 1.391 . S
C289 C294 1.391 . S
C290 H262 0.929 . S
C290 C291 1.390 . S
C290 N293 1.391 . S
C291 H263 0.930 . S
C291 C290 1.390 . S
C291 C292 1.392 . S
C292 H264 0.929 . S
C292 C289 1.391 . S
C292 C291 1.392 . S
N293 Co237 2.257 . S
N293 C290 1.391 . S
N293 C294 1.388 . S
C294 H265 0.930 . S
C294 C289 1.391 . S
C294 N293 1.388 . S
Co295 O297 2.143 . S
Co295 O303 2.074 . S
Co295 O306 2.093 . S
Co295 O319 2.097 . S
Co295 N336 2.151 . S
Co295 N344 2.214 . S
Co296 O297 2.160 . S
Co296 O302 2.058 . S
Co296 O312 2.057 . S
Co296 O327 2.037 . S
Co296 N331 2.145 . S
Co296 N352 2.257 . S
O297 Co295 2.143 . S
O297 Co296 2.160 . S
C298 O299 1.278 . S
C298 O306 1.224 . S
O299 C298 1.278 . S
C300 O301 1.245 . S
C300 O312 1.232 . S
O301 C300 1.245 . S
O302 Co296 2.058 . S
O302 C328 1.269 . S
O303 Co295 2.074 . S
O303 C328 1.257 . S
H304 C329 0.930 . S
H305 C335 0.930 . S
O306 Co295 2.093 . S
O306 C298 1.224 . S
H307 C339 0.929 . S
H308 C341 0.930 . S
H309 C342 0.930 . S
H310 C340 0.929 . S
H311 C343 0.928 . S
O312 Co296 2.057 . S
O312 C300 1.232 . S
H313 C332 0.929 . S
H314 C333 0.929 . S
H315 C345 0.931 . S
H316 C337 0.929 . S
H317 C346 0.930 . S
H318 C338 0.931 . S
O319 Co295 2.097 . S
O319 C347 1.214 . S
H320 C348 0.929 . S
H321 C349 0.929 . S
H322 C350 0.930 . S
H323 C351 0.929 . S
H324 C353 0.930 . S
H325 C330 0.930 . S
H326 C334 0.930 . S
O327 Co296 2.037 . S
O327 C347 1.234 . S
C328 O302 1.269 . S
C328 O303 1.257 . S
C329 H304 0.930 . S
C329 C332 1.388 . S
C329 C334 1.418 . S
C330 H325 0.930 . S
C330 C333 1.404 . S
C330 C334 1.353 . S
N331 Co296 2.145 . S
N331 C332 1.397 . S
N331 C333 1.334 . S
C332 H313 0.929 . S
C332 C329 1.388 . S
C332 N331 1.397 . S
C333 H314 0.929 . S
C333 C330 1.404 . S
C333 N331 1.334 . S
C334 H326 0.930 . S
C334 C329 1.418 . S
C334 C330 1.353 . S
C335 H305 0.930 . S
C335 N336 1.330 . S
C335 C337 1.446 . S
N336 Co295 2.151 . S
N336 C335 1.330 . S
N336 C340 1.418 . S
C337 H316 0.929 . S
C337 C335 1.446 . S
C337 C338 1.332 . S
C338 H318 0.931 . S
C338 C337 1.332 . S
C338 C339 1.267 . S
C339 H307 0.929 . S
C339 C338 1.267 . S
C339 C340 1.251 . S
C340 H310 0.929 . S
C340 N336 1.418 . S
C340 C339 1.251 . S
C341 H308 0.930 . S
C341 C343 1.406 . S
C341 C346 1.261 . S
C342 H309 0.930 . S
C342 N344 1.325 . S
C342 C345 1.357 . S
C343 H311 0.928 . S
C343 C341 1.406 . S
C343 N344 1.261 . S
N344 Co295 2.214 . S
N344 C342 1.325 . S
N344 C343 1.261 . S
C345 H315 0.931 . S
C345 C342 1.357 . S
C345 C346 1.312 . S
C346 H317 0.930 . S
C346 C341 1.261 . S
C346 C345 1.312 . S
C347 O319 1.214 . S
C347 O327 1.234 . S
C348 H320 0.929 . S
C348 C351 1.391 . S
C348 C353 1.391 . S
C349 H321 0.929 . S
C349 C350 1.390 1_565 S
C349 N352 1.391 . S
C350 H322 0.930 . S
C350 C349 1.390 1_545 S
C350 C351 1.392 . S
C351 H323 0.929 . S
C351 C348 1.391 . S
C351 C350 1.392 . S
N352 Co296 2.257 . S
N352 C349 1.391 . S
N352 C353 1.388 1_565 S
C353 H324 0.930 . S
C353 C348 1.391 . S
C353 N352 1.388 1_545 S
Co354 O356 2.143 . S
Co354 O362 2.074 . S
Co354 O365 2.093 . S
Co354 O378 2.097 . S
Co354 N395 2.151 . S
Co354 N403 2.214 . S
Co355 O356 2.160 . S
Co355 O361 2.058 . S
Co355 O371 2.057 . S
Co355 O386 2.037 . S
Co355 N390 2.145 . S
Co355 N411 2.257 . S
O356 Co354 2.143 . S
O356 Co355 2.160 . S
C357 O358 1.278 . S
C357 O365 1.224 . S
O358 C357 1.278 . S
C359 O360 1.245 . S
C359 O371 1.232 . S
O360 C359 1.245 . S
O361 Co355 2.058 . S
O361 C387 1.269 . S
O362 Co354 2.074 . S
O362 C387 1.257 . S
H363 C388 0.930 . S
H364 C394 0.930 . S
O365 Co354 2.093 . S
O365 C357 1.224 . S
H366 C398 0.929 . S
H367 C400 0.930 . S
H368 C401 0.930 . S
H369 C399 0.929 . S
H370 C402 0.928 . S
O371 Co355 2.057 . S
O371 C359 1.232 . S
H372 C391 0.929 . S
H373 C392 0.929 . S
H374 C404 0.931 . S
H375 C396 0.929 . S
H376 C405 0.930 . S
H377 C397 0.931 . S
O378 Co354 2.097 . S
O378 C406 1.214 . S
H379 C407 0.929 . S
H380 C408 0.929 . S
H381 C409 0.930 . S
H382 C410 0.929 . S
H383 C412 0.930 . S
H384 C389 0.930 . S
H385 C393 0.930 . S
O386 Co355 2.037 . S
O386 C406 1.234 . S
C387 O361 1.269 . S
C387 O362 1.257 . S
C388 H363 0.930 . S
C388 C391 1.388 . S
C388 C393 1.418 . S
C389 H384 0.930 . S
C389 C392 1.404 . S
C389 C393 1.353 . S
N390 Co355 2.145 . S
N390 C391 1.397 . S
N390 C392 1.334 . S
C391 H372 0.929 . S
C391 C388 1.388 . S
C391 N390 1.397 . S
C392 H373 0.929 . S
C392 C389 1.404 . S
C392 N390 1.334 . S
C393 H385 0.930 . S
C393 C388 1.418 . S
C393 C389 1.353 . S
C394 H364 0.930 . S
C394 N395 1.330 . S
C394 C396 1.446 . S
N395 Co354 2.151 . S
N395 C394 1.330 . S
N395 C399 1.418 . S
C396 H375 0.929 . S
C396 C394 1.446 . S
C396 C397 1.332 . S
C397 H377 0.931 . S
C397 C396 1.332 . S
C397 C398 1.267 . S
C398 H366 0.929 . S
C398 C397 1.267 . S
C398 C399 1.251 . S
C399 H369 0.929 . S
C399 N395 1.418 . S
C399 C398 1.251 . S
C400 H367 0.930 . S
C400 C402 1.406 . S
C400 C405 1.261 . S
C401 H368 0.930 . S
C401 N403 1.325 . S
C401 C404 1.357 . S
C402 H370 0.928 . S
C402 C400 1.406 . S
C402 N403 1.261 . S
N403 Co354 2.214 . S
N403 C401 1.325 . S
N403 C402 1.261 . S
C404 H374 0.931 . S
C404 C401 1.357 . S
C404 C405 1.312 . S
C405 H376 0.930 . S
C405 C400 1.261 . S
C405 C404 1.312 . S
C406 O378 1.214 . S
C406 O386 1.234 . S
C407 H379 0.929 . S
C407 C410 1.391 . S
C407 C412 1.391 . S
C408 H380 0.929 . S
C408 C409 1.390 . S
C408 N411 1.391 . S
C409 H381 0.930 . S
C409 C408 1.390 . S
C409 C410 1.392 . S
C410 H382 0.929 . S
C410 C407 1.391 . S
C410 C409 1.392 . S
N411 Co355 2.257 . S
N411 C408 1.391 . S
N411 C412 1.388 . S
C412 H383 0.930 . S
C412 C407 1.391 . S
C412 N411 1.388 . S
Co413 O415 2.143 . S
Co413 O421 2.074 . S
Co413 O424 2.093 . S
Co413 O437 2.097 . S
Co413 N454 2.151 . S
Co413 N462 2.214 . S
Co414 O415 2.160 . S
Co414 O420 2.058 . S
Co414 O430 2.057 . S
Co414 O445 2.037 . S
Co414 N449 2.145 . S
Co414 N470 2.257 . S
O415 Co413 2.143 . S
O415 Co414 2.160 . S
C416 O417 1.278 . S
C416 O424 1.224 . S
O417 C416 1.278 . S
C418 O419 1.245 . S
C418 O430 1.232 . S
O419 C418 1.245 . S
O420 Co414 2.058 . S
O420 C446 1.269 . S
O421 Co413 2.074 . S
O421 C446 1.257 . S
H422 C447 0.930 . S
H423 C453 0.930 . S
O424 Co413 2.093 . S
O424 C416 1.224 . S
H425 C457 0.929 . S
H426 C459 0.930 . S
H427 C460 0.930 . S
H428 C458 0.929 . S
H429 C461 0.928 . S
O430 Co414 2.057 . S
O430 C418 1.232 . S
H431 C450 0.929 . S
H432 C451 0.929 . S
H433 C463 0.931 . S
H434 C455 0.929 . S
H435 C464 0.930 . S
H436 C456 0.931 . S
O437 Co413 2.097 . S
O437 C465 1.214 . S
H438 C466 0.929 . S
H439 C467 0.929 . S
H440 C468 0.930 . S
H441 C469 0.929 . S
H442 C471 0.930 . S
H443 C448 0.930 . S
H444 C452 0.930 . S
O445 Co414 2.037 . S
O445 C465 1.234 . S
C446 O420 1.269 . S
C446 O421 1.257 . S
C447 H422 0.930 . S
C447 C450 1.388 . S
C447 C452 1.418 . S
C448 H443 0.930 . S
C448 C451 1.404 . S
C448 C452 1.353 . S
N449 Co414 2.145 . S
N449 C450 1.397 . S
N449 C451 1.334 . S
C450 H431 0.929 . S
C450 C447 1.388 . S
C450 N449 1.397 . S
C451 H432 0.929 . S
C451 C448 1.404 . S
C451 N449 1.334 . S
C452 H444 0.930 . S
C452 C447 1.418 . S
C452 C448 1.353 . S
C453 H423 0.930 . S
C453 N454 1.330 . S
C453 C455 1.446 . S
N454 Co413 2.151 . S
N454 C453 1.330 . S
N454 C458 1.418 . S
C455 H434 0.929 . S
C455 C453 1.446 . S
C455 C456 1.332 . S
C456 H436 0.931 . S
C456 C455 1.332 . S
C456 C457 1.267 . S
C457 H425 0.929 . S
C457 C456 1.267 . S
C457 C458 1.251 . S
C458 H428 0.929 . S
C458 N454 1.418 . S
C458 C457 1.251 . S
C459 H426 0.930 . S
C459 C461 1.406 . S
C459 C464 1.261 . S
C460 H427 0.930 . S
C460 N462 1.325 . S
C460 C463 1.357 . S
C461 H429 0.928 . S
C461 C459 1.406 . S
C461 N462 1.261 . S
N462 Co413 2.214 . S
N462 C460 1.325 . S
N462 C461 1.261 . S
C463 H433 0.931 . S
C463 C460 1.357 . S
C463 C464 1.312 . S
C464 H435 0.930 . S
C464 C459 1.261 . S
C464 C463 1.312 . S
C465 O437 1.214 . S
C465 O445 1.234 . S
C466 H438 0.929 . S
C466 C469 1.391 1_455 S
C466 C471 1.391 . S
C467 H439 0.929 . S
C467 C468 1.390 1_445 S
C467 N470 1.391 . S
C468 H440 0.930 . S
C468 C467 1.390 1_665 S
C468 C469 1.392 . S
C469 H441 0.929 . S
C469 C466 1.391 1_655 S
C469 C468 1.392 . S
N470 Co414 2.257 . S
N470 C467 1.391 . S
N470 C471 1.388 1_545 S
C471 H442 0.930 . S
C471 C466 1.391 . S
C471 N470 1.388 1_565 S
Co472 O474 2.143 . S
Co472 O480 2.074 . S
Co472 O483 2.093 . S
Co472 O496 2.097 . S
Co472 N513 2.151 . S
Co472 N521 2.214 . S
Co473 O474 2.160 . S
Co473 O479 2.058 . S
Co473 O489 2.057 . S
Co473 O504 2.037 . S
Co473 N508 2.145 . S
Co473 N529 2.257 . S
O474 Co472 2.143 . S
O474 Co473 2.160 . S
C475 O476 1.278 . S
C475 O483 1.224 . S
O476 C475 1.278 . S
C477 O478 1.245 . S
C477 O489 1.232 . S
O478 C477 1.245 . S
O479 Co473 2.058 . S
O479 C505 1.269 . S
O480 Co472 2.074 . S
O480 C505 1.257 . S
H481 C506 0.930 . S
H482 C512 0.930 . S
O483 Co472 2.093 . S
O483 C475 1.224 . S
H484 C516 0.929 . S
H485 C518 0.930 . S
H486 C519 0.930 . S
H487 C517 0.929 . S
H488 C520 0.928 . S
O489 Co473 2.057 . S
O489 C477 1.232 . S
H490 C509 0.929 . S
H491 C510 0.929 . S
H492 C522 0.931 . S
H493 C514 0.929 . S
H494 C523 0.930 . S
H495 C515 0.931 . S
O496 Co472 2.097 . S
O496 C524 1.214 . S
H497 C525 0.929 . S
H498 C526 0.929 . S
H499 C527 0.930 . S
H500 C528 0.929 . S
H501 C530 0.930 . S
H502 C507 0.930 . S
H503 C511 0.930 . S
O504 Co473 2.037 . S
O504 C524 1.234 . S
C505 O479 1.269 . S
C505 O480 1.257 . S
C506 H481 0.930 . S
C506 C509 1.388 . S
C506 C511 1.418 . S
C507 H502 0.930 . S
C507 C510 1.404 . S
C507 C511 1.353 . S
N508 Co473 2.145 . S
N508 C509 1.397 . S
N508 C510 1.334 . S
C509 H490 0.929 . S
C509 C506 1.388 . S
C509 N508 1.397 . S
C510 H491 0.929 . S
C510 C507 1.404 . S
C510 N508 1.334 . S
C511 H503 0.930 . S
C511 C506 1.418 . S
C511 C507 1.353 . S
C512 H482 0.930 . S
C512 N513 1.330 . S
C512 C514 1.446 . S
N513 Co472 2.151 . S
N513 C512 1.330 . S
N513 C517 1.418 . S
C514 H493 0.929 . S
C514 C512 1.446 . S
C514 C515 1.332 . S
C515 H495 0.931 . S
C515 C514 1.332 . S
C515 C516 1.267 . S
C516 H484 0.929 . S
C516 C515 1.267 . S
C516 C517 1.251 . S
C517 H487 0.929 . S
C517 N513 1.418 . S
C517 C516 1.251 . S
C518 H485 0.930 . S
C518 C520 1.406 . S
C518 C523 1.261 . S
C519 H486 0.930 . S
C519 N521 1.325 . S
C519 C522 1.357 . S
C520 H488 0.928 . S
C520 C518 1.406 . S
C520 N521 1.261 . S
N521 Co472 2.214 . S
N521 C519 1.325 . S
N521 C520 1.261 . S
C522 H492 0.931 . S
C522 C519 1.357 . S
C522 C523 1.312 . S
C523 H494 0.930 . S
C523 C518 1.261 . S
C523 C522 1.312 . S
C524 O496 1.214 . S
C524 O504 1.234 . S
C525 H497 0.929 . S
C525 C528 1.391 . S
C525 C530 1.391 . S
C526 H498 0.929 . S
C526 C527 1.390 . S
C526 N529 1.391 . S
C527 H499 0.930 . S
C527 C526 1.390 . S
C527 C528 1.392 . S
C528 H500 0.929 . S
C528 C525 1.391 . S
C528 C527 1.392 . S
N529 Co473 2.257 . S
N529 C526 1.391 . S
N529 C530 1.388 . S
C530 H501 0.930 . S
C530 C525 1.391 . S
C530 N529 1.388 . S
Co531 O533 2.143 . S
Co531 O539 2.074 . S
Co531 O542 2.093 . S
Co531 O555 2.097 . S
Co531 N572 2.151 . S
Co531 N580 2.214 . S
Co532 O533 2.160 . S
Co532 O538 2.058 . S
Co532 O548 2.057 . S
Co532 O563 2.037 . S
Co532 N567 2.145 . S
Co532 N588 2.257 . S
O533 Co531 2.143 . S
O533 Co532 2.160 . S
C534 O535 1.278 . S
C534 O542 1.224 . S
O535 C534 1.278 . S
C536 O537 1.245 . S
C536 O548 1.232 . S
O537 C536 1.245 . S
O538 Co532 2.058 . S
O538 C564 1.269 . S
O539 Co531 2.074 . S
O539 C564 1.257 . S
H540 C565 0.930 . S
H541 C571 0.930 . S
O542 Co531 2.093 . S
O542 C534 1.224 . S
H543 C575 0.929 . S
H544 C577 0.930 . S
H545 C578 0.930 . S
H546 C576 0.929 . S
H547 C579 0.928 . S
O548 Co532 2.057 . S
O548 C536 1.232 . S
H549 C568 0.929 . S
H550 C569 0.929 . S
H551 C581 0.931 . S
H552 C573 0.929 . S
H553 C582 0.930 . S
H554 C574 0.931 . S
O555 Co531 2.097 . S
O555 C583 1.214 . S
H556 C584 0.929 . S
H557 C585 0.929 . S
H558 C586 0.930 . S
H559 C587 0.929 . S
H560 C589 0.930 . S
H561 C566 0.930 . S
H562 C570 0.930 . S
O563 Co532 2.037 . S
O563 C583 1.234 . S
C564 O538 1.269 . S
C564 O539 1.257 . S
C565 H540 0.930 . S
C565 C568 1.388 . S
C565 C570 1.418 . S
C566 H561 0.930 . S
C566 C569 1.404 . S
C566 C570 1.353 . S
N567 Co532 2.145 . S
N567 C568 1.397 . S
N567 C569 1.334 . S
C568 H549 0.929 . S
C568 C565 1.388 . S
C568 N567 1.397 . S
C569 H550 0.929 . S
C569 C566 1.404 . S
C569 N567 1.334 . S
C570 H562 0.930 . S
C570 C565 1.418 . S
C570 C566 1.353 . S
C571 H541 0.930 . S
C571 N572 1.330 . S
C571 C573 1.446 . S
N572 Co531 2.151 . S
N572 C571 1.330 . S
N572 C576 1.418 . S
C573 H552 0.929 . S
C573 C571 1.446 . S
C573 C574 1.332 . S
C574 H554 0.931 . S
C574 C573 1.332 . S
C574 C575 1.267 . S
C575 H543 0.929 . S
C575 C574 1.267 . S
C575 C576 1.251 . S
C576 H546 0.929 . S
C576 N572 1.418 . S
C576 C575 1.251 . S
C577 H544 0.930 . S
C577 C579 1.406 . S
C577 C582 1.261 . S
C578 H545 0.930 . S
C578 N580 1.325 . S
C578 C581 1.357 . S
C579 H547 0.928 . S
C579 C577 1.406 . S
C579 N580 1.261 . S
N580 Co531 2.214 . S
N580 C578 1.325 . S
N580 C579 1.261 . S
C581 H551 0.931 . S
C581 C578 1.357 . S
C581 C582 1.312 . S
C582 H553 0.930 . S
C582 C577 1.261 . S
C582 C581 1.312 . S
C583 O555 1.214 . S
C583 O563 1.234 . S
C584 H556 0.929 . S
C584 C587 1.391 1_655 S
C584 C589 1.391 . S
C585 H557 0.929 . S
C585 C586 1.390 1_645 S
C585 N588 1.391 . S
C586 H558 0.930 . S
C586 C585 1.390 1_465 S
C586 C587 1.392 . S
C587 H559 0.929 . S
C587 C584 1.391 1_455 S
C587 C586 1.392 . S
N588 Co532 2.257 . S
N588 C585 1.391 . S
N588 C589 1.388 1_545 S
C589 H560 0.930 . S
C589 C584 1.391 . S
C589 N588 1.388 1_565 S
Co590 O592 2.143 . S
Co590 O598 2.074 . S
Co590 O601 2.093 . S
Co590 O614 2.097 . S
Co590 N631 2.151 . S
Co590 N639 2.214 . S
Co591 O592 2.160 . S
Co591 O597 2.058 . S
Co591 O607 2.057 . S
Co591 O622 2.037 . S
Co591 N626 2.145 . S
Co591 N647 2.257 . S
O592 Co590 2.143 . S
O592 Co591 2.160 . S
C593 O594 1.278 . S
C593 O601 1.224 . S
O594 C593 1.278 . S
C595 O596 1.245 . S
C595 O607 1.232 . S
O596 C595 1.245 . S
O597 Co591 2.058 . S
O597 C623 1.269 . S
O598 Co590 2.074 . S
O598 C623 1.257 . S
H599 C624 0.930 . S
H600 C630 0.930 . S
O601 Co590 2.093 . S
O601 C593 1.224 . S
H602 C634 0.929 . S
H603 C636 0.930 . S
H604 C637 0.930 . S
H605 C635 0.929 . S
H606 C638 0.928 . S
O607 Co591 2.057 . S
O607 C595 1.232 . S
H608 C627 0.929 . S
H609 C628 0.929 . S
H610 C640 0.931 . S
H611 C632 0.929 . S
H612 C641 0.930 . S
H613 C633 0.931 . S
O614 Co590 2.097 . S
O614 C642 1.214 . S
H615 C643 0.929 . S
H616 C644 0.929 . S
H617 C645 0.930 . S
H618 C646 0.929 . S
H619 C648 0.930 . S
H620 C625 0.930 . S
H621 C629 0.930 . S
O622 Co591 2.037 . S
O622 C642 1.234 . S
C623 O597 1.269 . S
C623 O598 1.257 . S
C624 H599 0.930 . S
C624 C627 1.388 . S
C624 C629 1.418 . S
C625 H620 0.930 . S
C625 C628 1.404 . S
C625 C629 1.353 . S
N626 Co591 2.145 . S
N626 C627 1.397 . S
N626 C628 1.334 . S
C627 H608 0.929 . S
C627 C624 1.388 . S
C627 N626 1.397 . S
C628 H609 0.929 . S
C628 C625 1.404 . S
C628 N626 1.334 . S
C629 H621 0.930 . S
C629 C624 1.418 . S
C629 C625 1.353 . S
C630 H600 0.930 . S
C630 N631 1.330 . S
C630 C632 1.446 . S
N631 Co590 2.151 . S
N631 C630 1.330 . S
N631 C635 1.418 . S
C632 H611 0.929 . S
C632 C630 1.446 . S
C632 C633 1.332 . S
C633 H613 0.931 . S
C633 C632 1.332 . S
C633 C634 1.267 . S
C634 H602 0.929 . S
C634 C633 1.267 . S
C634 C635 1.251 . S
C635 H605 0.929 . S
C635 N631 1.418 . S
C635 C634 1.251 . S
C636 H603 0.930 . S
C636 C638 1.406 . S
C636 C641 1.261 . S
C637 H604 0.930 . S
C637 N639 1.325 . S
C637 C640 1.357 . S
C638 H606 0.928 . S
C638 C636 1.406 . S
C638 N639 1.261 . S
N639 Co590 2.214 . S
N639 C637 1.325 . S
N639 C638 1.261 . S
C640 H610 0.931 . S
C640 C637 1.357 . S
C640 C641 1.312 . S
C641 H612 0.930 . S
C641 C636 1.261 . S
C641 C640 1.312 . S
C642 O614 1.214 . S
C642 O622 1.234 . S
C643 H615 0.929 . S
C643 C646 1.391 . S
C643 C648 1.391 . S
C644 H616 0.929 . S
C644 C645 1.390 . S
C644 N647 1.391 . S
C645 H617 0.930 . S
C645 C644 1.390 . S
C645 C646 1.392 . S
C646 H618 0.929 . S
C646 C643 1.391 . S
C646 C645 1.392 . S
N647 Co591 2.257 . S
N647 C644 1.391 . S
N647 C648 1.388 . S
C648 H619 0.930 . S
C648 C643 1.391 . S
C648 N647 1.388 . S
Co649 O651 2.143 . S
Co649 O657 2.074 . S
Co649 O660 2.093 . S
Co649 O673 2.097 . S
Co649 N690 2.151 . S
Co649 N698 2.214 . S
Co650 O651 2.160 . S
Co650 O656 2.058 . S
Co650 O666 2.057 . S
Co650 O681 2.037 . S
Co650 N685 2.145 . S
Co650 N706 2.257 . S
O651 Co649 2.143 . S
O651 Co650 2.160 . S
C652 O653 1.278 . S
C652 O660 1.224 . S
O653 C652 1.278 . S
C654 O655 1.245 . S
C654 O666 1.232 . S
O655 C654 1.245 . S
O656 Co650 2.058 . S
O656 C682 1.269 . S
O657 Co649 2.074 . S
O657 C682 1.257 . S
H658 C683 0.930 . S
H659 C689 0.930 . S
O660 Co649 2.093 . S
O660 C652 1.224 . S
H661 C693 0.929 . S
H662 C695 0.930 . S
H663 C696 0.930 . S
H664 C694 0.929 . S
H665 C697 0.928 . S
O666 Co650 2.057 . S
O666 C654 1.232 . S
H667 C686 0.929 . S
H668 C687 0.929 . S
H669 C699 0.931 . S
H670 C691 0.929 . S
H671 C700 0.930 . S
H672 C692 0.931 . S
O673 Co649 2.097 . S
O673 C701 1.214 . S
H674 C702 0.929 . S
H675 C703 0.929 . S
H676 C704 0.930 . S
H677 C705 0.929 . S
H678 C707 0.930 . S
H679 C684 0.930 . S
H680 C688 0.930 . S
O681 Co650 2.037 . S
O681 C701 1.234 . S
C682 O656 1.269 . S
C682 O657 1.257 . S
C683 H658 0.930 . S
C683 C686 1.388 . S
C683 C688 1.418 . S
C684 H679 0.930 . S
C684 C687 1.404 . S
C684 C688 1.353 . S
N685 Co650 2.145 . S
N685 C686 1.397 . S
N685 C687 1.334 . S
C686 H667 0.929 . S
C686 C683 1.388 . S
C686 N685 1.397 . S
C687 H668 0.929 . S
C687 C684 1.404 . S
C687 N685 1.334 . S
C688 H680 0.930 . S
C688 C683 1.418 . S
C688 C684 1.353 . S
C689 H659 0.930 . S
C689 N690 1.330 . S
C689 C691 1.446 . S
N690 Co649 2.151 . S
N690 C689 1.330 . S
N690 C694 1.418 . S
C691 H670 0.929 . S
C691 C689 1.446 . S
C691 C692 1.332 . S
C692 H672 0.931 . S
C692 C691 1.332 . S
C692 C693 1.267 . S
C693 H661 0.929 . S
C693 C692 1.267 . S
C693 C694 1.251 . S
C694 H664 0.929 . S
C694 N690 1.418 . S
C694 C693 1.251 . S
C695 H662 0.930 . S
C695 C697 1.406 . S
C695 C700 1.261 . S
C696 H663 0.930 . S
C696 N698 1.325 . S
C696 C699 1.357 . S
C697 H665 0.928 . S
C697 C695 1.406 . S
C697 N698 1.261 . S
N698 Co649 2.214 . S
N698 C696 1.325 . S
N698 C697 1.261 . S
C699 H669 0.931 . S
C699 C696 1.357 . S
C699 C700 1.312 . S
C700 H671 0.930 . S
C700 C695 1.261 . S
C700 C699 1.312 . S
C701 O673 1.214 . S
C701 O681 1.234 . S
C702 H674 0.929 . S
C702 C705 1.391 . S
C702 C707 1.391 . S
C703 H675 0.929 . S
C703 C704 1.390 1_565 S
C703 N706 1.391 . S
C704 H676 0.930 . S
C704 C703 1.390 1_545 S
C704 C705 1.392 . S
C705 H677 0.929 . S
C705 C702 1.391 . S
C705 C704 1.392 . S
N706 Co650 2.257 . S
N706 C703 1.391 . S
N706 C707 1.388 1_565 S
C707 H678 0.930 . S
C707 C702 1.391 . S
C707 N706 1.388 1_545 S
Co708 O710 2.143 . S
Co708 O716 2.074 . S
Co708 O719 2.093 . S
Co708 O732 2.097 . S
Co708 N749 2.151 . S
Co708 N757 2.214 . S
Co709 O710 2.160 . S
Co709 O715 2.058 . S
Co709 O725 2.057 . S
Co709 O740 2.037 . S
Co709 N744 2.145 . S
Co709 N765 2.257 . S
O710 Co708 2.143 . S
O710 Co709 2.160 . S
C711 O712 1.278 . S
C711 O719 1.224 . S
O712 C711 1.278 . S
C713 O714 1.245 . S
C713 O725 1.232 . S
O714 C713 1.245 . S
O715 Co709 2.058 . S
O715 C741 1.269 . S
O716 Co708 2.074 . S
O716 C741 1.257 . S
H717 C742 0.930 . S
H718 C748 0.930 . S
O719 Co708 2.093 . S
O719 C711 1.224 . S
H720 C752 0.929 . S
H721 C754 0.930 . S
H722 C755 0.930 . S
H723 C753 0.929 . S
H724 C756 0.928 . S
O725 Co709 2.057 . S
O725 C713 1.232 . S
H726 C745 0.929 . S
H727 C746 0.929 . S
H728 C758 0.931 . S
H729 C750 0.929 . S
H730 C759 0.930 . S
H731 C751 0.931 . S
O732 Co708 2.097 . S
O732 C760 1.214 . S
H733 C761 0.929 . S
H734 C762 0.929 . S
H735 C763 0.930 . S
H736 C764 0.929 . S
H737 C766 0.930 . S
H738 C743 0.930 . S
H739 C747 0.930 . S
O740 Co709 2.037 . S
O740 C760 1.234 . S
C741 O715 1.269 . S
C741 O716 1.257 . S
C742 H717 0.930 . S
C742 C745 1.388 . S
C742 C747 1.418 . S
C743 H738 0.930 . S
C743 C746 1.404 . S
C743 C747 1.353 . S
N744 Co709 2.145 . S
N744 C745 1.397 . S
N744 C746 1.334 . S
C745 H726 0.929 . S
C745 C742 1.388 . S
C745 N744 1.397 . S
C746 H727 0.929 . S
C746 C743 1.404 . S
C746 N744 1.334 . S
C747 H739 0.930 . S
C747 C742 1.418 . S
C747 C743 1.353 . S
C748 H718 0.930 . S
C748 N749 1.330 . S
C748 C750 1.446 . S
N749 Co708 2.151 . S
N749 C748 1.330 . S
N749 C753 1.418 . S
C750 H729 0.929 . S
C750 C748 1.446 . S
C750 C751 1.332 . S
C751 H731 0.931 . S
C751 C750 1.332 . S
C751 C752 1.267 . S
C752 H720 0.929 . S
C752 C751 1.267 . S
C752 C753 1.251 . S
C753 H723 0.929 . S
C753 N749 1.418 . S
C753 C752 1.251 . S
C754 H721 0.930 . S
C754 C756 1.406 . S
C754 C759 1.261 . S
C755 H722 0.930 . S
C755 N757 1.325 . S
C755 C758 1.357 . S
C756 H724 0.928 . S
C756 C754 1.406 . S
C756 N757 1.261 . S
N757 Co708 2.214 . S
N757 C755 1.325 . S
N757 C756 1.261 . S
C758 H728 0.931 . S
C758 C755 1.357 . S
C758 C759 1.312 . S
C759 H730 0.930 . S
C759 C754 1.261 . S
C759 C758 1.312 . S
C760 O732 1.214 . S
C760 O740 1.234 . S
C761 H733 0.929 . S
C761 C764 1.391 . S
C761 C766 1.391 . S
C762 H734 0.929 . S
C762 C763 1.390 . S
C762 N765 1.391 . S
C763 H735 0.930 . S
C763 C762 1.390 . S
C763 C764 1.392 . S
C764 H736 0.929 . S
C764 C761 1.391 . S
C764 C763 1.392 . S
N765 Co709 2.257 . S
N765 C762 1.391 . S
N765 C766 1.388 . S
C766 H737 0.930 . S
C766 C761 1.391 . S
C766 N765 1.388 . S
Co767 O769 2.143 . S
Co767 O775 2.074 . S
Co767 O778 2.093 . S
Co767 O791 2.097 . S
Co767 N808 2.151 . S
Co767 N816 2.214 . S
Co768 O769 2.160 . S
Co768 O774 2.058 . S
Co768 O784 2.057 . S
Co768 O799 2.037 . S
Co768 N803 2.145 . S
Co768 N824 2.257 . S
O769 Co767 2.143 . S
O769 Co768 2.160 . S
C770 O771 1.278 . S
C770 O778 1.224 . S
O771 C770 1.278 . S
C772 O773 1.245 . S
C772 O784 1.232 . S
O773 C772 1.245 . S
O774 Co768 2.058 . S
O774 C800 1.269 . S
O775 Co767 2.074 . S
O775 C800 1.257 . S
H776 C801 0.930 . S
H777 C807 0.930 . S
O778 Co767 2.093 . S
O778 C770 1.224 . S
H779 C811 0.929 . S
H780 C813 0.930 . S
H781 C814 0.930 . S
H782 C812 0.929 . S
H783 C815 0.928 . S
O784 Co768 2.057 . S
O784 C772 1.232 . S
H785 C804 0.929 . S
H786 C805 0.929 . S
H787 C817 0.931 . S
H788 C809 0.929 . S
H789 C818 0.930 . S
H790 C810 0.931 . S
O791 Co767 2.097 . S
O791 C819 1.214 . S
H792 C820 0.929 . S
H793 C821 0.929 . S
H794 C822 0.930 . S
H795 C823 0.929 . S
H796 C825 0.930 . S
H797 C802 0.930 . S
H798 C806 0.930 . S
O799 Co768 2.037 . S
O799 C819 1.234 . S
C800 O774 1.269 . S
C800 O775 1.257 . S
C801 H776 0.930 . S
C801 C804 1.388 . S
C801 C806 1.418 . S
C802 H797 0.930 . S
C802 C805 1.404 . S
C802 C806 1.353 . S
N803 Co768 2.145 . S
N803 C804 1.397 . S
N803 C805 1.334 . S
C804 H785 0.929 . S
C804 C801 1.388 . S
C804 N803 1.397 . S
C805 H786 0.929 . S
C805 C802 1.404 . S
C805 N803 1.334 . S
C806 H798 0.930 . S
C806 C801 1.418 . S
C806 C802 1.353 . S
C807 H777 0.930 . S
C807 N808 1.330 . S
C807 C809 1.446 . S
N808 Co767 2.151 . S
N808 C807 1.330 . S
N808 C812 1.418 . S
C809 H788 0.929 . S
C809 C807 1.446 . S
C809 C810 1.332 . S
C810 H790 0.931 . S
C810 C809 1.332 . S
C810 C811 1.267 . S
C811 H779 0.929 . S
C811 C810 1.267 . S
C811 C812 1.251 . S
C812 H782 0.929 . S
C812 N808 1.418 . S
C812 C811 1.251 . S
C813 H780 0.930 . S
C813 C815 1.406 . S
C813 C818 1.261 . S
C814 H781 0.930 . S
C814 N816 1.325 . S
C814 C817 1.357 . S
C815 H783 0.928 . S
C815 C813 1.406 . S
C815 N816 1.261 . S
N816 Co767 2.214 . S
N816 C814 1.325 . S
N816 C815 1.261 . S
C817 H787 0.931 . S
C817 C814 1.357 . S
C817 C818 1.312 . S
C818 H789 0.930 . S
C818 C813 1.261 . S
C818 C817 1.312 . S
C819 O791 1.214 . S
C819 O799 1.234 . S
C820 H792 0.929 . S
C820 C823 1.391 . S
C820 C825 1.391 . S
C821 H793 0.929 . S
C821 C822 1.390 1_545 S
C821 N824 1.391 . S
C822 H794 0.930 . S
C822 C821 1.390 1_565 S
C822 C823 1.392 . S
C823 H795 0.929 . S
C823 C820 1.391 . S
C823 C822 1.392 . S
N824 Co768 2.257 . S
N824 C821 1.391 . S
N824 C825 1.388 1_545 S
C825 H796 0.930 . S
C825 C820 1.391 . S
C825 N824 1.388 1_565 S
Co826 O828 2.143 . S
Co826 O834 2.074 . S
Co826 O837 2.093 . S
Co826 O850 2.097 . S
Co826 N867 2.151 . S
Co826 N875 2.214 . S
Co827 O828 2.160 . S
Co827 O833 2.058 . S
Co827 O843 2.057 . S
Co827 O858 2.037 . S
Co827 N862 2.145 . S
Co827 N883 2.257 . S
O828 Co826 2.143 . S
O828 Co827 2.160 . S
C829 O830 1.278 . S
C829 O837 1.224 . S
O830 C829 1.278 . S
C831 O832 1.245 . S
C831 O843 1.232 . S
O832 C831 1.245 . S
O833 Co827 2.058 . S
O833 C859 1.269 . S
O834 Co826 2.074 . S
O834 C859 1.257 . S
H835 C860 0.930 . S
H836 C866 0.930 . S
O837 Co826 2.093 . S
O837 C829 1.224 . S
H838 C870 0.929 . S
H839 C872 0.930 . S
H840 C873 0.930 . S
H841 C871 0.929 . S
H842 C874 0.928 . S
O843 Co827 2.057 . S
O843 C831 1.232 . S
H844 C863 0.929 . S
H845 C864 0.929 . S
H846 C876 0.931 . S
H847 C868 0.929 . S
H848 C877 0.930 . S
H849 C869 0.931 . S
O850 Co826 2.097 . S
O850 C878 1.214 . S
H851 C879 0.929 . S
H852 C880 0.929 . S
H853 C881 0.930 . S
H854 C882 0.929 . S
H855 C884 0.930 . S
H856 C861 0.930 . S
H857 C865 0.930 . S
O858 Co827 2.037 . S
O858 C878 1.234 . S
C859 O833 1.269 . S
C859 O834 1.257 . S
C860 H835 0.930 . S
C860 C863 1.388 . S
C860 C865 1.418 . S
C861 H856 0.930 . S
C861 C864 1.404 . S
C861 C865 1.353 . S
N862 Co827 2.145 . S
N862 C863 1.397 . S
N862 C864 1.334 . S
C863 H844 0.929 . S
C863 C860 1.388 . S
C863 N862 1.397 . S
C864 H845 0.929 . S
C864 C861 1.404 . S
C864 N862 1.334 . S
C865 H857 0.930 . S
C865 C860 1.418 . S
C865 C861 1.353 . S
C866 H836 0.930 . S
C866 N867 1.330 . S
C866 C868 1.446 . S
N867 Co826 2.151 . S
N867 C866 1.330 . S
N867 C871 1.418 . S
C868 H847 0.929 . S
C868 C866 1.446 . S
C868 C869 1.332 . S
C869 H849 0.931 . S
C869 C868 1.332 . S
C869 C870 1.267 . S
C870 H838 0.929 . S
C870 C869 1.267 . S
C870 C871 1.251 . S
C871 H841 0.929 . S
C871 N867 1.418 . S
C871 C870 1.251 . S
C872 H839 0.930 . S
C872 C874 1.406 . S
C872 C877 1.261 . S
C873 H840 0.930 . S
C873 N875 1.325 . S
C873 C876 1.357 . S
C874 H842 0.928 . S
C874 C872 1.406 . S
C874 N875 1.261 . S
N875 Co826 2.214 . S
N875 C873 1.325 . S
N875 C874 1.261 . S
C876 H846 0.931 . S
C876 C873 1.357 . S
C876 C877 1.312 . S
C877 H848 0.930 . S
C877 C872 1.261 . S
C877 C876 1.312 . S
C878 O850 1.214 . S
C878 O858 1.234 . S
C879 H851 0.929 . S
C879 C882 1.391 . S
C879 C884 1.391 . S
C880 H852 0.929 . S
C880 C881 1.390 . S
C880 N883 1.391 . S
C881 H853 0.930 . S
C881 C880 1.390 . S
C881 C882 1.392 . S
C882 H854 0.929 . S
C882 C879 1.391 . S
C882 C881 1.392 . S
N883 Co827 2.257 . S
N883 C880 1.391 . S
N883 C884 1.388 . S
C884 H855 0.930 . S
C884 C879 1.391 . S
C884 N883 1.388 . S
Co885 O887 2.143 . S
Co885 O893 2.074 . S
Co885 O896 2.093 . S
Co885 O909 2.097 . S
Co885 N926 2.151 . S
Co885 N934 2.214 . S
Co886 O887 2.160 . S
Co886 O892 2.058 . S
Co886 O902 2.057 . S
Co886 O917 2.037 . S
Co886 N921 2.145 . S
Co886 N942 2.257 . S
O887 Co885 2.143 . S
O887 Co886 2.160 . S
C888 O889 1.278 . S
C888 O896 1.224 . S
O889 C888 1.278 . S
C890 O891 1.245 . S
C890 O902 1.232 . S
O891 C890 1.245 . S
O892 Co886 2.058 . S
O892 C918 1.269 . S
O893 Co885 2.074 . S
O893 C918 1.257 . S
H894 C919 0.930 . S
H895 C925 0.930 . S
O896 Co885 2.093 . S
O896 C888 1.224 . S
H897 C929 0.929 . S
H898 C931 0.930 . S
H899 C932 0.930 . S
H900 C930 0.929 . S
H901 C933 0.928 . S
O902 Co886 2.057 . S
O902 C890 1.232 . S
H903 C922 0.929 . S
H904 C923 0.929 . S
H905 C935 0.931 . S
H906 C927 0.929 . S
H907 C936 0.930 . S
H908 C928 0.931 . S
O909 Co885 2.097 . S
O909 C937 1.214 . S
H910 C938 0.929 . S
H911 C939 0.929 . S
H912 C940 0.930 . S
H913 C941 0.929 . S
H914 C943 0.930 . S
H915 C920 0.930 . S
H916 C924 0.930 . S
O917 Co886 2.037 . S
O917 C937 1.234 . S
C918 O892 1.269 . S
C918 O893 1.257 . S
C919 H894 0.930 . S
C919 C922 1.388 . S
C919 C924 1.418 . S
C920 H915 0.930 . S
C920 C923 1.404 . S
C920 C924 1.353 . S
N921 Co886 2.145 . S
N921 C922 1.397 . S
N921 C923 1.334 . S
C922 H903 0.929 . S
C922 C919 1.388 . S
C922 N921 1.397 . S
C923 H904 0.929 . S
C923 C920 1.404 . S
C923 N921 1.334 . S
C924 H916 0.930 . S
C924 C919 1.418 . S
C924 C920 1.353 . S
C925 H895 0.930 . S
C925 N926 1.330 . S
C925 C927 1.446 . S
N926 Co885 2.151 . S
N926 C925 1.330 . S
N926 C930 1.418 . S
C927 H906 0.929 . S
C927 C925 1.446 . S
C927 C928 1.332 . S
C928 H908 0.931 . S
C928 C927 1.332 . S
C928 C929 1.267 . S
C929 H897 0.929 . S
C929 C928 1.267 . S
C929 C930 1.251 . S
C930 H900 0.929 . S
C930 N926 1.418 . S
C930 C929 1.251 . S
C931 H898 0.930 . S
C931 C933 1.406 . S
C931 C936 1.261 . S
C932 H899 0.930 . S
C932 N934 1.325 . S
C932 C935 1.357 . S
C933 H901 0.928 . S
C933 C931 1.406 . S
C933 N934 1.261 . S
N934 Co885 2.214 . S
N934 C932 1.325 . S
N934 C933 1.261 . S
C935 H905 0.931 . S
C935 C932 1.357 . S
C935 C936 1.312 . S
C936 H907 0.930 . S
C936 C931 1.261 . S
C936 C935 1.312 . S
C937 O909 1.214 . S
C937 O917 1.234 . S
C938 H910 0.929 . S
C938 C941 1.391 1_655 S
C938 C943 1.391 . S
C939 H911 0.929 . S
C939 C940 1.390 1_665 S
C939 N942 1.391 . S
C940 H912 0.930 . S
C940 C939 1.390 1_445 S
C940 C941 1.392 . S
C941 H913 0.929 . S
C941 C938 1.391 1_455 S
C941 C940 1.392 . S
N942 Co886 2.257 . S
N942 C939 1.391 . S
N942 C943 1.388 1_565 S
C943 H914 0.930 . S
C943 C938 1.391 . S
C943 N942 1.388 1_545 S
Co944 O946 2.143 . S
Co944 O952 2.074 . S
Co944 O955 2.093 . S
Co944 O968 2.097 . S
Co944 N985 2.151 . S
Co944 N993 2.214 . S
Co945 O946 2.160 . S
Co945 O951 2.058 . S
Co945 O961 2.057 . S
Co945 O976 2.037 . S
Co945 N980 2.145 . S
Co945 N1001 2.257 . S
O946 Co944 2.143 . S
O946 Co945 2.160 . S
C947 O948 1.278 . S
C947 O955 1.224 . S
O948 C947 1.278 . S
C949 O950 1.245 . S
C949 O961 1.232 . S
O950 C949 1.245 . S
O951 Co945 2.058 . S
O951 C977 1.269 . S
O952 Co944 2.074 . S
O952 C977 1.257 . S
H953 C978 0.930 . S
H954 C984 0.930 . S
O955 Co944 2.093 . S
O955 C947 1.224 . S
H956 C988 0.929 . S
H957 C990 0.930 . S
H958 C991 0.930 . S
H959 C989 0.929 . S
H960 C992 0.928 . S
O961 Co945 2.057 . S
O961 C949 1.232 . S
H962 C981 0.929 . S
H963 C982 0.929 . S
H964 C994 0.931 . S
H965 C986 0.929 . S
H966 C995 0.930 . S
H967 C987 0.931 . S
O968 Co944 2.097 . S
O968 C996 1.214 . S
H969 C997 0.929 . S
H970 C998 0.929 . S
H971 C999 0.930 . S
H972 C1000 0.929 . S
H973 C1002 0.930 . S
H974 C979 0.930 . S
H975 C983 0.930 . S
O976 Co945 2.037 . S
O976 C996 1.234 . S
C977 O951 1.269 . S
C977 O952 1.257 . S
C978 H953 0.930 . S
C978 C981 1.388 . S
C978 C983 1.418 . S
C979 H974 0.930 . S
C979 C982 1.404 . S
C979 C983 1.353 . S
N980 Co945 2.145 . S
N980 C981 1.397 . S
N980 C982 1.334 . S
C981 H962 0.929 . S
C981 C978 1.388 . S
C981 N980 1.397 . S
C982 H963 0.929 . S
C982 C979 1.404 . S
C982 N980 1.334 . S
C983 H975 0.930 . S
C983 C978 1.418 . S
C983 C979 1.353 . S
C984 H954 0.930 . S
C984 N985 1.330 . S
C984 C986 1.446 . S
N985 Co944 2.151 . S
N985 C984 1.330 . S
N985 C989 1.418 . S
C986 H965 0.929 . S
C986 C984 1.446 . S
C986 C987 1.332 . S
C987 H967 0.931 . S
C987 C986 1.332 . S
C987 C988 1.267 . S
C988 H956 0.929 . S
C988 C987 1.267 . S
C988 C989 1.251 . S
C989 H959 0.929 . S
C989 N985 1.418 . S
C989 C988 1.251 . S
C990 H957 0.930 . S
C990 C992 1.406 . S
C990 C995 1.261 . S
C991 H958 0.930 . S
C991 N993 1.325 . S
C991 C994 1.357 . S
C992 H960 0.928 . S
C992 C990 1.406 . S
C992 N993 1.261 . S
N993 Co944 2.214 . S
N993 C991 1.325 . S
N993 C992 1.261 . S
C994 H964 0.931 . S
C994 C991 1.357 . S
C994 C995 1.312 . S
C995 H966 0.930 . S
C995 C990 1.261 . S
C995 C994 1.312 . S
C996 O968 1.214 . S
C996 O976 1.234 . S
C997 H969 0.929 . S
C997 C1000 1.391 . S
C997 C1002 1.391 . S
C998 H970 0.929 . S
C998 C999 1.390 . S
C998 N1001 1.391 . S
C999 H971 0.930 . S
C999 C998 1.390 . S
C999 C1000 1.392 . S
C1000 H972 0.929 . S
C1000 C997 1.391 . S
C1000 C999 1.392 . S
N1001 Co945 2.257 . S
N1001 C998 1.391 . S
N1001 C1002 1.388 . S
C1002 H973 0.930 . S
C1002 C997 1.391 . S
C1002 N1001 1.388 . S
Co1003 O1005 2.143 . S
Co1003 O1011 2.074 . S
Co1003 O1014 2.093 . S
Co1003 O1027 2.097 . S
Co1003 N1044 2.151 . S
Co1003 N1052 2.214 . S
Co1004 O1005 2.160 . S
Co1004 O1010 2.058 . S
Co1004 O1020 2.057 . S
Co1004 O1035 2.037 . S
Co1004 N1039 2.145 . S
Co1004 N1060 2.257 . S
O1005 Co1003 2.143 . S
O1005 Co1004 2.160 . S
C1006 O1007 1.278 . S
C1006 O1014 1.224 . S
O1007 C1006 1.278 . S
C1008 O1009 1.245 . S
C1008 O1020 1.232 . S
O1009 C1008 1.245 . S
O1010 Co1004 2.058 . S
O1010 C1036 1.269 . S
O1011 Co1003 2.074 . S
O1011 C1036 1.257 . S
H1012 C1037 0.930 . S
H1013 C1043 0.930 . S
O1014 Co1003 2.093 . S
O1014 C1006 1.224 . S
H1015 C1047 0.929 . S
H1016 C1049 0.930 . S
H1017 C1050 0.930 . S
H1018 C1048 0.929 . S
H1019 C1051 0.928 . S
O1020 Co1004 2.057 . S
O1020 C1008 1.232 . S
H1021 C1040 0.929 . S
H1022 C1041 0.929 . S
H1023 C1053 0.931 . S
H1024 C1045 0.929 . S
H1025 C1054 0.930 . S
H1026 C1046 0.931 . S
O1027 Co1003 2.097 . S
O1027 C1055 1.214 . S
H1028 C1056 0.929 . S
H1029 C1057 0.929 . S
H1030 C1058 0.930 . S
H1031 C1059 0.929 . S
H1032 C1061 0.930 . S
H1033 C1038 0.930 . S
H1034 C1042 0.930 . S
O1035 Co1004 2.037 . S
O1035 C1055 1.234 . S
C1036 O1010 1.269 . S
C1036 O1011 1.257 . S
C1037 H1012 0.930 . S
C1037 C1040 1.388 . S
C1037 C1042 1.418 . S
C1038 H1033 0.930 . S
C1038 C1041 1.404 . S
C1038 C1042 1.353 . S
N1039 Co1004 2.145 . S
N1039 C1040 1.397 . S
N1039 C1041 1.334 . S
C1040 H1021 0.929 . S
C1040 C1037 1.388 . S
C1040 N1039 1.397 . S
C1041 H1022 0.929 . S
C1041 C1038 1.404 . S
C1041 N1039 1.334 . S
C1042 H1034 0.930 . S
C1042 C1037 1.418 . S
C1042 C1038 1.353 . S
C1043 H1013 0.930 . S
C1043 N1044 1.330 . S
C1043 C1045 1.446 . S
N1044 Co1003 2.151 . S
N1044 C1043 1.330 . S
N1044 C1048 1.418 . S
C1045 H1024 0.929 . S
C1045 C1043 1.446 . S
C1045 C1046 1.332 . S
C1046 H1026 0.931 . S
C1046 C1045 1.332 . S
C1046 C1047 1.267 . S
C1047 H1015 0.929 . S
C1047 C1046 1.267 . S
C1047 C1048 1.251 . S
C1048 H1018 0.929 . S
C1048 N1044 1.418 . S
C1048 C1047 1.251 . S
C1049 H1016 0.930 . S
C1049 C1051 1.406 . S
C1049 C1054 1.261 . S
C1050 H1017 0.930 . S
C1050 N1052 1.325 . S
C1050 C1053 1.357 . S
C1051 H1019 0.928 . S
C1051 C1049 1.406 . S
C1051 N1052 1.261 . S
N1052 Co1003 2.214 . S
N1052 C1050 1.325 . S
N1052 C1051 1.261 . S
C1053 H1023 0.931 . S
C1053 C1050 1.357 . S
C1053 C1054 1.312 . S
C1054 H1025 0.930 . S
C1054 C1049 1.261 . S
C1054 C1053 1.312 . S
C1055 O1027 1.214 . S
C1055 O1035 1.234 . S
C1056 H1028 0.929 . S
C1056 C1059 1.391 . S
C1056 C1061 1.391 . S
C1057 H1029 0.929 . S
C1057 C1058 1.390 . S
C1057 N1060 1.391 . S
C1058 H1030 0.930 . S
C1058 C1057 1.390 . S
C1058 C1059 1.392 . S
C1059 H1031 0.929 . S
C1059 C1056 1.391 . S
C1059 C1058 1.392 . S
N1060 Co1004 2.257 . S
N1060 C1057 1.391 . S
N1060 C1061 1.388 . S
C1061 H1032 0.930 . S
C1061 C1056 1.391 . S
C1061 N1060 1.388 . S
Co1062 O1064 2.143 . S
Co1062 O1070 2.074 . S
Co1062 O1073 2.093 . S
Co1062 O1086 2.097 . S
Co1062 N1103 2.151 . S
Co1062 N1111 2.214 . S
Co1063 O1064 2.160 . S
Co1063 O1069 2.058 . S
Co1063 O1079 2.057 . S
Co1063 O1094 2.037 . S
Co1063 N1098 2.145 . S
Co1063 N1119 2.257 . S
O1064 Co1062 2.143 . S
O1064 Co1063 2.160 . S
C1065 O1066 1.278 . S
C1065 O1073 1.224 . S
O1066 C1065 1.278 . S
C1067 O1068 1.245 . S
C1067 O1079 1.232 . S
O1068 C1067 1.245 . S
O1069 Co1063 2.058 . S
O1069 C1095 1.269 . S
O1070 Co1062 2.074 . S
O1070 C1095 1.257 . S
H1071 C1096 0.930 . S
H1072 C1102 0.930 . S
O1073 Co1062 2.093 . S
O1073 C1065 1.224 . S
H1074 C1106 0.929 . S
H1075 C1108 0.930 . S
H1076 C1109 0.930 . S
H1077 C1107 0.929 . S
H1078 C1110 0.928 . S
O1079 Co1063 2.057 . S
O1079 C1067 1.232 . S
H1080 C1099 0.929 . S
H1081 C1100 0.929 . S
H1082 C1112 0.931 . S
H1083 C1104 0.929 . S
H1084 C1113 0.930 . S
H1085 C1105 0.931 . S
O1086 Co1062 2.097 . S
O1086 C1114 1.214 . S
H1087 C1115 0.929 . S
H1088 C1116 0.929 . S
H1089 C1117 0.930 . S
H1090 C1118 0.929 . S
H1091 C1120 0.930 . S
H1092 C1097 0.930 . S
H1093 C1101 0.930 . S
O1094 Co1063 2.037 . S
O1094 C1114 1.234 . S
C1095 O1069 1.269 . S
C1095 O1070 1.257 . S
C1096 H1071 0.930 . S
C1096 C1099 1.388 . S
C1096 C1101 1.418 . S
C1097 H1092 0.930 . S
C1097 C1100 1.404 . S
C1097 C1101 1.353 . S
N1098 Co1063 2.145 . S
N1098 C1099 1.397 . S
N1098 C1100 1.334 . S
C1099 H1080 0.929 . S
C1099 C1096 1.388 . S
C1099 N1098 1.397 . S
C1100 H1081 0.929 . S
C1100 C1097 1.404 . S
C1100 N1098 1.334 . S
C1101 H1093 0.930 . S
C1101 C1096 1.418 . S
C1101 C1097 1.353 . S
C1102 H1072 0.930 . S
C1102 N1103 1.330 . S
C1102 C1104 1.446 . S
N1103 Co1062 2.151 . S
N1103 C1102 1.330 . S
N1103 C1107 1.418 . S
C1104 H1083 0.929 . S
C1104 C1102 1.446 . S
C1104 C1105 1.332 . S
C1105 H1085 0.931 . S
C1105 C1104 1.332 . S
C1105 C1106 1.267 . S
C1106 H1074 0.929 . S
C1106 C1105 1.267 . S
C1106 C1107 1.251 . S
C1107 H1077 0.929 . S
C1107 N1103 1.418 . S
C1107 C1106 1.251 . S
C1108 H1075 0.930 . S
C1108 C1110 1.406 . S
C1108 C1113 1.261 . S
C1109 H1076 0.930 . S
C1109 N1111 1.325 . S
C1109 C1112 1.357 . S
C1110 H1078 0.928 . S
C1110 C1108 1.406 . S
C1110 N1111 1.261 . S
N1111 Co1062 2.214 . S
N1111 C1109 1.325 . S
N1111 C1110 1.261 . S
C1112 H1082 0.931 . S
C1112 C1109 1.357 . S
C1112 C1113 1.312 . S
C1113 H1084 0.930 . S
C1113 C1108 1.261 . S
C1113 C1112 1.312 . S
C1114 O1086 1.214 . S
C1114 O1094 1.234 . S
C1115 H1087 0.929 . S
C1115 C1118 1.391 . S
C1115 C1120 1.391 . S
C1116 H1088 0.929 . S
C1116 C1117 1.390 . S
C1116 N1119 1.391 . S
C1117 H1089 0.930 . S
C1117 C1116 1.390 . S
C1117 C1118 1.392 . S
C1118 H1090 0.929 . S
C1118 C1115 1.391 . S
C1118 C1117 1.392 . S
N1119 Co1063 2.257 . S
N1119 C1116 1.391 . S
N1119 C1120 1.388 . S
C1120 H1091 0.930 . S
C1120 C1115 1.391 . S
C1120 N1119 1.388 . S
Co1121 O1123 2.143 . S
Co1121 O1129 2.074 . S
Co1121 O1132 2.093 . S
Co1121 O1145 2.097 . S
Co1121 N1162 2.151 . S
Co1121 N1170 2.214 . S
Co1122 O1123 2.160 . S
Co1122 O1128 2.058 . S
Co1122 O1138 2.057 . S
Co1122 O1153 2.037 . S
Co1122 N1157 2.145 . S
Co1122 N1178 2.257 . S
O1123 Co1121 2.143 . S
O1123 Co1122 2.160 . S
C1124 O1125 1.278 . S
C1124 O1132 1.224 . S
O1125 C1124 1.278 . S
C1126 O1127 1.245 . S
C1126 O1138 1.232 . S
O1127 C1126 1.245 . S
O1128 Co1122 2.058 . S
O1128 C1154 1.269 . S
O1129 Co1121 2.074 . S
O1129 C1154 1.257 . S
H1130 C1155 0.930 . S
H1131 C1161 0.930 . S
O1132 Co1121 2.093 . S
O1132 C1124 1.224 . S
H1133 C1165 0.929 . S
H1134 C1167 0.930 . S
H1135 C1168 0.930 . S
H1136 C1166 0.929 . S
H1137 C1169 0.928 . S
O1138 Co1122 2.057 . S
O1138 C1126 1.232 . S
H1139 C1158 0.929 . S
H1140 C1159 0.929 . S
H1141 C1171 0.931 . S
H1142 C1163 0.929 . S
H1143 C1172 0.930 . S
H1144 C1164 0.931 . S
O1145 Co1121 2.097 . S
O1145 C1173 1.214 . S
H1146 C1174 0.929 . S
H1147 C1175 0.929 . S
H1148 C1176 0.930 . S
H1149 C1177 0.929 . S
H1150 C1179 0.930 . S
H1151 C1156 0.930 . S
H1152 C1160 0.930 . S
O1153 Co1122 2.037 . S
O1153 C1173 1.234 . S
C1154 O1128 1.269 . S
C1154 O1129 1.257 . S
C1155 H1130 0.930 . S
C1155 C1158 1.388 . S
C1155 C1160 1.418 . S
C1156 H1151 0.930 . S
C1156 C1159 1.404 . S
C1156 C1160 1.353 . S
N1157 Co1122 2.145 . S
N1157 C1158 1.397 . S
N1157 C1159 1.334 . S
C1158 H1139 0.929 . S
C1158 C1155 1.388 . S
C1158 N1157 1.397 . S
C1159 H1140 0.929 . S
C1159 C1156 1.404 . S
C1159 N1157 1.334 . S
C1160 H1152 0.930 . S
C1160 C1155 1.418 . S
C1160 C1156 1.353 . S
C1161 H1131 0.930 . S
C1161 N1162 1.330 . S
C1161 C1163 1.446 . S
N1162 Co1121 2.151 . S
N1162 C1161 1.330 . S
N1162 C1166 1.418 . S
C1163 H1142 0.929 . S
C1163 C1161 1.446 . S
C1163 C1164 1.332 . S
C1164 H1144 0.931 . S
C1164 C1163 1.332 . S
C1164 C1165 1.267 . S
C1165 H1133 0.929 . S
C1165 C1164 1.267 . S
C1165 C1166 1.251 . S
C1166 H1136 0.929 . S
C1166 N1162 1.418 . S
C1166 C1165 1.251 . S
C1167 H1134 0.930 . S
C1167 C1169 1.406 . S
C1167 C1172 1.261 . S
C1168 H1135 0.930 . S
C1168 N1170 1.325 . S
C1168 C1171 1.357 . S
C1169 H1137 0.928 . S
C1169 C1167 1.406 . S
C1169 N1170 1.261 . S
N1170 Co1121 2.214 . S
N1170 C1168 1.325 . S
N1170 C1169 1.261 . S
C1171 H1141 0.931 . S
C1171 C1168 1.357 . S
C1171 C1172 1.312 . S
C1172 H1143 0.930 . S
C1172 C1167 1.261 . S
C1172 C1171 1.312 . S
C1173 O1145 1.214 . S
C1173 O1153 1.234 . S
C1174 H1146 0.929 . S
C1174 C1177 1.391 1_655 S
C1174 C1179 1.391 . S
C1175 H1147 0.929 . S
C1175 C1176 1.390 1_655 S
C1175 N1178 1.391 . S
C1176 H1148 0.930 . S
C1176 C1175 1.390 1_455 S
C1176 C1177 1.392 . S
C1177 H1149 0.929 . S
C1177 C1174 1.391 1_455 S
C1177 C1176 1.392 . S
N1178 Co1122 2.257 . S
N1178 C1175 1.391 . S
N1178 C1179 1.388 . S
C1179 H1150 0.930 . S
C1179 C1174 1.391 . S
C1179 N1178 1.388 . S
Co1180 O1182 2.143 . S
Co1180 O1188 2.074 . S
Co1180 O1191 2.093 . S
Co1180 O1204 2.097 . S
Co1180 N1221 2.151 . S
Co1180 N1229 2.214 . S
Co1181 O1182 2.160 . S
Co1181 O1187 2.058 . S
Co1181 O1197 2.057 . S
Co1181 O1212 2.037 . S
Co1181 N1216 2.145 . S
Co1181 N1237 2.257 . S
O1182 Co1180 2.143 . S
O1182 Co1181 2.160 . S
C1183 O1184 1.278 . S
C1183 O1191 1.224 . S
O1184 C1183 1.278 . S
C1185 O1186 1.245 . S
C1185 O1197 1.232 . S
O1186 C1185 1.245 . S
O1187 Co1181 2.058 . S
O1187 C1213 1.269 . S
O1188 Co1180 2.074 . S
O1188 C1213 1.257 . S
H1189 C1214 0.930 . S
H1190 C1220 0.930 . S
O1191 Co1180 2.093 . S
O1191 C1183 1.224 . S
H1192 C1224 0.929 . S
H1193 C1226 0.930 . S
H1194 C1227 0.930 . S
H1195 C1225 0.929 . S
H1196 C1228 0.928 . S
O1197 Co1181 2.057 . S
O1197 C1185 1.232 . S
H1198 C1217 0.929 . S
H1199 C1218 0.929 . S
H1200 C1230 0.931 . S
H1201 C1222 0.929 . S
H1202 C1231 0.930 . S
H1203 C1223 0.931 . S
O1204 Co1180 2.097 . S
O1204 C1232 1.214 . S
H1205 C1233 0.929 . S
H1206 C1234 0.929 . S
H1207 C1235 0.930 . S
H1208 C1236 0.929 . S
H1209 C1238 0.930 . S
H1210 C1215 0.930 . S
H1211 C1219 0.930 . S
O1212 Co1181 2.037 . S
O1212 C1232 1.234 . S
C1213 O1187 1.269 . S
C1213 O1188 1.257 . S
C1214 H1189 0.930 . S
C1214 C1217 1.388 . S
C1214 C1219 1.418 . S
C1215 H1210 0.930 . S
C1215 C1218 1.404 . S
C1215 C1219 1.353 . S
N1216 Co1181 2.145 . S
N1216 C1217 1.397 . S
N1216 C1218 1.334 . S
C1217 H1198 0.929 . S
C1217 C1214 1.388 . S
C1217 N1216 1.397 . S
C1218 H1199 0.929 . S
C1218 C1215 1.404 . S
C1218 N1216 1.334 . S
C1219 H1211 0.930 . S
C1219 C1214 1.418 . S
C1219 C1215 1.353 . S
C1220 H1190 0.930 . S
C1220 N1221 1.330 . S
C1220 C1222 1.446 . S
N1221 Co1180 2.151 . S
N1221 C1220 1.330 . S
N1221 C1225 1.418 . S
C1222 H1201 0.929 . S
C1222 C1220 1.446 . S
C1222 C1223 1.332 . S
C1223 H1203 0.931 . S
C1223 C1222 1.332 . S
C1223 C1224 1.267 . S
C1224 H1192 0.929 . S
C1224 C1223 1.267 . S
C1224 C1225 1.251 . S
C1225 H1195 0.929 . S
C1225 N1221 1.418 . S
C1225 C1224 1.251 . S
C1226 H1193 0.930 . S
C1226 C1228 1.406 . S
C1226 C1231 1.261 . S
C1227 H1194 0.930 . S
C1227 N1229 1.325 . S
C1227 C1230 1.357 . S
C1228 H1196 0.928 . S
C1228 C1226 1.406 . S
C1228 N1229 1.261 . S
N1229 Co1180 2.214 . S
N1229 C1227 1.325 . S
N1229 C1228 1.261 . S
C1230 H1200 0.931 . S
C1230 C1227 1.357 . S
C1230 C1231 1.312 . S
C1231 H1202 0.930 . S
C1231 C1226 1.261 . S
C1231 C1230 1.312 . S
C1232 O1204 1.214 . S
C1232 O1212 1.234 . S
C1233 H1205 0.929 . S
C1233 C1236 1.391 . S
C1233 C1238 1.391 . S
C1234 H1206 0.929 . S
C1234 C1235 1.390 . S
C1234 N1237 1.391 . S
C1235 H1207 0.930 . S
C1235 C1234 1.390 . S
C1235 C1236 1.392 . S
C1236 H1208 0.929 . S
C1236 C1233 1.391 . S
C1236 C1235 1.392 . S
N1237 Co1181 2.257 . S
N1237 C1234 1.391 . S
N1237 C1238 1.388 . S
C1238 H1209 0.930 . S
C1238 C1233 1.391 . S
C1238 N1237 1.388 . S
Co1239 O1241 2.143 . S
Co1239 O1247 2.074 . S
Co1239 O1250 2.093 . S
Co1239 O1263 2.097 . S
Co1239 N1280 2.151 . S
Co1239 N1288 2.214 . S
Co1240 O1241 2.160 . S
Co1240 O1246 2.058 . S
Co1240 O1256 2.057 . S
Co1240 O1271 2.037 . S
Co1240 N1275 2.145 . S
Co1240 N1296 2.257 . S
O1241 Co1239 2.143 . S
O1241 Co1240 2.160 . S
C1242 O1243 1.278 . S
C1242 O1250 1.224 . S
O1243 C1242 1.278 . S
C1244 O1245 1.245 . S
C1244 O1256 1.232 . S
O1245 C1244 1.245 . S
O1246 Co1240 2.058 . S
O1246 C1272 1.269 . S
O1247 Co1239 2.074 . S
O1247 C1272 1.257 . S
H1248 C1273 0.930 . S
H1249 C1279 0.930 . S
O1250 Co1239 2.093 . S
O1250 C1242 1.224 . S
H1251 C1283 0.929 . S
H1252 C1285 0.930 . S
H1253 C1286 0.930 . S
H1254 C1284 0.929 . S
H1255 C1287 0.928 . S
O1256 Co1240 2.057 . S
O1256 C1244 1.232 . S
H1257 C1276 0.929 . S
H1258 C1277 0.929 . S
H1259 C1289 0.931 . S
H1260 C1281 0.929 . S
H1261 C1290 0.930 . S
H1262 C1282 0.931 . S
O1263 Co1239 2.097 . S
O1263 C1291 1.214 . S
H1264 C1292 0.929 . S
H1265 C1293 0.929 . S
H1266 C1294 0.930 . S
H1267 C1295 0.929 . S
H1268 C1297 0.930 . S
H1269 C1274 0.930 . S
H1270 C1278 0.930 . S
O1271 Co1240 2.037 . S
O1271 C1291 1.234 . S
C1272 O1246 1.269 . S
C1272 O1247 1.257 . S
C1273 H1248 0.930 . S
C1273 C1276 1.388 . S
C1273 C1278 1.418 . S
C1274 H1269 0.930 . S
C1274 C1277 1.404 . S
C1274 C1278 1.353 . S
N1275 Co1240 2.145 . S
N1275 C1276 1.397 . S
N1275 C1277 1.334 . S
C1276 H1257 0.929 . S
C1276 C1273 1.388 . S
C1276 N1275 1.397 . S
C1277 H1258 0.929 . S
C1277 C1274 1.404 . S
C1277 N1275 1.334 . S
C1278 H1270 0.930 . S
C1278 C1273 1.418 . S
C1278 C1274 1.353 . S
C1279 H1249 0.930 . S
C1279 N1280 1.330 . S
C1279 C1281 1.446 . S
N1280 Co1239 2.151 . S
N1280 C1279 1.330 . S
N1280 C1284 1.418 . S
C1281 H1260 0.929 . S
C1281 C1279 1.446 . S
C1281 C1282 1.332 . S
C1282 H1262 0.931 . S
C1282 C1281 1.332 . S
C1282 C1283 1.267 . S
C1283 H1251 0.929 . S
C1283 C1282 1.267 . S
C1283 C1284 1.251 . S
C1284 H1254 0.929 . S
C1284 N1280 1.418 . S
C1284 C1283 1.251 . S
C1285 H1252 0.930 . S
C1285 C1287 1.406 . S
C1285 C1290 1.261 . S
C1286 H1253 0.930 . S
C1286 N1288 1.325 . S
C1286 C1289 1.357 . S
C1287 H1255 0.928 . S
C1287 C1285 1.406 . S
C1287 N1288 1.261 . S
N1288 Co1239 2.214 . S
N1288 C1286 1.325 . S
N1288 C1287 1.261 . S
C1289 H1259 0.931 . S
C1289 C1286 1.357 . S
C1289 C1290 1.312 . S
C1290 H1261 0.930 . S
C1290 C1285 1.261 . S
C1290 C1289 1.312 . S
C1291 O1263 1.214 . S
C1291 O1271 1.234 . S
C1292 H1264 0.929 . S
C1292 C1295 1.391 1_655 S
C1292 C1297 1.391 . S
C1293 H1265 0.929 . S
C1293 C1294 1.390 1_655 S
C1293 N1296 1.391 . S
C1294 H1266 0.930 . S
C1294 C1293 1.390 1_455 S
C1294 C1295 1.392 . S
C1295 H1267 0.929 . S
C1295 C1292 1.391 1_455 S
C1295 C1294 1.392 . S
N1296 Co1240 2.257 . S
N1296 C1293 1.391 . S
N1296 C1297 1.388 . S
C1297 H1268 0.930 . S
C1297 C1292 1.391 . S
C1297 N1296 1.388 . S
Co1298 O1300 2.143 . S
Co1298 O1306 2.074 . S
Co1298 O1309 2.093 . S
Co1298 O1322 2.097 . S
Co1298 N1339 2.151 . S
Co1298 N1347 2.214 . S
Co1299 O1300 2.160 . S
Co1299 O1305 2.058 . S
Co1299 O1315 2.057 . S
Co1299 O1330 2.037 . S
Co1299 N1334 2.145 . S
Co1299 N1355 2.257 . S
O1300 Co1298 2.143 . S
O1300 Co1299 2.160 . S
C1301 O1302 1.278 . S
C1301 O1309 1.224 . S
O1302 C1301 1.278 . S
C1303 O1304 1.245 . S
C1303 O1315 1.232 . S
O1304 C1303 1.245 . S
O1305 Co1299 2.058 . S
O1305 C1331 1.269 . S
O1306 Co1298 2.074 . S
O1306 C1331 1.257 . S
H1307 C1332 0.930 . S
H1308 C1338 0.930 . S
O1309 Co1298 2.093 . S
O1309 C1301 1.224 . S
H1310 C1342 0.929 . S
H1311 C1344 0.930 . S
H1312 C1345 0.930 . S
H1313 C1343 0.929 . S
H1314 C1346 0.928 . S
O1315 Co1299 2.057 . S
O1315 C1303 1.232 . S
H1316 C1335 0.929 . S
H1317 C1336 0.929 . S
H1318 C1348 0.931 . S
H1319 C1340 0.929 . S
H1320 C1349 0.930 . S
H1321 C1341 0.931 . S
O1322 Co1298 2.097 . S
O1322 C1350 1.214 . S
H1323 C1351 0.929 . S
H1324 C1352 0.929 . S
H1325 C1353 0.930 . S
H1326 C1354 0.929 . S
H1327 C1356 0.930 . S
H1328 C1333 0.930 . S
H1329 C1337 0.930 . S
O1330 Co1299 2.037 . S
O1330 C1350 1.234 . S
C1331 O1305 1.269 . S
C1331 O1306 1.257 . S
C1332 H1307 0.930 . S
C1332 C1335 1.388 . S
C1332 C1337 1.418 . S
C1333 H1328 0.930 . S
C1333 C1336 1.404 . S
C1333 C1337 1.353 . S
N1334 Co1299 2.145 . S
N1334 C1335 1.397 . S
N1334 C1336 1.334 . S
C1335 H1316 0.929 . S
C1335 C1332 1.388 . S
C1335 N1334 1.397 . S
C1336 H1317 0.929 . S
C1336 C1333 1.404 . S
C1336 N1334 1.334 . S
C1337 H1329 0.930 . S
C1337 C1332 1.418 . S
C1337 C1333 1.353 . S
C1338 H1308 0.930 . S
C1338 N1339 1.330 . S
C1338 C1340 1.446 . S
N1339 Co1298 2.151 . S
N1339 C1338 1.330 . S
N1339 C1343 1.418 . S
C1340 H1319 0.929 . S
C1340 C1338 1.446 . S
C1340 C1341 1.332 . S
C1341 H1321 0.931 . S
C1341 C1340 1.332 . S
C1341 C1342 1.267 . S
C1342 H1310 0.929 . S
C1342 C1341 1.267 . S
C1342 C1343 1.251 . S
C1343 H1313 0.929 . S
C1343 N1339 1.418 . S
C1343 C1342 1.251 . S
C1344 H1311 0.930 . S
C1344 C1346 1.406 . S
C1344 C1349 1.261 . S
C1345 H1312 0.930 . S
C1345 N1347 1.325 . S
C1345 C1348 1.357 . S
C1346 H1314 0.928 . S
C1346 C1344 1.406 . S
C1346 N1347 1.261 . S
N1347 Co1298 2.214 . S
N1347 C1345 1.325 . S
N1347 C1346 1.261 . S
C1348 H1318 0.931 . S
C1348 C1345 1.357 . S
C1348 C1349 1.312 . S
C1349 H1320 0.930 . S
C1349 C1344 1.261 . S
C1349 C1348 1.312 . S
C1350 O1322 1.214 . S
C1350 O1330 1.234 . S
C1351 H1323 0.929 . S
C1351 C1354 1.391 . S
C1351 C1356 1.391 . S
C1352 H1324 0.929 . S
C1352 C1353 1.390 . S
C1352 N1355 1.391 . S
C1353 H1325 0.930 . S
C1353 C1352 1.390 . S
C1353 C1354 1.392 . S
C1354 H1326 0.929 . S
C1354 C1351 1.391 . S
C1354 C1353 1.392 . S
N1355 Co1299 2.257 . S
N1355 C1352 1.391 . S
N1355 C1356 1.388 . S
C1356 H1327 0.930 . S
C1356 C1351 1.391 . S
C1356 N1355 1.388 . S
Co1357 O1359 2.143 . S
Co1357 O1365 2.074 . S
Co1357 O1368 2.093 . S
Co1357 O1381 2.097 . S
Co1357 N1398 2.151 . S
Co1357 N1406 2.214 . S
Co1358 O1359 2.160 . S
Co1358 O1364 2.058 . S
Co1358 O1374 2.057 . S
Co1358 O1389 2.037 . S
Co1358 N1393 2.145 . S
Co1358 N1414 2.257 . S
O1359 Co1357 2.143 . S
O1359 Co1358 2.160 . S
C1360 O1361 1.278 . S
C1360 O1368 1.224 . S
O1361 C1360 1.278 . S
C1362 O1363 1.245 . S
C1362 O1374 1.232 . S
O1363 C1362 1.245 . S
O1364 Co1358 2.058 . S
O1364 C1390 1.269 . S
O1365 Co1357 2.074 . S
O1365 C1390 1.257 . S
H1366 C1391 0.930 . S
H1367 C1397 0.930 . S
O1368 Co1357 2.093 . S
O1368 C1360 1.224 . S
H1369 C1401 0.929 . S
H1370 C1403 0.930 . S
H1371 C1404 0.930 . S
H1372 C1402 0.929 . S
H1373 C1405 0.928 . S
O1374 Co1358 2.057 . S
O1374 C1362 1.232 . S
H1375 C1394 0.929 . S
H1376 C1395 0.929 . S
H1377 C1407 0.931 . S
H1378 C1399 0.929 . S
H1379 C1408 0.930 . S
H1380 C1400 0.931 . S
O1381 Co1357 2.097 . S
O1381 C1409 1.214 . S
H1382 C1410 0.929 . S
H1383 C1411 0.929 . S
H1384 C1412 0.930 . S
H1385 C1413 0.929 . S
H1386 C1415 0.930 . S
H1387 C1392 0.930 . S
H1388 C1396 0.930 . S
O1389 Co1358 2.037 . S
O1389 C1409 1.234 . S
C1390 O1364 1.269 . S
C1390 O1365 1.257 . S
C1391 H1366 0.930 . S
C1391 C1394 1.388 . S
C1391 C1396 1.418 . S
C1392 H1387 0.930 . S
C1392 C1395 1.404 . S
C1392 C1396 1.353 . S
N1393 Co1358 2.145 . S
N1393 C1394 1.397 . S
N1393 C1395 1.334 . S
C1394 H1375 0.929 . S
C1394 C1391 1.388 . S
C1394 N1393 1.397 . S
C1395 H1376 0.929 . S
C1395 C1392 1.404 . S
C1395 N1393 1.334 . S
C1396 H1388 0.930 . S
C1396 C1391 1.418 . S
C1396 C1392 1.353 . S
C1397 H1367 0.930 . S
C1397 N1398 1.330 . S
C1397 C1399 1.446 . S
N1398 Co1357 2.151 . S
N1398 C1397 1.330 . S
N1398 C1402 1.418 . S
C1399 H1378 0.929 . S
C1399 C1397 1.446 . S
C1399 C1400 1.332 . S
C1400 H1380 0.931 . S
C1400 C1399 1.332 . S
C1400 C1401 1.267 . S
C1401 H1369 0.929 . S
C1401 C1400 1.267 . S
C1401 C1402 1.251 . S
C1402 H1372 0.929 . S
C1402 N1398 1.418 . S
C1402 C1401 1.251 . S
C1403 H1370 0.930 . S
C1403 C1405 1.406 . S
C1403 C1408 1.261 . S
C1404 H1371 0.930 . S
C1404 N1406 1.325 . S
C1404 C1407 1.357 . S
C1405 H1373 0.928 . S
C1405 C1403 1.406 . S
C1405 N1406 1.261 . S
N1406 Co1357 2.214 . S
N1406 C1404 1.325 . S
N1406 C1405 1.261 . S
C1407 H1377 0.931 . S
C1407 C1404 1.357 . S
C1407 C1408 1.312 . S
C1408 H1379 0.930 . S
C1408 C1403 1.261 . S
C1408 C1407 1.312 . S
C1409 O1381 1.214 . S
C1409 O1389 1.234 . S
C1410 H1382 0.929 . S
C1410 C1413 1.391 . S
C1410 C1415 1.391 . S
C1411 H1383 0.929 . S
C1411 C1412 1.390 . S
C1411 N1414 1.391 . S
C1412 H1384 0.930 . S
C1412 C1411 1.390 . S
C1412 C1413 1.392 . S
C1413 H1385 0.929 . S
C1413 C1410 1.391 . S
C1413 C1412 1.392 . S
N1414 Co1358 2.257 . S
N1414 C1411 1.391 . S
N1414 C1415 1.388 . S
C1415 H1386 0.930 . S
C1415 C1410 1.391 . S
C1415 N1414 1.388 . S
Co1416 O1418 2.143 . S
Co1416 O1424 2.074 . S
Co1416 O1427 2.093 . S
Co1416 O1440 2.097 . S
Co1416 N1457 2.151 . S
Co1416 N1465 2.214 . S
Co1417 O1418 2.160 . S
Co1417 O1423 2.058 . S
Co1417 O1433 2.057 . S
Co1417 O1448 2.037 . S
Co1417 N1452 2.145 . S
Co1417 N1473 2.257 . S
O1418 Co1416 2.143 . S
O1418 Co1417 2.160 . S
C1419 O1420 1.278 . S
C1419 O1427 1.224 . S
O1420 C1419 1.278 . S
C1421 O1422 1.245 . S
C1421 O1433 1.232 . S
O1422 C1421 1.245 . S
O1423 Co1417 2.058 . S
O1423 C1449 1.269 . S
O1424 Co1416 2.074 . S
O1424 C1449 1.257 . S
H1425 C1450 0.930 . S
H1426 C1456 0.930 . S
O1427 Co1416 2.093 . S
O1427 C1419 1.224 . S
H1428 C1460 0.929 . S
H1429 C1462 0.930 . S
H1430 C1463 0.930 . S
H1431 C1461 0.929 . S
H1432 C1464 0.928 . S
O1433 Co1417 2.057 . S
O1433 C1421 1.232 . S
H1434 C1453 0.929 . S
H1435 C1454 0.929 . S
H1436 C1466 0.931 . S
H1437 C1458 0.929 . S
H1438 C1467 0.930 . S
H1439 C1459 0.931 . S
O1440 Co1416 2.097 . S
O1440 C1468 1.214 . S
H1441 C1469 0.929 . S
H1442 C1470 0.929 . S
H1443 C1471 0.930 . S
H1444 C1472 0.929 . S
H1445 C1474 0.930 . S
H1446 C1451 0.930 . S
H1447 C1455 0.930 . S
O1448 Co1417 2.037 . S
O1448 C1468 1.234 . S
C1449 O1423 1.269 . S
C1449 O1424 1.257 . S
C1450 H1425 0.930 . S
C1450 C1453 1.388 . S
C1450 C1455 1.418 . S
C1451 H1446 0.930 . S
C1451 C1454 1.404 . S
C1451 C1455 1.353 . S
N1452 Co1417 2.145 . S
N1452 C1453 1.397 . S
N1452 C1454 1.334 . S
C1453 H1434 0.929 . S
C1453 C1450 1.388 . S
C1453 N1452 1.397 . S
C1454 H1435 0.929 . S
C1454 C1451 1.404 . S
C1454 N1452 1.334 . S
C1455 H1447 0.930 . S
C1455 C1450 1.418 . S
C1455 C1451 1.353 . S
C1456 H1426 0.930 . S
C1456 N1457 1.330 . S
C1456 C1458 1.446 . S
N1457 Co1416 2.151 . S
N1457 C1456 1.330 . S
N1457 C1461 1.418 . S
C1458 H1437 0.929 . S
C1458 C1456 1.446 . S
C1458 C1459 1.332 . S
C1459 H1439 0.931 . S
C1459 C1458 1.332 . S
C1459 C1460 1.267 . S
C1460 H1428 0.929 . S
C1460 C1459 1.267 . S
C1460 C1461 1.251 . S
C1461 H1431 0.929 . S
C1461 N1457 1.418 . S
C1461 C1460 1.251 . S
C1462 H1429 0.930 . S
C1462 C1464 1.406 . S
C1462 C1467 1.261 . S
C1463 H1430 0.930 . S
C1463 N1465 1.325 . S
C1463 C1466 1.357 . S
C1464 H1432 0.928 . S
C1464 C1462 1.406 . S
C1464 N1465 1.261 . S
N1465 Co1416 2.214 . S
N1465 C1463 1.325 . S
N1465 C1464 1.261 . S
C1466 H1436 0.931 . S
C1466 C1463 1.357 . S
C1466 C1467 1.312 . S
C1467 H1438 0.930 . S
C1467 C1462 1.261 . S
C1467 C1466 1.312 . S
C1468 O1440 1.214 . S
C1468 O1448 1.234 . S
C1469 H1441 0.929 . S
C1469 C1472 1.391 . S
C1469 C1474 1.391 . S
C1470 H1442 0.929 . S
C1470 C1471 1.390 . S
C1470 N1473 1.391 . S
C1471 H1443 0.930 . S
C1471 C1470 1.390 . S
C1471 C1472 1.392 . S
C1472 H1444 0.929 . S
C1472 C1469 1.391 . S
C1472 C1471 1.392 . S
N1473 Co1417 2.257 . S
N1473 C1470 1.391 . S
N1473 C1474 1.388 . S
C1474 H1445 0.930 . S
C1474 C1469 1.391 . S
C1474 N1473 1.388 . S
Co1475 O1477 2.143 . S
Co1475 O1483 2.074 . S
Co1475 O1486 2.093 . S
Co1475 O1499 2.097 . S
Co1475 N1516 2.151 . S
Co1475 N1524 2.214 . S
Co1476 O1477 2.160 . S
Co1476 O1482 2.058 . S
Co1476 O1492 2.057 . S
Co1476 O1507 2.037 . S
Co1476 N1511 2.145 . S
Co1476 N1532 2.257 . S
O1477 Co1475 2.143 . S
O1477 Co1476 2.160 . S
C1478 O1479 1.278 . S
C1478 O1486 1.224 . S
O1479 C1478 1.278 . S
C1480 O1481 1.245 . S
C1480 O1492 1.232 . S
O1481 C1480 1.245 . S
O1482 Co1476 2.058 . S
O1482 C1508 1.269 . S
O1483 Co1475 2.074 . S
O1483 C1508 1.257 . S
H1484 C1509 0.930 . S
H1485 C1515 0.930 . S
O1486 Co1475 2.093 . S
O1486 C1478 1.224 . S
H1487 C1519 0.929 . S
H1488 C1521 0.930 . S
H1489 C1522 0.930 . S
H1490 C1520 0.929 . S
H1491 C1523 0.928 . S
O1492 Co1476 2.057 . S
O1492 C1480 1.232 . S
H1493 C1512 0.929 . S
H1494 C1513 0.929 . S
H1495 C1525 0.931 . S
H1496 C1517 0.929 . S
H1497 C1526 0.930 . S
H1498 C1518 0.931 . S
O1499 Co1475 2.097 . S
O1499 C1527 1.214 . S
H1500 C1528 0.929 . S
H1501 C1529 0.929 . S
H1502 C1530 0.930 . S
H1503 C1531 0.929 . S
H1504 C1533 0.930 . S
H1505 C1510 0.930 . S
H1506 C1514 0.930 . S
O1507 Co1476 2.037 . S
O1507 C1527 1.234 . S
C1508 O1482 1.269 . S
C1508 O1483 1.257 . S
C1509 H1484 0.930 . S
C1509 C1512 1.388 . S
C1509 C1514 1.418 . S
C1510 H1505 0.930 . S
C1510 C1513 1.404 . S
C1510 C1514 1.353 . S
N1511 Co1476 2.145 . S
N1511 C1512 1.397 . S
N1511 C1513 1.334 . S
C1512 H1493 0.929 . S
C1512 C1509 1.388 . S
C1512 N1511 1.397 . S
C1513 H1494 0.929 . S
C1513 C1510 1.404 . S
C1513 N1511 1.334 . S
C1514 H1506 0.930 . S
C1514 C1509 1.418 . S
C1514 C1510 1.353 . S
C1515 H1485 0.930 . S
C1515 N1516 1.330 . S
C1515 C1517 1.446 . S
N1516 Co1475 2.151 . S
N1516 C1515 1.330 . S
N1516 C1520 1.418 . S
C1517 H1496 0.929 . S
C1517 C1515 1.446 . S
C1517 C1518 1.332 . S
C1518 H1498 0.931 . S
C1518 C1517 1.332 . S
C1518 C1519 1.267 . S
C1519 H1487 0.929 . S
C1519 C1518 1.267 . S
C1519 C1520 1.251 . S
C1520 H1490 0.929 . S
C1520 N1516 1.418 . S
C1520 C1519 1.251 . S
C1521 H1488 0.930 . S
C1521 C1523 1.406 . S
C1521 C1526 1.261 . S
C1522 H1489 0.930 . S
C1522 N1524 1.325 . S
C1522 C1525 1.357 . S
C1523 H1491 0.928 . S
C1523 C1521 1.406 . S
C1523 N1524 1.261 . S
N1524 Co1475 2.214 . S
N1524 C1522 1.325 . S
N1524 C1523 1.261 . S
C1525 H1495 0.931 . S
C1525 C1522 1.357 . S
C1525 C1526 1.312 . S
C1526 H1497 0.930 . S
C1526 C1521 1.261 . S
C1526 C1525 1.312 . S
C1527 O1499 1.214 . S
C1527 O1507 1.234 . S
C1528 H1500 0.929 . S
C1528 C1531 1.391 . S
C1528 C1533 1.391 . S
C1529 H1501 0.929 . S
C1529 C1530 1.390 . S
C1529 N1532 1.391 . S
C1530 H1502 0.930 . S
C1530 C1529 1.390 . S
C1530 C1531 1.392 . S
C1531 H1503 0.929 . S
C1531 C1528 1.391 . S
C1531 C1530 1.392 . S
N1532 Co1476 2.257 . S
N1532 C1529 1.391 . S
N1532 C1533 1.388 . S
C1533 H1504 0.930 . S
C1533 C1528 1.391 . S
C1533 N1532 1.388 . S
Co1534 O1536 2.143 . S
Co1534 O1542 2.074 . S
Co1534 O1545 2.093 . S
Co1534 O1558 2.097 . S
Co1534 N1575 2.151 . S
Co1534 N1583 2.214 . S
Co1535 O1536 2.160 . S
Co1535 O1541 2.058 . S
Co1535 O1551 2.057 . S
Co1535 O1566 2.037 . S
Co1535 N1570 2.145 . S
Co1535 N1591 2.257 . S
O1536 Co1534 2.143 . S
O1536 Co1535 2.160 . S
C1537 O1538 1.278 . S
C1537 O1545 1.224 . S
O1538 C1537 1.278 . S
C1539 O1540 1.245 . S
C1539 O1551 1.232 . S
O1540 C1539 1.245 . S
O1541 Co1535 2.058 . S
O1541 C1567 1.269 . S
O1542 Co1534 2.074 . S
O1542 C1567 1.257 . S
H1543 C1568 0.930 . S
H1544 C1574 0.930 . S
O1545 Co1534 2.093 . S
O1545 C1537 1.224 . S
H1546 C1578 0.929 . S
H1547 C1580 0.930 . S
H1548 C1581 0.930 . S
H1549 C1579 0.929 . S
H1550 C1582 0.928 . S
O1551 Co1535 2.057 . S
O1551 C1539 1.232 . S
H1552 C1571 0.929 . S
H1553 C1572 0.929 . S
H1554 C1584 0.931 . S
H1555 C1576 0.929 . S
H1556 C1585 0.930 . S
H1557 C1577 0.931 . S
O1558 Co1534 2.097 . S
O1558 C1586 1.214 . S
H1559 C1587 0.929 . S
H1560 C1588 0.929 . S
H1561 C1589 0.930 . S
H1562 C1590 0.929 . S
H1563 C1592 0.930 . S
H1564 C1569 0.930 . S
H1565 C1573 0.930 . S
O1566 Co1535 2.037 . S
O1566 C1586 1.234 . S
C1567 O1541 1.269 . S
C1567 O1542 1.257 . S
C1568 H1543 0.930 . S
C1568 C1571 1.388 . S
C1568 C1573 1.418 . S
C1569 H1564 0.930 . S
C1569 C1572 1.404 . S
C1569 C1573 1.353 . S
N1570 Co1535 2.145 . S
N1570 C1571 1.397 . S
N1570 C1572 1.334 . S
C1571 H1552 0.929 . S
C1571 C1568 1.388 . S
C1571 N1570 1.397 . S
C1572 H1553 0.929 . S
C1572 C1569 1.404 . S
C1572 N1570 1.334 . S
C1573 H1565 0.930 . S
C1573 C1568 1.418 . S
C1573 C1569 1.353 . S
C1574 H1544 0.930 . S
C1574 N1575 1.330 . S
C1574 C1576 1.446 . S
N1575 Co1534 2.151 . S
N1575 C1574 1.330 . S
N1575 C1579 1.418 . S
C1576 H1555 0.929 . S
C1576 C1574 1.446 . S
C1576 C1577 1.332 . S
C1577 H1557 0.931 . S
C1577 C1576 1.332 . S
C1577 C1578 1.267 . S
C1578 H1546 0.929 . S
C1578 C1577 1.267 . S
C1578 C1579 1.251 . S
C1579 H1549 0.929 . S
C1579 N1575 1.418 . S
C1579 C1578 1.251 . S
C1580 H1547 0.930 . S
C1580 C1582 1.406 . S
C1580 C1585 1.261 . S
C1581 H1548 0.930 . S
C1581 N1583 1.325 . S
C1581 C1584 1.357 . S
C1582 H1550 0.928 . S
C1582 C1580 1.406 . S
C1582 N1583 1.261 . S
N1583 Co1534 2.214 . S
N1583 C1581 1.325 . S
N1583 C1582 1.261 . S
C1584 H1554 0.931 . S
C1584 C1581 1.357 . S
C1584 C1585 1.312 . S
C1585 H1556 0.930 . S
C1585 C1580 1.261 . S
C1585 C1584 1.312 . S
C1586 O1558 1.214 . S
C1586 O1566 1.234 . S
C1587 H1559 0.929 . S
C1587 C1590 1.391 . S
C1587 C1592 1.391 . S
C1588 H1560 0.929 . S
C1588 C1589 1.390 . S
C1588 N1591 1.391 . S
C1589 H1561 0.930 . S
C1589 C1588 1.390 . S
C1589 C1590 1.392 . S
C1590 H1562 0.929 . S
C1590 C1587 1.391 . S
C1590 C1589 1.392 . S
N1591 Co1535 2.257 . S
N1591 C1588 1.391 . S
N1591 C1592 1.388 . S
C1592 H1563 0.930 . S
C1592 C1587 1.391 . S
C1592 N1591 1.388 . S
Co1593 O1595 2.143 . S
Co1593 O1601 2.074 . S
Co1593 O1604 2.093 . S
Co1593 O1617 2.097 . S
Co1593 N1634 2.151 . S
Co1593 N1642 2.214 . S
Co1594 O1595 2.160 . S
Co1594 O1600 2.058 . S
Co1594 O1610 2.057 . S
Co1594 O1625 2.037 . S
Co1594 N1629 2.145 . S
Co1594 N1650 2.257 . S
O1595 Co1593 2.143 . S
O1595 Co1594 2.160 . S
C1596 O1597 1.278 . S
C1596 O1604 1.224 . S
O1597 C1596 1.278 . S
C1598 O1599 1.245 . S
C1598 O1610 1.232 . S
O1599 C1598 1.245 . S
O1600 Co1594 2.058 . S
O1600 C1626 1.269 . S
O1601 Co1593 2.074 . S
O1601 C1626 1.257 . S
H1602 C1627 0.930 . S
H1603 C1633 0.930 . S
O1604 Co1593 2.093 . S
O1604 C1596 1.224 . S
H1605 C1637 0.929 . S
H1606 C1639 0.930 . S
H1607 C1640 0.930 . S
H1608 C1638 0.929 . S
H1609 C1641 0.928 . S
O1610 Co1594 2.057 . S
O1610 C1598 1.232 . S
H1611 C1630 0.929 . S
H1612 C1631 0.929 . S
H1613 C1643 0.931 . S
H1614 C1635 0.929 . S
H1615 C1644 0.930 . S
H1616 C1636 0.931 . S
O1617 Co1593 2.097 . S
O1617 C1645 1.214 . S
H1618 C1646 0.929 . S
H1619 C1647 0.929 . S
H1620 C1648 0.930 . S
H1621 C1649 0.929 . S
H1622 C1651 0.930 . S
H1623 C1628 0.930 . S
H1624 C1632 0.930 . S
O1625 Co1594 2.037 . S
O1625 C1645 1.234 . S
C1626 O1600 1.269 . S
C1626 O1601 1.257 . S
C1627 H1602 0.930 . S
C1627 C1630 1.388 . S
C1627 C1632 1.418 . S
C1628 H1623 0.930 . S
C1628 C1631 1.404 . S
C1628 C1632 1.353 . S
N1629 Co1594 2.145 . S
N1629 C1630 1.397 . S
N1629 C1631 1.334 . S
C1630 H1611 0.929 . S
C1630 C1627 1.388 . S
C1630 N1629 1.397 . S
C1631 H1612 0.929 . S
C1631 C1628 1.404 . S
C1631 N1629 1.334 . S
C1632 H1624 0.930 . S
C1632 C1627 1.418 . S
C1632 C1628 1.353 . S
C1633 H1603 0.930 . S
C1633 N1634 1.330 . S
C1633 C1635 1.446 . S
N1634 Co1593 2.151 . S
N1634 C1633 1.330 . S
N1634 C1638 1.418 . S
C1635 H1614 0.929 . S
C1635 C1633 1.446 . S
C1635 C1636 1.332 . S
C1636 H1616 0.931 . S
C1636 C1635 1.332 . S
C1636 C1637 1.267 . S
C1637 H1605 0.929 . S
C1637 C1636 1.267 . S
C1637 C1638 1.251 . S
C1638 H1608 0.929 . S
C1638 N1634 1.418 . S
C1638 C1637 1.251 . S
C1639 H1606 0.930 . S
C1639 C1641 1.406 . S
C1639 C1644 1.261 . S
C1640 H1607 0.930 . S
C1640 N1642 1.325 . S
C1640 C1643 1.357 . S
C1641 H1609 0.928 . S
C1641 C1639 1.406 . S
C1641 N1642 1.261 . S
N1642 Co1593 2.214 . S
N1642 C1640 1.325 . S
N1642 C1641 1.261 . S
C1643 H1613 0.931 . S
C1643 C1640 1.357 . S
C1643 C1644 1.312 . S
C1644 H1615 0.930 . S
C1644 C1639 1.261 . S
C1644 C1643 1.312 . S
C1645 O1617 1.214 . S
C1645 O1625 1.234 . S
C1646 H1618 0.929 . S
C1646 C1649 1.391 1_455 S
C1646 C1651 1.391 . S
C1647 H1619 0.929 . S
C1647 C1648 1.390 1_455 S
C1647 N1650 1.391 . S
C1648 H1620 0.930 . S
C1648 C1647 1.390 1_655 S
C1648 C1649 1.392 . S
C1649 H1621 0.929 . S
C1649 C1646 1.391 1_655 S
C1649 C1648 1.392 . S
N1650 Co1594 2.257 . S
N1650 C1647 1.391 . S
N1650 C1651 1.388 . S
C1651 H1622 0.930 . S
C1651 C1646 1.391 . S
C1651 N1650 1.388 . S
Co1652 O1654 2.143 . S
Co1652 O1660 2.074 . S
Co1652 O1663 2.093 . S
Co1652 O1676 2.097 . S
Co1652 N1693 2.151 . S
Co1652 N1701 2.214 . S
Co1653 O1654 2.160 . S
Co1653 O1659 2.058 . S
Co1653 O1669 2.057 . S
Co1653 O1684 2.037 . S
Co1653 N1688 2.145 . S
Co1653 N1709 2.257 . S
O1654 Co1652 2.143 . S
O1654 Co1653 2.160 . S
C1655 O1656 1.278 . S
C1655 O1663 1.224 . S
O1656 C1655 1.278 . S
C1657 O1658 1.245 . S
C1657 O1669 1.232 . S
O1658 C1657 1.245 . S
O1659 Co1653 2.058 . S
O1659 C1685 1.269 . S
O1660 Co1652 2.074 . S
O1660 C1685 1.257 . S
H1661 C1686 0.930 . S
H1662 C1692 0.930 . S
O1663 Co1652 2.093 . S
O1663 C1655 1.224 . S
H1664 C1696 0.929 . S
H1665 C1698 0.930 . S
H1666 C1699 0.930 . S
H1667 C1697 0.929 . S
H1668 C1700 0.928 . S
O1669 Co1653 2.057 . S
O1669 C1657 1.232 . S
H1670 C1689 0.929 . S
H1671 C1690 0.929 . S
H1672 C1702 0.931 . S
H1673 C1694 0.929 . S
H1674 C1703 0.930 . S
H1675 C1695 0.931 . S
O1676 Co1652 2.097 . S
O1676 C1704 1.214 . S
H1677 C1705 0.929 . S
H1678 C1706 0.929 . S
H1679 C1707 0.930 . S
H1680 C1708 0.929 . S
H1681 C1710 0.930 . S
H1682 C1687 0.930 . S
H1683 C1691 0.930 . S
O1684 Co1653 2.037 . S
O1684 C1704 1.234 . S
C1685 O1659 1.269 . S
C1685 O1660 1.257 . S
C1686 H1661 0.930 . S
C1686 C1689 1.388 . S
C1686 C1691 1.418 . S
C1687 H1682 0.930 . S
C1687 C1690 1.404 . S
C1687 C1691 1.353 . S
N1688 Co1653 2.145 . S
N1688 C1689 1.397 . S
N1688 C1690 1.334 . S
C1689 H1670 0.929 . S
C1689 C1686 1.388 . S
C1689 N1688 1.397 . S
C1690 H1671 0.929 . S
C1690 C1687 1.404 . S
C1690 N1688 1.334 . S
C1691 H1683 0.930 . S
C1691 C1686 1.418 . S
C1691 C1687 1.353 . S
C1692 H1662 0.930 . S
C1692 N1693 1.330 . S
C1692 C1694 1.446 . S
N1693 Co1652 2.151 . S
N1693 C1692 1.330 . S
N1693 C1697 1.418 . S
C1694 H1673 0.929 . S
C1694 C1692 1.446 . S
C1694 C1695 1.332 . S
C1695 H1675 0.931 . S
C1695 C1694 1.332 . S
C1695 C1696 1.267 . S
C1696 H1664 0.929 . S
C1696 C1695 1.267 . S
C1696 C1697 1.251 . S
C1697 H1667 0.929 . S
C1697 N1693 1.418 . S
C1697 C1696 1.251 . S
C1698 H1665 0.930 . S
C1698 C1700 1.406 . S
C1698 C1703 1.261 . S
C1699 H1666 0.930 . S
C1699 N1701 1.325 . S
C1699 C1702 1.357 . S
C1700 H1668 0.928 . S
C1700 C1698 1.406 . S
C1700 N1701 1.261 . S
N1701 Co1652 2.214 . S
N1701 C1699 1.325 . S
N1701 C1700 1.261 . S
C1702 H1672 0.931 . S
C1702 C1699 1.357 . S
C1702 C1703 1.312 . S
C1703 H1674 0.930 . S
C1703 C1698 1.261 . S
C1703 C1702 1.312 . S
C1704 O1676 1.214 . S
C1704 O1684 1.234 . S
C1705 H1677 0.929 . S
C1705 C1708 1.391 . S
C1705 C1710 1.391 . S
C1706 H1678 0.929 . S
C1706 C1707 1.390 . S
C1706 N1709 1.391 . S
C1707 H1679 0.930 . S
C1707 C1706 1.390 . S
C1707 C1708 1.392 . S
C1708 H1680 0.929 . S
C1708 C1705 1.391 . S
C1708 C1707 1.392 . S
N1709 Co1653 2.257 . S
N1709 C1706 1.391 . S
N1709 C1710 1.388 . S
C1710 H1681 0.930 . S
C1710 C1705 1.391 . S
C1710 N1709 1.388 . S
Co1711 O1713 2.143 . S
Co1711 O1719 2.074 . S
Co1711 O1722 2.093 . S
Co1711 O1735 2.097 . S
Co1711 N1752 2.151 . S
Co1711 N1760 2.214 . S
Co1712 O1713 2.160 . S
Co1712 O1718 2.058 . S
Co1712 O1728 2.057 . S
Co1712 O1743 2.037 . S
Co1712 N1747 2.145 . S
Co1712 N1768 2.257 . S
O1713 Co1711 2.143 . S
O1713 Co1712 2.160 . S
C1714 O1715 1.278 . S
C1714 O1722 1.224 . S
O1715 C1714 1.278 . S
C1716 O1717 1.245 . S
C1716 O1728 1.232 . S
O1717 C1716 1.245 . S
O1718 Co1712 2.058 . S
O1718 C1744 1.269 . S
O1719 Co1711 2.074 . S
O1719 C1744 1.257 . S
H1720 C1745 0.930 . S
H1721 C1751 0.930 . S
O1722 Co1711 2.093 . S
O1722 C1714 1.224 . S
H1723 C1755 0.929 . S
H1724 C1757 0.930 . S
H1725 C1758 0.930 . S
H1726 C1756 0.929 . S
H1727 C1759 0.928 . S
O1728 Co1712 2.057 . S
O1728 C1716 1.232 . S
H1729 C1748 0.929 . S
H1730 C1749 0.929 . S
H1731 C1761 0.931 . S
H1732 C1753 0.929 . S
H1733 C1762 0.930 . S
H1734 C1754 0.931 . S
O1735 Co1711 2.097 . S
O1735 C1763 1.214 . S
H1736 C1764 0.929 . S
H1737 C1765 0.929 . S
H1738 C1766 0.930 . S
H1739 C1767 0.929 . S
H1740 C1769 0.930 . S
H1741 C1746 0.930 . S
H1742 C1750 0.930 . S
O1743 Co1712 2.037 . S
O1743 C1763 1.234 . S
C1744 O1718 1.269 . S
C1744 O1719 1.257 . S
C1745 H1720 0.930 . S
C1745 C1748 1.388 . S
C1745 C1750 1.418 . S
C1746 H1741 0.930 . S
C1746 C1749 1.404 . S
C1746 C1750 1.353 . S
N1747 Co1712 2.145 . S
N1747 C1748 1.397 . S
N1747 C1749 1.334 . S
C1748 H1729 0.929 . S
C1748 C1745 1.388 . S
C1748 N1747 1.397 . S
C1749 H1730 0.929 . S
C1749 C1746 1.404 . S
C1749 N1747 1.334 . S
C1750 H1742 0.930 . S
C1750 C1745 1.418 . S
C1750 C1746 1.353 . S
C1751 H1721 0.930 . S
C1751 N1752 1.330 . S
C1751 C1753 1.446 . S
N1752 Co1711 2.151 . S
N1752 C1751 1.330 . S
N1752 C1756 1.418 . S
C1753 H1732 0.929 . S
C1753 C1751 1.446 . S
C1753 C1754 1.332 . S
C1754 H1734 0.931 . S
C1754 C1753 1.332 . S
C1754 C1755 1.267 . S
C1755 H1723 0.929 . S
C1755 C1754 1.267 . S
C1755 C1756 1.251 . S
C1756 H1726 0.929 . S
C1756 N1752 1.418 . S
C1756 C1755 1.251 . S
C1757 H1724 0.930 . S
C1757 C1759 1.406 . S
C1757 C1762 1.261 . S
C1758 H1725 0.930 . S
C1758 N1760 1.325 . S
C1758 C1761 1.357 . S
C1759 H1727 0.928 . S
C1759 C1757 1.406 . S
C1759 N1760 1.261 . S
N1760 Co1711 2.214 . S
N1760 C1758 1.325 . S
N1760 C1759 1.261 . S
C1761 H1731 0.931 . S
C1761 C1758 1.357 . S
C1761 C1762 1.312 . S
C1762 H1733 0.930 . S
C1762 C1757 1.261 . S
C1762 C1761 1.312 . S
C1763 O1735 1.214 . S
C1763 O1743 1.234 . S
C1764 H1736 0.929 . S
C1764 C1767 1.391 1_455 S
C1764 C1769 1.391 . S
C1765 H1737 0.929 . S
C1765 C1766 1.390 1_455 S
C1765 N1768 1.391 . S
C1766 H1738 0.930 . S
C1766 C1765 1.390 1_655 S
C1766 C1767 1.392 . S
C1767 H1739 0.929 . S
C1767 C1764 1.391 1_655 S
C1767 C1766 1.392 . S
N1768 Co1712 2.257 . S
N1768 C1765 1.391 . S
N1768 C1769 1.388 . S
C1769 H1740 0.930 . S
C1769 C1764 1.391 . S
C1769 N1768 1.388 . S
Co1770 O1772 2.143 . S
Co1770 O1778 2.074 . S
Co1770 O1781 2.093 . S
Co1770 O1794 2.097 . S
Co1770 N1811 2.151 . S
Co1770 N1819 2.214 . S
Co1771 O1772 2.160 . S
Co1771 O1777 2.058 . S
Co1771 O1787 2.057 . S
Co1771 O1802 2.037 . S
Co1771 N1806 2.145 . S
Co1771 N1827 2.257 . S
O1772 Co1770 2.143 . S
O1772 Co1771 2.160 . S
C1773 O1774 1.278 . S
C1773 O1781 1.224 . S
O1774 C1773 1.278 . S
C1775 O1776 1.245 . S
C1775 O1787 1.232 . S
O1776 C1775 1.245 . S
O1777 Co1771 2.058 . S
O1777 C1803 1.269 . S
O1778 Co1770 2.074 . S
O1778 C1803 1.257 . S
H1779 C1804 0.930 . S
H1780 C1810 0.930 . S
O1781 Co1770 2.093 . S
O1781 C1773 1.224 . S
H1782 C1814 0.929 . S
H1783 C1816 0.930 . S
H1784 C1817 0.930 . S
H1785 C1815 0.929 . S
H1786 C1818 0.928 . S
O1787 Co1771 2.057 . S
O1787 C1775 1.232 . S
H1788 C1807 0.929 . S
H1789 C1808 0.929 . S
H1790 C1820 0.931 . S
H1791 C1812 0.929 . S
H1792 C1821 0.930 . S
H1793 C1813 0.931 . S
O1794 Co1770 2.097 . S
O1794 C1822 1.214 . S
H1795 C1823 0.929 . S
H1796 C1824 0.929 . S
H1797 C1825 0.930 . S
H1798 C1826 0.929 . S
H1799 C1828 0.930 . S
H1800 C1805 0.930 . S
H1801 C1809 0.930 . S
O1802 Co1771 2.037 . S
O1802 C1822 1.234 . S
C1803 O1777 1.269 . S
C1803 O1778 1.257 . S
C1804 H1779 0.930 . S
C1804 C1807 1.388 . S
C1804 C1809 1.418 . S
C1805 H1800 0.930 . S
C1805 C1808 1.404 . S
C1805 C1809 1.353 . S
N1806 Co1771 2.145 . S
N1806 C1807 1.397 . S
N1806 C1808 1.334 . S
C1807 H1788 0.929 . S
C1807 C1804 1.388 . S
C1807 N1806 1.397 . S
C1808 H1789 0.929 . S
C1808 C1805 1.404 . S
C1808 N1806 1.334 . S
C1809 H1801 0.930 . S
C1809 C1804 1.418 . S
C1809 C1805 1.353 . S
C1810 H1780 0.930 . S
C1810 N1811 1.330 . S
C1810 C1812 1.446 . S
N1811 Co1770 2.151 . S
N1811 C1810 1.330 . S
N1811 C1815 1.418 . S
C1812 H1791 0.929 . S
C1812 C1810 1.446 . S
C1812 C1813 1.332 . S
C1813 H1793 0.931 . S
C1813 C1812 1.332 . S
C1813 C1814 1.267 . S
C1814 H1782 0.929 . S
C1814 C1813 1.267 . S
C1814 C1815 1.251 . S
C1815 H1785 0.929 . S
C1815 N1811 1.418 . S
C1815 C1814 1.251 . S
C1816 H1783 0.930 . S
C1816 C1818 1.406 . S
C1816 C1821 1.261 . S
C1817 H1784 0.930 . S
C1817 N1819 1.325 . S
C1817 C1820 1.357 . S
C1818 H1786 0.928 . S
C1818 C1816 1.406 . S
C1818 N1819 1.261 . S
N1819 Co1770 2.214 . S
N1819 C1817 1.325 . S
N1819 C1818 1.261 . S
C1820 H1790 0.931 . S
C1820 C1817 1.357 . S
C1820 C1821 1.312 . S
C1821 H1792 0.930 . S
C1821 C1816 1.261 . S
C1821 C1820 1.312 . S
C1822 O1794 1.214 . S
C1822 O1802 1.234 . S
C1823 H1795 0.929 . S
C1823 C1826 1.391 . S
C1823 C1828 1.391 . S
C1824 H1796 0.929 . S
C1824 C1825 1.390 . S
C1824 N1827 1.391 . S
C1825 H1797 0.930 . S
C1825 C1824 1.390 . S
C1825 C1826 1.392 . S
C1826 H1798 0.929 . S
C1826 C1823 1.391 . S
C1826 C1825 1.392 . S
N1827 Co1771 2.257 . S
N1827 C1824 1.391 . S
N1827 C1828 1.388 . S
C1828 H1799 0.930 . S
C1828 C1823 1.391 . S
C1828 N1827 1.388 . S
Co1829 O1831 2.143 . S
Co1829 O1837 2.074 . S
Co1829 O1840 2.093 . S
Co1829 O1853 2.097 . S
Co1829 N1870 2.151 . S
Co1829 N1878 2.214 . S
Co1830 O1831 2.160 . S
Co1830 O1836 2.058 . S
Co1830 O1846 2.057 . S
Co1830 O1861 2.037 . S
Co1830 N1865 2.145 . S
Co1830 N1886 2.257 . S
O1831 Co1829 2.143 . S
O1831 Co1830 2.160 . S
C1832 O1833 1.278 . S
C1832 O1840 1.224 . S
O1833 C1832 1.278 . S
C1834 O1835 1.245 . S
C1834 O1846 1.232 . S
O1835 C1834 1.245 . S
O1836 Co1830 2.058 . S
O1836 C1862 1.269 . S
O1837 Co1829 2.074 . S
O1837 C1862 1.257 . S
H1838 C1863 0.930 . S
H1839 C1869 0.930 . S
O1840 Co1829 2.093 . S
O1840 C1832 1.224 . S
H1841 C1873 0.929 . S
H1842 C1875 0.930 . S
H1843 C1876 0.930 . S
H1844 C1874 0.929 . S
H1845 C1877 0.928 . S
O1846 Co1830 2.057 . S
O1846 C1834 1.232 . S
H1847 C1866 0.929 . S
H1848 C1867 0.929 . S
H1849 C1879 0.931 . S
H1850 C1871 0.929 . S
H1851 C1880 0.930 . S
H1852 C1872 0.931 . S
O1853 Co1829 2.097 . S
O1853 C1881 1.214 . S
H1854 C1882 0.929 . S
H1855 C1883 0.929 . S
H1856 C1884 0.930 . S
H1857 C1885 0.929 . S
H1858 C1887 0.930 . S
H1859 C1864 0.930 . S
H1860 C1868 0.930 . S
O1861 Co1830 2.037 . S
O1861 C1881 1.234 . S
C1862 O1836 1.269 . S
C1862 O1837 1.257 . S
C1863 H1838 0.930 . S
C1863 C1866 1.388 . S
C1863 C1868 1.418 . S
C1864 H1859 0.930 . S
C1864 C1867 1.404 . S
C1864 C1868 1.353 . S
N1865 Co1830 2.145 . S
N1865 C1866 1.397 . S
N1865 C1867 1.334 . S
C1866 H1847 0.929 . S
C1866 C1863 1.388 . S
C1866 N1865 1.397 . S
C1867 H1848 0.929 . S
C1867 C1864 1.404 . S
C1867 N1865 1.334 . S
C1868 H1860 0.930 . S
C1868 C1863 1.418 . S
C1868 C1864 1.353 . S
C1869 H1839 0.930 . S
C1869 N1870 1.330 . S
C1869 C1871 1.446 . S
N1870 Co1829 2.151 . S
N1870 C1869 1.330 . S
N1870 C1874 1.418 . S
C1871 H1850 0.929 . S
C1871 C1869 1.446 . S
C1871 C1872 1.332 . S
C1872 H1852 0.931 . S
C1872 C1871 1.332 . S
C1872 C1873 1.267 . S
C1873 H1841 0.929 . S
C1873 C1872 1.267 . S
C1873 C1874 1.251 . S
C1874 H1844 0.929 . S
C1874 N1870 1.418 . S
C1874 C1873 1.251 . S
C1875 H1842 0.930 . S
C1875 C1877 1.406 . S
C1875 C1880 1.261 . S
C1876 H1843 0.930 . S
C1876 N1878 1.325 . S
C1876 C1879 1.357 . S
C1877 H1845 0.928 . S
C1877 C1875 1.406 . S
C1877 N1878 1.261 . S
N1878 Co1829 2.214 . S
N1878 C1876 1.325 . S
N1878 C1877 1.261 . S
C1879 H1849 0.931 . S
C1879 C1876 1.357 . S
C1879 C1880 1.312 . S
C1880 H1851 0.930 . S
C1880 C1875 1.261 . S
C1880 C1879 1.312 . S
C1881 O1853 1.214 . S
C1881 O1861 1.234 . S
C1882 H1854 0.929 . S
C1882 C1885 1.391 . S
C1882 C1887 1.391 . S
C1883 H1855 0.929 . S
C1883 C1884 1.390 . S
C1883 N1886 1.391 . S
C1884 H1856 0.930 . S
C1884 C1883 1.390 . S
C1884 C1885 1.392 . S
C1885 H1857 0.929 . S
C1885 C1882 1.391 . S
C1885 C1884 1.392 . S
N1886 Co1830 2.257 . S
N1886 C1883 1.391 . S
N1886 C1887 1.388 . S
C1887 H1858 0.930 . S
C1887 C1882 1.391 . S
C1887 N1886 1.388 . S
H1888 C1896 0.950 . S
H1889 C1901 0.950 . S
H1890 C1898 0.950 . S
H1891 C1900 0.950 . S
H1892 C1902 0.950 . S
H1893 C1904 0.950 . S
H1894 C1906 0.950 . S
H1895 C1907 0.950 . S
C1896 H1888 0.950 . S
C1896 C1897 1.386 . S
C1896 C1898 1.391 . S
C1897 C1896 1.386 . S
C1897 C1901 1.393 . S
C1898 H1890 0.950 . S
C1898 C1896 1.391 . S
C1898 C1899 1.400 . S
C1899 C1898 1.400 . S
C1899 C1900 1.398 . S
C1899 C1905 1.491 . S
C1900 H1891 0.950 . S
C1900 C1899 1.398 . S
C1900 C1901 1.391 . S
C1901 H1889 0.950 . S
C1901 C1897 1.393 . S
C1901 C1900 1.391 . S
C1902 H1892 0.950 . S
C1902 C1903 1.386 . S
C1902 C1904 1.391 . S
C1903 C1902 1.386 . S
C1903 C1907 1.393 . S
C1904 H1893 0.950 . S
C1904 C1902 1.391 . S
C1904 C1905 1.400 . S
C1905 C1899 1.491 . S
C1905 C1904 1.400 . S
C1905 C1906 1.398 . S
C1906 H1894 0.950 . S
C1906 C1905 1.398 . S
C1906 C1907 1.391 . S
C1907 H1895 0.950 . S
C1907 C1903 1.393 . S
C1907 C1906 1.391 . S
H1908 C1916 0.950 1_455 S
H1909 C1921 0.950 . S
H1910 C1918 0.950 . S
H1911 C1920 0.950 . S
H1912 C1922 0.950 . S
H1913 C1924 0.950 . S
H1914 C1926 0.950 . S
H1915 C1927 0.950 . S
C1916 H1908 0.950 1_655 S
C1916 C1917 1.386 . S
C1916 C1918 1.391 . S
C1917 C1916 1.386 . S
C1917 C1921 1.393 . S
C1918 H1910 0.950 . S
C1918 C1916 1.391 . S
C1918 C1919 1.400 . S
C1919 C1918 1.400 . S
C1919 C1920 1.398 . S
C1919 C1925 1.491 . S
C1920 H1911 0.950 . S
C1920 C1919 1.398 . S
C1920 C1921 1.391 . S
C1921 H1909 0.950 . S
C1921 C1917 1.393 . S
C1921 C1920 1.391 . S
C1922 H1912 0.950 . S
C1922 C1923 1.386 . S
C1922 C1924 1.391 . S
C1923 C1922 1.386 . S
C1923 C1927 1.393 . S
C1924 H1913 0.950 . S
C1924 C1922 1.391 . S
C1924 C1925 1.400 . S
C1925 C1919 1.491 . S
C1925 C1924 1.400 . S
C1925 C1926 1.398 . S
C1926 H1914 0.950 . S
C1926 C1925 1.398 . S
C1926 C1927 1.391 . S
C1927 H1915 0.950 . S
C1927 C1923 1.393 . S
C1927 C1926 1.391 . S
H1928 C1936 0.950 . S
H1929 C1941 0.950 . S
H1930 C1938 0.950 . S
H1931 C1940 0.950 . S
H1932 C1942 0.950 . S
H1933 C1944 0.950 . S
H1934 C1946 0.950 . S
H1935 C1947 0.950 . S
C1936 H1928 0.950 . S
C1936 C1937 1.386 . S
C1936 C1938 1.391 . S
C1937 C1936 1.386 . S
C1937 C1941 1.393 . S
C1938 H1930 0.950 . S
C1938 C1936 1.391 . S
C1938 C1939 1.400 . S
C1939 C1938 1.400 . S
C1939 C1940 1.398 . S
C1939 C1945 1.491 . S
C1940 H1931 0.950 . S
C1940 C1939 1.398 . S
C1940 C1941 1.391 . S
C1941 H1929 0.950 . S
C1941 C1937 1.393 . S
C1941 C1940 1.391 . S
C1942 H1932 0.950 . S
C1942 C1943 1.386 . S
C1942 C1944 1.391 . S
C1943 C1942 1.386 . S
C1943 C1947 1.393 . S
C1944 H1933 0.950 . S
C1944 C1942 1.391 . S
C1944 C1945 1.400 . S
C1945 C1939 1.491 . S
C1945 C1944 1.400 . S
C1945 C1946 1.398 . S
C1946 H1934 0.950 . S
C1946 C1945 1.398 . S
C1946 C1947 1.391 . S
C1947 H1935 0.950 . S
C1947 C1943 1.393 . S
C1947 C1946 1.391 . S
H1948 C1956 0.950 . S
H1949 C1961 0.950 . S
H1950 C1958 0.950 . S
H1951 C1960 0.950 . S
H1952 C1962 0.950 . S
H1953 C1964 0.950 . S
H1954 C1966 0.950 . S
H1955 C1967 0.950 . S
C1956 H1948 0.950 . S
C1956 C1957 1.386 . S
C1956 C1958 1.391 . S
C1957 C1956 1.386 . S
C1957 C1961 1.393 . S
C1958 H1950 0.950 . S
C1958 C1956 1.391 . S
C1958 C1959 1.400 . S
C1959 C1958 1.400 . S
C1959 C1960 1.398 . S
C1959 C1965 1.491 . S
C1960 H1951 0.950 . S
C1960 C1959 1.398 . S
C1960 C1961 1.391 . S
C1961 H1949 0.950 . S
C1961 C1957 1.393 . S
C1961 C1960 1.391 . S
C1962 H1952 0.950 . S
C1962 C1963 1.386 . S
C1962 C1964 1.391 . S
C1963 C1962 1.386 . S
C1963 C1967 1.393 . S
C1964 H1953 0.950 . S
C1964 C1962 1.391 . S
C1964 C1965 1.400 . S
C1965 C1959 1.491 . S
C1965 C1964 1.400 . S
C1965 C1966 1.398 . S
C1966 H1954 0.950 . S
C1966 C1965 1.398 . S
C1966 C1967 1.391 . S
C1967 H1955 0.950 . S
C1967 C1963 1.393 . S
C1967 C1966 1.391 . S
H1968 C1976 0.950 . S
H1969 C1981 0.950 . S
H1970 C1978 0.950 . S
H1971 C1980 0.950 . S
H1972 C1982 0.950 . S
H1973 C1984 0.950 . S
H1974 C1986 0.950 . S
H1975 C1987 0.950 . S
C1976 H1968 0.950 . S
C1976 C1977 1.386 . S
C1976 C1978 1.391 . S
C1977 C1976 1.386 . S
C1977 C1981 1.393 . S
C1978 H1970 0.950 . S
C1978 C1976 1.391 . S
C1978 C1979 1.400 . S
C1979 C1978 1.400 . S
C1979 C1980 1.398 . S
C1979 C1985 1.491 . S
C1980 H1971 0.950 . S
C1980 C1979 1.398 . S
C1980 C1981 1.391 . S
C1981 H1969 0.950 . S
C1981 C1977 1.393 . S
C1981 C1980 1.391 . S
C1982 H1972 0.950 . S
C1982 C1983 1.386 . S
C1982 C1984 1.391 . S
C1983 C1982 1.386 . S
C1983 C1987 1.393 . S
C1984 H1973 0.950 . S
C1984 C1982 1.391 . S
C1984 C1985 1.400 . S
C1985 C1979 1.491 . S
C1985 C1984 1.400 . S
C1985 C1986 1.398 . S
C1986 H1974 0.950 . S
C1986 C1985 1.398 . S
C1986 C1987 1.391 . S
C1987 H1975 0.950 . S
C1987 C1983 1.393 . S
C1987 C1986 1.391 . S
H1988 C1996 0.950 . S
H1989 C2001 0.950 . S
H1990 C1998 0.950 . S
H1991 C2000 0.950 . S
H1992 C2002 0.950 . S
H1993 C2004 0.950 . S
H1994 C2006 0.950 . S
H1995 C2007 0.950 . S
C1996 H1988 0.950 . S
C1996 C1997 1.386 . S
C1996 C1998 1.391 . S
C1997 C1996 1.386 . S
C1997 C2001 1.393 . S
C1998 H1990 0.950 . S
C1998 C1996 1.391 . S
C1998 C1999 1.400 . S
C1999 C1998 1.400 . S
C1999 C2000 1.398 . S
C1999 C2005 1.491 . S
C2000 H1991 0.950 . S
C2000 C1999 1.398 . S
C2000 C2001 1.391 . S
C2001 H1989 0.950 . S
C2001 C1997 1.393 . S
C2001 C2000 1.391 . S
C2002 H1992 0.950 . S
C2002 C2003 1.386 . S
C2002 C2004 1.391 . S
C2003 C2002 1.386 . S
C2003 C2007 1.393 . S
C2004 H1993 0.950 . S
C2004 C2002 1.391 . S
C2004 C2005 1.400 . S
C2005 C1999 1.491 . S
C2005 C2004 1.400 . S
C2005 C2006 1.398 . S
C2006 H1994 0.950 . S
C2006 C2005 1.398 . S
C2006 C2007 1.391 . S
C2007 H1995 0.950 . S
C2007 C2003 1.393 . S
C2007 C2006 1.391 . S
H2008 C2016 0.950 . S
H2009 C2021 0.950 . S
H2010 C2018 0.950 . S
H2011 C2020 0.950 . S
H2012 C2022 0.950 . S
H2013 C2024 0.950 . S
H2014 C2026 0.950 . S
H2015 C2027 0.950 . S
C2016 H2008 0.950 . S
C2016 C2017 1.386 . S
C2016 C2018 1.391 . S
C2017 C2016 1.386 . S
C2017 C2021 1.393 . S
C2018 H2010 0.950 . S
C2018 C2016 1.391 . S
C2018 C2019 1.400 . S
C2019 C2018 1.400 . S
C2019 C2020 1.398 . S
C2019 C2025 1.491 . S
C2020 H2011 0.950 . S
C2020 C2019 1.398 . S
C2020 C2021 1.391 . S
C2021 H2009 0.950 . S
C2021 C2017 1.393 . S
C2021 C2020 1.391 . S
C2022 H2012 0.950 . S
C2022 C2023 1.386 . S
C2022 C2024 1.391 . S
C2023 C2022 1.386 . S
C2023 C2027 1.393 . S
C2024 H2013 0.950 . S
C2024 C2022 1.391 . S
C2024 C2025 1.400 . S
C2025 C2019 1.491 . S
C2025 C2024 1.400 . S
C2025 C2026 1.398 . S
C2026 H2014 0.950 . S
C2026 C2025 1.398 . S
C2026 C2027 1.391 . S
C2027 H2015 0.950 . S
C2027 C2023 1.393 . S
C2027 C2026 1.391 . S
H2028 C2036 0.950 . S
H2029 C2041 0.950 1_455 S
H2030 C2038 0.950 . S
H2031 C2040 0.950 . S
H2032 C2042 0.950 . S
H2033 C2044 0.950 . S
H2034 C2046 0.950 . S
H2035 C2047 0.950 . S
C2036 H2028 0.950 . S
C2036 C2037 1.386 . S
C2036 C2038 1.391 . S
C2037 C2036 1.386 . S
C2037 C2041 1.393 . S
C2038 H2030 0.950 . S
C2038 C2036 1.391 . S
C2038 C2039 1.400 . S
C2039 C2038 1.400 . S
C2039 C2040 1.398 . S
C2039 C2045 1.491 . S
C2040 H2031 0.950 . S
C2040 C2039 1.398 . S
C2040 C2041 1.391 . S
C2041 H2029 0.950 1_655 S
C2041 C2037 1.393 . S
C2041 C2040 1.391 . S
C2042 H2032 0.950 . S
C2042 C2043 1.386 . S
C2042 C2044 1.391 . S
C2043 C2042 1.386 . S
C2043 C2047 1.393 . S
C2044 H2033 0.950 . S
C2044 C2042 1.391 . S
C2044 C2045 1.400 . S
C2045 C2039 1.491 . S
C2045 C2044 1.400 . S
C2045 C2046 1.398 . S
C2046 H2034 0.950 . S
C2046 C2045 1.398 . S
C2046 C2047 1.391 . S
C2047 H2035 0.950 . S
C2047 C2043 1.393 . S
C2047 C2046 1.391 . S
H2048 C2056 0.950 . S
H2049 C2061 0.950 . S
H2050 C2058 0.950 . S
H2051 C2060 0.950 . S
H2052 C2062 0.950 . S
H2053 C2064 0.950 . S
H2054 C2066 0.950 . S
H2055 C2067 0.950 . S
C2056 H2048 0.950 . S
C2056 C2057 1.386 . S
C2056 C2058 1.391 . S
C2057 C2056 1.386 . S
C2057 C2061 1.393 . S
C2058 H2050 0.950 . S
C2058 C2056 1.391 . S
C2058 C2059 1.400 . S
C2059 C2058 1.400 . S
C2059 C2060 1.398 . S
C2059 C2065 1.491 . S
C2060 H2051 0.950 . S
C2060 C2059 1.398 . S
C2060 C2061 1.391 . S
C2061 H2049 0.950 . S
C2061 C2057 1.393 . S
C2061 C2060 1.391 . S
C2062 H2052 0.950 . S
C2062 C2063 1.386 . S
C2062 C2064 1.391 . S
C2063 C2062 1.386 . S
C2063 C2067 1.393 . S
C2064 H2053 0.950 . S
C2064 C2062 1.391 . S
C2064 C2065 1.400 . S
C2065 C2059 1.491 . S
C2065 C2064 1.400 . S
C2065 C2066 1.398 . S
C2066 H2054 0.950 . S
C2066 C2065 1.398 . S
C2066 C2067 1.391 . S
C2067 H2055 0.950 . S
C2067 C2063 1.393 . S
C2067 C2066 1.391 . S
H2068 C2076 0.950 . S
H2069 C2081 0.950 . S
H2070 C2078 0.950 . S
H2071 C2080 0.950 . S
H2072 C2082 0.950 . S
H2073 C2084 0.950 . S
H2074 C2086 0.950 . S
H2075 C2087 0.950 . S
C2076 H2068 0.950 . S
C2076 C2077 1.386 . S
C2076 C2078 1.391 . S
C2077 C2076 1.386 . S
C2077 C2081 1.393 . S
C2078 H2070 0.950 . S
C2078 C2076 1.391 . S
C2078 C2079 1.400 . S
C2079 C2078 1.400 . S
C2079 C2080 1.398 . S
C2079 C2085 1.491 . S
C2080 H2071 0.950 . S
C2080 C2079 1.398 . S
C2080 C2081 1.391 . S
C2081 H2069 0.950 . S
C2081 C2077 1.393 . S
C2081 C2080 1.391 . S
C2082 H2072 0.950 . S
C2082 C2083 1.386 . S
C2082 C2084 1.391 . S
C2083 C2082 1.386 . S
C2083 C2087 1.393 . S
C2084 H2073 0.950 . S
C2084 C2082 1.391 . S
C2084 C2085 1.400 . S
C2085 C2079 1.491 . S
C2085 C2084 1.400 . S
C2085 C2086 1.398 . S
C2086 H2074 0.950 . S
C2086 C2085 1.398 . S
C2086 C2087 1.391 . S
C2087 H2075 0.950 . S
C2087 C2083 1.393 . S
C2087 C2086 1.391 . S
H2088 C2096 0.950 . S
H2089 C2101 0.950 . S
H2090 C2098 0.950 . S
H2091 C2100 0.950 . S
H2092 C2102 0.950 . S
H2093 C2104 0.950 . S
H2094 C2106 0.950 . S
H2095 C2107 0.950 . S
C2096 H2088 0.950 . S
C2096 C2097 1.386 . S
C2096 C2098 1.391 . S
C2097 C2096 1.386 . S
C2097 C2101 1.393 . S
C2098 H2090 0.950 . S
C2098 C2096 1.391 . S
C2098 C2099 1.400 . S
C2099 C2098 1.400 . S
C2099 C2100 1.398 . S
C2099 C2105 1.491 . S
C2100 H2091 0.950 . S
C2100 C2099 1.398 . S
C2100 C2101 1.391 . S
C2101 H2089 0.950 . S
C2101 C2097 1.393 . S
C2101 C2100 1.391 . S
C2102 H2092 0.950 . S
C2102 C2103 1.386 . S
C2102 C2104 1.391 . S
C2103 C2102 1.386 . S
C2103 C2107 1.393 . S
C2104 H2093 0.950 . S
C2104 C2102 1.391 . S
C2104 C2105 1.400 . S
C2105 C2099 1.491 . S
C2105 C2104 1.400 . S
C2105 C2106 1.398 . S
C2106 H2094 0.950 . S
C2106 C2105 1.398 . S
C2106 C2107 1.391 . S
C2107 H2095 0.950 . S
C2107 C2103 1.393 . S
C2107 C2106 1.391 . S
H2108 C2116 0.950 . S
H2109 C2121 0.950 . S
H2110 C2118 0.950 . S
H2111 C2120 0.950 . S
H2112 C2122 0.950 . S
H2113 C2124 0.950 . S
H2114 C2126 0.950 . S
H2115 C2127 0.950 . S
C2116 H2108 0.950 . S
C2116 C2117 1.386 . S
C2116 C2118 1.391 . S
C2117 C2116 1.386 . S
C2117 C2121 1.393 . S
C2118 H2110 0.950 . S
C2118 C2116 1.391 . S
C2118 C2119 1.400 . S
C2119 C2118 1.400 . S
C2119 C2120 1.398 . S
C2119 C2125 1.491 . S
C2120 H2111 0.950 . S
C2120 C2119 1.398 . S
C2120 C2121 1.391 . S
C2121 H2109 0.950 . S
C2121 C2117 1.393 . S
C2121 C2120 1.391 . S
C2122 H2112 0.950 . S
C2122 C2123 1.386 . S
C2122 C2124 1.391 . S
C2123 C2122 1.386 . S
C2123 C2127 1.393 . S
C2124 H2113 0.950 . S
C2124 C2122 1.391 . S
C2124 C2125 1.400 . S
C2125 C2119 1.491 . S
C2125 C2124 1.400 . S
C2125 C2126 1.398 . S
C2126 H2114 0.950 . S
C2126 C2125 1.398 . S
C2126 C2127 1.391 . S
C2127 H2115 0.950 . S
C2127 C2123 1.393 . S
C2127 C2126 1.391 . S
H2128 C2136 0.950 . S
H2129 C2141 0.950 . S
H2130 C2138 0.950 . S
H2131 C2140 0.950 . S
H2132 C2142 0.950 . S
H2133 C2144 0.950 . S
H2134 C2146 0.950 . S
H2135 C2147 0.950 . S
C2136 H2128 0.950 . S
C2136 C2137 1.386 . S
C2136 C2138 1.391 . S
C2137 C2136 1.386 . S
C2137 C2141 1.393 . S
C2138 H2130 0.950 . S
C2138 C2136 1.391 . S
C2138 C2139 1.400 . S
C2139 C2138 1.400 . S
C2139 C2140 1.398 . S
C2139 C2145 1.491 . S
C2140 H2131 0.950 . S
C2140 C2139 1.398 . S
C2140 C2141 1.391 . S
C2141 H2129 0.950 . S
C2141 C2137 1.393 . S
C2141 C2140 1.391 . S
C2142 H2132 0.950 . S
C2142 C2143 1.386 . S
C2142 C2144 1.391 . S
C2143 C2142 1.386 . S
C2143 C2147 1.393 . S
C2144 H2133 0.950 . S
C2144 C2142 1.391 . S
C2144 C2145 1.400 . S
C2145 C2139 1.491 . S
C2145 C2144 1.400 . S
C2145 C2146 1.398 . S
C2146 H2134 0.950 . S
C2146 C2145 1.398 . S
C2146 C2147 1.391 . S
C2147 H2135 0.950 . S
C2147 C2143 1.393 . S
C2147 C2146 1.391 . S
H2148 C2156 0.950 . S
H2149 C2161 0.950 . S
H2150 C2158 0.950 . S
H2151 C2160 0.950 . S
H2152 C2162 0.950 . S
H2153 C2164 0.950 . S
H2154 C2166 0.950 . S
H2155 C2167 0.950 . S
C2156 H2148 0.950 . S
C2156 C2157 1.386 . S
C2156 C2158 1.391 . S
C2157 C2156 1.386 . S
C2157 C2161 1.393 . S
C2158 H2150 0.950 . S
C2158 C2156 1.391 . S
C2158 C2159 1.400 . S
C2159 C2158 1.400 . S
C2159 C2160 1.398 . S
C2159 C2165 1.491 . S
C2160 H2151 0.950 . S
C2160 C2159 1.398 . S
C2160 C2161 1.391 . S
C2161 H2149 0.950 . S
C2161 C2157 1.393 . S
C2161 C2160 1.391 . S
C2162 H2152 0.950 . S
C2162 C2163 1.386 . S
C2162 C2164 1.391 . S
C2163 C2162 1.386 . S
C2163 C2167 1.393 . S
C2164 H2153 0.950 . S
C2164 C2162 1.391 . S
C2164 C2165 1.400 . S
C2165 C2159 1.491 . S
C2165 C2164 1.400 . S
C2165 C2166 1.398 . S
C2166 H2154 0.950 . S
C2166 C2165 1.398 . S
C2166 C2167 1.391 . S
C2167 H2155 0.950 . S
C2167 C2163 1.393 . S
C2167 C2166 1.391 . S
H2168 C2176 0.950 . S
H2169 C2181 0.950 . S
H2170 C2178 0.950 . S
H2171 C2180 0.950 . S
H2172 C2182 0.950 . S
H2173 C2184 0.950 . S
H2174 C2186 0.950 . S
H2175 C2187 0.950 . S
C2176 H2168 0.950 . S
C2176 C2177 1.386 . S
C2176 C2178 1.391 . S
C2177 C2176 1.386 . S
C2177 C2181 1.393 . S
C2178 H2170 0.950 . S
C2178 C2176 1.391 . S
C2178 C2179 1.400 . S
C2179 C2178 1.400 . S
C2179 C2180 1.398 . S
C2179 C2185 1.491 . S
C2180 H2171 0.950 . S
C2180 C2179 1.398 . S
C2180 C2181 1.391 . S
C2181 H2169 0.950 . S
C2181 C2177 1.393 . S
C2181 C2180 1.391 . S
C2182 H2172 0.950 . S
C2182 C2183 1.386 . S
C2182 C2184 1.391 . S
C2183 C2182 1.386 . S
C2183 C2187 1.393 . S
C2184 H2173 0.950 . S
C2184 C2182 1.391 . S
C2184 C2185 1.400 . S
C2185 C2179 1.491 . S
C2185 C2184 1.400 . S
C2185 C2186 1.398 . S
C2186 H2174 0.950 . S
C2186 C2185 1.398 . S
C2186 C2187 1.391 . S
C2187 H2175 0.950 . S
C2187 C2183 1.393 . S
C2187 C2186 1.391 . S
H2188 C2196 0.950 . S
H2189 C2201 0.950 . S
H2190 C2198 0.950 . S
H2191 C2200 0.950 . S
H2192 C2202 0.950 1_655 S
H2193 C2204 0.950 . S
H2194 C2206 0.950 . S
H2195 C2207 0.950 . S
C2196 H2188 0.950 . S
C2196 C2197 1.386 . S
C2196 C2198 1.391 . S
C2197 C2196 1.386 . S
C2197 C2201 1.393 . S
C2198 H2190 0.950 . S
C2198 C2196 1.391 . S
C2198 C2199 1.400 . S
C2199 C2198 1.400 . S
C2199 C2200 1.398 . S
C2199 C2205 1.491 . S
C2200 H2191 0.950 . S
C2200 C2199 1.398 . S
C2200 C2201 1.391 . S
C2201 H2189 0.950 . S
C2201 C2197 1.393 . S
C2201 C2200 1.391 . S
C2202 H2192 0.950 1_455 S
C2202 C2203 1.386 . S
C2202 C2204 1.391 . S
C2203 C2202 1.386 . S
C2203 C2207 1.393 . S
C2204 H2193 0.950 . S
C2204 C2202 1.391 . S
C2204 C2205 1.400 . S
C2205 C2199 1.491 . S
C2205 C2204 1.400 . S
C2205 C2206 1.398 . S
C2206 H2194 0.950 . S
C2206 C2205 1.398 . S
C2206 C2207 1.391 . S
C2207 H2195 0.950 . S
C2207 C2203 1.393 . S
C2207 C2206 1.391 . S
H2208 C2216 0.950 . S
H2209 C2221 0.950 . S
H2210 C2218 0.950 . S
H2211 C2220 0.950 . S
H2212 C2222 0.950 . S
H2213 C2224 0.950 . S
H2214 C2226 0.950 . S
H2215 C2227 0.950 . S
C2216 H2208 0.950 . S
C2216 C2217 1.386 . S
C2216 C2218 1.391 . S
C2217 C2216 1.386 . S
C2217 C2221 1.393 . S
C2218 H2210 0.950 . S
C2218 C2216 1.391 . S
C2218 C2219 1.400 . S
C2219 C2218 1.400 . S
C2219 C2220 1.398 . S
C2219 C2225 1.491 . S
C2220 H2211 0.950 . S
C2220 C2219 1.398 . S
C2220 C2221 1.391 . S
C2221 H2209 0.950 . S
C2221 C2217 1.393 . S
C2221 C2220 1.391 . S
C2222 H2212 0.950 . S
C2222 C2223 1.386 . S
C2222 C2224 1.391 . S
C2223 C2222 1.386 . S
C2223 C2227 1.393 . S
C2224 H2213 0.950 . S
C2224 C2222 1.391 . S
C2224 C2225 1.400 . S
C2225 C2219 1.491 . S
C2225 C2224 1.400 . S
C2225 C2226 1.398 . S
C2226 H2214 0.950 . S
C2226 C2225 1.398 . S
C2226 C2227 1.391 . S
C2227 H2215 0.950 . S
C2227 C2223 1.393 . S
C2227 C2226 1.391 . S
H2228 C2236 0.950 . S
H2229 C2241 0.950 . S
H2230 C2238 0.950 . S
H2231 C2240 0.950 . S
H2232 C2242 0.950 . S
H2233 C2244 0.950 . S
H2234 C2246 0.950 . S
H2235 C2247 0.950 . S
C2236 H2228 0.950 . S
C2236 C2237 1.386 . S
C2236 C2238 1.391 . S
C2237 C2236 1.386 . S
C2237 C2241 1.393 . S
C2238 H2230 0.950 . S
C2238 C2236 1.391 . S
C2238 C2239 1.400 . S
C2239 C2238 1.400 . S
C2239 C2240 1.398 . S
C2239 C2245 1.491 . S
C2240 H2231 0.950 . S
C2240 C2239 1.398 . S
C2240 C2241 1.391 . S
C2241 H2229 0.950 . S
C2241 C2237 1.393 . S
C2241 C2240 1.391 . S
C2242 H2232 0.950 . S
C2242 C2243 1.386 . S
C2242 C2244 1.391 . S
C2243 C2242 1.386 . S
C2243 C2247 1.393 . S
C2244 H2233 0.950 . S
C2244 C2242 1.391 . S
C2244 C2245 1.400 . S
C2245 C2239 1.491 . S
C2245 C2244 1.400 . S
C2245 C2246 1.398 . S
C2246 H2234 0.950 . S
C2246 C2245 1.398 . S
C2246 C2247 1.391 . S
C2247 H2235 0.950 . S
C2247 C2243 1.393 . S
C2247 C2246 1.391 . S
H2248 C2256 0.950 . S
H2249 C2261 0.950 . S
H2250 C2258 0.950 . S
H2251 C2260 0.950 . S
H2252 C2262 0.950 . S
H2253 C2264 0.950 . S
H2254 C2266 0.950 . S
H2255 C2267 0.950 . S
C2256 H2248 0.950 . S
C2256 C2257 1.386 . S
C2256 C2258 1.391 . S
C2257 C2256 1.386 . S
C2257 C2261 1.393 . S
C2258 H2250 0.950 . S
C2258 C2256 1.391 . S
C2258 C2259 1.400 . S
C2259 C2258 1.400 . S
C2259 C2260 1.398 . S
C2259 C2265 1.491 . S
C2260 H2251 0.950 . S
C2260 C2259 1.398 . S
C2260 C2261 1.391 . S
C2261 H2249 0.950 . S
C2261 C2257 1.393 . S
C2261 C2260 1.391 . S
C2262 H2252 0.950 . S
C2262 C2263 1.386 . S
C2262 C2264 1.391 . S
C2263 C2262 1.386 . S
C2263 C2267 1.393 . S
C2264 H2253 0.950 . S
C2264 C2262 1.391 . S
C2264 C2265 1.400 . S
C2265 C2259 1.491 . S
C2265 C2264 1.400 . S
C2265 C2266 1.398 . S
C2266 H2254 0.950 . S
C2266 C2265 1.398 . S
C2266 C2267 1.391 . S
C2267 H2255 0.950 . S
C2267 C2263 1.393 . S
C2267 C2266 1.391 . S
H2268 C2276 0.950 . S
H2269 C2281 0.950 . S
H2270 C2278 0.950 . S
H2271 C2280 0.950 . S
H2272 C2282 0.950 . S
H2273 C2284 0.950 . S
H2274 C2286 0.950 . S
H2275 C2287 0.950 1_655 S
C2276 H2268 0.950 . S
C2276 C2277 1.386 . S
C2276 C2278 1.391 . S
C2277 C2276 1.386 . S
C2277 C2281 1.393 . S
C2278 H2270 0.950 . S
C2278 C2276 1.391 . S
C2278 C2279 1.400 . S
C2279 C2278 1.400 . S
C2279 C2280 1.398 . S
C2279 C2285 1.491 . S
C2280 H2271 0.950 . S
C2280 C2279 1.398 . S
C2280 C2281 1.391 . S
C2281 H2269 0.950 . S
C2281 C2277 1.393 . S
C2281 C2280 1.391 . S
C2282 H2272 0.950 . S
C2282 C2283 1.386 . S
C2282 C2284 1.391 . S
C2283 C2282 1.386 . S
C2283 C2287 1.393 . S
C2284 H2273 0.950 . S
C2284 C2282 1.391 . S
C2284 C2285 1.400 . S
C2285 C2279 1.491 . S
C2285 C2284 1.400 . S
C2285 C2286 1.398 . S
C2286 H2274 0.950 . S
C2286 C2285 1.398 . S
C2286 C2287 1.391 . S
C2287 H2275 0.950 1_455 S
C2287 C2283 1.393 . S
C2287 C2286 1.391 . S
H2288 C2296 0.950 . S
H2289 C2301 0.950 . S
H2290 C2298 0.950 . S
H2291 C2300 0.950 . S
H2292 C2302 0.950 . S
H2293 C2304 0.950 . S
H2294 C2306 0.950 . S
H2295 C2307 0.950 . S
C2296 H2288 0.950 . S
C2296 C2297 1.386 . S
C2296 C2298 1.391 . S
C2297 C2296 1.386 . S
C2297 C2301 1.393 . S
C2298 H2290 0.950 . S
C2298 C2296 1.391 . S
C2298 C2299 1.400 . S
C2299 C2298 1.400 . S
C2299 C2300 1.398 . S
C2299 C2305 1.491 . S
C2300 H2291 0.950 . S
C2300 C2299 1.398 . S
C2300 C2301 1.391 . S
C2301 H2289 0.950 . S
C2301 C2297 1.393 . S
C2301 C2300 1.391 . S
C2302 H2292 0.950 . S
C2302 C2303 1.386 . S
C2302 C2304 1.391 . S
C2303 C2302 1.386 . S
C2303 C2307 1.393 . S
C2304 H2293 0.950 . S
C2304 C2302 1.391 . S
C2304 C2305 1.400 . S
C2305 C2299 1.491 . S
C2305 C2304 1.400 . S
C2305 C2306 1.398 . S
C2306 H2294 0.950 . S
C2306 C2305 1.398 . S
C2306 C2307 1.391 . S
C2307 H2295 0.950 . S
C2307 C2303 1.393 . S
C2307 C2306 1.391 . S
H2308 C2316 0.950 . S
H2309 C2321 0.950 . S
H2310 C2318 0.950 . S
H2311 C2320 0.950 . S
H2312 C2322 0.950 1_655 S
H2313 C2324 0.950 . S
H2314 C2326 0.950 . S
H2315 C2327 0.950 . S
C2316 H2308 0.950 . S
C2316 C2317 1.386 . S
C2316 C2318 1.391 . S
C2317 C2316 1.386 . S
C2317 C2321 1.393 . S
C2318 H2310 0.950 . S
C2318 C2316 1.391 . S
C2318 C2319 1.400 . S
C2319 C2318 1.400 . S
C2319 C2320 1.398 . S
C2319 C2325 1.491 . S
C2320 H2311 0.950 . S
C2320 C2319 1.398 . S
C2320 C2321 1.391 . S
C2321 H2309 0.950 . S
C2321 C2317 1.393 . S
C2321 C2320 1.391 . S
C2322 H2312 0.950 1_455 S
C2322 C2323 1.386 . S
C2322 C2324 1.391 . S
C2323 C2322 1.386 . S
C2323 C2327 1.393 . S
C2324 H2313 0.950 . S
C2324 C2322 1.391 . S
C2324 C2325 1.400 . S
C2325 C2319 1.491 . S
C2325 C2324 1.400 . S
C2325 C2326 1.398 . S
C2326 H2314 0.950 . S
C2326 C2325 1.398 . S
C2326 C2327 1.391 . S
C2327 H2315 0.950 . S
C2327 C2323 1.393 . S
C2327 C2326 1.391 . S
H2328 C2336 0.950 . S
H2329 C2341 0.950 . S
H2330 C2338 0.950 . S
H2331 C2340 0.950 . S
H2332 C2342 0.950 . S
H2333 C2344 0.950 . S
H2334 C2346 0.950 . S
H2335 C2347 0.950 . S
C2336 H2328 0.950 . S
C2336 C2337 1.386 . S
C2336 C2338 1.391 . S
C2337 C2336 1.386 . S
C2337 C2341 1.393 . S
C2338 H2330 0.950 . S
C2338 C2336 1.391 . S
C2338 C2339 1.400 . S
C2339 C2338 1.400 . S
C2339 C2340 1.398 . S
C2339 C2345 1.491 . S
C2340 H2331 0.950 . S
C2340 C2339 1.398 . S
C2340 C2341 1.391 . S
C2341 H2329 0.950 . S
C2341 C2337 1.393 . S
C2341 C2340 1.391 . S
C2342 H2332 0.950 . S
C2342 C2343 1.386 . S
C2342 C2344 1.391 . S
C2343 C2342 1.386 . S
C2343 C2347 1.393 . S
C2344 H2333 0.950 . S
C2344 C2342 1.391 . S
C2344 C2345 1.400 . S
C2345 C2339 1.491 . S
C2345 C2344 1.400 . S
C2345 C2346 1.398 . S
C2346 H2334 0.950 . S
C2346 C2345 1.398 . S
C2346 C2347 1.391 . S
C2347 H2335 0.950 . S
C2347 C2343 1.393 . S
C2347 C2346 1.391 . S
H2348 C2356 0.950 . S
H2349 C2361 0.950 . S
H2350 C2358 0.950 . S
H2351 C2360 0.950 . S
H2352 C2362 0.950 . S
H2353 C2364 0.950 . S
H2354 C2366 0.950 . S
H2355 C2367 0.950 . S
C2356 H2348 0.950 . S
C2356 C2357 1.386 . S
C2356 C2358 1.391 . S
C2357 C2356 1.386 . S
C2357 C2361 1.393 . S
C2358 H2350 0.950 . S
C2358 C2356 1.391 . S
C2358 C2359 1.400 . S
C2359 C2358 1.400 . S
C2359 C2360 1.398 . S
C2359 C2365 1.491 . S
C2360 H2351 0.950 . S
C2360 C2359 1.398 . S
C2360 C2361 1.391 . S
C2361 H2349 0.950 . S
C2361 C2357 1.393 . S
C2361 C2360 1.391 . S
C2362 H2352 0.950 . S
C2362 C2363 1.386 . S
C2362 C2364 1.391 . S
C2363 C2362 1.386 . S
C2363 C2367 1.393 . S
C2364 H2353 0.950 . S
C2364 C2362 1.391 . S
C2364 C2365 1.400 . S
C2365 C2359 1.491 . S
C2365 C2364 1.400 . S
C2365 C2366 1.398 . S
C2366 H2354 0.950 . S
C2366 C2365 1.398 . S
C2366 C2367 1.391 . S
C2367 H2355 0.950 . S
C2367 C2363 1.393 . S
C2367 C2366 1.391 . S
H2368 C2376 0.950 . S
H2369 C2381 0.950 . S
H2370 C2378 0.950 . S
H2371 C2380 0.950 . S
H2372 C2382 0.950 . S
H2373 C2384 0.950 . S
H2374 C2386 0.950 . S
H2375 C2387 0.950 . S
C2376 H2368 0.950 . S
C2376 C2377 1.386 . S
C2376 C2378 1.391 . S
C2377 C2376 1.386 . S
C2377 C2381 1.393 . S
C2378 H2370 0.950 . S
C2378 C2376 1.391 . S
C2378 C2379 1.400 . S
C2379 C2378 1.400 . S
C2379 C2380 1.398 . S
C2379 C2385 1.491 . S
C2380 H2371 0.950 . S
C2380 C2379 1.398 . S
C2380 C2381 1.391 . S
C2381 H2369 0.950 . S
C2381 C2377 1.393 . S
C2381 C2380 1.391 . S
C2382 H2372 0.950 . S
C2382 C2383 1.386 . S
C2382 C2384 1.391 . S
C2383 C2382 1.386 . S
C2383 C2387 1.393 . S
C2384 H2373 0.950 . S
C2384 C2382 1.391 . S
C2384 C2385 1.400 . S
C2385 C2379 1.491 . S
C2385 C2384 1.400 . S
C2385 C2386 1.398 . S
C2386 H2374 0.950 . S
C2386 C2385 1.398 . S
C2386 C2387 1.391 . S
C2387 H2375 0.950 . S
C2387 C2383 1.393 . S
C2387 C2386 1.391 . S
H2388 C2396 0.950 . S
H2389 C2401 0.950 . S
H2390 C2398 0.950 . S
H2391 C2400 0.950 . S
H2392 C2402 0.950 . S
H2393 C2404 0.950 . S
H2394 C2406 0.950 . S
H2395 C2407 0.950 . S
C2396 H2388 0.950 . S
C2396 C2397 1.386 . S
C2396 C2398 1.391 . S
C2397 C2396 1.386 . S
C2397 C2401 1.393 . S
C2398 H2390 0.950 . S
C2398 C2396 1.391 . S
C2398 C2399 1.400 . S
C2399 C2398 1.400 . S
C2399 C2400 1.398 . S
C2399 C2405 1.491 . S
C2400 H2391 0.950 . S
C2400 C2399 1.398 . S
C2400 C2401 1.391 . S
C2401 H2389 0.950 . S
C2401 C2397 1.393 . S
C2401 C2400 1.391 . S
C2402 H2392 0.950 . S
C2402 C2403 1.386 . S
C2402 C2404 1.391 . S
C2403 C2402 1.386 . S
C2403 C2407 1.393 . S
C2404 H2393 0.950 . S
C2404 C2402 1.391 . S
C2404 C2405 1.400 . S
C2405 C2399 1.491 . S
C2405 C2404 1.400 . S
C2405 C2406 1.398 . S
C2406 H2394 0.950 . S
C2406 C2405 1.398 . S
C2406 C2407 1.391 . S
C2407 H2395 0.950 . S
C2407 C2403 1.393 . S
C2407 C2406 1.391 . S
H2408 C2416 0.950 . S
H2409 C2421 0.950 . S
H2410 C2418 0.950 . S
H2411 C2420 0.950 . S
H2412 C2422 0.950 . S
H2413 C2424 0.950 . S
H2414 C2426 0.950 . S
H2415 C2427 0.950 . S
C2416 H2408 0.950 . S
C2416 C2417 1.386 . S
C2416 C2418 1.391 . S
C2417 C2416 1.386 . S
C2417 C2421 1.393 . S
C2418 H2410 0.950 . S
C2418 C2416 1.391 . S
C2418 C2419 1.400 . S
C2419 C2418 1.400 . S
C2419 C2420 1.398 . S
C2419 C2425 1.491 . S
C2420 H2411 0.950 . S
C2420 C2419 1.398 . S
C2420 C2421 1.391 . S
C2421 H2409 0.950 . S
C2421 C2417 1.393 . S
C2421 C2420 1.391 . S
C2422 H2412 0.950 . S
C2422 C2423 1.386 . S
C2422 C2424 1.391 . S
C2423 C2422 1.386 . S
C2423 C2427 1.393 . S
C2424 H2413 0.950 . S
C2424 C2422 1.391 . S
C2424 C2425 1.400 . S
C2425 C2419 1.491 . S
C2425 C2424 1.400 . S
C2425 C2426 1.398 . S
C2426 H2414 0.950 . S
C2426 C2425 1.398 . S
C2426 C2427 1.391 . S
C2427 H2415 0.950 . S
C2427 C2423 1.393 . S
C2427 C2426 1.391 . S
H2428 C2436 0.950 . S
H2429 C2441 0.950 . S
H2430 C2438 0.950 . S
H2431 C2440 0.950 . S
H2432 C2442 0.950 . S
H2433 C2444 0.950 . S
H2434 C2446 0.950 . S
H2435 C2447 0.950 . S
C2436 H2428 0.950 . S
C2436 C2437 1.386 . S
C2436 C2438 1.391 . S
C2437 C2436 1.386 . S
C2437 C2441 1.393 . S
C2438 H2430 0.950 . S
C2438 C2436 1.391 . S
C2438 C2439 1.400 . S
C2439 C2438 1.400 . S
C2439 C2440 1.398 . S
C2439 C2445 1.491 . S
C2440 H2431 0.950 . S
C2440 C2439 1.398 . S
C2440 C2441 1.391 . S
C2441 H2429 0.950 . S
C2441 C2437 1.393 . S
C2441 C2440 1.391 . S
C2442 H2432 0.950 . S
C2442 C2443 1.386 . S
C2442 C2444 1.391 . S
C2443 C2442 1.386 . S
C2443 C2447 1.393 . S
C2444 H2433 0.950 . S
C2444 C2442 1.391 . S
C2444 C2445 1.400 . S
C2445 C2439 1.491 . S
C2445 C2444 1.400 . S
C2445 C2446 1.398 . S
C2446 H2434 0.950 . S
C2446 C2445 1.398 . S
C2446 C2447 1.391 . S
C2447 H2435 0.950 . S
C2447 C2443 1.393 . S
C2447 C2446 1.391 . S
H2448 C2456 0.950 . S
H2449 C2461 0.950 . S
H2450 C2458 0.950 . S
H2451 C2460 0.950 . S
H2452 C2462 0.950 . S
H2453 C2464 0.950 . S
H2454 C2466 0.950 . S
H2455 C2467 0.950 . S
C2456 H2448 0.950 . S
C2456 C2457 1.386 . S
C2456 C2458 1.391 . S
C2457 C2456 1.386 . S
C2457 C2461 1.393 . S
C2458 H2450 0.950 . S
C2458 C2456 1.391 . S
C2458 C2459 1.400 . S
C2459 C2458 1.400 . S
C2459 C2460 1.398 . S
C2459 C2465 1.491 . S
C2460 H2451 0.950 . S
C2460 C2459 1.398 . S
C2460 C2461 1.391 . S
C2461 H2449 0.950 . S
C2461 C2457 1.393 . S
C2461 C2460 1.391 . S
C2462 H2452 0.950 . S
C2462 C2463 1.386 . S
C2462 C2464 1.391 . S
C2463 C2462 1.386 . S
C2463 C2467 1.393 . S
C2464 H2453 0.950 . S
C2464 C2462 1.391 . S
C2464 C2465 1.400 . S
C2465 C2459 1.491 . S
C2465 C2464 1.400 . S
C2465 C2466 1.398 . S
C2466 H2454 0.950 . S
C2466 C2465 1.398 . S
C2466 C2467 1.391 . S
C2467 H2455 0.950 . S
C2467 C2463 1.393 . S
C2467 C2466 1.391 . S
H2468 C2476 0.950 . S
H2469 C2481 0.950 . S
H2470 C2478 0.950 . S
H2471 C2480 0.950 . S
H2472 C2482 0.950 . S
H2473 C2484 0.950 . S
H2474 C2486 0.950 . S
H2475 C2487 0.950 . S
C2476 H2468 0.950 . S
C2476 C2477 1.386 . S
C2476 C2478 1.391 . S
C2477 C2476 1.386 . S
C2477 C2481 1.393 . S
C2478 H2470 0.950 . S
C2478 C2476 1.391 . S
C2478 C2479 1.400 . S
C2479 C2478 1.400 . S
C2479 C2480 1.398 . S
C2479 C2485 1.491 . S
C2480 H2471 0.950 . S
C2480 C2479 1.398 . S
C2480 C2481 1.391 . S
C2481 H2469 0.950 . S
C2481 C2477 1.393 . S
C2481 C2480 1.391 . S
C2482 H2472 0.950 . S
C2482 C2483 1.386 . S
C2482 C2484 1.391 . S
C2483 C2482 1.386 . S
C2483 C2487 1.393 . S
C2484 H2473 0.950 . S
C2484 C2482 1.391 . S
C2484 C2485 1.400 . S
C2485 C2479 1.491 . S
C2485 C2484 1.400 . S
C2485 C2486 1.398 . S
C2486 H2474 0.950 . S
C2486 C2485 1.398 . S
C2486 C2487 1.391 . S
C2487 H2475 0.950 . S
C2487 C2483 1.393 . S
C2487 C2486 1.391 . S
H2488 C2496 0.950 . S
H2489 C2501 0.950 . S
H2490 C2498 0.950 . S
H2491 C2500 0.950 . S
H2492 C2502 0.950 . S
H2493 C2504 0.950 . S
H2494 C2506 0.950 . S
H2495 C2507 0.950 . S
C2496 H2488 0.950 . S
C2496 C2497 1.386 . S
C2496 C2498 1.391 . S
C2497 C2496 1.386 . S
C2497 C2501 1.393 . S
C2498 H2490 0.950 . S
C2498 C2496 1.391 . S
C2498 C2499 1.400 . S
C2499 C2498 1.400 . S
C2499 C2500 1.398 . S
C2499 C2505 1.491 . S
C2500 H2491 0.950 . S
C2500 C2499 1.398 . S
C2500 C2501 1.391 . S
C2501 H2489 0.950 . S
C2501 C2497 1.393 . S
C2501 C2500 1.391 . S
C2502 H2492 0.950 . S
C2502 C2503 1.386 . S
C2502 C2504 1.391 . S
C2503 C2502 1.386 . S
C2503 C2507 1.393 . S
C2504 H2493 0.950 . S
C2504 C2502 1.391 . S
C2504 C2505 1.400 . S
C2505 C2499 1.491 . S
C2505 C2504 1.400 . S
C2505 C2506 1.398 . S
C2506 H2494 0.950 . S
C2506 C2505 1.398 . S
C2506 C2507 1.391 . S
C2507 H2495 0.950 . S
C2507 C2503 1.393 . S
C2507 C2506 1.391 . S
H2508 C2516 0.950 . S
H2509 C2521 0.950 . S
H2510 C2518 0.950 . S
H2511 C2520 0.950 . S
H2512 C2522 0.950 . S
H2513 C2524 0.950 . S
H2514 C2526 0.950 . S
H2515 C2527 0.950 . S
C2516 H2508 0.950 . S
C2516 C2517 1.386 . S
C2516 C2518 1.391 . S
C2517 C2516 1.386 . S
C2517 C2521 1.393 . S
C2518 H2510 0.950 . S
C2518 C2516 1.391 . S
C2518 C2519 1.400 . S
C2519 C2518 1.400 . S
C2519 C2520 1.398 . S
C2519 C2525 1.491 . S
C2520 H2511 0.950 . S
C2520 C2519 1.398 . S
C2520 C2521 1.391 . S
C2521 H2509 0.950 . S
C2521 C2517 1.393 . S
C2521 C2520 1.391 . S
C2522 H2512 0.950 . S
C2522 C2523 1.386 . S
C2522 C2524 1.391 . S
C2523 C2522 1.386 . S
C2523 C2527 1.393 . S
C2524 H2513 0.950 . S
C2524 C2522 1.391 . S
C2524 C2525 1.400 . S
C2525 C2519 1.491 . S
C2525 C2524 1.400 . S
C2525 C2526 1.398 . S
C2526 H2514 0.950 . S
C2526 C2525 1.398 . S
C2526 C2527 1.391 . S
C2527 H2515 0.950 . S
C2527 C2523 1.393 . S
C2527 C2526 1.391 . S
H2528 C2536 0.950 . S
H2529 C2541 0.950 . S
H2530 C2538 0.950 . S
H2531 C2540 0.950 . S
H2532 C2542 0.950 . S
H2533 C2544 0.950 . S
H2534 C2546 0.950 . S
H2535 C2547 0.950 . S
C2536 H2528 0.950 . S
C2536 C2537 1.386 . S
C2536 C2538 1.391 . S
C2537 C2536 1.386 . S
C2537 C2541 1.393 . S
C2538 H2530 0.950 . S
C2538 C2536 1.391 . S
C2538 C2539 1.400 . S
C2539 C2538 1.400 . S
C2539 C2540 1.398 . S
C2539 C2545 1.491 . S
C2540 H2531 0.950 . S
C2540 C2539 1.398 . S
C2540 C2541 1.391 . S
C2541 H2529 0.950 . S
C2541 C2537 1.393 . S
C2541 C2540 1.391 . S
C2542 H2532 0.950 . S
C2542 C2543 1.386 . S
C2542 C2544 1.391 . S
C2543 C2542 1.386 . S
C2543 C2547 1.393 . S
C2544 H2533 0.950 . S
C2544 C2542 1.391 . S
C2544 C2545 1.400 . S
C2545 C2539 1.491 . S
C2545 C2544 1.400 . S
C2545 C2546 1.398 . S
C2546 H2534 0.950 . S
C2546 C2545 1.398 . S
C2546 C2547 1.391 . S
C2547 H2535 0.950 . S
C2547 C2543 1.393 . S
C2547 C2546 1.391 . S
H2548 C2556 0.950 . S
H2549 C2561 0.950 . S
H2550 C2558 0.950 . S
H2551 C2560 0.950 1_655 S
H2552 C2562 0.950 . S
H2553 C2564 0.950 . S
H2554 C2566 0.950 1_455 S
H2555 C2567 0.950 . S
C2556 H2548 0.950 . S
C2556 C2557 1.386 . S
C2556 C2558 1.391 . S
C2557 C2556 1.386 . S
C2557 C2561 1.393 1_565 S
C2558 H2550 0.950 . S
C2558 C2556 1.391 . S
C2558 C2559 1.400 . S
C2559 C2558 1.400 . S
C2559 C2560 1.398 1_565 S
C2559 C2565 1.491 1_465 S
C2560 H2551 0.950 1_455 S
C2560 C2559 1.398 1_545 S
C2560 C2561 1.391 . S
C2561 H2549 0.950 . S
C2561 C2557 1.393 1_545 S
C2561 C2560 1.391 . S
C2562 H2552 0.950 . S
C2562 C2563 1.386 . S
C2562 C2564 1.391 . S
C2563 C2562 1.386 . S
C2563 C2567 1.393 1_545 S
C2564 H2553 0.950 . S
C2564 C2562 1.391 . S
C2564 C2565 1.400 . S
C2565 C2559 1.491 1_645 S
C2565 C2564 1.400 . S
C2565 C2566 1.398 1_545 S
C2566 H2554 0.950 1_655 S
C2566 C2565 1.398 1_565 S
C2566 C2567 1.391 . S
C2567 H2555 0.950 . S
C2567 C2563 1.393 1_565 S
C2567 C2566 1.391 . S
H2568 C2576 0.950 . S
H2569 C2581 0.950 . S
H2570 C2578 0.950 . S
H2571 C2580 0.950 . S
H2572 C2582 0.950 . S
H2573 C2584 0.950 . S
H2574 C2586 0.950 . S
H2575 C2587 0.950 . S
C2576 H2568 0.950 . S
C2576 C2577 1.386 . S
C2576 C2578 1.391 . S
C2577 C2576 1.386 . S
C2577 C2581 1.393 . S
C2578 H2570 0.950 . S
C2578 C2576 1.391 . S
C2578 C2579 1.400 . S
C2579 C2578 1.400 . S
C2579 C2580 1.398 . S
C2579 C2585 1.491 . S
C2580 H2571 0.950 . S
C2580 C2579 1.398 . S
C2580 C2581 1.391 . S
C2581 H2569 0.950 . S
C2581 C2577 1.393 . S
C2581 C2580 1.391 . S
C2582 H2572 0.950 . S
C2582 C2583 1.386 . S
C2582 C2584 1.391 . S
C2583 C2582 1.386 . S
C2583 C2587 1.393 . S
C2584 H2573 0.950 . S
C2584 C2582 1.391 . S
C2584 C2585 1.400 . S
C2585 C2579 1.491 . S
C2585 C2584 1.400 . S
C2585 C2586 1.398 . S
C2586 H2574 0.950 . S
C2586 C2585 1.398 . S
C2586 C2587 1.391 . S
C2587 H2575 0.950 . S
C2587 C2583 1.393 . S
C2587 C2586 1.391 . S
H2588 C2596 0.950 . S
H2589 C2601 0.950 . S
H2590 C2598 0.992 . S
H2591 C2600 0.950 . S
H2592 C2602 0.950 . S
H2593 C2604 0.992 . S
H2594 C2606 0.950 . S
H2595 C2607 0.950 . S
C2596 H2588 0.950 . S
C2596 C2597 1.386 . S
C2596 C2598 1.391 . S
C2597 C2596 1.386 . S
C2597 C2601 1.393 1_545 S
C2598 H2590 0.992 . S
C2598 C2596 1.391 . S
C2598 C2599 1.400 . S
C2599 C2598 1.400 . S
C2599 C2600 1.398 1_545 S
C2599 C2605 1.491 1_544 S
C2600 H2591 0.950 . S
C2600 C2599 1.398 1_565 S
C2600 C2601 1.391 . S
C2601 H2589 0.950 . S
C2601 C2597 1.393 1_565 S
C2601 C2600 1.391 . S
C2602 H2592 0.950 . S
C2602 C2603 1.386 . S
C2602 C2604 1.391 . S
C2603 C2602 1.386 . S
C2603 C2607 1.393 1_565 S
C2604 H2593 0.992 . S
C2604 C2602 1.391 . S
C2604 C2605 1.400 . S
C2605 C2599 1.491 1_566 S
C2605 C2604 1.400 . S
C2605 C2606 1.398 1_565 S
C2606 H2594 0.950 . S
C2606 C2605 1.398 1_545 S
C2606 C2607 1.391 . S
C2607 H2595 0.950 . S
C2607 C2603 1.393 1_545 S
C2607 C2606 1.391 . S
H2608 C2616 0.950 . S
H2609 C2621 0.950 . S
H2610 C2618 0.950 . S
H2611 C2620 0.950 . S
H2612 C2622 0.950 . S
H2613 C2624 0.950 . S
H2614 C2626 0.950 . S
H2615 C2627 0.950 . S
C2616 H2608 0.950 . S
C2616 C2617 1.386 . S
C2616 C2618 1.391 . S
C2617 C2616 1.386 . S
C2617 C2621 1.393 . S
C2618 H2610 0.950 . S
C2618 C2616 1.391 . S
C2618 C2619 1.400 . S
C2619 C2618 1.400 . S
C2619 C2620 1.398 . S
C2619 C2625 1.491 . S
C2620 H2611 0.950 . S
C2620 C2619 1.398 . S
C2620 C2621 1.391 . S
C2621 H2609 0.950 . S
C2621 C2617 1.393 . S
C2621 C2620 1.391 . S
C2622 H2612 0.950 . S
C2622 C2623 1.386 . S
C2622 C2624 1.391 . S
C2623 C2622 1.386 . S
C2623 C2627 1.393 . S
C2624 H2613 0.950 . S
C2624 C2622 1.391 . S
C2624 C2625 1.400 . S
C2625 C2619 1.491 . S
C2625 C2624 1.400 . S
C2625 C2626 1.398 . S
C2626 H2614 0.950 . S
C2626 C2625 1.398 . S
C2626 C2627 1.391 . S
C2627 H2615 0.950 . S
C2627 C2623 1.393 . S
C2627 C2626 1.391 . S
H2628 C2636 0.950 . S
H2629 C2641 0.950 . S
H2630 C2638 0.950 . S
H2631 C2640 0.950 . S
H2632 C2642 0.950 . S
H2633 C2644 0.950 . S
H2634 C2646 0.950 . S
H2635 C2647 0.950 . S
C2636 H2628 0.950 . S
C2636 C2637 1.386 1_545 S
C2636 C2638 1.391 . S
C2637 C2636 1.386 1_565 S
C2637 C2641 1.393 . S
C2638 H2630 0.950 . S
C2638 C2636 1.391 . S
C2638 C2639 1.400 1_545 S
C2639 C2638 1.400 1_565 S
C2639 C2640 1.398 . S
C2639 C2645 1.491 1_565 S
C2640 H2631 0.950 . S
C2640 C2639 1.398 . S
C2640 C2641 1.391 . S
C2641 H2629 0.950 . S
C2641 C2637 1.393 . S
C2641 C2640 1.391 . S
C2642 H2632 0.950 . S
C2642 C2643 1.386 1_565 S
C2642 C2644 1.391 . S
C2643 C2642 1.386 1_545 S
C2643 C2647 1.393 . S
C2644 H2633 0.950 . S
C2644 C2642 1.391 . S
C2644 C2645 1.400 1_565 S
C2645 C2639 1.491 1_545 S
C2645 C2644 1.400 1_545 S
C2645 C2646 1.398 . S
C2646 H2634 0.950 . S
C2646 C2645 1.398 . S
C2646 C2647 1.391 . S
C2647 H2635 0.950 . S
C2647 C2643 1.393 . S
C2647 C2646 1.391 . S
H2648 C2656 0.950 . S
H2649 C2661 0.950 . S
H2650 C2658 0.950 . S
H2651 C2660 0.950 . S
H2652 C2662 0.950 . S
H2653 C2664 0.950 . S
H2654 C2666 0.950 . S
H2655 C2667 0.950 . S
C2656 H2648 0.950 . S
C2656 C2657 1.386 . S
C2656 C2658 1.391 . S
C2657 C2656 1.386 . S
C2657 C2661 1.393 . S
C2658 H2650 0.950 . S
C2658 C2656 1.391 . S
C2658 C2659 1.400 . S
C2659 C2658 1.400 . S
C2659 C2660 1.398 . S
C2659 C2665 1.491 . S
C2660 H2651 0.950 . S
C2660 C2659 1.398 . S
C2660 C2661 1.391 . S
C2661 H2649 0.950 . S
C2661 C2657 1.393 . S
C2661 C2660 1.391 . S
C2662 H2652 0.950 . S
C2662 C2663 1.386 . S
C2662 C2664 1.391 . S
C2663 C2662 1.386 . S
C2663 C2667 1.393 . S
C2664 H2653 0.950 . S
C2664 C2662 1.391 . S
C2664 C2665 1.400 . S
C2665 C2659 1.491 . S
C2665 C2664 1.400 . S
C2665 C2666 1.398 . S
C2666 H2654 0.950 . S
C2666 C2665 1.398 . S
C2666 C2667 1.391 . S
C2667 H2655 0.950 . S
C2667 C2663 1.393 . S
C2667 C2666 1.391 . S
H2668 C2676 0.950 . S
H2669 C2681 0.950 . S
H2670 C2678 0.950 . S
H2671 C2680 0.950 . S
H2672 C2682 0.950 . S
H2673 C2684 0.950 . S
H2674 C2686 0.950 . S
H2675 C2687 0.950 . S
C2676 H2668 0.950 . S
C2676 C2677 1.386 1_565 S
C2676 C2678 1.391 . S
C2677 C2676 1.386 1_545 S
C2677 C2681 1.393 . S
C2678 H2670 0.950 . S
C2678 C2676 1.391 . S
C2678 C2679 1.400 1_565 S
C2679 C2678 1.400 1_545 S
C2679 C2680 1.398 . S
C2679 C2685 1.491 1_446 S
C2680 H2671 0.950 . S
C2680 C2679 1.398 . S
C2680 C2681 1.391 . S
C2681 H2669 0.950 . S
C2681 C2677 1.393 . S
C2681 C2680 1.391 . S
C2682 H2672 0.950 . S
C2682 C2683 1.386 1_545 S
C2682 C2684 1.391 . S
C2683 C2682 1.386 1_565 S
C2683 C2687 1.393 . S
C2684 H2673 0.950 . S
C2684 C2682 1.391 . S
C2684 C2685 1.400 1_545 S
C2685 C2679 1.491 1_664 S
C2685 C2684 1.400 1_565 S
C2685 C2686 1.398 . S
C2686 H2674 0.950 . S
C2686 C2685 1.398 . S
C2686 C2687 1.391 . S
C2687 H2675 0.950 . S
C2687 C2683 1.393 . S
C2687 C2686 1.391 . S
H2688 C2696 0.950 . S
H2689 C2701 0.950 . S
H2690 C2698 0.950 . S
H2691 C2700 0.950 . S
H2692 C2702 0.950 . S
H2693 C2704 0.950 . S
H2694 C2706 0.950 . S
H2695 C2707 0.950 . S
C2696 H2688 0.950 . S
C2696 C2697 1.386 . S
C2696 C2698 1.391 . S
C2697 C2696 1.386 . S
C2697 C2701 1.393 . S
C2698 H2690 0.950 . S
C2698 C2696 1.391 . S
C2698 C2699 1.400 . S
C2699 C2698 1.400 . S
C2699 C2700 1.398 . S
C2699 C2705 1.491 . S
C2700 H2691 0.950 . S
C2700 C2699 1.398 . S
C2700 C2701 1.391 . S
C2701 H2689 0.950 . S
C2701 C2697 1.393 . S
C2701 C2700 1.391 . S
C2702 H2692 0.950 . S
C2702 C2703 1.386 . S
C2702 C2704 1.391 . S
C2703 C2702 1.386 . S
C2703 C2707 1.393 . S
C2704 H2693 0.950 . S
C2704 C2702 1.391 . S
C2704 C2705 1.400 . S
C2705 C2699 1.491 . S
C2705 C2704 1.400 . S
C2705 C2706 1.398 . S
C2706 H2694 0.950 . S
C2706 C2705 1.398 . S
C2706 C2707 1.391 . S
C2707 H2695 0.950 . S
C2707 C2703 1.393 . S
C2707 C2706 1.391 . S
H2708 C2716 0.950 . S
H2709 C2721 0.950 . S
H2710 C2718 0.950 . S
H2711 C2720 0.950 . S
H2712 C2722 0.950 . S
H2713 C2724 0.950 . S
H2714 C2726 0.950 . S
H2715 C2727 0.950 . S
C2716 H2708 0.950 . S
C2716 C2717 1.386 . S
C2716 C2718 1.391 . S
C2717 C2716 1.386 . S
C2717 C2721 1.393 . S
C2718 H2710 0.950 . S
C2718 C2716 1.391 . S
C2718 C2719 1.400 . S
C2719 C2718 1.400 . S
C2719 C2720 1.398 . S
C2719 C2725 1.491 . S
C2720 H2711 0.950 . S
C2720 C2719 1.398 . S
C2720 C2721 1.391 . S
C2721 H2709 0.950 . S
C2721 C2717 1.393 . S
C2721 C2720 1.391 . S
C2722 H2712 0.950 . S
C2722 C2723 1.386 . S
C2722 C2724 1.391 . S
C2723 C2722 1.386 . S
C2723 C2727 1.393 . S
C2724 H2713 0.950 . S
C2724 C2722 1.391 . S
C2724 C2725 1.400 . S
C2725 C2719 1.491 . S
C2725 C2724 1.400 . S
C2725 C2726 1.398 . S
C2726 H2714 0.950 . S
C2726 C2725 1.398 . S
C2726 C2727 1.391 . S
C2727 H2715 0.950 . S
C2727 C2723 1.393 . S
C2727 C2726 1.391 . S
H2728 C2736 0.950 . S
H2729 C2741 0.950 . S
H2730 C2738 0.950 . S
H2731 C2740 0.950 . S
H2732 C2742 0.950 . S
H2733 C2744 0.950 . S
H2734 C2746 0.950 . S
H2735 C2747 0.950 . S
C2736 H2728 0.950 . S
C2736 C2737 1.386 . S
C2736 C2738 1.391 . S
C2737 C2736 1.386 . S
C2737 C2741 1.393 . S
C2738 H2730 0.950 . S
C2738 C2736 1.391 . S
C2738 C2739 1.400 . S
C2739 C2738 1.400 . S
C2739 C2740 1.398 . S
C2739 C2745 1.491 . S
C2740 H2731 0.950 . S
C2740 C2739 1.398 . S
C2740 C2741 1.391 . S
C2741 H2729 0.950 . S
C2741 C2737 1.393 . S
C2741 C2740 1.391 . S
C2742 H2732 0.950 . S
C2742 C2743 1.386 . S
C2742 C2744 1.391 . S
C2743 C2742 1.386 . S
C2743 C2747 1.393 . S
C2744 H2733 0.950 . S
C2744 C2742 1.391 . S
C2744 C2745 1.400 . S
C2745 C2739 1.491 . S
C2745 C2744 1.400 . S
C2745 C2746 1.398 . S
C2746 H2734 0.950 . S
C2746 C2745 1.398 . S
C2746 C2747 1.391 . S
C2747 H2735 0.950 . S
C2747 C2743 1.393 . S
C2747 C2746 1.391 . S
H2748 C2756 0.950 . S
H2749 C2761 0.950 . S
H2750 C2758 0.950 . S
H2751 C2760 0.950 . S
H2752 C2762 0.950 . S
H2753 C2764 0.950 . S
H2754 C2766 0.950 . S
H2755 C2767 0.950 . S
C2756 H2748 0.950 . S
C2756 C2757 1.386 . S
C2756 C2758 1.391 . S
C2757 C2756 1.386 . S
C2757 C2761 1.393 . S
C2758 H2750 0.950 . S
C2758 C2756 1.391 . S
C2758 C2759 1.400 . S
C2759 C2758 1.400 . S
C2759 C2760 1.398 . S
C2759 C2765 1.491 . S
C2760 H2751 0.950 . S
C2760 C2759 1.398 . S
C2760 C2761 1.391 . S
C2761 H2749 0.950 . S
C2761 C2757 1.393 . S
C2761 C2760 1.391 . S
C2762 H2752 0.950 . S
C2762 C2763 1.386 . S
C2762 C2764 1.391 . S
C2763 C2762 1.386 . S
C2763 C2767 1.393 . S
C2764 H2753 0.950 . S
C2764 C2762 1.391 . S
C2764 C2765 1.400 . S
C2765 C2759 1.491 . S
C2765 C2764 1.400 . S
C2765 C2766 1.398 . S
C2766 H2754 0.950 . S
C2766 C2765 1.398 . S
C2766 C2767 1.391 . S
C2767 H2755 0.950 . S
C2767 C2763 1.393 . S
C2767 C2766 1.391 . S
H2768 C2776 0.950 . S
H2769 C2781 0.950 . S
H2770 C2778 0.950 . S
H2771 C2780 0.950 . S
H2772 C2782 0.950 . S
H2773 C2784 0.950 . S
H2774 C2786 0.950 . S
H2775 C2787 0.950 . S
C2776 H2768 0.950 . S
C2776 C2777 1.386 . S
C2776 C2778 1.391 . S
C2777 C2776 1.386 . S
C2777 C2781 1.393 . S
C2778 H2770 0.950 . S
C2778 C2776 1.391 . S
C2778 C2779 1.400 . S
C2779 C2778 1.400 . S
C2779 C2780 1.398 . S
C2779 C2785 1.491 1_554 S
C2780 H2771 0.950 . S
C2780 C2779 1.398 . S
C2780 C2781 1.391 . S
C2781 H2769 0.950 . S
C2781 C2777 1.393 . S
C2781 C2780 1.391 . S
C2782 H2772 0.950 . S
C2782 C2783 1.386 . S
C2782 C2784 1.391 . S
C2783 C2782 1.386 . S
C2783 C2787 1.393 . S
C2784 H2773 0.950 . S
C2784 C2782 1.391 . S
C2784 C2785 1.400 . S
C2785 C2779 1.491 1_556 S
C2785 C2784 1.400 . S
C2785 C2786 1.398 . S
C2786 H2774 0.950 . S
C2786 C2785 1.398 . S
C2786 C2787 1.391 . S
C2787 H2775 0.950 . S
C2787 C2783 1.393 . S
C2787 C2786 1.391 . S
H2788 C2796 0.950 . S
H2789 C2801 0.974 . S
H2790 C2798 0.950 . S
H2791 C2800 0.950 . S
H2792 C2802 0.950 . S
H2793 C2804 0.950 . S
H2794 C2806 0.950 . S
H2795 C2807 0.974 . S
C2796 H2788 0.950 . S
C2796 C2797 1.386 . S
C2796 C2798 1.391 . S
C2797 C2796 1.386 . S
C2797 C2801 1.355 1_455 S
C2798 H2790 0.950 . S
C2798 C2796 1.391 . S
C2798 C2799 1.400 . S
C2799 C2798 1.400 . S
C2799 C2800 1.398 1_455 S
C2799 C2805 1.491 1_455 S
C2800 H2791 0.950 . S
C2800 C2799 1.398 1_655 S
C2800 C2801 1.405 . S
C2801 H2789 0.974 . S
C2801 C2797 1.355 1_655 S
C2801 C2800 1.405 . S
C2802 H2792 0.950 . S
C2802 C2803 1.386 . S
C2802 C2804 1.391 . S
C2803 C2802 1.386 . S
C2803 C2807 1.355 1_655 S
C2804 H2793 0.950 . S
C2804 C2802 1.391 . S
C2804 C2805 1.400 . S
C2805 C2799 1.491 1_655 S
C2805 C2804 1.400 . S
C2805 C2806 1.398 1_655 S
C2806 H2794 0.950 . S
C2806 C2805 1.398 1_455 S
C2806 C2807 1.405 . S
C2807 H2795 0.974 . S
C2807 C2803 1.355 1_455 S
C2807 C2806 1.405 . S
H2808 C2816 0.950 . S
H2809 C2821 0.950 . S
H2810 C2818 0.950 . S
H2811 C2820 0.950 . S
H2812 C2822 0.950 . S
H2813 C2824 0.950 . S
H2814 C2826 0.950 . S
H2815 C2827 0.950 . S
C2816 H2808 0.950 . S
C2816 C2817 1.386 . S
C2816 C2818 1.391 . S
C2817 C2816 1.386 . S
C2817 C2821 1.393 . S
C2818 H2810 0.950 . S
C2818 C2816 1.391 . S
C2818 C2819 1.400 . S
C2819 C2818 1.400 . S
C2819 C2820 1.398 . S
C2819 C2825 1.491 1_454 S
C2820 H2811 0.950 . S
C2820 C2819 1.398 . S
C2820 C2821 1.391 . S
C2821 H2809 0.950 . S
C2821 C2817 1.393 . S
C2821 C2820 1.391 . S
C2822 H2812 0.950 . S
C2822 C2823 1.386 . S
C2822 C2824 1.391 . S
C2823 C2822 1.386 . S
C2823 C2827 1.393 . S
C2824 H2813 0.950 . S
C2824 C2822 1.391 . S
C2824 C2825 1.400 . S
C2825 C2819 1.491 1_656 S
C2825 C2824 1.400 . S
C2825 C2826 1.398 . S
C2826 H2814 0.950 . S
C2826 C2825 1.398 . S
C2826 C2827 1.391 . S
C2827 H2815 0.950 . S
C2827 C2823 1.393 . S
C2827 C2826 1.391 . S
H2828 C2836 0.950 . S
H2829 C2841 0.950 . S
H2830 C2838 0.950 . S
H2831 C2840 0.950 . S
H2832 C2842 0.950 . S
H2833 C2844 0.950 . S
H2834 C2846 0.950 . S
H2835 C2847 0.950 . S
C2836 H2828 0.950 . S
C2836 C2837 1.386 . S
C2836 C2838 1.391 . S
C2837 C2836 1.386 . S
C2837 C2841 1.393 . S
C2838 H2830 0.950 . S
C2838 C2836 1.391 . S
C2838 C2839 1.400 . S
C2839 C2838 1.400 . S
C2839 C2840 1.398 . S
C2839 C2845 1.491 . S
C2840 H2831 0.950 . S
C2840 C2839 1.398 . S
C2840 C2841 1.391 . S
C2841 H2829 0.950 . S
C2841 C2837 1.393 . S
C2841 C2840 1.391 . S
C2842 H2832 0.950 . S
C2842 C2843 1.386 . S
C2842 C2844 1.391 . S
C2843 C2842 1.386 . S
C2843 C2847 1.393 . S
C2844 H2833 0.950 . S
C2844 C2842 1.391 . S
C2844 C2845 1.400 . S
C2845 C2839 1.491 . S
C2845 C2844 1.400 . S
C2845 C2846 1.398 . S
C2846 H2834 0.950 . S
C2846 C2845 1.398 . S
C2846 C2847 1.391 . S
C2847 H2835 0.950 . S
C2847 C2843 1.393 . S
C2847 C2846 1.391 . S
H2848 C2856 0.950 . S
H2849 C2861 0.950 . S
H2850 C2858 0.950 . S
H2851 C2860 0.950 . S
H2852 C2862 0.950 . S
H2853 C2864 0.950 . S
H2854 C2866 0.950 . S
H2855 C2867 0.950 . S
C2856 H2848 0.950 . S
C2856 C2857 1.386 . S
C2856 C2858 1.391 . S
C2857 C2856 1.386 . S
C2857 C2861 1.393 . S
C2858 H2850 0.950 . S
C2858 C2856 1.391 . S
C2858 C2859 1.400 . S
C2859 C2858 1.400 . S
C2859 C2860 1.398 . S
C2859 C2865 1.491 . S
C2860 H2851 0.950 . S
C2860 C2859 1.398 . S
C2860 C2861 1.391 . S
C2861 H2849 0.950 . S
C2861 C2857 1.393 . S
C2861 C2860 1.391 . S
C2862 H2852 0.950 . S
C2862 C2863 1.386 . S
C2862 C2864 1.391 . S
C2863 C2862 1.386 . S
C2863 C2867 1.393 . S
C2864 H2853 0.950 . S
C2864 C2862 1.391 . S
C2864 C2865 1.400 . S
C2865 C2859 1.491 . S
C2865 C2864 1.400 . S
C2865 C2866 1.398 . S
C2866 H2854 0.950 . S
C2866 C2865 1.398 . S
C2866 C2867 1.391 . S
C2867 H2855 0.950 . S
C2867 C2863 1.393 . S
C2867 C2866 1.391 . S
H2868 C2876 0.950 . S
H2869 C2881 0.950 . S
H2870 C2878 0.950 . S
H2871 C2880 0.950 . S
H2872 C2882 0.950 . S
H2873 C2884 0.950 . S
H2874 C2886 0.950 . S
H2875 C2887 0.950 . S
C2876 H2868 0.950 . S
C2876 C2877 1.386 . S
C2876 C2878 1.391 . S
C2877 C2876 1.386 . S
C2877 C2881 1.393 . S
C2878 H2870 0.950 . S
C2878 C2876 1.391 . S
C2878 C2879 1.400 . S
C2879 C2878 1.400 . S
C2879 C2880 1.398 . S
C2879 C2885 1.491 . S
C2880 H2871 0.950 . S
C2880 C2879 1.398 . S
C2880 C2881 1.391 . S
C2881 H2869 0.950 . S
C2881 C2877 1.393 . S
C2881 C2880 1.391 . S
C2882 H2872 0.950 . S
C2882 C2883 1.386 . S
C2882 C2884 1.391 . S
C2883 C2882 1.386 . S
C2883 C2887 1.393 . S
C2884 H2873 0.950 . S
C2884 C2882 1.391 . S
C2884 C2885 1.400 . S
C2885 C2879 1.491 . S
C2885 C2884 1.400 . S
C2885 C2886 1.398 . S
C2886 H2874 0.950 . S
C2886 C2885 1.398 . S
C2886 C2887 1.391 . S
C2887 H2875 0.950 . S
C2887 C2883 1.393 . S
C2887 C2886 1.391 . S
H2888 C2896 0.950 . S
H2889 C2901 0.950 . S
H2890 C2898 0.950 . S
H2891 C2900 0.950 . S
H2892 C2902 0.950 1_545 S
H2893 C2904 0.950 . S
H2894 C2906 0.950 . S
H2895 C2907 0.950 . S
C2896 H2888 0.950 . S
C2896 C2897 1.386 . S
C2896 C2898 1.391 . S
C2897 C2896 1.386 . S
C2897 C2901 1.393 . S
C2898 H2890 0.950 . S
C2898 C2896 1.391 . S
C2898 C2899 1.400 . S
C2899 C2898 1.400 . S
C2899 C2900 1.398 . S
C2899 C2905 1.491 . S
C2900 H2891 0.950 . S
C2900 C2899 1.398 . S
C2900 C2901 1.391 . S
C2901 H2889 0.950 . S
C2901 C2897 1.393 . S
C2901 C2900 1.391 . S
C2902 H2892 0.950 1_565 S
C2902 C2903 1.386 . S
C2902 C2904 1.391 . S
C2903 C2902 1.386 . S
C2903 C2907 1.393 . S
C2904 H2893 0.950 . S
C2904 C2902 1.391 . S
C2904 C2905 1.400 . S
C2905 C2899 1.491 . S
C2905 C2904 1.400 . S
C2905 C2906 1.398 . S
C2906 H2894 0.950 . S
C2906 C2905 1.398 . S
C2906 C2907 1.391 . S
C2907 H2895 0.950 . S
C2907 C2903 1.393 . S
C2907 C2906 1.391 . S
H2908 C2916 0.950 . S
H2909 C2921 0.950 . S
H2910 C2918 0.950 . S
H2911 C2920 0.950 . S
H2912 C2922 0.950 . S
H2913 C2924 0.950 . S
H2914 C2926 0.950 . S
H2915 C2927 0.950 . S
C2916 H2908 0.950 . S
C2916 C2917 1.386 . S
C2916 C2918 1.391 . S
C2917 C2916 1.386 . S
C2917 C2921 1.393 . S
C2918 H2910 0.950 . S
C2918 C2916 1.391 . S
C2918 C2919 1.400 . S
C2919 C2918 1.400 . S
C2919 C2920 1.398 . S
C2919 C2925 1.491 . S
C2920 H2911 0.950 . S
C2920 C2919 1.398 . S
C2920 C2921 1.391 . S
C2921 H2909 0.950 . S
C2921 C2917 1.393 . S
C2921 C2920 1.391 . S
C2922 H2912 0.950 . S
C2922 C2923 1.386 . S
C2922 C2924 1.391 . S
C2923 C2922 1.386 . S
C2923 C2927 1.393 . S
C2924 H2913 0.950 . S
C2924 C2922 1.391 . S
C2924 C2925 1.400 . S
C2925 C2919 1.491 . S
C2925 C2924 1.400 . S
C2925 C2926 1.398 . S
C2926 H2914 0.950 . S
C2926 C2925 1.398 . S
C2926 C2927 1.391 . S
C2927 H2915 0.950 . S
C2927 C2923 1.393 . S
C2927 C2926 1.391 . S
H2928 C2936 0.950 . S
H2929 C2941 0.950 . S
H2930 C2938 0.950 . S
H2931 C2940 0.950 . S
H2932 C2942 0.950 . S
H2933 C2944 0.950 . S
H2934 C2946 0.950 . S
H2935 C2947 0.950 . S
C2936 H2928 0.950 . S
C2936 C2937 1.386 . S
C2936 C2938 1.391 . S
C2937 C2936 1.386 . S
C2937 C2941 1.393 . S
C2938 H2930 0.950 . S
C2938 C2936 1.391 . S
C2938 C2939 1.400 . S
C2939 C2938 1.400 . S
C2939 C2940 1.398 . S
C2939 C2945 1.491 . S
C2940 H2931 0.950 . S
C2940 C2939 1.398 . S
C2940 C2941 1.391 . S
C2941 H2929 0.950 . S
C2941 C2937 1.393 . S
C2941 C2940 1.391 . S
C2942 H2932 0.950 . S
C2942 C2943 1.386 . S
C2942 C2944 1.391 . S
C2943 C2942 1.386 . S
C2943 C2947 1.393 . S
C2944 H2933 0.950 . S
C2944 C2942 1.391 . S
C2944 C2945 1.400 . S
C2945 C2939 1.491 . S
C2945 C2944 1.400 . S
C2945 C2946 1.398 . S
C2946 H2934 0.950 . S
C2946 C2945 1.398 . S
C2946 C2947 1.391 . S
C2947 H2935 0.950 . S
C2947 C2943 1.393 . S
C2947 C2946 1.391 . S
H2948 C2956 0.950 . S
H2949 C2961 0.950 . S
H2950 C2958 0.950 . S
H2951 C2960 0.950 . S
H2952 C2962 0.950 . S
H2953 C2964 0.950 . S
H2954 C2966 0.950 . S
H2955 C2967 0.950 . S
C2956 H2948 0.950 . S
C2956 C2957 1.386 . S
C2956 C2958 1.391 . S
C2957 C2956 1.386 . S
C2957 C2961 1.393 . S
C2958 H2950 0.950 . S
C2958 C2956 1.391 . S
C2958 C2959 1.400 . S
C2959 C2958 1.400 . S
C2959 C2960 1.398 . S
C2959 C2965 1.491 . S
C2960 H2951 0.950 . S
C2960 C2959 1.398 . S
C2960 C2961 1.391 . S
C2961 H2949 0.950 . S
C2961 C2957 1.393 . S
C2961 C2960 1.391 . S
C2962 H2952 0.950 . S
C2962 C2963 1.386 . S
C2962 C2964 1.391 . S
C2963 C2962 1.386 . S
C2963 C2967 1.393 . S
C2964 H2953 0.950 . S
C2964 C2962 1.391 . S
C2964 C2965 1.400 . S
C2965 C2959 1.491 . S
C2965 C2964 1.400 . S
C2965 C2966 1.398 . S
C2966 H2954 0.950 . S
C2966 C2965 1.398 . S
C2966 C2967 1.391 . S
C2967 H2955 0.950 . S
C2967 C2963 1.393 . S
C2967 C2966 1.391 . S
H2968 C2976 0.950 . S
H2969 C2981 0.950 . S
H2970 C2978 0.950 . S
H2971 C2980 0.950 . S
H2972 C2982 0.950 . S
H2973 C2984 0.950 . S
H2974 C2986 0.950 . S
H2975 C2987 0.950 . S
C2976 H2968 0.950 . S
C2976 C2977 1.386 . S
C2976 C2978 1.391 . S
C2977 C2976 1.386 . S
C2977 C2981 1.393 . S
C2978 H2970 0.950 . S
C2978 C2976 1.391 . S
C2978 C2979 1.400 . S
C2979 C2978 1.400 . S
C2979 C2980 1.398 . S
C2979 C2985 1.491 . S
C2980 H2971 0.950 . S
C2980 C2979 1.398 . S
C2980 C2981 1.391 . S
C2981 H2969 0.950 . S
C2981 C2977 1.393 . S
C2981 C2980 1.391 . S
C2982 H2972 0.950 . S
C2982 C2983 1.386 . S
C2982 C2984 1.391 . S
C2983 C2982 1.386 . S
C2983 C2987 1.393 . S
C2984 H2973 0.950 . S
C2984 C2982 1.391 . S
C2984 C2985 1.400 . S
C2985 C2979 1.491 . S
C2985 C2984 1.400 . S
C2985 C2986 1.398 . S
C2986 H2974 0.950 . S
C2986 C2985 1.398 . S
C2986 C2987 1.391 . S
C2987 H2975 0.950 . S
C2987 C2983 1.393 . S
C2987 C2986 1.391 . S
H2988 C2996 0.950 1_565 S
H2989 C3001 0.950 . S
H2990 C2998 0.950 . S
H2991 C3000 0.950 . S
H2992 C3002 0.950 . S
H2993 C3004 0.950 . S
H2994 C3006 0.950 . S
H2995 C3007 0.950 . S
C2996 H2988 0.950 1_545 S
C2996 C2997 1.386 . S
C2996 C2998 1.391 . S
C2997 C2996 1.386 . S
C2997 C3001 1.393 . S
C2998 H2990 0.950 . S
C2998 C2996 1.391 . S
C2998 C2999 1.400 . S
C2999 C2998 1.400 . S
C2999 C3000 1.398 . S
C2999 C3005 1.491 . S
C3000 H2991 0.950 . S
C3000 C2999 1.398 . S
C3000 C3001 1.391 . S
C3001 H2989 0.950 . S
C3001 C2997 1.393 . S
C3001 C3000 1.391 . S
C3002 H2992 0.950 . S
C3002 C3003 1.386 . S
C3002 C3004 1.391 . S
C3003 C3002 1.386 . S
C3003 C3007 1.393 . S
C3004 H2993 0.950 . S
C3004 C3002 1.391 . S
C3004 C3005 1.400 . S
C3005 C2999 1.491 . S
C3005 C3004 1.400 . S
C3005 C3006 1.398 . S
C3006 H2994 0.950 . S
C3006 C3005 1.398 . S
C3006 C3007 1.391 . S
C3007 H2995 0.950 . S
C3007 C3003 1.393 . S
C3007 C3006 1.391 . S
H3008 C3016 0.950 . S
H3009 C3021 0.950 . S
H3010 C3018 0.950 . S
H3011 C3020 0.950 . S
H3012 C3022 0.950 . S
H3013 C3024 0.950 . S
H3014 C3026 0.950 . S
H3015 C3027 0.950 . S
C3016 H3008 0.950 . S
C3016 C3017 1.386 . S
C3016 C3018 1.391 . S
C3017 C3016 1.386 . S
C3017 C3021 1.393 . S
C3018 H3010 0.950 . S
C3018 C3016 1.391 . S
C3018 C3019 1.400 . S
C3019 C3018 1.400 . S
C3019 C3020 1.398 . S
C3019 C3025 1.491 . S
C3020 H3011 0.950 . S
C3020 C3019 1.398 . S
C3020 C3021 1.391 . S
C3021 H3009 0.950 . S
C3021 C3017 1.393 . S
C3021 C3020 1.391 . S
C3022 H3012 0.950 . S
C3022 C3023 1.386 . S
C3022 C3024 1.391 . S
C3023 C3022 1.386 . S
C3023 C3027 1.393 . S
C3024 H3013 0.950 . S
C3024 C3022 1.391 . S
C3024 C3025 1.400 . S
C3025 C3019 1.491 . S
C3025 C3024 1.400 . S
C3025 C3026 1.398 . S
C3026 H3014 0.950 . S
C3026 C3025 1.398 . S
C3026 C3027 1.391 . S
C3027 H3015 0.950 . S
C3027 C3023 1.393 . S
C3027 C3026 1.391 . S
H3028 C3036 0.950 . S
H3029 C3041 0.950 . S
H3030 C3038 0.950 . S
H3031 C3040 0.950 . S
H3032 C3042 0.950 . S
H3033 C3044 0.950 . S
H3034 C3046 0.950 . S
H3035 C3047 0.950 . S
C3036 H3028 0.950 . S
C3036 C3037 1.386 . S
C3036 C3038 1.391 . S
C3037 C3036 1.386 . S
C3037 C3041 1.393 . S
C3038 H3030 0.950 . S
C3038 C3036 1.391 . S
C3038 C3039 1.400 . S
C3039 C3038 1.400 . S
C3039 C3040 1.398 . S
C3039 C3045 1.491 . S
C3040 H3031 0.950 . S
C3040 C3039 1.398 . S
C3040 C3041 1.391 . S
C3041 H3029 0.950 . S
C3041 C3037 1.393 . S
C3041 C3040 1.391 . S
C3042 H3032 0.950 . S
C3042 C3043 1.386 . S
C3042 C3044 1.391 . S
C3043 C3042 1.386 . S
C3043 C3047 1.393 . S
C3044 H3033 0.950 . S
C3044 C3042 1.391 . S
C3044 C3045 1.400 . S
C3045 C3039 1.491 . S
C3045 C3044 1.400 . S
C3045 C3046 1.398 . S
C3046 H3034 0.950 . S
C3046 C3045 1.398 . S
C3046 C3047 1.391 . S
C3047 H3035 0.950 . S
C3047 C3043 1.393 . S
C3047 C3046 1.391 . S
H3048 C3056 0.950 . S
H3049 C3061 0.950 . S
H3050 C3058 0.950 . S
H3051 C3060 0.950 . S
H3052 C3062 0.950 . S
H3053 C3064 0.950 . S
H3054 C3066 0.950 . S
H3055 C3067 0.950 . S
C3056 H3048 0.950 . S
C3056 C3057 1.386 . S
C3056 C3058 1.391 . S
C3057 C3056 1.386 . S
C3057 C3061 1.393 . S
C3058 H3050 0.950 . S
C3058 C3056 1.391 . S
C3058 C3059 1.400 . S
C3059 C3058 1.400 . S
C3059 C3060 1.398 . S
C3059 C3065 1.491 . S
C3060 H3051 0.950 . S
C3060 C3059 1.398 . S
C3060 C3061 1.391 . S
C3061 H3049 0.950 . S
C3061 C3057 1.393 . S
C3061 C3060 1.391 . S
C3062 H3052 0.950 . S
C3062 C3063 1.386 . S
C3062 C3064 1.391 . S
C3063 C3062 1.386 . S
C3063 C3067 1.393 . S
C3064 H3053 0.950 . S
C3064 C3062 1.391 . S
C3064 C3065 1.400 . S
C3065 C3059 1.491 . S
C3065 C3064 1.400 . S
C3065 C3066 1.398 . S
C3066 H3054 0.950 . S
C3066 C3065 1.398 . S
C3066 C3067 1.391 . S
C3067 H3055 0.950 . S
C3067 C3063 1.393 . S
C3067 C3066 1.391 . S
H3068 C3076 0.950 . S
H3069 C3081 0.950 . S
H3070 C3078 0.950 . S
H3071 C3080 0.950 . S
H3072 C3082 0.950 . S
H3073 C3084 0.950 . S
H3074 C3086 0.950 . S
H3075 C3087 0.950 . S
C3076 H3068 0.950 . S
C3076 C3077 1.386 . S
C3076 C3078 1.391 . S
C3077 C3076 1.386 . S
C3077 C3081 1.393 . S
C3078 H3070 0.950 . S
C3078 C3076 1.391 . S
C3078 C3079 1.400 . S
C3079 C3078 1.400 . S
C3079 C3080 1.398 . S
C3079 C3085 1.491 . S
C3080 H3071 0.950 . S
C3080 C3079 1.398 . S
C3080 C3081 1.391 . S
C3081 H3069 0.950 . S
C3081 C3077 1.393 . S
C3081 C3080 1.391 . S
C3082 H3072 0.950 . S
C3082 C3083 1.386 . S
C3082 C3084 1.391 . S
C3083 C3082 1.386 . S
C3083 C3087 1.393 . S
C3084 H3073 0.950 . S
C3084 C3082 1.391 . S
C3084 C3085 1.400 . S
C3085 C3079 1.491 . S
C3085 C3084 1.400 . S
C3085 C3086 1.398 . S
C3086 H3074 0.950 . S
C3086 C3085 1.398 . S
C3086 C3087 1.391 . S
C3087 H3075 0.950 . S
C3087 C3083 1.393 . S
C3087 C3086 1.391 . S
H3088 C3096 0.950 . S
H3089 C3101 0.950 . S
H3090 C3098 0.950 . S
H3091 C3100 0.950 . S
H3092 C3102 0.950 . S
H3093 C3104 0.950 . S
H3094 C3106 0.950 . S
H3095 C3107 0.950 . S
C3096 H3088 0.950 . S
C3096 C3097 1.386 . S
C3096 C3098 1.391 . S
C3097 C3096 1.386 . S
C3097 C3101 1.393 . S
C3098 H3090 0.950 . S
C3098 C3096 1.391 . S
C3098 C3099 1.400 . S
C3099 C3098 1.400 . S
C3099 C3100 1.398 . S
C3099 C3105 1.491 . S
C3100 H3091 0.950 . S
C3100 C3099 1.398 . S
C3100 C3101 1.391 . S
C3101 H3089 0.950 . S
C3101 C3097 1.393 . S
C3101 C3100 1.391 . S
C3102 H3092 0.950 . S
C3102 C3103 1.386 . S
C3102 C3104 1.391 . S
C3103 C3102 1.386 . S
C3103 C3107 1.393 . S
C3104 H3093 0.950 . S
C3104 C3102 1.391 . S
C3104 C3105 1.400 . S
C3105 C3099 1.491 . S
C3105 C3104 1.400 . S
C3105 C3106 1.398 . S
C3106 H3094 0.950 . S
C3106 C3105 1.398 . S
C3106 C3107 1.391 . S
C3107 H3095 0.950 . S
C3107 C3103 1.393 . S
C3107 C3106 1.391 . S
H3108 C3116 0.950 . S
H3109 C3121 0.950 . S
H3110 C3118 0.950 . S
H3111 C3120 0.950 . S
H3112 C3122 0.950 . S
H3113 C3124 0.950 . S
H3114 C3126 0.950 . S
H3115 C3127 0.950 . S
C3116 H3108 0.950 . S
C3116 C3117 1.386 . S
C3116 C3118 1.391 . S
C3117 C3116 1.386 . S
C3117 C3121 1.393 . S
C3118 H3110 0.950 . S
C3118 C3116 1.391 . S
C3118 C3119 1.400 . S
C3119 C3118 1.400 . S
C3119 C3120 1.398 . S
C3119 C3125 1.491 . S
C3120 H3111 0.950 . S
C3120 C3119 1.398 . S
C3120 C3121 1.391 . S
C3121 H3109 0.950 . S
C3121 C3117 1.393 . S
C3121 C3120 1.391 . S
C3122 H3112 0.950 . S
C3122 C3123 1.386 . S
C3122 C3124 1.391 . S
C3123 C3122 1.386 . S
C3123 C3127 1.393 . S
C3124 H3113 0.950 . S
C3124 C3122 1.391 . S
C3124 C3125 1.400 . S
C3125 C3119 1.491 . S
C3125 C3124 1.400 . S
C3125 C3126 1.398 . S
C3126 H3114 0.950 . S
C3126 C3125 1.398 . S
C3126 C3127 1.391 . S
C3127 H3115 0.950 . S
C3127 C3123 1.393 . S
C3127 C3126 1.391 . S
H3128 C3136 0.950 . S
H3129 C3141 0.950 . S
H3130 C3138 0.950 . S
H3131 C3140 0.950 . S
H3132 C3142 0.950 . S
H3133 C3144 0.950 . S
H3134 C3146 0.950 . S
H3135 C3147 0.950 . S
C3136 H3128 0.950 . S
C3136 C3137 1.386 . S
C3136 C3138 1.391 . S
C3137 C3136 1.386 . S
C3137 C3141 1.393 . S
C3138 H3130 0.950 . S
C3138 C3136 1.391 . S
C3138 C3139 1.400 . S
C3139 C3138 1.400 . S
C3139 C3140 1.398 . S
C3139 C3145 1.491 . S
C3140 H3131 0.950 . S
C3140 C3139 1.398 . S
C3140 C3141 1.391 . S
C3141 H3129 0.950 . S
C3141 C3137 1.393 . S
C3141 C3140 1.391 . S
C3142 H3132 0.950 . S
C3142 C3143 1.386 . S
C3142 C3144 1.391 . S
C3143 C3142 1.386 . S
C3143 C3147 1.393 . S
C3144 H3133 0.950 . S
C3144 C3142 1.391 . S
C3144 C3145 1.400 . S
C3145 C3139 1.491 . S
C3145 C3144 1.400 . S
C3145 C3146 1.398 . S
C3146 H3134 0.950 . S
C3146 C3145 1.398 . S
C3146 C3147 1.391 . S
C3147 H3135 0.950 . S
C3147 C3143 1.393 . S
C3147 C3146 1.391 . S
H3148 C3156 0.950 . S
H3149 C3161 0.950 . S
H3150 C3158 0.950 . S
H3151 C3160 0.950 . S
H3152 C3162 0.950 . S
H3153 C3164 0.950 . S
H3154 C3166 0.950 . S
H3155 C3167 0.950 . S
C3156 H3148 0.950 . S
C3156 C3157 1.386 . S
C3156 C3158 1.391 . S
C3157 C3156 1.386 . S
C3157 C3161 1.393 . S
C3158 H3150 0.950 . S
C3158 C3156 1.391 . S
C3158 C3159 1.400 . S
C3159 C3158 1.400 . S
C3159 C3160 1.398 . S
C3159 C3165 1.491 . S
C3160 H3151 0.950 . S
C3160 C3159 1.398 . S
C3160 C3161 1.391 . S
C3161 H3149 0.950 . S
C3161 C3157 1.393 . S
C3161 C3160 1.391 . S
C3162 H3152 0.950 . S
C3162 C3163 1.386 . S
C3162 C3164 1.391 . S
C3163 C3162 1.386 . S
C3163 C3167 1.393 . S
C3164 H3153 0.950 . S
C3164 C3162 1.391 . S
C3164 C3165 1.400 . S
C3165 C3159 1.491 . S
C3165 C3164 1.400 . S
C3165 C3166 1.398 . S
C3166 H3154 0.950 . S
C3166 C3165 1.398 . S
C3166 C3167 1.391 . S
C3167 H3155 0.950 . S
C3167 C3163 1.393 . S
C3167 C3166 1.391 . S
C1897 C1626 1.431 . S
C1903 C52 1.429 . S
C1917 C111 1.430 1_655 S
C1923 C505 1.428 . S
C1937 C1508 1.429 . S
C1943 C170 1.431 . S
C1957 C229 1.429 . S
C1963 C623 1.430 . S
C1977 C288 1.430 . S
C1983 C1744 1.428 . S
C1997 C347 1.432 . S
C2003 C859 1.432 . S
C2017 C406 1.431 . S
C2023 C1862 1.429 . S
C2037 C465 1.430 1_655 S
C2043 C741 1.432 . S
C2057 C1154 1.432 . S
C2063 C524 1.430 . S
C2077 C33 1.432 . S
C2083 C583 1.432 1_455 S
C2097 C1036 1.430 . S
C2103 C642 1.432 . S
C2117 C701 1.430 . S
C2123 C151 1.431 . S
C2137 C1272 1.429 . S
C2143 C760 1.431 . S
C2157 C387 1.429 . S
C2163 C819 1.430 . S
C2177 C878 1.432 . S
C2183 C1390 1.431 . S
C2197 C269 1.429 . S
C2203 C937 1.431 1_455 S
C2217 C996 1.429 . S
C2223 C682 1.429 . S
C2237 C1055 1.430 . S
C2243 C1449 1.428 . S
C2257 C564 1.432 . S
C2263 C1114 1.432 . S
C2277 C1567 1.430 . S
C2283 C1173 1.432 1_455 S
C2297 C800 1.432 . S
C2303 C1232 1.431 . S
C2317 C1803 1.432 . S
C2323 C1291 1.430 1_455 S
C2337 C918 1.432 . S
C2343 C1350 1.431 . S
C2357 C1409 1.429 . S
C2363 C1685 1.429 . S
C2377 C210 1.430 . S
C2383 C1468 1.432 . S
C2397 C1527 1.430 . S
C2403 C977 1.432 . S
C2417 C1586 1.430 . S
C2423 C92 1.428 . S
C2437 C1645 1.430 1_655 S
C2443 C1095 1.428 . S
C2457 C1704 1.430 . S
C2463 C328 1.429 . S
C2477 C1763 1.429 1_655 S
C2483 C1331 1.429 . S
C2497 C1822 1.429 . S
C2503 C446 1.429 . S
C2517 C1881 1.430 . S
C2523 C1213 1.432 . S
C2537 C1419 1.499 . S
C2543 C3 1.499 . S
C2557 C62 1.494 . S
C2563 C534 1.494 . S
C2577 C1537 1.499 . S
C2583 C121 1.499 . S
C2597 C180 1.492 . S
C2603 C652 1.492 . S
C2617 C1655 1.507 . S
C2623 C239 1.507 . S
C2637 C298 1.500 . S
C2643 C770 1.500 . S
C2657 C1773 1.496 . S
C2663 C357 1.496 . S
C2677 C416 1.505 . S
C2683 C888 1.505 . S
C2697 C475 1.507 . S
C2703 C947 1.507 . S
C2717 C593 1.508 . S
C2723 C1065 1.508 . S
C2737 C711 1.503 . S
C2743 C1183 1.503 . S
C2757 C829 1.502 . S
C2763 C1301 1.502 . S
C2777 C1006 1.493 . S
C2783 C1478 1.493 . S
C2797 C1596 1.503 . S
C2803 C1124 1.503 . S
C2817 C1714 1.494 . S
C2823 C1242 1.494 . S
C2837 C1360 1.496 . S
C2843 C1832 1.496 . S
C2857 C5 1.663 . S
C2863 C300 1.667 1_545 S
C2877 C64 1.668 1_545 S
C2883 C359 1.666 . S
C2897 C123 1.664 . S
C2903 C418 1.664 1_565 S
C2917 C241 1.665 . S
C2923 C182 1.668 1_565 S
C2937 C477 1.668 . S
C2943 C772 1.664 1_565 S
C2957 C536 1.663 1_565 S
C2963 C831 1.665 . S
C2977 C595 1.667 . S
C2983 C890 1.663 1_545 S
C2997 C654 1.666 1_545 S
C3003 C713 1.663 . S
C3017 C949 1.664 . S
C3023 C1244 1.664 . S
C3037 C1303 1.666 . S
C3043 C1008 1.668 . S
C3057 C1067 1.663 . S
C3063 C1362 1.666 . S
C3077 C1126 1.668 . S
C3083 C1185 1.666 . S
C3097 C1716 1.666 . S
C3103 C1421 1.668 . S
C3117 C1480 1.664 . S
C3123 C1775 1.664 . S
C3137 C1834 1.665 . S
C3143 C1539 1.663 . S
C3157 C1598 1.665 . S
C3163 C1657 1.668 . S
