# Generated by pormake.
# Topology skb, (5)-cn, num edge types: 1
# Building blocks:
#     Node 0, Type 0, BuildingBlock: XOMCOT_clean_sbu_0, # of connection points: 5
#     Node 1, Type 0, BuildingBlock: XOMCOT_clean_sbu_0, # of connection points: 5
#     Node 2, Type 0, BuildingBlock: XOMCOT_clean_sbu_0, # of connection points: 5
#     Node 3, Type 0, BuildingBlock: XOMCOT_clean_sbu_0, # of connection points: 5
#     Node 4, Type 0, BuildingBlock: XOMCOT_clean_sbu_0, # of connection points: 5
#     Node 5, Type 0, BuildingBlock: XOMCOT_clean_sbu_0, # of connection points: 5
#     Node 6, Type 0, BuildingBlock: XOMCOT_clean_sbu_0, # of connection points: 5
#     Node 7, Type 0, BuildingBlock: XOMCOT_clean_sbu_0, # of connection points: 5
#     Node 8, Type 0, BuildingBlock: XOMCOT_clean_sbu_0, # of connection points: 5
#     Node 9, Type 0, BuildingBlock: XOMCOT_clean_sbu_0, # of connection points: 5
#     Node 10, Type 0, BuildingBlock: XOMCOT_clean_sbu_0, # of connection points: 5
#     Node 11, Type 0, BuildingBlock: XOMCOT_clean_sbu_0, # of connection points: 5
#     Node 12, Type 0, BuildingBlock: XOMCOT_clean_sbu_0, # of connection points: 5
#     Node 13, Type 0, BuildingBlock: XOMCOT_clean_sbu_0, # of connection points: 5
#     Node 14, Type 0, BuildingBlock: XOMCOT_clean_sbu_0, # of connection points: 5
#     Node 15, Type 0, BuildingBlock: XOMCOT_clean_sbu_0, # of connection points: 5
#     Edge 16, Type (0, 0), BuildingBlock: CIFDUS_clean_linker_0, # of connection points: 2
#     Edge 17, Type (0, 0), BuildingBlock: CIFDUS_clean_linker_0, # of connection points: 2
#     Edge 18, Type (0, 0), BuildingBlock: CIFDUS_clean_linker_0, # of connection points: 2
#     Edge 19, Type (0, 0), BuildingBlock: CIFDUS_clean_linker_0, # of connection points: 2
#     Edge 20, Type (0, 0), BuildingBlock: CIFDUS_clean_linker_0, # of connection points: 2
#     Edge 21, Type (0, 0), BuildingBlock: CIFDUS_clean_linker_0, # of connection points: 2
#     Edge 22, Type (0, 0), BuildingBlock: CIFDUS_clean_linker_0, # of connection points: 2
#     Edge 23, Type (0, 0), BuildingBlock: CIFDUS_clean_linker_0, # of connection points: 2
#     Edge 24, Type (0, 0), BuildingBlock: CIFDUS_clean_linker_0, # of connection points: 2
#     Edge 25, Type (0, 0), BuildingBlock: CIFDUS_clean_linker_0, # of connection points: 2
#     Edge 26, Type (0, 0), BuildingBlock: CIFDUS_clean_linker_0, # of connection points: 2
#     Edge 27, Type (0, 0), BuildingBlock: CIFDUS_clean_linker_0, # of connection points: 2
#     Edge 28, Type (0, 0), BuildingBlock: CIFDUS_clean_linker_0, # of connection points: 2
#     Edge 29, Type (0, 0), BuildingBlock: CIFDUS_clean_linker_0, # of connection points: 2
#     Edge 30, Type (0, 0), BuildingBlock: CIFDUS_clean_linker_0, # of connection points: 2
#     Edge 31, Type (0, 0), BuildingBlock: CIFDUS_clean_linker_0, # of connection points: 2
#     Edge 32, Type (0, 0), BuildingBlock: CIFDUS_clean_linker_0, # of connection points: 2
#     Edge 33, Type (0, 0), BuildingBlock: CIFDUS_clean_linker_0, # of connection points: 2
#     Edge 34, Type (0, 0), BuildingBlock: CIFDUS_clean_linker_0, # of connection points: 2
#     Edge 35, Type (0, 0), BuildingBlock: CIFDUS_clean_linker_0, # of connection points: 2
#     Edge 36, Type (0, 0), BuildingBlock: CIFDUS_clean_linker_0, # of connection points: 2
#     Edge 37, Type (0, 0), BuildingBlock: CIFDUS_clean_linker_0, # of connection points: 2
#     Edge 38, Type (0, 0), BuildingBlock: CIFDUS_clean_linker_0, # of connection points: 2
#     Edge 39, Type (0, 0), BuildingBlock: CIFDUS_clean_linker_0, # of connection points: 2
#     Edge 40, Type (0, 0), BuildingBlock: CIFDUS_clean_linker_0, # of connection points: 2
#     Edge 41, Type (0, 0), BuildingBlock: CIFDUS_clean_linker_0, # of connection points: 2
#     Edge 42, Type (0, 0), BuildingBlock: CIFDUS_clean_linker_0, # of connection points: 2
#     Edge 43, Type (0, 0), BuildingBlock: CIFDUS_clean_linker_0, # of connection points: 2
#     Edge 44, Type (0, 0), BuildingBlock: CIFDUS_clean_linker_0, # of connection points: 2
#     Edge 45, Type (0, 0), BuildingBlock: CIFDUS_clean_linker_0, # of connection points: 2
#     Edge 46, Type (0, 0), BuildingBlock: CIFDUS_clean_linker_0, # of connection points: 2
#     Edge 47, Type (0, 0), BuildingBlock: CIFDUS_clean_linker_0, # of connection points: 2
#     Edge 48, Type (0, 0), BuildingBlock: CIFDUS_clean_linker_0, # of connection points: 2
#     Edge 49, Type (0, 0), BuildingBlock: CIFDUS_clean_linker_0, # of connection points: 2
#     Edge 50, Type (0, 0), BuildingBlock: CIFDUS_clean_linker_0, # of connection points: 2
#     Edge 51, Type (0, 0), BuildingBlock: CIFDUS_clean_linker_0, # of connection points: 2
#     Edge 52, Type (0, 0), BuildingBlock: CIFDUS_clean_linker_0, # of connection points: 2
#     Edge 53, Type (0, 0), BuildingBlock: CIFDUS_clean_linker_0, # of connection points: 2
#     Edge 54, Type (0, 0), BuildingBlock: CIFDUS_clean_linker_0, # of connection points: 2
#     Edge 55, Type (0, 0), BuildingBlock: CIFDUS_clean_linker_0, # of connection points: 2
# Relax obj value: 0.085
# Max RMSD: 0.134
# Mean RMSD: 0.134
data_MOF--net-skb--node1-XOMCOT_clean_sbu_0--edge1-CIFDUS_clean_linker_0
_symmetry_space_group_name_H-M    P1
_symmetry_Int_Tables_number       1
_symmetry_cell_setting            triclinic
loop_
_symmetry_equiv_pos_as_xyz
'x, y, z'
_cell_length_a     44.300064
_cell_length_b     23.70594
_cell_length_c     61.742271
_cell_angle_alpha  90.004301
_cell_angle_beta   89.738768
_cell_angle_gamma 90.091152
loop_
_atom_site_label
_atom_site_type_symbol
_atom_site_fract_x
_atom_site_fract_y
_atom_site_fract_z
_atom_type_partial_charge
Co0 Co 0.20464 0.02281 0.15228 0.0
C1 C 0.19335 0.02162 0.104 0.0
C2 C 0.23941 0.03752 0.11281 0.0
C3 C 0.23758 0.0371 0.09063 0.0
N4 N 0.21184 0.02761 0.12129 0.0
N5 N 0.20869 0.0273 0.08505 0.0
H6 H 0.16936 0.01341 0.10514 0.0
H7 H 0.25956 0.04511 0.1222 0.0
C8 C 0.20943 0.14491 0.16559 0.0
O9 O 0.1831 0.13992 0.17521 0.0
N10 N 0.19944 0.01884 0.18391 0.0
C11 C 0.1754 0.03214 0.19649 0.0
C12 C 0.18331 0.02782 0.21797 0.0
C13 C 0.2217 1.00756 0.19824 0.0
N14 N 0.21251 0.01241 0.21909 0.0
C15 C 0.14215 1.00397 0.15395 0.0
C16 C 0.12141 0.10098 0.13451 0.0
C17 C 0.10038 0.05931 0.14094 0.0
C18 C 0.1116 1.00993 0.15024 0.0
C19 C 0.15257 0.09245 0.13803 0.0
N20 N 0.16245 0.04492 0.14837 0.0
H21 H 0.1493 0.96595 0.16199 0.0
H22 H 0.16859 0.12345 0.13223 0.0
H23 H 0.15389 0.04746 0.19092 0.0
H24 H 0.2445 0.99703 0.19352 0.0
O25 O 0.19718 0.94337 0.14973 0.0
O26 O 0.24244 0.9794 0.15482 0.0
O27 O 0.22088 0.10296 0.15539 0.0
C28 C 0.22555 0.9346 0.15257 0.0
H29 H 0.25591 0.04549 0.07943 0.0
H30 H 0.16896 0.03806 0.23163 0.0
H31 H 0.11399 0.13955 0.12684 0.0
H32 H 0.097 0.97503 0.15457 0.0
Co33 Co 0.81401 0.06268 0.14174 0.0
C34 C 0.82583 0.0528 0.09395 0.0
C35 C 0.78973 0.99993 0.10551 0.0
C36 C 0.79372 0.98973 0.08386 0.0
N37 N 0.81006 0.03867 0.11198 0.0
N38 N 0.81634 0.02274 0.0766 0.0
H39 H 0.8438 0.08377 0.09353 0.0
H40 H 0.77286 0.98063 0.11582 0.0
C41 C 0.80825 0.95395 0.16764 0.0
O42 O 0.82694 0.97316 0.18235 0.0
N43 N 0.81632 0.08536 0.172 0.0
C44 C 0.83947 0.10624 0.18368 0.0
C45 C 0.83003 0.11311 0.20487 0.0
C46 C 0.79316 0.08072 0.18619 0.0
N47 N 0.80089 0.09694 0.2064 0.0
C48 C 0.87604 0.09253 0.1378 0.0
C49 C 0.90106 0.98644 0.1406 0.0
C50 C 0.9202 0.03359 0.13884 0.0
C51 C 0.9072 0.08682 0.13696 0.0
C52 C 0.86956 0.99394 0.14085 0.0
N53 N 0.85739 0.04693 0.1405 0.0
H54 H 0.86728 0.13476 0.13716 0.0
H55 H 0.85532 0.95709 0.14127 0.0
H56 H 0.86179 0.11553 0.17765 0.0
H57 H 0.77133 0.06363 0.18189 0.0
O58 O 0.81601 0.1404 0.13297 0.0
O59 O 0.77357 0.09568 0.14051 0.0
O60 O 0.8024 0.98327 0.1508 0.0
C61 C 0.78701 0.14257 0.13502 0.0
H62 H 0.78041 0.96139 0.07398 0.0
H63 H 0.84356 0.12908 0.21808 0.0
H64 H 0.91034 0.94431 0.1417 0.0
H65 H 0.92109 0.12439 0.13578 0.0
Co66 Co 0.19046 0.07928 0.89297 0.0
C67 C 0.19539 0.05529 0.94054 0.0
C68 C 0.18672 0.14273 0.93426 0.0
C69 C 0.18661 0.13459 0.95627 0.0
N70 N 0.1921 0.09305 0.92421 0.0
N71 N 0.192 0.07975 0.96024 0.0
H72 H 0.19931 1.01069 0.9382 0.0
H73 H 0.18238 0.18247 0.92632 0.0
C74 C 0.21074 0.95874 0.88519 0.0
O75 O 0.19847 0.95929 0.86589 0.0
N76 N 0.18836 0.06774 0.8617 0.0
C77 C 0.16308 0.0662 0.84967 0.0
C78 C 0.17094 0.06339 0.82817 0.0
C79 C 0.21137 0.06754 0.8471 0.0
N80 N 0.20134 0.06458 0.82639 0.0
C81 C 0.12944 0.09849 0.90269 0.0
C82 C 0.10608 0.99343 0.89348 0.0
C83 C 0.08617 0.03812 0.89809 0.0
C84 C 0.09848 0.09075 0.90316 0.0
C85 C 0.13737 1.00322 0.89305 0.0
N86 N 0.14857 0.05605 0.89682 0.0
H87 H 0.13783 0.13999 0.9064 0.0
H88 H 0.15204 0.9688 0.88895 0.0
H89 H 0.14028 0.06873 0.85583 0.0
H90 H 0.23487 0.07078 0.85159 0.0
O91 O 0.18284 0.15762 0.88732 0.0
O92 O 0.22839 0.11961 0.88948 0.0
O93 O 0.20758 1.00086 0.89801 0.0
C94 C 0.21182 0.16441 0.88664 0.0
H95 H 0.1831 0.16673 0.96848 0.0
H96 H 0.15513 0.0612 0.81491 0.0
H97 H 0.09761 0.95164 0.88985 0.0
H98 H 0.08438 0.12699 0.90652 0.0
Co99 Co 0.80178 0.0319 0.88929 0.0
C100 C 0.81417 0.04941 0.93644 0.0
C101 C 0.77598 0.09613 0.92482 0.0
C102 C 0.78043 0.10977 0.94615 0.0
N103 N 0.79723 0.05885 0.91863 0.0
N104 N 0.80441 0.08063 0.95346 0.0
H105 H 0.83338 0.02128 0.93684 0.0
H106 H 0.75845 0.11251 0.91445 0.0
C107 C 0.79894 0.13781 0.86227 0.0
O108 O 0.81994 0.11764 0.84934 0.0
N109 N 0.80467 1.00582 0.85943 0.0
C110 C 0.82552 0.97368 0.84926 0.0
C111 C 0.81607 0.96343 0.8284 0.0
C112 C 0.78265 0.01337 0.84467 0.0
N113 N 0.78908 0.98845 0.82553 0.0
C114 C 0.86377 1.00415 0.89172 0.0
C115 C 0.88727 0.11157 0.89494 0.0
C116 C 0.90691 0.06509 0.89487 0.0
C117 C 0.89464 1.01105 0.89354 0.0
C118 C 0.85603 0.10267 0.89286 0.0
N119 N 0.84475 0.04929 0.89042 0.0
H120 H 0.85537 0.96157 0.89147 0.0
H121 H 0.84107 0.13849 0.89381 0.0
H122 H 0.84587 0.95707 0.85619 0.0
H123 H 0.76233 0.03722 0.84796 0.0
O124 O 0.80432 0.95554 0.89931 0.0
O125 O 0.76167 0.99805 0.89067 0.0
O126 O 0.79027 0.10969 0.87883 0.0
C127 C 0.77545 0.95206 0.89668 0.0
H128 H 0.76666 0.13815 0.95574 0.0
H129 H 0.82788 0.93815 0.81649 0.0
H130 H 0.89592 0.15409 0.89662 0.0
H131 H 0.9088 0.97388 0.89443 0.0
Co132 Co 0.20163 0.52722 0.65626 0.0
C133 C 0.1922 0.52238 0.60778 0.0
C134 C 0.23345 0.56221 0.6177 0.0
C135 C 0.23236 0.56288 0.59556 0.0
N136 N 0.20832 0.53738 0.62548 0.0
N137 N 0.20643 0.53818 0.58918 0.0
H138 H 0.17071 0.5007 0.60852 0.0
H139 H 0.25177 0.57789 0.62755 0.0
C140 C 0.20801 0.64712 0.6718 0.0
O141 O 0.18248 0.64204 0.68248 0.0
N142 N 0.19755 0.51879 0.68783 0.0
C143 C 0.17449 0.53269 0.70129 0.0
C144 C 0.18399 0.52892 0.72243 0.0
C145 C 0.2208 0.50733 0.70137 0.0
N146 N 0.21313 0.51308 0.72244 0.0
C147 C 0.13893 0.51286 0.65927 0.0
C148 C 0.12054 0.60894 0.63789 0.0
C149 C 0.09881 0.5687 0.64426 0.0
C150 C 0.10853 0.5209 0.65542 0.0
C151 C 0.15129 0.59935 0.64232 0.0
N152 N 0.16 0.55197 0.65325 0.0
H153 H 0.14556 0.47478 0.66755 0.0
H154 H 0.16805 0.62882 0.6364 0.0
H155 H 0.15281 0.54902 0.69656 0.0
H156 H 0.24358 0.4987 0.696 0.0
O157 O 0.19298 0.44896 0.65191 0.0
O158 O 0.23884 0.4826 0.6573 0.0
O159 O 0.21833 0.60573 0.66078 0.0
C160 C 0.2214 0.43888 0.65411 0.0
H161 H 0.24994 0.57878 0.58497 0.0
H162 H 0.17078 0.53921 0.73668 0.0
H163 H 0.11397 0.64633 0.62902 0.0
H164 H 0.09272 0.48933 0.66119 0.0
Co165 Co 0.81472 0.56122 0.64573 0.0
C166 C 0.8156 0.57092 0.59711 0.0
C167 C 0.78629 0.50552 0.60884 0.0
C168 C 0.78568 0.50475 0.58666 0.0
N169 N 0.80562 0.54597 0.61553 0.0
N170 N 0.80411 0.54566 0.57932 0.0
H171 H 0.83064 0.60677 0.59653 0.0
H172 H 0.77286 0.47883 0.61929 0.0
C173 C 0.80261 0.4466 0.66812 0.0
O174 O 0.81304 0.46266 0.68699 0.0
N175 N 0.82267 0.57639 0.6761 0.0
C176 C 0.84871 0.5931 0.68532 0.0
C177 C 0.84374 0.60129 0.70716 0.0
C178 C 0.80208 0.57662 0.6923 0.0
N179 N 0.8144 0.59058 0.71159 0.0
C180 C 0.87377 0.58382 0.62981 0.0
C181 C 0.903 0.49179 0.64712 0.0
C182 C 0.92009 0.53384 0.63667 0.0
C183 C 0.90489 0.57948 0.62756 0.0
C184 C 0.87154 0.49764 0.64896 0.0
N185 N 0.85728 0.54383 0.64059 0.0
H186 H 0.86329 0.62105 0.62339 0.0
H187 H 0.85922 0.46613 0.65787 0.0
H188 H 0.86984 0.59961 0.67686 0.0
H189 H 0.77874 0.56462 0.69003 0.0
O190 O 0.81702 0.64083 0.64031 0.0
O191 O 0.77492 0.59571 0.64882 0.0
O192 O 0.80371 0.47942 0.65169 0.0
C193 C 0.78831 0.64321 0.64403 0.0
H194 H 0.77202 0.47732 0.57665 0.0
H195 H 0.86047 0.61482 0.71877 0.0
H196 H 0.9139 0.45584 0.65454 0.0
H197 H 0.91701 0.61245 0.61901 0.0
Co198 Co 0.19606 0.53064 0.39527 0.0
C199 C 0.20101 0.5358 0.44382 0.0
C200 C 0.19102 0.45284 0.43204 0.0
C201 C 0.19097 0.45136 0.45428 0.0
N202 N 0.19746 0.50566 0.42535 0.0
N203 N 0.19706 0.50357 0.46178 0.0
H204 H 0.20513 0.58074 0.44416 0.0
H205 H 0.18565 0.41782 0.42152 0.0
C206 C 0.20813 0.42247 0.36871 0.0
O207 O 0.19631 0.44403 0.35114 0.0
N208 N 0.19454 0.556 0.36533 0.0
C209 C 0.17149 0.5833 0.35579 0.0
C210 C 0.17854 0.59189 0.33432 0.0
C211 C 0.21615 0.5518 0.34986 0.0
N212 N 0.20644 0.57134 0.33052 0.0
C213 C 0.13657 0.54596 0.41012 0.0
C214 C 0.10654 0.49112 0.37719 0.0
C215 C 0.09023 0.52708 0.39101 0.0
C216 C 0.10549 0.55225 0.40829 0.0
C217 C 0.13785 0.48552 0.37975 0.0
N218 N 0.15272 0.5154 0.39535 0.0
H219 H 0.14797 0.56913 0.42272 0.0
H220 H 0.14992 0.46069 0.36815 0.0
H221 H 0.15072 0.59547 0.36377 0.0
H222 H 0.23765 0.53123 0.35237 0.0
O223 O 0.19338 0.6087 0.40382 0.0
O224 O 0.23623 0.56355 0.39762 0.0
O225 O 0.20815 0.45035 0.38653 0.0
C226 C 0.22259 0.61068 0.40253 0.0
H227 H 0.18663 0.41443 0.46411 0.0
H228 H 0.16406 0.61123 0.32237 0.0
H229 H 0.09561 0.47022 0.36374 0.0
H230 H 0.09371 0.57867 0.41988 0.0
Co231 Co 0.80536 0.53916 0.38592 0.0
C232 C 0.81218 0.54051 0.43476 0.0
C233 C 0.77771 0.59555 0.42298 0.0
C234 C 0.77842 0.59994 0.44513 0.0
N235 N 0.79953 0.55979 0.41625 0.0
N236 N 0.80009 0.56534 0.45249 0.0
H237 H 0.82899 0.50795 0.4357 0.0
H238 H 0.76173 0.6163 0.41246 0.0
C239 C 0.80655 0.66452 0.38604 0.0
O240 O 0.8275 0.65974 0.40094 0.0
N241 N 0.80919 0.51942 0.35573 0.0
C242 C 0.82964 0.48537 0.34621 0.0
C243 C 0.82183 0.47863 0.32474 0.0
C244 C 0.78918 0.53241 0.34017 0.0
N245 N 0.79626 0.50798 0.32105 0.0
C246 C 0.86547 0.51526 0.39865 0.0
C247 C 0.89483 0.5858 0.36986 0.0
C248 C 0.9116 0.54648 0.38174 0.0
C249 C 0.8966 0.51204 0.39659 0.0
C250 C 0.86327 0.5875 0.37236 0.0
N251 N 0.84889 0.55267 0.38684 0.0
H252 H 0.85476 0.48358 0.40842 0.0
H253 H 0.85036 0.6141 0.36165 0.0
H254 H 0.8483 0.46542 0.35443 0.0
H255 H 0.76944 0.55824 0.34302 0.0
O256 O 0.80681 0.46079 0.39338 0.0
O257 O 0.76472 0.50676 0.38604 0.0
O258 O 0.79565 0.61993 0.37733 0.0
C259 C 0.77783 0.45925 0.3911 0.0
H260 H 0.76327 0.6246 0.45514 0.0
H261 H 0.83329 0.45214 0.31305 0.0
H262 H 0.90573 0.61244 0.35791 0.0
H263 H 0.90874 0.48067 0.40587 0.0
Co264 Co 0.70523 0.04291 0.64566 0.0
C265 C 0.69714 0.04688 0.59753 0.0
C266 C 0.73068 0.10491 0.60882 0.0
C267 C 0.72924 0.10882 0.58664 0.0
N268 N 0.71034 0.06658 0.61575 0.0
N269 N 0.70811 0.07236 0.57946 0.0
H270 H 0.68039 0.01386 0.59739 0.0
H271 H 0.74639 0.12716 0.61909 0.0
C272 C 0.71782 0.14766 0.67318 0.0
O273 O 0.70377 0.12559 0.68992 0.0
N274 N 0.70111 0.01847 0.67552 0.0
C275 C 0.67638 0.999 0.68593 0.0
C276 C 0.68426 0.98481 0.70682 0.0
C277 C 0.72378 0.01404 0.68995 0.0
N278 N 0.71407 0.9945 0.70931 0.0
C279 C 0.64391 0.02189 0.63486 0.0
C280 C 0.61777 0.10973 0.65733 0.0
C281 C 0.59908 0.06749 0.64867 0.0
C282 C 0.61266 0.02456 0.63657 0.0
C283 C 0.64922 0.10608 0.65486 0.0
N284 N 0.66211 0.0611 0.6445 0.0
H285 H 0.65323 0.98623 0.62642 0.0
H286 H 0.66269 0.13867 0.66196 0.0
H287 H 0.65415 0.99496 0.67897 0.0
H288 H 0.74672 0.02719 0.68655 0.0
O289 O 0.7023 0.96493 0.63714 0.0
O290 O 0.74511 1.00846 0.64469 0.0
O291 O 0.71798 0.12214 0.65486 0.0
C292 C 0.73127 0.96187 0.63948 0.0
H293 H 0.74366 0.13481 0.57655 0.0
H294 H 0.66922 0.96822 0.71913 0.0
H295 H 0.60838 0.14429 0.66662 0.0
H296 H 0.59931 0.99215 0.62877 0.0
Co297 Co 0.31682 0.04639 0.66 0.0
C298 C 0.32179 0.03777 0.61046 0.0
C299 C 0.27677 0.03679 0.62311 0.0
C300 C 0.27529 0.03077 0.60105 0.0
N301 N 0.30586 0.04179 0.62927 0.0
N302 N 0.30358 0.03129 0.59305 0.0
H303 H 0.34601 0.03675 0.60922 0.0
H304 H 0.25764 0.03637 0.63404 0.0
C305 C 0.30742 0.92504 0.6515 0.0
O306 O 0.32683 0.93196 0.63558 0.0
N307 N 0.32491 0.05032 0.69077 0.0
C308 C 0.34924 0.07155 0.70099 0.0
C309 C 0.34336 0.07244 0.72299 0.0
C310 C 0.30452 0.03957 0.70654 0.0
N311 N 0.31512 0.05277 0.7264 0.0
C312 C 0.37587 0.05807 0.64322 0.0
C313 C 0.40297 0.97396 0.6671 0.0
C314 C 0.42122 0.01213 0.65547 0.0
C315 C 0.40703 0.05298 0.64277 0.0
C316 C 0.37139 0.9797 0.66666 0.0
N317 N 0.35821 0.02181 0.65487 0.0
H318 H 0.366 0.0933 0.63476 0.0
H319 H 0.35775 0.95304 0.67701 0.0
H320 H 0.36932 0.0873 0.69299 0.0
H321 H 0.28196 0.02407 0.7034 0.0
O322 O 0.32524 0.12542 0.65759 0.0
O323 O 0.28008 0.09046 0.66509 0.0
O324 O 0.30089 0.96679 0.66381 0.0
C325 C 0.2972 0.13469 0.66205 0.0
H326 H 0.25484 0.02685 0.59163 0.0
H327 H 0.35811 0.08904 0.7354 0.0
H328 H 0.41293 0.94208 0.67737 0.0
H329 H 0.41993 0.08261 0.63309 0.0
Co330 Co 0.6991 0.0558 0.38525 0.0
C331 C 0.69617 0.06793 0.43381 0.0
C332 C 0.70163 0.98215 0.42356 0.0
C333 C 0.7006 0.98314 0.44571 0.0
N334 N 0.69884 0.0352 0.41587 0.0
N335 N 0.69713 0.03693 0.45228 0.0
H336 H 0.69352 0.11326 0.43343 0.0
H337 H 0.7044 0.94449 0.41394 0.0
C338 C 0.70948 0.94288 0.36305 0.0
O339 O 0.68881 0.95401 0.34847 0.0
N340 N 0.70022 0.07537 0.35454 0.0
C341 C 0.68069 0.10702 0.34306 0.0
C342 C 0.69165 0.11376 0.32238 0.0
C343 C 0.72325 0.0647 0.34064 0.0
N344 N 0.7184 0.08707 0.32077 0.0
C345 C 0.636 0.07678 0.38272 0.0
C346 C 0.61539 0.96778 0.38781 0.0
C347 C 0.59444 1.01171 0.38567 0.0
C348 C 0.60514 0.06657 0.38305 0.0
C349 C 0.64645 0.97977 0.38677 0.0
N350 N 0.65652 0.03385 0.3837 0.0
H351 H 0.6431 0.12015 0.3822 0.0
H352 H 0.66208 0.94567 0.38926 0.0
H353 H 0.66041 0.12636 0.34908 0.0
H354 H 0.74321 0.04123 0.34507 0.0
O355 O 0.69331 0.13437 0.39229 0.0
O356 O 0.73782 0.0933 0.38869 0.0
O357 O 0.71504 0.97816 0.37816 0.0
C358 C 0.72244 0.13924 0.3922 0.0
H359 H 0.70314 0.94688 0.45619 0.0
H360 H 0.68117 0.13846 0.30974 0.0
H361 H 0.60785 0.92487 0.39053 0.0
H362 H 0.58971 0.10195 0.38227 0.0
Co363 Co 0.30848 1.00976 0.39879 0.0
C364 C 0.30543 1.0009 0.44771 0.0
C365 C 0.32384 0.07883 0.43581 0.0
C366 C 0.32498 0.07971 0.45795 0.0
N367 N 0.31167 0.0296 0.42923 0.0
N368 N 0.31357 0.03079 0.46551 0.0
H369 H 0.29581 0.95896 0.44822 0.0
H370 H 0.33189 0.11181 0.42514 0.0
C371 C 0.29135 0.12221 0.37696 0.0
O372 O 0.29947 0.10461 0.35765 0.0
N373 N 0.30594 0.99045 0.36826 0.0
C374 C 0.32828 0.96838 0.35604 0.0
C375 C 0.31793 0.96099 0.33528 0.0
C376 C 0.28181 0.99364 0.35495 0.0
N377 N 0.28881 0.97747 0.3345 0.0
C378 C 0.37014 0.98949 0.40639 0.0
C379 C 0.39493 0.07162 0.38016 0.0
C380 C 0.4143 0.03181 0.38979 0.0
C381 C 0.40122 0.99078 0.40324 0.0
C382 C 0.36358 0.06772 0.38326 0.0
N383 N 0.3515 0.02602 0.39586 0.0
H384 H 0.36096 0.95756 0.41699 0.0
H385 H 0.34938 0.09752 0.37514 0.0
H386 H 0.35067 0.95838 0.36173 0.0
H387 H 0.26013 1.01036 0.35989 0.0
O388 O 0.31209 0.93025 0.40491 0.0
O389 O 0.26877 0.97614 0.4034 0.0
O390 O 0.2952 0.09102 0.39366 0.0
C391 C 0.28288 0.92828 0.40582 0.0
H392 H 0.33329 0.11419 0.46776 0.0
H393 H 0.33093 0.94478 0.32177 0.0
H394 H 0.40371 0.10531 0.37012 0.0
H395 H 0.41453 0.95828 0.4109 0.0
Co396 Co 0.70597 0.54388 0.14063 0.0
C397 C 0.7151 0.53693 0.09233 0.0
C398 C 0.69516 0.61457 0.10298 0.0
C399 C 0.69772 0.6161 0.08087 0.0
N400 N 0.70603 0.56508 0.11027 0.0
N401 N 0.71031 0.56739 0.07408 0.0
H402 H 0.72477 0.49512 0.09255 0.0
H403 H 0.68525 0.64696 0.11308 0.0
C404 C 0.72269 0.65545 0.1636 0.0
O405 O 0.71521 0.63712 0.18294 0.0
N406 N 0.70591 0.52303 0.17103 0.0
C407 C 0.68314 0.49848 0.18213 0.0
C408 C 0.69264 0.48765 0.20289 0.0
C409 C 0.72944 0.52402 0.18487 0.0
N410 N 0.7217 0.50408 0.20465 0.0
C411 C 0.64559 0.5286 0.12856 0.0
C412 C 0.61845 0.59401 0.16 0.0
C413 C 0.60042 0.55677 0.14778 0.0
C414 C 0.61451 0.52535 0.1314 0.0
C415 C 0.64985 0.59535 0.1568 0.0
N416 N 0.66307 0.56091 0.14181 0.0
H417 H 0.65594 0.50198 0.11644 0.0
H418 H 0.66344 0.62114 0.16729 0.0
H419 H 0.66122 0.48827 0.17555 0.0
H420 H 0.75146 0.54079 0.18072 0.0
O421 O 0.70176 0.46512 0.13384 0.0
O422 O 0.74557 0.50912 0.13753 0.0
O423 O 0.71896 0.62459 0.1468 0.0
C424 C 0.73095 0.46201 0.13421 0.0
H425 H 0.68977 0.64984 0.07057 0.0
H426 H 0.67929 0.46842 0.21563 0.0
H427 H 0.60863 0.62039 0.17248 0.0
H428 H 0.60213 0.49552 0.12158 0.0
Co429 Co 0.31931 0.54155 0.15884 0.0
C430 C 0.32476 0.5507 0.11044 0.0
C431 C 0.30788 0.46993 0.1204 0.0
C432 C 0.30918 0.47092 0.09822 0.0
N433 N 0.31793 0.51972 0.12828 0.0
N434 N 0.31965 0.52165 0.09192 0.0
H435 H 0.3329 0.59372 0.11086 0.0
H436 H 0.29971 0.43477 0.12985 0.0
C437 C 0.31186 0.42362 0.17717 0.0
O438 O 0.33738 0.42935 0.18769 0.0
N439 N 0.31919 0.56395 0.18956 0.0
C440 C 0.32947 0.61344 0.19772 0.0
C441 C 0.32296 0.61649 0.21939 0.0
C442 C 0.30464 0.53943 0.20656 0.0
N443 N 0.30736 0.57012 0.22493 0.0
C444 C 0.38154 0.55293 0.16845 0.0
C445 C 0.40262 0.45721 0.14816 0.0
C446 C 0.42343 0.4964 0.15644 0.0
C447 C 0.41235 0.54395 0.16706 0.0
C448 C 0.37144 0.46723 0.15048 0.0
N449 N 0.36114 0.5151 0.16052 0.0
H450 H 0.37459 0.59313 0.1744 0.0
H451 H 0.3558 0.43741 0.14356 0.0
H452 H 0.33979 0.64714 0.18852 0.0
H453 H 0.29134 0.50132 0.20552 0.0
O454 O 0.32912 0.61752 0.15063 0.0
O455 O 0.28252 0.58568 0.15522 0.0
O456 O 0.30103 0.46524 0.16655 0.0
C457 C 0.30045 0.62806 0.15076 0.0
H458 H 0.30175 0.43761 0.08748 0.0
H459 H 0.32773 0.65168 0.23003 0.0
H460 H 0.41033 0.42011 0.13954 0.0
H461 H 0.42744 0.57661 0.17286 0.0
Co462 Co 0.69949 0.54929 0.88092 0.0
C463 C 0.71225 0.55625 0.92885 0.0
C464 C 0.69114 0.47894 0.91907 0.0
C465 C 0.69497 0.47752 0.94106 0.0
N466 N 0.70197 0.52809 0.91128 0.0
N467 N 0.70827 0.52603 0.94731 0.0
H468 H 0.72198 0.59804 0.92827 0.0
H469 H 0.68001 0.44703 0.90946 0.0
C470 C 0.71478 0.4364 0.85809 0.0
O471 O 0.70729 0.45306 0.83859 0.0
N472 N 0.69682 0.57016 0.85056 0.0
C473 C 0.67355 0.59766 0.84142 0.0
C474 C 0.68067 0.60947 0.82024 0.0
C475 C 0.71842 0.56802 0.83502 0.0
N476 N 0.7088 0.59037 0.81606 0.0
C477 C 0.64081 0.56266 0.8964 0.0
C478 C 0.61019 0.49829 0.86639 0.0
C479 C 0.5936 0.53301 0.88067 0.0
C480 C 0.60965 0.56478 0.89591 0.0
C481 C 0.64196 0.49829 0.86716 0.0
N482 N 0.65672 0.53156 0.88175 0.0
H483 H 0.65238 0.58893 0.908 0.0
H484 H 0.65448 0.47414 0.85537 0.0
H485 H 0.65298 0.60957 0.84972 0.0
H486 H 0.74045 0.54948 0.83749 0.0
O487 O 0.69526 0.6275 0.88794 0.0
O488 O 0.73911 0.58503 0.88232 0.0
O489 O 0.71191 0.46893 0.87446 0.0
C490 C 0.72433 0.63144 0.88661 0.0
H491 H 0.68717 0.44423 0.95169 0.0
H492 H 0.66633 0.63157 0.80894 0.0
H493 H 0.59889 0.47249 0.85445 0.0
H494 H 0.59854 0.59365 0.90692 0.0
Co495 Co 0.31322 0.54753 0.89838 0.0
C496 C 0.32089 0.54372 0.94722 0.0
C497 C 0.28227 0.59041 0.93689 0.0
C498 C 0.28302 0.59128 0.95912 0.0
N499 N 0.30651 0.56214 0.92922 0.0
N500 N 0.30731 0.56191 0.9656 0.0
H501 H 0.34017 0.51628 0.94731 0.0
H502 H 0.26467 0.60825 0.92693 0.0
C503 C 0.30372 0.67249 0.90055 0.0
O504 O 0.32312 0.67483 0.91657 0.0
N505 N 0.31757 0.53372 0.8677 0.0
C506 C 0.3393 0.50591 0.85678 0.0
C507 C 0.33103 0.50297 0.83521 0.0
C508 C 0.2965 0.54677 0.85289 0.0
N509 N 0.30403 0.52876 0.83282 0.0
C510 C 0.37427 0.53717 0.91086 0.0
C511 C 0.39842 0.6206 0.88484 0.0
C512 C 0.41771 0.58653 0.89715 0.0
C513 C 0.4052 0.5448 0.91029 0.0
C514 C 0.36701 0.61234 0.88632 0.0
N515 N 0.35525 0.5715 0.89962 0.0
H516 H 0.36608 0.50063 0.91927 0.0
H517 H 0.35237 0.63667 0.87596 0.0
H518 H 0.35937 0.48824 0.86399 0.0
H519 H 0.27544 0.56721 0.85704 0.0
O520 O 0.32011 0.46935 0.90416 0.0
O521 O 0.27517 0.50644 0.89766 0.0
O522 O 0.29804 0.62549 0.89128 0.0
C523 C 0.29142 0.4618 0.90169 0.0
H524 H 0.26626 0.6099 0.96974 0.0
H525 H 0.34389 0.48312 0.82238 0.0
H526 H 0.40751 0.65238 0.87402 0.0
H527 H 0.41944 0.51604 0.91929 0.0
H528 H 0.19263 0.99178 0.26 0.0
H529 H 0.2736 0.01987 0.22223 0.0
H530 H 0.30413 1.00999 0.25458 0.0
H531 H 0.30815 0.99568 0.29367 0.0
H532 H 0.22776 0.9701 0.33207 0.0
H533 H 0.1967 0.97827 0.29949 0.0
C534 C 0.21691 0.99621 0.2588 0.0
C535 C 0.23059 1.0063 0.23845 0.0
C536 C 0.23451 0.9913 0.27765 0.0
C537 C 0.26224 1.01111 0.23739 0.0
C538 C 0.27983 1.0059 0.256 0.0
C539 C 0.28387 0.99114 0.29494 0.0
C540 C 0.27036 0.9818 0.31532 0.0
C541 C 0.26623 0.99602 0.27619 0.0
C542 C 0.23875 0.97755 0.31664 0.0
C543 C 0.221 0.982 0.29799 0.0
H544 H 0.81865 0.08391 0.24804 0.0
H545 H 0.74017 0.10753 0.20793 0.0
H546 H 0.70767 0.10444 0.23985 0.0
H547 H 0.70135 0.0957 0.27906 0.0
H548 H 0.77943 0.07436 0.31971 0.0
H549 H 0.81218 0.07527 0.28771 0.0
C550 C 0.79448 0.08887 0.24631 0.0
C551 C 0.78195 0.09592 0.22552 0.0
C552 C 0.7758 0.08714 0.26483 0.0
C553 C 0.75046 0.10135 0.22361 0.0
C554 C 0.73183 0.09986 0.2419 0.0
C555 C 0.72555 0.09176 0.28101 0.0
C556 C 0.73782 0.08536 0.30188 0.0
C557 C 0.74423 0.09285 0.26257 0.0
C558 C 0.76924 0.0789 0.30391 0.0
C559 C 0.78804 0.07981 0.28559 0.0
H560 H 0.25593 0.07344 0.7321 0.0
H561 H 0.3373 0.03145 0.76639 0.0
H562 H 0.30935 0.03118 0.80078 0.0
H563 H 0.26134 0.04215 0.82101 0.0
H564 H 0.18097 0.08926 0.78596 0.0
H565 H 0.20881 0.08721 0.7522 0.0
C566 C 0.26749 0.06364 0.74706 0.0
C567 C 0.2986 0.05196 0.74664 0.0
C568 C 0.25138 0.0643 0.76674 0.0
C569 C 0.31338 0.04071 0.76628 0.0
C570 C 0.29737 0.04044 0.78594 0.0
C571 C 0.24988 0.05241 0.80607 0.0
C572 C 0.21873 0.06506 0.80638 0.0
C573 C 0.2663 0.05227 0.78639 0.0
C574 C 0.20457 0.07798 0.78657 0.0
C575 C 0.22059 0.07728 0.76707 0.0
H576 H 0.69398 1.00205 0.75054 0.0
H577 H 0.77405 0.97399 0.71202 0.0
H578 H 0.80449 0.96924 0.74481 0.0
H579 H 0.8086 0.97563 0.78434 0.0
H580 H 0.72835 1.00154 0.82293 0.0
H581 H 0.69781 1.00462 0.79021 0.0
C582 C 0.71801 0.99411 0.74931 0.0
C583 C 0.73167 0.98861 0.72879 0.0
C584 C 0.73541 0.99144 0.76826 0.0
C585 C 0.76297 0.97922 0.72755 0.0
C586 C 0.7804 0.97624 0.74631 0.0
C587 C 0.7844 0.98124 0.78566 0.0
C588 C 0.77093 0.98857 0.80616 0.0
C589 C 0.7669 0.98271 0.76675 0.0
C590 C 0.73951 0.99669 0.80743 0.0
C591 C 0.72194 0.9981 0.78869 0.0
H592 H 0.21163 0.57788 0.75818 0.0
H593 H 0.25944 0.44038 0.72807 0.0
H594 H 0.29268 0.43333 0.7596 0.0
H595 H 0.30713 0.465 0.79624 0.0
H596 H 0.26012 0.60578 0.8252 0.0
H597 H 0.22745 0.61218 0.79382 0.0
C598 C 0.22917 0.54609 0.7586 0.0
C599 C 0.23287 0.50931 0.74092 0.0
C600 C 0.24831 0.54274 0.77665 0.0
C601 C 0.25619 0.46922 0.74148 0.0
C602 C 0.27513 0.46512 0.75952 0.0
C603 C 0.29001 0.49748 0.79564 0.0
C604 C 0.28601 0.53424 0.81341 0.0
C605 C 0.27135 0.50159 0.77726 0.0
C606 C 0.26344 0.57589 0.81217 0.0
C607 C 0.24476 0.57992 0.7941 0.0
H608 H 0.75453 0.60013 0.7197 0.0
H609 H 0.84077 0.58263 0.75123 0.0
H610 H 0.81583 0.58208 0.7865 0.0
H611 H 0.76926 0.58522 0.80857 0.0
H612 H 0.68319 0.59794 0.77639 0.0
H613 H 0.70837 0.60133 0.74142 0.0
C614 C 0.76798 0.59564 0.73419 0.0
C615 C 0.79961 0.5914 0.73257 0.0
C616 C 0.75347 0.59453 0.75448 0.0
C617 C 0.81647 0.58674 0.75179 0.0
C618 C 0.80218 0.586 0.77206 0.0
C619 C 0.75597 0.58835 0.79394 0.0
C620 C 0.72425 0.59182 0.79535 0.0
C621 C 0.77064 0.58964 0.77362 0.0
C622 C 0.70758 0.59637 0.77605 0.0
C623 C 0.72197 0.5979 0.75591 0.0
H624 H 0.24882 0.55013 0.2334 0.0
H625 H 0.33554 0.57302 0.26318 0.0
H626 H 0.31208 0.57255 0.29921 0.0
H627 H 0.26626 0.57285 0.32202 0.0
H628 H 0.17914 0.55534 0.29192 0.0
H629 H 0.20304 0.5471 0.25639 0.0
C630 C 0.26247 0.55367 0.24787 0.0
C631 C 0.2938 0.56087 0.24582 0.0
C632 C 0.24863 0.55549 0.26844 0.0
C633 C 0.31137 0.56696 0.26455 0.0
C634 C 0.29795 0.56705 0.28508 0.0
C635 C 0.25258 0.56673 0.3077 0.0
C636 C 0.22096 0.56536 0.30965 0.0
C637 C 0.26651 0.56253 0.28721 0.0
C638 C 0.2035 0.55776 0.29087 0.0
C639 C 0.21716 0.55256 0.27053 0.0
H640 H 0.7019 0.5145 0.24566 0.0
H641 H 0.78251 0.49309 0.20719 0.0
H642 H 0.81317 0.4927 0.24009 0.0
H643 H 0.81687 0.49821 0.27997 0.0
H644 H 0.7357 0.51926 0.31797 0.0
H645 H 0.70549 0.52002 0.28512 0.0
C646 C 0.72613 0.50909 0.24446 0.0
C647 C 0.73985 0.50342 0.22399 0.0
C648 C 0.74354 0.50911 0.26339 0.0
C649 C 0.7714 0.49786 0.22272 0.0
C650 C 0.78892 0.49741 0.24154 0.0
C651 C 0.79256 0.50263 0.28103 0.0
C652 C 0.77864 0.50888 0.30145 0.0
C653 C 0.77522 0.50297 0.26199 0.0
C654 C 0.74711 0.51529 0.30252 0.0
C655 C 0.72975 0.51533 0.28372 0.0
H656 H 0.2692 0.16759 0.17259 0.0
H657 H 0.1838 0.24757 0.16002 0.0
H658 H 0.20764 0.3406 0.16205 0.0
H659 H 0.25276 0.39984 0.16795 0.0
H660 H 0.33732 0.32027 0.18373 0.0
H661 H 0.31399 0.22726 0.18013 0.0
C662 C 0.25595 0.20546 0.17012 0.0
C663 C 0.22484 0.20068 0.16591 0.0
C664 C 0.26965 0.25914 0.17212 0.0
C665 C 0.2078 0.25013 0.16321 0.0
C666 C 0.22142 0.30338 0.1644 0.0
C667 C 0.26606 0.36215 0.17067 0.0
C668 C 0.29681 0.3673 0.17613 0.0
C669 C 0.25231 0.30853 0.16898 0.0
C670 C 0.31359 0.31782 0.1797 0.0
C671 C 0.30028 0.26444 0.17752 0.0
H672 H 0.75026 0.7194 0.19459 0.0
H673 H 0.72686 0.71899 0.12681 0.0
H674 H 0.751 0.81086 0.12214 0.0
H675 H 0.77929 0.89098 0.1371 0.0
H676 H 0.80454 0.89022 0.20451 0.0
H677 H 0.77942 0.79919 0.20944 0.0
C678 C 0.75025 0.73958 0.17882 0.0
C679 C 0.73654 0.7123 0.16111 0.0
C680 C 0.76472 0.79214 0.17613 0.0
C681 C 0.73717 0.73885 0.14074 0.0
C682 C 0.75101 0.79147 0.13804 0.0
C683 C 0.77927 0.87105 0.15289 0.0
C684 C 0.79377 0.8977 0.17041 0.0
C685 C 0.76496 0.81843 0.15559 0.0
C686 C 0.79372 0.87073 0.1907 0.0
C687 C 0.77923 0.81868 0.19356 0.0
H688 H 0.21994 0.86239 0.86232 0.0
H689 H 0.24262 0.94323 0.92278 0.0
H690 H 0.2743 0.86281 0.93253 0.0
H691 H 0.29571 0.76937 0.92377 0.0
H692 H 0.27188 0.68884 0.86349 0.0
H693 H 0.24075 0.76963 0.85374 0.0
C694 C 0.23169 0.86254 0.87769 0.0
C695 C 0.2288 0.90895 0.89178 0.0
C696 C 0.24989 0.81631 0.88316 0.0
C697 C 0.24429 0.9081 0.91162 0.0
C698 C 0.26253 0.86217 0.91718 0.0
C699 C 0.2839 0.76974 0.90843 0.0
C700 C 0.28625 0.72318 0.89434 0.0
C701 C 0.2656 0.81612 0.90303 0.0
C702 C 0.27048 0.72405 0.87464 0.0
C703 C 0.25262 0.77022 0.86905 0.0
H704 H 0.74544 0.37018 0.82911 0.0
H705 H 0.71321 0.37453 0.89514 0.0
H706 H 0.73594 0.28293 0.90208 0.0
H707 H 0.76581 0.20228 0.88985 0.0
H708 H 0.80053 0.19841 0.82447 0.0
H709 H 0.77628 0.28897 0.81691 0.0
C710 C 0.74319 0.35077 0.84494 0.0
C711 C 0.72746 0.3792 0.86154 0.0
C712 C 0.757 0.29829 0.84902 0.0
C713 C 0.72516 0.3538 0.88207 0.0
C714 C 0.73819 0.30131 0.88608 0.0
C715 C 0.76805 0.22109 0.87391 0.0
C716 C 0.78494 0.19343 0.85775 0.0
C717 C 0.75433 0.27335 0.86975 0.0
C718 C 0.78779 0.21884 0.83726 0.0
C719 C 0.77382 0.27058 0.83289 0.0
H720 H 0.80295 0.85074 0.89866 0.0
H721 H 0.71492 0.92814 0.89539 0.0
H722 H 0.69152 0.83466 0.89277 0.0
H723 H 0.6965 0.73219 0.88962 0.0
H724 H 0.7847 0.65506 0.89082 0.0
H725 H 0.80788 0.74809 0.89592 0.0
C726 C 0.77857 0.84729 0.89765 0.0
C727 C 0.7606 0.89632 0.89736 0.0
C728 C 0.76549 0.79375 0.89554 0.0
C729 C 0.72916 0.89105 0.89576 0.0
C730 C 0.71585 0.83769 0.89416 0.0
C731 C 0.72082 0.73554 0.89109 0.0
C732 C 0.73894 0.68679 0.88984 0.0
C733 C 0.73386 0.78893 0.89374 0.0
C734 C 0.77035 0.69196 0.89165 0.0
C735 C 0.78354 0.74506 0.89462 0.0
H736 H 0.23923 0.42458 0.8835 0.0
H737 H 0.31726 0.3694 0.91926 0.0
H738 H 0.30107 0.27153 0.91602 0.0
H739 H 0.26469 0.20127 0.90315 0.0
H740 H 0.18602 0.25585 0.86812 0.0
H741 H 0.20276 0.35391 0.8705 0.0
C742 C 0.25239 0.39111 0.89081 0.0
C743 C 0.27923 0.40407 0.90168 0.0
C744 C 0.24317 0.33469 0.88865 0.0
C745 C 0.29641 0.36036 0.91082 0.0
C746 C 0.2873 0.30434 0.90889 0.0
C747 C 0.25158 0.23461 0.89572 0.0
C748 C 0.22441 0.22163 0.88533 0.0
C749 C 0.26087 0.29094 0.89769 0.0
C750 C 0.20717 0.26511 0.87612 0.0
C751 C 0.21659 0.32115 0.87761 0.0
H752 H 0.70433 0.35911 0.13431 0.0
H753 H 0.79138 0.44045 0.1298 0.0
H754 H 0.81599 0.3481 0.12829 0.0
H755 H 0.8128 0.24506 0.12981 0.0
H756 H 0.72605 0.16342 0.13623 0.0
H757 H 0.7011 0.25564 0.1353 0.0
C758 C 0.7287 0.35674 0.13282 0.0
C759 C 0.74606 0.40665 0.13211 0.0
C760 C 0.74264 0.30361 0.13235 0.0
C761 C 0.77756 0.40275 0.13036 0.0
C762 C 0.7916 0.34997 0.12952 0.0
C763 C 0.78838 0.24722 0.13083 0.0
C764 C 0.77125 0.19734 0.13303 0.0
C765 C 0.77437 0.30023 0.13072 0.0
C766 C 0.73971 0.2011 0.13448 0.0
C767 C 0.72549 0.2538 0.13399 0.0
H768 H 0.28128 0.8916 0.14187 0.0
H769 H 0.19338 0.8453 0.16645 0.0
H770 H 0.20771 0.74632 0.16699 0.0
H771 H 0.24514 0.67192 0.16056 0.0
H772 H 0.33294 0.71692 0.13548 0.0
H773 H 0.31869 0.8162 0.13474 0.0
C774 C 0.26548 0.85977 0.14751 0.0
C775 C 0.2364 0.8758 0.15415 0.0
C776 C 0.27368 0.80226 0.14744 0.0
C777 C 0.21594 0.83404 0.16117 0.0
C778 C 0.22405 0.77728 0.16146 0.0
C779 C 0.26097 0.70338 0.15467 0.0
C780 C 0.28997 0.68692 0.14806 0.0
C781 C 0.25277 0.76072 0.15449 0.0
C782 C 0.31038 0.72838 0.14068 0.0
C783 C 0.30234 0.78536 0.14033 0.0
H784 H 0.25864 0.67481 0.64899 0.0
H785 H 0.19362 0.7437 0.69399 0.0
H786 H 0.21916 0.83511 0.69254 0.0
H787 H 0.25926 0.89672 0.67751 0.0
H788 H 0.32332 0.82665 0.63199 0.0
H789 H 0.29894 0.73495 0.63475 0.0
C790 C 0.25006 0.70965 0.65857 0.0
C791 C 0.22415 0.70217 0.67153 0.0
C792 C 0.26471 0.76224 0.65756 0.0
C793 C 0.21346 0.74808 0.68381 0.0
C794 C 0.22807 0.8005 0.683 0.0
C795 C 0.26799 0.86128 0.66833 0.0
C796 C 0.29308 0.86888 0.65452 0.0
C797 C 0.25362 0.80825 0.6698 0.0
C798 C 0.30399 0.82238 0.64268 0.0
C799 C 0.29006 0.76971 0.64423 0.0
H800 H 0.77931 0.37881 0.69969 0.0
H801 H 0.79522 0.3864 0.63076 0.0
H802 H 0.77036 0.29523 0.62613 0.0
H803 H 0.74327 0.21375 0.64156 0.0
H804 H 0.72673 0.20707 0.71048 0.0
H805 H 0.75244 0.29718 0.71511 0.0
C806 C 0.77756 0.36031 0.68368 0.0
C807 C 0.78908 0.38961 0.66562 0.0
C808 C 0.7629 0.30801 0.68108 0.0
C809 C 0.78633 0.36514 0.64495 0.0
C810 C 0.77214 0.31286 0.64228 0.0
C811 C 0.74531 0.23187 0.6576 0.0
C812 C 0.73297 0.20337 0.6756 0.0
C813 C 0.76014 0.28404 0.6602 0.0
C814 C 0.73579 0.22794 0.69626 0.0
C815 C 0.75063 0.27954 0.69897 0.0
H816 H 0.2315 0.35729 0.40159 0.0
H817 H 0.21803 0.3602 0.33234 0.0
H818 H 0.24303 0.2695 0.32887 0.0
H819 H 0.26876 0.18886 0.34509 0.0
H820 H 0.28144 0.1827 0.41429 0.0
H821 H 0.25692 0.27469 0.41807 0.0
C822 C 0.23398 0.33803 0.38575 0.0
C823 C 0.22275 0.36596 0.36729 0.0
C824 C 0.24839 0.28512 0.38378 0.0
C825 C 0.22622 0.34001 0.34691 0.0
C826 C 0.24065 0.28798 0.34484 0.0
C827 C 0.26635 0.20766 0.36102 0.0
C828 C 0.27715 0.17881 0.37934 0.0
C829 C 0.25187 0.26017 0.36312 0.0
C830 C 0.27342 0.20381 0.39987 0.0
C831 C 0.25936 0.2565 0.40205 0.0
H832 H 0.75929 0.69205 0.35918 0.0
H833 H 0.82388 0.76475 0.40341 0.0
H834 H 0.80012 0.85648 0.39967 0.0
H835 H 0.75985 0.9157 0.38546 0.0
H836 H 0.69517 0.8459 0.3408 0.0
H837 H 0.72019 0.75392 0.34302 0.0
C838 C 0.76834 0.72808 0.36782 0.0
C839 C 0.79331 0.72105 0.38167 0.0
C840 C 0.75445 0.78138 0.36564 0.0
C841 C 0.80469 0.76845 0.3927 0.0
C842 C 0.79106 0.82116 0.39062 0.0
C843 C 0.7512 0.88049 0.37612 0.0
C844 C 0.72547 0.88774 0.36312 0.0
C845 C 0.76571 0.82797 0.37741 0.0
C846 C 0.7149 0.84163 0.35097 0.0
C847 C 0.72917 0.78893 0.35227 0.0
H848 H 0.80307 0.35735 0.39765 0.0
H849 H 0.71684 0.43798 0.38818 0.0
H850 H 0.69188 0.34547 0.38905 0.0
H851 H 0.6952 0.24167 0.39081 0.0
H852 H 0.78213 0.16225 0.39846 0.0
H853 H 0.80632 0.25491 0.40007 0.0
C854 C 0.77875 0.35499 0.39592 0.0
C855 C 0.7618 0.40459 0.39285 0.0
C856 C 0.76479 0.30193 0.39604 0.0
C857 C 0.73037 0.40049 0.39056 0.0
C858 C 0.71615 0.34763 0.39103 0.0
C859 C 0.71942 0.24464 0.39303 0.0
C860 C 0.7369 0.19513 0.39455 0.0
C861 C 0.73321 0.29806 0.39352 0.0
C862 C 0.76823 0.19966 0.39723 0.0
C863 C 0.78204 0.25261 0.39814 0.0
H864 H 0.19781 0.71428 0.40817 0.0
H865 H 0.28365 0.62955 0.40254 0.0
H866 H 0.30978 0.7205 0.40447 0.0
H867 H 0.30804 0.82403 0.4059 0.0
H868 H 0.2221 0.90896 0.40996 0.0
H869 H 0.19614 0.8177 0.41062 0.0
C870 C 0.22227 0.71555 0.40755 0.0
C871 C 0.23878 0.66505 0.40521 0.0
C872 C 0.23707 0.76801 0.40832 0.0
C873 C 0.27042 0.66766 0.40434 0.0
C874 C 0.28535 0.71969 0.40541 0.0
C875 C 0.28362 0.82269 0.40714 0.0
C876 C 0.26701 0.87338 0.4079 0.0
C877 C 0.26888 0.77014 0.40713 0.0
C878 C 0.23541 0.8707 0.40937 0.0
C879 C 0.22058 0.8185 0.4097 0.0
H880 H 0.81408 0.74613 0.64084 0.0
H881 H 0.72734 0.66359 0.64509 0.0
H882 H 0.70213 0.75542 0.64288 0.0
H883 H 0.70501 0.85877 0.64022 0.0
H884 H 0.79193 0.94106 0.63767 0.0
H885 H 0.81699 0.84908 0.63855 0.0
C886 C 0.78962 0.74807 0.64123 0.0
C887 C 0.77254 0.69807 0.64306 0.0
C888 C 0.77543 0.8008 0.64017 0.0
C889 C 0.74094 0.70144 0.64372 0.0
C890 C 0.72657 0.75388 0.64241 0.0
C891 C 0.72945 0.85662 0.63964 0.0
C892 C 0.74665 0.90665 0.63868 0.0
C893 C 0.74362 0.80377 0.64063 0.0
C894 C 0.77825 0.90318 0.6383 0.0
C895 C 0.79254 0.85065 0.63886 0.0
H896 H 0.27699 0.39784 0.66525 0.0
H897 H 0.18875 0.34664 0.64324 0.0
H898 H 0.20325 0.24803 0.6453 0.0
H899 H 0.24115 0.17516 0.65299 0.0
H900 H 0.32994 0.22579 0.67371 0.0
H901 H 0.31506 0.32479 0.67281 0.0
C902 C 0.26109 0.36507 0.66076 0.0
C903 C 0.23192 0.37974 0.65409 0.0
C904 C 0.26953 0.30792 0.66197 0.0
C905 C 0.21143 0.33668 0.64846 0.0
C906 C 0.21961 0.28005 0.64968 0.0
C907 C 0.257 0.20794 0.65757 0.0
C908 C 0.28645 0.19336 0.66348 0.0
C909 C 0.24855 0.26504 0.6565 0.0
C910 C 0.30705 0.23616 0.66906 0.0
C911 C 0.29863 0.29281 0.66849 0.0
H912 H 0.96314 0.08092 0.11266 0.0
H913 H 0.9517 0.97859 0.16989 0.0
H914 H 1.00598 0.98277 0.1766 0.0
H915 H 0.05573 0.01859 0.16723 0.0
H916 H 0.06919 0.11227 0.10794 0.0
H917 H 0.01462 0.11157 0.10175 0.0
C918 C 0.97268 0.05903 0.12644 0.0
C919 C 0.95349 0.02921 0.14074 0.0
C920 C 1.00399 0.06145 0.13014 0.0
C921 C 0.96604 1.00099 0.15851 0.0
C922 C 0.99699 1.004 0.16248 0.0
C923 C 0.04708 0.03791 0.15262 0.0
C924 C 0.06698 0.06464 0.13789 0.0
C925 C 0.01606 0.03452 0.14853 0.0
C926 C 0.05468 0.0917 0.11968 0.0
C927 C 0.02345 0.09062 0.11597 0.0
H928 H 0.04265 0.08876 0.92281 0.0
H929 H 0.05446 0.97576 0.86851 0.0
H930 H 1.00015 0.97653 0.86222 0.0
H931 H 0.94973 0.01238 0.87111 0.0
H932 H 0.93807 0.12887 0.92414 0.0
H933 H 0.99249 0.12672 0.93104 0.0
C934 C 0.03349 0.06464 0.90944 0.0
C935 C 0.05283 0.03248 0.89608 0.0
C936 C 1.00244 0.06722 0.90531 0.0
C937 C 0.04024 1.00021 0.87928 0.0
C938 C 0.0092 1.00133 0.87544 0.0
C939 C 0.95917 0.03752 0.88412 0.0
C940 C 0.94002 0.07074 0.89713 0.0
C941 C 0.99022 0.0353 0.88816 0.0
C942 C 0.95246 0.10358 0.91377 0.0
C943 C 0.98345 0.10172 0.91787 0.0
H944 H 0.95935 0.6206 0.64325 0.0
H945 H 0.95617 0.4429 0.62813 0.0
H946 H 0.01132 0.44006 0.6267 0.0
H947 H 0.0601 0.48716 0.63087 0.0
H948 H 0.06367 0.66363 0.64781 0.0
H949 H 0.00848 0.66866 0.64618 0.0
C950 C 0.9707 0.58135 0.63937 0.0
C951 C 0.95362 0.53192 0.63581 0.0
C952 C 1.00237 0.58007 0.6386 0.0
C953 C 0.96873 0.48128 0.6312 0.0
C954 C 1.00024 0.47977 0.63021 0.0
C955 C 0.04884 0.52683 0.63423 0.0
C956 C 0.066 0.57482 0.63978 0.0
C957 C 0.01723 0.52878 0.63407 0.0
C958 C 0.05107 0.62618 0.64343 0.0
C959 C 0.0195 0.62884 0.64275 0.0
H960 H 0.95723 0.62263 0.38567 0.0
H961 H 0.93878 0.44872 0.37031 0.0
H962 H 0.99273 0.42746 0.37045 0.0
H963 H 0.04476 0.4563 0.37851 0.0
H964 H 0.06333 0.63025 0.39424 0.0
H965 H 0.01001 0.65333 0.39057 0.0
C966 C 0.9652 0.58049 0.3819 0.0
C967 C 0.94425 0.53726 0.37808 0.0
C968 C 0.99626 0.56827 0.3825 0.0
C969 C 0.95466 0.48257 0.3734 0.0
C970 C 0.98545 0.47034 0.37357 0.0
C971 C 0.03721 0.49938 0.38083 0.0
C972 C 0.05798 0.54111 0.38706 0.0
C973 C 1.00643 0.51251 0.37868 0.0
C974 C 0.04773 0.59683 0.39002 0.0
C975 C 0.01724 0.61027 0.38776 0.0
H976 H 0.45838 0.10352 0.65725 0.0
H977 H 0.45974 0.92139 0.65783 0.0
H978 H 0.51498 0.92299 0.65766 0.0
H979 H 0.56252 0.97601 0.65506 0.0
H980 H 0.56043 0.15789 0.65063 0.0
H981 H 0.50564 0.15631 0.65464 0.0
C982 C 0.47064 0.06398 0.65706 0.0
C983 C 0.45478 0.01231 0.65712 0.0
C984 C 0.50226 0.06521 0.65624 0.0
C985 C 0.47124 0.96173 0.65779 0.0
C986 C 0.50284 0.96265 0.65753 0.0
C987 C 0.55015 0.01541 0.65469 0.0
C988 C 0.56577 0.06703 0.65226 0.0
C989 C 0.51853 0.01414 0.65633 0.0
C990 C 0.54923 0.11758 0.65261 0.0
C991 C 0.51782 0.1167 0.65475 0.0
H992 H 0.45978 0.99476 0.4165 0.0
H993 H 0.4448 0.06731 0.35315 0.0
H994 H 0.49882 0.06516 0.34602 0.0
H995 H 0.55062 0.04346 0.35781 0.0
H996 H 0.56479 0.9627 0.41944 0.0
H997 H 0.51036 0.96405 0.4266 0.0
C998 C 0.4679 1.00893 0.40085 0.0
C999 C 0.44765 0.03141 0.38549 0.0
C1000 C 0.49893 1.00509 0.39635 0.0
C1001 C 0.45946 0.0511 0.36565 0.0
C1002 C 0.49047 0.04914 0.36136 0.0
C1003 C 0.54162 0.02529 0.37262 0.0
C1004 C 0.56152 1.00284 0.38807 0.0
C1005 C 0.51038 0.02626 0.37659 0.0
C1006 C 0.5498 0.97948 0.40722 0.0
C1007 C 0.51876 0.98089 0.4114 0.0
H1008 H 0.55456 0.52854 0.11988 0.0
H1009 H 0.57241 0.5609 0.18756 0.0
H1010 H 0.52005 0.53949 0.1964 0.0
H1011 H 0.46896 0.51278 0.185 0.0
H1012 H 0.45155 0.47665 0.11776 0.0
H1013 H 0.50467 0.49428 0.10896 0.0
C1014 C 0.54735 0.53009 0.13666 0.0
C1015 C 0.5678 0.54684 0.15295 0.0
C1016 C 0.5174 0.51556 0.14182 0.0
C1017 C 0.55734 0.54973 0.1745 0.0
C1018 C 0.5274 0.53654 0.17967 0.0
C1019 C 0.47695 0.50784 0.16847 0.0
C1020 C 0.45637 0.49344 0.15204 0.0
C1021 C 0.50728 0.51941 0.16348 0.0
C1022 C 0.467 0.4869 0.13073 0.0
C1023 C 0.49726 0.49789 0.12566 0.0
H1024 H 0.45412 0.57173 0.86183 0.0
H1025 H 0.45526 0.60523 0.93047 0.0
H1026 H 0.50929 0.58631 0.9316 0.0
H1027 H 0.55457 0.5525 0.91402 0.0
H1028 H 0.55659 0.52813 0.84469 0.0
H1029 H 0.50239 0.54758 0.8431 0.0
C1030 C 0.46652 0.5766 0.87682 0.0
C1031 C 0.45094 0.59017 0.89604 0.0
C1032 C 0.49771 0.56504 0.8774 0.0
C1033 C 0.46697 0.59528 0.9155 0.0
C1034 C 0.49771 0.58376 0.91619 0.0
C1035 C 0.54362 0.55279 0.89836 0.0
C1036 C 0.56009 0.53943 0.87949 0.0
C1037 C 0.51309 0.56729 0.89737 0.0
C1038 C 0.54466 0.53749 0.8596 0.0
C1039 C 0.5137 0.54955 0.85861 0.0
H1040 H 0.1575 0.10081 0.99525 0.0
H1041 H 0.2333 1.003 0.97286 0.0
H1042 H 0.24356 0.97266 1.01008 0.0
H1043 H 0.23426 0.98316 0.04939 0.0
H1044 H 0.15788 0.07939 0.07173 0.0
H1045 H 0.14409 0.10065 0.03418 0.0
C1046 C 0.17601 0.07226 0.99856 0.0
C1047 C 0.19491 0.0547 0.98142 0.0
C1048 C 0.18165 0.05504 1.01997 0.0
C1049 C 0.21849 0.01695 0.98578 0.0
C1050 C 0.22443 0.99997 1.00707 0.0
C1051 C 0.2143 1.00794 0.04594 0.0
C1052 C 0.19723 0.03017 0.06325 0.0
C1053 C 0.20667 0.02004 0.02434 0.0
C1054 C 0.17122 0.06165 0.05868 0.0
C1055 C 0.16355 0.07419 0.03722 0.0
H1056 H 0.82321 0.99177 0.97689 0.0
H1057 H 0.80897 0.17124 0.97949 0.0
H1058 H 0.81711 0.17091 1.01862 0.0
H1059 H 0.8202 0.11705 0.05276 0.0
H1060 H 0.83062 0.93685 0.05031 0.0
H1061 H 0.83283 0.93961 1.0107 0.0
C1062 C 0.82277 0.03087 0.98599 0.0
C1063 C 0.81517 0.08131 0.97543 0.0
C1064 C 0.82658 0.03002 1.00862 0.0
C1065 C 0.81435 0.13178 0.9874 0.0
C1066 C 0.819 0.1316 1.00976 0.0
C1067 C 0.82402 0.07887 0.04347 0.0
C1068 C 0.82531 0.02687 0.05426 0.0
C1069 C 0.82397 0.08067 0.02068 0.0
C1070 C 0.82963 0.97728 0.04218 0.0
C1071 C 0.83067 0.97885 1.01958 0.0
H1072 H 0.22259 0.60065 0.55451 0.0
H1073 H 0.17079 0.45429 0.57333 0.0
H1074 H 0.1616 0.43246 0.53514 0.0
H1075 H 0.17137 0.45151 0.4965 0.0
H1076 H 0.22613 0.59484 0.47819 0.0
H1077 H 0.2311 0.62116 0.51616 0.0
C1078 C 0.2094 0.56372 0.55034 0.0
C1079 C 0.19783 0.52863 0.56688 0.0
C1080 C 0.20489 0.55074 0.5284 0.0
C1081 C 0.17994 0.4821 0.56104 0.0
C1082 C 0.1749 0.46937 0.53917 0.0
C1083 C 0.1846 0.4883 0.50072 0.0
C1084 C 0.19862 0.52072 0.48428 0.0
C1085 C 0.18783 0.50274 0.52271 0.0
C1086 C 0.21493 0.56915 0.49028 0.0
C1087 C 0.21793 0.58411 0.51207 0.0
H1088 H 0.80259 0.64057 0.48487 0.0
H1089 H 0.81146 0.46367 0.47024 0.0
H1090 H 0.81609 0.44214 0.50885 0.0
H1091 H 0.81295 0.4731 0.54684 0.0
H1092 H 0.80515 0.64988 0.56172 0.0
H1093 H 0.80512 0.67261 0.52293 0.0
C1094 C 0.8058 0.59745 0.49022 0.0
C1095 C 0.80638 0.55363 0.47486 0.0
C1096 C 0.80854 0.58558 0.51241 0.0
C1097 C 0.81106 0.49797 0.48181 0.0
C1098 C 0.81352 0.48569 0.50386 0.0
C1099 C 0.81161 0.51659 0.54149 0.0
C1100 C 0.80873 0.55982 0.55693 0.0
C1101 C 0.81162 0.52903 0.51929 0.0
C1102 C 0.80747 0.61613 0.55002 0.0
C1103 C 0.80723 0.62896 0.5279 0.0
H1104 H 0.71668 0.14077 0.54474 0.0
H1105 H 0.68303 0.97653 0.56329 0.0
H1106 H 0.67388 0.95376 0.52547 0.0
H1107 H 0.67841 0.97756 0.48706 0.0
H1108 H 0.71498 0.13885 0.46794 0.0
H1109 H 0.71966 0.16588 0.50605 0.0
C1110 C 0.7075 0.09985 0.54058 0.0
C1111 C 0.70087 0.06034 0.55707 0.0
C1112 C 0.70278 0.08646 0.51864 0.0
C1113 C 0.68822 1.0081 0.55119 0.0
C1114 C 0.68313 0.9948 0.52946 0.0
C1115 C 0.68753 0.0186 0.49116 0.0
C1116 C 0.69674 0.05576 0.47456 0.0
C1117 C 0.6908 0.03324 0.51306 0.0
C1118 C 0.70762 0.10944 0.48029 0.0
C1119 C 0.71053 0.12472 0.50212 0.0
H1120 H 0.35055 0.06119 0.49786 0.0
H1121 H 0.26918 0.96822 0.48413 0.0
H1122 H 0.25999 0.95599 0.52306 0.0
H1123 H 0.27293 0.9793 0.56086 0.0
H1124 H 0.35342 0.07588 0.5741 0.0
H1125 H 0.36525 0.07886 0.53547 0.0
C1126 C 0.33082 0.03813 0.50338 0.0
C1127 C 0.31029 0.0164 0.48812 0.0
C1128 C 0.32549 0.03223 0.52569 0.0
C1129 C 0.28531 0.98527 0.49552 0.0
C1130 C 0.27996 0.9787 0.51777 0.0
C1131 C 0.29306 1.00104 0.55532 0.0
C1132 C 0.31206 0.02798 0.57044 0.0
C1133 C 0.29951 1.00327 0.53299 0.0
C1134 C 0.33846 0.05462 0.56294 0.0
C1135 C 0.34514 0.05666 0.5408 0.0
H1136 H 0.71643 0.63606 0.03935 0.0
H1137 H 0.71488 0.46067 0.05822 0.0
H1138 H 0.71758 0.43264 0.02028 0.0
H1139 H 0.71609 0.4577 0.98183 0.0
H1140 H 0.71314 0.63296 0.96296 0.0
H1141 H 0.71678 0.66116 1.00085 0.0
C1142 C 0.7165 0.59165 0.03526 0.0
C1143 C 0.71496 0.55065 0.05179 0.0
C1144 C 0.71719 0.57577 1.01335 0.0
C1145 C 0.71611 0.49331 0.04601 0.0
C1146 C 0.71744 0.47718 0.02425 0.0
C1147 C 0.71608 0.50212 0.98593 0.0
C1148 C 0.71383 0.54303 0.96943 0.0
C1149 C 0.71727 0.51804 1.0078 0.0
C1150 C 0.7149 0.60041 0.97516 0.0
C1151 C 0.71675 0.61661 0.99689 0.0
H1152 H 0.3013 0.62967 1.00032 0.0
H1153 H 0.33101 0.46441 0.98051 0.0
H1154 H 0.34016 0.43889 1.01827 0.0
H1155 H 0.33589 0.46111 0.05708 0.0
H1156 H 0.30625 0.6261 0.07714 0.0
H1157 H 0.30129 0.65472 0.03918 0.0
C1158 C 0.30988 0.58819 1.00433 0.0
C1159 C 0.3152 0.54878 0.98767 0.0
C1160 C 0.31509 0.57388 0.0261 0.0
C1161 C 0.32688 0.49553 0.993 0.0
C1162 C 0.33195 0.48085 1.0146 0.0
C1163 C 0.3286 0.50348 0.05309 0.0
C1164 C 0.32117 0.54129 0.06985 0.0
C1165 C 0.32561 0.51931 0.03129 0.0
C1166 C 0.31226 0.59639 0.06453 0.0
C1167 C 0.30917 0.61253 0.04284 0.0
loop_
_geom_bond_atom_site_label_1
_geom_bond_atom_site_label_2
_geom_bond_distance
_geom_bond_site_symmetry_2
_ccdc_geom_bond_type
Co0 N4 2.148 . S
Co0 N10 2.128 . S
Co0 N20 2.194 . S
Co0 O25 2.351 1_545 S
Co0 O26 2.155 1_545 S
Co0 O27 2.096 . S
C1 N4 1.301 . S
C1 N5 1.328 . S
C1 H6 0.930 1_545 S
C2 C3 1.333 . S
C2 N4 1.317 . S
C2 H7 0.930 . S
C3 C2 1.333 . S
C3 N5 1.350 . S
C3 H29 0.931 . S
N4 Co0 2.148 . S
N4 C1 1.301 . S
N4 C2 1.317 . S
N5 C1 1.328 . S
N5 C3 1.350 . S
H6 C1 0.930 1_565 S
H7 C2 0.930 . S
C8 O9 1.224 . S
C8 O27 1.247 . S
O9 C8 1.224 . S
N10 Co0 2.128 . S
N10 C11 1.355 . S
N10 C13 1.311 . S
C11 N10 1.355 . S
C11 C12 1.363 . S
C11 H23 0.929 1_545 S
C12 C11 1.363 . S
C12 N14 1.375 . S
C12 H30 0.931 1_545 S
C13 N10 1.311 . S
C13 N14 1.347 . S
C13 H24 0.929 . S
N14 C12 1.375 . S
N14 C13 1.347 . S
C15 C18 1.365 . S
C15 N20 1.328 1_565 S
C15 H21 0.929 . S
C16 C17 1.362 . S
C16 C19 1.378 . S
C16 H31 0.929 . S
C17 C16 1.362 . S
C17 C18 1.366 1_545 S
C18 C15 1.365 . S
C18 C17 1.366 1_565 S
C18 H32 0.930 . S
C19 C16 1.378 . S
C19 N20 1.315 . S
C19 H22 0.930 . S
N20 Co0 2.194 . S
N20 C15 1.328 1_545 S
N20 C19 1.315 . S
H21 C15 0.929 . S
H22 C19 0.930 . S
H23 C11 0.929 1_565 S
H24 C13 0.929 . S
O25 Co0 2.351 1_565 S
O25 C28 1.244 . S
O26 Co0 2.155 1_565 S
O26 C28 1.240 . S
O27 Co0 2.096 . S
O27 C8 1.247 . S
C28 O25 1.244 . S
C28 O26 1.240 . S
H29 C3 0.931 . S
H30 C12 0.931 1_565 S
H31 C16 0.929 . S
H32 C18 0.930 . S
Co33 N37 2.148 . S
Co33 N43 2.128 . S
Co33 N53 2.194 . S
Co33 O58 2.351 . S
Co33 O59 2.155 . S
Co33 O60 2.096 1_545 S
C34 N37 1.301 . S
C34 N38 1.328 . S
C34 H39 0.930 . S
C35 C36 1.333 . S
C35 N37 1.317 1_565 S
C35 H40 0.930 . S
C36 C35 1.333 . S
C36 N38 1.350 1_565 S
C36 H62 0.931 . S
N37 Co33 2.148 . S
N37 C34 1.301 . S
N37 C35 1.317 1_545 S
N38 C34 1.328 . S
N38 C36 1.350 1_545 S
H39 C34 0.930 . S
H40 C35 0.930 . S
C41 O42 1.224 . S
C41 O60 1.247 . S
O42 C41 1.224 . S
N43 Co33 2.128 . S
N43 C44 1.355 . S
N43 C46 1.311 1_545 S
C44 N43 1.355 . S
C44 C45 1.363 . S
C44 H56 0.929 . S
C45 C44 1.363 . S
C45 N47 1.375 . S
C45 H63 0.931 . S
C46 N43 1.311 1_565 S
C46 N47 1.347 1_565 S
C46 H57 0.929 . S
N47 C45 1.375 . S
N47 C46 1.347 1_545 S
C48 C51 1.365 . S
C48 N53 1.328 . S
C48 H54 0.929 . S
C49 C50 1.362 1_565 S
C49 C52 1.378 . S
C49 H64 0.929 . S
C50 C49 1.362 1_545 S
C50 C51 1.366 . S
C51 C48 1.365 . S
C51 C50 1.366 . S
C51 H65 0.930 . S
C52 C49 1.378 . S
C52 N53 1.315 1_565 S
C52 H55 0.930 . S
N53 Co33 2.194 . S
N53 C48 1.328 . S
N53 C52 1.315 1_545 S
H54 C48 0.929 . S
H55 C52 0.930 . S
H56 C44 0.929 . S
H57 C46 0.929 . S
O58 Co33 2.351 . S
O58 C61 1.244 . S
O59 Co33 2.155 . S
O59 C61 1.240 . S
O60 Co33 2.096 1_565 S
O60 C41 1.247 . S
C61 O58 1.244 . S
C61 O59 1.240 . S
H62 C36 0.931 . S
H63 C45 0.931 . S
H64 C49 0.929 . S
H65 C51 0.930 . S
Co66 N70 2.148 . S
Co66 N76 2.128 . S
Co66 N86 2.194 . S
Co66 O91 2.351 . S
Co66 O92 2.155 . S
Co66 O93 2.096 1_545 S
C67 N70 1.301 . S
C67 N71 1.328 . S
C67 H72 0.930 . S
C68 C69 1.333 . S
C68 N70 1.317 1_565 S
C68 H73 0.930 . S
C69 C68 1.333 . S
C69 N71 1.350 1_565 S
C69 H95 0.931 . S
N70 Co66 2.148 . S
N70 C67 1.301 . S
N70 C68 1.317 1_545 S
N71 C67 1.328 . S
N71 C69 1.350 1_545 S
H72 C67 0.930 . S
H73 C68 0.930 . S
C74 O75 1.224 . S
C74 O93 1.247 . S
O75 C74 1.224 . S
N76 Co66 2.128 . S
N76 C77 1.355 . S
N76 C79 1.311 1_545 S
C77 N76 1.355 . S
C77 C78 1.363 . S
C77 H89 0.929 . S
C78 C77 1.363 . S
C78 N80 1.375 . S
C78 H96 0.931 . S
C79 N76 1.311 1_565 S
C79 N80 1.347 1_565 S
C79 H90 0.929 . S
N80 C78 1.375 . S
N80 C79 1.347 1_545 S
C81 C84 1.365 . S
C81 N86 1.328 . S
C81 H87 0.929 . S
C82 C83 1.362 1_565 S
C82 C85 1.378 . S
C82 H97 0.929 . S
C83 C82 1.362 1_545 S
C83 C84 1.366 . S
C84 C81 1.365 . S
C84 C83 1.366 . S
C84 H98 0.930 . S
C85 C82 1.378 . S
C85 N86 1.315 1_565 S
C85 H88 0.930 . S
N86 Co66 2.194 . S
N86 C81 1.328 . S
N86 C85 1.315 1_545 S
H87 C81 0.929 . S
H88 C85 0.930 . S
H89 C77 0.929 . S
H90 C79 0.929 . S
O91 Co66 2.351 . S
O91 C94 1.244 . S
O92 Co66 2.155 . S
O92 C94 1.240 . S
O93 Co66 2.096 1_565 S
O93 C74 1.247 . S
C94 O91 1.244 . S
C94 O92 1.240 . S
H95 C69 0.931 . S
H96 C78 0.931 . S
H97 C82 0.929 . S
H98 C84 0.930 . S
Co99 N103 2.148 . S
Co99 N109 2.128 . S
Co99 N119 2.194 . S
Co99 O124 2.351 1_545 S
Co99 O125 2.155 1_545 S
Co99 O126 2.096 . S
C100 N103 1.301 . S
C100 N104 1.328 . S
C100 H105 0.930 1_545 S
C101 C102 1.333 . S
C101 N103 1.317 . S
C101 H106 0.930 . S
C102 C101 1.333 . S
C102 N104 1.350 . S
C102 H128 0.931 . S
N103 Co99 2.148 . S
N103 C100 1.301 . S
N103 C101 1.317 . S
N104 C100 1.328 . S
N104 C102 1.350 . S
H105 C100 0.930 1_565 S
H106 C101 0.930 . S
C107 O108 1.224 . S
C107 O126 1.247 . S
O108 C107 1.224 . S
N109 Co99 2.128 . S
N109 C110 1.355 . S
N109 C112 1.311 . S
C110 N109 1.355 . S
C110 C111 1.363 . S
C110 H122 0.929 1_545 S
C111 C110 1.363 . S
C111 N113 1.375 . S
C111 H129 0.931 1_545 S
C112 N109 1.311 . S
C112 N113 1.347 . S
C112 H123 0.929 . S
N113 C111 1.375 . S
N113 C112 1.347 . S
C114 C117 1.365 . S
C114 N119 1.328 1_565 S
C114 H120 0.929 . S
C115 C116 1.362 . S
C115 C118 1.378 . S
C115 H130 0.929 . S
C116 C115 1.362 . S
C116 C117 1.366 1_545 S
C117 C114 1.365 . S
C117 C116 1.366 1_565 S
C117 H131 0.930 . S
C118 C115 1.378 . S
C118 N119 1.315 . S
C118 H121 0.930 . S
N119 Co99 2.194 . S
N119 C114 1.328 1_545 S
N119 C118 1.315 . S
H120 C114 0.929 . S
H121 C118 0.930 . S
H122 C110 0.929 1_565 S
H123 C112 0.929 . S
O124 Co99 2.351 1_565 S
O124 C127 1.244 . S
O125 Co99 2.155 1_565 S
O125 C127 1.240 . S
O126 Co99 2.096 . S
O126 C107 1.247 . S
C127 O124 1.244 . S
C127 O125 1.240 . S
H128 C102 0.931 . S
H129 C111 0.931 1_565 S
H130 C115 0.929 . S
H131 C117 0.930 . S
Co132 N136 2.148 . S
Co132 N142 2.128 . S
Co132 N152 2.194 . S
Co132 O157 2.351 . S
Co132 O158 2.155 . S
Co132 O159 2.096 . S
C133 N136 1.301 . S
C133 N137 1.328 . S
C133 H138 0.930 . S
C134 C135 1.333 . S
C134 N136 1.317 . S
C134 H139 0.930 . S
C135 C134 1.333 . S
C135 N137 1.350 . S
C135 H161 0.931 . S
N136 Co132 2.148 . S
N136 C133 1.301 . S
N136 C134 1.317 . S
N137 C133 1.328 . S
N137 C135 1.350 . S
H138 C133 0.930 . S
H139 C134 0.930 . S
C140 O141 1.224 . S
C140 O159 1.247 . S
O141 C140 1.224 . S
N142 Co132 2.128 . S
N142 C143 1.355 . S
N142 C145 1.311 . S
C143 N142 1.355 . S
C143 C144 1.363 . S
C143 H155 0.929 . S
C144 C143 1.363 . S
C144 N146 1.375 . S
C144 H162 0.931 . S
C145 N142 1.311 . S
C145 N146 1.347 . S
C145 H156 0.929 . S
N146 C144 1.375 . S
N146 C145 1.347 . S
C147 C150 1.365 . S
C147 N152 1.328 . S
C147 H153 0.929 . S
C148 C149 1.362 . S
C148 C151 1.378 . S
C148 H163 0.929 . S
C149 C148 1.362 . S
C149 C150 1.366 . S
C150 C147 1.365 . S
C150 C149 1.366 . S
C150 H164 0.930 . S
C151 C148 1.378 . S
C151 N152 1.315 . S
C151 H154 0.930 . S
N152 Co132 2.194 . S
N152 C147 1.328 . S
N152 C151 1.315 . S
H153 C147 0.929 . S
H154 C151 0.930 . S
H155 C143 0.929 . S
H156 C145 0.929 . S
O157 Co132 2.351 . S
O157 C160 1.244 . S
O158 Co132 2.155 . S
O158 C160 1.240 . S
O159 Co132 2.096 . S
O159 C140 1.247 . S
C160 O157 1.244 . S
C160 O158 1.240 . S
H161 C135 0.931 . S
H162 C144 0.931 . S
H163 C148 0.929 . S
H164 C150 0.930 . S
Co165 N169 2.148 . S
Co165 N175 2.128 . S
Co165 N185 2.194 . S
Co165 O190 2.351 . S
Co165 O191 2.155 . S
Co165 O192 2.096 . S
C166 N169 1.301 . S
C166 N170 1.328 . S
C166 H171 0.930 . S
C167 C168 1.333 . S
C167 N169 1.317 . S
C167 H172 0.930 . S
C168 C167 1.333 . S
C168 N170 1.350 . S
C168 H194 0.931 . S
N169 Co165 2.148 . S
N169 C166 1.301 . S
N169 C167 1.317 . S
N170 C166 1.328 . S
N170 C168 1.350 . S
H171 C166 0.930 . S
H172 C167 0.930 . S
C173 O174 1.224 . S
C173 O192 1.247 . S
O174 C173 1.224 . S
N175 Co165 2.128 . S
N175 C176 1.355 . S
N175 C178 1.311 . S
C176 N175 1.355 . S
C176 C177 1.363 . S
C176 H188 0.929 . S
C177 C176 1.363 . S
C177 N179 1.375 . S
C177 H195 0.931 . S
C178 N175 1.311 . S
C178 N179 1.347 . S
C178 H189 0.929 . S
N179 C177 1.375 . S
N179 C178 1.347 . S
C180 C183 1.365 . S
C180 N185 1.328 . S
C180 H186 0.929 . S
C181 C182 1.362 . S
C181 C184 1.378 . S
C181 H196 0.929 . S
C182 C181 1.362 . S
C182 C183 1.366 . S
C183 C180 1.365 . S
C183 C182 1.366 . S
C183 H197 0.930 . S
C184 C181 1.378 . S
C184 N185 1.315 . S
C184 H187 0.930 . S
N185 Co165 2.194 . S
N185 C180 1.328 . S
N185 C184 1.315 . S
H186 C180 0.929 . S
H187 C184 0.930 . S
H188 C176 0.929 . S
H189 C178 0.929 . S
O190 Co165 2.351 . S
O190 C193 1.244 . S
O191 Co165 2.155 . S
O191 C193 1.240 . S
O192 Co165 2.096 . S
O192 C173 1.247 . S
C193 O190 1.244 . S
C193 O191 1.240 . S
H194 C168 0.931 . S
H195 C177 0.931 . S
H196 C181 0.929 . S
H197 C183 0.930 . S
Co198 N202 2.148 . S
Co198 N208 2.128 . S
Co198 N218 2.194 . S
Co198 O223 2.351 . S
Co198 O224 2.155 . S
Co198 O225 2.096 . S
C199 N202 1.301 . S
C199 N203 1.328 . S
C199 H204 0.930 . S
C200 C201 1.333 . S
C200 N202 1.317 . S
C200 H205 0.930 . S
C201 C200 1.333 . S
C201 N203 1.350 . S
C201 H227 0.931 . S
N202 Co198 2.148 . S
N202 C199 1.301 . S
N202 C200 1.317 . S
N203 C199 1.328 . S
N203 C201 1.350 . S
H204 C199 0.930 . S
H205 C200 0.930 . S
C206 O207 1.224 . S
C206 O225 1.247 . S
O207 C206 1.224 . S
N208 Co198 2.128 . S
N208 C209 1.355 . S
N208 C211 1.311 . S
C209 N208 1.355 . S
C209 C210 1.363 . S
C209 H221 0.929 . S
C210 C209 1.363 . S
C210 N212 1.375 . S
C210 H228 0.931 . S
C211 N208 1.311 . S
C211 N212 1.347 . S
C211 H222 0.929 . S
N212 C210 1.375 . S
N212 C211 1.347 . S
C213 C216 1.365 . S
C213 N218 1.328 . S
C213 H219 0.929 . S
C214 C215 1.362 . S
C214 C217 1.378 . S
C214 H229 0.929 . S
C215 C214 1.362 . S
C215 C216 1.366 . S
C216 C213 1.365 . S
C216 C215 1.366 . S
C216 H230 0.930 . S
C217 C214 1.378 . S
C217 N218 1.315 . S
C217 H220 0.930 . S
N218 Co198 2.194 . S
N218 C213 1.328 . S
N218 C217 1.315 . S
H219 C213 0.929 . S
H220 C217 0.930 . S
H221 C209 0.929 . S
H222 C211 0.929 . S
O223 Co198 2.351 . S
O223 C226 1.244 . S
O224 Co198 2.155 . S
O224 C226 1.240 . S
O225 Co198 2.096 . S
O225 C206 1.247 . S
C226 O223 1.244 . S
C226 O224 1.240 . S
H227 C201 0.931 . S
H228 C210 0.931 . S
H229 C214 0.929 . S
H230 C216 0.930 . S
Co231 N235 2.148 . S
Co231 N241 2.128 . S
Co231 N251 2.194 . S
Co231 O256 2.351 . S
Co231 O257 2.155 . S
Co231 O258 2.096 . S
C232 N235 1.301 . S
C232 N236 1.328 . S
C232 H237 0.930 . S
C233 C234 1.333 . S
C233 N235 1.317 . S
C233 H238 0.930 . S
C234 C233 1.333 . S
C234 N236 1.350 . S
C234 H260 0.931 . S
N235 Co231 2.148 . S
N235 C232 1.301 . S
N235 C233 1.317 . S
N236 C232 1.328 . S
N236 C234 1.350 . S
H237 C232 0.930 . S
H238 C233 0.930 . S
C239 O240 1.224 . S
C239 O258 1.247 . S
O240 C239 1.224 . S
N241 Co231 2.128 . S
N241 C242 1.355 . S
N241 C244 1.311 . S
C242 N241 1.355 . S
C242 C243 1.363 . S
C242 H254 0.929 . S
C243 C242 1.363 . S
C243 N245 1.375 . S
C243 H261 0.931 . S
C244 N241 1.311 . S
C244 N245 1.347 . S
C244 H255 0.929 . S
N245 C243 1.375 . S
N245 C244 1.347 . S
C246 C249 1.365 . S
C246 N251 1.328 . S
C246 H252 0.929 . S
C247 C248 1.362 . S
C247 C250 1.378 . S
C247 H262 0.929 . S
C248 C247 1.362 . S
C248 C249 1.366 . S
C249 C246 1.365 . S
C249 C248 1.366 . S
C249 H263 0.930 . S
C250 C247 1.378 . S
C250 N251 1.315 . S
C250 H253 0.930 . S
N251 Co231 2.194 . S
N251 C246 1.328 . S
N251 C250 1.315 . S
H252 C246 0.929 . S
H253 C250 0.930 . S
H254 C242 0.929 . S
H255 C244 0.929 . S
O256 Co231 2.351 . S
O256 C259 1.244 . S
O257 Co231 2.155 . S
O257 C259 1.240 . S
O258 Co231 2.096 . S
O258 C239 1.247 . S
C259 O256 1.244 . S
C259 O257 1.240 . S
H260 C234 0.931 . S
H261 C243 0.931 . S
H262 C247 0.929 . S
H263 C249 0.930 . S
Co264 N268 2.148 . S
Co264 N274 2.128 . S
Co264 N284 2.194 . S
Co264 O289 2.351 1_545 S
Co264 O290 2.155 1_545 S
Co264 O291 2.096 . S
C265 N268 1.301 . S
C265 N269 1.328 . S
C265 H270 0.930 1_545 S
C266 C267 1.333 . S
C266 N268 1.317 . S
C266 H271 0.930 . S
C267 C266 1.333 . S
C267 N269 1.350 . S
C267 H293 0.931 . S
N268 Co264 2.148 . S
N268 C265 1.301 . S
N268 C266 1.317 . S
N269 C265 1.328 . S
N269 C267 1.350 . S
H270 C265 0.930 1_565 S
H271 C266 0.930 . S
C272 O273 1.224 . S
C272 O291 1.247 . S
O273 C272 1.224 . S
N274 Co264 2.128 . S
N274 C275 1.355 . S
N274 C277 1.311 . S
C275 N274 1.355 . S
C275 C276 1.363 . S
C275 H287 0.929 1_545 S
C276 C275 1.363 . S
C276 N278 1.375 . S
C276 H294 0.931 1_545 S
C277 N274 1.311 . S
C277 N278 1.347 . S
C277 H288 0.929 . S
N278 C276 1.375 . S
N278 C277 1.347 . S
C279 C282 1.365 . S
C279 N284 1.328 1_565 S
C279 H285 0.929 . S
C280 C281 1.362 . S
C280 C283 1.378 . S
C280 H295 0.929 . S
C281 C280 1.362 . S
C281 C282 1.366 1_545 S
C282 C279 1.365 . S
C282 C281 1.366 1_565 S
C282 H296 0.930 . S
C283 C280 1.378 . S
C283 N284 1.315 . S
C283 H286 0.930 . S
N284 Co264 2.194 . S
N284 C279 1.328 1_545 S
N284 C283 1.315 . S
H285 C279 0.929 . S
H286 C283 0.930 . S
H287 C275 0.929 1_565 S
H288 C277 0.929 . S
O289 Co264 2.351 1_565 S
O289 C292 1.244 . S
O290 Co264 2.155 1_565 S
O290 C292 1.240 . S
O291 Co264 2.096 . S
O291 C272 1.247 . S
C292 O289 1.244 . S
C292 O290 1.240 . S
H293 C267 0.931 . S
H294 C276 0.931 1_565 S
H295 C280 0.929 . S
H296 C282 0.930 . S
Co297 N301 2.148 . S
Co297 N307 2.128 . S
Co297 N317 2.194 . S
Co297 O322 2.351 . S
Co297 O323 2.155 . S
Co297 O324 2.096 1_545 S
C298 N301 1.301 . S
C298 N302 1.328 . S
C298 H303 0.930 . S
C299 C300 1.333 . S
C299 N301 1.317 1_565 S
C299 H304 0.930 . S
C300 C299 1.333 . S
C300 N302 1.350 1_565 S
C300 H326 0.931 . S
N301 Co297 2.148 . S
N301 C298 1.301 . S
N301 C299 1.317 1_545 S
N302 C298 1.328 . S
N302 C300 1.350 1_545 S
H303 C298 0.930 . S
H304 C299 0.930 . S
C305 O306 1.224 . S
C305 O324 1.247 . S
O306 C305 1.224 . S
N307 Co297 2.128 . S
N307 C308 1.355 . S
N307 C310 1.311 1_545 S
C308 N307 1.355 . S
C308 C309 1.363 . S
C308 H320 0.929 . S
C309 C308 1.363 . S
C309 N311 1.375 . S
C309 H327 0.931 . S
C310 N307 1.311 1_565 S
C310 N311 1.347 1_565 S
C310 H321 0.929 . S
N311 C309 1.375 . S
N311 C310 1.347 1_545 S
C312 C315 1.365 . S
C312 N317 1.328 . S
C312 H318 0.929 . S
C313 C314 1.362 1_565 S
C313 C316 1.378 . S
C313 H328 0.929 . S
C314 C313 1.362 1_545 S
C314 C315 1.366 . S
C315 C312 1.365 . S
C315 C314 1.366 . S
C315 H329 0.930 . S
C316 C313 1.378 . S
C316 N317 1.315 1_565 S
C316 H319 0.930 . S
N317 Co297 2.194 . S
N317 C312 1.328 . S
N317 C316 1.315 1_545 S
H318 C312 0.929 . S
H319 C316 0.930 . S
H320 C308 0.929 . S
H321 C310 0.929 . S
O322 Co297 2.351 . S
O322 C325 1.244 . S
O323 Co297 2.155 . S
O323 C325 1.240 . S
O324 Co297 2.096 1_565 S
O324 C305 1.247 . S
C325 O322 1.244 . S
C325 O323 1.240 . S
H326 C300 0.931 . S
H327 C309 0.931 . S
H328 C313 0.929 . S
H329 C315 0.930 . S
Co330 N334 2.148 . S
Co330 N340 2.128 . S
Co330 N350 2.194 . S
Co330 O355 2.351 . S
Co330 O356 2.155 . S
Co330 O357 2.096 1_545 S
C331 N334 1.301 . S
C331 N335 1.328 . S
C331 H336 0.930 . S
C332 C333 1.333 . S
C332 N334 1.317 1_565 S
C332 H337 0.930 . S
C333 C332 1.333 . S
C333 N335 1.350 1_565 S
C333 H359 0.931 . S
N334 Co330 2.148 . S
N334 C331 1.301 . S
N334 C332 1.317 1_545 S
N335 C331 1.328 . S
N335 C333 1.350 1_545 S
H336 C331 0.930 . S
H337 C332 0.930 . S
C338 O339 1.224 . S
C338 O357 1.247 . S
O339 C338 1.224 . S
N340 Co330 2.128 . S
N340 C341 1.355 . S
N340 C343 1.311 1_545 S
C341 N340 1.355 . S
C341 C342 1.363 . S
C341 H353 0.929 . S
C342 C341 1.363 . S
C342 N344 1.375 . S
C342 H360 0.931 . S
C343 N340 1.311 1_565 S
C343 N344 1.347 1_565 S
C343 H354 0.929 . S
N344 C342 1.375 . S
N344 C343 1.347 1_545 S
C345 C348 1.365 . S
C345 N350 1.328 . S
C345 H351 0.929 . S
C346 C347 1.362 1_565 S
C346 C349 1.378 . S
C346 H361 0.929 . S
C347 C346 1.362 1_545 S
C347 C348 1.366 . S
C348 C345 1.365 . S
C348 C347 1.366 . S
C348 H362 0.930 . S
C349 C346 1.378 . S
C349 N350 1.315 1_565 S
C349 H352 0.930 . S
N350 Co330 2.194 . S
N350 C345 1.328 . S
N350 C349 1.315 1_545 S
H351 C345 0.929 . S
H352 C349 0.930 . S
H353 C341 0.929 . S
H354 C343 0.929 . S
O355 Co330 2.351 . S
O355 C358 1.244 . S
O356 Co330 2.155 . S
O356 C358 1.240 . S
O357 Co330 2.096 1_565 S
O357 C338 1.247 . S
C358 O355 1.244 . S
C358 O356 1.240 . S
H359 C333 0.931 . S
H360 C342 0.931 . S
H361 C346 0.929 . S
H362 C348 0.930 . S
Co363 N367 2.148 . S
Co363 N373 2.128 . S
Co363 N383 2.194 . S
Co363 O388 2.351 1_545 S
Co363 O389 2.155 1_545 S
Co363 O390 2.096 . S
C364 N367 1.301 . S
C364 N368 1.328 . S
C364 H369 0.930 1_545 S
C365 C366 1.333 . S
C365 N367 1.317 . S
C365 H370 0.930 . S
C366 C365 1.333 . S
C366 N368 1.350 . S
C366 H392 0.931 . S
N367 Co363 2.148 . S
N367 C364 1.301 . S
N367 C365 1.317 . S
N368 C364 1.328 . S
N368 C366 1.350 . S
H369 C364 0.930 1_565 S
H370 C365 0.930 . S
C371 O372 1.224 . S
C371 O390 1.247 . S
O372 C371 1.224 . S
N373 Co363 2.128 . S
N373 C374 1.355 . S
N373 C376 1.311 . S
C374 N373 1.355 . S
C374 C375 1.363 . S
C374 H386 0.929 1_545 S
C375 C374 1.363 . S
C375 N377 1.375 . S
C375 H393 0.931 1_545 S
C376 N373 1.311 . S
C376 N377 1.347 . S
C376 H387 0.929 . S
N377 C375 1.375 . S
N377 C376 1.347 . S
C378 C381 1.365 . S
C378 N383 1.328 1_565 S
C378 H384 0.929 . S
C379 C380 1.362 . S
C379 C382 1.378 . S
C379 H394 0.929 . S
C380 C379 1.362 . S
C380 C381 1.366 1_545 S
C381 C378 1.365 . S
C381 C380 1.366 1_565 S
C381 H395 0.930 . S
C382 C379 1.378 . S
C382 N383 1.315 . S
C382 H385 0.930 . S
N383 Co363 2.194 . S
N383 C378 1.328 1_545 S
N383 C382 1.315 . S
H384 C378 0.929 . S
H385 C382 0.930 . S
H386 C374 0.929 1_565 S
H387 C376 0.929 . S
O388 Co363 2.351 1_565 S
O388 C391 1.244 . S
O389 Co363 2.155 1_565 S
O389 C391 1.240 . S
O390 Co363 2.096 . S
O390 C371 1.247 . S
C391 O388 1.244 . S
C391 O389 1.240 . S
H392 C366 0.931 . S
H393 C375 0.931 1_565 S
H394 C379 0.929 . S
H395 C381 0.930 . S
Co396 N400 2.148 . S
Co396 N406 2.128 . S
Co396 N416 2.194 . S
Co396 O421 2.351 . S
Co396 O422 2.155 . S
Co396 O423 2.096 . S
C397 N400 1.301 . S
C397 N401 1.328 . S
C397 H402 0.930 . S
C398 C399 1.333 . S
C398 N400 1.317 . S
C398 H403 0.930 . S
C399 C398 1.333 . S
C399 N401 1.350 . S
C399 H425 0.931 . S
N400 Co396 2.148 . S
N400 C397 1.301 . S
N400 C398 1.317 . S
N401 C397 1.328 . S
N401 C399 1.350 . S
H402 C397 0.930 . S
H403 C398 0.930 . S
C404 O405 1.224 . S
C404 O423 1.247 . S
O405 C404 1.224 . S
N406 Co396 2.128 . S
N406 C407 1.355 . S
N406 C409 1.311 . S
C407 N406 1.355 . S
C407 C408 1.363 . S
C407 H419 0.929 . S
C408 C407 1.363 . S
C408 N410 1.375 . S
C408 H426 0.931 . S
C409 N406 1.311 . S
C409 N410 1.347 . S
C409 H420 0.929 . S
N410 C408 1.375 . S
N410 C409 1.347 . S
C411 C414 1.365 . S
C411 N416 1.328 . S
C411 H417 0.929 . S
C412 C413 1.362 . S
C412 C415 1.378 . S
C412 H427 0.929 . S
C413 C412 1.362 . S
C413 C414 1.366 . S
C414 C411 1.365 . S
C414 C413 1.366 . S
C414 H428 0.930 . S
C415 C412 1.378 . S
C415 N416 1.315 . S
C415 H418 0.930 . S
N416 Co396 2.194 . S
N416 C411 1.328 . S
N416 C415 1.315 . S
H417 C411 0.929 . S
H418 C415 0.930 . S
H419 C407 0.929 . S
H420 C409 0.929 . S
O421 Co396 2.351 . S
O421 C424 1.244 . S
O422 Co396 2.155 . S
O422 C424 1.240 . S
O423 Co396 2.096 . S
O423 C404 1.247 . S
C424 O421 1.244 . S
C424 O422 1.240 . S
H425 C399 0.931 . S
H426 C408 0.931 . S
H427 C412 0.929 . S
H428 C414 0.930 . S
Co429 N433 2.148 . S
Co429 N439 2.128 . S
Co429 N449 2.194 . S
Co429 O454 2.351 . S
Co429 O455 2.155 . S
Co429 O456 2.096 . S
C430 N433 1.301 . S
C430 N434 1.328 . S
C430 H435 0.930 . S
C431 C432 1.333 . S
C431 N433 1.317 . S
C431 H436 0.930 . S
C432 C431 1.333 . S
C432 N434 1.350 . S
C432 H458 0.931 . S
N433 Co429 2.148 . S
N433 C430 1.301 . S
N433 C431 1.317 . S
N434 C430 1.328 . S
N434 C432 1.350 . S
H435 C430 0.930 . S
H436 C431 0.930 . S
C437 O438 1.224 . S
C437 O456 1.247 . S
O438 C437 1.224 . S
N439 Co429 2.128 . S
N439 C440 1.355 . S
N439 C442 1.311 . S
C440 N439 1.355 . S
C440 C441 1.363 . S
C440 H452 0.929 . S
C441 C440 1.363 . S
C441 N443 1.375 . S
C441 H459 0.931 . S
C442 N439 1.311 . S
C442 N443 1.347 . S
C442 H453 0.929 . S
N443 C441 1.375 . S
N443 C442 1.347 . S
C444 C447 1.365 . S
C444 N449 1.328 . S
C444 H450 0.929 . S
C445 C446 1.362 . S
C445 C448 1.378 . S
C445 H460 0.929 . S
C446 C445 1.362 . S
C446 C447 1.366 . S
C447 C444 1.365 . S
C447 C446 1.366 . S
C447 H461 0.930 . S
C448 C445 1.378 . S
C448 N449 1.315 . S
C448 H451 0.930 . S
N449 Co429 2.194 . S
N449 C444 1.328 . S
N449 C448 1.315 . S
H450 C444 0.929 . S
H451 C448 0.930 . S
H452 C440 0.929 . S
H453 C442 0.929 . S
O454 Co429 2.351 . S
O454 C457 1.244 . S
O455 Co429 2.155 . S
O455 C457 1.240 . S
O456 Co429 2.096 . S
O456 C437 1.247 . S
C457 O454 1.244 . S
C457 O455 1.240 . S
H458 C432 0.931 . S
H459 C441 0.931 . S
H460 C445 0.929 . S
H461 C447 0.930 . S
Co462 N466 2.148 . S
Co462 N472 2.128 . S
Co462 N482 2.194 . S
Co462 O487 2.351 . S
Co462 O488 2.155 . S
Co462 O489 2.096 . S
C463 N466 1.301 . S
C463 N467 1.328 . S
C463 H468 0.930 . S
C464 C465 1.333 . S
C464 N466 1.317 . S
C464 H469 0.930 . S
C465 C464 1.333 . S
C465 N467 1.350 . S
C465 H491 0.931 . S
N466 Co462 2.148 . S
N466 C463 1.301 . S
N466 C464 1.317 . S
N467 C463 1.328 . S
N467 C465 1.350 . S
H468 C463 0.930 . S
H469 C464 0.930 . S
C470 O471 1.224 . S
C470 O489 1.247 . S
O471 C470 1.224 . S
N472 Co462 2.128 . S
N472 C473 1.355 . S
N472 C475 1.311 . S
C473 N472 1.355 . S
C473 C474 1.363 . S
C473 H485 0.929 . S
C474 C473 1.363 . S
C474 N476 1.375 . S
C474 H492 0.931 . S
C475 N472 1.311 . S
C475 N476 1.347 . S
C475 H486 0.929 . S
N476 C474 1.375 . S
N476 C475 1.347 . S
C477 C480 1.365 . S
C477 N482 1.328 . S
C477 H483 0.929 . S
C478 C479 1.362 . S
C478 C481 1.378 . S
C478 H493 0.929 . S
C479 C478 1.362 . S
C479 C480 1.366 . S
C480 C477 1.365 . S
C480 C479 1.366 . S
C480 H494 0.930 . S
C481 C478 1.378 . S
C481 N482 1.315 . S
C481 H484 0.930 . S
N482 Co462 2.194 . S
N482 C477 1.328 . S
N482 C481 1.315 . S
H483 C477 0.929 . S
H484 C481 0.930 . S
H485 C473 0.929 . S
H486 C475 0.929 . S
O487 Co462 2.351 . S
O487 C490 1.244 . S
O488 Co462 2.155 . S
O488 C490 1.240 . S
O489 Co462 2.096 . S
O489 C470 1.247 . S
C490 O487 1.244 . S
C490 O488 1.240 . S
H491 C465 0.931 . S
H492 C474 0.931 . S
H493 C478 0.929 . S
H494 C480 0.930 . S
Co495 N499 2.148 . S
Co495 N505 2.128 . S
Co495 N515 2.194 . S
Co495 O520 2.351 . S
Co495 O521 2.155 . S
Co495 O522 2.096 . S
C496 N499 1.301 . S
C496 N500 1.328 . S
C496 H501 0.930 . S
C497 C498 1.333 . S
C497 N499 1.317 . S
C497 H502 0.930 . S
C498 C497 1.333 . S
C498 N500 1.350 . S
C498 H524 0.931 . S
N499 Co495 2.148 . S
N499 C496 1.301 . S
N499 C497 1.317 . S
N500 C496 1.328 . S
N500 C498 1.350 . S
H501 C496 0.930 . S
H502 C497 0.930 . S
C503 O504 1.224 . S
C503 O522 1.247 . S
O504 C503 1.224 . S
N505 Co495 2.128 . S
N505 C506 1.355 . S
N505 C508 1.311 . S
C506 N505 1.355 . S
C506 C507 1.363 . S
C506 H518 0.929 . S
C507 C506 1.363 . S
C507 N509 1.375 . S
C507 H525 0.931 . S
C508 N505 1.311 . S
C508 N509 1.347 . S
C508 H519 0.929 . S
N509 C507 1.375 . S
N509 C508 1.347 . S
C510 C513 1.365 . S
C510 N515 1.328 . S
C510 H516 0.929 . S
C511 C512 1.362 . S
C511 C514 1.378 . S
C511 H526 0.929 . S
C512 C511 1.362 . S
C512 C513 1.366 . S
C513 C510 1.365 . S
C513 C512 1.366 . S
C513 H527 0.930 . S
C514 C511 1.378 . S
C514 N515 1.315 . S
C514 H517 0.930 . S
N515 Co495 2.194 . S
N515 C510 1.328 . S
N515 C514 1.315 . S
H516 C510 0.929 . S
H517 C514 0.930 . S
H518 C506 0.929 . S
H519 C508 0.929 . S
O520 Co495 2.351 . S
O520 C523 1.244 . S
O521 Co495 2.155 . S
O521 C523 1.240 . S
O522 Co495 2.096 . S
O522 C503 1.247 . S
C523 O520 1.244 . S
C523 O521 1.240 . S
H524 C498 0.931 . S
H525 C507 0.931 . S
H526 C511 0.929 . S
H527 C513 0.930 . S
H528 C534 0.930 1_565 S
H529 C537 0.930 . S
H530 C538 0.930 . S
H531 C539 0.930 . S
H532 C542 0.930 1_565 S
H533 C543 0.930 . S
C534 H528 0.930 1_545 S
C534 C535 1.355 . S
C534 C536 1.415 . S
C535 C534 1.355 . S
C535 C537 1.419 . S
C536 C534 1.415 . S
C536 C541 1.425 . S
C536 C543 1.409 1_545 S
C537 H529 0.930 . S
C537 C535 1.419 . S
C537 C538 1.362 . S
C538 H530 0.930 . S
C538 C537 1.362 . S
C538 C541 1.409 . S
C539 H531 0.930 . S
C539 C540 1.355 . S
C539 C541 1.415 . S
C540 C539 1.355 . S
C540 C542 1.419 . S
C541 C536 1.425 . S
C541 C538 1.409 . S
C541 C539 1.415 . S
C542 H532 0.930 1_545 S
C542 C540 1.419 . S
C542 C543 1.362 1_545 S
C543 H533 0.930 . S
C543 C536 1.409 1_565 S
C543 C542 1.362 1_565 S
H544 C550 0.930 . S
H545 C553 0.930 . S
H546 C554 0.930 . S
H547 C555 0.930 . S
H548 C558 0.930 . S
H549 C559 0.930 . S
C550 H544 0.930 . S
C550 C551 1.355 1_545 S
C550 C552 1.415 . S
C551 C550 1.355 1_565 S
C551 C553 1.419 . S
C552 C550 1.415 . S
C552 C557 1.425 1_545 S
C552 C559 1.409 . S
C553 H545 0.930 . S
C553 C551 1.419 . S
C553 C554 1.362 . S
C554 H546 0.930 . S
C554 C553 1.362 . S
C554 C557 1.409 . S
C555 H547 0.930 . S
C555 C556 1.355 1_565 S
C555 C557 1.415 . S
C556 C555 1.355 1_545 S
C556 C558 1.419 . S
C557 C552 1.425 1_565 S
C557 C554 1.409 . S
C557 C555 1.415 . S
C558 H548 0.930 . S
C558 C556 1.419 . S
C558 C559 1.362 . S
C559 H549 0.930 . S
C559 C552 1.409 . S
C559 C558 1.362 . S
H560 C566 0.930 . S
H561 C569 0.930 . S
H562 C570 0.930 . S
H563 C571 0.930 . S
H564 C574 0.930 . S
H565 C575 0.930 . S
C566 H560 0.930 . S
C566 C567 1.355 1_545 S
C566 C568 1.415 . S
C567 C566 1.355 1_565 S
C567 C569 1.419 . S
C568 C566 1.415 . S
C568 C573 1.425 1_545 S
C568 C575 1.409 . S
C569 H561 0.930 . S
C569 C567 1.419 . S
C569 C570 1.362 . S
C570 H562 0.930 . S
C570 C569 1.362 . S
C570 C573 1.409 . S
C571 H563 0.930 . S
C571 C572 1.355 . S
C571 C573 1.415 . S
C572 C571 1.355 . S
C572 C574 1.419 1_565 S
C573 C568 1.425 1_565 S
C573 C570 1.409 . S
C573 C571 1.415 . S
C574 H564 0.930 . S
C574 C572 1.419 1_545 S
C574 C575 1.362 . S
C575 H565 0.930 . S
C575 C568 1.409 . S
C575 C574 1.362 . S
H576 C582 0.930 1_565 S
H577 C585 0.930 . S
H578 C586 0.930 . S
H579 C587 0.930 . S
H580 C590 0.930 1_565 S
H581 C591 0.930 . S
C582 H576 0.930 1_545 S
C582 C583 1.355 . S
C582 C584 1.415 . S
C583 C582 1.355 . S
C583 C585 1.419 . S
C584 C582 1.415 . S
C584 C589 1.425 . S
C584 C591 1.409 1_545 S
C585 H577 0.930 . S
C585 C583 1.419 . S
C585 C586 1.362 . S
C586 H578 0.930 . S
C586 C585 1.362 . S
C586 C589 1.409 . S
C587 H579 0.930 . S
C587 C588 1.355 . S
C587 C589 1.415 . S
C588 C587 1.355 . S
C588 C590 1.419 . S
C589 C584 1.425 . S
C589 C586 1.409 . S
C589 C587 1.415 . S
C590 H580 0.930 1_545 S
C590 C588 1.419 . S
C590 C591 1.362 1_545 S
C591 H581 0.930 . S
C591 C584 1.409 1_565 S
C591 C590 1.362 1_565 S
H592 C598 0.930 . S
H593 C601 0.930 . S
H594 C602 0.930 . S
H595 C603 0.930 . S
H596 C606 0.930 . S
H597 C607 0.930 . S
C598 H592 0.930 . S
C598 C599 1.355 . S
C598 C600 1.415 . S
C599 C598 1.355 . S
C599 C601 1.419 . S
C600 C598 1.415 . S
C600 C605 1.425 . S
C600 C607 1.409 . S
C601 H593 0.930 . S
C601 C599 1.419 . S
C601 C602 1.362 . S
C602 H594 0.930 . S
C602 C601 1.362 . S
C602 C605 1.409 . S
C603 H595 0.930 . S
C603 C604 1.355 . S
C603 C605 1.415 . S
C604 C603 1.355 . S
C604 C606 1.419 . S
C605 C600 1.425 . S
C605 C602 1.409 . S
C605 C603 1.415 . S
C606 H596 0.930 . S
C606 C604 1.419 . S
C606 C607 1.362 . S
C607 H597 0.930 . S
C607 C600 1.409 . S
C607 C606 1.362 . S
H608 C614 0.930 . S
H609 C617 0.930 . S
H610 C618 0.930 . S
H611 C619 0.930 . S
H612 C622 0.930 . S
H613 C623 0.930 . S
C614 H608 0.930 . S
C614 C615 1.355 . S
C614 C616 1.415 . S
C615 C614 1.355 . S
C615 C617 1.419 . S
C616 C614 1.415 . S
C616 C621 1.425 . S
C616 C623 1.409 . S
C617 H609 0.930 . S
C617 C615 1.419 . S
C617 C618 1.362 . S
C618 H610 0.930 . S
C618 C617 1.362 . S
C618 C621 1.409 . S
C619 H611 0.930 . S
C619 C620 1.355 . S
C619 C621 1.415 . S
C620 C619 1.355 . S
C620 C622 1.419 . S
C621 C616 1.425 . S
C621 C618 1.409 . S
C621 C619 1.415 . S
C622 H612 0.930 . S
C622 C620 1.419 . S
C622 C623 1.362 . S
C623 H613 0.930 . S
C623 C616 1.409 . S
C623 C622 1.362 . S
H624 C630 0.930 . S
H625 C633 0.930 . S
H626 C634 0.930 . S
H627 C635 0.930 . S
H628 C638 0.930 . S
H629 C639 0.930 . S
C630 H624 0.930 . S
C630 C631 1.355 . S
C630 C632 1.415 . S
C631 C630 1.355 . S
C631 C633 1.419 . S
C632 C630 1.415 . S
C632 C637 1.425 . S
C632 C639 1.409 . S
C633 H625 0.930 . S
C633 C631 1.419 . S
C633 C634 1.362 . S
C634 H626 0.930 . S
C634 C633 1.362 . S
C634 C637 1.409 . S
C635 H627 0.930 . S
C635 C636 1.355 . S
C635 C637 1.415 . S
C636 C635 1.355 . S
C636 C638 1.419 . S
C637 C632 1.425 . S
C637 C634 1.409 . S
C637 C635 1.415 . S
C638 H628 0.930 . S
C638 C636 1.419 . S
C638 C639 1.362 . S
C639 H629 0.930 . S
C639 C632 1.409 . S
C639 C638 1.362 . S
H640 C646 0.930 . S
H641 C649 0.930 . S
H642 C650 0.930 . S
H643 C651 0.930 . S
H644 C654 0.930 . S
H645 C655 0.930 . S
C646 H640 0.930 . S
C646 C647 1.355 . S
C646 C648 1.415 . S
C647 C646 1.355 . S
C647 C649 1.419 . S
C648 C646 1.415 . S
C648 C653 1.425 . S
C648 C655 1.409 . S
C649 H641 0.930 . S
C649 C647 1.419 . S
C649 C650 1.362 . S
C650 H642 0.930 . S
C650 C649 1.362 . S
C650 C653 1.409 . S
C651 H643 0.930 . S
C651 C652 1.355 . S
C651 C653 1.415 . S
C652 C651 1.355 . S
C652 C654 1.419 . S
C653 C648 1.425 . S
C653 C650 1.409 . S
C653 C651 1.415 . S
C654 H644 0.930 . S
C654 C652 1.419 . S
C654 C655 1.362 . S
C655 H645 0.930 . S
C655 C648 1.409 . S
C655 C654 1.362 . S
H656 C662 0.930 . S
H657 C665 0.930 . S
H658 C666 0.930 . S
H659 C667 0.930 . S
H660 C670 0.930 . S
H661 C671 0.930 . S
C662 H656 0.930 . S
C662 C663 1.355 . S
C662 C664 1.415 . S
C663 C662 1.355 . S
C663 C665 1.419 . S
C664 C662 1.415 . S
C664 C669 1.425 . S
C664 C671 1.409 . S
C665 H657 0.930 . S
C665 C663 1.419 . S
C665 C666 1.362 . S
C666 H658 0.930 . S
C666 C665 1.362 . S
C666 C669 1.409 . S
C667 H659 0.930 . S
C667 C668 1.355 . S
C667 C669 1.415 . S
C668 C667 1.355 . S
C668 C670 1.419 . S
C669 C664 1.425 . S
C669 C666 1.409 . S
C669 C667 1.415 . S
C670 H660 0.930 . S
C670 C668 1.419 . S
C670 C671 1.362 . S
C671 H661 0.930 . S
C671 C664 1.409 . S
C671 C670 1.362 . S
H672 C678 0.930 . S
H673 C681 0.930 . S
H674 C682 0.930 . S
H675 C683 0.930 . S
H676 C686 0.930 . S
H677 C687 0.930 . S
C678 H672 0.930 . S
C678 C679 1.355 . S
C678 C680 1.415 . S
C679 C678 1.355 . S
C679 C681 1.419 . S
C680 C678 1.415 . S
C680 C685 1.425 . S
C680 C687 1.409 . S
C681 H673 0.930 . S
C681 C679 1.419 . S
C681 C682 1.362 . S
C682 H674 0.930 . S
C682 C681 1.362 . S
C682 C685 1.409 . S
C683 H675 0.930 . S
C683 C684 1.355 . S
C683 C685 1.415 . S
C684 C683 1.355 . S
C684 C686 1.419 . S
C685 C680 1.425 . S
C685 C682 1.409 . S
C685 C683 1.415 . S
C686 H676 0.930 . S
C686 C684 1.419 . S
C686 C687 1.362 . S
C687 H677 0.930 . S
C687 C680 1.409 . S
C687 C686 1.362 . S
H688 C694 0.930 . S
H689 C697 0.930 . S
H690 C698 0.930 . S
H691 C699 0.930 . S
H692 C702 0.930 . S
H693 C703 0.930 . S
C694 H688 0.930 . S
C694 C695 1.355 . S
C694 C696 1.415 . S
C695 C694 1.355 . S
C695 C697 1.419 . S
C696 C694 1.415 . S
C696 C701 1.425 . S
C696 C703 1.409 . S
C697 H689 0.930 . S
C697 C695 1.419 . S
C697 C698 1.362 . S
C698 H690 0.930 . S
C698 C697 1.362 . S
C698 C701 1.409 . S
C699 H691 0.930 . S
C699 C700 1.355 . S
C699 C701 1.415 . S
C700 C699 1.355 . S
C700 C702 1.419 . S
C701 C696 1.425 . S
C701 C698 1.409 . S
C701 C699 1.415 . S
C702 H692 0.930 . S
C702 C700 1.419 . S
C702 C703 1.362 . S
C703 H693 0.930 . S
C703 C696 1.409 . S
C703 C702 1.362 . S
H704 C710 0.930 . S
H705 C713 0.930 . S
H706 C714 0.930 . S
H707 C715 0.930 . S
H708 C718 0.930 . S
H709 C719 0.930 . S
C710 H704 0.930 . S
C710 C711 1.355 . S
C710 C712 1.415 . S
C711 C710 1.355 . S
C711 C713 1.419 . S
C712 C710 1.415 . S
C712 C717 1.425 . S
C712 C719 1.409 . S
C713 H705 0.930 . S
C713 C711 1.419 . S
C713 C714 1.362 . S
C714 H706 0.930 . S
C714 C713 1.362 . S
C714 C717 1.409 . S
C715 H707 0.930 . S
C715 C716 1.355 . S
C715 C717 1.415 . S
C716 C715 1.355 . S
C716 C718 1.419 . S
C717 C712 1.425 . S
C717 C714 1.409 . S
C717 C715 1.415 . S
C718 H708 0.930 . S
C718 C716 1.419 . S
C718 C719 1.362 . S
C719 H709 0.930 . S
C719 C712 1.409 . S
C719 C718 1.362 . S
H720 C726 0.930 . S
H721 C729 0.930 . S
H722 C730 0.930 . S
H723 C731 0.930 . S
H724 C734 0.930 . S
H725 C735 0.930 . S
C726 H720 0.930 . S
C726 C727 1.355 . S
C726 C728 1.415 . S
C727 C726 1.355 . S
C727 C729 1.419 . S
C728 C726 1.415 . S
C728 C733 1.425 . S
C728 C735 1.409 . S
C729 H721 0.930 . S
C729 C727 1.419 . S
C729 C730 1.362 . S
C730 H722 0.930 . S
C730 C729 1.362 . S
C730 C733 1.409 . S
C731 H723 0.930 . S
C731 C732 1.355 . S
C731 C733 1.415 . S
C732 C731 1.355 . S
C732 C734 1.419 . S
C733 C728 1.425 . S
C733 C730 1.409 . S
C733 C731 1.415 . S
C734 H724 0.930 . S
C734 C732 1.419 . S
C734 C735 1.362 . S
C735 H725 0.930 . S
C735 C728 1.409 . S
C735 C734 1.362 . S
H736 C742 0.930 . S
H737 C745 0.930 . S
H738 C746 0.930 . S
H739 C747 0.930 . S
H740 C750 0.930 . S
H741 C751 0.930 . S
C742 H736 0.930 . S
C742 C743 1.355 . S
C742 C744 1.415 . S
C743 C742 1.355 . S
C743 C745 1.419 . S
C744 C742 1.415 . S
C744 C749 1.425 . S
C744 C751 1.409 . S
C745 H737 0.930 . S
C745 C743 1.419 . S
C745 C746 1.362 . S
C746 H738 0.930 . S
C746 C745 1.362 . S
C746 C749 1.409 . S
C747 H739 0.930 . S
C747 C748 1.355 . S
C747 C749 1.415 . S
C748 C747 1.355 . S
C748 C750 1.419 . S
C749 C744 1.425 . S
C749 C746 1.409 . S
C749 C747 1.415 . S
C750 H740 0.930 . S
C750 C748 1.419 . S
C750 C751 1.362 . S
C751 H741 0.930 . S
C751 C744 1.409 . S
C751 C750 1.362 . S
H752 C758 0.930 . S
H753 C761 0.930 . S
H754 C762 0.930 . S
H755 C763 0.930 . S
H756 C766 0.930 . S
H757 C767 0.930 . S
C758 H752 0.930 . S
C758 C759 1.355 . S
C758 C760 1.415 . S
C759 C758 1.355 . S
C759 C761 1.419 . S
C760 C758 1.415 . S
C760 C765 1.425 . S
C760 C767 1.409 . S
C761 H753 0.930 . S
C761 C759 1.419 . S
C761 C762 1.362 . S
C762 H754 0.930 . S
C762 C761 1.362 . S
C762 C765 1.409 . S
C763 H755 0.930 . S
C763 C764 1.355 . S
C763 C765 1.415 . S
C764 C763 1.355 . S
C764 C766 1.419 . S
C765 C760 1.425 . S
C765 C762 1.409 . S
C765 C763 1.415 . S
C766 H756 0.930 . S
C766 C764 1.419 . S
C766 C767 1.362 . S
C767 H757 0.930 . S
C767 C760 1.409 . S
C767 C766 1.362 . S
H768 C774 0.930 . S
H769 C777 0.930 . S
H770 C778 0.930 . S
H771 C779 0.930 . S
H772 C782 0.930 . S
H773 C783 0.930 . S
C774 H768 0.930 . S
C774 C775 1.355 . S
C774 C776 1.415 . S
C775 C774 1.355 . S
C775 C777 1.419 . S
C776 C774 1.415 . S
C776 C781 1.425 . S
C776 C783 1.409 . S
C777 H769 0.930 . S
C777 C775 1.419 . S
C777 C778 1.362 . S
C778 H770 0.930 . S
C778 C777 1.362 . S
C778 C781 1.409 . S
C779 H771 0.930 . S
C779 C780 1.355 . S
C779 C781 1.415 . S
C780 C779 1.355 . S
C780 C782 1.419 . S
C781 C776 1.425 . S
C781 C778 1.409 . S
C781 C779 1.415 . S
C782 H772 0.930 . S
C782 C780 1.419 . S
C782 C783 1.362 . S
C783 H773 0.930 . S
C783 C776 1.409 . S
C783 C782 1.362 . S
H784 C790 0.930 . S
H785 C793 0.930 . S
H786 C794 0.930 . S
H787 C795 0.930 . S
H788 C798 0.930 . S
H789 C799 0.930 . S
C790 H784 0.930 . S
C790 C791 1.355 . S
C790 C792 1.415 . S
C791 C790 1.355 . S
C791 C793 1.419 . S
C792 C790 1.415 . S
C792 C797 1.425 . S
C792 C799 1.409 . S
C793 H785 0.930 . S
C793 C791 1.419 . S
C793 C794 1.362 . S
C794 H786 0.930 . S
C794 C793 1.362 . S
C794 C797 1.409 . S
C795 H787 0.930 . S
C795 C796 1.355 . S
C795 C797 1.415 . S
C796 C795 1.355 . S
C796 C798 1.419 . S
C797 C792 1.425 . S
C797 C794 1.409 . S
C797 C795 1.415 . S
C798 H788 0.930 . S
C798 C796 1.419 . S
C798 C799 1.362 . S
C799 H789 0.930 . S
C799 C792 1.409 . S
C799 C798 1.362 . S
H800 C806 0.930 . S
H801 C809 0.930 . S
H802 C810 0.930 . S
H803 C811 0.930 . S
H804 C814 0.930 . S
H805 C815 0.930 . S
C806 H800 0.930 . S
C806 C807 1.355 . S
C806 C808 1.415 . S
C807 C806 1.355 . S
C807 C809 1.419 . S
C808 C806 1.415 . S
C808 C813 1.425 . S
C808 C815 1.409 . S
C809 H801 0.930 . S
C809 C807 1.419 . S
C809 C810 1.362 . S
C810 H802 0.930 . S
C810 C809 1.362 . S
C810 C813 1.409 . S
C811 H803 0.930 . S
C811 C812 1.355 . S
C811 C813 1.415 . S
C812 C811 1.355 . S
C812 C814 1.419 . S
C813 C808 1.425 . S
C813 C810 1.409 . S
C813 C811 1.415 . S
C814 H804 0.930 . S
C814 C812 1.419 . S
C814 C815 1.362 . S
C815 H805 0.930 . S
C815 C808 1.409 . S
C815 C814 1.362 . S
H816 C822 0.930 . S
H817 C825 0.930 . S
H818 C826 0.930 . S
H819 C827 0.930 . S
H820 C830 0.930 . S
H821 C831 0.930 . S
C822 H816 0.930 . S
C822 C823 1.355 . S
C822 C824 1.415 . S
C823 C822 1.355 . S
C823 C825 1.419 . S
C824 C822 1.415 . S
C824 C829 1.425 . S
C824 C831 1.409 . S
C825 H817 0.930 . S
C825 C823 1.419 . S
C825 C826 1.362 . S
C826 H818 0.930 . S
C826 C825 1.362 . S
C826 C829 1.409 . S
C827 H819 0.930 . S
C827 C828 1.355 . S
C827 C829 1.415 . S
C828 C827 1.355 . S
C828 C830 1.419 . S
C829 C824 1.425 . S
C829 C826 1.409 . S
C829 C827 1.415 . S
C830 H820 0.930 . S
C830 C828 1.419 . S
C830 C831 1.362 . S
C831 H821 0.930 . S
C831 C824 1.409 . S
C831 C830 1.362 . S
H832 C838 0.930 . S
H833 C841 0.930 . S
H834 C842 0.930 . S
H835 C843 0.930 . S
H836 C846 0.930 . S
H837 C847 0.930 . S
C838 H832 0.930 . S
C838 C839 1.355 . S
C838 C840 1.415 . S
C839 C838 1.355 . S
C839 C841 1.419 . S
C840 C838 1.415 . S
C840 C845 1.425 . S
C840 C847 1.409 . S
C841 H833 0.930 . S
C841 C839 1.419 . S
C841 C842 1.362 . S
C842 H834 0.930 . S
C842 C841 1.362 . S
C842 C845 1.409 . S
C843 H835 0.930 . S
C843 C844 1.355 . S
C843 C845 1.415 . S
C844 C843 1.355 . S
C844 C846 1.419 . S
C845 C840 1.425 . S
C845 C842 1.409 . S
C845 C843 1.415 . S
C846 H836 0.930 . S
C846 C844 1.419 . S
C846 C847 1.362 . S
C847 H837 0.930 . S
C847 C840 1.409 . S
C847 C846 1.362 . S
H848 C854 0.930 . S
H849 C857 0.930 . S
H850 C858 0.930 . S
H851 C859 0.930 . S
H852 C862 0.930 . S
H853 C863 0.930 . S
C854 H848 0.930 . S
C854 C855 1.355 . S
C854 C856 1.415 . S
C855 C854 1.355 . S
C855 C857 1.419 . S
C856 C854 1.415 . S
C856 C861 1.425 . S
C856 C863 1.409 . S
C857 H849 0.930 . S
C857 C855 1.419 . S
C857 C858 1.362 . S
C858 H850 0.930 . S
C858 C857 1.362 . S
C858 C861 1.409 . S
C859 H851 0.930 . S
C859 C860 1.355 . S
C859 C861 1.415 . S
C860 C859 1.355 . S
C860 C862 1.419 . S
C861 C856 1.425 . S
C861 C858 1.409 . S
C861 C859 1.415 . S
C862 H852 0.930 . S
C862 C860 1.419 . S
C862 C863 1.362 . S
C863 H853 0.930 . S
C863 C856 1.409 . S
C863 C862 1.362 . S
H864 C870 0.930 . S
H865 C873 0.930 . S
H866 C874 0.930 . S
H867 C875 0.930 . S
H868 C878 0.930 . S
H869 C879 0.930 . S
C870 H864 0.930 . S
C870 C871 1.355 . S
C870 C872 1.415 . S
C871 C870 1.355 . S
C871 C873 1.419 . S
C872 C870 1.415 . S
C872 C877 1.425 . S
C872 C879 1.409 . S
C873 H865 0.930 . S
C873 C871 1.419 . S
C873 C874 1.362 . S
C874 H866 0.930 . S
C874 C873 1.362 . S
C874 C877 1.409 . S
C875 H867 0.930 . S
C875 C876 1.355 . S
C875 C877 1.415 . S
C876 C875 1.355 . S
C876 C878 1.419 . S
C877 C872 1.425 . S
C877 C874 1.409 . S
C877 C875 1.415 . S
C878 H868 0.930 . S
C878 C876 1.419 . S
C878 C879 1.362 . S
C879 H869 0.930 . S
C879 C872 1.409 . S
C879 C878 1.362 . S
H880 C886 0.930 . S
H881 C889 0.930 . S
H882 C890 0.930 . S
H883 C891 0.930 . S
H884 C894 0.930 . S
H885 C895 0.930 . S
C886 H880 0.930 . S
C886 C887 1.355 . S
C886 C888 1.415 . S
C887 C886 1.355 . S
C887 C889 1.419 . S
C888 C886 1.415 . S
C888 C893 1.425 . S
C888 C895 1.409 . S
C889 H881 0.930 . S
C889 C887 1.419 . S
C889 C890 1.362 . S
C890 H882 0.930 . S
C890 C889 1.362 . S
C890 C893 1.409 . S
C891 H883 0.930 . S
C891 C892 1.355 . S
C891 C893 1.415 . S
C892 C891 1.355 . S
C892 C894 1.419 . S
C893 C888 1.425 . S
C893 C890 1.409 . S
C893 C891 1.415 . S
C894 H884 0.930 . S
C894 C892 1.419 . S
C894 C895 1.362 . S
C895 H885 0.930 . S
C895 C888 1.409 . S
C895 C894 1.362 . S
H896 C902 0.930 . S
H897 C905 0.930 . S
H898 C906 0.930 . S
H899 C907 0.930 . S
H900 C910 0.930 . S
H901 C911 0.930 . S
C902 H896 0.930 . S
C902 C903 1.355 . S
C902 C904 1.415 . S
C903 C902 1.355 . S
C903 C905 1.419 . S
C904 C902 1.415 . S
C904 C909 1.425 . S
C904 C911 1.409 . S
C905 H897 0.930 . S
C905 C903 1.419 . S
C905 C906 1.362 . S
C906 H898 0.930 . S
C906 C905 1.362 . S
C906 C909 1.409 . S
C907 H899 0.930 . S
C907 C908 1.355 . S
C907 C909 1.415 . S
C908 C907 1.355 . S
C908 C910 1.419 . S
C909 C904 1.425 . S
C909 C906 1.409 . S
C909 C907 1.415 . S
C910 H900 0.930 . S
C910 C908 1.419 . S
C910 C911 1.362 . S
C911 H901 0.930 . S
C911 C904 1.409 . S
C911 C910 1.362 . S
H912 C918 0.930 . S
H913 C921 0.930 . S
H914 C922 0.930 . S
H915 C923 0.930 1_565 S
H916 C926 0.930 . S
H917 C927 0.930 . S
C918 H912 0.930 . S
C918 C919 1.355 . S
C918 C920 1.415 . S
C919 C918 1.355 . S
C919 C921 1.419 1_545 S
C920 C918 1.415 . S
C920 C925 1.425 1_655 S
C920 C927 1.409 1_655 S
C921 H913 0.930 . S
C921 C919 1.419 1_565 S
C921 C922 1.362 . S
C922 H914 0.930 . S
C922 C921 1.362 . S
C922 C925 1.409 1_665 S
C923 H915 0.930 1_545 S
C923 C924 1.355 . S
C923 C925 1.415 . S
C924 C923 1.355 . S
C924 C926 1.419 . S
C925 C920 1.425 1_455 S
C925 C922 1.409 1_445 S
C925 C923 1.415 . S
C926 H916 0.930 . S
C926 C924 1.419 . S
C926 C927 1.362 . S
C927 H917 0.930 . S
C927 C920 1.409 1_455 S
C927 C926 1.362 . S
H928 C934 0.930 . S
H929 C937 0.930 . S
H930 C938 0.930 . S
H931 C939 0.930 1_565 S
H932 C942 0.930 . S
H933 C943 0.930 . S
C934 H928 0.930 . S
C934 C935 1.355 . S
C934 C936 1.415 . S
C935 C934 1.355 . S
C935 C937 1.419 1_545 S
C936 C934 1.415 . S
C936 C941 1.425 1_455 S
C936 C943 1.409 1_455 S
C937 H929 0.930 . S
C937 C935 1.419 1_565 S
C937 C938 1.362 . S
C938 H930 0.930 . S
C938 C937 1.362 . S
C938 C941 1.409 1_465 S
C939 H931 0.930 1_545 S
C939 C940 1.355 . S
C939 C941 1.415 . S
C940 C939 1.355 . S
C940 C942 1.419 . S
C941 C936 1.425 1_655 S
C941 C938 1.409 1_645 S
C941 C939 1.415 . S
C942 H932 0.930 . S
C942 C940 1.419 . S
C942 C943 1.362 . S
C943 H933 0.930 . S
C943 C936 1.409 1_655 S
C943 C942 1.362 . S
H944 C950 0.930 . S
H945 C953 0.930 . S
H946 C954 0.930 . S
H947 C955 0.930 . S
H948 C958 0.930 . S
H949 C959 0.930 . S
C950 H944 0.930 . S
C950 C951 1.355 . S
C950 C952 1.415 . S
C951 C950 1.355 . S
C951 C953 1.419 . S
C952 C950 1.415 . S
C952 C957 1.425 1_655 S
C952 C959 1.409 1_655 S
C953 H945 0.930 . S
C953 C951 1.419 . S
C953 C954 1.362 . S
C954 H946 0.930 . S
C954 C953 1.362 . S
C954 C957 1.409 1_655 S
C955 H947 0.930 . S
C955 C956 1.355 . S
C955 C957 1.415 . S
C956 C955 1.355 . S
C956 C958 1.419 . S
C957 C952 1.425 1_455 S
C957 C954 1.409 1_455 S
C957 C955 1.415 . S
C958 H948 0.930 . S
C958 C956 1.419 . S
C958 C959 1.362 . S
C959 H949 0.930 . S
C959 C952 1.409 1_455 S
C959 C958 1.362 . S
H960 C966 0.930 . S
H961 C969 0.930 . S
H962 C970 0.930 . S
H963 C971 0.930 . S
H964 C974 0.930 . S
H965 C975 0.930 . S
C966 H960 0.930 . S
C966 C967 1.355 . S
C966 C968 1.415 . S
C967 C966 1.355 . S
C967 C969 1.419 . S
C968 C966 1.415 . S
C968 C973 1.425 1_655 S
C968 C975 1.409 1_655 S
C969 H961 0.930 . S
C969 C967 1.419 . S
C969 C970 1.362 . S
C970 H962 0.930 . S
C970 C969 1.362 . S
C970 C973 1.409 1_655 S
C971 H963 0.930 . S
C971 C972 1.355 . S
C971 C973 1.415 . S
C972 C971 1.355 . S
C972 C974 1.419 . S
C973 C968 1.425 1_455 S
C973 C970 1.409 1_455 S
C973 C971 1.415 . S
C974 H964 0.930 . S
C974 C972 1.419 . S
C974 C975 1.362 . S
C975 H965 0.930 . S
C975 C968 1.409 1_455 S
C975 C974 1.362 . S
H976 C982 0.930 . S
H977 C985 0.930 . S
H978 C986 0.930 . S
H979 C987 0.930 1_565 S
H980 C990 0.930 . S
H981 C991 0.930 . S
C982 H976 0.930 . S
C982 C983 1.355 . S
C982 C984 1.415 . S
C983 C982 1.355 . S
C983 C985 1.419 1_545 S
C984 C982 1.415 . S
C984 C989 1.425 . S
C984 C991 1.409 . S
C985 H977 0.930 . S
C985 C983 1.419 1_565 S
C985 C986 1.362 . S
C986 H978 0.930 . S
C986 C985 1.362 . S
C986 C989 1.409 1_565 S
C987 H979 0.930 1_545 S
C987 C988 1.355 . S
C987 C989 1.415 . S
C988 C987 1.355 . S
C988 C990 1.419 . S
C989 C984 1.425 . S
C989 C986 1.409 1_545 S
C989 C987 1.415 . S
C990 H980 0.930 . S
C990 C988 1.419 . S
C990 C991 1.362 . S
C991 H981 0.930 . S
C991 C984 1.409 . S
C991 C990 1.362 . S
H992 C998 0.930 . S
H993 C1001 0.930 . S
H994 C1002 0.930 . S
H995 C1003 0.930 . S
H996 C1006 0.929 . S
H997 C1007 0.930 . S
C998 H992 0.930 . S
C998 C999 1.355 . S
C998 C1000 1.415 . S
C999 C998 1.355 . S
C999 C1001 1.419 . S
C1000 C998 1.415 . S
C1000 C1005 1.425 . S
C1000 C1007 1.409 . S
C1001 H993 0.930 . S
C1001 C999 1.419 . S
C1001 C1002 1.362 . S
C1002 H994 0.930 . S
C1002 C1001 1.362 . S
C1002 C1005 1.409 . S
C1003 H995 0.930 . S
C1003 C1004 1.355 . S
C1003 C1005 1.415 . S
C1004 C1003 1.355 . S
C1004 C1006 1.419 . S
C1005 C1000 1.425 . S
C1005 C1002 1.409 . S
C1005 C1003 1.415 . S
C1006 H996 0.929 . S
C1006 C1004 1.419 . S
C1006 C1007 1.362 . S
C1007 H997 0.930 . S
C1007 C1000 1.409 . S
C1007 C1006 1.362 . S
H1008 C1014 0.930 . S
H1009 C1017 0.930 . S
H1010 C1018 0.930 . S
H1011 C1019 0.930 . S
H1012 C1022 0.930 . S
H1013 C1023 0.930 . S
C1014 H1008 0.930 . S
C1014 C1015 1.355 . S
C1014 C1016 1.415 . S
C1015 C1014 1.355 . S
C1015 C1017 1.419 . S
C1016 C1014 1.415 . S
C1016 C1021 1.425 . S
C1016 C1023 1.409 . S
C1017 H1009 0.930 . S
C1017 C1015 1.419 . S
C1017 C1018 1.362 . S
C1018 H1010 0.930 . S
C1018 C1017 1.362 . S
C1018 C1021 1.409 . S
C1019 H1011 0.930 . S
C1019 C1020 1.355 . S
C1019 C1021 1.415 . S
C1020 C1019 1.355 . S
C1020 C1022 1.419 . S
C1021 C1016 1.425 . S
C1021 C1018 1.409 . S
C1021 C1019 1.415 . S
C1022 H1012 0.930 . S
C1022 C1020 1.419 . S
C1022 C1023 1.362 . S
C1023 H1013 0.930 . S
C1023 C1016 1.409 . S
C1023 C1022 1.362 . S
H1024 C1030 0.930 . S
H1025 C1033 0.930 . S
H1026 C1034 0.930 . S
H1027 C1035 0.930 . S
H1028 C1038 0.930 . S
H1029 C1039 0.930 . S
C1030 H1024 0.930 . S
C1030 C1031 1.355 . S
C1030 C1032 1.415 . S
C1031 C1030 1.355 . S
C1031 C1033 1.419 . S
C1032 C1030 1.415 . S
C1032 C1037 1.425 . S
C1032 C1039 1.409 . S
C1033 H1025 0.930 . S
C1033 C1031 1.419 . S
C1033 C1034 1.362 . S
C1034 H1026 0.930 . S
C1034 C1033 1.362 . S
C1034 C1037 1.409 . S
C1035 H1027 0.930 . S
C1035 C1036 1.355 . S
C1035 C1037 1.415 . S
C1036 C1035 1.355 . S
C1036 C1038 1.419 . S
C1037 C1032 1.425 . S
C1037 C1034 1.409 . S
C1037 C1035 1.415 . S
C1038 H1028 0.930 . S
C1038 C1036 1.419 . S
C1038 C1039 1.362 . S
C1039 H1029 0.930 . S
C1039 C1032 1.409 . S
C1039 C1038 1.362 . S
H1040 C1046 0.930 . S
H1041 C1049 0.930 . S
H1042 C1050 0.930 . S
H1043 C1051 0.930 . S
H1044 C1054 0.930 . S
H1045 C1055 0.930 . S
C1046 H1040 0.930 . S
C1046 C1047 1.355 . S
C1046 C1048 1.415 . S
C1047 C1046 1.355 . S
C1047 C1049 1.419 1_545 S
C1048 C1046 1.415 . S
C1048 C1053 1.425 1_556 S
C1048 C1055 1.409 1_556 S
C1049 H1041 0.930 . S
C1049 C1047 1.419 1_565 S
C1049 C1050 1.362 . S
C1050 H1042 0.930 . S
C1050 C1049 1.362 . S
C1050 C1053 1.409 1_566 S
C1051 H1043 0.930 . S
C1051 C1052 1.355 1_565 S
C1051 C1053 1.415 1_565 S
C1052 C1051 1.355 1_545 S
C1052 C1054 1.419 . S
C1053 C1048 1.425 1_554 S
C1053 C1050 1.409 1_544 S
C1053 C1051 1.415 1_545 S
C1054 H1044 0.930 . S
C1054 C1052 1.419 . S
C1054 C1055 1.362 . S
C1055 H1045 0.930 . S
C1055 C1048 1.409 1_554 S
C1055 C1054 1.362 . S
H1056 C1062 0.930 . S
H1057 C1065 0.930 . S
H1058 C1066 0.930 . S
H1059 C1067 0.930 . S
H1060 C1070 0.930 . S
H1061 C1071 0.930 . S
C1062 H1056 0.930 . S
C1062 C1063 1.355 1_565 S
C1062 C1064 1.415 1_565 S
C1063 C1062 1.355 1_545 S
C1063 C1065 1.419 . S
C1064 C1062 1.415 1_545 S
C1064 C1069 1.425 1_556 S
C1064 C1071 1.409 1_546 S
C1065 H1057 0.930 . S
C1065 C1063 1.419 . S
C1065 C1066 1.362 . S
C1066 H1058 0.930 . S
C1066 C1065 1.362 . S
C1066 C1069 1.409 1_556 S
C1067 H1059 0.930 . S
C1067 C1068 1.355 . S
C1067 C1069 1.415 . S
C1068 C1067 1.355 . S
C1068 C1070 1.419 1_545 S
C1069 C1064 1.425 1_554 S
C1069 C1066 1.409 1_554 S
C1069 C1067 1.415 . S
C1070 H1060 0.930 . S
C1070 C1068 1.419 1_565 S
C1070 C1071 1.362 . S
C1071 H1061 0.930 . S
C1071 C1064 1.409 1_564 S
C1071 C1070 1.362 . S
H1072 C1078 0.930 . S
H1073 C1081 0.930 . S
H1074 C1082 0.930 . S
H1075 C1083 0.930 . S
H1076 C1086 0.930 . S
H1077 C1087 0.930 . S
C1078 H1072 0.930 . S
C1078 C1079 1.355 . S
C1078 C1080 1.415 . S
C1079 C1078 1.355 . S
C1079 C1081 1.419 . S
C1080 C1078 1.415 . S
C1080 C1085 1.425 . S
C1080 C1087 1.409 . S
C1081 H1073 0.930 . S
C1081 C1079 1.419 . S
C1081 C1082 1.362 . S
C1082 H1074 0.930 . S
C1082 C1081 1.362 . S
C1082 C1085 1.409 . S
C1083 H1075 0.930 . S
C1083 C1084 1.355 . S
C1083 C1085 1.415 . S
C1084 C1083 1.355 . S
C1084 C1086 1.419 . S
C1085 C1080 1.425 . S
C1085 C1082 1.409 . S
C1085 C1083 1.415 . S
C1086 H1076 0.930 . S
C1086 C1084 1.419 . S
C1086 C1087 1.362 . S
C1087 H1077 0.930 . S
C1087 C1080 1.409 . S
C1087 C1086 1.362 . S
H1088 C1094 0.930 . S
H1089 C1097 0.930 . S
H1090 C1098 0.930 . S
H1091 C1099 0.930 . S
H1092 C1102 0.930 . S
H1093 C1103 0.930 . S
C1094 H1088 0.930 . S
C1094 C1095 1.355 . S
C1094 C1096 1.415 . S
C1095 C1094 1.355 . S
C1095 C1097 1.419 . S
C1096 C1094 1.415 . S
C1096 C1101 1.425 . S
C1096 C1103 1.409 . S
C1097 H1089 0.930 . S
C1097 C1095 1.419 . S
C1097 C1098 1.362 . S
C1098 H1090 0.930 . S
C1098 C1097 1.362 . S
C1098 C1101 1.409 . S
C1099 H1091 0.930 . S
C1099 C1100 1.355 . S
C1099 C1101 1.415 . S
C1100 C1099 1.355 . S
C1100 C1102 1.419 . S
C1101 C1096 1.425 . S
C1101 C1098 1.409 . S
C1101 C1099 1.415 . S
C1102 H1092 0.930 . S
C1102 C1100 1.419 . S
C1102 C1103 1.362 . S
C1103 H1093 0.930 . S
C1103 C1096 1.409 . S
C1103 C1102 1.362 . S
H1104 C1110 0.930 . S
H1105 C1113 0.930 . S
H1106 C1114 0.930 . S
H1107 C1115 0.930 . S
H1108 C1118 0.930 . S
H1109 C1119 0.930 . S
C1110 H1104 0.930 . S
C1110 C1111 1.355 . S
C1110 C1112 1.415 . S
C1111 C1110 1.355 . S
C1111 C1113 1.419 . S
C1112 C1110 1.415 . S
C1112 C1117 1.425 . S
C1112 C1119 1.409 . S
C1113 H1105 0.930 . S
C1113 C1111 1.419 . S
C1113 C1114 1.362 . S
C1114 H1106 0.930 . S
C1114 C1113 1.362 . S
C1114 C1117 1.409 . S
C1115 H1107 0.930 . S
C1115 C1116 1.355 . S
C1115 C1117 1.415 . S
C1116 C1115 1.355 . S
C1116 C1118 1.419 . S
C1117 C1112 1.425 . S
C1117 C1114 1.409 . S
C1117 C1115 1.415 . S
C1118 H1108 0.930 . S
C1118 C1116 1.419 . S
C1118 C1119 1.362 . S
C1119 H1109 0.930 . S
C1119 C1112 1.409 . S
C1119 C1118 1.362 . S
H1120 C1126 0.934 . S
H1121 C1129 0.930 . S
H1122 C1130 0.930 . S
H1123 C1131 0.930 . S
H1124 C1134 0.930 . S
H1125 C1135 0.930 . S
C1126 H1120 0.934 . S
C1126 C1127 1.355 . S
C1126 C1128 1.415 . S
C1127 C1126 1.355 . S
C1127 C1129 1.419 . S
C1128 C1126 1.415 . S
C1128 C1133 1.425 . S
C1128 C1135 1.409 . S
C1129 H1121 0.930 . S
C1129 C1127 1.419 . S
C1129 C1130 1.362 . S
C1130 H1122 0.930 . S
C1130 C1129 1.362 . S
C1130 C1133 1.409 . S
C1131 H1123 0.930 . S
C1131 C1132 1.355 . S
C1131 C1133 1.415 . S
C1132 C1131 1.355 . S
C1132 C1134 1.419 . S
C1133 C1128 1.425 . S
C1133 C1130 1.409 . S
C1133 C1131 1.415 . S
C1134 H1124 0.930 . S
C1134 C1132 1.419 . S
C1134 C1135 1.362 . S
C1135 H1125 0.930 . S
C1135 C1128 1.409 . S
C1135 C1134 1.362 . S
H1136 C1142 0.930 . S
H1137 C1145 0.930 . S
H1138 C1146 0.930 . S
H1139 C1147 0.930 . S
H1140 C1150 0.930 . S
H1141 C1151 0.930 . S
C1142 H1136 0.930 . S
C1142 C1143 1.355 . S
C1142 C1144 1.415 . S
C1143 C1142 1.355 . S
C1143 C1145 1.419 . S
C1144 C1142 1.415 . S
C1144 C1149 1.425 1_554 S
C1144 C1151 1.409 1_554 S
C1145 H1137 0.930 . S
C1145 C1143 1.419 . S
C1145 C1146 1.362 . S
C1146 H1138 0.930 . S
C1146 C1145 1.362 . S
C1146 C1149 1.409 1_554 S
C1147 H1139 0.930 . S
C1147 C1148 1.355 . S
C1147 C1149 1.415 . S
C1148 C1147 1.355 . S
C1148 C1150 1.419 . S
C1149 C1144 1.425 1_556 S
C1149 C1146 1.409 1_556 S
C1149 C1147 1.415 . S
C1150 H1140 0.930 . S
C1150 C1148 1.419 . S
C1150 C1151 1.362 . S
C1151 H1141 0.930 . S
C1151 C1144 1.409 1_556 S
C1151 C1150 1.362 . S
H1152 C1158 0.930 . S
H1153 C1161 0.930 . S
H1154 C1162 0.930 . S
H1155 C1163 0.930 . S
H1156 C1166 0.930 . S
H1157 C1167 0.930 . S
C1158 H1152 0.930 . S
C1158 C1159 1.355 . S
C1158 C1160 1.415 . S
C1159 C1158 1.355 . S
C1159 C1161 1.419 . S
C1160 C1158 1.415 . S
C1160 C1165 1.425 1_556 S
C1160 C1167 1.409 1_556 S
C1161 H1153 0.930 . S
C1161 C1159 1.419 . S
C1161 C1162 1.362 . S
C1162 H1154 0.930 . S
C1162 C1161 1.362 . S
C1162 C1165 1.409 1_556 S
C1163 H1155 0.930 . S
C1163 C1164 1.355 . S
C1163 C1165 1.415 . S
C1164 C1163 1.355 . S
C1164 C1166 1.419 . S
C1165 C1160 1.425 1_554 S
C1165 C1162 1.409 1_554 S
C1165 C1163 1.415 . S
C1166 H1156 0.930 . S
C1166 C1164 1.419 . S
C1166 C1167 1.362 . S
C1167 H1157 0.930 . S
C1167 C1160 1.409 1_554 S
C1167 C1166 1.362 . S
C535 N14 1.672 . S
C540 N377 1.620 . S
C551 N47 1.672 1_565 S
C556 N344 1.618 . S
C567 N311 1.667 1_565 S
C572 N80 1.635 1_565 S
C583 N278 1.672 . S
C588 N113 1.619 . S
C599 N146 1.626 . S
C604 N509 1.639 . S
C615 N179 1.640 . S
C620 N476 1.664 . S
C631 N443 1.635 . S
C636 N212 1.667 . S
C647 N410 1.670 . S
C652 N245 1.615 . S
C663 C8 1.045 . S
C668 C437 1.043 . S
C679 C404 1.043 . S
C684 C41 1.042 . S
C695 C74 1.048 . S
C700 C503 1.052 . S
C711 C470 1.066 . S
C716 C107 1.070 . S
C727 C127 1.559 . S
C732 C490 1.576 . S
C743 C523 1.561 . S
C748 C94 1.569 . S
C759 C424 1.587 . S
C764 C61 1.573 . S
C775 C28 1.570 . S
C780 C457 1.560 . S
C791 C140 1.042 . S
C796 C305 1.041 . S
C807 C173 1.067 . S
C812 C272 1.072 . S
C823 C206 1.081 . S
C828 C371 1.078 . S
C839 C239 1.048 . S
C844 C338 1.045 . S
C855 C259 1.559 . S
C860 C358 1.579 . S
C871 C226 1.581 . S
C876 C391 1.583 . S
C887 C193 1.559 . S
C892 C292 1.580 . S
C903 C160 1.567 . S
C908 C325 1.563 . S
C919 C50 1.505 . S
C924 C17 1.497 . S
C935 C83 1.504 . S
C940 C116 1.499 . S
C951 C182 1.489 . S
C956 C149 1.508 . S
C967 C248 1.485 . S
C972 C215 1.479 . S
C983 C314 1.503 . S
C988 C281 1.500 . S
C999 C380 1.508 . S
C1004 C347 1.485 . S
C1015 C413 1.506 . S
C1020 C446 1.495 . S
C1031 C512 1.492 . S
C1036 C479 1.507 . S
C1047 N71 1.473 . S
C1052 N5 1.496 . S
C1063 N104 1.473 . S
C1068 N38 1.489 . S
C1079 N137 1.548 . S
C1084 N203 1.525 . S
C1095 N236 1.548 . S
C1100 N170 1.539 . S
C1111 N269 1.520 . S
C1116 N335 1.485 . S
C1127 N368 1.495 . S
C1132 N302 1.531 . S
C1143 N401 1.517 . S
C1148 N467 1.545 . S
C1159 N500 1.548 . S
C1164 N434 1.525 . S
