# Generated by pormake.
# Topology wla, (5)-cn, num edge types: 1
# Building blocks:
#     Node 0, Type 0, BuildingBlock: XOMCOT_clean_sbu_1, # of connection points: 5
#     Node 1, Type 0, BuildingBlock: XOMCOT_clean_sbu_1, # of connection points: 5
#     Node 2, Type 0, BuildingBlock: XOMCOT_clean_sbu_1, # of connection points: 5
#     Node 3, Type 0, BuildingBlock: XOMCOT_clean_sbu_1, # of connection points: 5
#     Node 4, Type 0, BuildingBlock: XOMCOT_clean_sbu_1, # of connection points: 5
#     Node 5, Type 0, BuildingBlock: XOMCOT_clean_sbu_1, # of connection points: 5
#     Node 6, Type 0, BuildingBlock: XOMCOT_clean_sbu_1, # of connection points: 5
#     Node 7, Type 0, BuildingBlock: XOMCOT_clean_sbu_1, # of connection points: 5
#     Node 8, Type 0, BuildingBlock: XOMCOT_clean_sbu_1, # of connection points: 5
#     Node 9, Type 0, BuildingBlock: XOMCOT_clean_sbu_1, # of connection points: 5
#     Node 10, Type 0, BuildingBlock: XOMCOT_clean_sbu_1, # of connection points: 5
#     Node 11, Type 0, BuildingBlock: XOMCOT_clean_sbu_1, # of connection points: 5
#     Node 12, Type 0, BuildingBlock: XOMCOT_clean_sbu_1, # of connection points: 5
#     Node 13, Type 0, BuildingBlock: XOMCOT_clean_sbu_1, # of connection points: 5
#     Node 14, Type 0, BuildingBlock: XOMCOT_clean_sbu_1, # of connection points: 5
#     Node 15, Type 0, BuildingBlock: XOMCOT_clean_sbu_1, # of connection points: 5
#     Node 16, Type 0, BuildingBlock: XOMCOT_clean_sbu_1, # of connection points: 5
#     Node 17, Type 0, BuildingBlock: XOMCOT_clean_sbu_1, # of connection points: 5
#     Edge 18, Type (0, 0), BuildingBlock: XIVTED_clean_linker_0, # of connection points: 2
#     Edge 19, Type (0, 0), BuildingBlock: XIVTED_clean_linker_0, # of connection points: 2
#     Edge 20, Type (0, 0), BuildingBlock: XIVTED_clean_linker_0, # of connection points: 2
#     Edge 21, Type (0, 0), BuildingBlock: XIVTED_clean_linker_0, # of connection points: 2
#     Edge 22, Type (0, 0), BuildingBlock: XIVTED_clean_linker_0, # of connection points: 2
#     Edge 23, Type (0, 0), BuildingBlock: XIVTED_clean_linker_0, # of connection points: 2
#     Edge 24, Type (0, 0), BuildingBlock: XIVTED_clean_linker_0, # of connection points: 2
#     Edge 25, Type (0, 0), BuildingBlock: XIVTED_clean_linker_0, # of connection points: 2
#     Edge 26, Type (0, 0), BuildingBlock: XIVTED_clean_linker_0, # of connection points: 2
#     Edge 27, Type (0, 0), BuildingBlock: XIVTED_clean_linker_0, # of connection points: 2
#     Edge 28, Type (0, 0), BuildingBlock: XIVTED_clean_linker_0, # of connection points: 2
#     Edge 29, Type (0, 0), BuildingBlock: XIVTED_clean_linker_0, # of connection points: 2
#     Edge 30, Type (0, 0), BuildingBlock: XIVTED_clean_linker_0, # of connection points: 2
#     Edge 31, Type (0, 0), BuildingBlock: XIVTED_clean_linker_0, # of connection points: 2
#     Edge 32, Type (0, 0), BuildingBlock: XIVTED_clean_linker_0, # of connection points: 2
#     Edge 33, Type (0, 0), BuildingBlock: XIVTED_clean_linker_0, # of connection points: 2
#     Edge 34, Type (0, 0), BuildingBlock: XIVTED_clean_linker_0, # of connection points: 2
#     Edge 35, Type (0, 0), BuildingBlock: XIVTED_clean_linker_0, # of connection points: 2
#     Edge 36, Type (0, 0), BuildingBlock: XIVTED_clean_linker_0, # of connection points: 2
#     Edge 37, Type (0, 0), BuildingBlock: XIVTED_clean_linker_0, # of connection points: 2
#     Edge 38, Type (0, 0), BuildingBlock: XIVTED_clean_linker_0, # of connection points: 2
#     Edge 39, Type (0, 0), BuildingBlock: XIVTED_clean_linker_0, # of connection points: 2
#     Edge 40, Type (0, 0), BuildingBlock: XIVTED_clean_linker_0, # of connection points: 2
#     Edge 41, Type (0, 0), BuildingBlock: XIVTED_clean_linker_0, # of connection points: 2
#     Edge 42, Type (0, 0), BuildingBlock: XIVTED_clean_linker_0, # of connection points: 2
#     Edge 43, Type (0, 0), BuildingBlock: XIVTED_clean_linker_0, # of connection points: 2
#     Edge 44, Type (0, 0), BuildingBlock: XIVTED_clean_linker_0, # of connection points: 2
#     Edge 45, Type (0, 0), BuildingBlock: XIVTED_clean_linker_0, # of connection points: 2
#     Edge 46, Type (0, 0), BuildingBlock: XIVTED_clean_linker_0, # of connection points: 2
#     Edge 47, Type (0, 0), BuildingBlock: XIVTED_clean_linker_0, # of connection points: 2
#     Edge 48, Type (0, 0), BuildingBlock: XIVTED_clean_linker_0, # of connection points: 2
#     Edge 49, Type (0, 0), BuildingBlock: XIVTED_clean_linker_0, # of connection points: 2
#     Edge 50, Type (0, 0), BuildingBlock: XIVTED_clean_linker_0, # of connection points: 2
#     Edge 51, Type (0, 0), BuildingBlock: XIVTED_clean_linker_0, # of connection points: 2
#     Edge 52, Type (0, 0), BuildingBlock: XIVTED_clean_linker_0, # of connection points: 2
#     Edge 53, Type (0, 0), BuildingBlock: XIVTED_clean_linker_0, # of connection points: 2
#     Edge 54, Type (0, 0), BuildingBlock: XIVTED_clean_linker_0, # of connection points: 2
#     Edge 55, Type (0, 0), BuildingBlock: XIVTED_clean_linker_0, # of connection points: 2
#     Edge 56, Type (0, 0), BuildingBlock: XIVTED_clean_linker_0, # of connection points: 2
#     Edge 57, Type (0, 0), BuildingBlock: XIVTED_clean_linker_0, # of connection points: 2
#     Edge 58, Type (0, 0), BuildingBlock: XIVTED_clean_linker_0, # of connection points: 2
#     Edge 59, Type (0, 0), BuildingBlock: XIVTED_clean_linker_0, # of connection points: 2
#     Edge 60, Type (0, 0), BuildingBlock: XIVTED_clean_linker_0, # of connection points: 2
#     Edge 61, Type (0, 0), BuildingBlock: XIVTED_clean_linker_0, # of connection points: 2
#     Edge 62, Type (0, 0), BuildingBlock: XIVTED_clean_linker_0, # of connection points: 2
# Relax obj value: 0.393
# Max RMSD: 0.240
# Mean RMSD: 0.240
data_MOF--net-wla--node1-XOMCOT_clean_sbu_1--edge1-XIVTED_clean_linker_0
_symmetry_space_group_name_H-M    P1
_symmetry_Int_Tables_number       1
_symmetry_cell_setting            triclinic
loop_
_symmetry_equiv_pos_as_xyz
'x, y, z'
_cell_length_a     61.312604
_cell_length_b     61.280263
_cell_length_c     27.982629
_cell_angle_alpha  89.965869
_cell_angle_beta   89.950003
_cell_angle_gamma 119.93267
loop_
_atom_site_label
_atom_site_type_symbol
_atom_site_fract_x
_atom_site_fract_y
_atom_site_fract_z
_atom_type_partial_charge
C0 C 0.1571 0.00478 0.20588 0.0
C1 C 0.13931 0.98201 0.22487 0.0
N2 N 0.1351 0.98584 0.27053 0.0
N3 N 0.16412 0.02275 0.23964 0.0
C4 C 0.15032 0.0106 0.27846 0.0
H5 H 0.16414 0.00797 0.16964 0.0
Co6 Co 0.18757 0.05696 0.23602 0.0
C7 C 0.21666 0.06706 0.33053 0.0
O8 O 0.2301 0.09147 0.3239 0.0
N9 N 0.21131 0.09128 0.23187 0.0
C10 C 0.23048 0.13176 0.21124 0.0
C11 C 0.20762 0.11077 0.22179 0.0
C12 C 0.23633 0.10083 0.22714 0.0
N13 N 0.24843 0.12533 0.21496 0.0
O14 O 0.20909 0.04915 0.19683 0.0
H15 H 0.1894 0.10943 0.21909 0.0
H16 H 0.24538 0.08957 0.22983 0.0
O17 O 0.20113 0.05305 0.29823 0.0
C18 C 0.20658 0.05517 0.15409 0.0
O19 O 0.1918 0.06471 0.14723 0.0
N20 N 0.16491 0.06426 0.26694 0.0
C21 C 0.12456 0.06907 0.2985 0.0
C22 C 0.14562 0.07659 0.32788 0.0
C23 C 0.16581 0.07397 0.31134 0.0
C24 C 0.14509 0.05824 0.23733 0.0
C25 C 0.12457 0.06014 0.2526 0.0
H26 H 0.1818 0.0796 0.33429 0.0
H27 H 0.145 0.05121 0.20183 0.0
H28 H 0.15124 0.01985 0.31189 0.0
H29 H 0.12962 0.96423 0.20608 0.0
H30 H 0.23351 0.14994 0.19974 0.0
H31 H 0.14621 0.08387 0.36341 0.0
H32 H 0.10872 0.05455 0.22879 0.0
C33 C 0.92748 0.0605 0.26806 0.0
C34 C 0.94578 0.05384 0.2704 0.0
N35 N 0.96587 0.07226 0.29333 0.0
N36 N 0.93593 0.08295 0.28959 0.0
C37 C 0.95947 0.08981 0.30422 0.0
H38 H 0.90894 0.04944 0.25264 0.0
Co39 Co 0.91691 0.09853 0.29905 0.0
C40 C 0.94796 0.13891 0.36973 0.0
O41 O 0.94829 0.15647 0.34228 0.0
N42 N 0.89752 0.11396 0.30825 0.0
C43 C 0.87515 0.12986 0.33988 0.0
C44 C 0.88816 0.1174 0.34946 0.0
C45 C 0.88964 0.12406 0.27431 0.0
N46 N 0.87613 0.134 0.29242 0.0
O47 O 0.93837 0.12447 0.25353 0.0
H48 H 0.8908 0.1114 0.38428 0.0
H49 H 0.89419 0.1247 0.23694 0.0
O50 O 0.93716 0.11621 0.35499 0.0
C51 C 0.92952 0.11504 0.21235 0.0
O52 O 0.90945 0.09248 0.21097 0.0
N53 N 0.89501 0.0716 0.33771 0.0
C54 C 0.86841 0.02078 0.36031 0.0
C55 C 0.89024 0.03721 0.38581 0.0
C56 C 0.90339 0.06269 0.37381 0.0
C57 C 0.87198 0.05674 0.31777 0.0
C58 C 0.85812 0.03119 0.32905 0.0
H59 H 0.92197 0.07412 0.38839 0.0
H60 H 0.86577 0.06394 0.28865 0.0
H61 H 0.97138 0.10693 0.32376 0.0
H62 H 0.94437 0.03675 0.25626 0.0
H63 H 0.86577 0.13542 0.36585 0.0
H64 H 0.89904 0.03009 0.40996 0.0
H65 H 0.84107 0.01924 0.30926 0.0
C66 C 0.92158 0.86542 0.28389 0.0
C67 C 0.91817 0.88596 0.28221 0.0
N68 N 0.89716 0.88032 0.30698 0.0
N69 N 0.9027 0.84699 0.30934 0.0
C70 C 0.88812 0.85662 0.32304 0.0
H71 H 0.93664 0.86383 0.26714 0.0
Co72 Co 0.89751 0.81488 0.31853 0.0
C73 C 0.85599 0.79652 0.3912 0.0
O74 O 0.83934 0.77949 0.3623 0.0
N75 N 0.89231 0.78252 0.32765 0.0
C76 C 0.88509 0.74599 0.35819 0.0
C77 C 0.89045 0.77014 0.36877 0.0
C78 C 0.88887 0.76595 0.29292 0.0
N79 N 0.88418 0.74354 0.31031 0.0
O80 O 0.86877 0.80207 0.27555 0.0
H81 H 0.89223 0.77794 0.40417 0.0
H82 H 0.88856 0.7697 0.25535 0.0
O83 O 0.87831 0.81121 0.37638 0.0
C84 C 0.87821 0.80517 0.23349 0.0
O85 O 0.90275 0.81519 0.22976 0.0
N86 N 0.92683 0.82802 0.35438 0.0
C87 C 0.97623 0.85549 0.3866 0.0
C88 C 0.95694 0.8576 0.40948 0.0
C89 C 0.93228 0.84381 0.39245 0.0
C90 C 0.94497 0.82456 0.33372 0.0
C91 C 0.96972 0.83791 0.34949 0.0
H92 H 0.9181 0.84739 0.40728 0.0
H93 H 0.94054 0.81273 0.30245 0.0
H94 H 0.87082 0.84627 0.34312 0.0
H95 H 0.93021 0.90368 0.26437 0.0
H96 H 0.88145 0.73125 0.38364 0.0
H97 H 0.96111 0.87096 0.43817 0.0
H98 H 0.98389 0.83603 0.32976 0.0
C99 C 0.02518 0.127 0.83728 0.0
C100 C 0.01092 0.10119 0.83707 0.0
N101 N 0.98964 0.09458 0.81243 0.0
N102 N 0.01294 0.13656 0.81279 0.0
C103 C -0.00868 0.1164 0.79809 0.0
H104 H 0.04319 0.13819 0.8546 0.0
Co105 Co 0.02417 0.17053 0.80645 0.0
C106 C 0.01204 0.1768 0.70741 0.0
O107 O 0.03517 0.19594 0.70583 0.0
N108 N 0.03501 0.20531 0.80288 0.0
C109 C 0.03348 0.24082 0.79574 0.0
C110 C 0.02157 0.21559 0.78527 0.0
C111 C 0.05397 0.2245 0.82708 0.0
N112 N 0.05379 0.24626 0.82225 0.0
O113 O -0.00231 0.16665 0.84942 0.0
H114 H 0.0034 0.20523 0.76822 0.0
H115 H 0.06668 0.22247 0.8508 0.0
O116 O 0.00367 0.16417 0.74652 0.0
C117 C 0.00807 0.17155 0.89076 0.0
O118 O 0.03198 0.1781 0.89321 0.0
N119 N 0.05184 0.17353 0.77007 0.0
C120 C 0.08959 0.16227 0.74721 0.0
C121 C 0.06666 0.15081 0.72242 0.0
C122 C 0.04804 0.15668 0.73437 0.0
C123 C 0.07489 0.18639 0.79122 0.0
C124 C 0.09423 0.18172 0.77914 0.0
H125 H 0.02953 0.14504 0.71937 0.0
H126 H 0.07768 0.19779 0.82204 0.0
H127 H 0.97671 0.11769 0.77881 0.0
H128 H 0.01575 0.08829 0.85403 0.0
H129 H 0.02691 0.2538 0.78714 0.0
H130 H 0.0619 0.13538 0.698 0.0
H131 H 0.11175 0.19139 0.79876 0.0
C132 C 0.87223 0.86889 0.87667 0.0
C133 C 0.89791 0.88014 0.87213 0.0
N134 N 0.90309 0.87243 0.83072 0.0
N135 N 0.86128 0.85408 0.83846 0.0
C136 C 0.88054 0.85661 0.81098 0.0
H137 H 0.86211 0.87151 0.90569 0.0
Co138 Co 0.82682 0.83619 0.82983 0.0
C139 C 0.81753 0.81698 0.7311 0.0
O140 O 0.80008 0.82345 0.72989 0.0
N141 N 0.79148 0.81749 0.82281 0.0
C142 C 0.75315 0.78392 0.81694 0.0
C143 C 0.7785 0.79225 0.81668 0.0
C144 C 0.77347 0.82397 0.82712 0.0
N145 N 0.75005 0.80393 0.82376 0.0
O146 O 0.82531 0.80998 0.871 0.0
H147 H 0.78699 0.78052 0.81323 0.0
H148 H 0.77713 0.84284 0.83326 0.0
O149 O 0.83055 0.82078 0.76942 0.0
C150 C 0.81787 0.81315 0.91194 0.0
O151 O 0.81085 0.83014 0.9155 0.0
N152 N 0.8296 0.86421 0.79706 0.0
C153 C 0.85199 0.91612 0.78387 0.0
C154 C 0.85578 0.90125 0.75047 0.0
C155 C 0.84453 0.87524 0.75789 0.0
C156 C 0.8244 0.8783 0.82765 0.0
C157 C 0.83463 0.90404 0.82081 0.0
H158 H 0.85073 0.86498 0.73574 0.0
H159 H 0.81495 0.87025 0.86108 0.0
H160 H 0.87816 0.84706 0.77728 0.0
H161 H 0.91171 0.89332 0.89698 0.0
H162 H 0.7382 0.76451 0.81445 0.0
H163 H 0.8695 0.90988 0.72207 0.0
H164 H 0.83117 0.91477 0.84747 0.0
C165 C 0.13399 -0.00136 0.81104 0.0
C166 C 0.12877 0.01783 0.81672 0.0
N167 N 0.14188 0.0356 0.78362 0.0
N168 N 0.15044 0.00439 0.77476 0.0
C169 C 0.15491 0.02704 0.75865 0.0
H170 H 0.12604 0.98139 0.83155 0.0
Co171 Co 0.16278 0.98383 0.75434 0.0
C172 C 0.19738 0.0167 0.67785 0.0
O173 O 0.21702 0.02141 0.70402 0.0
N174 N 0.17513 0.96292 0.73419 0.0
C175 C 0.18266 0.93693 0.69097 0.0
C176 C 0.17674 0.95583 0.68922 0.0
C177 C 0.18021 0.94818 0.76241 0.0
N178 N 0.18468 0.93208 0.7372 0.0
O179 O 0.19319 0.0046 0.79069 0.0
H180 H 0.17239 0.96282 0.65723 0.0
H181 H 0.17864 0.94773 0.80082 0.0
O182 O 0.17527 0.00304 0.69486 0.0
C183 C 0.18845 -0.00444 0.83319 0.0
O184 O 0.16655 0.97539 0.84138 0.0
N185 N 0.13174 0.96237 0.72569 0.0
C186 C 0.07955 0.93348 0.72219 0.0
C187 C 0.09223 0.95641 0.69717 0.0
C188 C 0.11859 0.97059 0.699 0.0
C189 C 0.11983 0.93896 0.74559 0.0
C190 C 0.09384 0.92395 0.74311 0.0
H191 H 0.12804 0.98936 0.68397 0.0
H192 H 0.13008 0.93283 0.76799 0.0
H193 H 0.16741 0.03711 0.72928 0.0
H194 H 0.1158 0.01838 0.84231 0.0
H195 H 0.18442 0.92697 0.66064 0.0
H196 H 0.08193 0.96448 0.68051 0.0
H197 H 0.08488 0.90607 0.76181 0.0
C198 C 0.8163 0.37104 0.51886 0.0
C199 C 0.79293 0.34981 0.51752 0.0
N200 N 0.79199 0.33394 0.55181 0.0
N201 N 0.83009 0.36845 0.55352 0.0
C202 C 0.81474 0.34562 0.57306 0.0
H203 H 0.82259 0.38765 0.49694 0.0
Co204 Co 0.86218 0.39347 0.57026 0.0
C205 C 0.87822 0.37172 0.6505 0.0
O206 O 0.90162 0.38229 0.63552 0.0
N207 N 0.89456 0.41932 0.58683 0.0
C208 C 0.92733 0.44947 0.62615 0.0
C209 C 0.90219 0.43159 0.62902 0.0
C210 C 0.91529 0.43028 0.55899 0.0
N211 N 0.93549 0.44847 0.58198 0.0
O212 O 0.87581 0.37827 0.52744 0.0
H213 H 0.89031 0.42758 0.66015 0.0
H214 H 0.91574 0.42538 0.52219 0.0
O215 O 0.86187 0.37395 0.62598 0.0
C216 C 0.87665 0.3874 0.48579 0.0
O217 O 0.87115 0.4055 0.48213 0.0
N218 N 0.84787 0.40863 0.60619 0.0
C219 C 0.81533 0.42578 0.63243 0.0
C220 C 0.81533 0.40593 0.65749 0.0
C221 C 0.83172 0.39748 0.6436 0.0
C222 C 0.84977 0.42938 0.58448 0.0
C223 C 0.83374 0.43841 0.59723 0.0
H224 H 0.82968 0.38063 0.6601 0.0
H225 H 0.86223 0.43755 0.55417 0.0
H226 H 0.81992 0.33776 0.60257 0.0
H227 H 0.77751 0.34671 0.49437 0.0
H228 H 0.93876 0.46183 0.65462 0.0
H229 H 0.80153 0.39581 0.68513 0.0
H230 H 0.83423 0.45357 0.57648 0.0
C231 C 0.63807 0.44526 0.51909 0.0
C232 C 0.65516 0.43702 0.52284 0.0
N233 N 0.67271 0.45159 0.5551 0.0
N234 N 0.64478 0.46481 0.54906 0.0
C235 C 0.6661 0.46836 0.57016 0.0
H236 H 0.62125 0.43687 0.49739 0.0
Co237 Co 0.62548 0.47963 0.56273 0.0
C238 C 0.65741 0.51987 0.63362 0.0
O239 O 0.65545 0.53735 0.60999 0.0
N240 N 0.6058 0.49416 0.57697 0.0
C241 C 0.58426 0.50883 0.61633 0.0
C242 C 0.59689 0.49563 0.62032 0.0
C243 C 0.59808 0.50629 0.54727 0.0
N244 N 0.58521 0.51564 0.57029 0.0
O245 O 0.64553 0.50621 0.51717 0.0
H246 H 0.59995 0.48816 0.65305 0.0
H247 H 0.60176 0.50831 0.50938 0.0
O248 O 0.64729 0.49759 0.61679 0.0
C249 C 0.6358 0.49828 0.47581 0.0
O250 O 0.61481 0.4765 0.47343 0.0
N251 N 0.60508 0.45199 0.60142 0.0
C252 C 0.5838 0.40249 0.6323 0.0
C253 C 0.6008 0.4223 0.66151 0.0
C254 C 0.61137 0.44706 0.64527 0.0
C255 C 0.58593 0.43339 0.57597 0.0
C256 C 0.57503 0.40835 0.59066 0.0
H257 H 0.626 0.46168 0.66628 0.0
H258 H 0.58126 0.43765 0.54122 0.0
H259 H 0.67597 0.48208 0.59788 0.0
H260 H 0.65445 0.42125 0.50403 0.0
H261 H 0.57577 0.51369 0.6453 0.0
H262 H 0.60755 0.41859 0.69458 0.0
H263 H 0.56197 0.39371 0.56691 0.0
C264 C 0.5849 0.21162 0.55286 0.0
C265 C 0.59252 0.23674 0.55817 0.0
N266 N 0.57488 0.23856 0.58383 0.0
N267 N 0.56278 0.1978 0.5757 0.0
C268 C 0.55698 0.21469 0.59365 0.0
H269 H 0.59497 0.20389 0.5342 0.0
Co270 Co 0.5451 0.16312 0.58137 0.0
C271 C 0.52481 0.15232 0.6793 0.0
O272 O 0.53236 0.13572 0.68074 0.0
N273 N 0.52623 0.12729 0.58601 0.0
C274 C 0.5118 0.08599 0.59271 0.0
C275 C 0.5324 0.1096 0.59806 0.0
C276 C 0.50152 0.11362 0.57471 0.0
N277 N 0.49253 0.08869 0.57751 0.0
O278 O 0.52 0.16275 0.53853 0.0
H279 H 0.55057 0.11313 0.61014 0.0
H280 H 0.49013 0.12156 0.56325 0.0
O281 O 0.52839 0.16542 0.64117 0.0
C282 C 0.52611 0.15853 0.49714 0.0
O283 O 0.54545 0.15485 0.49444 0.0
N284 N 0.57238 0.16514 0.61551 0.0
C285 C 0.62441 0.18766 0.62545 0.0
C286 C 0.61034 0.19368 0.65703 0.0
C287 C 0.58415 0.18198 0.65173 0.0
C288 C 0.58558 0.15747 0.5878 0.0
C289 C 0.61131 0.16751 0.59385 0.0
H290 H 0.57422 0.18943 0.67167 0.0
H291 H 0.57674 0.14568 0.55702 0.0
H292 H 0.54021 0.20965 0.61437 0.0
H293 H 0.60959 0.25242 0.544 0.0
H294 H 0.51143 0.06824 0.59688 0.0
H295 H 0.61954 0.20926 0.68174 0.0
H296 H 0.62118 0.16162 0.56966 0.0
C297 C 0.7101 0.48268 0.10481 0.0
C298 C 0.68919 0.45905 0.10438 0.0
N299 N 0.67187 0.45971 0.07581 0.0
N300 N 0.7058 0.49803 0.07679 0.0
C301 C 0.68232 0.48352 0.0596 0.0
H302 H 0.72721 0.4885 0.12483 0.0
Co303 Co 0.72743 0.53224 0.0705 0.0
C304 C 0.72102 0.54241 0.97011 0.0
O305 O 0.74571 0.55492 0.96733 0.0
N306 N 0.74893 0.56731 0.06779 0.0
C307 C 0.76435 0.60882 0.06279 0.0
C308 C 0.7466 0.58565 0.0454 0.0
C309 C 0.76706 0.57987 0.1006 0.0
N310 N 0.77705 0.60494 0.09772 0.0
O311 O 0.70531 0.53788 0.1121 0.0
H312 H 0.73179 0.58263 0.02083 0.0
H313 H 0.77218 0.57071 0.1278 0.0
O314 O 0.71021 0.53267 1.01015 0.0
C315 C 0.71295 0.53784 0.15473 0.0
O316 O 0.73221 0.53425 0.16023 0.0
N317 N 0.75013 0.52538 0.03485 0.0
C318 C 0.77751 0.50109 1.01581 0.0
C319 C 0.75387 0.49262 0.99474 0.0
C320 C 0.74069 0.50538 1.00394 0.0
C321 C 0.77446 0.53566 0.04993 0.0
C322 C 0.78867 0.52428 0.03957 0.0
H323 H 0.72161 0.49719 0.99092 0.0
H324 H 0.78265 0.55124 0.07397 0.0
H325 H 0.67272 0.49039 0.03701 0.0
H326 H 0.68681 0.44267 0.12363 0.0
H327 H 0.76646 0.62688 0.05311 0.0
H328 H 0.74445 0.47498 0.97544 0.0
H329 H 0.80739 0.53231 0.05455 0.0
C330 C 0.54068 0.25234 0.13524 0.0
C331 C 0.56539 0.25819 0.13853 0.0
N332 N 0.56842 0.2417 0.11151 0.0
N333 N 0.52824 0.23221 0.10647 0.0
C334 C 0.5456 0.22609 0.09261 0.0
H335 H 0.53231 0.26226 0.15225 0.0
Co336 Co 0.49443 0.21744 0.09084 0.0
C337 C 0.48937 0.1795 0.01808 0.0
O338 O 0.47246 0.16081 0.04401 0.0
N339 N 0.46035 0.20275 0.07533 0.0
C340 C 0.42477 0.19121 0.03587 0.0
C341 C 0.45014 0.19986 0.03141 0.0
C342 C 0.44092 0.19586 0.10575 0.0
N343 N 0.41908 0.18877 0.08276 0.0
O344 O 0.48773 0.18987 0.13377 0.0
H345 H 0.46063 0.20471 0.99827 0.0
H346 H 0.44289 0.19726 0.14412 0.0
O347 O 0.49966 0.20189 0.03435 0.0
C348 C 0.48569 0.19739 0.17544 0.0
O349 O 0.48677 0.21931 0.17873 0.0
N350 N 0.50137 0.24577 0.05475 0.0
C351 C 0.52158 0.29613 0.03008 0.0
C352 C 0.53092 0.28154 1.00937 0.0
C353 C 0.52049 0.25626 0.02222 0.0
C354 C 0.49039 0.25889 0.07129 0.0
C355 C 0.49989 0.284 0.05858 0.0
H356 H 0.52973 0.24614 1.01039 0.0
H357 H 0.47565 0.2506 0.09789 0.0
H358 H 0.54163 0.21043 0.06939 0.0
H359 H 0.58011 0.27369 0.1584 0.0
H360 H 0.41168 0.18742 1.0069 0.0
H361 H 0.5478 0.29008 0.98767 0.0
H362 H 0.49177 0.29441 0.07464 0.0
C363 C 0.80205 0.32881 0.14218 0.0
C364 C 0.79832 0.3491 0.14018 0.0
N365 N 0.80821 0.36147 0.09892 0.0
N366 N 0.81434 0.32848 0.10252 0.0
C367 C 0.81786 0.34863 0.07672 0.0
H368 H 0.79609 0.31502 0.17059 0.0
Co369 Co 0.82325 0.30423 0.09135 0.0
C370 C 0.83118 0.30584 0.9871 0.0
O371 O 0.81672 0.28122 0.98878 0.0
N372 N 0.83316 0.27971 0.08209 0.0
C373 C 0.85823 0.26384 0.06669 0.0
C374 C 0.85345 0.28302 0.05687 0.0
C375 C 0.82676 0.25885 0.10855 0.0
N376 N 0.84154 0.24882 0.09963 0.0
O377 O 0.85485 0.32539 0.12352 0.0
H378 H 0.86552 0.29946 0.03572 0.0
H379 H 0.8132 0.25229 0.13718 0.0
O380 O 0.83663 0.3186 0.02615 0.0
C381 C 0.85127 0.31706 0.16653 0.0
O382 O 0.82971 0.29697 0.17703 0.0
N383 N 0.79036 0.28308 0.06734 0.0
C384 C 0.73791 0.26054 0.0628 0.0
C385 C 0.75322 0.27937 0.03011 0.0
C386 C 0.77942 0.29065 0.03339 0.0
C387 C 0.7755 0.26399 0.09777 0.0
C388 C 0.74938 0.252 0.09521 0.0
H389 H 0.79065 0.30722 1.01199 0.0
H390 H 0.78354 0.26006 0.12828 0.0
H391 H 0.8274 0.35394 0.04256 0.0
H392 H 0.78869 0.35413 0.16662 0.0
H393 H 0.87417 0.26241 0.05406 0.0
H394 H 0.74523 0.28709 1.0054 0.0
H395 H 0.73833 0.23771 0.1215 0.0
C396 C 0.45809 0.72762 0.89222 0.0
C397 C 0.43358 0.70868 0.89826 0.0
N398 N 0.43367 0.69002 0.92362 0.0
N399 N 0.47353 0.72097 0.91388 0.0
C400 C 0.45814 0.69786 0.93225 0.0
H401 H 0.46427 0.74547 0.87458 0.0
Co402 Co 0.50802 0.7417 0.92096 0.0
C403 C 0.52284 0.71504 0.99272 0.0
O404 O 0.54292 0.71925 0.96843 0.0
N405 N 0.5429 0.76288 0.9286 0.0
C406 C 0.58043 0.78695 0.96183 0.0
C407 C 0.55486 0.77525 0.96884 0.0
C408 C 0.56166 0.76765 0.89759 0.0
N409 N 0.58465 0.78197 0.91701 0.0
O410 O 0.51331 0.7215 0.87397 0.0
H411 H 0.54563 0.7748 1.00207 0.0
H412 H 0.55872 0.76026 0.86176 0.0
O413 O 0.50787 0.72179 0.97547 0.0
C414 C 0.51263 0.73084 0.83337 0.0
O415 O 0.50993 0.75082 0.83322 0.0
N416 N 0.50192 0.76221 0.96139 0.0
C417 C 0.48391 0.79153 1.00245 0.0
C418 C 0.48037 0.76957 0.02531 0.0
C419 C 0.48926 0.75494 1.00383 0.0
C420 C 0.50726 0.7844 0.94063 0.0
C421 C 0.49852 0.79941 0.96058 0.0
H422 H 0.48434 0.73702 0.01967 0.0
H423 H 0.51683 0.78955 0.90649 0.0
H424 H 0.46461 0.68742 0.95337 0.0
H425 H 0.41699 0.70882 0.88553 0.0
H426 H 0.59472 0.7971 0.98855 0.0
H427 H 0.46941 0.76286 0.05786 0.0
H428 H 0.5014 0.81587 0.94094 0.0
C429 C 0.34121 0.83746 0.86073 0.0
C430 C 0.36435 0.84351 0.87913 0.0
N431 N 0.36134 0.83666 0.92551 0.0
N432 N 0.3237 0.82692 0.89542 0.0
C433 C 0.33656 0.82678 0.93445 0.0
H434 H 0.33738 0.8399 0.82403 0.0
Co435 Co 0.28913 0.81414 0.89016 0.0
C436 C 0.30304 0.85266 0.96647 0.0
O437 O 0.31911 0.87058 0.93806 0.0
N438 N 0.25482 0.80188 0.88511 0.0
C439 C 0.21594 0.78206 0.85644 0.0
C440 C 0.23705 0.78016 0.86541 0.0
C441 C 0.24405 0.81626 0.88915 0.0
N442 N 0.22055 0.8049 0.87127 0.0
O443 O 0.29537 0.8426 0.85 0.0
H444 H 0.24013 0.76503 0.85407 0.0
H445 H 0.25443 0.83592 0.89934 0.0
O446 O 0.28965 0.83043 0.95018 0.0
C447 C 0.28995 0.8341 0.80726 0.0
O448 O 0.28206 0.8101 0.80014 0.0
N449 N 0.28291 0.7853 0.92362 0.0
C450 C 0.27356 0.73974 0.96278 0.0
C451 C 0.26329 0.75338 0.98381 0.0
C452 C 0.26824 0.7763 0.96357 0.0
C453 C 0.29244 0.77192 0.90217 0.0
C454 C 0.28837 0.74933 0.9216 0.0
H455 H 0.25957 0.78629 0.97882 0.0
H456 H 0.30307 0.77875 0.86934 0.0
H457 H 0.32772 0.81894 0.96851 0.0
H458 H 0.38176 0.85106 0.85918 0.0
H459 H 0.1994 0.76862 0.83698 0.0
H460 H 0.25132 0.74624 1.01507 0.0
H461 H 0.29595 0.73896 0.90339 0.0
C462 C 0.2259 0.53299 0.90016 0.0
C463 C 0.23578 0.55856 0.90256 0.0
N464 N 0.22546 0.56359 0.94042 0.0
N465 N 0.20945 0.52194 0.93635 0.0
C466 C 0.20939 0.5411 0.96013 0.0
H467 H 0.2317 0.52326 0.87557 0.0
Co468 Co 0.1971 0.48864 0.95339 0.0
C469 C 0.15724 0.47738 0.02583 0.0
O470 O 0.14143 0.45681 1.0028 0.0
N471 N 0.18537 0.455 0.97054 0.0
C472 C 0.17619 0.42012 1.011 0.0
C473 C 0.1874 0.44597 1.01337 0.0
C474 C 0.17303 0.43436 0.94293 0.0
N475 N 0.16724 0.41293 0.9664 0.0
O476 O 0.16913 0.47921 0.90971 0.0
H477 H 0.1962 0.4574 0.04459 0.0
H478 H 0.1676 0.43473 0.90654 0.0
O479 O 0.17896 0.49197 1.00799 0.0
C480 C 0.17586 0.47607 0.8681 0.0
O481 O 0.19752 0.47668 0.864 0.0
N482 N 0.22601 0.49901 0.99012 0.0
C483 C 0.27608 0.53324 1.00967 0.0
C484 C 0.25698 0.53103 0.04044 0.0
C485 C 0.23189 0.51372 0.02999 0.0
C486 C 0.2444 0.49827 0.96413 0.0
C487 C 0.2697 0.51534 0.97322 0.0
H488 H 0.21748 0.51441 0.05085 0.0
H489 H 0.23938 0.48679 0.93225 0.0
H490 H 0.19939 0.53891 0.99326 0.0
H491 H 0.25015 0.57248 0.8794 0.0
H492 H 0.17477 0.40768 0.0398 0.0
H493 H 0.26117 0.54413 0.06964 0.0
H494 H 0.28375 0.51633 0.94847 0.0
C495 C 0.34114 0.82346 0.46206 0.0
C496 C 0.32809 0.7977 0.4592 0.0
N497 N 0.31804 0.79127 0.41521 0.0
N498 N 0.33946 0.83319 0.41996 0.0
C499 C 0.32484 0.81308 0.39221 0.0
H500 H 0.35278 0.83445 0.49162 0.0
Co501 Co 0.36058 0.86672 0.40607 0.0
C502 C 0.35133 0.87606 0.30708 0.0
O503 O 0.37587 0.88965 0.30294 0.0
N504 N 0.38265 0.9014 0.39392 0.0
C505 C 0.41629 0.93932 0.38353 0.0
C506 C 0.40745 0.91387 0.38275 0.0
C507 C 0.37696 0.91986 0.40031 0.0
N508 N 0.39712 0.94301 0.39535 0.0
O509 O 0.33949 0.87456 0.44585 0.0
H510 H 0.41892 0.9054 0.37612 0.0
H511 H 0.35873 0.91666 0.41166 0.0
O512 O 0.34153 0.86437 0.34642 0.0
C513 C 0.35031 0.88255 0.48635 0.0
O514 O 0.37342 0.88677 0.49133 0.0
N515 N 0.3818 0.85744 0.37498 0.0
C516 C 0.40187 0.82566 0.36913 0.0
C517 C 0.38604 0.8256 0.33291 0.0
C518 C 0.376 0.84168 0.33659 0.0
C519 C 0.3991 0.85932 0.40768 0.0
C520 C 0.40964 0.84389 0.40506 0.0
H521 H 0.36127 0.8389 0.31207 0.0
H522 H 0.40258 0.87089 0.43907 0.0
H523 H 0.32128 0.81431 0.35471 0.0
H524 H 0.32728 0.78469 0.48628 0.0
H525 H 0.43579 0.95398 0.38032 0.0
H526 H 0.37937 0.8115 0.30499 0.0
H527 H 0.4219 0.84454 0.43358 0.0
C528 C 0.20655 0.51844 0.49778 0.0
C529 C 0.22527 0.51377 0.4834 0.0
N530 N 0.22848 0.5176 0.43584 0.0
N531 N 0.19789 0.52508 0.45945 0.0
C532 C 0.21154 0.52433 0.42223 0.0
H533 H 0.20038 0.51795 0.53415 0.0
Co534 Co 0.17389 0.53509 0.45942 0.0
C535 C 0.14406 0.49582 0.38117 0.0
O536 O 0.12747 0.4772 0.40764 0.0
N537 N 0.14968 0.54496 0.45957 0.0
C538 C 0.13037 0.5667 0.47459 0.0
C539 C 0.15335 0.56814 0.46904 0.0
C540 C 0.12451 0.52982 0.45922 0.0
N541 N 0.11226 0.5425 0.46878 0.0
O542 O 0.15309 0.50716 0.50198 0.0
H543 H 0.17154 0.58473 0.47443 0.0
H544 H 0.11544 0.50955 0.45628 0.0
O545 O 0.16032 0.51631 0.40071 0.0
C546 C 0.15404 0.51622 0.54371 0.0
O547 O 0.16669 0.54081 0.54894 0.0
N548 N 0.19513 0.56348 0.42313 0.0
C549 C 0.22682 0.61036 0.38253 0.0
C550 C 0.20415 0.59338 0.36009 0.0
C551 C 0.18848 0.56991 0.38106 0.0
C552 C 0.21723 0.57962 0.44496 0.0
C553 C 0.2335 0.60301 0.42499 0.0
H554 H 0.17041 0.55755 0.36498 0.0
H555 H 0.22179 0.57466 0.47913 0.0
H556 H 0.20963 0.52948 0.38612 0.0
H557 H 0.23664 0.50937 0.5067 0.0
H558 H 0.12732 0.58204 0.48446 0.0
H559 H 0.19821 0.59851 0.3276 0.0
H560 H 0.25046 0.6158 0.44422 0.0
C561 C 0.42822 0.64629 0.45608 0.0
C562 C 0.41694 0.66087 0.45619 0.0
N563 N 0.43186 0.68227 0.43193 0.0
N564 N 0.45013 0.65848 0.43194 0.0
C565 C 0.45194 0.68042 0.41801 0.0
H566 H 0.42071 0.62773 0.47159 0.0
Co567 Co 0.47173 0.64616 0.41917 0.0
C568 C 0.50737 0.68303 0.34778 0.0
O569 O 0.52708 0.68725 0.37326 0.0
N570 N 0.49346 0.63372 0.40653 0.0
C571 C 0.51414 0.61723 0.37016 0.0
C572 C 0.4999 0.6286 0.36352 0.0
C573 C 0.50372 0.62505 0.43859 0.0
N574 N 0.51635 0.61489 0.41748 0.0
O575 O 0.49542 0.67023 0.46454 0.0
H576 H 0.49371 0.6319 0.32947 0.0
H577 H 0.50141 0.62546 0.47675 0.0
O578 O 0.48533 0.66844 0.36407 0.0
C579 C 0.48821 0.6597 0.50558 0.0
O580 O 0.46885 0.63668 0.50711 0.0
N581 N 0.44713 0.62126 0.37996 0.0
C582 C 0.40079 0.58235 0.34835 0.0
C583 C 0.4101 0.60724 0.33221 0.0
C584 C 0.43355 0.62637 0.34782 0.0
C585 C 0.43964 0.59702 0.39229 0.0
C586 C 0.41706 0.57723 0.37534 0.0
H587 H 0.43938 0.6456 0.33829 0.0
H588 H 0.45025 0.59303 0.4182 0.0
H589 H 0.46765 0.69476 0.39791 0.0
H590 H 0.39885 0.6558 0.47173 0.0
H591 H 0.52116 0.61006 0.34237 0.0
H592 H 0.39867 0.6126 0.3114 0.0
H593 H 0.41167 0.55834 0.38682 0.0
H594 H 0.07821 0.02934 0.31444 0.0
H595 H 0.0123 0.1133 0.30562 0.0
H596 H 0.11987 0.11042 0.316 0.0
H597 H 0.97226 0.03207 0.30753 0.0
H598 H 0.05165 0.11317 0.31987 0.0
H599 H 0.03911 0.03035 0.32373 0.0
C600 C 0.07904 0.04736 0.31788 0.0
C601 C 0.10208 0.06982 0.31458 0.0
C602 C 0.03421 0.09539 0.31755 0.0
C603 C 0.05752 0.07128 0.32364 0.0
C604 C 0.01173 0.09545 0.30953 0.0
C605 C 0.98898 0.07265 0.30464 0.0
C606 C 0.03389 0.07235 0.32077 0.0
C607 C 0.9894 0.05008 0.30984 0.0
C608 C 0.05676 0.04798 0.32287 0.0
C609 C 0.10235 0.09273 0.31877 0.0
N610 N 0.01147 0.05052 0.31729 0.0
N611 N 0.0803 0.09291 0.3224 0.0
H612 H 0.89438 0.91141 0.24241 0.0
H613 H 0.86573 0.98808 0.43126 0.0
H614 H 0.87564 0.88528 0.38769 0.0
H615 H 0.85596 0.9924 0.27937 0.0
H616 H 0.86654 0.94892 0.41829 0.0
H617 H 0.8788 0.94058 0.25633 0.0
C618 C 0.88686 0.91183 0.27721 0.0
C619 C 0.88646 0.89622 0.31409 0.0
C620 C 0.86352 0.95814 0.38808 0.0
C621 C 0.8687 0.92952 0.33059 0.0
C622 C 0.86304 0.98047 0.39545 0.0
C623 C 0.8611 0.9938 0.35635 0.0
C624 C 0.86242 0.9494 0.34126 0.0
C625 C 0.85742 0.98289 0.31076 0.0
C626 C 0.87775 0.92827 0.2851 0.0
C627 C 0.87621 0.8971 0.35843 0.0
N628 N 0.85874 0.96166 0.30441 0.0
N629 N 0.86809 0.91384 0.36578 0.0
H630 H 0.01735 0.84863 0.38519 0.0
H631 H 0.10927 -0.00507 0.3388 0.0
H632 H -0.00327 0.906 0.40347 0.0
H633 H 0.11848 0.93581 0.27566 0.0
H634 H 0.07454 0.96348 0.38703 0.0
H635 H 0.06087 0.88166 0.37103 0.0
C636 C 0.02203 0.86814 0.3874 0.0
C637 C 0.00315 0.87448 0.39407 0.0
C638 C 0.08445 0.95746 0.3632 0.0
C639 C 0.05283 0.91221 0.37837 0.0
C640 C 0.10431 0.97538 0.33576 0.0
C641 C 0.1165 0.96787 0.30267 0.0
C642 C 0.07681 0.93188 0.35764 0.0
C643 C 0.10917 0.94227 0.3 0.0
C644 C 0.04686 0.88694 0.37932 0.0
C645 C 0.01049 0.90009 0.39811 0.0
N646 N 0.08962 0.92512 0.32682 0.0
N647 N 0.03469 0.91802 0.38926 0.0
H648 H 0.14311 0.05731 0.69833 0.0
H649 H 0.11403 0.15682 0.82408 0.0
H650 H 0.13809 0.0652 0.85033 0.0
H651 H 0.10092 0.13923 0.6736 0.0
H652 H 0.13314 0.13071 0.83003 0.0
H653 H 0.13678 0.09349 0.68554 0.0
C654 C 0.14109 0.06694 0.72895 0.0
C655 C 0.14084 0.05821 0.77545 0.0
C656 C 0.1264 0.13278 0.79549 0.0
C657 C 0.13372 0.09936 0.76123 0.0
C658 C 0.11574 0.14809 0.79177 0.0
C659 C 0.10563 0.15032 0.74815 0.0
C660 C 0.12681 0.11919 0.75558 0.0
C661 C 0.10804 0.13779 0.70813 0.0
C662 C 0.13736 0.08744 0.72166 0.0
C663 C 0.13798 0.07114 0.81395 0.0
N664 N 0.1181 0.12248 0.71292 0.0
N665 N 0.13445 0.09099 0.80598 0.0
H666 H 0.95781 0.07621 0.73661 0.0
H667 H 0.87462 0.94308 0.86372 0.0
H668 H 0.97367 0.05591 0.8745 0.0
H669 H 0.87105 0.95163 0.7112 0.0
H670 H 0.90651 0.98704 0.86957 0.0
H671 H 0.92224 0.03299 0.72769 0.0
C672 C 0.95373 0.06269 0.76498 0.0
C673 C 0.96873 0.06953 0.80627 0.0
C674 C 0.89869 0.97945 0.83477 0.0
C675 C 0.92829 0.02052 0.79652 0.0
C676 C 0.88014 0.95433 0.83142 0.0
C677 C 0.86979 0.94364 0.7869 0.0
C678 C 0.90725 -0.00576 0.79336 0.0
C679 C 0.8785 0.95914 0.74621 0.0
C680 C 0.93359 0.03809 0.75977 0.0
C681 C 0.96284 0.05134 0.84186 0.0
N682 N 0.89679 0.98377 0.75038 0.0
N683 N 0.94307 0.02776 0.83623 0.0
H684 H 0.0582 0.91537 0.80886 0.0
H685 H 0.91746 0.87717 0.73738 0.0
H686 H 0.0393 0.92652 0.66572 0.0
H687 H 0.94484 0.88409 0.88164 0.0
H688 H 0.96011 0.89064 0.70748 0.0
H689 H 0.01487 0.89875 0.83265 0.0
C690 C 0.04482 0.91391 0.78201 0.0
C691 C 0.05245 0.92202 0.73486 0.0
C692 C 0.95669 0.88918 0.74563 0.0
C693 C 0.00239 0.90354 0.76272 0.0
C694 C 0.93239 0.88137 0.76268 0.0
C695 C 0.92767 0.87964 0.81211 0.0
C696 C 0.97619 0.89494 0.77832 0.0
C697 C 0.94769 0.88551 0.84336 0.0
C698 C 0.02002 0.90466 0.79591 0.0
C699 C 0.03424 0.92043 0.70238 0.0
N700 N 0.97097 0.89282 0.82596 0.0
N701 N 0.00995 0.91132 0.71691 0.0
H702 H 0.718 0.48817 0.58727 0.0
H703 H 0.76555 0.39056 0.63951 0.0
H704 H 0.67339 0.408 0.56512 0.0
H705 H 0.8157 0.47092 0.63145 0.0
H706 H 0.72989 0.39716 0.6289 0.0
H707 H 0.75234 0.4825 0.61759 0.0
C708 C 0.71542 0.46938 0.58905 0.0
C709 C 0.69297 0.44854 0.57318 0.0
C710 C 0.74866 0.4134 0.63009 0.0
C711 C 0.73196 0.4419 0.60799 0.0
C712 C 0.76907 0.40968 0.63682 0.0
C713 C 0.79372 0.43023 0.63613 0.0
C714 C 0.75286 0.43783 0.62247 0.0
C715 C 0.79703 0.45453 0.63155 0.0
C716 C 0.73499 0.46616 0.60625 0.0
C717 C 0.69058 0.4246 0.57606 0.0
N718 N 0.77682 0.45765 0.6244 0.0
N719 N 0.70984 0.42194 0.59307 0.0
H720 H 0.54011 0.35703 0.61951 0.0
H721 H 0.61583 0.28317 0.60549 0.0
H722 H 0.61828 0.38912 0.65866 0.0
H723 H 0.5349 0.24556 0.59606 0.0
H724 H 0.61646 0.32198 0.62769 0.0
H725 H 0.53672 0.31549 0.61496 0.0
C726 C 0.55639 0.35527 0.62805 0.0
C727 C 0.57951 0.37663 0.63937 0.0
C728 C 0.59851 0.30522 0.62115 0.0
C729 C 0.57588 0.32937 0.63356 0.0
C730 C 0.59819 0.28314 0.60805 0.0
C731 C 0.57531 0.26124 0.59853 0.0
C732 C 0.57578 0.30553 0.62415 0.0
C733 C 0.55293 0.26206 0.60327 0.0
C734 C 0.55446 0.33159 0.62544 0.0
C735 C 0.59998 0.37324 0.65035 0.0
N736 N 0.55373 0.28395 0.61526 0.0
N737 N 0.59776 0.35016 0.64652 0.0
H738 H 0.64962 0.20029 0.5403 0.0
H739 H 0.77795 0.31377 0.64077 0.0
H740 H 0.66165 0.21688 0.6913 0.0
H741 H 0.75679 0.30036 0.49224 0.0
H742 H 0.73883 0.27497 0.66177 0.0
H743 H 0.69228 0.23258 0.52463 0.0
C744 C 0.66134 0.2102 0.57061 0.0
C745 C 0.65178 0.20542 0.61751 0.0
C746 C 0.74291 0.28046 0.62461 0.0
C747 C 0.70108 0.2439 0.59892 0.0
C748 C 0.76523 0.30246 0.6126 0.0
C749 C 0.77041 0.31029 0.5647 0.0
C750 C 0.72594 0.2662 0.58832 0.0
C751 C 0.75329 0.29516 0.52959 0.0
C752 C 0.6858 0.22909 0.56134 0.0
C753 C 0.66805 0.21994 0.65458 0.0
N754 N 0.73185 0.27393 0.54212 0.0
N755 N 0.69189 0.2387 0.64446 0.0
H756 H 0.80341 0.3735 1.00749 0.0
H757 H 0.80223 0.49708 0.09352 0.0
H758 H 0.81266 0.39986 0.15286 0.0
H759 H 0.77592 0.46496 0.95344 0.0
H760 H 0.81418 0.46581 0.10911 0.0
H761 H 0.80025 0.41026 0.98172 0.0
C762 C 0.80507 0.38719 0.0338 0.0
C763 C 0.80809 0.38363 0.08242 0.0
C764 C 0.80603 0.46566 0.0747 0.0
C765 C 0.8046 0.42545 0.05341 0.0
C766 C 0.79948 0.48389 0.06529 0.0
C767 C 0.78806 0.48395 0.02177 0.0
C768 C 0.80092 0.4469 0.04081 0.0
C769 C 0.78439 0.46555 0.98767 0.0
C770 C 0.80314 0.40802 0.01916 0.0
C771 C 0.80995 0.40173 0.11519 0.0
N772 N 0.79061 0.44759 0.99807 0.0
N773 N 0.80815 0.42179 0.10011 0.0
H774 H 0.64763 0.44711 0.99085 0.0
H775 H 0.52962 0.3273 0.10573 0.0
H776 H 0.63974 0.42631 0.13958 0.0
H777 H 0.55082 0.32853 0.95799 0.0
H778 H 0.56279 0.37071 0.11391 0.0
H779 H 0.60606 0.40997 0.97508 0.0
C780 C 0.63692 0.43486 0.02014 0.0
C781 C 0.647 0.43938 0.06643 0.0
C782 C 0.55989 0.36163 0.07944 0.0
C783 C 0.59982 0.39766 0.04908 0.0
C784 C 0.54067 0.33685 0.07442 0.0
C785 C 0.53749 0.324 0.0311 0.0
C786 C 0.57621 0.37375 0.04108 0.0
C787 C 0.5529 0.33754 0.99227 0.0
C788 C 0.61338 0.41379 1.01117 0.0
C789 C 0.63266 0.42313 0.10335 0.0
N790 N 0.57191 0.36165 0.99834 0.0
N791 N 0.60978 0.40297 0.09388 0.0
H792 H 0.71331 0.25536 0.14681 0.0
H793 H 0.58316 0.22821 0.03057 0.0
H794 H 0.7017 0.25052 0.99412 0.0
H795 H 0.60616 0.25448 0.17465 0.0
H796 H 0.62348 0.2296 0.01751 0.0
H797 H 0.67082 0.24765 0.15838 0.0
C798 C 0.70165 0.25216 0.1156 0.0
C799 C 0.7111 0.25338 0.06933 0.0
C800 C 0.61961 0.23497 0.05198 0.0
C801 C 0.66234 0.24519 0.08254 0.0
C802 C 0.59661 0.23403 0.05954 0.0
C803 C 0.59144 0.24136 0.10372 0.0
C804 C 0.63732 0.24294 0.08912 0.0
C805 C 0.60955 0.249 0.13992 0.0
C806 C 0.67743 0.24806 0.1223 0.0
C807 C 0.69521 0.24981 0.03038 0.0
N808 N 0.63164 0.24956 0.13184 0.0
N809 N 0.67156 0.24591 0.03784 0.0
H810 H 0.35307 0.80312 0.99649 0.0
H811 H 0.49735 0.84173 0.99869 0.0
H812 H 0.41187 0.86809 0.92398 0.0
H813 H 0.43553 0.7684 0.03649 0.0
H814 H 0.46813 0.85797 0.99745 0.0
H815 H 0.385 0.7973 0.03694 0.0
C816 C 0.3727 0.81656 0.9899 0.0
C817 C 0.37982 0.83582 0.95594 0.0
C818 C 0.46116 0.83848 1.00718 0.0
C819 C 0.41644 0.82902 1.00173 0.0
C820 C 0.4778 0.82916 1.00778 0.0
C821 C 0.46881 0.80344 1.01621 0.0
C822 C 0.43544 0.82199 1.0153 0.0
C823 C 0.44344 0.78829 0.02939 0.0
C824 C 0.39093 0.81313 1.01288 0.0
C825 C 0.40558 0.85259 0.94889 0.0
N826 N 0.42756 0.79768 0.02758 0.0
N827 N 0.42298 0.84858 0.971 0.0
H828 H 0.30577 0.72202 0.97891 0.0
H829 H 0.19493 0.5788 0.97976 0.0
H830 H 0.22714 0.70001 0.9848 0.0
H831 H 0.27222 0.60391 0.94359 0.0
H832 H 0.20708 0.62216 1.00269 0.0
H833 H 0.29438 0.67799 0.98868 0.0
C834 C 0.28612 0.7079 0.98321 0.0
C835 C 0.26732 0.7145 0.98019 0.0
C836 C 0.2214 0.61807 0.99028 0.0
C837 C 0.2541 0.66413 0.99062 0.0
C838 C 0.21448 0.59342 0.97733 0.0
C839 C 0.23254 0.58808 0.9588 0.0
C840 C 0.24658 0.63727 0.9851 0.0
C841 C 0.25766 0.60749 0.95649 0.0
C842 C 0.27961 0.68279 0.98866 0.0
C843 C 0.24217 0.69562 0.98674 0.0
N844 N 0.26391 0.63126 0.96911 0.0
N845 N 0.23622 0.67115 0.99075 0.0
H846 H 0.28592 0.5815 0.0209 0.0
H847 H 0.43036 0.64492 0.9421 0.0
H848 H 0.32295 0.53846 0.99435 0.0
H849 H 0.38785 0.68363 0.94613 0.0
H850 H 0.39327 0.60674 0.97165 0.0
H851 H 0.3254 0.62006 1.00599 0.0
C852 C 0.30251 0.58014 1.01318 0.0
C853 C 0.30107 0.55661 1.00907 0.0
C854 C 0.39212 0.62363 0.96614 0.0
C855 C 0.3464 0.60093 0.99041 0.0
C856 C 0.41328 0.64542 0.94943 0.0
C857 C 0.41213 0.66744 0.94122 0.0
C858 C 0.36973 0.62394 0.97512 0.0
C859 C 0.38946 0.66699 0.95105 0.0
C860 C 0.32504 0.60223 1.004 0.0
C861 C 0.32316 0.55616 0.99761 0.0
N862 N 0.36921 0.64562 0.96744 0.0
N863 N 0.3449 0.578 0.98836 0.0
H864 H 0.40499 0.69721 0.4857 0.0
H865 H 0.41964 0.80466 0.30336 0.0
H866 H 0.44744 0.71337 0.35465 0.0
H867 H 0.3933 0.79741 0.44865 0.0
H868 H 0.42655 0.7688 0.31695 0.0
H869 H 0.39684 0.73147 0.4681 0.0
C870 C 0.4125 0.70791 0.4531 0.0
C871 C 0.42699 0.70249 0.42175 0.0
C872 C 0.41936 0.7752 0.3458 0.0
C873 C 0.41786 0.7419 0.40131 0.0
C874 C 0.4154 0.79555 0.33801 0.0
C875 C 0.40638 0.80424 0.37522 0.0
C876 C 0.41381 0.76334 0.3908 0.0
C877 C 0.40088 0.79169 0.41935 0.0
C878 C 0.40798 0.72758 0.44315 0.0
C879 C 0.43649 0.71717 0.38016 0.0
N880 N 0.40467 0.77193 0.42587 0.0
N881 N 0.43172 0.7362 0.37107 0.0
H882 H 0.27582 0.76771 0.36164 0.0
H883 H 0.27805 0.63864 0.37517 0.0
H884 H 0.33578 0.7592 0.42177 0.0
H885 H 0.21027 0.64228 0.3535 0.0
H886 H 0.30276 0.68442 0.36755 0.0
H887 H 0.25493 0.7234 0.33552 0.0
C888 C 0.28467 0.75653 0.36858 0.0
C889 C 0.30709 0.76663 0.39469 0.0
C890 C 0.28251 0.67516 0.36356 0.0
C891 C 0.28386 0.71663 0.36479 0.0
C892 C 0.26842 0.64906 0.36785 0.0
C893 C 0.24207 0.63674 0.36595 0.0
C894 C 0.27013 0.68904 0.35763 0.0
C895 C 0.23056 0.65105 0.35543 0.0
C896 C 0.27284 0.73138 0.35383 0.0
C897 C 0.31812 0.75172 0.40273 0.0
N898 N 0.24464 0.67656 0.35255 0.0
N899 N 0.30631 0.7274 0.38815 0.0
H900 H 0.37238 0.54255 0.40933 0.0
H901 H 0.25057 0.54618 0.3567 0.0
H902 H 0.3652 0.57841 0.28159 0.0
H903 H 0.25298 0.49172 0.45111 0.0
H904 H 0.28998 0.55384 0.32039 0.0
H905 H 0.32744 0.51888 0.4159 0.0
C906 C 0.36165 0.54518 0.38159 0.0
C907 C 0.37328 0.5634 0.34536 0.0
C908 C 0.28159 0.53979 0.3483 0.0
C909 C 0.32076 0.53662 0.35476 0.0
C910 C 0.25901 0.53535 0.36907 0.0
C911 C 0.24877 0.51872 0.40795 0.0
C912 C 0.29409 0.52771 0.36691 0.0
C913 C 0.26063 0.50529 0.42232 0.0
C914 C 0.33561 0.5316 0.38587 0.0
C915 C 0.35747 0.56558 0.31148 0.0
N916 N 0.28288 0.51042 0.40243 0.0
N917 N 0.33207 0.55291 0.31777 0.0
H918 H 0.40223 0.16695 0.16929 0.0
H919 H 0.26839 0.15864 0.14176 0.0
H920 H 0.3813 0.19463 0.04588 0.0
H921 H 0.28735 0.12372 0.25567 0.0
H922 H 0.31155 0.17712 0.11124 0.0
H923 H 0.36185 0.15548 0.20597 0.0
C924 C 0.3892 0.17076 0.15001 0.0
C925 C 0.39514 0.1817 0.10437 0.0
C926 C 0.30633 0.16564 0.14322 0.0
C927 C 0.34871 0.16845 0.14605 0.0
C928 C 0.28182 0.15533 0.16085 0.0
C929 C 0.27439 0.13955 0.20103 0.0
C930 C 0.32342 0.16016 0.16618 0.0
C931 C 0.29235 0.13555 0.22422 0.0
C932 C 0.36609 0.16413 0.1709 0.0
C933 C 0.37735 0.18589 0.08079 0.0
N934 N 0.31598 0.14564 0.2063 0.0
N935 N 0.3549 0.17922 0.10188 0.0
H936 H 0.85359 0.21479 0.06675 0.0
H937 H 0.86576 0.16944 0.32665 0.0
H938 H 0.8331 0.23957 0.19461 0.0
H939 H 0.8648 0.13022 0.1978 0.0
H940 H 0.85386 0.19545 0.27956 0.0
H941 H 0.85868 0.1841 0.11448 0.0
C942 C 0.85 0.21358 0.10483 0.0
C943 C 0.84282 0.22957 0.12676 0.0
C944 C 0.85608 0.181 0.26173 0.0
C945 C 0.84876 0.19483 0.18165 0.0
C946 C 0.86277 0.16604 0.28866 0.0
C947 C 0.86669 0.1478 0.26617 0.0
C948 C 0.85347 0.17781 0.21196 0.0
C949 C 0.86269 0.14446 0.21662 0.0
C950 C 0.85279 0.19606 0.13203 0.0
C951 C 0.8383 0.22731 0.17621 0.0
N952 N 0.85656 0.15947 0.19116 0.0
N953 N 0.84157 0.21041 0.2021 0.0
H954 H 0.78241 0.59926 0.19213 0.0
H955 H 0.8967 0.73968 0.21931 0.0
H956 H 0.81331 0.65222 0.07559 0.0
H957 H 0.85014 0.69591 0.33749 0.0
H958 H 0.87325 0.70359 0.1667 0.0
H959 H 0.8135 0.6309 0.24586 0.0
C960 C 0.79596 0.61748 0.17778 0.0
C961 C 0.79538 0.62327 0.12943 0.0
C962 C 0.86842 0.70179 0.2043 0.0
C963 C 0.83085 0.65938 0.19052 0.0
C964 C 0.88179 0.72232 0.23432 0.0
C965 C 0.87492 0.72093 0.28255 0.0
C966 C 0.84816 0.67969 0.22275 0.0
C967 C 0.85595 0.69782 0.3005 0.0
C968 C 0.8136 0.63551 0.20846 0.0
C969 C 0.81305 0.64723 0.11277 0.0
N970 N 0.84293 0.67814 0.27037 0.0
N971 N 0.83012 0.66448 0.14333 0.0
H972 H 0.07143 0.29204 0.78271 0.0
H973 H 0.13973 0.3691 1.01582 0.0
H974 H 0.07462 0.25444 0.91051 0.0
H975 H 0.16243 0.39904 0.8732 0.0
H976 H 0.11266 0.32732 0.98125 0.0
H977 H 0.10085 0.33259 0.81898 0.0
C978 C 0.07832 0.29243 0.81849 0.0
C979 C 0.07079 0.27004 0.84366 0.0
C980 C 0.12373 0.34312 0.95776 0.0
C981 C 0.10423 0.31607 0.88537 0.0
C982 C 0.13925 0.36693 0.97741 0.0
C983 C 0.15307 0.38779 0.94742 0.0
C984 C 0.12186 0.34032 0.9079 0.0
C985 C 0.15158 0.38379 0.8978 0.0
C986 C 0.0952 0.31545 0.83902 0.0
C987 C 0.0803 0.27137 0.88984 0.0
N988 N 0.13604 0.36062 0.87964 0.0
N989 N 0.09646 0.29409 0.90948 0.0
H990 H 0.59308 0.7556 0.84846 0.0
H991 H 0.74228 0.83673 0.87629 0.0
H992 H 0.63083 0.82093 0.93944 0.0
H993 H 0.70419 0.77014 0.78866 0.0
H994 H 0.70197 0.83394 0.89302 0.0
H995 H 0.63375 0.76341 0.81944 0.0
C996 C 0.60988 0.77184 0.86187 0.0
C997 C 0.60848 0.78759 0.8967 0.0
C998 C 0.70243 0.82004 0.86985 0.0
C999 C 0.65529 0.79635 0.8641 0.0
C1000 C 0.7255 0.82171 0.85998 0.0
C1001 C 0.72662 0.80354 0.83118 0.0
C1002 C 0.68028 0.80003 0.85087 0.0
C1003 C 0.70415 0.78429 0.81167 0.0
C1004 C 0.63316 0.77617 0.84549 0.0
C1005 C 0.63102 0.80808 0.91318 0.0
N1006 N 0.68188 0.78296 0.82208 0.0
N1007 N 0.65351 0.81179 0.89695 0.0
H1008 H 0.21661 0.84002 0.92207 0.0
H1009 H 0.17288 0.88752 0.69474 0.0
H1010 H 0.19683 0.80092 0.78723 0.0
H1011 H 0.20281 0.93029 0.82449 0.0
H1012 H 0.17641 0.85297 0.73039 0.0
H1013 H 0.20458 0.8697 0.89054 0.0
C1014 C 0.20917 0.83742 0.88613 0.0
C1015 C 0.20782 0.81817 0.85712 0.0
C1016 C 0.1821 0.8699 0.75104 0.0
C1017 C 0.19458 0.85226 0.82029 0.0
C1018 C 0.18034 0.88975 0.73054 0.0
C1019 C 0.18758 0.91191 0.75662 0.0
C1020 C 0.19114 0.87223 0.79793 0.0
C1021 C 0.19669 0.91349 0.80323 0.0
C1022 C 0.20249 0.85442 0.86799 0.0
C1023 C 0.19799 0.81543 0.81084 0.0
N1024 N 0.19822 0.89396 0.82232 0.0
N1025 N 0.19207 0.83256 0.79355 0.0
H1026 H 0.95661 0.43489 0.5113 0.0
H1027 H 0.0905 0.56007 0.53094 0.0
H1028 H 0.9719 0.49523 0.60935 0.0
H1029 H 0.07389 0.49939 0.43295 0.0
H1030 H 0.04649 0.53834 0.55604 0.0
H1031 H -0.00114 0.45962 0.47906 0.0
C1032 C 0.96875 0.45346 0.52581 0.0
C1033 C 0.96059 0.46302 0.56302 0.0
C1034 C 0.05244 0.52988 0.52878 0.0
C1035 C 0.00937 0.49142 0.52655 0.0
C1036 C 0.07754 0.54239 0.5141 0.0
C1037 C 0.08593 0.53144 0.47995 0.0
C1038 C 0.03563 0.50627 0.50919 0.0
C1039 C 0.06831 0.5083 0.4599 0.0
C1040 C -0.00701 0.46756 0.50749 0.0
C1041 C 0.97747 0.48702 0.58102 0.0
N1042 N 0.04404 0.49642 0.47501 0.0
N1043 N 0.0011 0.5004 0.56263 0.0
H1044 H 0.55521 0.60974 0.38528 0.0
H1045 H 0.54634 0.52089 0.60289 0.0
H1046 H 0.50277 0.59007 0.50229 0.0
H1047 H 0.60239 0.54525 0.49132 0.0
H1048 H 0.53026 0.54643 0.56705 0.0
H1049 H 0.57281 0.58612 0.4237 0.0
C1050 C 0.54741 0.60045 0.41903 0.0
C1051 C 0.52752 0.60189 0.44059 0.0
C1052 C 0.5461 0.54618 0.55046 0.0
C1053 C 0.54754 0.57492 0.48488 0.0
C1054 C 0.55534 0.53168 0.57102 0.0
C1055 C 0.57562 0.53075 0.54993 0.0
C1056 C 0.55723 0.55986 0.50849 0.0
C1057 C 0.5864 0.54495 0.50832 0.0
C1058 C 0.55752 0.58707 0.44108 0.0
C1059 C 0.51831 0.58976 0.48468 0.0
N1060 N 0.57704 0.55886 0.48895 0.0
N1061 N 0.52833 0.5767 0.50526 0.0
H1062 H 0.42364 0.99015 0.3604 0.0
H1063 H 0.46246 0.04148 0.61024 0.0
H1064 H 0.37869 0.94697 0.48037 0.0
H1065 H 0.47154 0.09223 0.49533 0.0
H1066 H 0.42895 0.00678 0.56476 0.0
H1067 H 0.43858 0.0287 0.40757 0.0
C1068 C 0.41633 0.989 0.39613 0.0
C1069 C 0.40018 0.96556 0.41679 0.0
C1070 C 0.43777 0.02566 0.55013 0.0
C1071 C 0.4176 0.009 0.47121 0.0
C1072 C 0.45691 0.04531 0.57593 0.0
C1073 C 0.46978 0.0695 0.55617 0.0
C1074 C 0.43217 0.03024 0.50379 0.0
C1075 C 0.46198 0.07376 0.51171 0.0
C1076 C 0.42477 0.01087 0.42302 0.0
C1077 C 0.39116 0.96478 0.46325 0.0
N1078 N 0.44408 0.05415 0.48634 0.0
N1079 N 0.40059 0.98617 0.48952 0.0
H1080 H 0.18064 0.02182 0.36972 0.0
H1081 H 0.24059 0.05164 0.63253 0.0
H1082 H 0.2496 0.0898 0.40446 0.0
H1083 H 0.16213 -0.00092 0.60595 0.0
H1084 H 0.24631 0.06249 0.54738 0.0
H1085 H 0.17602 0.00933 0.45399 0.0
C1086 C 0.19497 0.034 0.39478 0.0
C1087 C 0.21543 0.05706 0.37973 0.0
C1088 C 0.22783 0.04863 0.5602 0.0
C1089 C 0.21026 0.04276 0.47659 0.0
C1090 C 0.22453 0.04243 0.60887 0.0
C1091 C 0.20081 0.02451 0.62667 0.0
C1092 C 0.20736 0.03655 0.52867 0.0
C1093 C 0.18073 0.01316 0.59406 0.0
C1094 C 0.19223 0.02691 0.44305 0.0
C1095 C 0.23343 0.07194 0.41424 0.0
N1096 N 0.18449 0.01925 0.54672 0.0
N1097 N 0.23042 0.06458 0.46086 0.0
H1098 H 0.97841 0.12951 0.67225 0.0
H1099 H 0.96896 0.18441 0.41638 0.0
H1100 H 0.01359 0.2086 0.63874 0.0
H1101 H 0.94724 0.10652 0.43904 0.0
H1102 H 0.98125 0.19289 0.50042 0.0
H1103 H 0.96151 0.11976 0.59019 0.0
C1104 C 0.98205 0.14477 0.64805 0.0
C1105 C -0.00261 0.16989 0.66229 0.0
C1106 C 0.97377 0.17391 0.48701 0.0
C1107 C 0.97855 0.15899 0.56849 0.0
C1108 C 0.96683 0.16907 0.43884 0.0
C1109 C 0.95698 0.14467 0.4202 0.0
C1110 C 0.97076 0.15422 0.51722 0.0
C1111 C 0.9546 0.12559 0.45151 0.0
C1112 C 0.97269 0.13924 0.60108 0.0
C1113 C 0.00191 0.18896 0.62921 0.0
N1114 N 0.96136 0.13073 0.49833 0.0
N1115 N -0.00735 0.18314 0.58405 0.0
H1116 H 0.86357 0.82533 0.6977 0.0
H1117 H 0.80947 0.77393 0.43453 0.0
H1118 H 0.78519 0.79108 0.65952 0.0
H1119 H 0.88859 0.8203 0.46545 0.0
H1120 H 0.80017 0.77535 0.51928 0.0
H1121 H 0.87307 0.8183 0.61552 0.0
C1122 C 0.84831 0.81582 0.67243 0.0
C1123 C 0.82356 0.80882 0.68545 0.0
C1124 C 0.81959 0.78523 0.50749 0.0
C1125 C 0.83426 0.80103 0.59138 0.0
C1126 C 0.8249 0.78445 0.45902 0.0
C1127 C 0.84984 0.7973 0.44247 0.0
C1128 C 0.83936 0.79879 0.53995 0.0
C1129 C 0.86905 0.81048 0.47618 0.0
C1130 C 0.85375 0.81205 0.62538 0.0
C1131 C 0.80457 0.7969 0.65095 0.0
N1132 N 0.86342 0.81089 0.52314 0.0
N1133 N 0.8103 0.7935 0.60565 0.0
H1134 H 0.87407 0.3502 0.96035 0.0
H1135 H 0.83139 0.33961 0.68695 0.0
H1136 H 0.80544 0.28847 0.90441 0.0
H1137 H 0.90972 0.38061 0.72707 0.0
H1138 H 0.82039 0.3252 0.76948 0.0
H1139 H 0.88634 0.3666 0.87803 0.0
C1140 C 0.86153 0.34027 0.93095 0.0
C1141 C 0.83879 0.31786 0.93922 0.0
C1142 C 0.84001 0.33726 0.76023 0.0
C1143 C 0.8525 0.33648 0.84558 0.0
C1144 C 0.84632 0.34545 0.71299 0.0
C1145 C 0.87156 0.36115 0.69974 0.0
C1146 C 0.85898 0.34513 0.79505 0.0
C1147 C 0.89005 0.36824 0.73545 0.0
C1148 C 0.86859 0.3495 0.88406 0.0
C1149 C 0.82327 0.30567 0.89976 0.0
N1150 N 0.8834 0.36034 0.78152 0.0
N1151 N 0.83034 0.31515 0.85496 0.0
H1152 H 0.68309 0.49882 0.93135 0.0
H1153 H 0.67242 0.56213 0.68911 0.0
H1154 H 0.72809 0.57865 0.90628 0.0
H1155 H 0.66567 0.48859 0.69225 0.0
H1156 H 0.68506 0.56769 0.77347 0.0
H1157 H 0.66691 0.4935 0.84895 0.0
C1158 C 0.68895 0.51526 0.90897 0.0
C1159 C 0.70675 0.53923 0.92557 0.0
C1160 C 0.68063 0.55029 0.75558 0.0
C1161 C 0.68862 0.53333 0.83172 0.0
C1162 C 0.67356 0.54714 0.70734 0.0
C1163 C 0.66746 0.52463 0.68342 0.0
C1164 C 0.68121 0.53066 0.78047 0.0
C1165 C 0.66937 0.50593 0.70926 0.0
C1166 C 0.68002 0.51221 0.86188 0.0
C1167 C 0.71425 0.55989 0.8948 0.0
N1168 N 0.67579 0.50924 0.75637 0.0
N1169 N 0.70513 0.5565 0.84945 0.0
H1170 H 0.53133 0.19718 0.71576 0.0
H1171 H 0.47176 0.13456 0.9706 0.0
H1172 H 0.49723 0.11791 0.74682 0.0
H1173 H 0.51654 0.21483 0.94901 0.0
H1174 H 0.47739 0.12821 0.88621 0.0
H1175 H 0.52163 0.20416 0.79802 0.0
C1176 C 0.52128 0.18121 0.73945 0.0
C1177 C 0.51506 0.15694 0.72446 0.0
C1178 C 0.48603 0.14724 0.89992 0.0
C1179 C 0.5043 0.16474 0.81853 0.0
C1180 C 0.48288 0.15087 0.94828 0.0
C1181 C 0.49382 0.17527 0.96735 0.0
C1182 C 0.50011 0.16814 0.86997 0.0
C1183 C 0.50791 0.19566 0.93625 0.0
C1184 C 0.51602 0.18521 0.78654 0.0
C1185 C 0.50245 0.13696 0.75693 0.0
N1186 N 0.51061 0.19165 0.88924 0.0
N1187 N 0.4976 0.1413 0.80224 0.0
H1188 H 0.47129 0.68031 0.28635 0.0
H1189 H 0.55866 0.71564 0.05268 0.0
H1190 H 0.54968 0.70121 0.29117 0.0
H1191 H 0.48127 0.69827 0.05033 0.0
H1192 H 0.55546 0.70896 0.13933 0.0
H1193 H 0.47471 0.6867 0.19992 0.0
C1194 C 0.48931 0.68645 0.26934 0.0
C1195 C 0.51021 0.69016 0.29631 0.0
C1196 C 0.53915 0.70652 0.11984 0.0
C1197 C 0.51421 0.69727 0.19667 0.0
C1198 C 0.54089 0.7101 0.07021 0.0
C1199 C 0.52024 0.70768 0.04402 0.0
C1200 C 0.51657 0.70036 0.14362 0.0
C1201 C 0.49778 0.70066 0.06897 0.0
C1202 C 0.49122 0.69002 0.21982 0.0
C1203 C 0.53307 0.69822 0.27204 0.0
N1204 N 0.49659 0.69736 0.1172 0.0
N1205 N 0.53442 0.70135 0.22367 0.0
H1206 H 0.27719 0.81808 0.03748 0.0
H1207 H 0.35884 0.91294 0.24552 0.0
H1208 H 0.33124 0.89671 1.01614 0.0
H1209 H 0.31131 0.83321 0.26851 0.0
H1210 H 0.34237 0.90817 0.16464 0.0
H1211 H 0.28348 0.82407 0.12372 0.0
C1212 C 0.29014 0.8367 0.05078 0.0
C1213 C 0.30391 0.85686 0.01908 0.0
C1214 C 0.33515 0.8917 0.18738 0.0
C1215 C 0.31117 0.86383 0.11839 0.0
C1216 C 0.34443 0.89444 0.23376 0.0
C1217 C 0.33642 0.87343 0.26371 0.0
C1218 C 0.31792 0.86764 0.17018 0.0
C1219 C 0.31779 0.84991 0.24666 0.0
C1220 C 0.29373 0.84007 0.10022 0.0
C1221 C 0.32031 0.88055 0.03889 0.0
N1222 N 0.30943 0.84757 0.20066 0.0
N1223 N 0.3236 0.8833 0.08708 0.0
H1224 H 0.17949 0.52868 0.31821 0.0
H1225 H 0.11923 0.444 0.08495 0.0
H1226 H 0.11037 0.45725 0.32261 0.0
H1227 H 0.18361 0.51904 0.08275 0.0
H1228 H 0.11455 0.44851 0.17081 0.0
H1229 H 0.18059 0.52518 0.23189 0.0
C1230 C 0.16435 0.5123 0.30112 0.0
C1231 C 0.14463 0.49335 0.32815 0.0
C1232 C 0.1296 0.46404 0.15146 0.0
C1233 C 0.14604 0.48903 0.22811 0.0
C1234 C 0.13223 0.46155 0.10228 0.0
C1235 C 0.15206 0.48107 0.07639 0.0
C1236 C 0.14695 0.4862 0.17516 0.0
C1237 C 0.1683 0.50331 0.10111 0.0
C1238 C 0.16506 0.51028 0.25151 0.0
C1239 C 0.12591 0.47236 0.30344 0.0
N1240 N 0.16549 0.50516 0.14895 0.0
N1241 N 0.1271 0.47074 0.25491 0.0
H1242 H 0.22871 0.08684 0.07994 0.0
H1243 H 0.198 0.97272 0.90617 0.0
H1244 H 0.2076 0.01219 0.12865 0.0
H1245 H 0.21365 0.04586 0.85772 0.0
H1246 H 0.21219 0.98978 0.98622 0.0
H1247 H 0.23412 0.07526 0.99909 0.0
C1248 C 0.22602 0.06819 0.07382 0.0
C1249 C 0.21768 0.05044 0.11106 0.0
C1250 C 0.21316 0.00233 0.95799 0.0
C1251 C 0.22305 0.03671 0.01791 0.0
C1252 C 0.20526 0.99265 0.91209 0.0
C1253 C 0.20466 0.00791 0.87521 0.0
C1254 C 0.22022 0.02748 0.96754 0.0
C1255 C 0.21405 0.03351 0.88495 0.0
C1256 C 0.22891 0.06152 0.0275 0.0
C1257 C 0.21428 0.02652 0.10112 0.0
N1258 N 0.22099 0.04238 0.93041 0.0
N1259 N 0.2165 0.0202 0.05529 0.0
H1260 H 0.90536 0.10471 0.12715 0.0
H1261 H 0.02829 0.19446 0.97505 0.0
H1262 H 0.97718 0.15513 0.19136 0.0
H1263 H 0.95728 0.14127 0.91157 0.0
H1264 H 0.00857 0.1845 0.05373 0.0
H1265 H 0.92269 0.12185 0.04887 0.0
C1266 C 0.92483 0.11959 0.12491 0.0
C1267 C 0.93992 0.12827 0.16614 0.0
C1268 C -0.00284 0.17518 0.0227 0.0
C1269 C 0.96002 0.14805 0.07554 0.0
C1270 C 0.00838 0.18088 0.97757 0.0
C1271 C -0.00554 0.16852 0.93649 0.0
C1272 C 0.97172 0.15681 0.02729 0.0
C1273 C 0.96872 0.1513 0.94212 0.0
C1274 C 0.93469 0.12938 0.07994 0.0
C1275 C 0.96486 0.14782 0.16069 0.0
N1276 N 0.95826 0.14574 0.98675 0.0
N1277 N 0.97421 0.15686 0.11615 0.0
H1278 H 0.79056 0.80474 0.99302 0.0
H1279 H 0.88971 0.78916 0.15237 0.0
H1280 H 0.8513 0.79678 0.93463 0.0
H1281 H 0.83332 0.80377 0.2116 0.0
H1282 H 0.87077 0.78384 0.07368 0.0
H1283 H 0.80066 0.7962 0.07272 0.0
C1284 C 0.80572 0.80062 0.99683 0.0
C1285 C 0.82021 0.80163 0.95698 0.0
C1286 C 0.86226 0.78789 0.1038 0.0
C1287 C 0.83219 0.79223 0.04884 0.0
C1288 C 0.87304 0.79092 0.14893 0.0
C1289 C 0.86325 0.79722 0.18867 0.0
C1290 C 0.84151 0.79138 0.09781 0.0
C1291 C 0.84148 0.79892 0.18203 0.0
C1292 C 0.81154 0.79587 0.04252 0.0
C1293 C 0.83955 0.79607 0.96417 0.0
N1294 N 0.83154 0.79638 0.13728 0.0
N1295 N 0.8452 0.79197 1.00931 0.0
H1296 H 0.86693 0.29749 0.23605 0.0
H1297 H 0.87181 0.34084 0.4667 0.0
H1298 H 0.87084 0.36664 0.1918 0.0
H1299 H 0.89393 0.41287 0.40232 0.0
H1300 H 0.87352 0.32452 0.38793 0.0
H1301 H 0.88062 0.3148 0.31587 0.0
C1302 C 0.87145 0.31671 0.24295 0.0
C1303 C 0.86791 0.33072 0.20717 0.0
C1304 C 0.87873 0.3441 0.39081 0.0
C1305 C 0.88193 0.35024 0.29997 0.0
C1306 C 0.87773 0.3534 0.43618 0.0
C1307 C 0.8825 0.37816 0.44116 0.0
C1308 C 0.88465 0.35977 0.35011 0.0
C1309 C 0.88977 0.39353 0.40017 0.0
C1310 C 0.87875 0.32644 0.28904 0.0
C1311 C 0.87371 0.35535 0.2181 0.0
N1312 N 0.89029 0.38403 0.35658 0.0
N1313 N 0.88002 0.36415 0.26371 0.0
H1314 H 0.6624 0.52032 0.17243 0.0
H1315 H 0.68537 0.53416 0.45636 0.0
H1316 H 0.73566 0.55937 0.23813 0.0
H1317 H 0.61223 0.49238 0.39073 0.0
H1318 H 0.70377 0.5497 0.37679 0.0
H1319 H 0.64318 0.51616 0.2517 0.0
C1320 C 0.67442 0.52862 0.20325 0.0
C1321 C 0.70062 0.54005 0.19873 0.0
C1322 C 0.68363 0.53739 0.37993 0.0
C1323 C 0.67892 0.53499 0.28958 0.0
C1324 C 0.67314 0.52866 0.42545 0.0
C1325 C 0.64728 0.51172 0.43026 0.0
C1326 C 0.66813 0.52916 0.339 0.0
C1327 C 0.63234 0.50513 0.38876 0.0
C1328 C 0.66349 0.52604 0.24862 0.0
C1329 C 0.71533 0.55017 0.24007 0.0
N1330 N 0.64296 0.51362 0.34507 0.0
N1331 N 0.70433 0.54719 0.28362 0.0
H1332 H 0.50236 0.16367 0.19422 0.0
H1333 H 0.49491 0.17829 0.47845 0.0
H1334 H 0.4671 0.20174 0.26058 0.0
H1335 H 0.52858 0.13873 0.4119 0.0
H1336 H 0.4798 0.18257 0.39943 0.0
H1337 H 0.50726 0.14951 0.27378 0.0
C1338 C 0.49515 0.16856 0.2253 0.0
C1339 C 0.48451 0.18408 0.2207 0.0
C1340 C 0.49027 0.1727 0.40227 0.0
C1341 C 0.49041 0.16839 0.31194 0.0
C1342 C 0.49877 0.17018 0.44748 0.0
C1343 C 0.5133 0.15843 0.45187 0.0
C1344 C 0.49633 0.16339 0.36123 0.0
C1345 C 0.51778 0.14829 0.4103 0.0
C1346 C 0.49812 0.16067 0.27082 0.0
C1347 C 0.47571 0.19004 0.26242 0.0
N1348 N 0.50958 0.1512 0.36693 0.0
N1349 N 0.47908 0.18245 0.30609 0.0
H1350 H 0.50513 0.68346 0.81081 0.0
H1351 H 0.51395 0.71057 0.5277 0.0
H1352 H 0.52616 0.75578 0.7487 0.0
H1353 H 0.48743 0.63703 0.58926 0.0
H1354 H 0.525 0.72883 0.60841 0.0
H1355 H 0.50469 0.66725 0.73006 0.0
C1356 C 0.51001 0.69599 0.7804 0.0
C1357 C 0.51537 0.7209 0.78658 0.0
C1358 C 0.51706 0.70872 0.60413 0.0
C1359 C 0.51484 0.70258 0.69414 0.0
C1360 C 0.51095 0.69836 0.55797 0.0
C1361 C 0.49954 0.67224 0.55172 0.0
C1362 C 0.51178 0.69283 0.64419 0.0
C1363 C 0.4959 0.65726 0.59241 0.0
C1364 C 0.50966 0.68675 0.73426 0.0
C1365 C 0.52153 0.73632 0.74573 0.0
N1366 N 0.50176 0.66769 0.63673 0.0
N1367 N 0.52092 0.7269 0.70148 0.0
H1368 H 0.33031 0.88088 0.78637 0.0
H1369 H 0.29977 0.85483 0.50831 0.0
H1370 H 0.26001 0.82227 0.72975 0.0
H1371 H 0.37107 0.91201 0.5644 0.0
H1372 H 0.28143 0.84944 0.58848 0.0
H1373 H 0.34202 0.89933 0.70587 0.0
C1374 C 0.31698 0.87246 0.75737 0.0
C1375 C 0.29426 0.84997 0.76452 0.0
C1376 C 0.30096 0.86357 0.58306 0.0
C1377 C 0.30766 0.87043 0.67231 0.0
C1378 C 0.31135 0.86679 0.53712 0.0
C1379 C 0.33703 0.88365 0.52982 0.0
C1380 C 0.31642 0.87726 0.62185 0.0
C1381 C 0.35124 0.8985 0.56863 0.0
C1382 C 0.32374 0.88279 0.71127 0.0
C1383 C 0.27783 0.83954 0.72554 0.0
N1384 N 0.34089 0.8947 0.61299 0.0
N1385 N 0.28498 0.8496 0.68111 0.0
H1386 H 0.15478 0.47279 0.56644 0.0
H1387 H 0.14594 0.49652 0.84552 0.0
H1388 H 0.13454 0.52578 0.62243 0.0
H1389 H 0.17391 0.44976 0.78886 0.0
H1390 H 0.13162 0.49945 0.76486 0.0
H1391 H 0.15163 0.45605 0.64762 0.0
C1392 C 0.1488 0.48027 0.59549 0.0
C1393 C 0.14504 0.50077 0.58778 0.0
C1394 C 0.14043 0.4881 0.77029 0.0
C1395 C 0.14198 0.48223 0.68085 0.0
C1396 C 0.14838 0.48627 0.81645 0.0
C1397 C 0.16133 0.47309 0.8238 0.0
C1398 C 0.14545 0.47663 0.73138 0.0
C1399 C 0.16426 0.46038 0.78466 0.0
C1400 C 0.14728 0.47095 0.64198 0.0
C1401 C 0.13776 0.51006 0.62693 0.0
N1402 N 0.15671 0.46271 0.74021 0.0
N1403 N 0.13681 0.50099 0.67172 0.0
loop_
_geom_bond_atom_site_label_1
_geom_bond_atom_site_label_2
_geom_bond_distance
_geom_bond_site_symmetry_2
_ccdc_geom_bond_type
C0 C1 1.351 . S
C0 N3 1.368 . S
C0 H5 0.931 . S
C1 C0 1.351 . S
C1 N2 1.373 . S
C1 H29 0.930 . S
N2 C1 1.373 . S
N2 C4 1.340 . S
N3 C0 1.368 . S
N3 C4 1.321 . S
N3 Co6 2.135 1_565 S
C4 N2 1.340 . S
C4 N3 1.321 . S
C4 H28 0.930 . S
H5 C0 0.931 . S
Co6 N3 2.135 1_545 S
Co6 N9 2.121 . S
Co6 O14 2.055 1_545 S
Co6 O17 2.065 . S
Co6 N20 2.140 . S
C7 O8 1.227 . S
C7 O17 1.287 . S
O8 C7 1.227 . S
N9 Co6 2.121 . S
N9 C11 1.375 . S
N9 C12 1.313 . S
C10 C11 1.338 . S
C10 N13 1.377 . S
C10 H30 0.930 . S
C11 N9 1.375 . S
C11 C10 1.338 . S
C11 H15 0.931 . S
C12 N9 1.313 . S
C12 N13 1.344 . S
C12 H16 0.930 . S
N13 C10 1.377 . S
N13 C12 1.344 . S
O14 Co6 2.055 1_565 S
O14 C18 1.253 1_565 S
H15 C11 0.931 . S
H16 C12 0.930 . S
O17 Co6 2.065 . S
O17 C7 1.287 . S
C18 O14 1.253 1_545 S
C18 O19 1.227 . S
O19 C18 1.227 . S
N20 Co6 2.140 . S
N20 C23 1.346 . S
N20 C24 1.345 . S
C21 C22 1.387 . S
C21 C25 1.391 . S
C22 C21 1.387 . S
C22 C23 1.369 . S
C22 H31 0.929 . S
C23 N20 1.346 . S
C23 C22 1.369 . S
C23 H26 0.928 . S
C24 N20 1.345 . S
C24 C25 1.371 . S
C24 H27 0.931 . S
C25 C21 1.391 . S
C25 C24 1.371 . S
C25 H32 0.930 . S
H26 C23 0.928 . S
H27 C24 0.931 . S
H28 C4 0.930 . S
H29 C1 0.930 . S
H30 C10 0.930 . S
H31 C22 0.929 . S
H32 C25 0.930 . S
C33 C34 1.351 . S
C33 N36 1.368 . S
C33 H38 0.931 . S
C34 C33 1.351 . S
C34 N35 1.373 . S
C34 H62 0.930 . S
N35 C34 1.373 . S
N35 C37 1.340 . S
N36 C33 1.368 . S
N36 C37 1.321 . S
N36 Co39 2.135 . S
C37 N35 1.340 . S
C37 N36 1.321 . S
C37 H61 0.930 . S
H38 C33 0.931 . S
Co39 N36 2.135 . S
Co39 N42 2.121 1_455 S
Co39 O47 2.055 . S
Co39 O50 2.039 . S
Co39 N53 2.140 1_455 S
C40 O41 1.227 . S
C40 O50 1.265 . S
O41 C40 1.227 . S
N42 Co39 2.121 1_655 S
N42 C44 1.375 . S
N42 C45 1.313 . S
C43 C44 1.338 . S
C43 N46 1.377 . S
C43 H63 0.930 . S
C44 N42 1.375 . S
C44 C43 1.338 . S
C44 H48 0.931 . S
C45 N42 1.313 . S
C45 N46 1.344 . S
C45 H49 0.930 . S
N46 C43 1.377 . S
N46 C45 1.344 . S
O47 Co39 2.055 . S
O47 C51 1.253 . S
H48 C44 0.931 . S
H49 C45 0.930 . S
O50 Co39 2.039 . S
O50 C40 1.265 . S
C51 O47 1.253 . S
C51 O52 1.233 . S
O52 C51 1.233 . S
N53 Co39 2.140 1_655 S
N53 C56 1.346 . S
N53 C57 1.345 . S
C54 C55 1.387 . S
C54 C58 1.391 . S
C55 C54 1.387 . S
C55 C56 1.369 . S
C55 H64 0.929 . S
C56 N53 1.346 . S
C56 C55 1.369 . S
C56 H59 0.928 . S
C57 N53 1.345 . S
C57 C58 1.371 . S
C57 H60 0.931 . S
C58 C54 1.391 . S
C58 C57 1.371 . S
C58 H65 0.930 . S
H59 C56 0.928 . S
H60 C57 0.931 . S
H61 C37 0.930 . S
H62 C34 0.930 . S
H63 C43 0.930 . S
H64 C55 0.929 . S
H65 C58 0.930 . S
C66 C67 1.351 . S
C66 N69 1.368 . S
C66 H71 0.931 . S
C67 C66 1.351 . S
C67 N68 1.373 . S
C67 H95 0.930 . S
N68 C67 1.373 . S
N68 C70 1.340 . S
N69 C66 1.368 . S
N69 C70 1.321 . S
N69 Co72 2.135 . S
C70 N68 1.340 . S
C70 N69 1.321 . S
C70 H94 0.930 . S
H71 C66 0.931 . S
Co72 N69 2.135 . S
Co72 N75 2.121 . S
Co72 O80 2.055 . S
Co72 O83 2.039 . S
Co72 N86 2.140 . S
C73 O74 1.227 . S
C73 O83 1.265 . S
O74 C73 1.227 . S
N75 Co72 2.121 . S
N75 C77 1.375 . S
N75 C78 1.313 . S
C76 C77 1.338 . S
C76 N79 1.377 . S
C76 H96 0.930 . S
C77 N75 1.375 . S
C77 C76 1.338 . S
C77 H81 0.931 . S
C78 N75 1.313 . S
C78 N79 1.344 . S
C78 H82 0.930 . S
N79 C76 1.377 . S
N79 C78 1.344 . S
O80 Co72 2.055 . S
O80 C84 1.253 . S
H81 C77 0.931 . S
H82 C78 0.930 . S
O83 Co72 2.039 . S
O83 C73 1.265 . S
C84 O80 1.253 . S
C84 O85 1.227 . S
O85 C84 1.227 . S
N86 Co72 2.140 . S
N86 C89 1.346 . S
N86 C90 1.345 . S
C87 C88 1.387 . S
C87 C91 1.391 . S
C88 C87 1.387 . S
C88 C89 1.369 . S
C88 H97 0.929 . S
C89 N86 1.346 . S
C89 C88 1.369 . S
C89 H92 0.928 . S
C90 N86 1.345 . S
C90 C91 1.371 . S
C90 H93 0.931 . S
C91 C87 1.391 . S
C91 C90 1.371 . S
C91 H98 0.930 . S
H92 C89 0.928 . S
H93 C90 0.931 . S
H94 C70 0.930 . S
H95 C67 0.930 . S
H96 C76 0.930 . S
H97 C88 0.929 . S
H98 C91 0.930 . S
C99 C100 1.351 . S
C99 N102 1.368 . S
C99 H104 0.931 . S
C100 C99 1.351 . S
C100 N101 1.373 . S
C100 H128 0.930 . S
N101 C100 1.373 . S
N101 C103 1.340 . S
N102 C99 1.368 . S
N102 C103 1.321 . S
N102 Co105 2.135 1_655 S
C103 N101 1.340 . S
C103 N102 1.321 . S
C103 H127 0.930 . S
H104 C99 0.931 . S
Co105 N102 2.135 1_455 S
Co105 N108 2.121 . S
Co105 O113 2.055 1_455 S
Co105 O116 2.065 . S
Co105 N119 2.140 . S
C106 O107 1.227 . S
C106 O116 1.287 . S
O107 C106 1.227 . S
N108 Co105 2.121 . S
N108 C110 1.375 . S
N108 C111 1.313 . S
C109 C110 1.338 . S
C109 N112 1.377 . S
C109 H129 0.930 . S
C110 N108 1.375 . S
C110 C109 1.338 . S
C110 H114 0.931 . S
C111 N108 1.313 . S
C111 N112 1.344 . S
C111 H115 0.930 . S
N112 C109 1.377 . S
N112 C111 1.344 . S
O113 Co105 2.055 1_655 S
O113 C117 1.253 1_655 S
H114 C110 0.931 . S
H115 C111 0.930 . S
O116 Co105 2.065 . S
O116 C106 1.287 . S
C117 O113 1.253 1_455 S
C117 O118 1.227 . S
O118 C117 1.227 . S
N119 Co105 2.140 . S
N119 C122 1.346 . S
N119 C123 1.345 . S
C120 C121 1.387 . S
C120 C124 1.391 . S
C121 C120 1.387 . S
C121 C122 1.369 . S
C121 H130 0.929 . S
C122 N119 1.346 . S
C122 C121 1.369 . S
C122 H125 0.928 . S
C123 N119 1.345 . S
C123 C124 1.371 . S
C123 H126 0.931 . S
C124 C120 1.391 . S
C124 C123 1.371 . S
C124 H131 0.930 . S
H125 C122 0.928 . S
H126 C123 0.931 . S
H127 C103 0.930 . S
H128 C100 0.930 . S
H129 C109 0.930 . S
H130 C121 0.929 . S
H131 C124 0.930 . S
C132 C133 1.351 . S
C132 N135 1.368 . S
C132 H137 0.931 . S
C133 C132 1.351 . S
C133 N134 1.373 . S
C133 H161 0.930 . S
N134 C133 1.373 . S
N134 C136 1.340 . S
N135 C132 1.368 . S
N135 C136 1.321 . S
N135 Co138 2.135 . S
C136 N134 1.340 . S
C136 N135 1.321 . S
C136 H160 0.930 . S
H137 C132 0.931 . S
Co138 N135 2.135 . S
Co138 N141 2.121 . S
Co138 O146 2.055 . S
Co138 O149 2.039 . S
Co138 N152 2.140 . S
C139 O140 1.227 . S
C139 O149 1.265 . S
O140 C139 1.227 . S
N141 Co138 2.121 . S
N141 C143 1.375 . S
N141 C144 1.313 . S
C142 C143 1.338 . S
C142 N145 1.377 . S
C142 H162 0.930 . S
C143 N141 1.375 . S
C143 C142 1.338 . S
C143 H147 0.931 . S
C144 N141 1.313 . S
C144 N145 1.344 . S
C144 H148 0.930 . S
N145 C142 1.377 . S
N145 C144 1.344 . S
O146 Co138 2.055 . S
O146 C150 1.253 . S
H147 C143 0.931 . S
H148 C144 0.930 . S
O149 Co138 2.039 . S
O149 C139 1.265 . S
C150 O146 1.253 . S
C150 O151 1.227 . S
O151 C150 1.227 . S
N152 Co138 2.140 . S
N152 C155 1.346 . S
N152 C156 1.345 . S
C153 C154 1.387 . S
C153 C157 1.391 . S
C154 C153 1.387 . S
C154 C155 1.369 . S
C154 H163 0.929 . S
C155 N152 1.346 . S
C155 C154 1.369 . S
C155 H158 0.928 . S
C156 N152 1.345 . S
C156 C157 1.371 . S
C156 H159 0.931 . S
C157 C153 1.391 . S
C157 C156 1.371 . S
C157 H164 0.930 . S
H158 C155 0.928 . S
H159 C156 0.931 . S
H160 C136 0.930 . S
H161 C133 0.930 . S
H162 C142 0.930 . S
H163 C154 0.929 . S
H164 C157 0.930 . S
C165 C166 1.351 . S
C165 N168 1.368 . S
C165 H170 0.931 . S
C166 C165 1.351 . S
C166 N167 1.373 . S
C166 H194 0.930 . S
N167 C166 1.373 . S
N167 C169 1.340 . S
N168 C165 1.368 . S
N168 C169 1.321 . S
N168 Co171 2.135 . S
C169 N167 1.340 . S
C169 N168 1.321 . S
C169 H193 0.930 . S
H170 C165 0.931 . S
Co171 N168 2.135 . S
Co171 N174 2.121 1_545 S
Co171 O179 2.055 . S
Co171 O182 2.039 . S
Co171 N185 2.140 1_545 S
C172 O173 1.227 . S
C172 O182 1.265 . S
O173 C172 1.227 . S
N174 Co171 2.121 1_565 S
N174 C176 1.375 . S
N174 C177 1.313 . S
C175 C176 1.338 . S
C175 N178 1.377 . S
C175 H195 0.930 . S
C176 N174 1.375 . S
C176 C175 1.338 . S
C176 H180 0.931 . S
C177 N174 1.313 . S
C177 N178 1.344 . S
C177 H181 0.930 . S
N178 C175 1.377 . S
N178 C177 1.344 . S
O179 Co171 2.055 . S
O179 C183 1.253 . S
H180 C176 0.931 . S
H181 C177 0.930 . S
O182 Co171 2.039 . S
O182 C172 1.265 . S
C183 O179 1.253 . S
C183 O184 1.233 . S
O184 C183 1.233 . S
N185 Co171 2.140 1_565 S
N185 C188 1.346 . S
N185 C189 1.345 . S
C186 C187 1.387 . S
C186 C190 1.391 . S
C187 C186 1.387 . S
C187 C188 1.369 . S
C187 H196 0.929 . S
C188 N185 1.346 . S
C188 C187 1.369 . S
C188 H191 0.928 . S
C189 N185 1.345 . S
C189 C190 1.371 . S
C189 H192 0.931 . S
C190 C186 1.391 . S
C190 C189 1.371 . S
C190 H197 0.930 . S
H191 C188 0.928 . S
H192 C189 0.931 . S
H193 C169 0.930 . S
H194 C166 0.930 . S
H195 C175 0.930 . S
H196 C187 0.929 . S
H197 C190 0.930 . S
C198 C199 1.351 . S
C198 N201 1.368 . S
C198 H203 0.931 . S
C199 C198 1.351 . S
C199 N200 1.373 . S
C199 H227 0.930 . S
N200 C199 1.373 . S
N200 C202 1.340 . S
N201 C198 1.368 . S
N201 C202 1.321 . S
N201 Co204 2.135 . S
C202 N200 1.340 . S
C202 N201 1.321 . S
C202 H226 0.930 . S
H203 C198 0.931 . S
Co204 N201 2.135 . S
Co204 N207 2.121 . S
Co204 O212 2.055 . S
Co204 O215 2.039 . S
Co204 N218 2.140 . S
C205 O206 1.227 . S
C205 O215 1.265 . S
O206 C205 1.227 . S
N207 Co204 2.121 . S
N207 C209 1.375 . S
N207 C210 1.313 . S
C208 C209 1.338 . S
C208 N211 1.377 . S
C208 H228 0.930 . S
C209 N207 1.375 . S
C209 C208 1.338 . S
C209 H213 0.931 . S
C210 N207 1.313 . S
C210 N211 1.344 . S
C210 H214 0.930 . S
N211 C208 1.377 . S
N211 C210 1.344 . S
O212 Co204 2.055 . S
O212 C216 1.253 . S
H213 C209 0.931 . S
H214 C210 0.930 . S
O215 Co204 2.039 . S
O215 C205 1.265 . S
C216 O212 1.253 . S
C216 O217 1.227 . S
O217 C216 1.227 . S
N218 Co204 2.140 . S
N218 C221 1.346 . S
N218 C222 1.345 . S
C219 C220 1.387 . S
C219 C223 1.391 . S
C220 C219 1.387 . S
C220 C221 1.369 . S
C220 H229 0.929 . S
C221 N218 1.346 . S
C221 C220 1.369 . S
C221 H224 0.928 . S
C222 N218 1.345 . S
C222 C223 1.371 . S
C222 H225 0.931 . S
C223 C219 1.391 . S
C223 C222 1.371 . S
C223 H230 0.930 . S
H224 C221 0.928 . S
H225 C222 0.931 . S
H226 C202 0.930 . S
H227 C199 0.930 . S
H228 C208 0.930 . S
H229 C220 0.929 . S
H230 C223 0.930 . S
C231 C232 1.351 . S
C231 N234 1.368 . S
C231 H236 0.931 . S
C232 C231 1.351 . S
C232 N233 1.373 . S
C232 H260 0.930 . S
N233 C232 1.373 . S
N233 C235 1.340 . S
N234 C231 1.368 . S
N234 C235 1.321 . S
N234 Co237 2.135 . S
C235 N233 1.340 . S
C235 N234 1.321 . S
C235 H259 0.930 . S
H236 C231 0.931 . S
Co237 N234 2.135 . S
Co237 N240 2.121 . S
Co237 O245 2.055 . S
Co237 O248 2.039 . S
Co237 N251 2.140 . S
C238 O239 1.227 . S
C238 O248 1.265 . S
O239 C238 1.227 . S
N240 Co237 2.121 . S
N240 C242 1.375 . S
N240 C243 1.313 . S
C241 C242 1.338 . S
C241 N244 1.377 . S
C241 H261 0.930 . S
C242 N240 1.375 . S
C242 C241 1.338 . S
C242 H246 0.931 . S
C243 N240 1.313 . S
C243 N244 1.344 . S
C243 H247 0.930 . S
N244 C241 1.377 . S
N244 C243 1.344 . S
O245 Co237 2.055 . S
O245 C249 1.253 . S
H246 C242 0.931 . S
H247 C243 0.930 . S
O248 Co237 2.039 . S
O248 C238 1.265 . S
C249 O245 1.253 . S
C249 O250 1.227 . S
O250 C249 1.227 . S
N251 Co237 2.140 . S
N251 C254 1.346 . S
N251 C255 1.345 . S
C252 C253 1.387 . S
C252 C256 1.391 . S
C253 C252 1.387 . S
C253 C254 1.369 . S
C253 H262 0.929 . S
C254 N251 1.346 . S
C254 C253 1.369 . S
C254 H257 0.928 . S
C255 N251 1.345 . S
C255 C256 1.371 . S
C255 H258 0.931 . S
C256 C252 1.391 . S
C256 C255 1.371 . S
C256 H263 0.930 . S
H257 C254 0.928 . S
H258 C255 0.931 . S
H259 C235 0.930 . S
H260 C232 0.930 . S
H261 C241 0.930 . S
H262 C253 0.929 . S
H263 C256 0.930 . S
C264 C265 1.351 . S
C264 N267 1.368 . S
C264 H269 0.931 . S
C265 C264 1.351 . S
C265 N266 1.373 . S
C265 H293 0.930 . S
N266 C265 1.373 . S
N266 C268 1.340 . S
N267 C264 1.368 . S
N267 C268 1.321 . S
N267 Co270 2.135 . S
C268 N266 1.340 . S
C268 N267 1.321 . S
C268 H292 0.930 . S
H269 C264 0.931 . S
Co270 N267 2.135 . S
Co270 N273 2.121 . S
Co270 O278 2.055 . S
Co270 O281 2.039 . S
Co270 N284 2.140 . S
C271 O272 1.227 . S
C271 O281 1.265 . S
O272 C271 1.227 . S
N273 Co270 2.121 . S
N273 C275 1.375 . S
N273 C276 1.313 . S
C274 C275 1.338 . S
C274 N277 1.377 . S
C274 H294 0.930 . S
C275 N273 1.375 . S
C275 C274 1.338 . S
C275 H279 0.931 . S
C276 N273 1.313 . S
C276 N277 1.344 . S
C276 H280 0.930 . S
N277 C274 1.377 . S
N277 C276 1.344 . S
O278 Co270 2.055 . S
O278 C282 1.253 . S
H279 C275 0.931 . S
H280 C276 0.930 . S
O281 Co270 2.039 . S
O281 C271 1.265 . S
C282 O278 1.253 . S
C282 O283 1.227 . S
O283 C282 1.227 . S
N284 Co270 2.140 . S
N284 C287 1.346 . S
N284 C288 1.345 . S
C285 C286 1.387 . S
C285 C289 1.391 . S
C286 C285 1.387 . S
C286 C287 1.369 . S
C286 H295 0.929 . S
C287 N284 1.346 . S
C287 C286 1.369 . S
C287 H290 0.928 . S
C288 N284 1.345 . S
C288 C289 1.371 . S
C288 H291 0.931 . S
C289 C285 1.391 . S
C289 C288 1.371 . S
C289 H296 0.930 . S
H290 C287 0.928 . S
H291 C288 0.931 . S
H292 C268 0.930 . S
H293 C265 0.930 . S
H294 C274 0.930 . S
H295 C286 0.929 . S
H296 C289 0.930 . S
C297 C298 1.351 . S
C297 N300 1.368 . S
C297 H302 0.931 . S
C298 C297 1.351 . S
C298 N299 1.373 . S
C298 H326 0.930 . S
N299 C298 1.373 . S
N299 C301 1.340 . S
N300 C297 1.368 . S
N300 C301 1.321 . S
N300 Co303 2.135 . S
C301 N299 1.340 . S
C301 N300 1.321 . S
C301 H325 0.930 . S
H302 C297 0.931 . S
Co303 N300 2.135 . S
Co303 N306 2.121 . S
Co303 O311 2.055 . S
Co303 O314 2.039 . S
Co303 N317 2.140 . S
C304 O305 1.227 . S
C304 O314 1.265 1_556 S
O305 C304 1.227 . S
N306 Co303 2.121 . S
N306 C308 1.375 . S
N306 C309 1.313 . S
C307 C308 1.338 . S
C307 N310 1.377 . S
C307 H327 0.930 . S
C308 N306 1.375 . S
C308 C307 1.338 . S
C308 H312 0.931 . S
C309 N306 1.313 . S
C309 N310 1.344 . S
C309 H313 0.930 . S
N310 C307 1.377 . S
N310 C309 1.344 . S
O311 Co303 2.055 . S
O311 C315 1.253 . S
H312 C308 0.931 . S
H313 C309 0.930 . S
O314 Co303 2.039 . S
O314 C304 1.265 1_554 S
C315 O311 1.253 . S
C315 O316 1.227 . S
O316 C315 1.227 . S
N317 Co303 2.140 . S
N317 C320 1.346 . S
N317 C321 1.345 . S
C318 C319 1.387 . S
C318 C322 1.391 . S
C319 C318 1.387 . S
C319 C320 1.369 . S
C319 H328 0.929 . S
C320 N317 1.346 . S
C320 C319 1.369 . S
C320 H323 0.928 . S
C321 N317 1.345 . S
C321 C322 1.371 . S
C321 H324 0.931 . S
C322 C318 1.391 . S
C322 C321 1.371 . S
C322 H329 0.930 . S
H323 C320 0.928 . S
H324 C321 0.931 . S
H325 C301 0.930 . S
H326 C298 0.930 . S
H327 C307 0.930 . S
H328 C319 0.929 . S
H329 C322 0.930 . S
C330 C331 1.351 . S
C330 N333 1.368 . S
C330 H335 0.931 . S
C331 C330 1.351 . S
C331 N332 1.373 . S
C331 H359 0.930 . S
N332 C331 1.373 . S
N332 C334 1.340 . S
N333 C330 1.368 . S
N333 C334 1.321 . S
N333 Co336 2.135 . S
C334 N332 1.340 . S
C334 N333 1.321 . S
C334 H358 0.930 . S
H335 C330 0.931 . S
Co336 N333 2.135 . S
Co336 N339 2.121 . S
Co336 O344 2.055 . S
Co336 O347 2.039 . S
Co336 N350 2.140 . S
C337 O338 1.227 . S
C337 O347 1.265 1_556 S
O338 C337 1.227 . S
N339 Co336 2.121 . S
N339 C341 1.375 . S
N339 C342 1.313 . S
C340 C341 1.338 . S
C340 N343 1.377 . S
C340 H360 0.930 . S
C341 N339 1.375 . S
C341 C340 1.338 . S
C341 H345 0.931 . S
C342 N339 1.313 . S
C342 N343 1.344 . S
C342 H346 0.930 . S
N343 C340 1.377 . S
N343 C342 1.344 . S
O344 Co336 2.055 . S
O344 C348 1.253 . S
H345 C341 0.931 . S
H346 C342 0.930 . S
O347 Co336 2.039 . S
O347 C337 1.265 1_554 S
C348 O344 1.253 . S
C348 O349 1.227 . S
O349 C348 1.227 . S
N350 Co336 2.140 . S
N350 C353 1.346 . S
N350 C354 1.345 . S
C351 C352 1.387 . S
C351 C355 1.391 . S
C352 C351 1.387 . S
C352 C353 1.369 . S
C352 H361 0.929 . S
C353 N350 1.346 . S
C353 C352 1.369 . S
C353 H356 0.928 . S
C354 N350 1.345 . S
C354 C355 1.371 . S
C354 H357 0.931 . S
C355 C351 1.391 . S
C355 C354 1.371 . S
C355 H362 0.930 . S
H356 C353 0.928 . S
H357 C354 0.931 . S
H358 C334 0.930 . S
H359 C331 0.930 . S
H360 C340 0.930 . S
H361 C352 0.929 . S
H362 C355 0.930 . S
C363 C364 1.351 . S
C363 N366 1.368 . S
C363 H368 0.931 . S
C364 C363 1.351 . S
C364 N365 1.373 . S
C364 H392 0.930 . S
N365 C364 1.373 . S
N365 C367 1.340 . S
N366 C363 1.368 . S
N366 C367 1.321 . S
N366 Co369 2.135 . S
C367 N365 1.340 . S
C367 N366 1.321 . S
C367 H391 0.930 . S
H368 C363 0.931 . S
Co369 N366 2.135 . S
Co369 N372 2.121 . S
Co369 O377 2.055 . S
Co369 O380 2.039 . S
Co369 N383 2.140 . S
C370 O371 1.227 . S
C370 O380 1.265 1_556 S
O371 C370 1.227 . S
N372 Co369 2.121 . S
N372 C374 1.375 . S
N372 C375 1.313 . S
C373 C374 1.338 . S
C373 N376 1.377 . S
C373 H393 0.930 . S
C374 N372 1.375 . S
C374 C373 1.338 . S
C374 H378 0.931 . S
C375 N372 1.313 . S
C375 N376 1.344 . S
C375 H379 0.930 . S
N376 C373 1.377 . S
N376 C375 1.344 . S
O377 Co369 2.055 . S
O377 C381 1.253 . S
H378 C374 0.931 . S
H379 C375 0.930 . S
O380 Co369 2.039 . S
O380 C370 1.265 1_554 S
C381 O377 1.253 . S
C381 O382 1.227 . S
O382 C381 1.227 . S
N383 Co369 2.140 . S
N383 C386 1.346 . S
N383 C387 1.345 . S
C384 C385 1.387 . S
C384 C388 1.391 . S
C385 C384 1.387 . S
C385 C386 1.369 . S
C385 H394 0.929 . S
C386 N383 1.346 . S
C386 C385 1.369 . S
C386 H389 0.928 . S
C387 N383 1.345 . S
C387 C388 1.371 . S
C387 H390 0.931 . S
C388 C384 1.391 . S
C388 C387 1.371 . S
C388 H395 0.930 . S
H389 C386 0.928 . S
H390 C387 0.931 . S
H391 C367 0.930 . S
H392 C364 0.930 . S
H393 C373 0.930 . S
H394 C385 0.929 . S
H395 C388 0.930 . S
C396 C397 1.351 . S
C396 N399 1.368 . S
C396 H401 0.931 . S
C397 C396 1.351 . S
C397 N398 1.373 . S
C397 H425 0.930 . S
N398 C397 1.373 . S
N398 C400 1.340 . S
N399 C396 1.368 . S
N399 C400 1.321 . S
N399 Co402 2.135 . S
C400 N398 1.340 . S
C400 N399 1.321 . S
C400 H424 0.930 . S
H401 C396 0.931 . S
Co402 N399 2.135 . S
Co402 N405 2.121 . S
Co402 O410 2.055 . S
Co402 O413 2.039 . S
Co402 N416 2.140 . S
C403 O404 1.227 . S
C403 O413 1.265 1_554 S
O404 C403 1.227 . S
N405 Co402 2.121 . S
N405 C407 1.375 . S
N405 C408 1.313 . S
C406 C407 1.338 . S
C406 N409 1.377 . S
C406 H426 0.930 . S
C407 N405 1.375 . S
C407 C406 1.338 . S
C407 H411 0.931 . S
C408 N405 1.313 . S
C408 N409 1.344 . S
C408 H412 0.930 . S
N409 C406 1.377 . S
N409 C408 1.344 . S
O410 Co402 2.055 . S
O410 C414 1.253 . S
H411 C407 0.931 . S
H412 C408 0.930 . S
O413 Co402 2.039 . S
O413 C403 1.265 1_556 S
C414 O410 1.253 . S
C414 O415 1.227 . S
O415 C414 1.227 . S
N416 Co402 2.140 . S
N416 C419 1.346 . S
N416 C420 1.345 . S
C417 C418 1.387 . S
C417 C421 1.391 . S
C418 C417 1.387 . S
C418 C419 1.369 . S
C418 H427 0.929 . S
C419 N416 1.346 . S
C419 C418 1.369 . S
C419 H422 0.928 . S
C420 N416 1.345 . S
C420 C421 1.371 . S
C420 H423 0.931 . S
C421 C417 1.391 . S
C421 C420 1.371 . S
C421 H428 0.930 . S
H422 C419 0.928 . S
H423 C420 0.931 . S
H424 C400 0.930 . S
H425 C397 0.930 . S
H426 C406 0.930 . S
H427 C418 0.929 . S
H428 C421 0.930 . S
C429 C430 1.351 . S
C429 N432 1.368 . S
C429 H434 0.931 . S
C430 C429 1.351 . S
C430 N431 1.373 . S
C430 H458 0.930 . S
N431 C430 1.373 . S
N431 C433 1.340 . S
N432 C429 1.368 . S
N432 C433 1.321 . S
N432 Co435 2.135 . S
C433 N431 1.340 . S
C433 N432 1.321 . S
C433 H457 0.930 . S
H434 C429 0.931 . S
Co435 N432 2.135 . S
Co435 N438 2.121 . S
Co435 O443 2.055 . S
Co435 O446 2.039 . S
Co435 N449 2.140 . S
C436 O437 1.227 . S
C436 O446 1.265 1_554 S
O437 C436 1.227 . S
N438 Co435 2.121 . S
N438 C440 1.375 . S
N438 C441 1.313 . S
C439 C440 1.338 . S
C439 N442 1.377 . S
C439 H459 0.930 . S
C440 N438 1.375 . S
C440 C439 1.338 . S
C440 H444 0.931 . S
C441 N438 1.313 . S
C441 N442 1.344 . S
C441 H445 0.930 . S
N442 C439 1.377 . S
N442 C441 1.344 . S
O443 Co435 2.055 . S
O443 C447 1.253 . S
H444 C440 0.931 . S
H445 C441 0.930 . S
O446 Co435 2.039 . S
O446 C436 1.265 1_556 S
C447 O443 1.253 . S
C447 O448 1.227 . S
O448 C447 1.227 . S
N449 Co435 2.140 . S
N449 C452 1.346 . S
N449 C453 1.345 . S
C450 C451 1.387 . S
C450 C454 1.391 . S
C451 C450 1.387 . S
C451 C452 1.369 . S
C451 H460 0.929 . S
C452 N449 1.346 . S
C452 C451 1.369 . S
C452 H455 0.928 . S
C453 N449 1.345 . S
C453 C454 1.371 . S
C453 H456 0.931 . S
C454 C450 1.391 . S
C454 C453 1.371 . S
C454 H461 0.930 . S
H455 C452 0.928 . S
H456 C453 0.931 . S
H457 C433 0.930 . S
H458 C430 0.930 . S
H459 C439 0.930 . S
H460 C451 0.929 . S
H461 C454 0.930 . S
C462 C463 1.351 . S
C462 N465 1.368 . S
C462 H467 0.931 . S
C463 C462 1.351 . S
C463 N464 1.373 . S
C463 H491 0.930 . S
N464 C463 1.373 . S
N464 C466 1.340 . S
N465 C462 1.368 . S
N465 C466 1.321 . S
N465 Co468 2.135 . S
C466 N464 1.340 . S
C466 N465 1.321 . S
C466 H490 0.930 . S
H467 C462 0.931 . S
Co468 N465 2.135 . S
Co468 N471 2.121 . S
Co468 O476 2.055 . S
Co468 O479 2.039 . S
Co468 N482 2.140 . S
C469 O470 1.227 . S
C469 O479 1.265 1_554 S
O470 C469 1.227 . S
N471 Co468 2.121 . S
N471 C473 1.375 . S
N471 C474 1.313 . S
C472 C473 1.338 . S
C472 N475 1.377 . S
C472 H492 0.930 . S
C473 N471 1.375 . S
C473 C472 1.338 . S
C473 H477 0.931 . S
C474 N471 1.313 . S
C474 N475 1.344 . S
C474 H478 0.930 . S
N475 C472 1.377 . S
N475 C474 1.344 . S
O476 Co468 2.055 . S
O476 C480 1.253 . S
H477 C473 0.931 . S
H478 C474 0.930 . S
O479 Co468 2.039 . S
O479 C469 1.265 1_556 S
C480 O476 1.253 . S
C480 O481 1.227 . S
O481 C480 1.227 . S
N482 Co468 2.140 . S
N482 C485 1.346 . S
N482 C486 1.345 . S
C483 C484 1.387 . S
C483 C487 1.391 . S
C484 C483 1.387 . S
C484 C485 1.369 . S
C484 H493 0.929 . S
C485 N482 1.346 . S
C485 C484 1.369 . S
C485 H488 0.928 . S
C486 N482 1.345 . S
C486 C487 1.371 . S
C486 H489 0.931 . S
C487 C483 1.391 . S
C487 C486 1.371 . S
C487 H494 0.930 . S
H488 C485 0.928 . S
H489 C486 0.931 . S
H490 C466 0.930 . S
H491 C463 0.930 . S
H492 C472 0.930 . S
H493 C484 0.929 . S
H494 C487 0.930 . S
C495 C496 1.351 . S
C495 N498 1.368 . S
C495 H500 0.931 . S
C496 C495 1.351 . S
C496 N497 1.373 . S
C496 H524 0.930 . S
N497 C496 1.373 . S
N497 C499 1.340 . S
N498 C495 1.368 . S
N498 C499 1.321 . S
N498 Co501 2.135 . S
C499 N497 1.340 . S
C499 N498 1.321 . S
C499 H523 0.930 . S
H500 C495 0.931 . S
Co501 N498 2.135 . S
Co501 N504 2.121 . S
Co501 O509 2.055 . S
Co501 O512 2.039 . S
Co501 N515 2.140 . S
C502 O503 1.227 . S
C502 O512 1.265 . S
O503 C502 1.227 . S
N504 Co501 2.121 . S
N504 C506 1.375 . S
N504 C507 1.313 . S
C505 C506 1.338 . S
C505 N508 1.377 . S
C505 H525 0.930 . S
C506 N504 1.375 . S
C506 C505 1.338 . S
C506 H510 0.931 . S
C507 N504 1.313 . S
C507 N508 1.344 . S
C507 H511 0.930 . S
N508 C505 1.377 . S
N508 C507 1.344 . S
O509 Co501 2.055 . S
O509 C513 1.253 . S
H510 C506 0.931 . S
H511 C507 0.930 . S
O512 Co501 2.039 . S
O512 C502 1.265 . S
C513 O509 1.253 . S
C513 O514 1.227 . S
O514 C513 1.227 . S
N515 Co501 2.140 . S
N515 C518 1.346 . S
N515 C519 1.345 . S
C516 C517 1.387 . S
C516 C520 1.391 . S
C517 C516 1.387 . S
C517 C518 1.369 . S
C517 H526 0.929 . S
C518 N515 1.346 . S
C518 C517 1.369 . S
C518 H521 0.928 . S
C519 N515 1.345 . S
C519 C520 1.371 . S
C519 H522 0.931 . S
C520 C516 1.391 . S
C520 C519 1.371 . S
C520 H527 0.930 . S
H521 C518 0.928 . S
H522 C519 0.931 . S
H523 C499 0.930 . S
H524 C496 0.930 . S
H525 C505 0.930 . S
H526 C517 0.929 . S
H527 C520 0.930 . S
C528 C529 1.351 . S
C528 N531 1.368 . S
C528 H533 0.931 . S
C529 C528 1.351 . S
C529 N530 1.373 . S
C529 H557 0.930 . S
N530 C529 1.373 . S
N530 C532 1.340 . S
N531 C528 1.368 . S
N531 C532 1.321 . S
N531 Co534 2.135 . S
C532 N530 1.340 . S
C532 N531 1.321 . S
C532 H556 0.930 . S
H533 C528 0.931 . S
Co534 N531 2.135 . S
Co534 N537 2.121 . S
Co534 O542 2.055 . S
Co534 O545 2.039 . S
Co534 N548 2.140 . S
C535 O536 1.227 . S
C535 O545 1.265 . S
O536 C535 1.227 . S
N537 Co534 2.121 . S
N537 C539 1.375 . S
N537 C540 1.313 . S
C538 C539 1.338 . S
C538 N541 1.377 . S
C538 H558 0.930 . S
C539 N537 1.375 . S
C539 C538 1.338 . S
C539 H543 0.931 . S
C540 N537 1.313 . S
C540 N541 1.344 . S
C540 H544 0.930 . S
N541 C538 1.377 . S
N541 C540 1.344 . S
O542 Co534 2.055 . S
O542 C546 1.253 . S
H543 C539 0.931 . S
H544 C540 0.930 . S
O545 Co534 2.039 . S
O545 C535 1.265 . S
C546 O542 1.253 . S
C546 O547 1.227 . S
O547 C546 1.227 . S
N548 Co534 2.140 . S
N548 C551 1.346 . S
N548 C552 1.345 . S
C549 C550 1.387 . S
C549 C553 1.391 . S
C550 C549 1.387 . S
C550 C551 1.369 . S
C550 H559 0.929 . S
C551 N548 1.346 . S
C551 C550 1.369 . S
C551 H554 0.928 . S
C552 N548 1.345 . S
C552 C553 1.371 . S
C552 H555 0.931 . S
C553 C549 1.391 . S
C553 C552 1.371 . S
C553 H560 0.930 . S
H554 C551 0.928 . S
H555 C552 0.931 . S
H556 C532 0.930 . S
H557 C529 0.930 . S
H558 C538 0.930 . S
H559 C550 0.929 . S
H560 C553 0.930 . S
C561 C562 1.351 . S
C561 N564 1.368 . S
C561 H566 0.931 . S
C562 C561 1.351 . S
C562 N563 1.373 . S
C562 H590 0.930 . S
N563 C562 1.373 . S
N563 C565 1.340 . S
N564 C561 1.368 . S
N564 C565 1.321 . S
N564 Co567 2.135 . S
C565 N563 1.340 . S
C565 N564 1.321 . S
C565 H589 0.930 . S
H566 C561 0.931 . S
Co567 N564 2.135 . S
Co567 N570 2.121 . S
Co567 O575 2.055 . S
Co567 O578 2.039 . S
Co567 N581 2.140 . S
C568 O569 1.227 . S
C568 O578 1.265 . S
O569 C568 1.227 . S
N570 Co567 2.121 . S
N570 C572 1.375 . S
N570 C573 1.313 . S
C571 C572 1.338 . S
C571 N574 1.377 . S
C571 H591 0.930 . S
C572 N570 1.375 . S
C572 C571 1.338 . S
C572 H576 0.931 . S
C573 N570 1.313 . S
C573 N574 1.344 . S
C573 H577 0.930 . S
N574 C571 1.377 . S
N574 C573 1.344 . S
O575 Co567 2.055 . S
O575 C579 1.253 . S
H576 C572 0.931 . S
H577 C573 0.930 . S
O578 Co567 2.039 . S
O578 C568 1.265 . S
C579 O575 1.253 . S
C579 O580 1.227 . S
O580 C579 1.227 . S
N581 Co567 2.140 . S
N581 C584 1.346 . S
N581 C585 1.345 . S
C582 C583 1.387 . S
C582 C586 1.391 . S
C583 C582 1.387 . S
C583 C584 1.369 . S
C583 H592 0.929 . S
C584 N581 1.346 . S
C584 C583 1.369 . S
C584 H587 0.928 . S
C585 N581 1.345 . S
C585 C586 1.371 . S
C585 H588 0.931 . S
C586 C582 1.391 . S
C586 C585 1.371 . S
C586 H593 0.930 . S
H587 C584 0.928 . S
H588 C585 0.931 . S
H589 C565 0.930 . S
H590 C562 0.930 . S
H591 C571 0.930 . S
H592 C583 0.929 . S
H593 C586 0.930 . S
H594 C600 0.930 . S
H595 C604 0.930 . S
H596 C609 0.929 . S
H597 C607 0.929 . S
H598 C602 0.929 . S
H599 C608 0.929 . S
C600 H594 0.930 . S
C600 C601 1.367 . S
C600 C608 1.378 . S
C601 C600 1.367 . S
C601 C609 1.433 . S
C602 H598 0.929 . S
C602 C604 1.378 . S
C602 C606 1.350 . S
C603 C606 1.463 . S
C603 C608 1.350 . S
C603 N611 1.427 . S
C604 H595 0.930 . S
C604 C602 1.378 . S
C604 C605 1.367 . S
C605 C604 1.367 . S
C605 C607 1.433 . S
C606 C602 1.350 . S
C606 C603 1.463 . S
C606 N610 1.427 . S
C607 H597 0.929 . S
C607 C605 1.433 . S
C607 N610 1.384 . S
C608 H599 0.929 . S
C608 C600 1.378 . S
C608 C603 1.350 . S
C609 H596 0.929 . S
C609 C601 1.433 . S
C609 N611 1.384 . S
N610 C606 1.427 . S
N610 C607 1.384 . S
N611 C603 1.427 . S
N611 C609 1.384 . S
H612 C618 0.930 . S
H613 C622 0.930 . S
H614 C627 0.929 . S
H615 C625 0.929 . S
H616 C620 0.929 . S
H617 C626 0.929 . S
C618 H612 0.930 . S
C618 C619 1.367 . S
C618 C626 1.378 . S
C619 C618 1.367 . S
C619 C627 1.433 . S
C620 H616 0.929 . S
C620 C622 1.378 . S
C620 C624 1.350 . S
C621 C624 1.463 1_565 S
C621 C626 1.350 . S
C621 N629 1.427 . S
C622 H613 0.930 . S
C622 C620 1.378 . S
C622 C623 1.367 . S
C623 C622 1.367 . S
C623 C625 1.433 . S
C624 C620 1.350 . S
C624 C621 1.463 1_545 S
C624 N628 1.427 . S
C625 H615 0.929 . S
C625 C623 1.433 . S
C625 N628 1.384 . S
C626 H617 0.929 . S
C626 C618 1.378 . S
C626 C621 1.350 . S
C627 H614 0.929 . S
C627 C619 1.433 . S
C627 N629 1.384 . S
N628 C624 1.427 . S
N628 C625 1.384 . S
N629 C621 1.427 . S
N629 C627 1.384 . S
H630 C636 0.930 . S
H631 C640 0.930 . S
H632 C645 0.929 . S
H633 C643 0.929 . S
H634 C638 0.929 . S
H635 C644 0.929 1_455 S
C636 H630 0.930 . S
C636 C637 1.367 . S
C636 C644 1.378 . S
C637 C636 1.367 . S
C637 C645 1.433 . S
C638 H634 0.929 . S
C638 C640 1.378 . S
C638 C642 1.350 . S
C639 C642 1.463 . S
C639 C644 1.350 1_455 S
C639 N647 1.427 1_455 S
C640 H631 0.930 . S
C640 C638 1.378 . S
C640 C641 1.367 . S
C641 C640 1.367 . S
C641 C643 1.433 . S
C642 C638 1.350 . S
C642 C639 1.463 . S
C642 N646 1.427 . S
C643 H633 0.929 . S
C643 C641 1.433 . S
C643 N646 1.384 . S
C644 H635 0.929 1_655 S
C644 C636 1.378 . S
C644 C639 1.350 1_655 S
C645 H632 0.929 . S
C645 C637 1.433 . S
C645 N647 1.384 . S
N646 C642 1.427 . S
N646 C643 1.384 . S
N647 C639 1.427 1_655 S
N647 C645 1.384 . S
H648 C654 0.930 . S
H649 C658 0.930 . S
H650 C663 0.929 . S
H651 C661 0.929 . S
H652 C656 0.929 . S
H653 C662 0.929 . S
C654 H648 0.930 . S
C654 C655 1.367 . S
C654 C662 1.378 . S
C655 C654 1.367 . S
C655 C663 1.433 . S
C656 H652 0.929 . S
C656 C658 1.378 . S
C656 C660 1.350 . S
C657 C660 1.463 . S
C657 C662 1.350 . S
C657 N665 1.427 . S
C658 H649 0.930 . S
C658 C656 1.378 . S
C658 C659 1.367 . S
C659 C658 1.367 . S
C659 C661 1.433 . S
C660 C656 1.350 . S
C660 C657 1.463 . S
C660 N664 1.427 . S
C661 H651 0.929 . S
C661 C659 1.433 . S
C661 N664 1.384 . S
C662 H653 0.929 . S
C662 C654 1.378 . S
C662 C657 1.350 . S
C663 H650 0.929 . S
C663 C655 1.433 . S
C663 N665 1.384 . S
N664 C660 1.427 . S
N664 C661 1.384 . S
N665 C657 1.427 . S
N665 C663 1.384 . S
H666 C672 0.930 . S
H667 C676 0.930 . S
H668 C681 0.929 . S
H669 C679 0.929 . S
H670 C674 0.929 1_545 S
H671 C680 0.929 . S
C672 H666 0.930 . S
C672 C673 1.367 . S
C672 C680 1.378 . S
C673 C672 1.367 . S
C673 C681 1.433 . S
C674 H670 0.929 1_565 S
C674 C676 1.378 . S
C674 C678 1.350 1_565 S
C675 C678 1.463 . S
C675 C680 1.350 . S
C675 N683 1.427 . S
C676 H667 0.930 . S
C676 C674 1.378 . S
C676 C677 1.367 . S
C677 C676 1.367 . S
C677 C679 1.433 . S
C678 C674 1.350 1_545 S
C678 C675 1.463 . S
C678 N682 1.427 1_545 S
C679 H669 0.929 . S
C679 C677 1.433 . S
C679 N682 1.384 . S
C680 H671 0.929 . S
C680 C672 1.378 . S
C680 C675 1.350 . S
C681 H668 0.929 . S
C681 C673 1.433 . S
C681 N683 1.384 . S
N682 C678 1.427 1_565 S
N682 C679 1.384 . S
N683 C675 1.427 . S
N683 C681 1.384 . S
H684 C690 0.930 . S
H685 C694 0.930 . S
H686 C699 0.929 . S
H687 C697 0.929 . S
H688 C692 0.929 . S
H689 C698 0.929 . S
C690 H684 0.930 . S
C690 C691 1.367 . S
C690 C698 1.378 . S
C691 C690 1.367 . S
C691 C699 1.433 . S
C692 H688 0.929 . S
C692 C694 1.378 . S
C692 C696 1.350 . S
C693 C696 1.463 1_455 S
C693 C698 1.350 . S
C693 N701 1.427 . S
C694 H685 0.930 . S
C694 C692 1.378 . S
C694 C695 1.367 . S
C695 C694 1.367 . S
C695 C697 1.433 . S
C696 C692 1.350 . S
C696 C693 1.463 1_655 S
C696 N700 1.427 . S
C697 H687 0.929 . S
C697 C695 1.433 . S
C697 N700 1.384 . S
C698 H689 0.929 . S
C698 C690 1.378 . S
C698 C693 1.350 . S
C699 H686 0.929 . S
C699 C691 1.433 . S
C699 N701 1.384 . S
N700 C696 1.427 . S
N700 C697 1.384 . S
N701 C693 1.427 . S
N701 C699 1.384 . S
H702 C708 0.930 . S
H703 C712 0.930 . S
H704 C717 0.929 . S
H705 C715 0.929 . S
H706 C710 0.929 . S
H707 C716 0.929 . S
C708 H702 0.930 . S
C708 C709 1.367 . S
C708 C716 1.378 . S
C709 C708 1.367 . S
C709 C717 1.433 . S
C710 H706 0.929 . S
C710 C712 1.378 . S
C710 C714 1.350 . S
C711 C714 1.463 . S
C711 C716 1.350 . S
C711 N719 1.427 . S
C712 H703 0.930 . S
C712 C710 1.378 . S
C712 C713 1.367 . S
C713 C712 1.367 . S
C713 C715 1.433 . S
C714 C710 1.350 . S
C714 C711 1.463 . S
C714 N718 1.427 . S
C715 H705 0.929 . S
C715 C713 1.433 . S
C715 N718 1.384 . S
C716 H707 0.929 . S
C716 C708 1.378 . S
C716 C711 1.350 . S
C717 H704 0.929 . S
C717 C709 1.433 . S
C717 N719 1.384 . S
N718 C714 1.427 . S
N718 C715 1.384 . S
N719 C711 1.427 . S
N719 C717 1.384 . S
H720 C726 0.930 . S
H721 C730 0.930 . S
H722 C735 0.929 . S
H723 C733 0.929 . S
H724 C728 0.929 . S
H725 C734 0.929 . S
C726 H720 0.930 . S
C726 C727 1.367 . S
C726 C734 1.378 . S
C727 C726 1.367 . S
C727 C735 1.433 . S
C728 H724 0.929 . S
C728 C730 1.378 . S
C728 C732 1.350 . S
C729 C732 1.463 . S
C729 C734 1.350 . S
C729 N737 1.427 . S
C730 H721 0.930 . S
C730 C728 1.378 . S
C730 C731 1.367 . S
C731 C730 1.367 . S
C731 C733 1.433 . S
C732 C728 1.350 . S
C732 C729 1.463 . S
C732 N736 1.427 . S
C733 H723 0.929 . S
C733 C731 1.433 . S
C733 N736 1.384 . S
C734 H725 0.929 . S
C734 C726 1.378 . S
C734 C729 1.350 . S
C735 H722 0.929 . S
C735 C727 1.433 . S
C735 N737 1.384 . S
N736 C732 1.427 . S
N736 C733 1.384 . S
N737 C729 1.427 . S
N737 C735 1.384 . S
H738 C744 0.930 . S
H739 C748 0.930 . S
H740 C753 0.929 . S
H741 C751 0.929 . S
H742 C746 0.929 . S
H743 C752 0.929 . S
C744 H738 0.930 . S
C744 C745 1.367 . S
C744 C752 1.378 . S
C745 C744 1.367 . S
C745 C753 1.433 . S
C746 H742 0.929 . S
C746 C748 1.378 . S
C746 C750 1.350 . S
C747 C750 1.463 . S
C747 C752 1.350 . S
C747 N755 1.427 . S
C748 H739 0.930 . S
C748 C746 1.378 . S
C748 C749 1.367 . S
C749 C748 1.367 . S
C749 C751 1.433 . S
C750 C746 1.350 . S
C750 C747 1.463 . S
C750 N754 1.427 . S
C751 H741 0.929 . S
C751 C749 1.433 . S
C751 N754 1.384 . S
C752 H743 0.929 . S
C752 C744 1.378 . S
C752 C747 1.350 . S
C753 H740 0.929 . S
C753 C745 1.433 . S
C753 N755 1.384 . S
N754 C750 1.427 . S
N754 C751 1.384 . S
N755 C747 1.427 . S
N755 C753 1.384 . S
H756 C762 0.930 . S
H757 C766 0.930 . S
H758 C771 0.929 . S
H759 C769 0.929 . S
H760 C764 0.929 . S
H761 C770 0.929 . S
C762 H756 0.930 . S
C762 C763 1.367 . S
C762 C770 1.378 . S
C763 C762 1.367 . S
C763 C771 1.433 . S
C764 H760 0.929 . S
C764 C766 1.378 . S
C764 C768 1.350 . S
C765 C768 1.463 . S
C765 C770 1.350 . S
C765 N773 1.427 . S
C766 H757 0.930 . S
C766 C764 1.378 . S
C766 C767 1.367 . S
C767 C766 1.367 . S
C767 C769 1.433 . S
C768 C764 1.350 . S
C768 C765 1.463 . S
C768 N772 1.427 . S
C769 H759 0.929 . S
C769 C767 1.433 . S
C769 N772 1.384 . S
C770 H761 0.929 . S
C770 C762 1.378 . S
C770 C765 1.350 . S
C771 H758 0.929 . S
C771 C763 1.433 . S
C771 N773 1.384 . S
N772 C768 1.427 . S
N772 C769 1.384 . S
N773 C765 1.427 . S
N773 C771 1.384 . S
H774 C780 0.930 1_556 S
H775 C784 0.930 . S
H776 C789 0.929 . S
H777 C787 0.929 . S
H778 C782 0.929 . S
H779 C788 0.929 1_556 S
C780 H774 0.930 1_554 S
C780 C781 1.367 . S
C780 C788 1.378 . S
C781 C780 1.367 . S
C781 C789 1.433 . S
C782 H778 0.929 . S
C782 C784 1.378 . S
C782 C786 1.350 . S
C783 C786 1.463 . S
C783 C788 1.350 . S
C783 N791 1.427 . S
C784 H775 0.930 . S
C784 C782 1.378 . S
C784 C785 1.367 . S
C785 C784 1.367 . S
C785 C787 1.433 . S
C786 C782 1.350 . S
C786 C783 1.463 . S
C786 N790 1.427 . S
C787 H777 0.929 . S
C787 C785 1.433 . S
C787 N790 1.384 . S
C788 H779 0.929 1_554 S
C788 C780 1.378 . S
C788 C783 1.350 . S
C789 H776 0.929 . S
C789 C781 1.433 . S
C789 N791 1.384 . S
N790 C786 1.427 . S
N790 C787 1.384 . S
N791 C783 1.427 . S
N791 C789 1.384 . S
H792 C798 0.930 . S
H793 C802 0.930 1_556 S
H794 C807 0.929 . S
H795 C805 0.929 . S
H796 C800 0.929 1_556 S
H797 C806 0.929 . S
C798 H792 0.930 . S
C798 C799 1.367 . S
C798 C806 1.378 . S
C799 C798 1.367 . S
C799 C807 1.433 . S
C800 H796 0.929 1_554 S
C800 C802 1.378 . S
C800 C804 1.350 . S
C801 C804 1.463 . S
C801 C806 1.350 . S
C801 N809 1.427 . S
C802 H793 0.930 1_554 S
C802 C800 1.378 . S
C802 C803 1.367 . S
C803 C802 1.367 . S
C803 C805 1.433 . S
C804 C800 1.350 . S
C804 C801 1.463 . S
C804 N808 1.427 . S
C805 H795 0.929 . S
C805 C803 1.433 . S
C805 N808 1.384 . S
C806 H797 0.929 . S
C806 C798 1.378 . S
C806 C801 1.350 . S
C807 H794 0.929 . S
C807 C799 1.433 . S
C807 N809 1.384 . S
N808 C804 1.427 . S
N808 C805 1.384 . S
N809 C801 1.427 . S
N809 C807 1.384 . S
H810 C816 0.930 1_554 S
H811 C820 0.930 . S
H812 C825 0.929 . S
H813 C823 0.929 . S
H814 C818 0.929 . S
H815 C824 0.929 . S
C816 H810 0.930 1_556 S
C816 C817 1.367 . S
C816 C824 1.378 . S
C817 C816 1.367 . S
C817 C825 1.433 . S
C818 H814 0.929 . S
C818 C820 1.378 . S
C818 C822 1.350 . S
C819 C822 1.463 . S
C819 C824 1.350 . S
C819 N827 1.427 . S
C820 H811 0.930 . S
C820 C818 1.378 . S
C820 C821 1.367 . S
C821 C820 1.367 . S
C821 C823 1.433 . S
C822 C818 1.350 . S
C822 C819 1.463 . S
C822 N826 1.427 . S
C823 H813 0.929 . S
C823 C821 1.433 . S
C823 N826 1.384 . S
C824 H815 0.929 . S
C824 C816 1.378 . S
C824 C819 1.350 . S
C825 H812 0.929 . S
C825 C817 1.433 . S
C825 N827 1.384 . S
N826 C822 1.427 . S
N826 C823 1.384 . S
N827 C819 1.427 . S
N827 C825 1.384 . S
H828 C834 0.930 . S
H829 C838 0.930 . S
H830 C843 0.929 . S
H831 C841 0.929 . S
H832 C836 0.929 . S
H833 C842 0.929 . S
C834 H828 0.930 . S
C834 C835 1.367 . S
C834 C842 1.378 . S
C835 C834 1.367 . S
C835 C843 1.433 . S
C836 H832 0.929 . S
C836 C838 1.378 . S
C836 C840 1.350 . S
C837 C840 1.463 . S
C837 C842 1.350 . S
C837 N845 1.427 . S
C838 H829 0.930 . S
C838 C836 1.378 . S
C838 C839 1.367 . S
C839 C838 1.367 . S
C839 C841 1.433 . S
C840 C836 1.350 . S
C840 C837 1.463 . S
C840 N844 1.427 . S
C841 H831 0.929 . S
C841 C839 1.433 . S
C841 N844 1.384 . S
C842 H833 0.929 . S
C842 C834 1.378 . S
C842 C837 1.350 . S
C843 H830 0.929 . S
C843 C835 1.433 . S
C843 N845 1.384 . S
N844 C840 1.427 . S
N844 C841 1.384 . S
N845 C837 1.427 . S
N845 C843 1.384 . S
H846 C852 0.930 . S
H847 C856 0.930 . S
H848 C861 0.929 . S
H849 C859 0.929 . S
H850 C854 0.929 . S
H851 C860 0.929 . S
C852 H846 0.930 . S
C852 C853 1.367 . S
C852 C860 1.378 . S
C853 C852 1.367 . S
C853 C861 1.433 . S
C854 H850 0.929 . S
C854 C856 1.378 . S
C854 C858 1.350 . S
C855 C858 1.463 . S
C855 C860 1.350 . S
C855 N863 1.427 . S
C856 H847 0.930 . S
C856 C854 1.378 . S
C856 C857 1.367 . S
C857 C856 1.367 . S
C857 C859 1.433 . S
C858 C854 1.350 . S
C858 C855 1.463 . S
C858 N862 1.427 . S
C859 H849 0.929 . S
C859 C857 1.433 . S
C859 N862 1.384 . S
C860 H851 0.929 . S
C860 C852 1.378 . S
C860 C855 1.350 . S
C861 H848 0.929 . S
C861 C853 1.433 . S
C861 N863 1.384 . S
N862 C858 1.427 . S
N862 C859 1.384 . S
N863 C855 1.427 . S
N863 C861 1.384 . S
H864 C870 0.930 . S
H865 C874 0.930 . S
H866 C879 0.929 . S
H867 C877 0.929 . S
H868 C872 0.929 . S
H869 C878 0.929 . S
C870 H864 0.930 . S
C870 C871 1.367 . S
C870 C878 1.378 . S
C871 C870 1.367 . S
C871 C879 1.433 . S
C872 H868 0.929 . S
C872 C874 1.378 . S
C872 C876 1.350 . S
C873 C876 1.463 . S
C873 C878 1.350 . S
C873 N881 1.427 . S
C874 H865 0.930 . S
C874 C872 1.378 . S
C874 C875 1.367 . S
C875 C874 1.367 . S
C875 C877 1.433 . S
C876 C872 1.350 . S
C876 C873 1.463 . S
C876 N880 1.427 . S
C877 H867 0.929 . S
C877 C875 1.433 . S
C877 N880 1.384 . S
C878 H869 0.929 . S
C878 C870 1.378 . S
C878 C873 1.350 . S
C879 H866 0.929 . S
C879 C871 1.433 . S
C879 N881 1.384 . S
N880 C876 1.427 . S
N880 C877 1.384 . S
N881 C873 1.427 . S
N881 C879 1.384 . S
H882 C888 0.930 . S
H883 C892 0.930 . S
H884 C897 0.929 . S
H885 C895 0.929 . S
H886 C890 0.929 . S
H887 C896 0.929 . S
C888 H882 0.930 . S
C888 C889 1.367 . S
C888 C896 1.378 . S
C889 C888 1.367 . S
C889 C897 1.433 . S
C890 H886 0.929 . S
C890 C892 1.378 . S
C890 C894 1.350 . S
C891 C894 1.463 . S
C891 C896 1.350 . S
C891 N899 1.427 . S
C892 H883 0.930 . S
C892 C890 1.378 . S
C892 C893 1.367 . S
C893 C892 1.367 . S
C893 C895 1.433 . S
C894 C890 1.350 . S
C894 C891 1.463 . S
C894 N898 1.427 . S
C895 H885 0.929 . S
C895 C893 1.433 . S
C895 N898 1.384 . S
C896 H887 0.929 . S
C896 C888 1.378 . S
C896 C891 1.350 . S
C897 H884 0.929 . S
C897 C889 1.433 . S
C897 N899 1.384 . S
N898 C894 1.427 . S
N898 C895 1.384 . S
N899 C891 1.427 . S
N899 C897 1.384 . S
H900 C906 0.930 . S
H901 C910 0.930 . S
H902 C915 0.929 . S
H903 C913 0.929 . S
H904 C908 0.929 . S
H905 C914 0.929 . S
C906 H900 0.930 . S
C906 C907 1.367 . S
C906 C914 1.378 . S
C907 C906 1.367 . S
C907 C915 1.433 . S
C908 H904 0.929 . S
C908 C910 1.378 . S
C908 C912 1.350 . S
C909 C912 1.463 . S
C909 C914 1.350 . S
C909 N917 1.427 . S
C910 H901 0.930 . S
C910 C908 1.378 . S
C910 C911 1.367 . S
C911 C910 1.367 . S
C911 C913 1.433 . S
C912 C908 1.350 . S
C912 C909 1.463 . S
C912 N916 1.427 . S
C913 H903 0.929 . S
C913 C911 1.433 . S
C913 N916 1.384 . S
C914 H905 0.929 . S
C914 C906 1.378 . S
C914 C909 1.350 . S
C915 H902 0.929 . S
C915 C907 1.433 . S
C915 N917 1.384 . S
N916 C912 1.427 . S
N916 C913 1.384 . S
N917 C909 1.427 . S
N917 C915 1.384 . S
H918 C924 0.930 . S
H919 C928 0.930 . S
H920 C933 0.929 . S
H921 C931 0.929 . S
H922 C926 0.929 . S
H923 C932 0.929 . S
C924 H918 0.930 . S
C924 C925 1.367 . S
C924 C932 1.378 . S
C925 C924 1.367 . S
C925 C933 1.433 . S
C926 H922 0.929 . S
C926 C928 1.378 . S
C926 C930 1.350 . S
C927 C930 1.463 . S
C927 C932 1.350 . S
C927 N935 1.427 . S
C928 H919 0.930 . S
C928 C926 1.378 . S
C928 C929 1.367 . S
C929 C928 1.367 . S
C929 C931 1.433 . S
C930 C926 1.350 . S
C930 C927 1.463 . S
C930 N934 1.427 . S
C931 H921 0.929 . S
C931 C929 1.433 . S
C931 N934 1.384 . S
C932 H923 0.929 . S
C932 C924 1.378 . S
C932 C927 1.350 . S
C933 H920 0.929 . S
C933 C925 1.433 . S
C933 N935 1.384 . S
N934 C930 1.427 . S
N934 C931 1.384 . S
N935 C927 1.427 . S
N935 C933 1.384 . S
H936 C942 0.930 . S
H937 C946 0.930 . S
H938 C951 0.929 . S
H939 C949 0.929 . S
H940 C944 0.929 . S
H941 C950 0.929 . S
C942 H936 0.930 . S
C942 C943 1.367 . S
C942 C950 1.378 . S
C943 C942 1.367 . S
C943 C951 1.433 . S
C944 H940 0.929 . S
C944 C946 1.378 . S
C944 C948 1.350 . S
C945 C948 1.463 . S
C945 C950 1.350 . S
C945 N953 1.427 . S
C946 H937 0.930 . S
C946 C944 1.378 . S
C946 C947 1.367 . S
C947 C946 1.367 . S
C947 C949 1.433 . S
C948 C944 1.350 . S
C948 C945 1.463 . S
C948 N952 1.427 . S
C949 H939 0.929 . S
C949 C947 1.433 . S
C949 N952 1.384 . S
C950 H941 0.929 . S
C950 C942 1.378 . S
C950 C945 1.350 . S
C951 H938 0.929 . S
C951 C943 1.433 . S
C951 N953 1.384 . S
N952 C948 1.427 . S
N952 C949 1.384 . S
N953 C945 1.427 . S
N953 C951 1.384 . S
H954 C960 0.930 . S
H955 C964 0.930 . S
H956 C969 0.929 . S
H957 C967 0.929 . S
H958 C962 0.929 . S
H959 C968 0.929 . S
C960 H954 0.930 . S
C960 C961 1.367 . S
C960 C968 1.378 . S
C961 C960 1.367 . S
C961 C969 1.433 . S
C962 H958 0.929 . S
C962 C964 1.378 . S
C962 C966 1.350 . S
C963 C966 1.463 . S
C963 C968 1.350 . S
C963 N971 1.427 . S
C964 H955 0.930 . S
C964 C962 1.378 . S
C964 C965 1.367 . S
C965 C964 1.367 . S
C965 C967 1.433 . S
C966 C962 1.350 . S
C966 C963 1.463 . S
C966 N970 1.427 . S
C967 H957 0.929 . S
C967 C965 1.433 . S
C967 N970 1.384 . S
C968 H959 0.929 . S
C968 C960 1.378 . S
C968 C963 1.350 . S
C969 H956 0.929 . S
C969 C961 1.433 . S
C969 N971 1.384 . S
N970 C966 1.427 . S
N970 C967 1.384 . S
N971 C963 1.427 . S
N971 C969 1.384 . S
H972 C978 0.930 . S
H973 C982 0.930 . S
H974 C987 0.929 . S
H975 C985 0.929 . S
H976 C980 0.929 . S
H977 C986 0.929 . S
C978 H972 0.930 . S
C978 C979 1.367 . S
C978 C986 1.378 . S
C979 C978 1.367 . S
C979 C987 1.433 . S
C980 H976 0.929 . S
C980 C982 1.378 . S
C980 C984 1.350 . S
C981 C984 1.463 . S
C981 C986 1.350 . S
C981 N989 1.427 . S
C982 H973 0.930 . S
C982 C980 1.378 . S
C982 C983 1.367 . S
C983 C982 1.367 . S
C983 C985 1.433 . S
C984 C980 1.350 . S
C984 C981 1.463 . S
C984 N988 1.427 . S
C985 H975 0.929 . S
C985 C983 1.433 . S
C985 N988 1.384 . S
C986 H977 0.929 . S
C986 C978 1.378 . S
C986 C981 1.350 . S
C987 H974 0.929 . S
C987 C979 1.433 . S
C987 N989 1.384 . S
N988 C984 1.427 . S
N988 C985 1.384 . S
N989 C981 1.427 . S
N989 C987 1.384 . S
H990 C996 0.930 . S
H991 C1000 0.930 . S
H992 C1005 0.929 . S
H993 C1003 0.929 . S
H994 C998 0.929 . S
H995 C1004 0.929 . S
C996 H990 0.930 . S
C996 C997 1.367 . S
C996 C1004 1.378 . S
C997 C996 1.367 . S
C997 C1005 1.433 . S
C998 H994 0.929 . S
C998 C1000 1.378 . S
C998 C1002 1.350 . S
C999 C1002 1.463 . S
C999 C1004 1.350 . S
C999 N1007 1.427 . S
C1000 H991 0.930 . S
C1000 C998 1.378 . S
C1000 C1001 1.367 . S
C1001 C1000 1.367 . S
C1001 C1003 1.433 . S
C1002 C998 1.350 . S
C1002 C999 1.463 . S
C1002 N1006 1.427 . S
C1003 H993 0.929 . S
C1003 C1001 1.433 . S
C1003 N1006 1.384 . S
C1004 H995 0.929 . S
C1004 C996 1.378 . S
C1004 C999 1.350 . S
C1005 H992 0.929 . S
C1005 C997 1.433 . S
C1005 N1007 1.384 . S
N1006 C1002 1.427 . S
N1006 C1003 1.384 . S
N1007 C999 1.427 . S
N1007 C1005 1.384 . S
H1008 C1014 0.930 . S
H1009 C1018 0.930 . S
H1010 C1023 0.929 . S
H1011 C1021 0.929 . S
H1012 C1016 0.929 . S
H1013 C1022 0.929 . S
C1014 H1008 0.930 . S
C1014 C1015 1.367 . S
C1014 C1022 1.378 . S
C1015 C1014 1.367 . S
C1015 C1023 1.433 . S
C1016 H1012 0.929 . S
C1016 C1018 1.378 . S
C1016 C1020 1.350 . S
C1017 C1020 1.463 . S
C1017 C1022 1.350 . S
C1017 N1025 1.427 . S
C1018 H1009 0.930 . S
C1018 C1016 1.378 . S
C1018 C1019 1.367 . S
C1019 C1018 1.367 . S
C1019 C1021 1.433 . S
C1020 C1016 1.350 . S
C1020 C1017 1.463 . S
C1020 N1024 1.427 . S
C1021 H1011 0.929 . S
C1021 C1019 1.433 . S
C1021 N1024 1.384 . S
C1022 H1013 0.929 . S
C1022 C1014 1.378 . S
C1022 C1017 1.350 . S
C1023 H1010 0.929 . S
C1023 C1015 1.433 . S
C1023 N1025 1.384 . S
N1024 C1020 1.427 . S
N1024 C1021 1.384 . S
N1025 C1017 1.427 . S
N1025 C1023 1.384 . S
H1026 C1032 0.930 . S
H1027 C1036 0.930 . S
H1028 C1041 0.929 . S
H1029 C1039 0.929 . S
H1030 C1034 0.929 . S
H1031 C1040 0.929 1_455 S
C1032 H1026 0.930 . S
C1032 C1033 1.367 . S
C1032 C1040 1.378 . S
C1033 C1032 1.367 . S
C1033 C1041 1.433 . S
C1034 H1030 0.929 . S
C1034 C1036 1.378 . S
C1034 C1038 1.350 . S
C1035 C1038 1.463 . S
C1035 C1040 1.350 1_455 S
C1035 N1043 1.427 1_455 S
C1036 H1027 0.930 . S
C1036 C1034 1.378 . S
C1036 C1037 1.367 . S
C1037 C1036 1.367 . S
C1037 C1039 1.433 . S
C1038 C1034 1.350 . S
C1038 C1035 1.463 . S
C1038 N1042 1.427 . S
C1039 H1029 0.929 . S
C1039 C1037 1.433 . S
C1039 N1042 1.384 . S
C1040 H1031 0.929 1_655 S
C1040 C1032 1.378 . S
C1040 C1035 1.350 1_655 S
C1041 H1028 0.929 . S
C1041 C1033 1.433 . S
C1041 N1043 1.384 . S
N1042 C1038 1.427 . S
N1042 C1039 1.384 . S
N1043 C1035 1.427 1_655 S
N1043 C1041 1.384 . S
H1044 C1050 0.930 . S
H1045 C1054 0.930 . S
H1046 C1059 0.929 . S
H1047 C1057 0.929 . S
H1048 C1052 0.929 . S
H1049 C1058 0.929 . S
C1050 H1044 0.930 . S
C1050 C1051 1.367 . S
C1050 C1058 1.378 . S
C1051 C1050 1.367 . S
C1051 C1059 1.433 . S
C1052 H1048 0.929 . S
C1052 C1054 1.378 . S
C1052 C1056 1.350 . S
C1053 C1056 1.463 . S
C1053 C1058 1.350 . S
C1053 N1061 1.427 . S
C1054 H1045 0.930 . S
C1054 C1052 1.378 . S
C1054 C1055 1.367 . S
C1055 C1054 1.367 . S
C1055 C1057 1.433 . S
C1056 C1052 1.350 . S
C1056 C1053 1.463 . S
C1056 N1060 1.427 . S
C1057 H1047 0.929 . S
C1057 C1055 1.433 . S
C1057 N1060 1.384 . S
C1058 H1049 0.929 . S
C1058 C1050 1.378 . S
C1058 C1053 1.350 . S
C1059 H1046 0.929 . S
C1059 C1051 1.433 . S
C1059 N1061 1.384 . S
N1060 C1056 1.427 . S
N1060 C1057 1.384 . S
N1061 C1053 1.427 . S
N1061 C1059 1.384 . S
H1062 C1068 0.930 . S
H1063 C1072 0.930 . S
H1064 C1077 0.929 . S
H1065 C1075 0.929 . S
H1066 C1070 0.929 . S
H1067 C1076 0.929 . S
C1068 H1062 0.930 . S
C1068 C1069 1.367 . S
C1068 C1076 1.378 . S
C1069 C1068 1.367 . S
C1069 C1077 1.433 . S
C1070 H1066 0.929 . S
C1070 C1072 1.378 . S
C1070 C1074 1.350 . S
C1071 C1074 1.463 . S
C1071 C1076 1.350 1_545 S
C1071 N1079 1.427 1_545 S
C1072 H1063 0.930 . S
C1072 C1070 1.378 . S
C1072 C1073 1.367 . S
C1073 C1072 1.367 . S
C1073 C1075 1.433 . S
C1074 C1070 1.350 . S
C1074 C1071 1.463 . S
C1074 N1078 1.427 . S
C1075 H1065 0.929 . S
C1075 C1073 1.433 . S
C1075 N1078 1.384 . S
C1076 H1067 0.929 . S
C1076 C1068 1.378 . S
C1076 C1071 1.350 1_565 S
C1077 H1064 0.929 . S
C1077 C1069 1.433 . S
C1077 N1079 1.384 . S
N1078 C1074 1.427 . S
N1078 C1075 1.384 . S
N1079 C1071 1.427 1_565 S
N1079 C1077 1.384 . S
H1080 C1086 0.930 . S
H1081 C1090 0.930 . S
H1082 C1095 0.929 . S
H1083 C1093 0.929 1_565 S
H1084 C1088 0.929 . S
H1085 C1094 0.929 . S
C1086 H1080 0.930 . S
C1086 C1087 1.367 1_565 S
C1086 C1094 1.378 . S
C1087 C1086 1.367 1_545 S
C1087 C1095 1.433 . S
C1088 H1084 0.929 . S
C1088 C1090 1.378 . S
C1088 C1092 1.350 . S
C1089 C1092 1.463 . S
C1089 C1094 1.350 1_545 S
C1089 N1097 1.427 . S
C1090 H1081 0.930 . S
C1090 C1088 1.378 . S
C1090 C1091 1.367 . S
C1091 C1090 1.367 . S
C1091 C1093 1.433 . S
C1092 C1088 1.350 . S
C1092 C1089 1.463 . S
C1092 N1096 1.427 1_545 S
C1093 H1083 0.929 1_545 S
C1093 C1091 1.433 . S
C1093 N1096 1.384 1_545 S
C1094 H1085 0.929 . S
C1094 C1086 1.378 . S
C1094 C1089 1.350 1_565 S
C1095 H1082 0.929 . S
C1095 C1087 1.433 . S
C1095 N1097 1.384 . S
N1096 C1092 1.427 1_565 S
N1096 C1093 1.384 1_565 S
N1097 C1089 1.427 . S
N1097 C1095 1.384 . S
H1098 C1104 0.930 . S
H1099 C1108 0.930 . S
H1100 C1113 0.929 . S
H1101 C1111 0.929 1_655 S
H1102 C1106 0.929 . S
H1103 C1112 0.929 . S
C1104 H1098 0.930 . S
C1104 C1105 1.367 1_655 S
C1104 C1112 1.378 . S
C1105 C1104 1.367 1_455 S
C1105 C1113 1.433 . S
C1106 H1102 0.929 . S
C1106 C1108 1.378 . S
C1106 C1110 1.350 . S
C1107 C1110 1.463 . S
C1107 C1112 1.350 1_455 S
C1107 N1115 1.427 . S
C1108 H1099 0.930 . S
C1108 C1106 1.378 . S
C1108 C1109 1.367 . S
C1109 C1108 1.367 . S
C1109 C1111 1.433 . S
C1110 C1106 1.350 . S
C1110 C1107 1.463 . S
C1110 N1114 1.424 1_455 S
C1111 H1101 0.929 1_455 S
C1111 C1109 1.433 . S
C1111 N1114 1.382 1_455 S
C1112 H1103 0.929 . S
C1112 C1104 1.378 . S
C1112 C1107 1.350 1_655 S
C1113 H1100 0.929 . S
C1113 C1105 1.433 . S
C1113 N1115 1.384 . S
N1114 C1110 1.424 1_655 S
N1114 C1111 1.382 1_655 S
N1115 C1107 1.427 . S
N1115 C1113 1.384 . S
H1116 C1122 0.930 . S
H1117 C1126 0.930 . S
H1118 C1131 0.929 . S
H1119 C1129 0.929 . S
H1120 C1124 0.929 . S
H1121 C1130 0.929 . S
C1122 H1116 0.930 . S
C1122 C1123 1.367 . S
C1122 C1130 1.378 . S
C1123 C1122 1.367 . S
C1123 C1131 1.433 . S
C1124 H1120 0.929 . S
C1124 C1126 1.378 . S
C1124 C1128 1.350 . S
C1125 C1128 1.463 . S
C1125 C1130 1.350 . S
C1125 N1133 1.427 . S
C1126 H1117 0.930 . S
C1126 C1124 1.378 . S
C1126 C1127 1.367 . S
C1127 C1126 1.367 . S
C1127 C1129 1.433 . S
C1128 C1124 1.350 . S
C1128 C1125 1.463 . S
C1128 N1132 1.427 . S
C1129 H1119 0.929 . S
C1129 C1127 1.433 . S
C1129 N1132 1.384 . S
C1130 H1121 0.929 . S
C1130 C1122 1.378 . S
C1130 C1125 1.350 . S
C1131 H1118 0.929 . S
C1131 C1123 1.433 . S
C1131 N1133 1.384 . S
N1132 C1128 1.427 . S
N1132 C1129 1.384 . S
N1133 C1125 1.427 . S
N1133 C1131 1.384 . S
H1134 C1140 0.930 . S
H1135 C1144 0.930 . S
H1136 C1149 0.929 . S
H1137 C1147 0.929 . S
H1138 C1142 0.929 . S
H1139 C1148 0.929 . S
C1140 H1134 0.930 . S
C1140 C1141 1.367 . S
C1140 C1148 1.378 . S
C1141 C1140 1.367 . S
C1141 C1149 1.433 . S
C1142 H1138 0.929 . S
C1142 C1144 1.378 . S
C1142 C1146 1.350 . S
C1143 C1146 1.463 . S
C1143 C1148 1.350 . S
C1143 N1151 1.427 . S
C1144 H1135 0.930 . S
C1144 C1142 1.378 . S
C1144 C1145 1.367 . S
C1145 C1144 1.367 . S
C1145 C1147 1.433 . S
C1146 C1142 1.350 . S
C1146 C1143 1.463 . S
C1146 N1150 1.427 . S
C1147 H1137 0.929 . S
C1147 C1145 1.433 . S
C1147 N1150 1.384 . S
C1148 H1139 0.929 . S
C1148 C1140 1.378 . S
C1148 C1143 1.350 . S
C1149 H1136 0.929 . S
C1149 C1141 1.433 . S
C1149 N1151 1.384 . S
N1150 C1146 1.427 . S
N1150 C1147 1.384 . S
N1151 C1143 1.427 . S
N1151 C1149 1.384 . S
H1152 C1158 0.930 . S
H1153 C1162 0.930 . S
H1154 C1167 0.929 . S
H1155 C1165 0.929 . S
H1156 C1160 0.929 . S
H1157 C1166 0.929 . S
C1158 H1152 0.930 . S
C1158 C1159 1.367 . S
C1158 C1166 1.378 . S
C1159 C1158 1.367 . S
C1159 C1167 1.433 . S
C1160 H1156 0.929 . S
C1160 C1162 1.378 . S
C1160 C1164 1.350 . S
C1161 C1164 1.463 . S
C1161 C1166 1.350 . S
C1161 N1169 1.427 . S
C1162 H1153 0.930 . S
C1162 C1160 1.378 . S
C1162 C1163 1.367 . S
C1163 C1162 1.367 . S
C1163 C1165 1.433 . S
C1164 C1160 1.350 . S
C1164 C1161 1.463 . S
C1164 N1168 1.427 . S
C1165 H1155 0.929 . S
C1165 C1163 1.433 . S
C1165 N1168 1.384 . S
C1166 H1157 0.929 . S
C1166 C1158 1.378 . S
C1166 C1161 1.350 . S
C1167 H1154 0.929 . S
C1167 C1159 1.433 . S
C1167 N1169 1.384 . S
N1168 C1164 1.427 . S
N1168 C1165 1.384 . S
N1169 C1161 1.427 . S
N1169 C1167 1.384 . S
H1170 C1176 0.930 . S
H1171 C1180 0.930 . S
H1172 C1185 0.929 . S
H1173 C1183 0.929 . S
H1174 C1178 0.929 . S
H1175 C1184 0.929 . S
C1176 H1170 0.930 . S
C1176 C1177 1.367 . S
C1176 C1184 1.378 . S
C1177 C1176 1.367 . S
C1177 C1185 1.433 . S
C1178 H1174 0.929 . S
C1178 C1180 1.378 . S
C1178 C1182 1.350 . S
C1179 C1182 1.463 . S
C1179 C1184 1.350 . S
C1179 N1187 1.427 . S
C1180 H1171 0.930 . S
C1180 C1178 1.378 . S
C1180 C1181 1.367 . S
C1181 C1180 1.367 . S
C1181 C1183 1.433 . S
C1182 C1178 1.350 . S
C1182 C1179 1.463 . S
C1182 N1186 1.427 . S
C1183 H1173 0.929 . S
C1183 C1181 1.433 . S
C1183 N1186 1.384 . S
C1184 H1175 0.929 . S
C1184 C1176 1.378 . S
C1184 C1179 1.350 . S
C1185 H1172 0.929 . S
C1185 C1177 1.433 . S
C1185 N1187 1.384 . S
N1186 C1182 1.427 . S
N1186 C1183 1.384 . S
N1187 C1179 1.427 . S
N1187 C1185 1.384 . S
H1188 C1194 0.930 . S
H1189 C1198 0.930 . S
H1190 C1203 0.929 . S
H1191 C1201 0.929 . S
H1192 C1196 0.929 . S
H1193 C1202 0.929 . S
C1194 H1188 0.930 . S
C1194 C1195 1.367 . S
C1194 C1202 1.378 . S
C1195 C1194 1.367 . S
C1195 C1203 1.433 . S
C1196 H1192 0.929 . S
C1196 C1198 1.378 . S
C1196 C1200 1.350 . S
C1197 C1200 1.463 . S
C1197 C1202 1.350 . S
C1197 N1205 1.427 . S
C1198 H1189 0.930 . S
C1198 C1196 1.378 . S
C1198 C1199 1.367 . S
C1199 C1198 1.367 . S
C1199 C1201 1.433 . S
C1200 C1196 1.350 . S
C1200 C1197 1.463 . S
C1200 N1204 1.427 . S
C1201 H1191 0.929 . S
C1201 C1199 1.433 . S
C1201 N1204 1.384 . S
C1202 H1193 0.929 . S
C1202 C1194 1.378 . S
C1202 C1197 1.350 . S
C1203 H1190 0.929 . S
C1203 C1195 1.433 . S
C1203 N1205 1.384 . S
N1204 C1200 1.427 . S
N1204 C1201 1.384 . S
N1205 C1197 1.427 . S
N1205 C1203 1.384 . S
H1206 C1212 0.930 . S
H1207 C1216 0.930 . S
H1208 C1221 0.929 . S
H1209 C1219 0.929 . S
H1210 C1214 0.929 . S
H1211 C1220 0.929 . S
C1212 H1206 0.930 . S
C1212 C1213 1.367 . S
C1212 C1220 1.378 . S
C1213 C1212 1.367 . S
C1213 C1221 1.433 . S
C1214 H1210 0.929 . S
C1214 C1216 1.378 . S
C1214 C1218 1.350 . S
C1215 C1218 1.463 . S
C1215 C1220 1.350 . S
C1215 N1223 1.427 . S
C1216 H1207 0.930 . S
C1216 C1214 1.378 . S
C1216 C1217 1.367 . S
C1217 C1216 1.367 . S
C1217 C1219 1.433 . S
C1218 C1214 1.350 . S
C1218 C1215 1.463 . S
C1218 N1222 1.427 . S
C1219 H1209 0.929 . S
C1219 C1217 1.433 . S
C1219 N1222 1.384 . S
C1220 H1211 0.929 . S
C1220 C1212 1.378 . S
C1220 C1215 1.350 . S
C1221 H1208 0.929 . S
C1221 C1213 1.433 . S
C1221 N1223 1.384 . S
N1222 C1218 1.427 . S
N1222 C1219 1.384 . S
N1223 C1215 1.427 . S
N1223 C1221 1.384 . S
H1224 C1230 0.930 . S
H1225 C1234 0.930 . S
H1226 C1239 0.929 . S
H1227 C1237 0.929 . S
H1228 C1232 0.929 . S
H1229 C1238 0.929 . S
C1230 H1224 0.930 . S
C1230 C1231 1.367 . S
C1230 C1238 1.378 . S
C1231 C1230 1.367 . S
C1231 C1239 1.433 . S
C1232 H1228 0.929 . S
C1232 C1234 1.378 . S
C1232 C1236 1.350 . S
C1233 C1236 1.463 . S
C1233 C1238 1.350 . S
C1233 N1241 1.427 . S
C1234 H1225 0.930 . S
C1234 C1232 1.378 . S
C1234 C1235 1.367 . S
C1235 C1234 1.367 . S
C1235 C1237 1.433 . S
C1236 C1232 1.350 . S
C1236 C1233 1.463 . S
C1236 N1240 1.427 . S
C1237 H1227 0.929 . S
C1237 C1235 1.433 . S
C1237 N1240 1.384 . S
C1238 H1229 0.929 . S
C1238 C1230 1.378 . S
C1238 C1233 1.350 . S
C1239 H1226 0.929 . S
C1239 C1231 1.433 . S
C1239 N1241 1.384 . S
N1240 C1236 1.427 . S
N1240 C1237 1.384 . S
N1241 C1233 1.427 . S
N1241 C1239 1.384 . S
H1242 C1248 0.930 . S
H1243 C1252 0.930 1_565 S
H1244 C1257 0.929 . S
H1245 C1255 0.929 . S
H1246 C1250 0.929 . S
H1247 C1256 0.929 . S
C1248 H1242 0.930 . S
C1248 C1249 1.367 . S
C1248 C1256 1.378 . S
C1249 C1248 1.367 . S
C1249 C1257 1.433 1_545 S
C1250 H1246 0.929 . S
C1250 C1252 1.378 1_565 S
C1250 C1254 1.350 1_565 S
C1251 C1254 1.463 1_554 S
C1251 C1256 1.350 . S
C1251 N1259 1.427 1_545 S
C1252 H1243 0.930 1_545 S
C1252 C1250 1.378 1_545 S
C1252 C1253 1.367 . S
C1253 C1252 1.367 . S
C1253 C1255 1.433 . S
C1254 C1250 1.350 1_545 S
C1254 C1251 1.463 1_556 S
C1254 N1258 1.427 . S
C1255 H1245 0.929 . S
C1255 C1253 1.433 . S
C1255 N1258 1.384 . S
C1256 H1247 0.929 . S
C1256 C1248 1.378 . S
C1256 C1251 1.350 . S
C1257 H1244 0.929 . S
C1257 C1249 1.433 1_565 S
C1257 N1259 1.384 . S
N1258 C1254 1.427 . S
N1258 C1255 1.384 . S
N1259 C1251 1.427 1_565 S
N1259 C1257 1.384 . S
H1260 C1266 0.931 1_655 S
H1261 C1270 0.930 . S
H1262 C1275 0.929 . S
H1263 C1273 0.929 . S
H1264 C1268 0.929 . S
H1265 C1274 0.929 1_655 S
C1266 H1260 0.931 1_455 S
C1266 C1267 1.367 . S
C1266 C1274 1.378 . S
C1267 C1266 1.367 . S
C1267 C1275 1.433 . S
C1268 H1264 0.929 . S
C1268 C1270 1.378 . S
C1268 C1272 1.350 . S
C1269 C1272 1.463 1_554 S
C1269 C1274 1.350 . S
C1269 N1277 1.427 . S
C1270 H1261 0.930 . S
C1270 C1268 1.378 . S
C1270 C1271 1.367 . S
C1271 C1270 1.367 . S
C1271 C1273 1.433 1_455 S
C1272 C1268 1.350 . S
C1272 C1269 1.463 1_556 S
C1272 N1276 1.427 1_455 S
C1273 H1263 0.929 . S
C1273 C1271 1.433 1_655 S
C1273 N1276 1.384 . S
C1274 H1265 0.929 1_455 S
C1274 C1266 1.378 . S
C1274 C1269 1.350 . S
C1275 H1262 0.929 . S
C1275 C1267 1.433 . S
C1275 N1277 1.384 . S
N1276 C1272 1.427 1_655 S
N1276 C1273 1.384 . S
N1277 C1269 1.427 . S
N1277 C1275 1.384 . S
H1278 C1284 0.930 . S
H1279 C1288 0.930 . S
H1280 C1293 0.929 . S
H1281 C1291 0.929 . S
H1282 C1286 0.929 . S
H1283 C1292 0.929 . S
C1284 H1278 0.930 . S
C1284 C1285 1.367 . S
C1284 C1292 1.378 . S
C1285 C1284 1.367 . S
C1285 C1293 1.433 . S
C1286 H1282 0.929 . S
C1286 C1288 1.378 . S
C1286 C1290 1.350 . S
C1287 C1290 1.463 1_556 S
C1287 C1292 1.350 . S
C1287 N1295 1.427 . S
C1288 H1279 0.930 . S
C1288 C1286 1.378 . S
C1288 C1289 1.367 . S
C1289 C1288 1.367 . S
C1289 C1291 1.433 . S
C1290 C1286 1.350 . S
C1290 C1287 1.463 1_554 S
C1290 N1294 1.427 . S
C1291 H1281 0.929 . S
C1291 C1289 1.433 . S
C1291 N1294 1.384 . S
C1292 H1283 0.929 . S
C1292 C1284 1.378 . S
C1292 C1287 1.350 . S
C1293 H1280 0.929 . S
C1293 C1285 1.433 . S
C1293 N1295 1.384 . S
N1294 C1290 1.427 . S
N1294 C1291 1.384 . S
N1295 C1287 1.427 . S
N1295 C1293 1.384 . S
H1296 C1302 0.930 . S
H1297 C1306 0.930 . S
H1298 C1311 0.929 . S
H1299 C1309 0.929 . S
H1300 C1304 0.929 . S
H1301 C1310 0.929 . S
C1302 H1296 0.930 . S
C1302 C1303 1.367 . S
C1302 C1310 1.378 . S
C1303 C1302 1.367 . S
C1303 C1311 1.433 . S
C1304 H1300 0.929 . S
C1304 C1306 1.378 . S
C1304 C1308 1.350 . S
C1305 C1308 1.463 . S
C1305 C1310 1.350 . S
C1305 N1313 1.427 . S
C1306 H1297 0.930 . S
C1306 C1304 1.378 . S
C1306 C1307 1.367 . S
C1307 C1306 1.367 . S
C1307 C1309 1.433 . S
C1308 C1304 1.350 . S
C1308 C1305 1.463 . S
C1308 N1312 1.427 . S
C1309 H1299 0.929 . S
C1309 C1307 1.433 . S
C1309 N1312 1.384 . S
C1310 H1301 0.929 . S
C1310 C1302 1.378 . S
C1310 C1305 1.350 . S
C1311 H1298 0.929 . S
C1311 C1303 1.433 . S
C1311 N1313 1.384 . S
N1312 C1308 1.427 . S
N1312 C1309 1.384 . S
N1313 C1305 1.427 . S
N1313 C1311 1.384 . S
H1314 C1320 0.930 . S
H1315 C1324 0.930 . S
H1316 C1329 0.929 . S
H1317 C1327 0.929 . S
H1318 C1322 0.929 . S
H1319 C1328 0.929 . S
C1320 H1314 0.930 . S
C1320 C1321 1.367 . S
C1320 C1328 1.378 . S
C1321 C1320 1.367 . S
C1321 C1329 1.433 . S
C1322 H1318 0.929 . S
C1322 C1324 1.378 . S
C1322 C1326 1.350 . S
C1323 C1326 1.463 . S
C1323 C1328 1.350 . S
C1323 N1331 1.427 . S
C1324 H1315 0.930 . S
C1324 C1322 1.378 . S
C1324 C1325 1.367 . S
C1325 C1324 1.367 . S
C1325 C1327 1.433 . S
C1326 C1322 1.350 . S
C1326 C1323 1.463 . S
C1326 N1330 1.427 . S
C1327 H1317 0.929 . S
C1327 C1325 1.433 . S
C1327 N1330 1.384 . S
C1328 H1319 0.929 . S
C1328 C1320 1.378 . S
C1328 C1323 1.350 . S
C1329 H1316 0.929 . S
C1329 C1321 1.433 . S
C1329 N1331 1.384 . S
N1330 C1326 1.427 . S
N1330 C1327 1.384 . S
N1331 C1323 1.427 . S
N1331 C1329 1.384 . S
H1332 C1338 0.930 . S
H1333 C1342 0.930 . S
H1334 C1347 0.929 . S
H1335 C1345 0.929 . S
H1336 C1340 0.929 . S
H1337 C1346 0.929 . S
C1338 H1332 0.930 . S
C1338 C1339 1.367 . S
C1338 C1346 1.378 . S
C1339 C1338 1.367 . S
C1339 C1347 1.433 . S
C1340 H1336 0.929 . S
C1340 C1342 1.378 . S
C1340 C1344 1.350 . S
C1341 C1344 1.463 . S
C1341 C1346 1.350 . S
C1341 N1349 1.427 . S
C1342 H1333 0.930 . S
C1342 C1340 1.378 . S
C1342 C1343 1.367 . S
C1343 C1342 1.367 . S
C1343 C1345 1.433 . S
C1344 C1340 1.350 . S
C1344 C1341 1.463 . S
C1344 N1348 1.427 . S
C1345 H1335 0.929 . S
C1345 C1343 1.433 . S
C1345 N1348 1.384 . S
C1346 H1337 0.929 . S
C1346 C1338 1.378 . S
C1346 C1341 1.350 . S
C1347 H1334 0.929 . S
C1347 C1339 1.433 . S
C1347 N1349 1.384 . S
N1348 C1344 1.427 . S
N1348 C1345 1.384 . S
N1349 C1341 1.427 . S
N1349 C1347 1.384 . S
H1350 C1356 0.930 . S
H1351 C1360 0.930 . S
H1352 C1365 0.929 . S
H1353 C1363 0.929 . S
H1354 C1358 0.929 . S
H1355 C1364 0.929 . S
C1356 H1350 0.930 . S
C1356 C1357 1.367 . S
C1356 C1364 1.378 . S
C1357 C1356 1.367 . S
C1357 C1365 1.433 . S
C1358 H1354 0.929 . S
C1358 C1360 1.378 . S
C1358 C1362 1.350 . S
C1359 C1362 1.463 . S
C1359 C1364 1.350 . S
C1359 N1367 1.427 . S
C1360 H1351 0.930 . S
C1360 C1358 1.378 . S
C1360 C1361 1.367 . S
C1361 C1360 1.367 . S
C1361 C1363 1.433 . S
C1362 C1358 1.350 . S
C1362 C1359 1.463 . S
C1362 N1366 1.427 . S
C1363 H1353 0.929 . S
C1363 C1361 1.433 . S
C1363 N1366 1.384 . S
C1364 H1355 0.929 . S
C1364 C1356 1.378 . S
C1364 C1359 1.350 . S
C1365 H1352 0.929 . S
C1365 C1357 1.433 . S
C1365 N1367 1.384 . S
N1366 C1362 1.427 . S
N1366 C1363 1.384 . S
N1367 C1359 1.427 . S
N1367 C1365 1.384 . S
H1368 C1374 0.930 . S
H1369 C1378 0.930 . S
H1370 C1383 0.929 . S
H1371 C1381 0.929 . S
H1372 C1376 0.929 . S
H1373 C1382 0.929 . S
C1374 H1368 0.930 . S
C1374 C1375 1.367 . S
C1374 C1382 1.378 . S
C1375 C1374 1.367 . S
C1375 C1383 1.433 . S
C1376 H1372 0.929 . S
C1376 C1378 1.378 . S
C1376 C1380 1.350 . S
C1377 C1380 1.463 . S
C1377 C1382 1.350 . S
C1377 N1385 1.427 . S
C1378 H1369 0.930 . S
C1378 C1376 1.378 . S
C1378 C1379 1.367 . S
C1379 C1378 1.367 . S
C1379 C1381 1.433 . S
C1380 C1376 1.350 . S
C1380 C1377 1.463 . S
C1380 N1384 1.427 . S
C1381 H1371 0.929 . S
C1381 C1379 1.433 . S
C1381 N1384 1.384 . S
C1382 H1373 0.929 . S
C1382 C1374 1.378 . S
C1382 C1377 1.350 . S
C1383 H1370 0.929 . S
C1383 C1375 1.433 . S
C1383 N1385 1.384 . S
N1384 C1380 1.427 . S
N1384 C1381 1.384 . S
N1385 C1377 1.427 . S
N1385 C1383 1.384 . S
H1386 C1392 0.930 . S
H1387 C1396 0.930 . S
H1388 C1401 0.929 . S
H1389 C1399 0.929 . S
H1390 C1394 0.929 . S
H1391 C1400 0.929 . S
C1392 H1386 0.930 . S
C1392 C1393 1.367 . S
C1392 C1400 1.378 . S
C1393 C1392 1.367 . S
C1393 C1401 1.433 . S
C1394 H1390 0.929 . S
C1394 C1396 1.378 . S
C1394 C1398 1.350 . S
C1395 C1398 1.463 . S
C1395 C1400 1.350 . S
C1395 N1403 1.427 . S
C1396 H1387 0.930 . S
C1396 C1394 1.378 . S
C1396 C1397 1.367 . S
C1397 C1396 1.367 . S
C1397 C1399 1.433 . S
C1398 C1394 1.350 . S
C1398 C1395 1.463 . S
C1398 N1402 1.427 . S
C1399 H1389 0.929 . S
C1399 C1397 1.433 . S
C1399 N1402 1.384 . S
C1400 H1391 0.929 . S
C1400 C1392 1.378 . S
C1400 C1395 1.350 . S
C1401 H1388 0.929 . S
C1401 C1393 1.433 . S
C1401 N1403 1.384 . S
N1402 C1398 1.427 . S
N1402 C1399 1.384 . S
N1403 C1395 1.427 . S
N1403 C1401 1.384 . S
C601 C21 1.093 . S
C605 N35 1.071 . S
C619 N68 1.051 . S
C623 C54 1.085 . S
C637 C87 1.098 . S
C641 N2 1.060 . S
C655 N167 1.068 . S
C659 C120 1.096 . S
C673 N101 1.066 . S
C677 C153 1.097 . S
C691 C186 1.096 . S
C695 N134 1.067 . S
C709 N233 1.061 . S
C713 C219 1.083 . S
C727 C252 1.095 . S
C731 N266 1.050 . S
C745 C285 1.095 . S
C749 N200 1.069 . S
C763 N365 1.069 . S
C767 C318 1.095 . S
C781 N299 1.071 . S
C785 C351 1.091 . S
C799 C384 1.091 . S
C803 N332 1.071 . S
C817 N431 1.070 . S
C821 C417 1.094 . S
C835 C450 1.086 . S
C839 N464 1.069 . S
C853 C483 1.083 . S
C857 N398 1.059 . S
C871 N563 1.051 . S
C875 C516 1.085 . S
C889 N497 1.069 . S
C893 C549 1.095 . S
C907 C582 1.091 . S
C911 N530 1.071 . S
C925 N343 1.358 . S
C929 N13 1.361 . S
C943 N376 1.358 . S
C947 N46 1.356 . S
C961 N310 1.362 . S
C965 N79 1.360 . S
C979 N112 1.356 . S
C983 N475 1.357 . S
C997 N409 1.359 . S
C1001 N145 1.362 . S
C1015 N442 1.356 . S
C1019 N178 1.360 . S
C1033 N211 1.356 . S
C1037 N541 1.359 . S
C1051 N574 1.356 . S
C1055 N244 1.358 . S
C1069 N508 1.357 . S
C1073 N277 1.361 . S
C1087 C7 1.197 . S
C1091 C172 1.206 . S
C1105 C106 1.196 . S
C1109 C40 1.206 . S
C1123 C139 1.197 . S
C1127 C73 1.205 . S
C1141 C370 1.206 . S
C1145 C205 1.191 . S
C1159 C304 1.198 . S
C1163 C238 1.205 . S
C1177 C271 1.199 . S
C1181 C337 1.205 . S
C1195 C568 1.185 . S
C1199 C403 1.196 . S
C1213 C436 1.191 . S
C1217 C502 1.206 . S
C1231 C535 1.198 . S
C1235 C469 1.205 . S
C1249 C18 1.230 . S
C1253 C183 1.223 . S
C1267 C51 1.223 . S
C1271 C117 1.233 . S
C1285 C150 1.224 . S
C1289 C84 1.226 . S
C1303 C381 1.232 . S
C1307 C216 1.223 . S
C1321 C315 1.223 . S
C1325 C249 1.231 . S
C1339 C348 1.242 . S
C1343 C282 1.239 . S
C1357 C414 1.235 . S
C1361 C579 1.243 . S
C1375 C447 1.242 . S
C1379 C513 1.240 . S
C1393 C546 1.243 . S
C1397 C480 1.237 . S
