# Generated by pormake.
# Topology umq, (4)-cn, num edge types: 1
# Building blocks:
#     Node 0, Type 0, BuildingBlock: QUQFOY_clean_sbu_3, # of connection points: 4
#     Node 1, Type 0, BuildingBlock: QUQFOY_clean_sbu_3, # of connection points: 4
#     Node 2, Type 0, BuildingBlock: QUQFOY_clean_sbu_3, # of connection points: 4
#     Node 3, Type 0, BuildingBlock: QUQFOY_clean_sbu_3, # of connection points: 4
#     Node 4, Type 0, BuildingBlock: QUQFOY_clean_sbu_3, # of connection points: 4
#     Node 5, Type 0, BuildingBlock: QUQFOY_clean_sbu_3, # of connection points: 4
#     Node 6, Type 0, BuildingBlock: QUQFOY_clean_sbu_3, # of connection points: 4
#     Node 7, Type 0, BuildingBlock: QUQFOY_clean_sbu_3, # of connection points: 4
#     Node 8, Type 0, BuildingBlock: QUQFOY_clean_sbu_3, # of connection points: 4
#     Node 9, Type 0, BuildingBlock: QUQFOY_clean_sbu_3, # of connection points: 4
#     Node 10, Type 0, BuildingBlock: QUQFOY_clean_sbu_3, # of connection points: 4
#     Node 11, Type 0, BuildingBlock: QUQFOY_clean_sbu_3, # of connection points: 4
#     Node 12, Type 0, BuildingBlock: QUQFOY_clean_sbu_3, # of connection points: 4
#     Node 13, Type 0, BuildingBlock: QUQFOY_clean_sbu_3, # of connection points: 4
#     Node 14, Type 0, BuildingBlock: QUQFOY_clean_sbu_3, # of connection points: 4
#     Node 15, Type 0, BuildingBlock: QUQFOY_clean_sbu_3, # of connection points: 4
#     Node 16, Type 0, BuildingBlock: QUQFOY_clean_sbu_3, # of connection points: 4
#     Node 17, Type 0, BuildingBlock: QUQFOY_clean_sbu_3, # of connection points: 4
#     Node 18, Type 0, BuildingBlock: QUQFOY_clean_sbu_3, # of connection points: 4
#     Node 19, Type 0, BuildingBlock: QUQFOY_clean_sbu_3, # of connection points: 4
#     Node 20, Type 0, BuildingBlock: QUQFOY_clean_sbu_3, # of connection points: 4
#     Node 21, Type 0, BuildingBlock: QUQFOY_clean_sbu_3, # of connection points: 4
#     Node 22, Type 0, BuildingBlock: QUQFOY_clean_sbu_3, # of connection points: 4
#     Node 23, Type 0, BuildingBlock: QUQFOY_clean_sbu_3, # of connection points: 4
#     Node 24, Type 0, BuildingBlock: QUQFOY_clean_sbu_3, # of connection points: 4
#     Node 25, Type 0, BuildingBlock: QUQFOY_clean_sbu_3, # of connection points: 4
#     Node 26, Type 0, BuildingBlock: QUQFOY_clean_sbu_3, # of connection points: 4
#     Node 27, Type 0, BuildingBlock: QUQFOY_clean_sbu_3, # of connection points: 4
#     Node 28, Type 0, BuildingBlock: QUQFOY_clean_sbu_3, # of connection points: 4
#     Node 29, Type 0, BuildingBlock: QUQFOY_clean_sbu_3, # of connection points: 4
#     Node 30, Type 0, BuildingBlock: QUQFOY_clean_sbu_3, # of connection points: 4
#     Node 31, Type 0, BuildingBlock: QUQFOY_clean_sbu_3, # of connection points: 4
#     Edge 32, Type (0, 0), BuildingBlock: XIVTED_clean_linker_0, # of connection points: 2
#     Edge 33, Type (0, 0), BuildingBlock: XIVTED_clean_linker_0, # of connection points: 2
#     Edge 34, Type (0, 0), BuildingBlock: XIVTED_clean_linker_0, # of connection points: 2
#     Edge 35, Type (0, 0), BuildingBlock: XIVTED_clean_linker_0, # of connection points: 2
#     Edge 36, Type (0, 0), BuildingBlock: XIVTED_clean_linker_0, # of connection points: 2
#     Edge 37, Type (0, 0), BuildingBlock: XIVTED_clean_linker_0, # of connection points: 2
#     Edge 38, Type (0, 0), BuildingBlock: XIVTED_clean_linker_0, # of connection points: 2
#     Edge 39, Type (0, 0), BuildingBlock: XIVTED_clean_linker_0, # of connection points: 2
#     Edge 40, Type (0, 0), BuildingBlock: XIVTED_clean_linker_0, # of connection points: 2
#     Edge 41, Type (0, 0), BuildingBlock: XIVTED_clean_linker_0, # of connection points: 2
#     Edge 42, Type (0, 0), BuildingBlock: XIVTED_clean_linker_0, # of connection points: 2
#     Edge 43, Type (0, 0), BuildingBlock: XIVTED_clean_linker_0, # of connection points: 2
#     Edge 44, Type (0, 0), BuildingBlock: XIVTED_clean_linker_0, # of connection points: 2
#     Edge 45, Type (0, 0), BuildingBlock: XIVTED_clean_linker_0, # of connection points: 2
#     Edge 46, Type (0, 0), BuildingBlock: XIVTED_clean_linker_0, # of connection points: 2
#     Edge 47, Type (0, 0), BuildingBlock: XIVTED_clean_linker_0, # of connection points: 2
#     Edge 48, Type (0, 0), BuildingBlock: XIVTED_clean_linker_0, # of connection points: 2
#     Edge 49, Type (0, 0), BuildingBlock: XIVTED_clean_linker_0, # of connection points: 2
#     Edge 50, Type (0, 0), BuildingBlock: XIVTED_clean_linker_0, # of connection points: 2
#     Edge 51, Type (0, 0), BuildingBlock: XIVTED_clean_linker_0, # of connection points: 2
#     Edge 52, Type (0, 0), BuildingBlock: XIVTED_clean_linker_0, # of connection points: 2
#     Edge 53, Type (0, 0), BuildingBlock: XIVTED_clean_linker_0, # of connection points: 2
#     Edge 54, Type (0, 0), BuildingBlock: XIVTED_clean_linker_0, # of connection points: 2
#     Edge 55, Type (0, 0), BuildingBlock: XIVTED_clean_linker_0, # of connection points: 2
#     Edge 56, Type (0, 0), BuildingBlock: XIVTED_clean_linker_0, # of connection points: 2
#     Edge 57, Type (0, 0), BuildingBlock: XIVTED_clean_linker_0, # of connection points: 2
#     Edge 58, Type (0, 0), BuildingBlock: XIVTED_clean_linker_0, # of connection points: 2
#     Edge 59, Type (0, 0), BuildingBlock: XIVTED_clean_linker_0, # of connection points: 2
#     Edge 60, Type (0, 0), BuildingBlock: XIVTED_clean_linker_0, # of connection points: 2
#     Edge 61, Type (0, 0), BuildingBlock: XIVTED_clean_linker_0, # of connection points: 2
#     Edge 62, Type (0, 0), BuildingBlock: XIVTED_clean_linker_0, # of connection points: 2
#     Edge 63, Type (0, 0), BuildingBlock: XIVTED_clean_linker_0, # of connection points: 2
#     Edge 64, Type (0, 0), BuildingBlock: XIVTED_clean_linker_0, # of connection points: 2
#     Edge 65, Type (0, 0), BuildingBlock: XIVTED_clean_linker_0, # of connection points: 2
#     Edge 66, Type (0, 0), BuildingBlock: XIVTED_clean_linker_0, # of connection points: 2
#     Edge 67, Type (0, 0), BuildingBlock: XIVTED_clean_linker_0, # of connection points: 2
#     Edge 68, Type (0, 0), BuildingBlock: XIVTED_clean_linker_0, # of connection points: 2
#     Edge 69, Type (0, 0), BuildingBlock: XIVTED_clean_linker_0, # of connection points: 2
#     Edge 70, Type (0, 0), BuildingBlock: XIVTED_clean_linker_0, # of connection points: 2
#     Edge 71, Type (0, 0), BuildingBlock: XIVTED_clean_linker_0, # of connection points: 2
#     Edge 72, Type (0, 0), BuildingBlock: XIVTED_clean_linker_0, # of connection points: 2
#     Edge 73, Type (0, 0), BuildingBlock: XIVTED_clean_linker_0, # of connection points: 2
#     Edge 74, Type (0, 0), BuildingBlock: XIVTED_clean_linker_0, # of connection points: 2
#     Edge 75, Type (0, 0), BuildingBlock: XIVTED_clean_linker_0, # of connection points: 2
#     Edge 76, Type (0, 0), BuildingBlock: XIVTED_clean_linker_0, # of connection points: 2
#     Edge 77, Type (0, 0), BuildingBlock: XIVTED_clean_linker_0, # of connection points: 2
#     Edge 78, Type (0, 0), BuildingBlock: XIVTED_clean_linker_0, # of connection points: 2
#     Edge 79, Type (0, 0), BuildingBlock: XIVTED_clean_linker_0, # of connection points: 2
#     Edge 80, Type (0, 0), BuildingBlock: XIVTED_clean_linker_0, # of connection points: 2
#     Edge 81, Type (0, 0), BuildingBlock: XIVTED_clean_linker_0, # of connection points: 2
#     Edge 82, Type (0, 0), BuildingBlock: XIVTED_clean_linker_0, # of connection points: 2
#     Edge 83, Type (0, 0), BuildingBlock: XIVTED_clean_linker_0, # of connection points: 2
#     Edge 84, Type (0, 0), BuildingBlock: XIVTED_clean_linker_0, # of connection points: 2
#     Edge 85, Type (0, 0), BuildingBlock: XIVTED_clean_linker_0, # of connection points: 2
#     Edge 86, Type (0, 0), BuildingBlock: XIVTED_clean_linker_0, # of connection points: 2
#     Edge 87, Type (0, 0), BuildingBlock: XIVTED_clean_linker_0, # of connection points: 2
#     Edge 88, Type (0, 0), BuildingBlock: XIVTED_clean_linker_0, # of connection points: 2
#     Edge 89, Type (0, 0), BuildingBlock: XIVTED_clean_linker_0, # of connection points: 2
#     Edge 90, Type (0, 0), BuildingBlock: XIVTED_clean_linker_0, # of connection points: 2
#     Edge 91, Type (0, 0), BuildingBlock: XIVTED_clean_linker_0, # of connection points: 2
#     Edge 92, Type (0, 0), BuildingBlock: XIVTED_clean_linker_0, # of connection points: 2
#     Edge 93, Type (0, 0), BuildingBlock: XIVTED_clean_linker_0, # of connection points: 2
#     Edge 94, Type (0, 0), BuildingBlock: XIVTED_clean_linker_0, # of connection points: 2
#     Edge 95, Type (0, 0), BuildingBlock: XIVTED_clean_linker_0, # of connection points: 2
# Relax obj value: 0.064
# Max RMSD: 0.052
# Mean RMSD: 0.052
data_MOF--net-umq--node1-QUQFOY_clean_sbu_3--edge1-XIVTED_clean_linker_0
_symmetry_space_group_name_H-M    P1
_symmetry_Int_Tables_number       1
_symmetry_cell_setting            triclinic
loop_
_symmetry_equiv_pos_as_xyz
'x, y, z'
_cell_length_a     68.263405
_cell_length_b     68.162547
_cell_length_c     46.489309
_cell_angle_alpha  89.996189
_cell_angle_beta   90.000034
_cell_angle_gamma 89.964255
loop_
_atom_site_label
_atom_site_type_symbol
_atom_site_fract_x
_atom_site_fract_y
_atom_site_fract_z
_atom_type_partial_charge
C0 C 0.21267 0.08839 0.08948 0.0
O1 O 0.20124 0.10252 0.09536 0.0
Cd2 Cd 0.20167 0.1209 0.13849 0.0
O3 O 0.22491 0.08199 0.10794 0.0
Cd4 Cd 0.23196 0.08824 0.1599 0.0
C5 C 0.25123 0.13194 0.14325 0.0
O6 O 0.19879 0.09632 0.17418 0.0
O7 O 0.22089 0.1052 0.20414 0.0
O8 O 0.23313 0.05276 0.16382 0.0
C9 C 0.20283 0.10398 0.19818 0.0
O10 O 0.23354 0.13762 0.14021 0.0
C11 C 0.24744 0.0523 0.18122 0.0
O12 O 0.25517 0.11408 0.14875 0.0
O13 O 0.25488 0.06863 0.18848 0.0
C14 C 0.90017 0.21537 0.0909 0.0
O15 O 0.88616 0.20346 0.09496 0.0
Cd16 Cd 0.86562 0.20312 0.13596 0.0
O17 O 0.90533 0.22747 0.11036 0.0
Cd18 Cd 0.89651 0.23306 0.16187 0.0
C19 C 0.85376 0.25244 0.14097 0.0
O20 O 0.88802 0.19957 0.17456 0.0
O21 O 0.87724 0.22148 0.2036 0.0
O22 O 0.93153 0.23398 0.17023 0.0
C23 C 0.87912 0.20343 0.19769 0.0
O24 O 0.84833 0.23479 0.13665 0.0
C25 C 0.93112 0.24834 0.18758 0.0
O26 O 0.87122 0.25629 0.14871 0.0
O27 O 0.91451 0.25595 0.19279 0.0
C28 C 0.77365 0.89859 0.09052 0.0
O29 O 0.78543 0.88464 0.09582 0.0
Cd30 Cd 0.78565 0.8653 0.13809 0.0
O31 O 0.76118 0.90421 0.10921 0.0
Cd32 Cd 0.75408 0.89629 0.16066 0.0
C33 C 0.73669 0.85207 0.14196 0.0
O34 O 0.78741 0.88903 0.17521 0.0
O35 O 0.7653 0.87882 0.20427 0.0
O36 O 0.75197 0.93151 0.1674 0.0
C37 C 0.78337 0.8808 0.1988 0.0
O38 O 0.75458 0.84715 0.13879 0.0
C39 C 0.73724 0.93103 0.18404 0.0
O40 O 0.73204 0.86966 0.14817 0.0
O41 O 0.72993 0.9143 0.1894 0.0
C42 C 0.08604 0.77299 0.09363 0.0
O43 O 0.09951 0.78519 0.0994 0.0
Cd44 Cd 0.11883 0.78508 0.14169 0.0
O45 O 0.08067 0.76015 0.11194 0.0
Cd46 Cd 0.08787 0.7529 0.16353 0.0
C47 C 0.13202 0.73589 0.14416 0.0
O48 O 0.0952 0.78608 0.17888 0.0
O49 O 0.10515 0.76355 0.20752 0.0
O50 O 0.05262 0.75055 0.16846 0.0
C51 C 0.10347 0.78172 0.20233 0.0
O52 O 0.13688 0.75385 0.14139 0.0
C53 C 0.05284 0.736 0.18547 0.0
O54 O 0.1145 0.73112 0.15047 0.0
O55 O 0.06946 0.72891 0.19202 0.0
C56 C 0.21371 0.89763 0.38337 0.0
O57 O 0.20193 0.88351 0.37932 0.0
Cd58 Cd 0.2016 0.86289 0.33838 0.0
O59 O 0.22578 0.90285 0.36391 0.0
Cd60 Cd 0.23175 0.89387 0.31259 0.0
C61 C 0.25087 0.85099 0.334 0.0
O62 O 0.19839 0.8853 0.29969 0.0
O63 O 0.22038 0.87474 0.27063 0.0
O64 O 0.23276 0.92893 0.30402 0.0
C65 C 0.20234 0.87647 0.27653 0.0
O66 O 0.23321 0.84561 0.33815 0.0
C67 C 0.24722 0.92843 0.2869 0.0
O68 O 0.25479 0.86844 0.32617 0.0
O69 O 0.25484 0.91177 0.28195 0.0
C70 C 0.08971 0.20848 0.38307 0.0
O71 O 0.10358 0.19676 0.37712 0.0
Cd72 Cd 0.12215 0.19721 0.33414 0.0
O73 O 0.08371 0.22105 0.36476 0.0
Cd74 Cd 0.09027 0.22863 0.31308 0.0
C75 C 0.13435 0.2466 0.33092 0.0
O76 O 0.09772 0.19546 0.29805 0.0
O77 O 0.10696 0.21775 0.26857 0.0
O78 O 0.05489 0.23075 0.30915 0.0
C79 C 0.10547 0.19962 0.27417 0.0
O80 O 0.13963 0.22875 0.33372 0.0
C81 C 0.05479 0.24538 0.29229 0.0
O82 O 0.11665 0.25096 0.32508 0.0
O83 O 0.07128 0.25253 0.28525 0.0
C84 C 0.77371 0.0896 0.38059 0.0
O85 O 0.78542 0.10348 0.37468 0.0
Cd86 Cd 0.78493 0.12235 0.33202 0.0
O87 O 0.76118 0.08362 0.36223 0.0
Cd88 Cd 0.75381 0.09033 0.31044 0.0
C89 C 0.73541 0.13409 0.32904 0.0
O90 O 0.78688 0.09829 0.29546 0.0
O91 O 0.76444 0.10751 0.26623 0.0
O92 O 0.75219 0.05491 0.30596 0.0
C93 C 0.78257 0.10623 0.27175 0.0
O94 O 0.75321 0.1394 0.332 0.0
C95 C 0.73767 0.05475 0.28892 0.0
O96 O 0.73113 0.11643 0.32274 0.0
O97 O 0.73033 0.07123 0.2821 0.0
C98 C 0.89938 0.77778 0.38481 0.0
O99 O 0.88564 0.78977 0.37931 0.0
Cd100 Cd 0.86586 0.78978 0.33742 0.0
O101 O 0.90466 0.76494 0.36643 0.0
Cd102 Cd 0.8965 0.75708 0.31538 0.0
C103 C 0.85213 0.74081 0.33563 0.0
O104 O 0.88899 0.79012 0.29953 0.0
O105 O 0.87905 0.76732 0.27138 0.0
O106 O 0.93155 0.75446 0.30781 0.0
C107 C 0.8806 0.78553 0.27627 0.0
O108 O 0.84744 0.75883 0.33829 0.0
C109 C 0.93072 0.73912 0.29239 0.0
O110 O 0.86958 0.73584 0.3292 0.0
O111 O 0.91389 0.73177 0.28805 0.0
C112 C 0.77548 0.90151 0.88435 0.0
O113 O 0.78726 0.88752 0.87928 0.0
Cd114 Cd 0.78689 0.86749 0.83772 0.0
O115 O 0.76295 0.90695 0.86564 0.0
Cd116 Cd 0.75601 0.89871 0.81425 0.0
C117 C 0.7376 0.85535 0.83467 0.0
O118 O 0.7891 0.89038 0.79957 0.0
O119 O 0.76651 0.88002 0.77141 0.0
O120 O 0.75477 0.93382 0.80598 0.0
C121 C 0.78466 0.88173 0.77645 0.0
O122 O 0.75538 0.85004 0.83793 0.0
C123 C 0.73996 0.93336 0.78949 0.0
O124 O 0.73338 0.87293 0.82779 0.0
O125 O 0.7322 0.91672 0.78495 0.0
C126 C 0.09002 0.77372 0.88701 0.0
O127 O 0.10446 0.78513 0.88281 0.0
Cd128 Cd 0.12338 0.78941 0.84051 0.0
O129 O 0.08334 0.76278 0.867 0.0
Cd130 Cd 0.09005 0.75795 0.81453 0.0
C131 C 0.13606 0.74086 0.82792 0.0
O132 O 0.09743 0.79193 0.8075 0.0
O133 O 0.1011 0.77465 0.76948 0.0
O134 O 0.05474 0.75428 0.81014 0.0
C135 C 0.10219 0.79134 0.78133 0.0
O136 O 0.14095 0.7584 0.83412 0.0
C137 C 0.05551 0.74047 0.79184 0.0
O138 O 0.11843 0.7366 0.82142 0.0
O139 O 0.07241 0.73433 0.78478 0.0
C140 C 0.21259 0.09023 0.88227 0.0
O141 O 0.20087 0.1042 0.87683 0.0
Cd142 Cd 0.2004 0.12299 0.8341 0.0
O143 O 0.22484 0.08425 0.8635 0.0
Cd144 Cd 0.23157 0.09133 0.81166 0.0
C145 C 0.24955 0.13552 0.82931 0.0
O146 O 0.19815 0.09866 0.79791 0.0
O147 O 0.21987 0.10843 0.76793 0.0
O148 O 0.23362 0.05596 0.80669 0.0
C149 C 0.20188 0.10665 0.77404 0.0
O150 O 0.23173 0.14068 0.83265 0.0
C151 C 0.24779 0.05606 0.78905 0.0
O152 O 0.25395 0.11784 0.82328 0.0
O153 O 0.25484 0.07266 0.78223 0.0
C154 C 0.89891 0.21536 0.88546 0.0
O155 O 0.88466 0.20367 0.88152 0.0
Cd156 Cd 0.86526 0.19933 0.83968 0.0
O157 O 0.90512 0.22652 0.86538 0.0
Cd158 Cd 0.89777 0.23132 0.81312 0.0
C159 C 0.85175 0.24776 0.82804 0.0
O160 O 0.89076 0.19723 0.80584 0.0
O161 O 0.88651 0.21476 0.76818 0.0
O162 O 0.93296 0.23551 0.80815 0.0
C163 C 0.88577 0.19797 0.77976 0.0
O164 O 0.84716 0.23013 0.83423 0.0
C165 C 0.93185 0.24924 0.78975 0.0
O166 O 0.86923 0.25225 0.82099 0.0
O167 O 0.91482 0.25512 0.78291 0.0
C168 C 0.77659 0.09122 0.58774 0.0
O169 O 0.78798 0.10562 0.59241 0.0
Cd170 Cd 0.79174 0.12414 0.63526 0.0
O171 O 0.76547 0.08438 0.60741 0.0
Cd172 Cd 0.76012 0.0904 0.65992 0.0
C173 C 0.74313 0.13661 0.64735 0.0
O174 O 0.79398 0.09771 0.66762 0.0
O175 O 0.77657 0.1005 0.70562 0.0
O176 O 0.75569 0.05503 0.66198 0.0
C177 C 0.79326 0.102 0.69395 0.0
O178 O 0.76067 0.14164 0.64148 0.0
C179 C 0.74222 0.05554 0.68082 0.0
O180 O 0.73891 0.11888 0.65341 0.0
O181 O 0.73668 0.07234 0.68938 0.0
C182 C 0.90033 0.77791 0.59113 0.0
O183 O 0.88638 0.78964 0.59655 0.0
Cd184 Cd 0.86674 0.78886 0.63845 0.0
O185 O 0.90586 0.76519 0.60954 0.0
Cd186 Cd 0.89808 0.75751 0.66089 0.0
C187 C 0.85453 0.73944 0.6407 0.0
O188 O 0.8902 0.79062 0.67589 0.0
O189 O 0.8802 0.7681 0.70447 0.0
O190 O 0.93334 0.7556 0.66664 0.0
C191 C 0.88188 0.78627 0.69928 0.0
O192 O 0.84931 0.75729 0.63774 0.0
C193 C 0.93314 0.74112 0.68379 0.0
O194 O 0.87209 0.73507 0.64741 0.0
O195 O 0.91655 0.73388 0.69005 0.0
C196 C 0.21314 0.89862 0.58848 0.0
O197 O 0.20163 0.8842 0.59226 0.0
Cd198 Cd 0.19784 0.86454 0.63397 0.0
O199 O 0.22426 0.90487 0.60856 0.0
Cd200 Cd 0.22936 0.89767 0.6608 0.0
C201 C 0.24654 0.8519 0.64566 0.0
O202 O 0.19546 0.89016 0.6676 0.0
O203 O 0.21259 0.88655 0.70575 0.0
O204 O 0.23347 0.93301 0.66382 0.0
C205 C 0.19599 0.88532 0.69374 0.0
O206 O 0.22903 0.84707 0.63927 0.0
C207 C 0.24669 0.93245 0.68301 0.0
O208 O 0.25073 0.86942 0.65298 0.0
O209 O 0.25227 0.91562 0.69142 0.0
C210 C 0.08903 0.21082 0.5906 0.0
O211 O 0.10301 0.19932 0.59689 0.0
Cd212 Cd 0.12144 0.1998 0.63995 0.0
O213 O 0.08277 0.22343 0.60867 0.0
Cd214 Cd 0.08925 0.23145 0.6603 0.0
C215 C 0.13353 0.24921 0.64266 0.0
O216 O 0.09686 0.19843 0.67577 0.0
O217 O 0.10579 0.22093 0.70508 0.0
O218 O 0.05388 0.23356 0.66481 0.0
C219 C 0.10453 0.20277 0.69963 0.0
O220 O 0.13882 0.23134 0.64022 0.0
C221 C 0.05392 0.24828 0.68152 0.0
O222 O 0.11579 0.25364 0.64817 0.0
O223 O 0.07045 0.25556 0.68798 0.0
C224 C 0.71511 0.58677 0.5966 0.0
O225 O 0.70307 0.60062 0.601 0.0
Cd226 Cd 0.70312 0.62148 0.64158 0.0
O227 O 0.72776 0.58196 0.61553 0.0
Cd228 Cd 0.73449 0.59109 0.66668 0.0
C229 C 0.75237 0.63422 0.64433 0.0
O230 O 0.70113 0.59885 0.68004 0.0
O231 O 0.7229 0.61013 0.70876 0.0
O232 O 0.73655 0.55597 0.67393 0.0
C233 C 0.70489 0.60795 0.70301 0.0
O234 O 0.73453 0.63916 0.64061 0.0
C235 C 0.75058 0.55659 0.69178 0.0
O236 O 0.75685 0.61691 0.65227 0.0
O237 O 0.75754 0.57337 0.69779 0.0
C238 C 0.39841 0.7147 0.588 0.0
O239 O 0.38383 0.7034 0.59181 0.0
Cd240 Cd 0.36409 0.70003 0.63357 0.0
O241 O 0.40472 0.72586 0.608 0.0
Cd242 Cd 0.39735 0.73152 0.66001 0.0
C243 C 0.35166 0.74884 0.64492 0.0
O244 O 0.3896 0.69764 0.66739 0.0
O245 O 0.38646 0.71511 0.70534 0.0
O246 O 0.43264 0.7357 0.66298 0.0
C247 C 0.38495 0.69841 0.6936 0.0
O248 O 0.34673 0.73131 0.6387 0.0
C249 C 0.43205 0.74915 0.68186 0.0
O250 O 0.36921 0.75297 0.65205 0.0
O251 O 0.41523 0.75478 0.69015 0.0
C252 C 0.27161 0.40115 0.59459 0.0
O253 O 0.28373 0.38735 0.59904 0.0
Cd254 Cd 0.28487 0.36743 0.64057 0.0
O255 O 0.25946 0.40642 0.61395 0.0
Cd256 Cd 0.25369 0.39828 0.66573 0.0
C257 C 0.23573 0.35459 0.64585 0.0
O258 O 0.28733 0.39088 0.67786 0.0
O259 O 0.26625 0.38007 0.70803 0.0
O260 O 0.25155 0.43352 0.67177 0.0
C261 C 0.28411 0.38215 0.70132 0.0
O262 O 0.25354 0.34969 0.64169 0.0
C263 C 0.23786 0.43313 0.69021 0.0
O264 O 0.23127 0.37203 0.65321 0.0
O265 O 0.23112 0.41641 0.69709 0.0
C266 C 0.59376 0.27484 0.59103 0.0
O267 O 0.6081 0.2863 0.59572 0.0
Cd268 Cd 0.62664 0.29006 0.63846 0.0
O269 O 0.5871 0.26353 0.6106 0.0
Cd270 Cd 0.59347 0.25775 0.66288 0.0
C271 C 0.63981 0.24148 0.64949 0.0
O272 O 0.60018 0.29168 0.67074 0.0
O273 O 0.60352 0.27427 0.70869 0.0
O274 O 0.55823 0.25325 0.66541 0.0
C275 C 0.60453 0.29104 0.69705 0.0
O276 O 0.64457 0.25915 0.6439 0.0
C277 C 0.55886 0.2393 0.6835 0.0
O278 O 0.62219 0.23697 0.6557 0.0
O279 O 0.5757 0.23354 0.69148 0.0
C280 C 0.7148 0.39819 0.89098 0.0
O281 O 0.70367 0.38346 0.88727 0.0
Cd282 Cd 0.69935 0.36421 0.8452 0.0
O283 O 0.72545 0.4049 0.87068 0.0
Cd284 Cd 0.73033 0.39801 0.8184 0.0
C285 C 0.74782 0.352 0.83171 0.0
O286 O 0.69645 0.39023 0.81224 0.0
O287 O 0.71309 0.38762 0.77346 0.0
O288 O 0.73455 0.43337 0.81527 0.0
C289 C 0.69669 0.38587 0.78592 0.0
O290 O 0.73044 0.34689 0.83837 0.0
C291 C 0.74793 0.43268 0.79633 0.0
O292 O 0.75178 0.36968 0.82498 0.0
O293 O 0.75348 0.4158 0.78812 0.0
C294 C 0.58833 0.71315 0.87906 0.0
O295 O 0.60214 0.70129 0.87339 0.0
Cd296 Cd 0.62179 0.70187 0.83155 0.0
O297 O 0.58287 0.72603 0.86083 0.0
Cd298 Cd 0.5905 0.73409 0.80958 0.0
C299 C 0.63429 0.75131 0.83045 0.0
O300 O 0.59822 0.7011 0.79435 0.0
O301 O 0.60812 0.72357 0.76564 0.0
O302 O 0.55526 0.73614 0.80426 0.0
C303 C 0.60658 0.70541 0.77097 0.0
O304 O 0.63927 0.73336 0.83306 0.0
C305 C 0.55541 0.75071 0.78728 0.0
O306 O 0.61683 0.756 0.82362 0.0
O307 O 0.57199 0.75797 0.78095 0.0
C308 C 0.27551 0.59333 0.88777 0.0
O309 O 0.28678 0.60779 0.8829 0.0
Cd310 Cd 0.29039 0.62602 0.83976 0.0
O311 O 0.26443 0.58631 0.86818 0.0
Cd312 Cd 0.25877 0.59208 0.81569 0.0
C313 C 0.24166 0.63827 0.82814 0.0
O314 O 0.29257 0.59951 0.80756 0.0
O315 O 0.27494 0.60215 0.76974 0.0
O316 O 0.25476 0.55664 0.81399 0.0
C317 C 0.29169 0.60372 0.78121 0.0
O318 O 0.25923 0.64334 0.83376 0.0
C319 C 0.24105 0.5569 0.79554 0.0
O320 O 0.23743 0.62051 0.82222 0.0
O321 O 0.23519 0.5736 0.787 0.0
C322 C 0.39973 0.27658 0.87347 0.0
O323 O 0.38599 0.28841 0.86732 0.0
Cd324 Cd 0.36688 0.28762 0.82498 0.0
O325 O 0.40542 0.2636 0.85556 0.0
Cd326 Cd 0.39855 0.25539 0.80411 0.0
C327 C 0.35448 0.23813 0.82354 0.0
O328 O 0.3912 0.2884 0.78884 0.0
O329 O 0.3817 0.26616 0.75953 0.0
O330 O 0.43385 0.25302 0.80043 0.0
C331 C 0.38318 0.28428 0.76516 0.0
O332 O 0.3494 0.25606 0.82599 0.0
C333 C 0.43395 0.23849 0.78339 0.0
O334 O 0.37204 0.23349 0.81729 0.0
O335 O 0.41745 0.23146 0.7761 0.0
C336 C 0.27035 0.39979 0.38881 0.0
O337 O 0.28189 0.38548 0.38428 0.0
Cd338 Cd 0.28452 0.36588 0.34224 0.0
O339 O 0.25863 0.40596 0.36943 0.0
Cd340 Cd 0.25214 0.39882 0.31761 0.0
C341 C 0.23562 0.35306 0.33368 0.0
O342 O 0.28578 0.39119 0.30795 0.0
O343 O 0.26692 0.38728 0.27162 0.0
O344 O 0.24826 0.43416 0.31438 0.0
C345 C 0.28403 0.38613 0.28199 0.0
O346 O 0.25334 0.34826 0.33876 0.0
C347 C 0.23443 0.43362 0.29614 0.0
O348 O 0.2311 0.37061 0.3269 0.0
O349 O 0.22835 0.4168 0.2885 0.0
C350 C 0.58924 0.27778 0.38495 0.0
O351 O 0.60312 0.28972 0.38024 0.0
Cd352 Cd 0.62319 0.28956 0.3388 0.0
O353 O 0.58369 0.26566 0.36575 0.0
Cd354 Cd 0.5909 0.26047 0.31366 0.0
C355 C 0.63331 0.23963 0.3323 0.0
O356 O 0.60086 0.29325 0.30053 0.0
O357 O 0.6106 0.27073 0.27157 0.0
O358 O 0.55702 0.2663 0.30379 0.0
C359 C 0.60939 0.28888 0.2773 0.0
O360 O 0.6388 0.25719 0.33724 0.0
C361 C 0.554 0.25094 0.28908 0.0
O362 O 0.61578 0.23594 0.32453 0.0
O363 O 0.56824 0.23902 0.28648 0.0
C364 C 0.7132 0.59093 0.3921 0.0
O365 O 0.70193 0.6056 0.38868 0.0
Cd366 Cd 0.69837 0.62576 0.34729 0.0
O367 O 0.72421 0.58476 0.37184 0.0
Cd368 Cd 0.72969 0.59275 0.32011 0.0
C369 C 0.74705 0.63819 0.33709 0.0
O370 O 0.69585 0.60066 0.31265 0.0
O371 O 0.71355 0.60432 0.27503 0.0
O372 O 0.73421 0.55752 0.3154 0.0
C373 C 0.6968 0.60562 0.28658 0.0
O374 O 0.72957 0.64332 0.34312 0.0
C375 C 0.74791 0.55872 0.29701 0.0
O376 O 0.75099 0.62068 0.32946 0.0
O377 O 0.75345 0.57582 0.28982 0.0
C378 C 0.40339 0.71265 0.38275 0.0
O379 O 0.38993 0.70019 0.37828 0.0
Cd380 Cd 0.3693 0.69929 0.33742 0.0
O381 O 0.40808 0.72518 0.36358 0.0
Cd382 Cd 0.3992 0.73107 0.31215 0.0
C383 C 0.35569 0.74831 0.33394 0.0
O384 O 0.39152 0.6976 0.29848 0.0
O385 O 0.38017 0.71969 0.27021 0.0
O386 O 0.4341 0.733 0.3032 0.0
C387 C 0.3823 0.7016 0.27566 0.0
O388 O 0.35106 0.73038 0.33783 0.0
C389 C 0.43318 0.74762 0.28635 0.0
O390 O 0.37293 0.75304 0.32612 0.0
O391 O 0.41635 0.75496 0.28185 0.0
C392 C 0.27527 0.58829 0.09479 0.0
O393 O 0.28722 0.60198 0.1006 0.0
Cd394 Cd 0.287 0.62127 0.14289 0.0
O395 O 0.26251 0.5827 0.11307 0.0
Cd396 Cd 0.25515 0.59008 0.16463 0.0
C397 C 0.23789 0.6342 0.14502 0.0
O398 O 0.28829 0.59741 0.17984 0.0
O399 O 0.26591 0.60744 0.20859 0.0
O400 O 0.25238 0.55482 0.1707 0.0
C401 C 0.28404 0.60563 0.20336 0.0
O402 O 0.25577 0.6393 0.14236 0.0
C403 C 0.23768 0.55552 0.18738 0.0
O404 O 0.23335 0.61662 0.15137 0.0
O405 O 0.23075 0.57236 0.19312 0.0
C406 C 0.39214 0.27817 0.07929 0.0
O407 O 0.37651 0.288 0.08292 0.0
Cd408 Cd 0.3568 0.28955 0.12491 0.0
O409 O 0.39971 0.26819 0.09967 0.0
Cd410 Cd 0.39357 0.26324 0.15206 0.0
C411 C 0.35079 0.23973 0.13805 0.0
O412 O 0.38123 0.29571 0.15936 0.0
O413 O 0.37923 0.27739 0.19679 0.0
O414 O 0.42804 0.2687 0.15882 0.0
C415 C 0.37628 0.29402 0.18538 0.0
O416 O 0.34384 0.25641 0.13104 0.0
C417 C 0.43122 0.25357 0.17403 0.0
O418 O 0.36866 0.23785 0.14557 0.0
O419 O 0.4168 0.24216 0.17841 0.0
C420 C 0.7151 0.4055 0.09635 0.0
O421 O 0.70269 0.39214 0.10167 0.0
Cd422 Cd 0.70282 0.37167 0.14275 0.0
O423 O 0.72817 0.4102 0.11469 0.0
Cd424 Cd 0.73545 0.40186 0.16591 0.0
C425 C 0.75193 0.35806 0.14396 0.0
O426 O 0.70241 0.39432 0.18117 0.0
O427 O 0.72498 0.38344 0.20896 0.0
O428 O 0.73769 0.43698 0.17283 0.0
C429 C 0.70683 0.38535 0.20405 0.0
O430 O 0.73393 0.35349 0.14099 0.0
C431 C 0.75225 0.43636 0.18977 0.0
O432 O 0.75693 0.37534 0.15133 0.0
O433 O 0.75945 0.41959 0.19525 0.0
C434 C 0.58977 0.71021 0.08539 0.0
O435 O 0.60422 0.69888 0.09004 0.0
Cd436 Cd 0.62342 0.69638 0.13245 0.0
O437 O 0.58328 0.72175 0.10481 0.0
Cd438 Cd 0.58986 0.72829 0.15679 0.0
C439 C 0.63543 0.74553 0.14116 0.0
O440 O 0.5977 0.69466 0.16603 0.0
O441 O 0.60093 0.71312 0.20293 0.0
O442 O 0.55451 0.73215 0.15913 0.0
C443 C 0.60239 0.69612 0.19215 0.0
O444 O 0.64057 0.72789 0.13601 0.0
C445 C 0.55484 0.74606 0.1773 0.0
O446 O 0.61782 0.7497 0.14793 0.0
O447 O 0.57155 0.75207 0.18545 0.0
H448 H 0.35889 0.20204 0.15552 0.0
H449 H 0.29086 0.12549 0.14714 0.0
H450 H 0.31272 0.23802 0.12011 0.0
H451 H 0.24823 0.17149 0.13425 0.0
H452 H 0.31688 0.14982 0.1447 0.0
H453 H 0.33647 0.17429 0.15653 0.0
C454 C 0.34409 0.20404 0.14763 0.0
C455 C 0.33771 0.22242 0.13773 0.0
C456 C 0.30189 0.15474 0.14282 0.0
C457 C 0.3119 0.19051 0.1382 0.0
C458 C 0.28696 0.14075 0.14396 0.0
C459 C 0.26729 0.14644 0.1411 0.0
C460 C 0.29707 0.17463 0.139 0.0
C461 C 0.26315 0.16639 0.13671 0.0
C462 C 0.33126 0.18808 0.14801 0.0
C463 C 0.31832 0.22417 0.12799 0.0
N464 N 0.2779 0.17971 0.13584 0.0
N465 N 0.30614 0.20846 0.12858 0.0
H466 H 0.85984 0.29185 0.14861 0.0
H467 H 0.74687 0.31967 0.12816 0.0
H468 H 0.8149 0.24987 0.12663 0.0
H469 H 0.79169 0.3617 0.1505 0.0
H470 H 0.77197 0.29433 0.12439 0.0
H471 H 0.83547 0.31801 0.1463 0.0
C472 C 0.84488 0.28812 0.14315 0.0
C473 C 0.8394 0.26859 0.13799 0.0
C474 C 0.77633 0.30911 0.12997 0.0
C475 C 0.81139 0.2985 0.13539 0.0
C476 C 0.762 0.32362 0.13213 0.0
C477 C 0.76715 0.34285 0.13985 0.0
C478 C 0.79598 0.31382 0.13564 0.0
C479 C 0.78702 0.34707 0.14462 0.0
C480 C 0.83096 0.30308 0.14185 0.0
C481 C 0.81979 0.26469 0.13091 0.0
N482 N 0.80069 0.33265 0.14258 0.0
N483 N 0.80649 0.27949 0.12996 0.0
H484 H 0.67435 0.74224 0.12762 0.0
H485 H 0.69704 0.85647 0.14944 0.0
H486 H 0.6303 0.78496 0.15068 0.0
H487 H 0.74106 0.81312 0.12893 0.0
H488 H 0.67207 0.83084 0.14761 0.0
H489 H 0.69866 0.76838 0.12582 0.0
C490 C 0.66975 0.75711 0.13226 0.0
C491 C 0.65022 0.76136 0.13942 0.0
C492 C 0.68718 0.82696 0.14341 0.0
C493 C 0.67808 0.79143 0.13738 0.0
C494 C 0.70146 0.8416 0.14441 0.0
C495 C 0.72122 0.83695 0.13945 0.0
C496 C 0.69268 0.80753 0.13742 0.0
C497 C 0.72604 0.81741 0.133 0.0
C498 C 0.68367 0.77205 0.13122 0.0
C499 C 0.64518 0.78096 0.14514 0.0
N500 N 0.71189 0.80343 0.13226 0.0
N501 N 0.65903 0.79526 0.14406 0.0
H502 H 0.24182 0.67329 0.13234 0.0
H503 H 0.12739 0.69607 0.14897 0.0
H504 H 0.19822 0.62899 0.15 0.0
H505 H 0.17108 0.74045 0.1323 0.0
H506 H 0.15288 0.67101 0.1464 0.0
H507 H 0.21584 0.6978 0.12927 0.0
C508 C 0.22679 0.66868 0.13544 0.0
C509 C 0.22223 0.64904 0.1416 0.0
C510 C 0.15688 0.68623 0.14318 0.0
C511 C 0.19239 0.67709 0.13818 0.0
C512 C 0.14232 0.70056 0.14463 0.0
C513 C 0.1471 0.72043 0.14102 0.0
C514 C 0.17638 0.69178 0.13814 0.0
C515 C 0.1667 0.72533 0.13535 0.0
C516 C 0.21195 0.6827 0.13369 0.0
C517 C 0.20246 0.64395 0.14532 0.0
N518 N 0.18063 0.71112 0.13422 0.0
N519 N 0.18829 0.6579 0.14368 0.0
H520 H 0.29025 0.85678 0.32608 0.0
H521 H 0.31742 0.74383 0.35043 0.0
H522 H 0.24812 0.8123 0.34946 0.0
H523 H 0.35954 0.78797 0.32562 0.0
H524 H 0.2923 0.7692 0.35348 0.0
H525 H 0.31625 0.83226 0.32908 0.0
C526 C 0.28646 0.84189 0.33199 0.0
C527 C 0.26692 0.83658 0.33734 0.0
C528 C 0.30706 0.77335 0.3475 0.0
C529 C 0.29665 0.80841 0.34074 0.0
C530 C 0.32143 0.75886 0.34576 0.0
C531 C 0.34062 0.76373 0.33756 0.0
C532 C 0.31185 0.79288 0.34094 0.0
C533 C 0.34494 0.7835 0.33189 0.0
C534 C 0.30133 0.82789 0.33369 0.0
C535 C 0.26293 0.81706 0.34501 0.0
N536 N 0.33064 0.79733 0.33355 0.0
N537 N 0.27765 0.80368 0.34634 0.0
H538 H 0.19613 0.35738 0.32439 0.0
H539 H 0.17331 0.243 0.34401 0.0
H540 H 0.23985 0.31406 0.34636 0.0
H541 H 0.12906 0.28622 0.32399 0.0
H542 H 0.19767 0.2691 0.34645 0.0
H543 H 0.17114 0.33176 0.32556 0.0
C544 C 0.20049 0.34251 0.32954 0.0
C545 C 0.22016 0.33788 0.33518 0.0
C546 C 0.18262 0.2729 0.34162 0.0
C547 C 0.1916 0.30846 0.33651 0.0
C548 C 0.16868 0.25798 0.34022 0.0
C549 C 0.14909 0.26239 0.33368 0.0
C550 C 0.17699 0.29239 0.33636 0.0
C551 C 0.14398 0.28211 0.32905 0.0
C552 C 0.18619 0.32788 0.33021 0.0
C553 C 0.2249 0.31834 0.34179 0.0
N554 N 0.15786 0.29636 0.33037 0.0
N555 N 0.21074 0.30436 0.34218 0.0
H556 H 0.69587 0.12915 0.32079 0.0
H557 H 0.6715 0.24229 0.34942 0.0
H558 H 0.73894 0.17266 0.34445 0.0
H559 H 0.62825 0.20035 0.32089 0.0
H560 H 0.69577 0.21619 0.3511 0.0
H561 H 0.67037 0.15427 0.32401 0.0
C562 C 0.69997 0.14394 0.3268 0.0
C563 C 0.71962 0.14881 0.33221 0.0
C564 C 0.68097 0.21264 0.34456 0.0
C565 C 0.6905 0.1776 0.33589 0.0
C566 C 0.66705 0.22756 0.34361 0.0
C567 C 0.64779 0.22356 0.33483 0.0
C568 C 0.67567 0.19349 0.33664 0.0
C569 C 0.64294 0.20414 0.32769 0.0
C570 C 0.68539 0.15828 0.3286 0.0
C571 C 0.72403 0.16822 0.33994 0.0
N572 N 0.65682 0.18983 0.32863 0.0
N573 N 0.7096 0.18188 0.34146 0.0
H574 H 0.78625 0.63269 0.32697 0.0
H575 H 0.81351 0.74572 0.35004 0.0
H576 H 0.74424 0.67715 0.35111 0.0
H577 H 0.85592 0.70107 0.32829 0.0
H578 H 0.78818 0.72055 0.35232 0.0
H579 H 0.81216 0.65731 0.32888 0.0
C580 C 0.78246 0.64761 0.33273 0.0
C581 C 0.763 0.65285 0.33877 0.0
C582 C 0.80305 0.71624 0.34717 0.0
C583 C 0.79264 0.68114 0.34099 0.0
C584 C 0.81754 0.73062 0.34588 0.0
C585 C 0.83689 0.72554 0.33882 0.0
C586 C 0.80788 0.69662 0.34128 0.0
C587 C 0.84121 0.70569 0.33374 0.0
C588 C 0.79729 0.66166 0.33384 0.0
C589 C 0.75901 0.67242 0.34619 0.0
N590 N 0.8268 0.69198 0.33493 0.0
N591 N 0.77369 0.68585 0.347 0.0
H592 H 0.69804 0.86087 0.82816 0.0
H593 H 0.67283 0.74691 0.8455 0.0
H594 H 0.74102 0.81633 0.84789 0.0
H595 H 0.62974 0.79113 0.82472 0.0
H596 H 0.69757 0.77252 0.84968 0.0
H597 H 0.67243 0.83593 0.8301 0.0
C598 C 0.7021 0.84588 0.83307 0.0
C599 C 0.72176 0.84068 0.83768 0.0
C600 C 0.68269 0.77664 0.84433 0.0
C601 C 0.69248 0.81203 0.83984 0.0
C602 C 0.66853 0.76201 0.84194 0.0
C603 C 0.64917 0.76684 0.83456 0.0
C604 C 0.67751 0.79628 0.83926 0.0
C605 C 0.64448 0.78669 0.83033 0.0
C606 C 0.68745 0.83163 0.83415 0.0
C607 C 0.7261 0.82102 0.84405 0.0
N608 N 0.65858 0.80067 0.8326 0.0
N609 N 0.71159 0.80741 0.84479 0.0
H610 H 0.13167 0.70162 0.81594 0.0
H611 H 0.24522 0.67736 0.84043 0.0
H612 H 0.17503 0.74459 0.84052 0.0
H613 H 0.20244 0.63359 0.81668 0.0
H614 H 0.21945 0.70206 0.84067 0.0
H615 H 0.15715 0.67638 0.81623 0.0
C616 C 0.14652 0.70576 0.82142 0.0
C617 C 0.15119 0.72529 0.8282 0.0
C618 C 0.21566 0.68706 0.83542 0.0
C619 C 0.18041 0.69647 0.82854 0.0
C620 C 0.2304 0.67291 0.83527 0.0
C621 C 0.22602 0.65333 0.8285 0.0
C622 C 0.19635 0.68167 0.82874 0.0
C623 C 0.20651 0.6485 0.82202 0.0
C624 C 0.16106 0.69134 0.82158 0.0
C625 C 0.17071 0.72976 0.83513 0.0
N626 N 0.19239 0.66258 0.82228 0.0
N627 N 0.18456 0.71548 0.8351 0.0
H628 H 0.35943 0.19831 0.81877 0.0
H629 H 0.2457 0.17463 0.84167 0.0
H630 H 0.31557 0.24236 0.83662 0.0
H631 H 0.28912 0.13052 0.82194 0.0
H632 H 0.2715 0.19934 0.84279 0.0
H633 H 0.33427 0.17301 0.8227 0.0
C634 C 0.34454 0.20268 0.82364 0.0
C635 C 0.33961 0.22253 0.82722 0.0
C636 C 0.27541 0.18424 0.83833 0.0
C637 C 0.31071 0.1936 0.83169 0.0
C638 C 0.26067 0.1701 0.83769 0.0
C639 C 0.26521 0.15045 0.83154 0.0
C640 C 0.29487 0.17875 0.83273 0.0
C641 C 0.2849 0.14548 0.82667 0.0
C642 C 0.33017 0.1882 0.82587 0.0
C643 C 0.32006 0.22727 0.83357 0.0
N644 N 0.29899 0.15956 0.82724 0.0
N645 N 0.30633 0.21292 0.83549 0.0
H646 H 0.81311 0.24364 0.84251 0.0
H647 H 0.7867 0.35688 0.81824 0.0
H648 H 0.8555 0.28703 0.81592 0.0
H649 H 0.74487 0.31296 0.84487 0.0
H650 H 0.81223 0.33173 0.81767 0.0
H651 H 0.78806 0.26908 0.84385 0.0
C652 C 0.81718 0.25852 0.83696 0.0
C653 C 0.83648 0.26317 0.82906 0.0
C654 C 0.79746 0.32762 0.82366 0.0
C655 C 0.80775 0.29246 0.83055 0.0
C656 C 0.78287 0.34198 0.82401 0.0
C657 C 0.76357 0.33705 0.83159 0.0
C658 C 0.79275 0.30819 0.83094 0.0
C659 C 0.75951 0.31748 0.83886 0.0
C660 C 0.80284 0.27306 0.83773 0.0
C661 C 0.84083 0.28275 0.82212 0.0
N662 N 0.77395 0.30379 0.83832 0.0
N663 N 0.82657 0.29667 0.823 0.0
H664 H 0.67876 0.24557 0.63684 0.0
H665 H 0.70399 0.13186 0.65906 0.0
H666 H 0.63563 0.20209 0.66039 0.0
H667 H 0.74663 0.1758 0.63549 0.0
H668 H 0.67863 0.15719 0.65927 0.0
H669 H 0.7037 0.22 0.6359 0.0
C670 C 0.6745 0.23064 0.64181 0.0
C671 C 0.65503 0.22601 0.64873 0.0
C672 C 0.69354 0.16127 0.65403 0.0
C673 C 0.68362 0.19658 0.64769 0.0
C674 C 0.70804 0.14681 0.6539 0.0
C675 C 0.72751 0.15169 0.64727 0.0
C676 C 0.69853 0.18075 0.64751 0.0
C677 C 0.73185 0.17132 0.64075 0.0
C678 C 0.68878 0.21603 0.64126 0.0
C679 C 0.65044 0.20637 0.65495 0.0
N680 N 0.71749 0.18511 0.64106 0.0
N681 N 0.66464 0.19238 0.6543 0.0
H682 H 0.79204 0.6294 0.65073 0.0
H683 H 0.8158 0.74307 0.62614 0.0
H684 H 0.74839 0.67282 0.62891 0.0
H685 H 0.85962 0.69982 0.64796 0.0
H686 H 0.79129 0.7171 0.62392 0.0
H687 H 0.81734 0.65456 0.64673 0.0
C688 C 0.78776 0.64419 0.64495 0.0
C689 C 0.76801 0.64901 0.64034 0.0
C690 C 0.80629 0.71327 0.62905 0.0
C691 C 0.79694 0.67791 0.63579 0.0
C692 C 0.82032 0.7281 0.63031 0.0
C693 C 0.83981 0.72366 0.63744 0.0
C694 C 0.81174 0.69382 0.63503 0.0
C695 C 0.84477 0.70396 0.64251 0.0
C696 C 0.80224 0.65855 0.64267 0.0
C697 C 0.76339 0.66842 0.6328 0.0
N698 N 0.8308 0.68979 0.64136 0.0
N699 N 0.77773 0.68216 0.63091 0.0
H700 H 0.24308 0.81325 0.63051 0.0
H701 H 0.35611 0.78793 0.65778 0.0
H702 H 0.28561 0.8561 0.65848 0.0
H703 H 0.31294 0.74555 0.63038 0.0
H704 H 0.33079 0.81331 0.65727 0.0
H705 H 0.2688 0.78848 0.62949 0.0
C706 C 0.25783 0.81749 0.63642 0.0
C707 C 0.26215 0.83683 0.64465 0.0
C708 C 0.32689 0.79846 0.65133 0.0
C709 C 0.29176 0.80842 0.64353 0.0
C710 C 0.34134 0.78395 0.6516 0.0
C711 C 0.33666 0.76454 0.64417 0.0
C712 C 0.30762 0.79354 0.64357 0.0
C713 C 0.31726 0.76028 0.63633 0.0
C714 C 0.27254 0.8033 0.63583 0.0
C715 C 0.28158 0.84139 0.65203 0.0
N716 N 0.30348 0.77465 0.63628 0.0
N717 N 0.29566 0.82728 0.65133 0.0
H718 H 0.17253 0.24543 0.63001 0.0
H719 H 0.19609 0.35933 0.65289 0.0
H720 H 0.12839 0.28887 0.64951 0.0
H721 H 0.23979 0.31578 0.63181 0.0
H722 H 0.17084 0.33405 0.64964 0.0
H723 H 0.1971 0.27135 0.62839 0.0
C724 C 0.16797 0.26043 0.63383 0.0
C725 C 0.14835 0.26494 0.64005 0.0
C726 C 0.18595 0.33005 0.64561 0.0
C727 C 0.1765 0.29474 0.63833 0.0
C728 C 0.20039 0.34448 0.64747 0.0
C729 C 0.22013 0.33967 0.64276 0.0
C730 C 0.19127 0.31066 0.63906 0.0
C731 C 0.22479 0.32018 0.63572 0.0
C732 C 0.18203 0.27524 0.6329 0.0
C733 C 0.14333 0.28468 0.64471 0.0
N734 N 0.21048 0.3064 0.63421 0.0
N735 N 0.15733 0.29883 0.64389 0.0
H736 H 0.18053 0.08342 0.05633 0.0
H737 H 0.24309 0.07437 0.91311 0.0
H738 H 0.24311 0.07481 0.05644 0.0
H739 H 0.1812 0.08678 0.91741 0.0
H740 H 0.24269 0.06629 0.96466 0.0
H741 H 0.17976 0.07592 0.0052 0.0
C742 C 0.19409 0.07966 0.04554 0.0
C743 C 0.21195 0.08009 0.06033 0.0
C744 C 0.22914 0.07039 0.95412 0.0
C745 C 0.21133 0.07202 0.0016 0.0
C746 C 0.22936 0.07494 0.92476 0.0
C747 C 0.21223 0.08164 0.9113 0.0
C748 C 0.21163 0.07247 0.96977 0.0
C749 C 0.19481 0.08209 0.92719 0.0
C750 C 0.19368 0.07538 0.01634 0.0
C751 C 0.22907 0.07478 0.04559 0.0
N752 N 0.19501 0.0778 0.95561 0.0
N753 N 0.22843 0.07139 0.01675 0.0
H754 H 0.91281 0.24715 0.91557 0.0
H755 H 0.90988 0.18389 0.05864 0.0
H756 H 0.90536 0.18442 0.92037 0.0
H757 H 0.91136 0.24711 0.05869 0.0
H758 H 0.91829 0.18392 0.00777 0.0
H759 H 0.92153 0.24747 0.96696 0.0
C760 C 0.9135 0.23343 0.9273 0.0
C761 C 0.90799 0.21578 0.9141 0.0
C762 C 0.91711 0.19784 0.01887 0.0
C763 C 0.91793 0.21599 0.97227 0.0
C764 C 0.91235 0.19779 0.04792 0.0
C765 C 0.90961 0.21551 0.06253 0.0
C766 C 0.91853 0.21577 0.00411 0.0
C767 C 0.91323 0.23314 0.04793 0.0
C768 C 0.91841 0.23361 0.95654 0.0
C769 C 0.90912 0.19838 0.93001 0.0
N770 N 0.91704 0.23287 0.01919 0.0
N771 N 0.91376 0.19896 0.95829 0.0
H772 H 0.80733 0.90825 0.91753 0.0
H773 H 0.74335 0.91477 0.05964 0.0
H774 H 0.74448 0.91457 0.91662 0.0
H775 H 0.80534 0.90272 0.05607 0.0
H776 H 0.74415 0.92366 0.00839 0.0
H777 H 0.80752 0.91587 0.96866 0.0
C778 C 0.79358 0.91159 0.92811 0.0
C779 C 0.77583 0.91042 0.91313 0.0
C780 C 0.75763 0.91946 0.01904 0.0
C781 C 0.77581 0.91856 0.97184 0.0
C782 C 0.75718 0.91445 0.04823 0.0
C783 C 0.77423 0.90761 0.06178 0.0
C784 C 0.77528 0.91772 0.00365 0.0
C785 C 0.79178 0.9075 0.0462 0.0
C786 C 0.79366 0.91592 0.95731 0.0
C787 C 0.75845 0.91519 0.92761 0.0
N788 N 0.7918 0.91225 0.01793 0.0
N789 N 0.7588 0.91859 0.95646 0.0
H790 H 0.07474 0.74242 0.91684 0.0
H791 H 0.07861 0.80494 0.06092 0.0
H792 H 0.08536 0.80466 0.92254 0.0
H793 H 0.07463 0.74181 0.06033 0.0
H794 H 0.07145 0.80539 0.00965 0.0
H795 H 0.06584 0.74223 0.96818 0.0
C796 C 0.07475 0.75608 0.92876 0.0
C797 C 0.08116 0.77351 0.91581 0.0
C798 C 0.07184 0.7914 0.02068 0.0
C799 C 0.07101 0.77346 0.97392 0.0
C800 C 0.0759 0.79117 0.04996 0.0
C801 C 0.07757 0.7733 0.06457 0.0
C802 C 0.06998 0.77359 0.00572 0.0
C803 C 0.07362 0.75588 0.04961 0.0
C804 C 0.06974 0.75597 0.95797 0.0
C805 C 0.0809 0.79083 0.93197 0.0
N806 N 0.07045 0.7564 0.02071 0.0
N807 N 0.07612 0.79033 0.9602 0.0
H808 H 0.2451 0.91211 0.41351 0.0
H809 H 0.18175 0.90792 0.55608 0.0
H810 H 0.18248 0.90436 0.41775 0.0
H811 H 0.24484 0.91006 0.55635 0.0
H812 H 0.18173 0.9167 0.50534 0.0
H813 H 0.2452 0.92083 0.46484 0.0
C814 C 0.23134 0.91278 0.42508 0.0
C815 C 0.2138 0.90714 0.41175 0.0
C816 C 0.19563 0.91557 0.51645 0.0
C817 C 0.21378 0.917 0.46994 0.0
C818 C 0.19561 0.91058 0.54541 0.0
C819 C 0.21332 0.90793 0.56004 0.0
C820 C 0.21353 0.91733 0.50177 0.0
C821 C 0.2309 0.91182 0.54555 0.0
C822 C 0.23141 0.91767 0.45432 0.0
C823 C 0.19636 0.90823 0.42749 0.0
N824 N 0.23061 0.91587 0.51688 0.0
N825 N 0.19683 0.91281 0.45581 0.0
H826 H 0.07289 0.24057 0.55844 0.0
H827 H 0.08553 0.17653 0.41709 0.0
H828 H 0.08684 0.17885 0.55622 0.0
H829 H 0.07509 0.23893 0.41522 0.0
H830 H 0.07758 0.17614 0.46808 0.0
H831 H 0.06563 0.23933 0.50669 0.0
C832 C 0.07397 0.22669 0.54719 0.0
C833 C 0.08086 0.20987 0.56134 0.0
C834 C 0.07675 0.18993 0.45657 0.0
C835 C 0.07265 0.20834 0.5026 0.0
C836 C 0.0813 0.19013 0.42745 0.0
C837 C 0.08133 0.20785 0.4122 0.0
C838 C 0.07267 0.20766 0.47077 0.0
C839 C 0.07539 0.225 0.42641 0.0
C840 C 0.0699 0.226 0.51771 0.0
C841 C 0.08198 0.19225 0.54593 0.0
N842 N 0.07171 0.22458 0.45518 0.0
N843 N 0.07814 0.19201 0.51737 0.0
H844 H 0.80798 0.08511 0.55368 0.0
H845 H 0.74326 0.07499 0.41276 0.0
H846 H 0.74526 0.07802 0.55613 0.0
H847 H 0.80553 0.08561 0.41477 0.0
H848 H 0.74415 0.06786 0.4646 0.0
H849 H 0.80784 0.07665 0.50288 0.0
C850 C 0.79418 0.08151 0.54346 0.0
C851 C 0.77657 0.08261 0.55878 0.0
C852 C 0.75766 0.07134 0.45351 0.0
C853 C 0.77614 0.07343 0.50041 0.0
C854 C 0.75716 0.07533 0.42398 0.0
C855 C 0.77429 0.08128 0.40977 0.0
C856 C 0.77542 0.07322 0.46857 0.0
C857 C 0.79193 0.08148 0.42512 0.0
C858 C 0.79407 0.07667 0.51445 0.0
C859 C 0.75911 0.07748 0.54481 0.0
N860 N 0.79199 0.07775 0.45372 0.0
N861 N 0.75925 0.07353 0.5161 0.0
H862 H 0.90647 0.81017 0.55845 0.0
H863 H 0.91542 0.74735 0.41559 0.0
H864 H 0.91413 0.74737 0.55844 0.0
H865 H 0.90334 0.80942 0.41961 0.0
H866 H 0.92372 0.74786 0.46701 0.0
H867 H 0.91459 0.81094 0.50751 0.0
C868 C 0.91018 0.79656 0.54771 0.0
C869 C 0.90926 0.77864 0.56237 0.0
C870 C 0.91965 0.76143 0.45644 0.0
C871 C 0.91804 0.77928 0.50386 0.0
C872 C 0.91498 0.76115 0.42714 0.0
C873 C 0.90827 0.77829 0.41364 0.0
C874 C 0.91768 0.779 0.47202 0.0
C875 C 0.90802 0.79579 0.42942 0.0
C876 C 0.91481 0.79698 0.51861 0.0
C877 C 0.91453 0.76146 0.5477 0.0
N878 N 0.91241 0.79564 0.45781 0.0
N879 N 0.91825 0.76212 0.51895 0.0
H880 H 0.68322 0.57683 0.56547 0.0
H881 H 0.74451 0.5747 0.4206 0.0
H882 H 0.74634 0.57552 0.56343 0.0
H883 H 0.68247 0.5856 0.42786 0.0
H884 H 0.74509 0.56479 0.47149 0.0
H885 H 0.68252 0.56883 0.51443 0.0
C886 C 0.69694 0.57445 0.55427 0.0
C887 C 0.71485 0.5772 0.56832 0.0
C888 C 0.73131 0.56894 0.4617 0.0
C889 C 0.71424 0.56874 0.50978 0.0
C890 C 0.73097 0.57454 0.43274 0.0
C891 C 0.71349 0.58136 0.42042 0.0
C892 C 0.714 0.57002 0.47802 0.0
C893 C 0.69632 0.58084 0.43684 0.0
C894 C 0.69656 0.56993 0.52514 0.0
C895 C 0.73224 0.57367 0.55312 0.0
N896 N 0.69705 0.57549 0.46485 0.0
N897 N 0.73153 0.57011 0.52433 0.0
H898 H 0.41592 0.74476 0.4132 0.0
H899 H 0.407 0.68278 0.55619 0.0
H900 H 0.4108 0.68179 0.4177 0.0
H901 H 0.41142 0.74586 0.55585 0.0
H902 H 0.41723 0.68211 0.5061 0.0
H903 H 0.42289 0.74549 0.46505 0.0
C904 C 0.41684 0.73107 0.42496 0.0
C905 C 0.41237 0.71322 0.41148 0.0
C906 C 0.41627 0.69615 0.51692 0.0
C907 C 0.42016 0.71391 0.47034 0.0
C908 C 0.4104 0.6965 0.54552 0.0
C909 C 0.40804 0.71441 0.55978 0.0
C910 C 0.41918 0.71389 0.50217 0.0
C911 C 0.41293 0.73177 0.54532 0.0
C912 C 0.42072 0.73149 0.45451 0.0
C913 C 0.41375 0.69589 0.4275 0.0
N914 N 0.41784 0.73114 0.51694 0.0
N915 N 0.41726 0.6967 0.45613 0.0
H916 H 0.30225 0.40764 0.42108 0.0
H917 H 0.23994 0.41486 0.56422 0.0
H918 H 0.23929 0.41248 0.42132 0.0
H919 H 0.30263 0.40764 0.55973 0.0
H920 H 0.23955 0.42268 0.51259 0.0
H921 H 0.30284 0.41673 0.47166 0.0
C922 C 0.28854 0.41091 0.43183 0.0
C923 C 0.27068 0.40897 0.41737 0.0
C924 C 0.25342 0.41983 0.5231 0.0
C925 C 0.2711 0.4188 0.4755 0.0
C926 C 0.25364 0.41546 0.55251 0.0
C927 C 0.27129 0.4102 0.5659 0.0
C928 C 0.27099 0.41901 0.50735 0.0
C929 C 0.28866 0.4112 0.54997 0.0
C930 C 0.28885 0.41611 0.46071 0.0
C931 C 0.25334 0.41368 0.43198 0.0
N932 N 0.28804 0.41524 0.52149 0.0
N933 N 0.25392 0.41794 0.46057 0.0
H934 H 0.57829 0.24407 0.56023 0.0
H935 H 0.58128 0.3091 0.41859 0.0
H936 H 0.58915 0.30635 0.55656 0.0
H937 H 0.57787 0.24596 0.41685 0.0
H938 H 0.57411 0.30861 0.46985 0.0
H939 H 0.56901 0.24478 0.50905 0.0
C940 C 0.57829 0.25792 0.54879 0.0
C941 C 0.58488 0.27511 0.56224 0.0
C942 C 0.5746 0.29482 0.4583 0.0
C943 C 0.57424 0.27607 0.50436 0.0
C944 C 0.57866 0.29513 0.42903 0.0
C945 C 0.58051 0.27753 0.4138 0.0
C946 C 0.57296 0.27675 0.47261 0.0
C947 C 0.57669 0.25983 0.42808 0.0
C948 C 0.57305 0.25832 0.51968 0.0
C949 C 0.58458 0.2927 0.54672 0.0
N950 N 0.57356 0.25982 0.457 0.0
N951 N 0.57955 0.29268 0.51858 0.0
H952 H 0.74578 0.41488 0.9198 0.0
H953 H 0.68337 0.41438 0.06404 0.0
H954 H 0.68398 0.40266 0.92672 0.0
H955 H 0.7465 0.41614 0.06311 0.0
H956 H 0.68307 0.42104 0.01259 0.0
H957 H 0.7459 0.42518 0.97058 0.0
C958 C 0.7322 0.41478 0.93186 0.0
C959 C 0.71493 0.40754 0.91946 0.0
C960 C 0.69703 0.42032 0.02362 0.0
C961 C 0.71489 0.41938 0.97686 0.0
C962 C 0.69717 0.41657 0.05299 0.0
C963 C 0.71498 0.41432 0.06753 0.0
C964 C 0.71483 0.42129 0.00855 0.0
C965 C 0.73247 0.4176 0.05245 0.0
C966 C 0.73227 0.42062 0.96073 0.0
C967 C 0.69769 0.40774 0.93575 0.0
N968 N 0.732 0.42044 0.02348 0.0
N969 N 0.69815 0.41338 0.96364 0.0
H970 H 0.58403 0.67858 0.05146 0.0
H971 H 0.5734 0.74351 0.91114 0.0
H972 H 0.5756 0.74125 0.05405 0.0
H973 H 0.58366 0.68107 0.91265 0.0
H974 H 0.56585 0.74241 0.9628 0.0
H975 H 0.57523 0.67858 0.00077 0.0
C976 C 0.58005 0.69233 0.04131 0.0
C977 C 0.5809 0.70998 0.05662 0.0
C978 C 0.56932 0.7289 0.95164 0.0
C979 C 0.57133 0.71025 -0.00161 0.0
C980 C 0.57355 0.72952 0.9222 0.0
C981 C 0.57957 0.71242 0.90794 0.0
C982 C 0.57106 0.71104 0.96656 0.0
C983 C 0.57951 0.69466 0.92308 0.0
C984 C 0.57501 0.69236 0.01237 0.0
C985 C 0.57527 0.72736 0.04275 0.0
N986 N 0.57559 0.69448 0.95161 0.0
N987 N 0.57115 0.72715 0.0141 0.0
H988 H 0.30728 0.58157 0.06199 0.0
H989 H 0.24492 0.57673 0.91766 0.0
H990 H 0.24432 0.57649 0.06137 0.0
H991 H 0.30642 0.59059 0.92381 0.0
H992 H 0.24506 0.5677 0.96895 0.0
H993 H 0.30781 0.575 0.01055 0.0
C994 C 0.29357 0.57872 0.05099 0.0
C995 C 0.27571 0.57993 0.06566 0.0
C996 C 0.25857 0.57237 0.95885 0.0
C997 C 0.2761 0.57301 0.00663 0.0
C998 C 0.2585 0.57747 0.92967 0.0
C999 C 0.2756 0.58478 0.91682 0.0
C1000 C 0.27592 0.57442 0.97487 0.0
C1001 C 0.29283 0.58543 0.93312 0.0
C1002 C 0.29385 0.57501 0.02162 0.0
C1003 C 0.25838 0.57582 0.05063 0.0
N1004 N 0.2925 0.58049 0.96131 0.0
N1005 N 0.25894 0.57299 0.02165 0.0
H1006 H 0.4061 0.30913 0.90535 0.0
H1007 H 0.4114 0.24841 0.05115 0.0
H1008 H 0.41197 0.24616 0.90769 0.0
H1009 H 0.39373 0.30889 0.0427 0.0
H1010 H 0.42148 0.24853 0.00029 0.0
H1011 H 0.41248 0.31038 0.95683 0.0
C1012 C 0.4091 0.29558 0.91673 0.0
C1013 C 0.4081 0.27749 0.90256 0.0
C1014 C 0.41576 0.26185 0.00982 0.0
C1015 C 0.41483 0.27871 0.96157 0.0
C1016 C 0.41006 0.26179 0.03874 0.0
C1017 C 0.40138 0.27855 0.05075 0.0
C1018 C 0.41295 0.27887 -0.00675 0.0
C1019 C 0.39998 0.29555 0.03399 0.0
C1020 C 0.4127 0.29627 0.94611 0.0
C1021 C 0.41243 0.26038 0.91805 0.0
N1022 N 0.40554 0.29522 0.00606 0.0
N1023 N 0.41515 0.26134 0.94702 0.0
H1024 H 0.24468 0.01563 0.15832 0.0
H1025 H 0.26618 0.93098 0.23524 0.0
H1026 H 0.2641 0.04675 0.23391 0.0
H1027 H 0.24277 0.96635 0.30414 0.0
H1028 H 0.272 0.96099 0.20726 0.0
H1029 H 0.25056 0.98454 0.18323 0.0
C1030 C 0.25056 0.01587 0.17997 0.0
C1031 C 0.25387 0.0337 0.19419 0.0
C1032 C 0.26579 0.9621 0.22863 0.0
C1033 C 0.26046 -0.00163 0.22275 0.0
C1034 C 0.2626 0.94508 0.24465 0.0
C1035 C 0.2537 0.94626 0.27179 0.0
C1036 C 0.26027 0.98033 0.24013 0.0
C1037 C 0.24938 0.96484 0.28308 0.0
C1038 C 0.25407 -0.00184 0.19405 0.0
C1039 C 0.26144 0.03328 0.22222 0.0
N1040 N 0.25266 0.98119 0.26713 0.0
N1041 N 0.26402 0.01585 0.23591 0.0
H1042 H 0.93393 0.2669 0.23955 0.0
H1043 H 0.01819 0.24328 0.31536 0.0
H1044 H 0.96889 0.24401 0.16987 0.0
H1045 H 0.04955 0.26306 0.24021 0.0
H1046 H 0.98725 0.25028 0.29084 0.0
H1047 H 0.964 0.27225 0.26746 0.0
C1048 C 0.94795 0.26335 0.22996 0.0
C1049 C 0.94899 0.25469 0.20263 0.0
C1050 C 0.0009 0.25363 0.28004 0.0
C1051 C 0.98315 0.26072 0.23421 0.0
C1052 C 0.01852 0.24948 0.29391 0.0
C1053 C 0.03636 0.25254 0.27967 0.0
C1054 C 0.00118 0.26041 0.25154 0.0
C1055 C 0.03606 0.26056 0.25189 0.0
C1056 C 0.96502 0.26627 0.24593 0.0
C1057 C 0.96748 0.25041 0.19109 0.0
N1058 N 0.01869 0.26375 0.23839 0.0
N1059 N 0.98387 0.2534 0.20701 0.0
H1060 H 0.7397 0.01802 0.3117 0.0
H1061 H 0.71739 0.93387 0.23492 0.0
H1062 H 0.72089 0.04964 0.23621 0.0
H1063 H 0.74162 0.96886 0.16624 0.0
H1064 H 0.71141 0.96399 0.26252 0.0
H1065 H 0.73323 0.9871 0.28672 0.0
C1066 C 0.73382 0.01841 0.29006 0.0
C1067 C 0.73086 0.03631 0.27589 0.0
C1068 C 0.7178 0.965 0.24125 0.0
C1069 C 0.72361 0.00117 0.24722 0.0
C1070 C 0.72108 0.94791 0.22544 0.0
C1071 C 0.73031 0.94894 0.19852 0.0
C1072 C 0.72358 0.98315 0.22979 0.0
C1073 C 0.73476 0.96746 0.18714 0.0
C1074 C 0.72998 0.0008 0.27593 0.0
C1075 C 0.72328 0.03609 0.24786 0.0
N1076 N 0.73143 0.98388 0.20292 0.0
N1077 N 0.72038 0.01874 0.23411 0.0
H1078 H 0.01601 0.73691 0.16311 0.0
H1079 H 0.93277 0.71739 0.24308 0.0
H1080 H 0.04839 0.72008 0.23887 0.0
H1081 H 0.96873 0.74363 0.30899 0.0
H1082 H 0.96247 0.71 0.21532 0.0
H1083 H 0.98541 0.73093 0.18906 0.0
C1084 C 0.01663 0.73152 0.18502 0.0
C1085 C 0.03465 0.72903 0.19898 0.0
C1086 C 0.96379 0.71714 0.23605 0.0
C1087 C -0.00012 0.72239 0.22877 0.0
C1088 C 0.94693 0.72123 0.25196 0.0
C1089 C 0.94836 0.73143 0.27807 0.0
C1090 C 0.9821 0.72309 0.24664 0.0
C1091 C 0.96703 0.73603 0.28869 0.0
C1092 C -0.0008 0.72796 0.19972 0.0
C1093 C 0.03474 0.72209 0.22738 0.0
N1094 N 0.98321 0.73191 0.27284 0.0
N1095 N 0.01756 0.71952 0.24166 0.0
H1096 H 0.71997 0.93569 0.73865 0.0
H1097 H 0.74241 0.01853 0.65841 0.0
H1098 H 0.74527 0.97138 0.8057 0.0
H1099 H 0.72613 0.05132 0.73411 0.0
H1100 H 0.73555 0.98803 0.68429 0.0
H1101 H 0.71436 0.96544 0.71001 0.0
C1102 C 0.72399 0.94982 0.74754 0.0
C1103 C 0.73339 0.95114 0.77432 0.0
C1104 C 0.73292 0.00192 0.69494 0.0
C1105 C 0.7271 0.98493 0.74186 0.0
C1106 C 0.73698 0.01929 0.68027 0.0
C1107 C 0.73491 0.0374 0.69424 0.0
C1108 C 0.7272 0.00273 0.72393 0.0
C1109 C 0.72787 0.03762 0.72259 0.0
C1110 C 0.72094 0.9667 0.73113 0.0
C1111 C 0.73827 0.96975 0.78493 0.0
N1112 N 0.72474 0.02049 0.73679 0.0
N1113 N 0.73513 0.98595 0.7686 0.0
H1114 H 0.97012 0.74271 0.66214 0.0
H1115 H 0.05299 0.72058 0.74095 0.0
H1116 H 0.9374 0.7247 0.73697 0.0
H1117 H 0.0175 0.74469 0.80919 0.0
H1118 H 0.02318 0.71461 0.71289 0.0
H1119 H 0.00059 0.73623 0.68813 0.0
C1120 C 0.9694 0.737 0.68386 0.0
C1121 C 0.95131 0.73426 0.69752 0.0
C1122 C 0.02198 0.721 0.73415 0.0
C1123 C 0.98596 0.72698 0.72738 0.0
C1124 C 0.03891 0.72427 0.75025 0.0
C1125 C 0.03768 0.73348 0.77718 0.0
C1126 C 0.00377 0.72682 0.74526 0.0
C1127 C 0.01908 0.73786 0.78829 0.0
C1128 C 0.98676 0.73315 0.69859 0.0
C1129 C 0.9511 0.7269 0.7257 0.0
N1130 N 0.00281 0.7346 0.77218 0.0
N1131 N 0.96822 0.72398 0.74002 0.0
H1132 H 0.24647 0.96958 0.66109 0.0
H1133 H 0.24584 0.01896 0.81057 0.0
H1134 H 0.26229 0.93648 0.73672 0.0
H1135 H 0.26419 0.0517 0.73588 0.0
H1136 H 0.25176 0.98842 0.78429 0.0
H1137 H 0.25292 -0.0 0.68747 0.0
C1138 C 0.25162 0.96874 0.6831 0.0
C1139 C 0.25369 0.95056 0.69688 0.0
C1140 C 0.25488 0.00229 0.77386 0.0
C1141 C 0.26068 0.98514 0.7272 0.0
C1142 C 0.25143 0.01968 0.78878 0.0
C1143 C 0.2544 0.0378 0.77523 0.0
C1144 C 0.26077 0.00308 0.74497 0.0
C1145 C 0.26172 0.03798 0.74704 0.0
C1146 C 0.25537 0.98606 0.69807 0.0
C1147 C 0.26048 0.95023 0.72536 0.0
N1148 N 0.26424 0.02085 0.73255 0.0
N1149 N 0.26332 0.96731 0.73984 0.0
H1150 H 0.93378 0.26814 0.73799 0.0
H1151 H 0.01695 0.24576 0.65985 0.0
H1152 H 0.96996 0.24626 0.80706 0.0
H1153 H 0.04941 0.26602 0.73369 0.0
H1154 H 0.98639 0.25243 0.68553 0.0
H1155 H 0.96338 0.27411 0.70944 0.0
C1156 C 0.94796 0.26496 0.74736 0.0
C1157 C 0.94947 0.25636 0.77469 0.0
C1158 C 0.00018 0.25597 0.6958 0.0
C1159 C 0.98313 0.26302 0.74223 0.0
C1160 C 0.01759 0.25202 0.68126 0.0
C1161 C 0.03564 0.25531 0.69477 0.0
C1162 C 0.0009 0.26281 0.72426 0.0
C1163 C 0.03575 0.26336 0.72254 0.0
C1164 C 0.96478 0.26822 0.73098 0.0
C1165 C 0.96818 0.2526 0.78587 0.0
N1166 N 0.01859 0.26638 0.73671 0.0
N1167 N 0.98433 0.25585 0.76949 0.0
H1168 H 0.76568 0.55331 0.74596 0.0
H1169 H 0.76504 0.43624 0.74355 0.0
H1170 H 0.75002 0.51923 0.67124 0.0
H1171 H 0.7471 0.47005 0.8175 0.0
H1172 H 0.77174 0.46686 0.71771 0.0
H1173 H 0.77096 0.5227 0.77282 0.0
C1174 C 0.76384 0.53939 0.73505 0.0
C1175 C 0.7572 0.53868 0.70652 0.0
C1176 C 0.76671 0.46749 0.73979 0.0
C1177 C 0.76343 0.50395 0.73677 0.0
C1178 C 0.76295 0.45009 0.75456 0.0
C1179 C 0.75525 0.45069 0.78252 0.0
C1180 C 0.76308 0.48552 0.75331 0.0
C1181 C 0.75278 0.469 0.79581 0.0
C1182 C 0.76676 0.52202 0.75037 0.0
C1183 C 0.75492 0.52033 0.69334 0.0
N1184 N 0.75658 0.48575 0.781 0.0
N1185 N 0.75795 0.50364 0.70862 0.0
H1186 H 0.51842 0.74889 0.80893 0.0
H1187 H 0.4691 0.7489 0.65986 0.0
H1188 H 0.55108 0.76741 0.7343 0.0
H1189 H 0.43604 0.76531 0.73522 0.0
H1190 H 0.49946 0.75572 0.68606 0.0
H1191 H 0.48791 0.75492 0.78272 0.0
C1192 C 0.51912 0.75456 0.78718 0.0
C1193 C 0.5372 0.75753 0.77361 0.0
C1194 C 0.48554 0.75823 0.69663 0.0
C1195 C 0.50254 0.76399 0.74342 0.0
C1196 C 0.46825 0.75426 0.68176 0.0
C1197 C 0.45011 0.75638 0.69554 0.0
C1198 C 0.48462 0.76379 0.72566 0.0
C1199 C 0.44977 0.76345 0.72387 0.0
C1200 C 0.50175 0.75806 0.7723 0.0
C1201 C 0.53738 0.76494 0.74546 0.0
N1202 N 0.46682 0.76648 0.73827 0.0
N1203 N 0.52027 0.76748 0.73099 0.0
H1204 H 0.23809 0.47021 0.66858 0.0
H1205 H 0.24282 0.51984 0.81769 0.0
H1206 H 0.22367 0.43714 0.7448 0.0
H1207 H 0.22322 0.55239 0.74346 0.0
H1208 H 0.2358 0.48922 0.79213 0.0
H1209 H 0.23263 0.50063 0.69534 0.0
C1210 C 0.23345 0.46939 0.69084 0.0
C1211 C 0.23145 0.45123 0.70464 0.0
C1212 C 0.23265 0.50308 0.7817 0.0
C1213 C 0.22564 0.48582 0.73542 0.0
C1214 C 0.23673 0.52052 0.7962 0.0
C1215 C 0.23377 0.53861 0.7825 0.0
C1216 C 0.22611 0.5038 0.7531 0.0
C1217 C 0.22576 0.53872 0.75472 0.0
C1218 C 0.23026 0.48672 0.70604 0.0
C1219 C 0.22536 0.45091 0.73345 0.0
N1220 N 0.22261 0.52155 0.74064 0.0
N1221 N 0.22309 0.468 0.74815 0.0
H1222 H 0.47019 0.23952 0.80757 0.0
H1223 H 0.55534 0.21888 0.73384 0.0
H1224 H 0.43964 0.222 0.73054 0.0
H1225 H 0.52135 0.24267 0.66373 0.0
H1226 H 0.52487 0.21202 0.75987 0.0
H1227 H 0.50136 0.23295 0.78355 0.0
C1228 C 0.47008 0.23386 0.78579 0.0
C1229 C 0.45242 0.23135 0.77091 0.0
C1230 C 0.52415 0.21853 0.73864 0.0
C1231 C 0.48788 0.22395 0.74329 0.0
C1232 C 0.54147 0.22231 0.7237 0.0
C1233 C 0.54081 0.23172 0.69687 0.0
C1234 C 0.50616 0.22407 0.72648 0.0
C1235 C 0.52247 0.23573 0.68462 0.0
C1236 C 0.48784 0.22996 0.77218 0.0
C1237 C 0.453 0.22405 0.74272 0.0
N1238 N 0.50582 0.23201 0.69964 0.0
N1239 N 0.47052 0.22109 0.7295 0.0
H1240 H 0.23915 0.51805 0.16715 0.0
H1241 H 0.23534 0.47095 0.31724 0.0
H1242 H 0.21989 0.55245 0.23973 0.0
H1243 H 0.2184 0.4373 0.2427 0.0
H1244 H 0.22966 0.50118 0.28999 0.0
H1245 H 0.2317 0.48811 0.19407 0.0
C1246 C 0.23304 0.51926 0.18859 0.0
C1247 C 0.23026 0.53766 0.2014 0.0
C1248 C 0.22676 0.48717 0.27984 0.0
C1249 C 0.22214 0.50364 0.23238 0.0
C1250 C 0.23006 0.46996 0.29531 0.0
C1251 C 0.22749 0.45168 0.28205 0.0
C1252 C 0.22144 0.486 0.25074 0.0
C1253 C 0.22058 0.45114 0.25365 0.0
C1254 C 0.22871 0.50222 0.20386 0.0
C1255 C 0.22225 0.5385 0.22916 0.0
N1256 N 0.21824 0.46809 0.23865 0.0
N1257 N 0.21889 0.52167 0.24406 0.0
H1258 H 0.53999 0.21824 0.26051 0.0
H1259 H 0.46109 0.27967 0.17702 0.0
H1260 H 0.52561 0.27822 0.28189 0.0
H1261 H 0.44489 0.22111 0.20333 0.0
H1262 H 0.49103 0.27686 0.20515 0.0
H1263 H 0.50996 0.2166 0.23092 0.0
C1264 C 0.53049 0.23094 0.2592 0.0
C1265 C 0.53531 0.24842 0.27356 0.0
C1266 C 0.48098 0.26457 0.20452 0.0
C1267 C 0.5017 0.24674 0.23957 0.0
C1268 C 0.46395 0.26609 0.18838 0.0
C1269 C 0.45038 0.25066 0.18809 0.0
C1270 C 0.4847 0.24741 0.22016 0.0
C1271 C 0.45493 0.23339 0.20323 0.0
C1272 C 0.51345 0.22996 0.24241 0.0
C1273 C 0.52253 0.26445 0.2712 0.0
N1274 N 0.4718 0.23219 0.21881 0.0
N1275 N 0.50649 0.26331 0.2542 0.0
H1276 H 0.76514 0.55631 0.2442 0.0
H1277 H 0.7684 0.43931 0.24328 0.0
H1278 H 0.74788 0.52107 0.31703 0.0
H1279 H 0.75094 0.47389 0.1699 0.0
H1280 H 0.77347 0.46971 0.27069 0.0
H1281 H 0.77255 0.5262 0.21742 0.0
C1282 C 0.76336 0.54226 0.25477 0.0
C1283 C 0.75564 0.54108 0.28268 0.0
C1284 C 0.76895 0.47056 0.24838 0.0
C1285 C 0.7643 0.50687 0.25245 0.0
C1286 C 0.76616 0.4533 0.23273 0.0
C1287 C 0.75904 0.45421 0.20447 0.0
C1288 C 0.76501 0.4887 0.23536 0.0
C1289 C 0.75623 0.47265 0.19179 0.0
C1290 C 0.76753 0.52516 0.23948 0.0
C1291 C 0.75357 0.52255 0.29539 0.0
N1292 N 0.75913 0.48922 0.20739 0.0
N1293 N 0.75777 0.5061 0.28009 0.0
H1294 H 0.43482 0.76679 0.23474 0.0
H1295 H 0.51789 0.74484 0.15504 0.0
H1296 H 0.47129 0.74369 0.30257 0.0
H1297 H 0.55043 0.7632 0.22989 0.0
H1298 H 0.48735 0.75165 0.18074 0.0
H1299 H 0.46431 0.7727 0.20573 0.0
C1300 C 0.44905 0.76332 0.24371 0.0
C1301 C 0.45069 0.75445 0.27083 0.0
C1302 C 0.50117 0.75476 0.19122 0.0
C1303 C 0.48418 0.76107 0.23798 0.0
C1304 C 0.51857 0.75072 0.17666 0.0
C1305 C 0.53663 0.75337 0.19047 0.0
C1306 C 0.50191 0.76105 0.21996 0.0
C1307 C 0.53677 0.76099 0.2185 0.0
C1308 C 0.46579 0.76655 0.2271 0.0
C1309 C 0.46943 0.75027 0.28155 0.0
N1310 N 0.51962 0.76408 0.23263 0.0
N1311 N 0.48548 0.75355 0.26502 0.0
H1312 H 0.20944 0.1376 0.22851 0.0
H1313 H 0.09979 0.16013 0.27066 0.0
H1314 H 0.16318 0.09929 0.19947 0.0
H1315 H 0.14 0.20601 0.24623 0.0
H1316 H 0.12331 0.13563 0.25292 0.0
H1317 H 0.18468 0.1609 0.24555 0.0
C1318 C 0.19408 0.13392 0.22626 0.0
C1319 C 0.18828 0.11652 0.21261 0.0
C1320 C 0.12681 0.15108 0.25122 0.0
C1321 C 0.16008 0.14302 0.2319 0.0
C1322 C 0.11344 0.16501 0.26118 0.0
C1323 C 0.11796 0.18506 0.25968 0.0
C1324 C 0.14499 0.15731 0.24057 0.0
C1325 C 0.13588 0.19069 0.24748 0.0
C1326 C 0.18002 0.1473 0.23565 0.0
C1327 C 0.16819 0.11258 0.20989 0.0
N1328 N 0.14891 0.17685 0.23878 0.0
N1329 N 0.15474 0.12573 0.21957 0.0
H1330 H 0.88512 0.16392 0.20027 0.0
H1331 H 0.77547 0.13978 0.24145 0.0
H1332 H 0.84393 0.2091 0.22421 0.0
H1333 H 0.82229 0.10198 0.27015 0.0
H1334 H 0.79986 0.16337 0.22427 0.0
H1335 H 0.86175 0.139 0.2171 0.0
C1336 C 0.87126 0.16856 0.20937 0.0
C1337 C 0.86645 0.18854 0.21107 0.0
C1338 C 0.80474 0.14981 0.23412 0.0
C1339 C 0.83962 0.1603 0.2292 0.0
C1340 C 0.79088 0.13627 0.2436 0.0
C1341 C 0.79693 0.11894 0.25723 0.0
C1342 C 0.82473 0.14578 0.23774 0.0
C1343 C 0.81708 0.11522 0.25978 0.0
C1344 C 0.85798 0.15439 0.21884 0.0
C1345 C 0.84828 0.19385 0.22281 0.0
N1346 N 0.83033 0.12853 0.25003 0.0
N1347 N 0.83538 0.17978 0.23107 0.0
H1348 H 0.8469 0.77814 0.24668 0.0
H1349 H 0.82276 0.8871 0.20173 0.0
H1350 H 0.88478 0.82532 0.27382 0.0
H1351 H 0.77768 0.84634 0.22737 0.0
H1352 H 0.84765 0.86413 0.21985 0.0
H1353 H 0.82328 0.80238 0.22915 0.0
C1354 C 0.85041 0.79359 0.24844 0.0
C1355 C 0.86779 0.7998 0.26171 0.0
C1356 C 0.83228 0.86039 0.22171 0.0
C1357 C 0.8409 0.82742 0.24182 0.0
C1358 C 0.81813 0.87344 0.21152 0.0
C1359 C 0.79819 0.8686 0.21325 0.0
C1360 C 0.82639 0.84221 0.23285 0.0
C1361 C 0.79289 0.8507 0.22589 0.0
C1362 C 0.83685 0.80737 0.23876 0.0
C1363 C 0.87151 0.82 0.26374 0.0
N1364 N 0.80695 0.83799 0.23484 0.0
N1365 N 0.85817 0.83316 0.25379 0.0
H1366 H 0.20836 0.84214 0.24767 0.0
H1367 H 0.09838 0.82135 0.20553 0.0
H1368 H 0.16273 0.88169 0.27542 0.0
H1369 H 0.13792 0.77492 0.2303 0.0
H1370 H 0.12225 0.84552 0.22315 0.0
H1371 H 0.18324 0.81908 0.23122 0.0
C1372 C 0.19306 0.84612 0.24982 0.0
C1373 C 0.18754 0.86381 0.26289 0.0
C1374 C 0.12552 0.83002 0.22495 0.0
C1375 C 0.15892 0.83759 0.24423 0.0
C1376 C 0.11196 0.81628 0.21504 0.0
C1377 C 0.11619 0.79617 0.21665 0.0
C1378 C 0.1436 0.82354 0.23568 0.0
C1379 C 0.13402 0.79029 0.22892 0.0
C1380 C 0.17879 0.83289 0.24075 0.0
C1381 C 0.16752 0.86816 0.26546 0.0
N1382 N 0.14723 0.80394 0.23759 0.0
N1383 N 0.15386 0.85514 0.25608 0.0
H1384 H 0.88735 0.8258 0.70271 0.0
H1385 H 0.77789 0.84767 0.74725 0.0
H1386 H 0.84739 0.77973 0.72729 0.0
H1387 H 0.82428 0.8866 0.77401 0.0
H1388 H 0.80253 0.82443 0.72979 0.0
H1389 H 0.86382 0.85018 0.72077 0.0
C1390 C 0.87374 0.82085 0.71225 0.0
C1391 C 0.8693 0.80078 0.71371 0.0
C1392 C 0.80726 0.83814 0.73932 0.0
C1393 C 0.84228 0.8284 0.73326 0.0
C1394 C 0.79325 0.85148 0.74896 0.0
C1395 C 0.79912 0.86904 0.76208 0.0
C1396 C 0.82721 0.84261 0.74228 0.0
C1397 C 0.81922 0.87317 0.76405 0.0
C1398 C 0.86037 0.83471 0.72241 0.0
C1399 C 0.85145 0.79506 0.72604 0.0
N1400 N 0.83261 0.86004 0.75414 0.0
N1401 N 0.83843 0.80884 0.73498 0.0
H1402 H 0.16421 0.86966 0.66669 0.0
H1403 H 0.11748 0.82345 0.8081 0.0
H1404 H 0.19071 0.8759 0.75051 0.0
H1405 H 0.11178 0.79637 0.72456 0.0
H1406 H 0.13849 0.84862 0.78692 0.0
H1407 H 0.13904 0.84859 0.68776 0.0
C1408 C 0.1646 0.8668 0.6896 0.0
C1409 C 0.17966 0.87439 0.7069 0.0
C1410 C 0.13249 0.83725 0.77325 0.0
C1411 C 0.15085 0.8505 0.73099 0.0
C1412 C 0.12044 0.82293 0.78522 0.0
C1413 C 0.11303 0.8077 0.76804 0.0
C1414 C 0.13686 0.83653 0.74383 0.0
C1415 C 0.11733 0.80778 0.73856 0.0
C1416 C 0.15029 0.85472 0.70151 0.0
C1417 C 0.17943 0.87021 0.73642 0.0
N1418 N 0.12901 0.822 0.72733 0.0
N1419 N 0.16522 0.85851 0.74759 0.0
H1420 H 0.13809 0.20994 0.7297 0.0
H1421 H 0.16247 0.10045 0.77177 0.0
H1422 H 0.10017 0.16304 0.70166 0.0
H1423 H 0.2074 0.14139 0.74616 0.0
H1424 H 0.13746 0.1237 0.75479 0.0
H1425 H 0.16172 0.1855 0.74671 0.0
C1426 C 0.13456 0.19451 0.72769 0.0
C1427 C 0.11719 0.18843 0.71429 0.0
C1428 C 0.15282 0.12742 0.75269 0.0
C1429 C 0.14408 0.1606 0.73352 0.0
C1430 C 0.16704 0.11421 0.76221 0.0
C1431 C 0.18696 0.11901 0.76013 0.0
C1432 C 0.15864 0.14571 0.7419 0.0
C1433 C 0.19218 0.13705 0.74785 0.0
C1434 C 0.14813 0.18063 0.73705 0.0
C1435 C 0.11344 0.16825 0.71188 0.0
N1436 N 0.17807 0.14991 0.73957 0.0
N1437 N 0.12679 0.15499 0.7215 0.0
H1438 H 0.87671 0.19303 0.72287 0.0
H1439 H 0.79771 0.1111 0.75099 0.0
H1440 H 0.87049 0.1657 0.80614 0.0
H1441 H 0.82524 0.1181 0.66801 0.0
H1442 H 0.82279 0.13249 0.77202 0.0
H1443 H 0.85628 0.16709 0.70203 0.0
C1444 C 0.87119 0.18149 0.73668 0.0
C1445 C 0.87519 0.18154 0.76624 0.0
C1446 C 0.82342 0.12912 0.74928 0.0
C1447 C 0.85167 0.15216 0.74278 0.0
C1448 C 0.80913 0.11697 0.73729 0.0
C1449 C 0.80934 0.11295 0.70773 0.0
C1450 C 0.83772 0.13756 0.73142 0.0
C1451 C 0.82449 0.12088 0.69091 0.0
C1452 C 0.8596 0.1667 0.72481 0.0
C1453 C 0.86773 0.16622 0.78322 0.0
N1454 N 0.83791 0.13305 0.70292 0.0
N1455 N 0.85608 0.15229 0.77131 0.0
H1456 H 0.66552 0.60175 0.70538 0.0
H1457 H 0.64077 0.71231 0.74223 0.0
H1458 H 0.71022 0.64362 0.72844 0.0
H1459 H 0.6022 0.6657 0.76931 0.0
H1460 H 0.6647 0.68771 0.72668 0.0
H1461 H 0.64038 0.62541 0.7205 0.0
C1462 C 0.67 0.61582 0.71399 0.0
C1463 C 0.68991 0.62075 0.71589 0.0
C1464 C 0.6509 0.68293 0.73581 0.0
C1465 C 0.66143 0.64791 0.73206 0.0
C1466 C 0.63717 0.69691 0.74434 0.0
C1467 C 0.61952 0.69096 0.75706 0.0
C1468 C 0.64675 0.66293 0.73951 0.0
C1469 C 0.61568 0.67082 0.75962 0.0
C1470 C 0.65571 0.62927 0.72246 0.0
C1471 C 0.69502 0.63919 0.72693 0.0
N1472 N 0.6292 0.65746 0.75085 0.0
N1473 N 0.68084 0.65224 0.73424 0.0
H1474 H 0.29577 0.61275 0.72407 0.0
H1475 H 0.37635 0.6936 0.75068 0.0
H1476 H 0.32393 0.61972 0.8066 0.0
H1477 H 0.3686 0.66658 0.66748 0.0
H1478 H 0.35559 0.66807 0.77191 0.0
H1479 H 0.32088 0.63389 0.70255 0.0
C1480 C 0.30733 0.61857 0.73757 0.0
C1481 C 0.30772 0.61459 0.76714 0.0
C1482 C 0.35864 0.66765 0.74906 0.0
C1483 C 0.33614 0.63892 0.7429 0.0
C1484 C 0.37042 0.68221 0.73696 0.0
C1485 C 0.3741 0.68223 0.70731 0.0
C1486 C 0.35021 0.65331 0.73123 0.0
C1487 C 0.36611 0.66712 0.69046 0.0
C1488 C 0.32164 0.63057 0.72531 0.0
C1489 C 0.32304 0.62245 0.78369 0.0
N1490 N 0.3543 0.65341 0.7026 0.0
N1491 N 0.33649 0.63448 0.77142 0.0
H1492 H 0.34877 0.27758 0.73688 0.0
H1493 H 0.32353 0.38831 0.70204 0.0
H1494 H 0.38777 0.32395 0.76353 0.0
H1495 H 0.27925 0.34648 0.72695 0.0
H1496 H 0.34893 0.36455 0.7159 0.0
H1497 H 0.32471 0.30233 0.72227 0.0
C1498 C 0.35245 0.29297 0.73904 0.0
C1499 C 0.37025 0.2988 0.75139 0.0
C1500 C 0.33363 0.36073 0.71854 0.0
C1501 C 0.34286 0.32699 0.73496 0.0
C1502 C 0.31919 0.37424 0.7108 0.0
C1503 C 0.29933 0.36935 0.7136 0.0
C1504 C 0.32808 0.34208 0.72828 0.0
C1505 C 0.29441 0.35089 0.72478 0.0
C1506 C 0.33864 0.30703 0.73106 0.0
C1507 C 0.37417 0.31892 0.75408 0.0
N1508 N 0.30871 0.33778 0.73135 0.0
N1509 N 0.36057 0.33237 0.74587 0.0
H1510 H 0.61868 0.32398 0.67118 0.0
H1511 H 0.66555 0.36914 0.81324 0.0
H1512 H 0.61417 0.29559 0.75395 0.0
H1513 H 0.69084 0.37739 0.72898 0.0
H1514 H 0.64057 0.34789 0.79205 0.0
H1515 H 0.63904 0.34943 0.69287 0.0
C1516 C 0.62176 0.32322 0.69401 0.0
C1517 C 0.61489 0.30753 0.71079 0.0
C1518 C 0.6515 0.35451 0.77824 0.0
C1519 C 0.63802 0.33669 0.7356 0.0
C1520 C 0.6657 0.36669 0.79022 0.0
C1521 C 0.68039 0.37488 0.77281 0.0
C1522 C 0.65179 0.35079 0.7486 0.0
C1523 C 0.67987 0.37123 0.74315 0.0
C1524 C 0.63344 0.33771 0.70628 0.0
C1525 C 0.61931 0.30735 0.74024 0.0
N1526 N 0.66578 0.35941 0.73194 0.0
N1527 N 0.63066 0.32172 0.75176 0.0
H1528 H 0.35772 0.32492 0.16012 0.0
H1529 H 0.31685 0.3702 0.30597 0.0
H1530 H 0.36805 0.29796 0.24278 0.0
H1531 H 0.28664 0.37662 0.22493 0.0
H1532 H 0.34092 0.349 0.28246 0.0
H1533 H 0.33666 0.34923 0.18335 0.0
C1534 C 0.35569 0.32422 0.18321 0.0
C1535 C 0.36454 0.30935 0.1996 0.0
C1536 C 0.32908 0.35517 0.26985 0.0
C1537 C 0.34066 0.33718 0.22616 0.0
C1538 C 0.31541 0.36735 0.28315 0.0
C1539 C 0.29966 0.37505 0.26735 0.0
C1540 C 0.32717 0.35098 0.24048 0.0
C1541 C 0.2985 0.37086 0.23788 0.0
C1542 C 0.34363 0.33803 0.19637 0.0
C1543 C 0.36138 0.30911 0.22939 0.0
N1544 N 0.31211 0.35908 0.22534 0.0
N1545 N 0.3497 0.32288 0.24178 0.0
H1546 H 0.60375 0.32829 0.27366 0.0
H1547 H 0.71364 0.35085 0.23215 0.0
H1548 H 0.64435 0.28242 0.25041 0.0
H1549 H 0.66719 0.39003 0.20619 0.0
H1550 H 0.68902 0.32721 0.24838 0.0
H1551 H 0.62737 0.35278 0.25645 0.0
C1552 C 0.61754 0.32341 0.26458 0.0
C1553 C 0.62214 0.30338 0.26327 0.0
C1554 C 0.68428 0.34105 0.23929 0.0
C1555 C 0.64925 0.33113 0.24464 0.0
C1556 C 0.69827 0.35463 0.23037 0.0
C1557 C 0.69238 0.3724 0.21786 0.0
C1558 C 0.66432 0.34548 0.2362 0.0
C1559 C 0.67228 0.37646 0.21573 0.0
C1560 C 0.63096 0.33734 0.25489 0.0
C1561 C 0.6402 0.29774 0.25152 0.0
N1562 N 0.65891 0.3631 0.22492 0.0
N1563 N 0.65326 0.31159 0.24302 0.0
H1564 H 0.6649 0.62203 0.31244 0.0
H1565 H 0.61838 0.66349 0.16768 0.0
H1566 H 0.69191 0.61371 0.22936 0.0
H1567 H 0.61175 0.69298 0.24929 0.0
H1568 H 0.63967 0.63931 0.19074 0.0
H1569 H 0.63967 0.64234 0.28984 0.0
C1570 C 0.66539 0.62428 0.28938 0.0
C1571 C 0.68058 0.61631 0.2727 0.0
C1572 C 0.63341 0.651 0.20359 0.0
C1573 C 0.65172 0.63931 0.24688 0.0
C1574 C 0.6212 0.66474 0.19054 0.0
C1575 C 0.61344 0.68036 0.20661 0.0
C1576 C 0.63761 0.65269 0.23298 0.0
C1577 C 0.61757 0.68125 0.23613 0.0
C1578 C 0.65105 0.63593 0.27659 0.0
C1579 C 0.68052 0.61971 0.24297 0.0
N1580 N 0.62942 0.66758 0.24842 0.0
N1581 N 0.66627 0.63098 0.23095 0.0
H1582 H 0.27755 0.63932 0.23362 0.0
H1583 H 0.3879 0.66201 0.27305 0.0
H1584 H 0.32367 0.60064 0.20497 0.0
H1585 H 0.34695 0.70759 0.24982 0.0
H1586 H 0.36407 0.63731 0.2569 0.0
H1587 H 0.30238 0.66253 0.25053 0.0
C1588 C 0.2929 0.63554 0.23143 0.0
C1589 C 0.29863 0.61808 0.21786 0.0
C1590 C 0.36047 0.65274 0.25517 0.0
C1591 C 0.32692 0.64449 0.23702 0.0
C1592 C 0.374 0.66679 0.26424 0.0
C1593 C 0.36939 0.68681 0.26255 0.0
C1594 C 0.34205 0.65884 0.2452 0.0
C1595 C 0.35116 0.6923 0.2512 0.0
C1596 C 0.307 0.64886 0.24076 0.0
C1597 C 0.31871 0.61399 0.21528 0.0
N1598 N 0.33802 0.67836 0.2433 0.0
N1599 N 0.3322 0.62711 0.22484 0.0
loop_
_geom_bond_atom_site_label_1
_geom_bond_atom_site_label_2
_geom_bond_distance
_geom_bond_site_symmetry_2
_ccdc_geom_bond_type
C0 O1 1.306 . S
C0 O3 1.160 . S
O1 C0 1.306 . S
O1 Cd2 2.228 . S
Cd2 O1 2.228 . S
Cd2 O6 2.273 . S
Cd2 O10 2.277 . S
O3 C0 1.160 . S
O3 Cd4 2.203 . S
Cd4 O3 2.203 . S
Cd4 O6 2.411 . S
Cd4 O7 2.333 . S
Cd4 O8 2.352 . S
Cd4 O12 2.277 . S
Cd4 O13 2.356 . S
C5 O10 1.209 . S
C5 O12 1.226 . S
O6 Cd2 2.273 . S
O6 Cd4 2.411 . S
O6 C9 1.320 . S
O7 Cd4 2.333 . S
O7 C9 1.214 . S
O8 Cd4 2.352 . S
O8 C11 1.258 . S
C9 O6 1.320 . S
C9 O7 1.214 . S
O10 Cd2 2.277 . S
O10 C5 1.209 . S
C11 O8 1.258 . S
C11 O13 1.282 . S
O12 Cd4 2.277 . S
O12 C5 1.226 . S
O13 Cd4 2.356 . S
O13 C11 1.282 . S
C14 O15 1.306 . S
C14 O17 1.160 . S
O15 C14 1.306 . S
O15 Cd16 2.228 . S
Cd16 O15 2.228 . S
Cd16 O20 2.273 . S
Cd16 O24 2.277 . S
O17 C14 1.160 . S
O17 Cd18 2.203 . S
Cd18 O17 2.203 . S
Cd18 O20 2.411 . S
Cd18 O21 2.333 . S
Cd18 O22 2.352 . S
Cd18 O26 2.277 . S
Cd18 O27 2.356 . S
C19 O24 1.209 . S
C19 O26 1.226 . S
O20 Cd16 2.273 . S
O20 Cd18 2.411 . S
O20 C23 1.320 . S
O21 Cd18 2.333 . S
O21 C23 1.214 . S
O22 Cd18 2.352 . S
O22 C25 1.258 . S
C23 O20 1.320 . S
C23 O21 1.214 . S
O24 Cd16 2.277 . S
O24 C19 1.209 . S
C25 O22 1.258 . S
C25 O27 1.282 . S
O26 Cd18 2.277 . S
O26 C19 1.226 . S
O27 Cd18 2.356 . S
O27 C25 1.282 . S
C28 O29 1.306 . S
C28 O31 1.160 . S
O29 C28 1.306 . S
O29 Cd30 2.228 . S
Cd30 O29 2.228 . S
Cd30 O34 2.273 . S
Cd30 O38 2.277 . S
O31 C28 1.160 . S
O31 Cd32 2.203 . S
Cd32 O31 2.203 . S
Cd32 O34 2.411 . S
Cd32 O35 2.333 . S
Cd32 O36 2.352 . S
Cd32 O40 2.277 . S
Cd32 O41 2.356 . S
C33 O38 1.209 . S
C33 O40 1.226 . S
O34 Cd30 2.273 . S
O34 Cd32 2.411 . S
O34 C37 1.320 . S
O35 Cd32 2.333 . S
O35 C37 1.214 . S
O36 Cd32 2.352 . S
O36 C39 1.258 . S
C37 O34 1.320 . S
C37 O35 1.214 . S
O38 Cd30 2.277 . S
O38 C33 1.209 . S
C39 O36 1.258 . S
C39 O41 1.282 . S
O40 Cd32 2.277 . S
O40 C33 1.226 . S
O41 Cd32 2.356 . S
O41 C39 1.282 . S
C42 O43 1.306 . S
C42 O45 1.160 . S
O43 C42 1.306 . S
O43 Cd44 2.228 . S
Cd44 O43 2.228 . S
Cd44 O48 2.273 . S
Cd44 O52 2.277 . S
O45 C42 1.160 . S
O45 Cd46 2.203 . S
Cd46 O45 2.203 . S
Cd46 O48 2.411 . S
Cd46 O49 2.333 . S
Cd46 O50 2.352 . S
Cd46 O54 2.277 . S
Cd46 O55 2.356 . S
C47 O52 1.209 . S
C47 O54 1.226 . S
O48 Cd44 2.273 . S
O48 Cd46 2.411 . S
O48 C51 1.320 . S
O49 Cd46 2.333 . S
O49 C51 1.214 . S
O50 Cd46 2.352 . S
O50 C53 1.258 . S
C51 O48 1.320 . S
C51 O49 1.214 . S
O52 Cd44 2.277 . S
O52 C47 1.209 . S
C53 O50 1.258 . S
C53 O55 1.282 . S
O54 Cd46 2.277 . S
O54 C47 1.226 . S
O55 Cd46 2.356 . S
O55 C53 1.282 . S
C56 O57 1.306 . S
C56 O59 1.160 . S
O57 C56 1.306 . S
O57 Cd58 2.228 . S
Cd58 O57 2.228 . S
Cd58 O62 2.273 . S
Cd58 O66 2.277 . S
O59 C56 1.160 . S
O59 Cd60 2.203 . S
Cd60 O59 2.203 . S
Cd60 O62 2.411 . S
Cd60 O63 2.333 . S
Cd60 O64 2.352 . S
Cd60 O68 2.277 . S
Cd60 O69 2.356 . S
C61 O66 1.209 . S
C61 O68 1.226 . S
O62 Cd58 2.273 . S
O62 Cd60 2.411 . S
O62 C65 1.320 . S
O63 Cd60 2.333 . S
O63 C65 1.214 . S
O64 Cd60 2.352 . S
O64 C67 1.258 . S
C65 O62 1.320 . S
C65 O63 1.214 . S
O66 Cd58 2.277 . S
O66 C61 1.209 . S
C67 O64 1.258 . S
C67 O69 1.282 . S
O68 Cd60 2.277 . S
O68 C61 1.226 . S
O69 Cd60 2.356 . S
O69 C67 1.282 . S
C70 O71 1.306 . S
C70 O73 1.160 . S
O71 C70 1.306 . S
O71 Cd72 2.228 . S
Cd72 O71 2.228 . S
Cd72 O76 2.273 . S
Cd72 O80 2.277 . S
O73 C70 1.160 . S
O73 Cd74 2.203 . S
Cd74 O73 2.203 . S
Cd74 O76 2.411 . S
Cd74 O77 2.333 . S
Cd74 O78 2.352 . S
Cd74 O82 2.277 . S
Cd74 O83 2.356 . S
C75 O80 1.209 . S
C75 O82 1.226 . S
O76 Cd72 2.273 . S
O76 Cd74 2.411 . S
O76 C79 1.320 . S
O77 Cd74 2.333 . S
O77 C79 1.214 . S
O78 Cd74 2.352 . S
O78 C81 1.258 . S
C79 O76 1.320 . S
C79 O77 1.214 . S
O80 Cd72 2.277 . S
O80 C75 1.209 . S
C81 O78 1.258 . S
C81 O83 1.282 . S
O82 Cd74 2.277 . S
O82 C75 1.226 . S
O83 Cd74 2.356 . S
O83 C81 1.282 . S
C84 O85 1.306 . S
C84 O87 1.160 . S
O85 C84 1.306 . S
O85 Cd86 2.228 . S
Cd86 O85 2.228 . S
Cd86 O90 2.273 . S
Cd86 O94 2.277 . S
O87 C84 1.160 . S
O87 Cd88 2.203 . S
Cd88 O87 2.203 . S
Cd88 O90 2.411 . S
Cd88 O91 2.333 . S
Cd88 O92 2.352 . S
Cd88 O96 2.277 . S
Cd88 O97 2.356 . S
C89 O94 1.209 . S
C89 O96 1.226 . S
O90 Cd86 2.273 . S
O90 Cd88 2.411 . S
O90 C93 1.320 . S
O91 Cd88 2.333 . S
O91 C93 1.214 . S
O92 Cd88 2.352 . S
O92 C95 1.258 . S
C93 O90 1.320 . S
C93 O91 1.214 . S
O94 Cd86 2.277 . S
O94 C89 1.209 . S
C95 O92 1.258 . S
C95 O97 1.282 . S
O96 Cd88 2.277 . S
O96 C89 1.226 . S
O97 Cd88 2.356 . S
O97 C95 1.282 . S
C98 O99 1.306 . S
C98 O101 1.160 . S
O99 C98 1.306 . S
O99 Cd100 2.228 . S
Cd100 O99 2.228 . S
Cd100 O104 2.273 . S
Cd100 O108 2.277 . S
O101 C98 1.160 . S
O101 Cd102 2.203 . S
Cd102 O101 2.203 . S
Cd102 O104 2.411 . S
Cd102 O105 2.333 . S
Cd102 O106 2.352 . S
Cd102 O110 2.277 . S
Cd102 O111 2.356 . S
C103 O108 1.209 . S
C103 O110 1.226 . S
O104 Cd100 2.273 . S
O104 Cd102 2.411 . S
O104 C107 1.320 . S
O105 Cd102 2.333 . S
O105 C107 1.214 . S
O106 Cd102 2.352 . S
O106 C109 1.258 . S
C107 O104 1.320 . S
C107 O105 1.214 . S
O108 Cd100 2.277 . S
O108 C103 1.209 . S
C109 O106 1.258 . S
C109 O111 1.282 . S
O110 Cd102 2.277 . S
O110 C103 1.226 . S
O111 Cd102 2.356 . S
O111 C109 1.282 . S
C112 O113 1.306 . S
C112 O115 1.160 . S
O113 C112 1.306 . S
O113 Cd114 2.228 . S
Cd114 O113 2.228 . S
Cd114 O118 2.273 . S
Cd114 O122 2.277 . S
O115 C112 1.160 . S
O115 Cd116 2.203 . S
Cd116 O115 2.203 . S
Cd116 O118 2.411 . S
Cd116 O119 2.333 . S
Cd116 O120 2.352 . S
Cd116 O124 2.277 . S
Cd116 O125 2.356 . S
C117 O122 1.209 . S
C117 O124 1.226 . S
O118 Cd114 2.273 . S
O118 Cd116 2.411 . S
O118 C121 1.320 . S
O119 Cd116 2.333 . S
O119 C121 1.214 . S
O120 Cd116 2.352 . S
O120 C123 1.258 . S
C121 O118 1.320 . S
C121 O119 1.214 . S
O122 Cd114 2.277 . S
O122 C117 1.209 . S
C123 O120 1.258 . S
C123 O125 1.282 . S
O124 Cd116 2.277 . S
O124 C117 1.226 . S
O125 Cd116 2.356 . S
O125 C123 1.282 . S
C126 O127 1.306 . S
C126 O129 1.160 . S
O127 C126 1.306 . S
O127 Cd128 2.228 . S
Cd128 O127 2.228 . S
Cd128 O132 2.273 . S
Cd128 O136 2.277 . S
O129 C126 1.160 . S
O129 Cd130 2.203 . S
Cd130 O129 2.203 . S
Cd130 O132 2.411 . S
Cd130 O133 2.333 . S
Cd130 O134 2.352 . S
Cd130 O138 2.277 . S
Cd130 O139 2.356 . S
C131 O136 1.209 . S
C131 O138 1.226 . S
O132 Cd128 2.273 . S
O132 Cd130 2.411 . S
O132 C135 1.320 . S
O133 Cd130 2.333 . S
O133 C135 1.214 . S
O134 Cd130 2.352 . S
O134 C137 1.258 . S
C135 O132 1.320 . S
C135 O133 1.214 . S
O136 Cd128 2.277 . S
O136 C131 1.209 . S
C137 O134 1.258 . S
C137 O139 1.282 . S
O138 Cd130 2.277 . S
O138 C131 1.226 . S
O139 Cd130 2.356 . S
O139 C137 1.282 . S
C140 O141 1.306 . S
C140 O143 1.160 . S
O141 C140 1.306 . S
O141 Cd142 2.228 . S
Cd142 O141 2.228 . S
Cd142 O146 2.273 . S
Cd142 O150 2.277 . S
O143 C140 1.160 . S
O143 Cd144 2.203 . S
Cd144 O143 2.203 . S
Cd144 O146 2.411 . S
Cd144 O147 2.333 . S
Cd144 O148 2.352 . S
Cd144 O152 2.277 . S
Cd144 O153 2.356 . S
C145 O150 1.209 . S
C145 O152 1.226 . S
O146 Cd142 2.273 . S
O146 Cd144 2.411 . S
O146 C149 1.320 . S
O147 Cd144 2.333 . S
O147 C149 1.214 . S
O148 Cd144 2.352 . S
O148 C151 1.258 . S
C149 O146 1.320 . S
C149 O147 1.214 . S
O150 Cd142 2.277 . S
O150 C145 1.209 . S
C151 O148 1.258 . S
C151 O153 1.282 . S
O152 Cd144 2.277 . S
O152 C145 1.226 . S
O153 Cd144 2.356 . S
O153 C151 1.282 . S
C154 O155 1.306 . S
C154 O157 1.160 . S
O155 C154 1.306 . S
O155 Cd156 2.228 . S
Cd156 O155 2.228 . S
Cd156 O160 2.273 . S
Cd156 O164 2.277 . S
O157 C154 1.160 . S
O157 Cd158 2.203 . S
Cd158 O157 2.203 . S
Cd158 O160 2.411 . S
Cd158 O161 2.333 . S
Cd158 O162 2.352 . S
Cd158 O166 2.277 . S
Cd158 O167 2.356 . S
C159 O164 1.209 . S
C159 O166 1.226 . S
O160 Cd156 2.273 . S
O160 Cd158 2.411 . S
O160 C163 1.320 . S
O161 Cd158 2.333 . S
O161 C163 1.214 . S
O162 Cd158 2.352 . S
O162 C165 1.258 . S
C163 O160 1.320 . S
C163 O161 1.214 . S
O164 Cd156 2.277 . S
O164 C159 1.209 . S
C165 O162 1.258 . S
C165 O167 1.282 . S
O166 Cd158 2.277 . S
O166 C159 1.226 . S
O167 Cd158 2.356 . S
O167 C165 1.282 . S
C168 O169 1.306 . S
C168 O171 1.160 . S
O169 C168 1.306 . S
O169 Cd170 2.228 . S
Cd170 O169 2.228 . S
Cd170 O174 2.273 . S
Cd170 O178 2.277 . S
O171 C168 1.160 . S
O171 Cd172 2.203 . S
Cd172 O171 2.203 . S
Cd172 O174 2.411 . S
Cd172 O175 2.333 . S
Cd172 O176 2.352 . S
Cd172 O180 2.277 . S
Cd172 O181 2.356 . S
C173 O178 1.209 . S
C173 O180 1.226 . S
O174 Cd170 2.273 . S
O174 Cd172 2.411 . S
O174 C177 1.320 . S
O175 Cd172 2.333 . S
O175 C177 1.214 . S
O176 Cd172 2.352 . S
O176 C179 1.258 . S
C177 O174 1.320 . S
C177 O175 1.214 . S
O178 Cd170 2.277 . S
O178 C173 1.209 . S
C179 O176 1.258 . S
C179 O181 1.282 . S
O180 Cd172 2.277 . S
O180 C173 1.226 . S
O181 Cd172 2.356 . S
O181 C179 1.282 . S
C182 O183 1.306 . S
C182 O185 1.160 . S
O183 C182 1.306 . S
O183 Cd184 2.228 . S
Cd184 O183 2.228 . S
Cd184 O188 2.273 . S
Cd184 O192 2.277 . S
O185 C182 1.160 . S
O185 Cd186 2.203 . S
Cd186 O185 2.203 . S
Cd186 O188 2.411 . S
Cd186 O189 2.333 . S
Cd186 O190 2.352 . S
Cd186 O194 2.277 . S
Cd186 O195 2.356 . S
C187 O192 1.209 . S
C187 O194 1.226 . S
O188 Cd184 2.273 . S
O188 Cd186 2.411 . S
O188 C191 1.320 . S
O189 Cd186 2.333 . S
O189 C191 1.214 . S
O190 Cd186 2.352 . S
O190 C193 1.258 . S
C191 O188 1.320 . S
C191 O189 1.214 . S
O192 Cd184 2.277 . S
O192 C187 1.209 . S
C193 O190 1.258 . S
C193 O195 1.282 . S
O194 Cd186 2.277 . S
O194 C187 1.226 . S
O195 Cd186 2.356 . S
O195 C193 1.282 . S
C196 O197 1.306 . S
C196 O199 1.160 . S
O197 C196 1.306 . S
O197 Cd198 2.228 . S
Cd198 O197 2.228 . S
Cd198 O202 2.273 . S
Cd198 O206 2.277 . S
O199 C196 1.160 . S
O199 Cd200 2.203 . S
Cd200 O199 2.203 . S
Cd200 O202 2.411 . S
Cd200 O203 2.333 . S
Cd200 O204 2.352 . S
Cd200 O208 2.277 . S
Cd200 O209 2.356 . S
C201 O206 1.209 . S
C201 O208 1.226 . S
O202 Cd198 2.273 . S
O202 Cd200 2.411 . S
O202 C205 1.320 . S
O203 Cd200 2.333 . S
O203 C205 1.214 . S
O204 Cd200 2.352 . S
O204 C207 1.258 . S
C205 O202 1.320 . S
C205 O203 1.214 . S
O206 Cd198 2.277 . S
O206 C201 1.209 . S
C207 O204 1.258 . S
C207 O209 1.282 . S
O208 Cd200 2.277 . S
O208 C201 1.226 . S
O209 Cd200 2.356 . S
O209 C207 1.282 . S
C210 O211 1.306 . S
C210 O213 1.160 . S
O211 C210 1.306 . S
O211 Cd212 2.228 . S
Cd212 O211 2.228 . S
Cd212 O216 2.273 . S
Cd212 O220 2.277 . S
O213 C210 1.160 . S
O213 Cd214 2.203 . S
Cd214 O213 2.203 . S
Cd214 O216 2.411 . S
Cd214 O217 2.333 . S
Cd214 O218 2.352 . S
Cd214 O222 2.277 . S
Cd214 O223 2.356 . S
C215 O220 1.209 . S
C215 O222 1.226 . S
O216 Cd212 2.273 . S
O216 Cd214 2.411 . S
O216 C219 1.320 . S
O217 Cd214 2.333 . S
O217 C219 1.214 . S
O218 Cd214 2.352 . S
O218 C221 1.258 . S
C219 O216 1.320 . S
C219 O217 1.214 . S
O220 Cd212 2.277 . S
O220 C215 1.209 . S
C221 O218 1.258 . S
C221 O223 1.282 . S
O222 Cd214 2.277 . S
O222 C215 1.226 . S
O223 Cd214 2.356 . S
O223 C221 1.282 . S
C224 O225 1.306 . S
C224 O227 1.160 . S
O225 C224 1.306 . S
O225 Cd226 2.228 . S
Cd226 O225 2.228 . S
Cd226 O230 2.273 . S
Cd226 O234 2.277 . S
O227 C224 1.160 . S
O227 Cd228 2.203 . S
Cd228 O227 2.203 . S
Cd228 O230 2.411 . S
Cd228 O231 2.333 . S
Cd228 O232 2.352 . S
Cd228 O236 2.277 . S
Cd228 O237 2.356 . S
C229 O234 1.209 . S
C229 O236 1.226 . S
O230 Cd226 2.273 . S
O230 Cd228 2.411 . S
O230 C233 1.320 . S
O231 Cd228 2.333 . S
O231 C233 1.214 . S
O232 Cd228 2.352 . S
O232 C235 1.258 . S
C233 O230 1.320 . S
C233 O231 1.214 . S
O234 Cd226 2.277 . S
O234 C229 1.209 . S
C235 O232 1.258 . S
C235 O237 1.282 . S
O236 Cd228 2.277 . S
O236 C229 1.226 . S
O237 Cd228 2.356 . S
O237 C235 1.282 . S
C238 O239 1.306 . S
C238 O241 1.160 . S
O239 C238 1.306 . S
O239 Cd240 2.228 . S
Cd240 O239 2.228 . S
Cd240 O244 2.273 . S
Cd240 O248 2.277 . S
O241 C238 1.160 . S
O241 Cd242 2.203 . S
Cd242 O241 2.203 . S
Cd242 O244 2.411 . S
Cd242 O245 2.333 . S
Cd242 O246 2.352 . S
Cd242 O250 2.277 . S
Cd242 O251 2.356 . S
C243 O248 1.209 . S
C243 O250 1.226 . S
O244 Cd240 2.273 . S
O244 Cd242 2.411 . S
O244 C247 1.320 . S
O245 Cd242 2.333 . S
O245 C247 1.214 . S
O246 Cd242 2.352 . S
O246 C249 1.258 . S
C247 O244 1.320 . S
C247 O245 1.214 . S
O248 Cd240 2.277 . S
O248 C243 1.209 . S
C249 O246 1.258 . S
C249 O251 1.282 . S
O250 Cd242 2.277 . S
O250 C243 1.226 . S
O251 Cd242 2.356 . S
O251 C249 1.282 . S
C252 O253 1.306 . S
C252 O255 1.160 . S
O253 C252 1.306 . S
O253 Cd254 2.228 . S
Cd254 O253 2.228 . S
Cd254 O258 2.273 . S
Cd254 O262 2.277 . S
O255 C252 1.160 . S
O255 Cd256 2.203 . S
Cd256 O255 2.203 . S
Cd256 O258 2.411 . S
Cd256 O259 2.333 . S
Cd256 O260 2.352 . S
Cd256 O264 2.277 . S
Cd256 O265 2.356 . S
C257 O262 1.209 . S
C257 O264 1.226 . S
O258 Cd254 2.273 . S
O258 Cd256 2.411 . S
O258 C261 1.320 . S
O259 Cd256 2.333 . S
O259 C261 1.214 . S
O260 Cd256 2.352 . S
O260 C263 1.258 . S
C261 O258 1.320 . S
C261 O259 1.214 . S
O262 Cd254 2.277 . S
O262 C257 1.209 . S
C263 O260 1.258 . S
C263 O265 1.282 . S
O264 Cd256 2.277 . S
O264 C257 1.226 . S
O265 Cd256 2.356 . S
O265 C263 1.282 . S
C266 O267 1.306 . S
C266 O269 1.160 . S
O267 C266 1.306 . S
O267 Cd268 2.228 . S
Cd268 O267 2.228 . S
Cd268 O272 2.273 . S
Cd268 O276 2.277 . S
O269 C266 1.160 . S
O269 Cd270 2.203 . S
Cd270 O269 2.203 . S
Cd270 O272 2.411 . S
Cd270 O273 2.333 . S
Cd270 O274 2.352 . S
Cd270 O278 2.277 . S
Cd270 O279 2.356 . S
C271 O276 1.209 . S
C271 O278 1.226 . S
O272 Cd268 2.273 . S
O272 Cd270 2.411 . S
O272 C275 1.320 . S
O273 Cd270 2.333 . S
O273 C275 1.214 . S
O274 Cd270 2.352 . S
O274 C277 1.258 . S
C275 O272 1.320 . S
C275 O273 1.214 . S
O276 Cd268 2.277 . S
O276 C271 1.209 . S
C277 O274 1.258 . S
C277 O279 1.282 . S
O278 Cd270 2.277 . S
O278 C271 1.226 . S
O279 Cd270 2.356 . S
O279 C277 1.282 . S
C280 O281 1.306 . S
C280 O283 1.160 . S
O281 C280 1.306 . S
O281 Cd282 2.228 . S
Cd282 O281 2.228 . S
Cd282 O286 2.273 . S
Cd282 O290 2.277 . S
O283 C280 1.160 . S
O283 Cd284 2.203 . S
Cd284 O283 2.203 . S
Cd284 O286 2.411 . S
Cd284 O287 2.333 . S
Cd284 O288 2.352 . S
Cd284 O292 2.277 . S
Cd284 O293 2.356 . S
C285 O290 1.209 . S
C285 O292 1.226 . S
O286 Cd282 2.273 . S
O286 Cd284 2.411 . S
O286 C289 1.320 . S
O287 Cd284 2.333 . S
O287 C289 1.214 . S
O288 Cd284 2.352 . S
O288 C291 1.258 . S
C289 O286 1.320 . S
C289 O287 1.214 . S
O290 Cd282 2.277 . S
O290 C285 1.209 . S
C291 O288 1.258 . S
C291 O293 1.282 . S
O292 Cd284 2.277 . S
O292 C285 1.226 . S
O293 Cd284 2.356 . S
O293 C291 1.282 . S
C294 O295 1.306 . S
C294 O297 1.160 . S
O295 C294 1.306 . S
O295 Cd296 2.228 . S
Cd296 O295 2.228 . S
Cd296 O300 2.273 . S
Cd296 O304 2.277 . S
O297 C294 1.160 . S
O297 Cd298 2.203 . S
Cd298 O297 2.203 . S
Cd298 O300 2.411 . S
Cd298 O301 2.333 . S
Cd298 O302 2.352 . S
Cd298 O306 2.277 . S
Cd298 O307 2.356 . S
C299 O304 1.209 . S
C299 O306 1.226 . S
O300 Cd296 2.273 . S
O300 Cd298 2.411 . S
O300 C303 1.320 . S
O301 Cd298 2.333 . S
O301 C303 1.214 . S
O302 Cd298 2.352 . S
O302 C305 1.258 . S
C303 O300 1.320 . S
C303 O301 1.214 . S
O304 Cd296 2.277 . S
O304 C299 1.209 . S
C305 O302 1.258 . S
C305 O307 1.282 . S
O306 Cd298 2.277 . S
O306 C299 1.226 . S
O307 Cd298 2.356 . S
O307 C305 1.282 . S
C308 O309 1.306 . S
C308 O311 1.160 . S
O309 C308 1.306 . S
O309 Cd310 2.228 . S
Cd310 O309 2.228 . S
Cd310 O314 2.273 . S
Cd310 O318 2.277 . S
O311 C308 1.160 . S
O311 Cd312 2.203 . S
Cd312 O311 2.203 . S
Cd312 O314 2.411 . S
Cd312 O315 2.333 . S
Cd312 O316 2.352 . S
Cd312 O320 2.277 . S
Cd312 O321 2.356 . S
C313 O318 1.209 . S
C313 O320 1.226 . S
O314 Cd310 2.273 . S
O314 Cd312 2.411 . S
O314 C317 1.320 . S
O315 Cd312 2.333 . S
O315 C317 1.214 . S
O316 Cd312 2.352 . S
O316 C319 1.258 . S
C317 O314 1.320 . S
C317 O315 1.214 . S
O318 Cd310 2.277 . S
O318 C313 1.209 . S
C319 O316 1.258 . S
C319 O321 1.282 . S
O320 Cd312 2.277 . S
O320 C313 1.226 . S
O321 Cd312 2.356 . S
O321 C319 1.282 . S
C322 O323 1.306 . S
C322 O325 1.160 . S
O323 C322 1.306 . S
O323 Cd324 2.228 . S
Cd324 O323 2.228 . S
Cd324 O328 2.273 . S
Cd324 O332 2.277 . S
O325 C322 1.160 . S
O325 Cd326 2.203 . S
Cd326 O325 2.203 . S
Cd326 O328 2.411 . S
Cd326 O329 2.333 . S
Cd326 O330 2.352 . S
Cd326 O334 2.277 . S
Cd326 O335 2.356 . S
C327 O332 1.209 . S
C327 O334 1.226 . S
O328 Cd324 2.273 . S
O328 Cd326 2.411 . S
O328 C331 1.320 . S
O329 Cd326 2.333 . S
O329 C331 1.214 . S
O330 Cd326 2.352 . S
O330 C333 1.258 . S
C331 O328 1.320 . S
C331 O329 1.214 . S
O332 Cd324 2.277 . S
O332 C327 1.209 . S
C333 O330 1.258 . S
C333 O335 1.282 . S
O334 Cd326 2.277 . S
O334 C327 1.226 . S
O335 Cd326 2.356 . S
O335 C333 1.282 . S
C336 O337 1.306 . S
C336 O339 1.160 . S
O337 C336 1.306 . S
O337 Cd338 2.228 . S
Cd338 O337 2.228 . S
Cd338 O342 2.273 . S
Cd338 O346 2.277 . S
O339 C336 1.160 . S
O339 Cd340 2.203 . S
Cd340 O339 2.203 . S
Cd340 O342 2.411 . S
Cd340 O343 2.333 . S
Cd340 O344 2.352 . S
Cd340 O348 2.277 . S
Cd340 O349 2.356 . S
C341 O346 1.209 . S
C341 O348 1.226 . S
O342 Cd338 2.273 . S
O342 Cd340 2.411 . S
O342 C345 1.320 . S
O343 Cd340 2.333 . S
O343 C345 1.214 . S
O344 Cd340 2.352 . S
O344 C347 1.258 . S
C345 O342 1.320 . S
C345 O343 1.214 . S
O346 Cd338 2.277 . S
O346 C341 1.209 . S
C347 O344 1.258 . S
C347 O349 1.282 . S
O348 Cd340 2.277 . S
O348 C341 1.226 . S
O349 Cd340 2.356 . S
O349 C347 1.282 . S
C350 O351 1.306 . S
C350 O353 1.160 . S
O351 C350 1.306 . S
O351 Cd352 2.228 . S
Cd352 O351 2.228 . S
Cd352 O356 2.273 . S
Cd352 O360 2.277 . S
O353 C350 1.160 . S
O353 Cd354 2.203 . S
Cd354 O353 2.203 . S
Cd354 O356 2.411 . S
Cd354 O357 2.333 . S
Cd354 O358 2.352 . S
Cd354 O362 2.277 . S
Cd354 O363 2.356 . S
C355 O360 1.209 . S
C355 O362 1.226 . S
O356 Cd352 2.273 . S
O356 Cd354 2.411 . S
O356 C359 1.320 . S
O357 Cd354 2.333 . S
O357 C359 1.214 . S
O358 Cd354 2.352 . S
O358 C361 1.258 . S
C359 O356 1.320 . S
C359 O357 1.214 . S
O360 Cd352 2.277 . S
O360 C355 1.209 . S
C361 O358 1.258 . S
C361 O363 1.282 . S
O362 Cd354 2.277 . S
O362 C355 1.226 . S
O363 Cd354 2.356 . S
O363 C361 1.282 . S
C364 O365 1.306 . S
C364 O367 1.160 . S
O365 C364 1.306 . S
O365 Cd366 2.228 . S
Cd366 O365 2.228 . S
Cd366 O370 2.273 . S
Cd366 O374 2.277 . S
O367 C364 1.160 . S
O367 Cd368 2.203 . S
Cd368 O367 2.203 . S
Cd368 O370 2.411 . S
Cd368 O371 2.333 . S
Cd368 O372 2.352 . S
Cd368 O376 2.277 . S
Cd368 O377 2.356 . S
C369 O374 1.209 . S
C369 O376 1.226 . S
O370 Cd366 2.273 . S
O370 Cd368 2.411 . S
O370 C373 1.320 . S
O371 Cd368 2.333 . S
O371 C373 1.214 . S
O372 Cd368 2.352 . S
O372 C375 1.258 . S
C373 O370 1.320 . S
C373 O371 1.214 . S
O374 Cd366 2.277 . S
O374 C369 1.209 . S
C375 O372 1.258 . S
C375 O377 1.282 . S
O376 Cd368 2.277 . S
O376 C369 1.226 . S
O377 Cd368 2.356 . S
O377 C375 1.282 . S
C378 O379 1.306 . S
C378 O381 1.160 . S
O379 C378 1.306 . S
O379 Cd380 2.228 . S
Cd380 O379 2.228 . S
Cd380 O384 2.273 . S
Cd380 O388 2.277 . S
O381 C378 1.160 . S
O381 Cd382 2.203 . S
Cd382 O381 2.203 . S
Cd382 O384 2.411 . S
Cd382 O385 2.333 . S
Cd382 O386 2.352 . S
Cd382 O390 2.277 . S
Cd382 O391 2.356 . S
C383 O388 1.209 . S
C383 O390 1.226 . S
O384 Cd380 2.273 . S
O384 Cd382 2.411 . S
O384 C387 1.320 . S
O385 Cd382 2.333 . S
O385 C387 1.214 . S
O386 Cd382 2.352 . S
O386 C389 1.258 . S
C387 O384 1.320 . S
C387 O385 1.214 . S
O388 Cd380 2.277 . S
O388 C383 1.209 . S
C389 O386 1.258 . S
C389 O391 1.282 . S
O390 Cd382 2.277 . S
O390 C383 1.226 . S
O391 Cd382 2.356 . S
O391 C389 1.282 . S
C392 O393 1.306 . S
C392 O395 1.160 . S
O393 C392 1.306 . S
O393 Cd394 2.228 . S
Cd394 O393 2.228 . S
Cd394 O398 2.273 . S
Cd394 O402 2.277 . S
O395 C392 1.160 . S
O395 Cd396 2.203 . S
Cd396 O395 2.203 . S
Cd396 O398 2.411 . S
Cd396 O399 2.333 . S
Cd396 O400 2.352 . S
Cd396 O404 2.277 . S
Cd396 O405 2.356 . S
C397 O402 1.209 . S
C397 O404 1.226 . S
O398 Cd394 2.273 . S
O398 Cd396 2.411 . S
O398 C401 1.320 . S
O399 Cd396 2.333 . S
O399 C401 1.214 . S
O400 Cd396 2.352 . S
O400 C403 1.258 . S
C401 O398 1.320 . S
C401 O399 1.214 . S
O402 Cd394 2.277 . S
O402 C397 1.209 . S
C403 O400 1.258 . S
C403 O405 1.282 . S
O404 Cd396 2.277 . S
O404 C397 1.226 . S
O405 Cd396 2.356 . S
O405 C403 1.282 . S
C406 O407 1.306 . S
C406 O409 1.160 . S
O407 C406 1.306 . S
O407 Cd408 2.228 . S
Cd408 O407 2.228 . S
Cd408 O412 2.273 . S
Cd408 O416 2.277 . S
O409 C406 1.160 . S
O409 Cd410 2.203 . S
Cd410 O409 2.203 . S
Cd410 O412 2.411 . S
Cd410 O413 2.333 . S
Cd410 O414 2.352 . S
Cd410 O418 2.277 . S
Cd410 O419 2.356 . S
C411 O416 1.209 . S
C411 O418 1.226 . S
O412 Cd408 2.273 . S
O412 Cd410 2.411 . S
O412 C415 1.320 . S
O413 Cd410 2.333 . S
O413 C415 1.214 . S
O414 Cd410 2.352 . S
O414 C417 1.258 . S
C415 O412 1.320 . S
C415 O413 1.214 . S
O416 Cd408 2.277 . S
O416 C411 1.209 . S
C417 O414 1.258 . S
C417 O419 1.282 . S
O418 Cd410 2.277 . S
O418 C411 1.226 . S
O419 Cd410 2.356 . S
O419 C417 1.282 . S
C420 O421 1.306 . S
C420 O423 1.160 . S
O421 C420 1.306 . S
O421 Cd422 2.228 . S
Cd422 O421 2.228 . S
Cd422 O426 2.273 . S
Cd422 O430 2.277 . S
O423 C420 1.160 . S
O423 Cd424 2.203 . S
Cd424 O423 2.203 . S
Cd424 O426 2.411 . S
Cd424 O427 2.333 . S
Cd424 O428 2.352 . S
Cd424 O432 2.277 . S
Cd424 O433 2.356 . S
C425 O430 1.209 . S
C425 O432 1.226 . S
O426 Cd422 2.273 . S
O426 Cd424 2.411 . S
O426 C429 1.320 . S
O427 Cd424 2.333 . S
O427 C429 1.214 . S
O428 Cd424 2.352 . S
O428 C431 1.258 . S
C429 O426 1.320 . S
C429 O427 1.214 . S
O430 Cd422 2.277 . S
O430 C425 1.209 . S
C431 O428 1.258 . S
C431 O433 1.282 . S
O432 Cd424 2.277 . S
O432 C425 1.226 . S
O433 Cd424 2.356 . S
O433 C431 1.282 . S
C434 O435 1.306 . S
C434 O437 1.160 . S
O435 C434 1.306 . S
O435 Cd436 2.228 . S
Cd436 O435 2.228 . S
Cd436 O440 2.273 . S
Cd436 O444 2.277 . S
O437 C434 1.160 . S
O437 Cd438 2.203 . S
Cd438 O437 2.203 . S
Cd438 O440 2.411 . S
Cd438 O441 2.333 . S
Cd438 O442 2.352 . S
Cd438 O446 2.277 . S
Cd438 O447 2.356 . S
C439 O444 1.209 . S
C439 O446 1.226 . S
O440 Cd436 2.273 . S
O440 Cd438 2.411 . S
O440 C443 1.320 . S
O441 Cd438 2.333 . S
O441 C443 1.214 . S
O442 Cd438 2.352 . S
O442 C445 1.258 . S
C443 O440 1.320 . S
C443 O441 1.214 . S
O444 Cd436 2.277 . S
O444 C439 1.209 . S
C445 O442 1.258 . S
C445 O447 1.282 . S
O446 Cd438 2.277 . S
O446 C439 1.226 . S
O447 Cd438 2.356 . S
O447 C445 1.282 . S
H448 C454 0.930 . S
H449 C458 0.930 . S
H450 C463 0.929 . S
H451 C461 0.929 . S
H452 C456 0.929 . S
H453 C462 0.929 . S
C454 H448 0.930 . S
C454 C455 1.367 . S
C454 C462 1.378 . S
C455 C454 1.367 . S
C455 C463 1.433 . S
C456 H452 0.929 . S
C456 C458 1.378 . S
C456 C460 1.350 . S
C457 C460 1.463 . S
C457 C462 1.350 . S
C457 N465 1.427 . S
C458 H449 0.930 . S
C458 C456 1.378 . S
C458 C459 1.367 . S
C459 C458 1.367 . S
C459 C461 1.433 . S
C460 C456 1.350 . S
C460 C457 1.463 . S
C460 N464 1.427 . S
C461 H451 0.929 . S
C461 C459 1.433 . S
C461 N464 1.384 . S
C462 H453 0.929 . S
C462 C454 1.378 . S
C462 C457 1.350 . S
C463 H450 0.929 . S
C463 C455 1.433 . S
C463 N465 1.384 . S
N464 C460 1.427 . S
N464 C461 1.384 . S
N465 C457 1.427 . S
N465 C463 1.384 . S
H466 C472 0.930 . S
H467 C476 0.930 . S
H468 C481 0.929 . S
H469 C479 0.929 . S
H470 C474 0.929 . S
H471 C480 0.929 . S
C472 H466 0.930 . S
C472 C473 1.367 . S
C472 C480 1.378 . S
C473 C472 1.367 . S
C473 C481 1.433 . S
C474 H470 0.929 . S
C474 C476 1.378 . S
C474 C478 1.350 . S
C475 C478 1.463 . S
C475 C480 1.350 . S
C475 N483 1.427 . S
C476 H467 0.930 . S
C476 C474 1.378 . S
C476 C477 1.367 . S
C477 C476 1.367 . S
C477 C479 1.433 . S
C478 C474 1.350 . S
C478 C475 1.463 . S
C478 N482 1.427 . S
C479 H469 0.929 . S
C479 C477 1.433 . S
C479 N482 1.384 . S
C480 H471 0.929 . S
C480 C472 1.378 . S
C480 C475 1.350 . S
C481 H468 0.929 . S
C481 C473 1.433 . S
C481 N483 1.384 . S
N482 C478 1.427 . S
N482 C479 1.384 . S
N483 C475 1.427 . S
N483 C481 1.384 . S
H484 C490 0.930 . S
H485 C494 0.930 . S
H486 C499 0.929 . S
H487 C497 0.929 . S
H488 C492 0.929 . S
H489 C498 0.929 . S
C490 H484 0.930 . S
C490 C491 1.367 . S
C490 C498 1.378 . S
C491 C490 1.367 . S
C491 C499 1.433 . S
C492 H488 0.929 . S
C492 C494 1.378 . S
C492 C496 1.350 . S
C493 C496 1.463 . S
C493 C498 1.350 . S
C493 N501 1.427 . S
C494 H485 0.930 . S
C494 C492 1.378 . S
C494 C495 1.367 . S
C495 C494 1.367 . S
C495 C497 1.433 . S
C496 C492 1.350 . S
C496 C493 1.463 . S
C496 N500 1.427 . S
C497 H487 0.929 . S
C497 C495 1.433 . S
C497 N500 1.384 . S
C498 H489 0.929 . S
C498 C490 1.378 . S
C498 C493 1.350 . S
C499 H486 0.929 . S
C499 C491 1.433 . S
C499 N501 1.384 . S
N500 C496 1.427 . S
N500 C497 1.384 . S
N501 C493 1.427 . S
N501 C499 1.384 . S
H502 C508 0.930 . S
H503 C512 0.930 . S
H504 C517 0.929 . S
H505 C515 0.929 . S
H506 C510 0.929 . S
H507 C516 0.929 . S
C508 H502 0.930 . S
C508 C509 1.367 . S
C508 C516 1.378 . S
C509 C508 1.367 . S
C509 C517 1.433 . S
C510 H506 0.929 . S
C510 C512 1.378 . S
C510 C514 1.350 . S
C511 C514 1.463 . S
C511 C516 1.350 . S
C511 N519 1.427 . S
C512 H503 0.930 . S
C512 C510 1.378 . S
C512 C513 1.367 . S
C513 C512 1.367 . S
C513 C515 1.433 . S
C514 C510 1.350 . S
C514 C511 1.463 . S
C514 N518 1.427 . S
C515 H505 0.929 . S
C515 C513 1.433 . S
C515 N518 1.384 . S
C516 H507 0.929 . S
C516 C508 1.378 . S
C516 C511 1.350 . S
C517 H504 0.929 . S
C517 C509 1.433 . S
C517 N519 1.384 . S
N518 C514 1.427 . S
N518 C515 1.384 . S
N519 C511 1.427 . S
N519 C517 1.384 . S
H520 C526 0.930 . S
H521 C530 0.930 . S
H522 C535 0.929 . S
H523 C533 0.929 . S
H524 C528 0.929 . S
H525 C534 0.929 . S
C526 H520 0.930 . S
C526 C527 1.367 . S
C526 C534 1.378 . S
C527 C526 1.367 . S
C527 C535 1.433 . S
C528 H524 0.929 . S
C528 C530 1.378 . S
C528 C532 1.350 . S
C529 C532 1.463 . S
C529 C534 1.350 . S
C529 N537 1.427 . S
C530 H521 0.930 . S
C530 C528 1.378 . S
C530 C531 1.367 . S
C531 C530 1.367 . S
C531 C533 1.433 . S
C532 C528 1.350 . S
C532 C529 1.463 . S
C532 N536 1.427 . S
C533 H523 0.929 . S
C533 C531 1.433 . S
C533 N536 1.384 . S
C534 H525 0.929 . S
C534 C526 1.378 . S
C534 C529 1.350 . S
C535 H522 0.929 . S
C535 C527 1.433 . S
C535 N537 1.384 . S
N536 C532 1.427 . S
N536 C533 1.384 . S
N537 C529 1.427 . S
N537 C535 1.384 . S
H538 C544 0.930 . S
H539 C548 0.930 . S
H540 C553 0.929 . S
H541 C551 0.929 . S
H542 C546 0.929 . S
H543 C552 0.929 . S
C544 H538 0.930 . S
C544 C545 1.367 . S
C544 C552 1.378 . S
C545 C544 1.367 . S
C545 C553 1.433 . S
C546 H542 0.929 . S
C546 C548 1.378 . S
C546 C550 1.350 . S
C547 C550 1.463 . S
C547 C552 1.350 . S
C547 N555 1.427 . S
C548 H539 0.930 . S
C548 C546 1.378 . S
C548 C549 1.367 . S
C549 C548 1.367 . S
C549 C551 1.433 . S
C550 C546 1.350 . S
C550 C547 1.463 . S
C550 N554 1.427 . S
C551 H541 0.929 . S
C551 C549 1.433 . S
C551 N554 1.384 . S
C552 H543 0.929 . S
C552 C544 1.378 . S
C552 C547 1.350 . S
C553 H540 0.929 . S
C553 C545 1.433 . S
C553 N555 1.384 . S
N554 C550 1.427 . S
N554 C551 1.384 . S
N555 C547 1.427 . S
N555 C553 1.384 . S
H556 C562 0.930 . S
H557 C566 0.930 . S
H558 C571 0.929 . S
H559 C569 0.929 . S
H560 C564 0.929 . S
H561 C570 0.929 . S
C562 H556 0.930 . S
C562 C563 1.367 . S
C562 C570 1.378 . S
C563 C562 1.367 . S
C563 C571 1.433 . S
C564 H560 0.929 . S
C564 C566 1.378 . S
C564 C568 1.350 . S
C565 C568 1.463 . S
C565 C570 1.350 . S
C565 N573 1.427 . S
C566 H557 0.930 . S
C566 C564 1.378 . S
C566 C567 1.367 . S
C567 C566 1.367 . S
C567 C569 1.433 . S
C568 C564 1.350 . S
C568 C565 1.463 . S
C568 N572 1.427 . S
C569 H559 0.929 . S
C569 C567 1.433 . S
C569 N572 1.384 . S
C570 H561 0.929 . S
C570 C562 1.378 . S
C570 C565 1.350 . S
C571 H558 0.929 . S
C571 C563 1.433 . S
C571 N573 1.384 . S
N572 C568 1.427 . S
N572 C569 1.384 . S
N573 C565 1.427 . S
N573 C571 1.384 . S
H574 C580 0.930 . S
H575 C584 0.930 . S
H576 C589 0.929 . S
H577 C587 0.929 . S
H578 C582 0.929 . S
H579 C588 0.929 . S
C580 H574 0.930 . S
C580 C581 1.367 . S
C580 C588 1.378 . S
C581 C580 1.367 . S
C581 C589 1.433 . S
C582 H578 0.929 . S
C582 C584 1.378 . S
C582 C586 1.350 . S
C583 C586 1.463 . S
C583 C588 1.350 . S
C583 N591 1.427 . S
C584 H575 0.930 . S
C584 C582 1.378 . S
C584 C585 1.367 . S
C585 C584 1.367 . S
C585 C587 1.433 . S
C586 C582 1.350 . S
C586 C583 1.463 . S
C586 N590 1.427 . S
C587 H577 0.929 . S
C587 C585 1.433 . S
C587 N590 1.384 . S
C588 H579 0.929 . S
C588 C580 1.378 . S
C588 C583 1.350 . S
C589 H576 0.929 . S
C589 C581 1.433 . S
C589 N591 1.384 . S
N590 C586 1.427 . S
N590 C587 1.384 . S
N591 C583 1.427 . S
N591 C589 1.384 . S
H592 C598 0.930 . S
H593 C602 0.930 . S
H594 C607 0.929 . S
H595 C605 0.929 . S
H596 C600 0.929 . S
H597 C606 0.929 . S
C598 H592 0.930 . S
C598 C599 1.367 . S
C598 C606 1.378 . S
C599 C598 1.367 . S
C599 C607 1.433 . S
C600 H596 0.929 . S
C600 C602 1.378 . S
C600 C604 1.350 . S
C601 C604 1.463 . S
C601 C606 1.350 . S
C601 N609 1.427 . S
C602 H593 0.930 . S
C602 C600 1.378 . S
C602 C603 1.367 . S
C603 C602 1.367 . S
C603 C605 1.433 . S
C604 C600 1.350 . S
C604 C601 1.463 . S
C604 N608 1.427 . S
C605 H595 0.929 . S
C605 C603 1.433 . S
C605 N608 1.384 . S
C606 H597 0.929 . S
C606 C598 1.378 . S
C606 C601 1.350 . S
C607 H594 0.929 . S
C607 C599 1.433 . S
C607 N609 1.384 . S
N608 C604 1.427 . S
N608 C605 1.384 . S
N609 C601 1.427 . S
N609 C607 1.384 . S
H610 C616 0.930 . S
H611 C620 0.930 . S
H612 C625 0.929 . S
H613 C623 0.929 . S
H614 C618 0.929 . S
H615 C624 0.929 . S
C616 H610 0.930 . S
C616 C617 1.367 . S
C616 C624 1.378 . S
C617 C616 1.367 . S
C617 C625 1.433 . S
C618 H614 0.929 . S
C618 C620 1.378 . S
C618 C622 1.350 . S
C619 C622 1.463 . S
C619 C624 1.350 . S
C619 N627 1.427 . S
C620 H611 0.930 . S
C620 C618 1.378 . S
C620 C621 1.367 . S
C621 C620 1.367 . S
C621 C623 1.433 . S
C622 C618 1.350 . S
C622 C619 1.463 . S
C622 N626 1.427 . S
C623 H613 0.929 . S
C623 C621 1.433 . S
C623 N626 1.384 . S
C624 H615 0.929 . S
C624 C616 1.378 . S
C624 C619 1.350 . S
C625 H612 0.929 . S
C625 C617 1.433 . S
C625 N627 1.384 . S
N626 C622 1.427 . S
N626 C623 1.384 . S
N627 C619 1.427 . S
N627 C625 1.384 . S
H628 C634 0.930 . S
H629 C638 0.930 . S
H630 C643 0.929 . S
H631 C641 0.929 . S
H632 C636 0.929 . S
H633 C642 0.929 . S
C634 H628 0.930 . S
C634 C635 1.367 . S
C634 C642 1.378 . S
C635 C634 1.367 . S
C635 C643 1.433 . S
C636 H632 0.929 . S
C636 C638 1.378 . S
C636 C640 1.350 . S
C637 C640 1.463 . S
C637 C642 1.350 . S
C637 N645 1.427 . S
C638 H629 0.930 . S
C638 C636 1.378 . S
C638 C639 1.367 . S
C639 C638 1.367 . S
C639 C641 1.433 . S
C640 C636 1.350 . S
C640 C637 1.463 . S
C640 N644 1.427 . S
C641 H631 0.929 . S
C641 C639 1.433 . S
C641 N644 1.384 . S
C642 H633 0.929 . S
C642 C634 1.378 . S
C642 C637 1.350 . S
C643 H630 0.929 . S
C643 C635 1.433 . S
C643 N645 1.384 . S
N644 C640 1.427 . S
N644 C641 1.384 . S
N645 C637 1.427 . S
N645 C643 1.384 . S
H646 C652 0.930 . S
H647 C656 0.930 . S
H648 C661 0.929 . S
H649 C659 0.929 . S
H650 C654 0.929 . S
H651 C660 0.929 . S
C652 H646 0.930 . S
C652 C653 1.367 . S
C652 C660 1.378 . S
C653 C652 1.367 . S
C653 C661 1.433 . S
C654 H650 0.929 . S
C654 C656 1.378 . S
C654 C658 1.350 . S
C655 C658 1.463 . S
C655 C660 1.350 . S
C655 N663 1.427 . S
C656 H647 0.930 . S
C656 C654 1.378 . S
C656 C657 1.367 . S
C657 C656 1.367 . S
C657 C659 1.433 . S
C658 C654 1.350 . S
C658 C655 1.463 . S
C658 N662 1.427 . S
C659 H649 0.929 . S
C659 C657 1.433 . S
C659 N662 1.384 . S
C660 H651 0.929 . S
C660 C652 1.378 . S
C660 C655 1.350 . S
C661 H648 0.929 . S
C661 C653 1.433 . S
C661 N663 1.384 . S
N662 C658 1.427 . S
N662 C659 1.384 . S
N663 C655 1.427 . S
N663 C661 1.384 . S
H664 C670 0.930 . S
H665 C674 0.930 . S
H666 C679 0.929 . S
H667 C677 0.929 . S
H668 C672 0.929 . S
H669 C678 0.929 . S
C670 H664 0.930 . S
C670 C671 1.367 . S
C670 C678 1.378 . S
C671 C670 1.367 . S
C671 C679 1.433 . S
C672 H668 0.929 . S
C672 C674 1.378 . S
C672 C676 1.350 . S
C673 C676 1.463 . S
C673 C678 1.350 . S
C673 N681 1.427 . S
C674 H665 0.930 . S
C674 C672 1.378 . S
C674 C675 1.367 . S
C675 C674 1.367 . S
C675 C677 1.433 . S
C676 C672 1.350 . S
C676 C673 1.463 . S
C676 N680 1.427 . S
C677 H667 0.929 . S
C677 C675 1.433 . S
C677 N680 1.384 . S
C678 H669 0.929 . S
C678 C670 1.378 . S
C678 C673 1.350 . S
C679 H666 0.929 . S
C679 C671 1.433 . S
C679 N681 1.384 . S
N680 C676 1.427 . S
N680 C677 1.384 . S
N681 C673 1.427 . S
N681 C679 1.384 . S
H682 C688 0.930 . S
H683 C692 0.930 . S
H684 C697 0.929 . S
H685 C695 0.929 . S
H686 C690 0.929 . S
H687 C696 0.929 . S
C688 H682 0.930 . S
C688 C689 1.367 . S
C688 C696 1.378 . S
C689 C688 1.367 . S
C689 C697 1.433 . S
C690 H686 0.929 . S
C690 C692 1.378 . S
C690 C694 1.350 . S
C691 C694 1.463 . S
C691 C696 1.350 . S
C691 N699 1.427 . S
C692 H683 0.930 . S
C692 C690 1.378 . S
C692 C693 1.367 . S
C693 C692 1.367 . S
C693 C695 1.433 . S
C694 C690 1.350 . S
C694 C691 1.463 . S
C694 N698 1.427 . S
C695 H685 0.929 . S
C695 C693 1.433 . S
C695 N698 1.384 . S
C696 H687 0.929 . S
C696 C688 1.378 . S
C696 C691 1.350 . S
C697 H684 0.929 . S
C697 C689 1.433 . S
C697 N699 1.384 . S
N698 C694 1.427 . S
N698 C695 1.384 . S
N699 C691 1.427 . S
N699 C697 1.384 . S
H700 C706 0.930 . S
H701 C710 0.930 . S
H702 C715 0.929 . S
H703 C713 0.929 . S
H704 C708 0.929 . S
H705 C714 0.929 . S
C706 H700 0.930 . S
C706 C707 1.367 . S
C706 C714 1.378 . S
C707 C706 1.367 . S
C707 C715 1.433 . S
C708 H704 0.929 . S
C708 C710 1.378 . S
C708 C712 1.350 . S
C709 C712 1.463 . S
C709 C714 1.350 . S
C709 N717 1.427 . S
C710 H701 0.930 . S
C710 C708 1.378 . S
C710 C711 1.367 . S
C711 C710 1.367 . S
C711 C713 1.433 . S
C712 C708 1.350 . S
C712 C709 1.463 . S
C712 N716 1.427 . S
C713 H703 0.929 . S
C713 C711 1.433 . S
C713 N716 1.384 . S
C714 H705 0.929 . S
C714 C706 1.378 . S
C714 C709 1.350 . S
C715 H702 0.929 . S
C715 C707 1.433 . S
C715 N717 1.384 . S
N716 C712 1.427 . S
N716 C713 1.384 . S
N717 C709 1.427 . S
N717 C715 1.384 . S
H718 C724 0.930 . S
H719 C728 0.930 . S
H720 C733 0.929 . S
H721 C731 0.929 . S
H722 C726 0.929 . S
H723 C732 0.929 . S
C724 H718 0.930 . S
C724 C725 1.367 . S
C724 C732 1.378 . S
C725 C724 1.367 . S
C725 C733 1.433 . S
C726 H722 0.929 . S
C726 C728 1.378 . S
C726 C730 1.350 . S
C727 C730 1.463 . S
C727 C732 1.350 . S
C727 N735 1.427 . S
C728 H719 0.930 . S
C728 C726 1.378 . S
C728 C729 1.367 . S
C729 C728 1.367 . S
C729 C731 1.433 . S
C730 C726 1.350 . S
C730 C727 1.463 . S
C730 N734 1.427 . S
C731 H721 0.929 . S
C731 C729 1.433 . S
C731 N734 1.384 . S
C732 H723 0.929 . S
C732 C724 1.378 . S
C732 C727 1.350 . S
C733 H720 0.929 . S
C733 C725 1.433 . S
C733 N735 1.384 . S
N734 C730 1.427 . S
N734 C731 1.384 . S
N735 C727 1.427 . S
N735 C733 1.384 . S
H736 C742 0.930 . S
H737 C746 0.930 . S
H738 C751 0.929 . S
H739 C749 0.929 . S
H740 C744 0.929 . S
H741 C750 0.929 . S
C742 H736 0.930 . S
C742 C743 1.367 . S
C742 C750 1.378 . S
C743 C742 1.367 . S
C743 C751 1.433 . S
C744 H740 0.929 . S
C744 C746 1.378 . S
C744 C748 1.350 . S
C745 C748 1.463 1_554 S
C745 C750 1.350 . S
C745 N753 1.427 . S
C746 H737 0.930 . S
C746 C744 1.378 . S
C746 C747 1.367 . S
C747 C746 1.367 . S
C747 C749 1.433 . S
C748 C744 1.350 . S
C748 C745 1.463 1_556 S
C748 N752 1.427 . S
C749 H739 0.929 . S
C749 C747 1.433 . S
C749 N752 1.384 . S
C750 H741 0.929 . S
C750 C742 1.378 . S
C750 C745 1.350 . S
C751 H738 0.929 . S
C751 C743 1.433 . S
C751 N753 1.384 . S
N752 C748 1.427 . S
N752 C749 1.384 . S
N753 C745 1.427 . S
N753 C751 1.384 . S
H754 C760 0.930 . S
H755 C764 0.930 . S
H756 C769 0.929 . S
H757 C767 0.929 . S
H758 C762 0.929 . S
H759 C768 0.929 . S
C760 H754 0.930 . S
C760 C761 1.367 . S
C760 C768 1.378 . S
C761 C760 1.367 . S
C761 C769 1.433 . S
C762 H758 0.929 . S
C762 C764 1.378 . S
C762 C766 1.350 . S
C763 C766 1.463 1_556 S
C763 C768 1.350 . S
C763 N771 1.427 . S
C764 H755 0.930 . S
C764 C762 1.378 . S
C764 C765 1.367 . S
C765 C764 1.367 . S
C765 C767 1.433 . S
C766 C762 1.350 . S
C766 C763 1.463 1_554 S
C766 N770 1.427 . S
C767 H757 0.929 . S
C767 C765 1.433 . S
C767 N770 1.384 . S
C768 H759 0.929 . S
C768 C760 1.378 . S
C768 C763 1.350 . S
C769 H756 0.929 . S
C769 C761 1.433 . S
C769 N771 1.384 . S
N770 C766 1.427 . S
N770 C767 1.384 . S
N771 C763 1.427 . S
N771 C769 1.384 . S
H772 C778 0.930 . S
H773 C782 0.930 . S
H774 C787 0.929 . S
H775 C785 0.929 . S
H776 C780 0.929 . S
H777 C786 0.929 . S
C778 H772 0.930 . S
C778 C779 1.367 . S
C778 C786 1.378 . S
C779 C778 1.367 . S
C779 C787 1.433 . S
C780 H776 0.929 . S
C780 C782 1.378 . S
C780 C784 1.350 . S
C781 C784 1.463 1_556 S
C781 C786 1.350 . S
C781 N789 1.427 . S
C782 H773 0.930 . S
C782 C780 1.378 . S
C782 C783 1.367 . S
C783 C782 1.367 . S
C783 C785 1.433 . S
C784 C780 1.350 . S
C784 C781 1.463 1_554 S
C784 N788 1.427 . S
C785 H775 0.929 . S
C785 C783 1.433 . S
C785 N788 1.384 . S
C786 H777 0.929 . S
C786 C778 1.378 . S
C786 C781 1.350 . S
C787 H774 0.929 . S
C787 C779 1.433 . S
C787 N789 1.384 . S
N788 C784 1.427 . S
N788 C785 1.384 . S
N789 C781 1.427 . S
N789 C787 1.384 . S
H790 C796 0.930 . S
H791 C800 0.930 . S
H792 C805 0.929 . S
H793 C803 0.929 . S
H794 C798 0.929 . S
H795 C804 0.929 . S
C796 H790 0.930 . S
C796 C797 1.367 . S
C796 C804 1.378 . S
C797 C796 1.367 . S
C797 C805 1.433 . S
C798 H794 0.929 . S
C798 C800 1.378 . S
C798 C802 1.350 . S
C799 C802 1.463 1_556 S
C799 C804 1.350 . S
C799 N807 1.427 . S
C800 H791 0.930 . S
C800 C798 1.378 . S
C800 C801 1.367 . S
C801 C800 1.367 . S
C801 C803 1.433 . S
C802 C798 1.350 . S
C802 C799 1.463 1_554 S
C802 N806 1.427 . S
C803 H793 0.929 . S
C803 C801 1.433 . S
C803 N806 1.384 . S
C804 H795 0.929 . S
C804 C796 1.378 . S
C804 C799 1.350 . S
C805 H792 0.929 . S
C805 C797 1.433 . S
C805 N807 1.384 . S
N806 C802 1.427 . S
N806 C803 1.384 . S
N807 C799 1.427 . S
N807 C805 1.384 . S
H808 C814 0.930 . S
H809 C818 0.930 . S
H810 C823 0.929 . S
H811 C821 0.929 . S
H812 C816 0.929 . S
H813 C822 0.929 . S
C814 H808 0.930 . S
C814 C815 1.367 . S
C814 C822 1.378 . S
C815 C814 1.367 . S
C815 C823 1.433 . S
C816 H812 0.929 . S
C816 C818 1.378 . S
C816 C820 1.350 . S
C817 C820 1.463 . S
C817 C822 1.350 . S
C817 N825 1.427 . S
C818 H809 0.930 . S
C818 C816 1.378 . S
C818 C819 1.367 . S
C819 C818 1.367 . S
C819 C821 1.433 . S
C820 C816 1.350 . S
C820 C817 1.463 . S
C820 N824 1.427 . S
C821 H811 0.929 . S
C821 C819 1.433 . S
C821 N824 1.384 . S
C822 H813 0.929 . S
C822 C814 1.378 . S
C822 C817 1.350 . S
C823 H810 0.929 . S
C823 C815 1.433 . S
C823 N825 1.384 . S
N824 C820 1.427 . S
N824 C821 1.384 . S
N825 C817 1.427 . S
N825 C823 1.384 . S
H826 C832 0.930 . S
H827 C836 0.930 . S
H828 C841 0.929 . S
H829 C839 0.929 . S
H830 C834 0.929 . S
H831 C840 0.929 . S
C832 H826 0.930 . S
C832 C833 1.367 . S
C832 C840 1.378 . S
C833 C832 1.367 . S
C833 C841 1.433 . S
C834 H830 0.929 . S
C834 C836 1.378 . S
C834 C838 1.350 . S
C835 C838 1.463 . S
C835 C840 1.350 . S
C835 N843 1.427 . S
C836 H827 0.930 . S
C836 C834 1.378 . S
C836 C837 1.367 . S
C837 C836 1.367 . S
C837 C839 1.433 . S
C838 C834 1.350 . S
C838 C835 1.463 . S
C838 N842 1.427 . S
C839 H829 0.929 . S
C839 C837 1.433 . S
C839 N842 1.384 . S
C840 H831 0.929 . S
C840 C832 1.378 . S
C840 C835 1.350 . S
C841 H828 0.929 . S
C841 C833 1.433 . S
C841 N843 1.384 . S
N842 C838 1.427 . S
N842 C839 1.384 . S
N843 C835 1.427 . S
N843 C841 1.384 . S
H844 C850 0.930 . S
H845 C854 0.930 . S
H846 C859 0.929 . S
H847 C857 0.929 . S
H848 C852 0.929 . S
H849 C858 0.929 . S
C850 H844 0.930 . S
C850 C851 1.367 . S
C850 C858 1.378 . S
C851 C850 1.367 . S
C851 C859 1.433 . S
C852 H848 0.929 . S
C852 C854 1.378 . S
C852 C856 1.350 . S
C853 C856 1.463 . S
C853 C858 1.350 . S
C853 N861 1.427 . S
C854 H845 0.930 . S
C854 C852 1.378 . S
C854 C855 1.367 . S
C855 C854 1.367 . S
C855 C857 1.433 . S
C856 C852 1.350 . S
C856 C853 1.463 . S
C856 N860 1.427 . S
C857 H847 0.929 . S
C857 C855 1.433 . S
C857 N860 1.384 . S
C858 H849 0.929 . S
C858 C850 1.378 . S
C858 C853 1.350 . S
C859 H846 0.929 . S
C859 C851 1.433 . S
C859 N861 1.384 . S
N860 C856 1.427 . S
N860 C857 1.384 . S
N861 C853 1.427 . S
N861 C859 1.384 . S
H862 C868 0.930 . S
H863 C872 0.930 . S
H864 C877 0.929 . S
H865 C875 0.929 . S
H866 C870 0.929 . S
H867 C876 0.929 . S
C868 H862 0.930 . S
C868 C869 1.367 . S
C868 C876 1.378 . S
C869 C868 1.367 . S
C869 C877 1.433 . S
C870 H866 0.929 . S
C870 C872 1.378 . S
C870 C874 1.350 . S
C871 C874 1.463 . S
C871 C876 1.350 . S
C871 N879 1.427 . S
C872 H863 0.930 . S
C872 C870 1.378 . S
C872 C873 1.367 . S
C873 C872 1.367 . S
C873 C875 1.433 . S
C874 C870 1.350 . S
C874 C871 1.463 . S
C874 N878 1.427 . S
C875 H865 0.929 . S
C875 C873 1.433 . S
C875 N878 1.384 . S
C876 H867 0.929 . S
C876 C868 1.378 . S
C876 C871 1.350 . S
C877 H864 0.929 . S
C877 C869 1.433 . S
C877 N879 1.384 . S
N878 C874 1.427 . S
N878 C875 1.384 . S
N879 C871 1.427 . S
N879 C877 1.384 . S
H880 C886 0.930 . S
H881 C890 0.930 . S
H882 C895 0.929 . S
H883 C893 0.929 . S
H884 C888 0.929 . S
H885 C894 0.929 . S
C886 H880 0.930 . S
C886 C887 1.367 . S
C886 C894 1.378 . S
C887 C886 1.367 . S
C887 C895 1.433 . S
C888 H884 0.929 . S
C888 C890 1.378 . S
C888 C892 1.350 . S
C889 C892 1.463 . S
C889 C894 1.350 . S
C889 N897 1.427 . S
C890 H881 0.930 . S
C890 C888 1.378 . S
C890 C891 1.367 . S
C891 C890 1.367 . S
C891 C893 1.433 . S
C892 C888 1.350 . S
C892 C889 1.463 . S
C892 N896 1.427 . S
C893 H883 0.929 . S
C893 C891 1.433 . S
C893 N896 1.384 . S
C894 H885 0.929 . S
C894 C886 1.378 . S
C894 C889 1.350 . S
C895 H882 0.929 . S
C895 C887 1.433 . S
C895 N897 1.384 . S
N896 C892 1.427 . S
N896 C893 1.384 . S
N897 C889 1.427 . S
N897 C895 1.384 . S
H898 C904 0.930 . S
H899 C908 0.930 . S
H900 C913 0.929 . S
H901 C911 0.929 . S
H902 C906 0.929 . S
H903 C912 0.929 . S
C904 H898 0.930 . S
C904 C905 1.367 . S
C904 C912 1.378 . S
C905 C904 1.367 . S
C905 C913 1.433 . S
C906 H902 0.929 . S
C906 C908 1.378 . S
C906 C910 1.350 . S
C907 C910 1.463 . S
C907 C912 1.350 . S
C907 N915 1.427 . S
C908 H899 0.930 . S
C908 C906 1.378 . S
C908 C909 1.367 . S
C909 C908 1.367 . S
C909 C911 1.433 . S
C910 C906 1.350 . S
C910 C907 1.463 . S
C910 N914 1.427 . S
C911 H901 0.929 . S
C911 C909 1.433 . S
C911 N914 1.384 . S
C912 H903 0.929 . S
C912 C904 1.378 . S
C912 C907 1.350 . S
C913 H900 0.929 . S
C913 C905 1.433 . S
C913 N915 1.384 . S
N914 C910 1.427 . S
N914 C911 1.384 . S
N915 C907 1.427 . S
N915 C913 1.384 . S
H916 C922 0.930 . S
H917 C926 0.930 . S
H918 C931 0.929 . S
H919 C929 0.929 . S
H920 C924 0.929 . S
H921 C930 0.929 . S
C922 H916 0.930 . S
C922 C923 1.367 . S
C922 C930 1.378 . S
C923 C922 1.367 . S
C923 C931 1.433 . S
C924 H920 0.929 . S
C924 C926 1.378 . S
C924 C928 1.350 . S
C925 C928 1.463 . S
C925 C930 1.350 . S
C925 N933 1.427 . S
C926 H917 0.930 . S
C926 C924 1.378 . S
C926 C927 1.367 . S
C927 C926 1.367 . S
C927 C929 1.433 . S
C928 C924 1.350 . S
C928 C925 1.463 . S
C928 N932 1.427 . S
C929 H919 0.929 . S
C929 C927 1.433 . S
C929 N932 1.384 . S
C930 H921 0.929 . S
C930 C922 1.378 . S
C930 C925 1.350 . S
C931 H918 0.929 . S
C931 C923 1.433 . S
C931 N933 1.384 . S
N932 C928 1.427 . S
N932 C929 1.384 . S
N933 C925 1.427 . S
N933 C931 1.384 . S
H934 C940 0.930 . S
H935 C944 0.930 . S
H936 C949 0.929 . S
H937 C947 0.929 . S
H938 C942 0.929 . S
H939 C948 0.929 . S
C940 H934 0.930 . S
C940 C941 1.367 . S
C940 C948 1.378 . S
C941 C940 1.367 . S
C941 C949 1.433 . S
C942 H938 0.929 . S
C942 C944 1.378 . S
C942 C946 1.350 . S
C943 C946 1.463 . S
C943 C948 1.350 . S
C943 N951 1.427 . S
C944 H935 0.930 . S
C944 C942 1.378 . S
C944 C945 1.367 . S
C945 C944 1.367 . S
C945 C947 1.433 . S
C946 C942 1.350 . S
C946 C943 1.463 . S
C946 N950 1.427 . S
C947 H937 0.929 . S
C947 C945 1.433 . S
C947 N950 1.384 . S
C948 H939 0.929 . S
C948 C940 1.378 . S
C948 C943 1.350 . S
C949 H936 0.929 . S
C949 C941 1.433 . S
C949 N951 1.384 . S
N950 C946 1.427 . S
N950 C947 1.384 . S
N951 C943 1.427 . S
N951 C949 1.384 . S
H952 C958 0.930 . S
H953 C962 0.930 . S
H954 C967 0.929 . S
H955 C965 0.929 . S
H956 C960 0.929 . S
H957 C966 0.929 . S
C958 H952 0.930 . S
C958 C959 1.367 . S
C958 C966 1.378 . S
C959 C958 1.367 . S
C959 C967 1.433 . S
C960 H956 0.929 . S
C960 C962 1.378 . S
C960 C964 1.350 . S
C961 C964 1.463 1_556 S
C961 C966 1.350 . S
C961 N969 1.427 . S
C962 H953 0.930 . S
C962 C960 1.378 . S
C962 C963 1.367 . S
C963 C962 1.367 . S
C963 C965 1.433 . S
C964 C960 1.350 . S
C964 C961 1.463 1_554 S
C964 N968 1.427 . S
C965 H955 0.929 . S
C965 C963 1.433 . S
C965 N968 1.384 . S
C966 H957 0.929 . S
C966 C958 1.378 . S
C966 C961 1.350 . S
C967 H954 0.929 . S
C967 C959 1.433 . S
C967 N969 1.384 . S
N968 C964 1.427 . S
N968 C965 1.384 . S
N969 C961 1.427 . S
N969 C967 1.384 . S
H970 C976 0.930 . S
H971 C980 0.930 . S
H972 C985 0.929 . S
H973 C983 0.929 . S
H974 C978 0.929 . S
H975 C984 0.929 . S
C976 H970 0.930 . S
C976 C977 1.367 . S
C976 C984 1.378 . S
C977 C976 1.367 . S
C977 C985 1.433 . S
C978 H974 0.929 . S
C978 C980 1.378 . S
C978 C982 1.350 . S
C979 C982 1.463 1_554 S
C979 C984 1.350 . S
C979 N987 1.427 . S
C980 H971 0.930 . S
C980 C978 1.378 . S
C980 C981 1.367 . S
C981 C980 1.367 . S
C981 C983 1.433 . S
C982 C978 1.350 . S
C982 C979 1.463 1_556 S
C982 N986 1.427 . S
C983 H973 0.929 . S
C983 C981 1.433 . S
C983 N986 1.384 . S
C984 H975 0.929 . S
C984 C976 1.378 . S
C984 C979 1.350 . S
C985 H972 0.929 . S
C985 C977 1.433 . S
C985 N987 1.384 . S
N986 C982 1.427 . S
N986 C983 1.384 . S
N987 C979 1.427 . S
N987 C985 1.384 . S
H988 C994 0.930 . S
H989 C998 0.930 . S
H990 C1003 0.929 . S
H991 C1001 0.929 . S
H992 C996 0.929 . S
H993 C1002 0.929 . S
C994 H988 0.930 . S
C994 C995 1.367 . S
C994 C1002 1.378 . S
C995 C994 1.367 . S
C995 C1003 1.433 . S
C996 H992 0.929 . S
C996 C998 1.378 . S
C996 C1000 1.350 . S
C997 C1000 1.463 1_554 S
C997 C1002 1.350 . S
C997 N1005 1.427 . S
C998 H989 0.930 . S
C998 C996 1.378 . S
C998 C999 1.367 . S
C999 C998 1.367 . S
C999 C1001 1.433 . S
C1000 C996 1.350 . S
C1000 C997 1.463 1_556 S
C1000 N1004 1.427 . S
C1001 H991 0.929 . S
C1001 C999 1.433 . S
C1001 N1004 1.384 . S
C1002 H993 0.929 . S
C1002 C994 1.378 . S
C1002 C997 1.350 . S
C1003 H990 0.929 . S
C1003 C995 1.433 . S
C1003 N1005 1.384 . S
N1004 C1000 1.427 . S
N1004 C1001 1.384 . S
N1005 C997 1.427 . S
N1005 C1003 1.384 . S
H1006 C1012 0.930 . S
H1007 C1016 0.930 . S
H1008 C1021 0.929 . S
H1009 C1019 0.929 . S
H1010 C1014 0.929 . S
H1011 C1020 0.929 . S
C1012 H1006 0.930 . S
C1012 C1013 1.367 . S
C1012 C1020 1.378 . S
C1013 C1012 1.367 . S
C1013 C1021 1.433 . S
C1014 H1010 0.929 . S
C1014 C1016 1.378 . S
C1014 C1018 1.350 . S
C1015 C1018 1.463 1_556 S
C1015 C1020 1.350 . S
C1015 N1023 1.427 . S
C1016 H1007 0.930 . S
C1016 C1014 1.378 . S
C1016 C1017 1.367 . S
C1017 C1016 1.367 . S
C1017 C1019 1.433 . S
C1018 C1014 1.350 . S
C1018 C1015 1.463 1_554 S
C1018 N1022 1.427 . S
C1019 H1009 0.929 . S
C1019 C1017 1.433 . S
C1019 N1022 1.384 . S
C1020 H1011 0.929 . S
C1020 C1012 1.378 . S
C1020 C1015 1.350 . S
C1021 H1008 0.929 . S
C1021 C1013 1.433 . S
C1021 N1023 1.384 . S
N1022 C1018 1.427 . S
N1022 C1019 1.384 . S
N1023 C1015 1.427 . S
N1023 C1021 1.384 . S
H1024 C1030 0.930 . S
H1025 C1034 0.930 . S
H1026 C1039 0.929 . S
H1027 C1037 0.929 . S
H1028 C1032 0.929 . S
H1029 C1038 0.929 . S
C1030 H1024 0.930 . S
C1030 C1031 1.367 . S
C1030 C1038 1.378 . S
C1031 C1030 1.367 . S
C1031 C1039 1.433 . S
C1032 H1028 0.929 . S
C1032 C1034 1.378 . S
C1032 C1036 1.350 . S
C1033 C1036 1.463 1_545 S
C1033 C1038 1.350 . S
C1033 N1041 1.427 . S
C1034 H1025 0.930 . S
C1034 C1032 1.378 . S
C1034 C1035 1.367 . S
C1035 C1034 1.367 . S
C1035 C1037 1.433 . S
C1036 C1032 1.350 . S
C1036 C1033 1.463 1_565 S
C1036 N1040 1.427 . S
C1037 H1027 0.929 . S
C1037 C1035 1.433 . S
C1037 N1040 1.384 . S
C1038 H1029 0.929 . S
C1038 C1030 1.378 . S
C1038 C1033 1.350 . S
C1039 H1026 0.929 . S
C1039 C1031 1.433 . S
C1039 N1041 1.384 . S
N1040 C1036 1.427 . S
N1040 C1037 1.384 . S
N1041 C1033 1.427 . S
N1041 C1039 1.384 . S
H1042 C1048 0.930 . S
H1043 C1052 0.930 . S
H1044 C1057 0.929 . S
H1045 C1055 0.929 . S
H1046 C1050 0.929 . S
H1047 C1056 0.929 . S
C1048 H1042 0.930 . S
C1048 C1049 1.367 . S
C1048 C1056 1.378 . S
C1049 C1048 1.367 . S
C1049 C1057 1.433 . S
C1050 H1046 0.929 . S
C1050 C1052 1.378 . S
C1050 C1054 1.350 . S
C1051 C1054 1.463 1_655 S
C1051 C1056 1.350 . S
C1051 N1059 1.427 . S
C1052 H1043 0.930 . S
C1052 C1050 1.378 . S
C1052 C1053 1.367 . S
C1053 C1052 1.367 . S
C1053 C1055 1.433 . S
C1054 C1050 1.350 . S
C1054 C1051 1.463 1_455 S
C1054 N1058 1.427 . S
C1055 H1045 0.929 . S
C1055 C1053 1.433 . S
C1055 N1058 1.384 . S
C1056 H1047 0.929 . S
C1056 C1048 1.378 . S
C1056 C1051 1.350 . S
C1057 H1044 0.929 . S
C1057 C1049 1.433 . S
C1057 N1059 1.384 . S
N1058 C1054 1.427 . S
N1058 C1055 1.384 . S
N1059 C1051 1.427 . S
N1059 C1057 1.384 . S
H1060 C1066 0.930 . S
H1061 C1070 0.930 . S
H1062 C1075 0.929 . S
H1063 C1073 0.929 . S
H1064 C1068 0.929 . S
H1065 C1074 0.929 . S
C1066 H1060 0.930 . S
C1066 C1067 1.367 . S
C1066 C1074 1.378 . S
C1067 C1066 1.367 . S
C1067 C1075 1.433 . S
C1068 H1064 0.929 . S
C1068 C1070 1.378 . S
C1068 C1072 1.350 . S
C1069 C1072 1.463 1_545 S
C1069 C1074 1.350 . S
C1069 N1077 1.427 . S
C1070 H1061 0.930 . S
C1070 C1068 1.378 . S
C1070 C1071 1.367 . S
C1071 C1070 1.367 . S
C1071 C1073 1.433 . S
C1072 C1068 1.350 . S
C1072 C1069 1.463 1_565 S
C1072 N1076 1.427 . S
C1073 H1063 0.929 . S
C1073 C1071 1.433 . S
C1073 N1076 1.384 . S
C1074 H1065 0.929 . S
C1074 C1066 1.378 . S
C1074 C1069 1.350 . S
C1075 H1062 0.929 . S
C1075 C1067 1.433 . S
C1075 N1077 1.384 . S
N1076 C1072 1.427 . S
N1076 C1073 1.384 . S
N1077 C1069 1.427 . S
N1077 C1075 1.384 . S
H1078 C1084 0.930 . S
H1079 C1088 0.930 . S
H1080 C1093 0.929 . S
H1081 C1091 0.929 . S
H1082 C1086 0.929 . S
H1083 C1092 0.929 . S
C1084 H1078 0.930 . S
C1084 C1085 1.367 . S
C1084 C1092 1.378 . S
C1085 C1084 1.367 . S
C1085 C1093 1.433 . S
C1086 H1082 0.929 . S
C1086 C1088 1.378 . S
C1086 C1090 1.350 . S
C1087 C1090 1.463 1_455 S
C1087 C1092 1.350 . S
C1087 N1095 1.427 . S
C1088 H1079 0.930 . S
C1088 C1086 1.378 . S
C1088 C1089 1.367 . S
C1089 C1088 1.367 . S
C1089 C1091 1.433 . S
C1090 C1086 1.350 . S
C1090 C1087 1.463 1_655 S
C1090 N1094 1.427 . S
C1091 H1081 0.929 . S
C1091 C1089 1.433 . S
C1091 N1094 1.384 . S
C1092 H1083 0.929 . S
C1092 C1084 1.378 . S
C1092 C1087 1.350 . S
C1093 H1080 0.929 . S
C1093 C1085 1.433 . S
C1093 N1095 1.384 . S
N1094 C1090 1.427 . S
N1094 C1091 1.384 . S
N1095 C1087 1.427 . S
N1095 C1093 1.384 . S
H1096 C1102 0.930 . S
H1097 C1106 0.930 . S
H1098 C1111 0.929 . S
H1099 C1109 0.929 . S
H1100 C1104 0.929 . S
H1101 C1110 0.929 . S
C1102 H1096 0.930 . S
C1102 C1103 1.367 . S
C1102 C1110 1.378 . S
C1103 C1102 1.367 . S
C1103 C1111 1.433 . S
C1104 H1100 0.929 . S
C1104 C1106 1.378 . S
C1104 C1108 1.350 . S
C1105 C1108 1.463 1_565 S
C1105 C1110 1.350 . S
C1105 N1113 1.427 . S
C1106 H1097 0.930 . S
C1106 C1104 1.378 . S
C1106 C1107 1.367 . S
C1107 C1106 1.367 . S
C1107 C1109 1.433 . S
C1108 C1104 1.350 . S
C1108 C1105 1.463 1_545 S
C1108 N1112 1.427 . S
C1109 H1099 0.929 . S
C1109 C1107 1.433 . S
C1109 N1112 1.384 . S
C1110 H1101 0.929 . S
C1110 C1102 1.378 . S
C1110 C1105 1.350 . S
C1111 H1098 0.929 . S
C1111 C1103 1.433 . S
C1111 N1113 1.384 . S
N1112 C1108 1.427 . S
N1112 C1109 1.384 . S
N1113 C1105 1.427 . S
N1113 C1111 1.384 . S
H1114 C1120 0.930 . S
H1115 C1124 0.930 . S
H1116 C1129 0.929 . S
H1117 C1127 0.929 . S
H1118 C1122 0.929 . S
H1119 C1128 0.929 . S
C1120 H1114 0.930 . S
C1120 C1121 1.367 . S
C1120 C1128 1.378 . S
C1121 C1120 1.367 . S
C1121 C1129 1.433 . S
C1122 H1118 0.929 . S
C1122 C1124 1.378 . S
C1122 C1126 1.350 . S
C1123 C1126 1.463 1_655 S
C1123 C1128 1.350 . S
C1123 N1131 1.427 . S
C1124 H1115 0.930 . S
C1124 C1122 1.378 . S
C1124 C1125 1.367 . S
C1125 C1124 1.367 . S
C1125 C1127 1.433 . S
C1126 C1122 1.350 . S
C1126 C1123 1.463 1_455 S
C1126 N1130 1.427 . S
C1127 H1117 0.929 . S
C1127 C1125 1.433 . S
C1127 N1130 1.384 . S
C1128 H1119 0.929 . S
C1128 C1120 1.378 . S
C1128 C1123 1.350 . S
C1129 H1116 0.929 . S
C1129 C1121 1.433 . S
C1129 N1131 1.384 . S
N1130 C1126 1.427 . S
N1130 C1127 1.384 . S
N1131 C1123 1.427 . S
N1131 C1129 1.384 . S
H1132 C1138 0.930 . S
H1133 C1142 0.930 . S
H1134 C1147 0.929 . S
H1135 C1145 0.929 . S
H1136 C1140 0.929 1_565 S
H1137 C1146 0.929 1_545 S
C1138 H1132 0.930 . S
C1138 C1139 1.367 . S
C1138 C1146 1.378 . S
C1139 C1138 1.367 . S
C1139 C1147 1.433 . S
C1140 H1136 0.929 1_545 S
C1140 C1142 1.378 . S
C1140 C1144 1.350 . S
C1141 C1144 1.463 1_565 S
C1141 C1146 1.350 . S
C1141 N1149 1.427 . S
C1142 H1133 0.930 . S
C1142 C1140 1.378 . S
C1142 C1143 1.367 . S
C1143 C1142 1.367 . S
C1143 C1145 1.433 . S
C1144 C1140 1.350 . S
C1144 C1141 1.463 1_545 S
C1144 N1148 1.427 . S
C1145 H1135 0.929 . S
C1145 C1143 1.433 . S
C1145 N1148 1.384 . S
C1146 H1137 0.929 1_565 S
C1146 C1138 1.378 . S
C1146 C1141 1.350 . S
C1147 H1134 0.929 . S
C1147 C1139 1.433 . S
C1147 N1149 1.384 . S
N1148 C1144 1.427 . S
N1148 C1145 1.384 . S
N1149 C1141 1.427 . S
N1149 C1147 1.384 . S
H1150 C1156 0.930 . S
H1151 C1160 0.930 . S
H1152 C1165 0.929 . S
H1153 C1163 0.929 . S
H1154 C1158 0.929 . S
H1155 C1164 0.929 . S
C1156 H1150 0.930 . S
C1156 C1157 1.367 . S
C1156 C1164 1.378 . S
C1157 C1156 1.367 . S
C1157 C1165 1.433 . S
C1158 H1154 0.929 . S
C1158 C1160 1.378 . S
C1158 C1162 1.350 . S
C1159 C1162 1.463 1_655 S
C1159 C1164 1.350 . S
C1159 N1167 1.427 . S
C1160 H1151 0.930 . S
C1160 C1158 1.378 . S
C1160 C1161 1.367 . S
C1161 C1160 1.367 . S
C1161 C1163 1.433 . S
C1162 C1158 1.350 . S
C1162 C1159 1.463 1_455 S
C1162 N1166 1.427 . S
C1163 H1153 0.929 . S
C1163 C1161 1.433 . S
C1163 N1166 1.384 . S
C1164 H1155 0.929 . S
C1164 C1156 1.378 . S
C1164 C1159 1.350 . S
C1165 H1152 0.929 . S
C1165 C1157 1.433 . S
C1165 N1167 1.384 . S
N1166 C1162 1.427 . S
N1166 C1163 1.384 . S
N1167 C1159 1.427 . S
N1167 C1165 1.384 . S
H1168 C1174 0.930 . S
H1169 C1178 0.930 . S
H1170 C1183 0.929 . S
H1171 C1181 0.929 . S
H1172 C1176 0.929 . S
H1173 C1182 0.929 . S
C1174 H1168 0.930 . S
C1174 C1175 1.367 . S
C1174 C1182 1.378 . S
C1175 C1174 1.367 . S
C1175 C1183 1.433 . S
C1176 H1172 0.929 . S
C1176 C1178 1.378 . S
C1176 C1180 1.350 . S
C1177 C1180 1.463 . S
C1177 C1182 1.350 . S
C1177 N1185 1.427 . S
C1178 H1169 0.930 . S
C1178 C1176 1.378 . S
C1178 C1179 1.367 . S
C1179 C1178 1.367 . S
C1179 C1181 1.433 . S
C1180 C1176 1.350 . S
C1180 C1177 1.463 . S
C1180 N1184 1.427 . S
C1181 H1171 0.929 . S
C1181 C1179 1.433 . S
C1181 N1184 1.384 . S
C1182 H1173 0.929 . S
C1182 C1174 1.378 . S
C1182 C1177 1.350 . S
C1183 H1170 0.929 . S
C1183 C1175 1.433 . S
C1183 N1185 1.384 . S
N1184 C1180 1.427 . S
N1184 C1181 1.384 . S
N1185 C1177 1.427 . S
N1185 C1183 1.384 . S
H1186 C1192 0.930 . S
H1187 C1196 0.930 . S
H1188 C1201 0.929 . S
H1189 C1199 0.929 . S
H1190 C1194 0.929 . S
H1191 C1200 0.929 . S
C1192 H1186 0.930 . S
C1192 C1193 1.367 . S
C1192 C1200 1.378 . S
C1193 C1192 1.367 . S
C1193 C1201 1.433 . S
C1194 H1190 0.929 . S
C1194 C1196 1.378 . S
C1194 C1198 1.350 . S
C1195 C1198 1.463 . S
C1195 C1200 1.350 . S
C1195 N1203 1.427 . S
C1196 H1187 0.930 . S
C1196 C1194 1.378 . S
C1196 C1197 1.367 . S
C1197 C1196 1.367 . S
C1197 C1199 1.433 . S
C1198 C1194 1.350 . S
C1198 C1195 1.463 . S
C1198 N1202 1.427 . S
C1199 H1189 0.929 . S
C1199 C1197 1.433 . S
C1199 N1202 1.384 . S
C1200 H1191 0.929 . S
C1200 C1192 1.378 . S
C1200 C1195 1.350 . S
C1201 H1188 0.929 . S
C1201 C1193 1.433 . S
C1201 N1203 1.384 . S
N1202 C1198 1.427 . S
N1202 C1199 1.384 . S
N1203 C1195 1.427 . S
N1203 C1201 1.384 . S
H1204 C1210 0.930 . S
H1205 C1214 0.930 . S
H1206 C1219 0.929 . S
H1207 C1217 0.929 . S
H1208 C1212 0.929 . S
H1209 C1218 0.929 . S
C1210 H1204 0.930 . S
C1210 C1211 1.367 . S
C1210 C1218 1.378 . S
C1211 C1210 1.367 . S
C1211 C1219 1.433 . S
C1212 H1208 0.929 . S
C1212 C1214 1.378 . S
C1212 C1216 1.350 . S
C1213 C1216 1.463 . S
C1213 C1218 1.350 . S
C1213 N1221 1.427 . S
C1214 H1205 0.930 . S
C1214 C1212 1.378 . S
C1214 C1215 1.367 . S
C1215 C1214 1.367 . S
C1215 C1217 1.433 . S
C1216 C1212 1.350 . S
C1216 C1213 1.463 . S
C1216 N1220 1.427 . S
C1217 H1207 0.929 . S
C1217 C1215 1.433 . S
C1217 N1220 1.384 . S
C1218 H1209 0.929 . S
C1218 C1210 1.378 . S
C1218 C1213 1.350 . S
C1219 H1206 0.929 . S
C1219 C1211 1.433 . S
C1219 N1221 1.384 . S
N1220 C1216 1.427 . S
N1220 C1217 1.384 . S
N1221 C1213 1.427 . S
N1221 C1219 1.384 . S
H1222 C1228 0.930 . S
H1223 C1232 0.930 . S
H1224 C1237 0.929 . S
H1225 C1235 0.929 . S
H1226 C1230 0.929 . S
H1227 C1236 0.929 . S
C1228 H1222 0.930 . S
C1228 C1229 1.367 . S
C1228 C1236 1.378 . S
C1229 C1228 1.367 . S
C1229 C1237 1.433 . S
C1230 H1226 0.929 . S
C1230 C1232 1.378 . S
C1230 C1234 1.350 . S
C1231 C1234 1.463 . S
C1231 C1236 1.350 . S
C1231 N1239 1.427 . S
C1232 H1223 0.930 . S
C1232 C1230 1.378 . S
C1232 C1233 1.367 . S
C1233 C1232 1.367 . S
C1233 C1235 1.433 . S
C1234 C1230 1.350 . S
C1234 C1231 1.463 . S
C1234 N1238 1.427 . S
C1235 H1225 0.929 . S
C1235 C1233 1.433 . S
C1235 N1238 1.384 . S
C1236 H1227 0.929 . S
C1236 C1228 1.378 . S
C1236 C1231 1.350 . S
C1237 H1224 0.929 . S
C1237 C1229 1.433 . S
C1237 N1239 1.384 . S
N1238 C1234 1.427 . S
N1238 C1235 1.384 . S
N1239 C1231 1.427 . S
N1239 C1237 1.384 . S
H1240 C1246 0.930 . S
H1241 C1250 0.930 . S
H1242 C1255 0.929 . S
H1243 C1253 0.929 . S
H1244 C1248 0.929 . S
H1245 C1254 0.929 . S
C1246 H1240 0.930 . S
C1246 C1247 1.367 . S
C1246 C1254 1.378 . S
C1247 C1246 1.367 . S
C1247 C1255 1.433 . S
C1248 H1244 0.929 . S
C1248 C1250 1.378 . S
C1248 C1252 1.350 . S
C1249 C1252 1.463 . S
C1249 C1254 1.350 . S
C1249 N1257 1.427 . S
C1250 H1241 0.930 . S
C1250 C1248 1.378 . S
C1250 C1251 1.367 . S
C1251 C1250 1.367 . S
C1251 C1253 1.433 . S
C1252 C1248 1.350 . S
C1252 C1249 1.463 . S
C1252 N1256 1.427 . S
C1253 H1243 0.929 . S
C1253 C1251 1.433 . S
C1253 N1256 1.384 . S
C1254 H1245 0.929 . S
C1254 C1246 1.378 . S
C1254 C1249 1.350 . S
C1255 H1242 0.929 . S
C1255 C1247 1.433 . S
C1255 N1257 1.384 . S
N1256 C1252 1.427 . S
N1256 C1253 1.384 . S
N1257 C1249 1.427 . S
N1257 C1255 1.384 . S
H1258 C1264 0.930 . S
H1259 C1268 0.930 . S
H1260 C1273 0.929 . S
H1261 C1271 0.929 . S
H1262 C1266 0.929 . S
H1263 C1272 0.929 . S
C1264 H1258 0.930 . S
C1264 C1265 1.367 . S
C1264 C1272 1.378 . S
C1265 C1264 1.367 . S
C1265 C1273 1.433 . S
C1266 H1262 0.929 . S
C1266 C1268 1.378 . S
C1266 C1270 1.350 . S
C1267 C1270 1.463 . S
C1267 C1272 1.350 . S
C1267 N1275 1.427 . S
C1268 H1259 0.930 . S
C1268 C1266 1.378 . S
C1268 C1269 1.367 . S
C1269 C1268 1.367 . S
C1269 C1271 1.433 . S
C1270 C1266 1.350 . S
C1270 C1267 1.463 . S
C1270 N1274 1.427 . S
C1271 H1261 0.929 . S
C1271 C1269 1.433 . S
C1271 N1274 1.384 . S
C1272 H1263 0.929 . S
C1272 C1264 1.378 . S
C1272 C1267 1.350 . S
C1273 H1260 0.929 . S
C1273 C1265 1.433 . S
C1273 N1275 1.384 . S
N1274 C1270 1.427 . S
N1274 C1271 1.384 . S
N1275 C1267 1.427 . S
N1275 C1273 1.384 . S
H1276 C1282 0.930 . S
H1277 C1286 0.930 . S
H1278 C1291 0.929 . S
H1279 C1289 0.929 . S
H1280 C1284 0.929 . S
H1281 C1290 0.929 . S
C1282 H1276 0.930 . S
C1282 C1283 1.367 . S
C1282 C1290 1.378 . S
C1283 C1282 1.367 . S
C1283 C1291 1.433 . S
C1284 H1280 0.929 . S
C1284 C1286 1.378 . S
C1284 C1288 1.350 . S
C1285 C1288 1.463 . S
C1285 C1290 1.350 . S
C1285 N1293 1.427 . S
C1286 H1277 0.930 . S
C1286 C1284 1.378 . S
C1286 C1287 1.367 . S
C1287 C1286 1.367 . S
C1287 C1289 1.433 . S
C1288 C1284 1.350 . S
C1288 C1285 1.463 . S
C1288 N1292 1.427 . S
C1289 H1279 0.929 . S
C1289 C1287 1.433 . S
C1289 N1292 1.384 . S
C1290 H1281 0.929 . S
C1290 C1282 1.378 . S
C1290 C1285 1.350 . S
C1291 H1278 0.929 . S
C1291 C1283 1.433 . S
C1291 N1293 1.384 . S
N1292 C1288 1.427 . S
N1292 C1289 1.384 . S
N1293 C1285 1.427 . S
N1293 C1291 1.384 . S
H1294 C1300 0.930 . S
H1295 C1304 0.930 . S
H1296 C1309 0.929 . S
H1297 C1307 0.929 . S
H1298 C1302 0.929 . S
H1299 C1308 0.929 . S
C1300 H1294 0.930 . S
C1300 C1301 1.367 . S
C1300 C1308 1.378 . S
C1301 C1300 1.367 . S
C1301 C1309 1.433 . S
C1302 H1298 0.929 . S
C1302 C1304 1.378 . S
C1302 C1306 1.350 . S
C1303 C1306 1.463 . S
C1303 C1308 1.350 . S
C1303 N1311 1.427 . S
C1304 H1295 0.930 . S
C1304 C1302 1.378 . S
C1304 C1305 1.367 . S
C1305 C1304 1.367 . S
C1305 C1307 1.433 . S
C1306 C1302 1.350 . S
C1306 C1303 1.463 . S
C1306 N1310 1.427 . S
C1307 H1297 0.929 . S
C1307 C1305 1.433 . S
C1307 N1310 1.384 . S
C1308 H1299 0.929 . S
C1308 C1300 1.378 . S
C1308 C1303 1.350 . S
C1309 H1296 0.929 . S
C1309 C1301 1.433 . S
C1309 N1311 1.384 . S
N1310 C1306 1.427 . S
N1310 C1307 1.384 . S
N1311 C1303 1.427 . S
N1311 C1309 1.384 . S
H1312 C1318 0.930 . S
H1313 C1322 0.930 . S
H1314 C1327 0.929 . S
H1315 C1325 0.929 . S
H1316 C1320 0.929 . S
H1317 C1326 0.929 . S
C1318 H1312 0.930 . S
C1318 C1319 1.367 . S
C1318 C1326 1.378 . S
C1319 C1318 1.367 . S
C1319 C1327 1.433 . S
C1320 H1316 0.929 . S
C1320 C1322 1.378 . S
C1320 C1324 1.350 . S
C1321 C1324 1.463 . S
C1321 C1326 1.350 . S
C1321 N1329 1.427 . S
C1322 H1313 0.930 . S
C1322 C1320 1.378 . S
C1322 C1323 1.367 . S
C1323 C1322 1.367 . S
C1323 C1325 1.433 . S
C1324 C1320 1.350 . S
C1324 C1321 1.463 . S
C1324 N1328 1.427 . S
C1325 H1315 0.929 . S
C1325 C1323 1.433 . S
C1325 N1328 1.384 . S
C1326 H1317 0.929 . S
C1326 C1318 1.378 . S
C1326 C1321 1.350 . S
C1327 H1314 0.929 . S
C1327 C1319 1.433 . S
C1327 N1329 1.384 . S
N1328 C1324 1.427 . S
N1328 C1325 1.384 . S
N1329 C1321 1.427 . S
N1329 C1327 1.384 . S
H1330 C1336 0.930 . S
H1331 C1340 0.930 . S
H1332 C1345 0.929 . S
H1333 C1343 0.929 . S
H1334 C1338 0.929 . S
H1335 C1344 0.929 . S
C1336 H1330 0.930 . S
C1336 C1337 1.367 . S
C1336 C1344 1.378 . S
C1337 C1336 1.367 . S
C1337 C1345 1.433 . S
C1338 H1334 0.929 . S
C1338 C1340 1.378 . S
C1338 C1342 1.350 . S
C1339 C1342 1.463 . S
C1339 C1344 1.350 . S
C1339 N1347 1.427 . S
C1340 H1331 0.930 . S
C1340 C1338 1.378 . S
C1340 C1341 1.367 . S
C1341 C1340 1.367 . S
C1341 C1343 1.433 . S
C1342 C1338 1.350 . S
C1342 C1339 1.463 . S
C1342 N1346 1.427 . S
C1343 H1333 0.929 . S
C1343 C1341 1.433 . S
C1343 N1346 1.384 . S
C1344 H1335 0.929 . S
C1344 C1336 1.378 . S
C1344 C1339 1.350 . S
C1345 H1332 0.929 . S
C1345 C1337 1.433 . S
C1345 N1347 1.384 . S
N1346 C1342 1.427 . S
N1346 C1343 1.384 . S
N1347 C1339 1.427 . S
N1347 C1345 1.384 . S
H1348 C1354 0.930 . S
H1349 C1358 0.930 . S
H1350 C1363 0.929 . S
H1351 C1361 0.929 . S
H1352 C1356 0.929 . S
H1353 C1362 0.929 . S
C1354 H1348 0.930 . S
C1354 C1355 1.367 . S
C1354 C1362 1.378 . S
C1355 C1354 1.367 . S
C1355 C1363 1.433 . S
C1356 H1352 0.929 . S
C1356 C1358 1.378 . S
C1356 C1360 1.350 . S
C1357 C1360 1.463 . S
C1357 C1362 1.350 . S
C1357 N1365 1.427 . S
C1358 H1349 0.930 . S
C1358 C1356 1.378 . S
C1358 C1359 1.367 . S
C1359 C1358 1.367 . S
C1359 C1361 1.433 . S
C1360 C1356 1.350 . S
C1360 C1357 1.463 . S
C1360 N1364 1.427 . S
C1361 H1351 0.929 . S
C1361 C1359 1.433 . S
C1361 N1364 1.384 . S
C1362 H1353 0.929 . S
C1362 C1354 1.378 . S
C1362 C1357 1.350 . S
C1363 H1350 0.929 . S
C1363 C1355 1.433 . S
C1363 N1365 1.384 . S
N1364 C1360 1.427 . S
N1364 C1361 1.384 . S
N1365 C1357 1.427 . S
N1365 C1363 1.384 . S
H1366 C1372 0.930 . S
H1367 C1376 0.930 . S
H1368 C1381 0.929 . S
H1369 C1379 0.929 . S
H1370 C1374 0.929 . S
H1371 C1380 0.929 . S
C1372 H1366 0.930 . S
C1372 C1373 1.367 . S
C1372 C1380 1.378 . S
C1373 C1372 1.367 . S
C1373 C1381 1.433 . S
C1374 H1370 0.929 . S
C1374 C1376 1.378 . S
C1374 C1378 1.350 . S
C1375 C1378 1.463 . S
C1375 C1380 1.350 . S
C1375 N1383 1.427 . S
C1376 H1367 0.930 . S
C1376 C1374 1.378 . S
C1376 C1377 1.367 . S
C1377 C1376 1.367 . S
C1377 C1379 1.433 . S
C1378 C1374 1.350 . S
C1378 C1375 1.463 . S
C1378 N1382 1.427 . S
C1379 H1369 0.929 . S
C1379 C1377 1.433 . S
C1379 N1382 1.384 . S
C1380 H1371 0.929 . S
C1380 C1372 1.378 . S
C1380 C1375 1.350 . S
C1381 H1368 0.929 . S
C1381 C1373 1.433 . S
C1381 N1383 1.384 . S
N1382 C1378 1.427 . S
N1382 C1379 1.384 . S
N1383 C1375 1.427 . S
N1383 C1381 1.384 . S
H1384 C1390 0.930 . S
H1385 C1394 0.930 . S
H1386 C1399 0.929 . S
H1387 C1397 0.929 . S
H1388 C1392 0.929 . S
H1389 C1398 0.929 . S
C1390 H1384 0.930 . S
C1390 C1391 1.367 . S
C1390 C1398 1.378 . S
C1391 C1390 1.367 . S
C1391 C1399 1.433 . S
C1392 H1388 0.929 . S
C1392 C1394 1.378 . S
C1392 C1396 1.350 . S
C1393 C1396 1.463 . S
C1393 C1398 1.350 . S
C1393 N1401 1.427 . S
C1394 H1385 0.930 . S
C1394 C1392 1.378 . S
C1394 C1395 1.367 . S
C1395 C1394 1.367 . S
C1395 C1397 1.433 . S
C1396 C1392 1.350 . S
C1396 C1393 1.463 . S
C1396 N1400 1.427 . S
C1397 H1387 0.929 . S
C1397 C1395 1.433 . S
C1397 N1400 1.384 . S
C1398 H1389 0.929 . S
C1398 C1390 1.378 . S
C1398 C1393 1.350 . S
C1399 H1386 0.929 . S
C1399 C1391 1.433 . S
C1399 N1401 1.384 . S
N1400 C1396 1.427 . S
N1400 C1397 1.384 . S
N1401 C1393 1.427 . S
N1401 C1399 1.384 . S
H1402 C1408 0.930 . S
H1403 C1412 0.930 . S
H1404 C1417 0.929 . S
H1405 C1415 0.929 . S
H1406 C1410 0.929 . S
H1407 C1416 0.929 . S
C1408 H1402 0.930 . S
C1408 C1409 1.367 . S
C1408 C1416 1.378 . S
C1409 C1408 1.367 . S
C1409 C1417 1.433 . S
C1410 H1406 0.929 . S
C1410 C1412 1.378 . S
C1410 C1414 1.350 . S
C1411 C1414 1.463 . S
C1411 C1416 1.350 . S
C1411 N1419 1.427 . S
C1412 H1403 0.930 . S
C1412 C1410 1.378 . S
C1412 C1413 1.367 . S
C1413 C1412 1.367 . S
C1413 C1415 1.433 . S
C1414 C1410 1.350 . S
C1414 C1411 1.463 . S
C1414 N1418 1.427 . S
C1415 H1405 0.929 . S
C1415 C1413 1.433 . S
C1415 N1418 1.384 . S
C1416 H1407 0.929 . S
C1416 C1408 1.378 . S
C1416 C1411 1.350 . S
C1417 H1404 0.929 . S
C1417 C1409 1.433 . S
C1417 N1419 1.384 . S
N1418 C1414 1.427 . S
N1418 C1415 1.384 . S
N1419 C1411 1.427 . S
N1419 C1417 1.384 . S
H1420 C1426 0.930 . S
H1421 C1430 0.930 . S
H1422 C1435 0.929 . S
H1423 C1433 0.929 . S
H1424 C1428 0.929 . S
H1425 C1434 0.929 . S
C1426 H1420 0.930 . S
C1426 C1427 1.367 . S
C1426 C1434 1.378 . S
C1427 C1426 1.367 . S
C1427 C1435 1.433 . S
C1428 H1424 0.929 . S
C1428 C1430 1.378 . S
C1428 C1432 1.350 . S
C1429 C1432 1.463 . S
C1429 C1434 1.350 . S
C1429 N1437 1.427 . S
C1430 H1421 0.930 . S
C1430 C1428 1.378 . S
C1430 C1431 1.367 . S
C1431 C1430 1.367 . S
C1431 C1433 1.433 . S
C1432 C1428 1.350 . S
C1432 C1429 1.463 . S
C1432 N1436 1.427 . S
C1433 H1423 0.929 . S
C1433 C1431 1.433 . S
C1433 N1436 1.384 . S
C1434 H1425 0.929 . S
C1434 C1426 1.378 . S
C1434 C1429 1.350 . S
C1435 H1422 0.929 . S
C1435 C1427 1.433 . S
C1435 N1437 1.384 . S
N1436 C1432 1.427 . S
N1436 C1433 1.384 . S
N1437 C1429 1.427 . S
N1437 C1435 1.384 . S
H1438 C1444 0.930 . S
H1439 C1448 0.930 . S
H1440 C1453 0.929 . S
H1441 C1451 0.929 . S
H1442 C1446 0.929 . S
H1443 C1452 0.929 . S
C1444 H1438 0.930 . S
C1444 C1445 1.367 . S
C1444 C1452 1.378 . S
C1445 C1444 1.367 . S
C1445 C1453 1.433 . S
C1446 H1442 0.929 . S
C1446 C1448 1.378 . S
C1446 C1450 1.350 . S
C1447 C1450 1.463 . S
C1447 C1452 1.350 . S
C1447 N1455 1.427 . S
C1448 H1439 0.930 . S
C1448 C1446 1.378 . S
C1448 C1449 1.367 . S
C1449 C1448 1.367 . S
C1449 C1451 1.433 . S
C1450 C1446 1.350 . S
C1450 C1447 1.463 . S
C1450 N1454 1.427 . S
C1451 H1441 0.929 . S
C1451 C1449 1.433 . S
C1451 N1454 1.384 . S
C1452 H1443 0.929 . S
C1452 C1444 1.378 . S
C1452 C1447 1.350 . S
C1453 H1440 0.929 . S
C1453 C1445 1.433 . S
C1453 N1455 1.384 . S
N1454 C1450 1.427 . S
N1454 C1451 1.384 . S
N1455 C1447 1.427 . S
N1455 C1453 1.384 . S
H1456 C1462 0.930 . S
H1457 C1466 0.930 . S
H1458 C1471 0.929 . S
H1459 C1469 0.929 . S
H1460 C1464 0.929 . S
H1461 C1470 0.929 . S
C1462 H1456 0.930 . S
C1462 C1463 1.367 . S
C1462 C1470 1.378 . S
C1463 C1462 1.367 . S
C1463 C1471 1.433 . S
C1464 H1460 0.929 . S
C1464 C1466 1.378 . S
C1464 C1468 1.350 . S
C1465 C1468 1.463 . S
C1465 C1470 1.350 . S
C1465 N1473 1.427 . S
C1466 H1457 0.930 . S
C1466 C1464 1.378 . S
C1466 C1467 1.367 . S
C1467 C1466 1.367 . S
C1467 C1469 1.433 . S
C1468 C1464 1.350 . S
C1468 C1465 1.463 . S
C1468 N1472 1.427 . S
C1469 H1459 0.929 . S
C1469 C1467 1.433 . S
C1469 N1472 1.384 . S
C1470 H1461 0.929 . S
C1470 C1462 1.378 . S
C1470 C1465 1.350 . S
C1471 H1458 0.929 . S
C1471 C1463 1.433 . S
C1471 N1473 1.384 . S
N1472 C1468 1.427 . S
N1472 C1469 1.384 . S
N1473 C1465 1.427 . S
N1473 C1471 1.384 . S
H1474 C1480 0.930 . S
H1475 C1484 0.930 . S
H1476 C1489 0.929 . S
H1477 C1487 0.929 . S
H1478 C1482 0.929 . S
H1479 C1488 0.929 . S
C1480 H1474 0.930 . S
C1480 C1481 1.367 . S
C1480 C1488 1.378 . S
C1481 C1480 1.367 . S
C1481 C1489 1.433 . S
C1482 H1478 0.929 . S
C1482 C1484 1.378 . S
C1482 C1486 1.350 . S
C1483 C1486 1.463 . S
C1483 C1488 1.350 . S
C1483 N1491 1.427 . S
C1484 H1475 0.930 . S
C1484 C1482 1.378 . S
C1484 C1485 1.367 . S
C1485 C1484 1.367 . S
C1485 C1487 1.433 . S
C1486 C1482 1.350 . S
C1486 C1483 1.463 . S
C1486 N1490 1.427 . S
C1487 H1477 0.929 . S
C1487 C1485 1.433 . S
C1487 N1490 1.384 . S
C1488 H1479 0.929 . S
C1488 C1480 1.378 . S
C1488 C1483 1.350 . S
C1489 H1476 0.929 . S
C1489 C1481 1.433 . S
C1489 N1491 1.384 . S
N1490 C1486 1.427 . S
N1490 C1487 1.384 . S
N1491 C1483 1.427 . S
N1491 C1489 1.384 . S
H1492 C1498 0.930 . S
H1493 C1502 0.930 . S
H1494 C1507 0.929 . S
H1495 C1505 0.929 . S
H1496 C1500 0.929 . S
H1497 C1506 0.929 . S
C1498 H1492 0.930 . S
C1498 C1499 1.367 . S
C1498 C1506 1.378 . S
C1499 C1498 1.367 . S
C1499 C1507 1.433 . S
C1500 H1496 0.929 . S
C1500 C1502 1.378 . S
C1500 C1504 1.350 . S
C1501 C1504 1.463 . S
C1501 C1506 1.350 . S
C1501 N1509 1.427 . S
C1502 H1493 0.930 . S
C1502 C1500 1.378 . S
C1502 C1503 1.367 . S
C1503 C1502 1.367 . S
C1503 C1505 1.433 . S
C1504 C1500 1.350 . S
C1504 C1501 1.463 . S
C1504 N1508 1.427 . S
C1505 H1495 0.929 . S
C1505 C1503 1.433 . S
C1505 N1508 1.384 . S
C1506 H1497 0.929 . S
C1506 C1498 1.378 . S
C1506 C1501 1.350 . S
C1507 H1494 0.929 . S
C1507 C1499 1.433 . S
C1507 N1509 1.384 . S
N1508 C1504 1.427 . S
N1508 C1505 1.384 . S
N1509 C1501 1.427 . S
N1509 C1507 1.384 . S
H1510 C1516 0.930 . S
H1511 C1520 0.930 . S
H1512 C1525 0.929 . S
H1513 C1523 0.929 . S
H1514 C1518 0.929 . S
H1515 C1524 0.929 . S
C1516 H1510 0.930 . S
C1516 C1517 1.367 . S
C1516 C1524 1.378 . S
C1517 C1516 1.367 . S
C1517 C1525 1.433 . S
C1518 H1514 0.929 . S
C1518 C1520 1.378 . S
C1518 C1522 1.350 . S
C1519 C1522 1.463 . S
C1519 C1524 1.350 . S
C1519 N1527 1.427 . S
C1520 H1511 0.930 . S
C1520 C1518 1.378 . S
C1520 C1521 1.367 . S
C1521 C1520 1.367 . S
C1521 C1523 1.433 . S
C1522 C1518 1.350 . S
C1522 C1519 1.463 . S
C1522 N1526 1.427 . S
C1523 H1513 0.929 . S
C1523 C1521 1.433 . S
C1523 N1526 1.384 . S
C1524 H1515 0.929 . S
C1524 C1516 1.378 . S
C1524 C1519 1.350 . S
C1525 H1512 0.929 . S
C1525 C1517 1.433 . S
C1525 N1527 1.384 . S
N1526 C1522 1.427 . S
N1526 C1523 1.384 . S
N1527 C1519 1.427 . S
N1527 C1525 1.384 . S
H1528 C1534 0.930 . S
H1529 C1538 0.930 . S
H1530 C1543 0.929 . S
H1531 C1541 0.929 . S
H1532 C1536 0.929 . S
H1533 C1542 0.929 . S
C1534 H1528 0.930 . S
C1534 C1535 1.367 . S
C1534 C1542 1.378 . S
C1535 C1534 1.367 . S
C1535 C1543 1.433 . S
C1536 H1532 0.929 . S
C1536 C1538 1.378 . S
C1536 C1540 1.350 . S
C1537 C1540 1.463 . S
C1537 C1542 1.350 . S
C1537 N1545 1.427 . S
C1538 H1529 0.930 . S
C1538 C1536 1.378 . S
C1538 C1539 1.367 . S
C1539 C1538 1.367 . S
C1539 C1541 1.433 . S
C1540 C1536 1.350 . S
C1540 C1537 1.463 . S
C1540 N1544 1.427 . S
C1541 H1531 0.929 . S
C1541 C1539 1.433 . S
C1541 N1544 1.384 . S
C1542 H1533 0.929 . S
C1542 C1534 1.378 . S
C1542 C1537 1.350 . S
C1543 H1530 0.929 . S
C1543 C1535 1.433 . S
C1543 N1545 1.384 . S
N1544 C1540 1.427 . S
N1544 C1541 1.384 . S
N1545 C1537 1.427 . S
N1545 C1543 1.384 . S
H1546 C1552 0.930 . S
H1547 C1556 0.930 . S
H1548 C1561 0.929 . S
H1549 C1559 0.929 . S
H1550 C1554 0.929 . S
H1551 C1560 0.929 . S
C1552 H1546 0.930 . S
C1552 C1553 1.367 . S
C1552 C1560 1.378 . S
C1553 C1552 1.367 . S
C1553 C1561 1.433 . S
C1554 H1550 0.929 . S
C1554 C1556 1.378 . S
C1554 C1558 1.350 . S
C1555 C1558 1.463 . S
C1555 C1560 1.350 . S
C1555 N1563 1.427 . S
C1556 H1547 0.930 . S
C1556 C1554 1.378 . S
C1556 C1557 1.367 . S
C1557 C1556 1.367 . S
C1557 C1559 1.433 . S
C1558 C1554 1.350 . S
C1558 C1555 1.463 . S
C1558 N1562 1.427 . S
C1559 H1549 0.929 . S
C1559 C1557 1.433 . S
C1559 N1562 1.384 . S
C1560 H1551 0.929 . S
C1560 C1552 1.378 . S
C1560 C1555 1.350 . S
C1561 H1548 0.929 . S
C1561 C1553 1.433 . S
C1561 N1563 1.384 . S
N1562 C1558 1.427 . S
N1562 C1559 1.384 . S
N1563 C1555 1.427 . S
N1563 C1561 1.384 . S
H1564 C1570 0.930 . S
H1565 C1574 0.930 . S
H1566 C1579 0.929 . S
H1567 C1577 0.929 . S
H1568 C1572 0.929 . S
H1569 C1578 0.929 . S
C1570 H1564 0.930 . S
C1570 C1571 1.367 . S
C1570 C1578 1.378 . S
C1571 C1570 1.367 . S
C1571 C1579 1.433 . S
C1572 H1568 0.929 . S
C1572 C1574 1.378 . S
C1572 C1576 1.350 . S
C1573 C1576 1.463 . S
C1573 C1578 1.350 . S
C1573 N1581 1.427 . S
C1574 H1565 0.930 . S
C1574 C1572 1.378 . S
C1574 C1575 1.367 . S
C1575 C1574 1.367 . S
C1575 C1577 1.433 . S
C1576 C1572 1.350 . S
C1576 C1573 1.463 . S
C1576 N1580 1.427 . S
C1577 H1567 0.929 . S
C1577 C1575 1.433 . S
C1577 N1580 1.384 . S
C1578 H1569 0.929 . S
C1578 C1570 1.378 . S
C1578 C1573 1.350 . S
C1579 H1566 0.929 . S
C1579 C1571 1.433 . S
C1579 N1581 1.384 . S
N1580 C1576 1.427 . S
N1580 C1577 1.384 . S
N1581 C1573 1.427 . S
N1581 C1579 1.384 . S
H1582 C1588 0.930 . S
H1583 C1592 0.930 . S
H1584 C1597 0.929 . S
H1585 C1595 0.929 . S
H1586 C1590 0.929 . S
H1587 C1596 0.929 . S
C1588 H1582 0.930 . S
C1588 C1589 1.367 . S
C1588 C1596 1.378 . S
C1589 C1588 1.367 . S
C1589 C1597 1.433 . S
C1590 H1586 0.929 . S
C1590 C1592 1.378 . S
C1590 C1594 1.350 . S
C1591 C1594 1.463 . S
C1591 C1596 1.350 . S
C1591 N1599 1.427 . S
C1592 H1583 0.930 . S
C1592 C1590 1.378 . S
C1592 C1593 1.367 . S
C1593 C1592 1.367 . S
C1593 C1595 1.433 . S
C1594 C1590 1.350 . S
C1594 C1591 1.463 . S
C1594 N1598 1.427 . S
C1595 H1585 0.929 . S
C1595 C1593 1.433 . S
C1595 N1598 1.384 . S
C1596 H1587 0.929 . S
C1596 C1588 1.378 . S
C1596 C1591 1.350 . S
C1597 H1584 0.929 . S
C1597 C1589 1.433 . S
C1597 N1599 1.384 . S
N1598 C1594 1.427 . S
N1598 C1595 1.384 . S
N1599 C1591 1.427 . S
N1599 C1597 1.384 . S
C455 C411 1.563 . S
C459 C5 1.563 . S
C473 C19 1.564 . S
C477 C425 1.562 . S
C491 C439 1.562 . S
C495 C33 1.564 . S
C509 C397 1.562 . S
C513 C47 1.564 . S
C527 C61 1.563 . S
C531 C383 1.563 . S
C545 C341 1.564 . S
C549 C75 1.562 . S
C563 C89 1.563 . S
C567 C355 1.562 . S
C581 C369 1.563 . S
C585 C103 1.562 . S
C599 C117 1.564 . S
C603 C299 1.562 . S
C617 C131 1.564 . S
C621 C313 1.562 . S
C635 C327 1.563 . S
C639 C145 1.562 . S
C653 C159 1.562 . S
C657 C285 1.563 . S
C671 C271 1.562 . S
C675 C173 1.563 . S
C689 C229 1.563 . S
C693 C187 1.562 . S
C707 C201 1.563 . S
C711 C243 1.563 . S
C725 C215 1.562 . S
C729 C257 1.563 . S
C743 C0 1.403 . S
C747 C140 1.392 . S
C761 C154 1.392 . S
C765 C14 1.403 . S
C779 C112 1.398 . S
C783 C28 1.396 . S
C797 C126 1.392 . S
C801 C42 1.402 . S
C815 C56 1.393 . S
C819 C196 1.402 . S
C833 C210 1.395 . S
C837 C70 1.400 . S
C851 C168 1.402 . S
C855 C84 1.392 . S
C869 C182 1.402 . S
C873 C98 1.393 . S
C887 C224 1.402 . S
C891 C364 1.393 . S
C905 C378 1.394 . S
C909 C238 1.401 . S
C923 C336 1.396 . S
C927 C252 1.399 . S
C941 C266 1.399 . S
C945 C350 1.395 . S
C959 C280 1.393 . S
C963 C420 1.402 . S
C977 C434 1.399 . S
C981 C294 1.396 . S
C995 C392 1.393 . S
C999 C308 1.402 . S
C1013 C322 1.395 . S
C1017 C406 1.400 . S
C1031 C11 1.493 . S
C1035 C67 1.490 . S
C1049 C25 1.488 . S
C1053 C81 1.490 . S
C1067 C95 1.490 . S
C1071 C39 1.488 . S
C1085 C53 1.494 . S
C1089 C109 1.491 . S
C1103 C123 1.488 . S
C1107 C179 1.490 . S
C1121 C193 1.492 . S
C1125 C137 1.489 . S
C1139 C207 1.496 . S
C1143 C151 1.494 . S
C1157 C165 1.488 . S
C1161 C221 1.490 . S
C1175 C235 1.488 . S
C1179 C291 1.489 . S
C1193 C305 1.496 . S
C1197 C249 1.494 . S
C1211 C263 1.494 . S
C1215 C319 1.496 . S
C1229 C333 1.490 . S
C1233 C277 1.488 . S
C1247 C403 1.494 . S
C1251 C347 1.496 . S
C1265 C361 1.493 . S
C1269 C417 1.495 . S
C1283 C375 1.487 . S
C1287 C431 1.489 . S
C1301 C389 1.489 . S
C1305 C445 1.493 . S
C1319 C9 1.396 . S
C1323 C79 1.398 . S
C1337 C23 1.399 . S
C1341 C93 1.397 . S
C1355 C107 1.396 . S
C1359 C37 1.399 . S
C1373 C65 1.396 . S
C1377 C51 1.399 . S
C1391 C191 1.399 . S
C1395 C121 1.396 . S
C1409 C205 1.397 . S
C1413 C135 1.398 . S
C1427 C219 1.396 . S
C1431 C149 1.399 . S
C1445 C163 1.397 . S
C1449 C177 1.396 . S
C1463 C233 1.398 . S
C1467 C303 1.396 . S
C1481 C317 1.397 . S
C1485 C247 1.396 . S
C1499 C331 1.396 . S
C1503 C261 1.398 . S
C1517 C275 1.398 . S
C1521 C289 1.397 . S
C1535 C415 1.398 . S
C1539 C345 1.398 . S
C1553 C359 1.398 . S
C1557 C429 1.396 . S
C1571 C373 1.398 . S
C1575 C443 1.398 . S
C1589 C401 1.396 . S
C1593 C387 1.398 . S
