# Generated by pormake.
# Topology qtz-x, (6)-cn, num edge types: 1
# Building blocks:
#     Node 0, Type 0, BuildingBlock: KUMBOL_clean_sbu_0, # of connection points: 6
#     Node 1, Type 0, BuildingBlock: KUMBOL_clean_sbu_0, # of connection points: 6
#     Node 2, Type 0, BuildingBlock: KUMBOL_clean_sbu_0, # of connection points: 6
#     Edge 3, Type (0, 0), BuildingBlock: MIFKUJ_clean_linker_0, # of connection points: 2
#     Edge 4, Type (0, 0), BuildingBlock: MIFKUJ_clean_linker_0, # of connection points: 2
#     Edge 5, Type (0, 0), BuildingBlock: MIFKUJ_clean_linker_0, # of connection points: 2
#     Edge 6, Type (0, 0), BuildingBlock: MIFKUJ_clean_linker_0, # of connection points: 2
#     Edge 7, Type (0, 0), BuildingBlock: MIFKUJ_clean_linker_0, # of connection points: 2
#     Edge 8, Type (0, 0), BuildingBlock: MIFKUJ_clean_linker_0, # of connection points: 2
#     Edge 9, Type (0, 0), BuildingBlock: MIFKUJ_clean_linker_0, # of connection points: 2
#     Edge 10, Type (0, 0), BuildingBlock: MIFKUJ_clean_linker_0, # of connection points: 2
#     Edge 11, Type (0, 0), BuildingBlock: MIFKUJ_clean_linker_0, # of connection points: 2
# Relax obj value: 0.169
# Max RMSD: 0.277
# Mean RMSD: 0.277
data_MOF--net-qtz-x--node1-KUMBOL_clean_sbu_0--edge1-MIFKUJ_clean_linker_0
_symmetry_space_group_name_H-M    P1
_symmetry_Int_Tables_number       1
_symmetry_cell_setting            triclinic
loop_
_symmetry_equiv_pos_as_xyz
'x, y, z'
_cell_length_a     19.434203
_cell_length_b     19.415115
_cell_length_c     61.462129
_cell_angle_alpha  90.274312
_cell_angle_beta   89.79245
_cell_angle_gamma 119.90153
loop_
_atom_site_label
_atom_site_type_symbol
_atom_site_fract_x
_atom_site_fract_y
_atom_site_fract_z
_atom_type_partial_charge
Gd0 Gd 0.05276 0.4022 0.17177 0.0
Gd1 Gd 0.25338 0.51168 0.19592 0.0
C2 C 0.4761 0.64424 0.15388 0.0
C3 C 0.54838 0.57576 0.16262 0.0
C4 C 0.42057 0.53557 0.17953 0.0
C5 C 0.41425 0.59279 0.16792 0.0
C6 C 0.48886 0.52805 0.17757 0.0
C7 C 0.54198 0.6338 0.15078 0.0
C8 C 0.47162 0.70685 0.14417 0.0
C9 C 0.40796 0.71839 0.1491 0.0
N10 N 0.35063 0.60229 0.1717 0.0
C11 C 0.34834 0.66607 0.1632 0.0
H12 H 0.29996 0.67644 0.1668 0.0
C13 C 0.37314 0.44496 0.20876 0.0
N14 N 0.36297 0.4919 0.19415 0.0
C15 C 0.4395 0.43493 0.20739 0.0
C16 C 0.49696 0.47555 0.19144 0.0
H17 H 0.3286 0.41327 0.22106 0.0
H18 H 0.58961 0.67216 0.13987 0.0
H19 H 0.01371 0.24027 0.20125 0.0
H20 H 0.5184 0.74822 0.13352 0.0
H21 H 0.40495 0.76793 0.14221 0.0
H22 H 0.60088 0.57027 0.1607 0.0
H23 H 0.97302 0.49757 0.14759 0.0
H24 H 0.79357 0.15947 0.23446 0.0
H25 H 0.91035 0.1457 0.22585 0.0
H26 H 0.6999 0.32776 0.20687 0.0
H27 H 0.44621 0.39589 0.21861 0.0
H28 H 0.54859 0.46815 0.1905 0.0
H29 H 0.71481 0.22642 0.22684 0.0
H30 H 0.85314 0.51086 0.15051 0.0
N31 N 0.95903 0.31096 0.19663 0.0
C32 C 0.83949 0.20218 0.22383 0.0
C33 C 0.90516 0.19404 0.21894 0.0
C34 C 0.83202 0.26307 0.21411 0.0
C35 C 0.89364 0.31738 0.20047 0.0
C36 C 0.9639 0.24827 0.20493 0.0
N37 N 0.94183 0.41935 0.17451 0.0
C38 C 0.88475 0.37344 0.189 0.0
C39 C 0.86156 0.47258 0.1616 0.0
C40 C 0.80419 0.42921 0.17731 0.0
C41 C 0.92944 0.46526 0.16006 0.0
C42 C 0.81429 0.37718 0.19086 0.0
H43 H 0.75095 0.43384 0.17824 0.0
O44 O 0.02015 0.3894 0.1376 0.0
O45 O 0.18278 0.47209 0.16526 0.0
O46 O 0.19863 0.58977 0.19122 0.0
O47 O 0.06082 0.51239 0.18647 0.0
O48 O 0.1101 0.49934 0.14702 0.0
O49 O -0.00605 0.28552 0.15661 0.0
O50 O 0.28926 0.52641 0.22992 0.0
O51 O 0.12398 0.443 0.20187 0.0
O52 O 0.10913 0.3251 0.17518 0.0
O53 O 0.24637 0.40278 0.18064 0.0
O54 O 0.19247 0.41519 0.22118 0.0
O55 O 0.30465 0.62751 0.21134 0.0
C56 C 0.18215 0.51467 0.14981 0.0
C57 C 0.7544 0.32576 0.20519 0.0
C58 C 0.76303 0.26835 0.21665 0.0
C59 C 0.98293 0.31218 0.13828 0.0
C60 C 0.90186 0.27221 0.12937 0.0
C61 C 0.8352 0.23118 0.14291 0.0
C62 C 0.89096 0.27994 0.10713 0.0
C63 C 0.81425 0.24883 0.0985 0.0
C64 C 0.75883 0.19926 0.13434 0.0
C65 C 0.74824 0.20847 0.11229 0.0
C66 C 0.12637 0.58068 0.1905 0.0
C67 C 0.12115 0.40101 0.21775 0.0
C68 C 0.31821 0.60298 0.22968 0.0
C69 C 0.39794 0.65141 0.23904 0.0
C70 C 0.4658 0.68081 0.22586 0.0
C71 C 0.40629 0.66897 0.26141 0.0
C72 C 0.48207 0.71653 0.27059 0.0
C73 C 0.54105 0.72721 0.23487 0.0
C74 C 0.54931 0.74518 0.25706 0.0
C75 C 0.18159 0.33478 0.17589 0.0
H76 H 0.84195 0.22458 0.16011 0.0
H77 H 0.94228 0.31276 0.09671 0.0
H78 H 0.70771 0.1681 0.14487 0.0
H79 H 0.68855 0.18403 0.10599 0.0
H80 H 0.4607 0.66839 0.20861 0.0
H81 H 0.35377 0.6469 0.27155 0.0
H82 H 0.59316 0.74954 0.22461 0.0
H83 H 0.60843 0.781 0.26368 0.0
Gd84 Gd 0.74969 0.14239 0.51115 0.0
Gd85 Gd 0.62282 0.93654 0.53121 0.0
C86 C 0.48338 0.72465 0.48588 0.0
C87 C 0.34695 0.68859 0.49396 0.0
C88 C 0.45604 0.79818 0.51317 0.0
C89 C 0.50996 0.78657 0.50135 0.0
C90 C 0.37382 0.74849 0.50991 0.0
C91 C 0.40166 0.67673 0.48195 0.0
C92 C 0.53964 0.71167 0.47521 0.0
C93 C 0.61976 0.75815 0.4806 0.0
N94 N 0.58835 0.83372 0.50566 0.0
C95 C 0.64306 0.8185 0.49617 0.0
H96 H 0.70516 0.85423 0.50007 0.0
C97 C 0.43304 0.86488 0.5421 0.0
N98 N 0.48408 0.85632 0.52848 0.0
C99 C 0.35095 0.8174 0.53941 0.0
C100 C 0.32115 0.75947 0.52309 0.0
H101 H 0.45559 0.90989 0.55465 0.0
H102 H 0.38013 0.62931 0.47 0.0
H103 H 0.66785 0.22418 0.5427 0.0
H104 H 0.52173 0.66497 0.46314 0.0
H105 H 0.66367 0.74778 0.47271 0.0
H106 H 0.28402 0.65017 0.49108 0.0
H107 H 0.91633 0.16746 0.48761 0.0
H108 H 0.85259 0.41591 0.57863 0.0
H109 H 0.71018 0.33157 0.56979 0.0
H110 H 0.08955 0.43107 0.54997 0.0
H111 H 0.31074 0.82564 0.5499 0.0
H112 H 0.25754 0.72263 0.52108 0.0
H113 H -0.00596 0.45236 0.5712 0.0
H114 H 0.06124 0.25234 0.49191 0.0
N115 N 0.78469 0.24564 0.53655 0.0
C116 C 0.83431 0.36876 0.56669 0.0
C117 C 0.75392 0.3214 0.56171 0.0
C118 C 0.89031 0.35594 0.55579 0.0
C119 C 0.86327 0.29344 0.54049 0.0
C120 C 0.73013 0.26051 0.5463 0.0
N121 N 0.88848 0.22234 0.51359 0.0
C122 C 0.9169 0.2815 0.52861 0.0
C123 C 0.02131 0.26104 0.50239 0.0
C124 C 0.05154 0.32 0.51843 0.0
C125 C 0.93916 0.21316 0.49997 0.0
C126 C -0.00078 0.33157 0.5316 0.0
H127 H 0.11521 0.35713 0.52024 0.0
O128 O 0.77004 0.17677 0.47721 0.0
O129 O 0.67119 0.01562 0.5027 0.0
O130 O 0.75057 0.96796 0.52483 0.0
O131 O 0.82723 0.10585 0.5285 0.0
O132 O 0.77123 0.07669 0.48383 0.0
O133 O 0.71517 0.22517 0.4985 0.0
O134 O 0.59866 0.89746 0.56476 0.0
O135 O 0.70077 0.0633 0.53972 0.0
O136 O 0.6223 0.11176 0.5176 0.0
O137 O 0.54543 0.97383 0.51403 0.0
O138 O 0.60124 0.00151 0.55869 0.0
O139 O 0.66228 0.85776 0.5438 0.0
C140 C 0.70737 0.0093 0.48646 0.0
C141 C 0.02654 0.39231 0.54731 0.0
C142 C 0.97216 0.40443 0.5594 0.0
C143 C 0.74478 0.2272 0.47924 0.0
C144 C 0.79519 0.30527 0.46911 0.0
C145 C 0.8321 0.37557 0.48145 0.0
C146 C 0.80844 0.30862 0.44656 0.0
C147 C 0.85851 0.38133 0.4362 0.0
C148 C 0.8812 0.44818 0.47127 0.0
C149 C 0.89454 0.45123 0.44882 0.0
C150 C 0.81899 0.03405 0.5284 0.0
C151 C 0.66468 0.06923 0.55605 0.0
C152 C 0.62965 0.85177 0.56282 0.0
C153 C 0.58258 0.77178 0.57195 0.0
C154 C 0.52837 0.70765 0.55916 0.0
C155 C 0.59001 0.76046 0.59414 0.0
C156 C 0.54349 0.68545 0.60374 0.0
C157 C 0.48216 0.63288 0.56853 0.0
C158 C 0.48942 0.62168 0.59068 0.0
C159 C 0.55374 0.04568 0.5142 0.0
H160 H 0.82349 0.37443 0.49889 0.0
H161 H 0.78138 0.25394 0.43718 0.0
H162 H 0.90944 0.50229 0.48082 0.0
H163 H 0.93282 0.50829 0.44134 0.0
H164 H 0.52154 0.71542 0.54203 0.0
H165 H 0.63093 0.81065 0.60403 0.0
H166 H 0.44045 0.58347 0.55862 0.0
H167 H 0.45332 0.56302 0.59754 0.0
Gd168 Gd 0.75263 0.44814 0.84155 0.0
Gd169 Gd 0.63516 0.53679 0.86308 0.0
C170 C 0.38318 0.47707 0.84461 0.0
C171 C 0.40787 0.57633 0.81711 0.0
C172 C 0.51821 0.57348 0.83482 0.0
C173 C 0.46574 0.50855 0.84683 0.0
C174 C 0.48998 0.60911 0.82005 0.0
C175 C 0.35451 0.51039 0.82939 0.0
C176 C 0.33205 0.41442 0.85814 0.0
C177 C 0.36374 0.38659 0.87388 0.0
N178 N 0.49563 0.47811 0.86136 0.0
C179 C 0.44607 0.42018 0.87553 0.0
H180 H 0.4697 0.3981 0.88778 0.0
C181 C 0.65092 0.67176 0.82789 0.0
N182 N 0.59701 0.60333 0.83805 0.0
C183 C 0.62594 0.70915 0.81304 0.0
C184 C 0.54512 0.67725 0.80892 0.0
H185 H 0.71359 0.69723 0.83078 0.0
H186 H 0.29129 0.48665 0.82731 0.0
H187 H 0.88303 0.49914 0.88238 0.0
H188 H 0.26826 0.3885 0.85693 0.0
H189 H 0.32482 0.33929 0.88475 0.0
H190 H 0.38505 0.6024 0.8057 0.0
H191 H 0.64862 0.30768 0.80403 0.0
H192 H 0.8656 0.28826 0.90922 0.0
H193 H 0.92541 0.43443 0.90934 0.0
H194 H 0.68401 0.08344 0.86113 0.0
H195 H 0.66912 0.76237 0.80471 0.0
H196 H 0.52592 0.70623 0.79738 0.0
H197 H 0.77435 0.15721 0.89129 0.0
H198 H 0.59401 0.16393 0.79872 0.0
N199 N 0.7979 0.3907 0.86745 0.0
C200 C 0.84661 0.31636 0.89734 0.0
C201 C 0.88063 0.39886 0.89742 0.0
C202 C 0.79031 0.27139 0.88148 0.0
C203 C 0.76745 0.31096 0.86645 0.0
C204 C 0.85619 0.43532 0.88211 0.0
N205 N 0.69973 0.31084 0.83491 0.0
C206 C 0.71684 0.26963 0.84958 0.0
C207 C 0.62798 0.19278 0.81319 0.0
C208 C 0.64114 0.14876 0.82884 0.0
C209 C 0.6591 0.27441 0.81628 0.0
C210 C 0.6873 0.18733 0.84713 0.0
H211 H 0.61729 0.0856 0.82636 0.0
O212 O 0.80455 0.473 0.80907 0.0
O213 O 0.70013 0.52544 0.83498 0.0
O214 O 0.55361 0.41904 0.84698 0.0
O215 O 0.62669 0.35225 0.84793 0.0
O216 O 0.68979 0.44656 0.81067 0.0
O217 O 0.87815 0.48886 0.83679 0.0
O218 O 0.67366 0.65521 0.87567 0.0
O219 O 0.71342 0.48624 0.87083 0.0
O220 O 0.82891 0.56302 0.85961 0.0
O221 O 0.75982 0.6294 0.85375 0.0
O222 O 0.61208 0.44786 0.88948 0.0
O223 O 0.62136 0.55539 0.89746 0.0
C224 C 0.67198 0.49955 0.81632 0.0
C225 C 0.70673 0.1468 0.86261 0.0
C226 C 0.75815 0.18879 0.87978 0.0
C227 C 0.87236 0.48331 0.8157 0.0
C228 C 0.90144 0.43461 0.80464 0.0
C229 C 0.9372 0.39914 0.81657 0.0
C230 C 0.88959 0.41964 0.78209 0.0
C231 C 0.91058 0.36783 0.77175 0.0
C232 C 0.95938 0.34892 0.80628 0.0
C233 C 0.94565 0.33276 0.78408 0.0
C234 C 0.5595 0.35381 0.84608 0.0
C235 C 0.67364 0.44094 0.88622 0.0
C236 C 0.64516 0.63033 0.89505 0.0
C237 C 0.59403 0.65907 0.90463 0.0
C238 C 0.57097 0.70503 0.89235 0.0
C239 C 0.5683 0.64079 0.9264 0.0
C240 C 0.52069 0.66881 0.936 0.0
C241 C 0.52441 0.73334 0.90172 0.0
C242 C 0.4999 0.71602 0.92335 0.0
C243 C 0.82642 0.62947 0.85792 0.0
H244 H 0.9471 0.40917 0.83391 0.0
H245 H 0.86141 0.44597 0.77273 0.0
H246 H 0.98648 0.32161 0.81562 0.0
H247 H 0.96263 0.29294 0.77649 0.0
H248 H 0.58912 0.71955 0.87553 0.0
H249 H 0.58478 0.60396 0.93569 0.0
H250 H 0.50762 0.76941 0.89221 0.0
H251 H 0.46544 0.74072 0.93019 0.0
H252 H 0.02241 0.61582 0.17044 0.0
H253 H 0.0328 0.74579 0.16792 0.0
H254 H 0.23319 0.84294 0.21149 0.0
H255 H 0.22272 0.71241 0.21415 0.0
H256 H 0.12709 0.90293 0.21813 0.0
H257 H 0.27406 0.86242 0.16167 0.0
H258 H 0.29234 0.78856 0.13158 0.0
H259 H 0.11494 0.80485 0.0942 0.0
H260 H 0.09422 0.87736 0.12427 0.0
H261 H 0.2973 0.30483 0.19034 0.0
H262 H 0.29194 0.17686 0.19091 0.0
H263 H 0.07442 0.07277 0.15411 0.0
H264 H 0.07862 0.20065 0.15382 0.0
H265 H 0.19296 0.01805 0.1438 0.0
H266 H 0.04311 0.05348 0.20204 0.0
H267 H 0.03018 0.13082 0.23209 0.0
H268 H 0.22047 0.12672 0.2662 0.0
H269 H 0.23576 0.0508 0.23607 0.0
C270 C 0.06692 0.66381 0.18001 0.0
C271 C 0.12187 0.65388 0.19236 0.0
C272 C 0.07329 0.73834 0.17842 0.0
C273 C 0.13449 0.80375 0.18927 0.0
C274 C 0.18581 0.79295 0.20293 0.0
C275 C 0.17989 0.71855 0.20435 0.0
C276 C 0.14919 0.8844 0.18483 0.0
C277 C 0.14221 0.92841 0.20195 0.0
C278 C 0.16864 0.91702 0.16364 0.0
C279 C 0.18193 0.87462 0.14534 0.0
C280 C 0.2384 0.84968 0.14712 0.0
C281 C 0.24929 0.80811 0.13006 0.0
C282 C 0.20472 0.79186 0.11103 0.0
C283 C 0.14933 0.81738 0.10898 0.0
C284 C 0.13797 0.85871 0.12603 0.0
C285 C 0.24939 0.25562 0.18199 0.0
C286 C 0.18765 0.26273 0.17252 0.0
C287 C 0.24648 0.18244 0.18227 0.0
C288 C 0.18239 0.11573 0.17273 0.0
C289 C 0.12428 0.12392 0.16155 0.0
C290 C 0.12654 0.19684 0.16158 0.0
C291 C 0.17021 0.03599 0.17705 0.0
C292 C 0.17781 0.99233 0.15995 0.0
C293 C 0.1519 0.00379 0.19827 0.0
C294 C 0.14118 0.04726 0.2167 0.0
C295 C 0.08264 0.06963 0.21586 0.0
C296 C 0.07483 0.11317 0.23291 0.0
C297 C 0.12459 0.13388 0.25102 0.0
C298 C 0.18207 0.11077 0.25215 0.0
C299 C 0.19035 0.06749 0.23508 0.0
H300 H 0.11848 0.16765 0.26419 0.0
H301 H 0.21323 0.75962 0.09785 0.0
H302 H 0.41196 0.93663 0.49687 0.0
H303 H 0.28693 0.93764 0.49893 0.0
H304 H 0.40647 0.16647 0.53075 0.0
H305 H 0.53183 0.16601 0.52883 0.0
H306 H 0.27116 0.04994 0.55287 0.0
H307 H 0.34989 0.16172 0.4818 0.0
H308 H 0.3952 0.17054 0.44388 0.0
H309 H 0.18557 0.94951 0.42878 0.0
H310 H 0.13964 0.93854 0.46675 0.0
H311 H 0.96041 0.14339 0.54585 0.0
H312 H 0.08558 0.14256 0.54406 0.0
H313 H 0.96681 0.91342 0.51239 0.0
H314 H 0.8413 0.91364 0.51407 0.0
H315 H 0.10189 0.03049 0.49023 0.0
H316 H 0.02326 0.91818 0.56119 0.0
H317 H 0.97775 0.90863 0.59911 0.0
H318 H 0.18673 0.12994 0.61441 0.0
H319 H 0.23289 0.14163 0.57644 0.0
C320 C 0.41175 0.98755 0.50409 0.0
C321 C 0.48127 0.05098 0.51287 0.0
C322 C 0.34053 0.98813 0.50517 0.0
C323 C 0.33808 0.05209 0.51501 0.0
C324 C 0.40775 0.11666 0.52314 0.0
C325 C 0.47918 0.11646 0.52191 0.0
C326 C 0.26175 0.04923 0.51793 0.0
C327 C 0.2345 0.04696 0.53921 0.0
C328 C 0.21375 0.04305 0.50001 0.0
C329 C 0.24166 0.04894 0.4772 0.0
C330 C 0.31385 0.1145 0.47048 0.0
C331 C 0.33957 0.12 0.44895 0.0
C332 C 0.29328 0.06063 0.43394 0.0
C333 C 0.22134 -0.00454 0.44044 0.0
C334 C 0.19543 0.98958 0.46196 0.0
C335 C 0.9608 0.09241 0.53874 0.0
C336 C 0.89148 0.02885 0.52992 0.0
C337 C 0.0321 0.09195 0.53781 0.0
C338 C 0.03481 0.02798 0.52807 0.0
C339 C 0.96531 0.96323 0.51993 0.0
C340 C 0.8938 0.96331 0.52101 0.0
C341 C 0.11128 0.03114 0.52517 0.0
C342 C 0.13856 0.03351 0.50389 0.0
C343 C 0.15927 0.03736 0.54309 0.0
C344 C 0.1312 0.03114 0.56589 0.0
C345 C 0.05911 0.96531 0.57256 0.0
C346 C 0.03328 0.9594 0.59408 0.0
C347 C 0.07935 0.0186 0.60915 0.0
C348 C 0.15115 0.08409 0.60271 0.0
C349 C 0.17718 0.09039 0.58119 0.0
H350 H 0.05957 0.01354 0.62585 0.0
H351 H 0.31298 0.06532 0.41725 0.0
H352 H 0.97395 0.65372 0.8672 0.0
H353 H 0.09893 0.77944 0.86573 0.0
H354 H 0.97213 0.90211 0.8496 0.0
H355 H 0.84675 0.77693 0.851 0.0
H356 H 0.09584 0.93214 0.82118 0.0
H357 H 0.04852 0.92751 0.89811 0.0
H358 H 0.01917 0.86953 0.9349 0.0
H359 H 0.23143 0.85307 0.93338 0.0
H360 H 0.26145 0.90985 0.89643 0.0
H361 H 0.41502 0.3274 0.83241 0.0
H362 H 0.28975 0.20202 0.83373 0.0
H363 H 0.41321 0.08241 0.85608 0.0
H364 H 0.53784 0.20792 0.8559 0.0
H365 H 0.2901 0.05066 0.88142 0.0
H366 H 0.3376 0.05084 0.80494 0.0
H367 H 0.367 0.10313 0.76755 0.0
H368 H 0.15732 0.12424 0.76763 0.0
H369 H 0.12696 0.07263 0.80514 0.0
C370 C 0.97252 0.70753 0.86356 0.0
C371 C 0.90076 0.70554 0.85904 0.0
C372 C 0.04382 0.77913 0.86281 0.0
C373 C 0.04404 0.84938 0.85759 0.0
C374 C 0.97252 0.84803 0.85362 0.0
C375 C 0.90117 0.77658 0.85447 0.0
C376 C 0.11948 0.92361 0.855 0.0
C377 C 0.13803 0.959 0.83439 0.0
C378 C 0.17473 0.95631 0.87216 0.0
C379 C 0.1568 0.92221 0.8944 0.0
C380 C 0.08857 0.91085 0.90553 0.0
C381 C 0.07189 0.87833 0.92643 0.0
C382 C 0.12329 0.85743 0.93645 0.0
C383 C 0.1916 0.86919 0.92559 0.0
C384 C 0.20851 0.90159 0.90468 0.0
C385 C 0.41543 0.27434 0.83756 0.0
C386 C 0.48588 0.27743 0.84427 0.0
C387 C 0.34408 0.20275 0.83807 0.0
C388 C 0.34272 0.13331 0.84493 0.0
C389 C 0.41343 0.13568 0.85078 0.0
C390 C 0.48458 0.20728 0.85049 0.0
C391 C 0.26681 0.05933 0.84754 0.0
C392 C 0.24804 0.02395 0.86817 0.0
C393 C 0.21164 0.02626 0.83035 0.0
C394 C 0.23037 0.05849 0.80792 0.0
C395 C 0.29814 0.06733 0.79707 0.0
C396 C 0.31488 0.09667 0.77583 0.0
C397 C 0.26411 0.11711 0.76523 0.0
C398 C 0.19658 0.10838 0.77587 0.0
C399 C 0.1795 0.07895 0.7971 0.0
H400 H 0.27689 0.1394 0.74875 0.0
H401 H 0.11028 0.83229 0.95263 0.0
H402 H 0.59894 0.65185 0.97126 0.0
H403 H 0.55447 0.62637 1.0092 0.0
H404 H 0.33793 0.62161 0.99148 0.0
H405 H 0.37899 0.64213 0.95344 0.0
H406 H 0.44045 0.73252 0.02851 0.0
H407 H 0.31037 0.45874 1.0014 0.0
H408 H 0.31159 0.34461 0.98397 0.0
H409 H 0.47298 0.35158 0.03261 0.0
H410 H 0.47353 0.4665 0.05017 0.0
H411 H 0.18551 0.60999 0.11776 0.0
H412 H 0.25612 0.63906 0.08347 0.0
H413 H 0.37731 0.51601 0.10504 0.0
H414 H 0.29794 0.47799 0.13852 0.0
H415 H 0.34366 0.4769 0.06721 0.0
H416 H 0.47787 0.74231 0.09545 0.0
H417 H 0.49157 0.86257 0.11348 0.0
H418 H 0.3441 0.88081 0.06466 0.0
H419 H 0.33048 0.76137 0.04624 0.0
C420 C 0.54109 0.64378 0.97526 0.0
C421 C 0.49307 0.64993 0.9591 0.0
C422 C 0.51614 0.62982 0.99702 0.0
C423 C 0.44326 0.62273 1.0031 0.0
C424 C 0.39476 0.62769 0.98711 0.0
C425 C 0.41884 0.64013 0.96535 0.0
C426 C 0.41805 0.61258 0.0262 0.0
C427 C 0.41892 0.67664 0.03703 0.0
C428 C 0.39324 0.54079 0.03749 0.0
C429 C 0.3927 0.47172 0.02694 0.0
C430 C 0.34676 0.43646 1.00824 0.0
C431 C 0.34697 0.37151 0.99838 0.0
C432 C 0.39244 0.34098 1.00716 0.0
C433 C 0.43784 0.37534 0.02582 0.0
C434 C 0.43786 0.44032 0.03574 0.0
C435 C 0.22799 0.58993 0.11532 0.0
C436 C 0.23741 0.54315 0.13106 0.0
C437 C 0.26964 0.60778 0.09572 0.0
C438 C 0.32472 0.58231 0.09161 0.0
C439 C 0.33581 0.53712 0.10767 0.0
C440 C 0.2914 0.51638 0.12701 0.0
C441 C 0.3646 0.59694 0.06986 0.0
C442 C 0.36648 0.53365 0.0591 0.0
C443 C 0.39421 0.67045 0.05879 0.0
C444 C 0.40266 0.74264 0.06964 0.0
C445 C 0.44812 0.77187 0.08868 0.0
C446 C 0.45605 0.83995 0.0989 0.0
C447 C 0.41827 0.87894 0.09031 0.0
C448 C 0.3733 0.85052 0.07131 0.0
C449 C 0.36586 0.78295 0.0609 0.0
H450 H 0.424 0.93128 0.09834 0.0
H451 H 0.3922 0.29045 0.99959 0.0
H452 H 0.75371 0.29944 0.4033 0.0
H453 H 0.78356 0.29593 0.36471 0.0
H454 H 0.03005 0.46515 0.37675 0.0
H455 H 0.00117 0.46743 0.41539 0.0
H456 H 0.84578 0.40786 0.33276 0.0
H457 H 0.1432 0.41352 0.34641 0.0
H458 H 0.20606 0.3712 0.37409 0.0
H459 H 0.97646 0.19067 0.39615 0.0
H460 H 0.91235 0.23112 0.36842 0.0
H461 H 0.05869 0.49048 0.23268 0.0
H462 H -0.0009 0.4813 0.26812 0.0
H463 H -0.00037 0.26249 0.28044 0.0
H464 H 0.0695 0.27846 0.2461 0.0
H465 H 0.04983 0.33649 0.31287 0.0
H466 H 0.79551 0.28551 0.27817 0.0
H467 H 0.71047 0.31269 0.25398 0.0
H468 H 0.83331 0.55755 0.27349 0.0
H469 H 0.91514 0.53072 0.29895 0.0
C470 C 0.81432 0.33581 0.39774 0.0
C471 C 0.87517 0.38338 0.41248 0.0
C472 C 0.83112 0.33423 0.37564 0.0
C473 C 0.90914 0.37965 0.36788 0.0
C474 C 0.96954 0.42895 0.38242 0.0
C475 C 0.9528 0.4307 0.40449 0.0
C476 C 0.9281 0.37352 0.34475 0.0
C477 C 0.88997 0.39167 0.32831 0.0
C478 C 0.98487 0.3514 0.33895 0.0
C479 C 0.02304 0.32595 0.35548 0.0
C480 C 0.10619 0.3646 0.35712 0.0
C481 C 0.14202 0.34096 0.37282 0.0
C482 C 0.09528 0.27847 0.38692 0.0
C483 C 0.01261 0.23926 0.38528 0.0
C484 C 0.9765 0.26259 0.36959 0.0
C485 C 0.04427 0.43946 0.24277 0.0
C486 C 0.06776 0.38455 0.23657 0.0
C487 C 0.00895 0.43352 0.26309 0.0
C488 C -0.00712 0.37036 0.27725 0.0
C489 C 0.01176 0.31252 0.27019 0.0
C490 C 0.05098 0.32095 0.25042 0.0
C491 C 0.96656 0.36957 0.30027 0.0
C492 C 0.00434 0.3512 0.31695 0.0
C493 C 0.90791 0.38948 0.30622 0.0
C494 C 0.86224 0.40647 0.29008 0.0
C495 C 0.80479 0.34524 0.27711 0.0
C496 C 0.75693 0.36046 0.26329 0.0
C497 C 0.76781 0.43705 0.26178 0.0
C498 C 0.82536 0.49837 0.27451 0.0
C499 C 0.87172 0.48301 0.28885 0.0
H500 H 0.73103 0.44863 0.25093 0.0
H501 H 0.12314 0.26031 0.39908 0.0
H502 H 0.52343 0.45754 0.80268 0.0
H503 H 0.48904 0.50725 0.77028 0.0
H504 H 0.73802 0.67025 0.7587 0.0
H505 H 0.77111 0.62562 0.79219 0.0
H506 H 0.66037 0.73345 0.74323 0.0
H507 H 0.62892 0.47128 0.74003 0.0
H508 H 0.57223 0.33142 0.7511 0.0
H509 H 0.34006 0.28396 0.73227 0.0
H510 H 0.39503 0.42416 0.72168 0.0
H511 H 0.67967 0.74279 0.62773 0.0
H512 H 0.69189 0.7234 0.66648 0.0
H513 H 0.43691 0.58392 0.67191 0.0
H514 H 0.42433 0.60258 0.63309 0.0
H515 H 0.50551 0.51255 0.69154 0.0
H516 H 0.54382 0.77725 0.69168 0.0
H517 H 0.60648 0.91669 0.67963 0.0
H518 H 0.83272 0.95815 0.7023 0.0
H519 H 0.77173 0.81863 0.71418 0.0
C520 C 0.57013 0.50631 0.79363 0.0
C521 C 0.64953 0.53931 0.80001 0.0
C522 C 0.55075 0.53413 0.77501 0.0
C523 C 0.61109 0.59102 0.76162 0.0
C524 C 0.69028 0.62647 0.76867 0.0
C525 C 0.70929 0.60085 0.78774 0.0
C526 C 0.59366 0.60626 0.73913 0.0
C527 C 0.62665 0.68512 0.73193 0.0
C528 C 0.54888 0.54326 0.72433 0.0
C529 C 0.51606 0.45844 0.73022 0.0
C530 C 0.56571 0.43111 0.73834 0.0
C531 C 0.53386 0.35184 0.7446 0.0
C532 C 0.45266 0.29886 0.74237 0.0
C533 C 0.403 0.32509 0.73398 0.0
C534 C 0.43445 0.40452 0.7279 0.0
C535 C 0.62617 0.70863 0.63722 0.0
C536 C 0.551 0.67418 0.62734 0.0
C537 C 0.63322 0.69776 0.65939 0.0
C538 C 0.56525 0.65317 0.6722 0.0
C539 C 0.49017 0.61869 0.66236 0.0
C540 C 0.48308 0.62909 0.64016 0.0
C541 C 0.57253 0.63954 0.69564 0.0
C542 C 0.53802 0.56089 0.70295 0.0
C543 C 0.61675 0.70267 0.71038 0.0
C544 C 0.65318 0.78722 0.70372 0.0
C545 C 0.607 0.81597 0.69401 0.0
C546 C 0.64223 0.89505 0.68721 0.0
C547 C 0.72353 0.94623 0.69019 0.0
C548 C 0.76974 0.91845 0.70001 0.0
C549 C 0.73484 0.8394 0.70681 0.0
H550 H 0.7507 0.00743 0.68493 0.0
H551 H 0.42839 0.23749 0.74709 0.0
H552 H 0.62231 0.2896 0.89886 0.0
H553 H 0.65725 0.24755 0.93272 0.0
H554 H 0.82343 0.49266 0.94826 0.0
H555 H 0.79026 0.53402 0.91411 0.0
H556 H 0.87978 0.40107 0.96216 0.0
H557 H 0.6346 0.40417 0.96784 0.0
H558 H 0.49897 0.3688 0.95678 0.0
H559 H 0.42063 0.12174 0.96675 0.0
H560 H 0.55614 0.15569 0.97767 0.0
H561 H 0.72691 0.31086 0.08237 0.0
H562 H 0.71264 0.33812 0.0444 0.0
H563 H 0.86049 0.24111 0.02446 0.0
H564 H 0.87762 0.21715 0.06267 0.0
H565 H 0.6495 0.25253 1.0114 0.0
H566 H 0.957 0.32695 0.97687 0.0
H567 H 0.09544 0.38262 0.98926 0.0
H568 H 0.05443 0.50869 0.0406 0.0
H569 H 0.91617 0.45468 0.02834 0.0
C570 C 0.66794 0.33386 0.90929 0.0
C571 C 0.70506 0.41457 0.90389 0.0
C572 C 0.68754 0.31008 0.92862 0.0
C573 C 0.74232 0.36709 0.94315 0.0
C574 C 0.78145 0.44764 0.93727 0.0
C575 C 0.76256 0.47126 0.91782 0.0
C576 C 0.75273 0.34421 0.96538 0.0
C577 C 0.82952 0.36803 0.97292 0.0
C578 C 0.68731 0.30294 0.97958 0.0
C579 C 0.60559 0.28236 0.97332 0.0
C580 C 0.58852 0.34227 0.96754 0.0
C581 C 0.51172 0.3225 0.96129 0.0
C582 C 0.45135 0.24304 0.96094 0.0
C583 C 0.46755 0.18324 0.96696 0.0
C584 C 0.5443 0.2027 0.9732 0.0
C585 C 0.75615 0.29525 0.06985 0.0
C586 C 0.80338 0.26204 0.07538 0.0
C587 C 0.748 0.31077 0.04815 0.0
C588 C 0.78608 0.29246 0.03148 0.0
C589 C 0.83192 0.25747 0.03699 0.0
C590 C 0.84136 0.24339 0.05878 0.0
C591 C 0.77691 0.30983 1.00845 0.0
C592 C 0.70005 0.28472 1.00068 0.0
C593 C 0.8427 0.35266 0.99438 0.0
C594 C 0.92591 0.38588 1.00185 0.0
C595 C 0.97759 0.36667 0.99078 0.0
C596 C 0.05603 0.39795 0.99777 0.0
C597 C 0.08362 0.44891 1.01576 0.0
C598 C 0.0329 0.46894 0.02673 0.0
C599 C 0.95446 0.43793 0.01978 0.0
H600 H 0.14435 0.47303 0.02115 0.0
H601 H 0.3919 0.22785 0.95611 0.0
H602 H 0.578 0.86146 0.28911 0.0
H603 H 0.59983 0.89464 0.3278 0.0
H604 H 0.4288 0.6524 0.3441 0.0
H605 H 0.40754 0.6184 0.30527 0.0
H606 H 0.50239 0.88804 0.36056 0.0
H607 H 0.49971 0.60696 0.39082 0.0
H608 H 0.52283 0.50075 0.37686 0.0
H609 H 0.68187 0.65933 0.32839 0.0
H610 H 0.66049 0.76666 0.34224 0.0
H611 H 0.55075 0.93294 0.47434 0.0
H612 H 0.49464 0.86139 0.44029 0.0
H613 H 0.72517 0.89999 0.4213 0.0
H614 H 0.78083 0.96932 0.45572 0.0
H615 H 0.60784 0.75491 0.40763 0.0
H616 H 0.66558 0.02989 0.40562 0.0
H617 H 0.65218 0.14194 0.41968 0.0
H618 H 0.39982 0.00651 0.41038 0.0
H619 H 0.41175 0.89359 0.39643 0.0
C620 C 0.54514 0.81516 0.30092 0.0
C621 C 0.49158 0.73714 0.29414 0.0
C622 C 0.55716 0.83437 0.32303 0.0
C623 C 0.51638 0.77593 0.33884 0.0
C624 C 0.46137 0.6983 0.33216 0.0
C625 C 0.44896 0.67908 0.30999 0.0
C626 C 0.53405 0.79644 0.36224 0.0
C627 C 0.5247 0.85835 0.37088 0.0
C628 C 0.56362 0.75814 0.37573 0.0
C629 C 0.57764 0.69441 0.3674 0.0
C630 C 0.53972 0.61913 0.37721 0.0
C631 C 0.55253 0.55877 0.36932 0.0
C632 C 0.60353 0.57319 0.35169 0.0
C633 C 0.6421 0.64812 0.34198 0.0
C634 C 0.62957 0.7087 0.34982 0.0
C635 C 0.58885 0.92395 0.46324 0.0
C636 C 0.66996 0.95572 0.46776 0.0
C637 C 0.55687 0.88359 0.44369 0.0
C638 C 0.60593 0.87615 0.42813 0.0
C639 C 0.68615 0.90476 0.43309 0.0
C640 C 0.71798 0.94467 0.45267 0.0
C641 C 0.57653 0.84664 0.40584 0.0
C642 C 0.58388 0.78332 0.3974 0.0
C643 C 0.54624 0.88439 0.39241 0.0
C644 C 0.53947 0.95321 0.40014 0.0
C645 C 0.60725 0.02407 0.40662 0.0
C646 C 0.59992 0.08772 0.41458 0.0
C647 C 0.52516 0.08133 0.41598 0.0
C648 C 0.45767 0.01145 0.40931 0.0
C649 C 0.46468 0.94766 0.40134 0.0
H650 H 0.51951 0.13054 0.42221 0.0
H651 H 0.61333 0.52637 0.3456 0.0
H652 H 0.94876 0.46915 0.73719 0.0
H653 H 0.92102 0.43405 0.69856 0.0
H654 H 0.80233 0.18514 0.71528 0.0
H655 H 0.83304 0.2203 0.75363 0.0
H656 H 0.88223 0.20183 0.68133 0.0
H657 H 0.70531 0.29313 0.70284 0.0
H658 H 0.66703 0.38637 0.71791 0.0
H659 H 0.79554 0.55319 0.66717 0.0
H660 H 0.83724 0.46148 0.65213 0.0
H661 H 0.58974 0.10559 0.58712 0.0
H662 H 0.64399 0.1729 0.6218 0.0
H663 H 0.87676 0.21897 0.60237 0.0
H664 H 0.82179 0.14865 0.56807 0.0
H665 H 0.75008 0.31313 0.63617 0.0
H666 H 0.96964 0.1981 0.64546 0.0
H667 H 0.98773 0.08761 0.63266 0.0
H668 H 0.73552 0.93952 0.62533 0.0
H669 H 0.71605 0.04929 0.63815 0.0
C670 C 0.91676 0.40704 0.73253 0.0
C671 C 0.89303 0.34741 0.74836 0.0
C672 C 0.90076 0.38694 0.71047 0.0
C673 C 0.85876 0.30678 0.70389 0.0
C674 C 0.83524 0.24738 0.7198 0.0
C675 C 0.85255 0.26745 0.74174 0.0
C676 C 0.83801 0.28399 0.68059 0.0
C677 C 0.85382 0.22676 0.67148 0.0
C678 C 0.79997 0.31542 0.66762 0.0
C679 C 0.7753 0.37088 0.67655 0.0
C680 C 0.72614 0.35001 0.695 0.0
C681 C 0.70368 0.40264 0.70353 0.0
C682 C 0.72855 0.47582 0.69353 0.0
C683 C 0.77635 0.49655 0.67495 0.0
C684 C 0.79968 0.44435 0.66644 0.0
C685 C 0.65275 0.13133 0.59014 0.0
C686 C 0.70165 0.12263 0.57484 0.0
C687 C 0.68379 0.17 0.60992 0.0
C688 C 0.7643 0.20017 0.61486 0.0
C689 C 0.81422 0.19517 0.59908 0.0
C690 C 0.78294 0.15577 0.57934 0.0
C691 C 0.79374 0.23079 0.63713 0.0
C692 C 0.77977 0.28949 0.64599 0.0
C693 C 0.83068 0.19859 0.65016 0.0
C694 C 0.84159 0.13213 0.64251 0.0
C695 C 0.91811 0.14191 0.64112 0.0
C696 C 0.92858 0.07943 0.63384 0.0
C697 C 0.86285 0.0066 0.62809 0.0
C698 C 0.78643 -0.00393 0.62966 0.0
C699 C 0.77567 0.05848 0.63687 0.0
H700 H 0.87115 0.95831 0.62246 0.0
H701 H 0.71072 0.51634 0.70015 0.0
loop_
_geom_bond_atom_site_label_1
_geom_bond_atom_site_label_2
_geom_bond_distance
_geom_bond_site_symmetry_2
_ccdc_geom_bond_type
Gd0 N31 2.661 . S
Gd0 N37 2.601 . S
Gd0 O44 2.545 . S
Gd0 O45 2.606 1_655 S
Gd0 O47 2.429 . S
Gd0 O48 2.545 . S
Gd0 O49 2.412 . S
Gd0 O51 2.362 . S
Gd0 O52 2.324 . S
Gd0 C59 2.828 . S
Gd1 N10 2.661 . S
Gd1 N14 2.601 . S
Gd1 O45 2.362 . S
Gd1 O46 2.324 . S
Gd1 O50 2.545 . S
Gd1 O51 2.606 1_455 S
Gd1 O53 2.429 . S
Gd1 O54 2.545 . S
Gd1 O55 2.412 . S
Gd1 C68 2.828 . S
C2 C5 1.417 . S
C2 C7 1.431 . S
C2 C8 1.412 . S
C3 C6 1.437 . S
C3 C7 1.317 . S
C3 H22 0.929 . S
C4 C5 1.426 . S
C4 C6 1.413 . S
C4 N14 1.359 . S
C5 C2 1.417 . S
C5 C4 1.426 . S
C5 N10 1.350 . S
C6 C3 1.437 . S
C6 C4 1.413 . S
C6 C16 1.391 . S
C7 C2 1.431 . S
C7 C3 1.317 . S
C7 H18 0.930 . S
C8 C2 1.412 . S
C8 C9 1.355 . S
C8 H20 0.930 . S
C9 C8 1.355 . S
C9 C11 1.402 . S
C9 H21 0.930 . S
N10 Gd1 2.661 . S
N10 C5 1.350 . S
N10 C11 1.307 . S
C11 C9 1.402 . S
C11 N10 1.307 . S
C11 H12 0.930 . S
H12 C11 0.930 . S
C13 N14 1.334 . S
C13 C15 1.394 . S
C13 H17 0.930 . S
N14 Gd1 2.601 . S
N14 C4 1.359 . S
N14 C13 1.334 . S
C15 C13 1.394 . S
C15 C16 1.359 . S
C15 H27 0.930 . S
C16 C6 1.391 . S
C16 C15 1.359 . S
C16 H28 0.929 . S
H17 C13 0.930 . S
H18 C7 0.930 . S
H19 C36 0.930 . S
H20 C8 0.930 . S
H21 C9 0.930 . S
H22 C3 0.929 . S
H23 C41 0.930 . S
H24 C32 0.930 . S
H25 C33 0.930 . S
H26 C57 0.929 . S
H27 C15 0.930 . S
H28 C16 0.929 . S
H29 C58 0.930 . S
H30 C39 0.930 . S
N31 Gd0 2.661 . S
N31 C35 1.350 . S
N31 C36 1.307 . S
C32 H24 0.930 . S
C32 C33 1.355 . S
C32 C34 1.412 . S
C33 H25 0.930 . S
C33 C32 1.355 . S
C33 C36 1.402 . S
C34 C32 1.412 . S
C34 C35 1.417 . S
C34 C58 1.431 . S
C35 N31 1.350 . S
C35 C34 1.417 . S
C35 C38 1.426 . S
C36 H19 0.930 . S
C36 N31 1.307 . S
C36 C33 1.402 . S
N37 Gd0 2.601 . S
N37 C38 1.359 . S
N37 C41 1.334 . S
C38 C35 1.426 . S
C38 N37 1.359 . S
C38 C42 1.413 . S
C39 H30 0.930 . S
C39 C40 1.359 . S
C39 C41 1.394 . S
C40 C39 1.359 . S
C40 C42 1.391 . S
C40 H43 0.929 . S
C41 H23 0.930 . S
C41 N37 1.334 . S
C41 C39 1.394 . S
C42 C38 1.413 . S
C42 C40 1.391 . S
C42 C57 1.437 . S
H43 C40 0.929 . S
O44 Gd0 2.545 . S
O44 C59 1.258 . S
O45 Gd0 2.606 1_455 S
O45 Gd1 2.362 . S
O45 C56 1.284 . S
O46 Gd1 2.324 . S
O46 C66 1.254 . S
O47 Gd0 2.429 . S
O47 C66 1.268 1_655 S
O48 Gd0 2.545 . S
O48 C56 1.250 1_655 S
O49 Gd0 2.412 . S
O49 C59 1.252 . S
O50 Gd1 2.545 . S
O50 C68 1.258 . S
O51 Gd0 2.362 . S
O51 Gd1 2.606 1_655 S
O51 C67 1.284 . S
O52 Gd0 2.324 . S
O52 C75 1.254 . S
O53 Gd1 2.429 . S
O53 C75 1.268 1_455 S
O54 Gd1 2.545 . S
O54 C67 1.250 1_455 S
O55 Gd1 2.412 . S
O55 C68 1.252 . S
C56 O45 1.284 . S
C56 O48 1.250 1_455 S
C57 H26 0.929 . S
C57 C42 1.437 . S
C57 C58 1.317 . S
C58 H29 0.930 . S
C58 C34 1.431 . S
C58 C57 1.317 . S
C59 Gd0 2.828 . S
C59 O44 1.258 . S
C59 O49 1.252 . S
C59 C60 1.497 . S
C60 C59 1.497 . S
C60 C61 1.395 . S
C60 C62 1.380 . S
C61 C60 1.395 . S
C61 C64 1.398 . S
C61 H76 0.930 . S
C62 C60 1.380 . S
C62 C63 1.391 . S
C62 H77 0.930 . S
C63 C62 1.391 . S
C63 C65 1.387 . S
C64 C61 1.398 . S
C64 C65 1.380 . S
C64 H78 0.930 . S
C65 C63 1.387 . S
C65 C64 1.380 . S
C65 H79 0.930 . S
C66 O46 1.254 . S
C66 O47 1.268 1_455 S
C67 O51 1.284 . S
C67 O54 1.250 1_655 S
C68 Gd1 2.828 . S
C68 O50 1.258 . S
C68 O55 1.252 . S
C68 C69 1.497 . S
C69 C68 1.497 . S
C69 C70 1.395 . S
C69 C71 1.380 . S
C70 C69 1.395 . S
C70 C73 1.398 . S
C70 H80 0.930 . S
C71 C69 1.380 . S
C71 C72 1.391 . S
C71 H81 0.930 . S
C72 C71 1.391 . S
C72 C74 1.387 . S
C73 C70 1.398 . S
C73 C74 1.380 . S
C73 H82 0.930 . S
C74 C72 1.387 . S
C74 C73 1.380 . S
C74 H83 0.930 . S
C75 O52 1.254 . S
C75 O53 1.268 1_655 S
H76 C61 0.930 . S
H77 C62 0.930 . S
H78 C64 0.930 . S
H79 C65 0.930 . S
H80 C70 0.930 . S
H81 C71 0.930 . S
H82 C73 0.930 . S
H83 C74 0.930 . S
Gd84 N115 2.661 . S
Gd84 N121 2.601 . S
Gd84 O128 2.545 . S
Gd84 O129 2.606 . S
Gd84 O131 2.429 . S
Gd84 O132 2.545 . S
Gd84 O133 2.412 . S
Gd84 O135 2.362 . S
Gd84 O136 2.324 . S
Gd84 C143 2.828 . S
Gd85 N94 2.661 1_545 S
Gd85 N98 2.601 1_545 S
Gd85 O129 2.362 . S
Gd85 O130 2.324 . S
Gd85 O134 2.545 . S
Gd85 O135 2.606 . S
Gd85 O137 2.429 . S
Gd85 O138 2.545 . S
Gd85 O139 2.412 . S
Gd85 C152 2.828 1_545 S
C86 C89 1.417 . S
C86 C91 1.431 . S
C86 C92 1.412 . S
C87 C90 1.437 . S
C87 C91 1.317 . S
C87 H106 0.929 . S
C88 C89 1.426 . S
C88 C90 1.413 . S
C88 N98 1.359 . S
C89 C86 1.417 . S
C89 C88 1.426 . S
C89 N94 1.350 . S
C90 C87 1.437 . S
C90 C88 1.413 . S
C90 C100 1.391 . S
C91 C86 1.431 . S
C91 C87 1.317 . S
C91 H102 0.930 . S
C92 C86 1.412 . S
C92 C93 1.355 . S
C92 H104 0.930 . S
C93 C92 1.355 . S
C93 C95 1.402 . S
C93 H105 0.930 . S
N94 Gd85 2.661 1_565 S
N94 C89 1.350 . S
N94 C95 1.307 . S
C95 C93 1.402 . S
C95 N94 1.307 . S
C95 H96 0.930 1_565 S
H96 C95 0.930 1_545 S
C97 N98 1.334 . S
C97 C99 1.394 . S
C97 H101 0.930 1_565 S
N98 Gd85 2.601 1_565 S
N98 C88 1.359 . S
N98 C97 1.334 . S
C99 C97 1.394 . S
C99 C100 1.359 . S
C99 H111 0.930 . S
C100 C90 1.391 . S
C100 C99 1.359 . S
C100 H112 0.929 . S
H101 C97 0.930 1_545 S
H102 C91 0.930 . S
H103 C120 0.930 . S
H104 C92 0.930 . S
H105 C93 0.930 . S
H106 C87 0.929 . S
H107 C125 0.930 . S
H108 C116 0.930 . S
H109 C117 0.930 . S
H110 C141 0.929 . S
H111 C99 0.930 . S
H112 C100 0.929 . S
H113 C142 0.930 . S
H114 C123 0.930 . S
N115 Gd84 2.661 . S
N115 C119 1.350 . S
N115 C120 1.307 . S
C116 H108 0.930 . S
C116 C117 1.355 . S
C116 C118 1.412 . S
C117 H109 0.930 . S
C117 C116 1.355 . S
C117 C120 1.402 . S
C118 C116 1.412 . S
C118 C119 1.417 . S
C118 C142 1.431 1_655 S
C119 N115 1.350 . S
C119 C118 1.417 . S
C119 C122 1.426 . S
C120 H103 0.930 . S
C120 N115 1.307 . S
C120 C117 1.402 . S
N121 Gd84 2.601 . S
N121 C122 1.359 . S
N121 C125 1.334 1_655 S
C122 C119 1.426 . S
C122 N121 1.359 . S
C122 C126 1.413 1_655 S
C123 H114 0.930 . S
C123 C124 1.359 . S
C123 C125 1.394 . S
C124 C123 1.359 . S
C124 C126 1.391 . S
C124 H127 0.929 . S
C125 H107 0.930 . S
C125 N121 1.334 1_455 S
C125 C123 1.394 . S
C126 C122 1.413 1_455 S
C126 C124 1.391 . S
C126 C141 1.437 . S
H127 C124 0.929 . S
O128 Gd84 2.545 . S
O128 C143 1.258 . S
O129 Gd84 2.606 . S
O129 Gd85 2.362 . S
O129 C140 1.284 . S
O130 Gd85 2.324 . S
O130 C150 1.254 . S
O131 Gd84 2.429 . S
O131 C150 1.268 . S
O132 Gd84 2.545 . S
O132 C140 1.250 . S
O133 Gd84 2.412 . S
O133 C143 1.252 . S
O134 Gd85 2.545 . S
O134 C152 1.258 1_545 S
O135 Gd84 2.362 . S
O135 Gd85 2.606 . S
O135 C151 1.284 . S
O136 Gd84 2.324 . S
O136 C159 1.254 . S
O137 Gd85 2.429 . S
O137 C159 1.268 . S
O138 Gd85 2.545 . S
O138 C151 1.250 . S
O139 Gd85 2.412 . S
O139 C152 1.252 1_545 S
C140 O129 1.284 . S
C140 O132 1.250 . S
C141 H110 0.929 . S
C141 C126 1.437 . S
C141 C142 1.317 . S
C142 H113 0.930 . S
C142 C118 1.431 1_455 S
C142 C141 1.317 . S
C143 Gd84 2.828 . S
C143 O128 1.258 . S
C143 O133 1.252 . S
C143 C144 1.497 . S
C144 C143 1.497 . S
C144 C145 1.395 . S
C144 C146 1.380 . S
C145 C144 1.395 . S
C145 C148 1.398 . S
C145 H160 0.930 1_655 S
C146 C144 1.380 . S
C146 C147 1.391 . S
C146 H161 0.930 . S
C147 C146 1.391 . S
C147 C149 1.387 . S
C148 C145 1.398 . S
C148 C149 1.380 . S
C148 H162 0.930 1_655 S
C149 C147 1.387 . S
C149 C148 1.380 . S
C149 H163 0.930 . S
C150 O130 1.254 . S
C150 O131 1.268 . S
C151 O135 1.284 . S
C151 O138 1.250 . S
C152 Gd85 2.828 1_565 S
C152 O134 1.258 1_565 S
C152 O139 1.252 1_565 S
C152 C153 1.497 . S
C153 C152 1.497 . S
C153 C154 1.395 . S
C153 C155 1.380 . S
C154 C153 1.395 . S
C154 C157 1.398 . S
C154 H164 0.930 . S
C155 C153 1.380 . S
C155 C156 1.391 . S
C155 H165 0.930 . S
C156 C155 1.391 . S
C156 C158 1.387 . S
C157 C154 1.398 . S
C157 C158 1.380 . S
C157 H166 0.930 . S
C158 C156 1.387 . S
C158 C157 1.380 . S
C158 H167 0.930 . S
C159 O136 1.254 . S
C159 O137 1.268 . S
H160 C145 0.930 1_455 S
H161 C146 0.930 . S
H162 C148 0.930 1_455 S
H163 C149 0.930 . S
H164 C154 0.930 . S
H165 C155 0.930 . S
H166 C157 0.930 . S
H167 C158 0.930 . S
Gd168 N199 2.661 . S
Gd168 N205 2.601 . S
Gd168 O212 2.545 . S
Gd168 O213 2.606 . S
Gd168 O215 2.429 . S
Gd168 O216 2.545 . S
Gd168 O217 2.412 . S
Gd168 O219 2.362 . S
Gd168 O220 2.324 . S
Gd168 C227 2.828 . S
Gd169 N178 2.661 . S
Gd169 N182 2.601 . S
Gd169 O213 2.362 . S
Gd169 O214 2.324 . S
Gd169 O218 2.545 . S
Gd169 O219 2.606 . S
Gd169 O221 2.429 . S
Gd169 O222 2.545 . S
Gd169 O223 2.412 . S
Gd169 C236 2.828 . S
C170 C173 1.417 . S
C170 C175 1.431 . S
C170 C176 1.412 . S
C171 C174 1.437 . S
C171 C175 1.317 . S
C171 H190 0.929 . S
C172 C173 1.426 . S
C172 C174 1.413 . S
C172 N182 1.359 . S
C173 C170 1.417 . S
C173 C172 1.426 . S
C173 N178 1.350 . S
C174 C171 1.437 . S
C174 C172 1.413 . S
C174 C184 1.391 . S
C175 C170 1.431 . S
C175 C171 1.317 . S
C175 H186 0.930 . S
C176 C170 1.412 . S
C176 C177 1.355 . S
C176 H188 0.930 . S
C177 C176 1.355 . S
C177 C179 1.402 . S
C177 H189 0.930 . S
N178 Gd169 2.661 . S
N178 C173 1.350 . S
N178 C179 1.307 . S
C179 C177 1.402 . S
C179 N178 1.307 . S
C179 H180 0.930 . S
H180 C179 0.930 . S
C181 N182 1.334 . S
C181 C183 1.394 . S
C181 H185 0.930 . S
N182 Gd169 2.601 . S
N182 C172 1.359 . S
N182 C181 1.334 . S
C183 C181 1.394 . S
C183 C184 1.359 . S
C183 H195 0.930 . S
C184 C174 1.391 . S
C184 C183 1.359 . S
C184 H196 0.929 . S
H185 C181 0.930 . S
H186 C175 0.930 . S
H187 C204 0.930 . S
H188 C176 0.930 . S
H189 C177 0.930 . S
H190 C171 0.929 . S
H191 C209 0.930 . S
H192 C200 0.930 . S
H193 C201 0.930 . S
H194 C225 0.929 . S
H195 C183 0.930 . S
H196 C184 0.929 . S
H197 C226 0.930 . S
H198 C207 0.930 . S
N199 Gd168 2.661 . S
N199 C203 1.350 . S
N199 C204 1.307 . S
C200 H192 0.930 . S
C200 C201 1.355 . S
C200 C202 1.412 1_455 S
C201 H193 0.930 . S
C201 C200 1.355 . S
C201 C204 1.402 1_455 S
C202 C200 1.412 1_655 S
C202 C203 1.417 . S
C202 C226 1.431 . S
C203 N199 1.350 . S
C203 C202 1.417 . S
C203 C206 1.426 . S
C204 H187 0.930 . S
C204 N199 1.307 . S
C204 C201 1.402 1_655 S
N205 Gd168 2.601 . S
N205 C206 1.359 . S
N205 C209 1.334 . S
C206 C203 1.426 . S
C206 N205 1.359 . S
C206 C210 1.413 . S
C207 H198 0.930 . S
C207 C208 1.359 . S
C207 C209 1.394 . S
C208 C207 1.359 . S
C208 C210 1.391 . S
C208 H211 0.929 1_545 S
C209 H191 0.930 . S
C209 N205 1.334 . S
C209 C207 1.394 . S
C210 C206 1.413 . S
C210 C208 1.391 . S
C210 C225 1.437 . S
H211 C208 0.929 1_565 S
O212 Gd168 2.545 . S
O212 C227 1.258 . S
O213 Gd168 2.606 . S
O213 Gd169 2.362 . S
O213 C224 1.284 . S
O214 Gd169 2.324 . S
O214 C234 1.254 . S
O215 Gd168 2.429 . S
O215 C234 1.268 . S
O216 Gd168 2.545 . S
O216 C224 1.250 . S
O217 Gd168 2.412 . S
O217 C227 1.252 . S
O218 Gd169 2.545 . S
O218 C236 1.258 . S
O219 Gd168 2.362 . S
O219 Gd169 2.606 . S
O219 C235 1.284 . S
O220 Gd168 2.324 . S
O220 C243 1.254 . S
O221 Gd169 2.429 . S
O221 C243 1.268 . S
O222 Gd169 2.545 . S
O222 C235 1.250 . S
O223 Gd169 2.412 . S
O223 C236 1.252 . S
C224 O213 1.284 . S
C224 O216 1.250 . S
C225 H194 0.929 . S
C225 C210 1.437 . S
C225 C226 1.317 . S
C226 H197 0.930 . S
C226 C202 1.431 . S
C226 C225 1.317 . S
C227 Gd168 2.828 . S
C227 O212 1.258 . S
C227 O217 1.252 . S
C227 C228 1.497 . S
C228 C227 1.497 . S
C228 C229 1.395 . S
C228 C230 1.380 . S
C229 C228 1.395 . S
C229 C232 1.398 . S
C229 H244 0.930 . S
C230 C228 1.380 . S
C230 C231 1.391 . S
C230 H245 0.930 . S
C231 C230 1.391 . S
C231 C233 1.387 . S
C232 C229 1.398 . S
C232 C233 1.380 . S
C232 H246 0.930 . S
C233 C231 1.387 . S
C233 C232 1.380 . S
C233 H247 0.930 . S
C234 O214 1.254 . S
C234 O215 1.268 . S
C235 O219 1.284 . S
C235 O222 1.250 . S
C236 Gd169 2.828 . S
C236 O218 1.258 . S
C236 O223 1.252 . S
C236 C237 1.497 . S
C237 C236 1.497 . S
C237 C238 1.395 . S
C237 C239 1.380 . S
C238 C237 1.395 . S
C238 C241 1.398 . S
C238 H248 0.930 . S
C239 C237 1.380 . S
C239 C240 1.391 . S
C239 H249 0.930 . S
C240 C239 1.391 . S
C240 C242 1.387 . S
C241 C238 1.398 . S
C241 C242 1.380 . S
C241 H250 0.930 . S
C242 C240 1.387 . S
C242 C241 1.380 . S
C242 H251 0.930 . S
C243 O220 1.254 . S
C243 O221 1.268 . S
H244 C229 0.930 . S
H245 C230 0.930 . S
H246 C232 0.930 . S
H247 C233 0.930 . S
H248 C238 0.930 . S
H249 C239 0.930 . S
H250 C241 0.930 . S
H251 C242 0.930 . S
H252 C270 0.951 . S
H253 C272 0.951 . S
H254 C274 0.950 . S
H255 C275 0.950 . S
H256 C277 0.950 . S
H257 C280 0.950 . S
H258 C281 0.950 . S
H259 C283 0.950 . S
H260 C284 0.950 . S
H261 C285 0.951 . S
H262 C287 0.951 . S
H263 C289 0.950 . S
H264 C290 0.950 . S
H265 C292 0.950 . S
H266 C295 0.950 . S
H267 C296 0.950 . S
H268 C298 0.950 . S
H269 C299 0.950 . S
C270 H252 0.951 . S
C270 C271 1.366 1_655 S
C270 C272 1.388 . S
C271 C270 1.366 1_455 S
C271 C275 1.385 . S
C272 H253 0.951 . S
C272 C270 1.388 . S
C272 C273 1.366 1_655 S
C273 C272 1.366 1_455 S
C273 C274 1.414 . S
C273 C276 1.499 . S
C274 H254 0.950 . S
C274 C273 1.414 . S
C274 C275 1.374 . S
C275 H255 0.950 . S
C275 C271 1.385 . S
C275 C274 1.374 . S
C276 C273 1.499 . S
C276 C277 1.373 1_455 S
C276 C278 1.389 . S
C277 H256 0.950 . S
C277 C276 1.373 1_655 S
C277 C293 1.377 . S
C278 C276 1.389 . S
C278 C279 1.524 . S
C278 C292 1.377 . S
C279 C278 1.524 . S
C279 C280 1.397 . S
C279 C284 1.363 . S
C280 H257 0.950 . S
C280 C279 1.397 . S
C280 C281 1.334 . S
C281 H258 0.950 . S
C281 C280 1.334 . S
C281 C282 1.287 . S
C282 C281 1.287 . S
C282 C283 1.524 . S
C282 H301 0.913 . S
C283 H259 0.950 . S
C283 C282 1.524 . S
C283 C284 1.415 . S
C284 H260 0.950 . S
C284 C279 1.363 . S
C284 C283 1.415 . S
C285 H261 0.951 . S
C285 C286 1.366 1_455 S
C285 C287 1.388 . S
C286 C285 1.366 1_655 S
C286 C290 1.385 . S
C287 H262 0.951 . S
C287 C285 1.388 . S
C287 C288 1.366 1_455 S
C288 C287 1.366 1_655 S
C288 C289 1.414 . S
C288 C291 1.499 1_545 S
C289 H263 0.950 . S
C289 C288 1.414 . S
C289 C290 1.374 . S
C290 H264 0.950 . S
C290 C286 1.385 . S
C290 C289 1.374 . S
C291 C288 1.499 1_565 S
C291 C292 1.373 1_655 S
C291 C293 1.389 . S
C292 H265 0.950 . S
C292 C278 1.377 . S
C292 C291 1.373 1_455 S
C293 C277 1.377 . S
C293 C291 1.389 . S
C293 C294 1.524 . S
C294 C293 1.524 . S
C294 C295 1.397 . S
C294 C299 1.363 . S
C295 H266 0.950 . S
C295 C294 1.397 . S
C295 C296 1.334 . S
C296 H267 0.950 . S
C296 C295 1.334 . S
C296 C297 1.287 . S
C297 C296 1.287 . S
C297 C298 1.524 . S
C297 H300 0.999 . S
C298 H268 0.950 . S
C298 C297 1.524 . S
C298 C299 1.415 . S
C299 H269 0.950 . S
C299 C294 1.363 . S
C299 C298 1.415 . S
H300 C297 0.999 . S
H301 C282 0.913 . S
H302 C320 0.951 . S
H303 C322 0.951 . S
H304 C324 0.950 . S
H305 C325 0.950 . S
H306 C327 0.950 . S
H307 C330 0.950 . S
H308 C331 0.950 . S
H309 C333 0.950 . S
H310 C334 0.950 . S
H311 C335 0.951 . S
H312 C337 0.951 . S
H313 C339 0.950 . S
H314 C340 0.950 . S
H315 C342 0.950 . S
H316 C345 0.950 . S
H317 C346 0.950 1_655 S
H318 C348 0.950 . S
H319 C349 0.950 . S
C320 H302 0.951 . S
C320 C321 1.366 . S
C320 C322 1.388 . S
C321 C320 1.366 . S
C321 C325 1.385 . S
C322 H303 0.951 . S
C322 C320 1.388 . S
C322 C323 1.366 . S
C323 C322 1.366 . S
C323 C324 1.414 . S
C323 C326 1.499 . S
C324 H304 0.950 . S
C324 C323 1.414 . S
C324 C325 1.374 . S
C325 H305 0.950 . S
C325 C321 1.385 . S
C325 C324 1.374 . S
C326 C323 1.499 . S
C326 C327 1.373 . S
C326 C328 1.389 . S
C327 H306 0.950 . S
C327 C326 1.373 . S
C327 C343 1.377 . S
C328 C326 1.389 . S
C328 C329 1.524 . S
C328 C342 1.377 . S
C329 C328 1.524 . S
C329 C330 1.397 . S
C329 C334 1.363 . S
C330 H307 0.950 . S
C330 C329 1.397 . S
C330 C331 1.334 . S
C331 H308 0.950 . S
C331 C330 1.334 . S
C331 C332 1.287 . S
C332 C331 1.287 . S
C332 C333 1.524 . S
C332 H351 0.913 . S
C333 H309 0.950 . S
C333 C332 1.524 . S
C333 C334 1.415 . S
C334 H310 0.950 . S
C334 C329 1.363 . S
C334 C333 1.415 . S
C335 H311 0.951 . S
C335 C336 1.366 1_455 S
C335 C337 1.388 . S
C336 C335 1.366 1_655 S
C336 C340 1.385 . S
C337 H312 0.951 . S
C337 C335 1.388 . S
C337 C338 1.366 . S
C338 C337 1.366 . S
C338 C339 1.414 . S
C338 C341 1.499 . S
C339 H313 0.950 . S
C339 C338 1.414 . S
C339 C340 1.374 1_455 S
C340 H314 0.950 . S
C340 C336 1.385 . S
C340 C339 1.374 1_655 S
C341 C338 1.499 . S
C341 C342 1.373 . S
C341 C343 1.389 . S
C342 H315 0.950 . S
C342 C328 1.377 . S
C342 C341 1.373 . S
C343 C327 1.377 . S
C343 C341 1.389 . S
C343 C344 1.524 . S
C344 C343 1.524 . S
C344 C345 1.397 . S
C344 C349 1.363 . S
C345 H316 0.950 . S
C345 C344 1.397 . S
C345 C346 1.334 1_545 S
C346 H317 0.950 1_455 S
C346 C345 1.334 1_565 S
C346 C347 1.287 . S
C347 C346 1.287 . S
C347 C348 1.524 1_565 S
C347 H350 0.999 . S
C348 H318 0.950 . S
C348 C347 1.524 1_545 S
C348 C349 1.415 . S
C349 H319 0.950 . S
C349 C344 1.363 . S
C349 C348 1.415 . S
H350 C347 0.999 . S
H351 C332 0.913 . S
H352 C370 0.951 . S
H353 C372 0.951 . S
H354 C374 0.950 . S
H355 C375 0.950 . S
H356 C377 0.950 . S
H357 C380 0.950 . S
H358 C381 0.950 . S
H359 C383 0.950 . S
H360 C384 0.950 . S
H361 C385 0.951 . S
H362 C387 0.951 . S
H363 C389 0.950 . S
H364 C390 0.950 . S
H365 C392 0.950 . S
H366 C395 0.950 . S
H367 C396 0.950 . S
H368 C398 0.950 . S
H369 C399 0.950 . S
C370 H352 0.951 . S
C370 C371 1.366 1_455 S
C370 C372 1.388 . S
C371 C370 1.366 1_655 S
C371 C375 1.385 . S
C372 H353 0.951 . S
C372 C370 1.388 . S
C372 C373 1.366 . S
C373 C372 1.366 . S
C373 C374 1.414 . S
C373 C376 1.499 . S
C374 H354 0.950 . S
C374 C373 1.414 . S
C374 C375 1.374 1_455 S
C375 H355 0.950 . S
C375 C371 1.385 . S
C375 C374 1.374 1_655 S
C376 C373 1.499 . S
C376 C377 1.373 . S
C376 C378 1.389 . S
C377 H356 0.950 . S
C377 C376 1.373 . S
C377 C393 1.377 . S
C378 C376 1.389 . S
C378 C379 1.524 . S
C378 C392 1.377 . S
C379 C378 1.524 . S
C379 C380 1.397 . S
C379 C384 1.363 . S
C380 H357 0.950 . S
C380 C379 1.397 . S
C380 C381 1.334 . S
C381 H358 0.950 . S
C381 C380 1.334 . S
C381 C382 1.287 . S
C382 C381 1.287 . S
C382 C383 1.524 . S
C382 H401 0.913 . S
C383 H359 0.950 . S
C383 C382 1.524 . S
C383 C384 1.415 . S
C384 H360 0.950 . S
C384 C379 1.363 . S
C384 C383 1.415 . S
C385 H361 0.951 . S
C385 C386 1.366 . S
C385 C387 1.388 . S
C386 C385 1.366 . S
C386 C390 1.385 . S
C387 H362 0.951 . S
C387 C385 1.388 . S
C387 C388 1.366 . S
C388 C387 1.366 . S
C388 C389 1.414 . S
C388 C391 1.499 1_545 S
C389 H363 0.950 . S
C389 C388 1.414 . S
C389 C390 1.374 . S
C390 H364 0.950 . S
C390 C386 1.385 . S
C390 C389 1.374 . S
C391 C388 1.499 1_565 S
C391 C392 1.373 . S
C391 C393 1.389 . S
C392 H365 0.950 . S
C392 C378 1.377 . S
C392 C391 1.373 . S
C393 C377 1.377 . S
C393 C391 1.389 . S
C393 C394 1.524 . S
C394 C393 1.524 . S
C394 C395 1.397 . S
C394 C399 1.363 . S
C395 H366 0.950 . S
C395 C394 1.397 . S
C395 C396 1.334 1_565 S
C396 H367 0.950 . S
C396 C395 1.334 1_545 S
C396 C397 1.287 . S
C397 C396 1.287 . S
C397 C398 1.524 . S
C397 H400 0.999 . S
C398 H368 0.950 . S
C398 C397 1.524 . S
C398 C399 1.415 1_545 S
C399 H369 0.950 . S
C399 C394 1.363 . S
C399 C398 1.415 1_565 S
H400 C397 0.999 . S
H401 C382 0.913 . S
H402 C420 0.951 . S
H403 C422 0.951 1_554 S
H404 C424 0.950 . S
H405 C425 0.950 . S
H406 C427 0.975 . S
H407 C430 0.950 . S
H408 C431 0.950 . S
H409 C433 0.950 . S
H410 C434 0.950 . S
H411 C435 0.951 . S
H412 C437 0.951 . S
H413 C439 0.950 . S
H414 C440 0.950 . S
H415 C442 0.950 . S
H416 C445 0.950 . S
H417 C446 0.950 . S
H418 C448 0.950 1_556 S
H419 C449 0.950 . S
C420 H402 0.951 . S
C420 C421 1.366 . S
C420 C422 1.388 . S
C421 C420 1.366 . S
C421 C425 1.385 . S
C422 H403 0.951 1_556 S
C422 C420 1.388 . S
C422 C423 1.366 . S
C423 C422 1.366 . S
C423 C424 1.414 . S
C423 C426 1.499 1_556 S
C424 H404 0.950 . S
C424 C423 1.414 . S
C424 C425 1.374 . S
C425 H405 0.950 . S
C425 C421 1.385 . S
C425 C424 1.374 . S
C426 C423 1.499 1_554 S
C426 C427 1.373 . S
C426 C428 1.389 . S
C427 H406 0.975 . S
C427 C426 1.373 . S
C427 C443 1.377 . S
C428 C426 1.389 . S
C428 C429 1.524 . S
C428 C442 1.377 . S
C429 C428 1.524 . S
C429 C430 1.397 . S
C429 C434 1.363 . S
C430 H407 0.950 . S
C430 C429 1.397 . S
C430 C431 1.334 . S
C431 H408 0.950 . S
C431 C430 1.334 . S
C431 C432 1.287 . S
C432 C431 1.287 . S
C432 C433 1.524 . S
C432 H451 0.913 . S
C433 H409 0.950 . S
C433 C432 1.524 . S
C433 C434 1.415 . S
C434 H410 0.950 . S
C434 C429 1.363 . S
C434 C433 1.415 . S
C435 H411 0.951 . S
C435 C436 1.366 . S
C435 C437 1.388 . S
C436 C435 1.366 . S
C436 C440 1.385 . S
C437 H412 0.951 . S
C437 C435 1.388 . S
C437 C438 1.366 . S
C438 C437 1.366 . S
C438 C439 1.414 . S
C438 C441 1.499 . S
C439 H413 0.950 . S
C439 C438 1.414 . S
C439 C440 1.374 . S
C440 H414 0.950 . S
C440 C436 1.385 . S
C440 C439 1.374 . S
C441 C438 1.499 . S
C441 C442 1.373 . S
C441 C443 1.389 . S
C442 H415 0.950 . S
C442 C428 1.377 . S
C442 C441 1.373 . S
C443 C427 1.377 . S
C443 C441 1.389 . S
C443 C444 1.524 . S
C444 C443 1.524 . S
C444 C445 1.397 . S
C444 C449 1.363 . S
C445 H416 0.950 . S
C445 C444 1.397 . S
C445 C446 1.334 . S
C446 H417 0.950 . S
C446 C445 1.334 . S
C446 C447 1.287 . S
C447 C446 1.287 . S
C447 C448 1.524 . S
C447 H450 0.999 . S
C448 H418 0.950 1_554 S
C448 C447 1.524 . S
C448 C449 1.415 . S
C449 H419 0.950 . S
C449 C444 1.363 . S
C449 C448 1.415 . S
H450 C447 0.999 . S
H451 C432 0.913 . S
H452 C470 0.951 . S
H453 C472 0.951 . S
H454 C474 0.950 . S
H455 C475 0.950 . S
H456 C477 0.950 . S
H457 C480 0.950 . S
H458 C481 0.950 . S
H459 C483 0.950 . S
H460 C484 0.950 . S
H461 C485 0.951 . S
H462 C487 0.951 . S
H463 C489 0.950 . S
H464 C490 0.950 . S
H465 C492 0.950 . S
H466 C495 0.950 . S
H467 C496 0.950 . S
H468 C498 0.950 . S
H469 C499 0.950 . S
C470 H452 0.951 . S
C470 C471 1.366 . S
C470 C472 1.388 . S
C471 C470 1.366 . S
C471 C475 1.385 . S
C472 H453 0.951 . S
C472 C470 1.388 . S
C472 C473 1.366 . S
C473 C472 1.366 . S
C473 C474 1.414 . S
C473 C476 1.499 . S
C474 H454 0.950 . S
C474 C473 1.414 . S
C474 C475 1.374 . S
C475 H455 0.950 . S
C475 C471 1.385 . S
C475 C474 1.374 . S
C476 C473 1.499 . S
C476 C477 1.373 . S
C476 C478 1.389 . S
C477 H456 0.950 . S
C477 C476 1.373 . S
C477 C493 1.377 . S
C478 C476 1.389 . S
C478 C479 1.524 . S
C478 C492 1.377 . S
C479 C478 1.524 . S
C479 C480 1.397 . S
C479 C484 1.363 . S
C480 H457 0.950 . S
C480 C479 1.397 . S
C480 C481 1.334 . S
C481 H458 0.950 . S
C481 C480 1.334 . S
C481 C482 1.287 . S
C482 C481 1.287 . S
C482 C483 1.524 . S
C482 H501 0.913 . S
C483 H459 0.950 . S
C483 C482 1.524 . S
C483 C484 1.415 . S
C484 H460 0.950 . S
C484 C479 1.363 . S
C484 C483 1.415 . S
C485 H461 0.951 . S
C485 C486 1.366 . S
C485 C487 1.388 . S
C486 C485 1.366 . S
C486 C490 1.385 . S
C487 H462 0.951 . S
C487 C485 1.388 . S
C487 C488 1.366 . S
C488 C487 1.366 . S
C488 C489 1.414 . S
C488 C491 1.499 . S
C489 H463 0.950 . S
C489 C488 1.414 . S
C489 C490 1.374 . S
C490 H464 0.950 . S
C490 C486 1.385 . S
C490 C489 1.374 . S
C491 C488 1.499 . S
C491 C492 1.373 . S
C491 C493 1.389 . S
C492 H465 0.950 . S
C492 C478 1.377 . S
C492 C491 1.373 . S
C493 C477 1.377 . S
C493 C491 1.389 . S
C493 C494 1.524 . S
C494 C493 1.524 . S
C494 C495 1.397 . S
C494 C499 1.363 . S
C495 H466 0.950 . S
C495 C494 1.397 . S
C495 C496 1.334 . S
C496 H467 0.950 . S
C496 C495 1.334 . S
C496 C497 1.287 . S
C497 C496 1.287 . S
C497 C498 1.524 . S
C497 H500 0.999 . S
C498 H468 0.950 . S
C498 C497 1.524 . S
C498 C499 1.415 . S
C499 H469 0.950 . S
C499 C494 1.363 . S
C499 C498 1.415 . S
H500 C497 0.999 . S
H501 C482 0.913 . S
H502 C520 0.951 . S
H503 C522 0.951 . S
H504 C524 0.950 . S
H505 C525 0.950 . S
H506 C527 0.950 . S
H507 C530 0.950 . S
H508 C531 0.950 . S
H509 C533 0.950 . S
H510 C534 0.950 . S
H511 C535 0.951 . S
H512 C537 0.951 . S
H513 C539 0.950 . S
H514 C540 0.950 . S
H515 C542 0.950 . S
H516 C545 0.950 . S
H517 C546 0.950 1_545 S
H518 C548 0.950 . S
H519 C549 0.950 . S
C520 H502 0.951 . S
C520 C521 1.366 . S
C520 C522 1.388 . S
C521 C520 1.366 . S
C521 C525 1.385 . S
C522 H503 0.951 . S
C522 C520 1.388 . S
C522 C523 1.366 . S
C523 C522 1.366 . S
C523 C524 1.414 . S
C523 C526 1.499 . S
C524 H504 0.950 . S
C524 C523 1.414 . S
C524 C525 1.374 . S
C525 H505 0.950 . S
C525 C521 1.385 . S
C525 C524 1.374 . S
C526 C523 1.499 . S
C526 C527 1.373 . S
C526 C528 1.389 . S
C527 H506 0.950 . S
C527 C526 1.373 . S
C527 C543 1.377 . S
C528 C526 1.389 . S
C528 C529 1.524 . S
C528 C542 1.377 . S
C529 C528 1.524 . S
C529 C530 1.397 . S
C529 C534 1.363 . S
C530 H507 0.950 . S
C530 C529 1.397 . S
C530 C531 1.334 . S
C531 H508 0.950 . S
C531 C530 1.334 . S
C531 C532 1.287 . S
C532 C531 1.287 . S
C532 C533 1.524 . S
C532 H551 0.913 . S
C533 H509 0.950 . S
C533 C532 1.524 . S
C533 C534 1.415 . S
C534 H510 0.950 . S
C534 C529 1.363 . S
C534 C533 1.415 . S
C535 H511 0.951 . S
C535 C536 1.366 . S
C535 C537 1.388 . S
C536 C535 1.366 . S
C536 C540 1.385 . S
C537 H512 0.951 . S
C537 C535 1.388 . S
C537 C538 1.366 . S
C538 C537 1.366 . S
C538 C539 1.414 . S
C538 C541 1.499 . S
C539 H513 0.950 . S
C539 C538 1.414 . S
C539 C540 1.374 . S
C540 H514 0.950 . S
C540 C536 1.385 . S
C540 C539 1.374 . S
C541 C538 1.499 . S
C541 C542 1.373 . S
C541 C543 1.389 . S
C542 H515 0.950 . S
C542 C528 1.377 . S
C542 C541 1.373 . S
C543 C527 1.377 . S
C543 C541 1.389 . S
C543 C544 1.524 . S
C544 C543 1.524 . S
C544 C545 1.397 . S
C544 C549 1.363 . S
C545 H516 0.950 . S
C545 C544 1.397 . S
C545 C546 1.334 . S
C546 H517 0.950 1_565 S
C546 C545 1.334 . S
C546 C547 1.287 1_655 S
C547 C546 1.287 1_455 S
C547 C548 1.524 . S
C547 H550 0.999 1_565 S
C548 H518 0.950 . S
C548 C547 1.524 . S
C548 C549 1.415 1_455 S
C549 H519 0.950 . S
C549 C544 1.363 . S
C549 C548 1.415 1_655 S
H550 C547 0.999 1_545 S
H551 C532 0.913 . S
H552 C570 0.951 . S
H553 C572 0.951 . S
H554 C574 0.950 . S
H555 C575 0.950 . S
H556 C577 0.950 . S
H557 C580 0.950 . S
H558 C581 0.950 . S
H559 C583 0.950 1_565 S
H560 C584 0.950 . S
H561 C585 0.951 . S
H562 C587 0.951 . S
H563 C589 0.950 . S
H564 C590 0.950 . S
H565 C592 0.950 . S
H566 C595 0.947 1_556 S
H567 C596 0.950 . S
H568 C598 0.950 . S
H569 C599 0.950 . S
C570 H552 0.951 . S
C570 C571 1.366 . S
C570 C572 1.388 . S
C571 C570 1.366 . S
C571 C575 1.385 . S
C572 H553 0.951 . S
C572 C570 1.388 . S
C572 C573 1.366 . S
C573 C572 1.366 . S
C573 C574 1.414 . S
C573 C576 1.499 . S
C574 H554 0.950 . S
C574 C573 1.414 . S
C574 C575 1.374 . S
C575 H555 0.950 . S
C575 C571 1.385 . S
C575 C574 1.374 . S
C576 C573 1.499 . S
C576 C577 1.373 . S
C576 C578 1.389 . S
C577 H556 0.950 . S
C577 C576 1.373 . S
C577 C593 1.377 . S
C578 C576 1.389 . S
C578 C579 1.524 . S
C578 C592 1.377 . S
C579 C578 1.524 . S
C579 C580 1.397 . S
C579 C584 1.363 . S
C580 H557 0.950 . S
C580 C579 1.397 . S
C580 C581 1.334 . S
C581 H558 0.950 . S
C581 C580 1.334 . S
C581 C582 1.287 . S
C582 C581 1.287 . S
C582 C583 1.524 . S
C582 H601 0.913 . S
C583 H559 0.950 1_545 S
C583 C582 1.524 . S
C583 C584 1.415 . S
C584 H560 0.950 . S
C584 C579 1.363 . S
C584 C583 1.415 . S
C585 H561 0.951 . S
C585 C586 1.366 . S
C585 C587 1.388 . S
C586 C585 1.366 . S
C586 C590 1.385 . S
C587 H562 0.951 . S
C587 C585 1.388 . S
C587 C588 1.366 . S
C588 C587 1.366 . S
C588 C589 1.414 . S
C588 C591 1.499 1_554 S
C589 H563 0.950 . S
C589 C588 1.414 . S
C589 C590 1.374 . S
C590 H564 0.950 . S
C590 C586 1.385 . S
C590 C589 1.374 . S
C591 C588 1.499 1_556 S
C591 C592 1.373 . S
C591 C593 1.389 . S
C592 H565 0.950 . S
C592 C578 1.377 . S
C592 C591 1.373 . S
C593 C577 1.377 . S
C593 C591 1.389 . S
C593 C594 1.524 . S
C594 C593 1.524 . S
C594 C595 1.379 1_556 S
C594 C599 1.363 . S
C595 H566 0.947 1_554 S
C595 C594 1.379 1_554 S
C595 C596 1.356 1_655 S
C596 H567 0.950 . S
C596 C595 1.356 1_455 S
C596 C597 1.287 . S
C597 C596 1.287 . S
C597 C598 1.524 . S
C597 H600 0.999 . S
C598 H568 0.950 . S
C598 C597 1.524 . S
C598 C599 1.415 1_454 S
C599 H569 0.950 . S
C599 C594 1.363 . S
C599 C598 1.415 1_656 S
H600 C597 0.999 . S
H601 C582 0.913 . S
H602 C620 0.951 . S
H603 C622 0.951 . S
H604 C624 0.950 . S
H605 C625 0.950 . S
H606 C627 0.950 . S
H607 C630 0.950 . S
H608 C631 0.950 . S
H609 C633 0.950 . S
H610 C634 0.950 . S
H611 C635 0.951 . S
H612 C637 0.951 . S
H613 C639 0.950 . S
H614 C640 0.950 . S
H615 C642 0.950 . S
H616 C645 0.950 . S
H617 C646 0.950 . S
H618 C648 0.950 . S
H619 C649 0.950 . S
C620 H602 0.951 . S
C620 C621 1.366 . S
C620 C622 1.388 . S
C621 C620 1.366 . S
C621 C625 1.385 . S
C622 H603 0.951 . S
C622 C620 1.388 . S
C622 C623 1.366 . S
C623 C622 1.366 . S
C623 C624 1.414 . S
C623 C626 1.499 . S
C624 H604 0.950 . S
C624 C623 1.414 . S
C624 C625 1.374 . S
C625 H605 0.950 . S
C625 C621 1.385 . S
C625 C624 1.374 . S
C626 C623 1.499 . S
C626 C627 1.373 . S
C626 C628 1.389 . S
C627 H606 0.950 . S
C627 C626 1.373 . S
C627 C643 1.377 . S
C628 C626 1.389 . S
C628 C629 1.524 . S
C628 C642 1.377 . S
C629 C628 1.524 . S
C629 C630 1.397 . S
C629 C634 1.363 . S
C630 H607 0.950 . S
C630 C629 1.397 . S
C630 C631 1.334 . S
C631 H608 0.950 . S
C631 C630 1.334 . S
C631 C632 1.287 . S
C632 C631 1.287 . S
C632 C633 1.524 . S
C632 H651 0.913 . S
C633 H609 0.950 . S
C633 C632 1.524 . S
C633 C634 1.415 . S
C634 H610 0.950 . S
C634 C629 1.363 . S
C634 C633 1.415 . S
C635 H611 0.951 . S
C635 C636 1.366 1_565 S
C635 C637 1.388 . S
C636 C635 1.366 1_545 S
C636 C640 1.385 . S
C637 H612 0.951 . S
C637 C635 1.388 . S
C637 C638 1.366 . S
C638 C637 1.366 . S
C638 C639 1.414 1_565 S
C638 C641 1.499 . S
C639 H613 0.950 . S
C639 C638 1.414 1_545 S
C639 C640 1.374 . S
C640 H614 0.950 . S
C640 C636 1.385 . S
C640 C639 1.374 . S
C641 C638 1.499 . S
C641 C642 1.373 . S
C641 C643 1.389 . S
C642 H615 0.950 . S
C642 C628 1.377 . S
C642 C641 1.373 . S
C643 C627 1.377 . S
C643 C641 1.389 . S
C643 C644 1.524 . S
C644 C643 1.524 . S
C644 C645 1.397 1_565 S
C644 C649 1.363 . S
C645 H616 0.950 . S
C645 C644 1.397 1_545 S
C645 C646 1.334 . S
C646 H617 0.950 . S
C646 C645 1.334 . S
C646 C647 1.287 . S
C647 C646 1.287 . S
C647 C648 1.524 1_545 S
C647 H650 0.999 . S
C648 H618 0.950 . S
C648 C647 1.524 1_565 S
C648 C649 1.415 . S
C649 H619 0.950 . S
C649 C644 1.363 . S
C649 C648 1.415 . S
H650 C647 0.999 . S
H651 C632 0.913 . S
H652 C670 0.951 . S
H653 C672 0.951 . S
H654 C674 0.950 . S
H655 C675 0.950 . S
H656 C677 0.950 . S
H657 C680 0.950 . S
H658 C681 0.950 . S
H659 C683 0.950 . S
H660 C684 0.950 . S
H661 C685 0.951 . S
H662 C687 0.951 . S
H663 C689 0.950 . S
H664 C690 0.950 . S
H665 C692 0.950 . S
H666 C695 0.950 1_455 S
H667 C696 0.950 . S
H668 C698 0.950 . S
H669 C699 0.950 . S
C670 H652 0.951 . S
C670 C671 1.366 . S
C670 C672 1.388 . S
C671 C670 1.366 . S
C671 C675 1.385 1_455 S
C672 H653 0.951 . S
C672 C670 1.388 . S
C672 C673 1.366 1_455 S
C673 C672 1.366 1_655 S
C673 C674 1.414 . S
C673 C676 1.499 . S
C674 H654 0.950 . S
C674 C673 1.414 . S
C674 C675 1.374 . S
C675 H655 0.950 . S
C675 C671 1.385 1_655 S
C675 C674 1.374 . S
C676 C673 1.499 . S
C676 C677 1.373 . S
C676 C678 1.389 . S
C677 H656 0.950 . S
C677 C676 1.373 . S
C677 C693 1.377 . S
C678 C676 1.389 . S
C678 C679 1.524 . S
C678 C692 1.377 . S
C679 C678 1.524 . S
C679 C680 1.397 . S
C679 C684 1.363 . S
C680 H657 0.950 . S
C680 C679 1.397 . S
C680 C681 1.334 . S
C681 H658 0.950 . S
C681 C680 1.334 . S
C681 C682 1.287 . S
C682 C681 1.287 . S
C682 C683 1.524 . S
C682 H701 0.913 . S
C683 H659 0.950 . S
C683 C682 1.524 . S
C683 C684 1.415 . S
C684 H660 0.950 . S
C684 C679 1.363 . S
C684 C683 1.415 . S
C685 H661 0.951 . S
C685 C686 1.366 . S
C685 C687 1.388 . S
C686 C685 1.366 . S
C686 C690 1.385 . S
C687 H662 0.951 . S
C687 C685 1.388 . S
C687 C688 1.366 . S
C688 C687 1.366 . S
C688 C689 1.414 . S
C688 C691 1.499 . S
C689 H663 0.950 . S
C689 C688 1.414 . S
C689 C690 1.374 . S
C690 H664 0.950 . S
C690 C686 1.385 . S
C690 C689 1.374 . S
C691 C688 1.499 . S
C691 C692 1.373 . S
C691 C693 1.389 . S
C692 H665 0.950 . S
C692 C678 1.377 . S
C692 C691 1.373 . S
C693 C677 1.377 . S
C693 C691 1.389 . S
C693 C694 1.524 . S
C694 C693 1.524 . S
C694 C695 1.397 . S
C694 C699 1.363 . S
C695 H666 0.950 1_655 S
C695 C694 1.397 . S
C695 C696 1.334 1_655 S
C696 H667 0.950 . S
C696 C695 1.334 1_455 S
C696 C697 1.287 1_455 S
C697 C696 1.287 1_655 S
C697 C698 1.524 . S
C697 H700 0.999 . S
C698 H668 0.950 . S
C698 C697 1.524 . S
C698 C699 1.415 . S
C699 H669 0.950 . S
C699 C694 1.363 . S
C699 C698 1.415 . S
H700 C697 0.999 . S
H701 C682 0.913 . S
C271 C66 1.313 . S
C286 C75 1.313 . S
C321 C159 1.312 . S
C336 C150 1.312 . S
C371 C243 1.313 . S
C386 C234 1.313 . S
C421 C240 1.983 . S
C436 C56 2.142 . S
C471 C147 0.852 . S
C486 C67 0.911 . S
C521 C224 2.142 . S
C536 C156 1.983 . S
C571 C235 0.912 . S
C586 C63 0.850 . S
C621 C72 1.985 . S
C636 C140 2.142 . S
C671 C231 0.850 1_455 S
C686 C151 0.912 . S
