# Generated by pormake.
# Topology unn, (4)-cn, num edge types: 1
# Building blocks:
#     Node 0, Type 0, BuildingBlock: CEKHIL_clean_sbu_0, # of connection points: 4
#     Node 1, Type 0, BuildingBlock: CEKHIL_clean_sbu_0, # of connection points: 4
#     Node 2, Type 0, BuildingBlock: CEKHIL_clean_sbu_0, # of connection points: 4
#     Node 3, Type 0, BuildingBlock: CEKHIL_clean_sbu_0, # of connection points: 4
#     Node 4, Type 0, BuildingBlock: CEKHIL_clean_sbu_0, # of connection points: 4
#     Node 5, Type 0, BuildingBlock: CEKHIL_clean_sbu_0, # of connection points: 4
#     Node 6, Type 0, BuildingBlock: CEKHIL_clean_sbu_0, # of connection points: 4
#     Node 7, Type 0, BuildingBlock: CEKHIL_clean_sbu_0, # of connection points: 4
#     Node 8, Type 0, BuildingBlock: CEKHIL_clean_sbu_0, # of connection points: 4
#     Node 9, Type 0, BuildingBlock: CEKHIL_clean_sbu_0, # of connection points: 4
#     Node 10, Type 0, BuildingBlock: CEKHIL_clean_sbu_0, # of connection points: 4
#     Node 11, Type 0, BuildingBlock: CEKHIL_clean_sbu_0, # of connection points: 4
#     Node 12, Type 0, BuildingBlock: CEKHIL_clean_sbu_0, # of connection points: 4
#     Node 13, Type 0, BuildingBlock: CEKHIL_clean_sbu_0, # of connection points: 4
#     Node 14, Type 0, BuildingBlock: CEKHIL_clean_sbu_0, # of connection points: 4
#     Node 15, Type 0, BuildingBlock: CEKHIL_clean_sbu_0, # of connection points: 4
#     Node 16, Type 0, BuildingBlock: CEKHIL_clean_sbu_0, # of connection points: 4
#     Node 17, Type 0, BuildingBlock: CEKHIL_clean_sbu_0, # of connection points: 4
#     Edge 18, Type (0, 0), BuildingBlock: MIFKUJ_clean_linker_0, # of connection points: 2
#     Edge 19, Type (0, 0), BuildingBlock: MIFKUJ_clean_linker_0, # of connection points: 2
#     Edge 20, Type (0, 0), BuildingBlock: MIFKUJ_clean_linker_0, # of connection points: 2
#     Edge 21, Type (0, 0), BuildingBlock: MIFKUJ_clean_linker_0, # of connection points: 2
#     Edge 22, Type (0, 0), BuildingBlock: MIFKUJ_clean_linker_0, # of connection points: 2
#     Edge 23, Type (0, 0), BuildingBlock: MIFKUJ_clean_linker_0, # of connection points: 2
#     Edge 24, Type (0, 0), BuildingBlock: MIFKUJ_clean_linker_0, # of connection points: 2
#     Edge 25, Type (0, 0), BuildingBlock: MIFKUJ_clean_linker_0, # of connection points: 2
#     Edge 26, Type (0, 0), BuildingBlock: MIFKUJ_clean_linker_0, # of connection points: 2
#     Edge 27, Type (0, 0), BuildingBlock: MIFKUJ_clean_linker_0, # of connection points: 2
#     Edge 28, Type (0, 0), BuildingBlock: MIFKUJ_clean_linker_0, # of connection points: 2
#     Edge 29, Type (0, 0), BuildingBlock: MIFKUJ_clean_linker_0, # of connection points: 2
#     Edge 30, Type (0, 0), BuildingBlock: MIFKUJ_clean_linker_0, # of connection points: 2
#     Edge 31, Type (0, 0), BuildingBlock: MIFKUJ_clean_linker_0, # of connection points: 2
#     Edge 32, Type (0, 0), BuildingBlock: MIFKUJ_clean_linker_0, # of connection points: 2
#     Edge 33, Type (0, 0), BuildingBlock: MIFKUJ_clean_linker_0, # of connection points: 2
#     Edge 34, Type (0, 0), BuildingBlock: MIFKUJ_clean_linker_0, # of connection points: 2
#     Edge 35, Type (0, 0), BuildingBlock: MIFKUJ_clean_linker_0, # of connection points: 2
#     Edge 36, Type (0, 0), BuildingBlock: MIFKUJ_clean_linker_0, # of connection points: 2
#     Edge 37, Type (0, 0), BuildingBlock: MIFKUJ_clean_linker_0, # of connection points: 2
#     Edge 38, Type (0, 0), BuildingBlock: MIFKUJ_clean_linker_0, # of connection points: 2
#     Edge 39, Type (0, 0), BuildingBlock: MIFKUJ_clean_linker_0, # of connection points: 2
#     Edge 40, Type (0, 0), BuildingBlock: MIFKUJ_clean_linker_0, # of connection points: 2
#     Edge 41, Type (0, 0), BuildingBlock: MIFKUJ_clean_linker_0, # of connection points: 2
#     Edge 42, Type (0, 0), BuildingBlock: MIFKUJ_clean_linker_0, # of connection points: 2
#     Edge 43, Type (0, 0), BuildingBlock: MIFKUJ_clean_linker_0, # of connection points: 2
#     Edge 44, Type (0, 0), BuildingBlock: MIFKUJ_clean_linker_0, # of connection points: 2
#     Edge 45, Type (0, 0), BuildingBlock: MIFKUJ_clean_linker_0, # of connection points: 2
#     Edge 46, Type (0, 0), BuildingBlock: MIFKUJ_clean_linker_0, # of connection points: 2
#     Edge 47, Type (0, 0), BuildingBlock: MIFKUJ_clean_linker_0, # of connection points: 2
#     Edge 48, Type (0, 0), BuildingBlock: MIFKUJ_clean_linker_0, # of connection points: 2
#     Edge 49, Type (0, 0), BuildingBlock: MIFKUJ_clean_linker_0, # of connection points: 2
#     Edge 50, Type (0, 0), BuildingBlock: MIFKUJ_clean_linker_0, # of connection points: 2
#     Edge 51, Type (0, 0), BuildingBlock: MIFKUJ_clean_linker_0, # of connection points: 2
#     Edge 52, Type (0, 0), BuildingBlock: MIFKUJ_clean_linker_0, # of connection points: 2
#     Edge 53, Type (0, 0), BuildingBlock: MIFKUJ_clean_linker_0, # of connection points: 2
# Relax obj value: 0.132
# Max RMSD: 0.233
# Mean RMSD: 0.227
data_MOF--net-unn--node1-CEKHIL_clean_sbu_0--edge1-MIFKUJ_clean_linker_0
_symmetry_space_group_name_H-M    P1
_symmetry_Int_Tables_number       1
_symmetry_cell_setting            triclinic
loop_
_symmetry_equiv_pos_as_xyz
'x, y, z'
_cell_length_a     60.553674
_cell_length_b     60.40147
_cell_length_c     48.394079
_cell_angle_alpha  90.196498
_cell_angle_beta   89.966953
_cell_angle_gamma 120.27722
loop_
_atom_site_label
_atom_site_type_symbol
_atom_site_fract_x
_atom_site_fract_y
_atom_site_fract_z
_atom_type_partial_charge
Co0 Co 0.98783 0.73031 0.26376 0.0
O1 O 0.95155 0.70984 0.25887 0.0
O2 O 0.97521 0.7481 0.24035 0.0
C3 C 0.9894 0.72455 0.30903 0.0
O4 O 0.02664 0.75635 0.26691 0.0
Co5 Co 0.01426 0.69933 0.27992 0.0
O6 O 0.04304 0.73429 0.28791 0.0
C7 C 0.99707 0.69665 0.22336 0.0
C8 C 0.95271 0.72755 0.24301 0.0
C9 C 0.04506 0.75514 0.27921 0.0
O10 O 0.99281 0.71482 0.22945 0.0
O11 O 1.00399 0.68582 0.24127 0.0
O12 O 0.98375 0.74145 0.30027 0.0
O13 O 0.98947 0.70922 0.29039 0.0
Co14 Co 0.27719 0.27892 0.23497 0.0
O15 O 0.26851 0.30328 0.2484 0.0
O16 O 0.24616 0.26224 0.25836 0.0
C17 C 0.28338 0.29374 0.19157 0.0
O18 O 0.28315 0.24956 0.22245 0.0
Co19 Co 0.33354 0.30442 0.21461 0.0
O20 O 0.32095 0.26952 0.19956 0.0
C21 C 0.32266 0.30178 0.27371 0.0
C22 C 0.24941 0.28522 0.26136 0.0
C23 C 0.30061 0.2493 0.20707 0.0
O24 O 0.2992 0.28556 0.26825 0.0
O25 O 0.33942 0.31391 0.25501 0.0
O26 O 0.26063 0.27687 0.19988 0.0
O27 O 0.30087 0.30243 0.21041 0.0
Co28 Co 0.74447 0.99822 0.21208 0.0
O29 O 0.723 0.9619 0.21744 0.0
O30 O 0.762 0.98468 0.23449 0.0
C31 C 0.73695 0.99909 0.16691 0.0
O32 O 0.77164 0.03672 0.20854 0.0
Co33 Co 0.71566 0.02723 0.19684 0.0
O34 O 0.7509 0.05463 0.18779 0.0
C35 C 0.71424 0.01099 0.25371 0.0
C36 C 0.741 0.96248 0.23232 0.0
C37 C 0.77132 0.05564 0.19627 0.0
O38 O 0.73087 0.00468 0.24706 0.0
O39 O 0.70387 0.01871 0.23614 0.0
O40 O 0.75355 0.99279 0.17493 0.0
O41 O 0.7232 1.00075 0.1863 0.0
Co42 Co 0.02305 0.26988 0.73033 0.0
O43 O 0.05835 0.29186 0.73954 0.0
O44 O 0.03735 0.25026 0.74749 0.0
C45 C 0.02801 0.28725 0.68836 0.0
O46 O 0.98564 0.24205 0.72123 0.0
Co47 Co 0.99155 0.29674 0.71916 0.0
O48 O 0.96733 0.26322 0.70255 0.0
C49 C 0.00602 0.29228 0.77592 0.0
C50 C 0.05882 0.27213 0.74873 0.0
C51 C 0.96717 0.24256 0.70818 0.0
O52 O 0.01325 0.27677 0.7675 0.0
O53 O 0.9983 0.30372 0.75974 0.0
O54 O 0.03266 0.26871 0.69224 0.0
O55 O 0.02187 0.29529 0.71013 0.0
Co56 Co 0.78787 0.75741 0.75984 0.0
O57 O 0.79861 0.73394 0.74835 0.0
O58 O 0.81091 0.77075 0.72763 0.0
C59 C 0.79393 0.75479 0.80506 0.0
O60 O 0.77928 0.78582 0.76836 0.0
Co61 Co 0.73837 0.73236 0.7964 0.0
O62 O 0.74678 0.76851 0.79938 0.0
C63 C 0.73346 0.72608 0.73654 0.0
C64 C 0.81162 0.7495 0.72875 0.0
C65 C 0.76324 0.78728 0.78502 0.0
O66 O 0.75777 0.74085 0.73429 0.0
O67 O 0.7219 0.71821 0.75966 0.0
O68 O 0.81323 0.77037 0.78986 0.0
O69 O 0.7731 0.73978 0.79204 0.0
Co70 Co 0.28835 0.04058 0.75838 0.0
O71 O 0.3024 0.07659 0.75203 0.0
O72 O 0.26754 0.04623 0.73154 0.0
C73 C 0.29266 0.0426 0.80428 0.0
O74 O 0.2685 1.00109 0.76212 0.0
Co75 Co 0.32639 0.02468 0.78105 0.0
O76 O 0.29481 0.9908 0.78467 0.0
C77 C 0.32993 0.03937 0.72341 0.0
C78 C 0.28445 0.07057 0.73406 0.0
C79 C 0.27313 0.98471 0.77422 0.0
O80 O 0.30892 0.03935 0.72665 0.0
O81 O 0.34161 0.03558 0.7432 0.0
O82 O 0.27298 0.04239 0.79316 0.0
O83 O 0.31022 0.04503 0.78736 0.0
Co84 Co 0.66111 0.06293 0.57966 0.0
O85 O 0.62796 0.04169 0.5638 0.0
O86 O 0.65106 0.08342 0.55692 0.0
C87 C 0.64801 0.04545 0.6216 0.0
O88 O 0.69694 0.08984 0.59445 0.0
Co89 Co 0.68781 0.03441 0.60174 0.0
O90 O 0.71057 0.06769 0.61984 0.0
C91 C 0.68404 0.03976 0.54196 0.0
C92 C 0.62999 0.06176 0.55222 0.0
C93 C 0.71287 0.08874 0.61156 0.0
O94 O 0.6765 0.05577 0.54684 0.0
O95 O 0.68803 0.02753 0.56102 0.0
O96 O 0.64564 0.06475 0.61405 0.0
O97 O 0.65713 0.03676 0.60311 0.0
Co98 Co 0.95857 0.60556 0.571 0.0
O99 O 0.978 0.58927 0.56364 0.0
O100 O 0.94955 0.58843 0.53464 0.0
C101 C 0.94892 0.59181 0.6145 0.0
O102 O 0.93492 0.62096 0.57462 0.0
Co103 Co 0.98244 0.64837 0.61643 0.0
O104 O 0.94837 0.64525 0.61354 0.0
C105 C 1.00529 0.65874 0.56155 0.0
C106 C 0.96671 0.58197 0.54001 0.0
C107 C 0.93246 0.63468 0.59378 0.0
O108 O 0.98606 0.63758 0.55314 0.0
O109 O 0.00866 0.66613 0.58678 0.0
O110 O 0.93513 0.57674 0.59454 0.0
O111 O 0.96912 0.61268 0.6072 0.0
Co112 Co 0.41603 0.36286 0.58763 0.0
O113 O 0.43281 0.39959 0.58542 0.0
O114 O 0.44238 0.37578 0.55892 0.0
C115 C 0.41567 0.3593 0.63372 0.0
O116 O 0.40229 0.32388 0.58611 0.0
Co117 Co 0.36178 0.33578 0.61448 0.0
O118 O 0.36681 0.30587 0.61291 0.0
C119 C 0.36732 0.35412 0.55799 0.0
C120 C 0.44622 0.39849 0.56519 0.0
C121 C 0.38377 0.30445 0.59866 0.0
O122 O 0.39083 0.36001 0.55896 0.0
O123 O 0.35212 0.34517 0.57859 0.0
O124 O 0.43627 0.36483 0.61993 0.0
O125 O 0.39793 0.36011 0.61973 0.0
Co126 Co 0.66026 0.60035 0.08042 0.0
O127 O 0.62549 0.58619 0.06873 0.0
O128 O 0.65262 0.57696 0.04881 0.0
C129 C 0.65172 0.59489 0.12576 0.0
O130 O 0.69807 0.61227 0.08908 0.0
Co131 Co 0.68213 0.65024 0.11661 0.0
O132 O 0.71063 0.64338 0.12168 0.0
C133 C 0.67848 0.65363 0.05654 0.0
C134 C 0.62969 0.57395 0.04943 0.0
C135 C 0.71455 0.62826 0.10674 0.0
O136 O 0.6712 0.6297 0.05429 0.0
O137 O 0.68198 0.66514 0.07977 0.0
O138 O 0.64979 0.57589 0.11111 0.0
O139 O 0.65589 0.61485 0.11208 0.0
Co140 Co 0.42931 0.07016 0.09072 0.0
O141 O 0.44068 0.04685 0.08078 0.0
O142 O 0.45188 0.0826 0.05816 0.0
C143 C 0.43733 0.07074 0.13586 0.0
O144 O 0.41962 0.09806 0.0977 0.0
Co145 Co 0.38104 0.04593 0.12889 0.0
O146 O 0.39139 0.08252 0.13317 0.0
C147 C 0.37471 0.03462 0.06963 0.0
C148 C 0.45324 0.06177 0.06058 0.0
C149 C 0.40575 0.10048 0.11664 0.0
O150 O 0.39862 0.05079 0.06632 0.0
O151 O 0.36395 0.02844 0.09335 0.0
O152 O 0.45567 0.08554 0.11922 0.0
O153 O 0.41608 0.05432 0.12424 0.0
Co154 Co 0.96455 0.3679 0.09062 0.0
O155 O 0.98866 0.40203 0.07875 0.0
O156 O 0.94915 0.37981 0.06288 0.0
C157 C 0.97177 0.37476 0.13592 0.0
O158 O 0.93534 0.3313 0.1001 0.0
Co159 Co 0.98949 0.33931 0.11925 0.0
O160 O 0.95332 0.31589 0.12973 0.0
C161 C 0.99144 0.34418 0.0592 0.0
C162 C 0.97139 0.40088 0.06225 0.0
C163 C 0.93389 0.31431 0.11755 0.0
O164 O 0.9767 0.35369 0.06072 0.0
O165 O 1.00086 0.3392 0.08033 0.0
O166 O 0.95635 0.38077 0.12383 0.0
O167 O 0.98463 0.36852 0.11966 0.0
Co168 Co 0.34184 0.40597 0.90448 0.0
O169 O 0.30621 0.38085 0.90224 0.0
O170 O 0.32716 0.40855 0.86916 0.0
C171 C 0.34018 0.41862 0.9476 0.0
O172 O 0.37966 0.43495 0.90225 0.0
Co173 Co 0.3722 0.39444 0.94913 0.0
O174 O 0.39798 0.43048 0.94106 0.0
C175 C 0.35986 0.36712 0.89623 0.0
C176 C 0.30556 0.38951 0.87812 0.0
C177 C 0.39857 0.44286 0.91953 0.0
O178 O 0.35061 0.38092 0.88761 0.0
O179 O 0.36832 0.36847 0.92076 0.0
O180 O 0.3339 0.42812 0.92707 0.0
O181 O 0.34422 0.40018 0.94148 0.0
Co182 Co 0.61557 0.94949 0.89454 0.0
O183 O 0.59979 0.96966 0.90124 0.0
O184 O 0.60146 0.94369 0.93212 0.0
C185 C 0.5979 0.93482 0.85312 0.0
O186 O 0.63116 0.92592 0.89225 0.0
Co187 Co 0.65411 0.96859 0.84537 0.0
O188 O 0.65046 0.93442 0.8504 0.0
C189 C 0.67019 0.99559 0.89809 0.0
C190 C 0.59457 0.96037 0.92589 0.0
C191 C 0.64257 0.92112 0.87238 0.0
O192 O 0.64875 0.97862 0.90839 0.0
O193 O 0.67631 0.99599 0.87273 0.0
O194 O 0.58515 0.92352 0.87528 0.0
O195 O 0.61914 0.95609 0.85693 0.0
Co196 Co 0.08358 0.67817 0.9043 0.0
O197 O 0.06185 0.64327 0.91514 0.0
O198 O 0.1013 0.66744 0.93049 0.0
C199 C 0.07439 0.67076 0.85927 0.0
O200 O 0.11037 0.7159 0.89537 0.0
Co201 Co 0.05331 0.70297 0.88007 0.0
O202 O 0.08831 0.73167 0.87309 0.0
C203 C 0.05015 0.69144 0.93883 0.0
C204 C 0.0799 0.64545 0.93103 0.0
C205 C 0.10913 0.73397 0.88221 0.0
O206 O 0.0698 0.68887 0.93596 0.0
O207 O 0.03886 0.69512 0.91853 0.0
O208 O 0.0921 0.66727 0.86991 0.0
O209 O 0.06158 0.67606 0.87668 0.0
Co210 Co 0.34812 0.93237 0.41706 0.0
O211 O 0.38163 0.95414 0.43188 0.0
O212 O 0.35704 0.91358 0.44372 0.0
C213 C 0.36073 0.94474 0.37353 0.0
O214 O 0.31184 0.90508 0.40378 0.0
Co215 Co 0.32334 0.96064 0.38856 0.0
O216 O 0.29907 0.9258 0.37479 0.0
C217 C 0.33046 0.96346 0.4487 0.0
C218 C 0.37871 0.93507 0.44647 0.0
C219 C 0.29617 0.90531 0.38563 0.0
O220 O 0.33389 0.94418 0.44727 0.0
O221 O 0.32794 0.97443 0.42732 0.0
O222 O 0.36295 0.92628 0.38424 0.0
O223 O 0.35254 0.95585 0.38999 0.0
Co224 Co 0.09953 0.41939 0.41216 0.0
O225 O 0.10786 0.39274 0.40886 0.0
O226 O 0.11682 0.42216 0.37698 0.0
C227 C 0.11349 0.43036 0.45559 0.0
O228 O 0.09288 0.44974 0.41018 0.0
Co229 Co 0.05825 0.4107 0.45662 0.0
O230 O 0.07111 0.44733 0.44912 0.0
C231 C 0.04214 0.38324 0.40378 0.0
C232 C 0.11748 0.40186 0.38489 0.0
C233 C 0.08304 0.45894 0.4273 0.0
O234 O 0.06533 0.39595 0.39502 0.0
O235 O 0.03527 0.38543 0.42813 0.0
O236 O 0.12979 0.43974 0.43543 0.0
O237 O 0.09059 0.41305 0.44895 0.0
Co238 Co 0.63297 0.69737 0.42404 0.0
O239 O 0.65796 0.73247 0.41603 0.0
O240 O 0.62115 0.71076 0.39411 0.0
C241 C 0.63445 0.70118 0.47023 0.0
O242 O 0.6026 0.66043 0.42887 0.0
Co243 Co 0.65368 0.66639 0.45618 0.0
O244 O 0.61668 0.64078 0.45786 0.0
C245 C 0.66364 0.67523 0.39707 0.0
C246 C 0.64278 0.73222 0.39712 0.0
C247 C 0.59901 0.64123 0.44403 0.0
O248 O 0.64906 0.68503 0.39613 0.0
O249 O 0.6699 0.66876 0.41957 0.0
O250 O 0.62078 0.70822 0.45614 0.0
O251 O 0.64894 0.69566 0.45587 0.0
H252 H 0.97974 0.71339 0.18095 0.0
H253 H 0.98254 0.70704 0.13186 0.0
H254 H 0.01231 0.65697 0.14933 0.0
H255 H 0.01039 0.66391 0.19893 0.0
H256 H 0.04263 0.69492 0.11556 0.0
H257 H 0.95137 0.63479 0.11945 0.0
H258 H 0.90682 0.62173 0.13134 0.0
H259 H 0.91127 0.6822 0.08092 0.0
H260 H 0.95583 0.69568 0.06883 0.0
H261 H 0.05526 0.66528 0.98107 0.0
H262 H 0.03965 0.6612 0.02802 0.0
H263 H 0.0074 0.70867 0.00802 0.0
H264 H 0.02179 0.71154 0.95997 0.0
H265 H 0.97685 0.67167 0.04265 0.0
H266 H 0.06557 0.73438 0.04084 0.0
H267 H 0.1111 0.75221 0.02933 0.0
H268 H 0.11281 0.69317 0.07685 0.0
H269 H 0.06717 0.6748 0.08837 0.0
C270 C 0.98661 0.70073 0.1745 0.0
C271 C 0.99526 0.68947 0.1939 0.0
C272 C 0.98789 0.6969 0.14632 0.0
C273 C 0.99742 0.68138 0.13696 0.0
C274 C 1.00481 0.66898 0.15624 0.0
C275 C 1.00371 0.67295 0.18453 0.0
C276 C 1.00275 0.68082 0.10726 0.0
C277 C 0.0281 0.68924 0.09966 0.0
C278 C 0.98404 0.67484 0.08653 0.0
C279 C 0.95701 0.66631 0.09334 0.0
C280 C 0.94287 0.64534 0.11096 0.0
C281 C 0.91758 0.63784 0.1177 0.0
C282 C 0.90619 0.65112 0.10689 0.0
C283 C 0.92004 0.67186 0.08922 0.0
C284 C 0.9453 0.6794 0.08236 0.0
C285 C 0.04467 0.67471 0.98652 0.0
C286 C 0.03999 0.689 0.96697 0.0
C287 C 0.03582 0.67241 0.01341 0.0
C288 C 0.02296 0.68517 0.02167 0.0
C289 C 0.01745 0.6988 0.00204 0.0
C290 C 0.02577 0.70055 0.97472 0.0
C291 C 0.01657 0.68515 0.05115 0.0
C292 C 0.99122 0.67697 0.05864 0.0
C293 C 0.03537 0.69198 0.07193 0.0
C294 C 0.06291 0.70313 0.06532 0.0
C295 C 0.07562 0.72513 0.04872 0.0
C296 C 0.10145 0.73534 0.04221 0.0
C297 C 0.11483 0.72381 0.05232 0.0
C298 C 0.10242 0.70208 0.06903 0.0
C299 C 0.07658 0.69178 0.0756 0.0
H300 H 0.13482 0.73173 0.04724 0.0
H301 H 0.88664 0.64533 0.11219 0.0
H302 H 0.37389 0.42845 0.9887 0.0
H303 H 0.36144 0.4166 0.0366 0.0
H304 H 0.28686 0.40589 0.01911 0.0
H305 H 0.29963 0.41865 0.9711 0.0
H306 H 0.30847 0.41538 0.08216 0.0
H307 H 0.28047 0.3576 0.00307 0.0
H308 H 0.28633 0.34426 0.95669 0.0
H309 H 0.35245 0.34235 0.98536 0.0
H310 H 0.34711 0.35602 0.03187 0.0
H311 H 0.24731 0.29505 0.15953 0.0
H312 H 0.25477 0.32297 0.11981 0.0
H313 H 0.33559 0.3502 0.12451 0.0
H314 H 0.32844 0.32291 0.16487 0.0
H315 H 0.30369 0.33149 0.06766 0.0
H316 H 0.32689 0.38816 0.14975 0.0
H317 H 0.31576 0.39848 0.19516 0.0
H318 H 0.25094 0.39846 0.15918 0.0
H319 H 0.26149 0.38772 0.11363 0.0
C320 C 0.35547 0.42525 -0.00448 0.0
C321 C 0.3375 0.42394 0.97642 0.0
C322 C 0.34839 0.4186 0.02291 0.0
C323 C 0.32309 0.40986 0.031 0.0
C324 C 0.30648 0.41266 0.0131 0.0
C325 C 0.31377 0.41987 0.9857 0.0
C326 C 0.31253 0.39062 0.05304 0.0
C327 C 0.30702 0.3969 0.07899 0.0
C328 C 0.31024 0.36638 0.04858 0.0
C329 C 0.31351 0.358 0.02081 0.0
C330 C 0.29635 0.35449 -0.00059 0.0
C331 C 0.29953 0.34682 0.97314 0.0
C332 C 0.31971 0.34241 0.96811 0.0
C333 C 0.33679 0.34573 0.98932 0.0
C334 C 0.33369 0.35341 0.01564 0.0
C335 C 0.26662 0.30668 0.15181 0.0
C336 C 0.28738 0.30697 0.16516 0.0
C337 C 0.27081 0.32269 0.12935 0.0
C338 C 0.2957 0.33871 0.11977 0.0
C339 C 0.31629 0.33799 0.13201 0.0
C340 C 0.3122 0.32241 0.15486 0.0
C341 C 0.30042 0.35651 0.09705 0.0
C342 C 0.30476 0.34981 0.07081 0.0
C343 C 0.30074 0.37986 0.10117 0.0
C344 C 0.2948 0.38686 0.1284 0.0
C345 C 0.31014 0.39013 0.15159 0.0
C346 C 0.30397 0.3961 0.17733 0.0
C347 C 0.28261 0.39905 0.18008 0.0
C348 C 0.26745 0.39614 0.15704 0.0
C349 C 0.27353 0.39013 0.13126 0.0
H350 H 0.27785 0.40365 0.20003 0.0
H351 H 0.32209 0.33639 0.94778 0.0
H352 H 0.71268 0.02366 0.14805 0.0
H353 H 0.71076 0.03618 0.10073 0.0
H354 H 0.75659 0.00402 0.07353 0.0
H355 H 0.75971 0.99256 0.12134 0.0
H356 H 0.76837 0.04734 0.04467 0.0
H357 H 0.69144 0.96778 0.06756 0.0
H358 H 0.65469 0.94057 0.0976 0.0
H359 H 0.6278 0.99384 0.09014 0.0
H360 H 0.66424 0.0212 0.05968 0.0
H361 H 0.71592 1.00048 0.91083 0.0
H362 H 0.73709 0.01529 0.9556 0.0
H363 H 0.68707 0.04463 0.97554 0.0
H364 H 0.66519 0.02869 0.93131 0.0
H365 H 0.67964 0.00826 0.00905 0.0
H366 H 0.75426 0.08327 0.97644 0.0
H367 H 0.79151 0.10853 0.94634 0.0
H368 H 0.8238 0.06266 0.97118 0.0
H369 H 0.78658 0.03687 0.00113 0.0
C370 C 0.72257 0.01945 0.13209 0.0
C371 C 0.73607 0.00682 0.1383 0.0
C372 C 0.72149 0.02666 0.10505 0.0
C373 C 0.73318 0.02065 0.08358 0.0
C374 C 0.74745 0.00884 0.08982 0.0
C375 C 0.74898 1.00208 0.11705 0.0
C376 C 0.72834 0.02439 0.05448 0.0
C377 C 0.74903 0.03877 0.03669 0.0
C378 C 0.7031 0.0135 0.04432 0.0
C379 C 0.68056 0.99655 0.06151 0.0
C380 C 0.6776 0.97361 0.07224 0.0
C381 C 0.65682 0.95815 0.08927 0.0
C382 C 0.63887 0.96544 0.09567 0.0
C383 C 0.64159 0.98813 0.08492 0.0
C384 C 0.66223 1.00356 0.06769 0.0
C385 C 0.71046 0.01135 0.92419 0.0
C386 C 0.68904 0.01353 0.91786 0.0
C387 C 0.72253 0.01981 0.94982 0.0
C388 C 0.71352 0.0309 0.96906 0.0
C389 C 0.69425 0.03602 0.96107 0.0
C390 C 0.68187 0.0271 0.93577 0.0
C391 C 0.71969 0.03149 -0.00121 0.0
C392 C 0.6991 0.0175 0.01685 0.0
C393 C 0.74503 0.04249 0.00886 0.0
C394 C 0.76751 0.05802 0.99092 0.0
C395 C 0.7692 0.07843 0.97533 0.0
C396 C 0.79034 0.09287 0.95832 0.0
C397 C 0.80999 0.08718 0.95682 0.0
C398 C 0.80857 0.06705 0.97237 0.0
C399 C 0.78747 0.05254 0.9894 0.0
H400 H 0.82633 0.09838 0.94363 0.0
H401 H 0.62287 0.95353 0.109 0.0
H402 H 0.66542 0.05183 0.49702 0.0
H403 H 0.66932 0.04318 0.44872 0.0
H404 H 0.7132 0.00787 0.47191 0.0
H405 H 0.70934 0.0164 0.52082 0.0
H406 H 0.73422 0.04439 0.42774 0.0
H407 H 0.65516 0.96979 0.45325 0.0
H408 H 0.61229 0.94703 0.47433 0.0
H409 H 0.58623 0.98378 0.41796 0.0
H410 H 0.62908 0.00704 0.39677 0.0
H411 H 0.73127 0.99389 0.29615 0.0
H412 H 0.72442 0.99599 0.34535 0.0
H413 H 0.67656 0.02827 0.32824 0.0
H414 H 0.68328 0.02631 0.27857 0.0
H415 H 0.65733 0.99121 0.37002 0.0
H416 H 0.73515 0.06735 0.3463 0.0
H417 H 0.77806 0.09283 0.32585 0.0
H418 H 0.80646 0.05606 0.37916 0.0
H419 H 0.76356 0.03004 0.39964 0.0
C420 C 0.67602 0.0423 0.49198 0.0
C421 C 0.68714 0.03482 0.51277 0.0
C422 C 0.67806 0.03725 0.46436 0.0
C423 C 0.6913 0.02469 0.45693 0.0
C424 C 0.7028 0.01749 0.47743 0.0
C425 C 0.70054 0.02232 0.50526 0.0
C426 C 0.69333 0.01962 0.42753 0.0
C427 C 0.71752 0.03233 0.41517 0.0
C428 C 0.67133 0.0046 0.41119 0.0
C429 C 0.6454 0.9903 0.42355 0.0
C430 C 0.64034 0.97314 0.44546 0.0
C431 C 0.61604 0.96013 0.45741 0.0
C432 C 0.59657 0.96399 0.44753 0.0
C433 C 0.60134 0.98081 0.4256 0.0
C434 C 0.62562 0.99388 0.41358 0.0
C435 C 0.71914 1.00134 0.30268 0.0
C436 C 0.70808 0.01026 0.28337 0.0
C437 C 0.71528 1.0025 0.33086 0.0
C438 C 0.70031 0.01261 0.34031 0.0
C439 C 0.68826 0.02049 0.32121 0.0
C440 C 0.69217 0.01941 0.29288 0.0
C441 C 0.69826 0.01592 0.37022 0.0
C442 C 0.67408 1.003 0.38263 0.0
C443 C 0.72025 0.03098 0.3866 0.0
C444 C 0.74606 0.04651 0.37427 0.0
C445 C 0.75047 0.0645 0.35346 0.0
C446 C 0.77481 0.07908 0.3419 0.0
C447 C 0.79496 0.07601 0.35113 0.0
C448 C 0.79082 0.05838 0.37199 0.0
C449 C 0.7665 0.04371 0.38359 0.0
H450 H 0.81379 0.08733 0.34218 0.0
H451 H 0.57777 0.95393 0.45683 0.0
H452 H 0.01606 0.64528 0.5121 0.0
H453 H 0.03411 0.67284 0.4722 0.0
H454 H 0.05181 0.739 0.52245 0.0
H455 H 0.03329 0.71117 0.56273 0.0
H456 H 0.01852 0.73167 0.48349 0.0
H457 H 0.09894 0.73772 0.48326 0.0
H458 H 0.13004 0.72306 0.48819 0.0
H459 H 0.09657 0.67255 0.4187 0.0
H460 H 0.06516 0.68671 0.41344 0.0
H461 H 0.00618 0.76425 0.34561 0.0
H462 H 0.02721 0.76854 0.39007 0.0
H463 H 0.01849 0.69358 0.37879 0.0
H464 H 0.99851 0.68972 0.33389 0.0
H465 H 0.0636 0.72501 0.40116 0.0
H466 H 0.97514 0.70405 0.41718 0.0
H467 H 0.93927 0.71233 0.414 0.0
H468 H 0.98436 0.78476 0.45506 0.0
H469 H 0.0206 0.77697 0.45822 0.0
C470 C 0.02458 0.66581 0.51489 0.0
C471 C 0.02273 0.67607 0.54027 0.0
C472 C 0.03526 0.68165 0.4921 0.0
C473 C 0.0443 0.70804 0.49431 0.0
C474 C 0.04501 0.71869 0.52037 0.0
C475 C 0.03439 0.70278 0.54332 0.0
C476 C 0.04654 0.7224 0.46878 0.0
C477 C 0.02919 0.73117 0.4657 0.0
C478 C 0.06013 0.72135 0.4455 0.0
C479 C 0.07955 0.71328 0.44801 0.0
C480 C 0.09813 0.72343 0.46906 0.0
C481 C 0.11586 0.71522 0.4719 0.0
C482 C 0.11528 0.69688 0.45378 0.0
C483 C 0.09705 0.6868 0.43269 0.0
C484 C 0.07932 0.69498 0.42972 0.0
C485 C 0.00867 0.74866 0.35273 0.0
C486 C 1.00041 0.72647 0.33658 0.0
C487 C 0.02085 0.75123 0.378 0.0
C488 C 0.02429 0.73133 0.3878 0.0
C489 C 0.01623 0.70928 0.37152 0.0
C490 C 1.00451 0.70692 0.34606 0.0
C491 C 0.03421 0.73215 0.41593 0.0
C492 C 0.05392 0.72656 0.4193 0.0
C493 C 0.02235 0.73542 0.43952 0.0
C494 C 1.00064 0.74012 0.43757 0.0
C495 C 0.97744 0.72182 0.42534 0.0
C496 C 0.95704 0.7264 0.42357 0.0
C497 C 0.95957 0.74911 0.43422 0.0
C498 C 0.98247 0.76723 0.44674 0.0
C499 C 1.00293 0.76274 0.44852 0.0
H500 H 0.94376 0.75262 0.43284 0.0
H501 H 0.12897 0.6905 0.45607 0.0
H502 H 0.32057 0.32051 0.53646 0.0
H503 H 0.30973 0.31469 0.48719 0.0
H504 H 0.38091 0.3834 0.46857 0.0
H505 H 0.39207 0.38908 0.51764 0.0
H506 H 0.33577 0.37139 0.43202 0.0
H507 H 0.3865 0.33615 0.46992 0.0
H508 H 0.39391 0.31075 0.50459 0.0
H509 H 0.32266 0.244 0.48255 0.0
H510 H 0.3146 0.26921 0.44813 0.0
H511 H 0.36188 0.3456 0.29651 0.0
H512 H 0.3683 0.35691 0.34576 0.0
H513 H 0.30508 0.28217 0.36618 0.0
H514 H 0.2986 0.27073 0.31733 0.0
H515 H 0.34476 0.29756 0.40209 0.0
H516 H 0.29569 0.33034 0.36064 0.0
H517 H 0.28576 0.35502 0.32763 0.0
H518 H 0.35047 0.42498 0.35642 0.0
H519 H 0.36113 0.40066 0.38935 0.0
C520 C 0.33337 0.33495 0.52198 0.0
C521 C 0.35725 0.35506 0.53067 0.0
C522 C 0.32719 0.33158 0.4939 0.0
C523 C 0.3447 0.3485 0.47441 0.0
C524 C 0.36719 0.37022 0.48338 0.0
C525 C 0.37356 0.37336 0.51136 0.0
C526 C 0.34212 0.34103 0.44506 0.0
C527 C 0.33792 0.35542 0.42532 0.0
C528 C 0.34461 0.31996 0.43664 0.0
C529 C 0.34981 0.30462 0.4567 0.0
C530 C 0.37233 0.31611 0.47262 0.0
C531 C 0.37666 0.30175 0.49221 0.0
C532 C 0.35873 0.27579 0.49583 0.0
C533 C 0.3365 0.26412 0.47977 0.0
C534 C 0.33204 0.27843 0.46022 0.0
C535 C 0.34974 0.33142 0.31156 0.0
C536 C 0.32962 0.30738 0.30311 0.0
C537 C 0.3533 0.33797 0.3396 0.0
C538 C 0.33688 0.32048 0.35944 0.0
C539 C 0.31784 0.29595 0.35114 0.0
C540 C 0.31415 0.28949 0.32322 0.0
C541 C 0.33852 0.32799 0.38876 0.0
C542 C 0.3426 0.31358 0.4086 0.0
C543 C 0.33569 0.34892 0.39717 0.0
C544 C 0.32944 0.36361 0.37723 0.0
C545 C 0.30808 0.35094 0.35965 0.0
C546 C 0.30229 0.36487 0.34096 0.0
C547 C 0.31755 0.39153 0.33979 0.0
C548 C 0.33867 0.40431 0.35732 0.0
C549 C 0.3446 0.39046 0.37601 0.0
H550 H 0.31295 0.40228 0.32539 0.0
H551 H 0.36209 0.26471 0.51104 0.0
H552 H 0.03848 0.29015 0.81315 0.0
H553 H 0.04228 0.30075 0.8623 0.0
H554 H 0.98063 0.31681 0.85498 0.0
H555 H 0.97758 0.30738 0.80554 0.0
H556 H 0.01615 0.35155 0.88542 0.0
H557 H 0.9728 0.25907 0.88234 0.0
H558 H 0.96756 0.21712 0.86953 0.0
H559 H 0.0365 0.23568 0.91327 0.0
H560 H 0.04231 0.2779 0.92606 0.0
H561 H 0.96211 0.33451 0.01368 0.0
H562 H 0.97062 0.32568 0.96714 0.0
H563 H 0.04061 0.33048 0.99489 0.0
H564 H 0.03184 0.33878 0.04232 0.0
H565 H 0.00973 0.28905 0.95597 0.0
H566 H 0.04832 0.38176 0.9627 0.0
H567 H 0.04568 0.41898 0.97962 0.0
H568 H 0.97782 0.39493 0.93128 0.0
H569 H 0.98029 0.35789 0.91381 0.0
C570 C 0.02566 0.29584 0.8221 0.0
C571 C 0.00758 0.29778 0.80568 0.0
C572 C 0.02785 0.30186 0.85015 0.0
C573 C 0.01152 0.30923 0.86237 0.0
C574 C 0.99349 0.31123 0.84594 0.0
C575 C 0.99166 0.30573 0.81777 0.0
C576 C 0.01295 0.31475 0.89229 0.0
C577 C 0.01482 0.33787 0.90076 0.0
C578 C 0.01169 0.29714 0.91241 0.0
C579 C 0.00815 0.27174 0.90486 0.0
C580 C 0.98694 0.25427 0.88905 0.0
C581 C 0.98384 0.23044 0.88183 0.0
C582 C 1.00173 0.22377 0.89051 0.0
C583 C 0.0227 0.24089 0.90651 0.0
C584 C 0.02589 0.26477 0.91377 0.0
C585 C 0.97933 0.33369 0.01001 0.0
C586 C 0.99657 0.33778 0.0315 0.0
C587 C 0.9841 0.32856 0.98343 0.0
C588 C 0.00646 0.32798 0.97765 0.0
C589 C 0.02333 0.33105 -0.00089 0.0
C590 C 0.01835 0.33586 0.02603 0.0
C591 C 0.01232 0.3254 0.94873 0.0
C592 C 0.01187 0.30296 0.94049 0.0
C593 C 0.01442 0.34337 0.92876 0.0
C594 C 0.01458 0.36716 0.93685 0.0
C595 C 0.03305 0.38465 0.95541 0.0
C596 C 0.03157 0.4057 0.96512 0.0
C597 C 0.01166 0.40938 0.95647 0.0
C598 C 0.99339 0.39224 0.93778 0.0
C599 C 0.99493 0.37132 0.9278 0.0
H600 H 0.01033 0.42545 0.96432 0.0
H601 H 0.99931 0.20531 0.88489 0.0
H602 H 0.67081 0.63626 0.00338 0.0
H603 H 0.69355 0.66079 0.96283 0.0
H604 H 0.72757 0.73054 0.01105 0.0
H605 H 0.70538 0.70601 0.05216 0.0
H606 H 0.69742 0.69804 0.93294 0.0
H607 H 0.79008 0.76671 0.99227 0.0
H608 H 0.8119 0.768 0.03585 0.0
H609 H 0.77471 0.68582 0.03569 0.0
H610 H 0.75277 0.68408 0.99213 0.0
H611 H 0.7835 0.78488 0.83724 0.0
H612 H 0.76719 0.77444 0.88446 0.0
H613 H 0.78831 0.71618 0.88781 0.0
H614 H 0.80325 0.7256 0.83981 0.0
H615 H 0.79212 0.746 0.94107 0.0
H616 H 0.73855 0.69449 0.86632 0.0
H617 H 0.71638 0.68573 0.82155 0.0
H618 H 0.67353 0.72003 0.8508 0.0
H619 H 0.69595 0.72955 0.89562 0.0
C620 C 0.68274 0.65688 0.00534 0.0
C621 C 0.68675 0.66911 0.03113 0.0
C622 C 0.69569 0.67089 0.98209 0.0
C623 C 0.71272 0.69735 0.98418 0.0
C624 C 0.71492 0.71001 0.00926 0.0
C625 C 0.70204 0.69597 0.03264 0.0
C626 C 0.72947 0.71104 0.9606 0.0
C627 C 0.7181 0.70882 0.93478 0.0
C628 C 0.75647 0.72441 0.96297 0.0
C629 C 0.76958 0.72528 0.98916 0.0
C630 C 0.78658 0.74894 0.00157 0.0
C631 C 0.79894 0.74974 0.02628 0.0
C632 C 0.79457 0.72699 0.03863 0.0
C633 C 0.77791 0.70341 0.02624 0.0
C634 C 0.76548 0.7025 0.00158 0.0
C635 C 0.78537 0.77044 0.84839 0.0
C636 C 0.79425 0.75578 0.83512 0.0
C637 C 0.77614 0.76456 0.87531 0.0
C638 C 0.77624 0.74433 0.88923 0.0
C639 C 0.78816 0.73189 0.87722 0.0
C640 C 0.79673 0.73729 0.84997 0.0
C641 C 0.75996 0.73316 0.91364 0.0
C642 C 0.77143 0.73579 0.93946 0.0
C643 C 0.73299 0.71914 0.91111 0.0
C644 C 0.71975 0.71373 0.88398 0.0
C645 C 0.72495 0.70083 0.86299 0.0
C646 C 0.71214 0.69548 0.83767 0.0
C647 C 0.69375 0.70256 0.8332 0.0
C648 C 0.68792 0.71473 0.85419 0.0
C649 C 0.7007 0.72011 0.87956 0.0
H650 H 0.68388 0.69845 0.81356 0.0
H651 H 0.80417 0.72764 0.05774 0.0
H652 H 0.32229 0.01017 0.06539 0.0
H653 H 0.29757 1.00298 0.02275 0.0
H654 H 0.36652 0.03122 0.97476 0.0
H655 H 0.39124 0.03798 0.01672 0.0
H656 H 0.32981 0.05763 0.97834 0.0
H657 H 0.34062 0.98286 0.95948 0.0
H658 H 0.33315 0.93965 0.96959 0.0
H659 H 0.25201 0.90958 0.96814 0.0
H660 H 0.25907 0.9528 0.95854 0.0
H661 H 0.3356 0.0563 0.83373 0.0
H662 H 0.33882 0.04876 0.88274 0.0
H663 H 0.25684 0.01159 0.8906 0.0
H664 H 0.25345 0.01959 0.84137 0.0
H665 H 0.28819 0.98527 0.91207 0.0
H666 H 0.27713 0.05834 0.9206 0.0
H667 H 0.28503 0.10131 0.90833 0.0
H668 H 0.36451 0.13394 0.92856 0.0
H669 H 0.35718 0.09108 0.94052 0.0
C670 C 0.33205 0.01408 0.0457 0.0
C671 C 0.35879 0.02502 0.04446 0.0
C672 C 0.31789 0.00996 0.02144 0.0
C673 C 0.33035 0.01657 -0.00415 0.0
C674 C 0.35666 0.02587 0.99445 0.0
C675 C 0.37074 0.02982 0.01849 0.0
C676 C 0.31724 0.01782 0.9709 0.0
C677 C 0.32023 0.0417 0.96398 0.0
C678 C 0.30448 0.99689 0.9526 0.0
C679 C 0.30039 0.97116 0.95905 0.0
C680 C 0.32121 0.96716 0.96191 0.0
C681 C 0.31705 0.94263 0.96738 0.0
C682 C 0.29212 0.92191 0.96973 0.0
C683 C 0.27131 0.92567 0.9665 0.0
C684 C 0.27538 0.95018 0.96109 0.0
C685 C 0.31827 0.04664 0.84591 0.0
C686 C 0.2943 0.03864 0.83394 0.0
C687 C 0.32014 0.04237 0.87382 0.0
C688 C 0.29807 0.02968 0.89006 0.0
C689 C 0.27402 0.02143 0.87821 0.0
C690 C 0.27216 0.02614 0.85028 0.0
C691 C 0.30074 0.02504 0.91934 0.0
C692 C 0.29631 1.00077 0.92695 0.0
C693 C 0.31207 0.04558 0.93834 0.0
C694 C 0.31662 0.07144 0.93128 0.0
C695 C 0.29634 0.07464 0.92219 0.0
C696 C 0.30071 0.09899 0.91535 0.0
C697 C 0.32527 0.12034 0.91762 0.0
C698 C 0.3455 0.11738 0.9268 0.0
C699 C 0.34124 0.09306 0.93366 0.0
H700 H 0.32861 0.13918 0.91232 0.0
H701 H 0.28893 0.90292 0.97388 0.0
H702 H 0.35815 0.01981 0.70129 0.0
H703 H 0.36454 0.01565 0.65204 0.0
H704 H 0.32913 0.06026 0.63209 0.0
H705 H 0.32242 0.06417 0.68112 0.0
H706 H 0.30512 0.01521 0.60759 0.0
H707 H 0.39159 0.08185 0.61588 0.0
H708 H 0.43486 0.10556 0.63599 0.0
H709 H 0.44585 0.04195 0.61899 0.0
H710 H 0.40244 0.01767 0.59921 0.0
H711 H 0.3181 0.99994 0.46267 0.0
H712 H 0.32292 0.02004 0.50802 0.0
H713 H 0.35051 0.97252 0.54197 0.0
H714 H 0.34567 0.95225 0.49705 0.0
H715 H 0.38051 0.02472 0.55664 0.0
H716 H 0.29198 0.9567 0.55449 0.0
H717 H 0.24846 0.93286 0.53491 0.0
H718 H 0.2419 1.00027 0.54068 0.0
H719 H 0.28556 0.02462 0.55995 0.0
C720 C 0.35247 0.02937 0.68642 0.0
C721 C 0.33937 0.04187 0.69491 0.0
C722 C 0.35616 0.02704 0.6583 0.0
C723 C 0.34714 0.03752 0.63843 0.0
C724 C 0.336 0.05183 0.64708 0.0
C725 C 0.33215 0.054 0.67508 0.0
C726 C 0.3459 0.03041 0.60898 0.0
C727 C 0.32176 0.01789 0.59625 0.0
C728 C 0.36747 0.03335 0.59445 0.0
C729 C 0.39364 0.04786 0.60627 0.0
C730 C 0.40313 0.07283 0.61666 0.0
C731 C 0.42771 0.08639 0.62796 0.0
C732 C 0.44308 0.07525 0.62882 0.0
C733 C 0.43392 0.05054 0.61833 0.0
C734 C 0.40933 0.03688 0.60704 0.0
C735 C 0.32503 0.99366 0.47983 0.0
C736 C 0.33137 0.97441 0.47627 0.0
C737 C 0.32785 0.00521 0.50564 0.0
C738 C 0.33717 0.99777 0.52816 0.0
C739 C 0.34346 0.97858 0.52471 0.0
C740 C 0.34042 0.96687 0.49907 0.0
C741 C 0.33979 0.00943 0.55564 0.0
C742 C 0.36408 0.02261 0.56795 0.0
C743 C 0.31839 0.00718 0.56984 0.0
C744 C 0.29214 0.99256 0.55831 0.0
C745 C 0.28134 0.9665 0.55133 0.0
C746 C 0.25664 0.95288 0.54035 0.0
C747 C 0.24246 0.96506 0.53646 0.0
C748 C 0.25293 0.99087 0.54364 0.0
C749 C 0.27765 0.00459 0.5546 0.0
H750 H 0.22333 0.95448 0.52797 0.0
H751 H 0.46211 0.08578 0.63757 0.0
H752 H 0.06081 0.28828 0.64919 0.0
H753 H 0.08267 0.32139 0.61405 0.0
H754 H 0.03841 0.35627 0.63783 0.0
H755 H 0.01654 0.32334 0.67302 0.0
H756 H 0.04114 0.34954 0.58115 0.0
H757 H 0.09737 0.38241 0.66008 0.0
H758 H 0.1236 0.3795 0.69726 0.0
H759 H 0.17078 0.3708 0.637 0.0
H760 H 0.14457 0.37323 0.59944 0.0
H761 H 0.09609 0.44934 0.49508 0.0
H762 H 0.08962 0.43443 0.54274 0.0
H763 H 0.13791 0.40201 0.52853 0.0
H764 H 0.1451 0.41778 0.48107 0.0
H765 H 0.13487 0.41 0.58363 0.0
H766 H 0.07802 0.3687 0.50731 0.0
H767 H 0.04845 0.36058 0.46856 0.0
H768 H 1.00119 0.37682 0.52119 0.0
H769 H 0.03069 0.38534 0.56018 0.0
C770 C 0.05539 0.30271 0.64652 0.0
C771 C 0.03705 0.30338 0.66374 0.0
C772 C 0.06815 0.32177 0.62681 0.0
C773 C 0.06253 0.34149 0.62405 0.0
C774 C 0.0432 0.34134 0.64011 0.0
C775 C 0.03061 0.32246 0.65995 0.0
C776 C 0.07602 0.36183 0.60358 0.0
C777 C 0.06153 0.36319 0.582 0.0
C778 C 0.10278 0.37874 0.60438 0.0
C779 C 0.11887 0.37781 0.62694 0.0
C780 C 0.11323 0.3797 0.65475 0.0
C781 C 0.12811 0.37816 0.6759 0.0
C782 C 0.14881 0.37491 0.6695 0.0
C783 C 0.15473 0.3733 0.64193 0.0
C784 C 0.13988 0.37479 0.6207 0.0
C785 C 0.10665 0.44054 0.50271 0.0
C786 C 0.12079 0.43433 0.48462 0.0
C787 C 0.10282 0.43187 0.52987 0.0
C788 C 0.11252 0.41632 0.53867 0.0
C789 C 0.13008 0.41379 0.52197 0.0
C790 C 0.13431 0.42293 0.49491 0.0
C791 C 0.09977 0.39807 0.5614 0.0
C792 C 0.11439 0.39683 0.58319 0.0
C793 C 0.07306 0.38061 0.56054 0.0
C794 C 0.05679 0.3781 0.5365 0.0
C795 C 0.06161 0.37106 0.51046 0.0
C796 C 0.04477 0.36622 0.4885 0.0
C797 C 0.023 0.36829 0.49239 0.0
C798 C 0.01811 0.37533 0.51819 0.0
C799 C 0.03491 0.38023 0.54019 0.0
H800 H 0.00982 0.36431 0.47548 0.0
H801 H 0.16029 0.37369 0.68591 0.0
H802 H 0.62605 0.72964 0.50837 0.0
H803 H 0.6333 0.73031 0.5585 0.0
H804 H 0.64508 0.66593 0.54953 0.0
H805 H 0.63973 0.66634 0.50003 0.0
H806 H 0.61879 0.69629 0.60712 0.0
H807 H 0.70336 0.68503 0.5713 0.0
H808 H 0.72942 0.69225 0.52942 0.0
H809 H 0.71575 0.75245 0.50439 0.0
H810 H 0.69002 0.74587 0.54632 0.0
H811 H 0.68586 0.685 0.72466 0.0
H812 H 0.66102 0.67834 0.68212 0.0
H813 H 0.7212 0.75065 0.65071 0.0
H814 H 0.74628 0.75665 0.69195 0.0
H815 H 0.7091 0.71713 0.61385 0.0
H816 H 0.66208 0.741 0.67487 0.0
H817 H 0.63703 0.73785 0.71639 0.0
H818 H 0.57887 0.66205 0.69225 0.0
H819 H 0.60375 0.66462 0.65075 0.0
C820 C 0.62953 0.71527 0.51734 0.0
C821 C 0.63286 0.69828 0.50037 0.0
C822 C 0.63338 0.71549 0.5459 0.0
C823 C 0.64005 0.69837 0.55746 0.0
C824 C 0.64014 0.6794 0.54086 0.0
C825 C 0.6372 0.67976 0.51248 0.0
C826 C 0.6525 0.70355 0.58472 0.0
C827 C 0.63854 0.70095 0.6088 0.0
C828 C 0.6784 0.7101 0.58663 0.0
C829 C 0.69457 0.71477 0.56179 0.0
C830 C 0.70606 0.6999 0.55693 0.0
C831 C 0.72075 0.70387 0.53318 0.0
C832 C 0.72416 0.72273 0.51421 0.0
C833 C 0.71303 0.73778 0.51904 0.0
C834 C 0.69838 0.73394 0.54279 0.0
C835 C 0.69371 0.69929 0.7085 0.0
C836 C 0.71817 0.72104 0.71128 0.0
C837 C 0.67944 0.69565 0.68442 0.0
C838 C 0.68924 0.71408 0.66331 0.0
C839 C 0.71335 0.73606 0.66658 0.0
C840 C 0.72775 0.73938 0.69013 0.0
C841 C 0.67561 0.71008 0.63679 0.0
C842 C 0.68938 0.71267 0.61256 0.0
C843 C 0.64993 0.70447 0.63499 0.0
C844 C 0.6349 0.70291 0.65985 0.0
C845 C 0.64404 0.72359 0.67853 0.0
C846 C 0.62986 0.72192 0.70204 0.0
C847 C 0.6064 0.69974 0.70699 0.0
C848 C 0.59705 0.67921 0.6884 0.0
C849 C 0.61118 0.68077 0.66487 0.0
H850 H 0.59545 0.69849 0.7252 0.0
H851 H 0.73548 0.72573 0.49581 0.0
H852 H 0.39606 0.35276 0.89592 0.0
H853 H 0.40817 0.33607 0.85608 0.0
H854 H 0.34391 0.32925 0.81029 0.0
H855 H 0.33174 0.34586 0.84981 0.0
H856 H 0.3574 0.29131 0.796 0.0
H857 H 0.3973 0.38606 0.80882 0.0
H858 H 0.42222 0.42426 0.83817 0.0
H859 H 0.48273 0.40699 0.84385 0.0
H860 H 0.45802 0.36858 0.81456 0.0
H861 H 0.37172 0.339 0.66373 0.0
H862 H 0.36565 0.32557 0.71187 0.0
H863 H 0.44464 0.34524 0.71707 0.0
H864 H 0.45083 0.35868 0.66858 0.0
H865 H 0.43312 0.36777 0.75692 0.0
H866 H 0.39872 0.28323 0.72673 0.0
H867 H 0.37356 0.24229 0.70177 0.0
H868 H 0.30391 0.23684 0.73045 0.0
H869 H 0.32855 0.27792 0.75525 0.0
C870 C 0.38397 0.34677 0.87772 0.0
C871 C 0.36325 0.35104 0.87568 0.0
C872 C 0.39092 0.33724 0.85502 0.0
C873 C 0.37709 0.33176 0.83023 0.0
C874 C 0.35479 0.33335 0.82928 0.0
C875 C 0.348 0.34307 0.85178 0.0
C876 C 0.38814 0.32961 0.80387 0.0
C877 C 0.37407 0.30782 0.78733 0.0
C878 C 0.41051 0.35084 0.79321 0.0
C879 C 0.42583 0.37448 0.80969 0.0
C880 C 0.41595 0.39048 0.81631 0.0
C881 C 0.43 0.41212 0.83297 0.0
C882 C 0.45403 0.41802 0.84297 0.0
C883 C 0.46411 0.40238 0.83613 0.0
C884 C 0.45012 0.3807 0.81946 0.0
C885 C 0.38774 0.3402 0.67498 0.0
C886 C 0.41183 0.35017 0.66251 0.0
C887 C 0.38416 0.33219 0.70243 0.0
C888 C 0.40461 0.33406 0.71798 0.0
C889 C 0.42856 0.34341 0.70536 0.0
C890 C 0.43209 0.35123 0.67776 0.0
C891 C 0.40157 0.32982 0.74819 0.0
C892 C 0.4171 0.35063 0.76555 0.0
C893 C 0.38067 0.3075 0.75956 0.0
C894 C 0.36557 0.28372 0.74298 0.0
C895 C 0.37803 0.27349 0.72747 0.0
C896 C 0.36386 0.25016 0.71348 0.0
C897 C 0.33718 0.23682 0.71487 0.0
C898 C 0.32459 0.24706 0.72967 0.0
C899 C 0.33866 0.27037 0.74372 0.0
H900 H 0.32625 0.2186 0.70431 0.0
H901 H 0.46484 0.43472 0.85597 0.0
H902 H 0.65085 0.00572 0.64355 0.0
H903 H 0.62215 0.97503 0.67761 0.0
H904 H 0.58217 0.01709 0.68514 0.0
H905 H 0.61135 0.04834 0.65152 0.0
H906 H 0.59053 0.00445 0.73378 0.0
H907 H 0.55151 0.95818 0.6539 0.0
H908 H 0.54778 0.94099 0.60681 0.0
H909 H 0.58088 0.8965 0.63399 0.0
H910 H 0.58516 0.91363 0.68119 0.0
H911 H 0.54822 0.91497 0.83839 0.0
H912 H 0.53348 0.91671 0.79175 0.0
H913 H 0.60801 0.93815 0.75951 0.0
H914 H 0.62305 0.93749 0.80598 0.0
H915 H 0.55753 0.91144 0.71974 0.0
H916 H 0.61874 0.99424 0.78151 0.0
H917 H 0.62433 0.01027 0.82953 0.0
H918 H 0.54362 0.98168 0.83559 0.0
H919 H 0.53763 0.9654 0.78763 0.0
C920 C 0.63611 0.00856 0.65268 0.0
C921 C 0.63333 0.02936 0.645 0.0
C922 C 0.61945 0.9908 0.67175 0.0
C923 C 0.59948 0.99332 0.68312 0.0
C924 C 0.59719 0.0146 0.67621 0.0
C925 C 0.61405 0.03255 0.65728 0.0
C926 C 0.58259 0.97469 0.70397 0.0
C927 C 0.58216 0.984 0.73037 0.0
C928 C 0.57134 0.94795 0.69951 0.0
C929 C 0.56859 0.93718 0.67121 0.0
C930 C 0.55808 0.94478 0.64986 0.0
C931 C 0.55588 0.93506 0.62312 0.0
C932 C 0.56408 0.91766 0.61742 0.0
C933 C 0.57447 0.90992 0.63846 0.0
C934 C 0.57671 0.91958 0.66526 0.0
C935 C 0.561 0.91878 0.8211 0.0
C936 C 0.58689 0.92677 0.82553 0.0
C937 C 0.55247 0.91949 0.79449 0.0
C938 C 0.56977 0.92779 0.77241 0.0
C939 C 0.59439 0.93158 0.77637 0.0
C940 C 0.6031 0.93156 0.80294 0.0
C941 C 0.56664 0.94155 0.7492 0.0
C942 C 0.56388 0.93161 0.72247 0.0
C943 C 0.57411 0.96762 0.75307 0.0
C944 C 0.57779 0.97884 0.78109 0.0
C945 C 0.60227 0.99168 0.79304 0.0
C946 C 0.60549 1.00067 0.82025 0.0
C947 C 0.58435 0.99704 0.83558 0.0
C948 C 0.55997 0.98451 0.82368 0.0
C949 C 0.55666 0.97542 0.7965 0.0
H950 H 0.58685 1.00389 0.85669 0.0
H951 H 0.56239 0.91018 0.59669 0.0
H952 H 0.08046 0.63743 0.82673 0.0
H953 H 0.057 0.61737 0.78398 0.0
H954 H 0.02373 0.66591 0.78611 0.0
H955 H 0.04671 0.68567 0.82893 0.0
H956 H 1.00221 0.5908 0.7813 0.0
H957 H 0.01907 0.68086 0.71929 0.0
H958 H 0.05433 0.7247 0.70993 0.0
H959 H 0.1092 0.7014 0.72704 0.0
H960 H 0.07432 0.65734 0.73605 0.0
H961 H 0.9343 0.61201 0.65532 0.0
H962 H 0.95041 0.61686 0.70244 0.0
H963 H 0.97443 0.56202 0.68541 0.0
H964 H 0.95798 0.55695 0.63824 0.0
H965 H 1.00387 0.63683 0.69599 0.0
H966 H 0.98866 0.54688 0.75369 0.0
H967 H 0.95448 0.50244 0.76275 0.0
H968 H 0.89775 0.52453 0.75291 0.0
H969 H 0.93157 0.56914 0.74418 0.0
C970 C 0.06865 0.64424 0.81763 0.0
C971 C 0.06519 0.66295 0.831 0.0
C972 C 0.05515 0.63263 0.79345 0.0
C973 C 0.03864 0.64013 0.7822 0.0
C974 C 0.03649 0.65998 0.79459 0.0
C975 C 0.04961 0.67125 0.81893 0.0
C976 C 0.02205 0.62625 0.75865 0.0
C977 C 1.00277 0.6006 0.76234 0.0
C978 C 0.02287 0.63932 0.73426 0.0
C979 C 0.04401 0.6658 0.7286 0.0
C980 C 0.03865 0.68504 0.72094 0.0
C981 C 0.05858 0.70995 0.71571 0.0
C982 C 0.08398 0.71585 0.71798 0.0
C983 C 0.08952 0.69684 0.72541 0.0
C984 C 0.06966 0.6719 0.73062 0.0
C985 C 0.94151 0.5998 0.66222 0.0
C986 C 0.94524 0.58434 0.64342 0.0
C987 C 0.95076 0.60261 0.68907 0.0
C988 C 0.964 0.59017 0.69704 0.0
C989 C 0.96417 0.5717 0.67957 0.0
C990 C 0.95469 0.56872 0.6527 0.0
C991 C 0.98323 0.6017 0.71912 0.0
C992 C 1.0033 0.6269 0.71488 0.0
C993 C 0.98322 0.58807 0.74273 0.0
C994 C 0.96267 0.56129 0.74791 0.0
C995 C 0.96889 0.54225 0.75349 0.0
C996 C 0.94958 0.51703 0.75858 0.0
C997 C 0.92396 0.51064 0.75829 0.0
C998 C 0.9176 0.52947 0.75298 0.0
C999 C 0.93684 0.55472 0.74788 0.0
H1000 H 0.90904 0.49111 0.76226 0.0
H1001 H 0.09937 0.73515 0.71391 0.0
H1002 H 0.65716 0.68809 0.34494 0.0
H1003 H 0.65803 0.66721 0.30216 0.0
H1004 H 0.68525 0.62377 0.34639 0.0
H1005 H 0.68461 0.64464 0.38952 0.0
H1006 H 0.70616 0.63971 0.29138 0.0
H1007 H 0.62602 0.59377 0.33727 0.0
H1008 H 0.58884 0.58922 0.36305 0.0
H1009 H 0.56828 0.61981 0.29418 0.0
H1010 H 0.60555 0.62485 0.2681 0.0
H1011 H 0.6638 0.56752 0.16183 0.0
H1012 H 0.66763 0.57283 0.21251 0.0
H1013 H 0.64324 0.62864 0.20751 0.0
H1014 H 0.63959 0.62359 0.15762 0.0
H1015 H 0.61946 0.59311 0.2496 0.0
H1016 H 0.70521 0.64616 0.20837 0.0
H1017 H 0.74445 0.65311 0.18504 0.0
H1018 H 0.75474 0.60837 0.247 0.0
H1019 H 0.71531 0.60076 0.27041 0.0
C1020 C 0.66391 0.67456 0.34558 0.0
C1021 C 0.67027 0.66763 0.37074 0.0
C1022 C 0.66436 0.66263 0.32112 0.0
C1023 C 0.67107 0.64355 0.32144 0.0
C1024 C 0.67979 0.63831 0.34594 0.0
C1025 C 0.6794 0.65029 0.37051 0.0
C1026 C 0.66636 0.62757 0.29666 0.0
C1027 C 0.68716 0.62897 0.28244 0.0
C1028 C 0.64147 0.61329 0.28545 0.0
C1029 C 0.61865 0.60976 0.30077 0.0
C1030 C 0.61364 0.59964 0.32766 0.0
C1031 C 0.59254 0.59697 0.34234 0.0
C1032 C 0.57623 0.60427 0.33029 0.0
C1033 C 0.58093 0.61416 0.30349 0.0
C1034 C 0.60201 0.61687 0.28872 0.0
C1035 C 0.65887 0.58054 0.17179 0.0
C1036 C 0.65141 0.59518 0.15604 0.0
C1037 C 0.6612 0.58364 0.20055 0.0
C1038 C 0.65574 0.60115 0.21358 0.0
C1039 C 0.64742 0.61497 0.19781 0.0
C1040 C 0.64542 0.61213 0.16933 0.0
C1041 C 0.65949 0.60652 0.24345 0.0
C1042 C 0.63837 0.60302 0.25887 0.0
C1043 C 0.68406 0.6187 0.25574 0.0
C1044 C 0.70709 0.62252 0.24087 0.0
C1045 C 0.71561 0.63746 0.21676 0.0
C1046 C 0.73793 0.6416 0.20358 0.0
C1047 C 0.75199 0.63111 0.21452 0.0
C1048 C 0.74375 0.61639 0.23853 0.0
C1049 C 0.72142 0.61213 0.25172 0.0
H1050 H 0.76939 0.63451 0.20459 0.0
H1051 H 0.55993 0.60224 0.3417 0.0
H1052 H 0.48167 0.08397 0.1629 0.0
H1053 H 0.4856 0.07462 0.21141 0.0
H1054 H 0.40565 0.04871 0.22396 0.0
H1055 H 0.40146 0.05715 0.17562 0.0
H1056 H 0.44077 0.07475 0.27221 0.0
H1057 H 0.41582 0.00482 0.19921 0.0
H1058 H 0.42793 0.99119 0.15641 0.0
H1059 H 0.49997 0.00969 0.19276 0.0
H1060 H 0.48829 0.02365 0.23566 0.0
H1061 H 0.34885 0.97176 0.33845 0.0
H1062 H 0.37701 1.00207 0.3037 0.0
H1063 H 0.43327 0.97981 0.31973 0.0
H1064 H 0.40455 0.94857 0.35379 0.0
H1065 H 0.43176 0.98845 0.26643 0.0
H1066 H 0.44261 0.03555 0.34713 0.0
H1067 H 0.43009 0.04877 0.38979 0.0
H1068 H 0.38952 0.07668 0.34201 0.0
H1069 H 0.40138 0.06323 0.29905 0.0
C1070 C 0.46519 0.07705 0.17634 0.0
C1071 C 0.44115 0.07081 0.16568 0.0
C1072 C 0.46752 0.0719 0.20395 0.0
C1073 C 0.44592 0.06105 0.22104 0.0
C1074 C 0.42256 0.05733 0.21103 0.0
C1075 C 0.4201 0.06188 0.1834 0.0
C1076 C 0.4454 0.0481 0.24684 0.0
C1077 C 0.43937 0.05614 0.2714 0.0
C1078 C 0.4446 0.02433 0.24582 0.0
C1079 C 0.45127 0.01531 0.22045 0.0
C1080 C 0.43422 0.00595 0.198 0.0
C1081 C 0.44102 0.99822 0.17375 0.0
C1082 C 0.46472 0.99959 0.17186 0.0
C1083 C 0.48164 0.00865 0.19425 0.0
C1084 C 0.47495 0.01647 0.21852 0.0
C1085 C 0.36693 0.97289 0.33397 0.0
C1086 C 0.37462 0.95797 0.34858 0.0
C1087 C 0.38316 0.99043 0.31452 0.0
C1088 C 0.4076 0.99382 0.31003 0.0
C1089 C 0.41464 0.9777 0.32327 0.0
C1090 C 0.39814 0.95973 0.34243 0.0
C1091 C 0.42542 0.01437 0.29142 0.0
C1092 C 0.43462 0.00763 0.26822 0.0
C1093 C 0.42973 0.03961 0.29408 0.0
C1094 C 0.42298 0.04841 0.31979 0.0
C1095 C 0.43097 0.04446 0.34569 0.0
C1096 C 0.42397 0.05197 0.36994 0.0
C1097 C 0.40905 0.06359 0.36861 0.0
C1098 C 0.40114 0.06775 0.343 0.0
C1099 C 0.40806 0.06024 0.31867 0.0
H1100 H 0.4036 0.06935 0.38741 0.0
H1101 H 0.46996 0.99362 0.15306 0.0
H1102 H 0.99442 0.37685 0.39945 0.0
H1103 H 0.96886 0.36456 0.35698 0.0
H1104 H 0.0201 0.34307 0.31977 0.0
H1105 H 0.0459 0.35569 0.36176 0.0
H1106 H 0.02138 0.39106 0.30216 0.0
H1107 H 0.96456 0.30041 0.31985 0.0
H1108 H 0.93107 0.26374 0.34574 0.0
H1109 H 0.87886 0.29104 0.33182 0.0
H1110 H 0.91219 0.32812 0.30618 0.0
H1111 H 1.0019 0.36195 0.16479 0.0
H1112 H 1.00214 0.35595 0.21445 0.0
H1113 H 0.94183 0.37351 0.22472 0.0
H1114 H 0.94122 0.37935 0.17452 0.0
H1115 H 0.93823 0.32987 0.25874 0.0
H1116 H 0.99373 0.41904 0.23926 0.0
H1117 H 0.02695 0.45586 0.21327 0.0
H1118 H 0.08138 0.43236 0.2321 0.0
H1119 H 0.04836 0.39515 0.25784 0.0
C1120 C 0.99947 0.36832 0.38266 0.0
C1121 C 0.02238 0.36775 0.3834 0.0
C1122 C 0.9848 0.36122 0.35852 0.0
C1123 C 0.99286 0.3532 0.33537 0.0
C1124 C 0.01368 0.34922 0.33757 0.0
C1125 C 0.02847 0.3566 0.36144 0.0
C1126 C 0.98511 0.35638 0.30763 0.0
C1127 C 1.00322 0.37762 0.29263 0.0
C1128 C 0.96096 0.33949 0.29596 0.0
C1129 C 0.94099 0.31724 0.31142 0.0
C1130 C 0.94605 0.29878 0.3226 0.0
C1131 C 0.92706 0.27787 0.33715 0.0
C1132 C 0.90288 0.27511 0.34052 0.0
C1133 C 0.89761 0.29322 0.32925 0.0
C1134 C 0.91654 0.31418 0.31469 0.0
C1135 C 0.98857 0.36442 0.17752 0.0
C1136 C 0.97176 0.37142 0.16592 0.0
C1137 C 0.98863 0.36082 0.20582 0.0
C1138 C 0.97203 0.36435 0.22302 0.0
C1139 C 0.95464 0.37061 0.21157 0.0
C1140 C 0.95456 0.37422 0.18307 0.0
C1141 C 0.97506 0.36384 0.25306 0.0
C1142 C 0.95615 0.34348 0.26855 0.0
C1143 C 0.99847 0.38166 0.26553 0.0
C1144 C 0.01851 0.40422 0.25035 0.0
C1145 C 0.01274 0.42162 0.2377 0.0
C1146 C 0.03154 0.44258 0.22303 0.0
C1147 C 0.05625 0.44643 0.221 0.0
C1148 C 0.06223 0.42936 0.23369 0.0
C1149 C 0.04348 0.40835 0.24836 0.0
H1150 H 0.07078 0.46266 0.20963 0.0
H1151 H 0.88821 0.2589 0.35178 0.0
H1152 H 0.28389 0.88362 0.3349 0.0
H1153 H 0.2405 0.85664 0.31693 0.0
H1154 H 0.21026 0.84957 0.39916 0.0
H1155 H 0.25386 0.87658 0.41717 0.0
H1156 H 0.19759 0.80881 0.32528 0.0
H1157 H 0.1586 0.85888 0.39404 0.0
H1158 H 0.17456 0.89872 0.42124 0.0
H1159 H 0.23869 0.93742 0.36648 0.0
H1160 H 0.2229 0.89794 0.33875 0.0
H1161 H 0.05815 0.78116 0.32741 0.0
H1162 H 0.1016 0.80637 0.34562 0.0
H1163 H 0.1318 0.80463 0.26539 0.0
H1164 H 0.08809 0.77848 0.24754 0.0
H1165 H 0.14451 0.84922 0.33912 0.0
H1166 H 0.18304 0.79678 0.27171 0.0
H1167 H 0.16664 0.75587 0.24645 0.0
H1168 H 0.10229 0.72 0.30132 0.0
H1169 H 0.11849 0.76057 0.32711 0.0
C1170 C 0.26807 0.87523 0.34933 0.0
C1171 C 0.27231 0.88176 0.37753 0.0
C1172 C 0.24321 0.86001 0.33899 0.0
C1173 C 0.22198 0.85141 0.35655 0.0
C1174 C 0.22628 0.85617 0.38512 0.0
C1175 C 0.25124 0.87126 0.39551 0.0
C1176 C 0.1957 0.83998 0.34448 0.0
C1177 C 0.18608 0.81776 0.32812 0.0
C1178 C 0.18036 0.85134 0.34846 0.0
C1179 C 0.1897 0.87538 0.36453 0.0
C1180 C 0.17604 0.87593 0.38775 0.0
C1181 C 0.18506 0.89845 0.40326 0.0
C1182 C 0.20767 0.92056 0.39565 0.0
C1183 C 0.22123 0.92026 0.37241 0.0
C1184 C 0.21225 0.89781 0.3568 0.0
C1185 C 0.07407 0.78716 0.31337 0.0
C1186 C 0.0697 0.77835 0.28588 0.0
C1187 C 0.099 0.80137 0.32388 0.0
C1188 C 0.12018 0.80696 0.30716 0.0
C1189 C 0.11587 0.80013 0.27898 0.0
C1190 C 0.09087 0.78565 0.26855 0.0
C1191 C 0.14628 0.81798 0.3198 0.0
C1192 C 0.15592 0.84016 0.33627 0.0
C1193 C 0.16151 0.8064 0.31617 0.0
C1194 C 0.15185 0.78178 0.30112 0.0
C1195 C 0.16545 0.78012 0.27844 0.0
C1196 C 0.15618 0.757 0.26402 0.0
C1197 C 0.13339 0.73537 0.27222 0.0
C1198 C 0.11989 0.73678 0.29493 0.0
C1199 C 0.1291 0.75984 0.30944 0.0
H1200 H 0.12623 0.71751 0.261 0.0
H1201 H 0.21465 0.93795 0.40772 0.0
H1202 H 0.26448 0.33171 0.28284 0.0
H1203 H 0.23922 0.34728 0.3051 0.0
H1204 H 0.17286 0.27136 0.30176 0.0
H1205 H 0.19855 0.25547 0.27832 0.0
H1206 H 0.16027 0.30546 0.2855 0.0
H1207 H 0.20311 0.29991 0.36399 0.0
H1208 H 0.23787 0.30463 0.39442 0.0
H1209 H 0.27404 0.38655 0.38926 0.0
H1210 H 0.23979 0.38238 0.35833 0.0
H1211 H 0.09794 0.3508 0.37979 0.0
H1212 H 0.11764 0.32826 0.35826 0.0
H1213 H 0.18139 0.40051 0.33226 0.0
H1214 H 0.16119 0.42326 0.35317 0.0
H1215 H 0.19194 0.36442 0.36613 0.0
H1216 H 0.14746 0.36715 0.28441 0.0
H1217 H 0.10932 0.35984 0.25844 0.0
H1218 H 0.07289 0.27917 0.27502 0.0
H1219 H 0.11069 0.28607 0.30147 0.0
C1220 C 0.24457 0.31805 0.28708 0.0
C1221 C 0.23356 0.29227 0.27871 0.0
C1222 C 0.23011 0.32705 0.30009 0.0
C1223 C 0.2041 0.31056 0.30556 0.0
C1224 C 0.19296 0.2845 0.2979 0.0
C1225 C 0.20764 0.27535 0.28472 0.0
C1226 C 0.18883 0.32149 0.31761 0.0
C1227 C 0.16698 0.31793 0.30347 0.0
C1228 C 0.19761 0.33813 0.34091 0.0
C1229 C 0.21885 0.3408 0.35871 0.0
C1230 C 0.2186 0.31894 0.36908 0.0
C1231 C 0.23818 0.32152 0.38651 0.0
C1232 C 0.25803 0.34587 0.39394 0.0
C1233 C 0.25852 0.3677 0.38368 0.0
C1234 C 0.23905 0.36524 0.36615 0.0
C1235 C 0.11592 0.36187 0.36897 0.0
C1236 C 0.12802 0.38879 0.36805 0.0
C1237 C 0.12714 0.34895 0.3567 0.0
C1238 C 0.15099 0.36267 0.34371 0.0
C1239 C 0.16292 0.38956 0.34215 0.0
C1240 C 0.15133 0.40252 0.3539 0.0
C1241 C 0.16407 0.3489 0.33355 0.0
C1242 C 0.18536 0.35187 0.34822 0.0
C1243 C 0.15446 0.33135 0.3112 0.0
C1244 C 0.1318 0.32717 0.29518 0.0
C1245 C 0.13122 0.34789 0.28276 0.0
C1246 C 0.10968 0.34381 0.2679 0.0
C1247 C 0.08866 0.31907 0.26516 0.0
C1248 C 0.08917 0.29833 0.2772 0.0
C1249 C 0.11066 0.30231 0.2921 0.0
H1250 H 0.072 0.31595 0.25364 0.0
H1251 H 0.27312 0.34782 0.40751 0.0
H1252 H 0.75836 0.95867 0.28377 0.0
H1253 H 0.74255 0.91961 0.31163 0.0
H1254 H 0.69577 0.87433 0.24315 0.0
H1255 H 0.71071 0.91323 0.21594 0.0
H1256 H 0.66789 0.86 0.28629 0.0
H1257 H 0.75272 0.87482 0.26762 0.0
H1258 H 0.79987 0.89994 0.26727 0.0
H1259 H 0.80072 0.90759 0.35557 0.0
H1260 H 0.75356 0.88277 0.35641 0.0
H1261 H 0.62752 0.73595 0.34428 0.0
H1262 H 0.64508 0.77456 0.31539 0.0
H1263 H 0.69346 0.81981 0.38298 0.0
H1264 H 0.67689 0.78136 0.41115 0.0
H1265 H 0.72074 0.83413 0.34009 0.0
H1266 H 0.63672 0.82044 0.35939 0.0
H1267 H 0.58957 0.79614 0.36065 0.0
H1268 H 0.58711 0.78731 0.27243 0.0
H1269 H 0.63427 0.81131 0.27068 0.0
C1270 C 0.74521 0.94028 0.27451 0.0
C1271 C 0.73594 0.93903 0.24758 0.0
C1272 C 0.73607 0.91789 0.29047 0.0
C1273 C 0.71789 0.89373 0.27961 0.0
C1274 C 0.70957 0.89255 0.25226 0.0
C1275 C 0.71832 0.91485 0.23658 0.0
C1276 C 0.70636 0.8698 0.29683 0.0
C1277 C 0.67954 0.85421 0.29772 0.0
C1278 C 0.72127 0.86235 0.31254 0.0
C1279 C 0.74961 0.87714 0.31204 0.0
C1280 C 0.76296 0.882 0.28693 0.0
C1281 C 0.78969 0.89616 0.28665 0.0
C1282 C 0.80328 0.90541 0.31137 0.0
C1283 C 0.79017 0.90044 0.33643 0.0
C1284 C 0.76345 0.88631 0.33683 0.0
C1285 C 0.64167 0.75421 0.35299 0.0
C1286 C 0.65076 0.75554 0.38002 0.0
C1287 C 0.65173 0.77637 0.33649 0.0
C1288 C 0.67063 0.80044 0.3469 0.0
C1289 C 0.67913 0.80167 0.37417 0.0
C1290 C 0.66948 0.77959 0.39038 0.0
C1291 C 0.68225 0.82428 0.32951 0.0
C1292 C 0.70908 0.83987 0.32861 0.0
C1293 C 0.66735 0.83183 0.31392 0.0
C1294 C 0.63901 0.81744 0.31494 0.0
C1295 C 0.62612 0.81316 0.34028 0.0
C1296 C 0.5994 0.79947 0.34108 0.0
C1297 C 0.58535 0.79013 0.31664 0.0
C1298 C 0.59801 0.79452 0.29134 0.0
C1299 C 0.62473 0.80818 0.29044 0.0
H1300 H 0.56467 0.77953 0.3173 0.0
H1301 H 0.82397 0.91637 0.31111 0.0
H1302 H 0.79392 0.07211 0.1468 0.0
H1303 H 0.82181 0.11676 0.13332 0.0
H1304 H 0.82747 0.14014 0.21858 0.0
H1305 H 0.79906 0.09522 0.23195 0.0
H1306 H 0.81401 0.16728 0.18769 0.0
H1307 H 0.88021 0.1465 0.18121 0.0
H1308 H 0.90048 0.12171 0.16682 0.0
H1309 H 0.89221 0.13579 0.0816 0.0
H1310 H 0.87157 0.1604 0.09547 0.0
H1311 H 0.91141 0.29774 0.16721 0.0
H1312 H 0.88229 0.25318 0.18003 0.0
H1313 H 0.87468 0.23096 0.09421 0.0
H1314 H 0.90411 0.27585 0.0814 0.0
H1315 H 0.88884 0.20322 0.12492 0.0
H1316 H 0.82316 0.2248 0.13196 0.0
H1317 H 0.80343 0.24994 0.1469 0.0
H1318 H 0.81142 0.23478 0.23181 0.0
H1319 H 0.83152 0.20981 0.2174 0.0
C1320 C 0.80218 0.08666 0.16281 0.0
C1321 C 0.795 0.0801 0.19054 0.0
C1322 C 0.81797 0.11229 0.15506 0.0
C1323 C 0.82695 0.13205 0.17487 0.0
C1324 C 0.82089 0.12535 0.20285 0.0
C1325 C 0.80504 0.09962 0.2106 0.0
C1326 C 0.84052 0.15957 0.16601 0.0
C1327 C 0.83066 0.17523 0.17434 0.0
C1328 C 0.86174 0.1699 0.14781 0.0
C1329 C 0.87412 0.1551 0.13939 0.0
C1330 C 0.88252 0.14414 0.15939 0.0
C1331 C 0.89412 0.13015 0.15133 0.0
C1332 C 0.89757 0.12712 0.12331 0.0
C1333 C 0.88949 0.13813 0.1033 0.0
C1334 C 0.87787 0.15212 0.11125 0.0
C1335 C 0.90251 0.28353 0.15096 0.0
C1336 C 0.90957 0.29038 0.12324 0.0
C1337 C 0.88599 0.25795 0.15832 0.0
C1338 C 0.8762 0.23851 0.13815 0.0
C1339 C 0.88194 0.24555 0.1102 0.0
C1340 C 0.89839 0.27128 0.10279 0.0
C1341 C 0.86234 0.2109 0.14661 0.0
C1342 C 0.87216 0.19524 0.13822 0.0
C1343 C 0.84116 0.20061 0.16484 0.0
C1344 C 0.82906 0.21561 0.17359 0.0
C1345 C 0.82091 0.22699 0.15382 0.0
C1346 C 0.80961 0.24118 0.1622 0.0
C1347 C 0.80623 0.24401 0.19029 0.0
C1348 C 0.81408 0.23259 0.21006 0.0
C1349 C 0.82539 0.21839 0.2018 0.0
H1350 H 0.79748 0.255 0.19673 0.0
H1351 H 0.90656 0.11629 0.11711 0.0
H1352 H 0.75783 0.66197 0.08011 0.0
H1353 H 0.8015 0.67891 0.09767 0.0
H1354 H 0.77281 0.62043 0.16028 0.0
H1355 H 0.72908 0.60392 0.14317 0.0
H1356 H 0.79802 0.67487 0.17893 0.0
H1357 H 0.81162 0.6183 0.11965 0.0
H1358 H 0.81372 0.59945 0.07515 0.0
H1359 H 0.87001 0.67392 0.04587 0.0
H1360 H 0.86807 0.69325 0.09015 0.0
H1361 H 0.90361 0.69454 0.25676 0.0
H1362 H 0.86563 0.67903 0.22822 0.0
H1363 H 0.91066 0.73171 0.16376 0.0
H1364 H 0.94938 0.74717 0.19251 0.0
H1365 H 0.87891 0.68445 0.14239 0.0
H1366 H 0.8673 0.74116 0.20096 0.0
H1367 H 0.86558 0.76144 0.24459 0.0
H1368 H 0.80536 0.6889 0.27395 0.0
H1369 H 0.80708 0.66811 0.23073 0.0
C1370 C 0.76106 0.65196 0.09672 0.0
C1371 C 0.74017 0.63123 0.10984 0.0
C1372 C 0.786 0.66181 0.10693 0.0
C1373 C 0.79041 0.65119 0.13059 0.0
C1374 C 0.7698 0.62916 0.14227 0.0
C1375 C 0.74488 0.61938 0.13214 0.0
C1376 C 0.81527 0.66525 0.14567 0.0
C1377 C 0.81561 0.67656 0.17116 0.0
C1378 C 0.83854 0.66877 0.13482 0.0
C1379 C 0.83944 0.65726 0.10807 0.0
C1380 C 0.82422 0.6307 0.10361 0.0
C1381 C 0.82546 0.61991 0.07846 0.0
C1382 C 0.84192 0.63549 0.05766 0.0
C1383 C 0.8572 0.66189 0.06197 0.0
C1384 C 0.85607 0.67276 0.0871 0.0
C1385 C 0.90548 0.70326 0.23672 0.0
C1386 C 0.92956 0.7223 0.22705 0.0
C1387 C 0.88362 0.69434 0.22036 0.0
C1388 C 0.88504 0.70427 0.19382 0.0
C1389 C 0.90899 0.72376 0.18419 0.0
C1390 C 0.93106 0.73284 0.20075 0.0
C1391 C 0.86146 0.6933 0.17625 0.0
C1392 C 0.86134 0.68277 0.15021 0.0
C1393 C 0.8383 0.69068 0.18642 0.0
C1394 C 0.83735 0.70306 0.2126 0.0
C1395 C 0.85382 0.7295 0.2168 0.0
C1396 C 0.85284 0.74109 0.24146 0.0
C1397 C 0.83538 0.72647 0.26204 0.0
C1398 C 0.81886 0.70021 0.25799 0.0
C1399 C 0.8198 0.68852 0.23339 0.0
H1400 H 0.83465 0.73549 0.28111 0.0
H1401 H 0.84289 0.6271 0.03822 0.0
H1402 H 0.2897 0.22691 0.15645 0.0
H1403 H 0.30636 0.20024 0.13831 0.0
H1404 H 0.33058 0.19422 0.22029 0.0
H1405 H 0.31356 0.22059 0.23843 0.0
H1406 H 0.37039 0.21529 0.18217 0.0
H1407 H 0.28594 0.14155 0.18812 0.0
H1408 H 0.2395 0.11632 0.17955 0.0
H1409 H 0.25285 0.12154 0.09204 0.0
H1410 H 0.29939 0.14714 0.10008 0.0
H1411 H 0.41679 0.13011 0.16197 0.0
H1412 H 0.39794 0.15614 0.17419 0.0
H1413 H 0.36822 0.14745 0.09138 0.0
H1414 H 0.38681 0.12067 0.07935 0.0
H1415 H 0.33113 0.1353 0.12655 0.0
H1416 H 0.41469 0.20752 0.11909 0.0
H1417 H 0.4613 0.23377 0.12605 0.0
H1418 H 0.45026 0.23349 0.21372 0.0
H1419 H 0.40358 0.20693 0.20734 0.0
C1420 C 0.2972 0.2186 0.17081 0.0
C1421 C 0.29964 0.22521 0.199 0.0
C1422 C 0.30706 0.20363 0.16037 0.0
C1423 C 0.31994 0.19532 0.17787 0.0
C1424 C 0.32075 0.20038 0.20636 0.0
C1425 C 0.31059 0.21506 0.21683 0.0
C1426 C 0.33515 0.18423 0.16613 0.0
C1427 C 0.36175 0.19758 0.17035 0.0
C1428 C 0.32413 0.1618 0.14958 0.0
C1429 C 0.29615 0.14652 0.1447 0.0
C1430 C 0.27897 0.13755 0.16704 0.0
C1431 C 0.25263 0.12313 0.16228 0.0
C1432 C 0.24323 0.1174 0.13527 0.0
C1433 C 0.26016 0.12603 0.11295 0.0
C1434 C 0.28652 0.14048 0.1176 0.0
C1435 C 0.40735 0.13483 0.14596 0.0
C1436 C 0.40385 0.12387 0.11951 0.0
C1437 C 0.39634 0.14961 0.15303 0.0
C1438 C 0.38157 0.15397 0.13377 0.0
C1439 C 0.37949 0.14444 0.10668 0.0
C1440 C 0.39057 0.12956 0.0996 0.0
C1441 C 0.36646 0.16615 0.14295 0.0
C1442 C 0.33988 0.15309 0.13822 0.0
C1443 C 0.37753 0.18908 0.15876 0.0
C1444 C 0.40562 0.20505 0.16274 0.0
C1445 C 0.4222 0.21288 0.13988 0.0
C1446 C 0.44864 0.22785 0.14372 0.0
C1447 C 0.45874 0.23525 0.17031 0.0
C1448 C 0.44241 0.22773 0.19313 0.0
C1449 C 0.41596 0.21275 0.18941 0.0
H1450 H 0.47921 0.24684 0.17324 0.0
H1451 H 0.22282 0.10621 0.13163 0.0
H1452 H 0.7275 0.10614 0.66378 0.0
H1453 H 0.77149 0.13355 0.67986 0.0
H1454 H 0.79752 0.14823 0.59539 0.0
H1455 H 0.75325 0.12096 0.57929 0.0
H1456 H 0.82282 0.12962 0.6263 0.0
H1457 H 0.80327 0.19661 0.63517 0.0
H1458 H 0.77875 0.21705 0.64985 0.0
H1459 H 0.78973 0.20496 0.73492 0.0
H1460 H 0.81404 0.18411 0.72074 0.0
H1461 H 0.95335 0.22279 0.65674 0.0
H1462 H 0.90943 0.19575 0.64033 0.0
H1463 H 0.88232 0.18494 0.72439 0.0
H1464 H 0.92644 0.21218 0.74073 0.0
H1465 H 0.85756 0.20179 0.69322 0.0
H1466 H 0.87652 0.13441 0.68479 0.0
H1467 H 0.90087 0.11366 0.67051 0.0
H1468 H 0.89068 0.12592 0.58525 0.0
H1469 H 0.86656 0.14707 0.59903 0.0
C1470 C 0.74245 0.11625 0.64864 0.0
C1471 C 0.73683 0.11195 0.62027 0.0
C1472 C 0.76769 0.13174 0.65785 0.0
C1473 C 0.78798 0.14297 0.63889 0.0
C1474 C 0.78225 0.13983 0.61045 0.0
C1475 C 0.75688 0.1246 0.60123 0.0
C1476 C 0.81509 0.15575 0.64887 0.0
C1477 C 0.83056 0.14571 0.64055 0.0
C1478 C 0.82502 0.17617 0.66824 0.0
C1479 C 0.81026 0.18855 0.67686 0.0
C1480 C 0.80025 0.19807 0.657 0.0
C1481 C 0.78643 0.20979 0.66524 0.0
C1482 C 0.78262 0.21224 0.6933 0.0
C1483 C 0.79267 0.20302 0.71319 0.0
C1484 C 0.80649 0.19127 0.70506 0.0
C1485 C 0.93815 0.2135 0.67179 0.0
C1486 C 0.94343 0.21891 0.70008 0.0
C1487 C 0.91293 0.19824 0.66238 0.0
C1488 C 0.89234 0.18821 0.68106 0.0
C1489 C 0.89776 0.19239 0.70951 0.0
C1490 C 0.92305 0.20756 0.71892 0.0
C1491 C 0.86533 0.17564 0.67071 0.0
C1492 C 0.84985 0.18571 0.67896 0.0
C1493 C 0.85536 0.15518 0.65135 0.0
C1494 C 0.86995 0.14257 0.64296 0.0
C1495 C 0.87967 0.1329 0.663 0.0
C1496 C 0.89339 0.12102 0.65499 0.0
C1497 C 0.89738 0.11854 0.62699 0.0
C1498 C 0.88761 0.12788 0.60693 0.0
C1499 C 0.87389 0.1398 0.61483 0.0
H1500 H 0.908 0.10932 0.62083 0.0
H1501 H 0.77194 0.22134 0.69963 0.0
H1502 H 0.89634 0.6183 0.63294 0.0
H1503 H 0.87127 0.63797 0.64555 0.0
H1504 H 0.8957 0.68321 0.57109 0.0
H1505 H 0.92181 0.66388 0.55898 0.0
H1506 H 0.90295 0.71355 0.61182 0.0
H1507 H 0.82987 0.63579 0.58485 0.0
H1508 H 0.80078 0.5891 0.58093 0.0
H1509 H 0.78983 0.58392 0.66884 0.0
H1510 H 0.81911 0.63051 0.67337 0.0
H1511 H 0.82786 0.7663 0.67494 0.0
H1512 H 0.84444 0.74726 0.64138 0.0
H1513 H 0.84173 0.6955 0.70422 0.0
H1514 H 0.8255 0.71411 0.73721 0.0
H1515 H 0.81802 0.66991 0.65712 0.0
H1516 H 0.89817 0.74733 0.68257 0.0
H1517 H 0.92687 0.79419 0.68522 0.0
H1518 H 0.92237 0.79967 0.59717 0.0
H1519 H 0.89339 0.75285 0.59406 0.0
C1520 C 0.89538 0.63152 0.61856 0.0
C1521 C 0.9105 0.63901 0.5946 0.0
C1522 C 0.88105 0.64293 0.62585 0.0
C1523 C 0.88118 0.66206 0.60923 0.0
C1524 C 0.89509 0.66848 0.5843 0.0
C1525 C 0.90965 0.65707 0.57706 0.0
C1526 C 0.86919 0.67699 0.61977 0.0
C1527 C 0.88407 0.70394 0.62107 0.0
C1528 C 0.84457 0.66477 0.63203 0.0
C1529 C 0.82679 0.6367 0.62943 0.0
C1530 C 0.82137 0.62469 0.60337 0.0
C1531 C 0.80483 0.59823 0.60104 0.0
C1532 C 0.79348 0.58356 0.62462 0.0
C1533 C 0.79861 0.59532 0.65059 0.0
C1534 C 0.81515 0.62176 0.65304 0.0
C1535 C 0.83128 0.75119 0.6816 0.0
C1536 C 0.8252 0.74167 0.70874 0.0
C1537 C 0.84063 0.74022 0.6624 0.0
C1538 C 0.84408 0.71965 0.67014 0.0
C1539 C 0.83894 0.71102 0.69752 0.0
C1540 C 0.82971 0.72184 0.71646 0.0
C1541 C 0.85228 0.70613 0.65025 0.0
C1542 C 0.83661 0.67945 0.6472 0.0
C1543 C 0.87598 0.7186 0.63618 0.0
C1544 C 0.89338 0.74668 0.63813 0.0
C1545 C 0.90313 0.75857 0.66381 0.0
C1546 C 0.91948 0.78511 0.66539 0.0
C1547 C 0.92637 0.79991 0.64139 0.0
C1548 C 0.91697 0.78819 0.61575 0.0
C1549 C 0.9006 0.76166 0.61407 0.0
H1550 H 0.93903 0.82046 0.64265 0.0
H1551 H 0.78069 0.56307 0.62277 0.0
H1552 H 0.28099 0.06846 0.67766 0.0
H1553 H 0.29723 0.10548 0.64638 0.0
H1554 H 0.31061 0.15528 0.71615 0.0
H1555 H 0.29531 0.11862 0.74737 0.0
H1556 H 0.29024 0.16694 0.66734 0.0
H1557 H 0.35759 0.15052 0.69635 0.0
H1558 H 0.37705 0.12335 0.701 0.0
H1559 H 0.37549 0.11426 0.61286 0.0
H1560 H 0.3556 0.14103 0.60774 0.0
H1561 H 0.40918 0.28777 0.63051 0.0
H1562 H 0.39152 0.24321 0.64532 0.0
H1563 H 0.33244 0.21866 0.58349 0.0
H1564 H 0.35004 0.26321 0.56883 0.0
H1565 H 0.37417 0.19213 0.62452 0.0
H1566 H 0.2738 0.18068 0.62259 0.0
H1567 H 0.25357 0.20715 0.61814 0.0
H1568 H 0.32058 0.27186 0.65226 0.0
H1569 H 0.34108 0.24582 0.65709 0.0
C1570 C 0.28652 0.08717 0.68616 0.0
C1571 C 0.28657 0.09063 0.71491 0.0
C1572 C 0.29605 0.10834 0.66832 0.0
C1573 C 0.3053 0.13321 0.67894 0.0
C1574 C 0.30354 0.13632 0.70746 0.0
C1575 C 0.29465 0.11533 0.72528 0.0
C1576 C 0.31885 0.15632 0.66101 0.0
C1577 C 0.3084 0.17226 0.65765 0.0
C1578 C 0.34272 0.16345 0.6486 0.0
C1579 C 0.35489 0.14758 0.65168 0.0
C1580 C 0.36121 0.14256 0.67798 0.0
C1581 C 0.37237 0.12728 0.6807 0.0
C1582 C 0.37756 0.11714 0.65724 0.0
C1583 C 0.37153 0.12219 0.63101 0.0
C1584 C 0.3603 0.1374 0.62819 0.0
C1585 C 0.39343 0.27267 0.61895 0.0
C1586 C 0.38127 0.27887 0.59818 0.0
C1587 C 0.38316 0.24719 0.62759 0.0
C1588 C 0.36039 0.22758 0.61581 0.0
C1589 C 0.34992 0.23343 0.59298 0.0
C1590 C 0.36017 0.25888 0.58439 0.0
C1591 C 0.34536 0.2026 0.63045 0.0
C1592 C 0.35568 0.18649 0.63355 0.0
C1593 C 0.32124 0.19522 0.64251 0.0
C1594 C 0.30906 0.21123 0.64008 0.0
C1595 C 0.28418 0.20052 0.62927 0.0
C1596 C 0.27267 0.21548 0.62663 0.0
C1597 C 0.28579 0.24119 0.63486 0.0
C1598 C 0.31043 0.25196 0.64582 0.0
C1599 C 0.32201 0.23709 0.64849 0.0
H1600 H 0.27685 0.25274 0.63277 0.0
H1601 H 0.38622 0.10533 0.6594 0.0
H1602 H 0.22456 0.96535 0.79492 0.0
H1603 H 0.19667 0.92148 0.81212 0.0
H1604 H 0.24928 0.89927 0.78043 0.0
H1605 H 0.27704 0.94285 0.76351 0.0
H1606 H 0.19871 0.86001 0.77496 0.0
H1607 H 0.254 0.91958 0.84481 0.0
H1608 H 0.27097 0.95891 0.87274 0.0
H1609 H 0.19648 0.93254 0.90735 0.0
H1610 H 0.17882 0.89341 0.87868 0.0
H1611 H 0.15394 0.74654 0.85468 0.0
H1612 H 0.18415 0.78908 0.83559 0.0
H1613 H 0.14341 0.8209 0.87743 0.0
H1614 H 0.1143 0.77912 0.89711 0.0
H1615 H 0.18961 0.8554 0.87696 0.0
H1616 H 0.13255 0.7988 0.80659 0.0
H1617 H 0.11263 0.75995 0.77733 0.0
H1618 H 0.18613 0.78018 0.74393 0.0
H1619 H 0.20653 0.819 0.77325 0.0
C1620 C 0.22962 0.95083 0.79074 0.0
C1621 C 0.25288 0.95747 0.77769 0.0
C1622 C 0.21384 0.92582 0.80084 0.0
C1623 C 0.22103 0.90706 0.79793 0.0
C1624 C 0.24327 0.91328 0.783 0.0
C1625 C 0.25911 0.93822 0.77326 0.0
C1626 C 0.20703 0.88188 0.8126 0.0
C1627 C 0.19686 0.85899 0.79728 0.0
C1628 C 0.2043 0.88039 0.84173 0.0
C1629 C 0.21504 0.9037 0.85934 0.0
C1630 C 0.24118 0.92226 0.85818 0.0
C1631 C 0.25093 0.94454 0.87418 0.0
C1632 C 0.23481 0.94823 0.8919 0.0
C1633 C 0.20892 0.92966 0.89359 0.0
C1634 C 0.19902 0.90747 0.87739 0.0
C1635 C 0.15224 0.76291 0.86069 0.0
C1636 C 0.13194 0.75958 0.87761 0.0
C1637 C 0.16917 0.78715 0.84933 0.0
C1638 C 0.16575 0.80829 0.85436 0.0
C1639 C 0.14659 0.80514 0.87297 0.0
C1640 C 0.12997 0.78118 0.88439 0.0
C1641 C 0.18074 0.83329 0.83936 0.0
C1642 C 0.19132 0.85627 0.85463 0.0
C1643 C 0.18335 0.83481 0.81015 0.0
C1644 C 0.1711 0.81162 0.79234 0.0
C1645 C 0.14448 0.79487 0.79312 0.0
C1646 C 0.1331 0.77287 0.77652 0.0
C1647 C 0.14813 0.76756 0.75887 0.0
C1648 C 0.17454 0.7843 0.75767 0.0
C1649 C 0.18601 0.8063 0.77426 0.0
H1650 H 0.13932 0.7505 0.74609 0.0
H1651 H 0.24231 0.96543 0.90436 0.0
H1652 H 0.10439 0.29811 0.72364 0.0
H1653 H 0.14656 0.3147 0.7443 0.0
H1654 H 0.11159 0.27352 0.81936 0.0
H1655 H 0.06892 0.25677 0.79842 0.0
H1656 H 0.14513 0.32388 0.82933 0.0
H1657 H 0.14818 0.25744 0.77873 0.0
H1658 H 0.1444 0.23122 0.7379 0.0
H1659 H 0.20271 0.29801 0.69652 0.0
H1660 H 0.2066 0.32472 0.73697 0.0
H1661 H 0.25913 0.3538 0.89741 0.0
H1662 H 0.21834 0.33242 0.87359 0.0
H1663 H 0.2541 0.37571 0.79991 0.0
H1664 H 0.2958 0.39746 0.82394 0.0
H1665 H 0.22051 0.32414 0.7887 0.0
H1666 H 0.21718 0.39064 0.83854 0.0
H1667 H 0.22097 0.4173 0.87896 0.0
H1668 H 0.16299 0.35089 0.92116 0.0
H1669 H 0.15911 0.32374 0.88114 0.0
C1670 C 0.10571 0.29185 0.74423 0.0
C1671 C 0.0834 0.27581 0.75928 0.0
C1672 C 0.12988 0.30141 0.75606 0.0
C1673 C 0.13244 0.29534 0.78339 0.0
C1674 C 0.11016 0.27841 0.79818 0.0
C1675 C 0.0858 0.26855 0.78614 0.0
C1676 C 0.15815 0.30868 0.79699 0.0
C1677 C 0.16148 0.32349 0.82073 0.0
C1678 C 0.17982 0.30912 0.7852 0.0
C1679 C 0.17752 0.29312 0.76082 0.0
C1680 C 0.16005 0.26658 0.76084 0.0
C1681 C 0.15792 0.25162 0.73778 0.0
C1682 C 0.17326 0.26295 0.71461 0.0
C1683 C 0.19082 0.28927 0.71448 0.0
C1684 C 0.19302 0.30432 0.73748 0.0
C1685 C 0.25854 0.359 0.87613 0.0
C1686 C 0.28089 0.37752 0.86264 0.0
C1687 C 0.23501 0.34671 0.86254 0.0
C1688 C 0.23293 0.35258 0.83503 0.0
C1689 C 0.25519 0.37091 0.82121 0.0
C1690 C 0.27898 0.38341 0.83496 0.0
C1691 C 0.20739 0.33915 0.82111 0.0
C1692 C 0.20412 0.32443 0.79731 0.0
C1693 C 0.18574 0.33885 0.83276 0.0
C1694 C 0.18803 0.35511 0.85691 0.0
C1695 C 0.20539 0.38167 0.85653 0.0
C1696 C 0.20753 0.39688 0.87935 0.0
C1697 C 0.19228 0.38578 0.90264 0.0
C1698 C 0.17482 0.35945 0.90312 0.0
C1699 C 0.17262 0.34415 0.88036 0.0
H1700 H 0.19396 0.39759 0.92029 0.0
H1701 H 0.17158 0.25134 0.69678 0.0
H1702 H 0.7879 0.82682 0.82154 0.0
H1703 H 0.77095 0.85364 0.83849 0.0
H1704 H 0.71407 0.82395 0.77385 0.0
H1705 H 0.7316 0.79795 0.75651 0.0
H1706 H 0.72482 0.87058 0.78553 0.0
H1707 H 0.70714 0.7965 0.83841 0.0
H1708 H 0.7185 0.76977 0.86607 0.0
H1709 H 0.74999 0.82768 0.92921 0.0
H1710 H 0.74048 0.85576 0.90087 0.0
H1711 H 0.62363 0.87814 0.8415 0.0
H1712 H 0.64735 0.85673 0.82883 0.0
H1713 H 0.70341 0.89974 0.89165 0.0
H1714 H 0.67941 0.92106 0.90453 0.0
H1715 H 0.69629 0.84996 0.88301 0.0
H1716 H 0.71329 0.92378 0.82966 0.0
H1717 H 0.70086 0.94982 0.80172 0.0
H1718 H 0.66747 0.88993 0.74075 0.0
H1719 H 0.67928 0.86331 0.76861 0.0
C1720 C 0.77274 0.82718 0.81006 0.0
C1721 C 0.76141 0.81069 0.78735 0.0
C1722 C 0.7627 0.84216 0.82006 0.0
C1723 C 0.74066 0.84033 0.80802 0.0
C1724 C 0.73096 0.82573 0.7837 0.0
C1725 C 0.74119 0.81104 0.77354 0.0
C1726 C 0.7259 0.85097 0.82213 0.0
C1727 C 0.71856 0.86593 0.8068 0.0
C1728 C 0.71783 0.84531 0.85013 0.0
C1729 C 0.7234 0.8284 0.8673 0.0
C1730 C 0.71677 0.80372 0.85803 0.0
C1731 C 0.72286 0.78828 0.87388 0.0
C1732 C 0.73466 0.7968 0.8996 0.0
C1733 C 0.7408 0.82106 0.9093 0.0
C1734 C 0.73528 0.83686 0.89322 0.0
C1735 C 0.6402 0.88193 0.85368 0.0
C1736 C 0.64938 0.9009 0.87437 0.0
C1737 C 0.65402 0.87001 0.8461 0.0
C1738 C 0.67753 0.87707 0.85881 0.0
C1739 C 0.68539 0.89404 0.88146 0.0
C1740 C 0.67146 0.90595 0.88911 0.0
C1741 C 0.6951 0.86919 0.84627 0.0
C1742 C 0.70288 0.8548 0.86185 0.0
C1743 C 0.7035 0.87523 0.8185 0.0
C1744 C 0.697 0.89147 0.80133 0.0
C1745 C 0.70318 0.91611 0.81036 0.0
C1746 C 0.69624 0.93097 0.79455 0.0
C1747 C 0.68334 0.92152 0.7695 0.0
C1748 C 0.67744 0.89722 0.76017 0.0
C1749 C 0.68427 0.88224 0.77596 0.0
H1750 H 0.67796 0.93304 0.75729 0.0
H1751 H 0.73904 0.78462 0.91201 0.0
H1752 H 0.46168 0.40266 0.5108 0.0
H1753 H 0.48313 0.44208 0.48309 0.0
H1754 H 0.48918 0.48675 0.55545 0.0
H1755 H 0.46735 0.44769 0.58272 0.0
H1756 H 0.47153 0.50131 0.51474 0.0
H1757 H 0.54168 0.48453 0.52456 0.0
H1758 H 0.56263 0.45875 0.51934 0.0
H1759 H 0.5515 0.45581 0.43149 0.0
H1760 H 0.53022 0.48134 0.43624 0.0
H1761 H 0.56893 0.62809 0.48882 0.0
H1762 H 0.53777 0.58449 0.50247 0.0
H1763 H 0.54256 0.55708 0.42148 0.0
H1764 H 0.57453 0.60107 0.40814 0.0
H1765 H 0.54966 0.53027 0.45835 0.0
H1766 H 0.48517 0.55249 0.44798 0.0
H1767 H 0.46467 0.57868 0.45309 0.0
H1768 H 0.4646 0.57134 0.54131 0.0
H1769 H 0.48542 0.54541 0.53678 0.0
C1770 C 0.46808 0.42097 0.52084 0.0
C1771 C 0.46287 0.42203 0.54899 0.0
C1772 C 0.48028 0.44353 0.50497 0.0
C1773 C 0.48782 0.46759 0.51707 0.0
C1774 C 0.4834 0.46856 0.54542 0.0
C1775 C 0.47105 0.44615 0.5611 0.0
C1776 C 0.49949 0.49184 0.50053 0.0
C1777 C 0.48874 0.5077 0.50257 0.0
C1778 C 0.52131 0.49988 0.4836 0.0
C1779 C 0.5341 0.48456 0.48079 0.0
C1780 C 0.54353 0.47821 0.50416 0.0
C1781 C 0.55549 0.46368 0.50128 0.0
C1782 C 0.55832 0.45557 0.47511 0.0
C1783 C 0.54925 0.46205 0.45175 0.0
C1784 C 0.53725 0.47656 0.45452 0.0
C1785 C 0.56229 0.61296 0.47346 0.0
C1786 C 0.57358 0.61809 0.44716 0.0
C1787 C 0.54454 0.58788 0.48133 0.0
C1788 C 0.53749 0.56722 0.46304 0.0
C1789 C 0.54753 0.57257 0.43603 0.0
C1790 C 0.56545 0.59778 0.42818 0.0
C1791 C 0.52222 0.5402 0.47336 0.0
C1792 C 0.53222 0.52377 0.47013 0.0
C1793 C 0.49966 0.5316 0.48919 0.0
C1794 C 0.48698 0.54709 0.49202 0.0
C1795 C 0.48092 0.55659 0.46848 0.0
C1796 C 0.46922 0.57137 0.47127 0.0
C1797 C 0.46336 0.57669 0.4975 0.0
C1798 C 0.46914 0.5672 0.521 0.0
C1799 C 0.48085 0.55241 0.51832 0.0
H1800 H 0.45432 0.58816 0.49962 0.0
H1801 H 0.56759 0.44433 0.47292 0.0
H1802 H 0.59491 0.07585 0.56471 0.0
H1803 H 0.55105 0.05474 0.54648 0.0
H1804 H 0.57116 0.01576 0.48539 0.0
H1805 H 0.61482 0.03693 0.5035 0.0
H1806 H 0.53563 0.02616 0.46483 0.0
H1807 H 0.54723 0.98831 0.54658 0.0
H1808 H 0.56053 0.98848 0.59478 0.0
H1809 H 0.5065 0.00972 0.62304 0.0
H1810 H 0.49326 0.01022 0.57492 0.0
H1811 H 0.4141 0.92099 0.43662 0.0
H1812 H 0.45762 0.94273 0.45573 0.0
H1813 H 0.4364 0.98324 0.51356 0.0
H1814 H 0.39303 0.96154 0.49444 0.0
H1815 H 0.47226 0.97223 0.536 0.0
H1816 H 0.46081 0.00983 0.45338 0.0
H1817 H 0.4475 0.00871 0.40498 0.0
H1818 H 0.50131 0.98663 0.37824 0.0
H1819 H 0.51466 0.98722 0.42655 0.0
C1820 C 0.59028 0.06388 0.54644 0.0
C1821 C 0.60841 0.0585 0.53508 0.0
C1822 C 0.56509 0.05143 0.53633 0.0
C1823 C 0.55759 0.0332 0.51487 0.0
C1824 C 0.57635 0.02966 0.50193 0.0
C1825 C 0.60143 0.042 0.5121 0.0
C1826 C 0.52999 0.01585 0.50787 0.0
C1827 C 0.52186 0.01426 0.48038 0.0
C1828 C 0.51183 1.00028 0.52811 0.0
C1829 C 0.51944 0.99957 0.55711 0.0
C1830 C 0.5383 0.99319 0.56306 0.0
C1831 C 0.54583 0.99315 0.59036 0.0
C1832 C 0.53439 0.99913 0.61196 0.0
C1833 C 0.51537 0.00512 0.60629 0.0
C1834 C 0.50785 0.0053 0.579 0.0
C1835 C 0.41839 0.93346 0.4544 0.0
C1836 C 0.40002 0.93907 0.46455 0.0
C1837 C 0.44338 0.94623 0.46503 0.0
C1838 C 0.45047 0.96499 0.48581 0.0
C1839 C 0.43148 0.96888 0.49759 0.0
C1840 C 0.40658 0.95624 0.48685 0.0
C1841 C 0.47795 0.98259 0.49299 0.0
C1842 C 0.48605 0.9842 0.52049 0.0
C1843 C 0.49611 0.99809 0.47274 0.0
C1844 C 0.48856 0.99833 0.44361 0.0
C1845 C 0.46971 0.00459 0.43719 0.0
C1846 C 0.46215 0.00406 0.40978 0.0
C1847 C 0.4735 0.99754 0.38856 0.0
C1848 C 0.49251 0.99164 0.3947 0.0
C1849 C 0.50009 0.99209 0.4221 0.0
H1850 H 0.4676 0.9971 0.36735 0.0
H1851 H 0.54025 0.99908 0.63308 0.0
H1852 H 0.10467 0.50303 0.45651 0.0
H1853 H 0.08458 0.52901 0.46284 0.0
H1854 H 0.03491 0.49097 0.3936 0.0
H1855 H 0.05515 0.46491 0.38715 0.0
H1856 H 0.05339 0.55282 0.4146 0.0
H1857 H 1.00482 0.45869 0.43626 0.0
H1858 H 0.00676 0.4212 0.45328 0.0
H1859 H 0.04229 0.46165 0.52834 0.0
H1860 H 0.04077 0.49945 0.51158 0.0
H1861 H 0.95789 0.57296 0.48341 0.0
H1862 H 0.97651 0.55399 0.45254 0.0
H1863 H 0.01365 0.54255 0.52262 0.0
H1864 H 0.99477 0.56026 0.55298 0.0
H1865 H 0.99648 0.50296 0.49221 0.0
H1866 H 0.04458 0.59489 0.47538 0.0
H1867 H 0.04822 0.63578 0.46103 0.0
H1868 H 0.01908 0.60426 0.38065 0.0
H1869 H 0.01501 0.56309 0.39464 0.0
C1870 C 0.09077 0.50151 0.44138 0.0
C1871 C 0.08171 0.48215 0.42113 0.0
C1872 C 0.07913 0.51627 0.44515 0.0
C1873 C 0.05813 0.51186 0.42881 0.0
C1874 C 0.05127 0.49493 0.40624 0.0
C1875 C 0.06302 0.48016 0.40241 0.0
C1876 C 0.03984 0.51927 0.43999 0.0
C1877 C 0.0405 0.54171 0.43115 0.0
C1878 C 0.02337 0.50505 0.46191 0.0
C1879 C 0.02272 0.48181 0.47268 0.0
C1880 C 0.01296 0.45951 0.45642 0.0
C1881 C 0.014 0.43824 0.466 0.0
C1882 C 0.02464 0.43907 0.49187 0.0
C1883 C 0.03403 0.46105 0.50832 0.0
C1884 C 0.03303 0.48236 0.49883 0.0
C1885 C 0.96967 0.56595 0.49213 0.0
C1886 C 0.97485 0.56822 0.52067 0.0
C1887 C 0.98053 0.55535 0.47448 0.0
C1888 C 0.99682 0.54702 0.48513 0.0
C1889 C 1.00119 0.54868 0.5137 0.0
C1890 C 0.99037 0.55899 0.53113 0.0
C1891 C 0.01002 0.53694 0.46728 0.0
C1892 C 0.00862 0.51386 0.47507 0.0
C1893 C 0.02602 0.5509 0.44476 0.0
C1894 C 0.02921 0.57586 0.43614 0.0
C1895 C 0.03887 0.59667 0.45468 0.0
C1896 C 0.04101 0.61989 0.44662 0.0
C1897 C 0.03376 0.62255 0.41999 0.0
C1898 C 0.02461 0.60212 0.40129 0.0
C1899 C 0.0224 0.57886 0.40926 0.0
H1900 H 0.03521 0.64043 0.41383 0.0
H1901 H 0.02571 0.42275 0.49911 0.0
H1902 H 0.43509 0.4507 0.88168 0.0
H1903 H 0.48108 0.47869 0.88988 0.0
H1904 H 0.46442 0.51327 0.95891 0.0
H1905 H 0.4188 0.48601 0.95004 0.0
H1906 H 0.5093 0.54694 0.9384 0.0
H1907 H 0.46785 0.45604 0.96482 0.0
H1908 H 0.4436 0.41018 0.95215 0.0
H1909 H 0.50317 0.42108 0.89596 0.0
H1910 H 0.52762 0.46709 0.90812 0.0
H1911 H 0.57968 0.55908 0.05438 0.0
H1912 H 0.54634 0.54066 0.01952 0.0
H1913 H 0.59868 0.53647 0.9623 0.0
H1914 H 0.6329 0.55551 -0.0024 0.0
H1915 H 0.54382 0.49073 0.96434 0.0
H1916 H 0.59011 0.58092 0.9491 0.0
H1917 H 0.61274 0.62635 0.96335 0.0
H1918 H 0.54351 0.61692 -0.00118 0.0
H1919 H 0.52056 0.5713 0.98525 0.0
C1920 C 0.44134 0.46547 0.89738 0.0
C1921 C 0.42337 0.46643 0.91496 0.0
C1922 C 0.46767 0.48112 0.9025 0.0
C1923 C 0.47635 0.49759 0.92565 0.0
C1924 C 0.45841 0.5007 0.94104 0.0
C1925 C 0.43222 0.48526 0.93578 0.0
C1926 C 0.50299 0.50856 0.93668 0.0
C1927 C 0.51692 0.53467 0.94379 0.0
C1928 C 0.51343 0.49279 0.94335 0.0
C1929 C 0.49946 0.46495 0.93724 0.0
C1930 C 0.47578 0.4486 0.94984 0.0
C1931 C 0.46198 0.42262 0.94269 0.0
C1932 C 0.47182 0.41273 0.92322 0.0
C1933 C 0.49557 0.42878 0.91102 0.0
C1934 C 0.50942 0.45479 0.91804 0.0
C1935 C 0.58426 0.55407 0.03453 0.0
C1936 C 0.60915 0.55904 0.02878 0.0
C1937 C 0.56505 0.5435 0.01456 0.0
C1938 C 0.57002 0.53749 0.98815 0.0
C1939 C 0.59444 0.54105 0.98255 0.0
C1940 C 0.61394 0.55186 0.00273 0.0
C1941 C 0.54964 0.52891 0.96664 0.0
C1942 C 0.53673 0.50321 0.95794 0.0
C1943 C 0.54009 0.54504 0.95854 0.0
C1944 C 0.55363 0.57263 0.96622 0.0
C1945 C 0.57973 0.58849 0.96007 0.0
C1946 C 0.59262 0.61428 0.96802 0.0
C1947 C 0.57957 0.62451 0.98199 0.0
C1948 C 0.55359 0.60897 0.98797 0.0
C1949 C 0.54062 0.58315 0.98012 0.0
H1950 H 0.58959 0.64448 0.98815 0.0
H1951 H 0.46105 0.39265 0.9176 0.0
H1952 H 0.61132 0.00982 0.93772 0.0
H1953 H 0.58823 0.02782 0.96141 0.0
H1954 H 0.52671 0.95151 0.97948 0.0
H1955 H 0.55025 0.93335 0.95597 0.0
H1956 H 0.51056 0.98309 0.95399 0.0
H1957 H 0.56191 0.98714 0.03041 0.0
H1958 H 0.60179 0.99748 0.05439 0.0
H1959 H 0.63131 0.07772 0.04021 0.0
H1960 H 0.59173 0.06778 0.01543 0.0
H1961 H 0.43959 0.01359 0.04593 0.0
H1962 H 0.46492 0.99843 0.02228 0.0
H1963 H 0.52539 0.07652 0.01011 0.0
H1964 H 0.49967 0.09198 0.0342 0.0
H1965 H 0.54313 0.04557 0.03154 0.0
H1966 H 0.49131 0.04144 0.95545 0.0
H1967 H 0.45138 0.03073 0.93106 0.0
H1968 H 0.42277 0.95059 0.94475 0.0
H1969 H 0.46238 0.96083 0.9696 0.0
C1970 C 0.5932 0.99688 0.94747 0.0
C1971 C 0.58272 0.97021 0.94542 0.0
C1972 C 0.57996 0.0072 0.96091 0.0
C1973 C 0.5557 0.99108 0.97224 0.0
C1974 C 0.54543 0.96434 0.97092 0.0
C1975 C 0.55897 0.95396 0.95782 0.0
C1976 C 0.54068 1.00236 0.9839 0.0
C1977 C 0.51748 0.99643 0.97123 0.0
C1978 C 0.55016 0.02054 0.00574 0.0
C1979 C 0.57394 0.02668 0.02079 0.0
C1980 C 0.57699 0.00698 0.03215 0.0
C1981 C 0.59955 0.01278 0.04594 0.0
C1982 C 0.61912 0.03826 0.04885 0.0
C1983 C 0.61615 0.05799 0.03793 0.0
C1984 C 0.59365 0.05228 0.02399 0.0
C1985 C 0.4581 0.02765 0.0378 0.0
C1986 C 0.46758 0.05401 0.04183 0.0
C1987 C 0.47259 0.0189 0.02421 0.0
C1988 C 0.49708 0.03625 0.01425 0.0
C1989 C 0.5065 0.06274 0.01757 0.0
C1990 C 0.49174 0.07159 0.03105 0.0
C1991 C 0.51289 0.02619 0.00172 0.0
C1992 C 0.53625 0.03234 0.01421 0.0
C1993 C 0.50359 0.00822 0.97967 0.0
C1994 C 0.47976 1.00194 0.96459 0.0
C1995 C 0.47643 0.02154 0.95345 0.0
C1996 C 0.45386 0.01555 0.93951 0.0
C1997 C 0.43453 0.99 0.93641 0.0
C1998 C 0.43775 0.97038 0.94718 0.0
C1999 C 0.46028 0.97626 0.96117 0.0
H2000 H 0.41707 0.9854 0.92561 0.0
H2001 H 0.63656 0.04271 0.0596 0.0
H2002 H 0.03884 0.6217 0.96378 0.0
H2003 H 0.02253 0.58092 0.98746 0.0
H2004 H 0.08949 0.578 0.96293 0.0
H2005 H 0.10629 0.61966 0.93933 0.0
H2006 H 0.04286 0.53385 0.94874 0.0
H2007 H 0.08031 0.58467 0.03004 0.0
H2008 H 0.08922 0.61959 0.06276 0.0
H2009 H 0.00914 0.58462 0.08098 0.0
H2010 H 0.99968 0.54966 0.04805 0.0
H2011 H 0.01144 0.42203 0.0274 0.0
H2012 H 0.02978 0.46348 0.00425 0.0
H2013 H 0.96702 0.47194 0.03311 0.0
H2014 H 0.94838 0.42996 0.05617 0.0
H2015 H 0.01283 0.51391 0.04569 0.0
H2016 H 0.97378 0.46568 0.96491 0.0
H2017 H 0.9612 0.43441 0.92681 0.0
H2018 H 0.04002 0.4656 0.90453 0.0
H2019 H 0.05313 0.49687 0.94275 0.0
C2020 C 0.05061 0.61289 0.96428 0.0
C2021 C 0.07409 0.62412 0.95017 0.0
C2022 C 0.04117 0.58945 0.97775 0.0
C2023 C 0.05477 0.57633 0.97717 0.0
C2024 C 0.07872 0.58784 0.96381 0.0
C2025 C 0.08845 0.61174 0.9506 0.0
C2026 C 0.0426 0.54974 0.98844 0.0
C2027 C 0.03689 0.52948 0.97013 0.0
C2028 C 0.03359 0.54398 0.016 0.0
C2029 C 0.03927 0.5646 0.03642 0.0
C2030 C 0.06457 0.58447 0.04092 0.0
C2031 C 0.06973 0.60428 0.05951 0.0
C2032 C 0.04975 0.60436 0.07389 0.0
C2033 C 0.02459 0.58455 0.06981 0.0
C2034 C 0.01933 0.5647 0.05122 0.0
C2035 C 1.00112 0.43238 0.02808 0.0
C2036 C 0.97831 0.42263 0.04327 0.0
C2037 C 0.01167 0.45614 0.01486 0.0
C2038 C 0.99987 0.471 0.01684 0.0
C2039 C 0.9765 0.46086 0.0312 0.0
C2040 C 0.96567 0.43675 0.04411 0.0
C2041 C 0.01323 0.49784 0.00599 0.0
C2042 C 0.01909 0.51818 0.02438 0.0
C2043 C 0.02206 0.50368 0.97835 0.0
C2044 C 0.01446 0.48348 0.95691 0.0
C2045 C 0.98848 0.46561 0.95221 0.0
C2046 C 0.98123 0.44802 0.93044 0.0
C2047 C 0.99979 0.44817 0.91313 0.0
C2048 C 0.02566 0.46564 0.91784 0.0
C2049 C 0.03301 0.48326 0.93958 0.0
H2050 H 0.99413 0.43462 0.8962 0.0
H2051 H 0.05377 0.61976 0.08821 0.0
loop_
_geom_bond_atom_site_label_1
_geom_bond_atom_site_label_2
_geom_bond_distance
_geom_bond_site_symmetry_2
_ccdc_geom_bond_type
Co0 O1 2.216 1_455 S
Co0 O2 2.091 1_455 S
Co0 O4 2.004 . S
Co0 O10 2.021 . S
Co0 O12 2.137 1_455 S
Co0 O13 2.244 . S
O1 Co0 2.216 1_655 S
O1 C8 1.247 . S
O2 Co0 2.091 1_655 S
O2 C8 1.261 . S
C3 O12 1.247 . S
C3 O13 1.272 1_655 S
O4 Co0 2.004 . S
O4 C9 1.259 . S
Co5 O6 2.061 . S
Co5 O11 2.052 . S
Co5 O13 2.135 . S
O6 Co5 2.061 . S
O6 C9 1.235 . S
C7 O10 1.238 . S
C7 O11 1.241 . S
C8 O1 1.247 . S
C8 O2 1.261 . S
C9 O4 1.259 . S
C9 O6 1.235 . S
O10 Co0 2.021 . S
O10 C7 1.238 . S
O11 Co5 2.052 . S
O11 C7 1.241 . S
O12 Co0 2.137 1_655 S
O12 C3 1.247 . S
O13 Co0 2.244 . S
O13 C3 1.272 1_455 S
O13 Co5 2.135 . S
Co14 O15 2.216 . S
Co14 O16 2.091 . S
Co14 O18 2.004 . S
Co14 O24 2.021 . S
Co14 O26 2.137 . S
Co14 O27 2.244 . S
O15 Co14 2.216 . S
O15 C22 1.247 . S
O16 Co14 2.091 . S
O16 C22 1.261 . S
C17 O26 1.247 . S
C17 O27 1.272 . S
O18 Co14 2.004 . S
O18 C23 1.259 . S
Co19 O20 2.061 . S
Co19 O25 2.052 . S
Co19 O27 2.135 . S
O20 Co19 2.061 . S
O20 C23 1.235 . S
C21 O24 1.238 . S
C21 O25 1.241 . S
C22 O15 1.247 . S
C22 O16 1.261 . S
C23 O18 1.259 . S
C23 O20 1.235 . S
O24 Co14 2.021 . S
O24 C21 1.238 . S
O25 Co19 2.052 . S
O25 C21 1.241 . S
O26 Co14 2.137 . S
O26 C17 1.247 . S
O27 Co14 2.244 . S
O27 C17 1.272 . S
O27 Co19 2.135 . S
Co28 O29 2.216 1_545 S
Co28 O30 2.091 1_545 S
Co28 O32 2.004 . S
Co28 O38 2.021 . S
Co28 O40 2.137 1_545 S
Co28 O41 2.244 . S
O29 Co28 2.216 1_565 S
O29 C36 1.247 . S
O30 Co28 2.091 1_565 S
O30 C36 1.261 . S
C31 O40 1.247 . S
C31 O41 1.272 1_565 S
O32 Co28 2.004 . S
O32 C37 1.259 . S
Co33 O34 2.061 . S
Co33 O39 2.052 . S
Co33 O41 2.135 . S
O34 Co33 2.061 . S
O34 C37 1.235 . S
C35 O38 1.238 . S
C35 O39 1.241 . S
C36 O29 1.247 . S
C36 O30 1.261 . S
C37 O32 1.259 . S
C37 O34 1.235 . S
O38 Co28 2.021 . S
O38 C35 1.238 . S
O39 Co33 2.052 . S
O39 C35 1.241 . S
O40 Co28 2.137 1_565 S
O40 C31 1.247 . S
O41 Co28 2.244 . S
O41 C31 1.272 1_545 S
O41 Co33 2.135 . S
Co42 O43 2.216 . S
Co42 O44 2.091 . S
Co42 O46 2.004 1_455 S
Co42 O52 2.021 1_455 S
Co42 O54 2.137 . S
Co42 O55 2.244 . S
O43 Co42 2.216 . S
O43 C50 1.247 . S
O44 Co42 2.091 . S
O44 C50 1.261 . S
C45 O54 1.247 . S
C45 O55 1.272 . S
O46 Co42 2.004 1_655 S
O46 C51 1.259 . S
Co47 O48 2.061 . S
Co47 O53 2.052 . S
Co47 O55 2.135 1_655 S
O48 Co47 2.061 . S
O48 C51 1.235 . S
C49 O52 1.238 . S
C49 O53 1.241 . S
C50 O43 1.247 . S
C50 O44 1.261 . S
C51 O46 1.259 . S
C51 O48 1.235 . S
O52 Co42 2.021 1_655 S
O52 C49 1.238 . S
O53 Co47 2.052 . S
O53 C49 1.241 . S
O54 Co42 2.137 . S
O54 C45 1.247 . S
O55 Co42 2.244 . S
O55 C45 1.272 . S
O55 Co47 2.135 1_455 S
Co56 O57 2.216 . S
Co56 O58 2.091 . S
Co56 O60 2.004 . S
Co56 O66 2.021 . S
Co56 O68 2.137 . S
Co56 O69 2.244 . S
O57 Co56 2.216 . S
O57 C64 1.247 . S
O58 Co56 2.091 . S
O58 C64 1.261 . S
C59 O68 1.247 . S
C59 O69 1.272 . S
O60 Co56 2.004 . S
O60 C65 1.259 . S
Co61 O62 2.061 . S
Co61 O67 2.052 . S
Co61 O69 2.135 . S
O62 Co61 2.061 . S
O62 C65 1.235 . S
C63 O66 1.238 . S
C63 O67 1.241 . S
C64 O57 1.247 . S
C64 O58 1.261 . S
C65 O60 1.259 . S
C65 O62 1.235 . S
O66 Co56 2.021 . S
O66 C63 1.238 . S
O67 Co61 2.052 . S
O67 C63 1.241 . S
O68 Co56 2.137 . S
O68 C59 1.247 . S
O69 Co56 2.244 . S
O69 C59 1.272 . S
O69 Co61 2.135 . S
Co70 O71 2.216 . S
Co70 O72 2.091 . S
Co70 O74 2.004 1_545 S
Co70 O80 2.037 . S
Co70 O82 2.137 . S
Co70 O83 2.244 . S
O71 Co70 2.216 . S
O71 C78 1.247 . S
O72 Co70 2.091 . S
O72 C78 1.261 . S
C73 O82 1.247 . S
C73 O83 1.272 . S
O74 Co70 2.004 1_565 S
O74 C79 1.259 . S
Co75 O76 2.061 . S
Co75 O81 2.052 . S
Co75 O83 2.135 1_565 S
O76 Co75 2.061 . S
O76 C79 1.235 . S
C77 O80 1.211 1_565 S
C77 O81 1.241 . S
C78 O71 1.247 . S
C78 O72 1.261 . S
C79 O74 1.259 . S
C79 O76 1.235 . S
O80 Co70 2.037 . S
O80 C77 1.211 1_545 S
O81 Co75 2.052 . S
O81 C77 1.241 . S
O82 Co70 2.137 . S
O82 C73 1.247 . S
O83 Co70 2.244 . S
O83 C73 1.272 . S
O83 Co75 2.135 1_545 S
Co84 O85 2.216 . S
Co84 O86 2.091 . S
Co84 O88 2.004 . S
Co84 O94 2.021 . S
Co84 O96 2.137 . S
Co84 O97 2.244 . S
O85 Co84 2.216 . S
O85 C92 1.247 . S
O86 Co84 2.091 . S
O86 C92 1.261 . S
C87 O96 1.247 . S
C87 O97 1.272 . S
O88 Co84 2.004 . S
O88 C93 1.259 . S
Co89 O90 2.061 . S
Co89 O95 2.052 . S
Co89 O97 2.135 . S
O90 Co89 2.061 . S
O90 C93 1.235 . S
C91 O94 1.238 . S
C91 O95 1.241 . S
C92 O85 1.247 . S
C92 O86 1.261 . S
C93 O88 1.259 . S
C93 O90 1.235 . S
O94 Co84 2.021 . S
O94 C91 1.238 . S
O95 Co89 2.052 . S
O95 C91 1.241 . S
O96 Co84 2.137 . S
O96 C87 1.247 . S
O97 Co84 2.244 . S
O97 C87 1.272 . S
O97 Co89 2.135 . S
Co98 O99 2.216 . S
Co98 O100 2.091 . S
Co98 O102 2.004 . S
Co98 O108 2.021 . S
Co98 O110 2.137 . S
Co98 O111 2.244 . S
O99 Co98 2.216 . S
O99 C106 1.247 . S
O100 Co98 2.091 . S
O100 C106 1.261 . S
C101 O110 1.247 . S
C101 O111 1.272 . S
O102 Co98 2.004 . S
O102 C107 1.259 . S
Co103 O104 2.061 . S
Co103 O109 2.052 . S
Co103 O111 2.135 . S
O104 Co103 2.061 . S
O104 C107 1.235 . S
C105 O108 1.238 . S
C105 O109 1.241 . S
C106 O99 1.247 . S
C106 O100 1.261 . S
C107 O102 1.259 . S
C107 O104 1.235 . S
O108 Co98 2.021 . S
O108 C105 1.238 . S
O109 Co103 2.052 . S
O109 C105 1.241 . S
O110 Co98 2.137 . S
O110 C101 1.247 . S
O111 Co98 2.244 . S
O111 C101 1.272 . S
O111 Co103 2.135 . S
Co112 O113 2.216 . S
Co112 O114 2.091 . S
Co112 O116 2.004 . S
Co112 O122 2.021 . S
Co112 O124 2.137 . S
Co112 O125 2.244 . S
O113 Co112 2.216 . S
O113 C120 1.247 . S
O114 Co112 2.091 . S
O114 C120 1.261 . S
C115 O124 1.247 . S
C115 O125 1.272 . S
O116 Co112 2.004 . S
O116 C121 1.259 . S
Co117 O118 2.061 . S
Co117 O123 2.052 . S
Co117 O125 2.135 . S
O118 Co117 2.061 . S
O118 C121 1.235 . S
C119 O122 1.238 . S
C119 O123 1.241 . S
C120 O113 1.247 . S
C120 O114 1.261 . S
C121 O116 1.259 . S
C121 O118 1.235 . S
O122 Co112 2.021 . S
O122 C119 1.238 . S
O123 Co117 2.052 . S
O123 C119 1.241 . S
O124 Co112 2.137 . S
O124 C115 1.247 . S
O125 Co112 2.244 . S
O125 C115 1.272 . S
O125 Co117 2.135 . S
Co126 O127 2.216 . S
Co126 O128 2.091 . S
Co126 O130 2.004 . S
Co126 O136 2.021 . S
Co126 O138 2.137 . S
Co126 O139 2.244 . S
O127 Co126 2.216 . S
O127 C134 1.247 . S
O128 Co126 2.091 . S
O128 C134 1.261 . S
C129 O138 1.247 . S
C129 O139 1.272 . S
O130 Co126 2.004 . S
O130 C135 1.259 . S
Co131 O132 2.061 . S
Co131 O137 2.052 . S
Co131 O139 2.135 . S
O132 Co131 2.061 . S
O132 C135 1.235 . S
C133 O136 1.238 . S
C133 O137 1.241 . S
C134 O127 1.247 . S
C134 O128 1.261 . S
C135 O130 1.259 . S
C135 O132 1.235 . S
O136 Co126 2.021 . S
O136 C133 1.238 . S
O137 Co131 2.052 . S
O137 C133 1.241 . S
O138 Co126 2.137 . S
O138 C129 1.247 . S
O139 Co126 2.244 . S
O139 C129 1.272 . S
O139 Co131 2.135 . S
Co140 O141 2.216 . S
Co140 O142 2.091 . S
Co140 O144 2.004 . S
Co140 O150 2.021 . S
Co140 O152 2.137 . S
Co140 O153 2.244 . S
O141 Co140 2.216 . S
O141 C148 1.247 . S
O142 Co140 2.091 . S
O142 C148 1.261 . S
C143 O152 1.247 . S
C143 O153 1.272 . S
O144 Co140 2.004 . S
O144 C149 1.259 . S
Co145 O146 2.061 . S
Co145 O151 2.052 . S
Co145 O153 2.135 . S
O146 Co145 2.061 . S
O146 C149 1.235 . S
C147 O150 1.238 . S
C147 O151 1.241 . S
C148 O141 1.247 . S
C148 O142 1.261 . S
C149 O144 1.259 . S
C149 O146 1.235 . S
O150 Co140 2.021 . S
O150 C147 1.238 . S
O151 Co145 2.052 . S
O151 C147 1.241 . S
O152 Co140 2.137 . S
O152 C143 1.247 . S
O153 Co140 2.244 . S
O153 C143 1.272 . S
O153 Co145 2.135 . S
Co154 O155 2.216 . S
Co154 O156 2.091 . S
Co154 O158 2.004 . S
Co154 O164 2.021 . S
Co154 O166 2.137 . S
Co154 O167 2.244 . S
O155 Co154 2.216 . S
O155 C162 1.247 . S
O156 Co154 2.091 . S
O156 C162 1.261 . S
C157 O166 1.247 . S
C157 O167 1.272 . S
O158 Co154 2.004 . S
O158 C163 1.259 . S
Co159 O160 2.061 . S
Co159 O165 2.052 . S
Co159 O167 2.135 . S
O160 Co159 2.061 . S
O160 C163 1.235 . S
C161 O164 1.238 . S
C161 O165 1.241 . S
C162 O155 1.247 . S
C162 O156 1.261 . S
C163 O158 1.259 . S
C163 O160 1.235 . S
O164 Co154 2.021 . S
O164 C161 1.238 . S
O165 Co159 2.052 . S
O165 C161 1.241 . S
O166 Co154 2.137 . S
O166 C157 1.247 . S
O167 Co154 2.244 . S
O167 C157 1.272 . S
O167 Co159 2.135 . S
Co168 O169 2.216 . S
Co168 O170 2.091 . S
Co168 O172 2.004 . S
Co168 O178 2.021 . S
Co168 O180 2.137 . S
Co168 O181 2.244 . S
O169 Co168 2.216 . S
O169 C176 1.247 . S
O170 Co168 2.091 . S
O170 C176 1.261 . S
C171 O180 1.247 . S
C171 O181 1.272 . S
O172 Co168 2.004 . S
O172 C177 1.259 . S
Co173 O174 2.061 . S
Co173 O179 2.052 . S
Co173 O181 2.135 . S
O174 Co173 2.061 . S
O174 C177 1.235 . S
C175 O178 1.238 . S
C175 O179 1.241 . S
C176 O169 1.247 . S
C176 O170 1.261 . S
C177 O172 1.259 . S
C177 O174 1.235 . S
O178 Co168 2.021 . S
O178 C175 1.238 . S
O179 Co173 2.052 . S
O179 C175 1.241 . S
O180 Co168 2.137 . S
O180 C171 1.247 . S
O181 Co168 2.244 . S
O181 C171 1.272 . S
O181 Co173 2.135 . S
Co182 O183 2.216 . S
Co182 O184 2.091 . S
Co182 O186 2.004 . S
Co182 O192 2.021 . S
Co182 O194 2.137 . S
Co182 O195 2.244 . S
O183 Co182 2.216 . S
O183 C190 1.247 . S
O184 Co182 2.091 . S
O184 C190 1.261 . S
C185 O194 1.247 . S
C185 O195 1.272 . S
O186 Co182 2.004 . S
O186 C191 1.259 . S
Co187 O188 2.061 . S
Co187 O193 2.052 . S
Co187 O195 2.135 . S
O188 Co187 2.061 . S
O188 C191 1.235 . S
C189 O192 1.238 . S
C189 O193 1.241 . S
C190 O183 1.247 . S
C190 O184 1.261 . S
C191 O186 1.259 . S
C191 O188 1.235 . S
O192 Co182 2.021 . S
O192 C189 1.238 . S
O193 Co187 2.052 . S
O193 C189 1.241 . S
O194 Co182 2.137 . S
O194 C185 1.247 . S
O195 Co182 2.244 . S
O195 C185 1.272 . S
O195 Co187 2.135 . S
Co196 O197 2.216 . S
Co196 O198 2.091 . S
Co196 O200 2.004 . S
Co196 O206 2.021 . S
Co196 O208 2.137 . S
Co196 O209 2.244 . S
O197 Co196 2.216 . S
O197 C204 1.247 . S
O198 Co196 2.091 . S
O198 C204 1.261 . S
C199 O208 1.247 . S
C199 O209 1.272 . S
O200 Co196 2.004 . S
O200 C205 1.259 . S
Co201 O202 2.061 . S
Co201 O207 2.052 . S
Co201 O209 2.135 . S
O202 Co201 2.061 . S
O202 C205 1.235 . S
C203 O206 1.238 . S
C203 O207 1.241 . S
C204 O197 1.247 . S
C204 O198 1.261 . S
C205 O200 1.259 . S
C205 O202 1.235 . S
O206 Co196 2.021 . S
O206 C203 1.238 . S
O207 Co201 2.052 . S
O207 C203 1.241 . S
O208 Co196 2.137 . S
O208 C199 1.247 . S
O209 Co196 2.244 . S
O209 C199 1.272 . S
O209 Co201 2.135 . S
Co210 O211 2.216 . S
Co210 O212 2.091 . S
Co210 O214 2.004 . S
Co210 O220 2.021 . S
Co210 O222 2.137 . S
Co210 O223 2.244 . S
O211 Co210 2.216 . S
O211 C218 1.247 . S
O212 Co210 2.091 . S
O212 C218 1.261 . S
C213 O222 1.247 . S
C213 O223 1.272 . S
O214 Co210 2.004 . S
O214 C219 1.259 . S
Co215 O216 2.061 . S
Co215 O221 2.052 . S
Co215 O223 2.135 . S
O216 Co215 2.061 . S
O216 C219 1.235 . S
C217 O220 1.238 . S
C217 O221 1.241 . S
C218 O211 1.247 . S
C218 O212 1.261 . S
C219 O214 1.259 . S
C219 O216 1.235 . S
O220 Co210 2.021 . S
O220 C217 1.238 . S
O221 Co215 2.052 . S
O221 C217 1.241 . S
O222 Co210 2.137 . S
O222 C213 1.247 . S
O223 Co210 2.244 . S
O223 C213 1.272 . S
O223 Co215 2.135 . S
Co224 O225 2.216 . S
Co224 O226 2.091 . S
Co224 O228 2.004 . S
Co224 O234 2.021 . S
Co224 O236 2.137 . S
Co224 O237 2.244 . S
O225 Co224 2.216 . S
O225 C232 1.247 . S
O226 Co224 2.091 . S
O226 C232 1.261 . S
C227 O236 1.247 . S
C227 O237 1.272 . S
O228 Co224 2.004 . S
O228 C233 1.259 . S
Co229 O230 2.061 . S
Co229 O235 2.052 . S
Co229 O237 2.135 . S
O230 Co229 2.061 . S
O230 C233 1.235 . S
C231 O234 1.238 . S
C231 O235 1.241 . S
C232 O225 1.247 . S
C232 O226 1.261 . S
C233 O228 1.259 . S
C233 O230 1.235 . S
O234 Co224 2.021 . S
O234 C231 1.238 . S
O235 Co229 2.052 . S
O235 C231 1.241 . S
O236 Co224 2.137 . S
O236 C227 1.247 . S
O237 Co224 2.244 . S
O237 C227 1.272 . S
O237 Co229 2.135 . S
Co238 O239 2.216 . S
Co238 O240 2.091 . S
Co238 O242 2.004 . S
Co238 O248 2.021 . S
Co238 O250 2.137 . S
Co238 O251 2.244 . S
O239 Co238 2.216 . S
O239 C246 1.247 . S
O240 Co238 2.091 . S
O240 C246 1.261 . S
C241 O250 1.247 . S
C241 O251 1.272 . S
O242 Co238 2.004 . S
O242 C247 1.259 . S
Co243 O244 2.061 . S
Co243 O249 2.052 . S
Co243 O251 2.135 . S
O244 Co243 2.061 . S
O244 C247 1.235 . S
C245 O248 1.238 . S
C245 O249 1.241 . S
C246 O239 1.247 . S
C246 O240 1.261 . S
C247 O242 1.259 . S
C247 O244 1.235 . S
O248 Co238 2.021 . S
O248 C245 1.238 . S
O249 Co243 2.052 . S
O249 C245 1.241 . S
O250 Co238 2.137 . S
O250 C241 1.247 . S
O251 Co238 2.244 . S
O251 C241 1.272 . S
O251 Co243 2.135 . S
H252 C270 0.951 . S
H253 C272 0.951 . S
H254 C274 0.950 . S
H255 C275 0.950 . S
H256 C277 0.950 . S
H257 C280 0.950 1_455 S
H258 C281 0.950 . S
H259 C283 0.950 . S
H260 C284 0.950 1_455 S
H261 C285 0.951 . S
H262 C287 0.951 . S
H263 C289 0.950 . S
H264 C290 0.950 . S
H265 C292 0.950 . S
H266 C295 0.950 . S
H267 C296 0.950 . S
H268 C298 0.950 . S
H269 C299 0.950 . S
C270 H252 0.951 . S
C270 C271 1.366 . S
C270 C272 1.388 . S
C271 C270 1.366 . S
C271 C275 1.385 . S
C272 H253 0.951 . S
C272 C270 1.388 . S
C272 C273 1.366 . S
C273 C272 1.366 . S
C273 C274 1.414 . S
C273 C276 1.499 . S
C274 H254 0.950 . S
C274 C273 1.414 . S
C274 C275 1.374 . S
C275 H255 0.950 . S
C275 C271 1.385 . S
C275 C274 1.374 . S
C276 C273 1.499 . S
C276 C277 1.373 . S
C276 C278 1.389 . S
C277 H256 0.950 . S
C277 C276 1.373 . S
C277 C293 1.377 . S
C278 C276 1.389 . S
C278 C279 1.524 . S
C278 C292 1.377 . S
C279 C278 1.524 . S
C279 C280 1.397 1_455 S
C279 C284 1.363 1_455 S
C280 H257 0.950 1_655 S
C280 C279 1.397 1_655 S
C280 C281 1.334 . S
C281 H258 0.950 . S
C281 C280 1.334 . S
C281 C282 1.287 . S
C282 C281 1.287 . S
C282 C283 1.524 . S
C282 H301 0.913 . S
C283 H259 0.950 . S
C283 C282 1.524 . S
C283 C284 1.415 . S
C284 H260 0.950 1_655 S
C284 C279 1.363 1_655 S
C284 C283 1.415 . S
C285 H261 0.951 . S
C285 C286 1.366 1_554 S
C285 C287 1.388 . S
C286 C285 1.366 1_556 S
C286 C290 1.385 . S
C287 H262 0.951 . S
C287 C285 1.388 . S
C287 C288 1.366 . S
C288 C287 1.366 . S
C288 C289 1.414 . S
C288 C291 1.499 . S
C289 H263 0.950 . S
C289 C288 1.414 . S
C289 C290 1.374 1_554 S
C290 H264 0.950 . S
C290 C286 1.385 . S
C290 C289 1.374 1_556 S
C291 C288 1.499 . S
C291 C292 1.373 . S
C291 C293 1.389 . S
C292 H265 0.950 . S
C292 C278 1.377 . S
C292 C291 1.373 . S
C293 C277 1.377 . S
C293 C291 1.389 . S
C293 C294 1.524 . S
C294 C293 1.524 . S
C294 C295 1.397 . S
C294 C299 1.363 . S
C295 H266 0.950 . S
C295 C294 1.397 . S
C295 C296 1.334 . S
C296 H267 0.950 . S
C296 C295 1.334 . S
C296 C297 1.287 . S
C297 C296 1.287 . S
C297 C298 1.524 . S
C297 H300 0.999 . S
C298 H268 0.950 . S
C298 C297 1.524 . S
C298 C299 1.415 . S
C299 H269 0.950 . S
C299 C294 1.363 . S
C299 C298 1.415 . S
H300 C297 0.999 . S
H301 C282 0.913 . S
H302 C320 0.956 . S
H303 C322 0.951 . S
H304 C324 0.950 . S
H305 C325 0.950 . S
H306 C327 0.950 . S
H307 C330 0.950 . S
H308 C331 0.950 1_556 S
H309 C333 0.950 . S
H310 C334 0.950 . S
H311 C335 0.951 . S
H312 C337 0.951 . S
H313 C339 0.950 . S
H314 C340 0.950 . S
H315 C342 0.950 . S
H316 C345 0.950 . S
H317 C346 0.950 . S
H318 C348 0.950 . S
H319 C349 0.950 . S
C320 H302 0.956 . S
C320 C321 1.387 . S
C320 C322 1.362 1_556 S
C321 C320 1.387 . S
C321 C325 1.385 . S
C322 H303 0.951 . S
C322 C320 1.362 1_554 S
C322 C323 1.366 . S
C323 C322 1.366 . S
C323 C324 1.414 . S
C323 C326 1.499 . S
C324 H304 0.950 . S
C324 C323 1.414 . S
C324 C325 1.374 1_554 S
C325 H305 0.950 . S
C325 C321 1.385 . S
C325 C324 1.374 1_556 S
C326 C323 1.499 . S
C326 C327 1.373 . S
C326 C328 1.389 . S
C327 H306 0.950 . S
C327 C326 1.373 . S
C327 C343 1.377 . S
C328 C326 1.389 . S
C328 C329 1.524 . S
C328 C342 1.377 . S
C329 C328 1.524 . S
C329 C330 1.397 . S
C329 C334 1.363 . S
C330 H307 0.950 . S
C330 C329 1.397 . S
C330 C331 1.334 . S
C331 H308 0.950 1_554 S
C331 C330 1.334 . S
C331 C332 1.287 . S
C332 C331 1.287 . S
C332 C333 1.524 . S
C332 H351 0.913 . S
C333 H309 0.950 . S
C333 C332 1.524 . S
C333 C334 1.415 . S
C334 H310 0.950 . S
C334 C329 1.363 . S
C334 C333 1.415 . S
C335 H311 0.951 . S
C335 C336 1.366 . S
C335 C337 1.388 . S
C336 C335 1.366 . S
C336 C340 1.385 . S
C337 H312 0.951 . S
C337 C335 1.388 . S
C337 C338 1.366 . S
C338 C337 1.366 . S
C338 C339 1.414 . S
C338 C341 1.499 . S
C339 H313 0.950 . S
C339 C338 1.414 . S
C339 C340 1.374 . S
C340 H314 0.950 . S
C340 C336 1.385 . S
C340 C339 1.374 . S
C341 C338 1.499 . S
C341 C342 1.373 . S
C341 C343 1.389 . S
C342 H315 0.950 . S
C342 C328 1.377 . S
C342 C341 1.373 . S
C343 C327 1.377 . S
C343 C341 1.389 . S
C343 C344 1.524 . S
C344 C343 1.524 . S
C344 C345 1.397 . S
C344 C349 1.363 . S
C345 H316 0.950 . S
C345 C344 1.397 . S
C345 C346 1.334 . S
C346 H317 0.950 . S
C346 C345 1.334 . S
C346 C347 1.287 . S
C347 C346 1.287 . S
C347 C348 1.524 . S
C347 H350 0.999 . S
C348 H318 0.950 . S
C348 C347 1.524 . S
C348 C349 1.415 . S
C349 H319 0.950 . S
C349 C344 1.363 . S
C349 C348 1.415 . S
H350 C347 0.999 . S
H351 C332 0.913 . S
H352 C370 0.951 . S
H353 C372 0.951 1_545 S
H354 C374 0.950 . S
H355 C375 0.950 . S
H356 C377 0.950 . S
H357 C380 0.950 . S
H358 C381 0.950 . S
H359 C383 0.950 . S
H360 C384 0.950 . S
H361 C385 0.951 . S
H362 C387 0.951 . S
H363 C389 0.950 . S
H364 C390 0.950 . S
H365 C392 0.950 . S
H366 C395 0.950 . S
H367 C396 0.950 1_545 S
H368 C398 0.950 . S
H369 C399 0.950 . S
C370 H352 0.951 . S
C370 C371 1.366 1_545 S
C370 C372 1.388 1_545 S
C371 C370 1.366 1_565 S
C371 C375 1.385 . S
C372 H353 0.951 1_565 S
C372 C370 1.388 1_565 S
C372 C373 1.366 . S
C373 C372 1.366 . S
C373 C374 1.414 . S
C373 C376 1.499 . S
C374 H354 0.950 . S
C374 C373 1.414 . S
C374 C375 1.374 . S
C375 H355 0.950 . S
C375 C371 1.385 . S
C375 C374 1.374 . S
C376 C373 1.499 . S
C376 C377 1.373 . S
C376 C378 1.389 . S
C377 H356 0.950 . S
C377 C376 1.373 . S
C377 C393 1.377 . S
C378 C376 1.389 . S
C378 C379 1.524 . S
C378 C392 1.377 . S
C379 C378 1.524 . S
C379 C380 1.397 . S
C379 C384 1.363 . S
C380 H357 0.950 . S
C380 C379 1.397 . S
C380 C381 1.334 . S
C381 H358 0.950 . S
C381 C380 1.334 . S
C381 C382 1.287 . S
C382 C381 1.287 . S
C382 C383 1.524 . S
C382 H401 0.913 . S
C383 H359 0.950 . S
C383 C382 1.524 . S
C383 C384 1.415 . S
C384 H360 0.950 . S
C384 C379 1.363 . S
C384 C383 1.415 . S
C385 H361 0.951 . S
C385 C386 1.366 . S
C385 C387 1.388 1_556 S
C386 C385 1.366 . S
C386 C390 1.385 . S
C387 H362 0.951 . S
C387 C385 1.388 1_554 S
C387 C388 1.366 . S
C388 C387 1.366 . S
C388 C389 1.414 . S
C388 C391 1.499 . S
C389 H363 0.950 . S
C389 C388 1.414 . S
C389 C390 1.374 1_554 S
C390 H364 0.950 . S
C390 C386 1.385 . S
C390 C389 1.374 1_556 S
C391 C388 1.499 . S
C391 C392 1.373 . S
C391 C393 1.389 . S
C392 H365 0.950 . S
C392 C378 1.377 . S
C392 C391 1.373 . S
C393 C377 1.377 . S
C393 C391 1.389 . S
C393 C394 1.524 . S
C394 C393 1.524 . S
C394 C395 1.397 . S
C394 C399 1.363 . S
C395 H366 0.950 . S
C395 C394 1.397 . S
C395 C396 1.334 1_554 S
C396 H367 0.950 1_565 S
C396 C395 1.334 1_556 S
C396 C397 1.287 . S
C397 C396 1.287 . S
C397 C398 1.524 1_556 S
C397 H400 0.999 . S
C398 H368 0.950 . S
C398 C397 1.524 1_554 S
C398 C399 1.415 . S
C399 H369 0.950 . S
C399 C394 1.363 . S
C399 C398 1.415 . S
H400 C397 0.999 . S
H401 C382 0.913 . S
H402 C420 0.951 . S
H403 C422 0.951 . S
H404 C424 0.950 . S
H405 C425 0.950 . S
H406 C427 0.950 . S
H407 C430 0.950 . S
H408 C431 0.950 . S
H409 C433 0.950 . S
H410 C434 0.950 . S
H411 C435 0.951 . S
H412 C437 0.951 . S
H413 C439 0.950 . S
H414 C440 0.950 . S
H415 C442 0.950 . S
H416 C445 0.950 . S
H417 C446 0.950 . S
H418 C448 0.950 . S
H419 C449 0.950 . S
C420 H402 0.951 . S
C420 C421 1.366 . S
C420 C422 1.388 . S
C421 C420 1.366 . S
C421 C425 1.385 . S
C422 H403 0.951 . S
C422 C420 1.388 . S
C422 C423 1.366 . S
C423 C422 1.366 . S
C423 C424 1.414 . S
C423 C426 1.499 . S
C424 H404 0.950 . S
C424 C423 1.414 . S
C424 C425 1.374 . S
C425 H405 0.950 . S
C425 C421 1.385 . S
C425 C424 1.374 . S
C426 C423 1.499 . S
C426 C427 1.373 . S
C426 C428 1.389 . S
C427 H406 0.950 . S
C427 C426 1.373 . S
C427 C443 1.377 . S
C428 C426 1.389 . S
C428 C429 1.524 . S
C428 C442 1.377 . S
C429 C428 1.524 . S
C429 C430 1.397 . S
C429 C434 1.363 1_545 S
C430 H407 0.950 . S
C430 C429 1.397 . S
C430 C431 1.334 1_545 S
C431 H408 0.950 . S
C431 C430 1.334 1_565 S
C431 C432 1.287 . S
C432 C431 1.287 . S
C432 C433 1.524 . S
C432 H451 0.913 . S
C433 H409 0.950 . S
C433 C432 1.524 . S
C433 C434 1.415 . S
C434 H410 0.950 . S
C434 C429 1.363 1_565 S
C434 C433 1.415 . S
C435 H411 0.951 . S
C435 C436 1.366 . S
C435 C437 1.388 . S
C436 C435 1.366 . S
C436 C440 1.385 . S
C437 H412 0.951 . S
C437 C435 1.388 . S
C437 C438 1.366 . S
C438 C437 1.366 . S
C438 C439 1.414 . S
C438 C441 1.499 . S
C439 H413 0.950 . S
C439 C438 1.414 . S
C439 C440 1.374 . S
C440 H414 0.950 . S
C440 C436 1.385 . S
C440 C439 1.374 . S
C441 C438 1.499 . S
C441 C442 1.373 . S
C441 C443 1.389 . S
C442 H415 0.950 . S
C442 C428 1.377 . S
C442 C441 1.373 . S
C443 C427 1.377 . S
C443 C441 1.389 . S
C443 C444 1.524 . S
C444 C443 1.524 . S
C444 C445 1.397 . S
C444 C449 1.363 . S
C445 H416 0.950 . S
C445 C444 1.397 . S
C445 C446 1.334 . S
C446 H417 0.950 . S
C446 C445 1.334 . S
C446 C447 1.287 . S
C447 C446 1.287 . S
C447 C448 1.524 . S
C447 H450 0.999 . S
C448 H418 0.950 . S
C448 C447 1.524 . S
C448 C449 1.415 . S
C449 H419 0.950 . S
C449 C444 1.363 . S
C449 C448 1.415 . S
H450 C447 0.999 . S
H451 C432 0.913 . S
H452 C470 0.951 . S
H453 C472 0.951 . S
H454 C474 0.950 . S
H455 C475 0.950 . S
H456 C477 0.950 . S
H457 C480 0.950 . S
H458 C481 0.950 . S
H459 C483 0.950 . S
H460 C484 0.950 . S
H461 C485 0.951 1_455 S
H462 C487 0.951 . S
H463 C489 0.950 . S
H464 C490 0.950 . S
H465 C492 0.950 . S
H466 C495 0.950 . S
H467 C496 0.950 . S
H468 C498 0.950 . S
H469 C499 0.950 . S
C470 H452 0.951 . S
C470 C471 1.366 . S
C470 C472 1.388 . S
C471 C470 1.366 . S
C471 C475 1.385 . S
C472 H453 0.951 . S
C472 C470 1.388 . S
C472 C473 1.366 . S
C473 C472 1.366 . S
C473 C474 1.414 . S
C473 C476 1.499 . S
C474 H454 0.950 . S
C474 C473 1.414 . S
C474 C475 1.374 . S
C475 H455 0.950 . S
C475 C471 1.385 . S
C475 C474 1.374 . S
C476 C473 1.499 . S
C476 C477 1.373 . S
C476 C478 1.389 . S
C477 H456 0.950 . S
C477 C476 1.373 . S
C477 C493 1.377 . S
C478 C476 1.389 . S
C478 C479 1.524 . S
C478 C492 1.377 . S
C479 C478 1.524 . S
C479 C480 1.397 1_655 S
C479 C484 1.363 . S
C480 H457 0.950 . S
C480 C479 1.397 1_455 S
C480 C481 1.334 . S
C481 H458 0.950 . S
C481 C480 1.334 . S
C481 C482 1.287 . S
C482 C481 1.287 . S
C482 C483 1.524 1_455 S
C482 H501 0.913 . S
C483 H459 0.950 . S
C483 C482 1.524 1_655 S
C483 C484 1.415 . S
C484 H460 0.950 . S
C484 C479 1.363 . S
C484 C483 1.415 . S
C485 H461 0.951 1_655 S
C485 C486 1.366 . S
C485 C487 1.388 . S
C486 C485 1.366 . S
C486 C490 1.385 . S
C487 H462 0.951 . S
C487 C485 1.388 . S
C487 C488 1.366 . S
C488 C487 1.366 . S
C488 C489 1.414 . S
C488 C491 1.499 . S
C489 H463 0.950 . S
C489 C488 1.414 . S
C489 C490 1.374 . S
C490 H464 0.950 . S
C490 C486 1.385 . S
C490 C489 1.374 . S
C491 C488 1.499 . S
C491 C492 1.373 . S
C491 C493 1.389 . S
C492 H465 0.950 . S
C492 C478 1.377 . S
C492 C491 1.373 . S
C493 C477 1.377 . S
C493 C491 1.389 . S
C493 C494 1.524 . S
C494 C493 1.524 . S
C494 C495 1.397 . S
C494 C499 1.363 . S
C495 H466 0.950 . S
C495 C494 1.397 . S
C495 C496 1.334 . S
C496 H467 0.950 . S
C496 C495 1.334 . S
C496 C497 1.287 . S
C497 C496 1.287 . S
C497 C498 1.524 . S
C497 H500 0.999 . S
C498 H468 0.950 . S
C498 C497 1.524 . S
C498 C499 1.415 . S
C499 H469 0.950 . S
C499 C494 1.363 . S
C499 C498 1.415 . S
H500 C497 0.999 . S
H501 C482 0.913 . S
H502 C520 0.951 . S
H503 C522 0.951 . S
H504 C524 0.950 . S
H505 C525 0.950 . S
H506 C527 0.950 . S
H507 C530 0.950 . S
H508 C531 0.950 . S
H509 C533 0.950 . S
H510 C534 0.950 . S
H511 C535 0.951 . S
H512 C537 0.951 . S
H513 C539 0.950 . S
H514 C540 0.950 . S
H515 C542 0.950 . S
H516 C545 0.950 . S
H517 C546 0.950 . S
H518 C548 0.950 . S
H519 C549 0.950 . S
C520 H502 0.951 . S
C520 C521 1.366 . S
C520 C522 1.388 . S
C521 C520 1.366 . S
C521 C525 1.385 . S
C522 H503 0.951 . S
C522 C520 1.388 . S
C522 C523 1.366 . S
C523 C522 1.366 . S
C523 C524 1.414 . S
C523 C526 1.499 . S
C524 H504 0.950 . S
C524 C523 1.414 . S
C524 C525 1.374 . S
C525 H505 0.950 . S
C525 C521 1.385 . S
C525 C524 1.374 . S
C526 C523 1.499 . S
C526 C527 1.373 . S
C526 C528 1.389 . S
C527 H506 0.950 . S
C527 C526 1.373 . S
C527 C543 1.377 . S
C528 C526 1.389 . S
C528 C529 1.524 . S
C528 C542 1.377 . S
C529 C528 1.524 . S
C529 C530 1.397 . S
C529 C534 1.363 . S
C530 H507 0.950 . S
C530 C529 1.397 . S
C530 C531 1.334 . S
C531 H508 0.950 . S
C531 C530 1.334 . S
C531 C532 1.287 . S
C532 C531 1.287 . S
C532 C533 1.524 . S
C532 H551 0.913 . S
C533 H509 0.950 . S
C533 C532 1.524 . S
C533 C534 1.415 . S
C534 H510 0.950 . S
C534 C529 1.363 . S
C534 C533 1.415 . S
C535 H511 0.951 . S
C535 C536 1.366 . S
C535 C537 1.388 . S
C536 C535 1.366 . S
C536 C540 1.385 . S
C537 H512 0.951 . S
C537 C535 1.388 . S
C537 C538 1.366 . S
C538 C537 1.366 . S
C538 C539 1.414 . S
C538 C541 1.499 . S
C539 H513 0.950 . S
C539 C538 1.414 . S
C539 C540 1.374 . S
C540 H514 0.950 . S
C540 C536 1.385 . S
C540 C539 1.374 . S
C541 C538 1.499 . S
C541 C542 1.373 . S
C541 C543 1.389 . S
C542 H515 0.950 . S
C542 C528 1.377 . S
C542 C541 1.373 . S
C543 C527 1.377 . S
C543 C541 1.389 . S
C543 C544 1.524 . S
C544 C543 1.524 . S
C544 C545 1.397 . S
C544 C549 1.363 . S
C545 H516 0.950 . S
C545 C544 1.397 . S
C545 C546 1.334 . S
C546 H517 0.950 . S
C546 C545 1.334 . S
C546 C547 1.287 . S
C547 C546 1.287 . S
C547 C548 1.524 . S
C547 H550 0.999 . S
C548 H518 0.950 . S
C548 C547 1.524 . S
C548 C549 1.415 . S
C549 H519 0.950 . S
C549 C544 1.363 . S
C549 C548 1.415 . S
H550 C547 0.999 . S
H551 C532 0.913 . S
H552 C570 0.951 . S
H553 C572 0.951 1_455 S
H554 C574 0.950 . S
H555 C575 0.950 . S
H556 C577 0.950 . S
H557 C580 0.950 . S
H558 C581 0.950 . S
H559 C583 0.916 1_455 S
H560 C584 0.950 . S
H561 C585 0.951 . S
H562 C587 0.951 . S
H563 C589 0.950 . S
H564 C590 0.950 . S
H565 C592 0.950 . S
H566 C595 0.950 . S
H567 C596 0.950 . S
H568 C598 0.950 . S
H569 C599 0.950 . S
C570 H552 0.951 . S
C570 C571 1.366 1_455 S
C570 C572 1.388 1_455 S
C571 C570 1.366 1_655 S
C571 C575 1.385 . S
C572 H553 0.951 1_655 S
C572 C570 1.388 1_655 S
C572 C573 1.366 . S
C573 C572 1.366 . S
C573 C574 1.414 . S
C573 C576 1.499 . S
C574 H554 0.950 . S
C574 C573 1.414 . S
C574 C575 1.374 . S
C575 H555 0.950 . S
C575 C571 1.385 . S
C575 C574 1.374 . S
C576 C573 1.499 . S
C576 C577 1.373 . S
C576 C578 1.389 . S
C577 H556 0.950 . S
C577 C576 1.373 . S
C577 C593 1.377 . S
C578 C576 1.389 . S
C578 C579 1.524 . S
C578 C592 1.377 . S
C579 C578 1.524 . S
C579 C580 1.397 . S
C579 C584 1.363 . S
C580 H557 0.950 . S
C580 C579 1.397 . S
C580 C581 1.334 . S
C581 H558 0.950 . S
C581 C580 1.334 . S
C581 C582 1.287 . S
C582 C581 1.287 . S
C582 C583 1.524 . S
C582 H601 0.913 . S
C583 H559 0.916 1_655 S
C583 C582 1.524 . S
C583 C584 1.415 . S
C584 H560 0.950 . S
C584 C579 1.363 . S
C584 C583 1.415 . S
C585 H561 0.951 . S
C585 C586 1.366 1_556 S
C585 C587 1.388 . S
C586 C585 1.366 1_554 S
C586 C590 1.385 . S
C587 H562 0.951 . S
C587 C585 1.388 . S
C587 C588 1.366 . S
C588 C587 1.366 . S
C588 C589 1.414 . S
C588 C591 1.499 . S
C589 H563 0.950 . S
C589 C588 1.414 . S
C589 C590 1.374 1_556 S
C590 H564 0.950 . S
C590 C586 1.385 . S
C590 C589 1.374 1_554 S
C591 C588 1.499 . S
C591 C592 1.373 . S
C591 C593 1.389 . S
C592 H565 0.950 . S
C592 C578 1.377 . S
C592 C591 1.373 . S
C593 C577 1.377 . S
C593 C591 1.389 . S
C593 C594 1.524 . S
C594 C593 1.524 . S
C594 C595 1.397 . S
C594 C599 1.363 . S
C595 H566 0.950 . S
C595 C594 1.397 . S
C595 C596 1.334 . S
C596 H567 0.950 . S
C596 C595 1.334 . S
C596 C597 1.287 . S
C597 C596 1.287 . S
C597 C598 1.524 . S
C597 H600 0.999 . S
C598 H568 0.950 . S
C598 C597 1.524 . S
C598 C599 1.415 . S
C599 H569 0.950 . S
C599 C594 1.363 . S
C599 C598 1.415 . S
H600 C597 0.999 . S
H601 C582 0.913 . S
H602 C620 0.951 . S
H603 C622 0.951 . S
H604 C624 0.950 . S
H605 C625 0.950 . S
H606 C627 0.950 . S
H607 C630 0.950 . S
H608 C631 0.950 . S
H609 C633 0.950 . S
H610 C634 0.950 . S
H611 C635 0.951 . S
H612 C637 0.951 . S
H613 C639 0.950 . S
H614 C640 0.950 . S
H615 C642 0.950 . S
H616 C645 0.950 . S
H617 C646 0.950 . S
H618 C648 0.950 . S
H619 C649 0.950 . S
C620 H602 0.951 . S
C620 C621 1.366 . S
C620 C622 1.388 1_554 S
C621 C620 1.366 . S
C621 C625 1.385 . S
C622 H603 0.951 . S
C622 C620 1.388 1_556 S
C622 C623 1.366 . S
C623 C622 1.366 . S
C623 C624 1.414 . S
C623 C626 1.499 . S
C624 H604 0.950 . S
C624 C623 1.414 . S
C624 C625 1.374 1_556 S
C625 H605 0.950 . S
C625 C621 1.385 . S
C625 C624 1.374 1_554 S
C626 C623 1.499 . S
C626 C627 1.373 . S
C626 C628 1.389 . S
C627 H606 0.950 . S
C627 C626 1.373 . S
C627 C643 1.377 . S
C628 C626 1.389 . S
C628 C629 1.524 . S
C628 C642 1.377 . S
C629 C628 1.524 . S
C629 C630 1.397 . S
C629 C634 1.363 . S
C630 H607 0.950 . S
C630 C629 1.397 . S
C630 C631 1.334 1_556 S
C631 H608 0.950 . S
C631 C630 1.334 1_554 S
C631 C632 1.287 1_554 S
C632 C631 1.287 1_556 S
C632 C633 1.524 . S
C632 H651 0.913 1_556 S
C633 H609 0.950 . S
C633 C632 1.524 . S
C633 C634 1.415 . S
C634 H610 0.950 . S
C634 C629 1.363 . S
C634 C633 1.415 . S
C635 H611 0.951 . S
C635 C636 1.366 . S
C635 C637 1.388 . S
C636 C635 1.366 . S
C636 C640 1.385 . S
C637 H612 0.951 . S
C637 C635 1.388 . S
C637 C638 1.366 . S
C638 C637 1.366 . S
C638 C639 1.414 . S
C638 C641 1.499 . S
C639 H613 0.950 . S
C639 C638 1.414 . S
C639 C640 1.374 . S
C640 H614 0.950 . S
C640 C636 1.385 . S
C640 C639 1.374 . S
C641 C638 1.499 . S
C641 C642 1.373 . S
C641 C643 1.389 . S
C642 H615 0.950 . S
C642 C628 1.377 . S
C642 C641 1.373 . S
C643 C627 1.377 . S
C643 C641 1.389 . S
C643 C644 1.524 . S
C644 C643 1.524 . S
C644 C645 1.397 . S
C644 C649 1.363 . S
C645 H616 0.950 . S
C645 C644 1.397 . S
C645 C646 1.334 . S
C646 H617 0.950 . S
C646 C645 1.334 . S
C646 C647 1.287 . S
C647 C646 1.287 . S
C647 C648 1.524 . S
C647 H650 0.999 . S
C648 H618 0.950 . S
C648 C647 1.524 . S
C648 C649 1.415 . S
C649 H619 0.950 . S
C649 C644 1.363 . S
C649 C648 1.415 . S
H650 C647 0.999 . S
H651 C632 0.913 1_554 S
H652 C670 0.951 . S
H653 C672 0.951 . S
H654 C674 0.950 . S
H655 C675 0.950 . S
H656 C677 0.950 . S
H657 C680 0.950 . S
H658 C681 0.951 . S
H659 C683 0.950 . S
H660 C684 0.950 . S
H661 C685 0.951 . S
H662 C687 0.951 . S
H663 C689 0.950 . S
H664 C690 0.950 1_565 S
H665 C692 0.950 . S
H666 C695 0.950 . S
H667 C696 0.950 . S
H668 C698 0.950 . S
H669 C699 0.950 . S
C670 H652 0.951 . S
C670 C671 1.366 . S
C670 C672 1.388 1_554 S
C671 C670 1.366 . S
C671 C675 1.385 1_554 S
C672 H653 0.951 . S
C672 C670 1.388 1_556 S
C672 C673 1.366 . S
C673 C672 1.366 . S
C673 C674 1.414 . S
C673 C676 1.499 . S
C674 H654 0.950 . S
C674 C673 1.414 . S
C674 C675 1.374 . S
C675 H655 0.950 . S
C675 C671 1.385 1_556 S
C675 C674 1.374 . S
C676 C673 1.499 . S
C676 C677 1.373 . S
C676 C678 1.389 . S
C677 H656 0.950 . S
C677 C676 1.373 . S
C677 C693 1.377 . S
C678 C676 1.389 . S
C678 C679 1.524 . S
C678 C692 1.377 . S
C679 C678 1.524 . S
C679 C680 1.397 . S
C679 C684 1.363 1_545 S
C680 H657 0.950 . S
C680 C679 1.397 . S
C680 C681 1.331 . S
C681 H658 0.951 . S
C681 C680 1.331 . S
C681 C682 1.289 1_545 S
C682 C681 1.289 1_565 S
C682 C683 1.524 . S
C682 H701 0.913 . S
C683 H659 0.950 . S
C683 C682 1.524 . S
C683 C684 1.415 . S
C684 H660 0.950 . S
C684 C679 1.363 1_565 S
C684 C683 1.415 . S
C685 H661 0.951 . S
C685 C686 1.366 . S
C685 C687 1.388 . S
C686 C685 1.366 . S
C686 C690 1.385 . S
C687 H662 0.951 . S
C687 C685 1.388 . S
C687 C688 1.366 . S
C688 C687 1.366 . S
C688 C689 1.414 . S
C688 C691 1.499 . S
C689 H663 0.950 . S
C689 C688 1.414 . S
C689 C690 1.374 . S
C690 H664 0.950 1_545 S
C690 C686 1.385 . S
C690 C689 1.374 . S
C691 C688 1.499 . S
C691 C692 1.373 . S
C691 C693 1.389 . S
C692 H665 0.950 . S
C692 C678 1.377 . S
C692 C691 1.373 . S
C693 C677 1.377 . S
C693 C691 1.389 . S
C693 C694 1.524 . S
C694 C693 1.524 . S
C694 C695 1.397 . S
C694 C699 1.363 . S
C695 H666 0.950 . S
C695 C694 1.397 . S
C695 C696 1.334 . S
C696 H667 0.950 . S
C696 C695 1.334 . S
C696 C697 1.287 . S
C697 C696 1.287 . S
C697 C698 1.524 . S
C697 H700 0.999 . S
C698 H668 0.950 . S
C698 C697 1.524 . S
C698 C699 1.415 . S
C699 H669 0.950 . S
C699 C694 1.363 . S
C699 C698 1.415 . S
H700 C697 0.999 . S
H701 C682 0.913 . S
H702 C720 0.951 . S
H703 C722 0.951 . S
H704 C724 0.950 . S
H705 C725 0.950 . S
H706 C727 0.950 . S
H707 C730 0.950 . S
H708 C731 0.950 . S
H709 C733 0.950 . S
H710 C734 0.950 . S
H711 C735 0.951 . S
H712 C737 0.951 . S
H713 C739 0.950 . S
H714 C740 0.950 . S
H715 C742 0.950 . S
H716 C745 0.950 . S
H717 C746 0.950 . S
H718 C748 0.950 . S
H719 C749 0.950 . S
C720 H702 0.951 . S
C720 C721 1.366 . S
C720 C722 1.388 . S
C721 C720 1.366 . S
C721 C725 1.385 . S
C722 H703 0.951 . S
C722 C720 1.388 . S
C722 C723 1.366 . S
C723 C722 1.366 . S
C723 C724 1.414 . S
C723 C726 1.499 . S
C724 H704 0.950 . S
C724 C723 1.414 . S
C724 C725 1.374 . S
C725 H705 0.950 . S
C725 C721 1.385 . S
C725 C724 1.374 . S
C726 C723 1.499 . S
C726 C727 1.373 . S
C726 C728 1.389 . S
C727 H706 0.950 . S
C727 C726 1.373 . S
C727 C743 1.377 . S
C728 C726 1.389 . S
C728 C729 1.528 . S
C728 C742 1.377 . S
C729 C728 1.528 . S
C729 C730 1.386 1_565 S
C729 C734 1.369 . S
C730 H707 0.950 . S
C730 C729 1.386 1_545 S
C730 C731 1.334 . S
C731 H708 0.950 . S
C731 C730 1.334 . S
C731 C732 1.287 . S
C732 C731 1.287 . S
C732 C733 1.524 . S
C732 H751 0.913 . S
C733 H709 0.950 . S
C733 C732 1.524 . S
C733 C734 1.415 1_545 S
C734 H710 0.950 . S
C734 C729 1.369 . S
C734 C733 1.415 1_565 S
C735 H711 0.951 . S
C735 C736 1.366 . S
C735 C737 1.388 . S
C736 C735 1.366 . S
C736 C740 1.385 . S
C737 H712 0.951 . S
C737 C735 1.388 . S
C737 C738 1.366 . S
C738 C737 1.366 . S
C738 C739 1.414 . S
C738 C741 1.499 . S
C739 H713 0.950 . S
C739 C738 1.414 . S
C739 C740 1.374 . S
C740 H714 0.950 . S
C740 C736 1.385 . S
C740 C739 1.374 . S
C741 C738 1.499 . S
C741 C742 1.373 . S
C741 C743 1.389 . S
C742 H715 0.950 . S
C742 C728 1.377 . S
C742 C741 1.373 . S
C743 C727 1.377 . S
C743 C741 1.389 . S
C743 C744 1.524 . S
C744 C743 1.524 . S
C744 C745 1.397 . S
C744 C749 1.363 . S
C745 H716 0.950 . S
C745 C744 1.397 . S
C745 C746 1.334 . S
C746 H717 0.950 . S
C746 C745 1.334 . S
C746 C747 1.287 . S
C747 C746 1.287 . S
C747 C748 1.524 . S
C747 H750 0.999 . S
C748 H718 0.950 . S
C748 C747 1.524 . S
C748 C749 1.415 . S
C749 H719 0.950 . S
C749 C744 1.363 . S
C749 C748 1.415 . S
H750 C747 0.999 . S
H751 C732 0.913 . S
H752 C770 0.951 . S
H753 C772 0.951 . S
H754 C774 0.950 . S
H755 C775 0.950 . S
H756 C777 0.950 . S
H757 C780 0.950 . S
H758 C781 0.950 . S
H759 C783 0.950 . S
H760 C784 0.950 . S
H761 C785 0.951 . S
H762 C787 0.951 . S
H763 C789 0.950 . S
H764 C790 0.950 . S
H765 C792 0.950 . S
H766 C795 0.950 . S
H767 C796 0.950 . S
H768 C798 0.950 . S
H769 C799 0.951 . S
C770 H752 0.951 . S
C770 C771 1.366 . S
C770 C772 1.388 . S
C771 C770 1.366 . S
C771 C775 1.385 . S
C772 H753 0.951 . S
C772 C770 1.388 . S
C772 C773 1.366 . S
C773 C772 1.366 . S
C773 C774 1.414 . S
C773 C776 1.499 . S
C774 H754 0.950 . S
C774 C773 1.414 . S
C774 C775 1.374 . S
C775 H755 0.950 . S
C775 C771 1.385 . S
C775 C774 1.374 . S
C776 C773 1.499 . S
C776 C777 1.373 . S
C776 C778 1.389 . S
C777 H756 0.950 . S
C777 C776 1.373 . S
C777 C793 1.377 . S
C778 C776 1.389 . S
C778 C779 1.524 . S
C778 C792 1.377 . S
C779 C778 1.524 . S
C779 C780 1.397 . S
C779 C784 1.363 . S
C780 H757 0.950 . S
C780 C779 1.397 . S
C780 C781 1.334 . S
C781 H758 0.950 . S
C781 C780 1.334 . S
C781 C782 1.287 . S
C782 C781 1.287 . S
C782 C783 1.524 . S
C782 H801 0.913 . S
C783 H759 0.950 . S
C783 C782 1.524 . S
C783 C784 1.415 . S
C784 H760 0.950 . S
C784 C779 1.363 . S
C784 C783 1.415 . S
C785 H761 0.951 . S
C785 C786 1.366 . S
C785 C787 1.388 . S
C786 C785 1.366 . S
C786 C790 1.385 . S
C787 H762 0.951 . S
C787 C785 1.388 . S
C787 C788 1.366 . S
C788 C787 1.366 . S
C788 C789 1.414 . S
C788 C791 1.499 . S
C789 H763 0.950 . S
C789 C788 1.414 . S
C789 C790 1.374 . S
C790 H764 0.950 . S
C790 C786 1.385 . S
C790 C789 1.374 . S
C791 C788 1.499 . S
C791 C792 1.373 . S
C791 C793 1.389 . S
C792 H765 0.950 . S
C792 C778 1.377 . S
C792 C791 1.373 . S
C793 C777 1.377 . S
C793 C791 1.389 . S
C793 C794 1.524 . S
C794 C793 1.524 . S
C794 C795 1.397 . S
C794 C799 1.363 1_455 S
C795 H766 0.950 . S
C795 C794 1.397 . S
C795 C796 1.334 1_455 S
C796 H767 0.950 . S
C796 C795 1.334 1_655 S
C796 C797 1.287 . S
C797 C796 1.287 . S
C797 C798 1.524 . S
C797 H800 0.999 . S
C798 H768 0.950 . S
C798 C797 1.524 . S
C798 C799 1.415 . S
C799 H769 0.951 . S
C799 C794 1.363 1_655 S
C799 C798 1.415 . S
H800 C797 0.999 . S
H801 C782 0.913 . S
H802 C820 0.951 . S
H803 C822 0.951 . S
H804 C824 0.950 . S
H805 C825 0.950 . S
H806 C827 0.950 . S
H807 C830 0.950 . S
H808 C831 0.950 . S
H809 C833 0.950 . S
H810 C834 0.950 . S
H811 C835 0.951 . S
H812 C837 0.951 . S
H813 C839 0.950 . S
H814 C840 0.950 . S
H815 C842 0.950 . S
H816 C845 0.950 . S
H817 C846 0.950 . S
H818 C848 0.950 . S
H819 C849 0.950 . S
C820 H802 0.951 . S
C820 C821 1.366 . S
C820 C822 1.388 . S
C821 C820 1.366 . S
C821 C825 1.385 . S
C822 H803 0.951 . S
C822 C820 1.388 . S
C822 C823 1.366 . S
C823 C822 1.366 . S
C823 C824 1.414 . S
C823 C826 1.499 . S
C824 H804 0.950 . S
C824 C823 1.414 . S
C824 C825 1.374 . S
C825 H805 0.950 . S
C825 C821 1.385 . S
C825 C824 1.374 . S
C826 C823 1.499 . S
C826 C827 1.373 . S
C826 C828 1.389 . S
C827 H806 0.950 . S
C827 C826 1.373 . S
C827 C843 1.377 . S
C828 C826 1.389 . S
C828 C829 1.524 . S
C828 C842 1.377 . S
C829 C828 1.524 . S
C829 C830 1.397 . S
C829 C834 1.363 . S
C830 H807 0.950 . S
C830 C829 1.397 . S
C830 C831 1.334 . S
C831 H808 0.950 . S
C831 C830 1.334 . S
C831 C832 1.287 . S
C832 C831 1.287 . S
C832 C833 1.524 . S
C832 H851 0.913 . S
C833 H809 0.950 . S
C833 C832 1.524 . S
C833 C834 1.415 . S
C834 H810 0.950 . S
C834 C829 1.363 . S
C834 C833 1.415 . S
C835 H811 0.951 . S
C835 C836 1.366 . S
C835 C837 1.388 . S
C836 C835 1.366 . S
C836 C840 1.385 . S
C837 H812 0.951 . S
C837 C835 1.388 . S
C837 C838 1.366 . S
C838 C837 1.366 . S
C838 C839 1.414 . S
C838 C841 1.499 . S
C839 H813 0.950 . S
C839 C838 1.414 . S
C839 C840 1.374 . S
C840 H814 0.950 . S
C840 C836 1.385 . S
C840 C839 1.374 . S
C841 C838 1.499 . S
C841 C842 1.373 . S
C841 C843 1.389 . S
C842 H815 0.950 . S
C842 C828 1.377 . S
C842 C841 1.373 . S
C843 C827 1.377 . S
C843 C841 1.389 . S
C843 C844 1.524 . S
C844 C843 1.524 . S
C844 C845 1.397 . S
C844 C849 1.363 . S
C845 H816 0.950 . S
C845 C844 1.397 . S
C845 C846 1.334 . S
C846 H817 0.950 . S
C846 C845 1.334 . S
C846 C847 1.287 . S
C847 C846 1.287 . S
C847 C848 1.524 . S
C847 H850 0.999 . S
C848 H818 0.950 . S
C848 C847 1.524 . S
C848 C849 1.415 . S
C849 H819 0.950 . S
C849 C844 1.363 . S
C849 C848 1.415 . S
H850 C847 0.999 . S
H851 C832 0.913 . S
H852 C870 0.951 . S
H853 C872 0.951 . S
H854 C874 0.950 . S
H855 C875 0.950 . S
H856 C877 0.950 . S
H857 C880 0.950 . S
H858 C881 0.950 . S
H859 C883 0.950 . S
H860 C884 0.950 . S
H861 C885 0.951 . S
H862 C887 0.951 . S
H863 C889 0.950 . S
H864 C890 0.950 . S
H865 C892 0.950 . S
H866 C895 0.950 . S
H867 C896 0.950 . S
H868 C898 0.950 . S
H869 C899 0.950 . S
C870 H852 0.951 . S
C870 C871 1.366 . S
C870 C872 1.388 . S
C871 C870 1.366 . S
C871 C875 1.385 . S
C872 H853 0.951 . S
C872 C870 1.388 . S
C872 C873 1.366 . S
C873 C872 1.366 . S
C873 C874 1.414 . S
C873 C876 1.499 . S
C874 H854 0.950 . S
C874 C873 1.414 . S
C874 C875 1.374 . S
C875 H855 0.950 . S
C875 C871 1.385 . S
C875 C874 1.374 . S
C876 C873 1.499 . S
C876 C877 1.373 . S
C876 C878 1.389 . S
C877 H856 0.950 . S
C877 C876 1.373 . S
C877 C893 1.377 . S
C878 C876 1.389 . S
C878 C879 1.524 . S
C878 C892 1.377 . S
C879 C878 1.524 . S
C879 C880 1.397 . S
C879 C884 1.363 . S
C880 H857 0.950 . S
C880 C879 1.397 . S
C880 C881 1.334 . S
C881 H858 0.950 . S
C881 C880 1.334 . S
C881 C882 1.287 . S
C882 C881 1.287 . S
C882 C883 1.524 . S
C882 H901 0.913 . S
C883 H859 0.950 . S
C883 C882 1.524 . S
C883 C884 1.415 . S
C884 H860 0.950 . S
C884 C879 1.363 . S
C884 C883 1.415 . S
C885 H861 0.951 . S
C885 C886 1.366 . S
C885 C887 1.388 . S
C886 C885 1.366 . S
C886 C890 1.385 . S
C887 H862 0.951 . S
C887 C885 1.388 . S
C887 C888 1.366 . S
C888 C887 1.366 . S
C888 C889 1.414 . S
C888 C891 1.499 . S
C889 H863 0.950 . S
C889 C888 1.414 . S
C889 C890 1.374 . S
C890 H864 0.950 . S
C890 C886 1.385 . S
C890 C889 1.374 . S
C891 C888 1.499 . S
C891 C892 1.373 . S
C891 C893 1.389 . S
C892 H865 0.950 . S
C892 C878 1.377 . S
C892 C891 1.373 . S
C893 C877 1.377 . S
C893 C891 1.389 . S
C893 C894 1.524 . S
C894 C893 1.524 . S
C894 C895 1.397 . S
C894 C899 1.363 . S
C895 H866 0.950 . S
C895 C894 1.397 . S
C895 C896 1.334 . S
C896 H867 0.950 . S
C896 C895 1.334 . S
C896 C897 1.287 . S
C897 C896 1.287 . S
C897 C898 1.524 . S
C897 H900 0.999 . S
C898 H868 0.950 . S
C898 C897 1.524 . S
C898 C899 1.415 . S
C899 H869 0.950 . S
C899 C894 1.363 . S
C899 C898 1.415 . S
H900 C897 0.999 . S
H901 C882 0.913 . S
H902 C920 0.951 . S
H903 C922 0.951 . S
H904 C924 0.950 . S
H905 C925 0.950 . S
H906 C927 0.950 . S
H907 C930 0.976 . S
H908 C931 0.950 . S
H909 C933 0.950 . S
H910 C934 0.950 . S
H911 C935 0.951 . S
H912 C937 0.951 1_545 S
H913 C939 0.950 . S
H914 C940 0.950 . S
H915 C942 0.950 . S
H916 C945 0.950 . S
H917 C946 0.950 . S
H918 C948 0.950 . S
H919 C949 0.950 . S
C920 H902 0.951 . S
C920 C921 1.366 . S
C920 C922 1.388 . S
C921 C920 1.366 . S
C921 C925 1.385 . S
C922 H903 0.951 . S
C922 C920 1.388 . S
C922 C923 1.366 . S
C923 C922 1.366 . S
C923 C924 1.414 . S
C923 C926 1.499 . S
C924 H904 0.950 . S
C924 C923 1.414 . S
C924 C925 1.374 . S
C925 H905 0.950 . S
C925 C921 1.385 . S
C925 C924 1.374 . S
C926 C923 1.499 . S
C926 C927 1.373 . S
C926 C928 1.389 1_545 S
C927 H906 0.950 . S
C927 C926 1.373 . S
C927 C943 1.377 . S
C928 C926 1.389 1_565 S
C928 C929 1.524 . S
C928 C942 1.377 . S
C929 C928 1.524 . S
C929 C930 1.397 . S
C929 C934 1.363 . S
C930 H907 0.976 . S
C930 C929 1.397 . S
C930 C931 1.334 . S
C931 H908 0.950 . S
C931 C930 1.334 . S
C931 C932 1.287 . S
C932 C931 1.287 . S
C932 C933 1.524 . S
C932 H951 0.913 . S
C933 H909 0.950 . S
C933 C932 1.524 . S
C933 C934 1.415 . S
C934 H910 0.950 . S
C934 C929 1.363 . S
C934 C933 1.415 . S
C935 H911 0.951 . S
C935 C936 1.366 . S
C935 C937 1.388 . S
C936 C935 1.366 . S
C936 C940 1.385 . S
C937 H912 0.951 1_565 S
C937 C935 1.388 . S
C937 C938 1.366 . S
C938 C937 1.366 . S
C938 C939 1.414 . S
C938 C941 1.499 . S
C939 H913 0.950 . S
C939 C938 1.414 . S
C939 C940 1.374 . S
C940 H914 0.950 . S
C940 C936 1.385 . S
C940 C939 1.374 . S
C941 C938 1.499 . S
C941 C942 1.373 . S
C941 C943 1.389 1_565 S
C942 H915 0.950 . S
C942 C928 1.377 . S
C942 C941 1.373 . S
C943 C927 1.377 . S
C943 C941 1.389 1_545 S
C943 C944 1.524 . S
C944 C943 1.524 . S
C944 C945 1.397 . S
C944 C949 1.363 . S
C945 H916 0.950 . S
C945 C944 1.397 . S
C945 C946 1.334 . S
C946 H917 0.950 . S
C946 C945 1.334 . S
C946 C947 1.287 . S
C947 C946 1.287 . S
C947 C948 1.524 . S
C947 H950 0.999 . S
C948 H918 0.950 . S
C948 C947 1.524 . S
C948 C949 1.415 . S
C949 H919 0.950 . S
C949 C944 1.363 . S
C949 C948 1.415 . S
H950 C947 0.999 . S
H951 C932 0.913 . S
H952 C970 0.951 . S
H953 C972 0.951 . S
H954 C974 0.950 . S
H955 C975 0.950 . S
H956 C977 0.950 1_655 S
H957 C980 0.950 . S
H958 C981 0.950 . S
H959 C983 0.950 . S
H960 C984 0.950 . S
H961 C985 0.951 . S
H962 C987 0.951 . S
H963 C989 0.957 . S
H964 C990 0.950 . S
H965 C992 0.950 . S
H966 C995 0.950 . S
H967 C996 0.950 . S
H968 C998 0.950 . S
H969 C999 0.950 . S
C970 H952 0.951 . S
C970 C971 1.366 . S
C970 C972 1.388 . S
C971 C970 1.366 . S
C971 C975 1.385 . S
C972 H953 0.951 . S
C972 C970 1.388 . S
C972 C973 1.366 . S
C973 C972 1.366 . S
C973 C974 1.414 . S
C973 C976 1.499 . S
C974 H954 0.950 . S
C974 C973 1.414 . S
C974 C975 1.374 . S
C975 H955 0.950 . S
C975 C971 1.385 . S
C975 C974 1.374 . S
C976 C973 1.499 . S
C976 C977 1.373 . S
C976 C978 1.389 . S
C977 H956 0.950 1_455 S
C977 C976 1.373 . S
C977 C993 1.377 1_455 S
C978 C976 1.389 . S
C978 C979 1.524 . S
C978 C992 1.377 . S
C979 C978 1.524 . S
C979 C980 1.397 . S
C979 C984 1.363 . S
C980 H957 0.950 . S
C980 C979 1.397 . S
C980 C981 1.334 . S
C981 H958 0.950 . S
C981 C980 1.334 . S
C981 C982 1.287 . S
C982 C981 1.287 . S
C982 C983 1.524 . S
C982 H1001 0.913 . S
C983 H959 0.950 . S
C983 C982 1.524 . S
C983 C984 1.415 . S
C984 H960 0.950 . S
C984 C979 1.363 . S
C984 C983 1.415 . S
C985 H961 0.951 . S
C985 C986 1.366 . S
C985 C987 1.388 . S
C986 C985 1.366 . S
C986 C990 1.385 . S
C987 H962 0.951 . S
C987 C985 1.388 . S
C987 C988 1.366 . S
C988 C987 1.366 . S
C988 C989 1.410 1_655 S
C988 C991 1.499 1_655 S
C989 H963 0.957 . S
C989 C988 1.410 1_455 S
C989 C990 1.371 1_455 S
C990 H964 0.950 . S
C990 C986 1.385 . S
C990 C989 1.371 1_655 S
C991 C988 1.499 1_455 S
C991 C992 1.373 . S
C991 C993 1.389 1_455 S
C992 H965 0.950 . S
C992 C978 1.377 . S
C992 C991 1.373 . S
C993 C977 1.377 1_655 S
C993 C991 1.389 1_655 S
C993 C994 1.524 . S
C994 C993 1.524 . S
C994 C995 1.397 . S
C994 C999 1.363 . S
C995 H966 0.950 . S
C995 C994 1.397 . S
C995 C996 1.334 . S
C996 H967 0.950 . S
C996 C995 1.334 . S
C996 C997 1.287 . S
C997 C996 1.287 . S
C997 C998 1.524 . S
C997 H1000 0.999 . S
C998 H968 0.950 . S
C998 C997 1.524 . S
C998 C999 1.415 . S
C999 H969 0.950 . S
C999 C994 1.363 . S
C999 C998 1.415 . S
H1000 C997 0.999 . S
H1001 C982 0.913 . S
H1002 C1020 0.951 . S
H1003 C1022 0.951 . S
H1004 C1024 0.950 . S
H1005 C1025 0.950 . S
H1006 C1027 0.950 . S
H1007 C1030 0.950 . S
H1008 C1031 0.950 . S
H1009 C1033 0.950 . S
H1010 C1034 0.950 . S
H1011 C1035 0.951 . S
H1012 C1037 0.951 . S
H1013 C1039 0.950 . S
H1014 C1040 0.950 . S
H1015 C1042 0.950 . S
H1016 C1045 0.950 . S
H1017 C1046 0.950 . S
H1018 C1048 0.950 . S
H1019 C1049 0.950 . S
C1020 H1002 0.951 . S
C1020 C1021 1.366 . S
C1020 C1022 1.388 . S
C1021 C1020 1.366 . S
C1021 C1025 1.385 . S
C1022 H1003 0.951 . S
C1022 C1020 1.388 . S
C1022 C1023 1.366 . S
C1023 C1022 1.366 . S
C1023 C1024 1.414 . S
C1023 C1026 1.499 . S
C1024 H1004 0.950 . S
C1024 C1023 1.414 . S
C1024 C1025 1.374 . S
C1025 H1005 0.950 . S
C1025 C1021 1.385 . S
C1025 C1024 1.374 . S
C1026 C1023 1.499 . S
C1026 C1027 1.373 . S
C1026 C1028 1.389 . S
C1027 H1006 0.950 . S
C1027 C1026 1.373 . S
C1027 C1043 1.377 . S
C1028 C1026 1.389 . S
C1028 C1029 1.524 . S
C1028 C1042 1.377 . S
C1029 C1028 1.524 . S
C1029 C1030 1.397 . S
C1029 C1034 1.363 . S
C1030 H1007 0.950 . S
C1030 C1029 1.397 . S
C1030 C1031 1.334 . S
C1031 H1008 0.950 . S
C1031 C1030 1.334 . S
C1031 C1032 1.287 . S
C1032 C1031 1.287 . S
C1032 C1033 1.524 . S
C1032 H1051 0.913 . S
C1033 H1009 0.950 . S
C1033 C1032 1.524 . S
C1033 C1034 1.415 . S
C1034 H1010 0.950 . S
C1034 C1029 1.363 . S
C1034 C1033 1.415 . S
C1035 H1011 0.951 . S
C1035 C1036 1.366 . S
C1035 C1037 1.388 . S
C1036 C1035 1.366 . S
C1036 C1040 1.385 . S
C1037 H1012 0.951 . S
C1037 C1035 1.388 . S
C1037 C1038 1.366 . S
C1038 C1037 1.366 . S
C1038 C1039 1.414 . S
C1038 C1041 1.499 . S
C1039 H1013 0.950 . S
C1039 C1038 1.414 . S
C1039 C1040 1.374 . S
C1040 H1014 0.950 . S
C1040 C1036 1.385 . S
C1040 C1039 1.374 . S
C1041 C1038 1.499 . S
C1041 C1042 1.373 . S
C1041 C1043 1.389 . S
C1042 H1015 0.950 . S
C1042 C1028 1.377 . S
C1042 C1041 1.373 . S
C1043 C1027 1.377 . S
C1043 C1041 1.389 . S
C1043 C1044 1.524 . S
C1044 C1043 1.524 . S
C1044 C1045 1.397 . S
C1044 C1049 1.363 . S
C1045 H1016 0.950 . S
C1045 C1044 1.397 . S
C1045 C1046 1.334 . S
C1046 H1017 0.950 . S
C1046 C1045 1.334 . S
C1046 C1047 1.287 . S
C1047 C1046 1.287 . S
C1047 C1048 1.524 . S
C1047 H1050 0.999 . S
C1048 H1018 0.950 . S
C1048 C1047 1.524 . S
C1048 C1049 1.415 . S
C1049 H1019 0.950 . S
C1049 C1044 1.363 . S
C1049 C1048 1.415 . S
H1050 C1047 0.999 . S
H1051 C1032 0.913 . S
H1052 C1070 0.951 . S
H1053 C1072 0.951 . S
H1054 C1074 0.950 . S
H1055 C1075 0.950 . S
H1056 C1077 0.950 . S
H1057 C1080 0.950 . S
H1058 C1081 0.950 . S
H1059 C1083 0.950 . S
H1060 C1084 0.950 . S
H1061 C1085 0.951 . S
H1062 C1087 0.951 . S
H1063 C1089 0.950 1_545 S
H1064 C1090 0.950 . S
H1065 C1092 0.950 . S
H1066 C1095 0.950 1_545 S
H1067 C1096 0.950 . S
H1068 C1098 0.950 . S
H1069 C1099 0.950 . S
C1070 H1052 0.951 . S
C1070 C1071 1.366 . S
C1070 C1072 1.388 . S
C1071 C1070 1.366 . S
C1071 C1075 1.385 . S
C1072 H1053 0.951 . S
C1072 C1070 1.388 . S
C1072 C1073 1.366 . S
C1073 C1072 1.366 . S
C1073 C1074 1.414 . S
C1073 C1076 1.499 . S
C1074 H1054 0.950 . S
C1074 C1073 1.414 . S
C1074 C1075 1.374 . S
C1075 H1055 0.950 . S
C1075 C1071 1.385 . S
C1075 C1074 1.374 . S
C1076 C1073 1.499 . S
C1076 C1077 1.373 . S
C1076 C1078 1.389 . S
C1077 H1056 0.950 . S
C1077 C1076 1.373 . S
C1077 C1093 1.377 1_545 S
C1078 C1076 1.389 . S
C1078 C1079 1.524 . S
C1078 C1092 1.377 . S
C1079 C1078 1.524 . S
C1079 C1080 1.397 . S
C1079 C1084 1.363 . S
C1080 H1057 0.950 . S
C1080 C1079 1.397 . S
C1080 C1081 1.334 . S
C1081 H1058 0.950 . S
C1081 C1080 1.334 . S
C1081 C1082 1.287 . S
C1082 C1081 1.287 . S
C1082 C1083 1.524 . S
C1082 H1101 0.913 . S
C1083 H1059 0.950 . S
C1083 C1082 1.524 . S
C1083 C1084 1.415 . S
C1084 H1060 0.950 . S
C1084 C1079 1.363 . S
C1084 C1083 1.415 . S
C1085 H1061 0.951 . S
C1085 C1086 1.366 . S
C1085 C1087 1.388 . S
C1086 C1085 1.366 . S
C1086 C1090 1.385 . S
C1087 H1062 0.951 . S
C1087 C1085 1.388 . S
C1087 C1088 1.366 . S
C1088 C1087 1.366 . S
C1088 C1089 1.414 . S
C1088 C1091 1.499 . S
C1089 H1063 0.950 1_565 S
C1089 C1088 1.414 . S
C1089 C1090 1.374 . S
C1090 H1064 0.950 . S
C1090 C1086 1.385 . S
C1090 C1089 1.374 . S
C1091 C1088 1.499 . S
C1091 C1092 1.373 1_565 S
C1091 C1093 1.389 . S
C1092 H1065 0.950 . S
C1092 C1078 1.377 . S
C1092 C1091 1.373 1_545 S
C1093 C1077 1.377 1_565 S
C1093 C1091 1.389 . S
C1093 C1094 1.524 . S
C1094 C1093 1.524 . S
C1094 C1095 1.397 . S
C1094 C1099 1.363 . S
C1095 H1066 0.950 1_565 S
C1095 C1094 1.397 . S
C1095 C1096 1.334 . S
C1096 H1067 0.950 . S
C1096 C1095 1.334 . S
C1096 C1097 1.287 . S
C1097 C1096 1.287 . S
C1097 C1098 1.524 . S
C1097 H1100 0.999 . S
C1098 H1068 0.950 . S
C1098 C1097 1.524 . S
C1098 C1099 1.415 . S
C1099 H1069 0.950 . S
C1099 C1094 1.363 . S
C1099 C1098 1.415 . S
H1100 C1097 0.999 . S
H1101 C1082 0.913 . S
H1102 C1120 0.951 . S
H1103 C1122 0.951 . S
H1104 C1124 0.950 . S
H1105 C1125 0.950 . S
H1106 C1127 0.950 . S
H1107 C1130 0.950 1_455 S
H1108 C1131 0.950 . S
H1109 C1133 0.950 . S
H1110 C1134 0.950 . S
H1111 C1135 0.951 . S
H1112 C1137 0.951 1_455 S
H1113 C1139 0.950 . S
H1114 C1140 0.950 . S
H1115 C1142 0.950 . S
H1116 C1145 0.950 . S
H1117 C1146 0.950 . S
H1118 C1148 0.950 . S
H1119 C1149 0.950 . S
C1120 H1102 0.951 . S
C1120 C1121 1.366 . S
C1120 C1122 1.388 . S
C1121 C1120 1.366 . S
C1121 C1125 1.385 . S
C1122 H1103 0.951 . S
C1122 C1120 1.388 . S
C1122 C1123 1.366 . S
C1123 C1122 1.366 . S
C1123 C1124 1.414 . S
C1123 C1126 1.499 . S
C1124 H1104 0.950 . S
C1124 C1123 1.414 . S
C1124 C1125 1.374 . S
C1125 H1105 0.950 . S
C1125 C1121 1.385 . S
C1125 C1124 1.374 . S
C1126 C1123 1.499 . S
C1126 C1127 1.373 . S
C1126 C1128 1.389 1_455 S
C1127 H1106 0.950 . S
C1127 C1126 1.373 . S
C1127 C1143 1.377 . S
C1128 C1126 1.389 1_655 S
C1128 C1129 1.524 . S
C1128 C1142 1.377 . S
C1129 C1128 1.524 . S
C1129 C1130 1.397 . S
C1129 C1134 1.363 . S
C1130 H1107 0.950 1_655 S
C1130 C1129 1.397 . S
C1130 C1131 1.334 . S
C1131 H1108 0.950 . S
C1131 C1130 1.334 . S
C1131 C1132 1.287 . S
C1132 C1131 1.287 . S
C1132 C1133 1.524 . S
C1132 H1151 0.913 . S
C1133 H1109 0.950 . S
C1133 C1132 1.524 . S
C1133 C1134 1.415 . S
C1134 H1110 0.950 . S
C1134 C1129 1.363 . S
C1134 C1133 1.415 . S
C1135 H1111 0.951 . S
C1135 C1136 1.366 . S
C1135 C1137 1.388 . S
C1136 C1135 1.366 . S
C1136 C1140 1.385 . S
C1137 H1112 0.951 1_655 S
C1137 C1135 1.388 . S
C1137 C1138 1.366 . S
C1138 C1137 1.366 . S
C1138 C1139 1.414 . S
C1138 C1141 1.499 . S
C1139 H1113 0.950 . S
C1139 C1138 1.414 . S
C1139 C1140 1.374 . S
C1140 H1114 0.950 . S
C1140 C1136 1.385 . S
C1140 C1139 1.374 . S
C1141 C1138 1.499 . S
C1141 C1142 1.373 . S
C1141 C1143 1.389 1_655 S
C1142 H1115 0.950 . S
C1142 C1128 1.377 . S
C1142 C1141 1.373 . S
C1143 C1127 1.377 . S
C1143 C1141 1.389 1_455 S
C1143 C1144 1.524 . S
C1144 C1143 1.524 . S
C1144 C1145 1.397 . S
C1144 C1149 1.363 . S
C1145 H1116 0.950 . S
C1145 C1144 1.397 . S
C1145 C1146 1.334 . S
C1146 H1117 0.950 . S
C1146 C1145 1.334 . S
C1146 C1147 1.287 . S
C1147 C1146 1.287 . S
C1147 C1148 1.524 . S
C1147 H1150 0.999 . S
C1148 H1118 0.950 . S
C1148 C1147 1.524 . S
C1148 C1149 1.415 . S
C1149 H1119 0.950 . S
C1149 C1144 1.363 . S
C1149 C1148 1.415 . S
H1150 C1147 0.999 . S
H1151 C1132 0.913 . S
H1152 C1170 0.951 . S
H1153 C1172 0.951 . S
H1154 C1174 0.950 . S
H1155 C1175 0.950 . S
H1156 C1177 0.950 . S
H1157 C1180 0.950 . S
H1158 C1181 0.950 . S
H1159 C1183 0.950 . S
H1160 C1184 0.950 . S
H1161 C1185 0.951 . S
H1162 C1187 0.951 . S
H1163 C1189 0.950 . S
H1164 C1190 0.950 . S
H1165 C1192 0.950 . S
H1166 C1195 0.950 . S
H1167 C1196 0.950 . S
H1168 C1198 0.950 . S
H1169 C1199 0.950 . S
C1170 H1152 0.951 . S
C1170 C1171 1.366 . S
C1170 C1172 1.388 . S
C1171 C1170 1.366 . S
C1171 C1175 1.385 . S
C1172 H1153 0.951 . S
C1172 C1170 1.388 . S
C1172 C1173 1.366 . S
C1173 C1172 1.366 . S
C1173 C1174 1.414 . S
C1173 C1176 1.499 . S
C1174 H1154 0.950 . S
C1174 C1173 1.414 . S
C1174 C1175 1.374 . S
C1175 H1155 0.950 . S
C1175 C1171 1.385 . S
C1175 C1174 1.374 . S
C1176 C1173 1.499 . S
C1176 C1177 1.373 . S
C1176 C1178 1.389 . S
C1177 H1156 0.950 . S
C1177 C1176 1.373 . S
C1177 C1193 1.377 . S
C1178 C1176 1.389 . S
C1178 C1179 1.524 . S
C1178 C1192 1.377 . S
C1179 C1178 1.524 . S
C1179 C1180 1.397 . S
C1179 C1184 1.363 . S
C1180 H1157 0.950 . S
C1180 C1179 1.397 . S
C1180 C1181 1.334 . S
C1181 H1158 0.950 . S
C1181 C1180 1.334 . S
C1181 C1182 1.287 . S
C1182 C1181 1.287 . S
C1182 C1183 1.524 . S
C1182 H1201 0.913 . S
C1183 H1159 0.950 . S
C1183 C1182 1.524 . S
C1183 C1184 1.415 . S
C1184 H1160 0.950 . S
C1184 C1179 1.363 . S
C1184 C1183 1.415 . S
C1185 H1161 0.951 . S
C1185 C1186 1.366 . S
C1185 C1187 1.388 . S
C1186 C1185 1.366 . S
C1186 C1190 1.385 . S
C1187 H1162 0.951 . S
C1187 C1185 1.388 . S
C1187 C1188 1.366 . S
C1188 C1187 1.366 . S
C1188 C1189 1.414 . S
C1188 C1191 1.499 . S
C1189 H1163 0.950 . S
C1189 C1188 1.414 . S
C1189 C1190 1.374 . S
C1190 H1164 0.950 . S
C1190 C1186 1.385 . S
C1190 C1189 1.374 . S
C1191 C1188 1.499 . S
C1191 C1192 1.373 . S
C1191 C1193 1.389 . S
C1192 H1165 0.950 . S
C1192 C1178 1.377 . S
C1192 C1191 1.373 . S
C1193 C1177 1.377 . S
C1193 C1191 1.389 . S
C1193 C1194 1.524 . S
C1194 C1193 1.524 . S
C1194 C1195 1.397 . S
C1194 C1199 1.363 . S
C1195 H1166 0.950 . S
C1195 C1194 1.397 . S
C1195 C1196 1.334 . S
C1196 H1167 0.950 . S
C1196 C1195 1.334 . S
C1196 C1197 1.287 . S
C1197 C1196 1.287 . S
C1197 C1198 1.524 . S
C1197 H1200 0.999 . S
C1198 H1168 0.950 . S
C1198 C1197 1.524 . S
C1198 C1199 1.415 . S
C1199 H1169 0.950 . S
C1199 C1194 1.363 . S
C1199 C1198 1.415 . S
H1200 C1197 0.999 . S
H1201 C1182 0.913 . S
H1202 C1220 0.951 . S
H1203 C1222 0.951 . S
H1204 C1224 0.950 . S
H1205 C1225 0.950 . S
H1206 C1227 0.950 . S
H1207 C1230 0.950 . S
H1208 C1231 0.950 . S
H1209 C1233 0.950 . S
H1210 C1234 0.950 . S
H1211 C1235 0.951 . S
H1212 C1237 0.951 . S
H1213 C1239 0.950 . S
H1214 C1240 0.950 . S
H1215 C1242 0.950 . S
H1216 C1245 0.950 . S
H1217 C1246 0.950 . S
H1218 C1248 0.950 . S
H1219 C1249 0.950 . S
C1220 H1202 0.951 . S
C1220 C1221 1.366 . S
C1220 C1222 1.388 . S
C1221 C1220 1.366 . S
C1221 C1225 1.385 . S
C1222 H1203 0.951 . S
C1222 C1220 1.388 . S
C1222 C1223 1.366 . S
C1223 C1222 1.366 . S
C1223 C1224 1.414 . S
C1223 C1226 1.499 . S
C1224 H1204 0.950 . S
C1224 C1223 1.414 . S
C1224 C1225 1.374 . S
C1225 H1205 0.950 . S
C1225 C1221 1.385 . S
C1225 C1224 1.374 . S
C1226 C1223 1.499 . S
C1226 C1227 1.373 . S
C1226 C1228 1.389 . S
C1227 H1206 0.950 . S
C1227 C1226 1.373 . S
C1227 C1243 1.377 . S
C1228 C1226 1.389 . S
C1228 C1229 1.524 . S
C1228 C1242 1.377 . S
C1229 C1228 1.524 . S
C1229 C1230 1.397 . S
C1229 C1234 1.363 . S
C1230 H1207 0.950 . S
C1230 C1229 1.397 . S
C1230 C1231 1.334 . S
C1231 H1208 0.950 . S
C1231 C1230 1.334 . S
C1231 C1232 1.287 . S
C1232 C1231 1.287 . S
C1232 C1233 1.524 . S
C1232 H1251 0.913 . S
C1233 H1209 0.950 . S
C1233 C1232 1.524 . S
C1233 C1234 1.415 . S
C1234 H1210 0.950 . S
C1234 C1229 1.363 . S
C1234 C1233 1.415 . S
C1235 H1211 0.951 . S
C1235 C1236 1.366 . S
C1235 C1237 1.388 . S
C1236 C1235 1.366 . S
C1236 C1240 1.385 . S
C1237 H1212 0.951 . S
C1237 C1235 1.388 . S
C1237 C1238 1.366 . S
C1238 C1237 1.366 . S
C1238 C1239 1.414 . S
C1238 C1241 1.499 . S
C1239 H1213 0.950 . S
C1239 C1238 1.414 . S
C1239 C1240 1.374 . S
C1240 H1214 0.950 . S
C1240 C1236 1.385 . S
C1240 C1239 1.374 . S
C1241 C1238 1.499 . S
C1241 C1242 1.373 . S
C1241 C1243 1.389 . S
C1242 H1215 0.950 . S
C1242 C1228 1.377 . S
C1242 C1241 1.373 . S
C1243 C1227 1.377 . S
C1243 C1241 1.389 . S
C1243 C1244 1.524 . S
C1244 C1243 1.524 . S
C1244 C1245 1.397 . S
C1244 C1249 1.363 . S
C1245 H1216 0.950 . S
C1245 C1244 1.397 . S
C1245 C1246 1.334 . S
C1246 H1217 0.950 . S
C1246 C1245 1.334 . S
C1246 C1247 1.287 . S
C1247 C1246 1.287 . S
C1247 C1248 1.524 . S
C1247 H1250 0.999 . S
C1248 H1218 0.950 . S
C1248 C1247 1.524 . S
C1248 C1249 1.415 . S
C1249 H1219 0.950 . S
C1249 C1244 1.363 . S
C1249 C1248 1.415 . S
H1250 C1247 0.999 . S
H1251 C1232 0.913 . S
H1252 C1270 0.951 . S
H1253 C1272 0.951 . S
H1254 C1274 0.950 . S
H1255 C1275 0.950 . S
H1256 C1277 0.950 . S
H1257 C1280 0.950 . S
H1258 C1281 0.950 . S
H1259 C1283 0.950 . S
H1260 C1284 0.950 . S
H1261 C1285 0.951 . S
H1262 C1287 0.951 . S
H1263 C1289 0.950 . S
H1264 C1290 0.950 . S
H1265 C1292 0.950 . S
H1266 C1295 0.950 . S
H1267 C1296 0.950 . S
H1268 C1298 0.950 . S
H1269 C1299 0.950 . S
C1270 H1252 0.951 . S
C1270 C1271 1.366 . S
C1270 C1272 1.388 . S
C1271 C1270 1.366 . S
C1271 C1275 1.385 . S
C1272 H1253 0.951 . S
C1272 C1270 1.388 . S
C1272 C1273 1.366 . S
C1273 C1272 1.366 . S
C1273 C1274 1.414 . S
C1273 C1276 1.499 . S
C1274 H1254 0.950 . S
C1274 C1273 1.414 . S
C1274 C1275 1.374 . S
C1275 H1255 0.950 . S
C1275 C1271 1.385 . S
C1275 C1274 1.374 . S
C1276 C1273 1.499 . S
C1276 C1277 1.373 . S
C1276 C1278 1.389 . S
C1277 H1256 0.950 . S
C1277 C1276 1.373 . S
C1277 C1293 1.377 . S
C1278 C1276 1.389 . S
C1278 C1279 1.524 . S
C1278 C1292 1.377 . S
C1279 C1278 1.524 . S
C1279 C1280 1.397 . S
C1279 C1284 1.363 . S
C1280 H1257 0.950 . S
C1280 C1279 1.397 . S
C1280 C1281 1.334 . S
C1281 H1258 0.950 . S
C1281 C1280 1.334 . S
C1281 C1282 1.287 . S
C1282 C1281 1.287 . S
C1282 C1283 1.524 . S
C1282 H1301 0.913 . S
C1283 H1259 0.950 . S
C1283 C1282 1.524 . S
C1283 C1284 1.415 . S
C1284 H1260 0.950 . S
C1284 C1279 1.363 . S
C1284 C1283 1.415 . S
C1285 H1261 0.951 . S
C1285 C1286 1.366 . S
C1285 C1287 1.388 . S
C1286 C1285 1.366 . S
C1286 C1290 1.385 . S
C1287 H1262 0.951 . S
C1287 C1285 1.388 . S
C1287 C1288 1.366 . S
C1288 C1287 1.366 . S
C1288 C1289 1.414 . S
C1288 C1291 1.499 . S
C1289 H1263 0.950 . S
C1289 C1288 1.414 . S
C1289 C1290 1.374 . S
C1290 H1264 0.950 . S
C1290 C1286 1.385 . S
C1290 C1289 1.374 . S
C1291 C1288 1.499 . S
C1291 C1292 1.373 . S
C1291 C1293 1.389 . S
C1292 H1265 0.950 . S
C1292 C1278 1.377 . S
C1292 C1291 1.373 . S
C1293 C1277 1.377 . S
C1293 C1291 1.389 . S
C1293 C1294 1.524 . S
C1294 C1293 1.524 . S
C1294 C1295 1.397 . S
C1294 C1299 1.363 . S
C1295 H1266 0.950 . S
C1295 C1294 1.397 . S
C1295 C1296 1.334 . S
C1296 H1267 0.950 . S
C1296 C1295 1.334 . S
C1296 C1297 1.287 . S
C1297 C1296 1.287 . S
C1297 C1298 1.524 . S
C1297 H1300 0.999 . S
C1298 H1268 0.950 . S
C1298 C1297 1.524 . S
C1298 C1299 1.415 . S
C1299 H1269 0.950 . S
C1299 C1294 1.363 . S
C1299 C1298 1.415 . S
H1300 C1297 0.999 . S
H1301 C1282 0.913 . S
H1302 C1320 0.951 . S
H1303 C1322 0.951 . S
H1304 C1324 0.950 . S
H1305 C1325 0.950 . S
H1306 C1327 0.950 . S
H1307 C1330 0.950 . S
H1308 C1331 0.950 . S
H1309 C1333 0.950 . S
H1310 C1334 0.950 . S
H1311 C1335 0.951 . S
H1312 C1337 0.951 . S
H1313 C1339 0.950 . S
H1314 C1340 0.950 . S
H1315 C1342 0.950 . S
H1316 C1345 0.950 . S
H1317 C1346 0.950 . S
H1318 C1348 0.950 . S
H1319 C1349 0.950 . S
C1320 H1302 0.951 . S
C1320 C1321 1.366 . S
C1320 C1322 1.388 . S
C1321 C1320 1.366 . S
C1321 C1325 1.385 . S
C1322 H1303 0.951 . S
C1322 C1320 1.388 . S
C1322 C1323 1.366 . S
C1323 C1322 1.366 . S
C1323 C1324 1.414 . S
C1323 C1326 1.499 . S
C1324 H1304 0.950 . S
C1324 C1323 1.414 . S
C1324 C1325 1.374 . S
C1325 H1305 0.950 . S
C1325 C1321 1.385 . S
C1325 C1324 1.374 . S
C1326 C1323 1.499 . S
C1326 C1327 1.373 . S
C1326 C1328 1.389 . S
C1327 H1306 0.950 . S
C1327 C1326 1.373 . S
C1327 C1343 1.377 . S
C1328 C1326 1.389 . S
C1328 C1329 1.524 . S
C1328 C1342 1.377 . S
C1329 C1328 1.524 . S
C1329 C1330 1.397 . S
C1329 C1334 1.363 . S
C1330 H1307 0.950 . S
C1330 C1329 1.397 . S
C1330 C1331 1.334 . S
C1331 H1308 0.950 . S
C1331 C1330 1.334 . S
C1331 C1332 1.287 . S
C1332 C1331 1.287 . S
C1332 C1333 1.524 . S
C1332 H1351 0.913 . S
C1333 H1309 0.950 . S
C1333 C1332 1.524 . S
C1333 C1334 1.415 . S
C1334 H1310 0.950 . S
C1334 C1329 1.363 . S
C1334 C1333 1.415 . S
C1335 H1311 0.951 . S
C1335 C1336 1.366 . S
C1335 C1337 1.388 . S
C1336 C1335 1.366 . S
C1336 C1340 1.385 . S
C1337 H1312 0.951 . S
C1337 C1335 1.388 . S
C1337 C1338 1.366 . S
C1338 C1337 1.366 . S
C1338 C1339 1.414 . S
C1338 C1341 1.499 . S
C1339 H1313 0.950 . S
C1339 C1338 1.414 . S
C1339 C1340 1.374 . S
C1340 H1314 0.950 . S
C1340 C1336 1.385 . S
C1340 C1339 1.374 . S
C1341 C1338 1.499 . S
C1341 C1342 1.373 . S
C1341 C1343 1.389 . S
C1342 H1315 0.950 . S
C1342 C1328 1.377 . S
C1342 C1341 1.373 . S
C1343 C1327 1.377 . S
C1343 C1341 1.389 . S
C1343 C1344 1.524 . S
C1344 C1343 1.524 . S
C1344 C1345 1.397 . S
C1344 C1349 1.363 . S
C1345 H1316 0.950 . S
C1345 C1344 1.397 . S
C1345 C1346 1.334 . S
C1346 H1317 0.950 . S
C1346 C1345 1.334 . S
C1346 C1347 1.287 . S
C1347 C1346 1.287 . S
C1347 C1348 1.524 . S
C1347 H1350 0.999 . S
C1348 H1318 0.950 . S
C1348 C1347 1.524 . S
C1348 C1349 1.415 . S
C1349 H1319 0.950 . S
C1349 C1344 1.363 . S
C1349 C1348 1.415 . S
H1350 C1347 0.999 . S
H1351 C1332 0.913 . S
H1352 C1370 0.951 . S
H1353 C1372 0.951 . S
H1354 C1374 0.950 . S
H1355 C1375 0.950 . S
H1356 C1377 0.950 . S
H1357 C1380 0.950 . S
H1358 C1381 0.950 . S
H1359 C1383 0.950 . S
H1360 C1384 0.950 . S
H1361 C1385 0.951 . S
H1362 C1387 0.951 . S
H1363 C1389 0.950 . S
H1364 C1390 0.950 . S
H1365 C1392 0.950 . S
H1366 C1395 0.950 . S
H1367 C1396 0.950 . S
H1368 C1398 0.950 . S
H1369 C1399 0.950 . S
C1370 H1352 0.951 . S
C1370 C1371 1.366 . S
C1370 C1372 1.388 . S
C1371 C1370 1.366 . S
C1371 C1375 1.385 . S
C1372 H1353 0.951 . S
C1372 C1370 1.388 . S
C1372 C1373 1.366 . S
C1373 C1372 1.366 . S
C1373 C1374 1.414 . S
C1373 C1376 1.499 . S
C1374 H1354 0.950 . S
C1374 C1373 1.414 . S
C1374 C1375 1.374 . S
C1375 H1355 0.950 . S
C1375 C1371 1.385 . S
C1375 C1374 1.374 . S
C1376 C1373 1.499 . S
C1376 C1377 1.373 . S
C1376 C1378 1.389 . S
C1377 H1356 0.950 . S
C1377 C1376 1.373 . S
C1377 C1393 1.377 . S
C1378 C1376 1.389 . S
C1378 C1379 1.524 . S
C1378 C1392 1.377 . S
C1379 C1378 1.524 . S
C1379 C1380 1.397 . S
C1379 C1384 1.363 . S
C1380 H1357 0.950 . S
C1380 C1379 1.397 . S
C1380 C1381 1.334 . S
C1381 H1358 0.950 . S
C1381 C1380 1.334 . S
C1381 C1382 1.287 . S
C1382 C1381 1.287 . S
C1382 C1383 1.524 . S
C1382 H1401 0.913 . S
C1383 H1359 0.950 . S
C1383 C1382 1.524 . S
C1383 C1384 1.415 . S
C1384 H1360 0.950 . S
C1384 C1379 1.363 . S
C1384 C1383 1.415 . S
C1385 H1361 0.951 . S
C1385 C1386 1.366 . S
C1385 C1387 1.388 . S
C1386 C1385 1.366 . S
C1386 C1390 1.385 . S
C1387 H1362 0.951 . S
C1387 C1385 1.388 . S
C1387 C1388 1.366 . S
C1388 C1387 1.366 . S
C1388 C1389 1.414 . S
C1388 C1391 1.499 . S
C1389 H1363 0.950 . S
C1389 C1388 1.414 . S
C1389 C1390 1.374 . S
C1390 H1364 0.950 . S
C1390 C1386 1.385 . S
C1390 C1389 1.374 . S
C1391 C1388 1.499 . S
C1391 C1392 1.373 . S
C1391 C1393 1.389 . S
C1392 H1365 0.950 . S
C1392 C1378 1.377 . S
C1392 C1391 1.373 . S
C1393 C1377 1.377 . S
C1393 C1391 1.389 . S
C1393 C1394 1.524 . S
C1394 C1393 1.524 . S
C1394 C1395 1.397 . S
C1394 C1399 1.363 . S
C1395 H1366 0.950 . S
C1395 C1394 1.397 . S
C1395 C1396 1.334 . S
C1396 H1367 0.950 . S
C1396 C1395 1.334 . S
C1396 C1397 1.287 . S
C1397 C1396 1.287 . S
C1397 C1398 1.524 . S
C1397 H1400 0.999 . S
C1398 H1368 0.950 . S
C1398 C1397 1.524 . S
C1398 C1399 1.415 . S
C1399 H1369 0.950 . S
C1399 C1394 1.363 . S
C1399 C1398 1.415 . S
H1400 C1397 0.999 . S
H1401 C1382 0.913 . S
H1402 C1420 0.951 . S
H1403 C1422 0.951 . S
H1404 C1424 0.950 . S
H1405 C1425 0.950 . S
H1406 C1427 0.950 . S
H1407 C1430 0.950 . S
H1408 C1431 0.950 . S
H1409 C1433 0.950 . S
H1410 C1434 0.950 . S
H1411 C1435 0.951 . S
H1412 C1437 0.951 . S
H1413 C1439 0.950 . S
H1414 C1440 0.950 . S
H1415 C1442 0.950 . S
H1416 C1445 0.950 . S
H1417 C1446 0.950 . S
H1418 C1448 0.950 . S
H1419 C1449 0.950 . S
C1420 H1402 0.951 . S
C1420 C1421 1.366 . S
C1420 C1422 1.388 . S
C1421 C1420 1.366 . S
C1421 C1425 1.385 . S
C1422 H1403 0.951 . S
C1422 C1420 1.388 . S
C1422 C1423 1.366 . S
C1423 C1422 1.366 . S
C1423 C1424 1.414 . S
C1423 C1426 1.499 . S
C1424 H1404 0.950 . S
C1424 C1423 1.414 . S
C1424 C1425 1.374 . S
C1425 H1405 0.950 . S
C1425 C1421 1.385 . S
C1425 C1424 1.374 . S
C1426 C1423 1.499 . S
C1426 C1427 1.373 . S
C1426 C1428 1.389 . S
C1427 H1406 0.950 . S
C1427 C1426 1.373 . S
C1427 C1443 1.377 . S
C1428 C1426 1.389 . S
C1428 C1429 1.524 . S
C1428 C1442 1.377 . S
C1429 C1428 1.524 . S
C1429 C1430 1.397 . S
C1429 C1434 1.363 . S
C1430 H1407 0.950 . S
C1430 C1429 1.397 . S
C1430 C1431 1.334 . S
C1431 H1408 0.950 . S
C1431 C1430 1.334 . S
C1431 C1432 1.287 . S
C1432 C1431 1.287 . S
C1432 C1433 1.524 . S
C1432 H1451 0.913 . S
C1433 H1409 0.950 . S
C1433 C1432 1.524 . S
C1433 C1434 1.415 . S
C1434 H1410 0.950 . S
C1434 C1429 1.363 . S
C1434 C1433 1.415 . S
C1435 H1411 0.951 . S
C1435 C1436 1.366 . S
C1435 C1437 1.388 . S
C1436 C1435 1.366 . S
C1436 C1440 1.385 . S
C1437 H1412 0.951 . S
C1437 C1435 1.388 . S
C1437 C1438 1.366 . S
C1438 C1437 1.366 . S
C1438 C1439 1.414 . S
C1438 C1441 1.499 . S
C1439 H1413 0.950 . S
C1439 C1438 1.414 . S
C1439 C1440 1.374 . S
C1440 H1414 0.950 . S
C1440 C1436 1.385 . S
C1440 C1439 1.374 . S
C1441 C1438 1.499 . S
C1441 C1442 1.373 . S
C1441 C1443 1.389 . S
C1442 H1415 0.950 . S
C1442 C1428 1.377 . S
C1442 C1441 1.373 . S
C1443 C1427 1.377 . S
C1443 C1441 1.389 . S
C1443 C1444 1.524 . S
C1444 C1443 1.524 . S
C1444 C1445 1.397 . S
C1444 C1449 1.363 . S
C1445 H1416 0.950 . S
C1445 C1444 1.397 . S
C1445 C1446 1.334 . S
C1446 H1417 0.950 . S
C1446 C1445 1.334 . S
C1446 C1447 1.287 . S
C1447 C1446 1.287 . S
C1447 C1448 1.524 . S
C1447 H1450 0.999 . S
C1448 H1418 0.950 . S
C1448 C1447 1.524 . S
C1448 C1449 1.415 . S
C1449 H1419 0.950 . S
C1449 C1444 1.363 . S
C1449 C1448 1.415 . S
H1450 C1447 0.999 . S
H1451 C1432 0.913 . S
H1452 C1470 0.951 . S
H1453 C1472 0.951 . S
H1454 C1474 0.950 . S
H1455 C1475 0.950 . S
H1456 C1477 0.950 . S
H1457 C1480 0.950 . S
H1458 C1481 0.950 . S
H1459 C1483 0.950 . S
H1460 C1484 0.950 . S
H1461 C1485 0.951 . S
H1462 C1487 0.951 . S
H1463 C1489 0.950 . S
H1464 C1490 0.950 . S
H1465 C1492 0.950 . S
H1466 C1495 0.950 . S
H1467 C1496 0.950 . S
H1468 C1498 0.950 . S
H1469 C1499 0.950 . S
C1470 H1452 0.951 . S
C1470 C1471 1.366 . S
C1470 C1472 1.388 . S
C1471 C1470 1.366 . S
C1471 C1475 1.385 . S
C1472 H1453 0.951 . S
C1472 C1470 1.388 . S
C1472 C1473 1.366 . S
C1473 C1472 1.366 . S
C1473 C1474 1.414 . S
C1473 C1476 1.499 . S
C1474 H1454 0.950 . S
C1474 C1473 1.414 . S
C1474 C1475 1.374 . S
C1475 H1455 0.950 . S
C1475 C1471 1.385 . S
C1475 C1474 1.374 . S
C1476 C1473 1.499 . S
C1476 C1477 1.373 . S
C1476 C1478 1.389 . S
C1477 H1456 0.950 . S
C1477 C1476 1.373 . S
C1477 C1493 1.377 . S
C1478 C1476 1.389 . S
C1478 C1479 1.524 . S
C1478 C1492 1.377 . S
C1479 C1478 1.524 . S
C1479 C1480 1.397 . S
C1479 C1484 1.363 . S
C1480 H1457 0.950 . S
C1480 C1479 1.397 . S
C1480 C1481 1.334 . S
C1481 H1458 0.950 . S
C1481 C1480 1.334 . S
C1481 C1482 1.287 . S
C1482 C1481 1.287 . S
C1482 C1483 1.524 . S
C1482 H1501 0.913 . S
C1483 H1459 0.950 . S
C1483 C1482 1.524 . S
C1483 C1484 1.415 . S
C1484 H1460 0.950 . S
C1484 C1479 1.363 . S
C1484 C1483 1.415 . S
C1485 H1461 0.951 . S
C1485 C1486 1.366 . S
C1485 C1487 1.388 . S
C1486 C1485 1.366 . S
C1486 C1490 1.385 . S
C1487 H1462 0.951 . S
C1487 C1485 1.388 . S
C1487 C1488 1.366 . S
C1488 C1487 1.366 . S
C1488 C1489 1.414 . S
C1488 C1491 1.499 . S
C1489 H1463 0.950 . S
C1489 C1488 1.414 . S
C1489 C1490 1.374 . S
C1490 H1464 0.950 . S
C1490 C1486 1.385 . S
C1490 C1489 1.374 . S
C1491 C1488 1.499 . S
C1491 C1492 1.373 . S
C1491 C1493 1.389 . S
C1492 H1465 0.950 . S
C1492 C1478 1.377 . S
C1492 C1491 1.373 . S
C1493 C1477 1.377 . S
C1493 C1491 1.389 . S
C1493 C1494 1.524 . S
C1494 C1493 1.524 . S
C1494 C1495 1.397 . S
C1494 C1499 1.363 . S
C1495 H1466 0.950 . S
C1495 C1494 1.397 . S
C1495 C1496 1.334 . S
C1496 H1467 0.950 . S
C1496 C1495 1.334 . S
C1496 C1497 1.287 . S
C1497 C1496 1.287 . S
C1497 C1498 1.524 . S
C1497 H1500 0.999 . S
C1498 H1468 0.950 . S
C1498 C1497 1.524 . S
C1498 C1499 1.415 . S
C1499 H1469 0.950 . S
C1499 C1494 1.363 . S
C1499 C1498 1.415 . S
H1500 C1497 0.999 . S
H1501 C1482 0.913 . S
H1502 C1520 0.951 . S
H1503 C1522 0.951 . S
H1504 C1524 0.950 . S
H1505 C1525 0.950 . S
H1506 C1527 0.950 . S
H1507 C1530 0.950 . S
H1508 C1531 0.950 . S
H1509 C1533 0.950 . S
H1510 C1534 0.950 . S
H1511 C1535 0.951 . S
H1512 C1537 0.951 . S
H1513 C1539 0.950 . S
H1514 C1540 0.950 . S
H1515 C1542 0.950 . S
H1516 C1545 0.950 . S
H1517 C1546 0.950 . S
H1518 C1548 0.950 . S
H1519 C1549 0.950 . S
C1520 H1502 0.951 . S
C1520 C1521 1.366 . S
C1520 C1522 1.388 . S
C1521 C1520 1.366 . S
C1521 C1525 1.385 . S
C1522 H1503 0.951 . S
C1522 C1520 1.388 . S
C1522 C1523 1.366 . S
C1523 C1522 1.366 . S
C1523 C1524 1.414 . S
C1523 C1526 1.499 . S
C1524 H1504 0.950 . S
C1524 C1523 1.414 . S
C1524 C1525 1.374 . S
C1525 H1505 0.950 . S
C1525 C1521 1.385 . S
C1525 C1524 1.374 . S
C1526 C1523 1.499 . S
C1526 C1527 1.373 . S
C1526 C1528 1.389 . S
C1527 H1506 0.950 . S
C1527 C1526 1.373 . S
C1527 C1543 1.377 . S
C1528 C1526 1.389 . S
C1528 C1529 1.524 . S
C1528 C1542 1.377 . S
C1529 C1528 1.524 . S
C1529 C1530 1.397 . S
C1529 C1534 1.363 . S
C1530 H1507 0.950 . S
C1530 C1529 1.397 . S
C1530 C1531 1.334 . S
C1531 H1508 0.950 . S
C1531 C1530 1.334 . S
C1531 C1532 1.287 . S
C1532 C1531 1.287 . S
C1532 C1533 1.524 . S
C1532 H1551 0.913 . S
C1533 H1509 0.950 . S
C1533 C1532 1.524 . S
C1533 C1534 1.415 . S
C1534 H1510 0.950 . S
C1534 C1529 1.363 . S
C1534 C1533 1.415 . S
C1535 H1511 0.951 . S
C1535 C1536 1.366 . S
C1535 C1537 1.388 . S
C1536 C1535 1.366 . S
C1536 C1540 1.385 . S
C1537 H1512 0.951 . S
C1537 C1535 1.388 . S
C1537 C1538 1.366 . S
C1538 C1537 1.366 . S
C1538 C1539 1.414 . S
C1538 C1541 1.499 . S
C1539 H1513 0.950 . S
C1539 C1538 1.414 . S
C1539 C1540 1.374 . S
C1540 H1514 0.950 . S
C1540 C1536 1.385 . S
C1540 C1539 1.374 . S
C1541 C1538 1.499 . S
C1541 C1542 1.373 . S
C1541 C1543 1.389 . S
C1542 H1515 0.950 . S
C1542 C1528 1.377 . S
C1542 C1541 1.373 . S
C1543 C1527 1.377 . S
C1543 C1541 1.389 . S
C1543 C1544 1.524 . S
C1544 C1543 1.524 . S
C1544 C1545 1.397 . S
C1544 C1549 1.363 . S
C1545 H1516 0.950 . S
C1545 C1544 1.397 . S
C1545 C1546 1.334 . S
C1546 H1517 0.950 . S
C1546 C1545 1.334 . S
C1546 C1547 1.287 . S
C1547 C1546 1.287 . S
C1547 C1548 1.524 . S
C1547 H1550 0.999 . S
C1548 H1518 0.950 . S
C1548 C1547 1.524 . S
C1548 C1549 1.415 . S
C1549 H1519 0.950 . S
C1549 C1544 1.363 . S
C1549 C1548 1.415 . S
H1550 C1547 0.999 . S
H1551 C1532 0.913 . S
H1552 C1570 0.951 . S
H1553 C1572 0.951 . S
H1554 C1574 0.950 . S
H1555 C1575 0.950 . S
H1556 C1577 0.950 . S
H1557 C1580 0.950 . S
H1558 C1581 0.950 . S
H1559 C1583 0.950 . S
H1560 C1584 0.950 . S
H1561 C1585 0.951 . S
H1562 C1587 0.951 . S
H1563 C1589 0.950 . S
H1564 C1590 0.950 . S
H1565 C1592 0.950 . S
H1566 C1595 0.950 . S
H1567 C1596 0.950 . S
H1568 C1598 0.950 . S
H1569 C1599 0.950 . S
C1570 H1552 0.951 . S
C1570 C1571 1.366 . S
C1570 C1572 1.388 . S
C1571 C1570 1.366 . S
C1571 C1575 1.385 . S
C1572 H1553 0.951 . S
C1572 C1570 1.388 . S
C1572 C1573 1.366 . S
C1573 C1572 1.366 . S
C1573 C1574 1.414 . S
C1573 C1576 1.499 . S
C1574 H1554 0.950 . S
C1574 C1573 1.414 . S
C1574 C1575 1.374 . S
C1575 H1555 0.950 . S
C1575 C1571 1.385 . S
C1575 C1574 1.374 . S
C1576 C1573 1.499 . S
C1576 C1577 1.373 . S
C1576 C1578 1.389 . S
C1577 H1556 0.950 . S
C1577 C1576 1.373 . S
C1577 C1593 1.377 . S
C1578 C1576 1.389 . S
C1578 C1579 1.524 . S
C1578 C1592 1.377 . S
C1579 C1578 1.524 . S
C1579 C1580 1.397 . S
C1579 C1584 1.363 . S
C1580 H1557 0.950 . S
C1580 C1579 1.397 . S
C1580 C1581 1.334 . S
C1581 H1558 0.950 . S
C1581 C1580 1.334 . S
C1581 C1582 1.287 . S
C1582 C1581 1.287 . S
C1582 C1583 1.524 . S
C1582 H1601 0.913 . S
C1583 H1559 0.950 . S
C1583 C1582 1.524 . S
C1583 C1584 1.415 . S
C1584 H1560 0.950 . S
C1584 C1579 1.363 . S
C1584 C1583 1.415 . S
C1585 H1561 0.951 . S
C1585 C1586 1.366 . S
C1585 C1587 1.388 . S
C1586 C1585 1.366 . S
C1586 C1590 1.385 . S
C1587 H1562 0.951 . S
C1587 C1585 1.388 . S
C1587 C1588 1.366 . S
C1588 C1587 1.366 . S
C1588 C1589 1.414 . S
C1588 C1591 1.499 . S
C1589 H1563 0.950 . S
C1589 C1588 1.414 . S
C1589 C1590 1.374 . S
C1590 H1564 0.950 . S
C1590 C1586 1.385 . S
C1590 C1589 1.374 . S
C1591 C1588 1.499 . S
C1591 C1592 1.373 . S
C1591 C1593 1.389 . S
C1592 H1565 0.950 . S
C1592 C1578 1.377 . S
C1592 C1591 1.373 . S
C1593 C1577 1.377 . S
C1593 C1591 1.389 . S
C1593 C1594 1.524 . S
C1594 C1593 1.524 . S
C1594 C1595 1.397 . S
C1594 C1599 1.363 . S
C1595 H1566 0.950 . S
C1595 C1594 1.397 . S
C1595 C1596 1.334 . S
C1596 H1567 0.950 . S
C1596 C1595 1.334 . S
C1596 C1597 1.287 . S
C1597 C1596 1.287 . S
C1597 C1598 1.524 . S
C1597 H1600 0.999 . S
C1598 H1568 0.950 . S
C1598 C1597 1.524 . S
C1598 C1599 1.415 . S
C1599 H1569 0.950 . S
C1599 C1594 1.363 . S
C1599 C1598 1.415 . S
H1600 C1597 0.999 . S
H1601 C1582 0.913 . S
H1602 C1620 0.951 . S
H1603 C1622 0.951 . S
H1604 C1624 0.950 . S
H1605 C1625 0.950 . S
H1606 C1627 0.950 . S
H1607 C1630 0.950 . S
H1608 C1631 0.950 . S
H1609 C1633 0.950 . S
H1610 C1634 0.950 . S
H1611 C1635 0.951 . S
H1612 C1637 0.951 . S
H1613 C1639 0.950 . S
H1614 C1640 0.950 . S
H1615 C1642 0.950 . S
H1616 C1645 0.950 . S
H1617 C1646 0.950 . S
H1618 C1648 0.950 . S
H1619 C1649 0.950 . S
C1620 H1602 0.951 . S
C1620 C1621 1.366 . S
C1620 C1622 1.388 . S
C1621 C1620 1.366 . S
C1621 C1625 1.385 . S
C1622 H1603 0.951 . S
C1622 C1620 1.388 . S
C1622 C1623 1.366 . S
C1623 C1622 1.366 . S
C1623 C1624 1.414 . S
C1623 C1626 1.499 . S
C1624 H1604 0.950 . S
C1624 C1623 1.414 . S
C1624 C1625 1.374 . S
C1625 H1605 0.950 . S
C1625 C1621 1.385 . S
C1625 C1624 1.374 . S
C1626 C1623 1.499 . S
C1626 C1627 1.373 . S
C1626 C1628 1.389 . S
C1627 H1606 0.950 . S
C1627 C1626 1.373 . S
C1627 C1643 1.377 . S
C1628 C1626 1.389 . S
C1628 C1629 1.524 . S
C1628 C1642 1.377 . S
C1629 C1628 1.524 . S
C1629 C1630 1.397 . S
C1629 C1634 1.363 . S
C1630 H1607 0.950 . S
C1630 C1629 1.397 . S
C1630 C1631 1.334 . S
C1631 H1608 0.950 . S
C1631 C1630 1.334 . S
C1631 C1632 1.287 . S
C1632 C1631 1.287 . S
C1632 C1633 1.524 . S
C1632 H1651 0.913 . S
C1633 H1609 0.950 . S
C1633 C1632 1.524 . S
C1633 C1634 1.415 . S
C1634 H1610 0.950 . S
C1634 C1629 1.363 . S
C1634 C1633 1.415 . S
C1635 H1611 0.951 . S
C1635 C1636 1.366 . S
C1635 C1637 1.388 . S
C1636 C1635 1.366 . S
C1636 C1640 1.385 . S
C1637 H1612 0.951 . S
C1637 C1635 1.388 . S
C1637 C1638 1.366 . S
C1638 C1637 1.366 . S
C1638 C1639 1.414 . S
C1638 C1641 1.499 . S
C1639 H1613 0.950 . S
C1639 C1638 1.414 . S
C1639 C1640 1.374 . S
C1640 H1614 0.950 . S
C1640 C1636 1.385 . S
C1640 C1639 1.374 . S
C1641 C1638 1.499 . S
C1641 C1642 1.373 . S
C1641 C1643 1.389 . S
C1642 H1615 0.950 . S
C1642 C1628 1.377 . S
C1642 C1641 1.373 . S
C1643 C1627 1.377 . S
C1643 C1641 1.389 . S
C1643 C1644 1.524 . S
C1644 C1643 1.524 . S
C1644 C1645 1.397 . S
C1644 C1649 1.363 . S
C1645 H1616 0.950 . S
C1645 C1644 1.397 . S
C1645 C1646 1.334 . S
C1646 H1617 0.950 . S
C1646 C1645 1.334 . S
C1646 C1647 1.287 . S
C1647 C1646 1.287 . S
C1647 C1648 1.524 . S
C1647 H1650 0.999 . S
C1648 H1618 0.950 . S
C1648 C1647 1.524 . S
C1648 C1649 1.415 . S
C1649 H1619 0.950 . S
C1649 C1644 1.363 . S
C1649 C1648 1.415 . S
H1650 C1647 0.999 . S
H1651 C1632 0.913 . S
H1652 C1670 0.951 . S
H1653 C1672 0.951 . S
H1654 C1674 0.950 . S
H1655 C1675 0.950 . S
H1656 C1677 0.950 . S
H1657 C1680 0.950 . S
H1658 C1681 0.950 . S
H1659 C1683 0.950 . S
H1660 C1684 0.950 . S
H1661 C1685 0.951 . S
H1662 C1687 0.951 . S
H1663 C1689 0.950 . S
H1664 C1690 0.950 . S
H1665 C1692 0.950 . S
H1666 C1695 0.950 . S
H1667 C1696 0.950 . S
H1668 C1698 0.950 . S
H1669 C1699 0.950 . S
C1670 H1652 0.951 . S
C1670 C1671 1.366 . S
C1670 C1672 1.388 . S
C1671 C1670 1.366 . S
C1671 C1675 1.385 . S
C1672 H1653 0.951 . S
C1672 C1670 1.388 . S
C1672 C1673 1.366 . S
C1673 C1672 1.366 . S
C1673 C1674 1.414 . S
C1673 C1676 1.499 . S
C1674 H1654 0.950 . S
C1674 C1673 1.414 . S
C1674 C1675 1.374 . S
C1675 H1655 0.950 . S
C1675 C1671 1.385 . S
C1675 C1674 1.374 . S
C1676 C1673 1.499 . S
C1676 C1677 1.373 . S
C1676 C1678 1.389 . S
C1677 H1656 0.950 . S
C1677 C1676 1.373 . S
C1677 C1693 1.377 . S
C1678 C1676 1.389 . S
C1678 C1679 1.524 . S
C1678 C1692 1.377 . S
C1679 C1678 1.524 . S
C1679 C1680 1.397 . S
C1679 C1684 1.363 . S
C1680 H1657 0.950 . S
C1680 C1679 1.397 . S
C1680 C1681 1.334 . S
C1681 H1658 0.950 . S
C1681 C1680 1.334 . S
C1681 C1682 1.287 . S
C1682 C1681 1.287 . S
C1682 C1683 1.524 . S
C1682 H1701 0.913 . S
C1683 H1659 0.950 . S
C1683 C1682 1.524 . S
C1683 C1684 1.415 . S
C1684 H1660 0.950 . S
C1684 C1679 1.363 . S
C1684 C1683 1.415 . S
C1685 H1661 0.951 . S
C1685 C1686 1.366 . S
C1685 C1687 1.388 . S
C1686 C1685 1.366 . S
C1686 C1690 1.385 . S
C1687 H1662 0.951 . S
C1687 C1685 1.388 . S
C1687 C1688 1.366 . S
C1688 C1687 1.366 . S
C1688 C1689 1.414 . S
C1688 C1691 1.499 . S
C1689 H1663 0.950 . S
C1689 C1688 1.414 . S
C1689 C1690 1.374 . S
C1690 H1664 0.950 . S
C1690 C1686 1.385 . S
C1690 C1689 1.374 . S
C1691 C1688 1.499 . S
C1691 C1692 1.373 . S
C1691 C1693 1.389 . S
C1692 H1665 0.950 . S
C1692 C1678 1.377 . S
C1692 C1691 1.373 . S
C1693 C1677 1.377 . S
C1693 C1691 1.389 . S
C1693 C1694 1.524 . S
C1694 C1693 1.524 . S
C1694 C1695 1.397 . S
C1694 C1699 1.363 . S
C1695 H1666 0.950 . S
C1695 C1694 1.397 . S
C1695 C1696 1.334 . S
C1696 H1667 0.950 . S
C1696 C1695 1.334 . S
C1696 C1697 1.287 . S
C1697 C1696 1.287 . S
C1697 C1698 1.524 . S
C1697 H1700 0.999 . S
C1698 H1668 0.950 . S
C1698 C1697 1.524 . S
C1698 C1699 1.415 . S
C1699 H1669 0.950 . S
C1699 C1694 1.363 . S
C1699 C1698 1.415 . S
H1700 C1697 0.999 . S
H1701 C1682 0.913 . S
H1702 C1720 0.951 . S
H1703 C1722 0.951 . S
H1704 C1724 0.950 . S
H1705 C1725 0.950 . S
H1706 C1727 0.950 . S
H1707 C1730 0.950 . S
H1708 C1731 0.950 . S
H1709 C1733 0.950 . S
H1710 C1734 0.950 . S
H1711 C1735 0.951 . S
H1712 C1737 0.951 . S
H1713 C1739 0.950 . S
H1714 C1740 0.950 . S
H1715 C1742 0.950 . S
H1716 C1745 0.950 . S
H1717 C1746 0.950 . S
H1718 C1748 0.950 . S
H1719 C1749 0.950 . S
C1720 H1702 0.951 . S
C1720 C1721 1.366 . S
C1720 C1722 1.388 . S
C1721 C1720 1.366 . S
C1721 C1725 1.385 . S
C1722 H1703 0.951 . S
C1722 C1720 1.388 . S
C1722 C1723 1.366 . S
C1723 C1722 1.366 . S
C1723 C1724 1.414 . S
C1723 C1726 1.499 . S
C1724 H1704 0.950 . S
C1724 C1723 1.414 . S
C1724 C1725 1.374 . S
C1725 H1705 0.950 . S
C1725 C1721 1.385 . S
C1725 C1724 1.374 . S
C1726 C1723 1.499 . S
C1726 C1727 1.373 . S
C1726 C1728 1.389 . S
C1727 H1706 0.950 . S
C1727 C1726 1.373 . S
C1727 C1743 1.377 . S
C1728 C1726 1.389 . S
C1728 C1729 1.524 . S
C1728 C1742 1.377 . S
C1729 C1728 1.524 . S
C1729 C1730 1.397 . S
C1729 C1734 1.363 . S
C1730 H1707 0.950 . S
C1730 C1729 1.397 . S
C1730 C1731 1.334 . S
C1731 H1708 0.950 . S
C1731 C1730 1.334 . S
C1731 C1732 1.287 . S
C1732 C1731 1.287 . S
C1732 C1733 1.524 . S
C1732 H1751 0.913 . S
C1733 H1709 0.950 . S
C1733 C1732 1.524 . S
C1733 C1734 1.415 . S
C1734 H1710 0.950 . S
C1734 C1729 1.363 . S
C1734 C1733 1.415 . S
C1735 H1711 0.951 . S
C1735 C1736 1.366 . S
C1735 C1737 1.388 . S
C1736 C1735 1.366 . S
C1736 C1740 1.385 . S
C1737 H1712 0.951 . S
C1737 C1735 1.388 . S
C1737 C1738 1.366 . S
C1738 C1737 1.366 . S
C1738 C1739 1.414 . S
C1738 C1741 1.499 . S
C1739 H1713 0.950 . S
C1739 C1738 1.414 . S
C1739 C1740 1.374 . S
C1740 H1714 0.950 . S
C1740 C1736 1.385 . S
C1740 C1739 1.374 . S
C1741 C1738 1.499 . S
C1741 C1742 1.373 . S
C1741 C1743 1.389 . S
C1742 H1715 0.950 . S
C1742 C1728 1.377 . S
C1742 C1741 1.373 . S
C1743 C1727 1.377 . S
C1743 C1741 1.389 . S
C1743 C1744 1.524 . S
C1744 C1743 1.524 . S
C1744 C1745 1.397 . S
C1744 C1749 1.363 . S
C1745 H1716 0.950 . S
C1745 C1744 1.397 . S
C1745 C1746 1.334 . S
C1746 H1717 0.950 . S
C1746 C1745 1.334 . S
C1746 C1747 1.287 . S
C1747 C1746 1.287 . S
C1747 C1748 1.524 . S
C1747 H1750 0.999 . S
C1748 H1718 0.950 . S
C1748 C1747 1.524 . S
C1748 C1749 1.415 . S
C1749 H1719 0.950 . S
C1749 C1744 1.363 . S
C1749 C1748 1.415 . S
H1750 C1747 0.999 . S
H1751 C1732 0.913 . S
H1752 C1770 0.951 . S
H1753 C1772 0.951 . S
H1754 C1774 0.950 . S
H1755 C1775 0.950 . S
H1756 C1777 0.950 . S
H1757 C1780 0.950 . S
H1758 C1781 0.950 . S
H1759 C1783 0.950 . S
H1760 C1784 0.950 . S
H1761 C1785 0.951 . S
H1762 C1787 0.951 . S
H1763 C1789 0.950 . S
H1764 C1790 0.950 . S
H1765 C1792 0.950 . S
H1766 C1795 0.950 . S
H1767 C1796 0.950 . S
H1768 C1798 0.950 . S
H1769 C1799 0.950 . S
C1770 H1752 0.951 . S
C1770 C1771 1.366 . S
C1770 C1772 1.388 . S
C1771 C1770 1.366 . S
C1771 C1775 1.385 . S
C1772 H1753 0.951 . S
C1772 C1770 1.388 . S
C1772 C1773 1.366 . S
C1773 C1772 1.366 . S
C1773 C1774 1.414 . S
C1773 C1776 1.499 . S
C1774 H1754 0.950 . S
C1774 C1773 1.414 . S
C1774 C1775 1.374 . S
C1775 H1755 0.950 . S
C1775 C1771 1.385 . S
C1775 C1774 1.374 . S
C1776 C1773 1.499 . S
C1776 C1777 1.373 . S
C1776 C1778 1.389 . S
C1777 H1756 0.950 . S
C1777 C1776 1.373 . S
C1777 C1793 1.377 . S
C1778 C1776 1.389 . S
C1778 C1779 1.524 . S
C1778 C1792 1.377 . S
C1779 C1778 1.524 . S
C1779 C1780 1.397 . S
C1779 C1784 1.363 . S
C1780 H1757 0.950 . S
C1780 C1779 1.397 . S
C1780 C1781 1.334 . S
C1781 H1758 0.950 . S
C1781 C1780 1.334 . S
C1781 C1782 1.287 . S
C1782 C1781 1.287 . S
C1782 C1783 1.524 . S
C1782 H1801 0.913 . S
C1783 H1759 0.950 . S
C1783 C1782 1.524 . S
C1783 C1784 1.415 . S
C1784 H1760 0.950 . S
C1784 C1779 1.363 . S
C1784 C1783 1.415 . S
C1785 H1761 0.951 . S
C1785 C1786 1.366 . S
C1785 C1787 1.388 . S
C1786 C1785 1.366 . S
C1786 C1790 1.385 . S
C1787 H1762 0.951 . S
C1787 C1785 1.388 . S
C1787 C1788 1.366 . S
C1788 C1787 1.366 . S
C1788 C1789 1.414 . S
C1788 C1791 1.499 . S
C1789 H1763 0.950 . S
C1789 C1788 1.414 . S
C1789 C1790 1.374 . S
C1790 H1764 0.950 . S
C1790 C1786 1.385 . S
C1790 C1789 1.374 . S
C1791 C1788 1.499 . S
C1791 C1792 1.373 . S
C1791 C1793 1.389 . S
C1792 H1765 0.950 . S
C1792 C1778 1.377 . S
C1792 C1791 1.373 . S
C1793 C1777 1.377 . S
C1793 C1791 1.389 . S
C1793 C1794 1.524 . S
C1794 C1793 1.524 . S
C1794 C1795 1.397 . S
C1794 C1799 1.363 . S
C1795 H1766 0.950 . S
C1795 C1794 1.397 . S
C1795 C1796 1.334 . S
C1796 H1767 0.950 . S
C1796 C1795 1.334 . S
C1796 C1797 1.287 . S
C1797 C1796 1.287 . S
C1797 C1798 1.524 . S
C1797 H1800 0.999 . S
C1798 H1768 0.950 . S
C1798 C1797 1.524 . S
C1798 C1799 1.415 . S
C1799 H1769 0.950 . S
C1799 C1794 1.363 . S
C1799 C1798 1.415 . S
H1800 C1797 0.999 . S
H1801 C1782 0.913 . S
H1802 C1820 0.951 . S
H1803 C1822 0.951 . S
H1804 C1824 0.950 . S
H1805 C1825 0.950 . S
H1806 C1827 0.950 . S
H1807 C1830 0.950 . S
H1808 C1831 0.950 . S
H1809 C1833 0.950 . S
H1810 C1834 0.950 . S
H1811 C1835 0.951 . S
H1812 C1837 0.951 . S
H1813 C1839 0.950 . S
H1814 C1840 0.950 . S
H1815 C1842 0.950 . S
H1816 C1845 0.950 . S
H1817 C1846 0.950 . S
H1818 C1848 0.950 . S
H1819 C1849 0.950 . S
C1820 H1802 0.951 . S
C1820 C1821 1.366 . S
C1820 C1822 1.388 . S
C1821 C1820 1.366 . S
C1821 C1825 1.385 . S
C1822 H1803 0.951 . S
C1822 C1820 1.388 . S
C1822 C1823 1.366 . S
C1823 C1822 1.366 . S
C1823 C1824 1.414 . S
C1823 C1826 1.499 . S
C1824 H1804 0.950 . S
C1824 C1823 1.414 . S
C1824 C1825 1.374 . S
C1825 H1805 0.950 . S
C1825 C1821 1.385 . S
C1825 C1824 1.374 . S
C1826 C1823 1.499 . S
C1826 C1827 1.373 . S
C1826 C1828 1.389 . S
C1827 H1806 0.950 . S
C1827 C1826 1.373 . S
C1827 C1843 1.377 . S
C1828 C1826 1.389 . S
C1828 C1829 1.524 . S
C1828 C1842 1.377 1_545 S
C1829 C1828 1.524 . S
C1829 C1830 1.397 . S
C1829 C1834 1.363 . S
C1830 H1807 0.950 . S
C1830 C1829 1.397 . S
C1830 C1831 1.334 . S
C1831 H1808 0.950 . S
C1831 C1830 1.334 . S
C1831 C1832 1.287 . S
C1832 C1831 1.287 . S
C1832 C1833 1.524 . S
C1832 H1851 0.913 . S
C1833 H1809 0.950 . S
C1833 C1832 1.524 . S
C1833 C1834 1.415 . S
C1834 H1810 0.950 . S
C1834 C1829 1.363 . S
C1834 C1833 1.415 . S
C1835 H1811 0.951 . S
C1835 C1836 1.366 . S
C1835 C1837 1.388 . S
C1836 C1835 1.366 . S
C1836 C1840 1.385 . S
C1837 H1812 0.951 . S
C1837 C1835 1.388 . S
C1837 C1838 1.366 . S
C1838 C1837 1.366 . S
C1838 C1839 1.414 . S
C1838 C1841 1.499 . S
C1839 H1813 0.950 . S
C1839 C1838 1.414 . S
C1839 C1840 1.374 . S
C1840 H1814 0.950 . S
C1840 C1836 1.385 . S
C1840 C1839 1.374 . S
C1841 C1838 1.499 . S
C1841 C1842 1.373 . S
C1841 C1843 1.389 1_565 S
C1842 H1815 0.950 . S
C1842 C1828 1.377 1_565 S
C1842 C1841 1.373 . S
C1843 C1827 1.377 . S
C1843 C1841 1.389 1_545 S
C1843 C1844 1.531 . S
C1844 C1843 1.531 . S
C1844 C1845 1.426 . S
C1844 C1849 1.333 1_545 S
C1845 H1816 0.950 . S
C1845 C1844 1.426 . S
C1845 C1846 1.334 . S
C1846 H1817 0.950 . S
C1846 C1845 1.334 . S
C1846 C1847 1.287 . S
C1847 C1846 1.287 . S
C1847 C1848 1.524 1_545 S
C1847 H1850 1.000 . S
C1848 H1818 0.950 . S
C1848 C1847 1.524 1_565 S
C1848 C1849 1.415 . S
C1849 H1819 0.950 . S
C1849 C1844 1.333 1_565 S
C1849 C1848 1.415 . S
H1850 C1847 1.000 . S
H1851 C1832 0.913 . S
H1852 C1870 0.951 . S
H1853 C1872 0.951 . S
H1854 C1874 0.950 . S
H1855 C1875 0.950 . S
H1856 C1877 0.950 . S
H1857 C1880 0.950 . S
H1858 C1881 0.950 . S
H1859 C1883 0.950 . S
H1860 C1884 0.950 . S
H1861 C1885 0.951 . S
H1862 C1887 0.951 . S
H1863 C1889 0.950 1_455 S
H1864 C1890 0.950 . S
H1865 C1892 0.950 . S
H1866 C1895 0.950 1_455 S
H1867 C1896 0.950 . S
H1868 C1898 0.950 . S
H1869 C1899 0.950 . S
C1870 H1852 0.951 . S
C1870 C1871 1.366 . S
C1870 C1872 1.388 . S
C1871 C1870 1.366 . S
C1871 C1875 1.385 . S
C1872 H1853 0.951 . S
C1872 C1870 1.388 . S
C1872 C1873 1.366 . S
C1873 C1872 1.366 . S
C1873 C1874 1.414 . S
C1873 C1876 1.499 . S
C1874 H1854 0.950 . S
C1874 C1873 1.414 . S
C1874 C1875 1.374 . S
C1875 H1855 0.950 . S
C1875 C1871 1.385 . S
C1875 C1874 1.374 . S
C1876 C1873 1.499 . S
C1876 C1877 1.373 . S
C1876 C1878 1.389 . S
C1877 H1856 0.950 . S
C1877 C1876 1.373 . S
C1877 C1893 1.377 . S
C1878 C1876 1.389 . S
C1878 C1879 1.524 . S
C1878 C1892 1.377 . S
C1879 C1878 1.524 . S
C1879 C1880 1.397 . S
C1879 C1884 1.363 . S
C1880 H1857 0.950 . S
C1880 C1879 1.397 . S
C1880 C1881 1.334 . S
C1881 H1858 0.950 . S
C1881 C1880 1.334 . S
C1881 C1882 1.287 . S
C1882 C1881 1.287 . S
C1882 C1883 1.524 . S
C1882 H1901 0.913 . S
C1883 H1859 0.950 . S
C1883 C1882 1.524 . S
C1883 C1884 1.415 . S
C1884 H1860 0.950 . S
C1884 C1879 1.363 . S
C1884 C1883 1.415 . S
C1885 H1861 0.951 . S
C1885 C1886 1.366 . S
C1885 C1887 1.388 . S
C1886 C1885 1.366 . S
C1886 C1890 1.385 . S
C1887 H1862 0.951 . S
C1887 C1885 1.388 . S
C1887 C1888 1.366 . S
C1888 C1887 1.366 . S
C1888 C1889 1.414 . S
C1888 C1891 1.499 . S
C1889 H1863 0.950 1_655 S
C1889 C1888 1.414 . S
C1889 C1890 1.374 . S
C1890 H1864 0.950 . S
C1890 C1886 1.385 . S
C1890 C1889 1.374 . S
C1891 C1888 1.499 . S
C1891 C1892 1.373 1_655 S
C1891 C1893 1.389 1_655 S
C1892 H1865 0.950 . S
C1892 C1878 1.377 . S
C1892 C1891 1.373 1_455 S
C1893 C1877 1.377 . S
C1893 C1891 1.389 1_455 S
C1893 C1894 1.524 1_455 S
C1894 C1893 1.524 1_655 S
C1894 C1895 1.397 . S
C1894 C1899 1.363 . S
C1895 H1866 0.950 1_655 S
C1895 C1894 1.397 . S
C1895 C1896 1.334 . S
C1896 H1867 0.950 . S
C1896 C1895 1.334 . S
C1896 C1897 1.287 . S
C1897 C1896 1.287 . S
C1897 C1898 1.524 . S
C1897 H1900 0.999 . S
C1898 H1868 0.950 . S
C1898 C1897 1.524 . S
C1898 C1899 1.415 . S
C1899 H1869 0.950 . S
C1899 C1894 1.363 . S
C1899 C1898 1.415 . S
H1900 C1897 0.999 . S
H1901 C1882 0.913 . S
H1902 C1920 0.951 . S
H1903 C1922 0.951 . S
H1904 C1924 0.950 1_554 S
H1905 C1925 0.950 . S
H1906 C1927 0.950 . S
H1907 C1930 0.950 1_554 S
H1908 C1931 0.949 1_554 S
H1909 C1933 0.950 . S
H1910 C1934 0.950 . S
H1911 C1935 0.951 . S
H1912 C1937 0.951 . S
H1913 C1939 0.950 1_556 S
H1914 C1940 0.950 . S
H1915 C1942 0.950 . S
H1916 C1945 0.950 1_556 S
H1917 C1946 0.951 1_556 S
H1918 C1948 0.950 . S
H1919 C1949 0.950 . S
C1920 H1902 0.951 . S
C1920 C1921 1.366 . S
C1920 C1922 1.388 . S
C1921 C1920 1.366 . S
C1921 C1925 1.385 . S
C1922 H1903 0.951 . S
C1922 C1920 1.388 . S
C1922 C1923 1.366 . S
C1923 C1922 1.366 . S
C1923 C1924 1.414 . S
C1923 C1926 1.499 . S
C1924 H1904 0.950 1_556 S
C1924 C1923 1.414 . S
C1924 C1925 1.374 . S
C1925 H1905 0.950 . S
C1925 C1921 1.385 . S
C1925 C1924 1.374 . S
C1926 C1923 1.499 . S
C1926 C1927 1.373 . S
C1926 C1928 1.389 . S
C1927 H1906 0.950 . S
C1927 C1926 1.373 . S
C1927 C1943 1.377 1_556 S
C1928 C1926 1.389 . S
C1928 C1929 1.524 . S
C1928 C1942 1.377 1_556 S
C1929 C1928 1.524 . S
C1929 C1930 1.397 . S
C1929 C1934 1.363 . S
C1930 H1907 0.950 1_556 S
C1930 C1929 1.397 . S
C1930 C1931 1.334 . S
C1931 H1908 0.949 1_556 S
C1931 C1930 1.334 . S
C1931 C1932 1.287 . S
C1932 C1931 1.287 . S
C1932 C1933 1.524 . S
C1932 H1951 0.913 . S
C1933 H1909 0.950 . S
C1933 C1932 1.524 . S
C1933 C1934 1.415 . S
C1934 H1910 0.950 . S
C1934 C1929 1.363 . S
C1934 C1933 1.415 . S
C1935 H1911 0.951 . S
C1935 C1936 1.366 . S
C1935 C1937 1.388 . S
C1936 C1935 1.366 . S
C1936 C1940 1.385 . S
C1937 H1912 0.951 . S
C1937 C1935 1.388 . S
C1937 C1938 1.366 . S
C1938 C1937 1.366 . S
C1938 C1939 1.414 . S
C1938 C1941 1.499 . S
C1939 H1913 0.950 1_554 S
C1939 C1938 1.414 . S
C1939 C1940 1.374 . S
C1940 H1914 0.950 . S
C1940 C1936 1.385 . S
C1940 C1939 1.374 . S
C1941 C1938 1.499 . S
C1941 C1942 1.373 . S
C1941 C1943 1.389 . S
C1942 H1915 0.950 . S
C1942 C1928 1.377 1_554 S
C1942 C1941 1.373 . S
C1943 C1927 1.377 1_554 S
C1943 C1941 1.389 . S
C1943 C1944 1.524 . S
C1944 C1943 1.524 . S
C1944 C1945 1.397 . S
C1944 C1949 1.363 . S
C1945 H1916 0.950 1_554 S
C1945 C1944 1.397 . S
C1945 C1946 1.334 . S
C1946 H1917 0.951 1_554 S
C1946 C1945 1.334 . S
C1946 C1947 1.287 . S
C1947 C1946 1.287 . S
C1947 C1948 1.524 . S
C1947 H1950 0.999 . S
C1948 H1918 0.950 . S
C1948 C1947 1.524 . S
C1948 C1949 1.415 . S
C1949 H1919 0.950 . S
C1949 C1944 1.363 . S
C1949 C1948 1.415 . S
H1950 C1947 0.999 . S
H1951 C1932 0.913 . S
H1952 C1970 0.951 . S
H1953 C1972 0.977 . S
H1954 C1974 0.950 . S
H1955 C1975 0.950 . S
H1956 C1977 0.950 . S
H1957 C1980 0.950 . S
H1958 C1981 0.950 . S
H1959 C1983 0.950 . S
H1960 C1984 0.950 . S
H1961 C1985 0.951 . S
H1962 C1987 0.951 . S
H1963 C1989 0.950 . S
H1964 C1990 0.950 . S
H1965 C1992 0.950 . S
H1966 C1995 0.950 . S
H1967 C1996 0.950 . S
H1968 C1998 0.950 . S
H1969 C1999 0.950 . S
C1970 H1952 0.951 . S
C1970 C1971 1.366 . S
C1970 C1972 1.388 . S
C1971 C1970 1.366 . S
C1971 C1975 1.385 . S
C1972 H1953 0.977 . S
C1972 C1970 1.388 . S
C1972 C1973 1.366 . S
C1973 C1972 1.366 . S
C1973 C1974 1.414 . S
C1973 C1976 1.499 . S
C1974 H1954 0.950 . S
C1974 C1973 1.414 . S
C1974 C1975 1.374 . S
C1975 H1955 0.950 . S
C1975 C1971 1.385 . S
C1975 C1974 1.374 . S
C1976 C1973 1.499 . S
C1976 C1977 1.373 . S
C1976 C1978 1.389 1_566 S
C1977 H1956 0.950 . S
C1977 C1976 1.373 . S
C1977 C1993 1.377 1_565 S
C1978 C1976 1.389 1_544 S
C1978 C1979 1.524 . S
C1978 C1992 1.377 . S
C1979 C1978 1.524 . S
C1979 C1980 1.397 1_545 S
C1979 C1984 1.363 . S
C1980 H1957 0.950 . S
C1980 C1979 1.397 1_565 S
C1980 C1981 1.334 . S
C1981 H1958 0.950 . S
C1981 C1980 1.334 . S
C1981 C1982 1.267 1_565 S
C1982 C1981 1.267 1_545 S
C1982 C1983 1.565 . S
C1982 H2001 0.868 1_545 S
C1983 H1959 0.950 . S
C1983 C1982 1.565 . S
C1983 C1984 1.415 . S
C1984 H1960 0.950 . S
C1984 C1979 1.363 . S
C1984 C1983 1.415 . S
C1985 H1961 0.951 . S
C1985 C1986 1.366 . S
C1985 C1987 1.388 . S
C1986 C1985 1.366 . S
C1986 C1990 1.385 . S
C1987 H1962 0.951 . S
C1987 C1985 1.388 . S
C1987 C1988 1.366 . S
C1988 C1987 1.366 . S
C1988 C1989 1.414 . S
C1988 C1991 1.499 . S
C1989 H1963 0.950 . S
C1989 C1988 1.414 . S
C1989 C1990 1.374 . S
C1990 H1964 0.950 . S
C1990 C1986 1.385 . S
C1990 C1989 1.374 . S
C1991 C1988 1.499 . S
C1991 C1992 1.373 . S
C1991 C1993 1.389 1_554 S
C1992 H1965 0.950 . S
C1992 C1978 1.377 . S
C1992 C1991 1.373 . S
C1993 C1977 1.377 1_545 S
C1993 C1991 1.389 1_556 S
C1993 C1994 1.524 . S
C1994 C1993 1.524 . S
C1994 C1995 1.397 . S
C1994 C1999 1.363 1_545 S
C1995 H1966 0.950 . S
C1995 C1994 1.397 . S
C1995 C1996 1.334 . S
C1996 H1967 0.950 . S
C1996 C1995 1.334 . S
C1996 C1997 1.287 . S
C1997 C1996 1.287 . S
C1997 C1998 1.524 1_545 S
C1997 H2000 0.999 . S
C1998 H1968 0.950 . S
C1998 C1997 1.524 1_565 S
C1998 C1999 1.415 . S
C1999 H1969 0.950 . S
C1999 C1994 1.363 1_565 S
C1999 C1998 1.415 . S
H2000 C1997 0.999 . S
H2001 C1982 0.868 1_565 S
H2002 C2020 0.951 . S
H2003 C2022 0.951 . S
H2004 C2024 0.950 . S
H2005 C2025 0.950 . S
H2006 C2027 0.950 . S
H2007 C2030 0.950 . S
H2008 C2031 0.950 . S
H2009 C2033 0.950 . S
H2010 C2034 0.950 1_655 S
H2011 C2035 0.951 . S
H2012 C2037 0.951 . S
H2013 C2039 0.950 . S
H2014 C2040 0.950 . S
H2015 C2042 0.978 . S
H2016 C2045 0.950 . S
H2017 C2046 0.950 . S
H2018 C2048 0.950 . S
H2019 C2049 0.950 . S
C2020 H2002 0.951 . S
C2020 C2021 1.366 . S
C2020 C2022 1.388 . S
C2021 C2020 1.366 . S
C2021 C2025 1.385 . S
C2022 H2003 0.951 . S
C2022 C2020 1.388 . S
C2022 C2023 1.366 . S
C2023 C2022 1.366 . S
C2023 C2024 1.414 . S
C2023 C2026 1.499 . S
C2024 H2004 0.950 . S
C2024 C2023 1.414 . S
C2024 C2025 1.374 . S
C2025 H2005 0.950 . S
C2025 C2021 1.385 . S
C2025 C2024 1.374 . S
C2026 C2023 1.499 . S
C2026 C2027 1.373 . S
C2026 C2028 1.389 1_556 S
C2027 H2006 0.950 . S
C2027 C2026 1.373 . S
C2027 C2043 1.377 . S
C2028 C2026 1.389 1_554 S
C2028 C2029 1.524 . S
C2028 C2042 1.362 1_455 S
C2029 C2028 1.524 . S
C2029 C2030 1.397 . S
C2029 C2034 1.363 . S
C2030 H2007 0.950 . S
C2030 C2029 1.397 . S
C2030 C2031 1.334 . S
C2031 H2008 0.950 . S
C2031 C2030 1.334 . S
C2031 C2032 1.287 . S
C2032 C2031 1.287 . S
C2032 C2033 1.524 . S
C2032 H2051 0.913 . S
C2033 H2009 0.950 . S
C2033 C2032 1.524 . S
C2033 C2034 1.415 . S
C2034 H2010 0.950 1_455 S
C2034 C2029 1.363 . S
C2034 C2033 1.415 . S
C2035 H2011 0.951 . S
C2035 C2036 1.366 . S
C2035 C2037 1.388 . S
C2036 C2035 1.366 . S
C2036 C2040 1.385 . S
C2037 H2012 0.951 . S
C2037 C2035 1.388 . S
C2037 C2038 1.366 . S
C2038 C2037 1.366 . S
C2038 C2039 1.414 . S
C2038 C2041 1.499 . S
C2039 H2013 0.950 . S
C2039 C2038 1.414 . S
C2039 C2040 1.374 . S
C2040 H2014 0.950 . S
C2040 C2036 1.385 . S
C2040 C2039 1.374 . S
C2041 C2038 1.499 . S
C2041 C2042 1.364 . S
C2041 C2043 1.389 1_654 S
C2042 H2015 0.978 . S
C2042 C2028 1.362 1_655 S
C2042 C2041 1.364 . S
C2043 C2027 1.377 . S
C2043 C2041 1.389 1_456 S
C2043 C2044 1.524 1_455 S
C2044 C2043 1.524 1_655 S
C2044 C2045 1.397 . S
C2044 C2049 1.363 1_655 S
C2045 H2016 0.950 . S
C2045 C2044 1.397 . S
C2045 C2046 1.334 . S
C2046 H2017 0.950 . S
C2046 C2045 1.334 . S
C2046 C2047 1.287 . S
C2047 C2046 1.287 . S
C2047 C2048 1.524 1_655 S
C2047 H2050 0.999 . S
C2048 H2018 0.950 . S
C2048 C2047 1.524 1_455 S
C2048 C2049 1.415 . S
C2049 H2019 0.950 . S
C2049 C2044 1.363 1_455 S
C2049 C2048 1.415 . S
H2050 C2047 0.999 . S
H2051 C2032 0.913 . S
C271 C7 1.051 . S
C286 C203 1.051 . S
C321 C171 1.009 . S
C336 C17 1.009 . S
C371 C31 1.035 . S
C386 C189 1.027 . S
C421 C91 1.045 . S
C436 C35 1.045 . S
C471 C105 1.031 . S
C486 C3 1.041 . S
C521 C119 1.049 . S
C536 C21 1.050 . S
C571 C49 1.051 . S
C586 C161 1.050 . S
C621 C133 1.040 . S
C636 C59 1.049 . S
C671 C147 1.032 . S
C686 C73 1.041 . S
C721 C77 1.051 . S
C736 C217 1.052 . S
C771 C45 1.009 . S
C786 C227 1.009 . S
C821 C241 1.035 . S
C836 C63 1.027 . S
C871 C175 1.021 . S
C886 C115 1.029 . S
C921 C87 1.017 . S
C936 C185 1.017 . S
C971 C199 1.010 . S
C986 C101 1.010 . S
C1021 C245 1.014 . S
C1036 C129 1.023 . S
C1071 C143 1.009 . S
C1086 C213 1.009 . S
C1121 C231 1.020 . S
C1136 C157 1.028 . S
C1171 C219 1.519 . S
C1186 C9 1.516 . S
C1221 C22 1.592 . S
C1236 C232 1.593 . S
C1271 C36 1.610 . S
C1286 C246 1.612 . S
C1321 C37 1.521 . S
C1336 C163 1.518 . S
C1371 C135 1.534 . S
C1386 C8 1.641 . S
C1421 C23 1.481 . S
C1436 C149 1.482 . S
C1471 C93 1.480 . S
C1486 C51 1.483 . S
C1521 C107 1.494 . S
C1536 C64 1.596 . S
C1571 C78 1.646 . S
C1586 C121 1.533 . S
C1621 C79 1.524 . S
C1636 C205 1.527 . S
C1671 C50 1.603 . S
C1686 C176 1.605 . S
C1721 C65 1.515 . S
C1736 C191 1.518 . S
C1771 C120 1.632 . S
C1786 C247 1.525 . S
C1821 C92 1.645 . S
C1836 C218 1.643 . S
C1871 C233 1.485 . S
C1886 C106 1.587 . S
C1921 C177 1.488 . S
C1936 C134 1.589 . S
C1971 C190 1.597 . S
C1986 C148 1.599 . S
C2021 C204 1.647 . S
C2036 C162 1.646 . S
