# Generated by pormake.
# Topology ukr, (4)-cn, num edge types: 1
# Building blocks:
#     Node 0, Type 0, BuildingBlock: NAHDIM_clean_sbu_0, # of connection points: 4
#     Node 1, Type 0, BuildingBlock: NAHDIM_clean_sbu_0, # of connection points: 4
#     Node 2, Type 0, BuildingBlock: NAHDIM_clean_sbu_0, # of connection points: 4
#     Node 3, Type 0, BuildingBlock: NAHDIM_clean_sbu_0, # of connection points: 4
#     Node 4, Type 0, BuildingBlock: NAHDIM_clean_sbu_0, # of connection points: 4
#     Node 5, Type 0, BuildingBlock: NAHDIM_clean_sbu_0, # of connection points: 4
#     Node 6, Type 0, BuildingBlock: NAHDIM_clean_sbu_0, # of connection points: 4
#     Node 7, Type 0, BuildingBlock: NAHDIM_clean_sbu_0, # of connection points: 4
#     Node 8, Type 0, BuildingBlock: NAHDIM_clean_sbu_0, # of connection points: 4
#     Node 9, Type 0, BuildingBlock: NAHDIM_clean_sbu_0, # of connection points: 4
#     Node 10, Type 0, BuildingBlock: NAHDIM_clean_sbu_0, # of connection points: 4
#     Node 11, Type 0, BuildingBlock: NAHDIM_clean_sbu_0, # of connection points: 4
#     Node 12, Type 0, BuildingBlock: NAHDIM_clean_sbu_0, # of connection points: 4
#     Node 13, Type 0, BuildingBlock: NAHDIM_clean_sbu_0, # of connection points: 4
#     Node 14, Type 0, BuildingBlock: NAHDIM_clean_sbu_0, # of connection points: 4
#     Node 15, Type 0, BuildingBlock: NAHDIM_clean_sbu_0, # of connection points: 4
#     Node 16, Type 0, BuildingBlock: NAHDIM_clean_sbu_0, # of connection points: 4
#     Node 17, Type 0, BuildingBlock: NAHDIM_clean_sbu_0, # of connection points: 4
#     Node 18, Type 0, BuildingBlock: NAHDIM_clean_sbu_0, # of connection points: 4
#     Node 19, Type 0, BuildingBlock: NAHDIM_clean_sbu_0, # of connection points: 4
#     Node 20, Type 0, BuildingBlock: NAHDIM_clean_sbu_0, # of connection points: 4
#     Node 21, Type 0, BuildingBlock: NAHDIM_clean_sbu_0, # of connection points: 4
#     Node 22, Type 0, BuildingBlock: NAHDIM_clean_sbu_0, # of connection points: 4
#     Node 23, Type 0, BuildingBlock: NAHDIM_clean_sbu_0, # of connection points: 4
#     Node 24, Type 0, BuildingBlock: NAHDIM_clean_sbu_0, # of connection points: 4
#     Node 25, Type 0, BuildingBlock: NAHDIM_clean_sbu_0, # of connection points: 4
#     Node 26, Type 0, BuildingBlock: NAHDIM_clean_sbu_0, # of connection points: 4
#     Node 27, Type 0, BuildingBlock: NAHDIM_clean_sbu_0, # of connection points: 4
#     Node 28, Type 0, BuildingBlock: NAHDIM_clean_sbu_0, # of connection points: 4
#     Node 29, Type 0, BuildingBlock: NAHDIM_clean_sbu_0, # of connection points: 4
#     Node 30, Type 0, BuildingBlock: NAHDIM_clean_sbu_0, # of connection points: 4
#     Node 31, Type 0, BuildingBlock: NAHDIM_clean_sbu_0, # of connection points: 4
#     Node 32, Type 0, BuildingBlock: NAHDIM_clean_sbu_0, # of connection points: 4
#     Node 33, Type 0, BuildingBlock: NAHDIM_clean_sbu_0, # of connection points: 4
#     Node 34, Type 0, BuildingBlock: NAHDIM_clean_sbu_0, # of connection points: 4
#     Node 35, Type 0, BuildingBlock: NAHDIM_clean_sbu_0, # of connection points: 4
#     Node 36, Type 0, BuildingBlock: NAHDIM_clean_sbu_0, # of connection points: 4
#     Node 37, Type 0, BuildingBlock: NAHDIM_clean_sbu_0, # of connection points: 4
#     Node 38, Type 0, BuildingBlock: NAHDIM_clean_sbu_0, # of connection points: 4
#     Node 39, Type 0, BuildingBlock: NAHDIM_clean_sbu_0, # of connection points: 4
#     Node 40, Type 0, BuildingBlock: NAHDIM_clean_sbu_0, # of connection points: 4
#     Node 41, Type 0, BuildingBlock: NAHDIM_clean_sbu_0, # of connection points: 4
#     Node 42, Type 0, BuildingBlock: NAHDIM_clean_sbu_0, # of connection points: 4
#     Node 43, Type 0, BuildingBlock: NAHDIM_clean_sbu_0, # of connection points: 4
#     Node 44, Type 0, BuildingBlock: NAHDIM_clean_sbu_0, # of connection points: 4
#     Node 45, Type 0, BuildingBlock: NAHDIM_clean_sbu_0, # of connection points: 4
#     Node 46, Type 0, BuildingBlock: NAHDIM_clean_sbu_0, # of connection points: 4
#     Node 47, Type 0, BuildingBlock: NAHDIM_clean_sbu_0, # of connection points: 4
#     Edge 48, Type (0, 0), BuildingBlock: CIFDUS_clean_linker_0, # of connection points: 2
#     Edge 49, Type (0, 0), BuildingBlock: CIFDUS_clean_linker_0, # of connection points: 2
#     Edge 50, Type (0, 0), BuildingBlock: CIFDUS_clean_linker_0, # of connection points: 2
#     Edge 51, Type (0, 0), BuildingBlock: CIFDUS_clean_linker_0, # of connection points: 2
#     Edge 52, Type (0, 0), BuildingBlock: CIFDUS_clean_linker_0, # of connection points: 2
#     Edge 53, Type (0, 0), BuildingBlock: CIFDUS_clean_linker_0, # of connection points: 2
#     Edge 54, Type (0, 0), BuildingBlock: CIFDUS_clean_linker_0, # of connection points: 2
#     Edge 55, Type (0, 0), BuildingBlock: CIFDUS_clean_linker_0, # of connection points: 2
#     Edge 56, Type (0, 0), BuildingBlock: CIFDUS_clean_linker_0, # of connection points: 2
#     Edge 57, Type (0, 0), BuildingBlock: CIFDUS_clean_linker_0, # of connection points: 2
#     Edge 58, Type (0, 0), BuildingBlock: CIFDUS_clean_linker_0, # of connection points: 2
#     Edge 59, Type (0, 0), BuildingBlock: CIFDUS_clean_linker_0, # of connection points: 2
#     Edge 60, Type (0, 0), BuildingBlock: CIFDUS_clean_linker_0, # of connection points: 2
#     Edge 61, Type (0, 0), BuildingBlock: CIFDUS_clean_linker_0, # of connection points: 2
#     Edge 62, Type (0, 0), BuildingBlock: CIFDUS_clean_linker_0, # of connection points: 2
#     Edge 63, Type (0, 0), BuildingBlock: CIFDUS_clean_linker_0, # of connection points: 2
#     Edge 64, Type (0, 0), BuildingBlock: CIFDUS_clean_linker_0, # of connection points: 2
#     Edge 65, Type (0, 0), BuildingBlock: CIFDUS_clean_linker_0, # of connection points: 2
#     Edge 66, Type (0, 0), BuildingBlock: CIFDUS_clean_linker_0, # of connection points: 2
#     Edge 67, Type (0, 0), BuildingBlock: CIFDUS_clean_linker_0, # of connection points: 2
#     Edge 68, Type (0, 0), BuildingBlock: CIFDUS_clean_linker_0, # of connection points: 2
#     Edge 69, Type (0, 0), BuildingBlock: CIFDUS_clean_linker_0, # of connection points: 2
#     Edge 70, Type (0, 0), BuildingBlock: CIFDUS_clean_linker_0, # of connection points: 2
#     Edge 71, Type (0, 0), BuildingBlock: CIFDUS_clean_linker_0, # of connection points: 2
#     Edge 72, Type (0, 0), BuildingBlock: CIFDUS_clean_linker_0, # of connection points: 2
#     Edge 73, Type (0, 0), BuildingBlock: CIFDUS_clean_linker_0, # of connection points: 2
#     Edge 74, Type (0, 0), BuildingBlock: CIFDUS_clean_linker_0, # of connection points: 2
#     Edge 75, Type (0, 0), BuildingBlock: CIFDUS_clean_linker_0, # of connection points: 2
#     Edge 76, Type (0, 0), BuildingBlock: CIFDUS_clean_linker_0, # of connection points: 2
#     Edge 77, Type (0, 0), BuildingBlock: CIFDUS_clean_linker_0, # of connection points: 2
#     Edge 78, Type (0, 0), BuildingBlock: CIFDUS_clean_linker_0, # of connection points: 2
#     Edge 79, Type (0, 0), BuildingBlock: CIFDUS_clean_linker_0, # of connection points: 2
#     Edge 80, Type (0, 0), BuildingBlock: CIFDUS_clean_linker_0, # of connection points: 2
#     Edge 81, Type (0, 0), BuildingBlock: CIFDUS_clean_linker_0, # of connection points: 2
#     Edge 82, Type (0, 0), BuildingBlock: CIFDUS_clean_linker_0, # of connection points: 2
#     Edge 83, Type (0, 0), BuildingBlock: CIFDUS_clean_linker_0, # of connection points: 2
#     Edge 84, Type (0, 0), BuildingBlock: CIFDUS_clean_linker_0, # of connection points: 2
#     Edge 85, Type (0, 0), BuildingBlock: CIFDUS_clean_linker_0, # of connection points: 2
#     Edge 86, Type (0, 0), BuildingBlock: CIFDUS_clean_linker_0, # of connection points: 2
#     Edge 87, Type (0, 0), BuildingBlock: CIFDUS_clean_linker_0, # of connection points: 2
#     Edge 88, Type (0, 0), BuildingBlock: CIFDUS_clean_linker_0, # of connection points: 2
#     Edge 89, Type (0, 0), BuildingBlock: CIFDUS_clean_linker_0, # of connection points: 2
#     Edge 90, Type (0, 0), BuildingBlock: CIFDUS_clean_linker_0, # of connection points: 2
#     Edge 91, Type (0, 0), BuildingBlock: CIFDUS_clean_linker_0, # of connection points: 2
#     Edge 92, Type (0, 0), BuildingBlock: CIFDUS_clean_linker_0, # of connection points: 2
#     Edge 93, Type (0, 0), BuildingBlock: CIFDUS_clean_linker_0, # of connection points: 2
#     Edge 94, Type (0, 0), BuildingBlock: CIFDUS_clean_linker_0, # of connection points: 2
#     Edge 95, Type (0, 0), BuildingBlock: CIFDUS_clean_linker_0, # of connection points: 2
#     Edge 96, Type (0, 0), BuildingBlock: CIFDUS_clean_linker_0, # of connection points: 2
#     Edge 97, Type (0, 0), BuildingBlock: CIFDUS_clean_linker_0, # of connection points: 2
#     Edge 98, Type (0, 0), BuildingBlock: CIFDUS_clean_linker_0, # of connection points: 2
#     Edge 99, Type (0, 0), BuildingBlock: CIFDUS_clean_linker_0, # of connection points: 2
#     Edge 100, Type (0, 0), BuildingBlock: CIFDUS_clean_linker_0, # of connection points: 2
#     Edge 101, Type (0, 0), BuildingBlock: CIFDUS_clean_linker_0, # of connection points: 2
#     Edge 102, Type (0, 0), BuildingBlock: CIFDUS_clean_linker_0, # of connection points: 2
#     Edge 103, Type (0, 0), BuildingBlock: CIFDUS_clean_linker_0, # of connection points: 2
#     Edge 104, Type (0, 0), BuildingBlock: CIFDUS_clean_linker_0, # of connection points: 2
#     Edge 105, Type (0, 0), BuildingBlock: CIFDUS_clean_linker_0, # of connection points: 2
#     Edge 106, Type (0, 0), BuildingBlock: CIFDUS_clean_linker_0, # of connection points: 2
#     Edge 107, Type (0, 0), BuildingBlock: CIFDUS_clean_linker_0, # of connection points: 2
#     Edge 108, Type (0, 0), BuildingBlock: CIFDUS_clean_linker_0, # of connection points: 2
#     Edge 109, Type (0, 0), BuildingBlock: CIFDUS_clean_linker_0, # of connection points: 2
#     Edge 110, Type (0, 0), BuildingBlock: CIFDUS_clean_linker_0, # of connection points: 2
#     Edge 111, Type (0, 0), BuildingBlock: CIFDUS_clean_linker_0, # of connection points: 2
#     Edge 112, Type (0, 0), BuildingBlock: CIFDUS_clean_linker_0, # of connection points: 2
#     Edge 113, Type (0, 0), BuildingBlock: CIFDUS_clean_linker_0, # of connection points: 2
#     Edge 114, Type (0, 0), BuildingBlock: CIFDUS_clean_linker_0, # of connection points: 2
#     Edge 115, Type (0, 0), BuildingBlock: CIFDUS_clean_linker_0, # of connection points: 2
#     Edge 116, Type (0, 0), BuildingBlock: CIFDUS_clean_linker_0, # of connection points: 2
#     Edge 117, Type (0, 0), BuildingBlock: CIFDUS_clean_linker_0, # of connection points: 2
#     Edge 118, Type (0, 0), BuildingBlock: CIFDUS_clean_linker_0, # of connection points: 2
#     Edge 119, Type (0, 0), BuildingBlock: CIFDUS_clean_linker_0, # of connection points: 2
#     Edge 120, Type (0, 0), BuildingBlock: CIFDUS_clean_linker_0, # of connection points: 2
#     Edge 121, Type (0, 0), BuildingBlock: CIFDUS_clean_linker_0, # of connection points: 2
#     Edge 122, Type (0, 0), BuildingBlock: CIFDUS_clean_linker_0, # of connection points: 2
#     Edge 123, Type (0, 0), BuildingBlock: CIFDUS_clean_linker_0, # of connection points: 2
#     Edge 124, Type (0, 0), BuildingBlock: CIFDUS_clean_linker_0, # of connection points: 2
#     Edge 125, Type (0, 0), BuildingBlock: CIFDUS_clean_linker_0, # of connection points: 2
#     Edge 126, Type (0, 0), BuildingBlock: CIFDUS_clean_linker_0, # of connection points: 2
#     Edge 127, Type (0, 0), BuildingBlock: CIFDUS_clean_linker_0, # of connection points: 2
#     Edge 128, Type (0, 0), BuildingBlock: CIFDUS_clean_linker_0, # of connection points: 2
#     Edge 129, Type (0, 0), BuildingBlock: CIFDUS_clean_linker_0, # of connection points: 2
#     Edge 130, Type (0, 0), BuildingBlock: CIFDUS_clean_linker_0, # of connection points: 2
#     Edge 131, Type (0, 0), BuildingBlock: CIFDUS_clean_linker_0, # of connection points: 2
#     Edge 132, Type (0, 0), BuildingBlock: CIFDUS_clean_linker_0, # of connection points: 2
#     Edge 133, Type (0, 0), BuildingBlock: CIFDUS_clean_linker_0, # of connection points: 2
#     Edge 134, Type (0, 0), BuildingBlock: CIFDUS_clean_linker_0, # of connection points: 2
#     Edge 135, Type (0, 0), BuildingBlock: CIFDUS_clean_linker_0, # of connection points: 2
#     Edge 136, Type (0, 0), BuildingBlock: CIFDUS_clean_linker_0, # of connection points: 2
#     Edge 137, Type (0, 0), BuildingBlock: CIFDUS_clean_linker_0, # of connection points: 2
#     Edge 138, Type (0, 0), BuildingBlock: CIFDUS_clean_linker_0, # of connection points: 2
#     Edge 139, Type (0, 0), BuildingBlock: CIFDUS_clean_linker_0, # of connection points: 2
#     Edge 140, Type (0, 0), BuildingBlock: CIFDUS_clean_linker_0, # of connection points: 2
#     Edge 141, Type (0, 0), BuildingBlock: CIFDUS_clean_linker_0, # of connection points: 2
#     Edge 142, Type (0, 0), BuildingBlock: CIFDUS_clean_linker_0, # of connection points: 2
#     Edge 143, Type (0, 0), BuildingBlock: CIFDUS_clean_linker_0, # of connection points: 2
# Relax obj value: 0.401
# Max RMSD: 0.186
# Mean RMSD: 0.186
data_MOF--net-ukr--node1-NAHDIM_clean_sbu_0--edge1-CIFDUS_clean_linker_0
_symmetry_space_group_name_H-M    P1
_symmetry_Int_Tables_number       1
_symmetry_cell_setting            triclinic
loop_
_symmetry_equiv_pos_as_xyz
'x, y, z'
_cell_length_a     59.78064
_cell_length_b     59.756875
_cell_length_c     59.769151
_cell_angle_alpha  90.000398
_cell_angle_beta   90.004041
_cell_angle_gamma 89.968896
loop_
_atom_site_label
_atom_site_type_symbol
_atom_site_fract_x
_atom_site_fract_y
_atom_site_fract_z
_atom_type_partial_charge
C0 C 0.06881 0.27928 0.14972 0.0
O1 O 0.07994 0.26142 0.14332 0.0
O2 O 0.10674 0.25467 0.1905 0.0
Zn3 Zn 0.10769 0.28546 0.17672 0.0
O4 O 0.11475 0.30698 0.20154 0.0
C5 C 0.15064 0.29415 0.15496 0.0
O6 O 0.15441 0.30706 0.17233 0.0
O7 O 0.0778 0.29261 0.16361 0.0
C8 C 0.11696 0.32807 0.2002 0.0
O9 O 0.11499 0.33803 0.18071 0.0
C10 C 0.10205 0.25165 0.21103 0.0
O11 O 0.09642 0.26893 0.22341 0.0
O12 O 0.13181 0.28444 0.15312 0.0
C13 C 0.21055 0.56202 0.66424 0.0
O14 O 0.19216 0.57246 0.67023 0.0
O15 O 0.26341 0.60499 0.69314 0.0
Zn16 Zn 0.23258 0.6024 0.67973 0.0
O17 O 0.21001 0.60759 0.70417 0.0
C18 C 0.24657 0.62772 0.64252 0.0
O19 O 0.26128 0.61137 0.64199 0.0
O20 O 0.22925 0.57189 0.66629 0.0
C21 C 0.19178 0.61811 0.70121 0.0
O22 O 0.18668 0.62533 0.68108 0.0
C23 C 0.26731 0.60433 0.71403 0.0
O24 O 0.25071 0.60067 0.72796 0.0
O25 O 0.23079 0.62677 0.65671 0.0
C26 C 0.93101 0.70799 0.15463 0.0
O27 O 0.92017 0.69013 0.16144 0.0
O28 O 0.88572 0.76023 0.17939 0.0
Zn29 Zn 0.88946 0.72981 0.16538 0.0
O30 O 0.88351 0.70675 0.18915 0.0
C31 C 0.8625 0.74474 0.12921 0.0
O32 O 0.87539 0.76236 0.13182 0.0
O33 O 0.92086 0.72667 0.15399 0.0
C34 C 0.86382 0.70503 0.19693 0.0
O35 O 0.84796 0.71782 0.18867 0.0
C36 C 0.88899 0.76421 0.20002 0.0
O37 O 0.89615 0.74805 0.2131 0.0
O38 O 0.8663 0.72744 0.141 0.0
C39 C 0.81188 0.42421 0.67889 0.0
O40 O 0.83098 0.41601 0.68603 0.0
O41 O 0.77125 0.36897 0.70241 0.0
Zn42 Zn 0.79716 0.37833 0.68311 0.0
O43 O 0.82445 0.37069 0.70113 0.0
C44 C 0.77671 0.35965 0.64515 0.0
O45 O 0.762 0.37506 0.65065 0.0
O46 O 0.79539 0.41114 0.67585 0.0
C47 C 0.82488 0.37754 0.72127 0.0
O48 O 0.80874 0.39069 0.72834 0.0
C49 C 0.75364 0.37968 0.70761 0.0
O50 O 0.75071 0.40013 0.70008 0.0
O51 O 0.79508 0.35888 0.65582 0.0
C52 C 0.05066 0.68331 0.82429 0.0
O53 O 0.06095 0.66784 0.81255 0.0
O54 O 0.08742 0.74128 0.80327 0.0
Zn55 Zn 0.09052 0.71013 0.81598 0.0
O56 O 0.10052 0.68957 0.79124 0.0
C57 C 0.13173 0.72275 0.83082 0.0
O58 O 0.13217 0.72617 0.8091 0.0
O59 O 0.06072 0.70154 0.82856 0.0
C60 C 0.1144 0.67373 0.79412 0.0
O61 O 0.12172 0.66943 0.8144 0.0
C62 C 0.08845 0.74591 0.78254 0.0
O63 O 0.0897 0.72954 0.76793 0.0
O64 O 0.11464 0.71338 0.83931 0.0
C65 C 0.81255 0.56797 0.31801 0.0
O66 O 0.81708 0.57843 0.29924 0.0
O67 O 0.75322 0.59719 0.31268 0.0
Zn68 Zn 0.78321 0.60574 0.32512 0.0
O69 O 0.79733 0.62464 0.30098 0.0
C70 C 0.78716 0.64257 0.35679 0.0
O71 O 0.80529 0.64747 0.34539 0.0
O72 O 0.79958 0.57715 0.33214 0.0
C73 C 0.81757 0.62999 0.29737 0.0
O74 O 0.83339 0.62261 0.31074 0.0
C75 C 0.75138 0.58965 0.29289 0.0
O76 O 0.76957 0.58618 0.28104 0.0
O77 O 0.77652 0.62477 0.35211 0.0
C78 C 0.94063 0.29097 0.84735 0.0
O79 O 0.93061 0.30979 0.84201 0.0
O80 O 0.89892 0.2451 0.81051 0.0
Zn81 Zn 0.89908 0.27043 0.83274 0.0
O82 O 0.89069 0.29827 0.8157 0.0
C83 C 0.85551 0.26686 0.85182 0.0
O84 O 0.85041 0.27777 0.83344 0.0
O85 O 0.93001 0.27265 0.84559 0.0
C86 C 0.88257 0.3164 0.82329 0.0
O87 O 0.87945 0.31866 0.84493 0.0
C88 C 0.90189 0.24813 0.78966 0.0
O89 O 0.90615 0.26837 0.78222 0.0
O90 O 0.87591 0.26245 0.85593 0.0
C91 C 0.2026 0.44783 0.32978 0.0
O92 O 0.18579 0.4396 0.3183 0.0
O93 O 0.25483 0.40873 0.29921 0.0
Zn94 Zn 0.22476 0.4078 0.31432 0.0
O95 O 0.20111 0.40415 0.29047 0.0
C96 C 0.2258 0.36197 0.32225 0.0
O97 O 0.22363 0.36315 0.30041 0.0
O98 O 0.2205 0.43648 0.33153 0.0
C99 C 0.18275 0.3941 0.29413 0.0
O100 O 0.17831 0.38693 0.31443 0.0
C101 C 0.25761 0.41156 0.27831 0.0
O102 O 0.24016 0.41561 0.26558 0.0
O103 O 0.22599 0.38002 0.33354 0.0
C104 C 0.1703 0.0713 0.29702 0.0
O105 O 0.17796 0.0814 0.31497 0.0
O106 O 0.20118 0.112 0.24551 0.0
Zn107 Zn 0.18172 0.11259 0.27299 0.0
O108 O 0.1994 0.1254 0.29881 0.0
C109 C 0.14798 0.13234 0.24606 0.0
O110 O 0.15388 0.11565 0.23302 0.0
O111 O 0.17013 0.08163 0.27845 0.0
C112 C 0.21748 0.11697 0.30621 0.0
O113 O 0.22472 0.09799 0.29785 0.0
C114 C 0.21681 0.09848 0.24046 0.0
O115 O 0.22232 0.0823 0.25426 0.0
O116 O 0.15674 0.13384 0.26539 0.0
C117 C 0.43523 0.68129 0.828 0.0
O118 O 0.42532 0.695 0.84204 0.0
O119 O 0.40082 0.70765 0.77161 0.0
Zn120 Zn 0.39648 0.68996 0.8 0.0
O121 O 0.3843 0.71144 0.8227 0.0
C122 C 0.37322 0.65666 0.77474 0.0
O123 O 0.38927 0.66111 0.7604 0.0
O124 O 0.42571 0.67655 0.80958 0.0
C125 C 0.37029 0.70631 0.83779 0.0
O126 O 0.36407 0.68534 0.84002 0.0
C127 C 0.40451 0.7286 0.77192 0.0
O128 O 0.40702 0.73878 0.79124 0.0
O129 O 0.37335 0.66634 0.79367 0.0
C130 C 0.78805 0.93999 0.27464 0.0
O131 O 0.76811 0.93074 0.27456 0.0
O132 O 0.78155 0.89873 0.22894 0.0
Zn133 Zn 0.79719 0.89719 0.25869 0.0
O134 O 0.77675 0.88301 0.28142 0.0
C135 C 0.8327 0.86383 0.26703 0.0
O136 O 0.82503 0.863 0.28759 0.0
O137 O 0.80475 0.92842 0.26833 0.0
C138 C 0.77983 0.88491 0.30237 0.0
O139 O 0.7972 0.89613 0.3098 0.0
C140 C 0.76095 0.89446 0.22589 0.0
O141 O 0.74825 0.88974 0.24319 0.0
O142 O 0.82422 0.87769 0.25329 0.0
C143 C 0.56084 0.31303 0.79711 0.0
O144 O 0.56893 0.2943 0.80527 0.0
O145 O 0.59938 0.29581 0.74546 0.0
Zn146 Zn 0.60278 0.31209 0.77473 0.0
O147 O 0.61427 0.28986 0.79729 0.0
C148 C 0.64537 0.32774 0.7653 0.0
O149 O 0.64813 0.30596 0.76661 0.0
O150 O 0.57285 0.32452 0.78385 0.0
C151 C 0.62215 0.29459 0.81643 0.0
O152 O 0.62304 0.3156 0.82284 0.0
C153 C 0.5977 0.27464 0.74418 0.0
O154 O 0.59664 0.2628 0.76267 0.0
O155 O 0.62608 0.33582 0.7692 0.0
C156 C 0.16675 0.92377 0.68676 0.0
O157 O 0.18022 0.91506 0.67173 0.0
O158 O 0.19 0.88569 0.74169 0.0
Zn159 Zn 0.17452 0.88249 0.71191 0.0
O160 O 0.19753 0.87128 0.68988 0.0
C161 C 0.13895 0.85778 0.73301 0.0
O162 O 0.14212 0.87259 0.74895 0.0
O163 O 0.16183 0.91251 0.70409 0.0
C164 C 0.20186 0.85047 0.69091 0.0
O165 O 0.19047 0.83792 0.70489 0.0
C166 C 0.21093 0.88916 0.74323 0.0
O167 O 0.22296 0.89094 0.72492 0.0
O168 O 0.15016 0.85944 0.71503 0.0
C169 C 0.573 0.66406 0.20465 0.0
O170 O 0.58401 0.6813 0.1966 0.0
O171 O 0.61887 0.6782 0.24622 0.0
Zn172 Zn 0.61611 0.65518 0.22155 0.0
O173 O 0.63167 0.66793 0.19457 0.0
C174 C 0.63094 0.62209 0.25237 0.0
O175 O 0.61548 0.63162 0.26476 0.0
O176 O 0.58363 0.64933 0.21569 0.0
C177 C 0.65267 0.6707 0.19633 0.0
O178 O 0.66284 0.66328 0.21437 0.0
C179 C 0.62177 0.69885 0.24198 0.0
O180 O 0.62156 0.70568 0.2211 0.0
O181 O 0.63287 0.62806 0.23206 0.0
C182 C 0.81389 0.06488 0.70458 0.0
O183 O 0.79415 0.0743 0.70233 0.0
O184 O 0.8036 0.10181 0.75503 0.0
Zn185 Zn 0.82179 0.10591 0.72699 0.0
O186 O 0.80302 0.12431 0.70592 0.0
C187 C 0.85536 0.14122 0.72734 0.0
O188 O 0.84593 0.14737 0.70847 0.0
O189 O 0.82937 0.07567 0.71437 0.0
C190 C 0.80294 0.12397 0.68467 0.0
O191 O 0.81682 0.11069 0.67397 0.0
C192 C 0.78234 0.10229 0.75517 0.0
O193 O 0.77153 0.10405 0.73612 0.0
O194 O 0.84883 0.12336 0.73685 0.0
C195 C 0.43343 0.35044 0.21675 0.0
O196 O 0.42348 0.35937 0.23421 0.0
O197 O 0.39408 0.30722 0.24128 0.0
Zn198 Zn 0.392 0.32702 0.21406 0.0
O199 O 0.37695 0.30865 0.1902 0.0
C200 C 0.35879 0.36218 0.20877 0.0
O201 O 0.359 0.35601 0.18768 0.0
O202 O 0.42274 0.33648 0.20483 0.0
C203 C 0.35854 0.29984 0.19616 0.0
O204 O 0.35057 0.30447 0.21613 0.0
C205 C 0.39741 0.2863 0.23923 0.0
O206 O 0.40153 0.27801 0.21929 0.0
O207 O 0.37226 0.35294 0.22239 0.0
C208 C 0.29881 0.18721 0.05935 0.0
O209 O 0.30667 0.20453 0.07038 0.0
O210 O 0.24323 0.20509 0.09216 0.0
Zn211 Zn 0.26958 0.18475 0.09723 0.0
O212 O 0.29109 0.20162 0.11685 0.0
C213 C 0.26775 0.14724 0.1287 0.0
O214 O 0.28932 0.15053 0.13126 0.0
O215 O 0.28313 0.17573 0.06794 0.0
C216 C 0.28364 0.2073 0.13594 0.0
O217 O 0.26355 0.20067 0.14189 0.0
C218 C 0.24484 0.22628 0.09305 0.0
O219 O 0.26473 0.23546 0.09474 0.0
O220 O 0.25713 0.1587 0.11429 0.0
C221 C 0.27834 0.84547 0.93316 0.0
O222 O 0.29736 0.846 0.92216 0.0
O223 O 0.23483 0.81396 0.88164 0.0
Zn224 Zn 0.26212 0.83105 0.8907 0.0
O225 O 0.28806 0.81044 0.88568 0.0
C226 C 0.24427 0.86821 0.86912 0.0
O227 O 0.22976 0.86509 0.88535 0.0
O228 O 0.26055 0.84024 0.9228 0.0
C229 C 0.30631 0.81595 0.87633 0.0
O230 O 0.30929 0.83676 0.86993 0.0
C231 C 0.22724 0.79548 0.88884 0.0
O232 O 0.23703 0.7855 0.90581 0.0
O233 O 0.26228 0.8569 0.86935 0.0
C234 C 0.67337 0.79789 0.43332 0.0
O235 O 0.68416 0.81402 0.42301 0.0
O236 O 0.70717 0.74954 0.39604 0.0
Zn237 Zn 0.6834 0.77318 0.39289 0.0
O238 O 0.69767 0.80067 0.37954 0.0
C239 C 0.6675 0.75915 0.351 0.0
O240 O 0.6874 0.76689 0.34581 0.0
O241 O 0.67032 0.77938 0.42328 0.0
C242 C 0.68755 0.81422 0.36665 0.0
O243 O 0.66617 0.81126 0.36252 0.0
C244 C 0.72804 0.75362 0.39577 0.0
O245 O 0.7349 0.77446 0.39459 0.0
O246 O 0.66092 0.76027 0.3712 0.0
C247 C 0.69433 0.16165 0.93743 0.0
O248 O 0.67652 0.16954 0.92723 0.0
O249 O 0.74389 0.19444 0.89626 0.0
Zn250 Zn 0.71724 0.17368 0.89628 0.0
O251 O 0.69081 0.19172 0.88579 0.0
C252 C 0.74285 0.13917 0.87575 0.0
O253 O 0.75564 0.14307 0.8932 0.0
O254 O 0.71294 0.16137 0.92717 0.0
C255 C 0.67849 0.18631 0.86935 0.0
O256 O 0.68153 0.16683 0.85961 0.0
C257 C 0.74163 0.21559 0.89556 0.0
O258 O 0.72148 0.22431 0.89637 0.0
O259 O 0.72437 0.14952 0.87407 0.0
C260 C 0.3343 0.20711 0.43164 0.0
O261 O 0.32775 0.18855 0.42189 0.0
O262 O 0.30094 0.25527 0.38889 0.0
Zn263 Zn 0.32174 0.2287 0.38952 0.0
O264 O 0.30415 0.20163 0.37947 0.0
C265 C 0.34595 0.23089 0.34756 0.0
O266 O 0.32971 0.2179 0.34049 0.0
O267 O 0.33349 0.22543 0.42087 0.0
C268 C 0.31181 0.18287 0.37297 0.0
O269 O 0.33351 0.17936 0.37327 0.0
C270 C 0.28566 0.25607 0.37413 0.0
O271 O 0.28322 0.23905 0.36043 0.0
O272 O 0.34653 0.23662 0.36803 0.0
C273 C 0.67197 0.80949 0.05106 0.0
O274 O 0.65903 0.79622 0.06285 0.0
O275 O 0.73555 0.79873 0.08608 0.0
Zn276 Zn 0.70247 0.80512 0.0887 0.0
O277 O 0.68679 0.77741 0.09974 0.0
C278 C 0.71318 0.84451 0.11348 0.0
O279 O 0.72794 0.84665 0.09733 0.0
O280 O 0.69069 0.81558 0.05906 0.0
C281 C 0.69544 0.76815 0.11682 0.0
O282 O 0.71356 0.77694 0.12564 0.0
C283 C 0.74393 0.77963 0.08185 0.0
O284 O 0.7306 0.76271 0.0775 0.0
O285 O 0.69918 0.82856 0.11252 0.0
C286 C 0.67185 0.19015 0.56741 0.0
O287 O 0.68137 0.1753 0.58053 0.0
O288 O 0.69233 0.25076 0.6021 0.0
Zn289 Zn 0.67814 0.22037 0.60489 0.0
O290 O 0.70073 0.19971 0.61883 0.0
C291 C 0.63981 0.24126 0.62375 0.0
O292 O 0.64291 0.2545 0.60648 0.0
O293 O 0.6685 0.20985 0.57464 0.0
C294 C 0.70611 0.20384 0.63897 0.0
O295 O 0.69637 0.22062 0.64934 0.0
C296 C 0.71317 0.25378 0.59918 0.0
O297 O 0.72632 0.23634 0.59666 0.0
O298 O 0.65215 0.22406 0.62584 0.0
C299 C 0.33878 0.79713 0.57376 0.0
O300 O 0.3187 0.80235 0.581 0.0
O301 O 0.32448 0.74313 0.60761 0.0
Zn302 Zn 0.33912 0.77259 0.61465 0.0
O303 O 0.31553 0.79228 0.62868 0.0
C304 C 0.36803 0.77645 0.65413 0.0
O305 O 0.35879 0.79622 0.65679 0.0
O306 O 0.35133 0.78499 0.58589 0.0
C307 C 0.3151 0.81344 0.63077 0.0
O308 O 0.33206 0.82543 0.62357 0.0
C309 C 0.30345 0.74048 0.60589 0.0
O310 O 0.29021 0.75796 0.60752 0.0
O311 O 0.36307 0.76488 0.63701 0.0
C312 C 0.92187 0.71041 0.82509 0.0
O313 O 0.90926 0.69422 0.81724 0.0
O314 O 0.88833 0.76569 0.79162 0.0
Zn315 Zn 0.88487 0.73888 0.81183 0.0
O316 O 0.87167 0.71378 0.79364 0.0
C317 C 0.85213 0.73276 0.84711 0.0
O318 O 0.85603 0.7114 0.84363 0.0
O319 O 0.91464 0.73041 0.8247 0.0
C320 C 0.85136 0.71567 0.7877 0.0
O321 O 0.84003 0.73348 0.7939 0.0
C322 C 0.89086 0.76368 0.77058 0.0
O323 O 0.89241 0.74358 0.76182 0.0
O324 O 0.86318 0.74723 0.83613 0.0
C325 C 0.80623 0.43657 0.32079 0.0
O326 O 0.82085 0.42695 0.3075 0.0
O327 O 0.7502 0.39835 0.29746 0.0
Zn328 Zn 0.7806 0.39651 0.31203 0.0
O329 O 0.80251 0.38786 0.288 0.0
C330 C 0.76091 0.37062 0.3467 0.0
O331 O 0.74548 0.38613 0.34451 0.0
O332 O 0.78823 0.42632 0.32559 0.0
C333 C 0.81813 0.37365 0.29034 0.0
O334 O 0.82128 0.36422 0.30995 0.0
C335 C 0.74759 0.40046 0.27645 0.0
O336 O 0.76526 0.40286 0.26361 0.0
O337 O 0.7787 0.37213 0.33516 0.0
C338 C 0.07134 0.29914 0.833 0.0
O339 O 0.08383 0.31594 0.82634 0.0
O340 O 0.10447 0.23991 0.80325 0.0
Zn341 Zn 0.10769 0.27068 0.81672 0.0
O342 O 0.11695 0.29242 0.79277 0.0
C343 C 0.13308 0.2511 0.85178 0.0
O344 O 0.1166 0.2366 0.85075 0.0
O345 O 0.07851 0.27924 0.83081 0.0
C346 C 0.1283 0.30974 0.79755 0.0
O347 O 0.13312 0.31392 0.81858 0.0
C348 C 0.10565 0.23554 0.78247 0.0
O349 O 0.10826 0.252 0.76814 0.0
O350 O 0.13231 0.2684 0.83945 0.0
C351 C 0.20794 0.57897 0.32393 0.0
O352 O 0.20363 0.58892 0.30482 0.0
O353 O 0.2648 0.609 0.31255 0.0
Zn354 Zn 0.2367 0.61688 0.32915 0.0
O355 O 0.21856 0.63656 0.30851 0.0
C356 C 0.23667 0.65146 0.36366 0.0
O357 O 0.21639 0.65585 0.35642 0.0
O358 O 0.22122 0.58824 0.3377 0.0
C359 C 0.19756 0.63987 0.30826 0.0
O360 O 0.18476 0.62983 0.32303 0.0
C361 C 0.26554 0.60609 0.2915 0.0
O362 O 0.24689 0.60685 0.27989 0.0
O363 O 0.24722 0.6349 0.35552 0.0
C364 C 0.93877 0.29903 0.15517 0.0
O365 O 0.92763 0.31543 0.16467 0.0
O366 O 0.90103 0.24055 0.17816 0.0
Zn367 Zn 0.90016 0.27243 0.1675 0.0
O368 O 0.89384 0.29162 0.19443 0.0
C369 C 0.87063 0.25919 0.13235 0.0
O370 O 0.88539 0.24299 0.13053 0.0
O371 O 0.92978 0.27984 0.15373 0.0
C372 C 0.88237 0.30946 0.19307 0.0
O373 O 0.87548 0.31628 0.17334 0.0
C374 C 0.90835 0.23525 0.19741 0.0
O375 O 0.91647 0.25093 0.21049 0.0
O376 O 0.87433 0.27492 0.14615 0.0
C377 C 0.19775 0.43063 0.66592 0.0
O378 O 0.18079 0.4183 0.67249 0.0
O379 O 0.24979 0.39539 0.70115 0.0
Zn380 Zn 0.22463 0.39223 0.67894 0.0
O381 O 0.19879 0.37901 0.69607 0.0
C382 C 0.22749 0.36555 0.63678 0.0
O383 O 0.20839 0.37442 0.63047 0.0
O384 O 0.21739 0.42252 0.66656 0.0
C385 C 0.18691 0.36231 0.69044 0.0
O386 O 0.19019 0.35277 0.67093 0.0
C387 C 0.24628 0.39801 0.72197 0.0
O388 O 0.22564 0.40022 0.72919 0.0
O389 O 0.23603 0.37106 0.65545 0.0
C390 C 0.06159 0.69653 0.17129 0.0
O391 O 0.07319 0.68038 0.18066 0.0
O392 O 0.09594 0.75588 0.19655 0.0
Zn393 Zn 0.09933 0.72505 0.18341 0.0
O394 O 0.10966 0.70385 0.20749 0.0
C395 C 0.12243 0.74434 0.14666 0.0
O396 O 0.10484 0.75752 0.14724 0.0
O397 O 0.06984 0.71609 0.1703 0.0
C398 C 0.12961 0.70636 0.21438 0.0
O399 O 0.14207 0.72202 0.20529 0.0
C400 C 0.09485 0.76039 0.2173 0.0
O401 O 0.09511 0.74401 0.23196 0.0
O402 O 0.12323 0.72771 0.15989 0.0
C403 C 0.79821 0.55463 0.69835 0.0
O404 O 0.80382 0.56482 0.717 0.0
O405 O 0.7437 0.5857 0.71468 0.0
Zn406 Zn 0.76917 0.59259 0.69385 0.0
O407 O 0.78948 0.61423 0.70976 0.0
C408 C 0.76495 0.6232 0.65613 0.0
O409 O 0.78604 0.62776 0.66028 0.0
O410 O 0.78411 0.56378 0.68534 0.0
C411 C 0.81045 0.61699 0.70763 0.0
O412 O 0.82169 0.60462 0.69336 0.0
C413 C 0.74522 0.58731 0.73583 0.0
O414 O 0.76459 0.5924 0.74487 0.0
O415 O 0.7552 0.6081 0.66747 0.0
C416 C 0.80238 0.93491 0.68101 0.0
O417 O 0.78422 0.92411 0.67497 0.0
O418 O 0.80028 0.88938 0.72885 0.0
Zn419 Zn 0.81348 0.89179 0.69806 0.0
O420 O 0.79236 0.87607 0.67706 0.0
C421 C 0.854 0.87863 0.71777 0.0
O422 O 0.84946 0.89674 0.7294 0.0
O423 O 0.81805 0.92417 0.69054 0.0
C424 C 0.78599 0.85699 0.68396 0.0
O425 O 0.79436 0.84921 0.70275 0.0
C426 C 0.7804 0.89335 0.73524 0.0
O427 O 0.76587 0.9017 0.72102 0.0
O428 O 0.84206 0.87428 0.70072 0.0
C429 C 0.56277 0.33298 0.19663 0.0
O430 O 0.57275 0.31996 0.18199 0.0
O431 O 0.59905 0.30939 0.25288 0.0
Zn432 Zn 0.60264 0.32509 0.22327 0.0
O433 O 0.61394 0.30279 0.20071 0.0
C434 C 0.62507 0.36002 0.24646 0.0
O435 O 0.60799 0.35708 0.25998 0.0
O436 O 0.57284 0.33795 0.21468 0.0
C437 C 0.62728 0.3079 0.18498 0.0
O438 O 0.63342 0.32886 0.18251 0.0
C439 C 0.6007 0.28838 0.25573 0.0
O440 O 0.60403 0.27535 0.23834 0.0
O441 O 0.62582 0.34894 0.22832 0.0
C442 C 0.16913 0.05552 0.68279 0.0
O443 O 0.17977 0.06889 0.66897 0.0
O444 O 0.18674 0.08725 0.74638 0.0
Zn445 Zn 0.17662 0.09139 0.71447 0.0
O446 O 0.20337 0.10155 0.69681 0.0
C447 C 0.14102 0.11859 0.73144 0.0
O448 O 0.14107 0.10313 0.74708 0.0
O449 O 0.16504 0.06216 0.70258 0.0
C450 C 0.20189 0.11558 0.68092 0.0
O451 O 0.18211 0.12324 0.67514 0.0
C452 C 0.20693 0.08308 0.75161 0.0
O453 O 0.22175 0.08006 0.73567 0.0
O454 O 0.15377 0.11618 0.7146 0.0
C455 C 0.4433 0.69019 0.21197 0.0
O456 O 0.43442 0.7103 0.21164 0.0
O457 O 0.40617 0.69159 0.2654 0.0
Zn458 Zn 0.40211 0.68026 0.23394 0.0
O459 O 0.38462 0.70385 0.21743 0.0
C460 C 0.3688 0.64655 0.2222 0.0
O461 O 0.36834 0.65668 0.20271 0.0
O462 O 0.43216 0.6741 0.22027 0.0
C463 C 0.38362 0.70741 0.1965 0.0
O464 O 0.39525 0.69479 0.18275 0.0
C465 C 0.40778 0.71234 0.26977 0.0
O466 O 0.40849 0.72675 0.25319 0.0
O467 O 0.38295 0.65279 0.23678 0.0
C468 C 0.81567 0.06909 0.29239 0.0
O469 O 0.79789 0.07986 0.29958 0.0
O470 O 0.80774 0.12443 0.26468 0.0
Zn471 Zn 0.82913 0.1136 0.28832 0.0
O472 O 0.81444 0.12221 0.31721 0.0
C473 C 0.86517 0.12949 0.26308 0.0
O474 O 0.85599 0.11526 0.24905 0.0
O475 O 0.83269 0.0803 0.28641 0.0
C476 C 0.81612 0.14183 0.32516 0.0
O477 O 0.83027 0.15591 0.31596 0.0
C478 C 0.79936 0.1137 0.24834 0.0
O479 O 0.80459 0.09256 0.24537 0.0
O480 O 0.85766 0.13045 0.28294 0.0
C481 C 0.4293 0.30838 0.80269 0.0
O482 O 0.41884 0.28911 0.80413 0.0
O483 O 0.39535 0.30515 0.749 0.0
Zn484 Zn 0.38959 0.31887 0.77915 0.0
O485 O 0.37115 0.29686 0.79684 0.0
C486 C 0.35391 0.35214 0.78238 0.0
O487 O 0.34762 0.3407 0.80006 0.0
O488 O 0.41954 0.32475 0.79326 0.0
C489 C 0.36969 0.29575 0.81802 0.0
O490 O 0.38046 0.31038 0.83039 0.0
C491 C 0.3956 0.28422 0.74527 0.0
O492 O 0.39275 0.27025 0.762 0.0
O493 O 0.37194 0.34677 0.77247 0.0
C494 C 0.17042 0.9392 0.30544 0.0
O495 O 0.17982 0.92632 0.32056 0.0
O496 O 0.18249 0.90091 0.24344 0.0
Zn497 Zn 0.17507 0.90041 0.27626 0.0
O498 O 0.20284 0.88975 0.29186 0.0
C499 C 0.13587 0.87614 0.26516 0.0
O500 O 0.13505 0.89169 0.24963 0.0
O501 O 0.16631 0.9313 0.28612 0.0
C502 C 0.20303 0.87987 0.31065 0.0
O503 O 0.18417 0.87698 0.32156 0.0
C504 C 0.2022 0.90489 0.23656 0.0
O505 O 0.21771 0.9104 0.25112 0.0
O506 O 0.15084 0.87747 0.28019 0.0
C507 C 0.56307 0.65203 0.8147 0.0
O508 O 0.57547 0.66328 0.82893 0.0
O509 O 0.60107 0.66264 0.75391 0.0
Zn510 Zn 0.60236 0.65459 0.78653 0.0
O511 O 0.61336 0.68164 0.80335 0.0
C512 C 0.62314 0.61356 0.77503 0.0
O513 O 0.60511 0.61212 0.76253 0.0
O514 O 0.57155 0.64572 0.79626 0.0
C515 C 0.62647 0.68015 0.82002 0.0
O516 O 0.63262 0.66026 0.82709 0.0
C517 C 0.59601 0.68199 0.74671 0.0
O518 O 0.59059 0.69775 0.76106 0.0
O519 O 0.62479 0.62974 0.78872 0.0
C520 C 0.67822 0.82913 0.92093 0.0
O521 O 0.66544 0.81461 0.91051 0.0
O522 O 0.73737 0.81271 0.88645 0.0
Zn523 Zn 0.70604 0.82426 0.88165 0.0
O524 O 0.68708 0.7984 0.87134 0.0
C525 C 0.72104 0.83986 0.84119 0.0
O526 O 0.72851 0.81921 0.84226 0.0
O527 O 0.69546 0.83668 0.91105 0.0
C528 C 0.67155 0.80027 0.85695 0.0
O529 O 0.66692 0.8201 0.84864 0.0
C530 C 0.74215 0.7923 0.89 0.0
O531 O 0.72589 0.77778 0.89269 0.0
O532 O 0.70874 0.84721 0.85692 0.0
C533 C 0.68539 0.1681 0.06878 0.0
O534 O 0.67038 0.17872 0.08081 0.0
O535 O 0.74604 0.19321 0.09871 0.0
Zn536 Zn 0.71609 0.17921 0.10513 0.0
O537 O 0.69496 0.20276 0.11681 0.0
C538 C 0.72955 0.16513 0.14711 0.0
O539 O 0.73025 0.18706 0.14858 0.0
O540 O 0.70505 0.16561 0.07649 0.0
C541 C 0.67878 0.19796 0.12974 0.0
O542 O 0.67512 0.17692 0.13494 0.0
C543 C 0.75069 0.21379 0.10136 0.0
O544 O 0.73486 0.2277 0.10763 0.0
O545 O 0.72244 0.15637 0.12908 0.0
C546 C 0.33664 0.19485 0.56343 0.0
O547 O 0.33068 0.17772 0.57583 0.0
O548 O 0.31389 0.25206 0.60463 0.0
Zn549 Zn 0.32478 0.22035 0.60267 0.0
O550 O 0.29851 0.20059 0.60955 0.0
C551 C 0.36227 0.23287 0.6287 0.0
O552 O 0.36304 0.24849 0.61324 0.0
O553 O 0.33629 0.21438 0.57183 0.0
C554 C 0.30016 0.18323 0.62168 0.0
O555 O 0.31989 0.17731 0.62936 0.0
C556 C 0.29548 0.25889 0.59649 0.0
O557 O 0.28294 0.24493 0.58504 0.0
O558 O 0.34809 0.21719 0.62665 0.0
C559 C 0.29586 0.8335 0.06397 0.0
O560 O 0.31422 0.83248 0.07601 0.0
O561 O 0.24588 0.79784 0.10576 0.0
Zn562 Zn 0.27421 0.81605 0.10375 0.0
O563 O 0.30046 0.79692 0.11263 0.0
C564 C 0.25227 0.85166 0.12639 0.0
O565 O 0.23648 0.84624 0.1121 0.0
O566 O 0.27739 0.82749 0.07256 0.0
C567 C 0.30294 0.79306 0.13338 0.0
O568 O 0.28884 0.80211 0.14761 0.0
C569 C 0.24517 0.77673 0.10838 0.0
O570 O 0.26391 0.76529 0.10919 0.0
O571 O 0.27096 0.84158 0.12537 0.0
C572 C 0.65947 0.77962 0.56377 0.0
O573 O 0.66844 0.79611 0.57521 0.0
O574 O 0.68485 0.72642 0.60477 0.0
Zn575 Zn 0.6661 0.75441 0.60474 0.0
O576 O 0.68579 0.77844 0.61778 0.0
C577 C 0.6329 0.72995 0.62904 0.0
O578 O 0.64003 0.71371 0.61605 0.0
O579 O 0.65628 0.7609 0.5733 0.0
C580 C 0.69259 0.77371 0.63738 0.0
O581 O 0.68552 0.75513 0.64678 0.0
C582 C 0.70544 0.72702 0.59949 0.0
O583 O 0.7141 0.74594 0.5924 0.0
O584 O 0.64043 0.7496 0.626 0.0
C585 C 0.30297 0.16407 0.92939 0.0
O586 O 0.31226 0.1812 0.91924 0.0
O587 O 0.24956 0.17298 0.88879 0.0
Zn588 Zn 0.28055 0.16006 0.88724 0.0
O589 O 0.30057 0.18373 0.87414 0.0
C590 C 0.26113 0.12252 0.86527 0.0
O591 O 0.2457 0.12604 0.88052 0.0
O592 O 0.28965 0.1516 0.91846 0.0
C593 C 0.2977 0.18909 0.85377 0.0
O594 O 0.28258 0.17837 0.84195 0.0
C595 C 0.24553 0.1937 0.89131 0.0
O596 O 0.26227 0.20773 0.89373 0.0
O597 O 0.27903 0.13397 0.86598 0.0
C598 C 0.33424 0.81781 0.4439 0.0
O599 O 0.32297 0.83267 0.43227 0.0
O600 O 0.31132 0.76251 0.40541 0.0
Zn601 Zn 0.32855 0.79143 0.40403 0.0
O602 O 0.30655 0.81436 0.39301 0.0
C603 C 0.36372 0.76891 0.3808 0.0
O604 O 0.35936 0.75361 0.39598 0.0
O605 O 0.33945 0.79928 0.43484 0.0
C606 C 0.30403 0.81869 0.37237 0.0
O607 O 0.31729 0.80915 0.35767 0.0
C608 C 0.29077 0.76254 0.41092 0.0
O609 O 0.28136 0.78143 0.41709 0.0
O610 O 0.35346 0.78751 0.38173 0.0
C611 C 0.667 0.19681 0.43581 0.0
O612 O 0.6774 0.17997 0.42626 0.0
O613 O 0.68924 0.25275 0.39412 0.0
Zn614 Zn 0.67817 0.2209 0.39497 0.0
O615 O 0.70431 0.20075 0.38857 0.0
C616 C 0.64094 0.23379 0.36893 0.0
O617 O 0.63956 0.24846 0.38525 0.0
O618 O 0.66488 0.21512 0.42522 0.0
C619 C 0.70258 0.1812 0.38045 0.0
O620 O 0.68261 0.17286 0.37665 0.0
C621 C 0.70982 0.25804 0.39481 0.0
O622 O 0.72493 0.24225 0.39724 0.0
O623 O 0.65565 0.21849 0.37018 0.0
H624 H 0.96573 0.26919 0.13406 0.0
H625 H 0.96599 0.33436 0.16526 0.0
H626 H 0.00677 0.33514 0.16372 0.0
H627 H 0.04217 0.31511 0.15828 0.0
H628 H 0.04184 0.24952 0.12795 0.0
H629 H 0.00124 0.25127 0.12415 0.0
C630 C 0.97468 0.28374 0.1402 0.0
C631 C 0.96285 0.30149 0.15016 0.0
C632 C 0.99812 0.28391 0.13963 0.0
C633 C 0.97468 0.32037 0.1577 0.0
C634 C 0.99802 0.32079 0.15693 0.0
C635 C 0.03326 0.30132 0.15053 0.0
C636 C 0.04497 0.28203 0.14381 0.0
C637 C 0.0099 0.30229 0.14869 0.0
C638 C 0.03323 0.26448 0.13347 0.0
C639 C 0.00999 0.26543 0.13136 0.0
H640 H 0.17531 0.53327 0.6672 0.0
H641 H 0.24492 0.53675 0.64818 0.0
H642 H 0.24617 0.4962 0.64425 0.0
H643 H 0.22895 0.45973 0.65065 0.0
H644 H 0.15979 0.4558 0.67105 0.0
H645 H 0.15684 0.49656 0.66961 0.0
C646 C 0.19065 0.5252 0.66183 0.0
C647 C 0.21008 0.538 0.65836 0.0
C648 C 0.1914 0.50178 0.66002 0.0
C649 C 0.22979 0.52728 0.65126 0.0
C650 C 0.23054 0.50407 0.64903 0.0
C651 C 0.21312 0.46774 0.6545 0.0
C652 C 0.19474 0.45476 0.66132 0.0
C653 C 0.21167 0.49113 0.65409 0.0
C654 C 0.17427 0.4654 0.66592 0.0
C655 C 0.17259 0.48873 0.6652 0.0
H656 H 0.03416 0.72608 0.1505 0.0
H657 H 0.03586 0.65914 0.17762 0.0
H658 H 0.9955 0.65574 0.17215 0.0
H659 H 0.95931 0.67351 0.16391 0.0
H660 H 0.95783 0.74106 0.13826 0.0
H661 H -0.00142 0.74235 0.13869 0.0
C662 C 0.02578 0.71062 0.15498 0.0
C663 C 0.03796 0.69303 0.1648 0.0
C664 C 0.00257 0.70894 0.1522 0.0
C665 C 0.02687 0.67301 0.17019 0.0
C666 C 0.00376 0.67108 0.16714 0.0
C667 C 0.9679 0.68838 0.15805 0.0
C668 C 0.95552 0.70727 0.15137 0.0
C669 C 0.99136 0.6892 0.1588 0.0
C670 C 0.96693 0.72636 0.14373 0.0
C671 C 0.99025 0.72715 0.14401 0.0
H672 H 0.83669 0.45668 0.69847 0.0
H673 H 0.77955 0.44637 0.65558 0.0
H674 H 0.77176 0.48651 0.65587 0.0
H675 H 0.77922 0.52388 0.67098 0.0
H676 H 0.83455 0.53372 0.7163 0.0
H677 H 0.84517 0.49441 0.71225 0.0
C678 C 0.82274 0.46327 0.68892 0.0
C679 C 0.80868 0.44862 0.67707 0.0
C680 C 0.81796 0.48624 0.68973 0.0
C681 C 0.79053 0.45734 0.66493 0.0
C682 C 0.78606 0.48026 0.6651 0.0
C683 C 0.7938 0.51751 0.67971 0.0
C684 C 0.80606 0.53163 0.69397 0.0
C685 C 0.79937 0.49479 0.67785 0.0
C686 C 0.82479 0.52311 0.70532 0.0
C687 C 0.83085 0.50065 0.70303 0.0
H688 H 0.94658 0.67302 0.81689 0.0
H689 H 0.94981 0.73823 0.84786 0.0
H690 H 0.98994 0.73381 0.85355 0.0
H691 H 0.0245 0.71381 0.8453 0.0
H692 H 0.02198 0.64962 0.81224 0.0
H693 H 0.98113 0.65105 0.81228 0.0
C694 C 0.956 0.68609 0.82524 0.0
C695 C 0.9453 0.70607 0.83162 0.0
C696 C 0.97922 0.68369 0.82796 0.0
C697 C 0.95771 0.72281 0.84249 0.0
C698 C 0.98066 0.72031 0.84577 0.0
C699 C 0.01506 0.69993 0.83842 0.0
C700 C 0.0263 0.68183 0.82841 0.0
C701 C 0.99168 0.70118 0.83787 0.0
C702 C 0.01376 0.66387 0.81985 0.0
C703 C 0.99039 0.66472 0.81977 0.0
H704 H 0.79398 0.53757 0.34616 0.0
H705 H 0.84421 0.54472 0.29479 0.0
H706 H 0.84901 0.50415 0.2935 0.0
H707 H 0.83519 0.46677 0.30319 0.0
H708 H 0.78284 0.45975 0.35242 0.0
H709 H 0.7828 0.50014 0.35852 0.0
C710 C 0.80634 0.5303 0.33503 0.0
C711 C 0.81856 0.54411 0.32042 0.0
C712 C 0.80842 0.50695 0.3338 0.0
C713 C 0.83445 0.53442 0.30606 0.0
C714 C 0.83715 0.51122 0.30526 0.0
C715 C 0.82407 0.47402 0.31556 0.0
C716 C 0.80885 0.46032 0.32713 0.0
C717 C 0.82364 0.49731 0.31846 0.0
C718 C 0.79455 0.46997 0.34311 0.0
C719 C 0.79449 0.49307 0.34659 0.0
H720 H 0.04282 0.26863 0.85053 0.0
H721 H 0.04726 0.33808 0.83116 0.0
H722 H 0.00705 0.34249 0.83698 0.0
H723 H 0.97017 0.3253 0.84278 0.0
H724 H 0.96592 0.25542 0.86069 0.0
H725 H 0.00659 0.25262 0.86053 0.0
C726 C 0.03506 0.28483 0.84785 0.0
C727 C 0.04794 0.30288 0.84002 0.0
C728 C 0.01194 0.28713 0.85082 0.0
C729 C 0.0377 0.32384 0.83699 0.0
C730 C 0.01468 0.32637 0.84024 0.0
C731 C 0.97813 0.30956 0.84705 0.0
C732 C 0.96502 0.29051 0.85136 0.0
C733 C 0.00155 0.30793 0.84643 0.0
C734 C 0.97562 0.27028 0.85703 0.0
C735 C -0.00112 0.26864 0.85688 0.0
H736 H 0.17451 0.4802 0.31509 0.0
H737 H 0.23111 0.46908 0.35852 0.0
H738 H 0.23556 0.50945 0.36337 0.0
H739 H 0.22672 0.54761 0.35089 0.0
H740 H 0.17234 0.55828 0.30463 0.0
H741 H 0.16349 0.5184 0.30545 0.0
C742 C 0.18753 0.48657 0.32601 0.0
C743 C 0.2026 0.47169 0.33625 0.0
C744 C 0.19053 0.50975 0.32798 0.0
C745 C 0.21941 0.48022 0.3503 0.0
C746 C 0.22201 0.5033 0.35301 0.0
C747 C 0.21264 0.54126 0.34137 0.0
C748 C 0.20031 0.55578 0.32756 0.0
C749 C 0.20819 0.5182 0.34127 0.0
C750 C 0.18219 0.54735 0.31522 0.0
C751 C 0.17715 0.52456 0.31565 0.0
H752 H 0.15182 0.96987 0.27768 0.0
H753 H 0.18307 0.96305 0.34245 0.0
H754 H 0.18355 0.00371 0.3467 0.0
H755 H 0.17886 0.04115 0.33014 0.0
H756 H 0.1489 0.04746 0.2647 0.0
H757 H 0.14401 0.00705 0.26273 0.0
C758 C 0.1585 0.97723 0.29287 0.0
C759 C 0.16768 0.96344 0.30957 0.0
C760 C 0.15911 0.00056 0.29502 0.0
C761 C 0.17603 0.97328 0.32924 0.0
C762 C 0.17638 0.99654 0.33167 0.0
C763 C 0.17094 0.03371 0.31562 0.0
C764 C 0.16453 0.04727 0.29748 0.0
C765 C 0.16855 0.01036 0.31438 0.0
C766 C 0.15424 0.03738 0.27879 0.0
C767 C 0.15144 0.01426 0.27762 0.0
H768 H 0.538 0.67179 0.84717 0.0
H769 H 0.53311 0.62898 0.78917 0.0
H770 H 0.49248 0.63223 0.78989 0.0
H771 H 0.45898 0.65108 0.80388 0.0
H772 H 0.46375 0.69493 0.86108 0.0
H773 H 0.50376 0.68717 0.86393 0.0
C774 C 0.52804 0.66282 0.83495 0.0
C775 C 0.53861 0.65048 0.81791 0.0
C776 C 0.50467 0.66515 0.83515 0.0
C777 C 0.52542 0.63883 0.8023 0.0
C778 C 0.50217 0.64073 0.80265 0.0
C779 C 0.46869 0.65873 0.81716 0.0
C780 C 0.45848 0.67387 0.83198 0.0
C781 C 0.49171 0.65449 0.81849 0.0
C782 C 0.47124 0.68336 0.84931 0.0
C783 C 0.49414 0.67899 0.85092 0.0
H784 H 0.78092 0.04152 0.30128 0.0
H785 H 0.84908 0.04148 0.27742 0.0
H786 H 0.84698 0.00114 0.27091 0.0
H787 H 0.82508 0.96624 0.2703 0.0
H788 H 0.7566 0.96703 0.29331 0.0
H789 H 0.75962 0.00674 0.30191 0.0
C790 C 0.79539 0.03271 0.29478 0.0
C791 C 0.81508 0.04452 0.28975 0.0
C792 C 0.79399 0.00965 0.29084 0.0
C793 C 0.83368 0.03279 0.28138 0.0
C794 C 0.83249 0.00973 0.27762 0.0
C795 C 0.81088 0.97508 0.27735 0.0
C796 C 0.79062 0.96371 0.28103 0.0
C797 C 0.81263 0.99804 0.28204 0.0
C798 C 0.77236 0.97539 0.29016 0.0
C799 C 0.77405 0.99812 0.29511 0.0
H800 H 0.53053 0.28994 0.8216 0.0
H801 H 0.53752 0.3487 0.78017 0.0
H802 H 0.49704 0.35431 0.78095 0.0
H803 H 0.45953 0.33966 0.78932 0.0
H804 H 0.45286 0.2796 0.82889 0.0
H805 H 0.49338 0.27755 0.83314 0.0
C806 C 0.52328 0.30418 0.81299 0.0
C807 C 0.537 0.31866 0.80055 0.0
C808 C 0.50001 0.30698 0.81305 0.0
C809 C 0.52731 0.33716 0.7897 0.0
C810 C 0.50415 0.34035 0.79009 0.0
C811 C 0.46693 0.32639 0.79925 0.0
C812 C 0.45325 0.30965 0.80855 0.0
C813 C 0.49029 0.32494 0.80109 0.0
C814 C 0.46306 0.29255 0.82136 0.0
C815 C 0.48623 0.29133 0.82376 0.0
H816 H 0.14551 0.02456 0.70608 0.0
H817 H 0.18533 0.03295 0.64642 0.0
H818 H 0.18575 0.9925 0.64072 0.0
H819 H 0.17913 0.95469 0.65557 0.0
H820 H 0.13995 0.94663 0.71574 0.0
H821 H 0.13478 0.98697 0.71813 0.0
C822 C 0.154 0.01758 0.69163 0.0
C823 C 0.16572 0.03172 0.67695 0.0
C824 C 0.15448 0.99432 0.68864 0.0
C825 C 0.17632 0.02244 0.65811 0.0
C826 C 0.17666 -0.00072 0.65488 0.0
C827 C 0.16914 0.96172 0.66898 0.0
C828 C 0.16034 0.94767 0.68568 0.0
C829 C 0.16648 0.98503 0.67048 0.0
C830 C 0.14721 0.95706 0.70282 0.0
C831 C 0.14425 0.98016 0.70425 0.0
H832 H 0.46933 0.65347 0.21881 0.0
H833 H 0.47022 0.71978 0.19012 0.0
H834 H 0.51028 0.71644 0.1831 0.0
H835 H 0.54548 0.69628 0.18842 0.0
H836 H 0.54503 0.63072 0.21879 0.0
H837 H 0.50429 0.6321 0.22157 0.0
C838 C 0.47822 0.66708 0.21074 0.0
C839 C 0.46685 0.68694 0.20522 0.0
C840 C 0.50135 0.66524 0.20718 0.0
C841 C 0.47861 0.70439 0.19474 0.0
C842 C 0.50153 0.70251 0.19073 0.0
C843 C 0.53648 0.68214 0.19539 0.0
C844 C 0.54831 0.66353 0.2036 0.0
C845 C 0.51315 0.68325 0.1974 0.0
C846 C 0.53635 0.64533 0.21249 0.0
C847 C 0.51305 0.64612 0.21414 0.0
H848 H 0.78502 0.03856 0.68157 0.0
H849 H 0.85007 0.03809 0.71295 0.0
H850 H 0.85322 0.99788 0.70632 0.0
H851 H 0.83588 0.96241 0.695 0.0
H852 H 0.77045 0.96297 0.66434 0.0
H853 H 0.76923 0.00366 0.66711 0.0
C854 C 0.8 0.02972 0.68678 0.0
C855 C 0.81713 0.04125 0.69803 0.0
C856 C 0.80159 0.0066 0.68315 0.0
C857 C 0.83655 0.02959 0.70439 0.0
C858 C 0.83835 0.00658 0.70066 0.0
C859 C 0.82147 0.97143 0.68865 0.0
C860 C 0.80316 0.95961 0.67976 0.0
C861 C 0.82072 0.99483 0.69057 0.0
C862 C 0.78471 0.97161 0.67144 0.0
C863 C 0.78396 0.99489 0.67306 0.0
H864 H 0.5377 0.35976 0.22347 0.0
H865 H 0.53395 0.3188 0.16407 0.0
H866 H 0.49333 0.32285 0.16361 0.0
H867 H 0.45879 0.33409 0.18271 0.0
H868 H 0.46258 0.37423 0.24267 0.0
H869 H 0.5033 0.37462 0.24008 0.0
C870 C 0.52804 0.35197 0.21022 0.0
C871 C 0.53882 0.33867 0.19406 0.0
C872 C 0.50468 0.35405 0.21026 0.0
C873 C 0.52608 0.32897 0.17684 0.0
C874 C 0.50283 0.3312 0.17661 0.0
C875 C 0.4685 0.34319 0.19505 0.0
C876 C 0.45766 0.35377 0.21308 0.0
C877 C 0.49192 0.34308 0.19366 0.0
C878 C 0.47048 0.36575 0.22874 0.0
C879 C 0.49379 0.36593 0.22731 0.0
H880 H 0.2858 0.15309 0.03226 0.0
H881 H 0.32782 0.21182 0.03403 0.0
H882 H 0.33519 0.208 0.99406 0.0
H883 H 0.32609 0.19071 0.95802 0.0
H884 H 0.28307 0.13271 0.9561 0.0
H885 H 0.28004 0.13335 0.99679 0.0
C886 C 0.2968 0.16491 0.02398 0.0
C887 C 0.30593 0.18293 0.03604 0.0
C888 C 0.30071 0.16282 0.00094 0.0
C889 C 0.32039 0.19791 0.02511 0.0
C890 C 0.32458 0.19577 0.00223 0.0
C891 C 0.31633 0.17798 0.9665 0.0
C892 C 0.30453 0.16192 0.95399 0.0
C893 C 0.31428 0.1787 0.98987 0.0
C894 C 0.29216 0.14541 0.96529 0.0
C895 C 0.29034 0.1458 0.98857 0.0
H896 H 0.26068 0.8409 0.03647 0.0
H897 H 0.33288 0.84001 0.03776 0.0
H898 H 0.33383 0.84606 0.99731 0.0
H899 H 0.31405 0.84798 0.96128 0.0
H900 H 0.2418 0.84768 0.96032 0.0
H901 H 0.24103 0.84595 0.00105 0.0
C902 C 0.27666 0.8422 0.02796 0.0
C903 C 0.29667 0.83969 0.04005 0.0
C904 C 0.27707 0.84538 0.00476 0.0
C905 C 0.31722 0.84174 0.02882 0.0
C906 C 0.31777 0.84515 0.00568 0.0
C907 C 0.29813 0.84786 0.96999 0.0
C908 C 0.27802 0.84768 0.95777 0.0
C909 C 0.29779 0.84646 0.99343 0.0
C910 C 0.25754 0.84761 0.96931 0.0
C911 C 0.25706 0.84658 0.99261 0.0
H912 H 0.67 0.81499 0.53703 0.0
H913 H 0.64155 0.74859 0.53548 0.0
H914 H 0.64111 0.74945 0.49472 0.0
H915 H 0.65253 0.76727 0.45968 0.0
H916 H 0.68196 0.83323 0.46107 0.0
H917 H 0.67799 0.83439 0.50169 0.0
C918 C 0.6634 0.80083 0.5278 0.0
C919 C 0.65613 0.78164 0.53932 0.0
C920 C 0.66351 0.80127 0.50431 0.0
C921 C 0.64748 0.7635 0.52706 0.0
C922 C 0.64724 0.76395 0.50372 0.0
C923 C 0.65782 0.78204 0.46881 0.0
C924 C 0.66783 0.79999 0.45736 0.0
C925 C 0.65582 0.78246 0.49219 0.0
C926 C 0.67436 0.81908 0.46946 0.0
C927 C 0.67216 0.81974 0.49272 0.0
H928 H 0.71332 0.14759 0.03949 0.0
H929 H 0.64761 0.17718 0.0445 0.0
H930 H 0.64337 0.17508 0.0039 0.0
H931 H 0.66045 0.16957 0.96686 0.0
H932 H 0.72692 0.14161 0.96222 0.0
H933 H 0.72861 0.13819 0.00281 0.0
C934 C 0.69791 0.15328 0.03177 0.0
C935 C 0.68098 0.1629 0.04499 0.0
C936 C 0.69581 0.15254 0.00844 0.0
C937 C 0.66101 0.16989 0.03471 0.0
C938 C 0.6586 0.16879 0.01147 0.0
C939 C 0.67514 0.16237 0.9747 0.0
C940 C 0.69367 0.15621 0.96155 0.0
C941 C 0.67622 0.16089 0.99813 0.0
C942 C 0.71254 0.14678 0.97197 0.0
C943 C 0.71354 0.14483 0.99519 0.0
H944 H 0.34906 0.2268 0.53372 0.0
H945 H 0.33195 0.15677 0.53842 0.0
H946 H 0.33196 0.15384 0.49766 0.0
H947 H 0.33273 0.17219 0.46087 0.0
H948 H 0.34869 0.24254 0.45655 0.0
H949 H 0.35337 0.24422 0.49701 0.0
C950 C 0.34561 0.2108 0.52587 0.0
C951 C 0.34019 0.19212 0.5391 0.0
C952 C 0.34523 0.20933 0.50248 0.0
C953 C 0.33603 0.17147 0.52864 0.0
C954 C 0.33594 0.16979 0.50532 0.0
C955 C 0.33751 0.18782 0.46873 0.0
C956 C 0.34002 0.20727 0.45571 0.0
C957 C 0.33987 0.18878 0.49208 0.0
C958 C 0.3464 0.22736 0.46618 0.0
C959 C 0.34907 0.22836 0.48933 0.0
H960 H 0.69273 0.83948 0.02406 0.0
H961 H 0.6388 0.79148 0.02519 0.0
H962 H 0.63377 0.79589 0.98488 0.0
H963 H 0.64805 0.80955 0.94886 0.0
H964 H 0.70277 0.8567 0.94785 0.0
H965 H 0.70381 0.85673 0.98861 0.0
C966 C 0.67967 0.83019 0.01555 0.0
C967 C 0.66645 0.81486 0.02754 0.0
C968 C 0.67708 0.83256 0.99236 0.0
C969 C 0.64935 0.80325 0.01633 0.0
C970 C 0.6465 0.80571 0.99325 0.0
C971 C 0.65992 0.82018 0.95753 0.0
C972 C 0.67558 0.83277 0.94528 0.0
C973 C 0.66077 0.81975 0.98101 0.0
C974 C 0.6907 0.84662 0.95683 0.0
C975 C 0.69137 0.84658 0.98017 0.0
H976 H 0.6499 0.21594 0.53732 0.0
H977 H 0.68528 0.15328 0.54375 0.0
H978 H 0.68426 0.14832 0.50318 0.0
H979 H 0.67758 0.16422 0.46583 0.0
H980 H 0.64343 0.22765 0.45976 0.0
H981 H 0.63948 0.22969 0.50028 0.0
C982 C 0.65715 0.20104 0.52989 0.0
C983 C 0.668 0.18521 0.54349 0.0
C984 C 0.65687 0.19851 0.5066 0.0
C985 C 0.67698 0.16583 0.53364 0.0
C986 C 0.67648 0.16302 0.51043 0.0
C987 C 0.66893 0.1783 0.47334 0.0
C988 C 0.66117 0.19594 0.45981 0.0
C989 C 0.66712 0.17962 0.49672 0.0
C990 C 0.64984 0.21398 0.46981 0.0
C991 C 0.6476 0.2152 0.49299 0.0
H992 H 0.36153 0.79422 0.47158 0.0
H993 H 0.31315 0.84788 0.47093 0.0
H994 H 0.31228 0.84795 0.51171 0.0
H995 H 0.32139 0.82936 0.54715 0.0
H996 H 0.36993 0.7759 0.54798 0.0
H997 H 0.37485 0.7794 0.50756 0.0
C998 C 0.35108 0.80617 0.48039 0.0
C999 C 0.33711 0.82071 0.46826 0.0
C1000 C 0.35054 0.80604 0.50385 0.0
C1001 C 0.32395 0.83639 0.47986 0.0
C1002 C 0.32334 0.83637 0.5032 0.0
C1003 C 0.33331 0.81873 0.53852 0.0
C1004 C 0.34496 0.80214 0.55041 0.0
C1005 C 0.33596 0.82074 0.5153 0.0
C1006 C 0.36066 0.78873 0.53915 0.0
C1007 C 0.3634 0.79063 0.51602 0.0
H1008 H 0.15096 0.36183 0.29361 0.0
H1009 H 0.18298 0.41114 0.25174 0.0
H1010 H 0.16323 0.39658 0.21904 0.0
H1011 H 0.13989 0.36734 0.20179 0.0
H1012 H 0.11028 0.31647 0.24358 0.0
H1013 H 0.12586 0.33424 0.27685 0.0
C1014 C 0.15333 0.36965 0.27741 0.0
C1015 C 0.16849 0.38745 0.27508 0.0
C1016 C 0.14247 0.36077 0.2586 0.0
C1017 C 0.17148 0.39731 0.25394 0.0
C1018 C 0.16023 0.38897 0.23522 0.0
C1019 C 0.13656 0.3604 0.21823 0.0
C1020 C 0.12408 0.34058 0.22025 0.0
C1021 C 0.14614 0.37033 0.23726 0.0
C1022 C 0.12001 0.33164 0.24161 0.0
C1023 C 0.12891 0.34177 0.26064 0.0
H1024 H 0.14784 0.64281 0.79378 0.0
H1025 H 0.10323 0.67926 0.75016 0.0
H1026 H 0.12225 0.66392 0.71749 0.0
H1027 H 0.15335 0.64256 0.70132 0.0
H1028 H 0.19847 0.60678 0.74498 0.0
H1029 H 0.17733 0.61935 0.77753 0.0
C1030 C 0.14209 0.6472 0.77714 0.0
C1031 C 0.12426 0.66232 0.77447 0.0
C1032 C 0.1533 0.63856 0.75838 0.0
C1033 C 0.11701 0.66776 0.75274 0.0
C1034 C 0.12791 0.65903 0.73401 0.0
C1035 C 0.15845 0.63732 0.71793 0.0
C1036 C 0.1776 0.62393 0.72067 0.0
C1037 C 0.14636 0.6448 0.73664 0.0
C1038 C 0.18388 0.61721 0.74234 0.0
C1039 C 0.17181 0.62441 0.76101 0.0
H1040 H 0.85867 0.63941 0.27975 0.0
H1041 H 0.78825 0.6534 0.2716 0.0
H1042 H 0.79637 0.67753 0.23984 0.0
H1043 H 0.82326 0.69492 0.21446 0.0
H1044 H 0.89368 0.68067 0.22172 0.0
H1045 H 0.88572 0.65635 0.25362 0.0
C1046 C 0.84512 0.64778 0.27105 0.0
C1047 C 0.82291 0.64462 0.27812 0.0
C1048 C 0.84987 0.66156 0.25257 0.0
C1049 C 0.80552 0.65547 0.26653 0.0
C1050 C 0.81012 0.66932 0.24834 0.0
C1051 C 0.83689 0.68648 0.22298 0.0
C1052 C 0.85901 0.68966 0.21574 0.0
C1053 C 0.83221 0.67249 0.24123 0.0
C1054 C 0.87646 0.6785 0.22692 0.0
C1055 C 0.87194 0.66462 0.24521 0.0
H1056 H 0.88932 0.31773 0.77849 0.0
H1057 H 0.85612 0.35276 0.83225 0.0
H1058 H 0.83721 0.37681 0.8051 0.0
H1059 H 0.82688 0.38479 0.76613 0.0
H1060 H 0.85923 0.34867 0.71255 0.0
H1061 H 0.88191 0.3283 0.73969 0.0
C1062 C 0.87815 0.3308 0.78433 0.0
C1063 C 0.87387 0.33321 0.80735 0.0
C1064 C 0.86707 0.34426 0.76866 0.0
C1065 C 0.85961 0.35044 0.81462 0.0
C1066 C 0.84871 0.36414 0.7991 0.0
C1067 C 0.83912 0.37272 0.76035 0.0
C1068 C 0.84111 0.36803 0.73735 0.0
C1069 C 0.85182 0.36074 0.77607 0.0
C1070 C 0.8572 0.35246 0.73016 0.0
C1071 C 0.87014 0.34075 0.74567 0.0
H1072 H 0.26692 0.18681 0.36742 0.0
H1073 H 0.32217 0.14182 0.35536 0.0
H1074 H 0.29728 0.1164 0.3352 0.0
H1075 H 0.2605 0.10847 0.31855 0.0
H1076 H 0.20579 0.15437 0.32964 0.0
H1077 H 0.22984 0.17782 0.35279 0.0
C1078 C 0.27354 0.17134 0.36059 0.0
C1079 C 0.29644 0.16633 0.36277 0.0
C1080 C 0.25924 0.15701 0.34875 0.0
C1081 C 0.30464 0.14616 0.35386 0.0
C1082 C 0.29042 0.13163 0.34229 0.0
C1083 C 0.25375 0.12345 0.32626 0.0
C1084 C 0.2314 0.12972 0.32222 0.0
C1085 C 0.26779 0.1371 0.33926 0.0
C1086 C 0.22295 0.14921 0.33233 0.0
C1087 C 0.2367 0.16266 0.34556 0.0
H1088 H 0.30455 0.77185 0.88713 0.0
H1089 H 0.34518 0.82064 0.85267 0.0
H1090 H 0.37001 0.79093 0.83958 0.0
H1091 H 0.37803 0.751 0.83507 0.0
H1092 H 0.33665 0.70212 0.86852 0.0
H1093 H 0.31439 0.73211 0.88511 0.0
C1094 C 0.31896 0.77606 0.87694 0.0
C1095 C 0.32284 0.79843 0.87065 0.0
C1096 C 0.33296 0.75889 0.86922 0.0
C1097 C 0.34171 0.80356 0.85763 0.0
C1098 C 0.3559 0.78657 0.8501 0.0
C1099 C 0.36431 0.74686 0.8462 0.0
C1100 C 0.35885 0.72432 0.85033 0.0
C1101 C 0.35135 0.76415 0.85535 0.0
C1102 C 0.34114 0.71931 0.86494 0.0
C1103 C 0.32835 0.73645 0.87438 0.0
H1104 H 0.72867 0.83053 0.37663 0.0
H1105 H 0.67597 0.83445 0.32742 0.0
H1106 H 0.69976 0.85738 0.30339 0.0
H1107 H 0.73649 0.87393 0.29519 0.0
H1108 H 0.78876 0.87112 0.34488 0.0
H1109 H 0.76416 0.85014 0.36995 0.0
C1110 C 0.72232 0.83662 0.36075 0.0
C1111 C 0.70068 0.83065 0.35371 0.0
C1112 C 0.73606 0.8498 0.34704 0.0
C1113 C 0.69255 0.83885 0.33324 0.0
C1114 C 0.7062 0.85183 0.31942 0.0
C1115 C 0.74243 0.86879 0.31156 0.0
C1116 C 0.76445 0.87377 0.31811 0.0
C1117 C 0.72813 0.857 0.32595 0.0
C1118 C 0.77186 0.86741 0.33948 0.0
C1119 C 0.75784 0.85539 0.35378 0.0
H1120 H 0.67296 0.22965 0.88213 0.0
H1121 H 0.65075 0.18116 0.83338 0.0
H1122 H 0.63015 0.21032 0.81353 0.0
H1123 H 0.62099 0.24991 0.80835 0.0
H1124 H 0.64401 0.29864 0.85646 0.0
H1125 H 0.66173 0.26894 0.87828 0.0
C1126 C 0.6634 0.22536 0.86732 0.0
C1127 C 0.66357 0.20325 0.85915 0.0
C1128 C 0.65192 0.24227 0.85576 0.0
C1129 C 0.65101 0.19803 0.83998 0.0
C1130 C 0.63928 0.21472 0.82857 0.0
C1131 C 0.62975 0.25407 0.82369 0.0
C1132 C 0.63136 0.27652 0.83064 0.0
C1133 C 0.64005 0.23696 0.83602 0.0
C1134 C 0.64261 0.28153 0.85066 0.0
C1135 C 0.65277 0.26455 0.86314 0.0
H1136 H 0.27805 0.79293 0.64681 0.0
H1137 H 0.30715 0.85828 0.63686 0.0
H1138 H 0.27397 0.87573 0.65335 0.0
H1139 H 0.23708 0.87222 0.67165 0.0
H1140 H 0.20902 0.80651 0.6822 0.0
H1141 H 0.24137 0.78944 0.66418 0.0
C1142 C 0.2772 0.81101 0.64819 0.0
C1143 C 0.29513 0.82426 0.64068 0.0
C1144 C 0.2582 0.82088 0.65773 0.0
C1145 C 0.29364 0.84766 0.64259 0.0
C1146 C 0.27465 0.85766 0.65198 0.0
C1147 C 0.23796 0.85419 0.66976 0.0
C1148 C 0.22068 0.84065 0.67824 0.0
C1149 C 0.25686 0.84441 0.6597 0.0
C1150 C 0.22214 0.8173 0.67588 0.0
C1151 C 0.24064 0.80751 0.66561 0.0
H1152 H 0.71416 0.74019 0.14707 0.0
H1153 H 0.65327 0.75166 0.11001 0.0
H1154 H 0.63509 0.72096 0.13006 0.0
H1155 H 0.63571 0.69293 0.16025 0.0
H1156 H 0.69684 0.68183 0.19716 0.0
H1157 H 0.71575 0.71017 0.17481 0.0
C1158 C 0.69694 0.73591 0.14327 0.0
C1159 C 0.68499 0.74837 0.12731 0.0
C1160 C 0.68663 0.71832 0.15485 0.0
C1161 C 0.66281 0.74238 0.12232 0.0
C1162 C 0.65239 0.72486 0.13381 0.0
C1163 C 0.65325 0.69648 0.16319 0.0
C1164 C 0.66475 0.68542 0.18053 0.0
C1165 C 0.66402 0.713 0.15041 0.0
C1166 C 0.68752 0.69016 0.18404 0.0
C1167 C 0.69836 0.70644 0.17131 0.0
H1168 H 0.77484 0.15494 0.70207 0.0
H1169 H 0.79388 0.1239 0.63969 0.0
H1170 H 0.76538 0.14572 0.61999 0.0
H1171 H 0.73468 0.1733 0.62068 0.0
H1172 H 0.71643 0.20445 0.68328 0.0
H1173 H 0.74499 0.18277 0.70269 0.0
C1174 C 0.77283 0.15293 0.68415 0.0
C1175 C 0.78645 0.13776 0.67239 0.0
C1176 C 0.75648 0.16549 0.67298 0.0
C1177 C 0.78365 0.13549 0.64915 0.0
C1178 C 0.76731 0.14791 0.63788 0.0
C1179 C 0.73692 0.17529 0.63858 0.0
C1180 C 0.72337 0.19041 0.65052 0.0
C1181 C 0.75355 0.16288 0.64966 0.0
C1182 C 0.72662 0.19294 0.67367 0.0
C1183 C 0.74295 0.18055 0.68481 0.0
H1184 H 0.32112 0.23095 0.12529 0.0
H1185 H 0.27406 0.21916 0.17882 0.0
H1186 H 0.29296 0.24693 0.20193 0.0
H1187 H 0.32223 0.27498 0.20675 0.0
H1188 H 0.36941 0.2872 0.15346 0.0
H1189 H 0.35095 0.25889 0.13039 0.0
C1190 C 0.31512 0.23432 0.14208 0.0
C1191 C 0.29621 0.22298 0.15031 0.0
C1192 C 0.32594 0.25051 0.15524 0.0
C1193 C 0.28855 0.22766 0.17205 0.0
C1194 C 0.29932 0.24358 0.18528 0.0
C1195 C 0.32847 0.27155 0.19005 0.0
C1196 C 0.34711 0.28326 0.18181 0.0
C1197 C 0.31789 0.25522 0.17698 0.0
C1198 C 0.35504 0.27846 0.16019 0.0
C1199 C 0.34453 0.26224 0.14701 0.0
H1200 H 0.79097 0.64946 0.73246 0.0
H1201 H 0.8555 0.62295 0.71376 0.0
H1202 H 0.87394 0.65089 0.73735 0.0
H1203 H 0.87159 0.68286 0.76336 0.0
H1204 H 0.80683 0.70974 0.78075 0.0
H1205 H 0.78862 0.68152 0.7576 0.0
C1206 C 0.80909 0.64973 0.73353 0.0
C1207 C 0.82184 0.63408 0.72142 0.0
C1208 C 0.81953 0.66588 0.74691 0.0
C1209 C 0.84529 0.63483 0.72288 0.0
C1210 C 0.85584 0.65076 0.7364 0.0
C1211 C 0.8535 0.68246 0.76213 0.0
C1212 C 0.84058 0.69832 0.77381 0.0
C1213 C 0.84311 0.66635 0.74853 0.0
C1214 C 0.81716 0.69776 0.77189 0.0
C1215 C 0.80672 0.68162 0.75868 0.0
H1216 H 0.85672 0.34689 0.19608 0.0
H1217 H 0.89119 0.29784 0.23642 0.0
H1218 H 0.87564 0.31445 0.27032 0.0
H1219 H 0.84998 0.34108 0.28828 0.0
H1220 H 0.81507 0.38965 0.24771 0.0
H1221 H 0.83321 0.37512 0.21422 0.0
C1222 C 0.86102 0.33995 0.21229 0.0
C1223 C 0.87492 0.32102 0.21366 0.0
C1224 C 0.85184 0.34942 0.23171 0.0
C1225 C 0.88043 0.31234 0.23484 0.0
C1226 C 0.8715 0.3218 0.25426 0.0
C1227 C 0.84651 0.34864 0.27215 0.0
C1228 C 0.83101 0.36627 0.27052 0.0
C1229 C 0.85683 0.34006 0.25286 0.0
C1230 C 0.8268 0.37595 0.24947 0.0
C1231 C 0.83715 0.36764 0.23027 0.0
H1232 H 0.1271 0.30196 0.75271 0.0
H1233 H 0.15063 0.34929 0.80196 0.0
H1234 H 0.16915 0.37087 0.77269 0.0
H1235 H 0.18102 0.37468 0.73374 0.0
H1236 H 0.15887 0.3266 0.68458 0.0
H1237 H 0.13721 0.30707 0.71322 0.0
C1238 C 0.13607 0.31713 0.75702 0.0
C1239 C 0.13762 0.3239 0.77953 0.0
C1240 C 0.14699 0.32927 0.74015 0.0
C1241 C 0.1493 0.3436 0.78481 0.0
C1242 C 0.15991 0.35596 0.76808 0.0
C1243 C 0.17127 0.36008 0.72918 0.0
C1244 C 0.17172 0.35202 0.70706 0.0
C1245 C 0.15923 0.3487 0.74578 0.0
C1246 C 0.15892 0.3331 0.70149 0.0
C1247 C 0.14657 0.32189 0.71787 0.0
H1248 H 0.15397 0.64219 0.29493 0.0
H1249 H 0.21942 0.6698 0.28191 0.0
H1250 H 0.20409 0.69282 0.25196 0.0
H1251 H 0.17241 0.70477 0.22911 0.0
H1252 H 0.107 0.67662 0.24094 0.0
H1253 H 0.12204 0.6541 0.27163 0.0
C1254 C 0.16483 0.65335 0.28562 0.0
C1255 C 0.18779 0.6543 0.29069 0.0
C1256 C 0.15596 0.66636 0.26813 0.0
C1257 C 0.20169 0.66869 0.27833 0.0
C1258 C 0.19295 0.68188 0.26118 0.0
C1259 C 0.1614 0.69373 0.23839 0.0
C1260 C 0.13862 0.6924 0.23274 0.0
C1261 C 0.17016 0.68076 0.25587 0.0
C1262 C 0.12463 0.67792 0.2449 0.0
C1263 C 0.1332 0.66507 0.26249 0.0
H1264 H 0.76481 0.81984 0.69847 0.0
H1265 H 0.76795 0.86544 0.64257 0.0
H1266 H 0.73889 0.84397 0.62323 0.0
H1267 H 0.71282 0.81189 0.62222 0.0
H1268 H 0.70995 0.76702 0.67883 0.0
H1269 H 0.73861 0.78869 0.69787 0.0
C1270 C 0.75923 0.82509 0.68201 0.0
C1271 C 0.76863 0.84412 0.67192 0.0
C1272 C 0.74248 0.81284 0.67114 0.0
C1273 C 0.76101 0.85079 0.65069 0.0
C1274 C 0.74439 0.83854 0.63964 0.0
C1275 C 0.71841 0.80693 0.63876 0.0
C1276 C 0.70925 0.78781 0.64903 0.0
C1277 C 0.73501 0.81951 0.64971 0.0
C1278 C 0.71669 0.78162 0.67047 0.0
C1279 C 0.73313 0.79399 0.68141 0.0
H1280 H 0.61881 0.26325 0.18685 0.0
H1281 H 0.65811 0.31249 0.15151 0.0
H1282 H 0.67664 0.2828 0.13041 0.0
H1283 H 0.68319 0.24285 0.12355 0.0
H1284 H 0.64426 0.19365 0.15935 0.0
H1285 H 0.62401 0.22342 0.17863 0.0
C1286 C 0.63131 0.26754 0.17442 0.0
C1287 C 0.63716 0.29008 0.17089 0.0
C1288 C 0.64204 0.25039 0.16249 0.0
C1289 C 0.65333 0.29529 0.15464 0.0
C1290 C 0.66397 0.27832 0.14258 0.0
C1291 C 0.67016 0.23861 0.13545 0.0
C1292 C 0.66537 0.21602 0.14009 0.0
C1293 C 0.6587 0.25581 0.14661 0.0
C1294 C 0.64837 0.21087 0.1555 0.0
C1295 C 0.63679 0.22789 0.16657 0.0
H1296 H 0.29738 0.14773 0.65 0.0
H1297 H 0.25705 0.19146 0.60898 0.0
H1298 H 0.22312 0.17349 0.62276 0.0
H1299 H 0.20481 0.14693 0.64808 0.0
H1300 H 0.24513 0.10366 0.68961 0.0
H1301 H 0.27912 0.11983 0.67388 0.0
C1302 C 0.28119 0.15322 0.64392 0.0
C1303 C 0.27979 0.17102 0.62861 0.0
C1304 C 0.26171 0.14297 0.65208 0.0
C1305 C 0.25864 0.17786 0.62086 0.0
C1306 C 0.2392 0.16762 0.62875 0.0
C1307 C 0.22102 0.14091 0.65358 0.0
C1308 C 0.22239 0.12423 0.67011 0.0
C1309 C 0.24052 0.15041 0.64462 0.0
C1310 C 0.24356 0.11657 0.67698 0.0
C1311 C 0.26303 0.12582 0.66801 0.0
H1312 H 0.31306 0.78305 0.17637 0.0
H1313 H 0.3319 0.76779 0.10834 0.0
H1314 H 0.35907 0.74031 0.12183 0.0
H1315 H 0.37646 0.71962 0.15302 0.0
H1316 H 0.35712 0.73529 0.22089 0.0
H1317 H 0.33121 0.76358 0.2073 0.0
C1318 C 0.32315 0.7738 0.16445 0.0
C1319 C 0.32036 0.7774 0.14139 0.0
C1320 C 0.33862 0.75801 0.17229 0.0
C1321 C 0.33369 0.76533 0.12621 0.0
C1322 C 0.3492 0.74957 0.1339 0.0
C1323 C 0.36664 0.72929 0.16483 0.0
C1324 C 0.36867 0.7252 0.18793 0.0
C1325 C 0.35165 0.74561 0.15691 0.0
C1326 C 0.35587 0.73797 0.20301 0.0
C1327 C 0.34101 0.75419 0.19527 0.0
H1328 H 0.74522 0.19683 0.37956 0.0
H1329 H 0.70558 0.13816 0.36525 0.0
H1330 H 0.73844 0.11953 0.34965 0.0
H1331 H 0.77718 0.12147 0.33654 0.0
H1332 H 0.81612 0.1811 0.34856 0.0
H1333 H 0.78481 0.19765 0.36899 0.0
C1334 C 0.7438 0.17986 0.37329 0.0
C1335 C 0.72291 0.16899 0.37335 0.0
C1336 C 0.76261 0.16945 0.36389 0.0
C1337 C 0.7214 0.14699 0.36522 0.0
C1338 C 0.74018 0.13632 0.35629 0.0
C1339 C 0.77901 0.13792 0.34399 0.0
C1340 C 0.79891 0.15011 0.34089 0.0
C1341 C 0.76072 0.14761 0.35503 0.0
C1342 C 0.80094 0.17142 0.3506 0.0
C1343 C 0.78301 0.18093 0.3622 0.0
H1344 H 0.32311 0.22014 0.87534 0.0
H1345 H 0.30039 0.20029 0.8097 0.0
H1346 H 0.32042 0.23168 0.793 0.0
H1347 H 0.34427 0.26464 0.79694 0.0
H1348 H 0.3666 0.28517 0.8625 0.0
H1349 H 0.34668 0.25367 0.87933 0.0
C1350 C 0.32263 0.22263 0.85737 0.0
C1351 C 0.31035 0.20783 0.84377 0.0
C1352 C 0.334 0.24087 0.84787 0.0
C1353 C 0.30971 0.21141 0.82055 0.0
C1354 C 0.32115 0.22937 0.81097 0.0
C1355 C 0.34477 0.26229 0.81493 0.0
C1356 C 0.35695 0.27724 0.82843 0.0
C1357 C 0.3333 0.2442 0.82447 0.0
C1358 C 0.35733 0.27395 0.85171 0.0
C1359 C 0.34599 0.2559 0.86135 0.0
H1360 H 0.29667 0.83592 0.33098 0.0
H1361 H 0.26784 0.83155 0.39705 0.0
H1362 H 0.23421 0.85061 0.38395 0.0
H1363 H 0.21214 0.86677 0.35323 0.0
H1364 H 0.24144 0.87205 0.28744 0.0
H1365 H 0.2757 0.85445 0.30095 0.0
C1366 C 0.2831 0.83929 0.34254 0.0
C1367 C 0.2847 0.83218 0.36489 0.0
C1368 C 0.26382 0.85031 0.33493 0.0
C1369 C 0.26705 0.83685 0.37974 0.0
C1370 C 0.24775 0.84767 0.37225 0.0
C1371 C 0.22607 0.86414 0.34189 0.0
C1372 C 0.22418 0.87052 0.31936 0.0
C1373 C 0.24582 0.85418 0.34981 0.0
C1374 C 0.24246 0.86727 0.3049 0.0
C1375 C 0.26205 0.85716 0.31258 0.0
H1376 H 0.61748 0.7234 0.80893 0.0
H1377 H 0.65607 0.68294 0.85473 0.0
H1378 H 0.67272 0.71661 0.87073 0.0
H1379 H 0.67745 0.75733 0.87075 0.0
H1380 H 0.63916 0.79783 0.82475 0.0
H1381 H 0.62121 0.76427 0.80989 0.0
C1382 C 0.62945 0.72192 0.82249 0.0
C1383 C 0.63559 0.70064 0.83053 0.0
C1384 C 0.63906 0.74134 0.83156 0.0
C1385 C 0.65107 0.69908 0.84817 0.0
C1386 C 0.66063 0.71833 0.85733 0.0
C1387 C 0.66509 0.75887 0.85755 0.0
C1388 C 0.65975 0.78008 0.84882 0.0
C1389 C 0.65493 0.73952 0.84899 0.0
C1390 C 0.64364 0.78172 0.83176 0.0
C1391 C 0.63338 0.76253 0.82322 0.0
H1392 H 0.10794 0.21173 0.19004 0.0
H1393 H 0.10507 0.24196 0.25557 0.0
H1394 H 0.1169 0.20676 0.27259 0.0
H1395 H 0.13192 0.16869 0.26844 0.0
H1396 H 0.13467 0.13853 0.20285 0.0
H1397 H 0.11875 0.17228 0.18638 0.0
C1398 C 0.10965 0.21055 0.20807 0.0
C1399 C 0.10596 0.22954 0.22146 0.0
C1400 C 0.11655 0.19029 0.21775 0.0
C1401 C 0.10792 0.22764 0.24483 0.0
C1402 C 0.11477 0.20752 0.25459 0.0
C1403 C 0.12873 0.16937 0.25059 0.0
C1404 C 0.1348 0.15121 0.23688 0.0
C1405 C 0.11972 0.18893 0.24116 0.0
C1406 C 0.1303 0.15229 0.21381 0.0
C1407 C 0.12127 0.17164 0.20433 0.0
H1408 H 0.36437 0.64013 0.73335 0.0
H1409 H 0.33785 0.64323 0.80047 0.0
H1410 H 0.30339 0.62528 0.78789 0.0
H1411 H 0.27953 0.61189 0.75724 0.0
H1412 H 0.3056 0.61036 0.68988 0.0
H1413 H 0.34153 0.62434 0.70322 0.0
C1414 C 0.35119 0.63662 0.74532 0.0
C1415 C 0.35364 0.6432 0.76778 0.0
C1416 C 0.33124 0.62671 0.73789 0.0
C1417 C 0.33637 0.63848 0.78304 0.0
C1418 C 0.31662 0.62825 0.77586 0.0
C1419 C 0.29315 0.61434 0.74551 0.0
C1420 C 0.28978 0.61026 0.72257 0.0
C1421 C 0.31367 0.62279 0.75322 0.0
C1422 C 0.30765 0.61351 0.70761 0.0
C1423 C 0.32822 0.62154 0.71522 0.0
H1424 H 0.84667 0.85734 0.22427 0.0
H1425 H 0.85285 0.83039 0.29101 0.0
H1426 H 0.87303 0.79803 0.27627 0.0
H1427 H 0.88523 0.77553 0.24402 0.0
H1428 H 0.87727 0.80197 0.17725 0.0
H1429 H 0.8616 0.83642 0.19248 0.0
C1430 C 0.8527 0.84458 0.23568 0.0
C1431 C 0.84801 0.8462 0.2587 0.0
C1432 C 0.8638 0.82578 0.22705 0.0
C1433 C 0.85608 0.82952 0.2732 0.0
C1434 C 0.86756 0.81095 0.26477 0.0
C1435 C 0.88037 0.78895 0.23281 0.0
C1436 C 0.88221 0.78606 0.20952 0.0
C1437 C 0.87094 0.8086 0.24166 0.0
C1438 C 0.87586 0.80365 0.19524 0.0
C1439 C 0.86687 0.82338 0.20393 0.0
H1440 H 0.6884 0.31541 0.75936 0.0
H1441 H 0.64394 0.3719 0.7525 0.0
H1442 H 0.67396 0.3936 0.735 0.0
H1443 H 0.71222 0.39546 0.71932 0.0
H1444 H 0.75589 0.33823 0.72621 0.0
H1445 H 0.72676 0.31797 0.746 0.0
C1446 C 0.68526 0.33253 0.7542 0.0
C1447 C 0.6639 0.34194 0.75706 0.0
C1448 C 0.70244 0.34475 0.74399 0.0
C1449 C 0.66023 0.36423 0.75047 0.0
C1450 C 0.67736 0.37661 0.74037 0.0
C1451 C 0.7154 0.37863 0.7253 0.0
C1452 C 0.73618 0.36836 0.72105 0.0
C1453 C 0.69844 0.36689 0.73667 0.0
C1454 C 0.74004 0.34655 0.72904 0.0
C1455 C 0.72337 0.33489 0.74041 0.0
H1456 H 0.09847 0.76107 0.74078 0.0
H1457 H 0.08747 0.78346 0.80858 0.0
H1458 H 0.0998 0.82101 0.79845 0.0
H1459 H 0.11769 0.84623 0.77154 0.0
H1460 H 0.13011 0.82344 0.70412 0.0
H1461 H 0.11298 0.78745 0.71288 0.0
C1462 C 0.0984 0.77423 0.75327 0.0
C1463 C 0.09231 0.76935 0.77547 0.0
C1464 C 0.10595 0.79571 0.74745 0.0
C1465 C 0.09225 0.78668 0.7914 0.0
C1466 C 0.09936 0.80817 0.78565 0.0
C1467 C 0.11635 0.83354 0.75864 0.0
C1468 C 0.12544 0.83746 0.73729 0.0
C1469 C 0.10688 0.8127 0.7639 0.0
C1470 C 0.12342 0.82083 0.72076 0.0
C1471 C 0.11367 0.80019 0.72576 0.0
H1472 H 0.66719 0.60327 0.23222 0.0
H1473 H 0.63627 0.61284 0.29682 0.0
H1474 H 0.6705 0.60051 0.31527 0.0
H1475 H 0.71077 0.59291 0.31307 0.0
H1476 H 0.74196 0.58435 0.24849 0.0
H1477 H 0.70599 0.59012 0.23009 0.0
C1478 C 0.66774 0.60221 0.25033 0.0
C1479 C 0.64934 0.60944 0.26311 0.0
C1480 C 0.68765 0.59558 0.26087 0.0
C1481 C 0.65026 0.60763 0.28655 0.0
C1482 C 0.66989 0.6007 0.29715 0.0
C1483 C 0.70964 0.59193 0.29499 0.0
C1484 C 0.72911 0.58869 0.28216 0.0
C1485 C 0.68897 0.59559 0.28448 0.0
C1486 C 0.72729 0.58706 0.25877 0.0
C1487 C 0.70672 0.59044 0.24821 0.0
H1488 H 0.89942 0.20376 0.79908 0.0
H1489 H 0.89494 0.25092 0.74458 0.0
H1490 H 0.88273 0.2211 0.71947 0.0
H1491 H 0.86913 0.18266 0.71422 0.0
H1492 H 0.87341 0.13567 0.76896 0.0
H1493 H 0.89026 0.16431 0.79256 0.0
C1494 C 0.89603 0.20746 0.78164 0.0
C1495 C 0.89773 0.22958 0.77381 0.0
C1496 C 0.88889 0.19028 0.76733 0.0
C1497 C 0.89363 0.23406 0.75109 0.0
C1498 C 0.88657 0.21702 0.73671 0.0
C1499 C 0.87411 0.17855 0.73118 0.0
C1500 C 0.86963 0.15713 0.73989 0.0
C1501 C 0.88352 0.19521 0.74482 0.0
C1502 C 0.87644 0.15206 0.76184 0.0
C1503 C 0.886 0.16847 0.77543 0.0
H1504 H 0.35282 0.37629 0.25155 0.0
H1505 H 0.32356 0.38009 0.18562 0.0
H1506 H 0.2904 0.39821 0.20117 0.0
H1507 H 0.268 0.40884 0.234 0.0
H1508 H 0.29699 0.40361 0.29998 0.0
H1509 H 0.332 0.39037 0.28382 0.0
C1510 C 0.33935 0.38136 0.2405 0.0
C1511 C 0.34056 0.37653 0.21749 0.0
C1512 C 0.32016 0.39134 0.24959 0.0
C1513 C 0.32302 0.38344 0.20341 0.0
C1514 C 0.30399 0.39374 0.21231 0.0
C1515 C 0.28208 0.40515 0.24483 0.0
C1516 C 0.27974 0.40693 0.26819 0.0
C1517 C 0.3021 0.39713 0.23546 0.0
C1518 C 0.29823 0.40218 0.28196 0.0
C1519 C 0.31827 0.39456 0.27274 0.0
H1520 H 0.28402 0.12174 0.16303 0.0
H1521 H 0.22245 0.14396 0.13233 0.0
H1522 H 0.20116 0.12923 0.16366 0.0
H1523 H 0.20026 0.11409 0.20165 0.0
H1524 H 0.26112 0.09066 0.23243 0.0
H1525 H 0.28244 0.10165 0.19915 0.0
C1526 C 0.26593 0.123 0.16302 0.0
C1527 C 0.25494 0.13432 0.14552 0.0
C1528 C 0.25366 0.11452 0.18121 0.0
C1529 C 0.23143 0.13555 0.14563 0.0
C1530 C 0.21918 0.12721 0.16362 0.0
C1531 C 0.21817 0.11116 0.20092 0.0
C1532 C 0.22923 0.10196 0.21947 0.0
C1533 C 0.23018 0.11735 0.18179 0.0
C1534 C 0.25231 0.09782 0.21829 0.0
C1535 C 0.26449 0.10418 0.19933 0.0
H1536 H 0.37934 0.79488 0.6943 0.0
H1537 H 0.38437 0.73381 0.65597 0.0
H1538 H 0.39832 0.71404 0.68876 0.0
H1539 H 0.40471 0.71297 0.72925 0.0
H1540 H 0.39962 0.77386 0.76777 0.0
H1541 H 0.39035 0.79479 0.73394 0.0
C1542 C 0.38384 0.77735 0.69301 0.0
C1543 C 0.38042 0.7658 0.67278 0.0
C1544 C 0.39165 0.76594 0.71203 0.0
C1545 C 0.3866 0.74312 0.67136 0.0
C1546 C 0.39452 0.73173 0.69015 0.0
C1547 C 0.40187 0.73088 0.7302 0.0
C1548 C 0.40251 0.74176 0.75105 0.0
C1549 C 0.39639 0.7428 0.71073 0.0
C1550 C 0.39912 0.76503 0.75195 0.0
C1551 C 0.39372 0.77702 0.73262 0.0
H1552 H 0.72099 0.87681 0.21303 0.0
H1553 H 0.78196 0.90532 0.18685 0.0
H1554 H 0.77084 0.89503 0.14899 0.0
H1555 H 0.74624 0.87382 0.12407 0.0
H1556 H 0.68615 0.84365 0.15039 0.0
H1557 H 0.69431 0.85906 0.18732 0.0
C1558 C 0.73167 0.88112 0.19901 0.0
C1559 C 0.75243 0.89152 0.20283 0.0
C1560 C 0.72541 0.87471 0.17729 0.0
C1561 C 0.76601 0.89708 0.18444 0.0
C1562 C 0.75968 0.89117 0.16275 0.0
C1563 C 0.73469 0.87094 0.13776 0.0
C1564 C 0.71579 0.85733 0.13452 0.0
C1565 C 0.73978 0.87934 0.15908 0.0
C1566 C 0.70095 0.8539 0.15245 0.0
C1567 C 0.70564 0.86263 0.17362 0.0
H1568 H 0.59517 0.29346 0.7029 0.0
H1569 H 0.60727 0.23063 0.73642 0.0
H1570 H 0.61881 0.21372 0.70109 0.0
H1571 H 0.63007 0.21825 0.66184 0.0
H1572 H 0.61825 0.28125 0.62847 0.0
H1573 H 0.60166 0.29645 0.66249 0.0
C1574 C 0.60001 0.27597 0.70242 0.0
C1575 C 0.60074 0.26345 0.72233 0.0
C1576 C 0.60682 0.2664 0.6821 0.0
C1577 C 0.6067 0.24071 0.72137 0.0
C1578 C 0.6134 0.23103 0.70118 0.0
C1579 C 0.6235 0.23517 0.66187 0.0
C1580 C 0.62578 0.24871 0.64274 0.0
C1581 C 0.61424 0.24394 0.6816 0.0
C1582 C 0.61691 0.2705 0.643 0.0
C1583 C 0.6075 0.27927 0.6625 0.0
H1584 H 0.19154 0.89703 0.78348 0.0
H1585 H 0.25489 0.88136 0.75263 0.0
H1586 H 0.27195 0.87661 0.78947 0.0
H1587 H 0.2676 0.8725 0.83014 0.0
H1588 H 0.20413 0.88828 0.86085 0.0
H1589 H 0.18861 0.89794 0.82442 0.0
C1590 C 0.20914 0.89281 0.78484 0.0
C1591 C 0.22184 0.88916 0.7654 0.0
C1592 C 0.21884 0.89013 0.80605 0.0
C1593 C 0.24472 0.88411 0.76737 0.0
C1594 C 0.25448 0.88135 0.78843 0.0
C1595 C 0.25052 0.87851 0.82895 0.0
C1596 C 0.23694 0.87923 0.84818 0.0
C1597 C 0.24154 0.8837 0.80787 0.0
C1598 C 0.21492 0.88731 0.84632 0.0
C1599 C 0.20595 0.89272 0.82545 0.0
H1600 H 0.61508 0.69416 0.28684 0.0
H1601 H 0.64387 0.73832 0.23748 0.0
H1602 H 0.65935 0.76175 0.26706 0.0
H1603 H 0.66742 0.76792 0.30678 0.0
H1604 H 0.63764 0.72498 0.35649 0.0
H1605 H 0.6196 0.70296 0.32698 0.0
C1606 C 0.62454 0.70905 0.2826 0.0
C1607 C 0.62853 0.71435 0.26001 0.0
C1608 C 0.63328 0.72259 0.29973 0.0
C1609 C 0.64056 0.73385 0.25473 0.0
C1610 C 0.64952 0.74722 0.27163 0.0
C1611 C 0.65677 0.75387 0.31113 0.0
C1612 C 0.65404 0.74786 0.33368 0.0
C1613 C 0.64639 0.74147 0.29415 0.0
C1614 C 0.63996 0.72989 0.3392 0.0
C1615 C 0.62976 0.71724 0.32234 0.0
H1616 H 0.79956 0.09897 0.79715 0.0
H1617 H 0.73788 0.11089 0.76148 0.0
H1618 H 0.71931 0.12077 0.79647 0.0
H1619 H 0.72188 0.13045 0.83628 0.0
H1620 H 0.78386 0.11941 0.87172 0.0
H1621 H 0.80087 0.10446 0.83777 0.0
C1622 C 0.78197 0.10342 0.79705 0.0
C1623 C 0.77025 0.10455 0.77666 0.0
C1624 C 0.77146 0.1094 0.81717 0.0
C1625 C 0.74738 0.11006 0.77689 0.0
C1626 C 0.73675 0.11579 0.7969 0.0
C1627 C 0.73899 0.12444 0.83669 0.0
C1628 C 0.75167 0.1264 0.85644 0.0
C1629 C 0.74882 0.11621 0.81701 0.0
C1630 C 0.77375 0.1183 0.85672 0.0
C1631 C 0.78355 0.10982 0.83727 0.0
H1632 H 0.39726 0.29639 0.28355 0.0
H1633 H 0.38532 0.24243 0.23708 0.0
H1634 H 0.37013 0.21947 0.26722 0.0
H1635 H 0.35623 0.21644 0.3058 0.0
H1636 H 0.36893 0.27001 0.3525 0.0
H1637 H 0.38809 0.29125 0.32335 0.0
C1638 C 0.39167 0.27947 0.28012 0.0
C1639 C 0.39213 0.27124 0.25809 0.0
C1640 C 0.38294 0.26634 0.29753 0.0
C1641 C 0.38511 0.24919 0.2539 0.0
C1642 C 0.37629 0.23607 0.2711 0.0
C1643 C 0.3635 0.23261 0.30966 0.0
C1644 C 0.36089 0.24178 0.33116 0.0
C1645 C 0.37451 0.24474 0.29283 0.0
C1646 C 0.37067 0.2626 0.33606 0.0
C1647 C 0.38152 0.27482 0.31936 0.0
H1648 H 0.24254 0.26753 0.11195 0.0
H1649 H 0.20151 0.21474 0.0847 0.0
H1650 H 0.16795 0.23318 0.09895 0.0
H1651 H 0.15102 0.26126 0.12353 0.0
H1652 H 0.19241 0.31258 0.15302 0.0
H1653 H 0.22501 0.29791 0.13326 0.0
C1654 C 0.22622 0.26033 0.10865 0.0
C1655 C 0.22453 0.23969 0.09747 0.0
C1656 C 0.20707 0.27061 0.11756 0.0
C1657 C 0.20326 0.23053 0.09343 0.0
C1658 C 0.18407 0.24102 0.10164 0.0
C1659 C 0.16708 0.26951 0.12534 0.0
C1660 C 0.16932 0.2878 0.13999 0.0
C1661 C 0.18587 0.26061 0.11444 0.0
C1662 C 0.19025 0.29833 0.14203 0.0
C1663 C 0.20892 0.28992 0.13077 0.0
H1664 H 0.20276 0.75849 0.90075 0.0
H1665 H 0.21086 0.80769 0.84835 0.0
H1666 H 0.18273 0.78899 0.82592 0.0
H1667 H 0.15628 0.75874 0.82063 0.0
H1668 H 0.1455 0.7103 0.87296 0.0
H1669 H 0.17429 0.72856 0.89596 0.0
C1670 C 0.19828 0.76511 0.88446 0.0
C1671 C 0.20904 0.78441 0.87625 0.0
C1672 C 0.18175 0.75437 0.87157 0.0
C1673 C 0.20291 0.7929 0.85517 0.0
C1674 C 0.18685 0.78218 0.84222 0.0
C1675 C 0.16033 0.75203 0.83701 0.0
C1676 C 0.14909 0.73304 0.84499 0.0
C1677 C 0.17631 0.76287 0.85018 0.0
C1678 C 0.15409 0.72486 0.86645 0.0
C1679 C 0.1705 0.73531 0.87957 0.0
H1680 H 0.71993 0.70927 0.40137 0.0
H1681 H 0.77224 0.756 0.38427 0.0
H1682 H 0.79672 0.72504 0.37369 0.0
H1683 H 0.80123 0.68524 0.36442 0.0
H1684 H 0.7484 0.63874 0.38068 0.0
H1685 H 0.72639 0.66904 0.39683 0.0
C1686 C 0.73681 0.71268 0.39564 0.0
C1687 C 0.74409 0.73493 0.39321 0.0
C1688 C 0.75068 0.69484 0.38929 0.0
C1689 C 0.76613 0.73904 0.38612 0.0
C1690 C 0.78013 0.72134 0.37998 0.0
C1691 C 0.78511 0.68163 0.3719 0.0
C1692 C 0.77633 0.6598 0.37093 0.0
C1693 C 0.77229 0.69923 0.38076 0.0
C1694 C 0.75548 0.65542 0.38093 0.0
C1695 C 0.74281 0.67276 0.3901 0.0
H1696 H 0.78572 0.20556 0.90089 0.0
H1697 H 0.74116 0.25778 0.8784 0.0
H1698 H 0.77291 0.27933 0.86458 0.0
H1699 H 0.81285 0.28149 0.85538 0.0
H1700 H 0.85771 0.22994 0.87864 0.0
H1701 H 0.82638 0.21014 0.89595 0.0
C1702 C 0.78301 0.22179 0.89323 0.0
C1703 C 0.76111 0.2299 0.89039 0.0
C1704 C 0.80137 0.23416 0.88536 0.0
C1705 C 0.75784 0.2511 0.88073 0.0
C1706 C 0.77599 0.26341 0.87272 0.0
C1707 C 0.81579 0.26608 0.86452 0.0
C1708 C 0.83746 0.25702 0.86549 0.0
C1709 C 0.79774 0.25483 0.87442 0.0
C1710 C 0.84114 0.23723 0.87765 0.0
C1711 C 0.82323 0.22583 0.88743 0.0
H1712 H 0.25325 0.26312 0.34325 0.0
H1713 H 0.28901 0.29585 0.39677 0.0
H1714 H 0.27113 0.33139 0.38725 0.0
H1715 H 0.24864 0.35393 0.36092 0.0
H1716 H 0.2147 0.32103 0.30635 0.0
H1717 H 0.22832 0.2848 0.31927 0.0
C1718 C 0.25696 0.27795 0.35304 0.0
C1719 C 0.27268 0.27686 0.37049 0.0
C1720 C 0.24699 0.29837 0.3472 0.0
C1721 C 0.2771 0.29623 0.38312 0.0
C1722 C 0.26692 0.31659 0.37765 0.0
C1723 C 0.24386 0.33876 0.35218 0.0
C1724 C 0.23085 0.34014 0.33262 0.0
C1725 C 0.2523 0.31798 0.35933 0.0
C1726 C 0.22488 0.3204 0.32134 0.0
C1727 C 0.23269 0.29968 0.32868 0.0
H1728 H 0.76524 0.74008 0.08929 0.0
H1729 H 0.77685 0.8111 0.08311 0.0
H1730 H 0.8157 0.80598 0.09457 0.0
H1731 H 0.84498 0.78209 0.11026 0.0
H1732 H 0.83281 0.71142 0.11891 0.0
H1733 H 0.79569 0.71561 0.10228 0.0
C1734 C 0.77639 0.75438 0.09005 0.0
C1735 C 0.76813 0.77595 0.08549 0.0
C1736 C 0.79856 0.7514 0.09727 0.0
C1737 C 0.78275 0.79433 0.08668 0.0
C1738 C 0.80496 0.79143 0.09327 0.0
C1739 C 0.83439 0.7675 0.10818 0.0
C1740 C 0.84162 0.7465 0.116 0.0
C1741 C 0.81286 0.77014 0.09921 0.0
C1742 C 0.82762 0.72781 0.11316 0.0
C1743 C 0.80636 0.7302 0.10371 0.0
H1744 H 0.73593 0.35239 0.62662 0.0
H1745 H 0.80205 0.32379 0.63198 0.0
H1746 H 0.78859 0.28901 0.61527 0.0
H1747 H 0.75701 0.26515 0.60412 0.0
H1748 H 0.69058 0.29339 0.6009 0.0
H1749 H 0.70528 0.32989 0.61162 0.0
C1750 C 0.74754 0.33873 0.62376 0.0
C1751 C 0.76989 0.3406 0.63087 0.0
C1752 C 0.73956 0.31857 0.61478 0.0
C1753 C 0.7847 0.32275 0.62686 0.0
C1754 C 0.777 0.3028 0.61739 0.0
C1755 C 0.7458 0.27937 0.60537 0.0
C1756 C 0.72269 0.27645 0.60203 0.0
C1757 C 0.75428 0.30025 0.61207 0.0
C1758 C 0.70842 0.2951 0.60364 0.0
C1759 C 0.7168 0.316 0.60979 0.0
H1760 H 0.28377 0.63843 0.61886 0.0
H1761 H 0.22001 0.66496 0.64001 0.0
H1762 H 0.23103 0.7022 0.6273 0.0
H1763 H 0.26075 0.72796 0.61536 0.0
H1764 H 0.32531 0.70153 0.59666 0.0
H1765 H 0.31191 0.66351 0.60302 0.0
C1766 C 0.27208 0.65224 0.6203 0.0
C1767 C 0.25123 0.64896 0.63068 0.0
C1768 C 0.27879 0.67372 0.61364 0.0
C1769 C 0.23626 0.66705 0.63228 0.0
C1770 C 0.24259 0.68839 0.6251 0.0
C1771 C 0.27175 0.71386 0.61224 0.0
C1772 C 0.29409 0.71759 0.60585 0.0
C1773 C 0.26413 0.69206 0.61655 0.0
C1774 C 0.30812 0.69913 0.60185 0.0
C1775 C 0.30048 0.67738 0.60552 0.0
H1776 H 0.86288 0.83712 0.70096 0.0
H1777 H 0.87606 0.87983 0.75773 0.0
H1778 H 0.89093 0.84805 0.77849 0.0
H1779 H 0.89511 0.80737 0.78244 0.0
H1780 H 0.88178 0.76456 0.72584 0.0
H1781 H 0.87226 0.79715 0.70312 0.0
C1782 C 0.86946 0.8396 0.71769 0.0
C1783 C 0.86793 0.86078 0.72789 0.0
C1784 C 0.87767 0.82115 0.72973 0.0
C1785 C 0.87679 0.8637 0.7495 0.0
C1786 C 0.88519 0.84548 0.76148 0.0
C1787 C 0.89043 0.8052 0.76504 0.0
C1788 C 0.88876 0.78356 0.75598 0.0
C1789 C 0.88486 0.824 0.75209 0.0
C1790 C 0.88305 0.78103 0.7333 0.0
C1791 C 0.87752 0.79966 0.72029 0.0
H1792 H 0.66248 0.37029 0.22256 0.0
H1793 H 0.63237 0.37798 0.28778 0.0
H1794 H 0.66728 0.39314 0.30241 0.0
H1795 H 0.70741 0.40032 0.29772 0.0
H1796 H 0.73759 0.39274 0.23255 0.0
H1797 H 0.70156 0.38167 0.21687 0.0
C1798 C 0.66345 0.37559 0.23989 0.0
C1799 C 0.64492 0.37268 0.25412 0.0
C1800 C 0.68365 0.38415 0.24828 0.0
C1801 C 0.64639 0.37989 0.27647 0.0
C1802 C 0.6664 0.38848 0.2849 0.0
C1803 C 0.70605 0.39652 0.28003 0.0
C1804 C 0.72523 0.39704 0.26641 0.0
C1805 C 0.68531 0.39006 0.27113 0.0
C1806 C 0.72312 0.39236 0.24345 0.0
C1807 C 0.70253 0.38594 0.23447 0.0
H1808 H 0.1201 0.13221 0.7694 0.0
H1809 H 0.13794 0.15436 0.70301 0.0
H1810 H 0.12618 0.19238 0.71231 0.0
H1811 H 0.11507 0.22006 0.74064 0.0
H1812 H 0.099 0.19795 0.80752 0.0
H1813 H 0.10571 0.15922 0.7966 0.0
C1814 C 0.12106 0.14524 0.75681 0.0
C1815 C 0.13013 0.14046 0.73562 0.0
C1816 C 0.11483 0.16718 0.76244 0.0
C1817 C 0.13117 0.15759 0.71951 0.0
C1818 C 0.12453 0.17937 0.72484 0.0
C1819 C 0.11272 0.20675 0.75275 0.0
C1820 C 0.10681 0.21196 0.77493 0.0
C1821 C 0.11702 0.18449 0.74648 0.0
C1822 C 0.10375 0.19447 0.79038 0.0
C1823 C 0.1076 0.17228 0.78416 0.0
H1824 H 0.36387 0.62488 0.2618 0.0
H1825 H 0.33072 0.63664 0.19871 0.0
H1826 H 0.29599 0.62149 0.21393 0.0
H1827 H 0.27372 0.6111 0.24693 0.0
H1828 H 0.30675 0.60145 0.31046 0.0
H1829 H 0.34282 0.60935 0.2932 0.0
C1830 C 0.34918 0.62372 0.2512 0.0
C1831 C 0.34978 0.63237 0.22932 0.0
C1832 C 0.32911 0.61565 0.26025 0.0
C1833 C 0.33069 0.63036 0.21571 0.0
C1834 C 0.31075 0.62182 0.22445 0.0
C1835 C 0.28886 0.61024 0.2569 0.0
C1836 C 0.28748 0.60616 0.28005 0.0
C1837 C 0.30953 0.61538 0.24699 0.0
C1838 C 0.30729 0.60492 0.29268 0.0
C1839 C 0.32794 0.60947 0.28283 0.0
H1840 H 0.8755 0.13821 0.2198 0.0
H1841 H 0.887 0.16184 0.28707 0.0
H1842 H 0.90427 0.19585 0.27236 0.0
H1843 H 0.91128 0.22093 0.24053 0.0
H1844 H 0.89722 0.19807 0.17346 0.0
H1845 H 0.88591 0.16165 0.18798 0.0
C1846 C 0.88217 0.15056 0.23129 0.0
C1847 C 0.8797 0.1476 0.2545 0.0
C1848 C 0.89136 0.17038 0.22274 0.0
C1849 C 0.88853 0.16378 0.26912 0.0
C1850 C 0.89831 0.18329 0.26072 0.0
C1851 C 0.90611 0.20786 0.22906 0.0
C1852 C 0.90483 0.21231 0.20597 0.0
C1853 C 0.89906 0.18712 0.23757 0.0
C1854 C 0.89813 0.19516 0.19133 0.0
C1855 C 0.89164 0.17433 0.19962 0.0
H1856 H 0.29086 0.3992 0.71332 0.0
H1857 H 0.2433 0.38916 0.76671 0.0
H1858 H 0.27336 0.37693 0.79151 0.0
H1859 H 0.31215 0.36415 0.79625 0.0
H1860 H 0.35953 0.37391 0.74258 0.0
H1861 H 0.33062 0.39156 0.71992 0.0
C1862 C 0.28712 0.39467 0.73049 0.0
C1863 C 0.26484 0.39469 0.73801 0.0
C1864 C 0.30443 0.38746 0.74461 0.0
C1865 C 0.2603 0.38915 0.76042 0.0
C1866 C 0.27747 0.38205 0.77461 0.0
C1867 C 0.31629 0.37053 0.77978 0.0
C1868 C 0.33788 0.36725 0.77099 0.0
C1869 C 0.29947 0.38039 0.76663 0.0
C1870 C 0.34299 0.37593 0.74971 0.0
C1871 C 0.32643 0.38596 0.73665 0.0
H1872 H 0.11215 0.8632 0.22873 0.0
H1873 H 0.13225 0.84117 0.29451 0.0
H1874 H 0.11842 0.80357 0.28636 0.0
H1875 H 0.10543 0.77594 0.25878 0.0
H1876 H 0.08789 0.79778 0.1922 0.0
H1877 H 0.09578 0.83646 0.2025 0.0
C1878 C 0.11311 0.85032 0.24148 0.0
C1879 C 0.12346 0.85494 0.2621 0.0
C1880 C 0.10585 0.82859 0.23642 0.0
C1881 C 0.12451 0.83802 0.27842 0.0
C1882 C 0.1167 0.81648 0.27374 0.0
C1883 C 0.10294 0.78921 0.24665 0.0
C1884 C 0.09634 0.78395 0.22469 0.0
C1885 C 0.10809 0.81139 0.25251 0.0
C1886 C 0.0932 0.80135 0.20916 0.0
C1887 C 0.09772 0.82348 0.21503 0.0
H1888 H 0.70413 0.57211 0.72397 0.0
H1889 H 0.73995 0.60345 0.77827 0.0
H1890 H 0.7047 0.61118 0.79738 0.0
H1891 H 0.66379 0.61438 0.79558 0.0
H1892 H 0.62807 0.58375 0.74076 0.0
H1893 H 0.66318 0.56999 0.72525 0.0
C1894 C 0.70425 0.58027 0.74018 0.0
C1895 C 0.72458 0.58763 0.74944 0.0
C1896 C 0.68392 0.58495 0.75092 0.0
C1897 C 0.72451 0.59779 0.77065 0.0
C1898 C 0.70434 0.60232 0.78156 0.0
C1899 C 0.66362 0.60427 0.78051 0.0
C1900 C 0.64337 0.60057 0.76908 0.0
C1901 C 0.68393 0.59679 0.7714 0.0
C1902 C 0.64343 0.58712 0.74977 0.0
C1903 C 0.66353 0.57933 0.74079 0.0
H1904 H 0.76223 0.84055 0.82411 0.0
H1905 H 0.69754 0.87166 0.81777 0.0
H1906 H 0.71057 0.89242 0.78469 0.0
H1907 H 0.73987 0.89919 0.75599 0.0
H1908 H 0.80486 0.86856 0.76443 0.0
H1909 H 0.79225 0.85036 0.79844 0.0
C1910 C 0.75104 0.85201 0.81555 0.0
C1911 C 0.72893 0.85441 0.82299 0.0
C1912 C 0.7587 0.86392 0.79693 0.0
C1913 C 0.71465 0.86958 0.81217 0.0
C1914 C 0.72208 0.88134 0.79326 0.0
C1915 C 0.75131 0.88875 0.76543 0.0
C1916 C 0.77317 0.88503 0.75743 0.0
C1917 C 0.74399 0.87829 0.78523 0.0
C1918 C 0.7879 0.87165 0.77002 0.0
C1919 C 0.78071 0.86113 0.7895 0.0
H1920 H 0.61358 0.24654 0.26841 0.0
H1921 H 0.59091 0.30991 0.29475 0.0
H1922 H 0.59838 0.29707 0.33274 0.0
H1923 H 0.61566 0.26985 0.35792 0.0
H1924 H 0.64039 0.20729 0.33157 0.0
H1925 H 0.62739 0.21766 0.29423 0.0
C1926 C 0.60991 0.25741 0.28248 0.0
C1927 C 0.60199 0.27926 0.27871 0.0
C1928 C 0.61475 0.25012 0.30429 0.0
C1929 C 0.59726 0.29309 0.29715 0.0
C1930 C 0.60154 0.28578 0.3189 0.0
C1931 C 0.61785 0.25827 0.34412 0.0
C1932 C 0.62926 0.23796 0.34749 0.0
C1933 C 0.61095 0.26461 0.3226 0.0
C1934 C 0.63184 0.22313 0.32941 0.0
C1935 C 0.62449 0.22909 0.30802 0.0
H1936 H 0.24945 0.08616 0.76752 0.0
H1937 H 0.18045 0.08463 0.78876 0.0
H1938 H 0.19176 0.09347 0.82697 0.0
H1939 H 0.22058 0.10618 0.8531 0.0
H1940 H 0.28931 0.11026 0.83134 0.0
H1941 H 0.27881 0.09548 0.79472 0.0
C1942 C 0.23692 0.08737 0.78058 0.0
C1943 C 0.21412 0.08499 0.77523 0.0
C1944 C 0.24348 0.09306 0.80241 0.0
C1945 C 0.1981 0.0866 0.79237 0.0
C1946 C 0.20454 0.09168 0.81424 0.0
C1947 C 0.23337 0.10342 0.84053 0.0
C1948 C 0.25567 0.10954 0.8449 0.0
C1949 C 0.22711 0.09563 0.81928 0.0
C1950 C 0.272 0.10584 0.82837 0.0
C1951 C 0.26599 0.09748 0.80738 0.0
H1952 H 0.38153 0.72843 0.37018 0.0
H1953 H 0.37524 0.7962 0.34593 0.0
H1954 H 0.39112 0.78503 0.31 0.0
H1955 H 0.40234 0.75521 0.2841 0.0
H1956 H 0.40686 0.68713 0.3079 0.0
H1957 H 0.39637 0.69932 0.34541 0.0
C1958 C 0.38398 0.74086 0.35719 0.0
C1959 C 0.37692 0.76306 0.36067 0.0
C1960 C 0.39261 0.73423 0.33638 0.0
C1961 C 0.38034 0.77895 0.34366 0.0
C1962 C 0.38936 0.77257 0.32306 0.0
C1963 C 0.4014 0.74307 0.29756 0.0
C1964 C 0.40509 0.72025 0.2931 0.0
C1965 C 0.39487 0.75011 0.31901 0.0
C1966 C 0.4039 0.70478 0.31079 0.0
C1967 C 0.39785 0.71172 0.33227 0.0
H1968 H 0.74416 0.17945 0.1874 0.0
H1969 H 0.73733 0.11982 0.14725 0.0
H1970 H 0.75754 0.09822 0.17561 0.0
H1971 H 0.77931 0.09698 0.21073 0.0
H1972 H 0.78619 0.15726 0.25006 0.0
H1973 H 0.76382 0.17783 0.22303 0.0
C1974 C 0.74691 0.16168 0.18487 0.0
C1975 C 0.7394 0.15132 0.16515 0.0
C1976 C 0.75873 0.1495 0.20103 0.0
C1977 C 0.74297 0.12823 0.16228 0.0
C1978 C 0.75461 0.1159 0.17844 0.0
C1979 C 0.7758 0.11458 0.21344 0.0
C1980 C 0.78462 0.12555 0.23233 0.0
C1981 C 0.76293 0.12646 0.19771 0.0
C1982 C 0.77978 0.14836 0.23564 0.0
C1983 C 0.76696 0.16019 0.22018 0.0
H1984 H 0.38599 0.24225 0.73036 0.0
H1985 H 0.40575 0.30792 0.70765 0.0
H1986 H 0.40054 0.29637 0.66888 0.0
H1987 H 0.38561 0.26947 0.64196 0.0
H1988 H 0.36364 0.20451 0.66465 0.0
H1989 H 0.37494 0.21379 0.7028 0.0
C1990 C 0.38954 0.25391 0.71692 0.0
C1991 C 0.39592 0.27601 0.72192 0.0
C1992 C 0.38599 0.24733 0.69464 0.0
C1993 C 0.40054 0.29089 0.70429 0.0
C1994 C 0.39755 0.28431 0.68209 0.0
C1995 C 0.3837 0.25714 0.65513 0.0
C1996 C 0.37348 0.23646 0.65049 0.0
C1997 C 0.38955 0.26284 0.67713 0.0
C1998 C 0.37127 0.22065 0.66778 0.0
C1999 C 0.37763 0.22598 0.68964 0.0
H2000 H 0.24393 0.90027 0.21918 0.0
H2001 H 0.17398 0.89752 0.20142 0.0
H2002 H 0.18371 0.88336 0.16438 0.0
H2003 H 0.21166 0.86774 0.13881 0.0
H2004 H 0.28143 0.86828 0.15745 0.0
H2005 H 0.27219 0.88758 0.19225 0.0
C2006 C 0.23083 0.89695 0.20708 0.0
C2007 C 0.20826 0.89975 0.21314 0.0
C2008 C 0.23649 0.88823 0.18602 0.0
C2009 C 0.19149 0.89534 0.19725 0.0
C2010 C 0.19702 0.88719 0.17607 0.0
C2011 C 0.22491 0.8724 0.15029 0.0
C2012 C 0.24717 0.86637 0.14563 0.0
C2013 C 0.21942 0.88295 0.17053 0.0
C2014 C 0.26412 0.87257 0.16071 0.0
C2015 C 0.25885 0.88356 0.18065 0.0
H2016 H 0.62246 0.68884 0.64524 0.0
H2017 H 0.61556 0.7593 0.65963 0.0
H2018 H 0.60112 0.7505 0.69683 0.0
H2019 H 0.59473 0.72294 0.7267 0.0
H2020 H 0.60357 0.65261 0.71263 0.0
H2021 H 0.61285 0.66126 0.67388 0.0
C2022 C 0.61743 0.7023 0.65633 0.0
C2023 C 0.62033 0.72469 0.64972 0.0
C2024 C 0.60974 0.69714 0.6779 0.0
C2025 C 0.61366 0.7419 0.66434 0.0
C2026 C 0.60548 0.73689 0.68566 0.0
C2027 C 0.59837 0.70948 0.71508 0.0
C2028 C 0.59872 0.68719 0.72265 0.0
C2029 C 0.60413 0.71459 0.69287 0.0
C2030 C 0.60341 0.66995 0.70733 0.0
C2031 C 0.60872 0.67486 0.68514 0.0
H2032 H 0.84085 0.77515 0.85886 0.0
H2033 H 0.81935 0.70651 0.86532 0.0
H2034 H 0.7841 0.71892 0.88186 0.0
H2035 H 0.7577 0.74939 0.89016 0.0
H2036 H 0.77913 0.81799 0.8826 0.0
H2037 H 0.81613 0.80541 0.87108 0.0
C2038 C 0.8286 0.76287 0.86417 0.0
C2039 C 0.8326 0.73996 0.86053 0.0
C2040 C 0.80825 0.77011 0.87333 0.0
C2041 C 0.81666 0.72426 0.86778 0.0
C2042 C 0.79644 0.73135 0.87717 0.0
C2043 C 0.77057 0.7616 0.88637 0.0
C2044 C 0.7655 0.7846 0.88694 0.0
C2045 C 0.79178 0.75426 0.87937 0.0
C2046 C 0.78246 0.80018 0.88211 0.0
C2047 C 0.80365 0.79301 0.87545 0.0
H2048 H 0.85489 0.22413 0.10809 0.0
H2049 H 0.83554 0.28852 0.13456 0.0
H2050 H 0.79662 0.28114 0.12468 0.0
H2051 H 0.76761 0.25443 0.11315 0.0
H2052 H 0.78701 0.18944 0.08821 0.0
H2053 H 0.82634 0.19916 0.09269 0.0
C2054 C 0.84225 0.23675 0.11134 0.0
C2055 C 0.8481 0.25669 0.12237 0.0
C2056 C 0.81983 0.23218 0.10613 0.0
C2057 C 0.83149 0.27291 0.12628 0.0
C2058 C 0.80919 0.26868 0.12072 0.0
C2059 C 0.78043 0.24252 0.10834 0.0
C2060 C 0.77433 0.22112 0.10069 0.0
C2061 C 0.80307 0.24805 0.11137 0.0
C2062 C 0.7912 0.20595 0.0944 0.0
C2063 C 0.81373 0.21147 0.09698 0.0
H2064 H 0.27015 0.35112 0.64 0.0
H2065 H 0.20845 0.33896 0.6046 0.0
H2066 H 0.22478 0.30558 0.5873 0.0
H2067 H 0.25547 0.27798 0.58521 0.0
H2068 H 0.31687 0.29064 0.62118 0.0
H2069 H 0.30177 0.32578 0.63513 0.0
C2070 C 0.26032 0.3413 0.62833 0.0
C2071 C 0.23804 0.34732 0.62382 0.0
C2072 C 0.26971 0.32213 0.61865 0.0
C2073 C 0.22564 0.33464 0.60839 0.0
C2074 C 0.23493 0.31549 0.59859 0.0
C2075 C 0.26564 0.28855 0.59588 0.0
C2076 C 0.28716 0.28148 0.60237 0.0
C2077 C 0.25678 0.30877 0.60404 0.0
C2078 C 0.30018 0.29551 0.61606 0.0
C2079 C 0.29156 0.31563 0.62409 0.0
H2080 H 0.2036 0.79394 0.10213 0.0
H2081 H 0.23809 0.73466 0.12484 0.0
H2082 H 0.20258 0.71826 0.13663 0.0
H2083 H 0.16232 0.7224 0.14388 0.0
H2084 H 0.12802 0.78187 0.12127 0.0
H2085 H 0.16284 0.79635 0.10578 0.0
C2086 C 0.20334 0.77733 0.10945 0.0
C2087 C 0.2235 0.76568 0.11288 0.0
C2088 C 0.1829 0.76805 0.11629 0.0
C2089 C 0.22283 0.74405 0.1221 0.0
C2090 C 0.20253 0.73467 0.12892 0.0
C2091 C 0.16237 0.73837 0.13526 0.0
C2092 C 0.14262 0.75115 0.13403 0.0
C2093 C 0.18253 0.74676 0.1266 0.0
C2094 C 0.14298 0.77173 0.12263 0.0
C2095 C 0.16292 0.78009 0.11383 0.0
H2096 H 0.77912 0.65994 0.63313 0.0
H2097 H 0.72042 0.62001 0.64649 0.0
H2098 H 0.69701 0.64776 0.62795 0.0
H2099 H 0.69265 0.68521 0.61189 0.0
H2100 H 0.75113 0.72555 0.59901 0.0
H2101 H 0.77513 0.69568 0.61318 0.0
C2102 C 0.76126 0.65711 0.63168 0.0
C2103 C 0.75154 0.63806 0.64151 0.0
C2104 C 0.74778 0.67332 0.62125 0.0
C2105 C 0.72837 0.63461 0.63928 0.0
C2106 C 0.71491 0.65052 0.62873 0.0
C2107 C 0.71067 0.68737 0.61189 0.0
C2108 C 0.72004 0.70771 0.6047 0.0
C2109 C 0.72436 0.67024 0.62028 0.0
C2110 C 0.74344 0.71012 0.60457 0.0
C2111 C 0.75719 0.69306 0.61275 0.0
H2112 H 0.14416 0.2111 0.87008 0.0
H2113 H 0.16927 0.27799 0.85954 0.0
H2114 H 0.206 0.26658 0.87339 0.0
H2115 H 0.23195 0.23661 0.88438 0.0
H2116 H 0.20709 0.16928 0.89258 0.0
H2117 H 0.16928 0.18192 0.8839 0.0
C2118 C 0.15754 0.22331 0.87117 0.0
C2119 C 0.15403 0.24531 0.8636 0.0
C2120 C 0.17875 0.21649 0.87851 0.0
C2121 C 0.17157 0.2609 0.86513 0.0
C2122 C 0.19261 0.25437 0.87297 0.0
C2123 C 0.2182 0.22477 0.88461 0.0
C2124 C 0.22237 0.20201 0.88891 0.0
C2125 C 0.19656 0.23205 0.87907 0.0
C2126 C 0.20437 0.18687 0.88912 0.0
C2127 C 0.18274 0.19407 0.88415 0.0
H2128 H 0.3052 0.71998 0.40392 0.0
H2129 H 0.24522 0.75982 0.40947 0.0
H2130 H 0.22264 0.72789 0.39775 0.0
H2131 H 0.22046 0.69006 0.38178 0.0
H2132 H 0.28059 0.65034 0.37623 0.0
H2133 H 0.30243 0.68067 0.39244 0.0
C2134 C 0.28716 0.72159 0.40285 0.0
C2135 C 0.27696 0.74234 0.40722 0.0
C2136 C 0.27427 0.70321 0.39599 0.0
C2137 C 0.25353 0.74408 0.40608 0.0
C2138 C 0.24059 0.72583 0.3993 0.0
C2139 C 0.23828 0.68788 0.38446 0.0
C2140 C 0.24888 0.66807 0.37742 0.0
C2141 C 0.25085 0.70551 0.39359 0.0
C2142 C 0.27196 0.66546 0.38128 0.0
C2143 C 0.28453 0.68285 0.39048 0.0
H2144 H 0.72136 0.35835 0.36527 0.0
H2145 H 0.78953 0.33621 0.35637 0.0
H2146 H 0.78012 0.29994 0.3727 0.0
H2147 H 0.75174 0.27339 0.38601 0.0
H2148 H 0.68319 0.2951 0.39297 0.0
H2149 H 0.69361 0.33271 0.38103 0.0
C2150 C 0.73427 0.34574 0.3672 0.0
C2151 C 0.75608 0.34994 0.35944 0.0
C2152 C 0.72862 0.32475 0.37608 0.0
C2153 C 0.77257 0.33337 0.36208 0.0
C2154 C 0.76719 0.3126 0.37136 0.0
C2155 C 0.73913 0.28642 0.38522 0.0
C2156 C 0.71669 0.28137 0.3902 0.0
C2157 C 0.74514 0.30791 0.37788 0.0
C2158 C 0.70056 0.29847 0.38907 0.0
C2159 C 0.70649 0.31999 0.38222 0.0
loop_
_geom_bond_atom_site_label_1
_geom_bond_atom_site_label_2
_geom_bond_distance
_geom_bond_site_symmetry_2
_ccdc_geom_bond_type
C0 O1 1.160 . S
C0 O7 1.185 . S
O1 C0 1.160 . S
O2 Zn3 1.899 . S
O2 C10 1.284 . S
Zn3 O2 1.899 . S
Zn3 O4 2.032 . S
Zn3 O7 2.086 . S
Zn3 O12 1.977 . S
O4 Zn3 2.032 . S
O4 C8 1.278 . S
C5 O6 1.203 . S
C5 O12 1.267 . S
O6 C5 1.203 . S
O7 C0 1.185 . S
O7 Zn3 2.086 . S
C8 O4 1.278 . S
C8 O9 1.211 . S
O9 C8 1.211 . S
C10 O2 1.284 . S
C10 O11 1.273 . S
O11 C10 1.273 . S
O12 Zn3 1.977 . S
O12 C5 1.267 . S
C13 O14 1.160 . S
C13 O20 1.185 . S
O14 C13 1.160 . S
O15 Zn16 1.899 . S
O15 C23 1.284 . S
Zn16 O15 1.899 . S
Zn16 O17 2.032 . S
Zn16 O20 2.086 . S
Zn16 O25 1.977 . S
O17 Zn16 2.032 . S
O17 C21 1.278 . S
C18 O19 1.203 . S
C18 O25 1.267 . S
O19 C18 1.203 . S
O20 C13 1.185 . S
O20 Zn16 2.086 . S
C21 O17 1.278 . S
C21 O22 1.211 . S
O22 C21 1.211 . S
C23 O15 1.284 . S
C23 O24 1.273 . S
O24 C23 1.273 . S
O25 Zn16 1.977 . S
O25 C18 1.267 . S
C26 O27 1.160 . S
C26 O33 1.185 . S
O27 C26 1.160 . S
O28 Zn29 1.899 . S
O28 C36 1.284 . S
Zn29 O28 1.899 . S
Zn29 O30 2.032 . S
Zn29 O33 2.086 . S
Zn29 O38 1.977 . S
O30 Zn29 2.032 . S
O30 C34 1.278 . S
C31 O32 1.203 . S
C31 O38 1.267 . S
O32 C31 1.203 . S
O33 C26 1.185 . S
O33 Zn29 2.086 . S
C34 O30 1.278 . S
C34 O35 1.211 . S
O35 C34 1.211 . S
C36 O28 1.284 . S
C36 O37 1.273 . S
O37 C36 1.273 . S
O38 Zn29 1.977 . S
O38 C31 1.267 . S
C39 O40 1.160 . S
C39 O46 1.185 . S
O40 C39 1.160 . S
O41 Zn42 1.899 . S
O41 C49 1.284 . S
Zn42 O41 1.899 . S
Zn42 O43 2.032 . S
Zn42 O46 2.086 . S
Zn42 O51 1.977 . S
O43 Zn42 2.032 . S
O43 C47 1.278 . S
C44 O45 1.203 . S
C44 O51 1.267 . S
O45 C44 1.203 . S
O46 C39 1.185 . S
O46 Zn42 2.086 . S
C47 O43 1.278 . S
C47 O48 1.211 . S
O48 C47 1.211 . S
C49 O41 1.284 . S
C49 O50 1.273 . S
O50 C49 1.273 . S
O51 Zn42 1.977 . S
O51 C44 1.267 . S
C52 O53 1.160 . S
C52 O59 1.185 . S
O53 C52 1.160 . S
O54 Zn55 1.899 . S
O54 C62 1.284 . S
Zn55 O54 1.899 . S
Zn55 O56 2.032 . S
Zn55 O59 2.086 . S
Zn55 O64 1.977 . S
O56 Zn55 2.032 . S
O56 C60 1.278 . S
C57 O58 1.203 . S
C57 O64 1.267 . S
O58 C57 1.203 . S
O59 C52 1.185 . S
O59 Zn55 2.086 . S
C60 O56 1.278 . S
C60 O61 1.211 . S
O61 C60 1.211 . S
C62 O54 1.284 . S
C62 O63 1.273 . S
O63 C62 1.273 . S
O64 Zn55 1.977 . S
O64 C57 1.267 . S
C65 O66 1.160 . S
C65 O72 1.185 . S
O66 C65 1.160 . S
O67 Zn68 1.899 . S
O67 C75 1.284 . S
Zn68 O67 1.899 . S
Zn68 O69 2.032 . S
Zn68 O72 2.086 . S
Zn68 O77 1.977 . S
O69 Zn68 2.032 . S
O69 C73 1.278 . S
C70 O71 1.203 . S
C70 O77 1.267 . S
O71 C70 1.203 . S
O72 C65 1.185 . S
O72 Zn68 2.086 . S
C73 O69 1.278 . S
C73 O74 1.211 . S
O74 C73 1.211 . S
C75 O67 1.284 . S
C75 O76 1.273 . S
O76 C75 1.273 . S
O77 Zn68 1.977 . S
O77 C70 1.267 . S
C78 O79 1.160 . S
C78 O85 1.185 . S
O79 C78 1.160 . S
O80 Zn81 1.899 . S
O80 C88 1.284 . S
Zn81 O80 1.899 . S
Zn81 O82 2.032 . S
Zn81 O85 2.086 . S
Zn81 O90 1.977 . S
O82 Zn81 2.032 . S
O82 C86 1.278 . S
C83 O84 1.203 . S
C83 O90 1.267 . S
O84 C83 1.203 . S
O85 C78 1.185 . S
O85 Zn81 2.086 . S
C86 O82 1.278 . S
C86 O87 1.211 . S
O87 C86 1.211 . S
C88 O80 1.284 . S
C88 O89 1.273 . S
O89 C88 1.273 . S
O90 Zn81 1.977 . S
O90 C83 1.267 . S
C91 O92 1.160 . S
C91 O98 1.185 . S
O92 C91 1.160 . S
O93 Zn94 1.899 . S
O93 C101 1.284 . S
Zn94 O93 1.899 . S
Zn94 O95 2.032 . S
Zn94 O98 2.086 . S
Zn94 O103 1.977 . S
O95 Zn94 2.032 . S
O95 C99 1.278 . S
C96 O97 1.203 . S
C96 O103 1.267 . S
O97 C96 1.203 . S
O98 C91 1.185 . S
O98 Zn94 2.086 . S
C99 O95 1.278 . S
C99 O100 1.211 . S
O100 C99 1.211 . S
C101 O93 1.284 . S
C101 O102 1.273 . S
O102 C101 1.273 . S
O103 Zn94 1.977 . S
O103 C96 1.267 . S
C104 O105 1.160 . S
C104 O111 1.185 . S
O105 C104 1.160 . S
O106 Zn107 1.899 . S
O106 C114 1.284 . S
Zn107 O106 1.899 . S
Zn107 O108 2.032 . S
Zn107 O111 2.086 . S
Zn107 O116 1.977 . S
O108 Zn107 2.032 . S
O108 C112 1.278 . S
C109 O110 1.203 . S
C109 O116 1.267 . S
O110 C109 1.203 . S
O111 C104 1.185 . S
O111 Zn107 2.086 . S
C112 O108 1.278 . S
C112 O113 1.211 . S
O113 C112 1.211 . S
C114 O106 1.284 . S
C114 O115 1.273 . S
O115 C114 1.273 . S
O116 Zn107 1.977 . S
O116 C109 1.267 . S
C117 O118 1.160 . S
C117 O124 1.185 . S
O118 C117 1.160 . S
O119 Zn120 1.899 . S
O119 C127 1.284 . S
Zn120 O119 1.899 . S
Zn120 O121 2.032 . S
Zn120 O124 2.086 . S
Zn120 O129 1.977 . S
O121 Zn120 2.032 . S
O121 C125 1.278 . S
C122 O123 1.203 . S
C122 O129 1.267 . S
O123 C122 1.203 . S
O124 C117 1.185 . S
O124 Zn120 2.086 . S
C125 O121 1.278 . S
C125 O126 1.211 . S
O126 C125 1.211 . S
C127 O119 1.284 . S
C127 O128 1.273 . S
O128 C127 1.273 . S
O129 Zn120 1.977 . S
O129 C122 1.267 . S
C130 O131 1.160 . S
C130 O137 1.185 . S
O131 C130 1.160 . S
O132 Zn133 1.899 . S
O132 C140 1.284 . S
Zn133 O132 1.899 . S
Zn133 O134 2.032 . S
Zn133 O137 2.086 . S
Zn133 O142 1.977 . S
O134 Zn133 2.032 . S
O134 C138 1.278 . S
C135 O136 1.203 . S
C135 O142 1.267 . S
O136 C135 1.203 . S
O137 C130 1.185 . S
O137 Zn133 2.086 . S
C138 O134 1.278 . S
C138 O139 1.211 . S
O139 C138 1.211 . S
C140 O132 1.284 . S
C140 O141 1.273 . S
O141 C140 1.273 . S
O142 Zn133 1.977 . S
O142 C135 1.267 . S
C143 O144 1.160 . S
C143 O150 1.185 . S
O144 C143 1.160 . S
O145 Zn146 1.899 . S
O145 C153 1.284 . S
Zn146 O145 1.899 . S
Zn146 O147 2.032 . S
Zn146 O150 2.086 . S
Zn146 O155 1.977 . S
O147 Zn146 2.032 . S
O147 C151 1.278 . S
C148 O149 1.203 . S
C148 O155 1.267 . S
O149 C148 1.203 . S
O150 C143 1.185 . S
O150 Zn146 2.086 . S
C151 O147 1.278 . S
C151 O152 1.211 . S
O152 C151 1.211 . S
C153 O145 1.284 . S
C153 O154 1.273 . S
O154 C153 1.273 . S
O155 Zn146 1.977 . S
O155 C148 1.267 . S
C156 O157 1.160 . S
C156 O163 1.185 . S
O157 C156 1.160 . S
O158 Zn159 1.899 . S
O158 C166 1.284 . S
Zn159 O158 1.899 . S
Zn159 O160 2.032 . S
Zn159 O163 2.086 . S
Zn159 O168 1.977 . S
O160 Zn159 2.032 . S
O160 C164 1.278 . S
C161 O162 1.203 . S
C161 O168 1.267 . S
O162 C161 1.203 . S
O163 C156 1.185 . S
O163 Zn159 2.086 . S
C164 O160 1.278 . S
C164 O165 1.211 . S
O165 C164 1.211 . S
C166 O158 1.284 . S
C166 O167 1.273 . S
O167 C166 1.273 . S
O168 Zn159 1.977 . S
O168 C161 1.267 . S
C169 O170 1.160 . S
C169 O176 1.185 . S
O170 C169 1.160 . S
O171 Zn172 1.899 . S
O171 C179 1.284 . S
Zn172 O171 1.899 . S
Zn172 O173 2.032 . S
Zn172 O176 2.086 . S
Zn172 O181 1.977 . S
O173 Zn172 2.032 . S
O173 C177 1.278 . S
C174 O175 1.203 . S
C174 O181 1.267 . S
O175 C174 1.203 . S
O176 C169 1.185 . S
O176 Zn172 2.086 . S
C177 O173 1.278 . S
C177 O178 1.211 . S
O178 C177 1.211 . S
C179 O171 1.284 . S
C179 O180 1.273 . S
O180 C179 1.273 . S
O181 Zn172 1.977 . S
O181 C174 1.267 . S
C182 O183 1.160 . S
C182 O189 1.185 . S
O183 C182 1.160 . S
O184 Zn185 1.899 . S
O184 C192 1.284 . S
Zn185 O184 1.899 . S
Zn185 O186 2.032 . S
Zn185 O189 2.086 . S
Zn185 O194 1.977 . S
O186 Zn185 2.032 . S
O186 C190 1.278 . S
C187 O188 1.203 . S
C187 O194 1.267 . S
O188 C187 1.203 . S
O189 C182 1.185 . S
O189 Zn185 2.086 . S
C190 O186 1.278 . S
C190 O191 1.211 . S
O191 C190 1.211 . S
C192 O184 1.284 . S
C192 O193 1.273 . S
O193 C192 1.273 . S
O194 Zn185 1.977 . S
O194 C187 1.267 . S
C195 O196 1.160 . S
C195 O202 1.185 . S
O196 C195 1.160 . S
O197 Zn198 1.899 . S
O197 C205 1.284 . S
Zn198 O197 1.899 . S
Zn198 O199 2.032 . S
Zn198 O202 2.086 . S
Zn198 O207 1.977 . S
O199 Zn198 2.032 . S
O199 C203 1.278 . S
C200 O201 1.203 . S
C200 O207 1.267 . S
O201 C200 1.203 . S
O202 C195 1.185 . S
O202 Zn198 2.086 . S
C203 O199 1.278 . S
C203 O204 1.211 . S
O204 C203 1.211 . S
C205 O197 1.284 . S
C205 O206 1.273 . S
O206 C205 1.273 . S
O207 Zn198 1.977 . S
O207 C200 1.267 . S
C208 O209 1.160 . S
C208 O215 1.185 . S
O209 C208 1.160 . S
O210 Zn211 1.899 . S
O210 C218 1.284 . S
Zn211 O210 1.899 . S
Zn211 O212 2.032 . S
Zn211 O215 2.086 . S
Zn211 O220 1.977 . S
O212 Zn211 2.032 . S
O212 C216 1.278 . S
C213 O214 1.203 . S
C213 O220 1.267 . S
O214 C213 1.203 . S
O215 C208 1.185 . S
O215 Zn211 2.086 . S
C216 O212 1.278 . S
C216 O217 1.211 . S
O217 C216 1.211 . S
C218 O210 1.284 . S
C218 O219 1.273 . S
O219 C218 1.273 . S
O220 Zn211 1.977 . S
O220 C213 1.267 . S
C221 O222 1.160 . S
C221 O228 1.185 . S
O222 C221 1.160 . S
O223 Zn224 1.899 . S
O223 C231 1.284 . S
Zn224 O223 1.899 . S
Zn224 O225 2.032 . S
Zn224 O228 2.086 . S
Zn224 O233 1.977 . S
O225 Zn224 2.032 . S
O225 C229 1.278 . S
C226 O227 1.203 . S
C226 O233 1.267 . S
O227 C226 1.203 . S
O228 C221 1.185 . S
O228 Zn224 2.086 . S
C229 O225 1.278 . S
C229 O230 1.211 . S
O230 C229 1.211 . S
C231 O223 1.284 . S
C231 O232 1.273 . S
O232 C231 1.273 . S
O233 Zn224 1.977 . S
O233 C226 1.267 . S
C234 O235 1.160 . S
C234 O241 1.185 . S
O235 C234 1.160 . S
O236 Zn237 1.899 . S
O236 C244 1.284 . S
Zn237 O236 1.899 . S
Zn237 O238 2.032 . S
Zn237 O241 2.086 . S
Zn237 O246 1.977 . S
O238 Zn237 2.032 . S
O238 C242 1.278 . S
C239 O240 1.203 . S
C239 O246 1.267 . S
O240 C239 1.203 . S
O241 C234 1.185 . S
O241 Zn237 2.086 . S
C242 O238 1.278 . S
C242 O243 1.211 . S
O243 C242 1.211 . S
C244 O236 1.284 . S
C244 O245 1.273 . S
O245 C244 1.273 . S
O246 Zn237 1.977 . S
O246 C239 1.267 . S
C247 O248 1.160 . S
C247 O254 1.185 . S
O248 C247 1.160 . S
O249 Zn250 1.899 . S
O249 C257 1.284 . S
Zn250 O249 1.899 . S
Zn250 O251 2.032 . S
Zn250 O254 2.086 . S
Zn250 O259 1.977 . S
O251 Zn250 2.032 . S
O251 C255 1.278 . S
C252 O253 1.203 . S
C252 O259 1.267 . S
O253 C252 1.203 . S
O254 C247 1.185 . S
O254 Zn250 2.086 . S
C255 O251 1.278 . S
C255 O256 1.211 . S
O256 C255 1.211 . S
C257 O249 1.284 . S
C257 O258 1.273 . S
O258 C257 1.273 . S
O259 Zn250 1.977 . S
O259 C252 1.267 . S
C260 O261 1.160 . S
C260 O267 1.185 . S
O261 C260 1.160 . S
O262 Zn263 1.899 . S
O262 C270 1.284 . S
Zn263 O262 1.899 . S
Zn263 O264 2.032 . S
Zn263 O267 2.086 . S
Zn263 O272 1.977 . S
O264 Zn263 2.032 . S
O264 C268 1.278 . S
C265 O266 1.203 . S
C265 O272 1.267 . S
O266 C265 1.203 . S
O267 C260 1.185 . S
O267 Zn263 2.086 . S
C268 O264 1.278 . S
C268 O269 1.211 . S
O269 C268 1.211 . S
C270 O262 1.284 . S
C270 O271 1.273 . S
O271 C270 1.273 . S
O272 Zn263 1.977 . S
O272 C265 1.267 . S
C273 O274 1.160 . S
C273 O280 1.185 . S
O274 C273 1.160 . S
O275 Zn276 1.899 . S
O275 C283 1.284 . S
Zn276 O275 1.899 . S
Zn276 O277 2.032 . S
Zn276 O280 2.086 . S
Zn276 O285 1.977 . S
O277 Zn276 2.032 . S
O277 C281 1.278 . S
C278 O279 1.203 . S
C278 O285 1.267 . S
O279 C278 1.203 . S
O280 C273 1.185 . S
O280 Zn276 2.086 . S
C281 O277 1.278 . S
C281 O282 1.211 . S
O282 C281 1.211 . S
C283 O275 1.284 . S
C283 O284 1.273 . S
O284 C283 1.273 . S
O285 Zn276 1.977 . S
O285 C278 1.267 . S
C286 O287 1.160 . S
C286 O293 1.185 . S
O287 C286 1.160 . S
O288 Zn289 1.899 . S
O288 C296 1.284 . S
Zn289 O288 1.899 . S
Zn289 O290 2.032 . S
Zn289 O293 2.086 . S
Zn289 O298 1.977 . S
O290 Zn289 2.032 . S
O290 C294 1.278 . S
C291 O292 1.203 . S
C291 O298 1.267 . S
O292 C291 1.203 . S
O293 C286 1.185 . S
O293 Zn289 2.086 . S
C294 O290 1.278 . S
C294 O295 1.211 . S
O295 C294 1.211 . S
C296 O288 1.284 . S
C296 O297 1.273 . S
O297 C296 1.273 . S
O298 Zn289 1.977 . S
O298 C291 1.267 . S
C299 O300 1.160 . S
C299 O306 1.185 . S
O300 C299 1.160 . S
O301 Zn302 1.899 . S
O301 C309 1.284 . S
Zn302 O301 1.899 . S
Zn302 O303 2.032 . S
Zn302 O306 2.086 . S
Zn302 O311 1.977 . S
O303 Zn302 2.032 . S
O303 C307 1.278 . S
C304 O305 1.203 . S
C304 O311 1.267 . S
O305 C304 1.203 . S
O306 C299 1.185 . S
O306 Zn302 2.086 . S
C307 O303 1.278 . S
C307 O308 1.211 . S
O308 C307 1.211 . S
C309 O301 1.284 . S
C309 O310 1.273 . S
O310 C309 1.273 . S
O311 Zn302 1.977 . S
O311 C304 1.267 . S
C312 O313 1.160 . S
C312 O319 1.185 . S
O313 C312 1.160 . S
O314 Zn315 1.899 . S
O314 C322 1.284 . S
Zn315 O314 1.899 . S
Zn315 O316 2.032 . S
Zn315 O319 2.086 . S
Zn315 O324 1.977 . S
O316 Zn315 2.032 . S
O316 C320 1.278 . S
C317 O318 1.203 . S
C317 O324 1.267 . S
O318 C317 1.203 . S
O319 C312 1.185 . S
O319 Zn315 2.086 . S
C320 O316 1.278 . S
C320 O321 1.211 . S
O321 C320 1.211 . S
C322 O314 1.284 . S
C322 O323 1.273 . S
O323 C322 1.273 . S
O324 Zn315 1.977 . S
O324 C317 1.267 . S
C325 O326 1.160 . S
C325 O332 1.185 . S
O326 C325 1.160 . S
O327 Zn328 1.899 . S
O327 C335 1.284 . S
Zn328 O327 1.899 . S
Zn328 O329 2.032 . S
Zn328 O332 2.086 . S
Zn328 O337 1.977 . S
O329 Zn328 2.032 . S
O329 C333 1.278 . S
C330 O331 1.203 . S
C330 O337 1.267 . S
O331 C330 1.203 . S
O332 C325 1.185 . S
O332 Zn328 2.086 . S
C333 O329 1.278 . S
C333 O334 1.211 . S
O334 C333 1.211 . S
C335 O327 1.284 . S
C335 O336 1.273 . S
O336 C335 1.273 . S
O337 Zn328 1.977 . S
O337 C330 1.267 . S
C338 O339 1.160 . S
C338 O345 1.185 . S
O339 C338 1.160 . S
O340 Zn341 1.899 . S
O340 C348 1.284 . S
Zn341 O340 1.899 . S
Zn341 O342 2.032 . S
Zn341 O345 2.086 . S
Zn341 O350 1.977 . S
O342 Zn341 2.032 . S
O342 C346 1.278 . S
C343 O344 1.203 . S
C343 O350 1.267 . S
O344 C343 1.203 . S
O345 C338 1.185 . S
O345 Zn341 2.086 . S
C346 O342 1.278 . S
C346 O347 1.211 . S
O347 C346 1.211 . S
C348 O340 1.284 . S
C348 O349 1.273 . S
O349 C348 1.273 . S
O350 Zn341 1.977 . S
O350 C343 1.267 . S
C351 O352 1.160 . S
C351 O358 1.185 . S
O352 C351 1.160 . S
O353 Zn354 1.899 . S
O353 C361 1.284 . S
Zn354 O353 1.899 . S
Zn354 O355 2.032 . S
Zn354 O358 2.086 . S
Zn354 O363 1.977 . S
O355 Zn354 2.032 . S
O355 C359 1.278 . S
C356 O357 1.203 . S
C356 O363 1.267 . S
O357 C356 1.203 . S
O358 C351 1.185 . S
O358 Zn354 2.086 . S
C359 O355 1.278 . S
C359 O360 1.211 . S
O360 C359 1.211 . S
C361 O353 1.284 . S
C361 O362 1.273 . S
O362 C361 1.273 . S
O363 Zn354 1.977 . S
O363 C356 1.267 . S
C364 O365 1.160 . S
C364 O371 1.185 . S
O365 C364 1.160 . S
O366 Zn367 1.899 . S
O366 C374 1.284 . S
Zn367 O366 1.899 . S
Zn367 O368 2.032 . S
Zn367 O371 2.086 . S
Zn367 O376 1.977 . S
O368 Zn367 2.032 . S
O368 C372 1.278 . S
C369 O370 1.203 . S
C369 O376 1.267 . S
O370 C369 1.203 . S
O371 C364 1.185 . S
O371 Zn367 2.086 . S
C372 O368 1.278 . S
C372 O373 1.211 . S
O373 C372 1.211 . S
C374 O366 1.284 . S
C374 O375 1.273 . S
O375 C374 1.273 . S
O376 Zn367 1.977 . S
O376 C369 1.267 . S
C377 O378 1.160 . S
C377 O384 1.185 . S
O378 C377 1.160 . S
O379 Zn380 1.899 . S
O379 C387 1.284 . S
Zn380 O379 1.899 . S
Zn380 O381 2.032 . S
Zn380 O384 2.086 . S
Zn380 O389 1.977 . S
O381 Zn380 2.032 . S
O381 C385 1.278 . S
C382 O383 1.203 . S
C382 O389 1.267 . S
O383 C382 1.203 . S
O384 C377 1.185 . S
O384 Zn380 2.086 . S
C385 O381 1.278 . S
C385 O386 1.211 . S
O386 C385 1.211 . S
C387 O379 1.284 . S
C387 O388 1.273 . S
O388 C387 1.273 . S
O389 Zn380 1.977 . S
O389 C382 1.267 . S
C390 O391 1.160 . S
C390 O397 1.185 . S
O391 C390 1.160 . S
O392 Zn393 1.899 . S
O392 C400 1.284 . S
Zn393 O392 1.899 . S
Zn393 O394 2.032 . S
Zn393 O397 2.086 . S
Zn393 O402 1.977 . S
O394 Zn393 2.032 . S
O394 C398 1.278 . S
C395 O396 1.203 . S
C395 O402 1.267 . S
O396 C395 1.203 . S
O397 C390 1.185 . S
O397 Zn393 2.086 . S
C398 O394 1.278 . S
C398 O399 1.211 . S
O399 C398 1.211 . S
C400 O392 1.284 . S
C400 O401 1.273 . S
O401 C400 1.273 . S
O402 Zn393 1.977 . S
O402 C395 1.267 . S
C403 O404 1.160 . S
C403 O410 1.185 . S
O404 C403 1.160 . S
O405 Zn406 1.899 . S
O405 C413 1.284 . S
Zn406 O405 1.899 . S
Zn406 O407 2.032 . S
Zn406 O410 2.086 . S
Zn406 O415 1.977 . S
O407 Zn406 2.032 . S
O407 C411 1.278 . S
C408 O409 1.203 . S
C408 O415 1.267 . S
O409 C408 1.203 . S
O410 C403 1.185 . S
O410 Zn406 2.086 . S
C411 O407 1.278 . S
C411 O412 1.211 . S
O412 C411 1.211 . S
C413 O405 1.284 . S
C413 O414 1.273 . S
O414 C413 1.273 . S
O415 Zn406 1.977 . S
O415 C408 1.267 . S
C416 O417 1.160 . S
C416 O423 1.185 . S
O417 C416 1.160 . S
O418 Zn419 1.899 . S
O418 C426 1.284 . S
Zn419 O418 1.899 . S
Zn419 O420 2.032 . S
Zn419 O423 2.086 . S
Zn419 O428 1.977 . S
O420 Zn419 2.032 . S
O420 C424 1.278 . S
C421 O422 1.203 . S
C421 O428 1.267 . S
O422 C421 1.203 . S
O423 C416 1.185 . S
O423 Zn419 2.086 . S
C424 O420 1.278 . S
C424 O425 1.211 . S
O425 C424 1.211 . S
C426 O418 1.284 . S
C426 O427 1.273 . S
O427 C426 1.273 . S
O428 Zn419 1.977 . S
O428 C421 1.267 . S
C429 O430 1.160 . S
C429 O436 1.185 . S
O430 C429 1.160 . S
O431 Zn432 1.899 . S
O431 C439 1.284 . S
Zn432 O431 1.899 . S
Zn432 O433 2.032 . S
Zn432 O436 2.086 . S
Zn432 O441 1.977 . S
O433 Zn432 2.032 . S
O433 C437 1.278 . S
C434 O435 1.203 . S
C434 O441 1.267 . S
O435 C434 1.203 . S
O436 C429 1.185 . S
O436 Zn432 2.086 . S
C437 O433 1.278 . S
C437 O438 1.211 . S
O438 C437 1.211 . S
C439 O431 1.284 . S
C439 O440 1.273 . S
O440 C439 1.273 . S
O441 Zn432 1.977 . S
O441 C434 1.267 . S
C442 O443 1.160 . S
C442 O449 1.185 . S
O443 C442 1.160 . S
O444 Zn445 1.899 . S
O444 C452 1.284 . S
Zn445 O444 1.899 . S
Zn445 O446 2.032 . S
Zn445 O449 2.086 . S
Zn445 O454 1.977 . S
O446 Zn445 2.032 . S
O446 C450 1.278 . S
C447 O448 1.203 . S
C447 O454 1.267 . S
O448 C447 1.203 . S
O449 C442 1.185 . S
O449 Zn445 2.086 . S
C450 O446 1.278 . S
C450 O451 1.211 . S
O451 C450 1.211 . S
C452 O444 1.284 . S
C452 O453 1.273 . S
O453 C452 1.273 . S
O454 Zn445 1.977 . S
O454 C447 1.267 . S
C455 O456 1.160 . S
C455 O462 1.185 . S
O456 C455 1.160 . S
O457 Zn458 1.899 . S
O457 C465 1.284 . S
Zn458 O457 1.899 . S
Zn458 O459 2.032 . S
Zn458 O462 2.086 . S
Zn458 O467 1.977 . S
O459 Zn458 2.032 . S
O459 C463 1.278 . S
C460 O461 1.203 . S
C460 O467 1.267 . S
O461 C460 1.203 . S
O462 C455 1.185 . S
O462 Zn458 2.086 . S
C463 O459 1.278 . S
C463 O464 1.211 . S
O464 C463 1.211 . S
C465 O457 1.284 . S
C465 O466 1.273 . S
O466 C465 1.273 . S
O467 Zn458 1.977 . S
O467 C460 1.267 . S
C468 O469 1.160 . S
C468 O475 1.185 . S
O469 C468 1.160 . S
O470 Zn471 1.899 . S
O470 C478 1.284 . S
Zn471 O470 1.899 . S
Zn471 O472 2.032 . S
Zn471 O475 2.086 . S
Zn471 O480 1.977 . S
O472 Zn471 2.032 . S
O472 C476 1.278 . S
C473 O474 1.203 . S
C473 O480 1.267 . S
O474 C473 1.203 . S
O475 C468 1.185 . S
O475 Zn471 2.086 . S
C476 O472 1.278 . S
C476 O477 1.211 . S
O477 C476 1.211 . S
C478 O470 1.284 . S
C478 O479 1.273 . S
O479 C478 1.273 . S
O480 Zn471 1.977 . S
O480 C473 1.267 . S
C481 O482 1.160 . S
C481 O488 1.185 . S
O482 C481 1.160 . S
O483 Zn484 1.899 . S
O483 C491 1.284 . S
Zn484 O483 1.899 . S
Zn484 O485 2.032 . S
Zn484 O488 2.086 . S
Zn484 O493 1.977 . S
O485 Zn484 2.032 . S
O485 C489 1.278 . S
C486 O487 1.203 . S
C486 O493 1.267 . S
O487 C486 1.203 . S
O488 C481 1.185 . S
O488 Zn484 2.086 . S
C489 O485 1.278 . S
C489 O490 1.211 . S
O490 C489 1.211 . S
C491 O483 1.284 . S
C491 O492 1.273 . S
O492 C491 1.273 . S
O493 Zn484 1.977 . S
O493 C486 1.267 . S
C494 O495 1.160 . S
C494 O501 1.185 . S
O495 C494 1.160 . S
O496 Zn497 1.899 . S
O496 C504 1.284 . S
Zn497 O496 1.899 . S
Zn497 O498 2.032 . S
Zn497 O501 2.086 . S
Zn497 O506 1.977 . S
O498 Zn497 2.032 . S
O498 C502 1.278 . S
C499 O500 1.203 . S
C499 O506 1.267 . S
O500 C499 1.203 . S
O501 C494 1.185 . S
O501 Zn497 2.086 . S
C502 O498 1.278 . S
C502 O503 1.211 . S
O503 C502 1.211 . S
C504 O496 1.284 . S
C504 O505 1.273 . S
O505 C504 1.273 . S
O506 Zn497 1.977 . S
O506 C499 1.267 . S
C507 O508 1.160 . S
C507 O514 1.185 . S
O508 C507 1.160 . S
O509 Zn510 1.899 . S
O509 C517 1.284 . S
Zn510 O509 1.899 . S
Zn510 O511 2.032 . S
Zn510 O514 2.086 . S
Zn510 O519 1.977 . S
O511 Zn510 2.032 . S
O511 C515 1.278 . S
C512 O513 1.203 . S
C512 O519 1.267 . S
O513 C512 1.203 . S
O514 C507 1.185 . S
O514 Zn510 2.086 . S
C515 O511 1.278 . S
C515 O516 1.211 . S
O516 C515 1.211 . S
C517 O509 1.284 . S
C517 O518 1.273 . S
O518 C517 1.273 . S
O519 Zn510 1.977 . S
O519 C512 1.267 . S
C520 O521 1.160 . S
C520 O527 1.185 . S
O521 C520 1.160 . S
O522 Zn523 1.899 . S
O522 C530 1.284 . S
Zn523 O522 1.899 . S
Zn523 O524 2.032 . S
Zn523 O527 2.086 . S
Zn523 O532 1.977 . S
O524 Zn523 2.032 . S
O524 C528 1.278 . S
C525 O526 1.203 . S
C525 O532 1.267 . S
O526 C525 1.203 . S
O527 C520 1.185 . S
O527 Zn523 2.086 . S
C528 O524 1.278 . S
C528 O529 1.211 . S
O529 C528 1.211 . S
C530 O522 1.284 . S
C530 O531 1.273 . S
O531 C530 1.273 . S
O532 Zn523 1.977 . S
O532 C525 1.267 . S
C533 O534 1.160 . S
C533 O540 1.185 . S
O534 C533 1.160 . S
O535 Zn536 1.899 . S
O535 C543 1.284 . S
Zn536 O535 1.899 . S
Zn536 O537 2.032 . S
Zn536 O540 2.086 . S
Zn536 O545 1.977 . S
O537 Zn536 2.032 . S
O537 C541 1.278 . S
C538 O539 1.203 . S
C538 O545 1.267 . S
O539 C538 1.203 . S
O540 C533 1.185 . S
O540 Zn536 2.086 . S
C541 O537 1.278 . S
C541 O542 1.211 . S
O542 C541 1.211 . S
C543 O535 1.284 . S
C543 O544 1.273 . S
O544 C543 1.273 . S
O545 Zn536 1.977 . S
O545 C538 1.267 . S
C546 O547 1.160 . S
C546 O553 1.185 . S
O547 C546 1.160 . S
O548 Zn549 1.899 . S
O548 C556 1.284 . S
Zn549 O548 1.899 . S
Zn549 O550 2.032 . S
Zn549 O553 2.086 . S
Zn549 O558 1.977 . S
O550 Zn549 2.032 . S
O550 C554 1.278 . S
C551 O552 1.203 . S
C551 O558 1.267 . S
O552 C551 1.203 . S
O553 C546 1.185 . S
O553 Zn549 2.086 . S
C554 O550 1.278 . S
C554 O555 1.211 . S
O555 C554 1.211 . S
C556 O548 1.284 . S
C556 O557 1.273 . S
O557 C556 1.273 . S
O558 Zn549 1.977 . S
O558 C551 1.267 . S
C559 O560 1.160 . S
C559 O566 1.185 . S
O560 C559 1.160 . S
O561 Zn562 1.899 . S
O561 C569 1.284 . S
Zn562 O561 1.899 . S
Zn562 O563 2.032 . S
Zn562 O566 2.086 . S
Zn562 O571 1.977 . S
O563 Zn562 2.032 . S
O563 C567 1.278 . S
C564 O565 1.203 . S
C564 O571 1.267 . S
O565 C564 1.203 . S
O566 C559 1.185 . S
O566 Zn562 2.086 . S
C567 O563 1.278 . S
C567 O568 1.211 . S
O568 C567 1.211 . S
C569 O561 1.284 . S
C569 O570 1.273 . S
O570 C569 1.273 . S
O571 Zn562 1.977 . S
O571 C564 1.267 . S
C572 O573 1.160 . S
C572 O579 1.185 . S
O573 C572 1.160 . S
O574 Zn575 1.899 . S
O574 C582 1.284 . S
Zn575 O574 1.899 . S
Zn575 O576 2.032 . S
Zn575 O579 2.086 . S
Zn575 O584 1.977 . S
O576 Zn575 2.032 . S
O576 C580 1.278 . S
C577 O578 1.203 . S
C577 O584 1.267 . S
O578 C577 1.203 . S
O579 C572 1.185 . S
O579 Zn575 2.086 . S
C580 O576 1.278 . S
C580 O581 1.211 . S
O581 C580 1.211 . S
C582 O574 1.284 . S
C582 O583 1.273 . S
O583 C582 1.273 . S
O584 Zn575 1.977 . S
O584 C577 1.267 . S
C585 O586 1.160 . S
C585 O592 1.185 . S
O586 C585 1.160 . S
O587 Zn588 1.899 . S
O587 C595 1.284 . S
Zn588 O587 1.899 . S
Zn588 O589 2.032 . S
Zn588 O592 2.086 . S
Zn588 O597 1.977 . S
O589 Zn588 2.032 . S
O589 C593 1.278 . S
C590 O591 1.203 . S
C590 O597 1.267 . S
O591 C590 1.203 . S
O592 C585 1.185 . S
O592 Zn588 2.086 . S
C593 O589 1.278 . S
C593 O594 1.211 . S
O594 C593 1.211 . S
C595 O587 1.284 . S
C595 O596 1.273 . S
O596 C595 1.273 . S
O597 Zn588 1.977 . S
O597 C590 1.267 . S
C598 O599 1.160 . S
C598 O605 1.185 . S
O599 C598 1.160 . S
O600 Zn601 1.899 . S
O600 C608 1.284 . S
Zn601 O600 1.899 . S
Zn601 O602 2.032 . S
Zn601 O605 2.086 . S
Zn601 O610 1.977 . S
O602 Zn601 2.032 . S
O602 C606 1.278 . S
C603 O604 1.203 . S
C603 O610 1.267 . S
O604 C603 1.203 . S
O605 C598 1.185 . S
O605 Zn601 2.086 . S
C606 O602 1.278 . S
C606 O607 1.211 . S
O607 C606 1.211 . S
C608 O600 1.284 . S
C608 O609 1.273 . S
O609 C608 1.273 . S
O610 Zn601 1.977 . S
O610 C603 1.267 . S
C611 O612 1.160 . S
C611 O618 1.185 . S
O612 C611 1.160 . S
O613 Zn614 1.899 . S
O613 C621 1.284 . S
Zn614 O613 1.899 . S
Zn614 O615 2.032 . S
Zn614 O618 2.086 . S
Zn614 O623 1.977 . S
O615 Zn614 2.032 . S
O615 C619 1.278 . S
C616 O617 1.203 . S
C616 O623 1.267 . S
O617 C616 1.203 . S
O618 C611 1.185 . S
O618 Zn614 2.086 . S
C619 O615 1.278 . S
C619 O620 1.211 . S
O620 C619 1.211 . S
C621 O613 1.284 . S
C621 O622 1.273 . S
O622 C621 1.273 . S
O623 Zn614 1.977 . S
O623 C616 1.267 . S
H624 C630 0.930 . S
H625 C633 0.930 . S
H626 C634 0.930 . S
H627 C635 0.930 . S
H628 C638 0.930 . S
H629 C639 0.930 . S
C630 H624 0.930 . S
C630 C631 1.355 . S
C630 C632 1.415 . S
C631 C630 1.355 . S
C631 C633 1.419 . S
C632 C630 1.415 . S
C632 C637 1.425 1_655 S
C632 C639 1.409 1_655 S
C633 H625 0.930 . S
C633 C631 1.419 . S
C633 C634 1.362 . S
C634 H626 0.930 . S
C634 C633 1.362 . S
C634 C637 1.409 1_655 S
C635 H627 0.930 . S
C635 C636 1.355 . S
C635 C637 1.415 . S
C636 C635 1.355 . S
C636 C638 1.419 . S
C637 C632 1.425 1_455 S
C637 C634 1.409 1_455 S
C637 C635 1.415 . S
C638 H628 0.930 . S
C638 C636 1.419 . S
C638 C639 1.362 . S
C639 H629 0.930 . S
C639 C632 1.409 1_455 S
C639 C638 1.362 . S
H640 C646 0.930 . S
H641 C649 0.930 . S
H642 C650 0.930 . S
H643 C651 0.930 . S
H644 C654 0.930 . S
H645 C655 0.930 . S
C646 H640 0.930 . S
C646 C647 1.355 . S
C646 C648 1.415 . S
C647 C646 1.355 . S
C647 C649 1.419 . S
C648 C646 1.415 . S
C648 C653 1.425 . S
C648 C655 1.409 . S
C649 H641 0.930 . S
C649 C647 1.419 . S
C649 C650 1.362 . S
C650 H642 0.930 . S
C650 C649 1.362 . S
C650 C653 1.409 . S
C651 H643 0.930 . S
C651 C652 1.355 . S
C651 C653 1.415 . S
C652 C651 1.355 . S
C652 C654 1.419 . S
C653 C648 1.425 . S
C653 C650 1.409 . S
C653 C651 1.415 . S
C654 H644 0.930 . S
C654 C652 1.419 . S
C654 C655 1.362 . S
C655 H645 0.930 . S
C655 C648 1.409 . S
C655 C654 1.362 . S
H656 C662 0.930 . S
H657 C665 0.930 . S
H658 C666 0.930 . S
H659 C667 0.930 . S
H660 C670 0.930 . S
H661 C671 0.930 . S
C662 H656 0.930 . S
C662 C663 1.355 . S
C662 C664 1.415 . S
C663 C662 1.355 . S
C663 C665 1.419 . S
C664 C662 1.415 . S
C664 C669 1.425 1_455 S
C664 C671 1.409 1_455 S
C665 H657 0.930 . S
C665 C663 1.419 . S
C665 C666 1.362 . S
C666 H658 0.930 . S
C666 C665 1.362 . S
C666 C669 1.409 1_455 S
C667 H659 0.930 . S
C667 C668 1.355 . S
C667 C669 1.415 . S
C668 C667 1.355 . S
C668 C670 1.419 . S
C669 C664 1.425 1_655 S
C669 C666 1.409 1_655 S
C669 C667 1.415 . S
C670 H660 0.930 . S
C670 C668 1.419 . S
C670 C671 1.362 . S
C671 H661 0.930 . S
C671 C664 1.409 1_655 S
C671 C670 1.362 . S
H672 C678 0.930 . S
H673 C681 0.930 . S
H674 C682 0.930 . S
H675 C683 0.930 . S
H676 C686 0.930 . S
H677 C687 0.930 . S
C678 H672 0.930 . S
C678 C679 1.355 . S
C678 C680 1.415 . S
C679 C678 1.355 . S
C679 C681 1.419 . S
C680 C678 1.415 . S
C680 C685 1.425 . S
C680 C687 1.409 . S
C681 H673 0.930 . S
C681 C679 1.419 . S
C681 C682 1.362 . S
C682 H674 0.930 . S
C682 C681 1.362 . S
C682 C685 1.409 . S
C683 H675 0.930 . S
C683 C684 1.355 . S
C683 C685 1.415 . S
C684 C683 1.355 . S
C684 C686 1.419 . S
C685 C680 1.425 . S
C685 C682 1.409 . S
C685 C683 1.415 . S
C686 H676 0.930 . S
C686 C684 1.419 . S
C686 C687 1.362 . S
C687 H677 0.930 . S
C687 C680 1.409 . S
C687 C686 1.362 . S
H688 C694 0.930 . S
H689 C697 0.930 . S
H690 C698 0.930 . S
H691 C699 0.930 . S
H692 C702 0.930 . S
H693 C703 0.930 . S
C694 H688 0.930 . S
C694 C695 1.355 . S
C694 C696 1.415 . S
C695 C694 1.355 . S
C695 C697 1.419 . S
C696 C694 1.415 . S
C696 C701 1.425 1_655 S
C696 C703 1.409 1_655 S
C697 H689 0.930 . S
C697 C695 1.419 . S
C697 C698 1.362 . S
C698 H690 0.930 . S
C698 C697 1.362 . S
C698 C701 1.409 1_655 S
C699 H691 0.930 . S
C699 C700 1.355 . S
C699 C701 1.415 . S
C700 C699 1.355 . S
C700 C702 1.419 . S
C701 C696 1.425 1_455 S
C701 C698 1.409 1_455 S
C701 C699 1.415 . S
C702 H692 0.930 . S
C702 C700 1.419 . S
C702 C703 1.362 . S
C703 H693 0.930 . S
C703 C696 1.409 1_455 S
C703 C702 1.362 . S
H704 C710 0.930 . S
H705 C713 0.930 . S
H706 C714 0.930 . S
H707 C715 0.930 . S
H708 C718 0.930 . S
H709 C719 0.930 . S
C710 H704 0.930 . S
C710 C711 1.355 . S
C710 C712 1.415 . S
C711 C710 1.355 . S
C711 C713 1.419 . S
C712 C710 1.415 . S
C712 C717 1.425 . S
C712 C719 1.409 . S
C713 H705 0.930 . S
C713 C711 1.419 . S
C713 C714 1.362 . S
C714 H706 0.930 . S
C714 C713 1.362 . S
C714 C717 1.409 . S
C715 H707 0.930 . S
C715 C716 1.355 . S
C715 C717 1.415 . S
C716 C715 1.355 . S
C716 C718 1.419 . S
C717 C712 1.425 . S
C717 C714 1.409 . S
C717 C715 1.415 . S
C718 H708 0.930 . S
C718 C716 1.419 . S
C718 C719 1.362 . S
C719 H709 0.930 . S
C719 C712 1.409 . S
C719 C718 1.362 . S
H720 C726 0.930 . S
H721 C729 0.930 . S
H722 C730 0.930 . S
H723 C731 0.930 . S
H724 C734 0.930 . S
H725 C735 0.930 . S
C726 H720 0.930 . S
C726 C727 1.355 . S
C726 C728 1.415 . S
C727 C726 1.355 . S
C727 C729 1.419 . S
C728 C726 1.415 . S
C728 C733 1.425 1_455 S
C728 C735 1.409 1_455 S
C729 H721 0.930 . S
C729 C727 1.419 . S
C729 C730 1.362 . S
C730 H722 0.930 . S
C730 C729 1.362 . S
C730 C733 1.409 1_455 S
C731 H723 0.930 . S
C731 C732 1.355 . S
C731 C733 1.415 . S
C732 C731 1.355 . S
C732 C734 1.419 . S
C733 C728 1.425 1_655 S
C733 C730 1.409 1_655 S
C733 C731 1.415 . S
C734 H724 0.930 . S
C734 C732 1.419 . S
C734 C735 1.362 . S
C735 H725 0.930 . S
C735 C728 1.409 1_655 S
C735 C734 1.362 . S
H736 C742 0.930 . S
H737 C745 0.930 . S
H738 C746 0.930 . S
H739 C747 0.930 . S
H740 C750 0.930 . S
H741 C751 0.930 . S
C742 H736 0.930 . S
C742 C743 1.355 . S
C742 C744 1.415 . S
C743 C742 1.355 . S
C743 C745 1.419 . S
C744 C742 1.415 . S
C744 C749 1.425 . S
C744 C751 1.409 . S
C745 H737 0.930 . S
C745 C743 1.419 . S
C745 C746 1.362 . S
C746 H738 0.930 . S
C746 C745 1.362 . S
C746 C749 1.409 . S
C747 H739 0.930 . S
C747 C748 1.355 . S
C747 C749 1.415 . S
C748 C747 1.355 . S
C748 C750 1.419 . S
C749 C744 1.425 . S
C749 C746 1.409 . S
C749 C747 1.415 . S
C750 H740 0.930 . S
C750 C748 1.419 . S
C750 C751 1.362 . S
C751 H741 0.930 . S
C751 C744 1.409 . S
C751 C750 1.362 . S
H752 C758 0.930 . S
H753 C761 0.930 . S
H754 C762 0.930 . S
H755 C763 0.930 . S
H756 C766 0.930 . S
H757 C767 0.930 . S
C758 H752 0.930 . S
C758 C759 1.355 . S
C758 C760 1.415 . S
C759 C758 1.355 . S
C759 C761 1.419 . S
C760 C758 1.415 . S
C760 C765 1.425 1_565 S
C760 C767 1.409 1_565 S
C761 H753 0.930 . S
C761 C759 1.419 . S
C761 C762 1.362 . S
C762 H754 0.930 . S
C762 C761 1.362 . S
C762 C765 1.409 1_565 S
C763 H755 0.930 . S
C763 C764 1.355 . S
C763 C765 1.415 . S
C764 C763 1.355 . S
C764 C766 1.419 . S
C765 C760 1.425 1_545 S
C765 C762 1.409 1_545 S
C765 C763 1.415 . S
C766 H756 0.930 . S
C766 C764 1.419 . S
C766 C767 1.362 . S
C767 H757 0.930 . S
C767 C760 1.409 1_545 S
C767 C766 1.362 . S
H768 C774 0.930 . S
H769 C777 0.930 . S
H770 C778 0.930 . S
H771 C779 0.930 . S
H772 C782 0.930 . S
H773 C783 0.930 . S
C774 H768 0.930 . S
C774 C775 1.355 . S
C774 C776 1.415 . S
C775 C774 1.355 . S
C775 C777 1.419 . S
C776 C774 1.415 . S
C776 C781 1.425 . S
C776 C783 1.409 . S
C777 H769 0.930 . S
C777 C775 1.419 . S
C777 C778 1.362 . S
C778 H770 0.930 . S
C778 C777 1.362 . S
C778 C781 1.409 . S
C779 H771 0.930 . S
C779 C780 1.355 . S
C779 C781 1.415 . S
C780 C779 1.355 . S
C780 C782 1.419 . S
C781 C776 1.425 . S
C781 C778 1.409 . S
C781 C779 1.415 . S
C782 H772 0.930 . S
C782 C780 1.419 . S
C782 C783 1.362 . S
C783 H773 0.930 . S
C783 C776 1.409 . S
C783 C782 1.362 . S
H784 C790 0.930 . S
H785 C793 0.930 . S
H786 C794 0.930 . S
H787 C795 0.930 . S
H788 C798 0.930 . S
H789 C799 0.930 . S
C790 H784 0.930 . S
C790 C791 1.355 . S
C790 C792 1.415 . S
C791 C790 1.355 . S
C791 C793 1.419 . S
C792 C790 1.415 . S
C792 C797 1.425 1_545 S
C792 C799 1.409 1_545 S
C793 H785 0.930 . S
C793 C791 1.419 . S
C793 C794 1.362 . S
C794 H786 0.930 . S
C794 C793 1.362 . S
C794 C797 1.409 1_545 S
C795 H787 0.930 . S
C795 C796 1.355 . S
C795 C797 1.415 . S
C796 C795 1.355 . S
C796 C798 1.419 . S
C797 C792 1.425 1_565 S
C797 C794 1.409 1_565 S
C797 C795 1.415 . S
C798 H788 0.930 . S
C798 C796 1.419 . S
C798 C799 1.362 . S
C799 H789 0.930 . S
C799 C792 1.409 1_565 S
C799 C798 1.362 . S
H800 C806 0.930 . S
H801 C809 0.930 . S
H802 C810 0.930 . S
H803 C811 0.930 . S
H804 C814 0.930 . S
H805 C815 0.930 . S
C806 H800 0.930 . S
C806 C807 1.355 . S
C806 C808 1.415 . S
C807 C806 1.355 . S
C807 C809 1.419 . S
C808 C806 1.415 . S
C808 C813 1.425 . S
C808 C815 1.409 . S
C809 H801 0.930 . S
C809 C807 1.419 . S
C809 C810 1.362 . S
C810 H802 0.930 . S
C810 C809 1.362 . S
C810 C813 1.409 . S
C811 H803 0.930 . S
C811 C812 1.355 . S
C811 C813 1.415 . S
C812 C811 1.355 . S
C812 C814 1.419 . S
C813 C808 1.425 . S
C813 C810 1.409 . S
C813 C811 1.415 . S
C814 H804 0.930 . S
C814 C812 1.419 . S
C814 C815 1.362 . S
C815 H805 0.930 . S
C815 C808 1.409 . S
C815 C814 1.362 . S
H816 C822 0.930 . S
H817 C825 0.930 . S
H818 C826 0.930 . S
H819 C827 0.930 . S
H820 C830 0.930 . S
H821 C831 0.930 . S
C822 H816 0.930 . S
C822 C823 1.355 . S
C822 C824 1.415 . S
C823 C822 1.355 . S
C823 C825 1.419 . S
C824 C822 1.415 . S
C824 C829 1.425 1_545 S
C824 C831 1.409 1_545 S
C825 H817 0.930 . S
C825 C823 1.419 . S
C825 C826 1.362 . S
C826 H818 0.930 . S
C826 C825 1.362 . S
C826 C829 1.409 1_545 S
C827 H819 0.930 . S
C827 C828 1.355 . S
C827 C829 1.415 . S
C828 C827 1.355 . S
C828 C830 1.419 . S
C829 C824 1.425 1_565 S
C829 C826 1.409 1_565 S
C829 C827 1.415 . S
C830 H820 0.930 . S
C830 C828 1.419 . S
C830 C831 1.362 . S
C831 H821 0.930 . S
C831 C824 1.409 1_565 S
C831 C830 1.362 . S
H832 C838 0.930 . S
H833 C841 0.930 . S
H834 C842 0.930 . S
H835 C843 0.930 . S
H836 C846 0.930 . S
H837 C847 0.930 . S
C838 H832 0.930 . S
C838 C839 1.355 . S
C838 C840 1.415 . S
C839 C838 1.355 . S
C839 C841 1.419 . S
C840 C838 1.415 . S
C840 C845 1.425 . S
C840 C847 1.409 . S
C841 H833 0.930 . S
C841 C839 1.419 . S
C841 C842 1.362 . S
C842 H834 0.930 . S
C842 C841 1.362 . S
C842 C845 1.409 . S
C843 H835 0.930 . S
C843 C844 1.355 . S
C843 C845 1.415 . S
C844 C843 1.355 . S
C844 C846 1.419 . S
C845 C840 1.425 . S
C845 C842 1.409 . S
C845 C843 1.415 . S
C846 H836 0.930 . S
C846 C844 1.419 . S
C846 C847 1.362 . S
C847 H837 0.930 . S
C847 C840 1.409 . S
C847 C846 1.362 . S
H848 C854 0.930 . S
H849 C857 0.930 . S
H850 C858 0.930 . S
H851 C859 0.930 . S
H852 C862 0.930 . S
H853 C863 0.930 . S
C854 H848 0.930 . S
C854 C855 1.355 . S
C854 C856 1.415 . S
C855 C854 1.355 . S
C855 C857 1.419 . S
C856 C854 1.415 . S
C856 C861 1.425 1_545 S
C856 C863 1.409 1_545 S
C857 H849 0.930 . S
C857 C855 1.419 . S
C857 C858 1.362 . S
C858 H850 0.930 . S
C858 C857 1.362 . S
C858 C861 1.409 1_545 S
C859 H851 0.930 . S
C859 C860 1.355 . S
C859 C861 1.415 . S
C860 C859 1.355 . S
C860 C862 1.419 . S
C861 C856 1.425 1_565 S
C861 C858 1.409 1_565 S
C861 C859 1.415 . S
C862 H852 0.930 . S
C862 C860 1.419 . S
C862 C863 1.362 . S
C863 H853 0.930 . S
C863 C856 1.409 1_565 S
C863 C862 1.362 . S
H864 C870 0.930 . S
H865 C873 0.930 . S
H866 C874 0.930 . S
H867 C875 0.930 . S
H868 C878 0.930 . S
H869 C879 0.930 . S
C870 H864 0.930 . S
C870 C871 1.355 . S
C870 C872 1.415 . S
C871 C870 1.355 . S
C871 C873 1.419 . S
C872 C870 1.415 . S
C872 C877 1.425 . S
C872 C879 1.409 . S
C873 H865 0.930 . S
C873 C871 1.419 . S
C873 C874 1.362 . S
C874 H866 0.930 . S
C874 C873 1.362 . S
C874 C877 1.409 . S
C875 H867 0.930 . S
C875 C876 1.355 . S
C875 C877 1.415 . S
C876 C875 1.355 . S
C876 C878 1.419 . S
C877 C872 1.425 . S
C877 C874 1.409 . S
C877 C875 1.415 . S
C878 H868 0.930 . S
C878 C876 1.419 . S
C878 C879 1.362 . S
C879 H869 0.930 . S
C879 C872 1.409 . S
C879 C878 1.362 . S
H880 C886 0.930 . S
H881 C889 0.930 . S
H882 C890 0.930 . S
H883 C891 0.930 . S
H884 C894 0.930 . S
H885 C895 0.930 . S
C886 H880 0.930 . S
C886 C887 1.355 . S
C886 C888 1.415 . S
C887 C886 1.355 . S
C887 C889 1.419 . S
C888 C886 1.415 . S
C888 C893 1.425 1_554 S
C888 C895 1.409 1_554 S
C889 H881 0.930 . S
C889 C887 1.419 . S
C889 C890 1.362 . S
C890 H882 0.930 . S
C890 C889 1.362 . S
C890 C893 1.409 1_554 S
C891 H883 0.930 . S
C891 C892 1.355 . S
C891 C893 1.415 . S
C892 C891 1.355 . S
C892 C894 1.419 . S
C893 C888 1.425 1_556 S
C893 C890 1.409 1_556 S
C893 C891 1.415 . S
C894 H884 0.930 . S
C894 C892 1.419 . S
C894 C895 1.362 . S
C895 H885 0.930 . S
C895 C888 1.409 1_556 S
C895 C894 1.362 . S
H896 C902 0.930 . S
H897 C905 0.930 . S
H898 C906 0.930 . S
H899 C907 0.930 . S
H900 C910 0.930 . S
H901 C911 0.930 . S
C902 H896 0.930 . S
C902 C903 1.355 . S
C902 C904 1.415 . S
C903 C902 1.355 . S
C903 C905 1.419 . S
C904 C902 1.415 . S
C904 C909 1.425 1_554 S
C904 C911 1.409 1_554 S
C905 H897 0.930 . S
C905 C903 1.419 . S
C905 C906 1.362 . S
C906 H898 0.930 . S
C906 C905 1.362 . S
C906 C909 1.409 1_554 S
C907 H899 0.930 . S
C907 C908 1.355 . S
C907 C909 1.415 . S
C908 C907 1.355 . S
C908 C910 1.419 . S
C909 C904 1.425 1_556 S
C909 C906 1.409 1_556 S
C909 C907 1.415 . S
C910 H900 0.930 . S
C910 C908 1.419 . S
C910 C911 1.362 . S
C911 H901 0.930 . S
C911 C904 1.409 1_556 S
C911 C910 1.362 . S
H912 C918 0.930 . S
H913 C921 0.930 . S
H914 C922 0.930 . S
H915 C923 0.930 . S
H916 C926 0.930 . S
H917 C927 0.930 . S
C918 H912 0.930 . S
C918 C919 1.355 . S
C918 C920 1.415 . S
C919 C918 1.355 . S
C919 C921 1.419 . S
C920 C918 1.415 . S
C920 C925 1.425 . S
C920 C927 1.409 . S
C921 H913 0.930 . S
C921 C919 1.419 . S
C921 C922 1.362 . S
C922 H914 0.930 . S
C922 C921 1.362 . S
C922 C925 1.409 . S
C923 H915 0.930 . S
C923 C924 1.355 . S
C923 C925 1.415 . S
C924 C923 1.355 . S
C924 C926 1.419 . S
C925 C920 1.425 . S
C925 C922 1.409 . S
C925 C923 1.415 . S
C926 H916 0.930 . S
C926 C924 1.419 . S
C926 C927 1.362 . S
C927 H917 0.930 . S
C927 C920 1.409 . S
C927 C926 1.362 . S
H928 C934 0.930 . S
H929 C937 0.930 . S
H930 C938 0.930 . S
H931 C939 0.930 . S
H932 C942 0.930 . S
H933 C943 0.930 . S
C934 H928 0.930 . S
C934 C935 1.355 . S
C934 C936 1.415 . S
C935 C934 1.355 . S
C935 C937 1.419 . S
C936 C934 1.415 . S
C936 C941 1.425 1_554 S
C936 C943 1.409 1_554 S
C937 H929 0.930 . S
C937 C935 1.419 . S
C937 C938 1.362 . S
C938 H930 0.930 . S
C938 C937 1.362 . S
C938 C941 1.409 1_554 S
C939 H931 0.930 . S
C939 C940 1.355 . S
C939 C941 1.415 . S
C940 C939 1.355 . S
C940 C942 1.419 . S
C941 C936 1.425 1_556 S
C941 C938 1.409 1_556 S
C941 C939 1.415 . S
C942 H932 0.930 . S
C942 C940 1.419 . S
C942 C943 1.362 . S
C943 H933 0.930 . S
C943 C936 1.409 1_556 S
C943 C942 1.362 . S
H944 C950 0.930 . S
H945 C953 0.930 . S
H946 C954 0.930 . S
H947 C955 0.930 . S
H948 C958 0.930 . S
H949 C959 0.930 . S
C950 H944 0.930 . S
C950 C951 1.355 . S
C950 C952 1.415 . S
C951 C950 1.355 . S
C951 C953 1.419 . S
C952 C950 1.415 . S
C952 C957 1.425 . S
C952 C959 1.409 . S
C953 H945 0.930 . S
C953 C951 1.419 . S
C953 C954 1.362 . S
C954 H946 0.930 . S
C954 C953 1.362 . S
C954 C957 1.409 . S
C955 H947 0.930 . S
C955 C956 1.355 . S
C955 C957 1.415 . S
C956 C955 1.355 . S
C956 C958 1.419 . S
C957 C952 1.425 . S
C957 C954 1.409 . S
C957 C955 1.415 . S
C958 H948 0.930 . S
C958 C956 1.419 . S
C958 C959 1.362 . S
C959 H949 0.930 . S
C959 C952 1.409 . S
C959 C958 1.362 . S
H960 C966 0.930 . S
H961 C969 0.930 . S
H962 C970 0.930 . S
H963 C971 0.930 . S
H964 C974 0.930 . S
H965 C975 0.930 . S
C966 H960 0.930 . S
C966 C967 1.355 . S
C966 C968 1.415 . S
C967 C966 1.355 . S
C967 C969 1.419 . S
C968 C966 1.415 . S
C968 C973 1.425 1_554 S
C968 C975 1.409 1_554 S
C969 H961 0.930 . S
C969 C967 1.419 . S
C969 C970 1.362 . S
C970 H962 0.930 . S
C970 C969 1.362 . S
C970 C973 1.409 1_554 S
C971 H963 0.930 . S
C971 C972 1.355 . S
C971 C973 1.415 . S
C972 C971 1.355 . S
C972 C974 1.419 . S
C973 C968 1.425 1_556 S
C973 C970 1.409 1_556 S
C973 C971 1.415 . S
C974 H964 0.930 . S
C974 C972 1.419 . S
C974 C975 1.362 . S
C975 H965 0.930 . S
C975 C968 1.409 1_556 S
C975 C974 1.362 . S
H976 C982 0.930 . S
H977 C985 0.930 . S
H978 C986 0.930 . S
H979 C987 0.930 . S
H980 C990 0.930 . S
H981 C991 0.930 . S
C982 H976 0.930 . S
C982 C983 1.355 . S
C982 C984 1.415 . S
C983 C982 1.355 . S
C983 C985 1.419 . S
C984 C982 1.415 . S
C984 C989 1.425 . S
C984 C991 1.409 . S
C985 H977 0.930 . S
C985 C983 1.419 . S
C985 C986 1.362 . S
C986 H978 0.930 . S
C986 C985 1.362 . S
C986 C989 1.409 . S
C987 H979 0.930 . S
C987 C988 1.355 . S
C987 C989 1.415 . S
C988 C987 1.355 . S
C988 C990 1.419 . S
C989 C984 1.425 . S
C989 C986 1.409 . S
C989 C987 1.415 . S
C990 H980 0.930 . S
C990 C988 1.419 . S
C990 C991 1.362 . S
C991 H981 0.930 . S
C991 C984 1.409 . S
C991 C990 1.362 . S
H992 C998 0.930 . S
H993 C1001 0.930 . S
H994 C1002 0.930 . S
H995 C1003 0.930 . S
H996 C1006 0.930 . S
H997 C1007 0.930 . S
C998 H992 0.930 . S
C998 C999 1.355 . S
C998 C1000 1.415 . S
C999 C998 1.355 . S
C999 C1001 1.419 . S
C1000 C998 1.415 . S
C1000 C1005 1.425 . S
C1000 C1007 1.409 . S
C1001 H993 0.930 . S
C1001 C999 1.419 . S
C1001 C1002 1.362 . S
C1002 H994 0.930 . S
C1002 C1001 1.362 . S
C1002 C1005 1.409 . S
C1003 H995 0.930 . S
C1003 C1004 1.355 . S
C1003 C1005 1.415 . S
C1004 C1003 1.355 . S
C1004 C1006 1.419 . S
C1005 C1000 1.425 . S
C1005 C1002 1.409 . S
C1005 C1003 1.415 . S
C1006 H996 0.930 . S
C1006 C1004 1.419 . S
C1006 C1007 1.362 . S
C1007 H997 0.930 . S
C1007 C1000 1.409 . S
C1007 C1006 1.362 . S
H1008 C1014 0.930 . S
H1009 C1017 0.930 . S
H1010 C1018 0.930 . S
H1011 C1019 0.930 . S
H1012 C1022 0.930 . S
H1013 C1023 0.930 . S
C1014 H1008 0.930 . S
C1014 C1015 1.355 . S
C1014 C1016 1.415 . S
C1015 C1014 1.355 . S
C1015 C1017 1.419 . S
C1016 C1014 1.415 . S
C1016 C1021 1.425 . S
C1016 C1023 1.409 . S
C1017 H1009 0.930 . S
C1017 C1015 1.419 . S
C1017 C1018 1.362 . S
C1018 H1010 0.930 . S
C1018 C1017 1.362 . S
C1018 C1021 1.409 . S
C1019 H1011 0.930 . S
C1019 C1020 1.355 . S
C1019 C1021 1.415 . S
C1020 C1019 1.355 . S
C1020 C1022 1.419 . S
C1021 C1016 1.425 . S
C1021 C1018 1.409 . S
C1021 C1019 1.415 . S
C1022 H1012 0.930 . S
C1022 C1020 1.419 . S
C1022 C1023 1.362 . S
C1023 H1013 0.930 . S
C1023 C1016 1.409 . S
C1023 C1022 1.362 . S
H1024 C1030 0.930 . S
H1025 C1033 0.930 . S
H1026 C1034 0.930 . S
H1027 C1035 0.930 . S
H1028 C1038 0.930 . S
H1029 C1039 0.930 . S
C1030 H1024 0.930 . S
C1030 C1031 1.355 . S
C1030 C1032 1.415 . S
C1031 C1030 1.355 . S
C1031 C1033 1.419 . S
C1032 C1030 1.415 . S
C1032 C1037 1.425 . S
C1032 C1039 1.409 . S
C1033 H1025 0.930 . S
C1033 C1031 1.419 . S
C1033 C1034 1.362 . S
C1034 H1026 0.930 . S
C1034 C1033 1.362 . S
C1034 C1037 1.409 . S
C1035 H1027 0.930 . S
C1035 C1036 1.355 . S
C1035 C1037 1.415 . S
C1036 C1035 1.355 . S
C1036 C1038 1.419 . S
C1037 C1032 1.425 . S
C1037 C1034 1.409 . S
C1037 C1035 1.415 . S
C1038 H1028 0.930 . S
C1038 C1036 1.419 . S
C1038 C1039 1.362 . S
C1039 H1029 0.930 . S
C1039 C1032 1.409 . S
C1039 C1038 1.362 . S
H1040 C1046 0.930 . S
H1041 C1049 0.930 . S
H1042 C1050 0.930 . S
H1043 C1051 0.930 . S
H1044 C1054 0.930 . S
H1045 C1055 0.930 . S
C1046 H1040 0.930 . S
C1046 C1047 1.355 . S
C1046 C1048 1.415 . S
C1047 C1046 1.355 . S
C1047 C1049 1.419 . S
C1048 C1046 1.415 . S
C1048 C1053 1.425 . S
C1048 C1055 1.409 . S
C1049 H1041 0.930 . S
C1049 C1047 1.419 . S
C1049 C1050 1.362 . S
C1050 H1042 0.930 . S
C1050 C1049 1.362 . S
C1050 C1053 1.409 . S
C1051 H1043 0.930 . S
C1051 C1052 1.355 . S
C1051 C1053 1.415 . S
C1052 C1051 1.355 . S
C1052 C1054 1.419 . S
C1053 C1048 1.425 . S
C1053 C1050 1.409 . S
C1053 C1051 1.415 . S
C1054 H1044 0.930 . S
C1054 C1052 1.419 . S
C1054 C1055 1.362 . S
C1055 H1045 0.930 . S
C1055 C1048 1.409 . S
C1055 C1054 1.362 . S
H1056 C1062 0.930 . S
H1057 C1065 0.930 . S
H1058 C1066 0.930 . S
H1059 C1067 0.930 . S
H1060 C1070 0.930 . S
H1061 C1071 0.930 . S
C1062 H1056 0.930 . S
C1062 C1063 1.355 . S
C1062 C1064 1.415 . S
C1063 C1062 1.355 . S
C1063 C1065 1.419 . S
C1064 C1062 1.415 . S
C1064 C1069 1.425 . S
C1064 C1071 1.409 . S
C1065 H1057 0.930 . S
C1065 C1063 1.419 . S
C1065 C1066 1.362 . S
C1066 H1058 0.930 . S
C1066 C1065 1.362 . S
C1066 C1069 1.409 . S
C1067 H1059 0.930 . S
C1067 C1068 1.355 . S
C1067 C1069 1.415 . S
C1068 C1067 1.355 . S
C1068 C1070 1.419 . S
C1069 C1064 1.425 . S
C1069 C1066 1.409 . S
C1069 C1067 1.415 . S
C1070 H1060 0.930 . S
C1070 C1068 1.419 . S
C1070 C1071 1.362 . S
C1071 H1061 0.930 . S
C1071 C1064 1.409 . S
C1071 C1070 1.362 . S
H1072 C1078 0.930 . S
H1073 C1081 0.930 . S
H1074 C1082 0.930 . S
H1075 C1083 0.930 . S
H1076 C1086 0.930 . S
H1077 C1087 0.930 . S
C1078 H1072 0.930 . S
C1078 C1079 1.355 . S
C1078 C1080 1.415 . S
C1079 C1078 1.355 . S
C1079 C1081 1.419 . S
C1080 C1078 1.415 . S
C1080 C1085 1.425 . S
C1080 C1087 1.409 . S
C1081 H1073 0.930 . S
C1081 C1079 1.419 . S
C1081 C1082 1.362 . S
C1082 H1074 0.930 . S
C1082 C1081 1.362 . S
C1082 C1085 1.409 . S
C1083 H1075 0.930 . S
C1083 C1084 1.355 . S
C1083 C1085 1.415 . S
C1084 C1083 1.355 . S
C1084 C1086 1.419 . S
C1085 C1080 1.425 . S
C1085 C1082 1.409 . S
C1085 C1083 1.415 . S
C1086 H1076 0.930 . S
C1086 C1084 1.419 . S
C1086 C1087 1.362 . S
C1087 H1077 0.930 . S
C1087 C1080 1.409 . S
C1087 C1086 1.362 . S
H1088 C1094 0.930 . S
H1089 C1097 0.930 . S
H1090 C1098 0.930 . S
H1091 C1099 0.930 . S
H1092 C1102 0.930 . S
H1093 C1103 0.930 . S
C1094 H1088 0.930 . S
C1094 C1095 1.355 . S
C1094 C1096 1.415 . S
C1095 C1094 1.355 . S
C1095 C1097 1.419 . S
C1096 C1094 1.415 . S
C1096 C1101 1.425 . S
C1096 C1103 1.409 . S
C1097 H1089 0.930 . S
C1097 C1095 1.419 . S
C1097 C1098 1.362 . S
C1098 H1090 0.930 . S
C1098 C1097 1.362 . S
C1098 C1101 1.409 . S
C1099 H1091 0.930 . S
C1099 C1100 1.355 . S
C1099 C1101 1.415 . S
C1100 C1099 1.355 . S
C1100 C1102 1.419 . S
C1101 C1096 1.425 . S
C1101 C1098 1.409 . S
C1101 C1099 1.415 . S
C1102 H1092 0.930 . S
C1102 C1100 1.419 . S
C1102 C1103 1.362 . S
C1103 H1093 0.930 . S
C1103 C1096 1.409 . S
C1103 C1102 1.362 . S
H1104 C1110 0.930 . S
H1105 C1113 0.930 . S
H1106 C1114 0.930 . S
H1107 C1115 0.930 . S
H1108 C1118 0.930 . S
H1109 C1119 0.930 . S
C1110 H1104 0.930 . S
C1110 C1111 1.355 . S
C1110 C1112 1.415 . S
C1111 C1110 1.355 . S
C1111 C1113 1.419 . S
C1112 C1110 1.415 . S
C1112 C1117 1.425 . S
C1112 C1119 1.409 . S
C1113 H1105 0.930 . S
C1113 C1111 1.419 . S
C1113 C1114 1.362 . S
C1114 H1106 0.930 . S
C1114 C1113 1.362 . S
C1114 C1117 1.409 . S
C1115 H1107 0.930 . S
C1115 C1116 1.355 . S
C1115 C1117 1.415 . S
C1116 C1115 1.355 . S
C1116 C1118 1.419 . S
C1117 C1112 1.425 . S
C1117 C1114 1.409 . S
C1117 C1115 1.415 . S
C1118 H1108 0.930 . S
C1118 C1116 1.419 . S
C1118 C1119 1.362 . S
C1119 H1109 0.930 . S
C1119 C1112 1.409 . S
C1119 C1118 1.362 . S
H1120 C1126 0.930 . S
H1121 C1129 0.930 . S
H1122 C1130 0.930 . S
H1123 C1131 0.930 . S
H1124 C1134 0.930 . S
H1125 C1135 0.930 . S
C1126 H1120 0.930 . S
C1126 C1127 1.355 . S
C1126 C1128 1.415 . S
C1127 C1126 1.355 . S
C1127 C1129 1.419 . S
C1128 C1126 1.415 . S
C1128 C1133 1.425 . S
C1128 C1135 1.409 . S
C1129 H1121 0.930 . S
C1129 C1127 1.419 . S
C1129 C1130 1.362 . S
C1130 H1122 0.930 . S
C1130 C1129 1.362 . S
C1130 C1133 1.409 . S
C1131 H1123 0.930 . S
C1131 C1132 1.355 . S
C1131 C1133 1.415 . S
C1132 C1131 1.355 . S
C1132 C1134 1.419 . S
C1133 C1128 1.425 . S
C1133 C1130 1.409 . S
C1133 C1131 1.415 . S
C1134 H1124 0.930 . S
C1134 C1132 1.419 . S
C1134 C1135 1.362 . S
C1135 H1125 0.930 . S
C1135 C1128 1.409 . S
C1135 C1134 1.362 . S
H1136 C1142 0.930 . S
H1137 C1145 0.930 . S
H1138 C1146 0.930 . S
H1139 C1147 0.930 . S
H1140 C1150 0.930 . S
H1141 C1151 0.930 . S
C1142 H1136 0.930 . S
C1142 C1143 1.355 . S
C1142 C1144 1.415 . S
C1143 C1142 1.355 . S
C1143 C1145 1.419 . S
C1144 C1142 1.415 . S
C1144 C1149 1.425 . S
C1144 C1151 1.409 . S
C1145 H1137 0.930 . S
C1145 C1143 1.419 . S
C1145 C1146 1.362 . S
C1146 H1138 0.930 . S
C1146 C1145 1.362 . S
C1146 C1149 1.409 . S
C1147 H1139 0.930 . S
C1147 C1148 1.355 . S
C1147 C1149 1.415 . S
C1148 C1147 1.355 . S
C1148 C1150 1.419 . S
C1149 C1144 1.425 . S
C1149 C1146 1.409 . S
C1149 C1147 1.415 . S
C1150 H1140 0.930 . S
C1150 C1148 1.419 . S
C1150 C1151 1.362 . S
C1151 H1141 0.930 . S
C1151 C1144 1.409 . S
C1151 C1150 1.362 . S
H1152 C1158 0.930 . S
H1153 C1161 0.930 . S
H1154 C1162 0.930 . S
H1155 C1163 0.930 . S
H1156 C1166 0.930 . S
H1157 C1167 0.930 . S
C1158 H1152 0.930 . S
C1158 C1159 1.355 . S
C1158 C1160 1.415 . S
C1159 C1158 1.355 . S
C1159 C1161 1.419 . S
C1160 C1158 1.415 . S
C1160 C1165 1.425 . S
C1160 C1167 1.409 . S
C1161 H1153 0.930 . S
C1161 C1159 1.419 . S
C1161 C1162 1.362 . S
C1162 H1154 0.930 . S
C1162 C1161 1.362 . S
C1162 C1165 1.409 . S
C1163 H1155 0.930 . S
C1163 C1164 1.355 . S
C1163 C1165 1.415 . S
C1164 C1163 1.355 . S
C1164 C1166 1.419 . S
C1165 C1160 1.425 . S
C1165 C1162 1.409 . S
C1165 C1163 1.415 . S
C1166 H1156 0.930 . S
C1166 C1164 1.419 . S
C1166 C1167 1.362 . S
C1167 H1157 0.930 . S
C1167 C1160 1.409 . S
C1167 C1166 1.362 . S
H1168 C1174 0.930 . S
H1169 C1177 0.930 . S
H1170 C1178 0.930 . S
H1171 C1179 0.930 . S
H1172 C1182 0.930 . S
H1173 C1183 0.930 . S
C1174 H1168 0.930 . S
C1174 C1175 1.355 . S
C1174 C1176 1.415 . S
C1175 C1174 1.355 . S
C1175 C1177 1.419 . S
C1176 C1174 1.415 . S
C1176 C1181 1.425 . S
C1176 C1183 1.409 . S
C1177 H1169 0.930 . S
C1177 C1175 1.419 . S
C1177 C1178 1.362 . S
C1178 H1170 0.930 . S
C1178 C1177 1.362 . S
C1178 C1181 1.409 . S
C1179 H1171 0.930 . S
C1179 C1180 1.355 . S
C1179 C1181 1.415 . S
C1180 C1179 1.355 . S
C1180 C1182 1.419 . S
C1181 C1176 1.425 . S
C1181 C1178 1.409 . S
C1181 C1179 1.415 . S
C1182 H1172 0.930 . S
C1182 C1180 1.419 . S
C1182 C1183 1.362 . S
C1183 H1173 0.930 . S
C1183 C1176 1.409 . S
C1183 C1182 1.362 . S
H1184 C1190 0.930 . S
H1185 C1193 0.930 . S
H1186 C1194 0.930 . S
H1187 C1195 0.930 . S
H1188 C1198 0.930 . S
H1189 C1199 0.930 . S
C1190 H1184 0.930 . S
C1190 C1191 1.355 . S
C1190 C1192 1.415 . S
C1191 C1190 1.355 . S
C1191 C1193 1.419 . S
C1192 C1190 1.415 . S
C1192 C1197 1.425 . S
C1192 C1199 1.409 . S
C1193 H1185 0.930 . S
C1193 C1191 1.419 . S
C1193 C1194 1.362 . S
C1194 H1186 0.930 . S
C1194 C1193 1.362 . S
C1194 C1197 1.409 . S
C1195 H1187 0.930 . S
C1195 C1196 1.355 . S
C1195 C1197 1.415 . S
C1196 C1195 1.355 . S
C1196 C1198 1.419 . S
C1197 C1192 1.425 . S
C1197 C1194 1.409 . S
C1197 C1195 1.415 . S
C1198 H1188 0.930 . S
C1198 C1196 1.419 . S
C1198 C1199 1.362 . S
C1199 H1189 0.930 . S
C1199 C1192 1.409 . S
C1199 C1198 1.362 . S
H1200 C1206 0.930 . S
H1201 C1209 0.930 . S
H1202 C1210 0.930 . S
H1203 C1211 0.930 . S
H1204 C1214 0.930 . S
H1205 C1215 0.930 . S
C1206 H1200 0.930 . S
C1206 C1207 1.355 . S
C1206 C1208 1.415 . S
C1207 C1206 1.355 . S
C1207 C1209 1.419 . S
C1208 C1206 1.415 . S
C1208 C1213 1.425 . S
C1208 C1215 1.409 . S
C1209 H1201 0.930 . S
C1209 C1207 1.419 . S
C1209 C1210 1.362 . S
C1210 H1202 0.930 . S
C1210 C1209 1.362 . S
C1210 C1213 1.409 . S
C1211 H1203 0.930 . S
C1211 C1212 1.355 . S
C1211 C1213 1.415 . S
C1212 C1211 1.355 . S
C1212 C1214 1.419 . S
C1213 C1208 1.425 . S
C1213 C1210 1.409 . S
C1213 C1211 1.415 . S
C1214 H1204 0.930 . S
C1214 C1212 1.419 . S
C1214 C1215 1.362 . S
C1215 H1205 0.930 . S
C1215 C1208 1.409 . S
C1215 C1214 1.362 . S
H1216 C1222 0.930 . S
H1217 C1225 0.930 . S
H1218 C1226 0.930 . S
H1219 C1227 0.930 . S
H1220 C1230 0.930 . S
H1221 C1231 0.930 . S
C1222 H1216 0.930 . S
C1222 C1223 1.355 . S
C1222 C1224 1.415 . S
C1223 C1222 1.355 . S
C1223 C1225 1.419 . S
C1224 C1222 1.415 . S
C1224 C1229 1.425 . S
C1224 C1231 1.409 . S
C1225 H1217 0.930 . S
C1225 C1223 1.419 . S
C1225 C1226 1.362 . S
C1226 H1218 0.930 . S
C1226 C1225 1.362 . S
C1226 C1229 1.409 . S
C1227 H1219 0.930 . S
C1227 C1228 1.355 . S
C1227 C1229 1.415 . S
C1228 C1227 1.355 . S
C1228 C1230 1.419 . S
C1229 C1224 1.425 . S
C1229 C1226 1.409 . S
C1229 C1227 1.415 . S
C1230 H1220 0.930 . S
C1230 C1228 1.419 . S
C1230 C1231 1.362 . S
C1231 H1221 0.930 . S
C1231 C1224 1.409 . S
C1231 C1230 1.362 . S
H1232 C1238 0.930 . S
H1233 C1241 0.930 . S
H1234 C1242 0.930 . S
H1235 C1243 0.930 . S
H1236 C1246 0.930 . S
H1237 C1247 0.930 . S
C1238 H1232 0.930 . S
C1238 C1239 1.355 . S
C1238 C1240 1.415 . S
C1239 C1238 1.355 . S
C1239 C1241 1.419 . S
C1240 C1238 1.415 . S
C1240 C1245 1.425 . S
C1240 C1247 1.409 . S
C1241 H1233 0.930 . S
C1241 C1239 1.419 . S
C1241 C1242 1.362 . S
C1242 H1234 0.930 . S
C1242 C1241 1.362 . S
C1242 C1245 1.409 . S
C1243 H1235 0.930 . S
C1243 C1244 1.355 . S
C1243 C1245 1.415 . S
C1244 C1243 1.355 . S
C1244 C1246 1.419 . S
C1245 C1240 1.425 . S
C1245 C1242 1.409 . S
C1245 C1243 1.415 . S
C1246 H1236 0.930 . S
C1246 C1244 1.419 . S
C1246 C1247 1.362 . S
C1247 H1237 0.930 . S
C1247 C1240 1.409 . S
C1247 C1246 1.362 . S
H1248 C1254 0.930 . S
H1249 C1257 0.930 . S
H1250 C1258 0.930 . S
H1251 C1259 0.930 . S
H1252 C1262 0.930 . S
H1253 C1263 0.930 . S
C1254 H1248 0.930 . S
C1254 C1255 1.355 . S
C1254 C1256 1.415 . S
C1255 C1254 1.355 . S
C1255 C1257 1.419 . S
C1256 C1254 1.415 . S
C1256 C1261 1.425 . S
C1256 C1263 1.409 . S
C1257 H1249 0.930 . S
C1257 C1255 1.419 . S
C1257 C1258 1.362 . S
C1258 H1250 0.930 . S
C1258 C1257 1.362 . S
C1258 C1261 1.409 . S
C1259 H1251 0.930 . S
C1259 C1260 1.355 . S
C1259 C1261 1.415 . S
C1260 C1259 1.355 . S
C1260 C1262 1.419 . S
C1261 C1256 1.425 . S
C1261 C1258 1.409 . S
C1261 C1259 1.415 . S
C1262 H1252 0.930 . S
C1262 C1260 1.419 . S
C1262 C1263 1.362 . S
C1263 H1253 0.930 . S
C1263 C1256 1.409 . S
C1263 C1262 1.362 . S
H1264 C1270 0.930 . S
H1265 C1273 0.930 . S
H1266 C1274 0.930 . S
H1267 C1275 0.930 . S
H1268 C1278 0.930 . S
H1269 C1279 0.930 . S
C1270 H1264 0.930 . S
C1270 C1271 1.355 . S
C1270 C1272 1.415 . S
C1271 C1270 1.355 . S
C1271 C1273 1.419 . S
C1272 C1270 1.415 . S
C1272 C1277 1.425 . S
C1272 C1279 1.409 . S
C1273 H1265 0.930 . S
C1273 C1271 1.419 . S
C1273 C1274 1.362 . S
C1274 H1266 0.930 . S
C1274 C1273 1.362 . S
C1274 C1277 1.409 . S
C1275 H1267 0.930 . S
C1275 C1276 1.355 . S
C1275 C1277 1.415 . S
C1276 C1275 1.355 . S
C1276 C1278 1.419 . S
C1277 C1272 1.425 . S
C1277 C1274 1.409 . S
C1277 C1275 1.415 . S
C1278 H1268 0.930 . S
C1278 C1276 1.419 . S
C1278 C1279 1.362 . S
C1279 H1269 0.930 . S
C1279 C1272 1.409 . S
C1279 C1278 1.362 . S
H1280 C1286 0.930 . S
H1281 C1289 0.930 . S
H1282 C1290 0.930 . S
H1283 C1291 0.930 . S
H1284 C1294 0.930 . S
H1285 C1295 0.930 . S
C1286 H1280 0.930 . S
C1286 C1287 1.355 . S
C1286 C1288 1.415 . S
C1287 C1286 1.355 . S
C1287 C1289 1.419 . S
C1288 C1286 1.415 . S
C1288 C1293 1.425 . S
C1288 C1295 1.409 . S
C1289 H1281 0.930 . S
C1289 C1287 1.419 . S
C1289 C1290 1.362 . S
C1290 H1282 0.930 . S
C1290 C1289 1.362 . S
C1290 C1293 1.409 . S
C1291 H1283 0.930 . S
C1291 C1292 1.355 . S
C1291 C1293 1.415 . S
C1292 C1291 1.355 . S
C1292 C1294 1.419 . S
C1293 C1288 1.425 . S
C1293 C1290 1.409 . S
C1293 C1291 1.415 . S
C1294 H1284 0.930 . S
C1294 C1292 1.419 . S
C1294 C1295 1.362 . S
C1295 H1285 0.930 . S
C1295 C1288 1.409 . S
C1295 C1294 1.362 . S
H1296 C1302 0.930 . S
H1297 C1305 0.930 . S
H1298 C1306 0.930 . S
H1299 C1307 0.930 . S
H1300 C1310 0.930 . S
H1301 C1311 0.930 . S
C1302 H1296 0.930 . S
C1302 C1303 1.355 . S
C1302 C1304 1.415 . S
C1303 C1302 1.355 . S
C1303 C1305 1.419 . S
C1304 C1302 1.415 . S
C1304 C1309 1.425 . S
C1304 C1311 1.409 . S
C1305 H1297 0.930 . S
C1305 C1303 1.419 . S
C1305 C1306 1.362 . S
C1306 H1298 0.930 . S
C1306 C1305 1.362 . S
C1306 C1309 1.409 . S
C1307 H1299 0.930 . S
C1307 C1308 1.355 . S
C1307 C1309 1.415 . S
C1308 C1307 1.355 . S
C1308 C1310 1.419 . S
C1309 C1304 1.425 . S
C1309 C1306 1.409 . S
C1309 C1307 1.415 . S
C1310 H1300 0.930 . S
C1310 C1308 1.419 . S
C1310 C1311 1.362 . S
C1311 H1301 0.930 . S
C1311 C1304 1.409 . S
C1311 C1310 1.362 . S
H1312 C1318 0.930 . S
H1313 C1321 0.930 . S
H1314 C1322 0.930 . S
H1315 C1323 0.930 . S
H1316 C1326 0.930 . S
H1317 C1327 0.930 . S
C1318 H1312 0.930 . S
C1318 C1319 1.355 . S
C1318 C1320 1.415 . S
C1319 C1318 1.355 . S
C1319 C1321 1.419 . S
C1320 C1318 1.415 . S
C1320 C1325 1.425 . S
C1320 C1327 1.409 . S
C1321 H1313 0.930 . S
C1321 C1319 1.419 . S
C1321 C1322 1.362 . S
C1322 H1314 0.930 . S
C1322 C1321 1.362 . S
C1322 C1325 1.409 . S
C1323 H1315 0.930 . S
C1323 C1324 1.355 . S
C1323 C1325 1.415 . S
C1324 C1323 1.355 . S
C1324 C1326 1.419 . S
C1325 C1320 1.425 . S
C1325 C1322 1.409 . S
C1325 C1323 1.415 . S
C1326 H1316 0.930 . S
C1326 C1324 1.419 . S
C1326 C1327 1.362 . S
C1327 H1317 0.930 . S
C1327 C1320 1.409 . S
C1327 C1326 1.362 . S
H1328 C1334 0.930 . S
H1329 C1337 0.930 . S
H1330 C1338 0.930 . S
H1331 C1339 0.930 . S
H1332 C1342 0.930 . S
H1333 C1343 0.930 . S
C1334 H1328 0.930 . S
C1334 C1335 1.355 . S
C1334 C1336 1.415 . S
C1335 C1334 1.355 . S
C1335 C1337 1.419 . S
C1336 C1334 1.415 . S
C1336 C1341 1.425 . S
C1336 C1343 1.409 . S
C1337 H1329 0.930 . S
C1337 C1335 1.419 . S
C1337 C1338 1.362 . S
C1338 H1330 0.930 . S
C1338 C1337 1.362 . S
C1338 C1341 1.409 . S
C1339 H1331 0.930 . S
C1339 C1340 1.355 . S
C1339 C1341 1.415 . S
C1340 C1339 1.355 . S
C1340 C1342 1.419 . S
C1341 C1336 1.425 . S
C1341 C1338 1.409 . S
C1341 C1339 1.415 . S
C1342 H1332 0.930 . S
C1342 C1340 1.419 . S
C1342 C1343 1.362 . S
C1343 H1333 0.930 . S
C1343 C1336 1.409 . S
C1343 C1342 1.362 . S
H1344 C1350 0.930 . S
H1345 C1353 0.930 . S
H1346 C1354 0.930 . S
H1347 C1355 0.930 . S
H1348 C1358 0.930 . S
H1349 C1359 0.930 . S
C1350 H1344 0.930 . S
C1350 C1351 1.355 . S
C1350 C1352 1.415 . S
C1351 C1350 1.355 . S
C1351 C1353 1.419 . S
C1352 C1350 1.415 . S
C1352 C1357 1.425 . S
C1352 C1359 1.409 . S
C1353 H1345 0.930 . S
C1353 C1351 1.419 . S
C1353 C1354 1.362 . S
C1354 H1346 0.930 . S
C1354 C1353 1.362 . S
C1354 C1357 1.409 . S
C1355 H1347 0.930 . S
C1355 C1356 1.355 . S
C1355 C1357 1.415 . S
C1356 C1355 1.355 . S
C1356 C1358 1.419 . S
C1357 C1352 1.425 . S
C1357 C1354 1.409 . S
C1357 C1355 1.415 . S
C1358 H1348 0.930 . S
C1358 C1356 1.419 . S
C1358 C1359 1.362 . S
C1359 H1349 0.930 . S
C1359 C1352 1.409 . S
C1359 C1358 1.362 . S
H1360 C1366 0.930 . S
H1361 C1369 0.930 . S
H1362 C1370 0.930 . S
H1363 C1371 0.930 . S
H1364 C1374 0.930 . S
H1365 C1375 0.930 . S
C1366 H1360 0.930 . S
C1366 C1367 1.355 . S
C1366 C1368 1.415 . S
C1367 C1366 1.355 . S
C1367 C1369 1.419 . S
C1368 C1366 1.415 . S
C1368 C1373 1.425 . S
C1368 C1375 1.409 . S
C1369 H1361 0.930 . S
C1369 C1367 1.419 . S
C1369 C1370 1.362 . S
C1370 H1362 0.930 . S
C1370 C1369 1.362 . S
C1370 C1373 1.409 . S
C1371 H1363 0.930 . S
C1371 C1372 1.355 . S
C1371 C1373 1.415 . S
C1372 C1371 1.355 . S
C1372 C1374 1.419 . S
C1373 C1368 1.425 . S
C1373 C1370 1.409 . S
C1373 C1371 1.415 . S
C1374 H1364 0.930 . S
C1374 C1372 1.419 . S
C1374 C1375 1.362 . S
C1375 H1365 0.930 . S
C1375 C1368 1.409 . S
C1375 C1374 1.362 . S
H1376 C1382 0.930 . S
H1377 C1385 0.930 . S
H1378 C1386 0.930 . S
H1379 C1387 0.930 . S
H1380 C1390 0.930 . S
H1381 C1391 0.930 . S
C1382 H1376 0.930 . S
C1382 C1383 1.355 . S
C1382 C1384 1.415 . S
C1383 C1382 1.355 . S
C1383 C1385 1.419 . S
C1384 C1382 1.415 . S
C1384 C1389 1.425 . S
C1384 C1391 1.409 . S
C1385 H1377 0.930 . S
C1385 C1383 1.419 . S
C1385 C1386 1.362 . S
C1386 H1378 0.930 . S
C1386 C1385 1.362 . S
C1386 C1389 1.409 . S
C1387 H1379 0.930 . S
C1387 C1388 1.355 . S
C1387 C1389 1.415 . S
C1388 C1387 1.355 . S
C1388 C1390 1.419 . S
C1389 C1384 1.425 . S
C1389 C1386 1.409 . S
C1389 C1387 1.415 . S
C1390 H1380 0.930 . S
C1390 C1388 1.419 . S
C1390 C1391 1.362 . S
C1391 H1381 0.930 . S
C1391 C1384 1.409 . S
C1391 C1390 1.362 . S
H1392 C1398 0.930 . S
H1393 C1401 0.930 . S
H1394 C1402 0.930 . S
H1395 C1403 0.930 . S
H1396 C1406 0.930 . S
H1397 C1407 0.930 . S
C1398 H1392 0.930 . S
C1398 C1399 1.355 . S
C1398 C1400 1.415 . S
C1399 C1398 1.355 . S
C1399 C1401 1.419 . S
C1400 C1398 1.415 . S
C1400 C1405 1.425 . S
C1400 C1407 1.409 . S
C1401 H1393 0.930 . S
C1401 C1399 1.419 . S
C1401 C1402 1.362 . S
C1402 H1394 0.930 . S
C1402 C1401 1.362 . S
C1402 C1405 1.409 . S
C1403 H1395 0.930 . S
C1403 C1404 1.355 . S
C1403 C1405 1.415 . S
C1404 C1403 1.355 . S
C1404 C1406 1.419 . S
C1405 C1400 1.425 . S
C1405 C1402 1.409 . S
C1405 C1403 1.415 . S
C1406 H1396 0.930 . S
C1406 C1404 1.419 . S
C1406 C1407 1.362 . S
C1407 H1397 0.930 . S
C1407 C1400 1.409 . S
C1407 C1406 1.362 . S
H1408 C1414 0.930 . S
H1409 C1417 0.930 . S
H1410 C1418 0.930 . S
H1411 C1419 0.930 . S
H1412 C1422 0.930 . S
H1413 C1423 0.930 . S
C1414 H1408 0.930 . S
C1414 C1415 1.355 . S
C1414 C1416 1.415 . S
C1415 C1414 1.355 . S
C1415 C1417 1.419 . S
C1416 C1414 1.415 . S
C1416 C1421 1.425 . S
C1416 C1423 1.409 . S
C1417 H1409 0.930 . S
C1417 C1415 1.419 . S
C1417 C1418 1.362 . S
C1418 H1410 0.930 . S
C1418 C1417 1.362 . S
C1418 C1421 1.409 . S
C1419 H1411 0.930 . S
C1419 C1420 1.355 . S
C1419 C1421 1.415 . S
C1420 C1419 1.355 . S
C1420 C1422 1.419 . S
C1421 C1416 1.425 . S
C1421 C1418 1.409 . S
C1421 C1419 1.415 . S
C1422 H1412 0.930 . S
C1422 C1420 1.419 . S
C1422 C1423 1.362 . S
C1423 H1413 0.930 . S
C1423 C1416 1.409 . S
C1423 C1422 1.362 . S
H1424 C1430 0.930 . S
H1425 C1433 0.930 . S
H1426 C1434 0.930 . S
H1427 C1435 0.930 . S
H1428 C1438 0.930 . S
H1429 C1439 0.930 . S
C1430 H1424 0.930 . S
C1430 C1431 1.355 . S
C1430 C1432 1.415 . S
C1431 C1430 1.355 . S
C1431 C1433 1.419 . S
C1432 C1430 1.415 . S
C1432 C1437 1.425 . S
C1432 C1439 1.409 . S
C1433 H1425 0.930 . S
C1433 C1431 1.419 . S
C1433 C1434 1.362 . S
C1434 H1426 0.930 . S
C1434 C1433 1.362 . S
C1434 C1437 1.409 . S
C1435 H1427 0.930 . S
C1435 C1436 1.355 . S
C1435 C1437 1.415 . S
C1436 C1435 1.355 . S
C1436 C1438 1.419 . S
C1437 C1432 1.425 . S
C1437 C1434 1.409 . S
C1437 C1435 1.415 . S
C1438 H1428 0.930 . S
C1438 C1436 1.419 . S
C1438 C1439 1.362 . S
C1439 H1429 0.930 . S
C1439 C1432 1.409 . S
C1439 C1438 1.362 . S
H1440 C1446 0.930 . S
H1441 C1449 0.930 . S
H1442 C1450 0.930 . S
H1443 C1451 0.930 . S
H1444 C1454 0.930 . S
H1445 C1455 0.930 . S
C1446 H1440 0.930 . S
C1446 C1447 1.355 . S
C1446 C1448 1.415 . S
C1447 C1446 1.355 . S
C1447 C1449 1.419 . S
C1448 C1446 1.415 . S
C1448 C1453 1.425 . S
C1448 C1455 1.409 . S
C1449 H1441 0.930 . S
C1449 C1447 1.419 . S
C1449 C1450 1.362 . S
C1450 H1442 0.930 . S
C1450 C1449 1.362 . S
C1450 C1453 1.409 . S
C1451 H1443 0.930 . S
C1451 C1452 1.355 . S
C1451 C1453 1.415 . S
C1452 C1451 1.355 . S
C1452 C1454 1.419 . S
C1453 C1448 1.425 . S
C1453 C1450 1.409 . S
C1453 C1451 1.415 . S
C1454 H1444 0.930 . S
C1454 C1452 1.419 . S
C1454 C1455 1.362 . S
C1455 H1445 0.930 . S
C1455 C1448 1.409 . S
C1455 C1454 1.362 . S
H1456 C1462 0.930 . S
H1457 C1465 0.930 . S
H1458 C1466 0.930 . S
H1459 C1467 0.930 . S
H1460 C1470 0.930 . S
H1461 C1471 0.930 . S
C1462 H1456 0.930 . S
C1462 C1463 1.355 . S
C1462 C1464 1.415 . S
C1463 C1462 1.355 . S
C1463 C1465 1.419 . S
C1464 C1462 1.415 . S
C1464 C1469 1.425 . S
C1464 C1471 1.409 . S
C1465 H1457 0.930 . S
C1465 C1463 1.419 . S
C1465 C1466 1.362 . S
C1466 H1458 0.930 . S
C1466 C1465 1.362 . S
C1466 C1469 1.409 . S
C1467 H1459 0.930 . S
C1467 C1468 1.355 . S
C1467 C1469 1.415 . S
C1468 C1467 1.355 . S
C1468 C1470 1.419 . S
C1469 C1464 1.425 . S
C1469 C1466 1.409 . S
C1469 C1467 1.415 . S
C1470 H1460 0.930 . S
C1470 C1468 1.419 . S
C1470 C1471 1.362 . S
C1471 H1461 0.930 . S
C1471 C1464 1.409 . S
C1471 C1470 1.362 . S
H1472 C1478 0.930 . S
H1473 C1481 0.930 . S
H1474 C1482 0.930 . S
H1475 C1483 0.930 . S
H1476 C1486 0.930 . S
H1477 C1487 0.930 . S
C1478 H1472 0.930 . S
C1478 C1479 1.355 . S
C1478 C1480 1.415 . S
C1479 C1478 1.355 . S
C1479 C1481 1.419 . S
C1480 C1478 1.415 . S
C1480 C1485 1.425 . S
C1480 C1487 1.409 . S
C1481 H1473 0.930 . S
C1481 C1479 1.419 . S
C1481 C1482 1.362 . S
C1482 H1474 0.930 . S
C1482 C1481 1.362 . S
C1482 C1485 1.409 . S
C1483 H1475 0.930 . S
C1483 C1484 1.355 . S
C1483 C1485 1.415 . S
C1484 C1483 1.355 . S
C1484 C1486 1.419 . S
C1485 C1480 1.425 . S
C1485 C1482 1.409 . S
C1485 C1483 1.415 . S
C1486 H1476 0.930 . S
C1486 C1484 1.419 . S
C1486 C1487 1.362 . S
C1487 H1477 0.930 . S
C1487 C1480 1.409 . S
C1487 C1486 1.362 . S
H1488 C1494 0.930 . S
H1489 C1497 0.930 . S
H1490 C1498 0.930 . S
H1491 C1499 0.930 . S
H1492 C1502 0.930 . S
H1493 C1503 0.930 . S
C1494 H1488 0.930 . S
C1494 C1495 1.355 . S
C1494 C1496 1.415 . S
C1495 C1494 1.355 . S
C1495 C1497 1.419 . S
C1496 C1494 1.415 . S
C1496 C1501 1.425 . S
C1496 C1503 1.409 . S
C1497 H1489 0.930 . S
C1497 C1495 1.419 . S
C1497 C1498 1.362 . S
C1498 H1490 0.930 . S
C1498 C1497 1.362 . S
C1498 C1501 1.409 . S
C1499 H1491 0.930 . S
C1499 C1500 1.355 . S
C1499 C1501 1.415 . S
C1500 C1499 1.355 . S
C1500 C1502 1.419 . S
C1501 C1496 1.425 . S
C1501 C1498 1.409 . S
C1501 C1499 1.415 . S
C1502 H1492 0.930 . S
C1502 C1500 1.419 . S
C1502 C1503 1.362 . S
C1503 H1493 0.930 . S
C1503 C1496 1.409 . S
C1503 C1502 1.362 . S
H1504 C1510 0.930 . S
H1505 C1513 0.930 . S
H1506 C1514 0.930 . S
H1507 C1515 0.930 . S
H1508 C1518 0.930 . S
H1509 C1519 0.930 . S
C1510 H1504 0.930 . S
C1510 C1511 1.355 . S
C1510 C1512 1.415 . S
C1511 C1510 1.355 . S
C1511 C1513 1.419 . S
C1512 C1510 1.415 . S
C1512 C1517 1.425 . S
C1512 C1519 1.409 . S
C1513 H1505 0.930 . S
C1513 C1511 1.419 . S
C1513 C1514 1.362 . S
C1514 H1506 0.930 . S
C1514 C1513 1.362 . S
C1514 C1517 1.409 . S
C1515 H1507 0.930 . S
C1515 C1516 1.355 . S
C1515 C1517 1.415 . S
C1516 C1515 1.355 . S
C1516 C1518 1.419 . S
C1517 C1512 1.425 . S
C1517 C1514 1.409 . S
C1517 C1515 1.415 . S
C1518 H1508 0.930 . S
C1518 C1516 1.419 . S
C1518 C1519 1.362 . S
C1519 H1509 0.930 . S
C1519 C1512 1.409 . S
C1519 C1518 1.362 . S
H1520 C1526 0.930 . S
H1521 C1529 0.930 . S
H1522 C1530 0.930 . S
H1523 C1531 0.930 . S
H1524 C1534 0.930 . S
H1525 C1535 0.930 . S
C1526 H1520 0.930 . S
C1526 C1527 1.355 . S
C1526 C1528 1.415 . S
C1527 C1526 1.355 . S
C1527 C1529 1.419 . S
C1528 C1526 1.415 . S
C1528 C1533 1.425 . S
C1528 C1535 1.409 . S
C1529 H1521 0.930 . S
C1529 C1527 1.419 . S
C1529 C1530 1.362 . S
C1530 H1522 0.930 . S
C1530 C1529 1.362 . S
C1530 C1533 1.409 . S
C1531 H1523 0.930 . S
C1531 C1532 1.355 . S
C1531 C1533 1.415 . S
C1532 C1531 1.355 . S
C1532 C1534 1.419 . S
C1533 C1528 1.425 . S
C1533 C1530 1.409 . S
C1533 C1531 1.415 . S
C1534 H1524 0.930 . S
C1534 C1532 1.419 . S
C1534 C1535 1.362 . S
C1535 H1525 0.930 . S
C1535 C1528 1.409 . S
C1535 C1534 1.362 . S
H1536 C1542 0.930 . S
H1537 C1545 0.930 . S
H1538 C1546 0.930 . S
H1539 C1547 0.930 . S
H1540 C1550 0.930 . S
H1541 C1551 0.930 . S
C1542 H1536 0.930 . S
C1542 C1543 1.355 . S
C1542 C1544 1.415 . S
C1543 C1542 1.355 . S
C1543 C1545 1.419 . S
C1544 C1542 1.415 . S
C1544 C1549 1.425 . S
C1544 C1551 1.409 . S
C1545 H1537 0.930 . S
C1545 C1543 1.419 . S
C1545 C1546 1.362 . S
C1546 H1538 0.930 . S
C1546 C1545 1.362 . S
C1546 C1549 1.409 . S
C1547 H1539 0.930 . S
C1547 C1548 1.355 . S
C1547 C1549 1.415 . S
C1548 C1547 1.355 . S
C1548 C1550 1.419 . S
C1549 C1544 1.425 . S
C1549 C1546 1.409 . S
C1549 C1547 1.415 . S
C1550 H1540 0.930 . S
C1550 C1548 1.419 . S
C1550 C1551 1.362 . S
C1551 H1541 0.930 . S
C1551 C1544 1.409 . S
C1551 C1550 1.362 . S
H1552 C1558 0.930 . S
H1553 C1561 0.930 . S
H1554 C1562 0.930 . S
H1555 C1563 0.930 . S
H1556 C1566 0.930 . S
H1557 C1567 0.930 . S
C1558 H1552 0.930 . S
C1558 C1559 1.355 . S
C1558 C1560 1.415 . S
C1559 C1558 1.355 . S
C1559 C1561 1.419 . S
C1560 C1558 1.415 . S
C1560 C1565 1.425 . S
C1560 C1567 1.409 . S
C1561 H1553 0.930 . S
C1561 C1559 1.419 . S
C1561 C1562 1.362 . S
C1562 H1554 0.930 . S
C1562 C1561 1.362 . S
C1562 C1565 1.409 . S
C1563 H1555 0.930 . S
C1563 C1564 1.355 . S
C1563 C1565 1.415 . S
C1564 C1563 1.355 . S
C1564 C1566 1.419 . S
C1565 C1560 1.425 . S
C1565 C1562 1.409 . S
C1565 C1563 1.415 . S
C1566 H1556 0.930 . S
C1566 C1564 1.419 . S
C1566 C1567 1.362 . S
C1567 H1557 0.930 . S
C1567 C1560 1.409 . S
C1567 C1566 1.362 . S
H1568 C1574 0.930 . S
H1569 C1577 0.930 . S
H1570 C1578 0.930 . S
H1571 C1579 0.930 . S
H1572 C1582 0.930 . S
H1573 C1583 0.930 . S
C1574 H1568 0.930 . S
C1574 C1575 1.355 . S
C1574 C1576 1.415 . S
C1575 C1574 1.355 . S
C1575 C1577 1.419 . S
C1576 C1574 1.415 . S
C1576 C1581 1.425 . S
C1576 C1583 1.409 . S
C1577 H1569 0.930 . S
C1577 C1575 1.419 . S
C1577 C1578 1.362 . S
C1578 H1570 0.930 . S
C1578 C1577 1.362 . S
C1578 C1581 1.409 . S
C1579 H1571 0.930 . S
C1579 C1580 1.355 . S
C1579 C1581 1.415 . S
C1580 C1579 1.355 . S
C1580 C1582 1.419 . S
C1581 C1576 1.425 . S
C1581 C1578 1.409 . S
C1581 C1579 1.415 . S
C1582 H1572 0.930 . S
C1582 C1580 1.419 . S
C1582 C1583 1.362 . S
C1583 H1573 0.930 . S
C1583 C1576 1.409 . S
C1583 C1582 1.362 . S
H1584 C1590 0.930 . S
H1585 C1593 0.930 . S
H1586 C1594 0.930 . S
H1587 C1595 0.930 . S
H1588 C1598 0.930 . S
H1589 C1599 0.930 . S
C1590 H1584 0.930 . S
C1590 C1591 1.355 . S
C1590 C1592 1.415 . S
C1591 C1590 1.355 . S
C1591 C1593 1.419 . S
C1592 C1590 1.415 . S
C1592 C1597 1.425 . S
C1592 C1599 1.409 . S
C1593 H1585 0.930 . S
C1593 C1591 1.419 . S
C1593 C1594 1.362 . S
C1594 H1586 0.930 . S
C1594 C1593 1.362 . S
C1594 C1597 1.409 . S
C1595 H1587 0.930 . S
C1595 C1596 1.355 . S
C1595 C1597 1.415 . S
C1596 C1595 1.355 . S
C1596 C1598 1.419 . S
C1597 C1592 1.425 . S
C1597 C1594 1.409 . S
C1597 C1595 1.415 . S
C1598 H1588 0.930 . S
C1598 C1596 1.419 . S
C1598 C1599 1.362 . S
C1599 H1589 0.930 . S
C1599 C1592 1.409 . S
C1599 C1598 1.362 . S
H1600 C1606 0.930 . S
H1601 C1609 0.930 . S
H1602 C1610 0.930 . S
H1603 C1611 0.930 . S
H1604 C1614 0.930 . S
H1605 C1615 0.930 . S
C1606 H1600 0.930 . S
C1606 C1607 1.355 . S
C1606 C1608 1.415 . S
C1607 C1606 1.355 . S
C1607 C1609 1.419 . S
C1608 C1606 1.415 . S
C1608 C1613 1.425 . S
C1608 C1615 1.409 . S
C1609 H1601 0.930 . S
C1609 C1607 1.419 . S
C1609 C1610 1.362 . S
C1610 H1602 0.930 . S
C1610 C1609 1.362 . S
C1610 C1613 1.409 . S
C1611 H1603 0.930 . S
C1611 C1612 1.355 . S
C1611 C1613 1.415 . S
C1612 C1611 1.355 . S
C1612 C1614 1.419 . S
C1613 C1608 1.425 . S
C1613 C1610 1.409 . S
C1613 C1611 1.415 . S
C1614 H1604 0.930 . S
C1614 C1612 1.419 . S
C1614 C1615 1.362 . S
C1615 H1605 0.930 . S
C1615 C1608 1.409 . S
C1615 C1614 1.362 . S
H1616 C1622 0.930 . S
H1617 C1625 0.930 . S
H1618 C1626 0.930 . S
H1619 C1627 0.930 . S
H1620 C1630 0.930 . S
H1621 C1631 0.930 . S
C1622 H1616 0.930 . S
C1622 C1623 1.355 . S
C1622 C1624 1.415 . S
C1623 C1622 1.355 . S
C1623 C1625 1.419 . S
C1624 C1622 1.415 . S
C1624 C1629 1.425 . S
C1624 C1631 1.409 . S
C1625 H1617 0.930 . S
C1625 C1623 1.419 . S
C1625 C1626 1.362 . S
C1626 H1618 0.930 . S
C1626 C1625 1.362 . S
C1626 C1629 1.409 . S
C1627 H1619 0.930 . S
C1627 C1628 1.355 . S
C1627 C1629 1.415 . S
C1628 C1627 1.355 . S
C1628 C1630 1.419 . S
C1629 C1624 1.425 . S
C1629 C1626 1.409 . S
C1629 C1627 1.415 . S
C1630 H1620 0.930 . S
C1630 C1628 1.419 . S
C1630 C1631 1.362 . S
C1631 H1621 0.930 . S
C1631 C1624 1.409 . S
C1631 C1630 1.362 . S
H1632 C1638 0.930 . S
H1633 C1641 0.930 . S
H1634 C1642 0.930 . S
H1635 C1643 0.930 . S
H1636 C1646 0.930 . S
H1637 C1647 0.930 . S
C1638 H1632 0.930 . S
C1638 C1639 1.355 . S
C1638 C1640 1.415 . S
C1639 C1638 1.355 . S
C1639 C1641 1.419 . S
C1640 C1638 1.415 . S
C1640 C1645 1.425 . S
C1640 C1647 1.409 . S
C1641 H1633 0.930 . S
C1641 C1639 1.419 . S
C1641 C1642 1.362 . S
C1642 H1634 0.930 . S
C1642 C1641 1.362 . S
C1642 C1645 1.409 . S
C1643 H1635 0.930 . S
C1643 C1644 1.355 . S
C1643 C1645 1.415 . S
C1644 C1643 1.355 . S
C1644 C1646 1.419 . S
C1645 C1640 1.425 . S
C1645 C1642 1.409 . S
C1645 C1643 1.415 . S
C1646 H1636 0.930 . S
C1646 C1644 1.419 . S
C1646 C1647 1.362 . S
C1647 H1637 0.930 . S
C1647 C1640 1.409 . S
C1647 C1646 1.362 . S
H1648 C1654 0.930 . S
H1649 C1657 0.930 . S
H1650 C1658 0.930 . S
H1651 C1659 0.930 . S
H1652 C1662 0.930 . S
H1653 C1663 0.930 . S
C1654 H1648 0.930 . S
C1654 C1655 1.355 . S
C1654 C1656 1.415 . S
C1655 C1654 1.355 . S
C1655 C1657 1.419 . S
C1656 C1654 1.415 . S
C1656 C1661 1.425 . S
C1656 C1663 1.409 . S
C1657 H1649 0.930 . S
C1657 C1655 1.419 . S
C1657 C1658 1.362 . S
C1658 H1650 0.930 . S
C1658 C1657 1.362 . S
C1658 C1661 1.409 . S
C1659 H1651 0.930 . S
C1659 C1660 1.355 . S
C1659 C1661 1.415 . S
C1660 C1659 1.355 . S
C1660 C1662 1.419 . S
C1661 C1656 1.425 . S
C1661 C1658 1.409 . S
C1661 C1659 1.415 . S
C1662 H1652 0.930 . S
C1662 C1660 1.419 . S
C1662 C1663 1.362 . S
C1663 H1653 0.930 . S
C1663 C1656 1.409 . S
C1663 C1662 1.362 . S
H1664 C1670 0.930 . S
H1665 C1673 0.930 . S
H1666 C1674 0.930 . S
H1667 C1675 0.930 . S
H1668 C1678 0.930 . S
H1669 C1679 0.930 . S
C1670 H1664 0.930 . S
C1670 C1671 1.355 . S
C1670 C1672 1.415 . S
C1671 C1670 1.355 . S
C1671 C1673 1.419 . S
C1672 C1670 1.415 . S
C1672 C1677 1.425 . S
C1672 C1679 1.409 . S
C1673 H1665 0.930 . S
C1673 C1671 1.419 . S
C1673 C1674 1.362 . S
C1674 H1666 0.930 . S
C1674 C1673 1.362 . S
C1674 C1677 1.409 . S
C1675 H1667 0.930 . S
C1675 C1676 1.355 . S
C1675 C1677 1.415 . S
C1676 C1675 1.355 . S
C1676 C1678 1.419 . S
C1677 C1672 1.425 . S
C1677 C1674 1.409 . S
C1677 C1675 1.415 . S
C1678 H1668 0.930 . S
C1678 C1676 1.419 . S
C1678 C1679 1.362 . S
C1679 H1669 0.930 . S
C1679 C1672 1.409 . S
C1679 C1678 1.362 . S
H1680 C1686 0.930 . S
H1681 C1689 0.930 . S
H1682 C1690 0.930 . S
H1683 C1691 0.930 . S
H1684 C1694 0.930 . S
H1685 C1695 0.930 . S
C1686 H1680 0.930 . S
C1686 C1687 1.355 . S
C1686 C1688 1.415 . S
C1687 C1686 1.355 . S
C1687 C1689 1.419 . S
C1688 C1686 1.415 . S
C1688 C1693 1.425 . S
C1688 C1695 1.409 . S
C1689 H1681 0.930 . S
C1689 C1687 1.419 . S
C1689 C1690 1.362 . S
C1690 H1682 0.930 . S
C1690 C1689 1.362 . S
C1690 C1693 1.409 . S
C1691 H1683 0.930 . S
C1691 C1692 1.355 . S
C1691 C1693 1.415 . S
C1692 C1691 1.355 . S
C1692 C1694 1.419 . S
C1693 C1688 1.425 . S
C1693 C1690 1.409 . S
C1693 C1691 1.415 . S
C1694 H1684 0.930 . S
C1694 C1692 1.419 . S
C1694 C1695 1.362 . S
C1695 H1685 0.930 . S
C1695 C1688 1.409 . S
C1695 C1694 1.362 . S
H1696 C1702 0.930 . S
H1697 C1705 0.930 . S
H1698 C1706 0.930 . S
H1699 C1707 0.930 . S
H1700 C1710 0.930 . S
H1701 C1711 0.930 . S
C1702 H1696 0.930 . S
C1702 C1703 1.355 . S
C1702 C1704 1.415 . S
C1703 C1702 1.355 . S
C1703 C1705 1.419 . S
C1704 C1702 1.415 . S
C1704 C1709 1.425 . S
C1704 C1711 1.409 . S
C1705 H1697 0.930 . S
C1705 C1703 1.419 . S
C1705 C1706 1.362 . S
C1706 H1698 0.930 . S
C1706 C1705 1.362 . S
C1706 C1709 1.409 . S
C1707 H1699 0.930 . S
C1707 C1708 1.355 . S
C1707 C1709 1.415 . S
C1708 C1707 1.355 . S
C1708 C1710 1.419 . S
C1709 C1704 1.425 . S
C1709 C1706 1.409 . S
C1709 C1707 1.415 . S
C1710 H1700 0.930 . S
C1710 C1708 1.419 . S
C1710 C1711 1.362 . S
C1711 H1701 0.930 . S
C1711 C1704 1.409 . S
C1711 C1710 1.362 . S
H1712 C1718 0.930 . S
H1713 C1721 0.930 . S
H1714 C1722 0.930 . S
H1715 C1723 0.930 . S
H1716 C1726 0.930 . S
H1717 C1727 0.930 . S
C1718 H1712 0.930 . S
C1718 C1719 1.355 . S
C1718 C1720 1.415 . S
C1719 C1718 1.355 . S
C1719 C1721 1.419 . S
C1720 C1718 1.415 . S
C1720 C1725 1.425 . S
C1720 C1727 1.409 . S
C1721 H1713 0.930 . S
C1721 C1719 1.419 . S
C1721 C1722 1.362 . S
C1722 H1714 0.930 . S
C1722 C1721 1.362 . S
C1722 C1725 1.409 . S
C1723 H1715 0.930 . S
C1723 C1724 1.355 . S
C1723 C1725 1.415 . S
C1724 C1723 1.355 . S
C1724 C1726 1.419 . S
C1725 C1720 1.425 . S
C1725 C1722 1.409 . S
C1725 C1723 1.415 . S
C1726 H1716 0.930 . S
C1726 C1724 1.419 . S
C1726 C1727 1.362 . S
C1727 H1717 0.930 . S
C1727 C1720 1.409 . S
C1727 C1726 1.362 . S
H1728 C1734 0.930 . S
H1729 C1737 0.930 . S
H1730 C1738 0.930 . S
H1731 C1739 0.930 . S
H1732 C1742 0.930 . S
H1733 C1743 0.930 . S
C1734 H1728 0.930 . S
C1734 C1735 1.355 . S
C1734 C1736 1.415 . S
C1735 C1734 1.355 . S
C1735 C1737 1.419 . S
C1736 C1734 1.415 . S
C1736 C1741 1.425 . S
C1736 C1743 1.409 . S
C1737 H1729 0.930 . S
C1737 C1735 1.419 . S
C1737 C1738 1.362 . S
C1738 H1730 0.930 . S
C1738 C1737 1.362 . S
C1738 C1741 1.409 . S
C1739 H1731 0.930 . S
C1739 C1740 1.355 . S
C1739 C1741 1.415 . S
C1740 C1739 1.355 . S
C1740 C1742 1.419 . S
C1741 C1736 1.425 . S
C1741 C1738 1.409 . S
C1741 C1739 1.415 . S
C1742 H1732 0.930 . S
C1742 C1740 1.419 . S
C1742 C1743 1.362 . S
C1743 H1733 0.930 . S
C1743 C1736 1.409 . S
C1743 C1742 1.362 . S
H1744 C1750 0.930 . S
H1745 C1753 0.930 . S
H1746 C1754 0.930 . S
H1747 C1755 0.930 . S
H1748 C1758 0.930 . S
H1749 C1759 0.930 . S
C1750 H1744 0.930 . S
C1750 C1751 1.355 . S
C1750 C1752 1.415 . S
C1751 C1750 1.355 . S
C1751 C1753 1.419 . S
C1752 C1750 1.415 . S
C1752 C1757 1.425 . S
C1752 C1759 1.409 . S
C1753 H1745 0.930 . S
C1753 C1751 1.419 . S
C1753 C1754 1.362 . S
C1754 H1746 0.930 . S
C1754 C1753 1.362 . S
C1754 C1757 1.409 . S
C1755 H1747 0.930 . S
C1755 C1756 1.355 . S
C1755 C1757 1.415 . S
C1756 C1755 1.355 . S
C1756 C1758 1.419 . S
C1757 C1752 1.425 . S
C1757 C1754 1.409 . S
C1757 C1755 1.415 . S
C1758 H1748 0.930 . S
C1758 C1756 1.419 . S
C1758 C1759 1.362 . S
C1759 H1749 0.930 . S
C1759 C1752 1.409 . S
C1759 C1758 1.362 . S
H1760 C1766 0.930 . S
H1761 C1769 0.930 . S
H1762 C1770 0.930 . S
H1763 C1771 0.930 . S
H1764 C1774 0.930 . S
H1765 C1775 0.930 . S
C1766 H1760 0.930 . S
C1766 C1767 1.355 . S
C1766 C1768 1.415 . S
C1767 C1766 1.355 . S
C1767 C1769 1.419 . S
C1768 C1766 1.415 . S
C1768 C1773 1.425 . S
C1768 C1775 1.409 . S
C1769 H1761 0.930 . S
C1769 C1767 1.419 . S
C1769 C1770 1.362 . S
C1770 H1762 0.930 . S
C1770 C1769 1.362 . S
C1770 C1773 1.409 . S
C1771 H1763 0.930 . S
C1771 C1772 1.355 . S
C1771 C1773 1.415 . S
C1772 C1771 1.355 . S
C1772 C1774 1.419 . S
C1773 C1768 1.425 . S
C1773 C1770 1.409 . S
C1773 C1771 1.415 . S
C1774 H1764 0.930 . S
C1774 C1772 1.419 . S
C1774 C1775 1.362 . S
C1775 H1765 0.930 . S
C1775 C1768 1.409 . S
C1775 C1774 1.362 . S
H1776 C1782 0.930 . S
H1777 C1785 0.930 . S
H1778 C1786 0.930 . S
H1779 C1787 0.930 . S
H1780 C1790 0.930 . S
H1781 C1791 0.930 . S
C1782 H1776 0.930 . S
C1782 C1783 1.355 . S
C1782 C1784 1.415 . S
C1783 C1782 1.355 . S
C1783 C1785 1.419 . S
C1784 C1782 1.415 . S
C1784 C1789 1.425 . S
C1784 C1791 1.409 . S
C1785 H1777 0.930 . S
C1785 C1783 1.419 . S
C1785 C1786 1.362 . S
C1786 H1778 0.930 . S
C1786 C1785 1.362 . S
C1786 C1789 1.409 . S
C1787 H1779 0.930 . S
C1787 C1788 1.355 . S
C1787 C1789 1.415 . S
C1788 C1787 1.355 . S
C1788 C1790 1.419 . S
C1789 C1784 1.425 . S
C1789 C1786 1.409 . S
C1789 C1787 1.415 . S
C1790 H1780 0.930 . S
C1790 C1788 1.419 . S
C1790 C1791 1.362 . S
C1791 H1781 0.930 . S
C1791 C1784 1.409 . S
C1791 C1790 1.362 . S
H1792 C1798 0.930 . S
H1793 C1801 0.930 . S
H1794 C1802 0.930 . S
H1795 C1803 0.930 . S
H1796 C1806 0.930 . S
H1797 C1807 0.930 . S
C1798 H1792 0.930 . S
C1798 C1799 1.355 . S
C1798 C1800 1.415 . S
C1799 C1798 1.355 . S
C1799 C1801 1.419 . S
C1800 C1798 1.415 . S
C1800 C1805 1.425 . S
C1800 C1807 1.409 . S
C1801 H1793 0.930 . S
C1801 C1799 1.419 . S
C1801 C1802 1.362 . S
C1802 H1794 0.930 . S
C1802 C1801 1.362 . S
C1802 C1805 1.409 . S
C1803 H1795 0.930 . S
C1803 C1804 1.355 . S
C1803 C1805 1.415 . S
C1804 C1803 1.355 . S
C1804 C1806 1.419 . S
C1805 C1800 1.425 . S
C1805 C1802 1.409 . S
C1805 C1803 1.415 . S
C1806 H1796 0.930 . S
C1806 C1804 1.419 . S
C1806 C1807 1.362 . S
C1807 H1797 0.930 . S
C1807 C1800 1.409 . S
C1807 C1806 1.362 . S
H1808 C1814 0.930 . S
H1809 C1817 0.930 . S
H1810 C1818 0.930 . S
H1811 C1819 0.930 . S
H1812 C1822 0.930 . S
H1813 C1823 0.930 . S
C1814 H1808 0.930 . S
C1814 C1815 1.355 . S
C1814 C1816 1.415 . S
C1815 C1814 1.355 . S
C1815 C1817 1.419 . S
C1816 C1814 1.415 . S
C1816 C1821 1.425 . S
C1816 C1823 1.409 . S
C1817 H1809 0.930 . S
C1817 C1815 1.419 . S
C1817 C1818 1.362 . S
C1818 H1810 0.930 . S
C1818 C1817 1.362 . S
C1818 C1821 1.409 . S
C1819 H1811 0.930 . S
C1819 C1820 1.355 . S
C1819 C1821 1.415 . S
C1820 C1819 1.355 . S
C1820 C1822 1.419 . S
C1821 C1816 1.425 . S
C1821 C1818 1.409 . S
C1821 C1819 1.415 . S
C1822 H1812 0.930 . S
C1822 C1820 1.419 . S
C1822 C1823 1.362 . S
C1823 H1813 0.930 . S
C1823 C1816 1.409 . S
C1823 C1822 1.362 . S
H1824 C1830 0.930 . S
H1825 C1833 0.930 . S
H1826 C1834 0.930 . S
H1827 C1835 0.930 . S
H1828 C1838 0.930 . S
H1829 C1839 0.930 . S
C1830 H1824 0.930 . S
C1830 C1831 1.355 . S
C1830 C1832 1.415 . S
C1831 C1830 1.355 . S
C1831 C1833 1.419 . S
C1832 C1830 1.415 . S
C1832 C1837 1.425 . S
C1832 C1839 1.409 . S
C1833 H1825 0.930 . S
C1833 C1831 1.419 . S
C1833 C1834 1.362 . S
C1834 H1826 0.930 . S
C1834 C1833 1.362 . S
C1834 C1837 1.409 . S
C1835 H1827 0.930 . S
C1835 C1836 1.355 . S
C1835 C1837 1.415 . S
C1836 C1835 1.355 . S
C1836 C1838 1.419 . S
C1837 C1832 1.425 . S
C1837 C1834 1.409 . S
C1837 C1835 1.415 . S
C1838 H1828 0.930 . S
C1838 C1836 1.419 . S
C1838 C1839 1.362 . S
C1839 H1829 0.930 . S
C1839 C1832 1.409 . S
C1839 C1838 1.362 . S
H1840 C1846 0.930 . S
H1841 C1849 0.930 . S
H1842 C1850 0.930 . S
H1843 C1851 0.930 . S
H1844 C1854 0.930 . S
H1845 C1855 0.930 . S
C1846 H1840 0.930 . S
C1846 C1847 1.355 . S
C1846 C1848 1.415 . S
C1847 C1846 1.355 . S
C1847 C1849 1.419 . S
C1848 C1846 1.415 . S
C1848 C1853 1.425 . S
C1848 C1855 1.409 . S
C1849 H1841 0.930 . S
C1849 C1847 1.419 . S
C1849 C1850 1.362 . S
C1850 H1842 0.930 . S
C1850 C1849 1.362 . S
C1850 C1853 1.409 . S
C1851 H1843 0.930 . S
C1851 C1852 1.355 . S
C1851 C1853 1.415 . S
C1852 C1851 1.355 . S
C1852 C1854 1.419 . S
C1853 C1848 1.425 . S
C1853 C1850 1.409 . S
C1853 C1851 1.415 . S
C1854 H1844 0.930 . S
C1854 C1852 1.419 . S
C1854 C1855 1.362 . S
C1855 H1845 0.930 . S
C1855 C1848 1.409 . S
C1855 C1854 1.362 . S
H1856 C1862 0.930 . S
H1857 C1865 0.930 . S
H1858 C1866 0.930 . S
H1859 C1867 0.930 . S
H1860 C1870 0.930 . S
H1861 C1871 0.930 . S
C1862 H1856 0.930 . S
C1862 C1863 1.355 . S
C1862 C1864 1.415 . S
C1863 C1862 1.355 . S
C1863 C1865 1.419 . S
C1864 C1862 1.415 . S
C1864 C1869 1.425 . S
C1864 C1871 1.409 . S
C1865 H1857 0.930 . S
C1865 C1863 1.419 . S
C1865 C1866 1.362 . S
C1866 H1858 0.930 . S
C1866 C1865 1.362 . S
C1866 C1869 1.409 . S
C1867 H1859 0.930 . S
C1867 C1868 1.355 . S
C1867 C1869 1.415 . S
C1868 C1867 1.355 . S
C1868 C1870 1.419 . S
C1869 C1864 1.425 . S
C1869 C1866 1.409 . S
C1869 C1867 1.415 . S
C1870 H1860 0.930 . S
C1870 C1868 1.419 . S
C1870 C1871 1.362 . S
C1871 H1861 0.930 . S
C1871 C1864 1.409 . S
C1871 C1870 1.362 . S
H1872 C1878 0.930 . S
H1873 C1881 0.930 . S
H1874 C1882 0.930 . S
H1875 C1883 0.930 . S
H1876 C1886 0.930 . S
H1877 C1887 0.930 . S
C1878 H1872 0.930 . S
C1878 C1879 1.355 . S
C1878 C1880 1.415 . S
C1879 C1878 1.355 . S
C1879 C1881 1.419 . S
C1880 C1878 1.415 . S
C1880 C1885 1.425 . S
C1880 C1887 1.409 . S
C1881 H1873 0.930 . S
C1881 C1879 1.419 . S
C1881 C1882 1.362 . S
C1882 H1874 0.930 . S
C1882 C1881 1.362 . S
C1882 C1885 1.409 . S
C1883 H1875 0.930 . S
C1883 C1884 1.355 . S
C1883 C1885 1.415 . S
C1884 C1883 1.355 . S
C1884 C1886 1.419 . S
C1885 C1880 1.425 . S
C1885 C1882 1.409 . S
C1885 C1883 1.415 . S
C1886 H1876 0.930 . S
C1886 C1884 1.419 . S
C1886 C1887 1.362 . S
C1887 H1877 0.930 . S
C1887 C1880 1.409 . S
C1887 C1886 1.362 . S
H1888 C1894 0.930 . S
H1889 C1897 0.930 . S
H1890 C1898 0.930 . S
H1891 C1899 0.930 . S
H1892 C1902 0.930 . S
H1893 C1903 0.930 . S
C1894 H1888 0.930 . S
C1894 C1895 1.355 . S
C1894 C1896 1.415 . S
C1895 C1894 1.355 . S
C1895 C1897 1.419 . S
C1896 C1894 1.415 . S
C1896 C1901 1.425 . S
C1896 C1903 1.409 . S
C1897 H1889 0.930 . S
C1897 C1895 1.419 . S
C1897 C1898 1.362 . S
C1898 H1890 0.930 . S
C1898 C1897 1.362 . S
C1898 C1901 1.409 . S
C1899 H1891 0.930 . S
C1899 C1900 1.355 . S
C1899 C1901 1.415 . S
C1900 C1899 1.355 . S
C1900 C1902 1.419 . S
C1901 C1896 1.425 . S
C1901 C1898 1.409 . S
C1901 C1899 1.415 . S
C1902 H1892 0.930 . S
C1902 C1900 1.419 . S
C1902 C1903 1.362 . S
C1903 H1893 0.930 . S
C1903 C1896 1.409 . S
C1903 C1902 1.362 . S
H1904 C1910 0.930 . S
H1905 C1913 0.930 . S
H1906 C1914 0.930 . S
H1907 C1915 0.930 . S
H1908 C1918 0.930 . S
H1909 C1919 0.930 . S
C1910 H1904 0.930 . S
C1910 C1911 1.355 . S
C1910 C1912 1.415 . S
C1911 C1910 1.355 . S
C1911 C1913 1.419 . S
C1912 C1910 1.415 . S
C1912 C1917 1.425 . S
C1912 C1919 1.409 . S
C1913 H1905 0.930 . S
C1913 C1911 1.419 . S
C1913 C1914 1.362 . S
C1914 H1906 0.930 . S
C1914 C1913 1.362 . S
C1914 C1917 1.409 . S
C1915 H1907 0.930 . S
C1915 C1916 1.355 . S
C1915 C1917 1.415 . S
C1916 C1915 1.355 . S
C1916 C1918 1.419 . S
C1917 C1912 1.425 . S
C1917 C1914 1.409 . S
C1917 C1915 1.415 . S
C1918 H1908 0.930 . S
C1918 C1916 1.419 . S
C1918 C1919 1.362 . S
C1919 H1909 0.930 . S
C1919 C1912 1.409 . S
C1919 C1918 1.362 . S
H1920 C1926 0.930 . S
H1921 C1929 0.930 . S
H1922 C1930 0.930 . S
H1923 C1931 0.930 . S
H1924 C1934 0.930 . S
H1925 C1935 0.930 . S
C1926 H1920 0.930 . S
C1926 C1927 1.355 . S
C1926 C1928 1.415 . S
C1927 C1926 1.355 . S
C1927 C1929 1.419 . S
C1928 C1926 1.415 . S
C1928 C1933 1.425 . S
C1928 C1935 1.409 . S
C1929 H1921 0.930 . S
C1929 C1927 1.419 . S
C1929 C1930 1.362 . S
C1930 H1922 0.930 . S
C1930 C1929 1.362 . S
C1930 C1933 1.409 . S
C1931 H1923 0.930 . S
C1931 C1932 1.355 . S
C1931 C1933 1.415 . S
C1932 C1931 1.355 . S
C1932 C1934 1.419 . S
C1933 C1928 1.425 . S
C1933 C1930 1.409 . S
C1933 C1931 1.415 . S
C1934 H1924 0.930 . S
C1934 C1932 1.419 . S
C1934 C1935 1.362 . S
C1935 H1925 0.930 . S
C1935 C1928 1.409 . S
C1935 C1934 1.362 . S
H1936 C1942 0.930 . S
H1937 C1945 0.930 . S
H1938 C1946 0.930 . S
H1939 C1947 0.930 . S
H1940 C1950 0.930 . S
H1941 C1951 0.930 . S
C1942 H1936 0.930 . S
C1942 C1943 1.355 . S
C1942 C1944 1.415 . S
C1943 C1942 1.355 . S
C1943 C1945 1.419 . S
C1944 C1942 1.415 . S
C1944 C1949 1.425 . S
C1944 C1951 1.409 . S
C1945 H1937 0.930 . S
C1945 C1943 1.419 . S
C1945 C1946 1.362 . S
C1946 H1938 0.930 . S
C1946 C1945 1.362 . S
C1946 C1949 1.409 . S
C1947 H1939 0.930 . S
C1947 C1948 1.355 . S
C1947 C1949 1.415 . S
C1948 C1947 1.355 . S
C1948 C1950 1.419 . S
C1949 C1944 1.425 . S
C1949 C1946 1.409 . S
C1949 C1947 1.415 . S
C1950 H1940 0.930 . S
C1950 C1948 1.419 . S
C1950 C1951 1.362 . S
C1951 H1941 0.930 . S
C1951 C1944 1.409 . S
C1951 C1950 1.362 . S
H1952 C1958 0.930 . S
H1953 C1961 0.930 . S
H1954 C1962 0.930 . S
H1955 C1963 0.930 . S
H1956 C1966 0.930 . S
H1957 C1967 0.930 . S
C1958 H1952 0.930 . S
C1958 C1959 1.355 . S
C1958 C1960 1.415 . S
C1959 C1958 1.355 . S
C1959 C1961 1.419 . S
C1960 C1958 1.415 . S
C1960 C1965 1.425 . S
C1960 C1967 1.409 . S
C1961 H1953 0.930 . S
C1961 C1959 1.419 . S
C1961 C1962 1.362 . S
C1962 H1954 0.930 . S
C1962 C1961 1.362 . S
C1962 C1965 1.409 . S
C1963 H1955 0.930 . S
C1963 C1964 1.355 . S
C1963 C1965 1.415 . S
C1964 C1963 1.355 . S
C1964 C1966 1.419 . S
C1965 C1960 1.425 . S
C1965 C1962 1.409 . S
C1965 C1963 1.415 . S
C1966 H1956 0.930 . S
C1966 C1964 1.419 . S
C1966 C1967 1.362 . S
C1967 H1957 0.930 . S
C1967 C1960 1.409 . S
C1967 C1966 1.362 . S
H1968 C1974 0.930 . S
H1969 C1977 0.930 . S
H1970 C1978 0.930 . S
H1971 C1979 0.930 . S
H1972 C1982 0.930 . S
H1973 C1983 0.930 . S
C1974 H1968 0.930 . S
C1974 C1975 1.355 . S
C1974 C1976 1.415 . S
C1975 C1974 1.355 . S
C1975 C1977 1.419 . S
C1976 C1974 1.415 . S
C1976 C1981 1.425 . S
C1976 C1983 1.409 . S
C1977 H1969 0.930 . S
C1977 C1975 1.419 . S
C1977 C1978 1.362 . S
C1978 H1970 0.930 . S
C1978 C1977 1.362 . S
C1978 C1981 1.409 . S
C1979 H1971 0.930 . S
C1979 C1980 1.355 . S
C1979 C1981 1.415 . S
C1980 C1979 1.355 . S
C1980 C1982 1.419 . S
C1981 C1976 1.425 . S
C1981 C1978 1.409 . S
C1981 C1979 1.415 . S
C1982 H1972 0.930 . S
C1982 C1980 1.419 . S
C1982 C1983 1.362 . S
C1983 H1973 0.930 . S
C1983 C1976 1.409 . S
C1983 C1982 1.362 . S
H1984 C1990 0.930 . S
H1985 C1993 0.930 . S
H1986 C1994 0.930 . S
H1987 C1995 0.930 . S
H1988 C1998 0.930 . S
H1989 C1999 0.930 . S
C1990 H1984 0.930 . S
C1990 C1991 1.355 . S
C1990 C1992 1.415 . S
C1991 C1990 1.355 . S
C1991 C1993 1.419 . S
C1992 C1990 1.415 . S
C1992 C1997 1.425 . S
C1992 C1999 1.409 . S
C1993 H1985 0.930 . S
C1993 C1991 1.419 . S
C1993 C1994 1.362 . S
C1994 H1986 0.930 . S
C1994 C1993 1.362 . S
C1994 C1997 1.409 . S
C1995 H1987 0.930 . S
C1995 C1996 1.355 . S
C1995 C1997 1.415 . S
C1996 C1995 1.355 . S
C1996 C1998 1.419 . S
C1997 C1992 1.425 . S
C1997 C1994 1.409 . S
C1997 C1995 1.415 . S
C1998 H1988 0.930 . S
C1998 C1996 1.419 . S
C1998 C1999 1.362 . S
C1999 H1989 0.930 . S
C1999 C1992 1.409 . S
C1999 C1998 1.362 . S
H2000 C2006 0.930 . S
H2001 C2009 0.930 . S
H2002 C2010 0.930 . S
H2003 C2011 0.930 . S
H2004 C2014 0.930 . S
H2005 C2015 0.930 . S
C2006 H2000 0.930 . S
C2006 C2007 1.355 . S
C2006 C2008 1.415 . S
C2007 C2006 1.355 . S
C2007 C2009 1.419 . S
C2008 C2006 1.415 . S
C2008 C2013 1.425 . S
C2008 C2015 1.409 . S
C2009 H2001 0.930 . S
C2009 C2007 1.419 . S
C2009 C2010 1.362 . S
C2010 H2002 0.930 . S
C2010 C2009 1.362 . S
C2010 C2013 1.409 . S
C2011 H2003 0.930 . S
C2011 C2012 1.355 . S
C2011 C2013 1.415 . S
C2012 C2011 1.355 . S
C2012 C2014 1.419 . S
C2013 C2008 1.425 . S
C2013 C2010 1.409 . S
C2013 C2011 1.415 . S
C2014 H2004 0.930 . S
C2014 C2012 1.419 . S
C2014 C2015 1.362 . S
C2015 H2005 0.930 . S
C2015 C2008 1.409 . S
C2015 C2014 1.362 . S
H2016 C2022 0.930 . S
H2017 C2025 0.930 . S
H2018 C2026 0.930 . S
H2019 C2027 0.930 . S
H2020 C2030 0.930 . S
H2021 C2031 0.930 . S
C2022 H2016 0.930 . S
C2022 C2023 1.355 . S
C2022 C2024 1.415 . S
C2023 C2022 1.355 . S
C2023 C2025 1.419 . S
C2024 C2022 1.415 . S
C2024 C2029 1.425 . S
C2024 C2031 1.409 . S
C2025 H2017 0.930 . S
C2025 C2023 1.419 . S
C2025 C2026 1.362 . S
C2026 H2018 0.930 . S
C2026 C2025 1.362 . S
C2026 C2029 1.409 . S
C2027 H2019 0.930 . S
C2027 C2028 1.355 . S
C2027 C2029 1.415 . S
C2028 C2027 1.355 . S
C2028 C2030 1.419 . S
C2029 C2024 1.425 . S
C2029 C2026 1.409 . S
C2029 C2027 1.415 . S
C2030 H2020 0.930 . S
C2030 C2028 1.419 . S
C2030 C2031 1.362 . S
C2031 H2021 0.930 . S
C2031 C2024 1.409 . S
C2031 C2030 1.362 . S
H2032 C2038 0.930 . S
H2033 C2041 0.930 . S
H2034 C2042 0.930 . S
H2035 C2043 0.930 . S
H2036 C2046 0.930 . S
H2037 C2047 0.930 . S
C2038 H2032 0.930 . S
C2038 C2039 1.355 . S
C2038 C2040 1.415 . S
C2039 C2038 1.355 . S
C2039 C2041 1.419 . S
C2040 C2038 1.415 . S
C2040 C2045 1.425 . S
C2040 C2047 1.409 . S
C2041 H2033 0.930 . S
C2041 C2039 1.419 . S
C2041 C2042 1.362 . S
C2042 H2034 0.930 . S
C2042 C2041 1.362 . S
C2042 C2045 1.409 . S
C2043 H2035 0.930 . S
C2043 C2044 1.355 . S
C2043 C2045 1.415 . S
C2044 C2043 1.355 . S
C2044 C2046 1.419 . S
C2045 C2040 1.425 . S
C2045 C2042 1.409 . S
C2045 C2043 1.415 . S
C2046 H2036 0.930 . S
C2046 C2044 1.419 . S
C2046 C2047 1.362 . S
C2047 H2037 0.930 . S
C2047 C2040 1.409 . S
C2047 C2046 1.362 . S
H2048 C2054 0.930 . S
H2049 C2057 0.930 . S
H2050 C2058 0.930 . S
H2051 C2059 0.930 . S
H2052 C2062 0.930 . S
H2053 C2063 0.930 . S
C2054 H2048 0.930 . S
C2054 C2055 1.355 . S
C2054 C2056 1.415 . S
C2055 C2054 1.355 . S
C2055 C2057 1.419 . S
C2056 C2054 1.415 . S
C2056 C2061 1.425 . S
C2056 C2063 1.409 . S
C2057 H2049 0.930 . S
C2057 C2055 1.419 . S
C2057 C2058 1.362 . S
C2058 H2050 0.930 . S
C2058 C2057 1.362 . S
C2058 C2061 1.409 . S
C2059 H2051 0.930 . S
C2059 C2060 1.355 . S
C2059 C2061 1.415 . S
C2060 C2059 1.355 . S
C2060 C2062 1.419 . S
C2061 C2056 1.425 . S
C2061 C2058 1.409 . S
C2061 C2059 1.415 . S
C2062 H2052 0.930 . S
C2062 C2060 1.419 . S
C2062 C2063 1.362 . S
C2063 H2053 0.930 . S
C2063 C2056 1.409 . S
C2063 C2062 1.362 . S
H2064 C2070 0.930 . S
H2065 C2073 0.930 . S
H2066 C2074 0.930 . S
H2067 C2075 0.930 . S
H2068 C2078 0.930 . S
H2069 C2079 0.930 . S
C2070 H2064 0.930 . S
C2070 C2071 1.355 . S
C2070 C2072 1.415 . S
C2071 C2070 1.355 . S
C2071 C2073 1.419 . S
C2072 C2070 1.415 . S
C2072 C2077 1.425 . S
C2072 C2079 1.409 . S
C2073 H2065 0.930 . S
C2073 C2071 1.419 . S
C2073 C2074 1.362 . S
C2074 H2066 0.930 . S
C2074 C2073 1.362 . S
C2074 C2077 1.409 . S
C2075 H2067 0.930 . S
C2075 C2076 1.355 . S
C2075 C2077 1.415 . S
C2076 C2075 1.355 . S
C2076 C2078 1.419 . S
C2077 C2072 1.425 . S
C2077 C2074 1.409 . S
C2077 C2075 1.415 . S
C2078 H2068 0.930 . S
C2078 C2076 1.419 . S
C2078 C2079 1.362 . S
C2079 H2069 0.930 . S
C2079 C2072 1.409 . S
C2079 C2078 1.362 . S
H2080 C2086 0.930 . S
H2081 C2089 0.930 . S
H2082 C2090 0.930 . S
H2083 C2091 0.930 . S
H2084 C2094 0.930 . S
H2085 C2095 0.930 . S
C2086 H2080 0.930 . S
C2086 C2087 1.355 . S
C2086 C2088 1.415 . S
C2087 C2086 1.355 . S
C2087 C2089 1.419 . S
C2088 C2086 1.415 . S
C2088 C2093 1.425 . S
C2088 C2095 1.409 . S
C2089 H2081 0.930 . S
C2089 C2087 1.419 . S
C2089 C2090 1.362 . S
C2090 H2082 0.930 . S
C2090 C2089 1.362 . S
C2090 C2093 1.409 . S
C2091 H2083 0.930 . S
C2091 C2092 1.355 . S
C2091 C2093 1.415 . S
C2092 C2091 1.355 . S
C2092 C2094 1.419 . S
C2093 C2088 1.425 . S
C2093 C2090 1.409 . S
C2093 C2091 1.415 . S
C2094 H2084 0.930 . S
C2094 C2092 1.419 . S
C2094 C2095 1.362 . S
C2095 H2085 0.930 . S
C2095 C2088 1.409 . S
C2095 C2094 1.362 . S
H2096 C2102 0.930 . S
H2097 C2105 0.930 . S
H2098 C2106 0.930 . S
H2099 C2107 0.930 . S
H2100 C2110 0.930 . S
H2101 C2111 0.930 . S
C2102 H2096 0.930 . S
C2102 C2103 1.355 . S
C2102 C2104 1.415 . S
C2103 C2102 1.355 . S
C2103 C2105 1.419 . S
C2104 C2102 1.415 . S
C2104 C2109 1.425 . S
C2104 C2111 1.409 . S
C2105 H2097 0.930 . S
C2105 C2103 1.419 . S
C2105 C2106 1.362 . S
C2106 H2098 0.930 . S
C2106 C2105 1.362 . S
C2106 C2109 1.409 . S
C2107 H2099 0.930 . S
C2107 C2108 1.355 . S
C2107 C2109 1.415 . S
C2108 C2107 1.355 . S
C2108 C2110 1.419 . S
C2109 C2104 1.425 . S
C2109 C2106 1.409 . S
C2109 C2107 1.415 . S
C2110 H2100 0.930 . S
C2110 C2108 1.419 . S
C2110 C2111 1.362 . S
C2111 H2101 0.930 . S
C2111 C2104 1.409 . S
C2111 C2110 1.362 . S
H2112 C2118 0.930 . S
H2113 C2121 0.930 . S
H2114 C2122 0.930 . S
H2115 C2123 0.930 . S
H2116 C2126 0.930 . S
H2117 C2127 0.930 . S
C2118 H2112 0.930 . S
C2118 C2119 1.355 . S
C2118 C2120 1.415 . S
C2119 C2118 1.355 . S
C2119 C2121 1.419 . S
C2120 C2118 1.415 . S
C2120 C2125 1.425 . S
C2120 C2127 1.409 . S
C2121 H2113 0.930 . S
C2121 C2119 1.419 . S
C2121 C2122 1.362 . S
C2122 H2114 0.930 . S
C2122 C2121 1.362 . S
C2122 C2125 1.409 . S
C2123 H2115 0.930 . S
C2123 C2124 1.355 . S
C2123 C2125 1.415 . S
C2124 C2123 1.355 . S
C2124 C2126 1.419 . S
C2125 C2120 1.425 . S
C2125 C2122 1.409 . S
C2125 C2123 1.415 . S
C2126 H2116 0.930 . S
C2126 C2124 1.419 . S
C2126 C2127 1.362 . S
C2127 H2117 0.930 . S
C2127 C2120 1.409 . S
C2127 C2126 1.362 . S
H2128 C2134 0.930 . S
H2129 C2137 0.930 . S
H2130 C2138 0.930 . S
H2131 C2139 0.930 . S
H2132 C2142 0.930 . S
H2133 C2143 0.930 . S
C2134 H2128 0.930 . S
C2134 C2135 1.355 . S
C2134 C2136 1.415 . S
C2135 C2134 1.355 . S
C2135 C2137 1.419 . S
C2136 C2134 1.415 . S
C2136 C2141 1.425 . S
C2136 C2143 1.409 . S
C2137 H2129 0.930 . S
C2137 C2135 1.419 . S
C2137 C2138 1.362 . S
C2138 H2130 0.930 . S
C2138 C2137 1.362 . S
C2138 C2141 1.409 . S
C2139 H2131 0.930 . S
C2139 C2140 1.355 . S
C2139 C2141 1.415 . S
C2140 C2139 1.355 . S
C2140 C2142 1.419 . S
C2141 C2136 1.425 . S
C2141 C2138 1.409 . S
C2141 C2139 1.415 . S
C2142 H2132 0.930 . S
C2142 C2140 1.419 . S
C2142 C2143 1.362 . S
C2143 H2133 0.930 . S
C2143 C2136 1.409 . S
C2143 C2142 1.362 . S
H2144 C2150 0.930 . S
H2145 C2153 0.930 . S
H2146 C2154 0.930 . S
H2147 C2155 0.930 . S
H2148 C2158 0.930 . S
H2149 C2159 0.930 . S
C2150 H2144 0.930 . S
C2150 C2151 1.355 . S
C2150 C2152 1.415 . S
C2151 C2150 1.355 . S
C2151 C2153 1.419 . S
C2152 C2150 1.415 . S
C2152 C2157 1.425 . S
C2152 C2159 1.409 . S
C2153 H2145 0.930 . S
C2153 C2151 1.419 . S
C2153 C2154 1.362 . S
C2154 H2146 0.930 . S
C2154 C2153 1.362 . S
C2154 C2157 1.409 . S
C2155 H2147 0.930 . S
C2155 C2156 1.355 . S
C2155 C2157 1.415 . S
C2156 C2155 1.355 . S
C2156 C2158 1.419 . S
C2157 C2152 1.425 . S
C2157 C2154 1.409 . S
C2157 C2155 1.415 . S
C2158 H2148 0.930 . S
C2158 C2156 1.419 . S
C2158 C2159 1.362 . S
C2159 H2149 0.930 . S
C2159 C2152 1.409 . S
C2159 C2158 1.362 . S
C631 C364 1.143 . S
C636 C0 1.073 . S
C647 C13 1.102 . S
C652 C377 1.114 . S
C663 C390 1.054 . S
C668 C26 1.160 . S
C679 C39 1.153 . S
C684 C403 1.062 . S
C695 C312 1.094 . S
C700 C52 1.123 . S
C711 C65 1.130 . S
C716 C325 1.087 . S
C727 C338 1.117 . S
C732 C78 1.100 . S
C743 C91 1.058 . S
C748 C351 1.157 . S
C759 C494 1.055 . S
C764 C104 1.159 . S
C775 C507 1.161 . S
C780 C117 1.054 . S
C791 C468 1.153 . S
C796 C130 1.062 . S
C807 C143 1.151 . S
C812 C481 1.064 . S
C823 C442 1.053 . S
C828 C156 1.161 . S
C839 C455 1.067 . S
C844 C169 1.149 . S
C855 C182 1.139 . S
C860 C416 1.077 . S
C871 C429 1.062 . S
C876 C195 1.153 . S
C887 C208 1.054 . S
C892 C585 1.161 . S
C903 C559 1.129 . S
C908 C221 1.087 . S
C919 C572 1.118 . S
C924 C234 1.099 . S
C935 C533 1.122 . S
C940 C247 1.095 . S
C951 C546 1.115 . S
C956 C260 1.102 . S
C967 C273 1.053 . S
C972 C520 1.161 . S
C983 C286 1.074 . S
C988 C611 1.142 . S
C999 C598 1.059 . S
C1004 C299 1.156 . S
C1015 C99 1.362 . S
C1020 C8 1.422 . S
C1031 C60 1.411 . S
C1036 C21 1.380 . S
C1047 C73 1.415 . S
C1052 C34 1.375 . S
C1063 C86 1.350 . S
C1068 C47 1.405 . S
C1079 C268 1.351 . S
C1084 C112 1.405 . S
C1095 C229 1.402 . S
C1100 C125 1.352 . S
C1111 C242 1.363 . S
C1116 C138 1.388 . S
C1127 C255 1.348 . S
C1132 C151 1.410 . S
C1143 C307 1.399 . S
C1148 C164 1.354 . S
C1159 C281 1.425 . S
C1164 C177 1.350 . S
C1175 C190 1.410 . S
C1180 C294 1.348 . S
C1191 C216 1.385 . S
C1196 C203 1.365 . S
C1207 C411 1.354 . S
C1212 C320 1.399 . S
C1223 C372 1.425 . S
C1228 C333 1.350 . S
C1239 C346 1.370 . S
C1244 C385 1.380 . S
C1255 C359 1.357 . S
C1260 C398 1.424 . S
C1271 C424 1.393 . S
C1276 C580 1.358 . S
C1287 C437 1.359 . S
C1292 C541 1.393 . S
C1303 C554 1.374 . S
C1308 C450 1.416 . S
C1319 C567 1.423 . S
C1324 C463 1.347 . S
C1335 C619 1.348 . S
C1340 C476 1.409 . S
C1351 C593 1.356 . S
C1356 C489 1.397 . S
C1367 C606 1.394 . S
C1372 C502 1.399 . S
C1383 C515 1.369 . S
C1388 C528 1.381 . S
C1399 C10 1.123 . S
C1404 C109 1.057 . S
C1415 C122 0.969 . S
C1420 C23 1.178 . S
C1431 C135 1.016 . S
C1436 C36 1.174 . S
C1447 C148 1.077 . S
C1452 C49 1.157 . S
C1463 C62 1.141 . S
C1468 C161 1.096 . S
C1479 C174 1.075 . S
C1484 C75 1.125 . S
C1495 C88 1.150 . S
C1500 C187 0.929 . S
C1511 C200 0.922 . S
C1516 C101 1.155 . S
C1527 C213 0.932 . S
C1532 C114 1.148 . S
C1543 C304 0.999 . S
C1548 C127 1.128 . S
C1559 C140 1.177 . S
C1564 C278 0.997 . S
C1575 C153 1.123 . S
C1580 C291 1.037 . S
C1591 C166 1.124 . S
C1596 C226 1.026 . S
C1607 C179 1.152 . S
C1612 C239 0.926 . S
C1623 C192 1.123 . S
C1628 C252 1.037 . S
C1639 C205 1.150 . S
C1644 C265 0.929 . S
C1655 C218 1.165 . S
C1660 C5 1.058 . S
C1671 C231 1.152 . S
C1676 C57 1.086 . S
C1687 C244 1.127 . S
C1692 C70 1.003 . S
C1703 C257 1.140 . S
C1708 C83 0.951 . S
C1719 C270 1.133 . S
C1724 C96 1.095 . S
C1735 C283 1.177 . S
C1740 C31 0.948 . S
C1751 C44 0.937 . S
C1756 C296 1.176 . S
C1767 C18 0.979 . S
C1772 C309 1.178 . S
C1783 C421 1.061 . S
C1788 C322 1.123 . S
C1799 C434 1.005 . S
C1804 C335 1.127 . S
C1815 C447 0.922 . S
C1820 C348 1.171 . S
C1831 C460 1.089 . S
C1836 C361 1.150 . S
C1847 C473 0.980 . S
C1852 C374 1.178 . S
C1863 C387 1.123 . S
C1868 C486 1.040 . S
C1879 C499 0.971 . S
C1884 C400 1.178 . S
C1895 C413 1.124 . S
C1900 C512 1.065 . S
C1911 C525 1.089 . S
C1916 C426 1.150 . S
C1927 C439 1.178 . S
C1932 C616 0.985 . S
C1943 C452 1.145 . S
C1948 C590 1.093 . S
C1959 C603 1.018 . S
C1964 C465 1.174 . S
C1975 C538 1.095 . S
C1980 C478 1.143 . S
C1991 C491 1.176 . S
C1996 C551 0.941 . S
C2007 C504 1.178 . S
C2012 C564 0.960 . S
C2023 C577 0.924 . S
C2028 C517 1.172 . S
C2039 C317 1.073 . S
C2044 C530 1.159 . S
C2055 C369 1.045 . S
C2060 C543 1.168 . S
C2071 C382 1.076 . S
C2076 C556 1.125 . S
C2087 C569 1.130 . S
C2092 C395 1.090 . S
C2103 C408 0.962 . S
C2108 C582 1.137 . S
C2119 C343 1.041 . S
C2124 C595 1.169 . S
C2135 C608 1.127 . S
C2140 C356 1.005 . S
C2151 C330 1.028 . S
C2156 C621 1.172 . S
