# Generated by pormake.
# Topology hbo, (4)-cn, num edge types: 1
# Building blocks:
#     Node 0, Type 0, BuildingBlock: QUQFOY_clean_sbu_3, # of connection points: 4
#     Node 1, Type 0, BuildingBlock: QUQFOY_clean_sbu_3, # of connection points: 4
#     Node 2, Type 0, BuildingBlock: QUQFOY_clean_sbu_3, # of connection points: 4
#     Node 3, Type 0, BuildingBlock: QUQFOY_clean_sbu_3, # of connection points: 4
#     Node 4, Type 0, BuildingBlock: QUQFOY_clean_sbu_3, # of connection points: 4
#     Node 5, Type 0, BuildingBlock: QUQFOY_clean_sbu_3, # of connection points: 4
#     Node 6, Type 0, BuildingBlock: QUQFOY_clean_sbu_3, # of connection points: 4
#     Node 7, Type 0, BuildingBlock: QUQFOY_clean_sbu_3, # of connection points: 4
#     Node 8, Type 0, BuildingBlock: QUQFOY_clean_sbu_3, # of connection points: 4
#     Node 9, Type 0, BuildingBlock: QUQFOY_clean_sbu_3, # of connection points: 4
#     Node 10, Type 0, BuildingBlock: QUQFOY_clean_sbu_3, # of connection points: 4
#     Node 11, Type 0, BuildingBlock: QUQFOY_clean_sbu_3, # of connection points: 4
#     Node 12, Type 0, BuildingBlock: QUQFOY_clean_sbu_3, # of connection points: 4
#     Node 13, Type 0, BuildingBlock: QUQFOY_clean_sbu_3, # of connection points: 4
#     Node 14, Type 0, BuildingBlock: QUQFOY_clean_sbu_3, # of connection points: 4
#     Node 15, Type 0, BuildingBlock: QUQFOY_clean_sbu_3, # of connection points: 4
#     Node 16, Type 0, BuildingBlock: QUQFOY_clean_sbu_3, # of connection points: 4
#     Node 17, Type 0, BuildingBlock: QUQFOY_clean_sbu_3, # of connection points: 4
#     Node 18, Type 0, BuildingBlock: QUQFOY_clean_sbu_3, # of connection points: 4
#     Node 19, Type 0, BuildingBlock: QUQFOY_clean_sbu_3, # of connection points: 4
#     Node 20, Type 0, BuildingBlock: QUQFOY_clean_sbu_3, # of connection points: 4
#     Node 21, Type 0, BuildingBlock: QUQFOY_clean_sbu_3, # of connection points: 4
#     Node 22, Type 0, BuildingBlock: QUQFOY_clean_sbu_3, # of connection points: 4
#     Node 23, Type 0, BuildingBlock: QUQFOY_clean_sbu_3, # of connection points: 4
#     Edge 24, Type (0, 0), None
#     Edge 25, Type (0, 0), None
#     Edge 26, Type (0, 0), None
#     Edge 27, Type (0, 0), None
#     Edge 28, Type (0, 0), None
#     Edge 29, Type (0, 0), None
#     Edge 30, Type (0, 0), None
#     Edge 31, Type (0, 0), None
#     Edge 32, Type (0, 0), None
#     Edge 33, Type (0, 0), None
#     Edge 34, Type (0, 0), None
#     Edge 35, Type (0, 0), None
#     Edge 36, Type (0, 0), None
#     Edge 37, Type (0, 0), None
#     Edge 38, Type (0, 0), None
#     Edge 39, Type (0, 0), None
#     Edge 40, Type (0, 0), None
#     Edge 41, Type (0, 0), None
#     Edge 42, Type (0, 0), None
#     Edge 43, Type (0, 0), None
#     Edge 44, Type (0, 0), None
#     Edge 45, Type (0, 0), None
#     Edge 46, Type (0, 0), None
#     Edge 47, Type (0, 0), None
#     Edge 48, Type (0, 0), None
#     Edge 49, Type (0, 0), None
#     Edge 50, Type (0, 0), None
#     Edge 51, Type (0, 0), None
#     Edge 52, Type (0, 0), None
#     Edge 53, Type (0, 0), None
#     Edge 54, Type (0, 0), None
#     Edge 55, Type (0, 0), None
#     Edge 56, Type (0, 0), None
#     Edge 57, Type (0, 0), None
#     Edge 58, Type (0, 0), None
#     Edge 59, Type (0, 0), None
#     Edge 60, Type (0, 0), None
#     Edge 61, Type (0, 0), None
#     Edge 62, Type (0, 0), None
#     Edge 63, Type (0, 0), None
#     Edge 64, Type (0, 0), None
#     Edge 65, Type (0, 0), None
#     Edge 66, Type (0, 0), None
#     Edge 67, Type (0, 0), None
#     Edge 68, Type (0, 0), None
#     Edge 69, Type (0, 0), None
#     Edge 70, Type (0, 0), None
#     Edge 71, Type (0, 0), None
# Relax obj value: 0.231
# Max RMSD: 0.269
# Mean RMSD: 0.245
data_MOF--net-hbo--node1-QUQFOY_clean_sbu_3--edge1-none
_symmetry_space_group_name_H-M    P1
_symmetry_Int_Tables_number       1
_symmetry_cell_setting            triclinic
loop_
_symmetry_equiv_pos_as_xyz
'x, y, z'
_cell_length_a     26.295886
_cell_length_b     27.365098
_cell_length_c     27.186408
_cell_angle_alpha  91.036471
_cell_angle_beta   90.058514
_cell_angle_gamma 92.696684
loop_
_atom_site_label
_atom_site_type_symbol
_atom_site_fract_x
_atom_site_fract_y
_atom_site_fract_z
_atom_type_partial_charge
C0 C 0.16017 0.2754 0.13619 0.0
O1 O 0.12615 0.26216 0.10488 0.0
Cd2 Cd 0.03736 0.24969 0.13134 0.0
O3 O 0.14743 0.2908 0.17831 0.0
Cd4 Cd 0.06771 0.31385 0.21387 0.0
C5 C 0.06759 0.1918 0.23407 0.0
O6 O -0.01342 0.31074 0.16847 0.0
O7 O -0.01416 0.30163 0.24849 0.0
O8 O 0.08829 0.38878 0.17477 0.0
C9 C -0.03865 0.30506 0.20841 0.0
O10 O 0.04443 0.18901 0.19298 0.0
C11 C 0.09479 0.4146 0.21383 0.0
O12 O 0.08527 0.2331 0.25126 0.0
O13 O 0.0903 0.39303 0.25518 0.0
C14 C 0.16797 0.61811 0.76274 0.0
O15 O 0.13573 0.64619 0.78127 0.0
Cd16 Cd 0.05571 0.65607 0.73975 0.0
O17 O 0.15544 0.58936 0.72718 0.0
Cd18 Cd 0.07912 0.56435 0.67921 0.0
C19 C 0.11104 0.67209 0.62709 0.0
O20 O 0.00217 0.58329 0.72759 0.0
O21 O -0.00339 0.57984 0.64784 0.0
O22 O 0.08764 0.4851 0.71229 0.0
C23 C -0.02556 0.58279 0.68916 0.0
O24 O 0.08711 0.69082 0.66293 0.0
C25 C 0.0888 0.46125 0.67189 0.0
O26 O 0.11628 0.626 0.6238 0.0
O27 O 0.08662 0.48548 0.63242 0.0
C28 C 0.7212 0.60168 0.1286 0.0
O29 O 0.75525 0.6152 0.09797 0.0
Cd30 Cd 0.84368 0.63068 0.12444 0.0
O31 O 0.73389 0.58832 0.17103 0.0
Cd32 Cd 0.81407 0.57147 0.21054 0.0
C33 C 0.81338 0.69491 0.22615 0.0
O34 O 0.89222 0.56939 0.16142 0.0
O35 O 0.89814 0.58449 0.24075 0.0
O36 O 0.79535 0.49221 0.17863 0.0
C37 C 0.91992 0.57663 0.1998 0.0
O38 O 0.83629 0.69487 0.18498 0.0
C39 C 0.79015 0.47122 0.21972 0.0
O40 O 0.79632 0.6548 0.24495 0.0
O41 O 0.79384 0.49774 0.25901 0.0
C42 C 0.71529 0.26911 0.76807 0.0
O43 O 0.74768 0.24215 0.78716 0.0
Cd44 Cd 0.82733 0.22931 0.7456 0.0
O45 O 0.7275 0.2954 0.73158 0.0
Cd46 Cd 0.80418 0.31637 0.6833 0.0
C47 C 0.77189 0.20632 0.63339 0.0
O48 O 0.88118 0.30102 0.73135 0.0
O49 O 0.88579 0.29843 0.65146 0.0
O50 O 0.79608 0.39718 0.71456 0.0
C51 C 0.9084 0.29898 0.69274 0.0
O52 O 0.79589 0.1896 0.66965 0.0
C53 C 0.79579 0.41829 0.67343 0.0
O54 O 0.7666 0.25217 0.62922 0.0
O55 O 0.79828 0.39164 0.63467 0.0
C56 C 0.08266 0.14532 0.25467 0.0
O57 O 0.06777 0.10605 0.23235 0.0
Cd58 Cd 0.11749 0.0349 0.22965 0.0
O59 O 0.11835 0.14502 0.28618 0.0
Cd60 Cd 0.16712 0.07857 0.32199 0.0
C61 C 0.23119 0.09928 0.21827 0.0
O62 O 0.12726 -0.00368 0.30643 0.0
O63 O 0.20975 0.0039 0.31128 0.0
O64 O 0.13132 0.08753 0.40275 0.0
C65 C 0.16973 -0.02381 0.3096 0.0
O66 O 0.19762 0.07033 0.19823 0.0
C67 C 0.17366 0.09481 0.4248 0.0
O68 O 0.22917 0.11053 0.2639 0.0
O69 O 0.21367 0.09814 0.39857 0.0
C70 C 0.22229 0.62722 0.77372 0.0
O71 O 0.25468 0.59903 0.75552 0.0
Cd72 Cd 0.34275 0.62653 0.74177 0.0
O73 O 0.23657 0.66831 0.79267 0.0
Cd74 Cd 0.31604 0.71359 0.81417 0.0
C75 C 0.3092 0.73474 0.69128 0.0
O76 O 0.38852 0.66132 0.80964 0.0
O77 O 0.40224 0.73999 0.8009 0.0
O78 O 0.29836 0.68143 0.89274 0.0
C79 C 0.41985 0.6977 0.80372 0.0
O80 O 0.33016 0.69381 0.68787 0.0
C81 C 0.30019 0.72156 0.91696 0.0
O82 O 0.29494 0.75174 0.7331 0.0
O83 O 0.30669 0.76108 0.89281 0.0
C84 C 0.79755 0.74274 0.24465 0.0
O85 O 0.81329 0.78051 0.22175 0.0
Cd86 Cd 0.76084 0.8492 0.21592 0.0
O87 O 0.76027 0.74514 0.27417 0.0
Cd88 Cd 0.70943 0.8141 0.3054 0.0
C89 C 0.64813 0.78347 0.20123 0.0
O90 O 0.75336 0.89507 0.29121 0.0
O91 O 0.67083 0.89054 0.29161 0.0
O92 O 0.74082 0.80656 0.38782 0.0
C93 C 0.71182 0.9169 0.29325 0.0
O94 O 0.68248 0.81056 0.18101 0.0
C95 C 0.69753 0.80124 0.40815 0.0
O96 O 0.64836 0.77701 0.24748 0.0
O97 O 0.65854 0.79932 0.38036 0.0
C98 C 0.66106 0.26072 0.77959 0.0
O99 O 0.62835 0.28773 0.76105 0.0
Cd100 Cd 0.54056 0.25752 0.74854 0.0
O101 O 0.64703 0.22067 0.79925 0.0
Cd102 Cd 0.56768 0.17649 0.82075 0.0
C103 C 0.57493 0.14824 0.6984 0.0
O104 O 0.49179 0.22602 0.81542 0.0
O105 O 0.48288 0.14675 0.8055 0.0
O106 O 0.58193 0.21001 0.90126 0.0
C107 C 0.46256 0.18789 0.80892 0.0
O108 O 0.55305 0.18851 0.6944 0.0
C109 C 0.58434 0.17005 0.92395 0.0
O110 O 0.58979 0.13388 0.74051 0.0
O111 O 0.58112 0.13041 0.8982 0.0
C112 C 0.29222 0.75479 0.64431 0.0
O113 O 0.30639 0.7334 0.60517 0.0
Cd114 Cd 0.25361 0.72496 0.53366 0.0
O115 O 0.25526 0.78316 0.64308 0.0
Cd116 Cd 0.20263 0.81335 0.57334 0.0
C117 C 0.14261 0.70509 0.5965 0.0
O118 O 0.24413 0.80024 0.49284 0.0
O119 O 0.16165 0.79848 0.49455 0.0
O120 O 0.23355 0.89763 0.58335 0.0
C121 C 0.20231 0.80027 0.46943 0.0
O122 O 0.17587 0.68686 0.56852 0.0
C123 C 0.19005 0.91523 0.58882 0.0
O124 O 0.14341 0.75093 0.60589 0.0
O125 O 0.1517 0.88516 0.59009 0.0
C126 C 0.66765 0.61199 0.11982 0.0
O127 O 0.63343 0.59601 0.14909 0.0
Cd128 Cd 0.55511 0.63926 0.15653 0.0
O129 O 0.65781 0.64499 0.08967 0.0
Cd130 Cd 0.58377 0.6899 0.06569 0.0
C131 C 0.61559 0.75072 0.1701 0.0
O132 O 0.50045 0.64731 0.08555 0.0
O133 O 0.50428 0.72656 0.07984 0.0
O134 O 0.59177 0.6522 -0.01389 0.0
C135 C 0.47724 0.68709 0.08307 0.0
O136 O 0.58857 0.7172 0.19077 0.0
C137 C 0.59942 0.69164 -0.03714 0.0
O138 O 0.62262 0.7498 0.12372 0.0
O139 O 0.60039 0.73166 -0.01242 0.0
C140 C 0.59155 0.12571 0.65167 0.0
O141 O 0.57617 0.14444 0.61226 0.0
Cd142 Cd 0.62839 0.1499 0.54058 0.0
O143 O 0.62898 0.0978 0.65048 0.0
Cd144 Cd 0.68037 0.06346 0.58027 0.0
C145 C 0.74036 0.17179 0.60324 0.0
O146 O 0.63799 0.07325 0.49991 0.0
O147 O 0.7204 0.07692 0.50114 0.0
O148 O 0.64809 -0.01924 0.59153 0.0
C149 C 0.67956 0.07362 0.47615 0.0
O150 O 0.70656 0.18864 0.57549 0.0
C151 C 0.69113 -0.03818 0.59459 0.0
O152 O 0.74014 0.12635 0.6128 0.0
O153 O 0.73049 -0.00931 0.59449 0.0
C154 C 0.21334 0.26319 0.12863 0.0
O155 O 0.24756 0.28108 0.15756 0.0
Cd156 Cd 0.32552 0.23886 0.16904 0.0
O157 O 0.22265 0.22744 0.10037 0.0
Cd158 Cd 0.29675 0.18032 0.08017 0.0
C159 C 0.2646 0.12882 0.18644 0.0
O160 O 0.37816 0.22513 0.09799 0.0
O161 O 0.37637 0.14536 0.09472 0.0
O162 O 0.29037 0.21505 0.00194 0.0
C163 C 0.40218 0.18574 0.09571 0.0
O164 O 0.29122 0.1641 0.20589 0.0
C165 C 0.28568 0.17499 -0.02215 0.0
O166 O 0.2582 0.12559 0.14002 0.0
O167 O 0.28409 0.13533 0.00177 0.0
C168 C 0.78223 0.66927 0.6131 0.0
O169 O 0.76385 0.63874 0.58136 0.0
Cd170 Cd 0.74403 0.55394 0.60461 0.0
O171 O 0.79846 0.65418 0.65365 0.0
Cd172 Cd 0.81204 0.57256 0.68406 0.0
C173 C 0.68807 0.58195 0.71139 0.0
O174 O 0.80242 0.49622 0.63358 0.0
O175 O 0.78907 0.49464 0.71317 0.0
O176 O 0.89439 0.58186 0.65025 0.0
C177 C 0.79415 0.47158 0.67259 0.0
O178 O 0.68258 0.56206 0.66898 0.0
C179 C 0.91872 0.58286 0.69067 0.0
O180 O 0.73244 0.59488 0.72775 0.0
O181 O 0.89301 0.5813 0.73063 0.0
C182 C 0.72897 0.24095 0.29795 0.0
O183 O 0.70249 0.27711 0.30907 0.0
Cd184 Cd 0.70077 0.34589 0.25687 0.0
O185 O 0.76336 0.24511 0.26522 0.0
Cd186 Cd 0.79872 0.31565 0.21633 0.0
C187 C 0.69787 0.28062 0.14812 0.0
O188 O 0.77938 0.3935 0.25913 0.0
O189 O 0.78553 0.39368 0.17976 0.0
O190 O 0.88262 0.3078 0.25071 0.0
C191 C 0.78405 0.41779 0.21998 0.0
O192 O 0.67351 0.30647 0.17864 0.0
C193 C 0.9058 0.30665 0.2098 0.0
O194 O 0.74557 0.27631 0.15288 0.0
O195 O 0.87904 0.30775 0.17094 0.0
C196 C 0.16353 0.27685 0.7664 0.0
O197 O 0.12971 0.26179 0.79656 0.0
Cd198 Cd 0.04152 0.24546 0.7699 0.0
O199 O 0.15057 0.29128 0.72443 0.0
Cd200 Cd 0.06949 0.30623 0.68542 0.0
C201 C 0.07342 0.18305 0.66813 0.0
O202 O -0.01023 0.3049 0.73346 0.0
O203 O -0.0127 0.28787 0.65436 0.0
O204 O 0.08508 0.38716 0.71456 0.0
C205 C -0.03628 0.29601 0.69425 0.0
O206 O 0.05028 0.18163 0.70915 0.0
C207 C 0.08747 0.40758 0.67299 0.0
O208 O 0.08952 0.22393 0.65022 0.0
O209 O 0.08422 0.38006 0.63441 0.0
C210 C 0.1467 0.64095 0.10716 0.0
O211 O 0.10474 0.65956 0.0969 0.0
Cd212 Cd 0.0335 0.65794 0.15048 0.0
O213 O 0.14912 0.61 0.14155 0.0
Cd214 Cd 0.08294 0.56914 0.19701 0.0
C215 C 0.10564 0.67627 0.25549 0.0
O216 O -0.00036 0.57682 0.15787 0.0
O217 O 0.00133 0.57696 0.23736 0.0
O218 O 0.09655 0.48723 0.16765 0.0
C219 C -0.02469 0.57446 0.19804 0.0
O220 O 0.07432 0.6931 0.22505 0.0
C221 C 0.09947 0.46804 0.20971 0.0
O222 O 0.11715 0.63157 0.25354 0.0
O223 O 0.09931 0.49667 0.24705 0.0
C224 C 0.77358 0.72168 0.60852 0.0
O225 O 0.79554 0.75275 0.63763 0.0
Cd226 Cd 0.75456 0.8294 0.65452 0.0
O227 O 0.7364 0.73393 0.58266 0.0
Cd228 Cd 0.69286 0.80859 0.56568 0.0
C229 C 0.63804 0.77458 0.67107 0.0
O230 O 0.73632 0.88718 0.59149 0.0
O231 O 0.65331 0.88208 0.58838 0.0
O232 O 0.734 0.80694 0.48757 0.0
C233 C 0.69408 0.90843 0.5935 0.0
O234 O 0.67588 0.79812 0.6908 0.0
C235 C 0.69379 0.80117 0.46187 0.0
O236 O 0.63428 0.76967 0.62441 0.0
O237 O 0.65127 0.79853 0.48447 0.0
C238 C 0.61396 0.10486 0.16926 0.0
O239 O 0.6477 0.09108 0.13941 0.0
Cd240 Cd 0.65924 0.13355 0.06234 0.0
O241 O 0.58254 0.13579 0.15594 0.0
Cd242 Cd 0.56421 0.18038 0.08039 0.0
C243 C 0.66908 0.24632 0.11526 0.0
O244 O 0.58849 0.13374 0.0045 0.0
O245 O 0.58329 0.21248 0.00051 0.0
O246 O 0.47929 0.14543 0.08699 0.0
C247 C 0.58677 0.17167 -0.02187 0.0
O248 O 0.69289 0.21344 0.09246 0.0
C249 C 0.45754 0.1857 0.09123 0.0
O250 O 0.62076 0.24323 0.11838 0.0
O251 O 0.48543 0.22492 0.08988 0.0
C252 C 0.09016 0.13619 0.64807 0.0
O253 O 0.07524 0.09712 0.66926 0.0
Cd254 Cd 0.12948 0.02892 0.67145 0.0
O255 O 0.12697 0.13579 0.61792 0.0
Cd256 Cd 0.17787 0.07106 0.57989 0.0
C257 C 0.24035 0.09908 0.6831 0.0
O258 O 0.1419 -0.01245 0.59492 0.0
O259 O 0.22392 -0.00289 0.58695 0.0
O260 O 0.1358 0.08191 0.50266 0.0
C261 C 0.1849 -0.03163 0.59083 0.0
O262 O 0.2075 0.06987 0.70273 0.0
C263 C 0.176 0.0922 0.47841 0.0
O264 O 0.23887 0.10811 0.63735 0.0
O265 O 0.21812 0.09414 0.50167 0.0
C266 C 0.281 0.77964 0.16977 0.0
O267 O 0.26078 0.80849 0.14031 0.0
Cd268 Cd 0.24323 0.77905 0.05661 0.0
O269 O 0.29942 0.74062 0.15331 0.0
Cd270 Cd 0.31512 0.70273 0.07235 0.0
C271 C 0.19311 0.66646 0.08824 0.0
O272 O 0.30749 0.75681 -0.00083 0.0
O273 O 0.29071 0.67841 -0.00907 0.0
O274 O 0.4019 0.73073 0.08181 0.0
C275 C 0.29769 0.71976 -0.02907 0.0
O276 O 0.18704 0.70806 0.06945 0.0
C277 C 0.42145 0.68922 0.08191 0.0
O278 O 0.23774 0.65284 0.09838 0.0
O279 O 0.39111 0.65145 0.07873 0.0
C280 C 0.61885 0.09468 0.22201 0.0
O281 O 0.58345 0.10429 0.25186 0.0
Cd282 Cd 0.60637 0.12119 0.33832 0.0
O283 O 0.66225 0.08517 0.23844 0.0
Cd284 Cd 0.69569 0.06947 0.3201 0.0
C285 C 0.71002 0.19234 0.31381 0.0
O286 O 0.64231 0.066 0.39525 0.0
O287 O 0.72396 0.08562 0.40148 0.0
O288 O 0.66608 -0.0116 0.30238 0.0
C289 C 0.6815 0.07584 0.42233 0.0
O290 O 0.6658 0.18992 0.33271 0.0
C291 C 0.70948 -0.02998 0.29962 0.0
O292 O 0.73195 0.15335 0.30088 0.0
O293 O 0.74902 -0.00124 0.30515 0.0
C294 C 0.21717 0.26641 0.77451 0.0
O295 O 0.25133 0.28429 0.74623 0.0
Cd296 Cd 0.33021 0.24225 0.73619 0.0
O297 O 0.22708 0.23145 0.80231 0.0
Cd298 Cd 0.30131 0.18513 0.82281 0.0
C299 C 0.27203 0.13093 0.71549 0.0
O300 O 0.38369 0.22931 0.80707 0.0
O301 O 0.3804 0.14958 0.80701 0.0
O302 O 0.29316 0.217 0.9035 0.0
C303 C 0.40702 0.18947 0.80751 0.0
O304 O 0.29811 0.16625 0.69677 0.0
C305 C 0.28703 0.17609 0.9244 0.0
O306 O 0.26486 0.12891 0.76171 0.0
O307 O 0.28632 0.13746 0.89755 0.0
C308 C 0.27202 0.78445 0.22307 0.0
O309 O 0.29344 0.75627 0.25243 0.0
Cd310 Cd 0.25497 0.7387 0.33192 0.0
O311 O 0.2349 0.8088 0.23774 0.0
Cd312 Cd 0.18852 0.82199 0.31514 0.0
C313 C 0.13762 0.71094 0.28492 0.0
O314 O 0.2395 0.80516 0.38873 0.0
O315 O 0.15675 0.80046 0.39445 0.0
O316 O 0.21761 0.90559 0.31231 0.0
C317 C 0.19982 0.80136 0.41563 0.0
O318 O 0.17655 0.69502 0.3061 0.0
C319 C 0.17393 0.9232 0.30999 0.0
O320 O 0.13227 0.75673 0.28052 0.0
O321 O 0.13527 0.89335 0.30908 0.0
C322 C 0.64168 0.59892 0.735 0.0
O323 O 0.59938 0.58703 0.71447 0.0
Cd324 Cd 0.52991 0.64029 0.71599 0.0
O325 O 0.64472 0.6334 0.76698 0.0
Cd326 Cd 0.58075 0.68522 0.80707 0.0
C327 C 0.60529 0.74423 0.70285 0.0
O328 O 0.49384 0.65063 0.79569 0.0
O329 O 0.50475 0.72975 0.80049 0.0
O330 O 0.59201 0.64993 0.88611 0.0
C331 C 0.47465 0.69217 0.80089 0.0
O332 O 0.57268 0.71403 0.68316 0.0
C333 C 0.6004 0.6903 0.90911 0.0
O334 O 0.61678 0.74199 0.74827 0.0
O335 O 0.60385 0.72908 0.88398 0.0
loop_
_geom_bond_atom_site_label_1
_geom_bond_atom_site_label_2
_geom_bond_distance
_geom_bond_site_symmetry_2
_ccdc_geom_bond_type
C0 O1 1.306 . S
C0 O3 1.160 . S
O1 C0 1.306 . S
O1 Cd2 2.228 . S
Cd2 O1 2.228 . S
Cd2 O6 2.273 . S
Cd2 O10 2.277 . S
O3 C0 1.160 . S
O3 Cd4 2.203 . S
Cd4 O3 2.203 . S
Cd4 O6 2.411 . S
Cd4 O7 2.333 . S
Cd4 O8 2.352 . S
Cd4 O12 2.277 . S
Cd4 O13 2.356 . S
C5 O10 1.209 . S
C5 O12 1.226 . S
O6 Cd2 2.273 . S
O6 Cd4 2.411 . S
O6 C9 1.320 . S
O7 Cd4 2.333 . S
O7 C9 1.214 . S
O8 Cd4 2.352 . S
O8 C11 1.258 . S
C9 O6 1.320 . S
C9 O7 1.214 . S
O10 Cd2 2.277 . S
O10 C5 1.209 . S
C11 O8 1.258 . S
C11 O13 1.282 . S
O12 Cd4 2.277 . S
O12 C5 1.226 . S
O13 Cd4 2.356 . S
O13 C11 1.282 . S
C14 O15 1.306 . S
C14 O17 1.160 . S
O15 C14 1.306 . S
O15 Cd16 2.228 . S
Cd16 O15 2.228 . S
Cd16 O20 2.273 . S
Cd16 O24 2.277 . S
O17 C14 1.160 . S
O17 Cd18 2.203 . S
Cd18 O17 2.203 . S
Cd18 O20 2.411 . S
Cd18 O21 2.333 . S
Cd18 O22 2.352 . S
Cd18 O26 2.277 . S
Cd18 O27 2.356 . S
C19 O24 1.209 . S
C19 O26 1.226 . S
O20 Cd16 2.273 . S
O20 Cd18 2.411 . S
O20 C23 1.320 . S
O21 Cd18 2.333 . S
O21 C23 1.214 . S
O22 Cd18 2.352 . S
O22 C25 1.258 . S
C23 O20 1.320 . S
C23 O21 1.214 . S
O24 Cd16 2.277 . S
O24 C19 1.209 . S
C25 O22 1.258 . S
C25 O27 1.282 . S
O26 Cd18 2.277 . S
O26 C19 1.226 . S
O27 Cd18 2.356 . S
O27 C25 1.282 . S
C28 O29 1.306 . S
C28 O31 1.160 . S
O29 C28 1.306 . S
O29 Cd30 2.228 . S
Cd30 O29 2.228 . S
Cd30 O34 2.273 . S
Cd30 O38 2.277 . S
O31 C28 1.160 . S
O31 Cd32 2.203 . S
Cd32 O31 2.203 . S
Cd32 O34 2.411 . S
Cd32 O35 2.333 . S
Cd32 O36 2.352 . S
Cd32 O40 2.277 . S
Cd32 O41 2.356 . S
C33 O38 1.209 . S
C33 O40 1.226 . S
O34 Cd30 2.273 . S
O34 Cd32 2.411 . S
O34 C37 1.320 . S
O35 Cd32 2.333 . S
O35 C37 1.214 . S
O36 Cd32 2.352 . S
O36 C39 1.258 . S
C37 O34 1.320 . S
C37 O35 1.214 . S
O38 Cd30 2.277 . S
O38 C33 1.209 . S
C39 O36 1.258 . S
C39 O41 1.282 . S
O40 Cd32 2.277 . S
O40 C33 1.226 . S
O41 Cd32 2.356 . S
O41 C39 1.282 . S
C42 O43 1.306 . S
C42 O45 1.160 . S
O43 C42 1.306 . S
O43 Cd44 2.228 . S
Cd44 O43 2.228 . S
Cd44 O48 2.273 . S
Cd44 O52 2.277 . S
O45 C42 1.160 . S
O45 Cd46 2.203 . S
Cd46 O45 2.203 . S
Cd46 O48 2.411 . S
Cd46 O49 2.333 . S
Cd46 O50 2.352 . S
Cd46 O54 2.277 . S
Cd46 O55 2.356 . S
C47 O52 1.209 . S
C47 O54 1.226 . S
O48 Cd44 2.273 . S
O48 Cd46 2.411 . S
O48 C51 1.320 . S
O49 Cd46 2.333 . S
O49 C51 1.214 . S
O50 Cd46 2.352 . S
O50 C53 1.258 . S
C51 O48 1.320 . S
C51 O49 1.214 . S
O52 Cd44 2.277 . S
O52 C47 1.209 . S
C53 O50 1.258 . S
C53 O55 1.282 . S
O54 Cd46 2.277 . S
O54 C47 1.226 . S
O55 Cd46 2.356 . S
O55 C53 1.282 . S
C56 O57 1.306 . S
C56 O59 1.160 . S
O57 C56 1.306 . S
O57 Cd58 2.228 . S
Cd58 O57 2.228 . S
Cd58 O62 2.273 . S
Cd58 O66 2.277 . S
O59 C56 1.160 . S
O59 Cd60 2.203 . S
Cd60 O59 2.203 . S
Cd60 O62 2.411 . S
Cd60 O63 2.333 . S
Cd60 O64 2.352 . S
Cd60 O68 2.277 . S
Cd60 O69 2.356 . S
C61 O66 1.209 . S
C61 O68 1.226 . S
O62 Cd58 2.273 . S
O62 Cd60 2.411 . S
O62 C65 1.320 . S
O63 Cd60 2.333 . S
O63 C65 1.214 . S
O64 Cd60 2.352 . S
O64 C67 1.258 . S
C65 O62 1.320 . S
C65 O63 1.214 . S
O66 Cd58 2.277 . S
O66 C61 1.209 . S
C67 O64 1.258 . S
C67 O69 1.282 . S
O68 Cd60 2.277 . S
O68 C61 1.226 . S
O69 Cd60 2.356 . S
O69 C67 1.282 . S
C70 O71 1.306 . S
C70 O73 1.160 . S
O71 C70 1.306 . S
O71 Cd72 2.228 . S
Cd72 O71 2.228 . S
Cd72 O76 2.273 . S
Cd72 O80 2.277 . S
O73 C70 1.160 . S
O73 Cd74 2.203 . S
Cd74 O73 2.203 . S
Cd74 O76 2.411 . S
Cd74 O77 2.333 . S
Cd74 O78 2.352 . S
Cd74 O82 2.277 . S
Cd74 O83 2.356 . S
C75 O80 1.209 . S
C75 O82 1.226 . S
O76 Cd72 2.273 . S
O76 Cd74 2.411 . S
O76 C79 1.320 . S
O77 Cd74 2.333 . S
O77 C79 1.214 . S
O78 Cd74 2.352 . S
O78 C81 1.258 . S
C79 O76 1.320 . S
C79 O77 1.214 . S
O80 Cd72 2.277 . S
O80 C75 1.209 . S
C81 O78 1.258 . S
C81 O83 1.282 . S
O82 Cd74 2.277 . S
O82 C75 1.226 . S
O83 Cd74 2.356 . S
O83 C81 1.282 . S
C84 O85 1.306 . S
C84 O87 1.160 . S
O85 C84 1.306 . S
O85 Cd86 2.228 . S
Cd86 O85 2.228 . S
Cd86 O90 2.273 . S
Cd86 O94 2.277 . S
O87 C84 1.160 . S
O87 Cd88 2.203 . S
Cd88 O87 2.203 . S
Cd88 O90 2.411 . S
Cd88 O91 2.333 . S
Cd88 O92 2.352 . S
Cd88 O96 2.277 . S
Cd88 O97 2.356 . S
C89 O94 1.209 . S
C89 O96 1.226 . S
O90 Cd86 2.273 . S
O90 Cd88 2.411 . S
O90 C93 1.320 . S
O91 Cd88 2.333 . S
O91 C93 1.214 . S
O92 Cd88 2.352 . S
O92 C95 1.258 . S
C93 O90 1.320 . S
C93 O91 1.214 . S
O94 Cd86 2.277 . S
O94 C89 1.209 . S
C95 O92 1.258 . S
C95 O97 1.282 . S
O96 Cd88 2.277 . S
O96 C89 1.226 . S
O97 Cd88 2.356 . S
O97 C95 1.282 . S
C98 O99 1.306 . S
C98 O101 1.160 . S
O99 C98 1.306 . S
O99 Cd100 2.228 . S
Cd100 O99 2.228 . S
Cd100 O104 2.273 . S
Cd100 O108 2.277 . S
O101 C98 1.160 . S
O101 Cd102 2.203 . S
Cd102 O101 2.203 . S
Cd102 O104 2.411 . S
Cd102 O105 2.333 . S
Cd102 O106 2.352 . S
Cd102 O110 2.277 . S
Cd102 O111 2.356 . S
C103 O108 1.209 . S
C103 O110 1.226 . S
O104 Cd100 2.273 . S
O104 Cd102 2.411 . S
O104 C107 1.320 . S
O105 Cd102 2.333 . S
O105 C107 1.214 . S
O106 Cd102 2.352 . S
O106 C109 1.258 . S
C107 O104 1.320 . S
C107 O105 1.214 . S
O108 Cd100 2.277 . S
O108 C103 1.209 . S
C109 O106 1.258 . S
C109 O111 1.282 . S
O110 Cd102 2.277 . S
O110 C103 1.226 . S
O111 Cd102 2.356 . S
O111 C109 1.282 . S
C112 O113 1.306 . S
C112 O115 1.160 . S
O113 C112 1.306 . S
O113 Cd114 2.228 . S
Cd114 O113 2.228 . S
Cd114 O118 2.273 . S
Cd114 O122 2.277 . S
O115 C112 1.160 . S
O115 Cd116 2.203 . S
Cd116 O115 2.203 . S
Cd116 O118 2.411 . S
Cd116 O119 2.333 . S
Cd116 O120 2.352 . S
Cd116 O124 2.277 . S
Cd116 O125 2.356 . S
C117 O122 1.209 . S
C117 O124 1.226 . S
O118 Cd114 2.273 . S
O118 Cd116 2.411 . S
O118 C121 1.320 . S
O119 Cd116 2.333 . S
O119 C121 1.214 . S
O120 Cd116 2.352 . S
O120 C123 1.258 . S
C121 O118 1.320 . S
C121 O119 1.214 . S
O122 Cd114 2.277 . S
O122 C117 1.209 . S
C123 O120 1.258 . S
C123 O125 1.282 . S
O124 Cd116 2.277 . S
O124 C117 1.226 . S
O125 Cd116 2.356 . S
O125 C123 1.282 . S
C126 O127 1.306 . S
C126 O129 1.160 . S
O127 C126 1.306 . S
O127 Cd128 2.228 . S
Cd128 O127 2.228 . S
Cd128 O132 2.273 . S
Cd128 O136 2.277 . S
O129 C126 1.160 . S
O129 Cd130 2.203 . S
Cd130 O129 2.203 . S
Cd130 O132 2.411 . S
Cd130 O133 2.333 . S
Cd130 O134 2.352 . S
Cd130 O138 2.277 . S
Cd130 O139 2.356 . S
C131 O136 1.209 . S
C131 O138 1.226 . S
O132 Cd128 2.273 . S
O132 Cd130 2.411 . S
O132 C135 1.320 . S
O133 Cd130 2.333 . S
O133 C135 1.214 . S
O134 Cd130 2.352 . S
O134 C137 1.258 . S
C135 O132 1.320 . S
C135 O133 1.214 . S
O136 Cd128 2.277 . S
O136 C131 1.209 . S
C137 O134 1.258 . S
C137 O139 1.282 . S
O138 Cd130 2.277 . S
O138 C131 1.226 . S
O139 Cd130 2.356 . S
O139 C137 1.282 . S
C140 O141 1.306 . S
C140 O143 1.160 . S
O141 C140 1.306 . S
O141 Cd142 2.228 . S
Cd142 O141 2.228 . S
Cd142 O146 2.273 . S
Cd142 O150 2.277 . S
O143 C140 1.160 . S
O143 Cd144 2.203 . S
Cd144 O143 2.203 . S
Cd144 O146 2.411 . S
Cd144 O147 2.333 . S
Cd144 O148 2.352 . S
Cd144 O152 2.277 . S
Cd144 O153 2.356 . S
C145 O150 1.209 . S
C145 O152 1.226 . S
O146 Cd142 2.273 . S
O146 Cd144 2.411 . S
O146 C149 1.320 . S
O147 Cd144 2.333 . S
O147 C149 1.214 . S
O148 Cd144 2.352 . S
O148 C151 1.258 . S
C149 O146 1.320 . S
C149 O147 1.214 . S
O150 Cd142 2.277 . S
O150 C145 1.209 . S
C151 O148 1.258 . S
C151 O153 1.282 . S
O152 Cd144 2.277 . S
O152 C145 1.226 . S
O153 Cd144 2.356 . S
O153 C151 1.282 . S
C154 O155 1.306 . S
C154 O157 1.160 . S
O155 C154 1.306 . S
O155 Cd156 2.228 . S
Cd156 O155 2.228 . S
Cd156 O160 2.273 . S
Cd156 O164 2.277 . S
O157 C154 1.160 . S
O157 Cd158 2.203 . S
Cd158 O157 2.203 . S
Cd158 O160 2.411 . S
Cd158 O161 2.333 . S
Cd158 O162 2.352 . S
Cd158 O166 2.277 . S
Cd158 O167 2.356 . S
C159 O164 1.209 . S
C159 O166 1.226 . S
O160 Cd156 2.273 . S
O160 Cd158 2.411 . S
O160 C163 1.320 . S
O161 Cd158 2.333 . S
O161 C163 1.214 . S
O162 Cd158 2.352 . S
O162 C165 1.258 . S
C163 O160 1.320 . S
C163 O161 1.214 . S
O164 Cd156 2.277 . S
O164 C159 1.209 . S
C165 O162 1.258 . S
C165 O167 1.282 . S
O166 Cd158 2.277 . S
O166 C159 1.226 . S
O167 Cd158 2.356 . S
O167 C165 1.282 . S
C168 O169 1.306 . S
C168 O171 1.160 . S
O169 C168 1.306 . S
O169 Cd170 2.228 . S
Cd170 O169 2.228 . S
Cd170 O174 2.273 . S
Cd170 O178 2.277 . S
O171 C168 1.160 . S
O171 Cd172 2.203 . S
Cd172 O171 2.203 . S
Cd172 O174 2.411 . S
Cd172 O175 2.333 . S
Cd172 O176 2.352 . S
Cd172 O180 2.277 . S
Cd172 O181 2.356 . S
C173 O178 1.209 . S
C173 O180 1.226 . S
O174 Cd170 2.273 . S
O174 Cd172 2.411 . S
O174 C177 1.320 . S
O175 Cd172 2.333 . S
O175 C177 1.214 . S
O176 Cd172 2.352 . S
O176 C179 1.258 . S
C177 O174 1.320 . S
C177 O175 1.214 . S
O178 Cd170 2.277 . S
O178 C173 1.209 . S
C179 O176 1.258 . S
C179 O181 1.282 . S
O180 Cd172 2.277 . S
O180 C173 1.226 . S
O181 Cd172 2.356 . S
O181 C179 1.282 . S
C182 O183 1.306 . S
C182 O185 1.160 . S
O183 C182 1.306 . S
O183 Cd184 2.228 . S
Cd184 O183 2.228 . S
Cd184 O188 2.273 . S
Cd184 O192 2.277 . S
O185 C182 1.160 . S
O185 Cd186 2.203 . S
Cd186 O185 2.203 . S
Cd186 O188 2.411 . S
Cd186 O189 2.333 . S
Cd186 O190 2.352 . S
Cd186 O194 2.277 . S
Cd186 O195 2.356 . S
C187 O192 1.209 . S
C187 O194 1.226 . S
O188 Cd184 2.273 . S
O188 Cd186 2.411 . S
O188 C191 1.320 . S
O189 Cd186 2.333 . S
O189 C191 1.214 . S
O190 Cd186 2.352 . S
O190 C193 1.258 . S
C191 O188 1.320 . S
C191 O189 1.214 . S
O192 Cd184 2.277 . S
O192 C187 1.209 . S
C193 O190 1.258 . S
C193 O195 1.282 . S
O194 Cd186 2.277 . S
O194 C187 1.226 . S
O195 Cd186 2.356 . S
O195 C193 1.282 . S
C196 O197 1.306 . S
C196 O199 1.160 . S
O197 C196 1.306 . S
O197 Cd198 2.228 . S
Cd198 O197 2.228 . S
Cd198 O202 2.273 . S
Cd198 O206 2.277 . S
O199 C196 1.160 . S
O199 Cd200 2.203 . S
Cd200 O199 2.203 . S
Cd200 O202 2.411 . S
Cd200 O203 2.333 . S
Cd200 O204 2.352 . S
Cd200 O208 2.277 . S
Cd200 O209 2.356 . S
C201 O206 1.209 . S
C201 O208 1.226 . S
O202 Cd198 2.273 . S
O202 Cd200 2.411 . S
O202 C205 1.320 . S
O203 Cd200 2.333 . S
O203 C205 1.214 . S
O204 Cd200 2.352 . S
O204 C207 1.258 . S
C205 O202 1.320 . S
C205 O203 1.214 . S
O206 Cd198 2.277 . S
O206 C201 1.209 . S
C207 O204 1.258 . S
C207 O209 1.282 . S
O208 Cd200 2.277 . S
O208 C201 1.226 . S
O209 Cd200 2.356 . S
O209 C207 1.282 . S
C210 O211 1.306 . S
C210 O213 1.160 . S
O211 C210 1.306 . S
O211 Cd212 2.228 . S
Cd212 O211 2.228 . S
Cd212 O216 2.273 . S
Cd212 O220 2.277 . S
O213 C210 1.160 . S
O213 Cd214 2.203 . S
Cd214 O213 2.203 . S
Cd214 O216 2.411 . S
Cd214 O217 2.333 . S
Cd214 O218 2.352 . S
Cd214 O222 2.277 . S
Cd214 O223 2.356 . S
C215 O220 1.209 . S
C215 O222 1.226 . S
O216 Cd212 2.273 . S
O216 Cd214 2.411 . S
O216 C219 1.320 . S
O217 Cd214 2.333 . S
O217 C219 1.214 . S
O218 Cd214 2.352 . S
O218 C221 1.258 . S
C219 O216 1.320 . S
C219 O217 1.214 . S
O220 Cd212 2.277 . S
O220 C215 1.209 . S
C221 O218 1.258 . S
C221 O223 1.282 . S
O222 Cd214 2.277 . S
O222 C215 1.226 . S
O223 Cd214 2.356 . S
O223 C221 1.282 . S
C224 O225 1.306 . S
C224 O227 1.160 . S
O225 C224 1.306 . S
O225 Cd226 2.228 . S
Cd226 O225 2.228 . S
Cd226 O230 2.273 . S
Cd226 O234 2.277 . S
O227 C224 1.160 . S
O227 Cd228 2.203 . S
Cd228 O227 2.203 . S
Cd228 O230 2.411 . S
Cd228 O231 2.333 . S
Cd228 O232 2.352 . S
Cd228 O236 2.277 . S
Cd228 O237 2.356 . S
C229 O234 1.209 . S
C229 O236 1.226 . S
O230 Cd226 2.273 . S
O230 Cd228 2.411 . S
O230 C233 1.320 . S
O231 Cd228 2.333 . S
O231 C233 1.214 . S
O232 Cd228 2.352 . S
O232 C235 1.258 . S
C233 O230 1.320 . S
C233 O231 1.214 . S
O234 Cd226 2.277 . S
O234 C229 1.209 . S
C235 O232 1.258 . S
C235 O237 1.282 . S
O236 Cd228 2.277 . S
O236 C229 1.226 . S
O237 Cd228 2.356 . S
O237 C235 1.282 . S
C238 O239 1.306 . S
C238 O241 1.160 . S
O239 C238 1.306 . S
O239 Cd240 2.228 . S
Cd240 O239 2.228 . S
Cd240 O244 2.273 . S
Cd240 O248 2.277 . S
O241 C238 1.160 . S
O241 Cd242 2.203 . S
Cd242 O241 2.203 . S
Cd242 O244 2.411 . S
Cd242 O245 2.333 . S
Cd242 O246 2.352 . S
Cd242 O250 2.277 . S
Cd242 O251 2.356 . S
C243 O248 1.209 . S
C243 O250 1.226 . S
O244 Cd240 2.273 . S
O244 Cd242 2.411 . S
O244 C247 1.320 . S
O245 Cd242 2.333 . S
O245 C247 1.214 . S
O246 Cd242 2.352 . S
O246 C249 1.258 . S
C247 O244 1.320 . S
C247 O245 1.214 . S
O248 Cd240 2.277 . S
O248 C243 1.209 . S
C249 O246 1.258 . S
C249 O251 1.282 . S
O250 Cd242 2.277 . S
O250 C243 1.226 . S
O251 Cd242 2.356 . S
O251 C249 1.282 . S
C252 O253 1.306 . S
C252 O255 1.160 . S
O253 C252 1.306 . S
O253 Cd254 2.228 . S
Cd254 O253 2.228 . S
Cd254 O258 2.273 . S
Cd254 O262 2.277 . S
O255 C252 1.160 . S
O255 Cd256 2.203 . S
Cd256 O255 2.203 . S
Cd256 O258 2.411 . S
Cd256 O259 2.333 . S
Cd256 O260 2.352 . S
Cd256 O264 2.277 . S
Cd256 O265 2.356 . S
C257 O262 1.209 . S
C257 O264 1.226 . S
O258 Cd254 2.273 . S
O258 Cd256 2.411 . S
O258 C261 1.320 . S
O259 Cd256 2.333 . S
O259 C261 1.214 . S
O260 Cd256 2.352 . S
O260 C263 1.258 . S
C261 O258 1.320 . S
C261 O259 1.214 . S
O262 Cd254 2.277 . S
O262 C257 1.209 . S
C263 O260 1.258 . S
C263 O265 1.282 . S
O264 Cd256 2.277 . S
O264 C257 1.226 . S
O265 Cd256 2.356 . S
O265 C263 1.282 . S
C266 O267 1.306 . S
C266 O269 1.160 . S
O267 C266 1.306 . S
O267 Cd268 2.228 . S
Cd268 O267 2.228 . S
Cd268 O272 2.273 . S
Cd268 O276 2.277 . S
O269 C266 1.160 . S
O269 Cd270 2.203 . S
Cd270 O269 2.203 . S
Cd270 O272 2.411 . S
Cd270 O273 2.333 . S
Cd270 O274 2.352 . S
Cd270 O278 2.277 . S
Cd270 O279 2.356 . S
C271 O276 1.209 . S
C271 O278 1.226 . S
O272 Cd268 2.273 . S
O272 Cd270 2.411 . S
O272 C275 1.320 . S
O273 Cd270 2.333 . S
O273 C275 1.214 . S
O274 Cd270 2.352 . S
O274 C277 1.258 . S
C275 O272 1.320 . S
C275 O273 1.214 . S
O276 Cd268 2.277 . S
O276 C271 1.209 . S
C277 O274 1.258 . S
C277 O279 1.282 . S
O278 Cd270 2.277 . S
O278 C271 1.226 . S
O279 Cd270 2.356 . S
O279 C277 1.282 . S
C280 O281 1.306 . S
C280 O283 1.160 . S
O281 C280 1.306 . S
O281 Cd282 2.228 . S
Cd282 O281 2.228 . S
Cd282 O286 2.273 . S
Cd282 O290 2.277 . S
O283 C280 1.160 . S
O283 Cd284 2.203 . S
Cd284 O283 2.203 . S
Cd284 O286 2.411 . S
Cd284 O287 2.333 . S
Cd284 O288 2.352 . S
Cd284 O292 2.277 . S
Cd284 O293 2.356 . S
C285 O290 1.209 . S
C285 O292 1.226 . S
O286 Cd282 2.273 . S
O286 Cd284 2.411 . S
O286 C289 1.320 . S
O287 Cd284 2.333 . S
O287 C289 1.214 . S
O288 Cd284 2.352 . S
O288 C291 1.258 . S
C289 O286 1.320 . S
C289 O287 1.214 . S
O290 Cd282 2.277 . S
O290 C285 1.209 . S
C291 O288 1.258 . S
C291 O293 1.282 . S
O292 Cd284 2.277 . S
O292 C285 1.226 . S
O293 Cd284 2.356 . S
O293 C291 1.282 . S
C294 O295 1.306 . S
C294 O297 1.160 . S
O295 C294 1.306 . S
O295 Cd296 2.228 . S
Cd296 O295 2.228 . S
Cd296 O300 2.273 . S
Cd296 O304 2.277 . S
O297 C294 1.160 . S
O297 Cd298 2.203 . S
Cd298 O297 2.203 . S
Cd298 O300 2.411 . S
Cd298 O301 2.333 . S
Cd298 O302 2.352 . S
Cd298 O306 2.277 . S
Cd298 O307 2.356 . S
C299 O304 1.209 . S
C299 O306 1.226 . S
O300 Cd296 2.273 . S
O300 Cd298 2.411 . S
O300 C303 1.320 . S
O301 Cd298 2.333 . S
O301 C303 1.214 . S
O302 Cd298 2.352 . S
O302 C305 1.258 . S
C303 O300 1.320 . S
C303 O301 1.214 . S
O304 Cd296 2.277 . S
O304 C299 1.209 . S
C305 O302 1.258 . S
C305 O307 1.282 . S
O306 Cd298 2.277 . S
O306 C299 1.226 . S
O307 Cd298 2.356 . S
O307 C305 1.282 . S
C308 O309 1.306 . S
C308 O311 1.160 . S
O309 C308 1.306 . S
O309 Cd310 2.228 . S
Cd310 O309 2.228 . S
Cd310 O314 2.273 . S
Cd310 O318 2.277 . S
O311 C308 1.160 . S
O311 Cd312 2.203 . S
Cd312 O311 2.203 . S
Cd312 O314 2.411 . S
Cd312 O315 2.333 . S
Cd312 O316 2.352 . S
Cd312 O320 2.277 . S
Cd312 O321 2.356 . S
C313 O318 1.209 . S
C313 O320 1.226 . S
O314 Cd310 2.273 . S
O314 Cd312 2.411 . S
O314 C317 1.320 . S
O315 Cd312 2.333 . S
O315 C317 1.214 . S
O316 Cd312 2.352 . S
O316 C319 1.258 . S
C317 O314 1.320 . S
C317 O315 1.214 . S
O318 Cd310 2.277 . S
O318 C313 1.209 . S
C319 O316 1.258 . S
C319 O321 1.282 . S
O320 Cd312 2.277 . S
O320 C313 1.226 . S
O321 Cd312 2.356 . S
O321 C319 1.282 . S
C322 O323 1.306 . S
C322 O325 1.160 . S
O323 C322 1.306 . S
O323 Cd324 2.228 . S
Cd324 O323 2.228 . S
Cd324 O328 2.273 . S
Cd324 O332 2.277 . S
O325 C322 1.160 . S
O325 Cd326 2.203 . S
Cd326 O325 2.203 . S
Cd326 O328 2.411 . S
Cd326 O329 2.333 . S
Cd326 O330 2.352 . S
Cd326 O334 2.277 . S
Cd326 O335 2.356 . S
C327 O332 1.209 . S
C327 O334 1.226 . S
O328 Cd324 2.273 . S
O328 Cd326 2.411 . S
O328 C331 1.320 . S
O329 Cd326 2.333 . S
O329 C331 1.214 . S
O330 Cd326 2.352 . S
O330 C333 1.258 . S
C331 O328 1.320 . S
C331 O329 1.214 . S
O332 Cd324 2.277 . S
O332 C327 1.209 . S
C333 O330 1.258 . S
C333 O335 1.282 . S
O334 Cd326 2.277 . S
O334 C327 1.226 . S
O335 Cd326 2.356 . S
O335 C333 1.282 . S
C221 C11 1.258 . S
C179 C23 1.297 1_655 S
C191 C39 1.407 . S
C205 C51 1.466 1_455 S
C207 C25 1.303 . S
C37 C219 1.376 1_655 S
C177 C53 1.467 . S
C193 C9 1.196 1_655 S
C263 C67 1.111 . S
C81 C275 1.495 1_556 S
C95 C235 1.183 . S
C247 C109 1.509 1_554 S
C317 C121 1.538 . S
C137 C333 1.235 1_554 S
C149 C289 1.574 . S
C165 C305 1.220 1_554 S
C249 C163 1.195 . S
C331 C79 1.441 . S
C93 C291 1.403 1_565 S
C303 C107 1.441 . S
C319 C65 1.306 1_565 S
C135 C277 1.241 . S
C233 C151 1.380 1_565 S
C261 C123 1.330 1_545 S
C5 C56 1.358 . S
C70 C14 1.090 . S
C33 C84 1.381 . S
C42 C98 1.218 . S
C117 C19 1.101 . S
C126 C28 1.285 . S
C145 C47 1.190 . S
C0 C154 1.177 . S
C159 C61 1.058 . S
C75 C112 1.376 . S
C89 C131 1.006 . S
C140 C103 1.316 . S
C224 C168 1.443 . S
C243 C187 1.059 . S
C201 C252 1.228 . S
C210 C271 1.140 . S
C182 C285 1.195 . S
C196 C294 1.497 . S
C313 C215 1.093 . S
C173 C322 1.369 . S
C229 C327 1.061 . S
C280 C238 1.376 . S
C257 C299 1.011 . S
C308 C266 1.325 . S
