# Generated by pormake.
# Topology wli, (5)-cn, num edge types: 1
# Building blocks:
#     Node 0, Type 0, BuildingBlock: BEQFEK_clean_sbu_0, # of connection points: 5
#     Node 1, Type 0, BuildingBlock: BEQFEK_clean_sbu_0, # of connection points: 5
#     Node 2, Type 0, BuildingBlock: BEQFEK_clean_sbu_0, # of connection points: 5
#     Node 3, Type 0, BuildingBlock: BEQFEK_clean_sbu_0, # of connection points: 5
#     Node 4, Type 0, BuildingBlock: BEQFEK_clean_sbu_0, # of connection points: 5
#     Node 5, Type 0, BuildingBlock: BEQFEK_clean_sbu_0, # of connection points: 5
#     Edge 6, Type (0, 0), BuildingBlock: MIFKUJ_clean_linker_0, # of connection points: 2
#     Edge 7, Type (0, 0), BuildingBlock: MIFKUJ_clean_linker_0, # of connection points: 2
#     Edge 8, Type (0, 0), BuildingBlock: MIFKUJ_clean_linker_0, # of connection points: 2
#     Edge 9, Type (0, 0), BuildingBlock: MIFKUJ_clean_linker_0, # of connection points: 2
#     Edge 10, Type (0, 0), BuildingBlock: MIFKUJ_clean_linker_0, # of connection points: 2
#     Edge 11, Type (0, 0), BuildingBlock: MIFKUJ_clean_linker_0, # of connection points: 2
#     Edge 12, Type (0, 0), BuildingBlock: MIFKUJ_clean_linker_0, # of connection points: 2
#     Edge 13, Type (0, 0), BuildingBlock: MIFKUJ_clean_linker_0, # of connection points: 2
#     Edge 14, Type (0, 0), BuildingBlock: MIFKUJ_clean_linker_0, # of connection points: 2
#     Edge 15, Type (0, 0), BuildingBlock: MIFKUJ_clean_linker_0, # of connection points: 2
#     Edge 16, Type (0, 0), BuildingBlock: MIFKUJ_clean_linker_0, # of connection points: 2
#     Edge 17, Type (0, 0), BuildingBlock: MIFKUJ_clean_linker_0, # of connection points: 2
#     Edge 18, Type (0, 0), BuildingBlock: MIFKUJ_clean_linker_0, # of connection points: 2
#     Edge 19, Type (0, 0), BuildingBlock: MIFKUJ_clean_linker_0, # of connection points: 2
#     Edge 20, Type (0, 0), BuildingBlock: MIFKUJ_clean_linker_0, # of connection points: 2
# Relax obj value: 0.162
# Max RMSD: 0.125
# Mean RMSD: 0.125
data_MOF--net-wli--node1-BEQFEK_clean_sbu_0--edge1-MIFKUJ_clean_linker_0
_symmetry_space_group_name_H-M    P1
_symmetry_Int_Tables_number       1
_symmetry_cell_setting            triclinic
loop_
_symmetry_equiv_pos_as_xyz
'x, y, z'
_cell_length_a     46.429646
_cell_length_b     46.43548
_cell_length_c     35.2777
_cell_angle_alpha  89.999303
_cell_angle_beta   90.040348
_cell_angle_gamma 119.97811
loop_
_atom_site_label
_atom_site_type_symbol
_atom_site_fract_x
_atom_site_fract_y
_atom_site_fract_z
_atom_type_partial_charge
Co0 Co 0.19507 0.42446 0.01154 0.0
Co1 Co 0.13594 0.37221 0.06078 0.0
C2 C 0.19217 0.36182 0.03634 0.0
O3 O 0.20667 0.38963 0.01926 0.0
O4 O 0.16468 0.3519 0.05355 0.0
C5 C 0.24346 0.45692 0.95488 0.0
O6 O 0.22771 0.42698 0.93999 0.0
C7 C 0.10383 0.33765 0.13138 0.0
C8 C 0.05064 0.31336 0.11583 0.0
C9 C 0.07197 0.31786 0.14558 0.0
N10 N 0.10135 0.34485 0.09505 0.0
N11 N 0.06952 0.32999 0.08583 0.0
C12 C 0.13614 0.34808 0.1511 0.0
H13 H 0.15611 0.35394 0.13011 0.0
H14 H 0.14339 0.37071 0.16816 0.0
H15 H 0.13364 0.32817 0.17058 0.0
C16 C 0.19971 0.46847 0.07439 0.0
N17 N 0.18621 0.43814 0.05849 0.0
N18 N 0.16006 0.41705 0.07822 0.0
C19 C 0.155 0.43382 0.10626 0.0
C20 C 0.18024 0.46694 0.10509 0.0
C21 C 0.23078 0.49812 0.06025 0.0
H22 H 0.24899 0.49054 0.05156 0.0
H23 H 0.24225 0.51766 0.08234 0.0
H24 H 0.22476 0.50843 0.03505 0.0
O25 O 0.15598 0.40822 0.97689 0.0
O26 O 0.11454 0.3714 0.01263 0.0
H27 H 0.11752 0.4396 0.13583 0.0
H28 H 0.12748 0.41042 0.15661 0.0
C29 C 0.12382 0.42001 0.12936 0.0
H30 H 0.1027 0.39958 0.11396 0.0
H31 H 0.06064 0.3316 0.05919 0.0
O32 O 0.23339 0.46206 0.98625 0.0
C33 C 0.12529 0.38701 0.98155 0.0
Co34 Co 0.57879 0.77033 0.67627 0.0
Co35 Co 0.63087 0.76736 0.73058 0.0
C36 C 0.6389 0.83208 0.70504 0.0
O37 O 0.61204 0.81718 0.68611 0.0
O38 O 0.64957 0.81602 0.72405 0.0
C39 C 0.52992 0.78837 0.66116 0.0
O40 O 0.54133 0.80473 0.69313 0.0
C41 C 0.66722 0.77232 0.80132 0.0
C42 C 0.68786 0.73972 0.78781 0.0
C43 C 0.68637 0.75965 0.81602 0.0
N44 N 0.6576 0.76013 0.76611 0.0
N45 N 0.67019 0.74083 0.75819 0.0
C46 C 0.65997 0.79719 0.81936 0.0
H47 H 0.65065 0.80812 0.79804 0.0
H48 H 0.64074 0.78501 0.84156 0.0
H49 H 0.68273 0.81708 0.83321 0.0
C50 C 0.53253 0.72532 0.73476 0.0
N51 N 0.56353 0.74583 0.72196 0.0
N52 N 0.58518 0.74475 0.74528 0.0
C53 C 0.56843 0.7234 0.77371 0.0
C54 C 0.53468 0.71079 0.76809 0.0
C55 C 0.50139 0.71831 0.71434 0.0
H56 H 0.50394 0.71495 0.68365 0.0
H57 H 0.49743 0.73979 0.71795 0.0
H58 H 0.47923 0.6959 0.7256 0.0
O59 O 0.59839 0.75018 0.64311 0.0
O60 O 0.63514 0.7486 0.6821 0.0
H61 H 0.60218 0.70657 0.78946 0.0
H62 H 0.56488 0.68945 0.81795 0.0
C63 C 0.58388 0.71201 0.80298 0.0
H64 H 0.597 0.732 0.82414 0.0
H65 H 0.66656 0.7282 0.73259 0.0
O66 O 0.54204 0.77103 0.64857 0.0
C67 C 0.62105 0.74303 0.64984 0.0
Co68 Co 0.23139 0.80746 0.34496 0.0
Co69 Co 0.24026 0.86712 0.39537 0.0
C70 C 0.17307 0.81323 0.37014 0.0
O71 O 0.18574 0.79804 0.35325 0.0
O72 O 0.19106 0.84058 0.38744 0.0
C73 C 0.20539 0.73911 0.32533 0.0
O74 O 0.18422 0.73421 0.35268 0.0
C75 C 0.23776 0.89994 0.46575 0.0
C76 C 0.27364 0.95257 0.45298 0.0
C77 C 0.2529 0.93177 0.48116 0.0
N78 N 0.2495 0.90197 0.43042 0.0
N79 N 0.2707 0.93352 0.42288 0.0
C80 C 0.21149 0.86827 0.48329 0.0
H81 H 0.19625 0.85017 0.46104 0.0
H82 H 0.22334 0.85698 0.50035 0.0
H83 H 0.19532 0.87316 0.50223 0.0
C84 C 0.2703 0.80093 0.40754 0.0
N85 N 0.25411 0.81522 0.39178 0.0
N86 N 0.2591 0.84096 0.41241 0.0
C87 C 0.27977 0.84456 0.44128 0.0
C88 C 0.28723 0.81909 0.43941 0.0
C89 C 0.26898 0.77017 0.39242 0.0
H90 H 0.24268 0.75034 0.38962 0.0
H91 H 0.28162 0.76087 0.41131 0.0
H92 H 0.28048 0.7753 0.36384 0.0
O93 O 0.25526 0.84674 0.311 0.0
O94 O 0.26141 0.88854 0.34724 0.0
H95 H 0.32006 0.87827 0.47787 0.0
H96 H 0.27951 0.87077 0.49102 0.0
C97 C 0.29603 0.87439 0.46668 0.0
H98 H 0.30071 0.89697 0.45098 0.0
H99 H 0.28356 0.94202 0.39735 0.0
O100 O 0.22831 0.76855 0.31789 0.0
C101 C 0.26569 0.8776 0.31593 0.0
Co102 Co 0.42844 0.18822 0.98984 0.0
Co103 Co 0.37618 0.13038 0.93843 0.0
C104 C 0.36489 0.18485 0.96556 0.0
O105 O 0.39284 0.19878 0.98238 0.0
O106 O 0.3546 0.15774 0.9474 0.0
C107 C 0.47308 0.25637 0.0055 0.0
O108 O 0.45892 0.26044 0.9753 0.0
C109 C 0.33687 0.09638 0.86994 0.0
C110 C 0.32625 0.04509 0.88051 0.0
C111 C 0.32177 0.06462 0.85408 0.0
N112 N 0.35 0.09543 0.90364 0.0
N113 N 0.34321 0.06463 0.9099 0.0
C114 C 0.33805 0.12694 0.85437 0.0
H115 H 0.34135 0.14446 0.87748 0.0
H116 H 0.35955 0.13977 0.83491 0.0
H117 H 0.31492 0.12034 0.83847 0.0
C118 C 0.47317 0.19313 0.92703 0.0
N119 N 0.44273 0.18017 0.94264 0.0
N120 N 0.42097 0.15594 0.92093 0.0
C121 C 0.43708 0.15238 0.89105 0.0
C122 C 0.47064 0.17595 0.89381 0.0
C123 C 0.50391 0.22154 0.94377 0.0
H124 H 0.5065 0.21598 0.97375 0.0
H125 H 0.5015 0.24409 0.9432 0.0
H126 H 0.52666 0.22719 0.92781 0.0
O127 O 0.41248 0.14885 0.02354 0.0
O128 O 0.37623 0.1084 0.98617 0.0
H129 H 0.40616 0.1006 0.87847 0.0
H130 H 0.44046 0.12209 0.8463 0.0
C131 C 0.42154 0.12431 0.86322 0.0
H132 H 0.40527 0.12844 0.84367 0.0
H133 H 0.35076 0.05706 0.93395 0.0
O134 O 0.46457 0.2271 0.01646 0.0
C135 C 0.39153 0.11829 0.0176 0.0
Co136 Co 0.81434 0.23954 0.65374 0.0
Co137 Co 0.87274 0.24619 0.60297 0.0
C138 C 0.81642 0.1799 0.62413 0.0
O139 O 0.80293 0.19359 0.64251 0.0
O140 O 0.84402 0.19704 0.60705 0.0
C141 C 0.74584 0.21669 0.66817 0.0
O142 O 0.74158 0.20003 0.63658 0.0
C143 C 0.90869 0.24566 0.5344 0.0
C144 C 0.96059 0.28073 0.55115 0.0
C145 C 0.94131 0.26131 0.52121 0.0
N146 N 0.90895 0.25577 0.57017 0.0
N147 N 0.94008 0.27632 0.58016 0.0
C148 C 0.87745 0.22365 0.51293 0.0
H149 H 0.8556 0.22218 0.5276 0.0
H150 H 0.8791 0.23302 0.48361 0.0
H151 H 0.87397 0.19824 0.51139 0.0
C152 C 0.81219 0.28341 0.59386 0.0
N153 N 0.82437 0.2648 0.60837 0.0
N154 N 0.849 0.26792 0.58692 0.0
C155 C 0.85362 0.28919 0.55838 0.0
C156 C 0.83028 0.29943 0.56164 0.0
C157 C 0.78336 0.28509 0.61037 0.0
H158 H 0.78775 0.29113 0.64101 0.0
H159 H 0.76066 0.26043 0.60746 0.0
H160 H 0.77871 0.30351 0.59584 0.0
O161 O 0.85266 0.26037 0.68945 0.0
O162 O 0.89312 0.26442 0.6524 0.0
H163 H 0.905 0.30672 0.5458 0.0
H164 H 0.88691 0.32652 0.51862 0.0
C165 C 0.88216 0.30263 0.53116 0.0
H166 H 0.87634 0.28453 0.50787 0.0
H167 H 0.94727 0.2881 0.60645 0.0
O168 O 0.77514 0.23612 0.68017 0.0
C169 C 0.88306 0.26898 0.68413 0.0
Co170 Co 0.76763 0.57941 0.3194 0.0
Co171 Co 0.75954 0.63046 0.26872 0.0
C172 C 0.82655 0.64087 0.28848 0.0
O173 O 0.81341 0.61389 0.30724 0.0
O174 O 0.80879 0.65075 0.27159 0.0
C175 C 0.79028 0.53356 0.33439 0.0
O176 O 0.8074 0.54616 0.30313 0.0
C177 C 0.7601 0.66711 0.20029 0.0
C178 C 0.72497 0.68391 0.21687 0.0
C179 C 0.74485 0.68456 0.18717 0.0
N180 N 0.74943 0.65669 0.23577 0.0
N181 N 0.72872 0.6671 0.24561 0.0
C182 C 0.7825 0.65822 0.17918 0.0
H183 H 0.78322 0.63721 0.19329 0.0
H184 H 0.77399 0.65147 0.14942 0.0
H185 H 0.80809 0.67993 0.17903 0.0
C186 C 0.72261 0.53281 0.26057 0.0
N187 N 0.7413 0.56369 0.27474 0.0
N188 N 0.73762 0.58493 0.2534 0.0
C189 C 0.71597 0.56803 0.22525 0.0
C190 C 0.70595 0.53452 0.2287 0.0
C191 C 0.72164 0.50255 0.27686 0.0
H192 H 0.74654 0.50507 0.27389 0.0
H193 H 0.70353 0.4794 0.26222 0.0
H194 H 0.71558 0.50066 0.30749 0.0
O195 O 0.74819 0.59783 0.35554 0.0
O196 O 0.74251 0.63345 0.31871 0.0
H197 H 0.69774 0.60133 0.21286 0.0
H198 H 0.67871 0.56373 0.1851 0.0
C199 C 0.70234 0.58298 0.19805 0.0
H200 H 0.72065 0.59583 0.1751 0.0
H201 H 0.71666 0.66222 0.27175 0.0
O202 O 0.77085 0.54355 0.34603 0.0
C203 C 0.73933 0.61946 0.35063 0.0
H204 H 0.23152 0.74027 0.25573 0.0
H205 H 0.22634 0.6929 0.21948 0.0
H206 H 0.1691 0.62661 0.31005 0.0
H207 H 0.17348 0.67376 0.34622 0.0
H208 H 0.22624 0.6205 0.27761 0.0
H209 H 0.12497 0.62023 0.24254 0.0
H210 H 0.09291 0.64591 0.21957 0.0
H211 H 0.14979 0.6752 0.11666 0.0
H212 H 0.1822 0.64953 0.13903 0.0
H213 H 0.17249 0.46782 0.18166 0.0
H214 H 0.17597 0.51322 0.22023 0.0
H215 H 0.20022 0.57476 0.12033 0.0
H216 H 0.19406 0.52856 0.08145 0.0
H217 H 0.15955 0.58352 0.15931 0.0
H218 H 0.25977 0.58338 0.19033 0.0
H219 H 0.29434 0.55982 0.2114 0.0
H220 H 0.24541 0.53584 0.31954 0.0
H221 H 0.21022 0.55887 0.29892 0.0
C222 C 0.21788 0.71562 0.26797 0.0
C223 C 0.20287 0.71067 0.30378 0.0
C224 C 0.2149 0.68864 0.24721 0.0
C225 C 0.19733 0.6564 0.26218 0.0
C226 C 0.18277 0.65139 0.29814 0.0
C227 C 0.1852 0.67829 0.31864 0.0
C228 C 0.19404 0.62791 0.24001 0.0
C229 C 0.21134 0.61199 0.252 0.0
C230 C 0.17546 0.61773 0.20608 0.0
C231 C 0.15619 0.6333 0.19262 0.0
C232 C 0.13082 0.6324 0.21515 0.0
C233 C 0.11253 0.64687 0.2022 0.0
C234 C 0.11942 0.66239 0.16679 0.0
C235 C 0.14451 0.66325 0.14412 0.0
C236 C 0.16278 0.64864 0.15687 0.0
C237 C 0.17829 0.49097 0.16797 0.0
C238 C 0.18341 0.4948 0.12863 0.0
C239 C 0.18072 0.51707 0.19008 0.0
C240 C 0.18908 0.54776 0.17338 0.0
C241 C 0.19398 0.55146 0.134 0.0
C242 C 0.19091 0.52517 0.11183 0.0
C243 C 0.19192 0.57577 0.19663 0.0
C244 C 0.17454 0.59178 0.18487 0.0
C245 C 0.21099 0.5864 0.23043 0.0
C246 C 0.23213 0.57254 0.24293 0.0
C247 C 0.25621 0.57285 0.2185 0.0
C248 C 0.27594 0.55963 0.23038 0.0
C249 C 0.27202 0.54626 0.26675 0.0
C250 C 0.24839 0.54616 0.29135 0.0
C251 C 0.22856 0.55932 0.2796 0.0
H252 H 0.28733 0.53604 0.2759 0.0
H253 H 0.10524 0.67364 0.15687 0.0
H254 H 0.49433 0.64695 0.74657 0.0
H255 H 0.44561 0.60402 0.78041 0.0
H256 H 0.46379 0.67329 0.87142 0.0
H257 H 0.51326 0.71586 0.83792 0.0
H258 H 0.44463 0.61334 0.89915 0.0
H259 H 0.40541 0.65744 0.80234 0.0
H260 H 0.40086 0.67395 0.73717 0.0
H261 H 0.35848 0.57266 0.70028 0.0
H262 H 0.36335 0.55562 0.76512 0.0
H263 H 0.28257 0.52115 0.97889 0.0
H264 H 0.33249 0.56514 0.94829 0.0
H265 H 0.32163 0.49777 0.858 0.0
H266 H 0.27151 0.45377 0.8881 0.0
H267 H 0.33663 0.55839 0.83099 0.0
H268 H 0.3779 0.5153 0.92843 0.0
H269 H 0.38316 0.49975 0.99385 0.0
H270 H 0.4212 0.60069 0.03002 0.0
H271 H 0.41574 0.61674 0.96488 0.0
C272 C 0.48794 0.65271 0.77398 0.0
C273 C 0.50699 0.68448 0.78973 0.0
C274 C 0.46012 0.62837 0.79317 0.0
C275 C 0.45063 0.63568 0.82806 0.0
C276 C 0.47054 0.66717 0.84445 0.0
C277 C 0.49864 0.69142 0.8254 0.0
C278 C 0.41946 0.61076 0.84685 0.0
C279 C 0.42094 0.60167 0.88442 0.0
C280 C 0.3886 0.59523 0.82745 0.0
C281 C 0.38499 0.60529 0.78856 0.0
C282 C 0.39529 0.63871 0.7803 0.0
C283 C 0.39265 0.64817 0.74341 0.0
C284 C 0.37944 0.62438 0.71459 0.0
C285 C 0.36874 0.59107 0.72263 0.0
C286 C 0.37141 0.58149 0.75945 0.0
C287 C 0.29074 0.51571 0.95246 0.0
C288 C 0.27314 0.48391 0.93599 0.0
C289 C 0.31935 0.54084 0.9351 0.0
C290 C 0.33097 0.53459 0.9011 0.0
C291 C 0.3131 0.50309 0.88426 0.0
C292 C 0.28451 0.47795 0.90157 0.0
C293 C 0.36189 0.56077 0.88313 0.0
C294 C 0.36032 0.57016 0.84572 0.0
C295 C 0.39259 0.57673 0.90276 0.0
C296 C 0.3961 0.56714 0.94186 0.0
C297 C 0.38715 0.53412 0.95039 0.0
C298 C 0.39021 0.52523 0.98741 0.0
C299 C 0.40242 0.5492 0.01609 0.0
C300 C 0.4117 0.58214 0.00779 0.0
C301 C 0.40866 0.59115 0.97082 0.0
H302 H 0.40476 0.54226 0.04474 0.0
H303 H 0.37744 0.63176 0.68604 0.0
H304 H 0.28968 0.8196 0.51657 0.0
H305 H 0.32913 0.81308 0.55701 0.0
H306 H 0.37625 0.80126 0.45759 0.0
H307 H 0.33781 0.8091 0.41712 0.0
H308 H 0.36088 0.75239 0.51766 0.0
H309 H 0.41325 0.87149 0.49747 0.0
H310 H 0.41438 0.92514 0.499 0.0
H311 H 0.39831 0.91584 0.61931 0.0
H312 H 0.39653 0.86183 0.61838 0.0
H313 H 0.51119 0.77097 0.58757 0.0
H314 H 0.46782 0.77476 0.55265 0.0
H315 H 0.44382 0.8118 0.65294 0.0
H316 H 0.48818 0.80932 0.6876 0.0
H317 H 0.44395 0.84612 0.5958 0.0
H318 H 0.39363 0.73013 0.61958 0.0
H319 H 0.38899 0.67488 0.62129 0.0
H320 H 0.39638 0.67535 0.49994 0.0
H321 H 0.40155 0.73084 0.49753 0.0
C322 C 0.30856 0.81573 0.50345 0.0
C323 C 0.31053 0.81445 0.46381 0.0
C324 C 0.33092 0.8119 0.5265 0.0
C325 C 0.35542 0.80655 0.51019 0.0
C326 C 0.35727 0.80504 0.47064 0.0
C327 C 0.33525 0.80935 0.44761 0.0
C328 C 0.3797 0.80328 0.53427 0.0
C329 C 0.3793 0.7729 0.53452 0.0
C330 C 0.40282 0.82976 0.55716 0.0
C331 C 0.40439 0.86246 0.55779 0.0
C332 C 0.40968 0.88075 0.5242 0.0
C333 C 0.41048 0.91125 0.52496 0.0
C334 C 0.40633 0.92385 0.55921 0.0
C335 C 0.40147 0.90603 0.59279 0.0
C336 C 0.40058 0.87548 0.59217 0.0
C337 C 0.49658 0.7798 0.60223 0.0
C338 C 0.50303 0.78978 0.64034 0.0
C339 C 0.47165 0.78179 0.58229 0.0
C340 C 0.4521 0.79303 0.60031 0.0
C341 C 0.45852 0.80301 0.63842 0.0
C342 C 0.48384 0.80152 0.65822 0.0
C343 C 0.42558 0.79517 0.57905 0.0
C344 C 0.42548 0.82538 0.57926 0.0
C345 C 0.40153 0.76827 0.55715 0.0
C346 C 0.39825 0.73479 0.55841 0.0
C347 C 0.3945 0.71856 0.59327 0.0
C348 C 0.39174 0.68718 0.59436 0.0
C349 C 0.39246 0.67165 0.56074 0.0
C350 C 0.39585 0.68743 0.52596 0.0
C351 C 0.39866 0.71883 0.52471 0.0
H352 H 0.39033 0.64736 0.56164 0.0
H353 H 0.40695 0.94746 0.55974 0.0
H354 H 0.47508 0.18321 0.81708 0.0
H355 H 0.52058 0.1893 0.77603 0.0
H356 H 0.57275 0.18292 0.874 0.0
H357 H 0.52689 0.17565 0.91481 0.0
H358 H 0.61146 0.23818 0.82379 0.0
H359 H 0.53696 0.119 0.82112 0.0
H360 H 0.48304 0.06819 0.81011 0.0
H361 H 0.4851 0.09557 0.69348 0.0
H362 H 0.53882 0.14686 0.70395 0.0
H363 H 0.74176 0.22341 0.74418 0.0
H364 H 0.69361 0.21569 0.78033 0.0
H365 H 0.63692 0.19475 0.67676 0.0
H366 H 0.68461 0.20047 0.64078 0.0
H367 H 0.5988 0.15504 0.7271 0.0
H368 H 0.67172 0.27253 0.72636 0.0
H369 H 0.72443 0.32523 0.73488 0.0
H370 H 0.72389 0.30473 0.85365 0.0
H371 H 0.67139 0.25168 0.84575 0.0
C372 C 0.49623 0.18294 0.82968 0.0
C373 C 0.49787 0.1795 0.86904 0.0
C374 C 0.5221 0.18642 0.80632 0.0
C375 C 0.54998 0.18667 0.82211 0.0
C376 C 0.55152 0.18304 0.8614 0.0
C377 C 0.52548 0.17909 0.88463 0.0
C378 C 0.57789 0.19119 0.79787 0.0
C379 C 0.60889 0.21991 0.80286 0.0
C380 C 0.57399 0.16785 0.76974 0.0
C381 C 0.54175 0.13695 0.76343 0.0
C382 C 0.52577 0.11436 0.79322 0.0
C383 C 0.49527 0.08544 0.78705 0.0
C384 C 0.48063 0.07869 0.75113 0.0
C385 C 0.49646 0.10085 0.72129 0.0
C386 C 0.52694 0.12984 0.72732 0.0
C387 C 0.71903 0.21726 0.72916 0.0
C388 C 0.71691 0.21278 0.68971 0.0
C389 C 0.69155 0.21303 0.7498 0.0
C390 C 0.66176 0.20543 0.73124 0.0
C391 C 0.6596 0.20072 0.69176 0.0
C392 C 0.68686 0.20409 0.67121 0.0
C393 C 0.63286 0.20204 0.75316 0.0
C394 C 0.60155 0.17355 0.74776 0.0
C395 C 0.63629 0.22597 0.78046 0.0
C396 C 0.66775 0.258 0.78538 0.0
C397 C 0.68294 0.27917 0.75425 0.0
C398 C 0.71277 0.30912 0.75897 0.0
C399 C 0.72753 0.31829 0.79476 0.0
C400 C 0.71244 0.29758 0.82593 0.0
C401 C 0.68263 0.26759 0.82136 0.0
H402 H 0.75063 0.34148 0.79836 0.0
H403 H 0.45709 0.05623 0.74639 0.0
H404 H 0.77743 0.5185 0.40935 0.0
H405 H 0.78539 0.47812 0.44584 0.0
H406 H 0.8181 0.45059 0.34484 0.0
H407 H 0.81111 0.49166 0.30823 0.0
H408 H 0.76484 0.39551 0.39719 0.0
H409 H 0.87548 0.49232 0.39293 0.0
H410 H 0.91578 0.55204 0.40067 0.0
H411 H 0.88978 0.5463 0.51832 0.0
H412 H 0.84891 0.48661 0.5111 0.0
H413 H 0.82439 0.29791 0.48492 0.0
H414 H 0.81862 0.33755 0.44428 0.0
H415 H 0.82235 0.3942 0.54308 0.0
H416 H 0.82978 0.35548 0.58342 0.0
H417 H 0.85769 0.43476 0.48948 0.0
H418 H 0.74816 0.34083 0.49711 0.0
H419 H 0.7047 0.28182 0.49264 0.0
H420 H 0.72392 0.28212 0.37355 0.0
H421 H 0.76786 0.34105 0.37743 0.0
C422 C 0.78619 0.50376 0.39487 0.0
C423 C 0.79376 0.50825 0.35599 0.0
C424 C 0.79077 0.4808 0.41574 0.0
C425 C 0.80236 0.46156 0.39793 0.0
C426 C 0.80913 0.46531 0.35896 0.0
C427 C 0.80525 0.48881 0.3382 0.0
C428 C 0.80801 0.438 0.42038 0.0
C429 C 0.78541 0.4039 0.41696 0.0
C430 C 0.83422 0.44928 0.44692 0.0
C431 C 0.85888 0.4851 0.45136 0.0
C432 C 0.8781 0.50387 0.42035 0.0
C433 C 0.90111 0.5377 0.42467 0.0
C434 C 0.90526 0.55298 0.45994 0.0
C435 C 0.88649 0.53444 0.491 0.0
C436 C 0.86342 0.50061 0.48682 0.0
C437 C 0.82409 0.31894 0.4978 0.0
C438 C 0.82685 0.32341 0.53724 0.0
C439 C 0.82056 0.34141 0.47466 0.0
C440 C 0.81937 0.36852 0.49068 0.0
C441 C 0.82294 0.37337 0.53008 0.0
C442 C 0.82681 0.35108 0.55314 0.0
C443 C 0.8145 0.39189 0.46644 0.0
C444 C 0.83719 0.4261 0.46959 0.0
C445 C 0.78796 0.38069 0.44012 0.0
C446 C 0.76155 0.34526 0.43765 0.0
C447 C 0.74331 0.32824 0.47003 0.0
C448 C 0.71856 0.29482 0.4676 0.0
C449 C 0.71162 0.2782 0.43286 0.0
C450 C 0.72936 0.29501 0.40046 0.0
C451 C 0.75418 0.32843 0.40275 0.0
H452 H 0.69243 0.25233 0.43102 0.0
H453 H 0.92309 0.57917 0.46323 0.0
H454 H 0.49035 0.25902 0.0798 0.0
H455 H 0.53028 0.30807 0.11576 0.0
H456 H 0.55315 0.36818 0.01506 0.0
H457 H 0.5125 0.31943 0.97907 0.0
H458 H 0.61057 0.37151 0.06633 0.0
H459 H 0.51201 0.38274 0.06329 0.0
H460 H 0.4521 0.36201 0.07183 0.0
H461 H 0.45973 0.3424 0.18927 0.0
H462 H 0.51964 0.36254 0.18124 0.0
H463 H 0.70638 0.52971 0.15192 0.0
H464 H 0.66671 0.48365 0.11202 0.0
H465 H 0.61201 0.43092 0.21183 0.0
H466 H 0.65071 0.47771 0.25143 0.0
H467 H 0.5703 0.42399 0.15881 0.0
H468 H 0.66632 0.41155 0.1652 0.0
H469 H 0.72568 0.42863 0.15974 0.0
H470 H 0.72304 0.44611 0.04059 0.0
H471 H 0.66373 0.42957 0.04545 0.0
C472 C 0.50399 0.28265 0.06529 0.0
C473 C 0.4983 0.2855 0.0267 0.0
C474 C 0.52668 0.31058 0.08585 0.0
C475 C 0.54445 0.34157 0.06796 0.0
C476 C 0.53955 0.34437 0.02923 0.0
C477 C 0.5163 0.3166 0.00883 0.0
C478 C 0.56774 0.37115 0.09005 0.0
C479 C 0.60194 0.38343 0.08615 0.0
C480 C 0.55617 0.38577 0.11663 0.0
C481 C 0.5202 0.37376 0.12155 0.0
C482 C 0.50084 0.37366 0.09083 0.0
C483 C 0.4669 0.3621 0.0956 0.0
C484 C 0.45209 0.35079 0.13104 0.0
C485 C 0.47122 0.35111 0.16181 0.0
C486 C 0.50517 0.36261 0.15717 0.0
C487 C 0.68574 0.5083 0.16517 0.0
C488 C 0.68182 0.50685 0.20468 0.0
C489 C 0.66326 0.48192 0.14246 0.0
C490 C 0.63673 0.45348 0.15897 0.0
C491 C 0.63239 0.45246 0.19844 0.0
C492 C 0.65466 0.47899 0.22108 0.0
C493 C 0.61353 0.42475 0.1352 0.0
C494 C 0.5792 0.41241 0.13887 0.0
C495 C 0.62502 0.40973 0.10883 0.0
C496 C 0.66067 0.41966 0.10578 0.0
C497 C 0.67846 0.41929 0.13789 0.0
C498 C 0.71209 0.42884 0.1349 0.0
C499 C 0.72815 0.43854 0.09986 0.0
C500 C 0.71058 0.43864 0.06773 0.0
C501 C 0.67695 0.42917 0.07058 0.0
H502 H 0.75418 0.44591 0.0976 0.0
H503 H 0.42581 0.34187 0.13468 0.0
H504 H 0.95034 0.3045 0.67735 0.0
H505 H 0.99151 0.32856 0.72767 0.0
H506 H 0.9132 0.29307 0.81107 0.0
H507 H 0.87149 0.26952 0.76041 0.0
H508 H 0.96211 0.35428 0.82856 0.0
H509 H 0.95544 0.25143 0.79417 0.0
H510 H 0.95549 0.20978 0.75085 0.0
H511 H 0.05542 0.27955 0.71697 0.0
H512 H 0.05581 0.3218 0.75973 0.0
H513 H 0.05777 0.35532 0.98662 0.0
H514 H 0.01772 0.3405 0.93517 0.0
H515 H 0.09797 0.38701 0.85458 0.0
H516 H 0.13851 0.40218 0.90614 0.0
H517 H 0.04901 0.32196 0.83531 0.0
H518 H 0.05537 0.42404 0.87372 0.0
H519 H 0.0542 0.46375 0.9192 0.0
H520 H 0.95337 0.39271 0.94844 0.0
H521 H 0.95409 0.35237 0.9035 0.0
C522 C 0.94176 0.30179 0.70637 0.0
C523 C 0.90762 0.28472 0.71495 0.0
C524 C 0.96538 0.31554 0.73512 0.0
C525 C 0.95544 0.312 0.77316 0.0
C526 C 0.92138 0.29592 0.78187 0.0
C527 C 0.8976 0.28243 0.75295 0.0
C528 C 0.98077 0.32445 0.80367 0.0
C529 C 0.98086 0.34691 0.83034 0.0
C530 C 0.00562 0.31529 0.80551 0.0
C531 C 0.00553 0.28988 0.77989 0.0
C532 C 0.97734 0.25797 0.77728 0.0
C533 C 0.9773 0.23425 0.75286 0.0
C534 C 0.00541 0.24204 0.7311 0.0
C535 C 0.03365 0.27356 0.7338 0.0
C536 C 0.0338 0.2974 0.75815 0.0
C537 C 0.067 0.36262 0.958 0.0
C538 C 0.10134 0.37982 0.9504 0.0
C539 C 0.04404 0.35429 0.92868 0.0
C540 C 0.05494 0.36287 0.8912 0.0
C541 C 0.08916 0.38031 0.88343 0.0
C542 C 0.11224 0.389 0.91287 0.0
C543 C 0.0304 0.35183 0.86005 0.0
C544 C 0.03038 0.32949 0.83336 0.0
C545 C 0.00544 0.36081 0.85852 0.0
C546 C 0.00489 0.38507 0.88546 0.0
C547 C 0.03304 0.41677 0.89007 0.0
C548 C 0.03244 0.43942 0.91571 0.0
C549 C 0.00376 0.43073 0.93676 0.0
C550 C 0.97558 0.3994 0.93214 0.0
C551 C 0.97606 0.37665 0.90655 0.0
H552 H 0.00334 0.4483 0.9566 0.0
H553 H 0.00533 0.22364 0.71221 0.0
H554 H 0.74877 0.61551 0.42662 0.0
H555 H 0.72799 0.63496 0.47868 0.0
H556 H 0.67654 0.6634 0.39823 0.0
H557 H 0.69843 0.64545 0.34624 0.0
H558 H 0.70637 0.71046 0.44645 0.0
H559 H 0.63621 0.59165 0.45723 0.0
H560 H 0.62419 0.5338 0.46389 0.0
H561 H 0.67662 0.55825 0.56995 0.0
H562 H 0.6893 0.61636 0.56369 0.0
H563 H 0.60219 0.73332 0.57516 0.0
H564 H 0.62135 0.7103 0.52527 0.0
H565 H 0.68302 0.69639 0.60619 0.0
H566 H 0.66399 0.71916 0.65625 0.0
H567 H 0.64862 0.64214 0.55927 0.0
H568 H 0.71782 0.76082 0.54822 0.0
H569 H 0.72881 0.81833 0.54166 0.0
H570 H 0.67666 0.79328 0.43542 0.0
H571 H 0.66492 0.73547 0.44162 0.0
C572 C 0.73283 0.6257 0.42016 0.0
C573 C 0.72524 0.62902 0.38243 0.0
C574 C 0.72085 0.63669 0.4499 0.0
C575 C 0.70036 0.65032 0.44242 0.0
C576 C 0.69238 0.65309 0.40473 0.0
C577 C 0.70485 0.64275 0.37504 0.0
C578 C 0.68804 0.66281 0.47356 0.0
C579 C 0.6933 0.69528 0.47082 0.0
C580 C 0.67176 0.64339 0.5059 0.0
C581 C 0.66396 0.60841 0.50981 0.0
C582 C 0.64535 0.58473 0.48185 0.0
C583 C 0.6384 0.55189 0.48557 0.0
C584 C 0.64971 0.54238 0.51728 0.0
C585 C 0.66791 0.56566 0.54539 0.0
C586 C 0.67496 0.59854 0.54179 0.0
C587 C 0.61973 0.72526 0.58239 0.0
C588 C 0.63169 0.72825 0.61966 0.0
C589 C 0.6307 0.71221 0.55385 0.0
C590 C 0.6538 0.70195 0.56207 0.0
C591 C 0.66521 0.70421 0.59933 0.0
C592 C 0.65438 0.71737 0.62784 0.0
C593 C 0.66657 0.68942 0.53169 0.0
C594 C 0.66156 0.65712 0.53473 0.0
C595 C 0.68291 0.70889 0.49951 0.0
C596 C 0.69022 0.74373 0.49557 0.0
C597 C 0.70848 0.76751 0.5236 0.0
C598 C 0.71488 0.80017 0.51993 0.0
C599 C 0.70337 0.80943 0.4882 0.0
C600 C 0.68552 0.78606 0.46001 0.0
C601 C 0.67901 0.75335 0.46357 0.0
H602 H 0.70834 0.83472 0.48541 0.0
H603 H 0.64431 0.51695 0.5201 0.0
H604 H 0.3667 0.05177 0.00923 0.0
H605 H 0.35042 0.01004 0.05902 0.0
H606 H 0.38168 0.08679 0.14406 0.0
H607 H 0.39938 0.12893 0.09415 0.0
H608 H 0.39727 0.04244 0.16597 0.0
H609 H 0.29841 0.03753 0.11659 0.0
H610 H 0.25881 0.03247 0.06682 0.0
H611 H 0.24246 0.9357 0.03736 0.0
H612 H 0.28232 0.94037 0.08665 0.0
H613 H 0.29695 0.94535 0.3191 0.0
H614 H 0.32293 0.98473 0.26729 0.0
H615 H 0.29915 0.90374 0.19021 0.0
H616 H 0.2728 0.86389 0.242 0.0
H617 H 0.28127 0.9481 0.16292 0.0
H618 H 0.37806 0.95273 0.21784 0.0
H619 H 0.41633 0.95894 0.26977 0.0
H620 H 0.4348 0.05772 0.29158 0.0
H621 H 0.39627 0.05195 0.24011 0.0
C622 C 0.37032 0.05979 0.03855 0.0
C623 C 0.38396 0.09356 0.04786 0.0
C624 C 0.3609 0.0359 0.06698 0.0
C625 C 0.36406 0.04517 0.10528 0.0
C626 C 0.37885 0.07903 0.11468 0.0
C627 C 0.38889 0.10308 0.08618 0.0
C628 C 0.35084 0.01948 0.13544 0.0
C629 C 0.37182 0.022 0.16549 0.0
C630 C 0.31778 0.99242 0.13448 0.0
C631 C 0.29359 0.98944 0.10505 0.0
C632 C 0.28653 0.01526 0.09933 0.0
C633 C 0.26402 0.01245 0.07123 0.0
C634 C 0.24819 0.98382 0.04887 0.0
C635 C 0.25477 0.95789 0.05466 0.0
C636 C 0.27729 0.96058 0.08269 0.0
C637 C 0.29736 0.93581 0.29121 0.0
C638 C 0.28272 0.90142 0.28469 0.0
C639 C 0.31242 0.95842 0.26167 0.0
C640 C 0.31323 0.94715 0.22504 0.0
C641 C 0.29886 0.91289 0.21837 0.0
C642 C 0.28388 0.8902 0.24799 0.0
C643 C 0.32764 0.97117 0.19344 0.0
C644 C 0.30682 0.96838 0.16318 0.0
C645 C 0.36066 0.99816 0.19451 0.0
C646 C 0.38407 0.0018 0.22529 0.0
C647 C 0.39009 0.97569 0.23388 0.0
C648 C 0.41187 0.97915 0.26321 0.0
C649 C 0.42794 0.00868 0.28401 0.0
C650 C 0.42233 0.03486 0.27545 0.0
C651 C 0.40055 0.03152 0.24617 0.0
H652 H 0.44478 0.01131 0.30671 0.0
H653 H 0.23079 0.9817 0.02712 0.0
H654 H 0.29686 0.15413 0.9638 0.0
H655 H 0.26262 0.17929 0.97829 0.0
H656 H 0.35138 0.27533 0.98905 0.0
H657 H 0.38548 0.25011 0.97633 0.0
H658 H 0.31398 0.26669 0.04596 0.0
H659 H 0.29512 0.25121 0.91114 0.0
H660 H 0.27807 0.21931 0.85143 0.0
H661 H 0.17957 0.15789 0.89546 0.0
H662 H 0.19617 0.18918 0.95564 0.0
H663 H 0.25675 0.38071 0.0217 0.0
H664 H 0.28103 0.34506 0.01359 0.0
H665 H 0.18597 0.25858 0.03724 0.0
H666 H 0.16139 0.29428 0.04604 0.0
H667 H 0.21969 0.25555 0.96863 0.0
H668 H 0.23973 0.27846 0.10145 0.0
H669 H 0.25886 0.31383 0.15851 0.0
H670 H 0.35837 0.36543 0.11455 0.0
H671 H 0.33973 0.33075 0.05691 0.0
C672 C 0.30893 0.18067 0.96876 0.0
C673 C 0.34379 0.20016 0.96911 0.0
C674 C 0.28937 0.19505 0.97699 0.0
C675 C 0.30439 0.22927 0.98475 0.0
C676 C 0.33918 0.24885 0.98357 0.0
C677 C 0.35866 0.23444 0.9761 0.0
C678 C 0.28437 0.24483 0.9958 0.0
C679 C 0.29356 0.26443 0.02878 0.0
C680 C 0.25699 0.24109 0.97417 0.0
C681 C 0.247 0.22227 0.93804 0.0
C682 C 0.2699 0.23072 0.9082 0.0
C683 C 0.26031 0.21279 0.87425 0.0
C684 C 0.22779 0.18652 0.8697 0.0
C685 C 0.20477 0.1782 0.89905 0.0
C686 C 0.21425 0.19603 0.93307 0.0
C687 C 0.24102 0.35414 0.02554 0.0
C688 C 0.20715 0.34028 0.03449 0.0
C689 C 0.25496 0.33384 0.02096 0.0
C690 C 0.23526 0.29927 0.02488 0.0
C691 C 0.20151 0.28525 0.03415 0.0
C692 C 0.1876 0.30566 0.03936 0.0
C693 C 0.25012 0.27806 0.01792 0.0
C694 C 0.23989 0.25737 0.98589 0.0
C695 C 0.27694 0.28123 0.04 0.0
C696 C 0.28825 0.30215 0.07469 0.0
C697 C 0.26563 0.29755 0.10378 0.0
C698 C 0.2764 0.31744 0.13626 0.0
C699 C 0.30979 0.34191 0.14012 0.0
C700 C 0.3325 0.34649 0.11152 0.0
C701 C 0.32185 0.3267 0.07894 0.0
H702 H 0.31809 0.35727 0.1653 0.0
H703 H 0.22041 0.17267 0.8434 0.0
H704 H 0.75034 0.13575 0.6245 0.0
H705 H 0.72328 0.07623 0.63737 0.0
H706 H 0.81914 0.08247 0.64256 0.0
H707 H 0.84627 0.14201 0.62762 0.0
H708 H 0.77526 0.02492 0.61313 0.0
H709 H 0.77842 0.08541 0.72409 0.0
H710 H 0.77019 0.1257 0.76125 0.0
H711 H 0.66491 0.06836 0.74188 0.0
H712 H 0.67256 0.02795 0.70413 0.0
H713 H 0.70573 0.8718 0.71751 0.0
H714 H 0.73953 0.93165 0.70503 0.0
H715 H 0.6512 0.93454 0.67378 0.0
H716 H 0.61739 0.87491 0.68566 0.0
H717 H 0.69621 0.98804 0.72112 0.0
H718 H 0.69526 0.92986 0.60628 0.0
H719 H 0.70465 0.88987 0.57005 0.0
H720 H 0.80813 0.94335 0.60005 0.0
H721 H 0.79922 0.9834 0.63695 0.0
C722 C 0.76557 0.12426 0.62764 0.0
C723 C 0.80035 0.1434 0.62545 0.0
C724 C 0.75014 0.09033 0.63528 0.0
C725 C 0.76924 0.07511 0.64224 0.0
C726 C 0.80392 0.09376 0.63768 0.0
C727 C 0.81939 0.1277 0.62908 0.0
C728 C 0.75298 0.04035 0.65632 0.0
C729 C 0.75842 0.01701 0.63713 0.0
C730 C 0.7309 0.02991 0.68764 0.0
C731 C 0.72611 0.05376 0.71107 0.0
C732 C 0.75353 0.08146 0.72763 0.0
C733 C 0.74897 0.10432 0.74879 0.0
C734 C 0.71705 0.09963 0.75386 0.0
C735 C 0.68962 0.07197 0.73791 0.0
C736 C 0.69405 0.04905 0.71667 0.0
C737 C 0.6935 0.88531 0.70852 0.0
C738 C 0.65895 0.86867 0.70235 0.0
C739 C 0.71283 0.9194 0.70124 0.0
C740 C 0.69781 0.93732 0.68818 0.0
C741 C 0.6632 0.92107 0.68377 0.0
C742 C 0.64396 0.88701 0.69049 0.0
C743 C 0.71805 0.97272 0.67748 0.0
C744 C 0.71338 0.99615 0.69742 0.0
C745 C 0.74108 0.98325 0.64722 0.0
C746 C 0.7465 0.95939 0.62473 0.0
C747 C 0.71995 0.93293 0.60542 0.0
C748 C 0.7252 0.91028 0.58471 0.0
C749 C 0.75694 0.914 0.58285 0.0
C750 C 0.78353 0.94046 0.60158 0.0
C751 C 0.77841 0.96315 0.62238 0.0
H752 H 0.76095 0.89644 0.56681 0.0
H753 H 0.71358 0.11739 0.7702 0.0
H754 H 0.12567 0.74821 0.36994 0.0
H755 H 0.06693 0.7245 0.35437 0.0
H756 H 0.08036 0.82314 0.34482 0.0
H757 H 0.13915 0.84701 0.36244 0.0
H758 H 0.02059 0.78174 0.37314 0.0
H759 H 0.08193 0.78001 0.26524 0.0
H760 H 0.12153 0.76868 0.23099 0.0
H761 H 0.05949 0.66419 0.2524 0.0
H762 H 0.01986 0.67493 0.28713 0.0
H763 H 0.86424 0.70775 0.27393 0.0
H764 H 0.92441 0.74316 0.28353 0.0
H765 H 0.93128 0.65692 0.31445 0.0
H766 H 0.87159 0.62158 0.30508 0.0
H767 H 0.98256 0.70024 0.26747 0.0
H768 H 0.92561 0.70393 0.38186 0.0
H769 H 0.8864 0.71539 0.41675 0.0
H770 H 0.94043 0.81743 0.38122 0.0
H771 H 0.97971 0.80642 0.34568 0.0
C772 C 0.11593 0.76481 0.36523 0.0
C773 C 0.13689 0.79939 0.367 0.0
C774 C 0.08245 0.75128 0.35605 0.0
C775 C 0.06952 0.77208 0.3471 0.0
C776 C 0.08991 0.80664 0.35119 0.0
C777 C 0.1234 0.82024 0.36132 0.0
C778 C 0.03529 0.75749 0.33165 0.0
C779 C 0.01245 0.76443 0.34956 0.0
C780 C 0.02458 0.7349 0.3008 0.0
C781 C 0.04799 0.7283 0.27892 0.0
C782 C 0.0768 0.75463 0.26269 0.0
C783 C 0.09928 0.74831 0.2432 0.0
C784 C 0.0931 0.71574 0.23952 0.0
C785 C 0.06433 0.68941 0.25518 0.0
C786 C 0.04181 0.69559 0.27472 0.0
C787 C 0.87871 0.69632 0.28215 0.0
C788 C 0.86316 0.66192 0.28902 0.0
C789 C 0.91299 0.71658 0.28782 0.0
C790 C 0.93215 0.70265 0.30009 0.0
C791 C 0.91691 0.66815 0.30505 0.0
C792 C 0.88276 0.64801 0.29979 0.0
C793 C 0.96778 0.72371 0.30972 0.0
C794 C 0.99092 0.71807 0.29056 0.0
C795 C 0.97874 0.74762 0.33913 0.0
C796 C 0.95533 0.75427 0.36077 0.0
C797 C 0.92897 0.72874 0.38126 0.0
C798 C 0.90676 0.73516 0.40119 0.0
C799 C 0.91086 0.7671 0.4011 0.0
C800 C 0.93724 0.7927 0.38119 0.0
C801 C 0.95949 0.78639 0.36117 0.0
H802 H 0.89364 0.77202 0.41654 0.0
H803 H 0.11059 0.71094 0.22453 0.0
H804 H 0.99387 0.31345 0.48774 0.0
H805 H 0.01475 0.31715 0.42365 0.0
H806 H 0.93896 0.21555 0.40249 0.0
H807 H 0.91857 0.21117 0.46751 0.0
H808 H -0.00021 0.23031 0.37263 0.0
H809 H 0.92794 0.27555 0.36847 0.0
H810 H 0.90462 0.31041 0.38912 0.0
H811 H 0.99836 0.39848 0.36804 0.0
H812 H 0.02244 0.36412 0.34788 0.0
H813 H 0.0213 0.25824 0.16914 0.0
H814 H 0.99882 0.24296 0.23361 0.0
H815 H 0.07497 0.33863 0.27438 0.0
H816 H 0.09739 0.35398 0.21028 0.0
H817 H 0.00865 0.32191 0.29186 0.0
H818 H 0.0803 0.27441 0.29845 0.0
H819 H 0.10183 0.23814 0.27725 0.0
H820 H 0.00505 0.15228 0.29149 0.0
H821 H 0.98281 0.18811 0.31226 0.0
C822 C 0.98169 0.29174 0.46964 0.0
C823 C 0.95396 0.26227 0.48246 0.0
C824 C 0.99358 0.29398 0.43292 0.0
C825 C 0.97794 0.26686 0.40811 0.0
C826 C 0.95108 0.23689 0.42113 0.0
C827 C 0.93914 0.2346 0.4581 0.0
C828 C 0.98948 0.27058 0.36837 0.0
C829 C 0.00122 0.24995 0.35468 0.0
C830 C 0.99152 0.29638 0.34515 0.0
C831 C 0.97708 0.31722 0.35693 0.0
C832 C 0.94367 0.30235 0.3685 0.0
C833 C 0.9303 0.32202 0.38009 0.0
C834 C 0.95002 0.35664 0.37996 0.0
C835 C 0.98313 0.37166 0.36815 0.0
C836 C 0.99664 0.35209 0.3566 0.0
C837 C 0.03359 0.27567 0.19209 0.0
C838 C 0.06143 0.30703 0.18492 0.0
C839 C 0.0208 0.26692 0.22878 0.0
C840 C 0.03538 0.28964 0.25864 0.0
C841 C 0.06358 0.3207 0.25166 0.0
C842 C 0.07661 0.32928 0.21512 0.0
C843 C 0.01976 0.28225 0.29653 0.0
C844 C 0.00703 0.30213 0.30973 0.0
C845 C 0.01646 0.25553 0.31896 0.0
C846 C 0.0298 0.23398 0.30647 0.0
C847 C 0.06352 0.24783 0.29669 0.0
C848 C 0.07587 0.22734 0.28484 0.0
C849 C 0.0548 0.19293 0.28291 0.0
C850 C 0.02134 0.17894 0.29293 0.0
C851 C 0.00885 0.19932 0.30477 0.0
H852 H 0.06441 0.17711 0.27375 0.0
H853 H 0.93962 0.37183 0.38894 0.0
H854 H 0.7471 0.76909 0.83523 0.0
H855 H 0.76702 0.76661 0.89881 0.0
H856 H 0.67533 0.75255 0.94665 0.0
H857 H 0.65574 0.75561 0.88341 0.0
H858 H 0.72547 0.79022 0.99226 0.0
H859 H 0.68756 0.68644 0.92531 0.0
H860 H 0.68714 0.6512 0.87275 0.0
H861 H 0.78974 0.68251 0.89401 0.0
H862 H 0.79086 0.71829 0.94642 0.0
H863 H 0.69576 0.69085 0.15372 0.0
H864 H 0.69576 0.7135 0.09149 0.0
H865 H 0.7957 0.7333 0.07201 0.0
H866 H 0.79641 0.71164 0.13498 0.0
H867 H 0.7519 0.70009 0.01191 0.0
H868 H 0.78513 0.79697 0.08722 0.0
H869 H 0.78233 0.82934 0.14105 0.0
H870 H 0.68524 0.80824 0.10547 0.0
H871 H 0.68723 0.77532 0.05172 0.0
C872 C 0.73157 0.76617 0.85949 0.0
C873 C 0.7001 0.763 0.85452 0.0
C874 C 0.74287 0.76461 0.89572 0.0
C875 C 0.72246 0.75891 0.92746 0.0
C876 C 0.6916 0.75716 0.92263 0.0
C877 C 0.68049 0.75916 0.88645 0.0
C878 C 0.73189 0.7522 0.96526 0.0
C879 C 0.73116 0.77046 0.99658 0.0
C880 C 0.74009 0.72691 0.97081 0.0
C881 C 0.7394 0.70533 0.93944 0.0
C882 C 0.71009 0.68598 0.91859 0.0
C883 C 0.70971 0.66589 0.88886 0.0
C884 C 0.73842 0.6647 0.87997 0.0
C885 C 0.76754 0.68352 0.90088 0.0
C886 C 0.76806 0.7037 0.93059 0.0
C887 C 0.71791 0.70021 0.13641 0.0
C888 C 0.74582 0.69868 0.14916 0.0
C889 C 0.71786 0.71323 0.10085 0.0
C890 C 0.74578 0.72521 0.07726 0.0
C891 C 0.77385 0.72401 0.08981 0.0
C892 C 0.77402 0.71117 0.12567 0.0
C893 C 0.74472 0.7376 0.03892 0.0
C894 C 0.74693 0.72033 0.0075 0.0
C895 C 0.73749 0.76351 0.03337 0.0
C896 C 0.73627 0.78349 0.06554 0.0
C897 C 0.76308 0.79903 0.09101 0.0
C898 C 0.76165 0.81751 0.12149 0.0
C899 C 0.73361 0.8208 0.12671 0.0
C900 C 0.70695 0.80567 0.10139 0.0
C901 C 0.70824 0.78713 0.07088 0.0
H902 H 0.73255 0.83512 0.15033 0.0
H903 H 0.73809 0.64912 0.85695 0.0
H904 H 0.27588 0.00146 0.83477 0.0
H905 H 0.25706 0.97894 0.77125 0.0
H906 H 0.31376 0.0772 0.72387 0.0
H907 H 0.33452 0.09978 0.78666 0.0
H908 H 0.23696 0.0221 0.69527 0.0
H909 H 0.35387 0.05156 0.70931 0.0
H910 H 0.39953 0.05255 0.74608 0.0
H911 H 0.34476 0.94601 0.75403 0.0
H912 H 0.29843 0.94453 0.7179 0.0
H913 H 0.25748 0.99017 0.50211 0.0
H914 H 0.26136 0.01156 0.56635 0.0
H915 H 0.24874 0.91983 0.61224 0.0
H916 H 0.2462 0.89891 0.54823 0.0
H917 H 0.30051 0.97119 0.64316 0.0
H918 H 0.18741 0.94072 0.62032 0.0
H919 H 0.14026 0.93864 0.58573 0.0
H920 H 0.18498 0.04464 0.59523 0.0
H921 H 0.23267 0.04742 0.62943 0.0
C922 C 0.28402 0.01847 0.81097 0.0
C923 C 0.30643 0.05262 0.81621 0.0
C924 C 0.27303 0.00552 0.77476 0.0
C925 C 0.28387 0.02651 0.74314 0.0
C926 C 0.30476 0.06078 0.74818 0.0
C927 C 0.31635 0.07371 0.78437 0.0
C928 C 0.27682 0.012 0.70475 0.0
C929 C 0.251 0.0113 0.68347 0.0
C930 C 0.29467 0.99723 0.69016 0.0
C931 C 0.32257 0.99797 0.71139 0.0
C932 C 0.35143 0.02838 0.71926 0.0
C933 C 0.37746 0.02903 0.7399 0.0
C934 C 0.37503 0.99936 0.75247 0.0
C935 C 0.34658 0.96898 0.74434 0.0
C936 C 0.32043 0.96822 0.7238 0.0
C937 C 0.25501 0.97437 0.52593 0.0
C938 C 0.25084 0.94256 0.52003 0.0
C939 C 0.25702 0.98654 0.56262 0.0
C940 C 0.25491 0.96713 0.59414 0.0
C941 C 0.25011 0.93511 0.58833 0.0
C942 C 0.24816 0.92295 0.55163 0.0
C943 C 0.26055 0.98128 0.63293 0.0
C944 C 0.28623 0.98189 0.65458 0.0
C945 C 0.24243 0.99587 0.64772 0.0
C946 C 0.21379 0.99431 0.62714 0.0
C947 C 0.18735 0.96363 0.61475 0.0
C948 C 0.16049 0.96231 0.59527 0.0
C949 C 0.15966 0.9915 0.5882 0.0
C950 C 0.18567 0.02205 0.60069 0.0
C951 C 0.21261 0.02351 0.62016 0.0
H952 H 0.13884 0.99042 0.57312 0.0
H953 H 0.39522 -9e-05 0.76842 0.0
loop_
_geom_bond_atom_site_label_1
_geom_bond_atom_site_label_2
_geom_bond_distance
_geom_bond_site_symmetry_2
_ccdc_geom_bond_type
Co0 O3 1.970 1_556 S
Co0 N17 1.989 1_556 S
Co0 O25 1.967 . S
Co0 O32 1.920 . S
Co1 O4 1.966 . S
Co1 N10 2.022 . S
Co1 N18 1.993 . S
Co1 O26 1.941 . S
C2 O3 1.258 . S
C2 O4 1.263 . S
O3 Co0 1.970 1_554 S
O3 C2 1.258 . S
O4 Co1 1.966 . S
O4 C2 1.263 . S
C5 O6 1.235 . S
C5 O32 1.289 . S
O6 C5 1.235 . S
C7 C9 1.400 . S
C7 N10 1.351 . S
C7 C12 1.501 . S
C8 C9 1.387 . S
C8 N11 1.341 . S
C9 C7 1.400 . S
C9 C8 1.387 . S
N10 Co1 2.022 . S
N10 C7 1.351 . S
N10 N11 1.365 . S
N11 C8 1.341 . S
N11 N10 1.365 . S
N11 H31 0.862 . S
C12 C7 1.501 . S
C12 H13 0.961 . S
C12 H14 0.961 . S
C12 H15 0.960 . S
H13 C12 0.961 . S
H14 C12 0.961 . S
H15 C12 0.960 . S
C16 N17 1.342 . S
C16 C20 1.401 . S
C16 C21 1.499 . S
N17 Co0 1.989 1_554 S
N17 C16 1.342 . S
N17 N18 1.388 . S
N18 Co1 1.993 . S
N18 N17 1.388 . S
N18 C19 1.346 . S
C19 N18 1.346 . S
C19 C20 1.396 . S
C19 C29 1.510 . S
C20 C16 1.401 . S
C20 C19 1.396 . S
C21 C16 1.499 . S
C21 H22 0.959 . S
C21 H23 0.960 . S
C21 H24 0.961 . S
H22 C21 0.959 . S
H23 C21 0.960 . S
H24 C21 0.961 . S
O25 Co0 1.967 . S
O25 C33 1.258 . S
O26 Co1 1.941 . S
O26 C33 1.266 1_554 S
H27 C29 0.959 . S
H28 C29 0.961 . S
C29 C19 1.510 . S
C29 H27 0.959 . S
C29 H28 0.961 . S
C29 H30 0.960 . S
H30 C29 0.960 . S
H31 N11 0.862 . S
O32 Co0 1.920 . S
O32 C5 1.289 . S
C33 O25 1.258 . S
C33 O26 1.266 1_556 S
Co34 O37 1.970 . S
Co34 N51 1.989 . S
Co34 O59 1.967 . S
Co34 O66 1.920 . S
Co35 O38 1.966 . S
Co35 N44 2.022 . S
Co35 N52 1.993 . S
Co35 O60 1.941 . S
C36 O37 1.258 . S
C36 O38 1.263 . S
O37 Co34 1.970 . S
O37 C36 1.258 . S
O38 Co35 1.966 . S
O38 C36 1.263 . S
C39 O40 1.235 . S
C39 O66 1.289 . S
O40 C39 1.235 . S
C41 C43 1.400 . S
C41 N44 1.351 . S
C41 C46 1.501 . S
C42 C43 1.387 . S
C42 N45 1.341 . S
C43 C41 1.400 . S
C43 C42 1.387 . S
N44 Co35 2.022 . S
N44 C41 1.351 . S
N44 N45 1.365 . S
N45 C42 1.341 . S
N45 N44 1.365 . S
N45 H65 0.862 . S
C46 C41 1.501 . S
C46 H47 0.961 . S
C46 H48 0.961 . S
C46 H49 0.960 . S
H47 C46 0.961 . S
H48 C46 0.961 . S
H49 C46 0.960 . S
C50 N51 1.342 . S
C50 C54 1.401 . S
C50 C55 1.499 . S
N51 Co34 1.989 . S
N51 C50 1.342 . S
N51 N52 1.388 . S
N52 Co35 1.993 . S
N52 N51 1.388 . S
N52 C53 1.346 . S
C53 N52 1.346 . S
C53 C54 1.396 . S
C53 C63 1.510 . S
C54 C50 1.401 . S
C54 C53 1.396 . S
C55 C50 1.499 . S
C55 H56 0.959 . S
C55 H57 0.960 . S
C55 H58 0.961 . S
H56 C55 0.959 . S
H57 C55 0.960 . S
H58 C55 0.961 . S
O59 Co34 1.967 . S
O59 C67 1.258 . S
O60 Co35 1.941 . S
O60 C67 1.266 . S
H61 C63 0.959 . S
H62 C63 0.961 . S
C63 C53 1.510 . S
C63 H61 0.959 . S
C63 H62 0.961 . S
C63 H64 0.960 . S
H64 C63 0.960 . S
H65 N45 0.862 . S
O66 Co34 1.920 . S
O66 C39 1.289 . S
C67 O59 1.258 . S
C67 O60 1.266 . S
Co68 O71 1.970 . S
Co68 N85 1.989 . S
Co68 O93 1.967 . S
Co68 O100 1.920 . S
Co69 O72 1.966 . S
Co69 N78 2.022 . S
Co69 N86 1.993 . S
Co69 O94 1.941 . S
C70 O71 1.258 . S
C70 O72 1.263 . S
O71 Co68 1.970 . S
O71 C70 1.258 . S
O72 Co69 1.966 . S
O72 C70 1.263 . S
C73 O74 1.235 . S
C73 O100 1.289 . S
O74 C73 1.235 . S
C75 C77 1.400 . S
C75 N78 1.351 . S
C75 C80 1.501 . S
C76 C77 1.387 . S
C76 N79 1.341 . S
C77 C75 1.400 . S
C77 C76 1.387 . S
N78 Co69 2.022 . S
N78 C75 1.351 . S
N78 N79 1.365 . S
N79 C76 1.341 . S
N79 N78 1.365 . S
N79 H99 0.862 . S
C80 C75 1.501 . S
C80 H81 0.961 . S
C80 H82 0.961 . S
C80 H83 0.960 . S
H81 C80 0.961 . S
H82 C80 0.961 . S
H83 C80 0.960 . S
C84 N85 1.342 . S
C84 C88 1.401 . S
C84 C89 1.499 . S
N85 Co68 1.989 . S
N85 C84 1.342 . S
N85 N86 1.388 . S
N86 Co69 1.993 . S
N86 N85 1.388 . S
N86 C87 1.346 . S
C87 N86 1.346 . S
C87 C88 1.396 . S
C87 C97 1.510 . S
C88 C84 1.401 . S
C88 C87 1.396 . S
C89 C84 1.499 . S
C89 H90 0.959 . S
C89 H91 0.960 . S
C89 H92 0.961 . S
H90 C89 0.959 . S
H91 C89 0.960 . S
H92 C89 0.961 . S
O93 Co68 1.967 . S
O93 C101 1.258 . S
O94 Co69 1.941 . S
O94 C101 1.266 . S
H95 C97 0.959 . S
H96 C97 0.961 . S
C97 C87 1.510 . S
C97 H95 0.959 . S
C97 H96 0.961 . S
C97 H98 0.960 . S
H98 C97 0.960 . S
H99 N79 0.862 . S
O100 Co68 1.920 . S
O100 C73 1.289 . S
C101 O93 1.258 . S
C101 O94 1.266 . S
Co102 O105 1.970 1_554 S
Co102 N119 1.989 1_554 S
Co102 O127 1.967 . S
Co102 O134 1.920 . S
Co103 O106 1.966 . S
Co103 N112 2.022 . S
Co103 N120 1.993 . S
Co103 O128 1.941 . S
C104 O105 1.258 . S
C104 O106 1.263 . S
O105 Co102 1.970 1_556 S
O105 C104 1.258 . S
O106 Co103 1.966 . S
O106 C104 1.263 . S
C107 O108 1.235 . S
C107 O134 1.289 . S
O108 C107 1.235 . S
C109 C111 1.400 . S
C109 N112 1.351 . S
C109 C114 1.501 . S
C110 C111 1.387 . S
C110 N113 1.341 . S
C111 C109 1.400 . S
C111 C110 1.387 . S
N112 Co103 2.022 . S
N112 C109 1.351 . S
N112 N113 1.365 . S
N113 C110 1.341 . S
N113 N112 1.365 . S
N113 H133 0.862 . S
C114 C109 1.501 . S
C114 H115 0.961 . S
C114 H116 0.961 . S
C114 H117 0.960 . S
H115 C114 0.961 . S
H116 C114 0.961 . S
H117 C114 0.960 . S
C118 N119 1.342 . S
C118 C122 1.401 . S
C118 C123 1.499 . S
N119 Co102 1.989 1_556 S
N119 C118 1.342 . S
N119 N120 1.388 . S
N120 Co103 1.993 . S
N120 N119 1.388 . S
N120 C121 1.346 . S
C121 N120 1.346 . S
C121 C122 1.396 . S
C121 C131 1.510 . S
C122 C118 1.401 . S
C122 C121 1.396 . S
C123 C118 1.499 . S
C123 H124 0.959 . S
C123 H125 0.960 . S
C123 H126 0.961 . S
H124 C123 0.959 . S
H125 C123 0.960 . S
H126 C123 0.961 . S
O127 Co102 1.967 . S
O127 C135 1.258 . S
O128 Co103 1.941 . S
O128 C135 1.266 1_556 S
H129 C131 0.959 . S
H130 C131 0.961 . S
C131 C121 1.510 . S
C131 H129 0.959 . S
C131 H130 0.961 . S
C131 H132 0.960 . S
H132 C131 0.960 . S
H133 N113 0.862 . S
O134 Co102 1.920 . S
O134 C107 1.289 . S
C135 O127 1.258 . S
C135 O128 1.266 1_554 S
Co136 O139 1.970 . S
Co136 N153 1.989 . S
Co136 O161 1.967 . S
Co136 O168 1.920 . S
Co137 O140 1.966 . S
Co137 N146 2.022 . S
Co137 N154 1.993 . S
Co137 O162 1.941 . S
C138 O139 1.258 . S
C138 O140 1.263 . S
O139 Co136 1.970 . S
O139 C138 1.258 . S
O140 Co137 1.966 . S
O140 C138 1.263 . S
C141 O142 1.235 . S
C141 O168 1.289 . S
O142 C141 1.235 . S
C143 C145 1.400 . S
C143 N146 1.351 . S
C143 C148 1.501 . S
C144 C145 1.387 . S
C144 N147 1.341 . S
C145 C143 1.400 . S
C145 C144 1.387 . S
N146 Co137 2.022 . S
N146 C143 1.351 . S
N146 N147 1.365 . S
N147 C144 1.341 . S
N147 N146 1.365 . S
N147 H167 0.862 . S
C148 C143 1.501 . S
C148 H149 0.961 . S
C148 H150 0.961 . S
C148 H151 0.960 . S
H149 C148 0.961 . S
H150 C148 0.961 . S
H151 C148 0.960 . S
C152 N153 1.342 . S
C152 C156 1.401 . S
C152 C157 1.499 . S
N153 Co136 1.989 . S
N153 C152 1.342 . S
N153 N154 1.388 . S
N154 Co137 1.993 . S
N154 N153 1.388 . S
N154 C155 1.346 . S
C155 N154 1.346 . S
C155 C156 1.396 . S
C155 C165 1.510 . S
C156 C152 1.401 . S
C156 C155 1.396 . S
C157 C152 1.499 . S
C157 H158 0.959 . S
C157 H159 0.960 . S
C157 H160 0.961 . S
H158 C157 0.959 . S
H159 C157 0.960 . S
H160 C157 0.961 . S
O161 Co136 1.967 . S
O161 C169 1.258 . S
O162 Co137 1.941 . S
O162 C169 1.266 . S
H163 C165 0.959 . S
H164 C165 0.961 . S
C165 C155 1.510 . S
C165 H163 0.959 . S
C165 H164 0.961 . S
C165 H166 0.960 . S
H166 C165 0.960 . S
H167 N147 0.862 . S
O168 Co136 1.920 . S
O168 C141 1.289 . S
C169 O161 1.258 . S
C169 O162 1.266 . S
Co170 O173 1.970 . S
Co170 N187 1.989 . S
Co170 O195 1.967 . S
Co170 O202 1.920 . S
Co171 O174 1.966 . S
Co171 N180 2.022 . S
Co171 N188 1.993 . S
Co171 O196 1.941 . S
C172 O173 1.258 . S
C172 O174 1.263 . S
O173 Co170 1.970 . S
O173 C172 1.258 . S
O174 Co171 1.966 . S
O174 C172 1.263 . S
C175 O176 1.235 . S
C175 O202 1.289 . S
O176 C175 1.235 . S
C177 C179 1.400 . S
C177 N180 1.351 . S
C177 C182 1.501 . S
C178 C179 1.387 . S
C178 N181 1.341 . S
C179 C177 1.400 . S
C179 C178 1.387 . S
N180 Co171 2.022 . S
N180 C177 1.351 . S
N180 N181 1.365 . S
N181 C178 1.341 . S
N181 N180 1.365 . S
N181 H201 0.862 . S
C182 C177 1.501 . S
C182 H183 0.961 . S
C182 H184 0.961 . S
C182 H185 0.960 . S
H183 C182 0.961 . S
H184 C182 0.961 . S
H185 C182 0.960 . S
C186 N187 1.342 . S
C186 C190 1.401 . S
C186 C191 1.499 . S
N187 Co170 1.989 . S
N187 C186 1.342 . S
N187 N188 1.388 . S
N188 Co171 1.993 . S
N188 N187 1.388 . S
N188 C189 1.346 . S
C189 N188 1.346 . S
C189 C190 1.396 . S
C189 C199 1.510 . S
C190 C186 1.401 . S
C190 C189 1.396 . S
C191 C186 1.499 . S
C191 H192 0.959 . S
C191 H193 0.960 . S
C191 H194 0.961 . S
H192 C191 0.959 . S
H193 C191 0.960 . S
H194 C191 0.961 . S
O195 Co170 1.967 . S
O195 C203 1.258 . S
O196 Co171 1.941 . S
O196 C203 1.266 . S
H197 C199 0.959 . S
H198 C199 0.961 . S
C199 C189 1.510 . S
C199 H197 0.959 . S
C199 H198 0.961 . S
C199 H200 0.960 . S
H200 C199 0.960 . S
H201 N181 0.862 . S
O202 Co170 1.920 . S
O202 C175 1.289 . S
C203 O195 1.258 . S
C203 O196 1.266 . S
H204 C222 0.951 . S
H205 C224 0.951 . S
H206 C226 0.950 . S
H207 C227 0.950 . S
H208 C229 0.950 . S
H209 C232 0.950 . S
H210 C233 0.950 . S
H211 C235 0.950 . S
H212 C236 0.950 . S
H213 C237 0.951 . S
H214 C239 0.951 . S
H215 C241 0.950 . S
H216 C242 0.950 . S
H217 C244 0.950 . S
H218 C247 0.950 . S
H219 C248 0.950 . S
H220 C250 0.950 . S
H221 C251 0.950 . S
C222 H204 0.951 . S
C222 C223 1.366 . S
C222 C224 1.388 . S
C223 C222 1.366 . S
C223 C227 1.385 . S
C224 H205 0.951 . S
C224 C222 1.388 . S
C224 C225 1.366 . S
C225 C224 1.366 . S
C225 C226 1.414 . S
C225 C228 1.499 . S
C226 H206 0.950 . S
C226 C225 1.414 . S
C226 C227 1.374 . S
C227 H207 0.950 . S
C227 C223 1.385 . S
C227 C226 1.374 . S
C228 C225 1.499 . S
C228 C229 1.373 . S
C228 C230 1.389 . S
C229 H208 0.950 . S
C229 C228 1.373 . S
C229 C245 1.377 . S
C230 C228 1.389 . S
C230 C231 1.524 . S
C230 C244 1.377 . S
C231 C230 1.524 . S
C231 C232 1.397 . S
C231 C236 1.363 . S
C232 H209 0.950 . S
C232 C231 1.397 . S
C232 C233 1.334 . S
C233 H210 0.950 . S
C233 C232 1.334 . S
C233 C234 1.287 . S
C234 C233 1.287 . S
C234 C235 1.524 . S
C234 H253 0.913 . S
C235 H211 0.950 . S
C235 C234 1.524 . S
C235 C236 1.415 . S
C236 H212 0.950 . S
C236 C231 1.363 . S
C236 C235 1.415 . S
C237 H213 0.951 . S
C237 C238 1.366 . S
C237 C239 1.388 . S
C238 C237 1.366 . S
C238 C242 1.385 . S
C239 H214 0.951 . S
C239 C237 1.388 . S
C239 C240 1.366 . S
C240 C239 1.366 . S
C240 C241 1.414 . S
C240 C243 1.499 . S
C241 H215 0.950 . S
C241 C240 1.414 . S
C241 C242 1.374 . S
C242 H216 0.950 . S
C242 C238 1.385 . S
C242 C241 1.374 . S
C243 C240 1.499 . S
C243 C244 1.373 . S
C243 C245 1.389 . S
C244 H217 0.950 . S
C244 C230 1.377 . S
C244 C243 1.373 . S
C245 C229 1.377 . S
C245 C243 1.389 . S
C245 C246 1.524 . S
C246 C245 1.524 . S
C246 C247 1.397 . S
C246 C251 1.363 . S
C247 H218 0.950 . S
C247 C246 1.397 . S
C247 C248 1.334 . S
C248 H219 0.950 . S
C248 C247 1.334 . S
C248 C249 1.287 . S
C249 C248 1.287 . S
C249 C250 1.524 . S
C249 H252 0.999 . S
C250 H220 0.950 . S
C250 C249 1.524 . S
C250 C251 1.415 . S
C251 H221 0.950 . S
C251 C246 1.363 . S
C251 C250 1.415 . S
H252 C249 0.999 . S
H253 C234 0.913 . S
H254 C272 0.951 . S
H255 C274 0.951 . S
H256 C276 0.950 . S
H257 C277 0.950 . S
H258 C279 0.950 . S
H259 C282 0.950 . S
H260 C283 0.950 . S
H261 C285 0.950 . S
H262 C286 0.950 . S
H263 C287 0.951 . S
H264 C289 0.951 . S
H265 C291 0.950 . S
H266 C292 0.950 . S
H267 C294 0.950 . S
H268 C297 0.950 . S
H269 C298 0.950 . S
H270 C300 0.950 1_554 S
H271 C301 0.950 . S
C272 H254 0.951 . S
C272 C273 1.366 . S
C272 C274 1.388 . S
C273 C272 1.366 . S
C273 C277 1.385 . S
C274 H255 0.951 . S
C274 C272 1.388 . S
C274 C275 1.366 . S
C275 C274 1.366 . S
C275 C276 1.414 . S
C275 C278 1.499 . S
C276 H256 0.950 . S
C276 C275 1.414 . S
C276 C277 1.374 . S
C277 H257 0.950 . S
C277 C273 1.385 . S
C277 C276 1.374 . S
C278 C275 1.499 . S
C278 C279 1.373 . S
C278 C280 1.389 . S
C279 H258 0.950 . S
C279 C278 1.373 . S
C279 C295 1.377 . S
C280 C278 1.389 . S
C280 C281 1.524 . S
C280 C294 1.377 . S
C281 C280 1.524 . S
C281 C282 1.397 . S
C281 C286 1.363 . S
C282 H259 0.950 . S
C282 C281 1.397 . S
C282 C283 1.334 . S
C283 H260 0.950 . S
C283 C282 1.334 . S
C283 C284 1.287 . S
C284 C283 1.287 . S
C284 C285 1.524 . S
C284 H303 0.913 . S
C285 H261 0.950 . S
C285 C284 1.524 . S
C285 C286 1.415 . S
C286 H262 0.950 . S
C286 C281 1.363 . S
C286 C285 1.415 . S
C287 H263 0.951 . S
C287 C288 1.366 . S
C287 C289 1.388 . S
C288 C287 1.366 . S
C288 C292 1.385 . S
C289 H264 0.951 . S
C289 C287 1.388 . S
C289 C290 1.366 . S
C290 C289 1.366 . S
C290 C291 1.414 . S
C290 C293 1.499 . S
C291 H265 0.950 . S
C291 C290 1.414 . S
C291 C292 1.374 . S
C292 H266 0.950 . S
C292 C288 1.385 . S
C292 C291 1.374 . S
C293 C290 1.499 . S
C293 C294 1.373 . S
C293 C295 1.389 . S
C294 H267 0.950 . S
C294 C280 1.377 . S
C294 C293 1.373 . S
C295 C279 1.377 . S
C295 C293 1.389 . S
C295 C296 1.524 . S
C296 C295 1.524 . S
C296 C297 1.397 . S
C296 C301 1.363 . S
C297 H268 0.950 . S
C297 C296 1.397 . S
C297 C298 1.334 . S
C298 H269 0.950 . S
C298 C297 1.334 . S
C298 C299 1.287 1_556 S
C299 C298 1.287 1_554 S
C299 C300 1.524 1_554 S
C299 H302 0.999 . S
C300 H270 0.950 1_556 S
C300 C299 1.524 1_556 S
C300 C301 1.415 . S
C301 H271 0.950 . S
C301 C296 1.363 . S
C301 C300 1.415 . S
H302 C299 0.999 . S
H303 C284 0.913 . S
H304 C322 0.951 . S
H305 C324 0.951 . S
H306 C326 0.950 . S
H307 C327 0.950 . S
H308 C329 0.950 . S
H309 C332 0.950 . S
H310 C333 0.950 . S
H311 C335 0.950 . S
H312 C336 0.950 . S
H313 C337 0.951 . S
H314 C339 0.951 . S
H315 C341 0.950 . S
H316 C342 0.950 . S
H317 C344 0.950 . S
H318 C347 0.950 . S
H319 C348 0.950 . S
H320 C350 0.950 . S
H321 C351 0.950 . S
C322 H304 0.951 . S
C322 C323 1.366 . S
C322 C324 1.388 . S
C323 C322 1.366 . S
C323 C327 1.385 . S
C324 H305 0.951 . S
C324 C322 1.388 . S
C324 C325 1.366 . S
C325 C324 1.366 . S
C325 C326 1.414 . S
C325 C328 1.499 . S
C326 H306 0.950 . S
C326 C325 1.414 . S
C326 C327 1.374 . S
C327 H307 0.950 . S
C327 C323 1.385 . S
C327 C326 1.374 . S
C328 C325 1.499 . S
C328 C329 1.373 . S
C328 C330 1.389 . S
C329 H308 0.950 . S
C329 C328 1.373 . S
C329 C345 1.377 . S
C330 C328 1.389 . S
C330 C331 1.524 . S
C330 C344 1.377 . S
C331 C330 1.524 . S
C331 C332 1.397 . S
C331 C336 1.363 . S
C332 H309 0.950 . S
C332 C331 1.397 . S
C332 C333 1.334 . S
C333 H310 0.950 . S
C333 C332 1.334 . S
C333 C334 1.287 . S
C334 C333 1.287 . S
C334 C335 1.524 . S
C334 H353 0.913 . S
C335 H311 0.950 . S
C335 C334 1.524 . S
C335 C336 1.415 . S
C336 H312 0.950 . S
C336 C331 1.363 . S
C336 C335 1.415 . S
C337 H313 0.951 . S
C337 C338 1.366 . S
C337 C339 1.388 . S
C338 C337 1.366 . S
C338 C342 1.385 . S
C339 H314 0.951 . S
C339 C337 1.388 . S
C339 C340 1.366 . S
C340 C339 1.366 . S
C340 C341 1.414 . S
C340 C343 1.499 . S
C341 H315 0.950 . S
C341 C340 1.414 . S
C341 C342 1.374 . S
C342 H316 0.950 . S
C342 C338 1.385 . S
C342 C341 1.374 . S
C343 C340 1.499 . S
C343 C344 1.373 . S
C343 C345 1.389 . S
C344 H317 0.950 . S
C344 C330 1.377 . S
C344 C343 1.373 . S
C345 C329 1.377 . S
C345 C343 1.389 . S
C345 C346 1.524 . S
C346 C345 1.524 . S
C346 C347 1.397 . S
C346 C351 1.363 . S
C347 H318 0.950 . S
C347 C346 1.397 . S
C347 C348 1.334 . S
C348 H319 0.950 . S
C348 C347 1.334 . S
C348 C349 1.287 . S
C349 C348 1.287 . S
C349 C350 1.524 . S
C349 H352 0.999 . S
C350 H320 0.950 . S
C350 C349 1.524 . S
C350 C351 1.415 . S
C351 H321 0.950 . S
C351 C346 1.363 . S
C351 C350 1.415 . S
H352 C349 0.999 . S
H353 C334 0.913 . S
H354 C372 0.951 . S
H355 C374 0.951 . S
H356 C376 0.950 . S
H357 C377 0.950 . S
H358 C379 0.950 . S
H359 C382 0.950 . S
H360 C383 0.950 . S
H361 C385 0.950 . S
H362 C386 0.950 . S
H363 C387 0.951 . S
H364 C389 0.951 . S
H365 C391 0.950 . S
H366 C392 0.950 . S
H367 C394 0.950 . S
H368 C397 0.950 . S
H369 C398 0.950 . S
H370 C400 0.950 . S
H371 C401 0.950 . S
C372 H354 0.951 . S
C372 C373 1.366 . S
C372 C374 1.388 . S
C373 C372 1.366 . S
C373 C377 1.385 . S
C374 H355 0.951 . S
C374 C372 1.388 . S
C374 C375 1.366 . S
C375 C374 1.366 . S
C375 C376 1.414 . S
C375 C378 1.499 . S
C376 H356 0.950 . S
C376 C375 1.414 . S
C376 C377 1.374 . S
C377 H357 0.950 . S
C377 C373 1.385 . S
C377 C376 1.374 . S
C378 C375 1.499 . S
C378 C379 1.373 . S
C378 C380 1.389 . S
C379 H358 0.950 . S
C379 C378 1.373 . S
C379 C395 1.377 . S
C380 C378 1.389 . S
C380 C381 1.524 . S
C380 C394 1.377 . S
C381 C380 1.524 . S
C381 C382 1.397 . S
C381 C386 1.363 . S
C382 H359 0.950 . S
C382 C381 1.397 . S
C382 C383 1.334 . S
C383 H360 0.950 . S
C383 C382 1.334 . S
C383 C384 1.287 . S
C384 C383 1.287 . S
C384 C385 1.524 . S
C384 H403 0.913 . S
C385 H361 0.950 . S
C385 C384 1.524 . S
C385 C386 1.415 . S
C386 H362 0.950 . S
C386 C381 1.363 . S
C386 C385 1.415 . S
C387 H363 0.951 . S
C387 C388 1.366 . S
C387 C389 1.388 . S
C388 C387 1.366 . S
C388 C392 1.385 . S
C389 H364 0.951 . S
C389 C387 1.388 . S
C389 C390 1.366 . S
C390 C389 1.366 . S
C390 C391 1.414 . S
C390 C393 1.499 . S
C391 H365 0.950 . S
C391 C390 1.414 . S
C391 C392 1.374 . S
C392 H366 0.950 . S
C392 C388 1.385 . S
C392 C391 1.374 . S
C393 C390 1.499 . S
C393 C394 1.373 . S
C393 C395 1.389 . S
C394 H367 0.950 . S
C394 C380 1.377 . S
C394 C393 1.373 . S
C395 C379 1.377 . S
C395 C393 1.389 . S
C395 C396 1.524 . S
C396 C395 1.524 . S
C396 C397 1.397 . S
C396 C401 1.363 . S
C397 H368 0.950 . S
C397 C396 1.397 . S
C397 C398 1.334 . S
C398 H369 0.950 . S
C398 C397 1.334 . S
C398 C399 1.287 . S
C399 C398 1.287 . S
C399 C400 1.524 . S
C399 H402 0.999 . S
C400 H370 0.950 . S
C400 C399 1.524 . S
C400 C401 1.415 . S
C401 H371 0.950 . S
C401 C396 1.363 . S
C401 C400 1.415 . S
H402 C399 0.999 . S
H403 C384 0.913 . S
H404 C422 0.951 . S
H405 C424 0.951 . S
H406 C426 0.950 . S
H407 C427 0.950 . S
H408 C429 0.950 . S
H409 C432 0.950 . S
H410 C433 0.950 . S
H411 C435 0.950 . S
H412 C436 0.950 . S
H413 C437 0.951 . S
H414 C439 0.951 . S
H415 C441 0.950 . S
H416 C442 0.950 . S
H417 C444 0.950 . S
H418 C447 0.950 . S
H419 C448 0.950 . S
H420 C450 0.950 . S
H421 C451 0.950 . S
C422 H404 0.951 . S
C422 C423 1.366 . S
C422 C424 1.388 . S
C423 C422 1.366 . S
C423 C427 1.385 . S
C424 H405 0.951 . S
C424 C422 1.388 . S
C424 C425 1.366 . S
C425 C424 1.366 . S
C425 C426 1.414 . S
C425 C428 1.499 . S
C426 H406 0.950 . S
C426 C425 1.414 . S
C426 C427 1.374 . S
C427 H407 0.950 . S
C427 C423 1.385 . S
C427 C426 1.374 . S
C428 C425 1.499 . S
C428 C429 1.373 . S
C428 C430 1.389 . S
C429 H408 0.950 . S
C429 C428 1.373 . S
C429 C445 1.377 . S
C430 C428 1.389 . S
C430 C431 1.524 . S
C430 C444 1.377 . S
C431 C430 1.524 . S
C431 C432 1.397 . S
C431 C436 1.363 . S
C432 H409 0.950 . S
C432 C431 1.397 . S
C432 C433 1.334 . S
C433 H410 0.950 . S
C433 C432 1.334 . S
C433 C434 1.287 . S
C434 C433 1.287 . S
C434 C435 1.524 . S
C434 H453 0.913 . S
C435 H411 0.950 . S
C435 C434 1.524 . S
C435 C436 1.415 . S
C436 H412 0.950 . S
C436 C431 1.363 . S
C436 C435 1.415 . S
C437 H413 0.951 . S
C437 C438 1.366 . S
C437 C439 1.388 . S
C438 C437 1.366 . S
C438 C442 1.385 . S
C439 H414 0.951 . S
C439 C437 1.388 . S
C439 C440 1.366 . S
C440 C439 1.366 . S
C440 C441 1.414 . S
C440 C443 1.499 . S
C441 H415 0.950 . S
C441 C440 1.414 . S
C441 C442 1.374 . S
C442 H416 0.950 . S
C442 C438 1.385 . S
C442 C441 1.374 . S
C443 C440 1.499 . S
C443 C444 1.373 . S
C443 C445 1.389 . S
C444 H417 0.950 . S
C444 C430 1.377 . S
C444 C443 1.373 . S
C445 C429 1.377 . S
C445 C443 1.389 . S
C445 C446 1.524 . S
C446 C445 1.524 . S
C446 C447 1.397 . S
C446 C451 1.363 . S
C447 H418 0.950 . S
C447 C446 1.397 . S
C447 C448 1.334 . S
C448 H419 0.950 . S
C448 C447 1.334 . S
C448 C449 1.287 . S
C449 C448 1.287 . S
C449 C450 1.524 . S
C449 H452 0.999 . S
C450 H420 0.950 . S
C450 C449 1.524 . S
C450 C451 1.415 . S
C451 H421 0.950 . S
C451 C446 1.363 . S
C451 C450 1.415 . S
H452 C449 0.999 . S
H453 C434 0.913 . S
H454 C472 0.951 . S
H455 C474 0.951 . S
H456 C476 0.950 . S
H457 C477 0.950 . S
H458 C479 0.950 . S
H459 C482 0.950 . S
H460 C483 0.950 . S
H461 C485 0.950 . S
H462 C486 0.950 . S
H463 C487 0.951 . S
H464 C489 0.951 . S
H465 C491 0.950 . S
H466 C492 0.950 . S
H467 C494 0.950 . S
H468 C497 0.950 . S
H469 C498 0.950 . S
H470 C500 0.950 . S
H471 C501 0.950 . S
C472 H454 0.951 . S
C472 C473 1.366 . S
C472 C474 1.388 . S
C473 C472 1.366 . S
C473 C477 1.385 . S
C474 H455 0.951 . S
C474 C472 1.388 . S
C474 C475 1.366 . S
C475 C474 1.366 . S
C475 C476 1.414 . S
C475 C478 1.499 . S
C476 H456 0.950 . S
C476 C475 1.414 . S
C476 C477 1.374 . S
C477 H457 0.950 . S
C477 C473 1.385 . S
C477 C476 1.374 . S
C478 C475 1.499 . S
C478 C479 1.373 . S
C478 C480 1.389 . S
C479 H458 0.950 . S
C479 C478 1.373 . S
C479 C495 1.377 . S
C480 C478 1.389 . S
C480 C481 1.524 . S
C480 C494 1.377 . S
C481 C480 1.524 . S
C481 C482 1.397 . S
C481 C486 1.363 . S
C482 H459 0.950 . S
C482 C481 1.397 . S
C482 C483 1.334 . S
C483 H460 0.950 . S
C483 C482 1.334 . S
C483 C484 1.287 . S
C484 C483 1.287 . S
C484 C485 1.524 . S
C484 H503 0.913 . S
C485 H461 0.950 . S
C485 C484 1.524 . S
C485 C486 1.415 . S
C486 H462 0.950 . S
C486 C481 1.363 . S
C486 C485 1.415 . S
C487 H463 0.951 . S
C487 C488 1.366 . S
C487 C489 1.388 . S
C488 C487 1.366 . S
C488 C492 1.385 . S
C489 H464 0.951 . S
C489 C487 1.388 . S
C489 C490 1.366 . S
C490 C489 1.366 . S
C490 C491 1.414 . S
C490 C493 1.499 . S
C491 H465 0.950 . S
C491 C490 1.414 . S
C491 C492 1.374 . S
C492 H466 0.950 . S
C492 C488 1.385 . S
C492 C491 1.374 . S
C493 C490 1.499 . S
C493 C494 1.373 . S
C493 C495 1.389 . S
C494 H467 0.950 . S
C494 C480 1.377 . S
C494 C493 1.373 . S
C495 C479 1.377 . S
C495 C493 1.389 . S
C495 C496 1.524 . S
C496 C495 1.524 . S
C496 C497 1.397 . S
C496 C501 1.363 . S
C497 H468 0.950 . S
C497 C496 1.397 . S
C497 C498 1.334 . S
C498 H469 0.950 . S
C498 C497 1.334 . S
C498 C499 1.287 . S
C499 C498 1.287 . S
C499 C500 1.524 . S
C499 H502 0.999 . S
C500 H470 0.950 . S
C500 C499 1.524 . S
C500 C501 1.415 . S
C501 H471 0.950 . S
C501 C496 1.363 . S
C501 C500 1.415 . S
H502 C499 0.999 . S
H503 C484 0.913 . S
H504 C522 0.951 . S
H505 C524 0.951 . S
H506 C526 0.950 . S
H507 C527 0.950 . S
H508 C529 0.950 . S
H509 C532 0.950 . S
H510 C533 0.950 . S
H511 C535 0.950 . S
H512 C536 0.950 . S
H513 C537 0.951 . S
H514 C539 0.951 . S
H515 C541 0.950 . S
H516 C542 0.950 . S
H517 C544 0.950 . S
H518 C547 0.950 . S
H519 C548 0.950 . S
H520 C550 0.950 . S
H521 C551 0.950 . S
C522 H504 0.951 . S
C522 C523 1.366 . S
C522 C524 1.388 . S
C523 C522 1.366 . S
C523 C527 1.385 . S
C524 H505 0.951 . S
C524 C522 1.388 . S
C524 C525 1.366 . S
C525 C524 1.366 . S
C525 C526 1.414 . S
C525 C528 1.499 . S
C526 H506 0.950 . S
C526 C525 1.414 . S
C526 C527 1.374 . S
C527 H507 0.950 . S
C527 C523 1.385 . S
C527 C526 1.374 . S
C528 C525 1.499 . S
C528 C529 1.373 . S
C528 C530 1.389 1_655 S
C529 H508 0.950 . S
C529 C528 1.373 . S
C529 C545 1.366 1_655 S
C530 C528 1.389 1_455 S
C530 C531 1.524 . S
C530 C544 1.377 . S
C531 C530 1.524 . S
C531 C532 1.397 1_455 S
C531 C536 1.363 . S
C532 H509 0.950 . S
C532 C531 1.397 1_655 S
C532 C533 1.334 . S
C533 H510 0.950 . S
C533 C532 1.334 . S
C533 C534 1.287 1_655 S
C534 C533 1.287 1_455 S
C534 C535 1.524 . S
C534 H553 0.913 . S
C535 H511 0.950 . S
C535 C534 1.524 . S
C535 C536 1.415 . S
C536 H512 0.950 . S
C536 C531 1.363 . S
C536 C535 1.415 . S
C537 H513 0.951 . S
C537 C538 1.366 . S
C537 C539 1.388 . S
C538 C537 1.366 . S
C538 C542 1.385 . S
C539 H514 0.951 . S
C539 C537 1.388 . S
C539 C540 1.366 . S
C540 C539 1.366 . S
C540 C541 1.414 . S
C540 C543 1.499 . S
C541 H515 0.950 . S
C541 C540 1.414 . S
C541 C542 1.374 . S
C542 H516 0.950 . S
C542 C538 1.385 . S
C542 C541 1.374 . S
C543 C540 1.499 . S
C543 C544 1.373 . S
C543 C545 1.407 . S
C544 H517 0.950 . S
C544 C530 1.377 . S
C544 C543 1.373 . S
C545 C529 1.366 1_455 S
C545 C543 1.407 . S
C545 C546 1.516 1_455 S
C546 C545 1.516 1_655 S
C546 C547 1.397 1_655 S
C546 C551 1.363 . S
C547 H518 0.950 . S
C547 C546 1.397 1_455 S
C547 C548 1.334 . S
C548 H519 0.950 . S
C548 C547 1.334 . S
C548 C549 1.287 1_455 S
C549 C548 1.287 1_655 S
C549 C550 1.524 . S
C549 H552 0.999 . S
C550 H520 0.950 . S
C550 C549 1.524 . S
C550 C551 1.415 . S
C551 H521 0.950 . S
C551 C546 1.363 . S
C551 C550 1.415 . S
H552 C549 0.999 . S
H553 C534 0.913 . S
H554 C572 0.951 . S
H555 C574 0.951 . S
H556 C576 0.950 . S
H557 C577 0.950 . S
H558 C579 0.950 . S
H559 C582 0.950 . S
H560 C583 0.950 . S
H561 C585 0.950 . S
H562 C586 0.950 . S
H563 C587 0.951 . S
H564 C589 0.951 . S
H565 C591 0.950 . S
H566 C592 0.950 . S
H567 C594 0.950 . S
H568 C597 0.950 . S
H569 C598 0.950 . S
H570 C600 0.950 . S
H571 C601 0.950 . S
C572 H554 0.951 . S
C572 C573 1.366 . S
C572 C574 1.388 . S
C573 C572 1.366 . S
C573 C577 1.385 . S
C574 H555 0.951 . S
C574 C572 1.388 . S
C574 C575 1.366 . S
C575 C574 1.366 . S
C575 C576 1.414 . S
C575 C578 1.499 . S
C576 H556 0.950 . S
C576 C575 1.414 . S
C576 C577 1.374 . S
C577 H557 0.950 . S
C577 C573 1.385 . S
C577 C576 1.374 . S
C578 C575 1.499 . S
C578 C579 1.373 . S
C578 C580 1.389 . S
C579 H558 0.950 . S
C579 C578 1.373 . S
C579 C595 1.377 . S
C580 C578 1.389 . S
C580 C581 1.524 . S
C580 C594 1.377 . S
C581 C580 1.524 . S
C581 C582 1.397 . S
C581 C586 1.363 . S
C582 H559 0.950 . S
C582 C581 1.397 . S
C582 C583 1.334 . S
C583 H560 0.950 . S
C583 C582 1.334 . S
C583 C584 1.287 . S
C584 C583 1.287 . S
C584 C585 1.524 . S
C584 H603 0.913 . S
C585 H561 0.950 . S
C585 C584 1.524 . S
C585 C586 1.415 . S
C586 H562 0.950 . S
C586 C581 1.363 . S
C586 C585 1.415 . S
C587 H563 0.951 . S
C587 C588 1.366 . S
C587 C589 1.388 . S
C588 C587 1.366 . S
C588 C592 1.385 . S
C589 H564 0.951 . S
C589 C587 1.388 . S
C589 C590 1.366 . S
C590 C589 1.366 . S
C590 C591 1.414 . S
C590 C593 1.499 . S
C591 H565 0.950 . S
C591 C590 1.414 . S
C591 C592 1.374 . S
C592 H566 0.950 . S
C592 C588 1.385 . S
C592 C591 1.374 . S
C593 C590 1.499 . S
C593 C594 1.373 . S
C593 C595 1.389 . S
C594 H567 0.950 . S
C594 C580 1.377 . S
C594 C593 1.373 . S
C595 C579 1.377 . S
C595 C593 1.389 . S
C595 C596 1.524 . S
C596 C595 1.524 . S
C596 C597 1.397 . S
C596 C601 1.363 . S
C597 H568 0.950 . S
C597 C596 1.397 . S
C597 C598 1.334 . S
C598 H569 0.950 . S
C598 C597 1.334 . S
C598 C599 1.287 . S
C599 C598 1.287 . S
C599 C600 1.524 . S
C599 H602 0.999 . S
C600 H570 0.950 . S
C600 C599 1.524 . S
C600 C601 1.415 . S
C601 H571 0.950 . S
C601 C596 1.363 . S
C601 C600 1.415 . S
H602 C599 0.999 . S
H603 C584 0.913 . S
H604 C622 0.951 . S
H605 C624 0.951 . S
H606 C626 0.950 . S
H607 C627 0.950 . S
H608 C629 0.950 . S
H609 C632 0.950 1_545 S
H610 C633 0.950 . S
H611 C635 0.950 . S
H612 C636 0.950 . S
H613 C637 0.951 . S
H614 C639 0.951 . S
H615 C641 0.950 . S
H616 C642 0.950 . S
H617 C644 0.950 . S
H618 C647 0.950 1_565 S
H619 C648 0.950 . S
H620 C650 0.950 . S
H621 C651 0.950 . S
C622 H604 0.951 . S
C622 C623 1.366 . S
C622 C624 1.388 . S
C623 C622 1.366 . S
C623 C627 1.385 . S
C624 H605 0.951 . S
C624 C622 1.388 . S
C624 C625 1.366 . S
C625 C624 1.366 . S
C625 C626 1.414 . S
C625 C628 1.499 . S
C626 H606 0.950 . S
C626 C625 1.414 . S
C626 C627 1.374 . S
C627 H607 0.950 . S
C627 C623 1.385 . S
C627 C626 1.374 . S
C628 C625 1.499 . S
C628 C629 1.373 . S
C628 C630 1.389 1_545 S
C629 H608 0.950 . S
C629 C628 1.373 . S
C629 C645 1.377 . S
C630 C628 1.389 1_565 S
C630 C631 1.524 . S
C630 C644 1.377 . S
C631 C630 1.524 . S
C631 C632 1.397 . S
C631 C636 1.363 . S
C632 H609 0.950 1_565 S
C632 C631 1.397 . S
C632 C633 1.334 . S
C633 H610 0.950 . S
C633 C632 1.334 . S
C633 C634 1.287 . S
C634 C633 1.287 . S
C634 C635 1.524 . S
C634 H653 0.913 . S
C635 H611 0.950 . S
C635 C634 1.524 . S
C635 C636 1.415 . S
C636 H612 0.950 . S
C636 C631 1.363 . S
C636 C635 1.415 . S
C637 H613 0.951 . S
C637 C638 1.366 . S
C637 C639 1.388 . S
C638 C637 1.366 . S
C638 C642 1.385 . S
C639 H614 0.951 . S
C639 C637 1.388 . S
C639 C640 1.366 . S
C640 C639 1.366 . S
C640 C641 1.414 . S
C640 C643 1.499 . S
C641 H615 0.950 . S
C641 C640 1.414 . S
C641 C642 1.374 . S
C642 H616 0.950 . S
C642 C638 1.385 . S
C642 C641 1.374 . S
C643 C640 1.499 . S
C643 C644 1.373 . S
C643 C645 1.389 1_565 S
C644 H617 0.950 . S
C644 C630 1.377 . S
C644 C643 1.373 . S
C645 C629 1.377 . S
C645 C643 1.389 1_545 S
C645 C646 1.524 . S
C646 C645 1.524 . S
C646 C647 1.397 . S
C646 C651 1.363 . S
C647 H618 0.950 1_545 S
C647 C646 1.397 . S
C647 C648 1.334 . S
C648 H619 0.950 . S
C648 C647 1.334 . S
C648 C649 1.287 . S
C649 C648 1.287 . S
C649 C650 1.524 . S
C649 H652 0.999 . S
C650 H620 0.950 . S
C650 C649 1.524 . S
C650 C651 1.415 . S
C651 H621 0.950 . S
C651 C646 1.363 . S
C651 C650 1.415 . S
H652 C649 0.999 . S
H653 C634 0.913 . S
H654 C672 0.951 . S
H655 C674 0.951 . S
H656 C676 0.950 . S
H657 C677 0.950 . S
H658 C679 0.950 . S
H659 C682 0.950 . S
H660 C683 0.950 . S
H661 C685 0.950 . S
H662 C686 0.950 . S
H663 C687 0.951 . S
H664 C689 0.951 . S
H665 C691 0.950 . S
H666 C692 0.950 . S
H667 C694 0.950 . S
H668 C697 0.950 . S
H669 C698 0.950 . S
H670 C700 0.950 . S
H671 C701 0.950 . S
C672 H654 0.951 . S
C672 C673 1.366 . S
C672 C674 1.388 . S
C673 C672 1.366 . S
C673 C677 1.385 . S
C674 H655 0.951 . S
C674 C672 1.388 . S
C674 C675 1.366 . S
C675 C674 1.366 . S
C675 C676 1.414 . S
C675 C678 1.499 . S
C676 H656 0.950 . S
C676 C675 1.414 . S
C676 C677 1.374 . S
C677 H657 0.950 . S
C677 C673 1.385 . S
C677 C676 1.374 . S
C678 C675 1.499 . S
C678 C679 1.373 1_556 S
C678 C680 1.389 . S
C679 H658 0.950 . S
C679 C678 1.373 1_554 S
C679 C695 1.377 . S
C680 C678 1.389 . S
C680 C681 1.524 . S
C680 C694 1.377 . S
C681 C680 1.524 . S
C681 C682 1.397 . S
C681 C686 1.363 . S
C682 H659 0.950 . S
C682 C681 1.397 . S
C682 C683 1.334 . S
C683 H660 0.950 . S
C683 C682 1.334 . S
C683 C684 1.287 . S
C684 C683 1.287 . S
C684 C685 1.524 . S
C684 H703 0.913 . S
C685 H661 0.950 . S
C685 C684 1.524 . S
C685 C686 1.415 . S
C686 H662 0.950 . S
C686 C681 1.363 . S
C686 C685 1.415 . S
C687 H663 0.951 . S
C687 C688 1.366 . S
C687 C689 1.388 . S
C688 C687 1.366 . S
C688 C692 1.385 . S
C689 H664 0.951 . S
C689 C687 1.388 . S
C689 C690 1.366 . S
C690 C689 1.366 . S
C690 C691 1.414 . S
C690 C693 1.499 . S
C691 H665 0.950 . S
C691 C690 1.414 . S
C691 C692 1.374 . S
C692 H666 0.950 . S
C692 C688 1.385 . S
C692 C691 1.374 . S
C693 C690 1.499 . S
C693 C694 1.373 1_554 S
C693 C695 1.389 . S
C694 H667 0.950 . S
C694 C680 1.377 . S
C694 C693 1.373 1_556 S
C695 C679 1.377 . S
C695 C693 1.389 . S
C695 C696 1.524 . S
C696 C695 1.524 . S
C696 C697 1.397 . S
C696 C701 1.363 . S
C697 H668 0.950 . S
C697 C696 1.397 . S
C697 C698 1.334 . S
C698 H669 0.950 . S
C698 C697 1.334 . S
C698 C699 1.287 . S
C699 C698 1.287 . S
C699 C700 1.524 . S
C699 H702 0.999 . S
C700 H670 0.950 . S
C700 C699 1.524 . S
C700 C701 1.415 . S
C701 H671 0.950 . S
C701 C696 1.363 . S
C701 C700 1.415 . S
H702 C699 0.999 . S
H703 C684 0.913 . S
H704 C722 0.951 . S
H705 C724 0.951 . S
H706 C726 0.950 . S
H707 C727 0.950 . S
H708 C729 0.950 . S
H709 C732 0.950 . S
H710 C733 0.950 . S
H711 C735 0.950 . S
H712 C736 0.950 . S
H713 C737 0.951 . S
H714 C739 0.951 . S
H715 C741 0.950 . S
H716 C742 0.950 . S
H717 C744 0.950 . S
H718 C747 0.950 . S
H719 C748 0.950 . S
H720 C750 0.950 . S
H721 C751 0.950 . S
C722 H704 0.951 . S
C722 C723 1.366 . S
C722 C724 1.388 . S
C723 C722 1.366 . S
C723 C727 1.385 . S
C724 H705 0.951 . S
C724 C722 1.388 . S
C724 C725 1.366 . S
C725 C724 1.366 . S
C725 C726 1.414 . S
C725 C728 1.499 . S
C726 H706 0.950 . S
C726 C725 1.414 . S
C726 C727 1.374 . S
C727 H707 0.950 . S
C727 C723 1.385 . S
C727 C726 1.374 . S
C728 C725 1.499 . S
C728 C729 1.373 . S
C728 C730 1.389 . S
C729 H708 0.950 . S
C729 C728 1.373 . S
C729 C745 1.377 1_545 S
C730 C728 1.389 . S
C730 C731 1.524 . S
C730 C744 1.377 1_545 S
C731 C730 1.524 . S
C731 C732 1.397 . S
C731 C736 1.363 . S
C732 H709 0.950 . S
C732 C731 1.397 . S
C732 C733 1.334 . S
C733 H710 0.950 . S
C733 C732 1.334 . S
C733 C734 1.287 . S
C734 C733 1.287 . S
C734 C735 1.524 . S
C734 H753 0.913 . S
C735 H711 0.950 . S
C735 C734 1.524 . S
C735 C736 1.415 . S
C736 H712 0.950 . S
C736 C731 1.363 . S
C736 C735 1.415 . S
C737 H713 0.951 . S
C737 C738 1.366 . S
C737 C739 1.388 . S
C738 C737 1.366 . S
C738 C742 1.385 . S
C739 H714 0.951 . S
C739 C737 1.388 . S
C739 C740 1.366 . S
C740 C739 1.366 . S
C740 C741 1.414 . S
C740 C743 1.499 . S
C741 H715 0.950 . S
C741 C740 1.414 . S
C741 C742 1.374 . S
C742 H716 0.950 . S
C742 C738 1.385 . S
C742 C741 1.374 . S
C743 C740 1.499 . S
C743 C744 1.373 . S
C743 C745 1.389 . S
C744 H717 0.950 . S
C744 C730 1.377 1_565 S
C744 C743 1.373 . S
C745 C729 1.377 1_565 S
C745 C743 1.389 . S
C745 C746 1.524 . S
C746 C745 1.524 . S
C746 C747 1.397 . S
C746 C751 1.363 . S
C747 H718 0.950 . S
C747 C746 1.397 . S
C747 C748 1.334 . S
C748 H719 0.950 . S
C748 C747 1.334 . S
C748 C749 1.287 . S
C749 C748 1.287 . S
C749 C750 1.524 . S
C749 H752 0.999 . S
C750 H720 0.950 . S
C750 C749 1.524 . S
C750 C751 1.415 . S
C751 H721 0.950 . S
C751 C746 1.363 . S
C751 C750 1.415 . S
H752 C749 0.999 . S
H753 C734 0.913 . S
H754 C772 0.951 . S
H755 C774 0.951 . S
H756 C776 0.950 . S
H757 C777 0.950 . S
H758 C779 0.950 . S
H759 C782 0.950 . S
H760 C783 0.950 . S
H761 C785 0.950 . S
H762 C786 0.950 . S
H763 C787 0.951 . S
H764 C789 0.951 . S
H765 C791 0.950 . S
H766 C792 0.950 . S
H767 C794 0.950 . S
H768 C797 0.950 . S
H769 C798 0.950 . S
H770 C800 0.950 . S
H771 C801 0.950 . S
C772 H754 0.951 . S
C772 C773 1.366 . S
C772 C774 1.388 . S
C773 C772 1.366 . S
C773 C777 1.385 . S
C774 H755 0.951 . S
C774 C772 1.388 . S
C774 C775 1.366 . S
C775 C774 1.366 . S
C775 C776 1.414 . S
C775 C778 1.499 . S
C776 H756 0.950 . S
C776 C775 1.414 . S
C776 C777 1.374 . S
C777 H757 0.950 . S
C777 C773 1.385 . S
C777 C776 1.374 . S
C778 C775 1.499 . S
C778 C779 1.373 . S
C778 C780 1.389 . S
C779 H758 0.950 . S
C779 C778 1.373 . S
C779 C795 1.377 1_455 S
C780 C778 1.389 . S
C780 C781 1.524 . S
C780 C794 1.377 1_455 S
C781 C780 1.524 . S
C781 C782 1.397 . S
C781 C786 1.363 . S
C782 H759 0.950 . S
C782 C781 1.397 . S
C782 C783 1.334 . S
C783 H760 0.950 . S
C783 C782 1.334 . S
C783 C784 1.287 . S
C784 C783 1.287 . S
C784 C785 1.524 . S
C784 H803 0.913 . S
C785 H761 0.950 . S
C785 C784 1.524 . S
C785 C786 1.415 . S
C786 H762 0.950 . S
C786 C781 1.363 . S
C786 C785 1.415 . S
C787 H763 0.951 . S
C787 C788 1.366 . S
C787 C789 1.388 . S
C788 C787 1.366 . S
C788 C792 1.385 . S
C789 H764 0.951 . S
C789 C787 1.388 . S
C789 C790 1.366 . S
C790 C789 1.366 . S
C790 C791 1.414 . S
C790 C793 1.499 . S
C791 H765 0.950 . S
C791 C790 1.414 . S
C791 C792 1.374 . S
C792 H766 0.950 . S
C792 C788 1.385 . S
C792 C791 1.374 . S
C793 C790 1.499 . S
C793 C794 1.373 . S
C793 C795 1.389 . S
C794 H767 0.950 . S
C794 C780 1.377 1_655 S
C794 C793 1.373 . S
C795 C779 1.377 1_655 S
C795 C793 1.389 . S
C795 C796 1.524 . S
C796 C795 1.524 . S
C796 C797 1.397 . S
C796 C801 1.363 . S
C797 H768 0.950 . S
C797 C796 1.397 . S
C797 C798 1.334 . S
C798 H769 0.950 . S
C798 C797 1.334 . S
C798 C799 1.287 . S
C799 C798 1.287 . S
C799 C800 1.524 . S
C799 H802 0.999 . S
C800 H770 0.950 . S
C800 C799 1.524 . S
C800 C801 1.415 . S
C801 H771 0.950 . S
C801 C796 1.363 . S
C801 C800 1.415 . S
H802 C799 0.999 . S
H803 C784 0.913 . S
H804 C822 0.951 . S
H805 C824 0.951 . S
H806 C826 0.950 . S
H807 C827 0.950 . S
H808 C829 0.943 . S
H809 C832 0.950 . S
H810 C833 0.950 . S
H811 C835 0.950 . S
H812 C836 0.950 1_455 S
H813 C837 0.951 . S
H814 C839 0.951 . S
H815 C841 0.950 . S
H816 C842 0.950 . S
H817 C844 0.950 . S
H818 C847 0.950 . S
H819 C848 0.950 . S
H820 C850 0.950 . S
H821 C851 0.950 1_655 S
C822 H804 0.951 . S
C822 C823 1.366 . S
C822 C824 1.388 . S
C823 C822 1.366 . S
C823 C827 1.385 . S
C824 H805 0.951 . S
C824 C822 1.388 . S
C824 C825 1.366 . S
C825 C824 1.366 . S
C825 C826 1.414 . S
C825 C828 1.499 . S
C826 H806 0.950 . S
C826 C825 1.414 . S
C826 C827 1.374 . S
C827 H807 0.950 . S
C827 C823 1.385 . S
C827 C826 1.374 . S
C828 C825 1.499 . S
C828 C829 1.391 . S
C828 C830 1.389 . S
C829 H808 0.943 . S
C829 C828 1.391 . S
C829 C845 1.366 1_655 S
C830 C828 1.389 . S
C830 C831 1.524 . S
C830 C844 1.377 1_655 S
C831 C830 1.524 . S
C831 C832 1.397 . S
C831 C836 1.363 . S
C832 H809 0.950 . S
C832 C831 1.397 . S
C832 C833 1.334 . S
C833 H810 0.950 . S
C833 C832 1.334 . S
C833 C834 1.287 . S
C834 C833 1.287 . S
C834 C835 1.524 . S
C834 H853 0.913 . S
C835 H811 0.950 . S
C835 C834 1.524 . S
C835 C836 1.415 . S
C836 H812 0.950 1_655 S
C836 C831 1.363 . S
C836 C835 1.415 . S
C837 H813 0.951 . S
C837 C838 1.366 . S
C837 C839 1.388 . S
C838 C837 1.366 . S
C838 C842 1.385 . S
C839 H814 0.951 . S
C839 C837 1.388 . S
C839 C840 1.366 . S
C840 C839 1.366 . S
C840 C841 1.414 . S
C840 C843 1.499 . S
C841 H815 0.950 . S
C841 C840 1.414 . S
C841 C842 1.374 . S
C842 H816 0.950 . S
C842 C838 1.385 . S
C842 C841 1.374 . S
C843 C840 1.499 . S
C843 C844 1.373 . S
C843 C845 1.389 . S
C844 H817 0.950 . S
C844 C830 1.377 1_455 S
C844 C843 1.373 . S
C845 C829 1.366 1_455 S
C845 C843 1.389 . S
C845 C846 1.524 . S
C846 C845 1.524 . S
C846 C847 1.397 . S
C846 C851 1.363 . S
C847 H818 0.950 . S
C847 C846 1.397 . S
C847 C848 1.334 . S
C848 H819 0.950 . S
C848 C847 1.334 . S
C848 C849 1.287 . S
C849 C848 1.287 . S
C849 C850 1.524 . S
C849 H852 0.999 . S
C850 H820 0.950 . S
C850 C849 1.524 . S
C850 C851 1.415 . S
C851 H821 0.950 1_455 S
C851 C846 1.363 . S
C851 C850 1.415 . S
H852 C849 0.999 . S
H853 C834 0.913 . S
H854 C872 0.951 . S
H855 C874 0.951 . S
H856 C876 0.950 . S
H857 C877 0.950 . S
H858 C879 0.950 . S
H859 C882 0.950 . S
H860 C883 0.950 . S
H861 C885 0.950 . S
H862 C886 0.950 . S
H863 C887 0.951 . S
H864 C889 0.951 . S
H865 C891 0.950 . S
H866 C892 0.950 . S
H867 C894 0.950 . S
H868 C897 0.950 . S
H869 C898 0.950 . S
H870 C900 0.950 . S
H871 C901 0.950 . S
C872 H854 0.951 . S
C872 C873 1.366 . S
C872 C874 1.388 . S
C873 C872 1.366 . S
C873 C877 1.385 . S
C874 H855 0.951 . S
C874 C872 1.388 . S
C874 C875 1.366 . S
C875 C874 1.366 . S
C875 C876 1.414 . S
C875 C878 1.499 . S
C876 H856 0.950 . S
C876 C875 1.414 . S
C876 C877 1.374 . S
C877 H857 0.950 . S
C877 C873 1.385 . S
C877 C876 1.374 . S
C878 C875 1.499 . S
C878 C879 1.373 . S
C878 C880 1.389 . S
C879 H858 0.950 . S
C879 C878 1.373 . S
C879 C895 1.377 1_556 S
C880 C878 1.389 . S
C880 C881 1.524 . S
C880 C894 1.377 1_556 S
C881 C880 1.524 . S
C881 C882 1.397 . S
C881 C886 1.363 . S
C882 H859 0.950 . S
C882 C881 1.397 . S
C882 C883 1.334 . S
C883 H860 0.950 . S
C883 C882 1.334 . S
C883 C884 1.287 . S
C884 C883 1.287 . S
C884 C885 1.524 . S
C884 H903 0.913 . S
C885 H861 0.950 . S
C885 C884 1.524 . S
C885 C886 1.415 . S
C886 H862 0.950 . S
C886 C881 1.363 . S
C886 C885 1.415 . S
C887 H863 0.951 . S
C887 C888 1.366 . S
C887 C889 1.388 . S
C888 C887 1.366 . S
C888 C892 1.385 . S
C889 H864 0.951 . S
C889 C887 1.388 . S
C889 C890 1.366 . S
C890 C889 1.366 . S
C890 C891 1.414 . S
C890 C893 1.499 . S
C891 H865 0.950 . S
C891 C890 1.414 . S
C891 C892 1.374 . S
C892 H866 0.950 . S
C892 C888 1.385 . S
C892 C891 1.374 . S
C893 C890 1.499 . S
C893 C894 1.373 . S
C893 C895 1.389 . S
C894 H867 0.950 . S
C894 C880 1.377 1_554 S
C894 C893 1.373 . S
C895 C879 1.377 1_554 S
C895 C893 1.389 . S
C895 C896 1.524 . S
C896 C895 1.524 . S
C896 C897 1.397 . S
C896 C901 1.363 . S
C897 H868 0.950 . S
C897 C896 1.397 . S
C897 C898 1.334 . S
C898 H869 0.950 . S
C898 C897 1.334 . S
C898 C899 1.287 . S
C899 C898 1.287 . S
C899 C900 1.524 . S
C899 H902 0.999 . S
C900 H870 0.950 . S
C900 C899 1.524 . S
C900 C901 1.415 . S
C901 H871 0.950 . S
C901 C896 1.363 . S
C901 C900 1.415 . S
H902 C899 0.999 . S
H903 C884 0.913 . S
H904 C922 0.951 . S
H905 C924 0.951 . S
H906 C926 0.950 . S
H907 C927 0.950 . S
H908 C929 0.950 . S
H909 C932 0.950 . S
H910 C933 0.950 . S
H911 C935 0.950 1_565 S
H912 C936 0.950 . S
H913 C937 0.951 . S
H914 C939 0.976 . S
H915 C941 0.950 . S
H916 C942 0.950 . S
H917 C944 0.950 . S
H918 C947 0.950 . S
H919 C948 0.950 . S
H920 C950 0.950 . S
H921 C951 0.950 . S
C922 H904 0.951 . S
C922 C923 1.366 . S
C922 C924 1.388 . S
C923 C922 1.366 . S
C923 C927 1.385 . S
C924 H905 0.951 . S
C924 C922 1.388 . S
C924 C925 1.366 . S
C925 C924 1.366 . S
C925 C926 1.414 . S
C925 C928 1.499 . S
C926 H906 0.950 . S
C926 C925 1.414 . S
C926 C927 1.374 . S
C927 H907 0.950 . S
C927 C923 1.385 . S
C927 C926 1.374 . S
C928 C925 1.499 . S
C928 C929 1.373 . S
C928 C930 1.389 . S
C929 H908 0.950 . S
C929 C928 1.373 . S
C929 C945 1.377 1_545 S
C930 C928 1.389 . S
C930 C931 1.524 . S
C930 C944 1.377 1_545 S
C931 C930 1.524 . S
C931 C932 1.397 . S
C931 C936 1.363 1_545 S
C932 H909 0.950 . S
C932 C931 1.397 . S
C932 C933 1.334 . S
C933 H910 0.950 . S
C933 C932 1.334 . S
C933 C934 1.287 . S
C934 C933 1.287 . S
C934 C935 1.524 . S
C934 H953 0.913 . S
C935 H911 0.950 1_545 S
C935 C934 1.524 . S
C935 C936 1.415 1_545 S
C936 H912 0.950 . S
C936 C931 1.363 1_565 S
C936 C935 1.415 1_565 S
C937 H913 0.951 . S
C937 C938 1.366 . S
C937 C939 1.388 . S
C938 C937 1.366 . S
C938 C942 1.385 . S
C939 H914 0.976 . S
C939 C937 1.388 . S
C939 C940 1.366 . S
C940 C939 1.366 . S
C940 C941 1.414 . S
C940 C943 1.499 . S
C941 H915 0.950 . S
C941 C940 1.414 . S
C941 C942 1.374 . S
C942 H916 0.950 . S
C942 C938 1.385 . S
C942 C941 1.374 . S
C943 C940 1.499 . S
C943 C944 1.373 . S
C943 C945 1.389 . S
C944 H917 0.950 . S
C944 C930 1.377 1_565 S
C944 C943 1.373 . S
C945 C929 1.377 1_565 S
C945 C943 1.389 . S
C945 C946 1.524 . S
C946 C945 1.524 . S
C946 C947 1.397 . S
C946 C951 1.363 1_565 S
C947 H918 0.950 . S
C947 C946 1.397 . S
C947 C948 1.334 . S
C948 H919 0.950 . S
C948 C947 1.334 . S
C948 C949 1.287 . S
C949 C948 1.287 . S
C949 C950 1.524 1_565 S
C949 H952 0.999 . S
C950 H920 0.950 . S
C950 C949 1.524 1_545 S
C950 C951 1.415 . S
C951 H921 0.950 . S
C951 C946 1.363 1_545 S
C951 C950 1.415 . S
H952 C949 0.999 . S
H953 C934 0.913 . S
C223 C73 1.570 . S
C238 C20 1.597 . S
C273 C54 1.597 . S
C288 C5 1.571 . S
C323 C88 1.597 . S
C338 C39 1.570 . S
C373 C122 1.597 . S
C388 C141 1.570 . S
C423 C175 1.571 . S
C438 C156 1.597 . S
C473 C107 1.571 . S
C488 C190 1.597 . S
C523 C169 1.055 . S
C538 C33 1.055 . S
C573 C203 1.054 . S
C588 C67 1.054 . S
C623 C135 1.055 . S
C638 C101 1.055 . S
C673 C104 1.406 . S
C688 C2 1.406 . S
C723 C138 1.407 . S
C738 C36 1.406 . S
C773 C70 1.407 . S
C788 C172 1.406 . S
C823 C145 1.318 . S
C838 C9 1.317 . S
C873 C43 1.319 . S
C888 C179 1.318 . S
C923 C111 1.319 . S
C938 C77 1.318 . S
