# Generated by pormake.
# Topology wkj, (6)-cn, num edge types: 1
# Building blocks:
#     Node 0, Type 0, BuildingBlock: KUMBUR_clean_sbu_0, # of connection points: 6
#     Node 1, Type 0, BuildingBlock: KUMBUR_clean_sbu_0, # of connection points: 6
#     Node 2, Type 0, BuildingBlock: KUMBUR_clean_sbu_0, # of connection points: 6
#     Node 3, Type 0, BuildingBlock: KUMBUR_clean_sbu_0, # of connection points: 6
#     Node 4, Type 0, BuildingBlock: KUMBUR_clean_sbu_0, # of connection points: 6
#     Node 5, Type 0, BuildingBlock: KUMBUR_clean_sbu_0, # of connection points: 6
#     Node 6, Type 0, BuildingBlock: KUMBUR_clean_sbu_0, # of connection points: 6
#     Node 7, Type 0, BuildingBlock: KUMBUR_clean_sbu_0, # of connection points: 6
#     Node 8, Type 0, BuildingBlock: KUMBUR_clean_sbu_0, # of connection points: 6
#     Node 9, Type 0, BuildingBlock: KUMBUR_clean_sbu_0, # of connection points: 6
#     Node 10, Type 0, BuildingBlock: KUMBUR_clean_sbu_0, # of connection points: 6
#     Node 11, Type 0, BuildingBlock: KUMBUR_clean_sbu_0, # of connection points: 6
#     Edge 12, Type (0, 0), BuildingBlock: MIFKUJ_clean_linker_0, # of connection points: 2
#     Edge 13, Type (0, 0), BuildingBlock: MIFKUJ_clean_linker_0, # of connection points: 2
#     Edge 14, Type (0, 0), BuildingBlock: MIFKUJ_clean_linker_0, # of connection points: 2
#     Edge 15, Type (0, 0), BuildingBlock: MIFKUJ_clean_linker_0, # of connection points: 2
#     Edge 16, Type (0, 0), BuildingBlock: MIFKUJ_clean_linker_0, # of connection points: 2
#     Edge 17, Type (0, 0), BuildingBlock: MIFKUJ_clean_linker_0, # of connection points: 2
#     Edge 18, Type (0, 0), BuildingBlock: MIFKUJ_clean_linker_0, # of connection points: 2
#     Edge 19, Type (0, 0), BuildingBlock: MIFKUJ_clean_linker_0, # of connection points: 2
#     Edge 20, Type (0, 0), BuildingBlock: MIFKUJ_clean_linker_0, # of connection points: 2
#     Edge 21, Type (0, 0), BuildingBlock: MIFKUJ_clean_linker_0, # of connection points: 2
#     Edge 22, Type (0, 0), BuildingBlock: MIFKUJ_clean_linker_0, # of connection points: 2
#     Edge 23, Type (0, 0), BuildingBlock: MIFKUJ_clean_linker_0, # of connection points: 2
#     Edge 24, Type (0, 0), BuildingBlock: MIFKUJ_clean_linker_0, # of connection points: 2
#     Edge 25, Type (0, 0), BuildingBlock: MIFKUJ_clean_linker_0, # of connection points: 2
#     Edge 26, Type (0, 0), BuildingBlock: MIFKUJ_clean_linker_0, # of connection points: 2
#     Edge 27, Type (0, 0), BuildingBlock: MIFKUJ_clean_linker_0, # of connection points: 2
#     Edge 28, Type (0, 0), BuildingBlock: MIFKUJ_clean_linker_0, # of connection points: 2
#     Edge 29, Type (0, 0), BuildingBlock: MIFKUJ_clean_linker_0, # of connection points: 2
#     Edge 30, Type (0, 0), BuildingBlock: MIFKUJ_clean_linker_0, # of connection points: 2
#     Edge 31, Type (0, 0), BuildingBlock: MIFKUJ_clean_linker_0, # of connection points: 2
#     Edge 32, Type (0, 0), BuildingBlock: MIFKUJ_clean_linker_0, # of connection points: 2
#     Edge 33, Type (0, 0), BuildingBlock: MIFKUJ_clean_linker_0, # of connection points: 2
#     Edge 34, Type (0, 0), BuildingBlock: MIFKUJ_clean_linker_0, # of connection points: 2
#     Edge 35, Type (0, 0), BuildingBlock: MIFKUJ_clean_linker_0, # of connection points: 2
#     Edge 36, Type (0, 0), BuildingBlock: MIFKUJ_clean_linker_0, # of connection points: 2
#     Edge 37, Type (0, 0), BuildingBlock: MIFKUJ_clean_linker_0, # of connection points: 2
#     Edge 38, Type (0, 0), BuildingBlock: MIFKUJ_clean_linker_0, # of connection points: 2
#     Edge 39, Type (0, 0), BuildingBlock: MIFKUJ_clean_linker_0, # of connection points: 2
#     Edge 40, Type (0, 0), BuildingBlock: MIFKUJ_clean_linker_0, # of connection points: 2
#     Edge 41, Type (0, 0), BuildingBlock: MIFKUJ_clean_linker_0, # of connection points: 2
#     Edge 42, Type (0, 0), BuildingBlock: MIFKUJ_clean_linker_0, # of connection points: 2
#     Edge 43, Type (0, 0), BuildingBlock: MIFKUJ_clean_linker_0, # of connection points: 2
#     Edge 44, Type (0, 0), BuildingBlock: MIFKUJ_clean_linker_0, # of connection points: 2
#     Edge 45, Type (0, 0), BuildingBlock: MIFKUJ_clean_linker_0, # of connection points: 2
#     Edge 46, Type (0, 0), BuildingBlock: MIFKUJ_clean_linker_0, # of connection points: 2
#     Edge 47, Type (0, 0), BuildingBlock: MIFKUJ_clean_linker_0, # of connection points: 2
# Relax obj value: 0.443
# Max RMSD: 0.214
# Mean RMSD: 0.214
data_MOF--net-wkj--node1-KUMBUR_clean_sbu_0--edge1-MIFKUJ_clean_linker_0
_symmetry_space_group_name_H-M    P1
_symmetry_Int_Tables_number       1
_symmetry_cell_setting            triclinic
loop_
_symmetry_equiv_pos_as_xyz
'x, y, z'
_cell_length_a     64.870759
_cell_length_b     64.983774
_cell_length_c     38.002939
_cell_angle_alpha  90.239913
_cell_angle_beta   90.080942
_cell_angle_gamma 120.00182
loop_
_atom_site_label
_atom_site_type_symbol
_atom_site_fract_x
_atom_site_fract_y
_atom_site_fract_z
_atom_type_partial_charge
Tb0 Tb 0.46272 0.0874 0.31867 0.0
C1 C 0.55072 0.11745 0.36786 0.0
C2 C 0.55793 0.1553 0.39126 0.0
C3 C 0.5779 0.13599 0.41737 0.0
C4 C 0.54664 0.13649 0.36665 0.0
C5 C 0.56575 0.11671 0.39423 0.0
C6 C 0.5742 0.15536 0.41553 0.0
C7 C 0.5555 0.07771 0.3737 0.0
N8 N 0.53892 0.09909 0.34475 0.0
C9 C 0.54164 0.07952 0.34705 0.0
C10 C 0.56785 0.09646 0.39708 0.0
Tb11 Tb 0.52035 0.10724 0.2995 0.0
N12 N 0.53048 0.13581 0.34305 0.0
C13 C 0.52391 0.15288 0.34486 0.0
C14 C 0.55194 0.17314 0.39178 0.0
C15 C 0.53447 0.17161 0.369 0.0
H16 H 0.53397 0.06546 0.32787 0.0
H17 H 0.52911 0.18493 0.36989 0.0
H18 H 0.5835 0.1701 0.43357 0.0
H19 H 0.55715 0.06207 0.37585 0.0
H20 H 0.51034 0.15248 0.32846 0.0
H21 H 0.39307 -0.00555 0.32725 0.0
H22 H 0.5601 0.18772 0.41048 0.0
H23 H 0.45055 0.13135 0.30702 0.0
H24 H 0.42915 0.03081 0.34752 0.0
H25 H 0.42216 0.13815 0.27328 0.0
H26 H 0.58988 0.1359 0.43718 0.0
H27 H 0.36913 -0.00362 0.27801 0.0
H28 H 0.3604 0.02183 0.23805 0.0
H29 H 0.57889 0.09508 0.41732 0.0
H30 H 0.36831 0.06194 0.22322 0.0
N31 N 0.42709 0.05278 0.3077 0.0
C32 C 0.41908 0.03184 0.32556 0.0
C33 C 0.38522 0.0123 0.28625 0.0
C34 C 0.39165 0.03432 0.27137 0.0
C35 C 0.39862 0.01118 0.31421 0.0
C36 C 0.41288 0.05445 0.28289 0.0
H37 H 0.39071 0.10557 0.23776 0.0
N38 N 0.43641 0.09548 0.28925 0.0
C39 C 0.42087 0.12088 0.27252 0.0
C40 C 0.4176 0.07684 0.27359 0.0
C41 C 0.4369 0.11686 0.2917 0.0
C42 C 0.40329 0.10251 0.25233 0.0
C43 C 0.40087 0.07989 0.25384 0.0
O44 O 0.47336 0.11801 0.34941 0.0
O45 O 0.49762 0.10085 0.34613 0.0
O46 O 0.50412 0.06923 0.30241 0.0
O47 O 0.46338 0.05477 0.30787 0.0
O48 O 0.4699 0.0717 0.36713 0.0
O49 O 0.43789 0.08746 0.35359 0.0
O50 O 0.54838 0.1024 0.28143 0.0
O51 O 0.48499 0.08957 0.27402 0.0
O52 O 0.47447 0.11508 0.27588 0.0
O53 O 0.51539 0.1356 0.27661 0.0
O54 O 0.51088 0.09202 0.24418 0.0
O55 O 0.55197 0.13716 0.28504 0.0
C56 C 0.4924 0.08653 0.37328 0.0
C57 C 0.45557 0.1097 0.40533 0.0
C58 C 0.44655 0.08994 0.46192 0.0
C59 C 0.44457 0.08898 0.42532 0.0
C60 C 0.45948 0.11204 0.47894 0.0
C61 C 0.46863 0.13177 0.42237 0.0
C62 C 0.47053 0.13289 0.4591 0.0
C63 C 0.48187 0.05181 0.30322 0.0
C64 C 0.45342 0.10816 0.36685 0.0
C65 C 0.38107 0.05995 0.23916 0.0
C66 C 0.37654 0.03712 0.24772 0.0
C67 C 0.48793 0.08252 0.24271 0.0
C68 C 0.57527 0.13191 0.24256 0.0
C69 C 0.57693 0.15105 0.22357 0.0
C70 C 0.59107 0.15927 0.19363 0.0
C71 C 0.60377 0.14814 0.18242 0.0
C72 C 0.58795 0.12082 0.23127 0.0
C73 C 0.60209 0.1289 0.20117 0.0
C74 C 0.49505 0.13469 0.26902 0.0
C75 C 0.56205 0.12498 0.27566 0.0
H76 H 0.43422 0.07186 0.41243 0.0
H77 H 0.46128 0.11312 0.50733 0.0
H78 H 0.47734 0.14804 0.4073 0.0
H79 H 0.48064 0.14993 0.47219 0.0
H80 H 0.56754 0.16002 0.23233 0.0
H81 H 0.61463 0.15405 0.15897 0.0
H82 H 0.58715 0.10618 0.24596 0.0
H83 H 0.61183 0.12033 0.19245 0.0
Tb84 Tb 0.38067 0.47014 0.65126 0.0
C85 C 0.45585 0.56624 0.6717 0.0
C86 C 0.43556 0.58196 0.70654 0.0
C87 C 0.47853 0.59986 0.711 0.0
C88 C 0.43492 0.56492 0.68273 0.0
C89 C 0.47794 0.58388 0.68548 0.0
C90 C 0.4574 0.59907 0.72122 0.0
C91 C 0.49743 0.57069 0.64453 0.0
N92 N 0.45467 0.55114 0.64597 0.0
C93 C 0.47516 0.55394 0.63104 0.0
C94 C 0.49882 0.58556 0.67217 0.0
Tb95 Tb 0.41723 0.52483 0.62535 0.0
N96 N 0.41408 0.54786 0.6685 0.0
C97 C 0.39319 0.54726 0.67647 0.0
C98 C 0.41434 0.58172 0.71411 0.0
C99 C 0.39307 0.56435 0.69884 0.0
H100 H 0.47428 0.54264 0.60946 0.0
H101 H 0.37652 0.56387 0.70472 0.0
H102 H 0.4582 0.61206 0.73997 0.0
H103 H 0.51351 0.57227 0.63341 0.0
H104 H 0.37651 0.53378 0.66544 0.0
H105 H 0.3886 0.41258 0.74809 0.0
H106 H 0.41414 0.59473 0.73182 0.0
H107 H 0.35725 0.45563 0.57019 0.0
H108 H 0.38248 0.44477 0.72944 0.0
H109 H 0.34719 0.42381 0.52722 0.0
H110 H 0.4953 0.61344 0.72205 0.0
H111 H 0.38954 0.38486 0.70441 0.0
H112 H 0.38358 0.37052 0.64208 0.0
H113 H 0.51611 0.59875 0.68224 0.0
H114 H 0.37178 0.3733 0.58161 0.0
N115 N 0.38307 0.43831 0.67394 0.0
C116 C 0.38429 0.43417 0.70914 0.0
C117 C 0.38772 0.39972 0.6956 0.0
C118 C 0.38427 0.40256 0.66007 0.0
C119 C 0.38721 0.41532 0.7203 0.0
C120 C 0.38199 0.42224 0.64992 0.0
H121 H 0.3571 0.39245 0.53911 0.0
N122 N 0.37232 0.44242 0.60764 0.0
C123 C 0.35564 0.42388 0.55183 0.0
C124 C 0.37606 0.42418 0.61567 0.0
C125 C 0.36135 0.44195 0.57662 0.0
C126 C 0.36137 0.40628 0.55853 0.0
C127 C 0.37129 0.40598 0.59102 0.0
O128 O 0.35479 0.47575 0.67587 0.0
O129 O 0.39871 0.50677 0.67491 0.0
O130 O 0.4387 0.51463 0.65567 0.0
O131 O 0.416 0.47373 0.65352 0.0
O132 O 0.39705 0.48085 0.70472 0.0
O133 O 0.34755 0.44037 0.66294 0.0
O134 O 0.43647 0.54291 0.58026 0.0
O135 O 0.39786 0.48862 0.60022 0.0
O136 O 0.35727 0.47824 0.6187 0.0
O137 O 0.38071 0.5182 0.6104 0.0
O138 O 0.43311 0.5091 0.59038 0.0
O139 O 0.41367 0.5531 0.60643 0.0
C140 C 0.40484 0.50327 0.70688 0.0
C141 C 0.32316 0.44401 0.70617 0.0
C142 C 0.30784 0.41799 0.75689 0.0
C143 C 0.32466 0.42848 0.7299 0.0
C144 C 0.28956 0.42356 0.76001 0.0
C145 C 0.30503 0.44963 0.70983 0.0
C146 C 0.28832 0.43944 0.73669 0.0
C147 C 0.43609 0.49346 0.66089 0.0
C148 C 0.33909 0.45322 0.67588 0.0
C149 C 0.37502 0.38721 0.60037 0.0
C150 C 0.38168 0.3856 0.63481 0.0
C151 C 0.41525 0.48896 0.5811 0.0
C152 C 0.41315 0.55352 0.54559 0.0
C153 C 0.40446 0.56914 0.54082 0.0
C154 C 0.39077 0.56723 0.51117 0.0
C155 C 0.3856 0.54899 0.48643 0.0
C156 C 0.40762 0.53529 0.52097 0.0
C157 C 0.39386 0.53308 0.49152 0.0
C158 C 0.35943 0.49872 0.60914 0.0
C159 C 0.42577 0.55521 0.57828 0.0
H160 H 0.33902 0.4247 0.72736 0.0
H161 H 0.27618 0.41561 0.78032 0.0
H162 H 0.30358 0.46162 0.6916 0.0
H163 H 0.27424 0.4437 0.73924 0.0
H164 H 0.4082 0.58262 0.56065 0.0
H165 H 0.37577 0.54732 0.46253 0.0
H166 H 0.41366 0.52263 0.52461 0.0
H167 H 0.38975 0.51913 0.47242 0.0
Tb168 Tb 0.90634 0.37703 0.98525 0.0
C169 C 0.88652 0.45542 1.00638 0.0
C170 C 0.85268 0.4362 1.04543 0.0
C171 C 0.87744 0.47925 1.04604 0.0
C172 C 0.86729 0.43491 1.01911 0.0
C173 C 0.89197 0.47784 1.01989 0.0
C174 C 0.85768 0.45848 1.05843 0.0
C175 C 0.92525 0.49581 0.97994 0.0
N176 N 0.90018 0.45331 0.98123 0.0
C177 C 0.91901 0.47321 0.96711 0.0
C178 C 0.91176 0.49814 1.00659 0.0
Tb179 Tb 0.8879 0.4154 0.96201 0.0
N180 N 0.86336 0.41368 1.00648 0.0
C181 C 0.84482 0.39295 1.01898 0.0
C182 C 0.83374 0.41506 1.0583 0.0
C183 C 0.82985 0.39334 1.04508 0.0
H184 H 0.92958 0.47162 0.9465 0.0
H185 H 0.81536 0.37687 1.05506 0.0
H186 H 0.84635 0.45978 0.07804 0.0
H187 H 0.94046 0.51142 0.96922 0.0
H188 H 0.84173 0.37595 1.00961 0.0
H189 H 0.94391 0.35766 0.87226 0.0
H190 H 0.82219 0.41532 0.07868 0.0
H191 H 0.86164 0.34218 1.03928 0.0
H192 H 0.9396 0.38327 0.91597 0.0
H193 H 0.83669 0.29913 1.04998 0.0
H194 H 0.88124 0.49629 1.05669 0.0
H195 H 0.91909 0.31395 0.87701 0.0
H196 H 0.88821 0.27863 0.91054 0.0
H197 H 0.91663 0.51567 1.01648 0.0
H198 H 0.86 0.26275 0.95986 0.0
N199 N 0.91007 0.35499 0.94144 0.0
C200 C 0.92722 0.36452 0.91622 0.0
C201 C 0.91648 0.32525 0.89536 0.0
C202 C 0.90012 0.3155 0.9229 0.0
C203 C 0.93033 0.3499 0.89233 0.0
C204 C 0.89761 0.33102 0.94619 0.0
H205 H 0.84065 0.27027 1.01203 0.0
N206 N 0.87996 0.33776 0.99606 0.0
C207 C 0.84952 0.3054 1.02882 0.0
C208 C 0.88225 0.32204 0.97473 0.0
C209 C 0.86379 0.32981 1.0228 0.0
C210 C 0.85185 0.28913 1.00737 0.0
C211 C 0.86823 0.29737 0.97972 0.0
O212 O 0.91925 0.35924 1.01522 0.0
O213 O 0.89129 0.39763 1.00937 0.0
O214 O 0.91755 0.43476 0.997 0.0
O215 O 0.93649 0.41345 0.98671 0.0
O216 O 0.89925 0.37999 1.04297 0.0
O217 O 0.94312 0.38859 0.98246 0.0
O218 O 0.88849 0.43585 0.9189 0.0
O219 O 0.9046 0.39581 0.93662 0.0
O220 O 0.87224 0.35464 0.95636 0.0
O221 O 0.8564 0.37899 0.9509 0.0
O222 O 0.91886 0.43065 0.92556 0.0
O223 O 0.85531 0.4093 0.94145 0.0
C224 C 0.89218 0.39539 1.04391 0.0
C225 C 0.95897 0.38097 1.03395 0.0
C226 C 0.96861 0.37973 0.0952 0.0
C227 C 0.95175 0.37428 1.06885 0.0
C228 C -0.00708 0.39208 0.08709 0.0
C229 C 0.98334 0.39346 1.02592 0.0
C230 C 0.00026 0.39907 1.05252 0.0
C231 C 0.93623 0.43206 0.99997 0.0
C232 C 0.94121 0.37299 1.00563 0.0
C233 C 0.87058 0.28181 0.95644 0.0
C234 C 0.88654 0.29085 0.92819 0.0
C235 C 0.92131 0.41279 0.91715 0.0
C236 C 0.85696 0.41169 0.88056 0.0
C237 C 0.83324 0.40345 0.87122 0.0
C238 C 0.82344 0.38888 0.84158 0.0
C239 C 0.83757 0.38273 0.82109 0.0
C240 C 0.87114 0.40598 0.85934 0.0
C241 C 0.86143 0.39152 0.82975 0.0
C242 C 0.85402 0.3575 0.94853 0.0
C243 C 0.86552 0.42322 0.91481 0.0
H244 H 0.93304 0.36441 0.07569 0.0
H245 H 0.00611 0.39588 0.10734 0.0
H246 H 0.98924 0.39841 0.99904 0.0
H247 H 0.01903 0.40844 1.04625 0.0
H248 H 0.82225 0.4079 0.88743 0.0
H249 H 0.83033 0.37169 0.79789 0.0
H250 H 0.88953 0.41225 0.86599 0.0
H251 H 0.87238 0.38703 0.81362 0.0
Tb252 Tb 0.52252 0.90117 0.327 0.0
C253 C 0.43686 0.9129 0.33614 0.0
C254 C 0.40822 0.8847 0.37739 0.0
C255 C 0.40672 0.92017 0.36172 0.0
C256 C 0.42802 0.89201 0.35512 0.0
C257 C 0.42642 0.92732 0.3395 0.0
C258 C 0.39764 0.89891 0.38061 0.0
C259 C 0.45589 0.95487 0.2991 0.0
N260 N 0.45588 0.91915 0.31473 0.0
C261 C 0.46603 0.94029 0.29727 0.0
C262 C 0.43607 0.94843 0.32033 0.0
Tb263 Tb 0.46678 0.89077 0.30879 0.0
N264 N 0.4391 0.87902 0.3521 0.0
C265 C 0.43076 0.85804 0.36975 0.0
C266 C 0.39965 0.86329 0.39568 0.0
C267 C 0.41089 0.84985 0.39168 0.0
H268 H 0.48184 0.94605 0.28174 0.0
H269 H 0.40438 0.83328 0.40566 0.0
H270 H 0.38247 0.89366 0.3977 0.0
H271 H 0.46326 0.97099 0.28391 0.0
H272 H 0.43939 0.84756 0.36676 0.0
H273 H 0.58125 0.99179 0.28103 0.0
H274 H 0.38444 0.85703 0.41296 0.0
H275 H 0.5255 0.85225 0.29975 0.0
H276 H 0.557 0.96203 0.32373 0.0
H277 H 0.53352 0.83753 0.24579 0.0
H278 H 0.39843 0.931 0.36458 0.0
H279 H 0.58953 0.98003 0.22348 0.0
H280 H 0.58608 0.94802 0.18385 0.0
H281 H 0.42844 0.95991 0.32187 0.0
H282 H 0.5717 0.90576 0.17321 0.0
N283 N 0.54743 0.93197 0.28974 0.0
C284 C 0.55863 0.95578 0.29824 0.0
C285 C 0.57789 0.96647 0.24183 0.0
C286 C 0.56846 0.9424 0.23421 0.0
C287 C 0.5732 0.97316 0.2742 0.0
C288 C 0.55303 0.92528 0.25882 0.0
H289 H 0.55151 0.86442 0.19545 0.0
N290 N 0.53191 0.88544 0.2783 0.0
C291 C 0.53597 0.85527 0.24667 0.0
C292 C 0.54466 0.90133 0.25264 0.0
C293 C 0.53016 0.86344 0.27695 0.0
C294 C 0.54626 0.87054 0.21851 0.0
C295 C 0.55195 0.89418 0.22198 0.0
O296 O 0.54713 0.88992 0.33735 0.0
O297 O 0.48678 0.88671 0.35294 0.0
O298 O 0.4813 0.9165 0.35363 0.0
O299 O 0.5194 0.93235 0.33617 0.0
O300 O 0.51285 0.89469 0.38556 0.0
O301 O 0.55288 0.92331 0.35705 0.0
O302 O 0.43546 0.88138 0.28002 0.0
O303 O 0.50249 0.9076 0.28326 0.0
O304 O 0.49986 0.86219 0.32763 0.0
O305 O 0.47107 0.85967 0.29044 0.0
O306 O 0.47717 0.91012 0.2572 0.0
O307 O 0.44273 0.85427 0.30176 0.0
C308 C 0.49002 0.88665 0.38768 0.0
C309 C 0.56651 0.90215 0.39162 0.0
C310 C 0.57114 0.90809 0.45473 0.0
C311 C 0.5638 0.91231 0.42239 0.0
C312 C 0.58086 0.89313 0.45674 0.0
C313 C 0.57594 0.88686 0.39364 0.0
C314 C 0.58289 0.88222 0.42618 0.0
C315 C 0.50414 0.93243 0.35819 0.0
C316 C 0.5602 0.90796 0.35742 0.0
C317 C 0.56619 0.91105 0.19686 0.0
C318 C 0.57451 0.93511 0.20302 0.0
C319 C 0.49942 0.91669 0.25344 0.0
C320 C 0.40465 0.84032 0.27377 0.0
C321 C 0.40376 0.82157 0.25462 0.0
C322 C 0.38186 0.80243 0.24391 0.0
C323 C 0.36069 0.80144 0.25494 0.0
C324 C 0.38357 0.8395 0.28429 0.0
C325 C 0.36161 0.81988 0.27525 0.0
C326 C 0.48232 0.84948 0.30557 0.0
C327 C 0.42754 0.85893 0.2867 0.0
H328 H 0.55703 0.92455 0.42121 0.0
H329 H 0.58722 0.89032 0.48161 0.0
H330 H 0.57818 0.87876 0.37006 0.0
H331 H 0.59038 0.87064 0.42755 0.0
H332 H 0.42023 0.82223 0.2472 0.0
H333 H 0.3435 0.78702 0.24663 0.0
H334 H 0.38412 0.85362 0.30026 0.0
H335 H 0.34528 0.81912 0.28351 0.0
Tb336 Tb 0.60738 0.52379 0.64821 0.0
C337 C 0.52774 0.42344 0.65693 0.0
C338 C 0.54475 0.40658 0.69632 0.0
C339 C 0.50178 0.38804 0.69056 0.0
C340 C 0.54751 0.42412 0.67197 0.0
C341 C 0.50464 0.4054 0.66608 0.0
C342 C 0.52179 0.38858 0.70555 0.0
C343 C 0.48884 0.4227 0.62572 0.0
N344 N 0.5312 0.44074 0.63374 0.0
C345 C 0.51206 0.44017 0.61733 0.0
C346 C 0.48509 0.40531 0.65035 0.0
Tb347 Tb 0.57027 0.46778 0.62142 0.0
N348 N 0.56941 0.44239 0.66363 0.0
C349 C 0.58939 0.44364 0.67782 0.0
C350 C 0.56514 0.40805 0.71135 0.0
C351 C 0.58755 0.42664 0.70201 0.0
H352 H 0.51446 0.45336 0.59822 0.0
H353 H 0.60344 0.42791 0.71344 0.0
H354 H 0.51931 0.3751 0.72445 0.0
H355 H 0.47383 0.42265 0.61313 0.0
H356 H 0.60682 0.4578 0.67078 0.0
H357 H 0.56671 0.57927 0.66796 0.0
H358 H 0.56377 0.39501 0.73028 0.0
H359 H 0.64595 0.52718 0.58635 0.0
H360 H 0.57972 0.55151 0.68628 0.0
H361 H 0.66413 0.5498 0.53369 0.0
H362 H 0.48417 0.3741 0.69804 0.0
H363 H 0.57761 0.5979 0.60945 0.0
H364 H 0.60159 0.60563 0.55527 0.0
H365 H 0.46706 0.39181 0.65679 0.0
H366 H 0.62958 0.59898 0.52013 0.0
N367 N 0.59452 0.55062 0.63615 0.0
C368 C 0.58327 0.55802 0.65957 0.0
C369 C 0.5825 0.58479 0.61671 0.0
C370 C 0.59635 0.57949 0.59448 0.0
C371 C 0.57629 0.57431 0.64969 0.0
C372 C 0.60206 0.56203 0.60482 0.0
H373 H 0.65319 0.57886 0.51223 0.0
N374 N 0.62247 0.54085 0.59465 0.0
C375 C 0.65061 0.5519 0.5472 0.0
C376 C 0.61717 0.5577 0.58423 0.0
C377 C 0.63961 0.53848 0.57709 0.0
C378 C 0.64456 0.56841 0.53537 0.0
C379 C 0.62777 0.57157 0.55395 0.0
O380 O 0.64423 0.54014 0.65882 0.0
O381 O 0.5894 0.48755 0.66991 0.0
O382 O 0.54828 0.47329 0.65822 0.0
O383 O 0.57113 0.51401 0.66504 0.0
O384 O 0.60147 0.5136 0.70511 0.0
O385 O 0.62396 0.55654 0.6745 0.0
O386 O 0.55494 0.45142 0.57299 0.0
O387 O 0.58922 0.50459 0.59811 0.0
O388 O 0.63085 0.50804 0.6425 0.0
O389 O 0.60729 0.47577 0.60786 0.0
O390 O 0.55397 0.48437 0.58889 0.0
O391 O 0.57628 0.44087 0.60293 0.0
C392 C 0.58996 0.49056 0.70483 0.0
C393 C 0.6577 0.5653 0.70902 0.0
C394 C 0.66028 0.5785 0.77001 0.0
C395 C 0.6467 0.56688 0.73989 0.0
C396 C 0.68498 0.587 0.76934 0.0
C397 C 0.68223 0.57366 0.70911 0.0
C398 C 0.69571 0.58416 0.73933 0.0
C399 C 0.55151 0.49353 0.67073 0.0
C400 C 0.64455 0.55779 0.67552 0.0
C401 C 0.62164 0.58841 0.54333 0.0
C402 C 0.60571 0.59213 0.56326 0.0
C403 C 0.57169 0.50459 0.58001 0.0
C404 C 0.58119 0.44247 0.54183 0.0
C405 C 0.59591 0.43233 0.5423 0.0
C406 C 0.61045 0.43453 0.51343 0.0
C407 C 0.61027 0.44789 0.48425 0.0
C408 C 0.58154 0.45575 0.51261 0.0
C409 C 0.59617 0.45855 0.48415 0.0
C410 C 0.62839 0.49045 0.62199 0.0
C411 C 0.56632 0.43965 0.57271 0.0
H412 H 0.62762 0.55967 0.73993 0.0
H413 H 0.69631 0.59656 0.79147 0.0
H414 H 0.69105 0.57267 0.6855 0.0
H415 H 0.71472 0.59091 0.73908 0.0
H416 H 0.59593 0.42286 0.56558 0.0
H417 H 0.62025 0.44959 0.46066 0.0
H418 H 0.57061 0.46402 0.51171 0.0
H419 H 0.59624 0.46866 0.46153 0.0
Tb420 Tb 0.07889 0.60921 0.98845 0.0
C421 C 0.08895 0.52442 1.0063 0.0
C422 C 0.12649 0.53947 1.03729 0.0
C423 C 0.09707 0.49741 1.03976 0.0
C424 C 0.11072 0.54336 1.0165 0.0
C425 C 0.08187 0.50121 1.01782 0.0
C426 C 0.11942 0.51646 1.04921 0.0
C427 C 0.0462 0.48686 0.98268 0.0
N428 N 0.07506 0.52866 0.98418 0.0
C429 C 0.05422 0.51006 0.97126 0.0
C430 C 0.06001 0.48242 1.00623 0.0
Tb431 Tb 0.09135 0.56727 0.96534 0.0
N432 N 0.11674 0.56549 1.00522 0.0
C433 C 0.13853 0.58451 1.01343 0.0
C434 C 0.14895 0.55883 1.0453 0.0
C435 C 0.155 0.58145 1.03327 0.0
H436 H 0.04348 0.51313 0.95263 0.0
H437 H 0.17226 0.59655 1.03948 0.0
H438 H 0.13117 0.51318 1.06554 0.0
H439 H 0.0295 0.47238 0.97297 0.0
H440 H 0.14351 0.60202 1.0043 0.0
H441 H -0.00889 0.59091 1.03007 0.0
H442 H 0.16163 0.55656 1.06098 0.0
H443 H 0.11027 0.638 0.91702 0.0
H444 H 0.03154 0.59693 1.03879 0.0
H445 H 0.1027 0.65012 0.85983 0.0
H446 H 0.09194 0.47971 1.04891 0.0
H447 H 0.97845 0.5964 0.9711 0.0
H448 H 0.98914 0.60897 0.90835 0.0
H449 H 0.05389 0.46436 1.01467 0.0
H450 H 0.01965 0.62551 0.86219 0.0
N451 N 0.04125 0.60449 0.98481 0.0
C452 C 0.02604 0.59913 1.01283 0.0
C453 C -0.00388 0.59886 0.97472 0.0
C454 C 0.01227 0.60609 0.94682 0.0
C455 C 0.00321 0.59581 1.00804 0.0
C456 C 0.03506 0.60899 0.95283 0.0
H457 H 0.06214 0.64156 0.84423 0.0
N458 N 0.07421 0.62153 0.93398 0.0
C459 C 0.08824 0.64087 0.87823 0.0
C460 C 0.05219 0.61816 0.92678 0.0
C461 C 0.09244 0.63375 0.91083 0.0
C462 C 0.06535 0.63605 0.86955 0.0
C463 C 0.04704 0.62487 0.8941 0.0
O464 O 0.1068 0.64443 0.99669 0.0
O465 O 0.09516 0.58949 1.01333 0.0
O466 O 0.06252 0.55007 1.00246 0.0
O467 O 0.04665 0.57439 0.99549 0.0
O468 O 0.07496 0.59756 1.04449 0.0
O469 O 0.07148 0.63376 1.01282 0.0
O470 O 0.08712 0.54494 0.92245 0.0
O471 O 0.07789 0.58923 0.93974 0.0
O472 O 0.11774 0.62896 0.98007 0.0
O473 O 0.1224 0.60221 0.94697 0.0
O474 O 0.05902 0.55374 0.93159 0.0
O475 O 0.12189 0.56946 0.94289 0.0
C476 C 0.08753 0.58714 1.04651 0.0
C477 C 0.10239 0.66118 1.04946 0.0
C478 C 0.09384 0.66649 0.11005 0.0
C479 C 0.08609 0.65774 0.07604 0.0
C480 C 0.11828 0.67915 0.11762 0.0
C481 C 0.12689 0.67441 1.05697 0.0
C482 C 0.13474 0.68332 0.09095 0.0
C483 C 0.04518 0.55466 1.00724 0.0
C484 C 0.09354 0.65034 1.01453 0.0
C485 C 0.02401 0.62081 0.88733 0.0
C486 C 0.00664 0.61137 0.9136 0.0
C487 C 0.0594 0.57285 0.92194 0.0
C488 C 0.11809 0.56594 0.8819 0.0
C489 C 0.14255 0.57813 0.87483 0.0
C490 C 0.15112 0.59146 0.8441 0.0
C491 C 0.13514 0.59226 0.82 0.0
C492 C 0.10216 0.5662 0.85701 0.0
C493 C 0.11072 0.57939 0.82624 0.0
C494 C 0.13102 0.62422 0.95927 0.0
C495 C 0.10991 0.55554 0.91685 0.0
H496 H 0.06713 0.64752 1.07067 0.0
H497 H 0.12456 0.68587 0.14392 0.0
H498 H 0.1399 0.67762 1.03679 0.0
H499 H 0.15362 0.69328 0.0967 0.0
H500 H 0.15497 0.57768 0.89353 0.0
H501 H 0.14151 0.60215 0.79583 0.0
H502 H 0.08317 0.55668 0.86162 0.0
H503 H 0.09843 0.5797 0.80725 0.0
Tb504 Tb 0.90218 0.5231 0.4929 0.0
C505 C 0.89753 0.42863 0.47957 0.0
C506 C 0.86464 0.40608 0.43936 0.0
C507 C 0.89493 0.3949 0.44772 0.0
C508 C 0.87673 0.4249 0.46356 0.0
C509 C 0.90701 0.41383 0.4716 0.0
C510 C 0.87375 0.39098 0.43175 0.0
C511 C 0.93954 0.43751 0.51158 0.0
N512 N 0.90862 0.44704 0.5026 0.0
C513 C 0.92929 0.45155 0.51898 0.0
C514 C 0.92832 0.41852 0.48789 0.0
Tb515 Tb 0.88828 0.46642 0.5151 0.0
N516 N 0.86893 0.44036 0.47056 0.0
C517 C 0.84881 0.43778 0.4549 0.0
C518 C 0.84404 0.40337 0.42304 0.0
C519 C 0.83616 0.41935 0.43073 0.0
H520 H 0.938 0.4661 0.53747 0.0
H521 H 0.82024 0.41736 0.41829 0.0
H522 H 0.86466 0.37636 0.41338 0.0
H523 H 0.95599 0.44124 0.52434 0.0
H524 H 0.84234 0.44974 0.46154 0.0
H525 H 0.98913 0.58651 0.54491 0.0
H526 H 0.83417 0.3891 0.40439 0.0
H527 H 0.85436 0.53144 0.50733 0.0
H528 H 0.96097 0.56059 0.49995 0.0
H529 H 0.83643 0.53973 0.55807 0.0
H530 H 0.90186 0.38324 0.44131 0.0
H531 H 0.97446 0.59111 0.60237 0.0
H532 H 0.93992 0.58242 0.64135 0.0
H533 H 0.93626 0.40762 0.48236 0.0
H534 H 0.89705 0.56776 0.64592 0.0
N535 N 0.93034 0.54813 0.53276 0.0
C536 C 0.95416 0.56136 0.52544 0.0
C537 C 0.96193 0.57915 0.58315 0.0
C538 C 0.93745 0.56744 0.58943 0.0
C539 C 0.97028 0.57658 0.55068 0.0
C540 C 0.92182 0.55239 0.56293 0.0
H541 H 0.85815 0.55219 0.6146 0.0
N542 N 0.88388 0.53378 0.53636 0.0
C543 C 0.85332 0.54032 0.561 0.0
C544 C 0.89763 0.54424 0.56529 0.0
C545 C 0.86331 0.53485 0.53249 0.0
C546 C 0.86562 0.54732 0.5928 0.0
C547 C 0.88868 0.55083 0.59456 0.0
O548 O 0.89937 0.55331 0.48493 0.0
O549 O 0.88783 0.48704 0.46862 0.0
O550 O 0.91825 0.48019 0.47921 0.0
O551 O 0.93374 0.51941 0.49253 0.0
O552 O 0.89634 0.51297 0.43509 0.0
O553 O 0.92438 0.54801 0.45506 0.0
O554 O 0.88347 0.44092 0.55275 0.0
O555 O 0.90701 0.50291 0.53687 0.0
O556 O 0.86266 0.50134 0.49153 0.0
O557 O 0.8591 0.4738 0.53164 0.0
O558 O 0.91091 0.47861 0.56349 0.0
O559 O 0.85333 0.44138 0.52864 0.0
C560 C 0.88905 0.49039 0.43383 0.0
C561 C 0.90694 0.56892 0.42817 0.0
C562 C 0.9134 0.58106 0.36683 0.0
C563 C 0.91672 0.5693 0.39533 0.0
C564 C 0.89819 0.59054 0.37093 0.0
C565 C 0.89187 0.57854 0.43182 0.0
C566 C 0.88718 0.58885 0.40311 0.0
C567 C 0.93502 0.50261 0.47529 0.0
C568 C 0.91443 0.56099 0.45937 0.0
C569 C 0.90377 0.56306 0.62299 0.0
C570 C 0.9282 0.57152 0.62032 0.0
C571 C 0.9173 0.50076 0.5658 0.0
C572 C 0.85128 0.43441 0.58925 0.0
C573 C 0.82781 0.42992 0.59196 0.0
C574 C 0.81906 0.43299 0.62409 0.0
C575 C 0.83432 0.44068 0.65369 0.0
C576 C 0.8661 0.44192 0.61915 0.0
C577 C 0.85763 0.44513 0.65111 0.0
C578 C 0.8496 0.48507 0.51508 0.0
C579 C 0.86065 0.43339 0.55447 0.0
H580 H 0.92775 0.56124 0.39249 0.0
H581 H 0.89549 0.60014 0.34993 0.0
H582 H 0.88414 0.57861 0.45705 0.0
H583 H 0.87575 0.59645 0.40621 0.0
H584 H 0.81647 0.4244 0.56881 0.0
H585 H 0.8281 0.44251 0.67929 0.0
H586 H 0.88434 0.44569 0.61784 0.0
H587 H 0.86912 0.45094 0.67404 0.0
Tb588 Tb 0.36746 0.89978 0.83307 0.0
C589 C 0.45763 0.90108 0.81407 0.0
C590 C 0.44711 0.8702 0.76994 0.0
C591 C 0.48849 0.90081 0.77814 0.0
C592 C 0.4404 0.88096 0.79634 0.0
C593 C 0.48184 0.91111 0.80517 0.0
C594 C 0.4712 0.88032 0.76076 0.0
C595 C 0.49132 0.93993 0.85186 0.0
N596 N 0.45072 0.91036 0.84065 0.0
C597 C 0.46708 0.92943 0.85978 0.0
C598 C 0.49871 0.93081 0.8244 0.0
Tb599 Tb 0.41158 0.88833 0.85447 0.0
N600 N 0.41715 0.87186 0.80509 0.0
C601 C 0.39973 0.85167 0.78905 0.0
C602 C 0.42938 0.84953 0.75362 0.0
C603 C 0.40559 0.84033 0.76295 0.0
H604 H 0.46144 0.93628 0.8814 0.0
H605 H 0.39183 0.82428 0.75052 0.0
H606 H 0.47666 0.8724 0.74033 0.0
H607 H 0.50437 0.95479 0.86728 0.0
H608 H 0.38137 0.84403 0.79718 0.0
H609 H 0.36119 0.9397 0.95416 0.0
H610 H 0.43388 0.84034 0.73422 0.0
H611 H 0.32214 0.86387 0.78136 0.0
H612 H 0.37783 0.93892 0.89613 0.0
H613 H 0.27955 0.83339 0.7887 0.0
H614 H 0.50701 0.90831 0.77087 0.0
H615 H 0.32409 0.90451 0.97438 0.0
H616 H 0.28837 0.86494 0.95874 0.0
H617 H 0.51752 0.93889 0.81859 0.0
H618 H 0.26539 0.8358 0.91227 0.0
N619 N 0.35267 0.90257 0.88621 0.0
C620 C 0.36246 0.92305 0.90565 0.0
C621 C 0.33186 0.90381 0.9495 0.0
C622 C 0.32002 0.88421 0.92689 0.0
C623 C 0.35276 0.92372 0.93819 0.0
C624 C 0.33087 0.88436 0.89469 0.0
H625 H 0.26172 0.82529 0.84791 0.0
N626 N 0.32802 0.87124 0.83624 0.0
C627 C 0.29029 0.84286 0.81137 0.0
C628 C 0.31786 0.86823 0.86848 0.0
C629 C 0.31423 0.86007 0.80726 0.0
C630 C 0.28026 0.83809 0.84494 0.0
C631 C 0.29383 0.85122 0.87391 0.0
O632 O 0.34556 0.91523 0.83137 0.0
O633 O 0.39243 0.89026 0.80777 0.0
O634 O 0.42576 0.92203 0.82507 0.0
O635 O 0.39932 0.92981 0.85146 0.0
O636 O 0.37173 0.89465 0.77468 0.0
O637 O 0.37409 0.92605 0.79551 0.0
O638 O 0.4345 0.88105 0.8856 0.0
O639 O 0.3924 0.90465 0.87952 0.0
O640 O 0.35152 0.86078 0.83289 0.0
O641 O 0.37565 0.85922 0.87465 0.0
O642 O 0.42049 0.90696 0.90653 0.0
O643 O 0.40265 0.85326 0.8591 0.0
C644 C 0.38975 0.89115 0.77329 0.0
C645 C 0.3381 0.9205 0.7725 0.0
C646 C 0.33243 0.91758 0.70895 0.0
C647 C 0.34737 0.92625 0.7385 0.0
C648 C 0.3077 0.90371 0.71372 0.0
C649 C 0.31327 0.90704 0.77695 0.0
C650 C 0.29821 0.89868 0.74764 0.0
C651 C 0.41828 0.93709 0.83253 0.0
C652 C 0.35468 0.92624 0.80235 0.0
C653 C 0.28374 0.84915 0.90735 0.0
C654 C 0.29686 0.86568 0.93387 0.0
C655 C 0.40448 0.91315 0.90987 0.0
C656 C 0.42038 0.83981 0.89929 0.0
C657 C 0.39928 0.8249 0.91726 0.0
C658 C 0.39536 0.80319 0.93066 0.0
C659 C 0.41286 0.79667 0.92581 0.0
C660 C 0.438 0.8335 0.89582 0.0
C661 C 0.4342 0.81194 0.90904 0.0
C662 C 0.35468 0.84885 0.85808 0.0
C663 C 0.4219 0.85853 0.87683 0.0
H664 H 0.36644 0.93738 0.73511 0.0
H665 H 0.29576 0.8968 0.69133 0.0
H666 H 0.30553 0.90234 0.80296 0.0
H667 H 0.27916 0.88798 0.75122 0.0
H668 H 0.38558 0.82974 0.91957 0.0
H669 H 0.41039 0.78004 0.93586 0.0
H670 H 0.45412 0.84465 0.88118 0.0
H671 H 0.44763 0.80686 0.90577 0.0
Tb672 Tb 0.46253 0.37941 0.14548 0.0
C673 C 0.56323 0.44946 0.13097 0.0
C674 C 0.57536 0.42556 0.09733 0.0
C675 C 0.59842 0.46864 0.09398 0.0
C676 C 0.5597 0.42738 0.12123 0.0
C677 C 0.58272 0.47035 0.11763 0.0
C678 C 0.59472 0.44629 0.08382 0.0
C679 C 0.57015 0.4931 0.1528 0.0
N680 N 0.5475 0.45045 0.1534 0.0
C681 C 0.55091 0.47196 0.16489 0.0
C682 C 0.586 0.49235 0.12877 0.0
Tb683 Tb 0.51885 0.41474 0.17526 0.0
N684 N 0.54053 0.40773 0.13426 0.0
C685 C 0.53612 0.38559 0.12444 0.0
C686 C 0.57081 0.40296 0.08716 0.0
C687 C 0.55105 0.3829 0.10069 0.0
H688 H 0.5388 0.47271 0.18371 0.0
H689 H 0.54725 0.36532 0.09279 0.0
H690 H 0.60688 0.44523 1.06537 0.0
H691 H 0.57291 0.50991 0.16253 0.0
H692 H 0.5208 0.36984 0.13391 0.0
H693 H 0.40226 0.35762 0.25448 0.0
H694 H 0.58231 0.40081 1.06868 0.0
H695 H 0.4694 0.34429 0.08639 0.0
H696 H 0.43543 0.38388 0.21542 0.0
H697 H 0.44762 0.30252 1.06828 0.0
H698 H 0.61346 0.48448 0.0834 0.0
H699 H 0.38006 0.31428 0.24335 0.0
H700 H 0.37347 0.27988 0.20495 0.0
H701 H 0.60087 0.50881 0.11939 0.0
H702 H 0.38491 0.26513 0.15301 0.0
N703 N 0.43391 0.35575 0.1852 0.0
C704 C 0.427 0.36492 0.21203 0.0
C705 C 0.39511 0.32569 0.22694 0.0
C706 C 0.4015 0.31644 0.19839 0.0
C707 C 0.40771 0.35011 0.23345 0.0
C708 C 0.42103 0.33217 0.17757 0.0
H709 H 0.41236 0.2735 0.10164 0.0
N710 N 0.44621 0.33993 0.12924 0.0
C711 C 0.44151 0.30837 0.09062 0.0
C712 C 0.42696 0.32402 0.14795 0.0
C713 C 0.45369 0.33229 0.10086 0.0
C714 C 0.42162 0.29203 0.10951 0.0
C715 C 0.41425 0.29972 0.13882 0.0
O716 O 0.44429 0.37771 0.099 0.0
O717 O 0.49975 0.39869 0.12566 0.0
O718 O 0.5094 0.43586 0.14192 0.0
O719 O 0.47055 0.41546 0.15534 0.0
O720 O 0.47526 0.38278 0.08966 0.0
O721 O 0.43381 0.38601 0.14814 0.0
O722 O 0.54075 0.43767 0.2152 0.0
O723 O 0.48185 0.39648 0.19796 0.0
O724 O 0.47202 0.35351 0.16609 0.0
O725 O 0.50864 0.37766 0.19188 0.0
O726 O 0.50443 0.43083 0.21188 0.0
O727 O 0.5424 0.40639 0.20079 0.0
C728 C 0.49808 0.39588 0.09087 0.0
C729 C 0.40367 0.3636 0.1058 0.0
C730 C 0.37364 0.34585 1.06006 0.0
C731 C 0.39655 0.36285 1.07088 0.0
C732 C 0.35781 0.32907 0.08396 0.0
C733 C 0.38734 0.34748 0.13011 0.0
C734 C 0.3647 0.32995 0.11901 0.0
C735 C 0.48786 0.43283 0.13831 0.0
C736 C 0.42844 0.38081 0.11516 0.0
C737 C 0.39495 0.28387 0.15961 0.0
C738 C 0.38854 0.29223 0.18931 0.0
C739 C 0.48366 0.41352 0.21994 0.0
C740 C 0.54438 0.41531 0.26064 0.0
C741 C 0.55378 0.40133 0.27226 0.0
C742 C 0.54753 0.39056 0.30519 0.0
C743 C 0.53189 0.39389 0.3268 0.0
C744 C 0.5294 0.4193 0.28295 0.0
C745 C 0.52307 0.40847 0.3158 0.0
C746 C 0.49049 0.35613 0.18439 0.0
C747 C 0.54828 0.42325 0.22402 0.0
H748 H 0.40877 0.37572 1.05212 0.0
H749 H 0.33998 0.31591 0.07578 0.0
H750 H 0.39186 0.34841 0.15755 0.0
H751 H 0.35234 0.31733 0.13775 0.0
H752 H 0.56561 0.39844 0.25541 0.0
H753 H 0.52709 0.38582 0.35254 0.0
H754 H 0.52227 0.43043 0.27492 0.0
H755 H 0.51134 0.41138 0.3327 0.0
Tb756 Tb 0.07726 0.46275 0.49127 0.0
C757 C 0.09101 0.55553 0.45929 0.0
C758 C 0.12211 0.56705 0.41598 0.0
C759 C 0.09469 0.58222 0.41195 0.0
C760 C 0.10999 0.55405 0.44612 0.0
C761 C 0.08332 0.56993 0.44275 0.0
C762 C 0.1141 0.58083 0.39863 0.0
C763 C 0.05489 0.56025 0.48961 0.0
N764 N 0.08047 0.5433 0.48896 0.0
C765 C 0.06319 0.54624 0.50508 0.0
C766 C 0.06478 0.57191 0.45806 0.0
Tb767 Tb 0.09456 0.51968 0.51103 0.0
N768 N 0.11685 0.54017 0.46322 0.0
C769 C 0.1367 0.53958 0.45257 0.0
C770 C 0.14195 0.56589 0.40435 0.0
C771 C 0.1494 0.55227 0.42294 0.0
H772 H 0.05513 0.53703 0.52923 0.0
H773 H 0.16484 0.55139 0.41433 0.0
H774 H 0.12297 0.59069 0.37517 0.0
H775 H 0.04079 0.56195 0.50199 0.0
H776 H 0.1425 0.52888 0.46631 0.0
H777 H -0.00764 0.39584 0.43761 0.0
H778 H 0.15172 0.57557 0.38128 0.0
H779 H 0.10362 0.4624 0.56804 0.0
H780 H 0.03441 0.42811 0.43473 0.0
H781 H 0.09143 0.4411 0.62383 0.0
H782 H 0.08889 0.59316 0.39863 0.0
H783 H 0.97439 0.3789 0.49533 0.0
H784 H 0.98022 0.37631 0.5601 0.0
H785 H 0.05835 0.58277 0.44616 0.0
H786 H 0.00745 0.3883 0.61089 0.0
N787 N 0.0392 0.43101 0.49006 0.0
C788 C 0.02634 0.42129 0.45989 0.0
C789 C -0.00738 0.3934 0.49413 0.0
C790 C 0.00668 0.40171 0.52457 0.0
C791 C 0.00269 0.40288 0.46151 0.0
C792 C 0.03026 0.42071 0.52162 0.0
H793 H 0.04919 0.41145 0.63426 0.0
N794 N 0.06863 0.44502 0.54567 0.0
C795 C 0.07831 0.43727 0.60344 0.0
C796 C 0.04559 0.42765 0.55024 0.0
C797 C 0.08516 0.44936 0.57142 0.0
C798 C 0.05445 0.4206 0.60928 0.0
C799 C 0.03777 0.41539 0.58241 0.0
O800 O 0.10289 0.45946 0.46147 0.0
O801 O 0.09366 0.49805 0.46554 0.0
O802 O 0.06095 0.50622 0.48307 0.0
O803 O 0.04551 0.46538 0.48253 0.0
O804 O 0.07172 0.47027 0.435 0.0
O805 O 0.0739 0.42908 0.48553 0.0
O806 O 0.09498 0.54155 0.5522 0.0
O807 O 0.07982 0.48483 0.53846 0.0
O808 O 0.11406 0.47659 0.50949 0.0
O809 O 0.1259 0.51494 0.52604 0.0
O810 O 0.06447 0.50479 0.54882 0.0
O811 O 0.12753 0.54734 0.52892 0.0
C812 C 0.08466 0.49327 0.43319 0.0
C813 C 0.08939 0.42255 0.43328 0.0
C814 C 0.06381 0.39323 0.38992 0.0
C815 C 0.06672 0.40552 0.42145 0.0
C816 C 0.08404 0.39694 0.37116 0.0
C817 C 0.1095 0.42619 0.41441 0.0
C818 C 0.1068 0.41321 0.38363 0.0
C819 C 0.04357 0.48431 0.47719 0.0
C820 C 0.09225 0.43658 0.46516 0.0
C821 C 0.01386 0.39758 0.58618 0.0
C822 C -0.00168 0.3908 0.55731 0.0
C823 C 0.06297 0.48506 0.55794 0.0
C824 C 0.12687 0.54986 0.59032 0.0
C825 C 0.15128 0.55835 0.59473 0.0
C826 C 0.16022 0.55492 0.62648 0.0
C827 C 0.14406 0.5428 0.65398 0.0
C828 C 0.11114 0.53773 0.61803 0.0
C829 C 0.11976 0.53421 0.64961 0.0
C830 C 0.13055 0.49724 0.52203 0.0
C831 C 0.11791 0.55181 0.55567 0.0
H832 H 0.05115 0.40191 0.43639 0.0
H833 H 0.08228 0.3879 0.34638 0.0
H834 H 0.12722 0.4391 0.42341 0.0
H835 H 0.12234 0.41617 0.36899 0.0
H836 H 0.16318 0.56716 0.57295 0.0
H837 H 0.15011 0.54049 0.67942 0.0
H838 H 0.09215 0.53067 0.61526 0.0
H839 H 0.10757 0.52491 0.67089 0.0
Tb840 Tb 0.61069 0.07572 0.82173 0.0
C841 C 0.53702 0.09886 0.79159 0.0
C842 C 0.56094 0.13229 0.75341 0.0
C843 C 0.51782 0.11216 0.74957 0.0
C844 C 0.55916 0.11668 0.78049 0.0
C845 C 0.51615 0.09695 0.7769 0.0
C846 C 0.54017 0.1297 0.7377 0.0
C847 C 0.49357 0.06693 0.81985 0.0
N848 N 0.53591 0.08404 0.81765 0.0
C849 C 0.5146 0.06845 0.83245 0.0
C850 C 0.49424 0.08059 0.79128 0.0
Tb851 Tb 0.57142 0.09282 0.84194 0.0
N852 N 0.57891 0.11891 0.79659 0.0
C853 C 0.60106 0.13661 0.7867 0.0
C854 C 0.58352 0.1501 0.74297 0.0
C855 C 0.60365 0.15224 0.75968 0.0
H856 H 0.51399 0.05795 0.85484 0.0
H857 H 0.62122 0.16591 0.75169 0.0
H858 H 0.54119 0.14145 0.71678 0.0
H859 H 0.47683 0.05591 0.83255 0.0
H860 H 0.61694 0.13829 0.79842 0.0
H861 H 0.62931 0.0376 0.93378 0.0
H862 H 0.58561 0.16232 0.72213 0.0
H863 H 0.64558 0.12048 0.76814 0.0
H864 H 0.60377 0.04273 0.89049 0.0
H865 H 0.68882 0.14554 0.75767 0.0
H866 H 0.50193 0.11079 0.73785 0.0
H867 H 0.67314 0.06265 0.93001 0.0
H868 H 0.70884 0.09419 0.8975 0.0
H869 H 0.47783 0.07907 0.78152 0.0
H870 H 0.72501 0.12268 0.84859 0.0
N871 N 0.63249 0.07235 0.86591 0.0
C872 C 0.6227 0.05481 0.89036 0.0
C873 C 0.66195 0.06548 0.91176 0.0
C874 C 0.67195 0.08235 0.88493 0.0
C875 C 0.63721 0.05141 0.91415 0.0
C876 C 0.65656 0.08511 0.86179 0.0
H877 H 0.71762 0.14166 0.79595 0.0
N878 N 0.65001 0.10279 0.81201 0.0
C879 C 0.68248 0.13295 0.77908 0.0
C880 C 0.66573 0.10067 0.83359 0.0
C881 C 0.65801 0.1187 0.785 0.0
C882 C 0.69872 0.13074 0.80077 0.0
C883 C 0.69042 0.11458 0.82862 0.0
O884 O 0.6308 0.06422 0.79457 0.0
O885 O 0.58907 0.08887 0.7954 0.0
O886 O 0.55246 0.06048 0.80904 0.0
O887 O 0.57541 0.04492 0.82723 0.0
O888 O 0.6076 0.08205 0.76306 0.0
O889 O 0.59898 0.03871 0.82071 0.0
O890 O 0.5528 0.093 0.88745 0.0
O891 O 0.59141 0.07768 0.87093 0.0
O892 O 0.63262 0.11028 0.84969 0.0
O893 O 0.60686 0.12413 0.85801 0.0
O894 O 0.55587 0.06277 0.88 0.0
O895 O 0.57085 0.12382 0.85453 0.0
C896 C 0.59154 0.08824 0.76091 0.0
C897 C 0.61086 0.02688 0.76879 0.0
C898 C 0.61438 0.02457 0.70552 0.0
C899 C 0.61552 0.03742 0.7355 0.0
C900 C 0.60771 0.00047 0.7086 0.0
C901 C 0.6041 0.00284 0.77179 0.0
C902 C 0.60241 0.98964 0.74165 0.0
C903 C 0.55717 0.04279 0.80942 0.0
C904 C 0.61633 0.04188 0.80016 0.0
C905 C 0.7059 0.11215 0.85194 0.0
C906 C 0.69669 0.09603 0.87995 0.0
C907 C 0.57409 0.06154 0.8914 0.0
C908 C 0.57497 0.13112 0.91404 0.0
C909 C 0.58126 0.15512 0.91295 0.0
C910 C 0.59808 0.17163 0.93652 0.0
C911 C 0.6085 0.16359 0.96159 0.0
C912 C 0.58561 0.12346 0.93903 0.0
C913 C 0.60228 0.13969 0.96272 0.0
C914 C 0.62878 0.12751 0.85967 0.0
C915 C 0.56095 0.11577 0.88476 0.0
H916 H 0.62109 0.05605 0.73274 0.0
H917 H 0.60618 0.98997 0.68549 0.0
H918 H 0.60073 -0.0055 0.79738 0.0
H919 H 0.59725 0.97108 0.74394 0.0
H920 H 0.57349 0.16101 0.8929 0.0
H921 H 0.62093 0.17553 0.98113 0.0
H922 H 0.58161 0.10516 0.9396 0.0
H923 H 0.61045 0.13376 0.98199 0.0
Tb924 Tb 0.52208 0.62535 0.15737 0.0
C925 C 0.44207 0.53442 0.12029 0.0
C926 C 0.4158 0.54545 0.0909 0.0
C927 C 0.41307 0.50759 0.07738 0.0
C928 C 0.43492 0.55099 0.11412 0.0
C929 C 0.43101 0.51243 0.10221 0.0
C930 C 0.40534 0.52395 1.07199 0.0
C931 C 0.45386 0.50021 0.13776 0.0
N932 N 0.4588 0.53922 0.1455 0.0
C933 C 0.46381 0.52191 0.15574 0.0
C934 C 0.43756 0.49553 0.11064 0.0
Tb935 Tb 0.47234 0.57482 0.17433 0.0
N936 N 0.44556 0.57181 0.13252 0.0
C937 C 0.43736 0.58749 0.12964 0.0
C938 C 0.40721 0.56132 0.08822 0.0
C939 C 0.41789 0.58231 0.10798 0.0
H940 H 0.4761 0.52521 0.17711 0.0
H941 H 0.41131 0.59464 0.10623 0.0
H942 H 0.39088 0.51958 1.05368 0.0
H943 H 0.45852 0.48698 0.14515 0.0
H944 H 0.44512 0.60355 0.14504 0.0
H945 H 0.58986 0.60049 0.18828 0.0
H946 H 0.39233 0.55751 1.0711 0.0
H947 H 0.51754 0.67139 0.19012 0.0
H948 H 0.55267 0.59253 0.16425 0.0
H949 H 0.53292 0.69904 0.23875 0.0
H950 H 0.40446 0.49085 1.06314 0.0
H951 H 0.61051 0.63195 0.23248 0.0
H952 H 0.61064 0.66267 0.27104 0.0
H953 H 0.42951 0.4785 0.09723 0.0
H954 H 0.59351 0.68735 0.28772 0.0
N955 N 0.55207 0.62256 0.18842 0.0
C956 C 0.56124 0.60786 0.18091 0.0
C957 C 0.59416 0.62937 0.22064 0.0
C958 C 0.58395 0.6428 0.23124 0.0
C959 C 0.58261 0.61168 0.19563 0.0
C960 C 0.56283 0.6392 0.21438 0.0
H961 H 0.56427 0.70043 0.27681 0.0
N962 N 0.53466 0.65161 0.20456 0.0
C963 C 0.53838 0.68591 0.23554 0.0
C964 C 0.55336 0.65346 0.22348 0.0
C965 C 0.52869 0.66903 0.20865 0.0
C966 C 0.55614 0.68672 0.25678 0.0
C967 C 0.56456 0.67113 0.25 0.0
O968 O 0.52807 0.65774 0.1366 0.0
O969 O 0.48725 0.60083 0.13086 0.0
O970 O 0.49276 0.56568 0.13756 0.0
O971 O 0.52898 0.60039 0.13208 0.0
O972 O 0.51559 0.61615 0.09938 0.0
O973 O 0.55607 0.64926 0.1378 0.0
O974 O 0.45561 0.54777 0.21229 0.0
O975 O 0.50487 0.60052 0.20444 0.0
O976 O 0.49391 0.63419 0.1638 0.0
O977 O 0.47118 0.60529 0.20241 0.0
O978 O 0.49446 0.56544 0.20725 0.0
O979 O 0.43825 0.56575 0.19135 0.0
C980 C 0.49279 0.60175 0.09682 0.0
C981 C 0.55418 0.67082 0.08906 0.0
C982 C 0.5648 0.66453 1.03035 0.0
C983 C 0.56242 0.6595 1.06632 0.0
C984 C 0.55892 0.68102 1.01691 0.0
C985 C 0.54879 0.68767 0.07553 0.0
C986 C 0.55112 0.69269 1.03956 0.0
C987 C 0.51495 0.5777 0.12625 0.0
C988 C 0.5494 0.66387 0.12621 0.0
C989 C 0.58478 0.67384 0.26754 0.0
C990 C 0.59459 0.6599 0.25792 0.0
C991 C 0.50982 0.58547 0.22112 0.0
C992 C 0.42764 0.55077 0.24876 0.0
C993 C 0.41919 0.56648 0.25601 0.0
C994 C 0.40859 0.56571 0.28838 0.0
C995 C 0.40667 0.54914 0.31379 0.0
C996 C 0.42544 0.53425 0.27428 0.0
C997 C 0.41508 0.53354 0.30671 0.0
C998 C 0.47884 0.62704 0.18993 0.0
C999 C 0.43694 0.55019 0.21379 0.0
H1000 H 0.56642 0.64626 0.07629 0.0
H1001 H 0.56072 0.68512 0.98909 0.0
H1002 H 0.54234 0.69658 0.09267 0.0
H1003 H 0.54674 0.70553 1.0292 0.0
H1004 H 0.42045 0.57909 0.23635 0.0
H1005 H 0.39907 0.54853 0.33939 0.0
H1006 H 0.43153 0.52176 0.269 0.0
H1007 H 0.41354 0.52085 0.32639 0.0
H1008 H 0.4615 0.13931 0.2284 0.0
H1009 H 0.4602 0.17561 0.21449 0.0
H1010 H 0.52817 0.21787 0.26527 0.0
H1011 H 0.52939 0.18175 0.27935 0.0
H1012 H 0.49718 0.23319 0.28524 0.0
H1013 H 0.52059 0.21504 0.17315 0.0
H1014 H 0.51456 0.18862 0.12258 0.0
H1015 H 0.44753 0.18398 0.0999 0.0
H1016 H 0.45298 0.21012 0.15056 0.0
H1017 H 0.52242 0.35053 0.22823 0.0
H1018 H 0.52328 0.31394 0.24216 0.0
H1019 H 0.46124 0.27347 0.1772 0.0
H1020 H 0.4604 0.30955 0.16352 0.0
H1021 H 0.48775 0.25591 0.16468 0.0
H1022 H 0.46376 0.27589 0.26883 0.0
H1023 H 0.46171 0.2953 0.32329 0.0
H1024 H 0.51855 0.28809 0.36787 0.0
H1025 H 0.52308 0.27144 0.31221 0.0
C1026 C 0.47616 0.15628 0.2368 0.0
C1027 C 0.49532 0.15708 0.25577 0.0
C1028 C 0.47552 0.1773 0.22849 0.0
C1029 C 0.49407 0.20011 0.23873 0.0
C1030 C 0.51342 0.20089 0.257 0.0
C1031 C 0.51418 0.17995 0.26492 0.0
C1032 C 0.49342 0.22302 0.23096 0.0
C1033 C 0.49573 0.2385 0.25877 0.0
C1034 C 0.49009 0.22963 0.1967 0.0
C1035 C 0.48713 0.21442 0.16576 0.0
C1036 C 0.50453 0.20832 0.15745 0.0
C1037 C 0.50122 0.1934 0.12878 0.0
C1038 C 0.48068 0.18461 0.1081 0.0
C1039 C 0.46343 0.19079 0.11595 0.0
C1040 C 0.46663 0.20569 0.1446 0.0
C1041 C 0.50886 0.33387 0.21694 0.0
C1042 C 0.49122 0.33359 0.1946 0.0
C1043 C 0.50932 0.31266 0.22507 0.0
C1044 C 0.49227 0.29019 0.21102 0.0
C1045 C 0.47483 0.29007 0.18863 0.0
C1046 C 0.47425 0.31109 0.18087 0.0
C1047 C 0.49242 0.26697 0.21908 0.0
C1048 C 0.48975 0.25119 0.19129 0.0
C1049 C 0.49475 0.2598 0.25369 0.0
C1050 C 0.4941 0.27277 0.28569 0.0
C1051 C 0.4766 0.2794 0.28953 0.0
C1052 C 0.47508 0.29008 0.32068 0.0
C1053 C 0.4903 0.29337 0.34882 0.0
C1054 C 0.50722 0.28619 0.34572 0.0
C1055 C 0.50954 0.27649 0.31414 0.0
H1056 H 0.48882 0.30124 0.37314 0.0
H1057 H 0.47815 0.17304 0.08596 0.0
H1058 H 0.31246 0.4675 0.62707 0.0
H1059 H 0.27636 0.46903 0.61574 0.0
H1060 H 0.3166 0.53259 0.55475 0.0
H1061 H 0.35343 0.53221 0.56934 0.0
H1062 H 0.28467 0.53857 0.57623 0.0
H1063 H 0.27095 0.46523 0.52419 0.0
H1064 H 0.26788 0.42582 0.52262 0.0
H1065 H 0.21389 0.40088 0.60224 0.0
H1066 H 0.2169 0.44024 0.60464 0.0
H1067 H 0.14977 0.47 0.49851 0.0
H1068 H 0.18747 0.47209 0.51199 0.0
H1069 H 0.20528 0.5306 0.58294 0.0
H1070 H 0.16802 0.52945 0.56714 0.0
H1071 H 0.20872 0.46404 0.55478 0.0
H1072 H 0.26176 0.55798 0.6132 0.0
H1073 H 0.26603 0.59768 0.60663 0.0
H1074 H 0.24292 0.58174 0.49899 0.0
H1075 H 0.23868 0.54199 0.50488 0.0
C1076 C 0.3139 0.48191 0.61114 0.0
C1077 C 0.3366 0.49957 0.59913 0.0
C1078 C 0.29266 0.48261 0.60398 0.0
C1079 C 0.29236 0.50042 0.58277 0.0
C1080 C 0.31521 0.51828 0.57091 0.0
C1081 C 0.33669 0.51801 0.57914 0.0
C1082 C 0.26873 0.5005 0.5735 0.0
C1083 C 0.26821 0.52206 0.57157 0.0
C1084 C 0.24634 0.47947 0.56651 0.0
C1085 C 0.24432 0.45575 0.56481 0.0
C1086 C 0.2585 0.45136 0.54144 0.0
C1087 C 0.25678 0.42904 0.54043 0.0
C1088 C 0.24075 0.41088 0.56238 0.0
C1089 C 0.22634 0.41498 0.5853 0.0
C1090 C 0.22804 0.43728 0.5865 0.0
C1091 C 0.1617 0.48362 0.51678 0.0
C1092 C 0.15508 0.49965 0.53128 0.0
C1093 C 0.18372 0.48473 0.52487 0.0
C1094 C 0.20069 0.50174 0.54855 0.0
C1095 C 0.19388 0.51762 0.56359 0.0
C1096 C 0.17196 0.51684 0.55477 0.0
C1097 C 0.22459 0.5021 0.55744 0.0
C1098 C 0.22516 0.48057 0.55934 0.0
C1099 C 0.2471 0.52316 0.56341 0.0
C1100 C 0.24971 0.54699 0.55959 0.0
C1101 C 0.25765 0.56299 0.58812 0.0
C1102 C 0.26002 0.58547 0.58454 0.0
C1103 C 0.25462 0.59218 0.55248 0.0
C1104 C 0.24697 0.57647 0.52386 0.0
C1105 C 0.24456 0.55396 0.52731 0.0
H1106 H 0.25643 0.60959 0.54978 0.0
H1107 H 0.23945 0.39362 0.56158 0.0
H1108 H 0.80753 0.35091 0.94148 0.0
H1109 H 0.76982 0.31457 0.92698 0.0
H1110 H 0.8073 0.2758 0.91698 0.0
H1111 H 0.84472 0.31205 0.92978 0.0
H1112 H 0.77581 0.25742 0.87051 0.0
H1113 H 0.76595 0.2724 0.99088 0.0
H1114 H 0.76367 0.29478 1.04184 0.0
H1115 H 0.7062 0.29882 0.99255 0.0
H1116 H 0.7084 0.27678 0.94101 0.0
H1117 H 0.67556 0.13897 0.87365 0.0
H1118 H 0.71095 0.17689 0.88663 0.0
H1119 H 0.66861 0.21091 0.88743 0.0
H1120 H 0.6328 0.17247 0.8733 0.0
H1121 H 0.70146 0.23255 0.93696 0.0
H1122 H 0.71111 0.21708 0.81707 0.0
H1123 H 0.71378 0.19512 0.76584 0.0
H1124 H 0.77176 0.19184 0.81476 0.0
H1125 H 0.76926 0.21355 0.8665 0.0
C1126 C 0.80792 0.33473 0.93612 0.0
C1127 C 0.83 0.33514 0.9377 0.0
C1128 C 0.7859 0.31345 0.92806 0.0
C1129 C 0.78456 0.29122 0.92125 0.0
C1130 C 0.80676 0.29193 0.92206 0.0
C1131 C 0.82864 0.3131 0.92997 0.0
C1132 C 0.76073 0.26758 0.91286 0.0
C1133 C 0.75981 0.25211 0.88569 0.0
C1134 C 0.73876 0.25977 0.93117 0.0
C1135 C 0.73756 0.27322 0.96189 0.0
C1136 C 0.75298 0.27826 0.99076 0.0
C1137 C 0.75168 0.29086 1.01977 0.0
C1138 C 0.73487 0.2983 1.02037 0.0
C1139 C 0.71927 0.29312 0.99199 0.0
C1140 C 0.72055 0.28058 0.96287 0.0
C1141 C 0.67348 0.15436 0.87575 0.0
C1142 C 0.65058 0.15179 0.87114 0.0
C1143 C 0.69422 0.17659 0.88347 0.0
C1144 C 0.6936 0.19797 0.88745 0.0
C1145 C 0.67054 0.19539 0.88433 0.0
C1146 C 0.64967 0.17301 0.87617 0.0
C1147 C 0.71673 0.22239 0.89489 0.0
C1148 C 0.71751 0.23794 0.92184 0.0
C1149 C 0.73864 0.23029 0.87645 0.0
C1150 C 0.73987 0.21679 0.84577 0.0
C1151 C 0.7243 0.21151 0.81703 0.0
C1152 C 0.72584 0.19918 0.78786 0.0
C1153 C 0.74299 0.19219 0.787 0.0
C1154 C 0.75854 0.19736 0.81542 0.0
C1155 C 0.75708 0.20968 0.84467 0.0
H1156 H 0.74418 0.18269 0.76434 0.0
H1157 H 0.73387 0.30802 1.04288 0.0
H1158 H 0.46616 0.65554 0.15371 0.0
H1159 H 0.46411 0.69018 0.17365 0.0
H1160 H 0.47874 0.67797 0.27981 0.0
H1161 H 0.47909 0.64204 0.25978 0.0
H1162 H 0.4564 0.69829 0.28998 0.0
H1163 H 0.52198 0.72649 0.21281 0.0
H1164 H 0.54391 0.7289 0.15856 0.0
H1165 H 0.49917 0.74764 0.09972 0.0
H1166 H 0.47671 0.74489 0.15356 0.0
H1167 H 0.49245 0.8192 0.34347 0.0
H1168 H 0.49012 0.78181 0.32608 0.0
H1169 H 0.46001 0.78433 0.22632 0.0
H1170 H 0.46265 0.82222 0.24372 0.0
H1171 H 0.49114 0.76956 0.21406 0.0
H1172 H 0.42839 0.74354 0.30147 0.0
H1173 H 0.41177 0.74219 0.36033 0.0
H1174 H 0.45999 0.72244 0.40585 0.0
H1175 H 0.47716 0.72406 0.3474 0.0
C1176 C 0.46828 0.65972 0.18157 0.0
C1177 C 0.47227 0.64512 0.20488 0.0
C1178 C 0.46776 0.68031 0.19309 0.0
C1179 C 0.47228 0.68832 0.22852 0.0
C1180 C 0.47533 0.67313 0.25225 0.0
C1181 C 0.47525 0.65206 0.24077 0.0
C1182 C 0.47368 0.71208 0.24038 0.0
C1183 C 0.46436 0.71381 0.27322 0.0
C1184 C 0.48394 0.73324 0.21954 0.0
C1185 C 0.49747 0.73515 0.18712 0.0
C1186 C 0.51671 0.73092 0.18824 0.0
C1187 C 0.52925 0.73237 0.15758 0.0
C1188 C 0.52289 0.73834 0.12568 0.0
C1189 C 0.50404 0.74296 0.12443 0.0
C1190 C 0.4914 0.74145 0.15502 0.0
C1191 C 0.4849 0.81176 0.31794 0.0
C1192 C 0.47753 0.82429 0.29547 0.0
C1193 C 0.48353 0.78996 0.30785 0.0
C1194 C 0.47454 0.77914 0.27466 0.0
C1195 C 0.46699 0.79156 0.25216 0.0
C1196 C 0.46826 0.81342 0.26237 0.0
C1197 C 0.47357 0.75556 0.26334 0.0
C1198 C 0.4831 0.75394 0.23063 0.0
C1199 C 0.46441 0.73485 0.28496 0.0
C1200 C 0.45422 0.73418 0.32009 0.0
C1201 C 0.43559 0.73913 0.32408 0.0
C1202 C 0.42606 0.73829 0.35737 0.0
C1203 C 0.43486 0.73231 0.38682 0.0
C1204 C 0.45322 0.72713 0.38305 0.0
C1205 C 0.46286 0.72802 0.34985 0.0
H1206 H 0.42743 0.73163 0.41255 0.0
H1207 H 0.5326 0.73945 0.10196 0.0
H1208 H 0.6697 0.5036 0.66121 0.0
H1209 H 0.70512 0.50116 0.64633 0.0
H1210 H 0.67491 0.4722 0.54457 0.0
H1211 H 0.63896 0.47359 0.56055 0.0
H1212 H 0.69863 0.45311 0.55535 0.0
H1213 H 0.72737 0.53661 0.571 0.0
H1214 H 0.73426 0.57288 0.60229 0.0
H1215 H 0.77179 0.55966 0.68416 0.0
H1216 H 0.76484 0.52314 0.6536 0.0
H1217 H 0.81564 0.48955 0.47576 0.0
H1218 H 0.77943 0.48958 0.49513 0.0
H1219 H 0.79296 0.47748 0.60163 0.0
H1220 H 0.82882 0.47667 0.58209 0.0
H1221 H 0.77913 0.51767 0.58931 0.0
H1222 H 0.74963 0.43398 0.57304 0.0
H1223 H 0.74664 0.40063 0.53789 0.0
H1224 H 0.7132 0.41752 0.45397 0.0
H1225 H 0.71608 0.45096 0.4886 0.0
C1226 C 0.67041 0.4966 0.63562 0.0
C1227 C 0.65067 0.48853 0.61251 0.0
C1228 C 0.69124 0.49548 0.62666 0.0
C1229 C 0.69413 0.48711 0.5934 0.0
C1230 C 0.67417 0.47885 0.57043 0.0
C1231 C 0.65313 0.4795 0.57974 0.0
C1232 C 0.71735 0.48676 0.58271 0.0
C1233 C 0.71603 0.46758 0.56279 0.0
C1234 C 0.74104 0.50503 0.59194 0.0
C1235 C 0.74536 0.52703 0.6102 0.0
C1236 C 0.73698 0.54139 0.59577 0.0
C1237 C 0.7409 0.56198 0.61337 0.0
C1238 C 0.75339 0.56853 0.64525 0.0
C1239 C 0.76207 0.55454 0.65952 0.0
C1240 C 0.75816 0.5339 0.64206 0.0
C1241 C 0.81083 0.48647 0.50329 0.0
C1242 C 0.82554 0.48264 0.52689 0.0
C1243 C 0.78993 0.48669 0.51456 0.0
C1244 C 0.78281 0.48376 0.55029 0.0
C1245 C 0.79749 0.47995 0.57398 0.0
C1246 C 0.8181 0.47912 0.56254 0.0
C1247 C 0.76006 0.48418 0.56234 0.0
C1248 C 0.76156 0.50332 0.58223 0.0
C1249 C 0.73662 0.4661 0.55297 0.0
C1250 C 0.73324 0.44503 0.5332 0.0
C1251 C 0.7416 0.43051 0.54709 0.0
C1252 C 0.73992 0.41159 0.52729 0.0
C1253 C 0.72982 0.40697 0.49367 0.0
C1254 C 0.721 0.42103 0.48001 0.0
C1255 C 0.72259 0.43995 0.49974 0.0
H1256 H 0.72894 0.39253 0.47828 0.0
H1257 H 0.75639 0.58446 0.65885 0.0
H1258 H 0.31773 0.81589 0.81639 0.0
H1259 H 0.2821 0.77886 0.83162 0.0
H1260 H 0.30467 0.78872 0.93994 0.0
H1261 H 0.3413 0.82558 0.92404 0.0
H1262 H 0.28391 0.74555 0.93405 0.0
H1263 H 0.22953 0.78029 0.90363 0.0
H1264 H 0.21307 0.79956 0.86603 0.0
H1265 H 0.22551 0.76871 0.77411 0.0
H1266 H 0.24058 0.74805 0.81152 0.0
H1267 H 0.16245 0.66338 0.99897 0.0
H1268 H 0.20008 0.69872 0.98235 0.0
H1269 H 0.19334 0.67028 0.878 0.0
H1270 H 0.15601 0.63416 0.89508 0.0
H1271 H 0.20514 0.72132 0.88127 0.0
H1272 H 0.23397 0.67194 0.9251 0.0
H1273 H 0.24067 0.64726 0.9674 0.0
H1274 H 0.27485 0.70654 1.03864 0.0
H1275 H 0.26777 0.73146 0.99716 0.0
C1276 C 0.31527 0.81038 0.84364 0.0
C1277 C 0.3331 0.82449 0.86866 0.0
C1278 C 0.29412 0.78893 0.8527 0.0
C1279 C 0.28897 0.78025 0.88765 0.0
C1280 C 0.30712 0.79419 0.91269 0.0
C1281 C 0.32855 0.81562 0.90349 0.0
C1282 C 0.26581 0.75651 0.89763 0.0
C1283 C 0.26677 0.7408 0.92263 0.0
C1284 C 0.24257 0.74859 0.88303 0.0
C1285 C 0.23727 0.76364 0.86013 0.0
C1286 C 0.22916 0.77802 0.87533 0.0
C1287 C 0.21951 0.78868 0.85416 0.0
C1288 C 0.21855 0.78564 0.81765 0.0
C1289 C 0.22661 0.77137 0.80234 0.0
C1290 C 0.23545 0.75997 0.82354 0.0
C1291 C 0.169 0.66428 0.97252 0.0
C1292 C 0.15569 0.64519 0.94878 0.0
C1293 C 0.19085 0.68482 0.96292 0.0
C1294 C 0.20036 0.68786 0.92862 0.0
C1295 C 0.18702 0.66888 0.90469 0.0
C1296 C 0.16547 0.64791 0.91465 0.0
C1297 C 0.22344 0.71091 0.91767 0.0
C1298 C 0.22237 0.72632 0.89268 0.0
C1299 C 0.24638 0.71864 0.93269 0.0
C1300 C 0.24996 0.70348 0.9582 0.0
C1301 C 0.24251 0.67963 0.95004 0.0
C1302 C 0.24647 0.6656 0.97384 0.0
C1303 C 0.25808 0.67529 1.00576 0.0
C1304 C 0.26575 0.69903 1.01397 0.0
C1305 C 0.26174 0.7131 0.99034 0.0
H1306 H 0.26121 0.66443 1.02407 0.0
H1307 H 0.21141 0.79419 0.80126 0.0
H1308 H 0.56637 0.18741 0.92386 0.0
H1309 H 0.56699 0.21914 0.95775 0.0
H1310 H 0.63954 0.24385 0.98767 0.0
H1311 H 0.63986 0.21301 0.95223 0.0
H1312 H 0.58265 0.18962 1.00773 0.0
H1313 H 0.64265 0.27826 1.01384 0.0
H1314 H 0.65435 0.31921 0.99666 0.0
H1315 H 0.58618 0.30809 1.02934 0.0
H1316 H 0.57399 0.26691 1.04615 0.0
H1317 H 0.62972 0.19835 0.16685 0.0
H1318 H 0.62893 0.22526 0.1228 0.0
H1319 H 0.55267 0.19125 0.1322 0.0
H1320 H 0.55315 0.16412 0.17561 0.0
H1321 H 0.60123 0.25266 0.09664 0.0
H1322 H 0.53831 0.15984 1.06742 0.0
H1323 H 0.52664 0.11867 0.08401 0.0
H1324 H 0.60025 0.13858 0.09424 0.0
H1325 H 0.61226 0.1798 0.07766 0.0
C1326 C 0.58313 0.20048 0.93549 0.0
C1327 C 0.60246 0.19636 0.93826 0.0
C1328 C 0.58359 0.21915 0.95456 0.0
C1329 C 0.60228 0.2318 0.97852 0.0
C1330 C 0.62411 0.23299 0.97136 0.0
C1331 C 0.62407 0.21469 0.95191 0.0
C1332 C 0.59528 0.2271 1.01583 0.0
C1333 C 0.58614 0.20348 1.02677 0.0
C1334 C 0.59989 0.24491 1.041 0.0
C1335 C 0.60729 0.26946 1.03059 0.0
C1336 C 0.63004 0.28443 1.0168 0.0
C1337 C 0.6368 0.30772 1.0073 0.0
C1338 C 0.62098 0.31622 1.01173 0.0
C1339 C 0.59839 0.30147 1.02578 0.0
C1340 C 0.59155 0.27817 1.03528 0.0
C1341 C 0.6129 0.19717 0.16027 0.0
C1342 C 0.59146 0.17874 0.17351 0.0
C1343 C 0.61254 0.21295 0.13594 0.0
C1344 C 0.59071 0.21004 0.12431 0.0
C1345 C 0.56965 0.1939 0.14131 0.0
C1346 C 0.56997 0.17812 0.16559 0.0
C1347 C 0.58923 0.21559 0.08745 0.0
C1348 C 0.59683 0.23896 0.0769 0.0
C1349 C 0.58322 0.19758 1.06205 0.0
C1350 C 0.57612 0.17281 1.07164 0.0
C1351 C 0.55195 0.15536 0.0732 0.0
C1352 C 0.54529 0.13206 0.08263 0.0
C1353 C 0.5627 0.12605 0.09032 0.0
C1354 C 0.58679 0.14328 0.0884 0.0
C1355 C 0.59353 0.16659 0.079 0.0
H1356 H 0.55752 0.10803 0.09767 0.0
H1357 H 0.62625 0.33426 1.00441 0.0
H1358 H 0.43189 0.61344 0.27477 0.0
H1359 H 0.42479 0.64282 0.30407 0.0
H1360 H 0.36083 0.58626 0.35021 0.0
H1361 H 0.36736 0.55699 0.32001 0.0
H1362 H 0.36191 0.6298 0.35491 0.0
H1363 H 0.41292 0.59396 0.38725 0.0
H1364 H 0.44485 0.5857 0.3705 0.0
H1365 H 0.49123 0.65967 0.34822 0.0
H1366 H 0.45938 0.66827 0.36455 0.0
H1367 H 0.35061 0.56166 0.47825 0.0
H1368 H 0.34934 0.5922 0.4445 0.0
H1369 H 0.41237 0.64577 0.49798 0.0
H1370 H 0.41536 0.61493 0.52879 0.0
H1371 H 0.42511 0.64143 0.43927 0.0
H1372 H 0.36621 0.65885 0.46377 0.0
H1373 H 0.32846 0.65345 0.48728 0.0
H1374 H 0.28938 0.5995 0.40967 0.0
H1375 H 0.32673 0.60419 0.38598 0.0
C1376 C 0.41566 0.60731 0.28967 0.0
C1377 C 0.4007 0.58297 0.29656 0.0
C1378 C 0.41151 0.62417 0.30615 0.0
C1379 C 0.39278 0.61671 0.33031 0.0
C1380 C 0.37561 0.59247 0.33207 0.0
C1381 C 0.37963 0.57568 0.31545 0.0
C1382 C 0.3955 0.63125 0.36189 0.0
C1383 C 0.37581 0.63287 0.37359 0.0
C1384 C 0.41431 0.63642 0.38574 0.0
C1385 C 0.43384 0.63173 0.37686 0.0
C1386 C 0.42998 0.60845 0.37888 0.0
C1387 C 0.448 0.6037 0.36937 0.0
C1388 C 0.47005 0.62215 0.35826 0.0
C1389 C 0.47412 0.6454 0.35677 0.0
C1390 C 0.4561 0.65024 0.36611 0.0
C1391 C 0.36399 0.57998 0.48336 0.0
C1392 C 0.38409 0.58561 0.50399 0.0
C1393 C 0.36285 0.59778 0.46475 0.0
C1394 C 0.38162 0.62148 0.46711 0.0
C1395 C 0.39816 0.62755 0.49467 0.0
C1396 C 0.39992 0.60967 0.51225 0.0
C1397 C 0.38929 0.63539 0.43392 0.0
C1398 C 0.41157 0.64011 0.42113 0.0
C1399 C 0.37225 0.63457 0.40981 0.0
C1400 C 0.34949 0.63222 0.42266 0.0
C1401 C 0.34959 0.6459 0.45155 0.0
C1402 C 0.32822 0.6429 0.465 0.0
C1403 C 0.30655 0.62622 0.44988 0.0
C1404 C 0.3062 0.61255 0.42119 0.0
C1405 C 0.32752 0.61549 0.40758 0.0
H1406 H 0.29001 0.62384 0.46046 0.0
H1407 H 0.48398 0.61845 0.35085 0.0
H1408 H 0.78622 0.34419 0.82932 0.0
H1409 H 0.75068 0.33444 0.79424 0.0
H1410 H 0.77232 0.40898 0.79042 0.0
H1411 H 0.80671 0.41838 0.82695 0.0
H1412 H 0.72613 0.38355 0.77557 0.0
H1413 H 0.80059 0.38555 0.73128 0.0
H1414 H 0.82874 0.37041 0.73109 0.0
H1415 H 0.77051 0.29903 0.71919 0.0
H1416 H 0.74205 0.31387 0.71887 0.0
H1417 H 0.79932 0.45318 0.66574 0.0
H1418 H 0.7618 0.42997 0.6948 0.0
H1419 H 0.74119 0.37412 0.61754 0.0
H1420 H 0.78002 0.39625 0.59069 0.0
H1421 H 0.75445 0.36129 0.66904 0.0
H1422 H 0.69664 0.38264 0.66887 0.0
H1423 H 0.67827 0.40771 0.66294 0.0
H1424 H 0.71511 0.44692 0.75564 0.0
H1425 H 0.73404 0.42246 0.76191 0.0
C1426 C 0.78265 0.35823 0.82217 0.0
C1427 C 0.79927 0.38204 0.82981 0.0
C1428 C 0.76235 0.35269 0.80234 0.0
C1429 C 0.75928 0.37104 0.78864 0.0
C1430 C 0.77428 0.39446 0.80045 0.0
C1431 C 0.79412 0.39991 0.82105 0.0
C1432 C 0.74597 0.36771 0.75542 0.0
C1433 C 0.73195 0.37852 0.75199 0.0
C1434 C 0.7524 0.35984 0.72476 0.0
C1435 C 0.76925 0.35072 0.72552 0.0
C1436 C 0.79384 0.36662 0.72872 0.0
C1437 C 0.80982 0.35811 0.72863 0.0
C1438 C 0.8014 0.33375 0.7254 0.0
C1439 C 0.77698 0.31788 0.7219 0.0
C1440 C 0.76092 0.32632 0.72175 0.0
C1441 C 0.78657 0.43618 0.65434 0.0
C1442 C 0.79349 0.4256 0.62817 0.0
C1443 C 0.76451 0.42298 0.67048 0.0
C1444 C 0.74919 0.39922 0.66012 0.0
C1445 C 0.75327 0.39188 0.62726 0.0
C1446 C 0.77577 0.40462 0.61195 0.0
C1447 C 0.73843 0.38134 0.68879 0.0
C1448 C 0.74717 0.36549 0.69185 0.0
C1449 C 0.72836 0.38583 0.71882 0.0
C1450 C 0.71653 0.40036 0.71611 0.0
C1451 C 0.70081 0.39657 0.68807 0.0
C1452 C 0.69033 0.41074 0.68461 0.0
C1453 C 0.69543 0.42883 0.70898 0.0
C1454 C 0.71103 0.43278 0.73691 0.0
C1455 C 0.72155 0.41866 0.74055 0.0
H1456 H 0.68736 0.43982 0.70618 0.0
H1457 H 0.8138 0.32719 0.72545 0.0
H1458 H 0.37599 0.81848 0.98077 0.0
H1459 H 0.3558 0.79585 1.03273 0.0
H1460 H 0.34824 0.73229 0.98447 0.0
H1461 H 0.3677 0.75467 0.93153 0.0
H1462 H 0.31937 0.74892 1.06479 0.0
H1463 H 0.39301 0.73238 1.02057 0.0
H1464 H 0.4301 0.75045 0.98568 0.0
H1465 H 0.44163 0.82011 1.00945 0.0
H1466 H 0.40477 0.80241 1.04458 0.0
H1467 H 0.3522 0.75395 0.23827 0.0
H1468 H 0.3444 0.73071 0.18379 0.0
H1469 H 0.40226 0.79177 0.13354 0.0
H1470 H 0.4103 0.81434 0.18691 0.0
H1471 H 0.39581 0.75495 0.10099 0.0
H1472 H 0.34363 0.78624 0.1442 0.0
H1473 H 0.31617 0.78563 0.18969 0.0
H1474 H 0.27192 0.71015 0.17623 0.0
H1475 H 0.29926 0.71038 0.1308 0.0
C1476 C 0.36867 0.7994 0.98013 0.0
C1477 C 0.37451 0.78848 0.95299 0.0
C1478 C 0.35694 0.78641 1.0099 0.0
C1479 C 0.35137 0.76267 1.01262 0.0
C1480 C 0.35279 0.75073 0.98282 0.0
C1481 C 0.36425 0.76363 0.95285 0.0
C1482 C 0.35324 0.7542 1.04757 0.0
C1483 C 0.33566 0.74934 0.07266 0.0
C1484 C 0.37494 0.7557 1.05786 0.0
C1485 C 0.39608 0.76607 1.03471 0.0
C1486 C 0.40343 0.75152 1.01809 0.0
C1487 C 0.42446 0.76171 0.99849 0.0
C1488 C 0.43831 0.78641 0.9956 0.0
C1489 C 0.43099 0.80099 1.01189 0.0
C1490 C 0.41001 0.79089 1.03152 0.0
C1491 C 0.3637 0.76197 0.21582 0.0
C1492 C 0.38137 0.7861 0.21644 0.0
C1493 C 0.35933 0.74868 0.18487 0.0
C1494 C 0.37219 0.75974 0.15432 0.0
C1495 C 0.39195 0.78276 0.15664 0.0
C1496 C 0.39651 0.79581 0.1874 0.0
C1497 C 0.36247 0.75076 0.11881 0.0
C1498 C 0.37858 0.75235 0.09301 0.0
C1499 C 0.34033 0.74831 0.1084 0.0
C1500 C 0.32338 0.7483 0.1343 0.0
C1501 C 0.32793 0.76957 0.15084 0.0
C1502 C 0.31247 0.76928 0.17667 0.0
C1503 C 0.29231 0.74786 0.18585 0.0
C1504 C 0.28753 0.72671 0.1691 0.0
C1505 C 0.30298 0.72691 0.14331 0.0
H1506 H 0.2804 0.74764 0.20594 0.0
H1507 H 0.45457 0.79425 0.98042 0.0
H1508 H 0.52644 0.34465 0.32705 0.0
H1509 H 0.54539 0.328 0.36422 0.0
H1510 H 0.61304 0.39191 0.35187 0.0
H1511 H 0.59461 0.40815 0.31366 0.0
H1512 H 0.62015 0.35654 0.37079 0.0
H1513 H 0.56994 0.39 0.41646 0.0
H1514 H 0.53165 0.38947 0.41961 0.0
H1515 H 0.49564 0.3151 0.44424 0.0
H1516 H 0.53382 0.3153 0.44151 0.0
H1517 H 0.64923 0.44228 0.47216 0.0
H1518 H 0.65272 0.41 0.44739 0.0
H1519 H 0.60963 0.36412 0.53072 0.0
H1520 H 0.60303 0.39487 0.55288 0.0
H1521 H 0.58135 0.35787 0.48208 0.0
H1522 H 0.64616 0.34703 0.47343 0.0
H1523 H 0.6861 0.3515 0.46917 0.0
H1524 H 0.69973 0.3927 0.37517 0.0
H1525 H 0.66005 0.38875 0.37899 0.0
C1526 C 0.54553 0.35457 0.33112 0.0
C1527 C 0.55913 0.37779 0.31857 0.0
C1528 C 0.55629 0.34495 0.35193 0.0
C1529 C 0.5803 0.35885 0.36152 0.0
C1530 C 0.59441 0.38082 0.34501 0.0
C1531 C 0.58385 0.39022 0.32348 0.0
C1532 C 0.58912 0.35424 0.39471 0.0
C1533 C 0.61191 0.35687 0.39543 0.0
C1534 C 0.57755 0.35292 0.42683 0.0
C1535 C 0.55457 0.35259 0.42845 0.0
C1536 C 0.55382 0.37355 0.42252 0.0
C1537 C 0.53217 0.37331 0.42425 0.0
C1538 C 0.51121 0.35223 0.4319 0.0
C1539 C 0.51189 0.33139 0.43819 0.0
C1540 C 0.53351 0.33156 0.43665 0.0
C1541 C 0.64029 0.42532 0.48538 0.0
C1542 C 0.62315 0.42052 0.5116 0.0
C1543 C 0.64316 0.40688 0.47192 0.0
C1544 C 0.629 0.3837 0.48491 0.0
C1545 C 0.61923 0.38147 0.51858 0.0
C1546 C 0.61509 0.39935 0.531 0.0
C1547 C 0.61465 0.36499 0.45826 0.0
C1548 C 0.59002 0.35685 0.45829 0.0
C1549 C 0.62508 0.36264 0.42694 0.0
C1550 C 0.6499 0.36724 0.42626 0.0
C1551 C 0.65774 0.35724 0.45202 0.0
C1552 C 0.68029 0.35955 0.44954 0.0
C1553 C 0.69526 0.372 0.42155 0.0
C1554 C 0.68796 0.38271 0.3965 0.0
C1555 C 0.66541 0.38039 0.39878 0.0
H1556 H 0.71265 0.37363 0.41952 0.0
H1557 H 0.49445 0.35205 0.43308 0.0
H1558 H 0.18363 0.63848 0.83593 0.0
H1559 H 0.22133 0.65433 0.80399 0.0
H1560 H 0.21063 0.58327 0.79571 0.0
H1561 H 0.17468 0.56822 0.83048 0.0
H1562 H 0.25454 0.61209 0.78112 0.0
H1563 H 0.17686 0.60587 0.73641 0.0
H1564 H 0.14735 0.61936 0.73699 0.0
H1565 H 0.20376 0.69201 0.73303 0.0
H1566 H 0.23355 0.67888 0.73176 0.0
H1567 H 0.18398 0.53902 0.66837 0.0
H1568 H 0.22008 0.5652 0.69928 0.0
H1569 H 0.23497 0.62096 0.6249 0.0
H1570 H 0.19696 0.59587 0.597 0.0
H1571 H 0.22254 0.63254 0.67718 0.0
H1572 H 0.28227 0.61428 0.67225 0.0
H1573 H 0.30174 0.59043 0.66358 0.0
H1574 H 0.26917 0.55135 0.75765 0.0
H1575 H 0.24901 0.57444 0.76655 0.0
C1576 C 0.19023 0.62667 0.82887 0.0
C1577 C 0.17633 0.60218 0.83479 0.0
C1578 C 0.21165 0.63563 0.8105 0.0
C1579 C 0.21825 0.61987 0.79581 0.0
C1580 C 0.20594 0.59591 0.80622 0.0
C1581 C 0.18517 0.58717 0.82582 0.0
C1582 C 0.23231 0.62571 0.76284 0.0
C1583 C 0.24782 0.61667 0.7581 0.0
C1584 C 0.22504 0.63343 0.73289 0.0
C1585 C 0.20736 0.64147 0.73456 0.0
C1586 C 0.18291 0.62472 0.73578 0.0
C1587 C 0.16617 0.63228 0.7362 0.0
C1588 C 0.17369 0.65653 0.73543 0.0
C1589 C 0.19797 0.67325 0.73387 0.0
C1590 C 0.21479 0.66577 0.73321 0.0
C1591 C 0.19502 0.5568 0.65826 0.0
C1592 C 0.18635 0.56601 0.63253 0.0
C1593 C 0.21642 0.57177 0.67537 0.0
C1594 C 0.22974 0.59592 0.66605 0.0
C1595 C 0.22438 0.6028 0.63385 0.0
C1596 C 0.20234 0.58825 0.61783 0.0
C1597 C 0.24025 0.61375 0.69515 0.0
C1598 C 0.23047 0.62864 0.69946 0.0
C1599 C 0.25146 0.60996 0.72439 0.0
C1600 C 0.26437 0.59652 0.72036 0.0
C1601 C 0.27929 0.60067 0.69121 0.0
C1602 C 0.2904 0.58719 0.68618 0.0
C1603 C 0.28681 0.56948 0.71016 0.0
C1604 C 0.27209 0.56521 0.73924 0.0
C1605 C 0.26089 0.5786 0.74439 0.0
H1606 H 0.29537 0.55902 0.70615 0.0
H1607 H 0.1607 0.66235 0.73583 0.0
H1608 H 0.42352 0.96435 0.9138 0.0
H1609 H 0.43406 0.99127 0.96449 0.0
H1610 H 0.40674 0.93168 1.03425 0.0
H1611 H 0.39572 0.9049 0.98325 0.0
H1612 H 0.40279 0.9575 0.07524 0.0
H1613 H 0.4922 0.01383 1.02199 0.0
H1614 H 0.51822 0.0426 0.97721 0.0
H1615 H 0.46464 0.061 0.95491 0.0
H1616 H 0.43873 0.03298 1.00039 0.0
H1617 H 0.45177 0.03161 0.23854 0.0
H1618 H 0.43689 0.00478 0.18742 0.0
H1619 H 0.47513 0.0644 0.11871 0.0
H1620 H 0.49122 0.09046 0.16981 0.0
H1621 H 0.47172 0.03883 0.0762 0.0
H1622 H 0.40056 0.00959 0.1393 0.0
H1623 H 0.37034 0.99209 0.18598 0.0
H1624 H 0.37597 0.92901 0.18438 0.0
H1625 H 0.40635 0.94618 0.13798 0.0
C1626 C 0.41897 0.95653 0.93971 0.0
C1627 C 0.40715 0.9311 0.94195 0.0
C1628 C 0.42586 0.97264 0.97021 0.0
C1629 C 0.42231 0.96526 1.00657 0.0
C1630 C 0.41039 0.93974 1.00849 0.0
C1631 C 0.40359 0.92371 0.97807 0.0
C1632 C 0.43038 0.98278 1.04163 0.0
C1633 C 0.41829 0.97513 0.07482 0.0
C1634 C 0.44961 0.00725 1.0444 0.0
C1635 C 0.4632 0.0206 1.01338 0.0
C1636 C 0.48582 0.02361 1.0069 0.0
C1637 C 0.50065 0.03999 0.98175 0.0
C1638 C 0.49296 0.05331 0.96282 0.0
C1639 C 0.4705 0.05049 0.96929 0.0
C1640 C 0.45575 0.03439 0.99473 0.0
C1641 C 0.45664 0.03951 0.21271 0.0
C1642 C 0.47257 0.06472 0.21062 0.0
C1643 C 0.44768 0.02351 0.18196 0.0
C1644 C 0.45332 0.03095 0.14565 0.0
C1645 C 0.46922 0.0562 0.14415 0.0
C1646 C 0.47853 0.07194 0.1747 0.0
C1647 C 0.44438 0.01359 0.11034 0.0
C1648 C 0.45642 0.02112 0.07722 0.0
C1649 C 0.42401 0.98969 0.10713 0.0
C1650 C 0.4064 0.97956 0.13595 0.0
C1651 C 0.39564 0.99214 0.1493 0.0
C1652 C 0.37839 0.98223 0.17561 0.0
C1653 C 0.3714 0.95955 0.18838 0.0
C1654 C 0.38157 0.94668 0.17474 0.0
C1655 C 0.39888 0.95654 0.1485 0.0
H1656 H 0.35798 0.95187 0.20866 0.0
H1657 H 0.50446 0.0659 0.9433 0.0
H1658 H 0.44735 0.38027 0.27378 0.0
H1659 H 0.43293 0.38973 0.32826 0.0
H1660 H 0.48568 0.46293 0.31697 0.0
H1661 H 0.49687 0.45442 0.25991 0.0
H1662 H 0.48128 0.443 0.39361 0.0
H1663 H 0.42791 0.44332 0.30306 0.0
H1664 H 0.39477 0.42425 0.26086 0.0
H1665 H 0.34826 0.3807 0.34302 0.0
H1666 H 0.3812 0.39921 0.38577 0.0
H1667 H 0.45563 0.48938 0.55456 0.0
H1668 H 0.46577 0.47787 0.4996 0.0
H1669 H 0.39363 0.4486 0.46401 0.0
H1670 H 0.38488 0.46453 0.51716 0.0
H1671 H 0.40511 0.44159 0.40978 0.0
H1672 H 0.44643 0.42479 0.49306 0.0
H1673 H 0.47323 0.4259 0.54005 0.0
H1674 H 0.53392 0.47556 0.48052 0.0
H1675 H 0.50755 0.47508 0.43353 0.0
C1676 C 0.45488 0.39876 0.28054 0.0
C1677 C 0.4726 0.41632 0.25758 0.0
C1678 C 0.44688 0.40435 0.31378 0.0
C1679 C 0.45705 0.42784 0.32906 0.0
C1680 C 0.47583 0.44484 0.30753 0.0
C1681 C 0.48263 0.43954 0.27362 0.0
C1682 C 0.44933 0.43495 0.36638 0.0
C1683 C 0.46469 0.44304 0.39646 0.0
C1684 C 0.42689 0.43378 0.37398 0.0
C1685 C 0.4072 0.42278 0.34783 0.0
C1686 C 0.41073 0.42963 0.31227 0.0
C1687 C 0.39191 0.41889 0.28816 0.0
C1688 C 0.36942 0.40129 0.29924 0.0
C1689 C 0.36568 0.39438 0.33446 0.0
C1690 C 0.38443 0.40503 0.35865 0.0
C1691 C 0.44127 0.48 0.53583 0.0
C1692 C 0.4183 0.47678 0.54484 0.0
C1693 C 0.44726 0.47254 0.5029 0.0
C1694 C 0.43075 0.45971 0.47486 0.0
C1695 C 0.40774 0.45708 0.48326 0.0
C1696 C 0.40206 0.46575 0.51581 0.0
C1697 C 0.43749 0.45056 0.43787 0.0
C1698 C 0.42198 0.4421 0.40753 0.0
C1699 C 0.45892 0.44914 0.43108 0.0
C1700 C 0.47487 0.45078 0.46036 0.0
C1701 C 0.46546 0.4364 0.49033 0.0
C1702 C 0.4806 0.43684 0.51694 0.0
C1703 C 0.50525 0.45108 0.5135 0.0
C1704 C 0.51481 0.46488 0.48345 0.0
C1705 C 0.49975 0.46472 0.45698 0.0
H1706 H 0.51697 0.4512 0.53386 0.0
H1707 H 0.35488 0.39301 0.28053 0.0
H1708 H 0.0144 0.46536 0.57471 0.0
H1709 H -0.00763 0.45304 0.62977 0.0
H1710 H 0.05574 0.46525 0.68376 0.0
H1711 H 0.07816 0.47932 0.62832 0.0
H1712 H 0.03637 0.46859 0.73512 0.0
H1713 H 0.94233 0.43427 0.68092 0.0
H1714 H 0.91707 0.41248 0.62989 0.0
H1715 H 0.95943 0.37968 0.61159 0.0
H1716 H 0.98514 0.40152 0.66217 0.0
H1717 H 0.96863 0.44502 0.8997 0.0
H1718 H -0.00899 0.45471 0.84584 0.0
H1719 H 0.93151 0.39695 0.79307 0.0
H1720 H 0.90876 0.3873 0.84846 0.0
H1721 H 0.94944 0.41434 0.74013 0.0
H1722 H 0.01574 0.42577 0.81747 0.0
H1723 H 0.0431 0.44236 0.86837 0.0
H1724 H 0.05845 0.51267 0.84089 0.0
H1725 H 0.03132 0.49647 0.78979 0.0
C1726 C 0.02393 0.46488 0.59781 0.0
C1727 C 0.04872 0.47243 0.59394 0.0
C1728 C 0.01073 0.45735 0.63079 0.0
C1729 C 0.02076 0.45646 0.66417 0.0
C1730 C 0.04584 0.46461 0.66047 0.0
C1731 C 0.05915 0.47249 0.62733 0.0
C1732 C 0.00602 0.44836 0.70164 0.0
C1733 C 0.0173 0.45667 0.73523 0.0
C1734 C 0.98064 0.4323 0.70593 0.0
C1735 C 0.96577 0.41972 0.675 0.0
C1736 C 0.9463 0.42249 0.66585 0.0
C1737 C 0.93196 0.41019 0.63697 0.0
C1738 C 0.93678 0.39487 0.61731 0.0
C1739 C 0.95593 0.39179 0.62653 0.0
C1740 C 0.97042 0.40416 0.65524 0.0
C1741 C 0.96002 0.43365 0.87715 0.0
C1742 C 0.93607 0.41466 0.88141 0.0
C1743 C 0.97351 0.43944 0.84452 0.0
C1744 C 0.9647 0.42725 0.81147 0.0
C1745 C 0.94052 0.40786 0.81578 0.0
C1746 C 0.92696 0.40184 0.84889 0.0
C1747 C 0.97971 0.43474 0.77396 0.0
C1748 C 0.96848 0.42635 0.7402 0.0
C1749 C 0.0053 0.45024 0.76954 0.0
C1750 C 0.02123 0.45989 0.80033 0.0
C1751 C 0.02491 0.44474 0.82245 0.0
C1752 C 0.04039 0.45408 0.85126 0.0
C1753 C 0.0524 0.47854 0.85797 0.0
C1754 C 0.04907 0.49373 0.83577 0.0
C1755 C 0.03366 0.48449 0.80689 0.0
H1756 H 0.06436 0.48573 0.8803 0.0
H1757 H 0.92561 0.38529 0.59504 0.0
H1758 H 0.50864 0.96301 0.23275 0.0
H1759 H 0.52212 0.98554 0.17785 0.0
H1760 H 0.53471 0.93203 0.13401 0.0
H1761 H 0.51981 0.90876 0.18879 0.0
H1762 H 0.57192 0.97868 0.10328 0.0
H1763 H 0.48326 0.94224 0.09791 0.0
H1764 H 0.44757 0.93415 0.13203 0.0
H1765 H 0.47971 0.0083 0.15783 0.0
H1766 H 0.51479 0.01691 0.12238 0.0
H1767 H 0.60674 0.06602 0.9522 0.0
H1768 H 0.598 0.04407 1.00822 0.0
H1769 H 0.52435 0.00332 0.97923 0.0
H1770 H 0.53332 0.02496 0.92356 0.0
H1771 H 0.51888 0.00293 1.04642 0.0
H1772 H 0.61038 0.02394 0.08988 0.0
H1773 H 0.64977 0.03472 1.06564 0.0
H1774 H 0.61662 -0.00453 0.97114 0.0
H1775 H 0.57702 0.98436 0.99495 0.0
C1776 C 0.5148 0.95578 0.21231 0.0
C1777 C 0.51408 0.93361 0.2195 0.0
C1778 C 0.52252 0.96912 0.17912 0.0
C1779 C 0.5304 0.962 0.14829 0.0
C1780 C 0.52963 0.93975 0.15519 0.0
C1781 C 0.52123 0.92605 0.18826 0.0
C1782 C 0.53805 0.97674 0.1103 0.0
C1783 C 0.55989 0.98374 0.09155 0.0
C1784 C 0.52404 0.9849 0.09153 0.0
C1785 C 0.50148 0.9802 0.10752 0.0
C1786 C 0.48233 0.95684 0.11013 0.0
C1787 C 0.4622 0.95219 0.12962 0.0
C1788 C 0.46131 0.97074 0.14697 0.0
C1789 C 0.48017 -0.00598 0.1439 0.0
C1790 C 0.50004 -0.00115 0.12377 0.0
C1791 C 0.58865 0.0519 0.95638 0.0
C1792 C 0.5713 0.04759 0.92923 0.0
C1793 C 0.58329 0.03881 0.99015 0.0
C1794 C 0.55989 0.02022 1.00132 0.0
C1795 C 0.54274 0.01656 0.97447 0.0
C1796 C 0.54815 0.02935 0.94091 0.0
C1797 C 0.55296 0.00527 1.03919 0.0
C1798 C 0.53104 -0.00202 1.0579 0.0
C1799 C 0.56731 -0.00249 1.05833 0.0
C1800 C 0.59081 0.00346 1.04411 0.0
C1801 C 0.61151 0.01751 1.06401 0.0
C1802 C 0.63386 0.02372 1.05032 0.0
C1803 C 0.6357 0.01583 1.01683 0.0
C1804 C 0.61517 0.00161 0.99704 0.0
C1805 C 0.59277 -0.00464 1.01061 0.0
H1806 H 0.65302 0.02071 1.00623 0.0
H1807 H 0.44621 0.96708 0.16322 0.0
H1808 H 0.60194 0.52785 0.51707 0.0
H1809 H 0.59389 0.54427 0.46343 0.0
H1810 H 0.52348 0.52182 0.50059 0.0
H1811 H 0.53239 0.50768 0.55517 0.0
H1812 H 0.51633 0.5135 0.43085 0.0
H1813 H 0.56586 0.59103 0.4788 0.0
H1814 H 0.60015 0.62691 0.50396 0.0
H1815 H 0.64671 0.62082 0.4298 0.0
H1816 H 0.6124 0.58552 0.40308 0.0
H1817 H 0.4828 0.56603 0.28455 0.0
H1818 H 0.493 0.55531 0.34128 0.0
H1819 H 0.56551 0.58532 0.30818 0.0
H1820 H 0.55487 0.59538 0.2517 0.0
H1821 H 0.57149 0.59092 0.37716 0.0
H1822 H 0.51523 0.51842 0.31992 0.0
H1823 H 0.47669 0.49468 0.28961 0.0
H1824 H 0.43984 0.49262 0.38442 0.0
H1825 H 0.47817 0.51709 0.41501 0.0
C1826 C 0.58515 0.5275 0.51544 0.0
C1827 C 0.56887 0.51722 0.54433 0.0
C1828 C 0.58007 0.53673 0.48314 0.0
C1829 C 0.55763 0.53538 0.47519 0.0
C1830 C 0.54116 0.52425 0.50347 0.0
C1831 C 0.54656 0.51591 0.53605 0.0
C1832 C 0.551 0.54421 0.4384 0.0
C1833 C 0.52896 0.53038 0.41957 0.0
C1834 C 0.56575 0.56664 0.42099 0.0
C1835 C 0.58675 0.58545 0.43947 0.0
C1836 C 0.58349 0.59715 0.46826 0.0
C1837 C 0.60284 0.61757 0.48243 0.0
C1838 C 0.62561 0.62609 0.46858 0.0
C1839 C 0.62906 0.61419 0.44049 0.0
C1840 C 0.60965 0.59408 0.42566 0.0
C1841 C 0.50128 0.57136 0.28912 0.0
C1842 C 0.51797 0.5839 0.26139 0.0
C1843 C 0.5073 0.56444 0.32265 0.0
C1844 C 0.53064 0.56859 0.33211 0.0
C1845 C 0.54731 0.58128 0.30459 0.0
C1846 C 0.54115 0.58794 0.27104 0.0
C1847 C 0.53742 0.55959 0.36863 0.0
C1848 C 0.55931 0.5735 0.38762 0.0
C1849 C 0.52245 0.53721 0.38622 0.0
C1850 C 0.49957 0.51997 0.36956 0.0
C1851 C 0.4989 0.51285 0.33435 0.0
C1852 C 0.47709 0.49945 0.31704 0.0
C1853 C 0.45585 0.49234 0.33503 0.0
C1854 C 0.45634 0.49825 0.37052 0.0
C1855 C 0.4781 0.51197 0.38783 0.0
H1856 H 0.43899 0.48236 0.32147 0.0
H1857 H 0.64058 0.64184 0.47973 0.0
H1858 H 0.01031 0.55092 0.90637 0.0
H1859 H 0.9881 0.54351 0.85127 0.0
H1860 H 0.05378 0.58169 0.79475 0.0
H1861 H 0.0759 0.59145 0.8511 0.0
H1862 H 0.02553 0.58533 0.75137 0.0
H1863 H 0.00419 0.5115 0.81042 0.0
H1864 H 0.98823 0.48705 0.8634 0.0
H1865 H 0.9195 0.47902 0.8431 0.0
H1866 H 0.93597 0.50649 0.79305 0.0
H1867 H 0.96782 0.53324 0.57771 0.0
H1868 H -0.00921 0.54791 0.63303 0.0
H1869 H 0.92597 0.51164 0.69184 0.0
H1870 H 0.9032 0.49817 0.6366 0.0
H1871 H 0.95389 0.50657 0.73322 0.0
H1872 H 0.97111 0.58193 0.69267 0.0
H1873 H 0.9849 0.61795 0.65672 0.0
H1874 H 0.05333 0.62347 0.6454 0.0
H1875 H 0.04019 0.58792 0.68242 0.0
C1876 C 0.02046 0.55838 0.88258 0.0
C1877 C 0.04584 0.57228 0.8857 0.0
C1878 C 0.0073 0.55338 0.84959 0.0
C1879 C 0.01807 0.56025 0.81544 0.0
C1880 C 0.04355 0.57493 0.81863 0.0
C1881 C 0.05673 0.58072 0.85202 0.0
C1882 C 0.00337 0.55234 0.77792 0.0
C1883 C 0.01019 0.56774 0.74802 0.0
C1884 C 0.98195 0.52979 0.77052 0.0
C1885 C 0.97149 0.51142 0.79824 0.0
C1886 C 0.98569 0.50458 0.81723 0.0
C1887 C 0.97659 0.49037 0.84703 0.0
C1888 C 0.95272 0.48102 0.85622 0.0
C1889 C 0.938 0.48628 0.83598 0.0
C1890 C 0.94737 0.50166 0.80736 0.0
C1891 C 0.95796 0.52931 0.60206 0.0
C1892 C 0.93244 0.51561 0.60007 0.0
C1893 C 0.9716 0.53764 0.63499 0.0
C1894 C 0.96125 0.53189 0.6696 0.0
C1895 C 0.93583 0.51746 0.6675 0.0
C1896 C 0.92227 0.50979 0.63466 0.0
C1897 C 0.97619 0.53952 0.70676 0.0
C1898 C 0.96943 0.52402 0.7365 0.0
C1899 C -0.00286 0.56217 0.71446 0.0
C1900 C 0.00453 0.58204 0.68966 0.0
C1901 C 0.98901 0.59067 0.68215 0.0
C1902 C -0.00318 0.61118 0.66203 0.0
C1903 C 0.0199 0.62286 0.6485 0.0
C1904 C 0.03538 0.61428 0.65563 0.0
C1905 C 0.02784 0.59406 0.67642 0.0
H1906 H 0.02582 0.63862 0.63265 0.0
H1907 H 0.94567 0.46989 0.87919 0.0
H1908 H 0.47031 0.03156 0.36397 0.0
H1909 H 0.49803 0.02152 0.38832 0.0
H1910 H 0.5132 0.00486 0.2847 0.0
H1911 H 0.4915 0.02383 0.25946 0.0
H1912 H 0.4835 0.97237 0.36436 0.0
H1913 H 0.55058 0.04308 0.31283 0.0
H1914 H 0.58527 0.06055 0.27463 0.0
H1915 H 0.61717 0.0283 0.33552 0.0
H1916 H 0.58215 0.00969 0.37363 0.0
H1917 H 0.47953 0.9313 0.41809 0.0
H1918 H 0.49558 0.95354 0.47218 0.0
H1919 H 0.56506 0.98368 0.4335 0.0
H1920 H 0.55138 0.95789 0.38183 0.0
H1921 H 0.56297 0.01891 0.41781 0.0
H1922 H 0.50094 0.01103 0.46802 0.0
H1923 H 0.4648 0.00795 0.49427 0.0
H1924 H 0.42111 0.94711 0.42952 0.0
H1925 H 0.45654 0.94917 0.40373 0.0
C1926 C 0.47938 0.02568 0.34616 0.0
C1927 C 0.47951 0.02913 0.31017 0.0
C1928 C 0.4959 0.0207 0.36006 0.0
C1929 C 0.50823 0.01287 0.3383 0.0
C1930 C 0.50475 0.0118 0.30183 0.0
C1931 C 0.49123 0.02109 0.2876 0.0
C1932 C 0.5188 0.00036 0.35605 0.0
C1933 C 0.50109 0.98233 0.37609 0.0
C1934 C 0.54205 0.01352 0.37051 0.0
C1935 C 0.56335 0.02511 0.34705 0.0
C1936 C 0.56459 0.03931 0.31831 0.0
C1937 C 0.58453 0.04954 0.29645 0.0
C1938 C 0.60352 0.04569 0.30275 0.0
C1939 C 0.60255 0.0315 0.33085 0.0
C1940 C 0.5826 0.02115 0.3527 0.0
C1941 C 0.49836 0.94012 0.42196 0.0
C1942 C 0.51352 0.94301 0.39359 0.0
C1943 C 0.50793 0.95416 0.45249 0.0
C1944 C 0.52933 0.97561 0.4469 0.0
C1945 C 0.54621 0.97119 0.43054 0.0
C1946 C 0.53831 0.95666 0.40038 0.0
C1947 C 0.52586 -0.00592 0.42738 0.0
C1948 C 0.54516 0.01087 0.40687 0.0
C1949 C 0.50305 0.98572 0.41239 0.0
C1950 C 0.4817 0.98063 0.43337 0.0
C1951 C 0.48367 -0.00337 0.45997 0.0
C1952 C 0.46322 -0.00484 0.47457 0.0
C1953 C 0.44075 0.97768 0.46284 0.0
C1954 C 0.43857 0.96089 0.43799 0.0
C1955 C 0.45886 0.9622 0.42346 0.0
H1956 H 0.42487 0.97686 0.47314 0.0
H1957 H 0.61894 0.05363 0.28577 0.0
H1958 H 0.43494 0.45405 0.68835 0.0
H1959 H 0.44868 0.45209 0.74576 0.0
H1960 H 0.48405 0.52927 0.75286 0.0
H1961 H 0.47239 0.53057 0.69536 0.0
H1962 H 0.44869 0.45241 0.80385 0.0
H1963 H 0.53808 0.54137 0.77566 0.0
H1964 H 0.55154 0.58401 0.77082 0.0
H1965 H 0.49044 0.57388 0.82888 0.0
H1966 H 0.47719 0.53143 0.83491 0.0
H1967 H 0.50513 0.46166 0.68588 0.0
H1968 H 0.48775 0.45237 0.74417 0.0
H1969 H 0.55485 0.50706 0.78801 0.0
H1970 H 0.56943 0.51984 0.72982 0.0
H1971 H 0.5314 0.51319 0.82279 0.0
H1972 H 0.44788 0.42666 0.85156 0.0
H1973 H 0.43282 0.38382 0.85612 0.0
H1974 H 0.48835 0.39018 0.78794 0.0
H1975 H 0.50379 0.43283 0.78309 0.0
C1976 C 0.4464 0.47054 0.70214 0.0
C1977 C 0.4518 0.49236 0.68767 0.0
C1978 C 0.45392 0.46962 0.73606 0.0
C1979 C 0.46716 0.49058 0.75668 0.0
C1980 C 0.47438 0.51243 0.73998 0.0
C1981 C 0.46746 0.51328 0.7058 0.0
C1982 C 0.47507 0.48907 0.79341 0.0
C1983 C 0.46731 0.46589 0.80589 0.0
C1984 C 0.49746 0.50699 0.80704 0.0
C1985 C 0.50638 0.53297 0.80574 0.0
C1986 C 0.52769 0.54825 0.78798 0.0
C1987 C 0.53531 0.57245 0.78486 0.0
C1988 C 0.52183 0.58166 0.79944 0.0
C1989 C 0.50087 0.56674 0.81752 0.0
C1990 C 0.49329 0.54258 0.82083 0.0
C1991 C 0.51553 0.47238 0.70804 0.0
C1992 C 0.53848 0.49166 0.7031 0.0
C1993 C 0.50601 0.46649 0.74181 0.0
C1994 C 0.51984 0.47875 0.7717 0.0
C1995 C 0.54325 0.49735 0.76617 0.0
C1996 C 0.55164 0.50485 0.73245 0.0
C1997 C 0.5085 0.47693 0.80675 0.0
C1998 C 0.51331 0.49955 0.81781 0.0
C1999 C 0.48449 0.45902 0.81153 0.0
C2000 C 0.47672 0.43335 0.81603 0.0
C2001 C 0.45677 0.419 0.83707 0.0
C2002 C 0.4482 0.39463 0.83993 0.0
C2003 C 0.45933 0.38419 0.82176 0.0
C2004 C 0.47949 0.39823 0.80161 0.0
C2005 C 0.48827 0.42266 0.799 0.0
H2006 H 0.45249 0.36525 0.82355 0.0
H2007 H 0.52763 0.60035 0.79673 0.0
H2008 H 0.95967 0.47904 1.00957 0.0
H2009 H 0.96578 0.49723 1.06674 0.0
H2010 H 0.95123 0.43167 0.11644 0.0
H2011 H 0.94432 0.41309 1.05807 0.0
H2012 H 0.93384 0.48576 0.12616 0.0
H2013 H 0.98397 0.45593 0.19855 0.0
H2014 H 0.00423 0.43227 0.19643 0.0
H2015 H 0.0286 0.45717 0.09179 0.0
H2016 H 0.00962 0.4818 0.09417 0.0
H2017 H 0.00262 0.55189 1.0209 0.0
H2018 H 0.98419 0.54544 0.07682 0.0
H2019 H 0.03402 0.52494 0.11784 0.0
H2020 H 0.0519 0.53175 1.06153 0.0
H2021 H 0.01513 0.51605 0.16798 0.0
H2022 H 0.9283 0.51125 0.09725 0.0
H2023 H 0.9169 0.54096 0.08492 0.0
H2024 H 0.97726 0.59338 0.14279 0.0
H2025 H 0.98967 0.56399 0.15509 0.0
C2026 C 0.95884 0.46882 1.03254 0.0
C2027 C 0.95164 0.44479 1.02955 0.0
C2028 C 0.96177 0.47903 1.0655 0.0
C2029 C 0.95826 0.46565 0.09625 0.0
C2030 C 0.95349 0.44218 0.09321 0.0
C2031 C 0.95037 0.43185 1.05985 0.0
C2032 C 0.96202 0.4778 0.13062 0.0
C2033 C 0.95214 0.4927 0.13362 0.0
C2034 C 0.98389 0.48529 0.14811 0.0
C2035 C -0.00423 0.47097 0.14694 0.0
C2036 C -0.00586 0.45672 0.17554 0.0
C2037 C 0.00545 0.4432 0.17427 0.0
C2038 C 0.01775 0.4433 0.14402 0.0
C2039 C 0.01921 0.45725 0.11527 0.0
C2040 C 0.00849 0.47124 0.1168 0.0
C2041 C 0.00953 0.54615 1.04229 0.0
C2042 C 0.02915 0.54318 1.03708 0.0
C2043 C -0.00101 0.54249 0.07531 0.0
C2044 C 0.00692 0.53439 0.10407 0.0
C2045 C 0.02646 0.53086 0.09769 0.0
C2046 C 0.03679 0.53441 1.06464 0.0
C2047 C -0.00753 0.52495 0.13757 0.0
C2048 C -0.0025 0.50949 0.15697 0.0
C2049 C 0.96781 0.51745 0.13566 0.0
C2050 C 0.95927 0.5347 0.12955 0.0
C2051 C 0.93889 0.5287 0.10883 0.0
C2052 C 0.93244 0.54573 0.10106 0.0
C2053 C 0.94598 0.56888 0.11392 0.0
C2054 C 0.96641 0.57524 0.13374 0.0
C2055 C 0.97318 0.55839 0.14113 0.0
H2056 H 0.94087 0.582 0.10798 0.0
H2057 H 0.02601 0.43249 0.14258 0.0
H2058 H 0.01888 0.50778 0.47906 0.0
H2059 H 0.00304 0.5167 0.42671 0.0
H2060 H 0.01341 0.46616 0.36638 0.0
H2061 H 0.0285 0.45692 0.41845 0.0
H2062 H 0.03204 0.53676 0.36668 0.0
H2063 H 0.96814 0.45114 0.29194 0.0
H2064 H 0.94869 0.40828 0.30256 0.0
H2065 H 0.94073 0.41974 0.41165 0.0
H2066 H 0.96098 0.46267 0.40212 0.0
H2067 H 0.96737 0.54715 0.44828 0.0
H2068 H 0.98158 0.55564 0.38785 0.0
H2069 H 0.93737 0.48066 0.36395 0.0
H2070 H 0.9303 0.4723 0.42422 0.0
H2071 H 0.95429 0.48837 0.3098 0.0
H2072 H 0.0329 0.5709 0.38853 0.0
H2073 H 0.05577 0.61398 0.37825 0.0
H2074 H 0.02154 0.60427 0.27796 0.0
H2075 H -0.00231 0.56105 0.28865 0.0
C2076 C 0.01688 0.49796 0.455 0.0
C2077 C 0.02515 0.48187 0.45275 0.0
C2078 C 0.00832 0.50332 0.42501 0.0
C2079 C 0.0082 0.49275 0.39255 0.0
C2080 C 0.01384 0.47472 0.39112 0.0
C2081 C 0.02196 0.46907 0.42131 0.0
C2082 C 0.00226 0.50122 0.36075 0.0
C2083 C 0.01424 0.5259 0.35607 0.0
C2084 C 0.98119 0.48683 0.34116 0.0
C2085 C 0.96693 0.46059 0.34628 0.0
C2086 C 0.96257 0.44477 0.31823 0.0
C2087 C 0.95134 0.42029 0.32414 0.0
C2088 C 0.94349 0.41128 0.3578 0.0
C2089 C 0.94676 0.4267 0.38557 0.0
C2090 C 0.95829 0.45115 0.37991 0.0
C2091 C 0.9619 0.5325 0.43012 0.0
C2092 C 0.94759 0.50886 0.44131 0.0
C2093 C 0.96955 0.53741 0.39502 0.0
C2094 C 0.96232 0.51877 0.37016 0.0
C2095 C 0.94531 0.49578 0.38148 0.0
C2096 C 0.94062 0.49073 0.41667 0.0
C2097 C 0.97685 0.52125 0.33758 0.0
C2098 C 0.97122 0.49885 0.32319 0.0
C2099 C 0.00164 0.53642 0.34263 0.0
C2100 C 0.0137 0.56262 0.33882 0.0
C2101 C 0.03014 0.57788 0.36426 0.0
C2102 C 0.04317 0.60238 0.35859 0.0
C2103 C 0.04016 0.61187 0.32739 0.0
C2104 C 0.02384 0.5969 0.30212 0.0
C2105 C 0.01032 0.57245 0.30817 0.0
H2106 H 0.05045 0.63081 0.32281 0.0
H2107 H 0.93481 0.39238 0.36243 0.0
H2108 H 0.42707 0.94264 0.76185 0.0
H2109 H 0.43849 0.97917 0.72937 0.0
H2110 H 0.42749 0.01146 0.81879 0.0
H2111 H 0.41363 0.9745 0.85227 0.0
H2112 H 0.47109 0.0319 0.73313 0.0
H2113 H 0.45856 0.02075 0.85222 0.0
H2114 H 0.4568 0.01583 0.91507 0.0
H2115 H 0.50055 0.98392 0.90861 0.0
H2116 H 0.50375 0.98972 0.84568 0.0
H2117 H 0.55688 0.0481 0.73835 0.0
H2118 H 0.52963 0.0189 0.6971 0.0
H2119 H 0.51356 0.96458 0.77014 0.0
H2120 H 0.54052 -0.00604 0.81457 0.0
H2121 H 0.48709 0.97574 0.79677 0.0
H2122 H 0.4674 0.96826 0.69131 0.0
H2123 H 0.44981 0.96197 0.63217 0.0
H2124 H 0.47754 0.037 0.6222 0.0
H2125 H 0.49454 0.04367 0.68114 0.0
C2126 C 0.42783 0.95775 0.77521 0.0
C2127 C 0.42375 0.95756 0.81135 0.0
C2128 C 0.43367 0.97839 0.75671 0.0
C2129 C 0.44102 -0.00064 0.77666 0.0
C2130 C 0.42763 -0.00358 0.8067 0.0
C2131 C 0.42027 0.97565 0.82578 0.0
C2132 C 0.46744 0.01375 0.78087 0.0
C2133 C 0.47771 0.02214 0.74791 0.0
C2134 C 0.47771 0.00294 0.80177 0.0
C2135 C 0.47872 0.003 0.8417 0.0
C2136 C 0.46731 0.01204 0.86304 0.0
C2137 C 0.46653 0.00958 0.89955 0.0
C2138 C 0.47783 -0.00127 0.91588 0.0
C2139 C 0.49096 0.99149 0.89585 0.0
C2140 C 0.49209 -0.00569 0.85941 0.0
C2141 C 0.54681 0.03032 0.74677 0.0
C2142 C 0.54712 0.02415 0.78202 0.0
C2143 C 0.53185 0.01304 0.72265 0.0
C2144 C 0.51394 0.99188 0.73714 0.0
C2145 C 0.52309 0.98323 0.76351 0.0
C2146 C 0.53802 -0.00012 0.78915 0.0
C2147 C 0.49293 -0.00554 0.74809 0.0
C2148 C 0.48543 0.98939 0.78323 0.0
C2149 C 0.48694 0.00964 0.72936 0.0
C2150 C 0.48255 0.00663 0.69085 0.0
C2151 C 0.47035 0.98357 0.67615 0.0
C2152 C 0.45983 0.9798 0.64287 0.0
C2153 C 0.46179 -0.00102 0.62374 0.0
C2154 C 0.47513 0.022 0.63726 0.0
C2155 C 0.48547 0.02585 0.67049 0.0
H2156 H 0.45366 -0.00393 0.59796 0.0
H2157 H 0.47676 -0.00375 0.94404 0.0
H2158 H 0.48653 0.54438 0.07878 0.0
H2159 H 0.49911 0.53126 1.02786 0.0
H2160 H 0.57271 0.5772 1.05626 0.0
H2161 H 0.56037 0.59388 0.10375 0.0
H2162 H 0.53981 0.52807 0.98273 0.0
H2163 H 0.57951 0.54382 0.08947 0.0
H2164 H 0.59616 0.5624 0.14713 0.0
H2165 H 0.52568 0.53446 0.1885 0.0
H2166 H 0.50859 0.51661 0.13119 0.0
H2167 H 0.51334 0.44113 0.08099 0.0
H2168 H 0.50623 0.44838 1.02226 0.0
H2169 H 0.45257 0.46218 1.06202 0.0
H2170 H 0.45132 0.44157 0.11753 0.0
H2171 H 0.50473 0.48668 0.09422 0.0
H2172 H 0.46987 0.47072 0.9736 0.0
H2173 H 0.46069 0.44737 0.91847 0.0
H2174 H 0.53411 0.46787 0.90777 0.0
H2175 H 0.5435 0.48975 0.9635 0.0
C2176 C 0.5054 0.55192 0.07401 0.0
C2177 C 0.52247 0.56863 0.09693 0.0
C2178 C 0.51271 0.54544 1.04381 0.0
C2179 C 0.53677 0.55163 1.04081 0.0
C2180 C 0.55397 0.57131 1.05944 0.0
C2181 C 0.54679 0.57975 0.08781 0.0
C2182 C 0.53966 0.53078 1.03909 0.0
C2183 C 0.53263 0.51849 1.00708 0.0
C2184 C 0.53266 0.51758 1.07069 0.0
C2185 C 0.54278 0.52852 0.10574 0.0
C2186 C 0.56755 0.5417 0.11079 0.0
C2187 C 0.57707 0.55228 0.14344 0.0
C2188 C 0.56198 0.54939 0.17153 0.0
C2189 C 0.53736 0.53641 0.16687 0.0
C2190 C 0.52776 0.52606 0.13425 0.0
C2191 C 0.49715 0.44088 0.07569 0.0
C2192 C 0.48246 0.43911 0.10366 0.0
C2193 C 0.49326 0.44617 1.04205 0.0
C2194 C 0.48211 0.4596 1.04018 0.0
C2195 C 0.46359 0.45411 1.06464 0.0
C2196 C 0.46368 0.44349 0.09696 0.0
C2197 C 0.50084 0.48482 1.03756 0.0
C2198 C 0.51182 0.49575 1.06963 0.0
C2199 C 0.51321 0.49523 1.00602 0.0
C2200 C 0.50732 0.48211 0.9724 0.0
C2201 C 0.48396 0.47014 0.95938 0.0
C2202 C 0.47883 0.45741 0.92784 0.0
C2203 C 0.49711 0.45752 0.90839 0.0
C2204 C 0.52021 0.46885 0.92176 0.0
C2205 C 0.52541 0.48117 0.95351 0.0
H2206 H 0.49327 0.44779 0.88396 0.0
H2207 H 0.56936 0.55723 0.19693 0.0
H2208 H 0.31577 0.93168 0.65385 0.0
H2209 H 0.33771 0.95207 0.60126 0.0
H2210 H 0.3956 0.94123 0.63226 0.0
H2211 H 0.3733 0.91992 0.68459 0.0
H2212 H 0.4087 0.98885 0.62336 0.0
H2213 H 0.36839 0.9169 0.56246 0.0
H2214 H 0.3349 0.87856 0.54307 0.0
H2215 H 0.30319 0.91446 0.49093 0.0
H2216 H 0.33637 0.95313 0.51033 0.0
H2217 H 0.44833 0.05002 0.4472 0.0
H2218 H 0.42788 0.01222 0.47761 0.0
H2219 H 0.39818 0.04108 0.55079 0.0
H2220 H 0.41813 0.07915 0.51968 0.0
H2221 H 0.37935 0.97873 0.50018 0.0
H2222 H 0.41414 0.03071 0.63168 0.0
H2223 H 0.44538 0.07103 0.64907 0.0
H2224 H 0.48706 0.07423 0.55947 0.0
H2225 H 0.45692 0.03339 0.54283 0.0
C2226 C 0.33272 0.93276 0.64884 0.0
C2227 C 0.343 0.92461 0.67359 0.0
C2228 C 0.3453 0.94451 0.61887 0.0
C2229 C 0.36829 0.94825 0.61323 0.0
C2230 C 0.37792 0.9386 0.63646 0.0
C2231 C 0.3652 0.92655 0.66627 0.0
C2232 C 0.38299 0.96482 0.58555 0.0
C2233 C 0.40262 0.98646 0.59625 0.0
C2234 C 0.37506 0.96139 0.55022 0.0
C2235 C 0.35508 0.93811 0.53781 0.0
C2236 C 0.35424 0.91672 0.54705 0.0
C2237 C 0.3353 0.89487 0.53599 0.0
C2238 C 0.31693 0.89406 0.51574 0.0
C2239 C 0.31751 0.91512 0.50647 0.0
C2240 C 0.33647 0.93705 0.51737 0.0
C2241 C 0.43715 0.0482 0.46949 0.0
C2242 C 0.43495 0.0675 0.48148 0.0
C2243 C 0.42531 0.02649 0.48655 0.0
C2244 C 0.41164 0.02389 0.5163 0.0
C2245 C 0.40873 0.04287 0.52771 0.0
C2246 C 0.42044 0.06464 0.51047 0.0
C2247 C 0.40376 0.00298 0.53887 0.0
C2248 C 0.38572 0.98071 0.52706 0.0
C2249 C 0.41323 0.00567 0.57317 0.0
C2250 C 0.433 0.029 0.58573 0.0
C2251 C 0.43019 0.03978 0.6161 0.0
C2252 C 0.44775 0.06275 0.62584 0.0
C2253 C 0.46816 0.07522 0.6053 0.0
C2254 C 0.47124 0.0646 0.57528 0.0
C2255 C 0.45399 0.04146 0.56584 0.0
H2256 H 0.48162 0.09308 0.61271 0.0
H2257 H 0.30224 0.87712 0.50726 0.0
H2258 H 0.37276 0.32159 1.00092 0.0
H2259 H 0.36277 0.32814 0.94089 0.0
H2260 H 0.34722 0.38107 0.98143 0.0
H2261 H 0.35767 0.37492 1.04077 0.0
H2262 H 0.31962 0.32476 0.91523 0.0
H2263 H 0.36545 0.42505 0.92673 0.0
H2264 H 0.39653 0.4567 0.96345 0.0
H2265 H 0.43412 0.41805 0.96864 0.0
H2266 H 0.40364 0.38645 0.93078 0.0
H2267 H 0.29938 0.41515 0.82759 0.0
H2268 H 0.30951 0.39412 0.87093 0.0
H2269 H 0.33425 0.36615 0.78849 0.0
H2270 H 0.32249 0.3856 0.74443 0.0
H2271 H 0.36305 0.40593 0.86511 0.0
H2272 H 0.3128 0.32488 0.80979 0.0
H2273 H 0.27415 0.29424 0.78538 0.0
H2274 H 0.23884 0.29745 0.87901 0.0
H2275 H 0.27728 0.32832 0.90371 0.0
C2276 C 0.36697 0.3344 0.9967 0.0
C2277 C 0.3657 0.34769 1.02488 0.0
C2278 C 0.36138 0.33816 0.9627 0.0
C2279 C 0.35468 0.35533 0.95692 0.0
C2280 C 0.35278 0.36805 0.98541 0.0
C2281 C 0.35851 0.36443 1.01916 0.0
C2282 C 0.34956 0.3602 0.92122 0.0
C2283 C 0.32951 0.34231 0.9037 0.0
C2284 C 0.3622 0.38331 0.90685 0.0
C2285 C 0.38218 0.40332 0.92604 0.0
C2286 C 0.38056 0.42347 0.93514 0.0
C2287 C 0.39803 0.44137 0.95622 0.0
C2288 C 0.41715 0.43927 0.96855 0.0
C2289 C 0.41922 0.41957 0.95908 0.0
C2290 C 0.40192 0.40172 0.93763 0.0
C2291 C 0.306 0.40374 0.8184 0.0
C2292 C 0.31036 0.40229 0.78253 0.0
C2293 C 0.3119 0.39186 0.84324 0.0
C2294 C 0.32242 0.37857 0.83265 0.0
C2295 C 0.32578 0.37606 0.79693 0.0
C2296 C 0.31941 0.38753 0.77193 0.0
C2297 C 0.33301 0.37061 0.85956 0.0
C2298 C 0.35397 0.38805 0.87567 0.0
C2299 C 0.32081 0.34741 0.87323 0.0
C2300 C 0.2978 0.32902 0.85835 0.0
C2301 C 0.29674 0.31922 0.82495 0.0
C2302 C 0.2749 0.30177 0.81113 0.0
C2303 C 0.25404 0.29395 0.83058 0.0
C2304 C 0.25499 0.30354 0.86394 0.0
C2305 C 0.27679 0.32099 0.87786 0.0
H2306 H 0.23716 0.28042 0.81986 0.0
H2307 H 0.43019 0.45283 0.98575 0.0
H2308 H 0.96438 0.40416 0.14966 0.0
H2309 H 0.96292 0.39375 0.21214 0.0
H2310 H 0.95198 0.3249 0.18206 0.0
H2311 H 0.95476 0.33586 0.11989 0.0
H2312 H 0.93325 0.34168 0.26171 0.0
H2313 H -0.00141 0.34457 0.17993 0.0
H2314 H 0.02931 0.36477 0.13447 0.0
H2315 H 0.05563 0.43111 0.18959 0.0
H2316 H 0.02436 0.41145 0.23445 0.0
H2317 H 0.04425 0.34926 0.3591 0.0
H2318 H 0.00845 0.33066 0.32219 0.0
H2319 H -0.00656 0.38618 0.35024 0.0
H2320 H 0.02936 0.40518 0.38575 0.0
H2321 H 0.01945 0.36943 0.27343 0.0
H2322 H 0.93012 0.36042 0.31876 0.0
H2323 H 0.90335 0.34623 0.37008 0.0
H2324 H 0.92967 0.29952 0.39753 0.0
H2325 H 0.9562 0.31304 0.34607 0.0
C2326 C 0.96125 0.38673 0.15675 0.0
C2327 C 0.96081 0.37116 0.13087 0.0
C2328 C 0.95987 0.38059 0.19211 0.0
C2329 C 0.95765 0.35871 0.20131 0.0
C2330 C 0.95363 0.34182 0.17517 0.0
C2331 C 0.9555 0.34816 0.13988 0.0
C2332 C 0.96701 0.35664 0.23532 0.0
C2333 C 0.95203 0.34754 0.2646 0.0
C2334 C -0.00848 0.36463 0.23867 0.0
C2335 C 0.00879 0.37667 0.20994 0.0
C2336 C 0.01051 0.36357 0.18178 0.0
C2337 C 0.02809 0.37491 0.15622 0.0
C2338 C 0.04434 0.39924 0.15903 0.0
C2339 C 0.04299 0.41229 0.18735 0.0
C2340 C 0.02518 0.40112 0.2126 0.0
C2341 C 0.03283 0.35698 0.35831 0.0
C2342 C 0.0397 0.37879 0.37489 0.0
C2343 C 0.01214 0.34608 0.33794 0.0
C2344 C -0.00168 0.35702 0.33378 0.0
C2345 C 0.00358 0.37719 0.35377 0.0
C2346 C 0.02429 0.38816 0.3739 0.0
C2347 C 0.98575 0.35376 0.30032 0.0
C2348 C 0.00044 0.36269 0.27086 0.0
C2349 C 0.96127 0.34636 0.29762 0.0
C2350 C 0.94534 0.33796 0.32867 0.0
C2351 C 0.93011 0.34704 0.33567 0.0
C2352 C 0.91497 0.33912 0.36477 0.0
C2353 C 0.91487 0.32205 0.3871 0.0
C2354 C 0.92985 0.31283 0.3803 0.0
C2355 C 0.94499 0.32067 0.35119 0.0
H2356 H 0.90314 0.31593 0.40961 0.0
H2357 H 0.05803 0.40795 0.13934 0.0
H2358 H 0.64268 0.02433 0.65235 0.0
H2359 H 0.63723 0.03028 0.59054 0.0
H2360 H 0.5934 0.05953 0.61861 0.0
H2361 H 0.59714 0.05256 0.68098 0.0
H2362 H 0.57973 0.00014 0.62521 0.0
H2363 H 0.58034 0.05759 0.55631 0.0
H2364 H 0.59464 0.09583 0.52628 0.0
H2365 H 0.6383 0.08044 0.45869 0.0
H2366 H 0.62438 0.0421 0.48857 0.0
H2367 H 0.53403 0.90614 0.49046 0.0
H2368 H 0.53553 0.93898 0.52498 0.0
H2369 H 0.61202 0.97792 0.51483 0.0
H2370 H 0.61051 0.945 0.48124 0.0
H2371 H 0.58516 0.00336 0.49525 0.0
H2372 H 0.59317 0.95188 0.58075 0.0
H2373 H 0.58092 0.91628 0.61668 0.0
H2374 H 0.52486 0.92442 0.66206 0.0
H2375 H 0.53577 0.95912 0.6245 0.0
C2376 C 0.63228 0.03259 0.64551 0.0
C2377 C 0.61869 0.03611 0.67096 0.0
C2378 C 0.62985 0.03686 0.61022 0.0
C2379 C 0.61187 0.04192 0.60084 0.0
C2380 C 0.60455 0.05243 0.62622 0.0
C2381 C 0.60683 0.04845 0.66164 0.0
C2382 C 0.59273 0.02288 0.57979 0.0
C2383 C 0.58001 0.00078 0.59667 0.0
C2384 C 0.5926 0.024 0.54298 0.0
C2385 C 0.6015 0.04706 0.52494 0.0
C2386 C 0.59323 0.06247 0.53533 0.0
C2387 C 0.60117 0.08413 0.51823 0.0
C2388 C 0.61743 0.09061 0.49065 0.0
C2389 C 0.6257 0.07539 0.48006 0.0
C2390 C 0.61773 0.05364 0.49701 0.0
C2391 C 0.5511 0.92141 0.49683 0.0
C2392 C 0.5722 0.92308 0.48413 0.0
C2393 C 0.55191 0.94021 0.51577 0.0
C2394 C 0.57382 0.96087 0.52143 0.0
C2395 C 0.59495 0.96215 0.50991 0.0
C2396 C 0.59416 0.94321 0.49169 0.0
C2397 C 0.57547 0.98098 0.54117 0.0
C2398 C 0.58398 0.0028 0.52372 0.0
C2399 C 0.5723 0.97971 0.57797 0.0
C2400 C 0.56459 0.95758 0.59843 0.0
C2401 C 0.57757 0.94553 0.59714 0.0
C2402 C 0.57094 0.92552 0.61799 0.0
C2403 C 0.55181 0.91778 0.64114 0.0
C2404 C 0.5393 0.93006 0.64348 0.0
C2405 C 0.54554 0.94976 0.62213 0.0
H2406 H 0.54695 0.90252 0.65765 0.0
H2407 H 0.62359 0.10739 0.47742 0.0
H2408 H 0.60527 0.66268 1.03886 0.0
H2409 H 0.62109 0.64394 0.99963 0.0
H2410 H 0.55999 0.62034 0.9315 0.0
H2411 H 0.54411 0.6392 0.97069 0.0
H2412 H 0.57444 0.58597 0.94515 0.0
H2413 H 0.60631 0.66737 0.9096 0.0
H2414 H 0.62732 0.71067 0.91965 0.0
H2415 H 0.69038 0.70928 0.95017 0.0
H2416 H 0.66955 0.66584 0.94098 0.0
H2417 H 0.62151 0.58534 0.77053 0.0
H2418 H 0.60424 0.59458 0.82055 0.0
H2419 H 0.65748 0.59505 0.8889 0.0
H2420 H 0.67346 0.58308 0.83997 0.0
H2421 H 0.64891 0.63939 0.8812 0.0
H2422 H 0.61465 0.55556 0.89652 0.0
H2423 H 0.5912 0.51478 0.87481 0.0
H2424 H 0.52723 0.51823 0.88528 0.0
H2425 H 0.55062 0.56059 0.89945 0.0
C2426 C 0.59521 0.65337 1.01558 0.0
C2427 C 0.57376 0.65263 1.00722 0.0
C2428 C 0.60421 0.64271 0.99336 0.0
C2429 C 0.59176 0.63107 0.96273 0.0
C2430 C 0.56981 0.6294 0.95508 0.0
C2431 C 0.56092 0.64032 0.97712 0.0
C2432 C 0.60233 0.62189 0.93746 0.0
C2433 C 0.59054 0.59749 0.93066 0.0
C2434 C 0.6237 0.63721 0.91979 0.0
C2435 C 0.63629 0.66333 0.92507 0.0
C2436 C 0.62458 0.67626 0.91881 0.0
C2437 C 0.63646 0.70083 0.9243 0.0
C2438 C 0.66014 0.71271 0.93566 0.0
C2439 C 0.67201 0.70004 0.94147 0.0
C2440 C 0.66017 0.67545 0.93614 0.0
C2441 C 0.62915 0.58641 0.79625 0.0
C2442 C 0.64901 0.58325 0.80085 0.0
C2443 C 0.61934 0.59203 0.82477 0.0
C2444 C 0.62957 0.59531 0.85819 0.0
C2445 C 0.6494 0.59248 0.8631 0.0
C2446 C 0.65864 0.58589 0.83492 0.0
C2447 C 0.6205 0.6033 0.88754 0.0
C2448 C 0.63277 0.62763 0.89545 0.0
C2449 C 0.59911 0.58785 0.90542 0.0
C2450 C 0.58484 0.56198 0.89744 0.0
C2451 C 0.5958 0.54823 0.89224 0.0
C2452 C 0.58246 0.52471 0.88099 0.0
C2453 C 0.55789 0.51411 0.87749 0.0
C2454 C 0.54644 0.52673 0.88654 0.0
C2455 C 0.55984 0.55076 0.89518 0.0
H2456 H 0.54783 0.49623 0.86722 0.0
H2457 H 0.66933 0.73174 0.93986 0.0
H2458 H 0.05636 0.67396 0.10741 0.0
H2459 H 0.02215 0.65758 0.14696 0.0
H2460 H 0.05588 0.6289 0.21279 0.0
H2461 H 0.09011 0.645 0.17283 0.0
H2462 H 0.00921 0.59623 0.1925 0.0
H2463 H 0.05349 0.67559 0.23933 0.0
H2464 H 0.07444 0.71929 0.23558 0.0
H2465 H 0.01014 0.7164 0.20026 0.0
H2466 H 0.98891 0.67262 0.20305 0.0
H2467 H 0.95843 0.5875 0.3618 0.0
H2468 H 0.98312 0.59753 0.31046 0.0
H2469 H 0.92869 0.59919 0.24783 0.0
H2470 H 0.90208 0.58634 0.29859 0.0
H2471 H 0.98063 0.64316 0.25785 0.0
H2472 H 0.93317 0.56323 0.22993 0.0
H2473 H 0.9121 0.52023 0.23681 0.0
H2474 H 0.9769 0.51956 0.22055 0.0
H2475 H -0.00034 0.56309 0.22248 0.0
C2476 C 0.05663 0.66457 0.13074 0.0
C2477 C 0.07581 0.66082 0.13741 0.0
C2478 C 0.03714 0.65521 0.15316 0.0
C2479 C 0.03663 0.64211 0.18261 0.0
C2480 C 0.05609 0.639 0.19004 0.0
C2481 C 0.07568 0.64843 0.16761 0.0
C2482 C 0.01535 0.63091 0.20495 0.0
C2483 C 0.00274 0.60607 0.20732 0.0
C2484 C 0.00694 0.64445 0.22235 0.0
C2485 C 0.01969 0.6708 0.22095 0.0
C2486 C 0.04388 0.68425 0.2304 0.0
C2487 C 0.0558 0.70904 0.22849 0.0
C2488 C 0.04365 0.72061 0.21757 0.0
C2489 C 0.01954 0.70741 0.20862 0.0
C2490 C 0.00756 0.68261 0.21034 0.0
C2491 C 0.95088 0.58862 0.33698 0.0
C2492 C 0.92785 0.58562 0.33455 0.0
C2493 C 0.96529 0.59457 0.30758 0.0
C2494 C 0.95742 0.59835 0.2754 0.0
C2495 C 0.93474 0.59582 0.27258 0.0
C2496 C 0.91975 0.58879 0.30173 0.0
C2497 C 0.97442 0.60802 0.24641 0.0
C2498 C 0.98645 0.63276 0.2428 0.0
C2499 C 0.98194 0.59406 0.22757 0.0
C2500 C 0.96856 0.56734 0.22854 0.0
C2501 C 0.94352 0.55445 0.23096 0.0
C2502 C 0.93124 0.52973 0.23375 0.0
C2503 C 0.94345 0.51723 0.23102 0.0
C2504 C 0.96786 0.52945 0.2252 0.0
C2505 C 0.98052 0.55428 0.22516 0.0
H2506 H 0.93393 0.49803 0.23212 0.0
H2507 H 0.05291 0.73981 0.21613 0.0
H2508 H 0.51328 0.12487 0.42632 0.0
H2509 H 0.52862 0.1266 0.48563 0.0
H2510 H 0.51366 0.0546 0.47422 0.0
H2511 H 0.49757 0.05306 0.41578 0.0
H2512 H 0.52159 0.05433 0.53067 0.0
H2513 H 0.58534 0.13388 0.50774 0.0
H2514 H 0.60443 0.17559 0.48823 0.0
H2515 H 0.55246 0.18502 0.54485 0.0
H2516 H 0.53386 0.14365 0.5662 0.0
H2517 H 0.6126 0.10193 0.69292 0.0
H2518 H 0.59737 0.10198 0.63359 0.0
H2519 H 0.52833 0.07895 0.67618 0.0
H2520 H 0.5432 0.07772 0.73543 0.0
H2521 H 0.56619 0.12665 0.60228 0.0
H2522 H 0.49754 0.02508 0.56222 0.0
H2523 H 0.48947 0.98501 0.57323 0.0
H2524 H 0.54822 0.01145 0.64503 0.0
H2525 H 0.55826 0.05182 0.63236 0.0
C2526 C 0.51378 0.10939 0.43549 0.0
C2527 C 0.50464 0.08913 0.41229 0.0
C2528 C 0.52301 0.11032 0.4713 0.0
C2529 C 0.52422 0.09106 0.48851 0.0
C2530 C 0.51439 0.07067 0.46523 0.0
C2531 C 0.50494 0.06972 0.42978 0.0
C2532 C 0.53411 0.09123 0.52921 0.0
C2533 C 0.53003 0.07002 0.54688 0.0
C2534 C 0.54806 0.11159 0.55192 0.0
C2535 C 0.55799 0.13571 0.53784 0.0
C2536 C 0.57792 0.14485 0.51576 0.0
C2537 C 0.58876 0.16845 0.50468 0.0
C2538 C 0.57942 0.18283 0.5148 0.0
C2539 C 0.55953 0.17379 0.53676 0.0
C2540 C 0.54899 0.15036 0.54868 0.0
C2541 C 0.59409 0.09716 0.69076 0.0
C2542 C 0.58041 0.09105 0.72283 0.0
C2543 C 0.58499 0.09705 0.65523 0.0
C2544 C 0.56067 0.08996 0.64685 0.0
C2545 C 0.54685 0.08404 0.67872 0.0
C2546 C 0.55605 0.08434 0.71444 0.0
C2547 C 0.55053 0.08881 0.60633 0.0
C2548 C 0.55552 0.11013 0.58806 0.0
C2549 C 0.53688 0.06789 0.5835 0.0
C2550 C 0.52968 0.04289 0.59495 0.0
C2551 C 0.50979 0.02305 0.57919 0.0
C2552 C 0.50463 -0.00017 0.58585 0.0
C2553 C 0.51832 -0.00435 0.60976 0.0
C2554 C 0.53751 0.01471 0.62647 0.0
C2555 C 0.54311 0.03801 0.61922 0.0
H2556 H 0.51379 0.97763 0.61563 0.0
H2557 H 0.5877 0.20103 0.50585 0.0
H2558 H 0.42577 0.49188 0.76152 0.0
H2559 H 0.43917 0.50623 0.81995 0.0
H2560 H 0.41544 0.55682 0.80828 0.0
H2561 H 0.40197 0.54152 0.74831 0.0
H2562 H 0.43609 0.57548 0.86112 0.0
H2563 H 0.39889 0.49215 0.88057 0.0
H2564 H 0.3898 0.45128 0.86686 0.0
H2565 H 0.46398 0.47341 0.87568 0.0
H2566 H 0.47323 0.51363 0.892 0.0
H2567 H 0.4492 0.5929 1.05834 0.0
H2568 H 0.43386 0.57665 0.99921 0.0
H2569 H 0.49667 0.57254 0.97964 0.0
H2570 H 0.51176 0.58952 1.03815 0.0
H2571 H 0.45515 0.52985 0.9459 0.0
H2572 H 0.48456 0.61509 0.94077 0.0
H2573 H 0.48384 0.65117 0.95926 0.0
H2574 H 0.41007 0.61854 0.93008 0.0
H2575 H 0.41027 0.58216 0.91189 0.0
C2576 C 0.42421 0.50691 0.77004 0.0
C2577 C 0.41448 0.51644 0.74534 0.0
C2578 C 0.43159 0.51522 0.80606 0.0
C2579 C 0.42934 0.53381 0.82336 0.0
C2580 C 0.41885 0.54308 0.79891 0.0
C2581 C 0.41147 0.53459 0.76236 0.0
C2582 C 0.43737 0.543 0.86482 0.0
C2583 C 0.43992 0.56482 0.87885 0.0
C2584 C 0.44255 0.53065 0.89237 0.0
C2585 C 0.4368 0.50594 0.88664 0.0
C2586 C 0.41316 0.48806 0.88023 0.0
C2587 C 0.40795 0.46493 0.87236 0.0
C2588 C 0.42622 0.45952 0.87109 0.0
C2589 C 0.44967 0.4772 0.87804 0.0
C2590 C 0.45493 0.50016 0.88677 0.0
C2591 C 0.45901 0.58668 1.04334 0.0
C2592 C 0.48059 0.58949 1.0586 0.0
C2593 C 0.45047 0.57797 1.00736 0.0
C2594 C 0.4629 0.57158 0.98202 0.0
C2595 C 0.48506 0.57566 0.99653 0.0
C2596 C 0.49372 0.58504 1.03195 0.0
C2597 C 0.45401 0.56217 0.94144 0.0
C2598 C 0.45141 0.54042 0.92777 0.0
C2599 C 0.44725 0.57382 0.91519 0.0
C2600 C 0.44741 0.5959 0.92512 0.0
C2601 C 0.46817 0.6156 0.9384 0.0
C2602 C 0.46785 0.6361 0.94884 0.0
C2603 C 0.44692 0.63714 0.94587 0.0
C2604 C 0.42628 0.61772 0.93235 0.0
C2605 C 0.42649 0.59717 0.92193 0.0
H2606 H 0.4467 0.653 0.95402 0.0
H2607 H 0.42218 0.44167 0.86451 0.0
H2608 H 0.89967 0.44265 1.06908 0.0
H2609 H 0.89591 0.45608 0.12771 0.0
H2610 H 0.87979 0.38862 0.17018 0.0
H2611 H 0.88147 0.37479 0.11117 0.0
H2612 H 0.8875 0.40455 0.22502 0.0
H2613 H 0.91062 0.49767 0.17922 0.0
H2614 H 0.89478 0.51826 0.14346 0.0
H2615 H 0.82596 0.4554 0.14208 0.0
H2616 H 0.84099 0.43509 0.18021 0.0
H2617 H 0.88251 0.50326 0.36531 0.0
H2618 H 0.88151 0.48846 0.30591 0.0
H2619 H 0.89336 0.43425 0.34876 0.0
H2620 H 0.89279 0.44832 0.40732 0.0
H2621 H 0.88411 0.47719 0.2502 0.0
H2622 H 0.8465 0.40546 0.30802 0.0
H2623 H 0.8354 0.37161 0.34774 0.0
H2624 H 0.89914 0.37093 0.32016 0.0
H2625 H 0.91068 0.40487 0.28038 0.0
C2626 C 0.89383 0.42981 0.08999 0.0
C2627 C 0.88925 0.40626 0.08167 0.0
C2628 C 0.8924 0.4381 0.12568 0.0
C2629 C 0.88745 0.42433 0.15769 0.0
C2630 C 0.88365 0.40109 0.14906 0.0
C2631 C 0.88448 0.3927 0.11353 0.0
C2632 C 0.88695 0.43345 0.19858 0.0
C2633 C 0.88732 0.42089 0.22948 0.0
C2634 C 0.88474 0.45375 0.20911 0.0
C2635 C 0.87689 0.46506 0.18292 0.0
C2636 C 0.89208 0.48844 0.17185 0.0
C2637 C 0.88328 0.5 0.15096 0.0
C2638 C 0.85948 0.48813 0.14025 0.0
C2639 C 0.8444 0.46462 0.15044 0.0
C2640 C 0.85304 0.45311 0.17174 0.0
C2641 C 0.88406 0.48748 0.36298 0.0
C2642 C 0.88652 0.47716 0.3952 0.0
C2643 C 0.88365 0.47866 0.32711 0.0
C2644 C 0.88619 0.45842 0.31822 0.0
C2645 C 0.88939 0.44846 0.3505 0.0
C2646 C 0.88908 0.45696 0.38646 0.0
C2647 C 0.88622 0.44909 0.27709 0.0
C2648 C 0.88553 0.46149 0.24602 0.0
C2649 C 0.88567 0.42725 0.26637 0.0
C2650 C 0.87993 0.40827 0.29228 0.0
C2651 C 0.8584 0.39841 0.31101 0.0
C2652 C 0.852 0.37917 0.33346 0.0
C2653 C 0.8668 0.36941 0.337 0.0
C2654 C 0.88796 0.3788 0.31795 0.0
C2655 C 0.8945 0.3981 0.29558 0.0
H2656 H 0.86175 0.3544 0.35417 0.0
H2657 H 0.85275 0.49711 0.12399 0.0
H2658 H 0.45024 0.89443 0.41298 0.0
H2659 H 0.43516 0.89515 0.46941 0.0
H2660 H 0.48555 0.87909 0.51634 0.0
H2661 H 0.5005 0.87815 0.45757 0.0
H2662 H 0.46709 0.87315 0.56921 0.0
H2663 H 0.43872 0.93948 0.55001 0.0
H2664 H 0.41392 0.95272 0.52028 0.0
H2665 H 0.37289 0.88426 0.4713 0.0
H2666 H 0.39526 0.86945 0.50547 0.0
H2667 H 0.43945 0.90852 0.74719 0.0
H2668 H 0.45446 0.90489 0.68912 0.0
H2669 H 0.38364 0.87289 0.64748 0.0
H2670 H 0.3685 0.87396 0.70627 0.0
H2671 H 0.41009 0.9004 0.59493 0.0
H2672 H 0.41902 0.83916 0.64627 0.0
H2673 H 0.43226 0.81637 0.68221 0.0
H2674 H 0.50514 0.87044 0.66763 0.0
H2675 H 0.49224 0.89274 0.62959 0.0
C2676 C 0.45748 0.88919 0.43397 0.0
C2677 C 0.47676 0.88495 0.42615 0.0
C2678 C 0.44871 0.89034 0.46917 0.0
C2679 C 0.45741 0.88654 0.50214 0.0
C2680 C 0.47665 0.88198 0.49448 0.0
C2681 C 0.48574 0.88142 0.45905 0.0
C2682 C 0.44749 0.88725 0.54261 0.0
C2683 C 0.45505 0.87988 0.5735 0.0
C2684 C 0.43048 0.89467 0.55341 0.0
C2685 C 0.41972 0.9038 0.52832 0.0
C2686 C 0.42486 0.92742 0.53209 0.0
C2687 C 0.41093 0.93509 0.51498 0.0
C2688 C 0.39276 0.91983 0.49207 0.0
C2689 C 0.38747 0.89629 0.48815 0.0
C2690 C 0.40035 0.88804 0.50717 0.0
C2691 C 0.42641 0.89889 0.72696 0.0
C2692 C 0.40163 0.88951 0.73553 0.0
C2693 C 0.43544 0.89742 0.69188 0.0
C2694 C 0.42092 0.88788 0.66061 0.0
C2695 C 0.39645 0.87997 0.66881 0.0
C2696 C 0.38742 0.88057 0.70398 0.0
C2697 C 0.43059 0.88738 0.62045 0.0
C2698 C 0.42277 0.89447 0.59005 0.0
C2699 C 0.4471 0.87957 0.6101 0.0
C2700 C 0.45472 0.868 0.6362 0.0
C2701 C 0.43785 0.84638 0.65125 0.0
C2702 C 0.4453 0.8333 0.67132 0.0
C2703 C 0.46952 0.84211 0.67762 0.0
C2704 C 0.48639 0.86379 0.66312 0.0
C2705 C 0.47905 0.87654 0.64206 0.0
H2706 H 0.47522 0.83209 0.69355 0.0
H2707 H 0.38229 0.92602 0.47831 0.0
H2708 H 0.60759 0.50622 0.77243 0.0
H2709 H 0.59477 0.49168 0.83129 0.0
H2710 H 0.53654 0.42759 0.78927 0.0
H2711 H 0.54724 0.44468 0.72985 0.0
H2712 H 0.51951 0.42187 0.8475 0.0
H2713 H 0.60096 0.44677 0.84907 0.0
H2714 H 0.64438 0.47248 0.84277 0.0
H2715 H 0.64394 0.52132 0.91881 0.0
H2716 H 0.60052 0.49591 0.92556 0.0
H2717 H 0.48647 0.37286 1.02571 0.0
H2718 H 0.50199 0.38344 0.96669 0.0
H2719 H 0.55742 0.45099 1.00413 0.0
H2720 H 0.54411 0.43876 1.06423 0.0
H2721 H 0.57542 0.45281 0.94785 0.0
H2722 H 0.48853 0.42006 0.94483 0.0
H2723 H 0.44688 0.38821 0.94967 0.0
H2724 H 0.46085 0.34413 0.88081 0.0
H2725 H 0.50228 0.37655 0.87339 0.0
C2726 C 0.59202 0.48873 0.77466 0.0
C2727 C 0.58026 0.47666 0.7426 0.0
C2728 C 0.58443 0.47983 0.81026 0.0
C2729 C 0.56432 0.45712 0.81888 0.0
C2730 C 0.55216 0.44495 0.78683 0.0
C2731 C 0.55926 0.45448 0.75089 0.0
C2732 C 0.55608 0.44703 0.85953 0.0
C2733 C 0.53225 0.4291 0.86874 0.0
C2734 C 0.57127 0.45449 0.8907 0.0
C2735 C 0.59737 0.46976 0.88706 0.0
C2736 C 0.6101 0.46308 0.86425 0.0
C2737 C 0.63472 0.47757 0.86067 0.0
C2738 C 0.64689 0.49862 0.88017 0.0
C2739 C 0.63448 0.50508 0.90358 0.0
C2740 C 0.60987 0.49062 0.90733 0.0
C2741 C 0.50229 0.39005 1.02243 0.0
C2742 C 0.51286 0.4042 1.05345 0.0
C2743 C 0.51103 0.39686 0.98664 0.0
C2744 C 0.53049 0.41963 0.97662 0.0
C2745 C 0.54206 0.43352 1.00765 0.0
C2746 C 0.5341 0.42603 1.04396 0.0
C2747 C 0.5387 0.42853 0.93575 0.0
C2748 C 0.56257 0.44607 0.92654 0.0
C2749 C 0.52372 0.42002 0.90447 0.0
C2750 C 0.49842 0.40116 0.90757 0.0
C2751 C 0.4825 0.40414 0.92921 0.0
C2752 C 0.45895 0.38583 0.93278 0.0
C2753 C 0.45116 0.36421 0.91536 0.0
C2754 C 0.46688 0.36094 0.89416 0.0
C2755 C 0.49032 0.37941 0.88988 0.0
H2756 H 0.43298 0.34995 0.91844 0.0
H2757 H 0.66594 0.50985 0.87728 0.0
H2758 H 0.06093 0.51593 0.39949 0.0
H2759 H 0.06271 0.53036 0.33922 0.0
H2760 H 0.11957 0.517 0.3156 0.0
H2761 H 0.11715 0.50184 0.37575 0.0
H2762 H 0.12949 0.54785 0.2688 0.0
H2763 H 0.04675 0.48492 0.26372 0.0
H2764 H 0.00327 0.46188 0.25616 0.0
H2765 H -0.00011 0.52593 0.26738 0.0
H2766 H 0.04281 0.54892 0.27591 0.0
H2767 H 0.11857 0.56938 0.0768 0.0
H2768 H 0.12041 0.55523 0.13562 0.0
H2769 H 0.06638 0.57046 0.16963 0.0
H2770 H 0.06413 0.58342 0.11034 0.0
H2771 H 0.05752 0.53865 0.20986 0.0
H2772 H 0.13965 0.59911 0.19445 0.0
H2773 H 0.17879 0.6177 0.16525 0.0
H2774 H 0.18212 0.55389 0.17945 0.0
H2775 H 0.14287 0.53485 0.20839 0.0
C2776 C 0.07405 0.51591 0.38204 0.0
C2777 C 0.0892 0.50754 0.39586 0.0
C2778 C 0.07498 0.52431 0.3459 0.0
C2779 C 0.09115 0.5253 0.31903 0.0
C2780 C 0.10655 0.51725 0.33308 0.0
C2781 C 0.1053 0.50845 0.36906 0.0
C2782 C 0.09213 0.53448 0.27817 0.0
C2783 C 0.11329 0.54545 0.25676 0.0
C2784 C 0.07226 0.53268 0.25832 0.0
C2785 C 0.04785 0.51854 0.27076 0.0
C2786 C 0.03645 0.49379 0.26643 0.0
C2787 C 0.01189 0.48081 0.26103 0.0
C2788 C -0.00122 0.49253 0.25976 0.0
C2789 C 0.00992 0.51685 0.26691 0.0
C2790 C 0.03426 0.52978 0.27306 0.0
C2791 C 0.10651 0.56927 0.09571 0.0
C2792 C 0.09056 0.57735 0.08492 0.0
C2793 C 0.10795 0.56145 0.13144 0.0
C2794 C 0.09384 0.5613 0.16086 0.0
C2795 C 0.07803 0.56958 0.15009 0.0
C2796 C 0.07674 0.57736 0.11457 0.0
C2797 C 0.09457 0.55253 0.20124 0.0
C2798 C 0.07379 0.54157 0.22242 0.0
C2799 C 0.11473 0.5541 0.22032 0.0
C2800 C 0.1383 0.56553 0.20331 0.0
C2801 C 0.14872 0.58904 0.19122 0.0
C2802 C 0.1709 0.59964 0.17471 0.0
C2803 C 0.18291 0.58696 0.17043 0.0
C2804 C 0.17278 0.56368 0.18274 0.0
C2805 C 0.15058 0.55298 0.19921 0.0
H2806 H 0.20008 0.5952 0.15763 0.0
H2807 H 0.97994 0.48279 0.25377 0.0
loop_
_geom_bond_atom_site_label_1
_geom_bond_atom_site_label_2
_geom_bond_distance
_geom_bond_site_symmetry_2
_ccdc_geom_bond_type
Tb0 N31 2.660 . S
Tb0 N38 2.600 . S
Tb0 O44 2.546 . S
Tb0 O45 2.610 . S
Tb0 O47 2.320 . S
Tb0 O48 2.552 . S
Tb0 O49 2.413 . S
Tb0 O51 2.362 . S
Tb0 O52 2.421 . S
Tb0 C64 2.833 . S
C1 C4 1.432 . S
C1 C5 1.414 . S
C1 N8 1.359 . S
C2 C4 1.417 . S
C2 C6 1.432 . S
C2 C14 1.410 . S
C3 C5 1.444 . S
C3 C6 1.317 . S
C3 H26 0.929 . S
C4 C1 1.432 . S
C4 C2 1.417 . S
C4 N12 1.360 . S
C5 C1 1.414 . S
C5 C3 1.444 . S
C5 C10 1.385 . S
C6 C2 1.432 . S
C6 C3 1.317 . S
C6 H18 0.930 . S
C7 C9 1.392 . S
C7 C10 1.370 . S
C7 H19 0.931 . S
N8 C1 1.359 . S
N8 C9 1.327 . S
N8 Tb11 2.600 . S
C9 C7 1.392 . S
C9 N8 1.327 . S
C9 H16 0.930 . S
C10 C5 1.385 . S
C10 C7 1.370 . S
C10 H29 0.930 . S
Tb11 N8 2.600 . S
Tb11 N12 2.660 . S
Tb11 O45 2.362 . S
Tb11 O46 2.421 . S
Tb11 O50 2.546 . S
Tb11 O51 2.610 . S
Tb11 O53 2.320 . S
Tb11 O54 2.552 . S
Tb11 O55 2.413 . S
Tb11 C75 2.833 . S
N12 C4 1.360 . S
N12 Tb11 2.660 . S
N12 C13 1.305 . S
C13 N12 1.305 . S
C13 C15 1.407 . S
C13 H20 0.930 . S
C14 C2 1.410 . S
C14 C15 1.345 . S
C14 H22 0.930 . S
C15 C13 1.407 . S
C15 C14 1.345 . S
C15 H17 0.930 . S
H16 C9 0.930 . S
H17 C15 0.930 . S
H18 C6 0.930 . S
H19 C7 0.931 . S
H20 C13 0.930 . S
H21 C35 0.930 . S
H22 C14 0.930 . S
H23 C41 0.930 . S
H24 C32 0.930 . S
H25 C39 0.931 . S
H26 C3 0.929 . S
H27 C33 0.930 . S
H28 C66 0.930 . S
H29 C10 0.930 . S
H30 C65 0.929 . S
N31 Tb0 2.660 . S
N31 C32 1.305 . S
N31 C36 1.360 . S
C32 H24 0.930 . S
C32 N31 1.305 . S
C32 C35 1.407 . S
C33 H27 0.930 . S
C33 C34 1.410 . S
C33 C35 1.345 . S
C34 C33 1.410 . S
C34 C36 1.417 . S
C34 C66 1.432 . S
C35 H21 0.930 . S
C35 C32 1.407 . S
C35 C33 1.345 . S
C36 N31 1.360 . S
C36 C34 1.417 . S
C36 C40 1.432 . S
H37 C42 0.930 . S
N38 Tb0 2.600 . S
N38 C40 1.359 . S
N38 C41 1.327 . S
C39 H25 0.931 . S
C39 C41 1.392 . S
C39 C42 1.370 . S
C40 C36 1.432 . S
C40 N38 1.359 . S
C40 C43 1.414 . S
C41 H23 0.930 . S
C41 N38 1.327 . S
C41 C39 1.392 . S
C42 H37 0.930 . S
C42 C39 1.370 . S
C42 C43 1.385 . S
C43 C40 1.414 . S
C43 C42 1.385 . S
C43 C65 1.444 . S
O44 Tb0 2.546 . S
O44 C64 1.251 . S
O45 Tb0 2.610 . S
O45 Tb11 2.362 . S
O45 C56 1.283 . S
O46 Tb11 2.421 . S
O46 C63 1.262 . S
O47 Tb0 2.320 . S
O47 C63 1.260 . S
O48 Tb0 2.552 . S
O48 C56 1.243 . S
O49 Tb0 2.413 . S
O49 C64 1.256 . S
O50 Tb11 2.546 . S
O50 C75 1.251 . S
O51 Tb0 2.362 . S
O51 Tb11 2.610 . S
O51 C67 1.283 . S
O52 Tb0 2.421 . S
O52 C74 1.262 . S
O53 Tb11 2.320 . S
O53 C74 1.260 . S
O54 Tb11 2.552 . S
O54 C67 1.243 . S
O55 Tb11 2.413 . S
O55 C75 1.256 . S
C56 O45 1.283 . S
C56 O48 1.243 . S
C57 C59 1.382 . S
C57 C61 1.393 . S
C57 C64 1.500 . S
C58 C59 1.400 . S
C58 C60 1.384 . S
C59 C57 1.382 . S
C59 C58 1.400 . S
C59 H76 0.930 . S
C60 C58 1.384 . S
C60 C62 1.392 . S
C60 H77 0.931 . S
C61 C57 1.393 . S
C61 C62 1.401 . S
C61 H78 0.930 . S
C62 C60 1.392 . S
C62 C61 1.401 . S
C62 H79 0.930 . S
C63 O46 1.262 . S
C63 O47 1.260 . S
C64 Tb0 2.833 . S
C64 O44 1.251 . S
C64 O49 1.256 . S
C64 C57 1.500 . S
C65 H30 0.929 . S
C65 C43 1.444 . S
C65 C66 1.317 . S
C66 H28 0.930 . S
C66 C34 1.432 . S
C66 C65 1.317 . S
C67 O51 1.283 . S
C67 O54 1.243 . S
C68 C69 1.382 . S
C68 C72 1.393 . S
C68 C75 1.500 . S
C69 C68 1.382 . S
C69 C70 1.400 . S
C69 H80 0.930 . S
C70 C69 1.400 . S
C70 C71 1.384 . S
C71 C70 1.384 . S
C71 C73 1.392 . S
C71 H81 0.931 . S
C72 C68 1.393 . S
C72 C73 1.401 . S
C72 H82 0.930 . S
C73 C71 1.392 . S
C73 C72 1.401 . S
C73 H83 0.930 . S
C74 O52 1.262 . S
C74 O53 1.260 . S
C75 Tb11 2.833 . S
C75 O50 1.251 . S
C75 O55 1.256 . S
C75 C68 1.500 . S
H76 C59 0.930 . S
H77 C60 0.931 . S
H78 C61 0.930 . S
H79 C62 0.930 . S
H80 C69 0.930 . S
H81 C71 0.931 . S
H82 C72 0.930 . S
H83 C73 0.930 . S
Tb84 N115 2.660 . S
Tb84 N122 2.600 . S
Tb84 O128 2.546 . S
Tb84 O129 2.610 . S
Tb84 O131 2.320 . S
Tb84 O132 2.552 . S
Tb84 O133 2.413 . S
Tb84 O135 2.362 . S
Tb84 O136 2.421 . S
Tb84 C148 2.833 . S
C85 C88 1.432 . S
C85 C89 1.414 . S
C85 N92 1.359 . S
C86 C88 1.417 . S
C86 C90 1.432 . S
C86 C98 1.410 . S
C87 C89 1.444 . S
C87 C90 1.317 . S
C87 H110 0.929 . S
C88 C85 1.432 . S
C88 C86 1.417 . S
C88 N96 1.360 . S
C89 C85 1.414 . S
C89 C87 1.444 . S
C89 C94 1.385 . S
C90 C86 1.432 . S
C90 C87 1.317 . S
C90 H102 0.930 . S
C91 C93 1.392 . S
C91 C94 1.370 . S
C91 H103 0.931 . S
N92 C85 1.359 . S
N92 C93 1.327 . S
N92 Tb95 2.600 . S
C93 C91 1.392 . S
C93 N92 1.327 . S
C93 H100 0.930 . S
C94 C89 1.385 . S
C94 C91 1.370 . S
C94 H113 0.930 . S
Tb95 N92 2.600 . S
Tb95 N96 2.660 . S
Tb95 O129 2.362 . S
Tb95 O130 2.421 . S
Tb95 O134 2.546 . S
Tb95 O135 2.610 . S
Tb95 O137 2.320 . S
Tb95 O138 2.552 . S
Tb95 O139 2.413 . S
Tb95 C159 2.833 . S
N96 C88 1.360 . S
N96 Tb95 2.660 . S
N96 C97 1.305 . S
C97 N96 1.305 . S
C97 C99 1.407 . S
C97 H104 0.930 . S
C98 C86 1.410 . S
C98 C99 1.345 . S
C98 H106 0.930 . S
C99 C97 1.407 . S
C99 C98 1.345 . S
C99 H101 0.930 . S
H100 C93 0.930 . S
H101 C99 0.930 . S
H102 C90 0.930 . S
H103 C91 0.931 . S
H104 C97 0.930 . S
H105 C119 0.930 . S
H106 C98 0.930 . S
H107 C125 0.930 . S
H108 C116 0.930 . S
H109 C123 0.931 . S
H110 C87 0.929 . S
H111 C117 0.930 . S
H112 C150 0.930 . S
H113 C94 0.930 . S
H114 C149 0.929 . S
N115 Tb84 2.660 . S
N115 C116 1.305 . S
N115 C120 1.360 . S
C116 H108 0.930 . S
C116 N115 1.305 . S
C116 C119 1.407 . S
C117 H111 0.930 . S
C117 C118 1.410 . S
C117 C119 1.345 . S
C118 C117 1.410 . S
C118 C120 1.417 . S
C118 C150 1.432 . S
C119 H105 0.930 . S
C119 C116 1.407 . S
C119 C117 1.345 . S
C120 N115 1.360 . S
C120 C118 1.417 . S
C120 C124 1.432 . S
H121 C126 0.930 . S
N122 Tb84 2.600 . S
N122 C124 1.359 . S
N122 C125 1.327 . S
C123 H109 0.931 . S
C123 C125 1.392 . S
C123 C126 1.370 . S
C124 C120 1.432 . S
C124 N122 1.359 . S
C124 C127 1.414 . S
C125 H107 0.930 . S
C125 N122 1.327 . S
C125 C123 1.392 . S
C126 H121 0.930 . S
C126 C123 1.370 . S
C126 C127 1.385 . S
C127 C124 1.414 . S
C127 C126 1.385 . S
C127 C149 1.444 . S
O128 Tb84 2.546 . S
O128 C148 1.251 . S
O129 Tb84 2.610 . S
O129 Tb95 2.362 . S
O129 C140 1.283 . S
O130 Tb95 2.421 . S
O130 C147 1.262 . S
O131 Tb84 2.320 . S
O131 C147 1.260 . S
O132 Tb84 2.552 . S
O132 C140 1.243 . S
O133 Tb84 2.413 . S
O133 C148 1.256 . S
O134 Tb95 2.546 . S
O134 C159 1.251 . S
O135 Tb84 2.362 . S
O135 Tb95 2.610 . S
O135 C151 1.283 . S
O136 Tb84 2.421 . S
O136 C158 1.262 . S
O137 Tb95 2.320 . S
O137 C158 1.260 . S
O138 Tb95 2.552 . S
O138 C151 1.243 . S
O139 Tb95 2.413 . S
O139 C159 1.256 . S
C140 O129 1.283 . S
C140 O132 1.243 . S
C141 C143 1.382 . S
C141 C145 1.393 . S
C141 C148 1.500 . S
C142 C143 1.400 . S
C142 C144 1.384 . S
C143 C141 1.382 . S
C143 C142 1.400 . S
C143 H160 0.930 . S
C144 C142 1.384 . S
C144 C146 1.392 . S
C144 H161 0.931 . S
C145 C141 1.393 . S
C145 C146 1.401 . S
C145 H162 0.930 . S
C146 C144 1.392 . S
C146 C145 1.401 . S
C146 H163 0.930 . S
C147 O130 1.262 . S
C147 O131 1.260 . S
C148 Tb84 2.833 . S
C148 O128 1.251 . S
C148 O133 1.256 . S
C148 C141 1.500 . S
C149 H114 0.929 . S
C149 C127 1.444 . S
C149 C150 1.317 . S
C150 H112 0.930 . S
C150 C118 1.432 . S
C150 C149 1.317 . S
C151 O135 1.283 . S
C151 O138 1.243 . S
C152 C153 1.382 . S
C152 C156 1.393 . S
C152 C159 1.500 . S
C153 C152 1.382 . S
C153 C154 1.400 . S
C153 H164 0.930 . S
C154 C153 1.400 . S
C154 C155 1.384 . S
C155 C154 1.384 . S
C155 C157 1.392 . S
C155 H165 0.931 . S
C156 C152 1.393 . S
C156 C157 1.401 . S
C156 H166 0.930 . S
C157 C155 1.392 . S
C157 C156 1.401 . S
C157 H167 0.930 . S
C158 O136 1.262 . S
C158 O137 1.260 . S
C159 Tb95 2.833 . S
C159 O134 1.251 . S
C159 O139 1.256 . S
C159 C152 1.500 . S
H160 C143 0.930 . S
H161 C144 0.931 . S
H162 C145 0.930 . S
H163 C146 0.930 . S
H164 C153 0.930 . S
H165 C155 0.931 . S
H166 C156 0.930 . S
H167 C157 0.930 . S
Tb168 N199 2.660 . S
Tb168 N206 2.600 . S
Tb168 O212 2.546 . S
Tb168 O213 2.610 . S
Tb168 O215 2.320 . S
Tb168 O216 2.552 . S
Tb168 O217 2.413 . S
Tb168 O219 2.362 . S
Tb168 O220 2.421 . S
Tb168 C232 2.833 1_556 S
C169 C172 1.432 . S
C169 C173 1.414 . S
C169 N176 1.359 . S
C170 C172 1.417 . S
C170 C174 1.432 . S
C170 C182 1.410 . S
C171 C173 1.444 . S
C171 C174 1.317 . S
C171 H194 0.929 . S
C172 C169 1.432 . S
C172 C170 1.417 . S
C172 N180 1.360 . S
C173 C169 1.414 . S
C173 C171 1.444 . S
C173 C178 1.385 . S
C174 C170 1.432 . S
C174 C171 1.317 . S
C174 H186 0.930 . S
C175 C177 1.392 . S
C175 C178 1.370 . S
C175 H187 0.931 . S
N176 C169 1.359 . S
N176 C177 1.327 . S
N176 Tb179 2.600 . S
C177 C175 1.392 . S
C177 N176 1.327 . S
C177 H184 0.930 . S
C178 C173 1.385 . S
C178 C175 1.370 . S
C178 H197 0.930 . S
Tb179 N176 2.600 . S
Tb179 N180 2.660 . S
Tb179 O213 2.362 . S
Tb179 O214 2.421 . S
Tb179 O218 2.546 . S
Tb179 O219 2.610 . S
Tb179 O221 2.320 . S
Tb179 O222 2.552 . S
Tb179 O223 2.413 . S
Tb179 C243 2.833 . S
N180 C172 1.360 . S
N180 Tb179 2.660 . S
N180 C181 1.305 . S
C181 N180 1.305 . S
C181 C183 1.407 . S
C181 H188 0.930 . S
C182 C170 1.410 . S
C182 C183 1.345 . S
C182 H190 0.930 . S
C183 C181 1.407 . S
C183 C182 1.345 . S
C183 H185 0.930 . S
H184 C177 0.930 . S
H185 C183 0.930 . S
H186 C174 0.930 . S
H187 C175 0.931 . S
H188 C181 0.930 . S
H189 C203 0.930 . S
H190 C182 0.930 . S
H191 C209 0.930 . S
H192 C200 0.930 . S
H193 C207 0.931 . S
H194 C171 0.929 . S
H195 C201 0.930 . S
H196 C234 0.930 . S
H197 C178 0.930 . S
H198 C233 0.929 . S
N199 Tb168 2.660 . S
N199 C200 1.305 . S
N199 C204 1.360 . S
C200 H192 0.930 . S
C200 N199 1.305 . S
C200 C203 1.407 . S
C201 H195 0.930 . S
C201 C202 1.410 . S
C201 C203 1.345 . S
C202 C201 1.410 . S
C202 C204 1.417 . S
C202 C234 1.432 . S
C203 H189 0.930 . S
C203 C200 1.407 . S
C203 C201 1.345 . S
C204 N199 1.360 . S
C204 C202 1.417 . S
C204 C208 1.432 . S
H205 C210 0.930 . S
N206 Tb168 2.600 . S
N206 C208 1.359 . S
N206 C209 1.327 . S
C207 H193 0.931 . S
C207 C209 1.392 . S
C207 C210 1.370 . S
C208 C204 1.432 . S
C208 N206 1.359 . S
C208 C211 1.414 . S
C209 H191 0.930 . S
C209 N206 1.327 . S
C209 C207 1.392 . S
C210 H205 0.930 . S
C210 C207 1.370 . S
C210 C211 1.385 . S
C211 C208 1.414 . S
C211 C210 1.385 . S
C211 C233 1.444 . S
O212 Tb168 2.546 . S
O212 C232 1.251 1_556 S
O213 Tb168 2.610 . S
O213 Tb179 2.362 . S
O213 C224 1.283 . S
O214 Tb179 2.421 . S
O214 C231 1.262 . S
O215 Tb168 2.320 . S
O215 C231 1.260 . S
O216 Tb168 2.552 . S
O216 C224 1.243 . S
O217 Tb168 2.413 . S
O217 C232 1.256 1_556 S
O218 Tb179 2.546 . S
O218 C243 1.251 . S
O219 Tb168 2.362 . S
O219 Tb179 2.610 . S
O219 C235 1.283 . S
O220 Tb168 2.421 . S
O220 C242 1.262 . S
O221 Tb179 2.320 . S
O221 C242 1.260 . S
O222 Tb179 2.552 . S
O222 C235 1.243 . S
O223 Tb179 2.413 . S
O223 C243 1.256 . S
C224 O213 1.283 . S
C224 O216 1.243 . S
C225 C227 1.382 . S
C225 C229 1.393 . S
C225 C232 1.500 . S
C226 C227 1.400 . S
C226 C228 1.384 . S
C227 C225 1.382 . S
C227 C226 1.400 . S
C227 H244 0.930 . S
C228 C226 1.384 . S
C228 C230 1.392 . S
C228 H245 0.931 . S
C229 C225 1.393 . S
C229 C230 1.401 . S
C229 H246 0.930 . S
C230 C228 1.392 . S
C230 C229 1.401 . S
C230 H247 0.930 . S
C231 O214 1.262 . S
C231 O215 1.260 . S
C232 Tb168 2.833 1_554 S
C232 O212 1.251 1_554 S
C232 O217 1.256 1_554 S
C232 C225 1.500 . S
C233 H198 0.929 . S
C233 C211 1.444 . S
C233 C234 1.317 . S
C234 H196 0.930 . S
C234 C202 1.432 . S
C234 C233 1.317 . S
C235 O219 1.283 . S
C235 O222 1.243 . S
C236 C237 1.382 . S
C236 C240 1.393 . S
C236 C243 1.500 . S
C237 C236 1.382 . S
C237 C238 1.400 . S
C237 H248 0.930 . S
C238 C237 1.400 . S
C238 C239 1.384 . S
C239 C238 1.384 . S
C239 C241 1.392 . S
C239 H249 0.931 . S
C240 C236 1.393 . S
C240 C241 1.401 . S
C240 H250 0.930 . S
C241 C239 1.392 . S
C241 C240 1.401 . S
C241 H251 0.930 . S
C242 O220 1.262 . S
C242 O221 1.260 . S
C243 Tb179 2.833 . S
C243 O218 1.251 . S
C243 O223 1.256 . S
C243 C236 1.500 . S
H244 C227 0.930 . S
H245 C228 0.931 . S
H246 C229 0.930 . S
H247 C230 0.930 . S
H248 C237 0.930 . S
H249 C239 0.931 . S
H250 C240 0.930 . S
H251 C241 0.930 . S
Tb252 N283 2.660 . S
Tb252 N290 2.600 . S
Tb252 O296 2.546 . S
Tb252 O297 2.610 . S
Tb252 O299 2.320 . S
Tb252 O300 2.552 . S
Tb252 O301 2.413 . S
Tb252 O303 2.362 . S
Tb252 O304 2.421 . S
Tb252 C316 2.833 . S
C253 C256 1.432 . S
C253 C257 1.414 . S
C253 N260 1.359 . S
C254 C256 1.417 . S
C254 C258 1.432 . S
C254 C266 1.410 . S
C255 C257 1.444 . S
C255 C258 1.317 . S
C255 H278 0.929 . S
C256 C253 1.432 . S
C256 C254 1.417 . S
C256 N264 1.360 . S
C257 C253 1.414 . S
C257 C255 1.444 . S
C257 C262 1.385 . S
C258 C254 1.432 . S
C258 C255 1.317 . S
C258 H270 0.930 . S
C259 C261 1.392 . S
C259 C262 1.370 . S
C259 H271 0.931 . S
N260 C253 1.359 . S
N260 C261 1.327 . S
N260 Tb263 2.600 . S
C261 C259 1.392 . S
C261 N260 1.327 . S
C261 H268 0.930 . S
C262 C257 1.385 . S
C262 C259 1.370 . S
C262 H281 0.930 . S
Tb263 N260 2.600 . S
Tb263 N264 2.660 . S
Tb263 O297 2.362 . S
Tb263 O298 2.421 . S
Tb263 O302 2.546 . S
Tb263 O303 2.610 . S
Tb263 O305 2.320 . S
Tb263 O306 2.552 . S
Tb263 O307 2.413 . S
Tb263 C327 2.833 . S
N264 C256 1.360 . S
N264 Tb263 2.660 . S
N264 C265 1.305 . S
C265 N264 1.305 . S
C265 C267 1.407 . S
C265 H272 0.930 . S
C266 C254 1.410 . S
C266 C267 1.345 . S
C266 H274 0.930 . S
C267 C265 1.407 . S
C267 C266 1.345 . S
C267 H269 0.930 . S
H268 C261 0.930 . S
H269 C267 0.930 . S
H270 C258 0.930 . S
H271 C259 0.931 . S
H272 C265 0.930 . S
H273 C287 0.930 . S
H274 C266 0.930 . S
H275 C293 0.930 . S
H276 C284 0.930 . S
H277 C291 0.931 . S
H278 C255 0.929 . S
H279 C285 0.930 . S
H280 C318 0.930 . S
H281 C262 0.930 . S
H282 C317 0.929 . S
N283 Tb252 2.660 . S
N283 C284 1.305 . S
N283 C288 1.360 . S
C284 H276 0.930 . S
C284 N283 1.305 . S
C284 C287 1.407 . S
C285 H279 0.930 . S
C285 C286 1.410 . S
C285 C287 1.345 . S
C286 C285 1.410 . S
C286 C288 1.417 . S
C286 C318 1.432 . S
C287 H273 0.930 . S
C287 C284 1.407 . S
C287 C285 1.345 . S
C288 N283 1.360 . S
C288 C286 1.417 . S
C288 C292 1.432 . S
H289 C294 0.930 . S
N290 Tb252 2.600 . S
N290 C292 1.359 . S
N290 C293 1.327 . S
C291 H277 0.931 . S
C291 C293 1.392 . S
C291 C294 1.370 . S
C292 C288 1.432 . S
C292 N290 1.359 . S
C292 C295 1.414 . S
C293 H275 0.930 . S
C293 N290 1.327 . S
C293 C291 1.392 . S
C294 H289 0.930 . S
C294 C291 1.370 . S
C294 C295 1.385 . S
C295 C292 1.414 . S
C295 C294 1.385 . S
C295 C317 1.444 . S
O296 Tb252 2.546 . S
O296 C316 1.251 . S
O297 Tb252 2.610 . S
O297 Tb263 2.362 . S
O297 C308 1.283 . S
O298 Tb263 2.421 . S
O298 C315 1.262 . S
O299 Tb252 2.320 . S
O299 C315 1.260 . S
O300 Tb252 2.552 . S
O300 C308 1.243 . S
O301 Tb252 2.413 . S
O301 C316 1.256 . S
O302 Tb263 2.546 . S
O302 C327 1.251 . S
O303 Tb252 2.362 . S
O303 Tb263 2.610 . S
O303 C319 1.283 . S
O304 Tb252 2.421 . S
O304 C326 1.262 . S
O305 Tb263 2.320 . S
O305 C326 1.260 . S
O306 Tb263 2.552 . S
O306 C319 1.243 . S
O307 Tb263 2.413 . S
O307 C327 1.256 . S
C308 O297 1.283 . S
C308 O300 1.243 . S
C309 C311 1.382 . S
C309 C313 1.393 . S
C309 C316 1.500 . S
C310 C311 1.400 . S
C310 C312 1.384 . S
C311 C309 1.382 . S
C311 C310 1.400 . S
C311 H328 0.930 . S
C312 C310 1.384 . S
C312 C314 1.392 . S
C312 H329 0.931 . S
C313 C309 1.393 . S
C313 C314 1.401 . S
C313 H330 0.930 . S
C314 C312 1.392 . S
C314 C313 1.401 . S
C314 H331 0.930 . S
C315 O298 1.262 . S
C315 O299 1.260 . S
C316 Tb252 2.833 . S
C316 O296 1.251 . S
C316 O301 1.256 . S
C316 C309 1.500 . S
C317 H282 0.929 . S
C317 C295 1.444 . S
C317 C318 1.317 . S
C318 H280 0.930 . S
C318 C286 1.432 . S
C318 C317 1.317 . S
C319 O303 1.283 . S
C319 O306 1.243 . S
C320 C321 1.382 . S
C320 C324 1.393 . S
C320 C327 1.500 . S
C321 C320 1.382 . S
C321 C322 1.400 . S
C321 H332 0.930 . S
C322 C321 1.400 . S
C322 C323 1.384 . S
C323 C322 1.384 . S
C323 C325 1.392 . S
C323 H333 0.931 . S
C324 C320 1.393 . S
C324 C325 1.401 . S
C324 H334 0.930 . S
C325 C323 1.392 . S
C325 C324 1.401 . S
C325 H335 0.930 . S
C326 O304 1.262 . S
C326 O305 1.260 . S
C327 Tb263 2.833 . S
C327 O302 1.251 . S
C327 O307 1.256 . S
C327 C320 1.500 . S
H328 C311 0.930 . S
H329 C312 0.931 . S
H330 C313 0.930 . S
H331 C314 0.930 . S
H332 C321 0.930 . S
H333 C323 0.931 . S
H334 C324 0.930 . S
H335 C325 0.930 . S
Tb336 N367 2.660 . S
Tb336 N374 2.600 . S
Tb336 O380 2.546 . S
Tb336 O381 2.610 . S
Tb336 O383 2.320 . S
Tb336 O384 2.552 . S
Tb336 O385 2.413 . S
Tb336 O387 2.362 . S
Tb336 O388 2.421 . S
Tb336 C400 2.833 . S
C337 C340 1.432 . S
C337 C341 1.414 . S
C337 N344 1.359 . S
C338 C340 1.417 . S
C338 C342 1.432 . S
C338 C350 1.410 . S
C339 C341 1.444 . S
C339 C342 1.317 . S
C339 H362 0.929 . S
C340 C337 1.432 . S
C340 C338 1.417 . S
C340 N348 1.360 . S
C341 C337 1.414 . S
C341 C339 1.444 . S
C341 C346 1.385 . S
C342 C338 1.432 . S
C342 C339 1.317 . S
C342 H354 0.930 . S
C343 C345 1.392 . S
C343 C346 1.370 . S
C343 H355 0.931 . S
N344 C337 1.359 . S
N344 C345 1.327 . S
N344 Tb347 2.600 . S
C345 C343 1.392 . S
C345 N344 1.327 . S
C345 H352 0.930 . S
C346 C341 1.385 . S
C346 C343 1.370 . S
C346 H365 0.930 . S
Tb347 N344 2.600 . S
Tb347 N348 2.660 . S
Tb347 O381 2.362 . S
Tb347 O382 2.421 . S
Tb347 O386 2.546 . S
Tb347 O387 2.610 . S
Tb347 O389 2.320 . S
Tb347 O390 2.552 . S
Tb347 O391 2.413 . S
Tb347 C411 2.833 . S
N348 C340 1.360 . S
N348 Tb347 2.660 . S
N348 C349 1.305 . S
C349 N348 1.305 . S
C349 C351 1.407 . S
C349 H356 0.930 . S
C350 C338 1.410 . S
C350 C351 1.345 . S
C350 H358 0.930 . S
C351 C349 1.407 . S
C351 C350 1.345 . S
C351 H353 0.930 . S
H352 C345 0.930 . S
H353 C351 0.930 . S
H354 C342 0.930 . S
H355 C343 0.931 . S
H356 C349 0.930 . S
H357 C371 0.930 . S
H358 C350 0.930 . S
H359 C377 0.930 . S
H360 C368 0.930 . S
H361 C375 0.931 . S
H362 C339 0.929 . S
H363 C369 0.930 . S
H364 C402 0.930 . S
H365 C346 0.930 . S
H366 C401 0.929 . S
N367 Tb336 2.660 . S
N367 C368 1.305 . S
N367 C372 1.360 . S
C368 H360 0.930 . S
C368 N367 1.305 . S
C368 C371 1.407 . S
C369 H363 0.930 . S
C369 C370 1.410 . S
C369 C371 1.345 . S
C370 C369 1.410 . S
C370 C372 1.417 . S
C370 C402 1.432 . S
C371 H357 0.930 . S
C371 C368 1.407 . S
C371 C369 1.345 . S
C372 N367 1.360 . S
C372 C370 1.417 . S
C372 C376 1.432 . S
H373 C378 0.930 . S
N374 Tb336 2.600 . S
N374 C376 1.359 . S
N374 C377 1.327 . S
C375 H361 0.931 . S
C375 C377 1.392 . S
C375 C378 1.370 . S
C376 C372 1.432 . S
C376 N374 1.359 . S
C376 C379 1.414 . S
C377 H359 0.930 . S
C377 N374 1.327 . S
C377 C375 1.392 . S
C378 H373 0.930 . S
C378 C375 1.370 . S
C378 C379 1.385 . S
C379 C376 1.414 . S
C379 C378 1.385 . S
C379 C401 1.444 . S
O380 Tb336 2.546 . S
O380 C400 1.251 . S
O381 Tb336 2.610 . S
O381 Tb347 2.362 . S
O381 C392 1.283 . S
O382 Tb347 2.421 . S
O382 C399 1.262 . S
O383 Tb336 2.320 . S
O383 C399 1.260 . S
O384 Tb336 2.552 . S
O384 C392 1.243 . S
O385 Tb336 2.413 . S
O385 C400 1.256 . S
O386 Tb347 2.546 . S
O386 C411 1.251 . S
O387 Tb336 2.362 . S
O387 Tb347 2.610 . S
O387 C403 1.283 . S
O388 Tb336 2.421 . S
O388 C410 1.262 . S
O389 Tb347 2.320 . S
O389 C410 1.260 . S
O390 Tb347 2.552 . S
O390 C403 1.243 . S
O391 Tb347 2.413 . S
O391 C411 1.256 . S
C392 O381 1.283 . S
C392 O384 1.243 . S
C393 C395 1.382 . S
C393 C397 1.393 . S
C393 C400 1.500 . S
C394 C395 1.400 . S
C394 C396 1.384 . S
C395 C393 1.382 . S
C395 C394 1.400 . S
C395 H412 0.930 . S
C396 C394 1.384 . S
C396 C398 1.392 . S
C396 H413 0.931 . S
C397 C393 1.393 . S
C397 C398 1.401 . S
C397 H414 0.930 . S
C398 C396 1.392 . S
C398 C397 1.401 . S
C398 H415 0.930 . S
C399 O382 1.262 . S
C399 O383 1.260 . S
C400 Tb336 2.833 . S
C400 O380 1.251 . S
C400 O385 1.256 . S
C400 C393 1.500 . S
C401 H366 0.929 . S
C401 C379 1.444 . S
C401 C402 1.317 . S
C402 H364 0.930 . S
C402 C370 1.432 . S
C402 C401 1.317 . S
C403 O387 1.283 . S
C403 O390 1.243 . S
C404 C405 1.382 . S
C404 C408 1.393 . S
C404 C411 1.500 . S
C405 C404 1.382 . S
C405 C406 1.400 . S
C405 H416 0.930 . S
C406 C405 1.400 . S
C406 C407 1.384 . S
C407 C406 1.384 . S
C407 C409 1.392 . S
C407 H417 0.931 . S
C408 C404 1.393 . S
C408 C409 1.401 . S
C408 H418 0.930 . S
C409 C407 1.392 . S
C409 C408 1.401 . S
C409 H419 0.930 . S
C410 O388 1.262 . S
C410 O389 1.260 . S
C411 Tb347 2.833 . S
C411 O386 1.251 . S
C411 O391 1.256 . S
C411 C404 1.500 . S
H412 C395 0.930 . S
H413 C396 0.931 . S
H414 C397 0.930 . S
H415 C398 0.930 . S
H416 C405 0.930 . S
H417 C407 0.931 . S
H418 C408 0.930 . S
H419 C409 0.930 . S
Tb420 N451 2.660 . S
Tb420 N458 2.600 . S
Tb420 O464 2.546 . S
Tb420 O465 2.610 . S
Tb420 O467 2.320 . S
Tb420 O468 2.552 . S
Tb420 O469 2.413 . S
Tb420 O471 2.362 . S
Tb420 O472 2.421 . S
Tb420 C484 2.833 1_556 S
C421 C424 1.432 . S
C421 C425 1.414 . S
C421 N428 1.359 . S
C422 C424 1.417 . S
C422 C426 1.432 . S
C422 C434 1.410 . S
C423 C425 1.444 . S
C423 C426 1.317 . S
C423 H446 0.929 . S
C424 C421 1.432 . S
C424 C422 1.417 . S
C424 N432 1.360 . S
C425 C421 1.414 . S
C425 C423 1.444 . S
C425 C430 1.385 . S
C426 C422 1.432 . S
C426 C423 1.317 . S
C426 H438 0.930 . S
C427 C429 1.392 . S
C427 C430 1.370 . S
C427 H439 0.931 . S
N428 C421 1.359 . S
N428 C429 1.327 . S
N428 Tb431 2.600 . S
C429 C427 1.392 . S
C429 N428 1.327 . S
C429 H436 0.930 . S
C430 C425 1.385 . S
C430 C427 1.370 . S
C430 H449 0.930 . S
Tb431 N428 2.600 . S
Tb431 N432 2.660 . S
Tb431 O465 2.362 . S
Tb431 O466 2.421 . S
Tb431 O470 2.546 . S
Tb431 O471 2.610 . S
Tb431 O473 2.320 . S
Tb431 O474 2.552 . S
Tb431 O475 2.413 . S
Tb431 C495 2.833 . S
N432 C424 1.360 . S
N432 Tb431 2.660 . S
N432 C433 1.305 . S
C433 N432 1.305 . S
C433 C435 1.407 . S
C433 H440 0.930 . S
C434 C422 1.410 . S
C434 C435 1.345 . S
C434 H442 0.930 . S
C435 C433 1.407 . S
C435 C434 1.345 . S
C435 H437 0.930 . S
H436 C429 0.930 . S
H437 C435 0.930 . S
H438 C426 0.930 . S
H439 C427 0.931 . S
H440 C433 0.930 . S
H441 C455 0.930 . S
H442 C434 0.930 . S
H443 C461 0.930 . S
H444 C452 0.930 . S
H445 C459 0.931 . S
H446 C423 0.929 . S
H447 C453 0.930 . S
H448 C486 0.930 . S
H449 C430 0.930 . S
H450 C485 0.929 . S
N451 Tb420 2.660 . S
N451 C452 1.305 . S
N451 C456 1.360 . S
C452 H444 0.930 . S
C452 N451 1.305 . S
C452 C455 1.407 . S
C453 H447 0.930 . S
C453 C454 1.410 . S
C453 C455 1.345 . S
C454 C453 1.410 . S
C454 C456 1.417 . S
C454 C486 1.432 . S
C455 H441 0.930 . S
C455 C452 1.407 . S
C455 C453 1.345 . S
C456 N451 1.360 . S
C456 C454 1.417 . S
C456 C460 1.432 . S
H457 C462 0.930 . S
N458 Tb420 2.600 . S
N458 C460 1.359 . S
N458 C461 1.327 . S
C459 H445 0.931 . S
C459 C461 1.392 . S
C459 C462 1.370 . S
C460 C456 1.432 . S
C460 N458 1.359 . S
C460 C463 1.414 . S
C461 H443 0.930 . S
C461 N458 1.327 . S
C461 C459 1.392 . S
C462 H457 0.930 . S
C462 C459 1.370 . S
C462 C463 1.385 . S
C463 C460 1.414 . S
C463 C462 1.385 . S
C463 C485 1.444 . S
O464 Tb420 2.546 . S
O464 C484 1.251 1_556 S
O465 Tb420 2.610 . S
O465 Tb431 2.362 . S
O465 C476 1.283 . S
O466 Tb431 2.421 . S
O466 C483 1.262 . S
O467 Tb420 2.320 . S
O467 C483 1.260 . S
O468 Tb420 2.552 . S
O468 C476 1.243 . S
O469 Tb420 2.413 . S
O469 C484 1.256 1_556 S
O470 Tb431 2.546 . S
O470 C495 1.251 . S
O471 Tb420 2.362 . S
O471 Tb431 2.610 . S
O471 C487 1.283 . S
O472 Tb420 2.421 . S
O472 C494 1.262 . S
O473 Tb431 2.320 . S
O473 C494 1.260 . S
O474 Tb431 2.552 . S
O474 C487 1.243 . S
O475 Tb431 2.413 . S
O475 C495 1.256 . S
C476 O465 1.283 . S
C476 O468 1.243 . S
C477 C479 1.382 . S
C477 C481 1.393 . S
C477 C484 1.500 . S
C478 C479 1.400 . S
C478 C480 1.384 . S
C479 C477 1.382 . S
C479 C478 1.400 . S
C479 H496 0.930 . S
C480 C478 1.384 . S
C480 C482 1.392 . S
C480 H497 0.931 . S
C481 C477 1.393 . S
C481 C482 1.401 . S
C481 H498 0.930 . S
C482 C480 1.392 . S
C482 C481 1.401 . S
C482 H499 0.930 . S
C483 O466 1.262 . S
C483 O467 1.260 . S
C484 Tb420 2.833 1_554 S
C484 O464 1.251 1_554 S
C484 O469 1.256 1_554 S
C484 C477 1.500 . S
C485 H450 0.929 . S
C485 C463 1.444 . S
C485 C486 1.317 . S
C486 H448 0.930 . S
C486 C454 1.432 . S
C486 C485 1.317 . S
C487 O471 1.283 . S
C487 O474 1.243 . S
C488 C489 1.382 . S
C488 C492 1.393 . S
C488 C495 1.500 . S
C489 C488 1.382 . S
C489 C490 1.400 . S
C489 H500 0.930 . S
C490 C489 1.400 . S
C490 C491 1.384 . S
C491 C490 1.384 . S
C491 C493 1.392 . S
C491 H501 0.931 . S
C492 C488 1.393 . S
C492 C493 1.401 . S
C492 H502 0.930 . S
C493 C491 1.392 . S
C493 C492 1.401 . S
C493 H503 0.930 . S
C494 O472 1.262 . S
C494 O473 1.260 . S
C495 Tb431 2.833 . S
C495 O470 1.251 . S
C495 O475 1.256 . S
C495 C488 1.500 . S
H496 C479 0.930 . S
H497 C480 0.931 . S
H498 C481 0.930 . S
H499 C482 0.930 . S
H500 C489 0.930 . S
H501 C491 0.931 . S
H502 C492 0.930 . S
H503 C493 0.930 . S
Tb504 N535 2.660 . S
Tb504 N542 2.600 . S
Tb504 O548 2.546 . S
Tb504 O549 2.610 . S
Tb504 O551 2.320 . S
Tb504 O552 2.552 . S
Tb504 O553 2.413 . S
Tb504 O555 2.362 . S
Tb504 O556 2.421 . S
Tb504 C568 2.833 . S
C505 C508 1.432 . S
C505 C509 1.414 . S
C505 N512 1.359 . S
C506 C508 1.417 . S
C506 C510 1.432 . S
C506 C518 1.410 . S
C507 C509 1.444 . S
C507 C510 1.317 . S
C507 H530 0.929 . S
C508 C505 1.432 . S
C508 C506 1.417 . S
C508 N516 1.360 . S
C509 C505 1.414 . S
C509 C507 1.444 . S
C509 C514 1.385 . S
C510 C506 1.432 . S
C510 C507 1.317 . S
C510 H522 0.930 . S
C511 C513 1.392 . S
C511 C514 1.370 . S
C511 H523 0.931 . S
N512 C505 1.359 . S
N512 C513 1.327 . S
N512 Tb515 2.600 . S
C513 C511 1.392 . S
C513 N512 1.327 . S
C513 H520 0.930 . S
C514 C509 1.385 . S
C514 C511 1.370 . S
C514 H533 0.930 . S
Tb515 N512 2.600 . S
Tb515 N516 2.660 . S
Tb515 O549 2.362 . S
Tb515 O550 2.421 . S
Tb515 O554 2.546 . S
Tb515 O555 2.610 . S
Tb515 O557 2.320 . S
Tb515 O558 2.552 . S
Tb515 O559 2.413 . S
Tb515 C579 2.833 . S
N516 C508 1.360 . S
N516 Tb515 2.660 . S
N516 C517 1.305 . S
C517 N516 1.305 . S
C517 C519 1.407 . S
C517 H524 0.930 . S
C518 C506 1.410 . S
C518 C519 1.345 . S
C518 H526 0.930 . S
C519 C517 1.407 . S
C519 C518 1.345 . S
C519 H521 0.930 . S
H520 C513 0.930 . S
H521 C519 0.930 . S
H522 C510 0.930 . S
H523 C511 0.931 . S
H524 C517 0.930 . S
H525 C539 0.930 . S
H526 C518 0.930 . S
H527 C545 0.930 . S
H528 C536 0.930 . S
H529 C543 0.931 . S
H530 C507 0.929 . S
H531 C537 0.930 . S
H532 C570 0.930 . S
H533 C514 0.930 . S
H534 C569 0.929 . S
N535 Tb504 2.660 . S
N535 C536 1.305 . S
N535 C540 1.360 . S
C536 H528 0.930 . S
C536 N535 1.305 . S
C536 C539 1.407 . S
C537 H531 0.930 . S
C537 C538 1.410 . S
C537 C539 1.345 . S
C538 C537 1.410 . S
C538 C540 1.417 . S
C538 C570 1.432 . S
C539 H525 0.930 . S
C539 C536 1.407 . S
C539 C537 1.345 . S
C540 N535 1.360 . S
C540 C538 1.417 . S
C540 C544 1.432 . S
H541 C546 0.930 . S
N542 Tb504 2.600 . S
N542 C544 1.359 . S
N542 C545 1.327 . S
C543 H529 0.931 . S
C543 C545 1.392 . S
C543 C546 1.370 . S
C544 C540 1.432 . S
C544 N542 1.359 . S
C544 C547 1.414 . S
C545 H527 0.930 . S
C545 N542 1.327 . S
C545 C543 1.392 . S
C546 H541 0.930 . S
C546 C543 1.370 . S
C546 C547 1.385 . S
C547 C544 1.414 . S
C547 C546 1.385 . S
C547 C569 1.444 . S
O548 Tb504 2.546 . S
O548 C568 1.251 . S
O549 Tb504 2.610 . S
O549 Tb515 2.362 . S
O549 C560 1.283 . S
O550 Tb515 2.421 . S
O550 C567 1.262 . S
O551 Tb504 2.320 . S
O551 C567 1.260 . S
O552 Tb504 2.552 . S
O552 C560 1.243 . S
O553 Tb504 2.413 . S
O553 C568 1.256 . S
O554 Tb515 2.546 . S
O554 C579 1.251 . S
O555 Tb504 2.362 . S
O555 Tb515 2.610 . S
O555 C571 1.283 . S
O556 Tb504 2.421 . S
O556 C578 1.262 . S
O557 Tb515 2.320 . S
O557 C578 1.260 . S
O558 Tb515 2.552 . S
O558 C571 1.243 . S
O559 Tb515 2.413 . S
O559 C579 1.256 . S
C560 O549 1.283 . S
C560 O552 1.243 . S
C561 C563 1.382 . S
C561 C565 1.393 . S
C561 C568 1.500 . S
C562 C563 1.400 . S
C562 C564 1.384 . S
C563 C561 1.382 . S
C563 C562 1.400 . S
C563 H580 0.930 . S
C564 C562 1.384 . S
C564 C566 1.392 . S
C564 H581 0.931 . S
C565 C561 1.393 . S
C565 C566 1.401 . S
C565 H582 0.930 . S
C566 C564 1.392 . S
C566 C565 1.401 . S
C566 H583 0.930 . S
C567 O550 1.262 . S
C567 O551 1.260 . S
C568 Tb504 2.833 . S
C568 O548 1.251 . S
C568 O553 1.256 . S
C568 C561 1.500 . S
C569 H534 0.929 . S
C569 C547 1.444 . S
C569 C570 1.317 . S
C570 H532 0.930 . S
C570 C538 1.432 . S
C570 C569 1.317 . S
C571 O555 1.283 . S
C571 O558 1.243 . S
C572 C573 1.382 . S
C572 C576 1.393 . S
C572 C579 1.500 . S
C573 C572 1.382 . S
C573 C574 1.400 . S
C573 H584 0.930 . S
C574 C573 1.400 . S
C574 C575 1.384 . S
C575 C574 1.384 . S
C575 C577 1.392 . S
C575 H585 0.931 . S
C576 C572 1.393 . S
C576 C577 1.401 . S
C576 H586 0.930 . S
C577 C575 1.392 . S
C577 C576 1.401 . S
C577 H587 0.930 . S
C578 O556 1.262 . S
C578 O557 1.260 . S
C579 Tb515 2.833 . S
C579 O554 1.251 . S
C579 O559 1.256 . S
C579 C572 1.500 . S
H580 C563 0.930 . S
H581 C564 0.931 . S
H582 C565 0.930 . S
H583 C566 0.930 . S
H584 C573 0.930 . S
H585 C575 0.931 . S
H586 C576 0.930 . S
H587 C577 0.930 . S
Tb588 N619 2.660 . S
Tb588 N626 2.600 . S
Tb588 O632 2.546 . S
Tb588 O633 2.610 . S
Tb588 O635 2.320 . S
Tb588 O636 2.552 . S
Tb588 O637 2.413 . S
Tb588 O639 2.362 . S
Tb588 O640 2.421 . S
Tb588 C652 2.833 . S
C589 C592 1.432 . S
C589 C593 1.414 . S
C589 N596 1.359 . S
C590 C592 1.417 . S
C590 C594 1.432 . S
C590 C602 1.410 . S
C591 C593 1.444 . S
C591 C594 1.317 . S
C591 H614 0.929 . S
C592 C589 1.432 . S
C592 C590 1.417 . S
C592 N600 1.360 . S
C593 C589 1.414 . S
C593 C591 1.444 . S
C593 C598 1.385 . S
C594 C590 1.432 . S
C594 C591 1.317 . S
C594 H606 0.930 . S
C595 C597 1.392 . S
C595 C598 1.370 . S
C595 H607 0.931 . S
N596 C589 1.359 . S
N596 C597 1.327 . S
N596 Tb599 2.600 . S
C597 C595 1.392 . S
C597 N596 1.327 . S
C597 H604 0.930 . S
C598 C593 1.385 . S
C598 C595 1.370 . S
C598 H617 0.930 . S
Tb599 N596 2.600 . S
Tb599 N600 2.660 . S
Tb599 O633 2.362 . S
Tb599 O634 2.421 . S
Tb599 O638 2.546 . S
Tb599 O639 2.610 . S
Tb599 O641 2.320 . S
Tb599 O642 2.552 . S
Tb599 O643 2.413 . S
Tb599 C663 2.833 . S
N600 C592 1.360 . S
N600 Tb599 2.660 . S
N600 C601 1.305 . S
C601 N600 1.305 . S
C601 C603 1.407 . S
C601 H608 0.930 . S
C602 C590 1.410 . S
C602 C603 1.345 . S
C602 H610 0.930 . S
C603 C601 1.407 . S
C603 C602 1.345 . S
C603 H605 0.930 . S
H604 C597 0.930 . S
H605 C603 0.930 . S
H606 C594 0.930 . S
H607 C595 0.931 . S
H608 C601 0.930 . S
H609 C623 0.930 . S
H610 C602 0.930 . S
H611 C629 0.930 . S
H612 C620 0.930 . S
H613 C627 0.931 . S
H614 C591 0.929 . S
H615 C621 0.930 . S
H616 C654 0.930 . S
H617 C598 0.930 . S
H618 C653 0.929 . S
N619 Tb588 2.660 . S
N619 C620 1.305 . S
N619 C624 1.360 . S
C620 H612 0.930 . S
C620 N619 1.305 . S
C620 C623 1.407 . S
C621 H615 0.930 . S
C621 C622 1.410 . S
C621 C623 1.345 . S
C622 C621 1.410 . S
C622 C624 1.417 . S
C622 C654 1.432 . S
C623 H609 0.930 . S
C623 C620 1.407 . S
C623 C621 1.345 . S
C624 N619 1.360 . S
C624 C622 1.417 . S
C624 C628 1.432 . S
H625 C630 0.930 . S
N626 Tb588 2.600 . S
N626 C628 1.359 . S
N626 C629 1.327 . S
C627 H613 0.931 . S
C627 C629 1.392 . S
C627 C630 1.370 . S
C628 C624 1.432 . S
C628 N626 1.359 . S
C628 C631 1.414 . S
C629 H611 0.930 . S
C629 N626 1.327 . S
C629 C627 1.392 . S
C630 H625 0.930 . S
C630 C627 1.370 . S
C630 C631 1.385 . S
C631 C628 1.414 . S
C631 C630 1.385 . S
C631 C653 1.444 . S
O632 Tb588 2.546 . S
O632 C652 1.251 . S
O633 Tb588 2.610 . S
O633 Tb599 2.362 . S
O633 C644 1.283 . S
O634 Tb599 2.421 . S
O634 C651 1.262 . S
O635 Tb588 2.320 . S
O635 C651 1.260 . S
O636 Tb588 2.552 . S
O636 C644 1.243 . S
O637 Tb588 2.413 . S
O637 C652 1.256 . S
O638 Tb599 2.546 . S
O638 C663 1.251 . S
O639 Tb588 2.362 . S
O639 Tb599 2.610 . S
O639 C655 1.283 . S
O640 Tb588 2.421 . S
O640 C662 1.262 . S
O641 Tb599 2.320 . S
O641 C662 1.260 . S
O642 Tb599 2.552 . S
O642 C655 1.243 . S
O643 Tb599 2.413 . S
O643 C663 1.256 . S
C644 O633 1.283 . S
C644 O636 1.243 . S
C645 C647 1.382 . S
C645 C649 1.393 . S
C645 C652 1.500 . S
C646 C647 1.400 . S
C646 C648 1.384 . S
C647 C645 1.382 . S
C647 C646 1.400 . S
C647 H664 0.930 . S
C648 C646 1.384 . S
C648 C650 1.392 . S
C648 H665 0.931 . S
C649 C645 1.393 . S
C649 C650 1.401 . S
C649 H666 0.930 . S
C650 C648 1.392 . S
C650 C649 1.401 . S
C650 H667 0.930 . S
C651 O634 1.262 . S
C651 O635 1.260 . S
C652 Tb588 2.833 . S
C652 O632 1.251 . S
C652 O637 1.256 . S
C652 C645 1.500 . S
C653 H618 0.929 . S
C653 C631 1.444 . S
C653 C654 1.317 . S
C654 H616 0.930 . S
C654 C622 1.432 . S
C654 C653 1.317 . S
C655 O639 1.283 . S
C655 O642 1.243 . S
C656 C657 1.382 . S
C656 C660 1.393 . S
C656 C663 1.500 . S
C657 C656 1.382 . S
C657 C658 1.400 . S
C657 H668 0.930 . S
C658 C657 1.400 . S
C658 C659 1.384 . S
C659 C658 1.384 . S
C659 C661 1.392 . S
C659 H669 0.931 . S
C660 C656 1.393 . S
C660 C661 1.401 . S
C660 H670 0.930 . S
C661 C659 1.392 . S
C661 C660 1.401 . S
C661 H671 0.930 . S
C662 O640 1.262 . S
C662 O641 1.260 . S
C663 Tb599 2.833 . S
C663 O638 1.251 . S
C663 O643 1.256 . S
C663 C656 1.500 . S
H664 C647 0.930 . S
H665 C648 0.931 . S
H666 C649 0.930 . S
H667 C650 0.930 . S
H668 C657 0.930 . S
H669 C659 0.931 . S
H670 C660 0.930 . S
H671 C661 0.930 . S
Tb672 N703 2.660 . S
Tb672 N710 2.600 . S
Tb672 O716 2.546 . S
Tb672 O717 2.610 . S
Tb672 O719 2.320 . S
Tb672 O720 2.552 . S
Tb672 O721 2.413 . S
Tb672 O723 2.362 . S
Tb672 O724 2.421 . S
Tb672 C736 2.833 1_554 S
C673 C676 1.432 . S
C673 C677 1.414 . S
C673 N680 1.359 . S
C674 C676 1.417 . S
C674 C678 1.432 . S
C674 C686 1.410 . S
C675 C677 1.444 . S
C675 C678 1.317 . S
C675 H698 0.929 . S
C676 C673 1.432 . S
C676 C674 1.417 . S
C676 N684 1.360 . S
C677 C673 1.414 . S
C677 C675 1.444 . S
C677 C682 1.385 . S
C678 C674 1.432 . S
C678 C675 1.317 . S
C678 H690 0.930 . S
C679 C681 1.392 . S
C679 C682 1.370 . S
C679 H691 0.931 . S
N680 C673 1.359 . S
N680 C681 1.327 . S
N680 Tb683 2.600 . S
C681 C679 1.392 . S
C681 N680 1.327 . S
C681 H688 0.930 . S
C682 C677 1.385 . S
C682 C679 1.370 . S
C682 H701 0.930 . S
Tb683 N680 2.600 . S
Tb683 N684 2.660 . S
Tb683 O717 2.362 . S
Tb683 O718 2.421 . S
Tb683 O722 2.546 . S
Tb683 O723 2.610 . S
Tb683 O725 2.320 . S
Tb683 O726 2.552 . S
Tb683 O727 2.413 . S
Tb683 C747 2.833 . S
N684 C676 1.360 . S
N684 Tb683 2.660 . S
N684 C685 1.305 . S
C685 N684 1.305 . S
C685 C687 1.407 . S
C685 H692 0.930 . S
C686 C674 1.410 . S
C686 C687 1.345 . S
C686 H694 0.930 . S
C687 C685 1.407 . S
C687 C686 1.345 . S
C687 H689 0.930 . S
H688 C681 0.930 . S
H689 C687 0.930 . S
H690 C678 0.930 . S
H691 C679 0.931 . S
H692 C685 0.930 . S
H693 C707 0.930 . S
H694 C686 0.930 . S
H695 C713 0.930 . S
H696 C704 0.930 . S
H697 C711 0.931 . S
H698 C675 0.929 . S
H699 C705 0.930 . S
H700 C738 0.930 . S
H701 C682 0.930 . S
H702 C737 0.929 . S
N703 Tb672 2.660 . S
N703 C704 1.305 . S
N703 C708 1.360 . S
C704 H696 0.930 . S
C704 N703 1.305 . S
C704 C707 1.407 . S
C705 H699 0.930 . S
C705 C706 1.410 . S
C705 C707 1.345 . S
C706 C705 1.410 . S
C706 C708 1.417 . S
C706 C738 1.432 . S
C707 H693 0.930 . S
C707 C704 1.407 . S
C707 C705 1.345 . S
C708 N703 1.360 . S
C708 C706 1.417 . S
C708 C712 1.432 . S
H709 C714 0.930 . S
N710 Tb672 2.600 . S
N710 C712 1.359 . S
N710 C713 1.327 . S
C711 H697 0.931 . S
C711 C713 1.392 . S
C711 C714 1.370 . S
C712 C708 1.432 . S
C712 N710 1.359 . S
C712 C715 1.414 . S
C713 H695 0.930 . S
C713 N710 1.327 . S
C713 C711 1.392 . S
C714 H709 0.930 . S
C714 C711 1.370 . S
C714 C715 1.385 . S
C715 C712 1.414 . S
C715 C714 1.385 . S
C715 C737 1.444 . S
O716 Tb672 2.546 . S
O716 C736 1.251 1_554 S
O717 Tb672 2.610 . S
O717 Tb683 2.362 . S
O717 C728 1.283 . S
O718 Tb683 2.421 . S
O718 C735 1.262 . S
O719 Tb672 2.320 . S
O719 C735 1.260 . S
O720 Tb672 2.552 . S
O720 C728 1.243 . S
O721 Tb672 2.413 . S
O721 C736 1.256 1_554 S
O722 Tb683 2.546 . S
O722 C747 1.251 . S
O723 Tb672 2.362 . S
O723 Tb683 2.610 . S
O723 C739 1.283 . S
O724 Tb672 2.421 . S
O724 C746 1.262 . S
O725 Tb683 2.320 . S
O725 C746 1.260 . S
O726 Tb683 2.552 . S
O726 C739 1.243 . S
O727 Tb683 2.413 . S
O727 C747 1.256 . S
C728 O717 1.283 . S
C728 O720 1.243 . S
C729 C731 1.382 . S
C729 C733 1.393 . S
C729 C736 1.500 . S
C730 C731 1.400 . S
C730 C732 1.384 . S
C731 C729 1.382 . S
C731 C730 1.400 . S
C731 H748 0.930 . S
C732 C730 1.384 . S
C732 C734 1.392 . S
C732 H749 0.931 . S
C733 C729 1.393 . S
C733 C734 1.401 . S
C733 H750 0.930 . S
C734 C732 1.392 . S
C734 C733 1.401 . S
C734 H751 0.930 . S
C735 O718 1.262 . S
C735 O719 1.260 . S
C736 Tb672 2.833 1_556 S
C736 O716 1.251 1_556 S
C736 O721 1.256 1_556 S
C736 C729 1.500 . S
C737 H702 0.929 . S
C737 C715 1.444 . S
C737 C738 1.317 . S
C738 H700 0.930 . S
C738 C706 1.432 . S
C738 C737 1.317 . S
C739 O723 1.283 . S
C739 O726 1.243 . S
C740 C741 1.382 . S
C740 C744 1.393 . S
C740 C747 1.500 . S
C741 C740 1.382 . S
C741 C742 1.400 . S
C741 H752 0.930 . S
C742 C741 1.400 . S
C742 C743 1.384 . S
C743 C742 1.384 . S
C743 C745 1.392 . S
C743 H753 0.931 . S
C744 C740 1.393 . S
C744 C745 1.401 . S
C744 H754 0.930 . S
C745 C743 1.392 . S
C745 C744 1.401 . S
C745 H755 0.930 . S
C746 O724 1.262 . S
C746 O725 1.260 . S
C747 Tb683 2.833 . S
C747 O722 1.251 . S
C747 O727 1.256 . S
C747 C740 1.500 . S
H748 C731 0.930 . S
H749 C732 0.931 . S
H750 C733 0.930 . S
H751 C734 0.930 . S
H752 C741 0.930 . S
H753 C743 0.931 . S
H754 C744 0.930 . S
H755 C745 0.930 . S
Tb756 N787 2.660 . S
Tb756 N794 2.600 . S
Tb756 O800 2.546 . S
Tb756 O801 2.610 . S
Tb756 O803 2.320 . S
Tb756 O804 2.552 . S
Tb756 O805 2.413 . S
Tb756 O807 2.362 . S
Tb756 O808 2.421 . S
Tb756 C820 2.833 . S
C757 C760 1.432 . S
C757 C761 1.414 . S
C757 N764 1.359 . S
C758 C760 1.417 . S
C758 C762 1.432 . S
C758 C770 1.410 . S
C759 C761 1.444 . S
C759 C762 1.317 . S
C759 H782 0.929 . S
C760 C757 1.432 . S
C760 C758 1.417 . S
C760 N768 1.360 . S
C761 C757 1.414 . S
C761 C759 1.444 . S
C761 C766 1.385 . S
C762 C758 1.432 . S
C762 C759 1.317 . S
C762 H774 0.930 . S
C763 C765 1.392 . S
C763 C766 1.370 . S
C763 H775 0.931 . S
N764 C757 1.359 . S
N764 C765 1.327 . S
N764 Tb767 2.600 . S
C765 C763 1.392 . S
C765 N764 1.327 . S
C765 H772 0.930 . S
C766 C761 1.385 . S
C766 C763 1.370 . S
C766 H785 0.930 . S
Tb767 N764 2.600 . S
Tb767 N768 2.660 . S
Tb767 O801 2.362 . S
Tb767 O802 2.421 . S
Tb767 O806 2.546 . S
Tb767 O807 2.610 . S
Tb767 O809 2.320 . S
Tb767 O810 2.552 . S
Tb767 O811 2.413 . S
Tb767 C831 2.833 . S
N768 C760 1.360 . S
N768 Tb767 2.660 . S
N768 C769 1.305 . S
C769 N768 1.305 . S
C769 C771 1.407 . S
C769 H776 0.930 . S
C770 C758 1.410 . S
C770 C771 1.345 . S
C770 H778 0.930 . S
C771 C769 1.407 . S
C771 C770 1.345 . S
C771 H773 0.930 . S
H772 C765 0.930 . S
H773 C771 0.930 . S
H774 C762 0.930 . S
H775 C763 0.931 . S
H776 C769 0.930 . S
H777 C791 0.930 . S
H778 C770 0.930 . S
H779 C797 0.930 . S
H780 C788 0.930 . S
H781 C795 0.931 . S
H782 C759 0.929 . S
H783 C789 0.930 . S
H784 C822 0.930 . S
H785 C766 0.930 . S
H786 C821 0.929 . S
N787 Tb756 2.660 . S
N787 C788 1.305 . S
N787 C792 1.360 . S
C788 H780 0.930 . S
C788 N787 1.305 . S
C788 C791 1.407 . S
C789 H783 0.930 . S
C789 C790 1.410 . S
C789 C791 1.345 . S
C790 C789 1.410 . S
C790 C792 1.417 . S
C790 C822 1.432 . S
C791 H777 0.930 . S
C791 C788 1.407 . S
C791 C789 1.345 . S
C792 N787 1.360 . S
C792 C790 1.417 . S
C792 C796 1.432 . S
H793 C798 0.930 . S
N794 Tb756 2.600 . S
N794 C796 1.359 . S
N794 C797 1.327 . S
C795 H781 0.931 . S
C795 C797 1.392 . S
C795 C798 1.370 . S
C796 C792 1.432 . S
C796 N794 1.359 . S
C796 C799 1.414 . S
C797 H779 0.930 . S
C797 N794 1.327 . S
C797 C795 1.392 . S
C798 H793 0.930 . S
C798 C795 1.370 . S
C798 C799 1.385 . S
C799 C796 1.414 . S
C799 C798 1.385 . S
C799 C821 1.444 . S
O800 Tb756 2.546 . S
O800 C820 1.251 . S
O801 Tb756 2.610 . S
O801 Tb767 2.362 . S
O801 C812 1.283 . S
O802 Tb767 2.421 . S
O802 C819 1.262 . S
O803 Tb756 2.320 . S
O803 C819 1.260 . S
O804 Tb756 2.552 . S
O804 C812 1.243 . S
O805 Tb756 2.413 . S
O805 C820 1.256 . S
O806 Tb767 2.546 . S
O806 C831 1.251 . S
O807 Tb756 2.362 . S
O807 Tb767 2.610 . S
O807 C823 1.283 . S
O808 Tb756 2.421 . S
O808 C830 1.262 . S
O809 Tb767 2.320 . S
O809 C830 1.260 . S
O810 Tb767 2.552 . S
O810 C823 1.243 . S
O811 Tb767 2.413 . S
O811 C831 1.256 . S
C812 O801 1.283 . S
C812 O804 1.243 . S
C813 C815 1.382 . S
C813 C817 1.393 . S
C813 C820 1.500 . S
C814 C815 1.400 . S
C814 C816 1.384 . S
C815 C813 1.382 . S
C815 C814 1.400 . S
C815 H832 0.930 . S
C816 C814 1.384 . S
C816 C818 1.392 . S
C816 H833 0.931 . S
C817 C813 1.393 . S
C817 C818 1.401 . S
C817 H834 0.930 . S
C818 C816 1.392 . S
C818 C817 1.401 . S
C818 H835 0.930 . S
C819 O802 1.262 . S
C819 O803 1.260 . S
C820 Tb756 2.833 . S
C820 O800 1.251 . S
C820 O805 1.256 . S
C820 C813 1.500 . S
C821 H786 0.929 . S
C821 C799 1.444 . S
C821 C822 1.317 . S
C822 H784 0.930 . S
C822 C790 1.432 . S
C822 C821 1.317 . S
C823 O807 1.283 . S
C823 O810 1.243 . S
C824 C825 1.382 . S
C824 C828 1.393 . S
C824 C831 1.500 . S
C825 C824 1.382 . S
C825 C826 1.400 . S
C825 H836 0.930 . S
C826 C825 1.400 . S
C826 C827 1.384 . S
C827 C826 1.384 . S
C827 C829 1.392 . S
C827 H837 0.931 . S
C828 C824 1.393 . S
C828 C829 1.401 . S
C828 H838 0.930 . S
C829 C827 1.392 . S
C829 C828 1.401 . S
C829 H839 0.930 . S
C830 O808 1.262 . S
C830 O809 1.260 . S
C831 Tb767 2.833 . S
C831 O806 1.251 . S
C831 O811 1.256 . S
C831 C824 1.500 . S
H832 C815 0.930 . S
H833 C816 0.931 . S
H834 C817 0.930 . S
H835 C818 0.930 . S
H836 C825 0.930 . S
H837 C827 0.931 . S
H838 C828 0.930 . S
H839 C829 0.930 . S
Tb840 N871 2.660 . S
Tb840 N878 2.600 . S
Tb840 O884 2.546 . S
Tb840 O885 2.610 . S
Tb840 O887 2.320 . S
Tb840 O888 2.552 . S
Tb840 O889 2.413 . S
Tb840 O891 2.362 . S
Tb840 O892 2.421 . S
Tb840 C904 2.833 . S
C841 C844 1.432 . S
C841 C845 1.414 . S
C841 N848 1.359 . S
C842 C844 1.417 . S
C842 C846 1.432 . S
C842 C854 1.410 . S
C843 C845 1.444 . S
C843 C846 1.317 . S
C843 H866 0.929 . S
C844 C841 1.432 . S
C844 C842 1.417 . S
C844 N852 1.360 . S
C845 C841 1.414 . S
C845 C843 1.444 . S
C845 C850 1.385 . S
C846 C842 1.432 . S
C846 C843 1.317 . S
C846 H858 0.930 . S
C847 C849 1.392 . S
C847 C850 1.370 . S
C847 H859 0.931 . S
N848 C841 1.359 . S
N848 C849 1.327 . S
N848 Tb851 2.600 . S
C849 C847 1.392 . S
C849 N848 1.327 . S
C849 H856 0.930 . S
C850 C845 1.385 . S
C850 C847 1.370 . S
C850 H869 0.930 . S
Tb851 N848 2.600 . S
Tb851 N852 2.660 . S
Tb851 O885 2.362 . S
Tb851 O886 2.421 . S
Tb851 O890 2.546 . S
Tb851 O891 2.610 . S
Tb851 O893 2.320 . S
Tb851 O894 2.552 . S
Tb851 O895 2.413 . S
Tb851 C915 2.833 . S
N852 C844 1.360 . S
N852 Tb851 2.660 . S
N852 C853 1.305 . S
C853 N852 1.305 . S
C853 C855 1.407 . S
C853 H860 0.930 . S
C854 C842 1.410 . S
C854 C855 1.345 . S
C854 H862 0.930 . S
C855 C853 1.407 . S
C855 C854 1.345 . S
C855 H857 0.930 . S
H856 C849 0.930 . S
H857 C855 0.930 . S
H858 C846 0.930 . S
H859 C847 0.931 . S
H860 C853 0.930 . S
H861 C875 0.930 . S
H862 C854 0.930 . S
H863 C881 0.930 . S
H864 C872 0.930 . S
H865 C879 0.931 . S
H866 C843 0.929 . S
H867 C873 0.930 . S
H868 C906 0.930 . S
H869 C850 0.930 . S
H870 C905 0.929 . S
N871 Tb840 2.660 . S
N871 C872 1.305 . S
N871 C876 1.360 . S
C872 H864 0.930 . S
C872 N871 1.305 . S
C872 C875 1.407 . S
C873 H867 0.930 . S
C873 C874 1.410 . S
C873 C875 1.345 . S
C874 C873 1.410 . S
C874 C876 1.417 . S
C874 C906 1.432 . S
C875 H861 0.930 . S
C875 C872 1.407 . S
C875 C873 1.345 . S
C876 N871 1.360 . S
C876 C874 1.417 . S
C876 C880 1.432 . S
H877 C882 0.930 . S
N878 Tb840 2.600 . S
N878 C880 1.359 . S
N878 C881 1.327 . S
C879 H865 0.931 . S
C879 C881 1.392 . S
C879 C882 1.370 . S
C880 C876 1.432 . S
C880 N878 1.359 . S
C880 C883 1.414 . S
C881 H863 0.930 . S
C881 N878 1.327 . S
C881 C879 1.392 . S
C882 H877 0.930 . S
C882 C879 1.370 . S
C882 C883 1.385 . S
C883 C880 1.414 . S
C883 C882 1.385 . S
C883 C905 1.444 . S
O884 Tb840 2.546 . S
O884 C904 1.251 . S
O885 Tb840 2.610 . S
O885 Tb851 2.362 . S
O885 C896 1.283 . S
O886 Tb851 2.421 . S
O886 C903 1.262 . S
O887 Tb840 2.320 . S
O887 C903 1.260 . S
O888 Tb840 2.552 . S
O888 C896 1.243 . S
O889 Tb840 2.413 . S
O889 C904 1.256 . S
O890 Tb851 2.546 . S
O890 C915 1.251 . S
O891 Tb840 2.362 . S
O891 Tb851 2.610 . S
O891 C907 1.283 . S
O892 Tb840 2.421 . S
O892 C914 1.262 . S
O893 Tb851 2.320 . S
O893 C914 1.260 . S
O894 Tb851 2.552 . S
O894 C907 1.243 . S
O895 Tb851 2.413 . S
O895 C915 1.256 . S
C896 O885 1.283 . S
C896 O888 1.243 . S
C897 C899 1.382 . S
C897 C901 1.393 . S
C897 C904 1.500 . S
C898 C899 1.400 . S
C898 C900 1.384 . S
C899 C897 1.382 . S
C899 C898 1.400 . S
C899 H916 0.930 . S
C900 C898 1.384 . S
C900 C902 1.392 . S
C900 H917 0.931 . S
C901 C897 1.393 . S
C901 C902 1.401 . S
C901 H918 0.930 . S
C902 C900 1.392 . S
C902 C901 1.401 . S
C902 H919 0.930 . S
C903 O886 1.262 . S
C903 O887 1.260 . S
C904 Tb840 2.833 . S
C904 O884 1.251 . S
C904 O889 1.256 . S
C904 C897 1.500 . S
C905 H870 0.929 . S
C905 C883 1.444 . S
C905 C906 1.317 . S
C906 H868 0.930 . S
C906 C874 1.432 . S
C906 C905 1.317 . S
C907 O891 1.283 . S
C907 O894 1.243 . S
C908 C909 1.382 . S
C908 C912 1.393 . S
C908 C915 1.500 . S
C909 C908 1.382 . S
C909 C910 1.400 . S
C909 H920 0.930 . S
C910 C909 1.400 . S
C910 C911 1.384 . S
C911 C910 1.384 . S
C911 C913 1.392 . S
C911 H921 0.931 . S
C912 C908 1.393 . S
C912 C913 1.401 . S
C912 H922 0.930 . S
C913 C911 1.392 . S
C913 C912 1.401 . S
C913 H923 0.930 . S
C914 O892 1.262 . S
C914 O893 1.260 . S
C915 Tb851 2.833 . S
C915 O890 1.251 . S
C915 O895 1.256 . S
C915 C908 1.500 . S
H916 C899 0.930 . S
H917 C900 0.931 . S
H918 C901 0.930 . S
H919 C902 0.930 . S
H920 C909 0.930 . S
H921 C911 0.931 . S
H922 C912 0.930 . S
H923 C913 0.930 . S
Tb924 N955 2.660 . S
Tb924 N962 2.600 . S
Tb924 O968 2.546 . S
Tb924 O969 2.610 . S
Tb924 O971 2.320 . S
Tb924 O972 2.552 . S
Tb924 O973 2.413 . S
Tb924 O975 2.362 . S
Tb924 O976 2.421 . S
Tb924 C988 2.833 1_554 S
C925 C928 1.432 . S
C925 C929 1.414 . S
C925 N932 1.359 . S
C926 C928 1.417 . S
C926 C930 1.432 . S
C926 C938 1.410 . S
C927 C929 1.444 . S
C927 C930 1.317 . S
C927 H950 0.929 . S
C928 C925 1.432 . S
C928 C926 1.417 . S
C928 N936 1.360 . S
C929 C925 1.414 . S
C929 C927 1.444 . S
C929 C934 1.385 . S
C930 C926 1.432 . S
C930 C927 1.317 . S
C930 H942 0.930 . S
C931 C933 1.392 . S
C931 C934 1.370 . S
C931 H943 0.931 . S
N932 C925 1.359 . S
N932 C933 1.327 . S
N932 Tb935 2.600 . S
C933 C931 1.392 . S
C933 N932 1.327 . S
C933 H940 0.930 . S
C934 C929 1.385 . S
C934 C931 1.370 . S
C934 H953 0.930 . S
Tb935 N932 2.600 . S
Tb935 N936 2.660 . S
Tb935 O969 2.362 . S
Tb935 O970 2.421 . S
Tb935 O974 2.546 . S
Tb935 O975 2.610 . S
Tb935 O977 2.320 . S
Tb935 O978 2.552 . S
Tb935 O979 2.413 . S
Tb935 C999 2.833 . S
N936 C928 1.360 . S
N936 Tb935 2.660 . S
N936 C937 1.305 . S
C937 N936 1.305 . S
C937 C939 1.407 . S
C937 H944 0.930 . S
C938 C926 1.410 . S
C938 C939 1.345 . S
C938 H946 0.930 . S
C939 C937 1.407 . S
C939 C938 1.345 . S
C939 H941 0.930 . S
H940 C933 0.930 . S
H941 C939 0.930 . S
H942 C930 0.930 . S
H943 C931 0.931 . S
H944 C937 0.930 . S
H945 C959 0.930 . S
H946 C938 0.930 . S
H947 C965 0.930 . S
H948 C956 0.930 . S
H949 C963 0.931 . S
H950 C927 0.929 . S
H951 C957 0.930 . S
H952 C990 0.930 . S
H953 C934 0.930 . S
H954 C989 0.929 . S
N955 Tb924 2.660 . S
N955 C956 1.305 . S
N955 C960 1.360 . S
C956 H948 0.930 . S
C956 N955 1.305 . S
C956 C959 1.407 . S
C957 H951 0.930 . S
C957 C958 1.410 . S
C957 C959 1.345 . S
C958 C957 1.410 . S
C958 C960 1.417 . S
C958 C990 1.432 . S
C959 H945 0.930 . S
C959 C956 1.407 . S
C959 C957 1.345 . S
C960 N955 1.360 . S
C960 C958 1.417 . S
C960 C964 1.432 . S
H961 C966 0.930 . S
N962 Tb924 2.600 . S
N962 C964 1.359 . S
N962 C965 1.327 . S
C963 H949 0.931 . S
C963 C965 1.392 . S
C963 C966 1.370 . S
C964 C960 1.432 . S
C964 N962 1.359 . S
C964 C967 1.414 . S
C965 H947 0.930 . S
C965 N962 1.327 . S
C965 C963 1.392 . S
C966 H961 0.930 . S
C966 C963 1.370 . S
C966 C967 1.385 . S
C967 C964 1.414 . S
C967 C966 1.385 . S
C967 C989 1.444 . S
O968 Tb924 2.546 . S
O968 C988 1.251 1_554 S
O969 Tb924 2.610 . S
O969 Tb935 2.362 . S
O969 C980 1.283 . S
O970 Tb935 2.421 . S
O970 C987 1.262 . S
O971 Tb924 2.320 . S
O971 C987 1.260 . S
O972 Tb924 2.552 . S
O972 C980 1.243 . S
O973 Tb924 2.413 . S
O973 C988 1.256 1_554 S
O974 Tb935 2.546 . S
O974 C999 1.251 . S
O975 Tb924 2.362 . S
O975 Tb935 2.610 . S
O975 C991 1.283 . S
O976 Tb924 2.421 . S
O976 C998 1.262 . S
O977 Tb935 2.320 . S
O977 C998 1.260 . S
O978 Tb935 2.552 . S
O978 C991 1.243 . S
O979 Tb935 2.413 . S
O979 C999 1.256 . S
C980 O969 1.283 . S
C980 O972 1.243 . S
C981 C983 1.382 . S
C981 C985 1.393 . S
C981 C988 1.500 . S
C982 C983 1.400 . S
C982 C984 1.384 . S
C983 C981 1.382 . S
C983 C982 1.400 . S
C983 H1000 0.930 . S
C984 C982 1.384 . S
C984 C986 1.392 . S
C984 H1001 0.931 . S
C985 C981 1.393 . S
C985 C986 1.401 . S
C985 H1002 0.930 . S
C986 C984 1.392 . S
C986 C985 1.401 . S
C986 H1003 0.930 . S
C987 O970 1.262 . S
C987 O971 1.260 . S
C988 Tb924 2.833 1_556 S
C988 O968 1.251 1_556 S
C988 O973 1.256 1_556 S
C988 C981 1.500 . S
C989 H954 0.929 . S
C989 C967 1.444 . S
C989 C990 1.317 . S
C990 H952 0.930 . S
C990 C958 1.432 . S
C990 C989 1.317 . S
C991 O975 1.283 . S
C991 O978 1.243 . S
C992 C993 1.382 . S
C992 C996 1.393 . S
C992 C999 1.500 . S
C993 C992 1.382 . S
C993 C994 1.400 . S
C993 H1004 0.930 . S
C994 C993 1.400 . S
C994 C995 1.384 . S
C995 C994 1.384 . S
C995 C997 1.392 . S
C995 H1005 0.931 . S
C996 C992 1.393 . S
C996 C997 1.401 . S
C996 H1006 0.930 . S
C997 C995 1.392 . S
C997 C996 1.401 . S
C997 H1007 0.930 . S
C998 O976 1.262 . S
C998 O977 1.260 . S
C999 Tb935 2.833 . S
C999 O974 1.251 . S
C999 O979 1.256 . S
C999 C992 1.500 . S
H1000 C983 0.930 . S
H1001 C984 0.931 . S
H1002 C985 0.930 . S
H1003 C986 0.930 . S
H1004 C993 0.930 . S
H1005 C995 0.931 . S
H1006 C996 0.930 . S
H1007 C997 0.930 . S
H1008 C1026 0.951 . S
H1009 C1028 0.951 . S
H1010 C1030 0.950 . S
H1011 C1031 0.950 . S
H1012 C1033 0.950 . S
H1013 C1036 0.950 . S
H1014 C1037 0.950 . S
H1015 C1039 0.950 . S
H1016 C1040 0.950 . S
H1017 C1041 0.951 . S
H1018 C1043 0.951 . S
H1019 C1045 0.950 . S
H1020 C1046 0.950 . S
H1021 C1048 0.950 . S
H1022 C1051 0.950 . S
H1023 C1052 0.950 . S
H1024 C1054 0.950 . S
H1025 C1055 0.950 . S
C1026 H1008 0.951 . S
C1026 C1027 1.366 . S
C1026 C1028 1.388 . S
C1027 C1026 1.366 . S
C1027 C1031 1.385 . S
C1028 H1009 0.951 . S
C1028 C1026 1.388 . S
C1028 C1029 1.366 . S
C1029 C1028 1.366 . S
C1029 C1030 1.414 . S
C1029 C1032 1.499 . S
C1030 H1010 0.950 . S
C1030 C1029 1.414 . S
C1030 C1031 1.374 . S
C1031 H1011 0.950 . S
C1031 C1027 1.385 . S
C1031 C1030 1.374 . S
C1032 C1029 1.499 . S
C1032 C1033 1.373 . S
C1032 C1034 1.389 . S
C1033 H1012 0.950 . S
C1033 C1032 1.373 . S
C1033 C1049 1.377 . S
C1034 C1032 1.389 . S
C1034 C1035 1.524 . S
C1034 C1048 1.377 . S
C1035 C1034 1.524 . S
C1035 C1036 1.397 . S
C1035 C1040 1.363 . S
C1036 H1013 0.950 . S
C1036 C1035 1.397 . S
C1036 C1037 1.334 . S
C1037 H1014 0.950 . S
C1037 C1036 1.334 . S
C1037 C1038 1.287 . S
C1038 C1037 1.287 . S
C1038 C1039 1.524 . S
C1038 H1057 0.913 . S
C1039 H1015 0.950 . S
C1039 C1038 1.524 . S
C1039 C1040 1.415 . S
C1040 H1016 0.950 . S
C1040 C1035 1.363 . S
C1040 C1039 1.415 . S
C1041 H1017 0.951 . S
C1041 C1042 1.366 . S
C1041 C1043 1.388 . S
C1042 C1041 1.366 . S
C1042 C1046 1.385 . S
C1043 H1018 0.951 . S
C1043 C1041 1.388 . S
C1043 C1044 1.366 . S
C1044 C1043 1.366 . S
C1044 C1045 1.414 . S
C1044 C1047 1.499 . S
C1045 H1019 0.950 . S
C1045 C1044 1.414 . S
C1045 C1046 1.374 . S
C1046 H1020 0.950 . S
C1046 C1042 1.385 . S
C1046 C1045 1.374 . S
C1047 C1044 1.499 . S
C1047 C1048 1.373 . S
C1047 C1049 1.389 . S
C1048 H1021 0.950 . S
C1048 C1034 1.377 . S
C1048 C1047 1.373 . S
C1049 C1033 1.377 . S
C1049 C1047 1.389 . S
C1049 C1050 1.524 . S
C1050 C1049 1.524 . S
C1050 C1051 1.397 . S
C1050 C1055 1.363 . S
C1051 H1022 0.950 . S
C1051 C1050 1.397 . S
C1051 C1052 1.334 . S
C1052 H1023 0.950 . S
C1052 C1051 1.334 . S
C1052 C1053 1.287 . S
C1053 C1052 1.287 . S
C1053 C1054 1.524 . S
C1053 H1056 0.999 . S
C1054 H1024 0.950 . S
C1054 C1053 1.524 . S
C1054 C1055 1.415 . S
C1055 H1025 0.950 . S
C1055 C1050 1.363 . S
C1055 C1054 1.415 . S
H1056 C1053 0.999 . S
H1057 C1038 0.913 . S
H1058 C1076 0.951 . S
H1059 C1078 0.951 . S
H1060 C1080 0.950 . S
H1061 C1081 0.950 . S
H1062 C1083 0.950 . S
H1063 C1086 0.950 . S
H1064 C1087 0.950 . S
H1065 C1089 0.950 . S
H1066 C1090 0.950 . S
H1067 C1091 0.951 . S
H1068 C1093 0.951 . S
H1069 C1095 0.950 . S
H1070 C1096 0.950 . S
H1071 C1098 0.950 . S
H1072 C1101 0.950 . S
H1073 C1102 0.950 . S
H1074 C1104 0.950 . S
H1075 C1105 0.950 . S
C1076 H1058 0.951 . S
C1076 C1077 1.366 . S
C1076 C1078 1.388 . S
C1077 C1076 1.366 . S
C1077 C1081 1.385 . S
C1078 H1059 0.951 . S
C1078 C1076 1.388 . S
C1078 C1079 1.366 . S
C1079 C1078 1.366 . S
C1079 C1080 1.414 . S
C1079 C1082 1.499 . S
C1080 H1060 0.950 . S
C1080 C1079 1.414 . S
C1080 C1081 1.374 . S
C1081 H1061 0.950 . S
C1081 C1077 1.385 . S
C1081 C1080 1.374 . S
C1082 C1079 1.499 . S
C1082 C1083 1.373 . S
C1082 C1084 1.389 . S
C1083 H1062 0.950 . S
C1083 C1082 1.373 . S
C1083 C1099 1.377 . S
C1084 C1082 1.389 . S
C1084 C1085 1.524 . S
C1084 C1098 1.377 . S
C1085 C1084 1.524 . S
C1085 C1086 1.397 . S
C1085 C1090 1.363 . S
C1086 H1063 0.950 . S
C1086 C1085 1.397 . S
C1086 C1087 1.334 . S
C1087 H1064 0.950 . S
C1087 C1086 1.334 . S
C1087 C1088 1.287 . S
C1088 C1087 1.287 . S
C1088 C1089 1.524 . S
C1088 H1107 0.913 . S
C1089 H1065 0.950 . S
C1089 C1088 1.524 . S
C1089 C1090 1.415 . S
C1090 H1066 0.950 . S
C1090 C1085 1.363 . S
C1090 C1089 1.415 . S
C1091 H1067 0.951 . S
C1091 C1092 1.366 . S
C1091 C1093 1.388 . S
C1092 C1091 1.366 . S
C1092 C1096 1.385 . S
C1093 H1068 0.951 . S
C1093 C1091 1.388 . S
C1093 C1094 1.366 . S
C1094 C1093 1.366 . S
C1094 C1095 1.414 . S
C1094 C1097 1.499 . S
C1095 H1069 0.950 . S
C1095 C1094 1.414 . S
C1095 C1096 1.374 . S
C1096 H1070 0.950 . S
C1096 C1092 1.385 . S
C1096 C1095 1.374 . S
C1097 C1094 1.499 . S
C1097 C1098 1.373 . S
C1097 C1099 1.389 . S
C1098 H1071 0.950 . S
C1098 C1084 1.377 . S
C1098 C1097 1.373 . S
C1099 C1083 1.377 . S
C1099 C1097 1.389 . S
C1099 C1100 1.524 . S
C1100 C1099 1.524 . S
C1100 C1101 1.397 . S
C1100 C1105 1.363 . S
C1101 H1072 0.950 . S
C1101 C1100 1.397 . S
C1101 C1102 1.334 . S
C1102 H1073 0.950 . S
C1102 C1101 1.334 . S
C1102 C1103 1.287 . S
C1103 C1102 1.287 . S
C1103 C1104 1.524 . S
C1103 H1106 0.999 . S
C1104 H1074 0.950 . S
C1104 C1103 1.524 . S
C1104 C1105 1.415 . S
C1105 H1075 0.950 . S
C1105 C1100 1.363 . S
C1105 C1104 1.415 . S
H1106 C1103 0.999 . S
H1107 C1088 0.913 . S
H1108 C1126 0.951 . S
H1109 C1128 0.951 . S
H1110 C1130 0.950 . S
H1111 C1131 0.950 . S
H1112 C1133 0.950 . S
H1113 C1136 0.950 . S
H1114 C1137 0.950 . S
H1115 C1139 0.950 . S
H1116 C1140 0.950 . S
H1117 C1141 0.951 . S
H1118 C1143 0.951 . S
H1119 C1145 0.950 . S
H1120 C1146 0.950 . S
H1121 C1148 0.950 . S
H1122 C1151 0.950 . S
H1123 C1152 0.950 . S
H1124 C1154 0.950 . S
H1125 C1155 0.950 . S
C1126 H1108 0.951 . S
C1126 C1127 1.366 . S
C1126 C1128 1.388 . S
C1127 C1126 1.366 . S
C1127 C1131 1.385 . S
C1128 H1109 0.951 . S
C1128 C1126 1.388 . S
C1128 C1129 1.366 . S
C1129 C1128 1.366 . S
C1129 C1130 1.414 . S
C1129 C1132 1.499 . S
C1130 H1110 0.950 . S
C1130 C1129 1.414 . S
C1130 C1131 1.374 . S
C1131 H1111 0.950 . S
C1131 C1127 1.385 . S
C1131 C1130 1.374 . S
C1132 C1129 1.499 . S
C1132 C1133 1.373 . S
C1132 C1134 1.389 . S
C1133 H1112 0.950 . S
C1133 C1132 1.373 . S
C1133 C1149 1.377 . S
C1134 C1132 1.389 . S
C1134 C1135 1.524 . S
C1134 C1148 1.377 . S
C1135 C1134 1.524 . S
C1135 C1136 1.397 . S
C1135 C1140 1.363 . S
C1136 H1113 0.950 . S
C1136 C1135 1.397 . S
C1136 C1137 1.334 . S
C1137 H1114 0.950 . S
C1137 C1136 1.334 . S
C1137 C1138 1.287 . S
C1138 C1137 1.287 . S
C1138 C1139 1.524 . S
C1138 H1157 0.913 . S
C1139 H1115 0.950 . S
C1139 C1138 1.524 . S
C1139 C1140 1.415 . S
C1140 H1116 0.950 . S
C1140 C1135 1.363 . S
C1140 C1139 1.415 . S
C1141 H1117 0.951 . S
C1141 C1142 1.366 . S
C1141 C1143 1.388 . S
C1142 C1141 1.366 . S
C1142 C1146 1.385 . S
C1143 H1118 0.951 . S
C1143 C1141 1.388 . S
C1143 C1144 1.366 . S
C1144 C1143 1.366 . S
C1144 C1145 1.414 . S
C1144 C1147 1.499 . S
C1145 H1119 0.950 . S
C1145 C1144 1.414 . S
C1145 C1146 1.374 . S
C1146 H1120 0.950 . S
C1146 C1142 1.385 . S
C1146 C1145 1.374 . S
C1147 C1144 1.499 . S
C1147 C1148 1.373 . S
C1147 C1149 1.389 . S
C1148 H1121 0.950 . S
C1148 C1134 1.377 . S
C1148 C1147 1.373 . S
C1149 C1133 1.377 . S
C1149 C1147 1.389 . S
C1149 C1150 1.524 . S
C1150 C1149 1.524 . S
C1150 C1151 1.397 . S
C1150 C1155 1.363 . S
C1151 H1122 0.950 . S
C1151 C1150 1.397 . S
C1151 C1152 1.334 . S
C1152 H1123 0.950 . S
C1152 C1151 1.334 . S
C1152 C1153 1.287 . S
C1153 C1152 1.287 . S
C1153 C1154 1.524 . S
C1153 H1156 0.999 . S
C1154 H1124 0.950 . S
C1154 C1153 1.524 . S
C1154 C1155 1.415 . S
C1155 H1125 0.950 . S
C1155 C1150 1.363 . S
C1155 C1154 1.415 . S
H1156 C1153 0.999 . S
H1157 C1138 0.913 . S
H1158 C1176 0.951 . S
H1159 C1178 0.951 . S
H1160 C1180 0.950 . S
H1161 C1181 0.950 . S
H1162 C1183 0.950 . S
H1163 C1186 0.950 . S
H1164 C1187 0.950 . S
H1165 C1189 0.950 . S
H1166 C1190 0.950 . S
H1167 C1191 0.951 . S
H1168 C1193 0.951 . S
H1169 C1195 0.950 . S
H1170 C1196 0.950 . S
H1171 C1198 0.950 . S
H1172 C1201 0.950 . S
H1173 C1202 0.950 . S
H1174 C1204 0.950 . S
H1175 C1205 0.950 . S
C1176 H1158 0.951 . S
C1176 C1177 1.366 . S
C1176 C1178 1.388 . S
C1177 C1176 1.366 . S
C1177 C1181 1.385 . S
C1178 H1159 0.951 . S
C1178 C1176 1.388 . S
C1178 C1179 1.366 . S
C1179 C1178 1.366 . S
C1179 C1180 1.414 . S
C1179 C1182 1.499 . S
C1180 H1160 0.950 . S
C1180 C1179 1.414 . S
C1180 C1181 1.374 . S
C1181 H1161 0.950 . S
C1181 C1177 1.385 . S
C1181 C1180 1.374 . S
C1182 C1179 1.499 . S
C1182 C1183 1.373 . S
C1182 C1184 1.389 . S
C1183 H1162 0.950 . S
C1183 C1182 1.373 . S
C1183 C1199 1.377 . S
C1184 C1182 1.389 . S
C1184 C1185 1.524 . S
C1184 C1198 1.377 . S
C1185 C1184 1.524 . S
C1185 C1186 1.397 . S
C1185 C1190 1.363 . S
C1186 H1163 0.950 . S
C1186 C1185 1.397 . S
C1186 C1187 1.334 . S
C1187 H1164 0.950 . S
C1187 C1186 1.334 . S
C1187 C1188 1.287 . S
C1188 C1187 1.287 . S
C1188 C1189 1.524 . S
C1188 H1207 0.913 . S
C1189 H1165 0.950 . S
C1189 C1188 1.524 . S
C1189 C1190 1.415 . S
C1190 H1166 0.950 . S
C1190 C1185 1.363 . S
C1190 C1189 1.415 . S
C1191 H1167 0.951 . S
C1191 C1192 1.366 . S
C1191 C1193 1.388 . S
C1192 C1191 1.366 . S
C1192 C1196 1.385 . S
C1193 H1168 0.951 . S
C1193 C1191 1.388 . S
C1193 C1194 1.366 . S
C1194 C1193 1.366 . S
C1194 C1195 1.414 . S
C1194 C1197 1.499 . S
C1195 H1169 0.950 . S
C1195 C1194 1.414 . S
C1195 C1196 1.374 . S
C1196 H1170 0.950 . S
C1196 C1192 1.385 . S
C1196 C1195 1.374 . S
C1197 C1194 1.499 . S
C1197 C1198 1.373 . S
C1197 C1199 1.389 . S
C1198 H1171 0.950 . S
C1198 C1184 1.377 . S
C1198 C1197 1.373 . S
C1199 C1183 1.377 . S
C1199 C1197 1.389 . S
C1199 C1200 1.524 . S
C1200 C1199 1.524 . S
C1200 C1201 1.397 . S
C1200 C1205 1.363 . S
C1201 H1172 0.950 . S
C1201 C1200 1.397 . S
C1201 C1202 1.334 . S
C1202 H1173 0.950 . S
C1202 C1201 1.334 . S
C1202 C1203 1.287 . S
C1203 C1202 1.287 . S
C1203 C1204 1.524 . S
C1203 H1206 0.999 . S
C1204 H1174 0.950 . S
C1204 C1203 1.524 . S
C1204 C1205 1.415 . S
C1205 H1175 0.950 . S
C1205 C1200 1.363 . S
C1205 C1204 1.415 . S
H1206 C1203 0.999 . S
H1207 C1188 0.913 . S
H1208 C1226 0.951 . S
H1209 C1228 0.951 . S
H1210 C1230 0.950 . S
H1211 C1231 0.950 . S
H1212 C1233 0.950 . S
H1213 C1236 0.950 . S
H1214 C1237 0.950 . S
H1215 C1239 0.950 . S
H1216 C1240 0.950 . S
H1217 C1241 0.951 . S
H1218 C1243 0.951 . S
H1219 C1245 0.950 . S
H1220 C1246 0.950 . S
H1221 C1248 0.950 . S
H1222 C1251 0.950 . S
H1223 C1252 0.950 . S
H1224 C1254 0.950 . S
H1225 C1255 0.950 . S
C1226 H1208 0.951 . S
C1226 C1227 1.366 . S
C1226 C1228 1.388 . S
C1227 C1226 1.366 . S
C1227 C1231 1.385 . S
C1228 H1209 0.951 . S
C1228 C1226 1.388 . S
C1228 C1229 1.366 . S
C1229 C1228 1.366 . S
C1229 C1230 1.414 . S
C1229 C1232 1.499 . S
C1230 H1210 0.950 . S
C1230 C1229 1.414 . S
C1230 C1231 1.374 . S
C1231 H1211 0.950 . S
C1231 C1227 1.385 . S
C1231 C1230 1.374 . S
C1232 C1229 1.499 . S
C1232 C1233 1.373 . S
C1232 C1234 1.389 . S
C1233 H1212 0.950 . S
C1233 C1232 1.373 . S
C1233 C1249 1.377 . S
C1234 C1232 1.389 . S
C1234 C1235 1.524 . S
C1234 C1248 1.377 . S
C1235 C1234 1.524 . S
C1235 C1236 1.397 . S
C1235 C1240 1.363 . S
C1236 H1213 0.950 . S
C1236 C1235 1.397 . S
C1236 C1237 1.334 . S
C1237 H1214 0.950 . S
C1237 C1236 1.334 . S
C1237 C1238 1.287 . S
C1238 C1237 1.287 . S
C1238 C1239 1.524 . S
C1238 H1257 0.913 . S
C1239 H1215 0.950 . S
C1239 C1238 1.524 . S
C1239 C1240 1.415 . S
C1240 H1216 0.950 . S
C1240 C1235 1.363 . S
C1240 C1239 1.415 . S
C1241 H1217 0.951 . S
C1241 C1242 1.366 . S
C1241 C1243 1.388 . S
C1242 C1241 1.366 . S
C1242 C1246 1.385 . S
C1243 H1218 0.951 . S
C1243 C1241 1.388 . S
C1243 C1244 1.366 . S
C1244 C1243 1.366 . S
C1244 C1245 1.414 . S
C1244 C1247 1.499 . S
C1245 H1219 0.950 . S
C1245 C1244 1.414 . S
C1245 C1246 1.374 . S
C1246 H1220 0.950 . S
C1246 C1242 1.385 . S
C1246 C1245 1.374 . S
C1247 C1244 1.499 . S
C1247 C1248 1.373 . S
C1247 C1249 1.389 . S
C1248 H1221 0.950 . S
C1248 C1234 1.377 . S
C1248 C1247 1.373 . S
C1249 C1233 1.377 . S
C1249 C1247 1.389 . S
C1249 C1250 1.524 . S
C1250 C1249 1.524 . S
C1250 C1251 1.397 . S
C1250 C1255 1.363 . S
C1251 H1222 0.950 . S
C1251 C1250 1.397 . S
C1251 C1252 1.334 . S
C1252 H1223 0.950 . S
C1252 C1251 1.334 . S
C1252 C1253 1.287 . S
C1253 C1252 1.287 . S
C1253 C1254 1.524 . S
C1253 H1256 0.999 . S
C1254 H1224 0.950 . S
C1254 C1253 1.524 . S
C1254 C1255 1.415 . S
C1255 H1225 0.950 . S
C1255 C1250 1.363 . S
C1255 C1254 1.415 . S
H1256 C1253 0.999 . S
H1257 C1238 0.913 . S
H1258 C1276 0.951 . S
H1259 C1278 0.951 . S
H1260 C1280 0.950 . S
H1261 C1281 0.950 . S
H1262 C1283 0.950 . S
H1263 C1286 0.950 . S
H1264 C1287 0.950 . S
H1265 C1289 0.950 . S
H1266 C1290 0.950 . S
H1267 C1291 0.951 . S
H1268 C1293 0.951 . S
H1269 C1295 0.950 . S
H1270 C1296 0.950 . S
H1271 C1298 0.950 . S
H1272 C1301 0.950 . S
H1273 C1302 0.950 . S
H1274 C1304 0.950 . S
H1275 C1305 0.950 . S
C1276 H1258 0.951 . S
C1276 C1277 1.366 . S
C1276 C1278 1.388 . S
C1277 C1276 1.366 . S
C1277 C1281 1.385 . S
C1278 H1259 0.951 . S
C1278 C1276 1.388 . S
C1278 C1279 1.366 . S
C1279 C1278 1.366 . S
C1279 C1280 1.414 . S
C1279 C1282 1.499 . S
C1280 H1260 0.950 . S
C1280 C1279 1.414 . S
C1280 C1281 1.374 . S
C1281 H1261 0.950 . S
C1281 C1277 1.385 . S
C1281 C1280 1.374 . S
C1282 C1279 1.499 . S
C1282 C1283 1.373 . S
C1282 C1284 1.389 . S
C1283 H1262 0.950 . S
C1283 C1282 1.373 . S
C1283 C1299 1.377 . S
C1284 C1282 1.389 . S
C1284 C1285 1.524 . S
C1284 C1298 1.377 . S
C1285 C1284 1.524 . S
C1285 C1286 1.397 . S
C1285 C1290 1.363 . S
C1286 H1263 0.950 . S
C1286 C1285 1.397 . S
C1286 C1287 1.334 . S
C1287 H1264 0.950 . S
C1287 C1286 1.334 . S
C1287 C1288 1.287 . S
C1288 C1287 1.287 . S
C1288 C1289 1.524 . S
C1288 H1307 0.913 . S
C1289 H1265 0.950 . S
C1289 C1288 1.524 . S
C1289 C1290 1.415 . S
C1290 H1266 0.950 . S
C1290 C1285 1.363 . S
C1290 C1289 1.415 . S
C1291 H1267 0.951 . S
C1291 C1292 1.366 . S
C1291 C1293 1.388 . S
C1292 C1291 1.366 . S
C1292 C1296 1.385 . S
C1293 H1268 0.951 . S
C1293 C1291 1.388 . S
C1293 C1294 1.366 . S
C1294 C1293 1.366 . S
C1294 C1295 1.414 . S
C1294 C1297 1.499 . S
C1295 H1269 0.950 . S
C1295 C1294 1.414 . S
C1295 C1296 1.374 . S
C1296 H1270 0.950 . S
C1296 C1292 1.385 . S
C1296 C1295 1.374 . S
C1297 C1294 1.499 . S
C1297 C1298 1.373 . S
C1297 C1299 1.389 . S
C1298 H1271 0.950 . S
C1298 C1284 1.377 . S
C1298 C1297 1.373 . S
C1299 C1283 1.377 . S
C1299 C1297 1.389 . S
C1299 C1300 1.524 . S
C1300 C1299 1.524 . S
C1300 C1301 1.397 . S
C1300 C1305 1.363 . S
C1301 H1272 0.950 . S
C1301 C1300 1.397 . S
C1301 C1302 1.334 . S
C1302 H1273 0.950 . S
C1302 C1301 1.334 . S
C1302 C1303 1.287 . S
C1303 C1302 1.287 . S
C1303 C1304 1.524 . S
C1303 H1306 0.999 . S
C1304 H1274 0.950 . S
C1304 C1303 1.524 . S
C1304 C1305 1.415 . S
C1305 H1275 0.950 . S
C1305 C1300 1.363 . S
C1305 C1304 1.415 . S
H1306 C1303 0.999 . S
H1307 C1288 0.913 . S
H1308 C1326 0.951 . S
H1309 C1328 0.951 . S
H1310 C1330 0.950 . S
H1311 C1331 0.950 . S
H1312 C1333 0.950 . S
H1313 C1336 0.950 . S
H1314 C1337 0.950 . S
H1315 C1339 0.950 . S
H1316 C1340 0.950 . S
H1317 C1341 0.951 . S
H1318 C1343 0.951 . S
H1319 C1345 0.950 . S
H1320 C1346 0.950 . S
H1321 C1348 0.950 . S
H1322 C1351 0.950 . S
H1323 C1352 0.950 . S
H1324 C1354 0.950 . S
H1325 C1355 0.950 . S
C1326 H1308 0.951 . S
C1326 C1327 1.366 . S
C1326 C1328 1.388 . S
C1327 C1326 1.366 . S
C1327 C1331 1.385 . S
C1328 H1309 0.951 . S
C1328 C1326 1.388 . S
C1328 C1329 1.366 . S
C1329 C1328 1.366 . S
C1329 C1330 1.414 . S
C1329 C1332 1.499 . S
C1330 H1310 0.950 . S
C1330 C1329 1.414 . S
C1330 C1331 1.374 . S
C1331 H1311 0.950 . S
C1331 C1327 1.385 . S
C1331 C1330 1.374 . S
C1332 C1329 1.499 . S
C1332 C1333 1.373 . S
C1332 C1334 1.389 . S
C1333 H1312 0.950 . S
C1333 C1332 1.373 . S
C1333 C1349 1.377 1_556 S
C1334 C1332 1.389 . S
C1334 C1335 1.524 . S
C1334 C1348 1.377 1_556 S
C1335 C1334 1.524 . S
C1335 C1336 1.397 . S
C1335 C1340 1.363 . S
C1336 H1313 0.950 . S
C1336 C1335 1.397 . S
C1336 C1337 1.334 . S
C1337 H1314 0.950 . S
C1337 C1336 1.334 . S
C1337 C1338 1.287 . S
C1338 C1337 1.287 . S
C1338 C1339 1.524 . S
C1338 H1357 0.913 . S
C1339 H1315 0.950 . S
C1339 C1338 1.524 . S
C1339 C1340 1.415 . S
C1340 H1316 0.950 . S
C1340 C1335 1.363 . S
C1340 C1339 1.415 . S
C1341 H1317 0.951 . S
C1341 C1342 1.366 . S
C1341 C1343 1.388 . S
C1342 C1341 1.366 . S
C1342 C1346 1.385 . S
C1343 H1318 0.951 . S
C1343 C1341 1.388 . S
C1343 C1344 1.366 . S
C1344 C1343 1.366 . S
C1344 C1345 1.414 . S
C1344 C1347 1.499 . S
C1345 H1319 0.950 . S
C1345 C1344 1.414 . S
C1345 C1346 1.374 . S
C1346 H1320 0.950 . S
C1346 C1342 1.385 . S
C1346 C1345 1.374 . S
C1347 C1344 1.499 . S
C1347 C1348 1.373 . S
C1347 C1349 1.389 . S
C1348 H1321 0.950 . S
C1348 C1334 1.377 1_554 S
C1348 C1347 1.373 . S
C1349 C1333 1.377 1_554 S
C1349 C1347 1.389 . S
C1349 C1350 1.524 . S
C1350 C1349 1.524 . S
C1350 C1351 1.397 . S
C1350 C1355 1.363 . S
C1351 H1322 0.950 . S
C1351 C1350 1.397 . S
C1351 C1352 1.334 . S
C1352 H1323 0.950 . S
C1352 C1351 1.334 . S
C1352 C1353 1.287 . S
C1353 C1352 1.287 . S
C1353 C1354 1.524 . S
C1353 H1356 0.999 . S
C1354 H1324 0.950 . S
C1354 C1353 1.524 . S
C1354 C1355 1.415 . S
C1355 H1325 0.950 . S
C1355 C1350 1.363 . S
C1355 C1354 1.415 . S
H1356 C1353 0.999 . S
H1357 C1338 0.913 . S
H1358 C1376 0.951 . S
H1359 C1378 0.951 . S
H1360 C1380 0.950 . S
H1361 C1381 0.950 . S
H1362 C1383 0.950 . S
H1363 C1386 0.950 . S
H1364 C1387 0.950 . S
H1365 C1389 0.950 . S
H1366 C1390 0.950 . S
H1367 C1391 0.951 . S
H1368 C1393 0.951 . S
H1369 C1395 0.950 . S
H1370 C1396 0.950 . S
H1371 C1398 0.950 . S
H1372 C1401 0.950 . S
H1373 C1402 0.950 . S
H1374 C1404 0.950 . S
H1375 C1405 0.950 . S
C1376 H1358 0.951 . S
C1376 C1377 1.366 . S
C1376 C1378 1.388 . S
C1377 C1376 1.366 . S
C1377 C1381 1.385 . S
C1378 H1359 0.951 . S
C1378 C1376 1.388 . S
C1378 C1379 1.366 . S
C1379 C1378 1.366 . S
C1379 C1380 1.414 . S
C1379 C1382 1.499 . S
C1380 H1360 0.950 . S
C1380 C1379 1.414 . S
C1380 C1381 1.374 . S
C1381 H1361 0.950 . S
C1381 C1377 1.385 . S
C1381 C1380 1.374 . S
C1382 C1379 1.499 . S
C1382 C1383 1.373 . S
C1382 C1384 1.389 . S
C1383 H1362 0.950 . S
C1383 C1382 1.373 . S
C1383 C1399 1.377 . S
C1384 C1382 1.389 . S
C1384 C1385 1.524 . S
C1384 C1398 1.377 . S
C1385 C1384 1.524 . S
C1385 C1386 1.397 . S
C1385 C1390 1.363 . S
C1386 H1363 0.950 . S
C1386 C1385 1.397 . S
C1386 C1387 1.334 . S
C1387 H1364 0.950 . S
C1387 C1386 1.334 . S
C1387 C1388 1.287 . S
C1388 C1387 1.287 . S
C1388 C1389 1.524 . S
C1388 H1407 0.913 . S
C1389 H1365 0.950 . S
C1389 C1388 1.524 . S
C1389 C1390 1.415 . S
C1390 H1366 0.950 . S
C1390 C1385 1.363 . S
C1390 C1389 1.415 . S
C1391 H1367 0.951 . S
C1391 C1392 1.366 . S
C1391 C1393 1.388 . S
C1392 C1391 1.366 . S
C1392 C1396 1.385 . S
C1393 H1368 0.951 . S
C1393 C1391 1.388 . S
C1393 C1394 1.366 . S
C1394 C1393 1.366 . S
C1394 C1395 1.414 . S
C1394 C1397 1.499 . S
C1395 H1369 0.950 . S
C1395 C1394 1.414 . S
C1395 C1396 1.374 . S
C1396 H1370 0.950 . S
C1396 C1392 1.385 . S
C1396 C1395 1.374 . S
C1397 C1394 1.499 . S
C1397 C1398 1.373 . S
C1397 C1399 1.389 . S
C1398 H1371 0.950 . S
C1398 C1384 1.377 . S
C1398 C1397 1.373 . S
C1399 C1383 1.377 . S
C1399 C1397 1.389 . S
C1399 C1400 1.524 . S
C1400 C1399 1.524 . S
C1400 C1401 1.397 . S
C1400 C1405 1.363 . S
C1401 H1372 0.950 . S
C1401 C1400 1.397 . S
C1401 C1402 1.334 . S
C1402 H1373 0.950 . S
C1402 C1401 1.334 . S
C1402 C1403 1.287 . S
C1403 C1402 1.287 . S
C1403 C1404 1.524 . S
C1403 H1406 0.999 . S
C1404 H1374 0.950 . S
C1404 C1403 1.524 . S
C1404 C1405 1.415 . S
C1405 H1375 0.950 . S
C1405 C1400 1.363 . S
C1405 C1404 1.415 . S
H1406 C1403 0.999 . S
H1407 C1388 0.913 . S
H1408 C1426 0.951 . S
H1409 C1428 0.951 . S
H1410 C1430 0.950 . S
H1411 C1431 0.950 . S
H1412 C1433 0.950 . S
H1413 C1436 0.950 . S
H1414 C1437 0.950 . S
H1415 C1439 0.950 . S
H1416 C1440 0.950 . S
H1417 C1441 0.951 . S
H1418 C1443 0.951 . S
H1419 C1445 0.950 . S
H1420 C1446 0.950 . S
H1421 C1448 0.950 . S
H1422 C1451 0.950 . S
H1423 C1452 0.950 . S
H1424 C1454 0.950 . S
H1425 C1455 0.950 . S
C1426 H1408 0.951 . S
C1426 C1427 1.366 . S
C1426 C1428 1.388 . S
C1427 C1426 1.366 . S
C1427 C1431 1.385 . S
C1428 H1409 0.951 . S
C1428 C1426 1.388 . S
C1428 C1429 1.366 . S
C1429 C1428 1.366 . S
C1429 C1430 1.414 . S
C1429 C1432 1.499 . S
C1430 H1410 0.950 . S
C1430 C1429 1.414 . S
C1430 C1431 1.374 . S
C1431 H1411 0.950 . S
C1431 C1427 1.385 . S
C1431 C1430 1.374 . S
C1432 C1429 1.499 . S
C1432 C1433 1.373 . S
C1432 C1434 1.389 . S
C1433 H1412 0.950 . S
C1433 C1432 1.373 . S
C1433 C1449 1.377 . S
C1434 C1432 1.389 . S
C1434 C1435 1.524 . S
C1434 C1448 1.377 . S
C1435 C1434 1.524 . S
C1435 C1436 1.397 . S
C1435 C1440 1.363 . S
C1436 H1413 0.950 . S
C1436 C1435 1.397 . S
C1436 C1437 1.334 . S
C1437 H1414 0.950 . S
C1437 C1436 1.334 . S
C1437 C1438 1.287 . S
C1438 C1437 1.287 . S
C1438 C1439 1.524 . S
C1438 H1457 0.913 . S
C1439 H1415 0.950 . S
C1439 C1438 1.524 . S
C1439 C1440 1.415 . S
C1440 H1416 0.950 . S
C1440 C1435 1.363 . S
C1440 C1439 1.415 . S
C1441 H1417 0.951 . S
C1441 C1442 1.366 . S
C1441 C1443 1.388 . S
C1442 C1441 1.366 . S
C1442 C1446 1.385 . S
C1443 H1418 0.951 . S
C1443 C1441 1.388 . S
C1443 C1444 1.366 . S
C1444 C1443 1.366 . S
C1444 C1445 1.414 . S
C1444 C1447 1.499 . S
C1445 H1419 0.950 . S
C1445 C1444 1.414 . S
C1445 C1446 1.374 . S
C1446 H1420 0.950 . S
C1446 C1442 1.385 . S
C1446 C1445 1.374 . S
C1447 C1444 1.499 . S
C1447 C1448 1.373 . S
C1447 C1449 1.389 . S
C1448 H1421 0.950 . S
C1448 C1434 1.377 . S
C1448 C1447 1.373 . S
C1449 C1433 1.377 . S
C1449 C1447 1.389 . S
C1449 C1450 1.524 . S
C1450 C1449 1.524 . S
C1450 C1451 1.397 . S
C1450 C1455 1.363 . S
C1451 H1422 0.950 . S
C1451 C1450 1.397 . S
C1451 C1452 1.334 . S
C1452 H1423 0.950 . S
C1452 C1451 1.334 . S
C1452 C1453 1.287 . S
C1453 C1452 1.287 . S
C1453 C1454 1.524 . S
C1453 H1456 0.999 . S
C1454 H1424 0.950 . S
C1454 C1453 1.524 . S
C1454 C1455 1.415 . S
C1455 H1425 0.950 . S
C1455 C1450 1.363 . S
C1455 C1454 1.415 . S
H1456 C1453 0.999 . S
H1457 C1438 0.913 . S
H1458 C1476 0.951 . S
H1459 C1478 0.951 . S
H1460 C1480 0.950 . S
H1461 C1481 0.950 . S
H1462 C1483 0.950 . S
H1463 C1486 0.950 . S
H1464 C1487 0.950 . S
H1465 C1489 0.950 . S
H1466 C1490 0.950 . S
H1467 C1491 0.951 . S
H1468 C1493 0.951 . S
H1469 C1495 0.950 . S
H1470 C1496 0.950 . S
H1471 C1498 0.950 . S
H1472 C1501 0.950 . S
H1473 C1502 0.950 . S
H1474 C1504 0.950 . S
H1475 C1505 0.950 . S
C1476 H1458 0.951 . S
C1476 C1477 1.366 . S
C1476 C1478 1.388 . S
C1477 C1476 1.366 . S
C1477 C1481 1.385 . S
C1478 H1459 0.951 . S
C1478 C1476 1.388 . S
C1478 C1479 1.366 . S
C1479 C1478 1.366 . S
C1479 C1480 1.414 . S
C1479 C1482 1.499 . S
C1480 H1460 0.950 . S
C1480 C1479 1.414 . S
C1480 C1481 1.374 . S
C1481 H1461 0.950 . S
C1481 C1477 1.385 . S
C1481 C1480 1.374 . S
C1482 C1479 1.499 . S
C1482 C1483 1.373 . S
C1482 C1484 1.389 . S
C1483 H1462 0.950 . S
C1483 C1482 1.373 . S
C1483 C1499 1.377 1_556 S
C1484 C1482 1.389 . S
C1484 C1485 1.524 . S
C1484 C1498 1.377 1_556 S
C1485 C1484 1.524 . S
C1485 C1486 1.397 . S
C1485 C1490 1.363 . S
C1486 H1463 0.950 . S
C1486 C1485 1.397 . S
C1486 C1487 1.334 . S
C1487 H1464 0.950 . S
C1487 C1486 1.334 . S
C1487 C1488 1.287 . S
C1488 C1487 1.287 . S
C1488 C1489 1.524 . S
C1488 H1507 0.913 . S
C1489 H1465 0.950 . S
C1489 C1488 1.524 . S
C1489 C1490 1.415 . S
C1490 H1466 0.950 . S
C1490 C1485 1.363 . S
C1490 C1489 1.415 . S
C1491 H1467 0.951 . S
C1491 C1492 1.366 . S
C1491 C1493 1.388 . S
C1492 C1491 1.366 . S
C1492 C1496 1.385 . S
C1493 H1468 0.951 . S
C1493 C1491 1.388 . S
C1493 C1494 1.366 . S
C1494 C1493 1.366 . S
C1494 C1495 1.414 . S
C1494 C1497 1.499 . S
C1495 H1469 0.950 . S
C1495 C1494 1.414 . S
C1495 C1496 1.374 . S
C1496 H1470 0.950 . S
C1496 C1492 1.385 . S
C1496 C1495 1.374 . S
C1497 C1494 1.499 . S
C1497 C1498 1.373 . S
C1497 C1499 1.389 . S
C1498 H1471 0.950 . S
C1498 C1484 1.377 1_554 S
C1498 C1497 1.373 . S
C1499 C1483 1.377 1_554 S
C1499 C1497 1.389 . S
C1499 C1500 1.524 . S
C1500 C1499 1.524 . S
C1500 C1501 1.397 . S
C1500 C1505 1.363 . S
C1501 H1472 0.950 . S
C1501 C1500 1.397 . S
C1501 C1502 1.334 . S
C1502 H1473 0.950 . S
C1502 C1501 1.334 . S
C1502 C1503 1.287 . S
C1503 C1502 1.287 . S
C1503 C1504 1.524 . S
C1503 H1506 0.999 . S
C1504 H1474 0.950 . S
C1504 C1503 1.524 . S
C1504 C1505 1.415 . S
C1505 H1475 0.950 . S
C1505 C1500 1.363 . S
C1505 C1504 1.415 . S
H1506 C1503 0.999 . S
H1507 C1488 0.913 . S
H1508 C1526 0.951 . S
H1509 C1528 0.951 . S
H1510 C1530 0.950 . S
H1511 C1531 0.950 . S
H1512 C1533 0.950 . S
H1513 C1536 0.950 . S
H1514 C1537 0.950 . S
H1515 C1539 0.950 . S
H1516 C1540 0.950 . S
H1517 C1541 0.951 . S
H1518 C1543 0.951 . S
H1519 C1545 0.950 . S
H1520 C1546 0.950 . S
H1521 C1548 0.950 . S
H1522 C1551 0.950 . S
H1523 C1552 0.950 . S
H1524 C1554 0.950 . S
H1525 C1555 0.950 . S
C1526 H1508 0.951 . S
C1526 C1527 1.366 . S
C1526 C1528 1.388 . S
C1527 C1526 1.366 . S
C1527 C1531 1.385 . S
C1528 H1509 0.951 . S
C1528 C1526 1.388 . S
C1528 C1529 1.366 . S
C1529 C1528 1.366 . S
C1529 C1530 1.414 . S
C1529 C1532 1.499 . S
C1530 H1510 0.950 . S
C1530 C1529 1.414 . S
C1530 C1531 1.374 . S
C1531 H1511 0.950 . S
C1531 C1527 1.385 . S
C1531 C1530 1.374 . S
C1532 C1529 1.499 . S
C1532 C1533 1.373 . S
C1532 C1534 1.389 . S
C1533 H1512 0.950 . S
C1533 C1532 1.373 . S
C1533 C1549 1.377 . S
C1534 C1532 1.389 . S
C1534 C1535 1.524 . S
C1534 C1548 1.377 . S
C1535 C1534 1.524 . S
C1535 C1536 1.397 . S
C1535 C1540 1.363 . S
C1536 H1513 0.950 . S
C1536 C1535 1.397 . S
C1536 C1537 1.334 . S
C1537 H1514 0.950 . S
C1537 C1536 1.334 . S
C1537 C1538 1.287 . S
C1538 C1537 1.287 . S
C1538 C1539 1.524 . S
C1538 H1557 0.913 . S
C1539 H1515 0.950 . S
C1539 C1538 1.524 . S
C1539 C1540 1.415 . S
C1540 H1516 0.950 . S
C1540 C1535 1.363 . S
C1540 C1539 1.415 . S
C1541 H1517 0.951 . S
C1541 C1542 1.366 . S
C1541 C1543 1.388 . S
C1542 C1541 1.366 . S
C1542 C1546 1.385 . S
C1543 H1518 0.951 . S
C1543 C1541 1.388 . S
C1543 C1544 1.366 . S
C1544 C1543 1.366 . S
C1544 C1545 1.414 . S
C1544 C1547 1.499 . S
C1545 H1519 0.950 . S
C1545 C1544 1.414 . S
C1545 C1546 1.374 . S
C1546 H1520 0.950 . S
C1546 C1542 1.385 . S
C1546 C1545 1.374 . S
C1547 C1544 1.499 . S
C1547 C1548 1.373 . S
C1547 C1549 1.389 . S
C1548 H1521 0.950 . S
C1548 C1534 1.377 . S
C1548 C1547 1.373 . S
C1549 C1533 1.377 . S
C1549 C1547 1.389 . S
C1549 C1550 1.524 . S
C1550 C1549 1.524 . S
C1550 C1551 1.397 . S
C1550 C1555 1.363 . S
C1551 H1522 0.950 . S
C1551 C1550 1.397 . S
C1551 C1552 1.334 . S
C1552 H1523 0.950 . S
C1552 C1551 1.334 . S
C1552 C1553 1.287 . S
C1553 C1552 1.287 . S
C1553 C1554 1.524 . S
C1553 H1556 0.999 . S
C1554 H1524 0.950 . S
C1554 C1553 1.524 . S
C1554 C1555 1.415 . S
C1555 H1525 0.950 . S
C1555 C1550 1.363 . S
C1555 C1554 1.415 . S
H1556 C1553 0.999 . S
H1557 C1538 0.913 . S
H1558 C1576 0.951 . S
H1559 C1578 0.951 . S
H1560 C1580 0.950 . S
H1561 C1581 0.950 . S
H1562 C1583 0.950 . S
H1563 C1586 0.950 . S
H1564 C1587 0.950 . S
H1565 C1589 0.950 . S
H1566 C1590 0.950 . S
H1567 C1591 0.951 . S
H1568 C1593 0.951 . S
H1569 C1595 0.950 . S
H1570 C1596 0.950 . S
H1571 C1598 0.950 . S
H1572 C1601 0.950 . S
H1573 C1602 0.950 . S
H1574 C1604 0.950 . S
H1575 C1605 0.950 . S
C1576 H1558 0.951 . S
C1576 C1577 1.366 . S
C1576 C1578 1.388 . S
C1577 C1576 1.366 . S
C1577 C1581 1.385 . S
C1578 H1559 0.951 . S
C1578 C1576 1.388 . S
C1578 C1579 1.366 . S
C1579 C1578 1.366 . S
C1579 C1580 1.414 . S
C1579 C1582 1.499 . S
C1580 H1560 0.950 . S
C1580 C1579 1.414 . S
C1580 C1581 1.374 . S
C1581 H1561 0.950 . S
C1581 C1577 1.385 . S
C1581 C1580 1.374 . S
C1582 C1579 1.499 . S
C1582 C1583 1.373 . S
C1582 C1584 1.389 . S
C1583 H1562 0.950 . S
C1583 C1582 1.373 . S
C1583 C1599 1.377 . S
C1584 C1582 1.389 . S
C1584 C1585 1.524 . S
C1584 C1598 1.377 . S
C1585 C1584 1.524 . S
C1585 C1586 1.397 . S
C1585 C1590 1.363 . S
C1586 H1563 0.950 . S
C1586 C1585 1.397 . S
C1586 C1587 1.334 . S
C1587 H1564 0.950 . S
C1587 C1586 1.334 . S
C1587 C1588 1.287 . S
C1588 C1587 1.287 . S
C1588 C1589 1.524 . S
C1588 H1607 0.913 . S
C1589 H1565 0.950 . S
C1589 C1588 1.524 . S
C1589 C1590 1.415 . S
C1590 H1566 0.950 . S
C1590 C1585 1.363 . S
C1590 C1589 1.415 . S
C1591 H1567 0.951 . S
C1591 C1592 1.366 . S
C1591 C1593 1.388 . S
C1592 C1591 1.366 . S
C1592 C1596 1.385 . S
C1593 H1568 0.951 . S
C1593 C1591 1.388 . S
C1593 C1594 1.366 . S
C1594 C1593 1.366 . S
C1594 C1595 1.414 . S
C1594 C1597 1.499 . S
C1595 H1569 0.950 . S
C1595 C1594 1.414 . S
C1595 C1596 1.374 . S
C1596 H1570 0.950 . S
C1596 C1592 1.385 . S
C1596 C1595 1.374 . S
C1597 C1594 1.499 . S
C1597 C1598 1.373 . S
C1597 C1599 1.389 . S
C1598 H1571 0.950 . S
C1598 C1584 1.377 . S
C1598 C1597 1.373 . S
C1599 C1583 1.377 . S
C1599 C1597 1.389 . S
C1599 C1600 1.524 . S
C1600 C1599 1.524 . S
C1600 C1601 1.397 . S
C1600 C1605 1.363 . S
C1601 H1572 0.950 . S
C1601 C1600 1.397 . S
C1601 C1602 1.334 . S
C1602 H1573 0.950 . S
C1602 C1601 1.334 . S
C1602 C1603 1.287 . S
C1603 C1602 1.287 . S
C1603 C1604 1.524 . S
C1603 H1606 0.999 . S
C1604 H1574 0.950 . S
C1604 C1603 1.524 . S
C1604 C1605 1.415 . S
C1605 H1575 0.950 . S
C1605 C1600 1.363 . S
C1605 C1604 1.415 . S
H1606 C1603 0.999 . S
H1607 C1588 0.913 . S
H1608 C1626 0.951 . S
H1609 C1628 0.951 . S
H1610 C1630 0.950 . S
H1611 C1631 0.950 . S
H1612 C1633 0.950 . S
H1613 C1636 0.950 1_565 S
H1614 C1637 0.950 . S
H1615 C1639 0.950 . S
H1616 C1640 0.950 . S
H1617 C1641 0.951 . S
H1618 C1643 0.951 . S
H1619 C1645 0.950 . S
H1620 C1646 0.950 . S
H1621 C1648 0.950 . S
H1622 C1651 0.950 1_545 S
H1623 C1652 0.950 . S
H1624 C1654 0.950 . S
H1625 C1655 0.950 . S
C1626 H1608 0.951 . S
C1626 C1627 1.366 . S
C1626 C1628 1.388 . S
C1627 C1626 1.366 . S
C1627 C1631 1.385 . S
C1628 H1609 0.951 . S
C1628 C1626 1.388 . S
C1628 C1629 1.366 . S
C1629 C1628 1.366 . S
C1629 C1630 1.414 . S
C1629 C1632 1.499 . S
C1630 H1610 0.950 . S
C1630 C1629 1.414 . S
C1630 C1631 1.374 . S
C1631 H1611 0.950 . S
C1631 C1627 1.385 . S
C1631 C1630 1.374 . S
C1632 C1629 1.499 . S
C1632 C1633 1.373 . S
C1632 C1634 1.389 1_565 S
C1633 H1612 0.950 . S
C1633 C1632 1.373 . S
C1633 C1649 1.377 1_556 S
C1634 C1632 1.389 1_545 S
C1634 C1635 1.524 . S
C1634 C1648 1.377 1_556 S
C1635 C1634 1.524 . S
C1635 C1636 1.397 . S
C1635 C1640 1.363 . S
C1636 H1613 0.950 1_545 S
C1636 C1635 1.397 . S
C1636 C1637 1.334 . S
C1637 H1614 0.950 . S
C1637 C1636 1.334 . S
C1637 C1638 1.287 . S
C1638 C1637 1.287 . S
C1638 C1639 1.524 . S
C1638 H1657 0.913 . S
C1639 H1615 0.950 . S
C1639 C1638 1.524 . S
C1639 C1640 1.415 . S
C1640 H1616 0.950 . S
C1640 C1635 1.363 . S
C1640 C1639 1.415 . S
C1641 H1617 0.951 . S
C1641 C1642 1.366 . S
C1641 C1643 1.388 . S
C1642 C1641 1.366 . S
C1642 C1646 1.385 . S
C1643 H1618 0.951 . S
C1643 C1641 1.388 . S
C1643 C1644 1.366 . S
C1644 C1643 1.366 . S
C1644 C1645 1.414 . S
C1644 C1647 1.499 . S
C1645 H1619 0.950 . S
C1645 C1644 1.414 . S
C1645 C1646 1.374 . S
C1646 H1620 0.950 . S
C1646 C1642 1.385 . S
C1646 C1645 1.374 . S
C1647 C1644 1.499 . S
C1647 C1648 1.373 . S
C1647 C1649 1.389 1_545 S
C1648 H1621 0.950 . S
C1648 C1634 1.377 1_554 S
C1648 C1647 1.373 . S
C1649 C1633 1.377 1_554 S
C1649 C1647 1.389 1_565 S
C1649 C1650 1.524 . S
C1650 C1649 1.524 . S
C1650 C1651 1.397 . S
C1650 C1655 1.363 . S
C1651 H1622 0.950 1_565 S
C1651 C1650 1.397 . S
C1651 C1652 1.334 . S
C1652 H1623 0.950 . S
C1652 C1651 1.334 . S
C1652 C1653 1.287 . S
C1653 C1652 1.287 . S
C1653 C1654 1.524 . S
C1653 H1656 0.999 . S
C1654 H1624 0.950 . S
C1654 C1653 1.524 . S
C1654 C1655 1.415 . S
C1655 H1625 0.950 . S
C1655 C1650 1.363 . S
C1655 C1654 1.415 . S
H1656 C1653 0.999 . S
H1657 C1638 0.913 . S
H1658 C1676 0.951 . S
H1659 C1678 0.951 . S
H1660 C1680 0.950 . S
H1661 C1681 0.950 . S
H1662 C1683 0.950 . S
H1663 C1686 0.950 . S
H1664 C1687 0.950 . S
H1665 C1689 0.950 . S
H1666 C1690 0.950 . S
H1667 C1691 0.951 . S
H1668 C1693 0.951 . S
H1669 C1695 0.950 . S
H1670 C1696 0.950 . S
H1671 C1698 0.950 . S
H1672 C1701 0.950 . S
H1673 C1702 0.950 . S
H1674 C1704 0.950 . S
H1675 C1705 0.950 . S
C1676 H1658 0.951 . S
C1676 C1677 1.366 . S
C1676 C1678 1.388 . S
C1677 C1676 1.366 . S
C1677 C1681 1.385 . S
C1678 H1659 0.951 . S
C1678 C1676 1.388 . S
C1678 C1679 1.366 . S
C1679 C1678 1.366 . S
C1679 C1680 1.414 . S
C1679 C1682 1.499 . S
C1680 H1660 0.950 . S
C1680 C1679 1.414 . S
C1680 C1681 1.374 . S
C1681 H1661 0.950 . S
C1681 C1677 1.385 . S
C1681 C1680 1.374 . S
C1682 C1679 1.499 . S
C1682 C1683 1.373 . S
C1682 C1684 1.389 . S
C1683 H1662 0.950 . S
C1683 C1682 1.373 . S
C1683 C1699 1.377 . S
C1684 C1682 1.389 . S
C1684 C1685 1.524 . S
C1684 C1698 1.377 . S
C1685 C1684 1.524 . S
C1685 C1686 1.397 . S
C1685 C1690 1.363 . S
C1686 H1663 0.950 . S
C1686 C1685 1.397 . S
C1686 C1687 1.334 . S
C1687 H1664 0.950 . S
C1687 C1686 1.334 . S
C1687 C1688 1.287 . S
C1688 C1687 1.287 . S
C1688 C1689 1.524 . S
C1688 H1707 0.913 . S
C1689 H1665 0.950 . S
C1689 C1688 1.524 . S
C1689 C1690 1.415 . S
C1690 H1666 0.950 . S
C1690 C1685 1.363 . S
C1690 C1689 1.415 . S
C1691 H1667 0.951 . S
C1691 C1692 1.366 . S
C1691 C1693 1.388 . S
C1692 C1691 1.366 . S
C1692 C1696 1.385 . S
C1693 H1668 0.951 . S
C1693 C1691 1.388 . S
C1693 C1694 1.366 . S
C1694 C1693 1.366 . S
C1694 C1695 1.414 . S
C1694 C1697 1.499 . S
C1695 H1669 0.950 . S
C1695 C1694 1.414 . S
C1695 C1696 1.374 . S
C1696 H1670 0.950 . S
C1696 C1692 1.385 . S
C1696 C1695 1.374 . S
C1697 C1694 1.499 . S
C1697 C1698 1.373 . S
C1697 C1699 1.389 . S
C1698 H1671 0.950 . S
C1698 C1684 1.377 . S
C1698 C1697 1.373 . S
C1699 C1683 1.377 . S
C1699 C1697 1.389 . S
C1699 C1700 1.524 . S
C1700 C1699 1.524 . S
C1700 C1701 1.397 . S
C1700 C1705 1.363 . S
C1701 H1672 0.950 . S
C1701 C1700 1.397 . S
C1701 C1702 1.334 . S
C1702 H1673 0.950 . S
C1702 C1701 1.334 . S
C1702 C1703 1.287 . S
C1703 C1702 1.287 . S
C1703 C1704 1.524 . S
C1703 H1706 0.999 . S
C1704 H1674 0.950 . S
C1704 C1703 1.524 . S
C1704 C1705 1.415 . S
C1705 H1675 0.950 . S
C1705 C1700 1.363 . S
C1705 C1704 1.415 . S
H1706 C1703 0.999 . S
H1707 C1688 0.913 . S
H1708 C1726 0.951 . S
H1709 C1728 0.951 . S
H1710 C1730 0.950 . S
H1711 C1731 0.950 . S
H1712 C1733 0.950 . S
H1713 C1736 0.950 . S
H1714 C1737 0.950 . S
H1715 C1739 0.950 . S
H1716 C1740 0.950 . S
H1717 C1741 0.951 . S
H1718 C1743 0.951 . S
H1719 C1745 0.950 . S
H1720 C1746 0.950 . S
H1721 C1748 0.950 . S
H1722 C1751 0.950 . S
H1723 C1752 0.950 . S
H1724 C1754 0.950 . S
H1725 C1755 0.950 . S
C1726 H1708 0.951 . S
C1726 C1727 1.366 . S
C1726 C1728 1.388 . S
C1727 C1726 1.366 . S
C1727 C1731 1.385 . S
C1728 H1709 0.951 . S
C1728 C1726 1.388 . S
C1728 C1729 1.366 . S
C1729 C1728 1.366 . S
C1729 C1730 1.414 . S
C1729 C1732 1.499 . S
C1730 H1710 0.950 . S
C1730 C1729 1.414 . S
C1730 C1731 1.374 . S
C1731 H1711 0.950 . S
C1731 C1727 1.385 . S
C1731 C1730 1.374 . S
C1732 C1729 1.499 . S
C1732 C1733 1.373 . S
C1732 C1734 1.389 1_455 S
C1733 H1712 0.950 . S
C1733 C1732 1.373 . S
C1733 C1749 1.377 . S
C1734 C1732 1.389 1_655 S
C1734 C1735 1.524 . S
C1734 C1748 1.377 . S
C1735 C1734 1.524 . S
C1735 C1736 1.397 . S
C1735 C1740 1.363 . S
C1736 H1713 0.950 . S
C1736 C1735 1.397 . S
C1736 C1737 1.334 . S
C1737 H1714 0.950 . S
C1737 C1736 1.334 . S
C1737 C1738 1.287 . S
C1738 C1737 1.287 . S
C1738 C1739 1.524 . S
C1738 H1757 0.913 . S
C1739 H1715 0.950 . S
C1739 C1738 1.524 . S
C1739 C1740 1.415 . S
C1740 H1716 0.950 . S
C1740 C1735 1.363 . S
C1740 C1739 1.415 . S
C1741 H1717 0.951 . S
C1741 C1742 1.366 . S
C1741 C1743 1.388 . S
C1742 C1741 1.366 . S
C1742 C1746 1.385 . S
C1743 H1718 0.951 . S
C1743 C1741 1.388 . S
C1743 C1744 1.366 . S
C1744 C1743 1.366 . S
C1744 C1745 1.414 . S
C1744 C1747 1.499 . S
C1745 H1719 0.950 . S
C1745 C1744 1.414 . S
C1745 C1746 1.374 . S
C1746 H1720 0.950 . S
C1746 C1742 1.385 . S
C1746 C1745 1.374 . S
C1747 C1744 1.499 . S
C1747 C1748 1.373 . S
C1747 C1749 1.389 1_655 S
C1748 H1721 0.950 . S
C1748 C1734 1.377 . S
C1748 C1747 1.373 . S
C1749 C1733 1.377 . S
C1749 C1747 1.389 1_455 S
C1749 C1750 1.524 . S
C1750 C1749 1.524 . S
C1750 C1751 1.397 . S
C1750 C1755 1.363 . S
C1751 H1722 0.950 . S
C1751 C1750 1.397 . S
C1751 C1752 1.334 . S
C1752 H1723 0.950 . S
C1752 C1751 1.334 . S
C1752 C1753 1.287 . S
C1753 C1752 1.287 . S
C1753 C1754 1.524 . S
C1753 H1756 0.999 . S
C1754 H1724 0.950 . S
C1754 C1753 1.524 . S
C1754 C1755 1.415 . S
C1755 H1725 0.950 . S
C1755 C1750 1.363 . S
C1755 C1754 1.415 . S
H1756 C1753 0.999 . S
H1757 C1738 0.913 . S
H1758 C1776 0.951 . S
H1759 C1778 0.951 . S
H1760 C1780 0.950 . S
H1761 C1781 0.950 . S
H1762 C1783 0.950 . S
H1763 C1786 0.950 . S
H1764 C1787 0.950 . S
H1765 C1789 0.950 . S
H1766 C1790 0.950 1_545 S
H1767 C1791 0.951 . S
H1768 C1793 0.951 . S
H1769 C1795 0.950 . S
H1770 C1796 0.950 . S
H1771 C1798 0.950 . S
H1772 C1801 0.950 . S
H1773 C1802 0.950 . S
H1774 C1804 0.950 . S
H1775 C1805 0.950 1_565 S
C1776 H1758 0.951 . S
C1776 C1777 1.366 . S
C1776 C1778 1.388 . S
C1777 C1776 1.366 . S
C1777 C1781 1.385 . S
C1778 H1759 0.951 . S
C1778 C1776 1.388 . S
C1778 C1779 1.366 . S
C1779 C1778 1.366 . S
C1779 C1780 1.414 . S
C1779 C1782 1.499 . S
C1780 H1760 0.950 . S
C1780 C1779 1.414 . S
C1780 C1781 1.374 . S
C1781 H1761 0.950 . S
C1781 C1777 1.385 . S
C1781 C1780 1.374 . S
C1782 C1779 1.499 . S
C1782 C1783 1.373 . S
C1782 C1784 1.389 . S
C1783 H1762 0.950 . S
C1783 C1782 1.373 . S
C1783 C1799 1.377 1_564 S
C1784 C1782 1.389 . S
C1784 C1785 1.524 . S
C1784 C1798 1.377 1_564 S
C1785 C1784 1.524 . S
C1785 C1786 1.397 . S
C1785 C1790 1.363 . S
C1786 H1763 0.950 . S
C1786 C1785 1.397 . S
C1786 C1787 1.334 . S
C1787 H1764 0.950 . S
C1787 C1786 1.334 . S
C1787 C1788 1.287 . S
C1788 C1787 1.287 . S
C1788 C1789 1.524 . S
C1788 H1807 0.913 . S
C1789 H1765 0.950 . S
C1789 C1788 1.524 . S
C1789 C1790 1.415 . S
C1790 H1766 0.950 1_565 S
C1790 C1785 1.363 . S
C1790 C1789 1.415 . S
C1791 H1767 0.951 . S
C1791 C1792 1.366 . S
C1791 C1793 1.388 . S
C1792 C1791 1.366 . S
C1792 C1796 1.385 . S
C1793 H1768 0.951 . S
C1793 C1791 1.388 . S
C1793 C1794 1.366 . S
C1794 C1793 1.366 . S
C1794 C1795 1.414 . S
C1794 C1797 1.499 . S
C1795 H1769 0.950 . S
C1795 C1794 1.414 . S
C1795 C1796 1.374 . S
C1796 H1770 0.950 . S
C1796 C1792 1.385 . S
C1796 C1795 1.374 . S
C1797 C1794 1.499 . S
C1797 C1798 1.373 . S
C1797 C1799 1.389 . S
C1798 H1771 0.950 . S
C1798 C1784 1.377 1_546 S
C1798 C1797 1.373 . S
C1799 C1783 1.377 1_546 S
C1799 C1797 1.389 . S
C1799 C1800 1.524 . S
C1800 C1799 1.524 . S
C1800 C1801 1.397 . S
C1800 C1805 1.363 . S
C1801 H1772 0.950 . S
C1801 C1800 1.397 . S
C1801 C1802 1.334 . S
C1802 H1773 0.950 . S
C1802 C1801 1.334 . S
C1802 C1803 1.287 . S
C1803 C1802 1.287 . S
C1803 C1804 1.524 . S
C1803 H1806 0.999 . S
C1804 H1774 0.950 . S
C1804 C1803 1.524 . S
C1804 C1805 1.415 . S
C1805 H1775 0.950 1_545 S
C1805 C1800 1.363 . S
C1805 C1804 1.415 . S
H1806 C1803 0.999 . S
H1807 C1788 0.913 . S
H1808 C1826 0.951 . S
H1809 C1828 0.951 . S
H1810 C1830 0.950 . S
H1811 C1831 0.950 . S
H1812 C1833 0.950 . S
H1813 C1836 0.950 . S
H1814 C1837 0.950 . S
H1815 C1839 0.950 . S
H1816 C1840 0.950 . S
H1817 C1841 0.951 . S
H1818 C1843 0.951 . S
H1819 C1845 0.950 . S
H1820 C1846 0.950 . S
H1821 C1848 0.950 . S
H1822 C1851 0.950 . S
H1823 C1852 0.950 . S
H1824 C1854 0.950 . S
H1825 C1855 0.950 . S
C1826 H1808 0.951 . S
C1826 C1827 1.366 . S
C1826 C1828 1.388 . S
C1827 C1826 1.366 . S
C1827 C1831 1.385 . S
C1828 H1809 0.951 . S
C1828 C1826 1.388 . S
C1828 C1829 1.366 . S
C1829 C1828 1.366 . S
C1829 C1830 1.414 . S
C1829 C1832 1.499 . S
C1830 H1810 0.950 . S
C1830 C1829 1.414 . S
C1830 C1831 1.374 . S
C1831 H1811 0.950 . S
C1831 C1827 1.385 . S
C1831 C1830 1.374 . S
C1832 C1829 1.499 . S
C1832 C1833 1.373 . S
C1832 C1834 1.389 . S
C1833 H1812 0.950 . S
C1833 C1832 1.373 . S
C1833 C1849 1.377 . S
C1834 C1832 1.389 . S
C1834 C1835 1.524 . S
C1834 C1848 1.377 . S
C1835 C1834 1.524 . S
C1835 C1836 1.397 . S
C1835 C1840 1.363 . S
C1836 H1813 0.950 . S
C1836 C1835 1.397 . S
C1836 C1837 1.334 . S
C1837 H1814 0.950 . S
C1837 C1836 1.334 . S
C1837 C1838 1.287 . S
C1838 C1837 1.287 . S
C1838 C1839 1.524 . S
C1838 H1857 0.913 . S
C1839 H1815 0.950 . S
C1839 C1838 1.524 . S
C1839 C1840 1.415 . S
C1840 H1816 0.950 . S
C1840 C1835 1.363 . S
C1840 C1839 1.415 . S
C1841 H1817 0.951 . S
C1841 C1842 1.366 . S
C1841 C1843 1.388 . S
C1842 C1841 1.366 . S
C1842 C1846 1.385 . S
C1843 H1818 0.951 . S
C1843 C1841 1.388 . S
C1843 C1844 1.366 . S
C1844 C1843 1.366 . S
C1844 C1845 1.414 . S
C1844 C1847 1.499 . S
C1845 H1819 0.950 . S
C1845 C1844 1.414 . S
C1845 C1846 1.374 . S
C1846 H1820 0.950 . S
C1846 C1842 1.385 . S
C1846 C1845 1.374 . S
C1847 C1844 1.499 . S
C1847 C1848 1.373 . S
C1847 C1849 1.389 . S
C1848 H1821 0.950 . S
C1848 C1834 1.377 . S
C1848 C1847 1.373 . S
C1849 C1833 1.377 . S
C1849 C1847 1.389 . S
C1849 C1850 1.524 . S
C1850 C1849 1.524 . S
C1850 C1851 1.397 . S
C1850 C1855 1.363 . S
C1851 H1822 0.950 . S
C1851 C1850 1.397 . S
C1851 C1852 1.334 . S
C1852 H1823 0.950 . S
C1852 C1851 1.334 . S
C1852 C1853 1.287 . S
C1853 C1852 1.287 . S
C1853 C1854 1.524 . S
C1853 H1856 0.999 . S
C1854 H1824 0.950 . S
C1854 C1853 1.524 . S
C1854 C1855 1.415 . S
C1855 H1825 0.950 . S
C1855 C1850 1.363 . S
C1855 C1854 1.415 . S
H1856 C1853 0.999 . S
H1857 C1838 0.913 . S
H1858 C1876 0.951 . S
H1859 C1878 0.983 . S
H1860 C1880 0.950 . S
H1861 C1881 0.950 . S
H1862 C1883 0.950 . S
H1863 C1886 0.950 . S
H1864 C1887 0.950 . S
H1865 C1889 0.950 . S
H1866 C1890 0.950 . S
H1867 C1891 0.951 . S
H1868 C1893 0.984 . S
H1869 C1895 0.950 . S
H1870 C1896 0.950 . S
H1871 C1898 0.950 . S
H1872 C1901 0.950 . S
H1873 C1902 0.950 . S
H1874 C1904 0.950 . S
H1875 C1905 0.950 . S
C1876 H1858 0.951 . S
C1876 C1877 1.366 . S
C1876 C1878 1.388 . S
C1877 C1876 1.366 . S
C1877 C1881 1.385 . S
C1878 H1859 0.983 . S
C1878 C1876 1.388 . S
C1878 C1879 1.366 . S
C1879 C1878 1.366 . S
C1879 C1880 1.414 . S
C1879 C1882 1.499 . S
C1880 H1860 0.950 . S
C1880 C1879 1.414 . S
C1880 C1881 1.374 . S
C1881 H1861 0.950 . S
C1881 C1877 1.385 . S
C1881 C1880 1.374 . S
C1882 C1879 1.499 . S
C1882 C1883 1.373 . S
C1882 C1884 1.387 1_455 S
C1883 H1862 0.950 . S
C1883 C1882 1.373 . S
C1883 C1899 1.386 . S
C1884 C1882 1.387 1_655 S
C1884 C1885 1.531 . S
C1884 C1898 1.387 . S
C1885 C1884 1.531 . S
C1885 C1886 1.362 1_655 S
C1885 C1890 1.381 . S
C1886 H1863 0.950 . S
C1886 C1885 1.362 1_455 S
C1886 C1887 1.334 . S
C1887 H1864 0.950 . S
C1887 C1886 1.334 . S
C1887 C1888 1.287 . S
C1888 C1887 1.287 . S
C1888 C1889 1.524 1_455 S
C1888 H1907 0.913 . S
C1889 H1865 0.950 . S
C1889 C1888 1.524 1_655 S
C1889 C1890 1.415 . S
C1890 H1866 0.950 . S
C1890 C1885 1.381 . S
C1890 C1889 1.415 . S
C1891 H1867 0.951 . S
C1891 C1892 1.366 . S
C1891 C1893 1.388 . S
C1892 C1891 1.366 . S
C1892 C1896 1.385 . S
C1893 H1868 0.984 . S
C1893 C1891 1.388 . S
C1893 C1894 1.366 . S
C1894 C1893 1.366 . S
C1894 C1895 1.414 . S
C1894 C1897 1.499 . S
C1895 H1869 0.950 . S
C1895 C1894 1.414 . S
C1895 C1896 1.374 . S
C1896 H1870 0.950 . S
C1896 C1892 1.385 . S
C1896 C1895 1.374 . S
C1897 C1894 1.499 . S
C1897 C1898 1.373 . S
C1897 C1899 1.387 1_655 S
C1898 H1871 0.950 . S
C1898 C1884 1.387 . S
C1898 C1897 1.373 . S
C1899 C1883 1.386 . S
C1899 C1897 1.387 1_455 S
C1899 C1900 1.531 . S
C1900 C1899 1.531 . S
C1900 C1901 1.365 1_455 S
C1900 C1905 1.380 . S
C1901 H1872 0.950 . S
C1901 C1900 1.365 1_655 S
C1901 C1902 1.334 . S
C1902 H1873 0.950 . S
C1902 C1901 1.334 . S
C1902 C1903 1.287 . S
C1903 C1902 1.287 . S
C1903 C1904 1.524 1_655 S
C1903 H1906 0.999 . S
C1904 H1874 0.950 . S
C1904 C1903 1.524 1_455 S
C1904 C1905 1.415 . S
C1905 H1875 0.950 . S
C1905 C1900 1.380 . S
C1905 C1904 1.415 . S
H1906 C1903 0.999 . S
H1907 C1888 0.913 . S
H1908 C1926 0.951 . S
H1909 C1928 0.951 . S
H1910 C1930 0.950 . S
H1911 C1931 0.950 . S
H1912 C1933 0.950 . S
H1913 C1936 0.950 . S
H1914 C1937 0.950 . S
H1915 C1939 0.950 . S
H1916 C1940 0.950 . S
H1917 C1941 0.951 . S
H1918 C1943 0.951 . S
H1919 C1945 0.950 . S
H1920 C1946 0.950 . S
H1921 C1948 0.950 . S
H1922 C1951 0.950 . S
H1923 C1952 0.950 . S
H1924 C1954 0.950 . S
H1925 C1955 0.950 . S
C1926 H1908 0.951 . S
C1926 C1927 1.366 . S
C1926 C1928 1.388 . S
C1927 C1926 1.366 . S
C1927 C1931 1.385 . S
C1928 H1909 0.951 . S
C1928 C1926 1.388 . S
C1928 C1929 1.366 . S
C1929 C1928 1.366 . S
C1929 C1930 1.414 . S
C1929 C1932 1.499 . S
C1930 H1910 0.950 . S
C1930 C1929 1.414 . S
C1930 C1931 1.374 . S
C1931 H1911 0.950 . S
C1931 C1927 1.385 . S
C1931 C1930 1.374 . S
C1932 C1929 1.499 . S
C1932 C1933 1.373 1_545 S
C1932 C1934 1.389 . S
C1933 H1912 0.950 . S
C1933 C1932 1.373 1_565 S
C1933 C1949 1.377 . S
C1934 C1932 1.389 . S
C1934 C1935 1.524 . S
C1934 C1948 1.377 . S
C1935 C1934 1.524 . S
C1935 C1936 1.397 . S
C1935 C1940 1.363 . S
C1936 H1913 0.950 . S
C1936 C1935 1.397 . S
C1936 C1937 1.334 . S
C1937 H1914 0.950 . S
C1937 C1936 1.334 . S
C1937 C1938 1.287 . S
C1938 C1937 1.287 . S
C1938 C1939 1.524 . S
C1938 H1957 0.913 . S
C1939 H1915 0.950 . S
C1939 C1938 1.524 . S
C1939 C1940 1.415 . S
C1940 H1916 0.950 . S
C1940 C1935 1.363 . S
C1940 C1939 1.415 . S
C1941 H1917 0.951 . S
C1941 C1942 1.366 . S
C1941 C1943 1.388 . S
C1942 C1941 1.366 . S
C1942 C1946 1.385 . S
C1943 H1918 0.951 . S
C1943 C1941 1.388 . S
C1943 C1944 1.366 . S
C1944 C1943 1.366 . S
C1944 C1945 1.414 . S
C1944 C1947 1.499 . S
C1945 H1919 0.950 . S
C1945 C1944 1.414 . S
C1945 C1946 1.374 . S
C1946 H1920 0.950 . S
C1946 C1942 1.385 . S
C1946 C1945 1.374 . S
C1947 C1944 1.499 . S
C1947 C1948 1.373 1_565 S
C1947 C1949 1.389 . S
C1948 H1921 0.950 . S
C1948 C1934 1.377 . S
C1948 C1947 1.373 1_545 S
C1949 C1933 1.377 . S
C1949 C1947 1.389 . S
C1949 C1950 1.524 . S
C1950 C1949 1.524 . S
C1950 C1951 1.397 . S
C1950 C1955 1.363 . S
C1951 H1922 0.950 . S
C1951 C1950 1.397 . S
C1951 C1952 1.334 . S
C1952 H1923 0.950 . S
C1952 C1951 1.334 . S
C1952 C1953 1.287 . S
C1953 C1952 1.287 . S
C1953 C1954 1.524 . S
C1953 H1956 0.999 . S
C1954 H1924 0.950 . S
C1954 C1953 1.524 . S
C1954 C1955 1.415 . S
C1955 H1925 0.950 . S
C1955 C1950 1.363 . S
C1955 C1954 1.415 . S
H1956 C1953 0.999 . S
H1957 C1938 0.913 . S
H1958 C1976 0.951 . S
H1959 C1978 0.951 . S
H1960 C1980 0.950 . S
H1961 C1981 0.950 . S
H1962 C1983 0.950 . S
H1963 C1986 0.950 . S
H1964 C1987 0.950 . S
H1965 C1989 0.950 . S
H1966 C1990 0.950 . S
H1967 C1991 0.951 . S
H1968 C1993 0.951 . S
H1969 C1995 0.950 . S
H1970 C1996 0.950 . S
H1971 C1998 0.950 . S
H1972 C2001 0.950 . S
H1973 C2002 0.950 . S
H1974 C2004 0.950 . S
H1975 C2005 0.950 . S
C1976 H1958 0.951 . S
C1976 C1977 1.366 . S
C1976 C1978 1.388 . S
C1977 C1976 1.366 . S
C1977 C1981 1.385 . S
C1978 H1959 0.951 . S
C1978 C1976 1.388 . S
C1978 C1979 1.366 . S
C1979 C1978 1.366 . S
C1979 C1980 1.414 . S
C1979 C1982 1.499 . S
C1980 H1960 0.950 . S
C1980 C1979 1.414 . S
C1980 C1981 1.374 . S
C1981 H1961 0.950 . S
C1981 C1977 1.385 . S
C1981 C1980 1.374 . S
C1982 C1979 1.499 . S
C1982 C1983 1.373 . S
C1982 C1984 1.389 . S
C1983 H1962 0.950 . S
C1983 C1982 1.373 . S
C1983 C1999 1.377 . S
C1984 C1982 1.389 . S
C1984 C1985 1.524 . S
C1984 C1998 1.377 . S
C1985 C1984 1.524 . S
C1985 C1986 1.397 . S
C1985 C1990 1.363 . S
C1986 H1963 0.950 . S
C1986 C1985 1.397 . S
C1986 C1987 1.334 . S
C1987 H1964 0.950 . S
C1987 C1986 1.334 . S
C1987 C1988 1.287 . S
C1988 C1987 1.287 . S
C1988 C1989 1.524 . S
C1988 H2007 0.913 . S
C1989 H1965 0.950 . S
C1989 C1988 1.524 . S
C1989 C1990 1.415 . S
C1990 H1966 0.950 . S
C1990 C1985 1.363 . S
C1990 C1989 1.415 . S
C1991 H1967 0.951 . S
C1991 C1992 1.366 . S
C1991 C1993 1.388 . S
C1992 C1991 1.366 . S
C1992 C1996 1.385 . S
C1993 H1968 0.951 . S
C1993 C1991 1.388 . S
C1993 C1994 1.366 . S
C1994 C1993 1.366 . S
C1994 C1995 1.414 . S
C1994 C1997 1.499 . S
C1995 H1969 0.950 . S
C1995 C1994 1.414 . S
C1995 C1996 1.374 . S
C1996 H1970 0.950 . S
C1996 C1992 1.385 . S
C1996 C1995 1.374 . S
C1997 C1994 1.499 . S
C1997 C1998 1.373 . S
C1997 C1999 1.389 . S
C1998 H1971 0.950 . S
C1998 C1984 1.377 . S
C1998 C1997 1.373 . S
C1999 C1983 1.377 . S
C1999 C1997 1.389 . S
C1999 C2000 1.524 . S
C2000 C1999 1.524 . S
C2000 C2001 1.397 . S
C2000 C2005 1.363 . S
C2001 H1972 0.950 . S
C2001 C2000 1.397 . S
C2001 C2002 1.334 . S
C2002 H1973 0.950 . S
C2002 C2001 1.334 . S
C2002 C2003 1.287 . S
C2003 C2002 1.287 . S
C2003 C2004 1.524 . S
C2003 H2006 0.999 . S
C2004 H1974 0.950 . S
C2004 C2003 1.524 . S
C2004 C2005 1.415 . S
C2005 H1975 0.950 . S
C2005 C2000 1.363 . S
C2005 C2004 1.415 . S
H2006 C2003 0.999 . S
H2007 C1988 0.913 . S
H2008 C2026 0.951 . S
H2009 C2028 0.951 . S
H2010 C2030 0.950 . S
H2011 C2031 0.950 . S
H2012 C2033 0.950 . S
H2013 C2036 0.950 1_655 S
H2014 C2037 0.950 . S
H2015 C2039 0.950 . S
H2016 C2040 0.950 . S
H2017 C2041 0.951 . S
H2018 C2043 0.951 . S
H2019 C2045 0.950 . S
H2020 C2046 0.950 . S
H2021 C2048 0.950 . S
H2022 C2051 0.950 1_455 S
H2023 C2052 0.950 . S
H2024 C2054 0.950 . S
H2025 C2055 0.950 1_554 S
C2026 H2008 0.951 . S
C2026 C2027 1.366 . S
C2026 C2028 1.388 . S
C2027 C2026 1.366 . S
C2027 C2031 1.385 . S
C2028 H2009 0.951 . S
C2028 C2026 1.388 . S
C2028 C2029 1.366 . S
C2029 C2028 1.366 . S
C2029 C2030 1.414 . S
C2029 C2032 1.499 . S
C2030 H2010 0.950 . S
C2030 C2029 1.414 . S
C2030 C2031 1.374 . S
C2031 H2011 0.950 . S
C2031 C2027 1.385 . S
C2031 C2030 1.374 . S
C2032 C2029 1.499 . S
C2032 C2033 1.373 . S
C2032 C2034 1.389 1_655 S
C2033 H2012 0.950 . S
C2033 C2032 1.373 . S
C2033 C2049 1.377 . S
C2034 C2032 1.389 1_455 S
C2034 C2035 1.524 . S
C2034 C2048 1.377 . S
C2035 C2034 1.524 . S
C2035 C2036 1.397 . S
C2035 C2040 1.363 . S
C2036 H2013 0.950 1_455 S
C2036 C2035 1.397 . S
C2036 C2037 1.334 . S
C2037 H2014 0.950 . S
C2037 C2036 1.334 . S
C2037 C2038 1.287 . S
C2038 C2037 1.287 . S
C2038 C2039 1.524 . S
C2038 H2057 0.913 . S
C2039 H2015 0.950 . S
C2039 C2038 1.524 . S
C2039 C2040 1.415 . S
C2040 H2016 0.950 . S
C2040 C2035 1.363 . S
C2040 C2039 1.415 . S
C2041 H2017 0.951 . S
C2041 C2042 1.366 . S
C2041 C2043 1.388 . S
C2042 C2041 1.366 . S
C2042 C2046 1.385 . S
C2043 H2018 0.951 . S
C2043 C2041 1.388 . S
C2043 C2044 1.366 . S
C2044 C2043 1.366 . S
C2044 C2045 1.414 . S
C2044 C2047 1.499 . S
C2045 H2019 0.950 . S
C2045 C2044 1.414 . S
C2045 C2046 1.374 . S
C2046 H2020 0.950 . S
C2046 C2042 1.385 . S
C2046 C2045 1.374 . S
C2047 C2044 1.499 . S
C2047 C2048 1.373 . S
C2047 C2049 1.389 1_455 S
C2048 H2021 0.950 . S
C2048 C2034 1.377 . S
C2048 C2047 1.373 . S
C2049 C2033 1.377 . S
C2049 C2047 1.389 1_655 S
C2049 C2050 1.524 . S
C2050 C2049 1.524 . S
C2050 C2051 1.397 . S
C2050 C2055 1.363 . S
C2051 H2022 0.950 1_655 S
C2051 C2050 1.397 . S
C2051 C2052 1.334 . S
C2052 H2023 0.950 . S
C2052 C2051 1.334 . S
C2052 C2053 1.287 . S
C2053 C2052 1.287 . S
C2053 C2054 1.524 1_556 S
C2053 H2056 0.999 . S
C2054 H2024 0.950 . S
C2054 C2053 1.524 1_554 S
C2054 C2055 1.415 1_554 S
C2055 H2025 0.950 1_556 S
C2055 C2050 1.363 . S
C2055 C2054 1.415 1_556 S
H2056 C2053 0.999 . S
H2057 C2038 0.913 . S
H2058 C2076 0.951 . S
H2059 C2078 0.951 . S
H2060 C2080 0.950 . S
H2061 C2081 0.950 . S
H2062 C2083 0.950 . S
H2063 C2086 0.950 . S
H2064 C2087 0.956 . S
H2065 C2089 0.950 . S
H2066 C2090 0.950 . S
H2067 C2091 0.951 . S
H2068 C2093 0.951 . S
H2069 C2095 0.950 . S
H2070 C2096 0.950 . S
H2071 C2098 0.950 . S
H2072 C2101 0.950 . S
H2073 C2102 0.956 . S
H2074 C2104 0.950 . S
H2075 C2105 0.950 . S
C2076 H2058 0.951 . S
C2076 C2077 1.366 . S
C2076 C2078 1.388 . S
C2077 C2076 1.366 . S
C2077 C2081 1.385 . S
C2078 H2059 0.951 . S
C2078 C2076 1.388 . S
C2078 C2079 1.366 . S
C2079 C2078 1.366 . S
C2079 C2080 1.414 . S
C2079 C2082 1.499 . S
C2080 H2060 0.950 . S
C2080 C2079 1.414 . S
C2080 C2081 1.374 . S
C2081 H2061 0.950 . S
C2081 C2077 1.385 . S
C2081 C2080 1.374 . S
C2082 C2079 1.499 . S
C2082 C2083 1.373 . S
C2082 C2084 1.389 1_455 S
C2083 H2062 0.950 . S
C2083 C2082 1.373 . S
C2083 C2099 1.377 . S
C2084 C2082 1.389 1_655 S
C2084 C2085 1.524 . S
C2084 C2098 1.377 . S
C2085 C2084 1.524 . S
C2085 C2086 1.397 1_655 S
C2085 C2090 1.363 . S
C2086 H2063 0.950 . S
C2086 C2085 1.397 1_455 S
C2086 C2087 1.332 . S
C2087 H2064 0.956 . S
C2087 C2086 1.332 . S
C2087 C2088 1.284 1_455 S
C2088 C2087 1.284 1_655 S
C2088 C2089 1.524 . S
C2088 H2107 0.913 . S
C2089 H2065 0.950 . S
C2089 C2088 1.524 . S
C2089 C2090 1.415 . S
C2090 H2066 0.950 . S
C2090 C2085 1.363 . S
C2090 C2089 1.415 . S
C2091 H2067 0.951 . S
C2091 C2092 1.366 . S
C2091 C2093 1.388 . S
C2092 C2091 1.366 . S
C2092 C2096 1.385 . S
C2093 H2068 0.951 . S
C2093 C2091 1.388 . S
C2093 C2094 1.366 . S
C2094 C2093 1.366 . S
C2094 C2095 1.414 . S
C2094 C2097 1.499 . S
C2095 H2069 0.950 . S
C2095 C2094 1.414 . S
C2095 C2096 1.374 . S
C2096 H2070 0.950 . S
C2096 C2092 1.385 . S
C2096 C2095 1.374 . S
C2097 C2094 1.499 . S
C2097 C2098 1.373 . S
C2097 C2099 1.389 1_655 S
C2098 H2071 0.950 . S
C2098 C2084 1.377 . S
C2098 C2097 1.373 . S
C2099 C2083 1.377 . S
C2099 C2097 1.389 1_455 S
C2099 C2100 1.524 . S
C2100 C2099 1.524 . S
C2100 C2101 1.397 1_455 S
C2100 C2105 1.363 . S
C2101 H2072 0.950 . S
C2101 C2100 1.397 1_655 S
C2101 C2102 1.331 . S
C2102 H2073 0.956 . S
C2102 C2101 1.331 . S
C2102 C2103 1.284 1_655 S
C2103 C2102 1.284 1_455 S
C2103 C2104 1.524 . S
C2103 H2106 0.999 . S
C2104 H2074 0.950 . S
C2104 C2103 1.524 . S
C2104 C2105 1.415 . S
C2105 H2075 0.950 . S
C2105 C2100 1.363 . S
C2105 C2104 1.415 . S
H2106 C2103 0.999 . S
H2107 C2088 0.913 . S
H2108 C2126 0.951 . S
H2109 C2128 0.951 . S
H2110 C2130 0.950 . S
H2111 C2131 0.950 . S
H2112 C2133 0.952 . S
H2113 C2136 0.950 . S
H2114 C2137 0.950 . S
H2115 C2139 0.950 . S
H2116 C2140 0.950 . S
H2117 C2141 0.951 . S
H2118 C2143 0.951 . S
H2119 C2145 0.950 . S
H2120 C2146 0.950 . S
H2121 C2148 0.952 . S
H2122 C2151 0.950 . S
H2123 C2152 0.950 . S
H2124 C2154 0.950 . S
H2125 C2155 0.950 . S
C2126 H2108 0.951 . S
C2126 C2127 1.366 . S
C2126 C2128 1.388 . S
C2127 C2126 1.366 . S
C2127 C2131 1.385 . S
C2128 H2109 0.951 . S
C2128 C2126 1.388 . S
C2128 C2129 1.366 . S
C2129 C2128 1.366 . S
C2129 C2130 1.414 . S
C2129 C2132 1.499 . S
C2130 H2110 0.950 . S
C2130 C2129 1.414 . S
C2130 C2131 1.374 . S
C2131 H2111 0.950 . S
C2131 C2127 1.385 . S
C2131 C2130 1.374 . S
C2132 C2129 1.499 . S
C2132 C2133 1.394 . S
C2132 C2134 1.389 . S
C2133 H2112 0.952 . S
C2133 C2132 1.394 . S
C2133 C2149 1.367 1_565 S
C2134 C2132 1.389 . S
C2134 C2135 1.524 . S
C2134 C2148 1.367 1_565 S
C2135 C2134 1.524 . S
C2135 C2136 1.397 . S
C2135 C2140 1.363 . S
C2136 H2113 0.950 . S
C2136 C2135 1.397 . S
C2136 C2137 1.334 . S
C2137 H2114 0.950 . S
C2137 C2136 1.334 . S
C2137 C2138 1.287 . S
C2138 C2137 1.287 . S
C2138 C2139 1.524 . S
C2138 H2157 0.913 . S
C2139 H2115 0.950 . S
C2139 C2138 1.524 . S
C2139 C2140 1.415 . S
C2140 H2116 0.950 . S
C2140 C2135 1.363 . S
C2140 C2139 1.415 . S
C2141 H2117 0.951 . S
C2141 C2142 1.366 . S
C2141 C2143 1.388 . S
C2142 C2141 1.366 . S
C2142 C2146 1.385 . S
C2143 H2118 0.951 . S
C2143 C2141 1.388 . S
C2143 C2144 1.366 . S
C2144 C2143 1.366 . S
C2144 C2145 1.414 . S
C2144 C2147 1.499 . S
C2145 H2119 0.950 . S
C2145 C2144 1.414 . S
C2145 C2146 1.374 . S
C2146 H2120 0.950 . S
C2146 C2142 1.385 . S
C2146 C2145 1.374 . S
C2147 C2144 1.499 . S
C2147 C2148 1.394 . S
C2147 C2149 1.389 . S
C2148 H2121 0.952 . S
C2148 C2134 1.367 1_545 S
C2148 C2147 1.394 . S
C2149 C2133 1.367 1_545 S
C2149 C2147 1.389 . S
C2149 C2150 1.524 . S
C2150 C2149 1.524 . S
C2150 C2151 1.397 . S
C2150 C2155 1.363 . S
C2151 H2122 0.950 . S
C2151 C2150 1.397 . S
C2151 C2152 1.334 . S
C2152 H2123 0.950 . S
C2152 C2151 1.334 . S
C2152 C2153 1.287 . S
C2153 C2152 1.287 . S
C2153 C2154 1.524 . S
C2153 H2156 0.999 . S
C2154 H2124 0.950 . S
C2154 C2153 1.524 . S
C2154 C2155 1.415 . S
C2155 H2125 0.950 . S
C2155 C2150 1.363 . S
C2155 C2154 1.415 . S
H2156 C2153 0.999 . S
H2157 C2138 0.913 . S
H2158 C2176 0.951 . S
H2159 C2178 0.951 . S
H2160 C2180 0.950 . S
H2161 C2181 0.950 . S
H2162 C2183 0.950 . S
H2163 C2186 0.950 . S
H2164 C2187 0.950 . S
H2165 C2189 0.950 . S
H2166 C2190 0.950 . S
H2167 C2191 0.951 . S
H2168 C2193 0.951 . S
H2169 C2195 0.950 . S
H2170 C2196 0.950 . S
H2171 C2198 0.950 . S
H2172 C2201 0.950 . S
H2173 C2202 0.950 . S
H2174 C2204 0.950 . S
H2175 C2205 0.950 . S
C2176 H2158 0.951 . S
C2176 C2177 1.366 . S
C2176 C2178 1.388 . S
C2177 C2176 1.366 . S
C2177 C2181 1.385 . S
C2178 H2159 0.951 . S
C2178 C2176 1.388 . S
C2178 C2179 1.366 . S
C2179 C2178 1.366 . S
C2179 C2180 1.414 . S
C2179 C2182 1.499 . S
C2180 H2160 0.950 . S
C2180 C2179 1.414 . S
C2180 C2181 1.374 . S
C2181 H2161 0.950 . S
C2181 C2177 1.385 . S
C2181 C2180 1.374 . S
C2182 C2179 1.499 . S
C2182 C2183 1.373 . S
C2182 C2184 1.389 . S
C2183 H2162 0.950 . S
C2183 C2182 1.373 . S
C2183 C2199 1.377 . S
C2184 C2182 1.389 . S
C2184 C2185 1.524 . S
C2184 C2198 1.377 . S
C2185 C2184 1.524 . S
C2185 C2186 1.397 . S
C2185 C2190 1.363 . S
C2186 H2163 0.950 . S
C2186 C2185 1.397 . S
C2186 C2187 1.334 . S
C2187 H2164 0.950 . S
C2187 C2186 1.334 . S
C2187 C2188 1.287 . S
C2188 C2187 1.287 . S
C2188 C2189 1.524 . S
C2188 H2207 0.913 . S
C2189 H2165 0.950 . S
C2189 C2188 1.524 . S
C2189 C2190 1.415 . S
C2190 H2166 0.950 . S
C2190 C2185 1.363 . S
C2190 C2189 1.415 . S
C2191 H2167 0.951 . S
C2191 C2192 1.366 . S
C2191 C2193 1.388 . S
C2192 C2191 1.366 . S
C2192 C2196 1.385 . S
C2193 H2168 0.951 . S
C2193 C2191 1.388 . S
C2193 C2194 1.366 . S
C2194 C2193 1.366 . S
C2194 C2195 1.414 . S
C2194 C2197 1.499 . S
C2195 H2169 0.950 . S
C2195 C2194 1.414 . S
C2195 C2196 1.374 . S
C2196 H2170 0.950 . S
C2196 C2192 1.385 . S
C2196 C2195 1.374 . S
C2197 C2194 1.499 . S
C2197 C2198 1.373 . S
C2197 C2199 1.389 . S
C2198 H2171 0.950 . S
C2198 C2184 1.377 . S
C2198 C2197 1.373 . S
C2199 C2183 1.377 . S
C2199 C2197 1.389 . S
C2199 C2200 1.524 1_554 S
C2200 C2199 1.524 1_556 S
C2200 C2201 1.397 . S
C2200 C2205 1.363 . S
C2201 H2172 0.950 . S
C2201 C2200 1.397 . S
C2201 C2202 1.334 . S
C2202 H2173 0.950 . S
C2202 C2201 1.334 . S
C2202 C2203 1.287 . S
C2203 C2202 1.287 . S
C2203 C2204 1.524 . S
C2203 H2206 0.999 . S
C2204 H2174 0.950 . S
C2204 C2203 1.524 . S
C2204 C2205 1.415 . S
C2205 H2175 0.950 . S
C2205 C2200 1.363 . S
C2205 C2204 1.415 . S
H2206 C2203 0.999 . S
H2207 C2188 0.913 . S
H2208 C2226 0.951 . S
H2209 C2228 0.951 . S
H2210 C2230 0.950 . S
H2211 C2231 0.950 . S
H2212 C2233 0.950 . S
H2213 C2236 0.950 . S
H2214 C2237 0.950 . S
H2215 C2239 0.950 . S
H2216 C2240 0.950 . S
H2217 C2241 0.951 . S
H2218 C2243 0.951 . S
H2219 C2245 0.950 . S
H2220 C2246 0.950 . S
H2221 C2248 0.950 . S
H2222 C2251 0.950 . S
H2223 C2252 0.950 . S
H2224 C2254 0.950 . S
H2225 C2255 0.950 . S
C2226 H2208 0.951 . S
C2226 C2227 1.366 . S
C2226 C2228 1.388 . S
C2227 C2226 1.366 . S
C2227 C2231 1.385 . S
C2228 H2209 0.951 . S
C2228 C2226 1.388 . S
C2228 C2229 1.366 . S
C2229 C2228 1.366 . S
C2229 C2230 1.414 . S
C2229 C2232 1.499 . S
C2230 H2210 0.950 . S
C2230 C2229 1.414 . S
C2230 C2231 1.374 . S
C2231 H2211 0.950 . S
C2231 C2227 1.385 . S
C2231 C2230 1.374 . S
C2232 C2229 1.499 . S
C2232 C2233 1.373 1_565 S
C2232 C2234 1.389 . S
C2233 H2212 0.950 . S
C2233 C2232 1.373 1_545 S
C2233 C2249 1.377 . S
C2234 C2232 1.389 . S
C2234 C2235 1.524 . S
C2234 C2248 1.377 . S
C2235 C2234 1.524 . S
C2235 C2236 1.397 . S
C2235 C2240 1.363 . S
C2236 H2213 0.950 . S
C2236 C2235 1.397 . S
C2236 C2237 1.334 . S
C2237 H2214 0.950 . S
C2237 C2236 1.334 . S
C2237 C2238 1.287 . S
C2238 C2237 1.287 . S
C2238 C2239 1.524 . S
C2238 H2257 0.913 . S
C2239 H2215 0.950 . S
C2239 C2238 1.524 . S
C2239 C2240 1.415 . S
C2240 H2216 0.950 . S
C2240 C2235 1.363 . S
C2240 C2239 1.415 . S
C2241 H2217 0.951 . S
C2241 C2242 1.366 . S
C2241 C2243 1.388 . S
C2242 C2241 1.366 . S
C2242 C2246 1.385 . S
C2243 H2218 0.951 . S
C2243 C2241 1.388 . S
C2243 C2244 1.366 . S
C2244 C2243 1.366 . S
C2244 C2245 1.414 . S
C2244 C2247 1.499 . S
C2245 H2219 0.950 . S
C2245 C2244 1.414 . S
C2245 C2246 1.374 . S
C2246 H2220 0.950 . S
C2246 C2242 1.385 . S
C2246 C2245 1.374 . S
C2247 C2244 1.499 . S
C2247 C2248 1.373 1_545 S
C2247 C2249 1.389 . S
C2248 H2221 0.950 . S
C2248 C2234 1.377 . S
C2248 C2247 1.373 1_565 S
C2249 C2233 1.377 . S
C2249 C2247 1.389 . S
C2249 C2250 1.524 . S
C2250 C2249 1.524 . S
C2250 C2251 1.397 . S
C2250 C2255 1.363 . S
C2251 H2222 0.950 . S
C2251 C2250 1.397 . S
C2251 C2252 1.334 . S
C2252 H2223 0.950 . S
C2252 C2251 1.334 . S
C2252 C2253 1.287 . S
C2253 C2252 1.287 . S
C2253 C2254 1.524 . S
C2253 H2256 0.999 . S
C2254 H2224 0.950 . S
C2254 C2253 1.524 . S
C2254 C2255 1.415 . S
C2255 H2225 0.950 . S
C2255 C2250 1.363 . S
C2255 C2254 1.415 . S
H2256 C2253 0.999 . S
H2257 C2238 0.913 . S
H2258 C2276 0.951 . S
H2259 C2278 0.951 . S
H2260 C2280 0.950 . S
H2261 C2281 0.950 . S
H2262 C2283 0.950 . S
H2263 C2286 0.950 . S
H2264 C2287 0.950 . S
H2265 C2289 0.950 . S
H2266 C2290 0.950 . S
H2267 C2291 0.951 . S
H2268 C2293 0.951 . S
H2269 C2295 0.950 . S
H2270 C2296 0.950 . S
H2271 C2298 0.950 . S
H2272 C2301 0.950 . S
H2273 C2302 0.950 . S
H2274 C2304 0.950 . S
H2275 C2305 0.950 . S
C2276 H2258 0.951 . S
C2276 C2277 1.366 . S
C2276 C2278 1.388 . S
C2277 C2276 1.366 . S
C2277 C2281 1.385 . S
C2278 H2259 0.951 . S
C2278 C2276 1.388 . S
C2278 C2279 1.366 . S
C2279 C2278 1.366 . S
C2279 C2280 1.414 . S
C2279 C2282 1.499 . S
C2280 H2260 0.950 . S
C2280 C2279 1.414 . S
C2280 C2281 1.374 . S
C2281 H2261 0.950 . S
C2281 C2277 1.385 . S
C2281 C2280 1.374 . S
C2282 C2279 1.499 . S
C2282 C2283 1.373 . S
C2282 C2284 1.389 . S
C2283 H2262 0.950 . S
C2283 C2282 1.373 . S
C2283 C2299 1.377 . S
C2284 C2282 1.389 . S
C2284 C2285 1.524 . S
C2284 C2298 1.377 . S
C2285 C2284 1.524 . S
C2285 C2286 1.397 . S
C2285 C2290 1.363 . S
C2286 H2263 0.950 . S
C2286 C2285 1.397 . S
C2286 C2287 1.334 . S
C2287 H2264 0.950 . S
C2287 C2286 1.334 . S
C2287 C2288 1.287 . S
C2288 C2287 1.287 . S
C2288 C2289 1.524 . S
C2288 H2307 0.913 . S
C2289 H2265 0.950 . S
C2289 C2288 1.524 . S
C2289 C2290 1.415 . S
C2290 H2266 0.950 . S
C2290 C2285 1.363 . S
C2290 C2289 1.415 . S
C2291 H2267 0.951 . S
C2291 C2292 1.366 . S
C2291 C2293 1.388 . S
C2292 C2291 1.366 . S
C2292 C2296 1.385 . S
C2293 H2268 0.951 . S
C2293 C2291 1.388 . S
C2293 C2294 1.366 . S
C2294 C2293 1.366 . S
C2294 C2295 1.414 . S
C2294 C2297 1.499 . S
C2295 H2269 0.950 . S
C2295 C2294 1.414 . S
C2295 C2296 1.374 . S
C2296 H2270 0.950 . S
C2296 C2292 1.385 . S
C2296 C2295 1.374 . S
C2297 C2294 1.499 . S
C2297 C2298 1.373 . S
C2297 C2299 1.389 . S
C2298 H2271 0.950 . S
C2298 C2284 1.377 . S
C2298 C2297 1.373 . S
C2299 C2283 1.377 . S
C2299 C2297 1.389 . S
C2299 C2300 1.524 . S
C2300 C2299 1.524 . S
C2300 C2301 1.397 . S
C2300 C2305 1.363 . S
C2301 H2272 0.950 . S
C2301 C2300 1.397 . S
C2301 C2302 1.334 . S
C2302 H2273 0.950 . S
C2302 C2301 1.334 . S
C2302 C2303 1.287 . S
C2303 C2302 1.287 . S
C2303 C2304 1.524 . S
C2303 H2306 0.999 . S
C2304 H2274 0.950 . S
C2304 C2303 1.524 . S
C2304 C2305 1.415 . S
C2305 H2275 0.950 . S
C2305 C2300 1.363 . S
C2305 C2304 1.415 . S
H2306 C2303 0.999 . S
H2307 C2288 0.913 . S
H2308 C2326 0.951 . S
H2309 C2328 0.951 . S
H2310 C2330 0.950 . S
H2311 C2331 0.950 . S
H2312 C2333 0.950 . S
H2313 C2336 0.950 . S
H2314 C2337 0.950 . S
H2315 C2339 0.950 . S
H2316 C2340 0.950 . S
H2317 C2341 0.951 . S
H2318 C2343 0.951 . S
H2319 C2345 0.950 . S
H2320 C2346 0.950 . S
H2321 C2348 0.950 . S
H2322 C2351 0.950 . S
H2323 C2352 0.950 . S
H2324 C2354 0.950 . S
H2325 C2355 0.950 . S
C2326 H2308 0.951 . S
C2326 C2327 1.366 . S
C2326 C2328 1.388 . S
C2327 C2326 1.366 . S
C2327 C2331 1.385 . S
C2328 H2309 0.951 . S
C2328 C2326 1.388 . S
C2328 C2329 1.366 . S
C2329 C2328 1.366 . S
C2329 C2330 1.414 . S
C2329 C2332 1.499 . S
C2330 H2310 0.950 . S
C2330 C2329 1.414 . S
C2330 C2331 1.374 . S
C2331 H2311 0.950 . S
C2331 C2327 1.385 . S
C2331 C2330 1.374 . S
C2332 C2329 1.499 . S
C2332 C2333 1.373 . S
C2332 C2334 1.389 1_655 S
C2333 H2312 0.950 . S
C2333 C2332 1.373 . S
C2333 C2349 1.377 . S
C2334 C2332 1.389 1_455 S
C2334 C2335 1.524 . S
C2334 C2348 1.377 . S
C2335 C2334 1.524 . S
C2335 C2336 1.397 . S
C2335 C2340 1.363 . S
C2336 H2313 0.950 . S
C2336 C2335 1.397 . S
C2336 C2337 1.334 . S
C2337 H2314 0.950 . S
C2337 C2336 1.334 . S
C2337 C2338 1.287 . S
C2338 C2337 1.287 . S
C2338 C2339 1.524 . S
C2338 H2357 0.913 . S
C2339 H2315 0.950 . S
C2339 C2338 1.524 . S
C2339 C2340 1.415 . S
C2340 H2316 0.950 . S
C2340 C2335 1.363 . S
C2340 C2339 1.415 . S
C2341 H2317 0.951 . S
C2341 C2342 1.366 . S
C2341 C2343 1.388 . S
C2342 C2341 1.366 . S
C2342 C2346 1.385 . S
C2343 H2318 0.951 . S
C2343 C2341 1.388 . S
C2343 C2344 1.366 . S
C2344 C2343 1.366 . S
C2344 C2345 1.414 . S
C2344 C2347 1.499 . S
C2345 H2319 0.950 . S
C2345 C2344 1.414 . S
C2345 C2346 1.374 . S
C2346 H2320 0.950 . S
C2346 C2342 1.385 . S
C2346 C2345 1.374 . S
C2347 C2344 1.499 . S
C2347 C2348 1.373 . S
C2347 C2349 1.389 1_455 S
C2348 H2321 0.950 . S
C2348 C2334 1.377 . S
C2348 C2347 1.373 . S
C2349 C2333 1.377 . S
C2349 C2347 1.389 1_655 S
C2349 C2350 1.524 . S
C2350 C2349 1.524 . S
C2350 C2351 1.397 . S
C2350 C2355 1.363 . S
C2351 H2322 0.950 . S
C2351 C2350 1.397 . S
C2351 C2352 1.334 . S
C2352 H2323 0.950 . S
C2352 C2351 1.334 . S
C2352 C2353 1.287 . S
C2353 C2352 1.287 . S
C2353 C2354 1.524 . S
C2353 H2356 0.999 . S
C2354 H2324 0.950 . S
C2354 C2353 1.524 . S
C2354 C2355 1.415 . S
C2355 H2325 0.950 . S
C2355 C2350 1.363 . S
C2355 C2354 1.415 . S
H2356 C2353 0.999 . S
H2357 C2338 0.913 . S
H2358 C2376 0.951 . S
H2359 C2378 0.951 . S
H2360 C2380 0.950 . S
H2361 C2381 0.950 . S
H2362 C2383 0.950 . S
H2363 C2386 0.950 . S
H2364 C2387 0.950 . S
H2365 C2389 0.950 . S
H2366 C2390 0.950 . S
H2367 C2391 0.951 . S
H2368 C2393 0.951 . S
H2369 C2395 0.950 . S
H2370 C2396 0.950 . S
H2371 C2398 0.950 . S
H2372 C2401 0.950 . S
H2373 C2402 0.950 . S
H2374 C2404 0.950 . S
H2375 C2405 0.950 . S
C2376 H2358 0.951 . S
C2376 C2377 1.366 . S
C2376 C2378 1.388 . S
C2377 C2376 1.366 . S
C2377 C2381 1.385 . S
C2378 H2359 0.951 . S
C2378 C2376 1.388 . S
C2378 C2379 1.366 . S
C2379 C2378 1.366 . S
C2379 C2380 1.414 . S
C2379 C2382 1.499 . S
C2380 H2360 0.950 . S
C2380 C2379 1.414 . S
C2380 C2381 1.374 . S
C2381 H2361 0.950 . S
C2381 C2377 1.385 . S
C2381 C2380 1.374 . S
C2382 C2379 1.499 . S
C2382 C2383 1.373 1_545 S
C2382 C2384 1.389 . S
C2383 H2362 0.950 . S
C2383 C2382 1.373 1_565 S
C2383 C2399 1.377 . S
C2384 C2382 1.389 . S
C2384 C2385 1.524 . S
C2384 C2398 1.377 . S
C2385 C2384 1.524 . S
C2385 C2386 1.397 . S
C2385 C2390 1.363 . S
C2386 H2363 0.950 . S
C2386 C2385 1.397 . S
C2386 C2387 1.334 . S
C2387 H2364 0.950 . S
C2387 C2386 1.334 . S
C2387 C2388 1.287 . S
C2388 C2387 1.287 . S
C2388 C2389 1.524 . S
C2388 H2407 0.913 . S
C2389 H2365 0.950 . S
C2389 C2388 1.524 . S
C2389 C2390 1.415 . S
C2390 H2366 0.950 . S
C2390 C2385 1.363 . S
C2390 C2389 1.415 . S
C2391 H2367 0.951 . S
C2391 C2392 1.366 . S
C2391 C2393 1.388 . S
C2392 C2391 1.366 . S
C2392 C2396 1.385 . S
C2393 H2368 0.951 . S
C2393 C2391 1.388 . S
C2393 C2394 1.366 . S
C2394 C2393 1.366 . S
C2394 C2395 1.414 . S
C2394 C2397 1.499 . S
C2395 H2369 0.950 . S
C2395 C2394 1.414 . S
C2395 C2396 1.374 . S
C2396 H2370 0.950 . S
C2396 C2392 1.385 . S
C2396 C2395 1.374 . S
C2397 C2394 1.499 . S
C2397 C2398 1.373 1_565 S
C2397 C2399 1.389 . S
C2398 H2371 0.950 . S
C2398 C2384 1.377 . S
C2398 C2397 1.373 1_545 S
C2399 C2383 1.377 . S
C2399 C2397 1.389 . S
C2399 C2400 1.524 . S
C2400 C2399 1.524 . S
C2400 C2401 1.397 . S
C2400 C2405 1.363 . S
C2401 H2372 0.950 . S
C2401 C2400 1.397 . S
C2401 C2402 1.334 . S
C2402 H2373 0.950 . S
C2402 C2401 1.334 . S
C2402 C2403 1.287 . S
C2403 C2402 1.287 . S
C2403 C2404 1.524 . S
C2403 H2406 0.999 . S
C2404 H2374 0.950 . S
C2404 C2403 1.524 . S
C2404 C2405 1.415 . S
C2405 H2375 0.950 . S
C2405 C2400 1.363 . S
C2405 C2404 1.415 . S
H2406 C2403 0.999 . S
H2407 C2388 0.913 . S
H2408 C2426 0.951 . S
H2409 C2428 0.951 . S
H2410 C2430 0.950 . S
H2411 C2431 0.950 . S
H2412 C2433 0.950 . S
H2413 C2436 0.950 . S
H2414 C2437 0.950 . S
H2415 C2439 0.950 . S
H2416 C2440 0.950 . S
H2417 C2441 0.951 . S
H2418 C2443 0.951 . S
H2419 C2445 0.950 . S
H2420 C2446 0.950 . S
H2421 C2448 0.950 . S
H2422 C2451 0.950 . S
H2423 C2452 0.950 . S
H2424 C2454 0.950 . S
H2425 C2455 0.950 . S
C2426 H2408 0.951 . S
C2426 C2427 1.366 . S
C2426 C2428 1.388 . S
C2427 C2426 1.366 . S
C2427 C2431 1.385 . S
C2428 H2409 0.951 . S
C2428 C2426 1.388 . S
C2428 C2429 1.366 . S
C2429 C2428 1.366 . S
C2429 C2430 1.414 . S
C2429 C2432 1.499 . S
C2430 H2410 0.950 . S
C2430 C2429 1.414 . S
C2430 C2431 1.374 . S
C2431 H2411 0.950 . S
C2431 C2427 1.385 . S
C2431 C2430 1.374 . S
C2432 C2429 1.499 . S
C2432 C2433 1.373 . S
C2432 C2434 1.389 . S
C2433 H2412 0.950 . S
C2433 C2432 1.373 . S
C2433 C2449 1.377 . S
C2434 C2432 1.389 . S
C2434 C2435 1.524 . S
C2434 C2448 1.377 . S
C2435 C2434 1.524 . S
C2435 C2436 1.397 . S
C2435 C2440 1.363 . S
C2436 H2413 0.950 . S
C2436 C2435 1.397 . S
C2436 C2437 1.334 . S
C2437 H2414 0.950 . S
C2437 C2436 1.334 . S
C2437 C2438 1.287 . S
C2438 C2437 1.287 . S
C2438 C2439 1.524 . S
C2438 H2457 0.913 . S
C2439 H2415 0.950 . S
C2439 C2438 1.524 . S
C2439 C2440 1.415 . S
C2440 H2416 0.950 . S
C2440 C2435 1.363 . S
C2440 C2439 1.415 . S
C2441 H2417 0.951 . S
C2441 C2442 1.366 . S
C2441 C2443 1.388 . S
C2442 C2441 1.366 . S
C2442 C2446 1.385 . S
C2443 H2418 0.951 . S
C2443 C2441 1.388 . S
C2443 C2444 1.366 . S
C2444 C2443 1.366 . S
C2444 C2445 1.414 . S
C2444 C2447 1.499 . S
C2445 H2419 0.950 . S
C2445 C2444 1.414 . S
C2445 C2446 1.374 . S
C2446 H2420 0.950 . S
C2446 C2442 1.385 . S
C2446 C2445 1.374 . S
C2447 C2444 1.499 . S
C2447 C2448 1.373 . S
C2447 C2449 1.389 . S
C2448 H2421 0.950 . S
C2448 C2434 1.377 . S
C2448 C2447 1.373 . S
C2449 C2433 1.377 . S
C2449 C2447 1.389 . S
C2449 C2450 1.524 . S
C2450 C2449 1.524 . S
C2450 C2451 1.397 . S
C2450 C2455 1.363 . S
C2451 H2422 0.950 . S
C2451 C2450 1.397 . S
C2451 C2452 1.334 . S
C2452 H2423 0.950 . S
C2452 C2451 1.334 . S
C2452 C2453 1.287 . S
C2453 C2452 1.287 . S
C2453 C2454 1.524 . S
C2453 H2456 0.999 . S
C2454 H2424 0.950 . S
C2454 C2453 1.524 . S
C2454 C2455 1.415 . S
C2455 H2425 0.950 . S
C2455 C2450 1.363 . S
C2455 C2454 1.415 . S
H2456 C2453 0.999 . S
H2457 C2438 0.913 . S
H2458 C2476 0.951 . S
H2459 C2478 0.951 . S
H2460 C2480 0.950 . S
H2461 C2481 0.950 . S
H2462 C2483 0.950 . S
H2463 C2486 0.950 . S
H2464 C2487 0.950 . S
H2465 C2489 0.950 . S
H2466 C2490 0.950 1_655 S
H2467 C2491 0.951 . S
H2468 C2493 0.951 . S
H2469 C2495 0.950 . S
H2470 C2496 0.950 . S
H2471 C2498 0.950 . S
H2472 C2501 0.950 . S
H2473 C2502 0.950 . S
H2474 C2504 0.950 . S
H2475 C2505 0.950 1_455 S
C2476 H2458 0.951 . S
C2476 C2477 1.366 . S
C2476 C2478 1.388 . S
C2477 C2476 1.366 . S
C2477 C2481 1.385 . S
C2478 H2459 0.951 . S
C2478 C2476 1.388 . S
C2478 C2479 1.366 . S
C2479 C2478 1.366 . S
C2479 C2480 1.414 . S
C2479 C2482 1.499 . S
C2480 H2460 0.950 . S
C2480 C2479 1.414 . S
C2480 C2481 1.374 . S
C2481 H2461 0.950 . S
C2481 C2477 1.385 . S
C2481 C2480 1.374 . S
C2482 C2479 1.499 . S
C2482 C2483 1.373 . S
C2482 C2484 1.389 . S
C2483 H2462 0.950 . S
C2483 C2482 1.373 . S
C2483 C2499 1.377 1_455 S
C2484 C2482 1.389 . S
C2484 C2485 1.524 . S
C2484 C2498 1.377 1_455 S
C2485 C2484 1.524 . S
C2485 C2486 1.397 . S
C2485 C2490 1.363 . S
C2486 H2463 0.950 . S
C2486 C2485 1.397 . S
C2486 C2487 1.334 . S
C2487 H2464 0.950 . S
C2487 C2486 1.334 . S
C2487 C2488 1.287 . S
C2488 C2487 1.287 . S
C2488 C2489 1.524 . S
C2488 H2507 0.913 . S
C2489 H2465 0.950 . S
C2489 C2488 1.524 . S
C2489 C2490 1.415 . S
C2490 H2466 0.950 1_455 S
C2490 C2485 1.363 . S
C2490 C2489 1.415 . S
C2491 H2467 0.951 . S
C2491 C2492 1.366 . S
C2491 C2493 1.388 . S
C2492 C2491 1.366 . S
C2492 C2496 1.385 . S
C2493 H2468 0.951 . S
C2493 C2491 1.388 . S
C2493 C2494 1.366 . S
C2494 C2493 1.366 . S
C2494 C2495 1.414 . S
C2494 C2497 1.499 . S
C2495 H2469 0.950 . S
C2495 C2494 1.414 . S
C2495 C2496 1.374 . S
C2496 H2470 0.950 . S
C2496 C2492 1.385 . S
C2496 C2495 1.374 . S
C2497 C2494 1.499 . S
C2497 C2498 1.373 . S
C2497 C2499 1.389 . S
C2498 H2471 0.950 . S
C2498 C2484 1.377 1_655 S
C2498 C2497 1.373 . S
C2499 C2483 1.377 1_655 S
C2499 C2497 1.389 . S
C2499 C2500 1.524 . S
C2500 C2499 1.524 . S
C2500 C2501 1.397 . S
C2500 C2505 1.363 . S
C2501 H2472 0.950 . S
C2501 C2500 1.397 . S
C2501 C2502 1.334 . S
C2502 H2473 0.950 . S
C2502 C2501 1.334 . S
C2502 C2503 1.287 . S
C2503 C2502 1.287 . S
C2503 C2504 1.524 . S
C2503 H2506 0.999 . S
C2504 H2474 0.950 . S
C2504 C2503 1.524 . S
C2504 C2505 1.415 . S
C2505 H2475 0.950 1_655 S
C2505 C2500 1.363 . S
C2505 C2504 1.415 . S
H2506 C2503 0.999 . S
H2507 C2488 0.913 . S
H2508 C2526 0.951 . S
H2509 C2528 0.951 . S
H2510 C2530 0.950 . S
H2511 C2531 0.950 . S
H2512 C2533 0.950 . S
H2513 C2536 0.950 . S
H2514 C2537 0.950 . S
H2515 C2539 0.950 . S
H2516 C2540 0.950 . S
H2517 C2541 0.951 . S
H2518 C2543 0.951 . S
H2519 C2545 0.950 . S
H2520 C2546 0.950 . S
H2521 C2548 0.950 . S
H2522 C2551 0.950 . S
H2523 C2552 0.950 . S
H2524 C2554 0.950 . S
H2525 C2555 0.950 . S
C2526 H2508 0.951 . S
C2526 C2527 1.366 . S
C2526 C2528 1.388 . S
C2527 C2526 1.366 . S
C2527 C2531 1.385 . S
C2528 H2509 0.951 . S
C2528 C2526 1.388 . S
C2528 C2529 1.366 . S
C2529 C2528 1.366 . S
C2529 C2530 1.414 . S
C2529 C2532 1.499 . S
C2530 H2510 0.950 . S
C2530 C2529 1.414 . S
C2530 C2531 1.374 . S
C2531 H2511 0.950 . S
C2531 C2527 1.385 . S
C2531 C2530 1.374 . S
C2532 C2529 1.499 . S
C2532 C2533 1.373 . S
C2532 C2534 1.389 . S
C2533 H2512 0.950 . S
C2533 C2532 1.373 . S
C2533 C2549 1.377 . S
C2534 C2532 1.389 . S
C2534 C2535 1.524 . S
C2534 C2548 1.377 . S
C2535 C2534 1.524 . S
C2535 C2536 1.397 . S
C2535 C2540 1.363 . S
C2536 H2513 0.950 . S
C2536 C2535 1.397 . S
C2536 C2537 1.334 . S
C2537 H2514 0.950 . S
C2537 C2536 1.334 . S
C2537 C2538 1.287 . S
C2538 C2537 1.287 . S
C2538 C2539 1.524 . S
C2538 H2557 0.913 . S
C2539 H2515 0.950 . S
C2539 C2538 1.524 . S
C2539 C2540 1.415 . S
C2540 H2516 0.950 . S
C2540 C2535 1.363 . S
C2540 C2539 1.415 . S
C2541 H2517 0.951 . S
C2541 C2542 1.366 . S
C2541 C2543 1.388 . S
C2542 C2541 1.366 . S
C2542 C2546 1.385 . S
C2543 H2518 0.951 . S
C2543 C2541 1.388 . S
C2543 C2544 1.366 . S
C2544 C2543 1.366 . S
C2544 C2545 1.414 . S
C2544 C2547 1.499 . S
C2545 H2519 0.950 . S
C2545 C2544 1.414 . S
C2545 C2546 1.374 . S
C2546 H2520 0.950 . S
C2546 C2542 1.385 . S
C2546 C2545 1.374 . S
C2547 C2544 1.499 . S
C2547 C2548 1.373 . S
C2547 C2549 1.389 . S
C2548 H2521 0.950 . S
C2548 C2534 1.377 . S
C2548 C2547 1.373 . S
C2549 C2533 1.377 . S
C2549 C2547 1.389 . S
C2549 C2550 1.524 . S
C2550 C2549 1.524 . S
C2550 C2551 1.397 . S
C2550 C2555 1.363 . S
C2551 H2522 0.950 . S
C2551 C2550 1.397 . S
C2551 C2552 1.334 . S
C2552 H2523 0.950 . S
C2552 C2551 1.334 . S
C2552 C2553 1.287 . S
C2553 C2552 1.287 . S
C2553 C2554 1.524 . S
C2553 H2556 0.999 . S
C2554 H2524 0.950 . S
C2554 C2553 1.524 . S
C2554 C2555 1.415 . S
C2555 H2525 0.950 . S
C2555 C2550 1.363 . S
C2555 C2554 1.415 . S
H2556 C2553 0.999 . S
H2557 C2538 0.913 . S
H2558 C2576 0.951 . S
H2559 C2578 0.951 . S
H2560 C2580 0.950 . S
H2561 C2581 0.950 . S
H2562 C2583 0.950 . S
H2563 C2586 0.950 . S
H2564 C2587 0.950 . S
H2565 C2589 0.950 . S
H2566 C2590 0.950 . S
H2567 C2591 0.951 . S
H2568 C2593 0.951 . S
H2569 C2595 0.950 . S
H2570 C2596 0.950 . S
H2571 C2598 0.950 . S
H2572 C2601 0.950 . S
H2573 C2602 0.950 . S
H2574 C2604 0.950 . S
H2575 C2605 0.950 . S
C2576 H2558 0.951 . S
C2576 C2577 1.366 . S
C2576 C2578 1.388 . S
C2577 C2576 1.366 . S
C2577 C2581 1.385 . S
C2578 H2559 0.951 . S
C2578 C2576 1.388 . S
C2578 C2579 1.366 . S
C2579 C2578 1.366 . S
C2579 C2580 1.414 . S
C2579 C2582 1.499 . S
C2580 H2560 0.950 . S
C2580 C2579 1.414 . S
C2580 C2581 1.374 . S
C2581 H2561 0.950 . S
C2581 C2577 1.385 . S
C2581 C2580 1.374 . S
C2582 C2579 1.499 . S
C2582 C2583 1.373 . S
C2582 C2584 1.389 . S
C2583 H2562 0.950 . S
C2583 C2582 1.373 . S
C2583 C2599 1.377 . S
C2584 C2582 1.389 . S
C2584 C2585 1.524 . S
C2584 C2598 1.377 . S
C2585 C2584 1.524 . S
C2585 C2586 1.397 . S
C2585 C2590 1.363 . S
C2586 H2563 0.950 . S
C2586 C2585 1.397 . S
C2586 C2587 1.334 . S
C2587 H2564 0.950 . S
C2587 C2586 1.334 . S
C2587 C2588 1.287 . S
C2588 C2587 1.287 . S
C2588 C2589 1.524 . S
C2588 H2607 0.913 . S
C2589 H2565 0.950 . S
C2589 C2588 1.524 . S
C2589 C2590 1.415 . S
C2590 H2566 0.950 . S
C2590 C2585 1.363 . S
C2590 C2589 1.415 . S
C2591 H2567 0.951 . S
C2591 C2592 1.366 . S
C2591 C2593 1.388 . S
C2592 C2591 1.366 . S
C2592 C2596 1.385 . S
C2593 H2568 0.951 . S
C2593 C2591 1.388 . S
C2593 C2594 1.366 . S
C2594 C2593 1.366 . S
C2594 C2595 1.414 . S
C2594 C2597 1.499 . S
C2595 H2569 0.950 . S
C2595 C2594 1.414 . S
C2595 C2596 1.374 . S
C2596 H2570 0.950 . S
C2596 C2592 1.385 . S
C2596 C2595 1.374 . S
C2597 C2594 1.499 . S
C2597 C2598 1.373 . S
C2597 C2599 1.389 . S
C2598 H2571 0.950 . S
C2598 C2584 1.377 . S
C2598 C2597 1.373 . S
C2599 C2583 1.377 . S
C2599 C2597 1.389 . S
C2599 C2600 1.524 . S
C2600 C2599 1.524 . S
C2600 C2601 1.397 . S
C2600 C2605 1.363 . S
C2601 H2572 0.950 . S
C2601 C2600 1.397 . S
C2601 C2602 1.334 . S
C2602 H2573 0.950 . S
C2602 C2601 1.334 . S
C2602 C2603 1.287 . S
C2603 C2602 1.287 . S
C2603 C2604 1.524 . S
C2603 H2606 0.999 . S
C2604 H2574 0.950 . S
C2604 C2603 1.524 . S
C2604 C2605 1.415 . S
C2605 H2575 0.950 . S
C2605 C2600 1.363 . S
C2605 C2604 1.415 . S
H2606 C2603 0.999 . S
H2607 C2588 0.913 . S
H2608 C2626 0.951 . S
H2609 C2628 0.951 . S
H2610 C2630 0.950 . S
H2611 C2631 0.950 . S
H2612 C2633 0.950 . S
H2613 C2636 0.950 . S
H2614 C2637 0.950 . S
H2615 C2639 0.950 . S
H2616 C2640 0.950 . S
H2617 C2641 0.951 . S
H2618 C2643 0.951 . S
H2619 C2645 0.950 . S
H2620 C2646 0.950 . S
H2621 C2648 0.950 . S
H2622 C2651 0.950 . S
H2623 C2652 0.950 . S
H2624 C2654 0.950 . S
H2625 C2655 0.950 . S
C2626 H2608 0.951 . S
C2626 C2627 1.366 . S
C2626 C2628 1.388 . S
C2627 C2626 1.366 . S
C2627 C2631 1.385 . S
C2628 H2609 0.951 . S
C2628 C2626 1.388 . S
C2628 C2629 1.366 . S
C2629 C2628 1.366 . S
C2629 C2630 1.414 . S
C2629 C2632 1.499 . S
C2630 H2610 0.950 . S
C2630 C2629 1.414 . S
C2630 C2631 1.374 . S
C2631 H2611 0.950 . S
C2631 C2627 1.385 . S
C2631 C2630 1.374 . S
C2632 C2629 1.499 . S
C2632 C2633 1.373 . S
C2632 C2634 1.389 . S
C2633 H2612 0.950 . S
C2633 C2632 1.373 . S
C2633 C2649 1.377 . S
C2634 C2632 1.389 . S
C2634 C2635 1.524 . S
C2634 C2648 1.377 . S
C2635 C2634 1.524 . S
C2635 C2636 1.397 . S
C2635 C2640 1.363 . S
C2636 H2613 0.950 . S
C2636 C2635 1.397 . S
C2636 C2637 1.334 . S
C2637 H2614 0.950 . S
C2637 C2636 1.334 . S
C2637 C2638 1.287 . S
C2638 C2637 1.287 . S
C2638 C2639 1.524 . S
C2638 H2657 0.913 . S
C2639 H2615 0.950 . S
C2639 C2638 1.524 . S
C2639 C2640 1.415 . S
C2640 H2616 0.950 . S
C2640 C2635 1.363 . S
C2640 C2639 1.415 . S
C2641 H2617 0.951 . S
C2641 C2642 1.366 . S
C2641 C2643 1.388 . S
C2642 C2641 1.366 . S
C2642 C2646 1.385 . S
C2643 H2618 0.951 . S
C2643 C2641 1.388 . S
C2643 C2644 1.366 . S
C2644 C2643 1.366 . S
C2644 C2645 1.414 . S
C2644 C2647 1.499 . S
C2645 H2619 0.950 . S
C2645 C2644 1.414 . S
C2645 C2646 1.374 . S
C2646 H2620 0.950 . S
C2646 C2642 1.385 . S
C2646 C2645 1.374 . S
C2647 C2644 1.499 . S
C2647 C2648 1.373 . S
C2647 C2649 1.389 . S
C2648 H2621 0.950 . S
C2648 C2634 1.377 . S
C2648 C2647 1.373 . S
C2649 C2633 1.377 . S
C2649 C2647 1.389 . S
C2649 C2650 1.524 . S
C2650 C2649 1.524 . S
C2650 C2651 1.397 . S
C2650 C2655 1.363 . S
C2651 H2622 0.950 . S
C2651 C2650 1.397 . S
C2651 C2652 1.334 . S
C2652 H2623 0.950 . S
C2652 C2651 1.334 . S
C2652 C2653 1.287 . S
C2653 C2652 1.287 . S
C2653 C2654 1.524 . S
C2653 H2656 0.999 . S
C2654 H2624 0.950 . S
C2654 C2653 1.524 . S
C2654 C2655 1.415 . S
C2655 H2625 0.950 . S
C2655 C2650 1.363 . S
C2655 C2654 1.415 . S
H2656 C2653 0.999 . S
H2657 C2638 0.913 . S
H2658 C2676 0.951 . S
H2659 C2678 0.951 . S
H2660 C2680 0.950 . S
H2661 C2681 0.950 . S
H2662 C2683 0.950 . S
H2663 C2686 0.950 . S
H2664 C2687 0.950 . S
H2665 C2689 0.950 . S
H2666 C2690 0.950 . S
H2667 C2691 0.951 . S
H2668 C2693 0.951 . S
H2669 C2695 0.950 . S
H2670 C2696 0.950 . S
H2671 C2698 0.950 . S
H2672 C2701 0.950 . S
H2673 C2702 0.950 . S
H2674 C2704 0.950 . S
H2675 C2705 0.950 . S
C2676 H2658 0.951 . S
C2676 C2677 1.366 . S
C2676 C2678 1.388 . S
C2677 C2676 1.366 . S
C2677 C2681 1.385 . S
C2678 H2659 0.951 . S
C2678 C2676 1.388 . S
C2678 C2679 1.366 . S
C2679 C2678 1.366 . S
C2679 C2680 1.414 . S
C2679 C2682 1.499 . S
C2680 H2660 0.950 . S
C2680 C2679 1.414 . S
C2680 C2681 1.374 . S
C2681 H2661 0.950 . S
C2681 C2677 1.385 . S
C2681 C2680 1.374 . S
C2682 C2679 1.499 . S
C2682 C2683 1.373 . S
C2682 C2684 1.389 . S
C2683 H2662 0.950 . S
C2683 C2682 1.373 . S
C2683 C2699 1.377 . S
C2684 C2682 1.389 . S
C2684 C2685 1.524 . S
C2684 C2698 1.377 . S
C2685 C2684 1.524 . S
C2685 C2686 1.397 . S
C2685 C2690 1.363 . S
C2686 H2663 0.950 . S
C2686 C2685 1.397 . S
C2686 C2687 1.334 . S
C2687 H2664 0.950 . S
C2687 C2686 1.334 . S
C2687 C2688 1.287 . S
C2688 C2687 1.287 . S
C2688 C2689 1.524 . S
C2688 H2707 0.913 . S
C2689 H2665 0.950 . S
C2689 C2688 1.524 . S
C2689 C2690 1.415 . S
C2690 H2666 0.950 . S
C2690 C2685 1.363 . S
C2690 C2689 1.415 . S
C2691 H2667 0.951 . S
C2691 C2692 1.366 . S
C2691 C2693 1.388 . S
C2692 C2691 1.366 . S
C2692 C2696 1.385 . S
C2693 H2668 0.951 . S
C2693 C2691 1.388 . S
C2693 C2694 1.366 . S
C2694 C2693 1.366 . S
C2694 C2695 1.414 . S
C2694 C2697 1.499 . S
C2695 H2669 0.950 . S
C2695 C2694 1.414 . S
C2695 C2696 1.374 . S
C2696 H2670 0.950 . S
C2696 C2692 1.385 . S
C2696 C2695 1.374 . S
C2697 C2694 1.499 . S
C2697 C2698 1.373 . S
C2697 C2699 1.389 . S
C2698 H2671 0.950 . S
C2698 C2684 1.377 . S
C2698 C2697 1.373 . S
C2699 C2683 1.377 . S
C2699 C2697 1.389 . S
C2699 C2700 1.524 . S
C2700 C2699 1.524 . S
C2700 C2701 1.397 . S
C2700 C2705 1.363 . S
C2701 H2672 0.950 . S
C2701 C2700 1.397 . S
C2701 C2702 1.334 . S
C2702 H2673 0.950 . S
C2702 C2701 1.334 . S
C2702 C2703 1.287 . S
C2703 C2702 1.287 . S
C2703 C2704 1.524 . S
C2703 H2706 0.999 . S
C2704 H2674 0.950 . S
C2704 C2703 1.524 . S
C2704 C2705 1.415 . S
C2705 H2675 0.950 . S
C2705 C2700 1.363 . S
C2705 C2704 1.415 . S
H2706 C2703 0.999 . S
H2707 C2688 0.913 . S
H2708 C2726 0.951 . S
H2709 C2728 0.951 . S
H2710 C2730 0.950 . S
H2711 C2731 0.950 . S
H2712 C2733 0.950 . S
H2713 C2736 0.950 . S
H2714 C2737 0.950 . S
H2715 C2739 0.950 . S
H2716 C2740 0.950 . S
H2717 C2741 0.951 . S
H2718 C2743 0.951 . S
H2719 C2745 0.950 . S
H2720 C2746 0.950 . S
H2721 C2748 0.950 . S
H2722 C2751 0.950 . S
H2723 C2752 0.950 . S
H2724 C2754 0.950 . S
H2725 C2755 0.950 . S
C2726 H2708 0.951 . S
C2726 C2727 1.366 . S
C2726 C2728 1.388 . S
C2727 C2726 1.366 . S
C2727 C2731 1.385 . S
C2728 H2709 0.951 . S
C2728 C2726 1.388 . S
C2728 C2729 1.366 . S
C2729 C2728 1.366 . S
C2729 C2730 1.414 . S
C2729 C2732 1.499 . S
C2730 H2710 0.950 . S
C2730 C2729 1.414 . S
C2730 C2731 1.374 . S
C2731 H2711 0.950 . S
C2731 C2727 1.385 . S
C2731 C2730 1.374 . S
C2732 C2729 1.499 . S
C2732 C2733 1.373 . S
C2732 C2734 1.389 . S
C2733 H2712 0.950 . S
C2733 C2732 1.373 . S
C2733 C2749 1.377 . S
C2734 C2732 1.389 . S
C2734 C2735 1.524 . S
C2734 C2748 1.377 . S
C2735 C2734 1.524 . S
C2735 C2736 1.397 . S
C2735 C2740 1.363 . S
C2736 H2713 0.950 . S
C2736 C2735 1.397 . S
C2736 C2737 1.334 . S
C2737 H2714 0.950 . S
C2737 C2736 1.334 . S
C2737 C2738 1.287 . S
C2738 C2737 1.287 . S
C2738 C2739 1.524 . S
C2738 H2757 0.913 . S
C2739 H2715 0.950 . S
C2739 C2738 1.524 . S
C2739 C2740 1.415 . S
C2740 H2716 0.950 . S
C2740 C2735 1.363 . S
C2740 C2739 1.415 . S
C2741 H2717 0.951 . S
C2741 C2742 1.366 . S
C2741 C2743 1.388 . S
C2742 C2741 1.366 . S
C2742 C2746 1.385 . S
C2743 H2718 0.951 . S
C2743 C2741 1.388 . S
C2743 C2744 1.366 . S
C2744 C2743 1.366 . S
C2744 C2745 1.414 . S
C2744 C2747 1.499 . S
C2745 H2719 0.950 . S
C2745 C2744 1.414 . S
C2745 C2746 1.374 . S
C2746 H2720 0.950 . S
C2746 C2742 1.385 . S
C2746 C2745 1.374 . S
C2747 C2744 1.499 . S
C2747 C2748 1.373 . S
C2747 C2749 1.389 . S
C2748 H2721 0.950 . S
C2748 C2734 1.377 . S
C2748 C2747 1.373 . S
C2749 C2733 1.377 . S
C2749 C2747 1.389 . S
C2749 C2750 1.524 . S
C2750 C2749 1.524 . S
C2750 C2751 1.397 . S
C2750 C2755 1.363 . S
C2751 H2722 0.950 . S
C2751 C2750 1.397 . S
C2751 C2752 1.334 . S
C2752 H2723 0.950 . S
C2752 C2751 1.334 . S
C2752 C2753 1.287 . S
C2753 C2752 1.287 . S
C2753 C2754 1.524 . S
C2753 H2756 0.999 . S
C2754 H2724 0.950 . S
C2754 C2753 1.524 . S
C2754 C2755 1.415 . S
C2755 H2725 0.950 . S
C2755 C2750 1.363 . S
C2755 C2754 1.415 . S
H2756 C2753 0.999 . S
H2757 C2738 0.913 . S
H2758 C2776 0.951 . S
H2759 C2778 0.951 . S
H2760 C2780 0.950 . S
H2761 C2781 0.950 . S
H2762 C2783 0.950 . S
H2763 C2786 0.950 . S
H2764 C2787 0.950 . S
H2765 C2789 0.950 . S
H2766 C2790 0.950 . S
H2767 C2791 0.951 . S
H2768 C2793 0.951 . S
H2769 C2795 0.950 . S
H2770 C2796 0.950 . S
H2771 C2798 0.950 . S
H2772 C2801 0.950 . S
H2773 C2802 0.950 . S
H2774 C2804 0.950 . S
H2775 C2805 0.950 . S
C2776 H2758 0.951 . S
C2776 C2777 1.366 . S
C2776 C2778 1.388 . S
C2777 C2776 1.366 . S
C2777 C2781 1.385 . S
C2778 H2759 0.951 . S
C2778 C2776 1.388 . S
C2778 C2779 1.366 . S
C2779 C2778 1.366 . S
C2779 C2780 1.414 . S
C2779 C2782 1.499 . S
C2780 H2760 0.950 . S
C2780 C2779 1.414 . S
C2780 C2781 1.374 . S
C2781 H2761 0.950 . S
C2781 C2777 1.385 . S
C2781 C2780 1.374 . S
C2782 C2779 1.499 . S
C2782 C2783 1.373 . S
C2782 C2784 1.389 . S
C2783 H2762 0.950 . S
C2783 C2782 1.373 . S
C2783 C2799 1.377 . S
C2784 C2782 1.389 . S
C2784 C2785 1.524 . S
C2784 C2798 1.377 . S
C2785 C2784 1.524 . S
C2785 C2786 1.397 . S
C2785 C2790 1.363 . S
C2786 H2763 0.950 . S
C2786 C2785 1.397 . S
C2786 C2787 1.334 . S
C2787 H2764 0.950 . S
C2787 C2786 1.334 . S
C2787 C2788 1.287 . S
C2788 C2787 1.287 . S
C2788 C2789 1.524 . S
C2788 H2807 0.913 . S
C2789 H2765 0.950 . S
C2789 C2788 1.524 . S
C2789 C2790 1.415 . S
C2790 H2766 0.950 . S
C2790 C2785 1.363 . S
C2790 C2789 1.415 . S
C2791 H2767 0.951 . S
C2791 C2792 1.366 . S
C2791 C2793 1.388 . S
C2792 C2791 1.366 . S
C2792 C2796 1.385 . S
C2793 H2768 0.951 . S
C2793 C2791 1.388 . S
C2793 C2794 1.366 . S
C2794 C2793 1.366 . S
C2794 C2795 1.414 . S
C2794 C2797 1.499 . S
C2795 H2769 0.950 . S
C2795 C2794 1.414 . S
C2795 C2796 1.374 . S
C2796 H2770 0.950 . S
C2796 C2792 1.385 . S
C2796 C2795 1.374 . S
C2797 C2794 1.499 . S
C2797 C2798 1.373 . S
C2797 C2799 1.389 . S
C2798 H2771 0.950 . S
C2798 C2784 1.377 . S
C2798 C2797 1.373 . S
C2799 C2783 1.377 . S
C2799 C2797 1.389 . S
C2799 C2800 1.524 . S
C2800 C2799 1.524 . S
C2800 C2801 1.397 . S
C2800 C2805 1.363 . S
C2801 H2772 0.950 . S
C2801 C2800 1.397 . S
C2801 C2802 1.334 . S
C2802 H2773 0.950 . S
C2802 C2801 1.334 . S
C2802 C2803 1.287 . S
C2803 C2802 1.287 . S
C2803 C2804 1.524 . S
C2803 H2806 0.999 . S
C2804 H2774 0.950 . S
C2804 C2803 1.524 . S
C2804 C2805 1.415 . S
C2805 H2775 0.950 . S
C2805 C2800 1.363 . S
C2805 C2804 1.415 . S
H2806 C2803 0.999 . S
H2807 C2788 0.913 . S
C1027 C74 0.921 . S
C1042 C746 0.921 . S
C1077 C158 0.921 . S
C1092 C830 0.922 . S
C1127 C242 0.922 . S
C1142 C914 0.922 . S
C1177 C998 0.922 . S
C1192 C326 0.922 . S
C1227 C410 0.921 . S
C1242 C578 0.922 . S
C1277 C662 0.922 . S
C1292 C494 0.922 . S
C1327 C910 1.358 . S
C1342 C70 1.359 . S
C1377 C994 1.359 . S
C1392 C154 1.358 . S
C1427 C238 1.358 . S
C1442 C574 1.357 . S
C1477 C658 1.359 . S
C1492 C322 1.359 . S
C1527 C742 1.359 . S
C1542 C406 1.358 . S
C1577 C490 1.358 . S
C1592 C826 1.357 . S
C1627 C655 4.615 . S
C1642 C67 4.614 . S
C1677 C739 4.614 . S
C1692 C151 4.614 . S
C1727 C823 4.615 . S
C1742 C235 4.614 . S
C1777 C319 4.615 . S
C1792 C907 4.614 . S
C1827 C403 4.614 . S
C1842 C991 4.615 . S
C1877 C487 4.615 . S
C1892 C571 4.614 . S
C1927 C63 0.769 . S
C1942 C315 0.767 . S
C1977 C147 0.768 . S
C1992 C399 0.767 . S
C2027 C231 0.768 . S
C2042 C483 0.768 . S
C2077 C819 0.767 . S
C2092 C567 0.769 . S
C2127 C651 0.769 . S
C2142 C903 0.766 . S
C2177 C987 0.769 . S
C2192 C735 0.766 . S
C2227 C646 0.956 . S
C2242 C58 0.955 . S
C2277 C730 0.954 . S
C2292 C142 0.956 . S
C2327 C226 0.956 . S
C2342 C814 0.955 . S
C2377 C898 0.955 . S
C2392 C310 0.956 . S
C2427 C982 0.956 . S
C2442 C394 0.955 . S
C2477 C478 0.956 . S
C2492 C562 0.954 . S
C2527 C56 3.479 . S
C2542 C896 3.479 . S
C2577 C140 3.480 . S
C2592 C980 3.479 1_556 S
C2627 C224 3.479 1_554 S
C2642 C560 3.479 . S
C2677 C308 3.479 . S
C2692 C644 3.479 . S
C2727 C392 3.479 . S
C2742 C728 3.480 1_556 S
C2777 C812 3.479 . S
C2792 C476 3.479 1_554 S
