# Generated by pormake.
# Topology whz, (6)-cn, num edge types: 1
# Building blocks:
#     Node 0, Type 0, BuildingBlock: BETDEL_clean_sbu_0, # of connection points: 6
#     Node 1, Type 0, BuildingBlock: BETDEL_clean_sbu_0, # of connection points: 6
#     Node 2, Type 0, BuildingBlock: BETDEL_clean_sbu_0, # of connection points: 6
#     Node 3, Type 0, BuildingBlock: BETDEL_clean_sbu_0, # of connection points: 6
#     Node 4, Type 0, BuildingBlock: BETDEL_clean_sbu_0, # of connection points: 6
#     Node 5, Type 0, BuildingBlock: BETDEL_clean_sbu_0, # of connection points: 6
#     Node 6, Type 0, BuildingBlock: BETDEL_clean_sbu_0, # of connection points: 6
#     Node 7, Type 0, BuildingBlock: BETDEL_clean_sbu_0, # of connection points: 6
#     Node 8, Type 0, BuildingBlock: BETDEL_clean_sbu_0, # of connection points: 6
#     Node 9, Type 0, BuildingBlock: BETDEL_clean_sbu_0, # of connection points: 6
#     Node 10, Type 0, BuildingBlock: BETDEL_clean_sbu_0, # of connection points: 6
#     Node 11, Type 0, BuildingBlock: BETDEL_clean_sbu_0, # of connection points: 6
#     Node 12, Type 0, BuildingBlock: BETDEL_clean_sbu_0, # of connection points: 6
#     Node 13, Type 0, BuildingBlock: BETDEL_clean_sbu_0, # of connection points: 6
#     Node 14, Type 0, BuildingBlock: BETDEL_clean_sbu_0, # of connection points: 6
#     Node 15, Type 0, BuildingBlock: BETDEL_clean_sbu_0, # of connection points: 6
#     Edge 16, Type (0, 0), BuildingBlock: TEMPAE_clean_linker_10, # of connection points: 2
#     Edge 17, Type (0, 0), BuildingBlock: TEMPAE_clean_linker_10, # of connection points: 2
#     Edge 18, Type (0, 0), BuildingBlock: TEMPAE_clean_linker_10, # of connection points: 2
#     Edge 19, Type (0, 0), BuildingBlock: TEMPAE_clean_linker_10, # of connection points: 2
#     Edge 20, Type (0, 0), BuildingBlock: TEMPAE_clean_linker_10, # of connection points: 2
#     Edge 21, Type (0, 0), BuildingBlock: TEMPAE_clean_linker_10, # of connection points: 2
#     Edge 22, Type (0, 0), BuildingBlock: TEMPAE_clean_linker_10, # of connection points: 2
#     Edge 23, Type (0, 0), BuildingBlock: TEMPAE_clean_linker_10, # of connection points: 2
#     Edge 24, Type (0, 0), BuildingBlock: TEMPAE_clean_linker_10, # of connection points: 2
#     Edge 25, Type (0, 0), BuildingBlock: TEMPAE_clean_linker_10, # of connection points: 2
#     Edge 26, Type (0, 0), BuildingBlock: TEMPAE_clean_linker_10, # of connection points: 2
#     Edge 27, Type (0, 0), BuildingBlock: TEMPAE_clean_linker_10, # of connection points: 2
#     Edge 28, Type (0, 0), BuildingBlock: TEMPAE_clean_linker_10, # of connection points: 2
#     Edge 29, Type (0, 0), BuildingBlock: TEMPAE_clean_linker_10, # of connection points: 2
#     Edge 30, Type (0, 0), BuildingBlock: TEMPAE_clean_linker_10, # of connection points: 2
#     Edge 31, Type (0, 0), BuildingBlock: TEMPAE_clean_linker_10, # of connection points: 2
#     Edge 32, Type (0, 0), BuildingBlock: TEMPAE_clean_linker_10, # of connection points: 2
#     Edge 33, Type (0, 0), BuildingBlock: TEMPAE_clean_linker_10, # of connection points: 2
#     Edge 34, Type (0, 0), BuildingBlock: TEMPAE_clean_linker_10, # of connection points: 2
#     Edge 35, Type (0, 0), BuildingBlock: TEMPAE_clean_linker_10, # of connection points: 2
#     Edge 36, Type (0, 0), BuildingBlock: TEMPAE_clean_linker_10, # of connection points: 2
#     Edge 37, Type (0, 0), BuildingBlock: TEMPAE_clean_linker_10, # of connection points: 2
#     Edge 38, Type (0, 0), BuildingBlock: TEMPAE_clean_linker_10, # of connection points: 2
#     Edge 39, Type (0, 0), BuildingBlock: TEMPAE_clean_linker_10, # of connection points: 2
#     Edge 40, Type (0, 0), BuildingBlock: TEMPAE_clean_linker_10, # of connection points: 2
#     Edge 41, Type (0, 0), BuildingBlock: TEMPAE_clean_linker_10, # of connection points: 2
#     Edge 42, Type (0, 0), BuildingBlock: TEMPAE_clean_linker_10, # of connection points: 2
#     Edge 43, Type (0, 0), BuildingBlock: TEMPAE_clean_linker_10, # of connection points: 2
#     Edge 44, Type (0, 0), BuildingBlock: TEMPAE_clean_linker_10, # of connection points: 2
#     Edge 45, Type (0, 0), BuildingBlock: TEMPAE_clean_linker_10, # of connection points: 2
#     Edge 46, Type (0, 0), BuildingBlock: TEMPAE_clean_linker_10, # of connection points: 2
#     Edge 47, Type (0, 0), BuildingBlock: TEMPAE_clean_linker_10, # of connection points: 2
#     Edge 48, Type (0, 0), BuildingBlock: TEMPAE_clean_linker_10, # of connection points: 2
#     Edge 49, Type (0, 0), BuildingBlock: TEMPAE_clean_linker_10, # of connection points: 2
#     Edge 50, Type (0, 0), BuildingBlock: TEMPAE_clean_linker_10, # of connection points: 2
#     Edge 51, Type (0, 0), BuildingBlock: TEMPAE_clean_linker_10, # of connection points: 2
#     Edge 52, Type (0, 0), BuildingBlock: TEMPAE_clean_linker_10, # of connection points: 2
#     Edge 53, Type (0, 0), BuildingBlock: TEMPAE_clean_linker_10, # of connection points: 2
#     Edge 54, Type (0, 0), BuildingBlock: TEMPAE_clean_linker_10, # of connection points: 2
#     Edge 55, Type (0, 0), BuildingBlock: TEMPAE_clean_linker_10, # of connection points: 2
#     Edge 56, Type (0, 0), BuildingBlock: TEMPAE_clean_linker_10, # of connection points: 2
#     Edge 57, Type (0, 0), BuildingBlock: TEMPAE_clean_linker_10, # of connection points: 2
#     Edge 58, Type (0, 0), BuildingBlock: TEMPAE_clean_linker_10, # of connection points: 2
#     Edge 59, Type (0, 0), BuildingBlock: TEMPAE_clean_linker_10, # of connection points: 2
#     Edge 60, Type (0, 0), BuildingBlock: TEMPAE_clean_linker_10, # of connection points: 2
#     Edge 61, Type (0, 0), BuildingBlock: TEMPAE_clean_linker_10, # of connection points: 2
#     Edge 62, Type (0, 0), BuildingBlock: TEMPAE_clean_linker_10, # of connection points: 2
#     Edge 63, Type (0, 0), BuildingBlock: TEMPAE_clean_linker_10, # of connection points: 2
# Relax obj value: 0.472
# Max RMSD: 0.273
# Mean RMSD: 0.273
data_MOF--net-whz--node1-BETDEL_clean_sbu_0--edge1-TEMPAE_clean_linker_10
_symmetry_space_group_name_H-M    P1
_symmetry_Int_Tables_number       1
_symmetry_cell_setting            triclinic
loop_
_symmetry_equiv_pos_as_xyz
'x, y, z'
_cell_length_a     34.165406
_cell_length_b     34.229794
_cell_length_c     56.129415
_cell_angle_alpha  90.080919
_cell_angle_beta   90.153438
_cell_angle_gamma 89.991922
loop_
_atom_site_label
_atom_site_type_symbol
_atom_site_fract_x
_atom_site_fract_y
_atom_site_fract_z
_atom_type_partial_charge
Dy0 Dy 0.30437 0.19179 0.14959 0.0
C1 C 0.28401 0.13397 0.05723 0.0
C2 C 0.30978 0.23921 0.1877 0.0
Dy3 Dy 0.3088 0.1496 0.10318 0.0
O4 O 0.3071 0.25076 0.16587 0.0
O5 O 0.30999 0.2013 0.18892 0.0
O6 O 0.25057 0.21786 0.13507 0.0
O7 O 0.29891 0.21184 0.11259 0.0
C8 C 0.26473 0.22639 0.11442 0.0
C9 C 0.33848 0.10999 0.14131 0.0
O10 O 0.363 0.18732 0.10074 0.0
O11 O 0.36855 0.19486 0.14145 0.0
O12 O 0.31496 0.1186 0.06728 0.0
O13 O 0.26713 0.15701 0.0724 0.0
O14 O 0.35096 0.10366 0.11964 0.0
O15 O 0.30982 0.13218 0.13992 0.0
O16 O 0.25394 0.15263 0.15676 0.0
O17 O 0.24872 0.13123 0.11759 0.0
C18 C 0.38342 0.19804 0.11983 0.0
C19 C 0.23462 0.13382 0.13975 0.0
Dy20 Dy 0.58856 0.55586 0.39781 0.0
C21 C 0.65079 0.53619 0.30646 0.0
C22 C 0.55254 0.53575 0.43787 0.0
Dy23 Dy 0.63364 0.55764 0.35282 0.0
O24 O 0.54716 0.51934 0.4174 0.0
O25 O 0.57733 0.5646 0.43668 0.0
O26 O 0.5359 0.5705 0.3765 0.0
O27 O 0.57627 0.53128 0.36264 0.0
C28 C 0.54189 0.54481 0.36002 0.0
C29 C 0.67241 0.58533 0.39206 0.0
O30 O 0.59675 0.61315 0.35158 0.0
O31 O 0.59092 0.6199 0.39235 0.0
O32 O 0.6623 0.56853 0.31664 0.0
O33 O 0.63085 0.51612 0.32169 0.0
O34 O 0.68007 0.59793 0.37061 0.0
O35 O 0.64916 0.55766 0.39001 0.0
O36 O 0.62172 0.49954 0.40182 0.0
O37 O 0.65622 0.49929 0.36628 0.0
C38 C 0.58761 0.63451 0.37066 0.0
C39 C 0.64618 0.4825 0.38676 0.0
Dy40 Dy 0.22949 0.83302 0.64497 0.0
C41 C 0.24175 0.89598 0.55405 0.0
C42 C 0.25028 0.79026 0.68261 0.0
Dy43 Dy 0.22543 0.87972 0.60109 0.0
O44 O 0.26739 0.78949 0.66216 0.0
O45 O 0.22129 0.81497 0.68295 0.0
O46 O 0.21106 0.78343 0.62209 0.0
O47 O 0.25255 0.82225 0.60942 0.0
C48 C 0.23747 0.78879 0.60604 0.0
C49 C 0.19953 0.91706 0.64103 0.0
O50 O 0.16669 0.84815 0.60105 0.0
O51 O 0.1648 0.83696 0.6416 0.0
O52 O 0.23411 0.92226 0.57028 0.0
O53 O 0.23865 0.86154 0.56343 0.0
O54 O 0.18497 0.924 0.61988 0.0
O55 O 0.2279 0.89437 0.63876 0.0
O56 O 0.28664 0.86503 0.64865 0.0
O57 O 0.28713 0.89553 0.61187 0.0
C58 C 0.14743 0.837 0.62052 0.0
C59 C 0.30448 0.88664 0.63237 0.0
Dy60 Dy 0.94302 0.47883 0.89897 0.0
C61 C 0.87933 0.49757 0.80827 0.0
C62 C 0.99109 0.47298 0.93666 0.0
Dy63 Dy 0.89794 0.47272 0.85383 0.0
O64 O 1.00184 0.48169 0.91529 0.0
O65 O 0.95342 0.46783 0.93778 0.0
O66 O 0.96637 0.53322 0.88398 0.0
O67 O 0.9607 0.48451 0.86161 0.0
C68 C 0.97458 0.519 0.86325 0.0
C69 C 0.86167 0.44197 0.89294 0.0
O70 O 0.93579 0.41873 0.85003 0.0
O71 O 0.95194 0.41592 0.88995 0.0
O72 O 0.86788 0.46459 0.81769 0.0
O73 O 0.89985 0.51655 0.82391 0.0
O74 O 0.85411 0.42954 0.87136 0.0
O75 O 0.88288 0.47122 0.89099 0.0
O76 O 0.90295 0.52772 0.90744 0.0
O77 O 0.8783 0.53216 0.86892 0.0
C78 C 0.95191 0.40034 0.86843 0.0
C79 C 0.88214 0.54626 0.89106 0.0
Dy80 Dy 0.72465 0.88167 0.93142 0.0
C81 C 0.72282 0.79098 0.84807 0.0
C82 C 0.74768 0.89987 0.97738 0.0
Dy83 Dy 0.73024 0.83712 0.88655 0.0
O84 O 0.76803 0.88081 0.96175 0.0
O85 O 0.71448 0.91028 0.96768 0.0
O86 O 0.68278 0.92655 0.9139 0.0
O87 O 0.72453 0.89762 0.89423 0.0
C88 C 0.69562 0.91948 0.8924 0.0
C89 C 0.76868 0.80392 0.9226 0.0
O90 O 0.78151 0.87462 0.87891 0.0
O91 O 0.78531 0.89936 0.91734 0.0
O92 O 0.7324 0.77912 0.86913 0.0
O93 O 0.71789 0.82862 0.84772 0.0
O94 O 0.78339 0.81121 0.90189 0.0
O95 O 0.73451 0.81871 0.92389 0.0
O96 O 0.67 0.84472 0.93498 0.0
O97 O 0.66693 0.82931 0.89507 0.0
C98 C 0.80045 0.89458 0.89556 0.0
C99 C 0.65122 0.82927 0.9165 0.0
Dy100 Dy 0.39557 0.47394 0.68142 0.0
C101 C 0.44833 0.44371 0.58903 0.0
C102 C 0.38497 0.49475 0.72858 0.0
Dy103 Dy 0.42794 0.46428 0.63327 0.0
O104 O 0.37208 0.46252 0.71882 0.0
O105 O 0.40326 0.51496 0.71255 0.0
O106 O 0.33457 0.46998 0.66367 0.0
O107 O 0.38014 0.43706 0.65097 0.0
C108 C 0.34517 0.44564 0.64705 0.0
C109 C 0.46827 0.51703 0.65882 0.0
O110 O 0.38476 0.51208 0.62639 0.0
O111 O 0.38345 0.5329 0.66531 0.0
O112 O 0.47222 0.44373 0.60705 0.0
O113 O 0.41378 0.45533 0.59526 0.0
O114 O 0.4597 0.52014 0.63649 0.0
O115 O 0.45508 0.48487 0.66677 0.0
O116 O 0.43048 0.41787 0.68731 0.0
O117 O 0.44691 0.40701 0.64774 0.0
C118 C 0.37618 0.53895 0.64245 0.0
C119 C 0.44653 0.39597 0.67025 0.0
Dy120 Dy 0.80906 0.14928 0.43159 0.0
C121 C 0.81109 0.24001 0.34814 0.0
C122 C 0.78738 0.12635 0.47718 0.0
Dy123 Dy 0.80357 0.19422 0.38675 0.0
O124 O 0.82266 0.12393 0.46846 0.0
O125 O 0.76443 0.14023 0.46082 0.0
O126 O 0.85161 0.10492 0.41389 0.0
O127 O 0.81004 0.13383 0.3943 0.0
C128 C 0.83903 0.11223 0.39235 0.0
C129 C 0.76294 0.22666 0.42219 0.0
O130 O 0.75311 0.15598 0.37857 0.0
O131 O 0.74852 0.13196 0.41707 0.0
O132 O 0.80257 0.25217 0.36931 0.0
O133 O 0.81512 0.20226 0.34778 0.0
O134 O 0.74948 0.21927 0.40113 0.0
O135 O 0.79731 0.21233 0.42423 0.0
O136 O 0.86227 0.18816 0.43589 0.0
O137 O 0.8666 0.20239 0.39593 0.0
C138 C 0.73399 0.13613 0.39507 0.0
C139 C 0.88153 0.20334 0.4176 0.0
Dy140 Dy 0.13601 0.56074 0.1791 0.0
C141 C 0.09527 0.5794 0.08285 0.0
C142 C 0.15271 0.54092 0.22607 0.0
Dy143 Dy 0.10571 0.56433 0.12941 0.0
O144 O 0.17755 0.54084 0.20856 0.0
O145 O 0.11909 0.55261 0.21795 0.0
O146 O 0.18021 0.60827 0.16685 0.0
O147 O 0.16257 0.5642 0.14431 0.0
C148 C 0.18305 0.59393 0.14538 0.0
C149 C 0.06074 0.51971 0.15671 0.0
O150 O 0.14212 0.5113 0.12563 0.0
O151 O 0.14591 0.49821 0.16595 0.0
O152 O 0.06712 0.5732 0.09786 0.0
O153 O 0.12881 0.57799 0.09354 0.0
O154 O 0.06809 0.51327 0.13441 0.0
O155 O 0.0764 0.55175 0.16358 0.0
O156 O 0.10087 0.61633 0.18206 0.0
O157 O 0.09442 0.62578 0.14142 0.0
C158 C 0.1511 0.48754 0.14332 0.0
C159 C 0.09025 0.63804 0.16358 0.0
Dy160 Dy 0.80418 0.69067 0.65209 0.0
C161 C 0.7835 0.63845 0.55796 0.0
C162 C 0.82153 0.7047 0.69803 0.0
Dy163 Dy 0.8067 0.65358 0.60431 0.0
O164 O 0.80224 0.72838 0.68426 0.0
O165 O 0.83124 0.67346 0.6865 0.0
O166 O 0.75571 0.7288 0.64206 0.0
O167 O 0.79894 0.71548 0.6161 0.0
C168 C 0.76654 0.73317 0.62007 0.0
C169 C 0.83186 0.60894 0.64186 0.0
O170 O 0.8632 0.68776 0.60145 0.0
O171 O 0.86462 0.70741 0.64092 0.0
O172 O 0.81183 0.62043 0.56909 0.0
O173 O 0.76847 0.66424 0.57218 0.0
O174 O 0.84782 0.60639 0.6208 0.0
O175 O 0.80398 0.63199 0.6402 0.0
O176 O 0.74881 0.65738 0.65601 0.0
O177 O 0.74464 0.63812 0.61652 0.0
C178 C 0.88088 0.70538 0.61964 0.0
C179 C 0.72916 0.64106 0.63827 0.0
Dy180 Dy 0.08779 0.05676 0.89536 0.0
C181 C 0.151 0.04067 0.80416 0.0
C182 C 0.04622 0.03658 0.9335 0.0
Dy183 Dy 0.13489 0.05946 0.85101 0.0
O184 O 0.04481 0.01922 0.91309 0.0
O185 O 0.07082 0.06567 0.93348 0.0
O186 O 0.03773 0.07178 0.87181 0.0
O187 O 0.07844 0.03114 0.86032 0.0
C188 C 0.04421 0.04424 0.85659 0.0
C189 C 0.17123 0.08723 0.89097 0.0
O190 O 0.10161 0.11737 0.85032 0.0
O191 O 0.09048 0.12104 0.89089 0.0
O192 O 0.17734 0.04981 0.82016 0.0
O193 O 0.11656 0.04364 0.81365 0.0
O194 O 0.17839 0.10144 0.86978 0.0
O195 O 0.14882 0.05883 0.88854 0.0
O196 O 0.12186 1.00144 0.90025 0.0
O197 O 0.15222 0.9988 0.86339 0.0
C198 C 0.08995 0.13724 0.86952 0.0
C199 C 0.14399 0.98304 0.88446 0.0
Dy200 Dy 0.72114 0.35304 0.15417 0.0
C201 C 0.74629 0.39423 0.05777 0.0
C202 C 0.70632 0.34233 0.20075 0.0
Dy203 Dy 0.72248 0.38283 0.10427 0.0
O204 O 0.71352 0.31443 0.1857 0.0
O205 O 0.7067 0.3758 0.1901 0.0
O206 O 0.76941 0.31281 0.14733 0.0
O207 O 0.7283 0.32316 0.11963 0.0
C208 C 0.76022 0.30602 0.12529 0.0
C209 C 0.69688 0.4327 0.13907 0.0
O210 O 0.66809 0.34545 0.10221 0.0
O211 O 0.65855 0.34446 0.14292 0.0
O212 O 0.7171 0.41225 0.06795 0.0
O213 O 0.76185 0.37031 0.07298 0.0
O214 O 0.68061 0.43186 0.11802 0.0
O215 O 0.72432 0.40922 0.13885 0.0
O216 O 0.77792 0.38443 0.15721 0.0
O217 O 0.78461 0.39746 0.11692 0.0
C218 C 0.64595 0.33766 0.12101 0.0
C219 C 0.79897 0.39729 0.13908 0.0
Dy220 Dy 0.44643 0.97414 0.39586 0.0
C221 C 0.38538 0.98896 0.30431 0.0
C222 C 0.48622 0.99036 0.43547 0.0
Dy223 Dy 0.40009 0.97186 0.35136 0.0
O224 O 0.49003 1.00862 0.4155 0.0
O225 O 0.46026 0.96266 0.43413 0.0
O226 O 0.49724 0.95866 0.37312 0.0
O227 O 0.45688 0.99909 0.36087 0.0
C228 C 0.49088 0.98543 0.35739 0.0
C229 C 0.36228 0.94527 0.39081 0.0
O230 O 0.43293 0.91385 0.3507 0.0
O231 O 0.44267 0.91 0.39132 0.0
O232 O 0.35848 0.98049 0.31998 0.0
O233 O 0.41954 0.9866 0.31427 0.0
O234 O 0.35537 0.93114 0.36954 0.0
O235 O 0.38525 0.97337 0.3888 0.0
O236 O 0.41586 0.03163 0.3998 0.0
O237 O 0.38466 0.03331 0.36308 0.0
C238 C 0.44388 0.8939 0.36996 0.0
C239 C 0.39417 0.05001 0.38374 0.0
Dy240 Dy 0.22544 0.38701 0.42998 0.0
C241 C 0.21234 0.35712 0.33312 0.0
C242 C 0.23847 0.40399 0.4779 0.0
Dy243 Dy 0.21743 0.35262 0.38072 0.0
O244 O 0.24218 0.42818 0.46023 0.0
O245 O 0.226 0.37085 0.46942 0.0
O246 O 0.21961 0.44647 0.41114 0.0
O247 O 0.18868 0.39909 0.39894 0.0
C248 C 0.19602 0.43414 0.39456 0.0
C249 C 0.26023 0.30097 0.40386 0.0
O250 O 0.27112 0.38961 0.37791 0.0
O251 O 0.28773 0.39055 0.41753 0.0
O252 O 0.23078 0.38163 0.34664 0.0
O253 O 0.19547 0.33005 0.34574 0.0
O254 O 0.2483 0.29671 0.38211 0.0
O255 O 0.24756 0.33239 0.41345 0.0
O256 O 0.16687 0.35438 0.43335 0.0
O257 O 0.15994 0.33292 0.39408 0.0
C258 C 0.29683 0.39637 0.39494 0.0
C259 C 0.14724 0.33513 0.41627 0.0
Dy260 Dy 0.89953 0.97285 0.18075 0.0
C261 C 0.94586 0.95412 0.08615 0.0
C262 C 0.88731 0.99695 0.22719 0.0
Dy263 Dy 0.93117 0.97257 0.13153 0.0
O264 O 0.86942 0.96775 0.21688 0.0
O265 O 0.91144 1.01242 0.21211 0.0
O266 O 0.8517 0.92995 0.16646 0.0
O267 O 0.8741 0.97382 0.1458 0.0
C268 C 0.85129 0.94581 0.14533 0.0
C269 C 0.97649 1.01224 0.16116 0.0
O270 O 0.89854 0.028 0.12758 0.0
O271 O 0.88327 0.03429 0.16763 0.0
O272 O 0.97274 0.96167 0.10187 0.0
O273 O 0.91117 0.95749 0.09508 0.0
O274 O 0.96967 0.02183 0.1392 0.0
O275 O 0.95988 0.9799 0.16642 0.0
O276 O 0.93698 0.91854 0.18312 0.0
O277 O 0.93937 0.91019 0.14244 0.0
C278 C 0.88399 0.04849 0.14546 0.0
C279 C 0.94568 0.89698 0.16419 0.0
Dy280 Dy 0.3074 0.65001 0.93055 0.0
C281 C 0.3304 0.6992 0.83674 0.0
C282 C 0.28773 0.63562 0.97773 0.0
Dy283 Dy 0.30882 0.6849 0.8816 0.0
O284 O 0.28127 0.61211 0.9599 0.0
O285 O 0.30584 0.66624 0.96978 0.0
O286 O 0.35099 0.60274 0.91655 0.0
O287 O 0.30917 0.62729 0.89501 0.0
C288 C 0.33731 0.60451 0.89481 0.0
C289 C 0.26512 0.72663 0.91081 0.0
O290 O 0.25539 0.64962 0.87671 0.0
O291 O 0.24453 0.64031 0.91709 0.0
O292 O 0.31593 0.72535 0.851 0.0
O293 O 0.33197 0.66519 0.84671 0.0
O294 O 0.25782 0.7213 0.88831 0.0
O295 O 0.29758 0.71063 0.91689 0.0
O296 O 0.3663 0.68017 0.93335 0.0
O297 O 0.3686 0.70088 0.89417 0.0
C298 C 0.23284 0.63778 0.89437 0.0
C299 C 0.38441 0.69813 0.91555 0.0
Dy300 Dy 0.63504 0.05694 0.68106 0.0
C301 C 0.59232 0.08125 0.58789 0.0
C302 C 0.64523 0.03683 0.72835 0.0
Dy303 Dy 0.60308 0.07278 0.63476 0.0
O304 O 0.66812 0.06013 0.7164 0.0
O305 O 0.61689 0.02561 0.71456 0.0
O306 O 0.69467 0.05594 0.66233 0.0
O307 O 0.65322 0.09635 0.65228 0.0
C308 C 0.68673 0.08384 0.64736 0.0
C309 C 0.54858 0.04119 0.66328 0.0
O310 O 0.63409 1.0158 0.6271 0.0
O311 O 0.64731 0.99802 0.66584 0.0
O312 O 0.56602 0.08921 0.60374 0.0
O313 O 0.62439 0.06926 0.59768 0.0
O314 O 0.54271 0.07033 0.64906 0.0
O315 O 0.58424 0.03091 0.66216 0.0
O316 O 0.59904 0.11293 0.68687 0.0
O317 O 0.60189 0.13346 0.64803 0.0
C318 C 0.64771 0.9903 0.64278 0.0
C319 C 0.59348 0.14052 0.67047 0.0
C320 C 0.28659 0.30189 0.20362 0.0
C321 C 0.30263 0.26485 0.20779 0.0
C322 C 0.27103 0.3236 0.22234 0.0
C323 C 0.27259 0.30791 0.24552 0.0
C324 C 0.29164 0.27195 0.25006 0.0
C325 C 0.30616 0.25046 0.23092 0.0
C326 C 0.25061 0.36181 0.21714 0.0
C327 C 0.29496 0.25529 0.2749 0.0
C328 C 0.25776 0.36764 0.30033 0.0
C329 C 0.22186 0.3528 0.30816 0.0
C330 C 0.2737 0.35526 0.27887 0.0
C331 C 0.25271 0.32794 0.26506 0.0
C332 C 0.21465 0.31589 0.27174 0.0
C333 C 0.19972 0.32821 0.29361 0.0
C334 C 0.31456 0.36826 0.27236 0.0
C335 C 0.19123 0.28754 0.2568 0.0
H336 H 0.28388 0.31283 0.18557 0.0
H337 H 0.3188 0.2218 0.23393 0.0
H338 H 0.2593 0.38467 0.23012 0.0
H339 H 0.25695 0.37259 0.1989 0.0
H340 H 0.21854 0.35767 0.21893 0.0
H341 H 0.31392 0.22893 0.27551 0.0
H342 H 0.30707 0.2775 0.28731 0.0
H343 H 0.26547 0.24715 0.28148 0.0
H344 H 0.27489 0.38669 0.31177 0.0
H345 H 0.17195 0.31695 0.29991 0.0
H346 H 0.3166 0.37537 0.25315 0.0
H347 H 0.33537 0.34406 0.27596 0.0
H348 H 0.32398 0.39417 0.28285 0.0
H349 H 0.16027 0.28575 0.2627 0.0
H350 H 0.20439 0.25799 0.25814 0.0
H351 H 0.19188 0.29623 0.23777 0.0
C352 C 0.43757 0.46242 0.54777 0.0
C353 C 0.46108 0.4435 0.56455 0.0
C354 C 0.45325 0.47446 0.52625 0.0
C355 C 0.49274 0.46559 0.52136 0.0
C356 C 0.51539 0.44276 0.53715 0.0
C357 C 0.49926 0.43226 0.55899 0.0
C358 C 0.42874 0.49961 0.50983 0.0
C359 C 0.55727 0.43193 0.5317 0.0
C360 C 0.51951 0.4821 0.45799 0.0
C361 C 0.53739 0.51882 0.45946 0.0
C362 C 0.50646 0.46343 0.47835 0.0
C363 C 0.51072 0.48263 0.50038 0.0
C364 C 0.52885 0.51974 0.50206 0.0
C365 C 0.5425 0.53743 0.48133 0.0
C366 C 0.48754 0.42364 0.47625 0.0
C367 C 0.53271 0.54114 0.52551 0.0
H368 H 0.40814 0.47124 0.55237 0.0
H369 H 0.51711 0.41744 0.57218 0.0
H370 H 0.42801 0.48697 0.49164 0.0
H371 H 0.39818 0.50291 0.51621 0.0
H372 H 0.44199 0.52912 0.50845 0.0
H373 H 0.56893 0.40993 0.5444 0.0
H374 H 0.55967 0.42016 0.51333 0.0
H375 H 0.57596 0.45839 0.53271 0.0
H376 H 0.51609 0.46759 0.44092 0.0
H377 H 0.55669 0.56574 0.48217 0.0
H378 H 0.45612 0.42565 0.48101 0.0
H379 H 0.50142 0.40292 0.48889 0.0
H380 H 0.48975 0.41145 0.45795 0.0
H381 H 0.50319 0.54728 0.53282 0.0
H382 H 0.5487 0.56923 0.52368 0.0
H383 H 0.54835 0.52268 0.53868 0.0
C384 C 0.24372 0.76675 0.72384 0.0
C385 C 0.26518 0.76886 0.70284 0.0
C386 C 0.26005 0.74914 0.74389 0.0
C387 C 0.29873 0.73436 0.74256 0.0
C388 C 0.31968 0.73481 0.72102 0.0
C389 C 0.30247 0.75213 0.70125 0.0
C390 C 0.23674 0.74805 0.76672 0.0
C391 C 0.36094 0.71923 0.71924 0.0
C392 C 0.34204 0.7427 0.80301 0.0
C393 C 0.33453 0.70522 0.81148 0.0
C394 C 0.33457 0.75163 0.77927 0.0
C395 C 0.31837 0.72238 0.76441 0.0
C396 C 0.31485 0.68345 0.77233 0.0
C397 C 0.32333 0.67522 0.79603 0.0
C398 C 0.3398 0.79324 0.77091 0.0
C399 C 0.29747 0.65159 0.75697 0.0
H400 H 0.21472 0.77957 0.72473 0.0
H401 H 0.31901 0.75415 0.68484 0.0
H402 H 0.23722 0.71821 0.77442 0.0
H403 H 0.25012 0.7681 0.77999 0.0
H404 H 0.20579 0.75697 0.76395 0.0
H405 H 0.363 0.68974 0.72731 0.0
H406 H 0.37116 0.71754 0.70049 0.0
H407 H 0.38103 0.73867 0.72932 0.0
H408 H 0.35105 0.76555 0.81527 0.0
H409 H 0.3172 0.64633 0.80295 0.0
H410 H 0.31081 0.80779 0.76995 0.0
H411 H 0.35277 0.79394 0.75282 0.0
H412 H 0.35876 0.81033 0.78321 0.0
H413 H 0.26524 0.65135 0.75942 0.0
H414 H 0.30888 0.62247 0.76226 0.0
H415 H 0.30353 0.65616 0.73778 0.0
C416 C 0.05201 0.49799 0.9539 0.0
C417 C 1.01653 0.47823 0.95708 0.0
C418 C 0.07187 0.51346 0.9734 0.0
C419 C 0.05618 0.50759 0.9963 0.0
C420 C 0.02303 0.4835 0.99976 0.0
C421 C 1.00302 0.46945 0.97986 0.0
C422 C 0.10696 0.53941 0.96923 0.0
C423 C 1.0069 0.4753 0.02428 0.0
C424 C 0.11183 0.53423 0.05124 0.0
C425 C 0.09137 0.56762 0.05837 0.0
C426 C 0.10197 0.51511 0.03025 0.0
C427 C 0.07125 0.53034 0.01629 0.0
C428 C 0.05233 0.56569 0.02262 0.0
C429 C 0.06222 0.58369 0.0441 0.0
C430 C 0.12206 0.47708 0.02415 0.0
C431 C 0.02005 0.58303 1.00754 0.0
H432 H 0.06255 0.50428 0.93611 0.0
H433 H 0.97578 0.45361 0.98208 0.0
H434 H 0.09749 0.57039 0.97013 0.0
H435 H 0.12972 0.53519 0.9831 0.0
H436 H 0.12031 0.53405 0.9515 0.0
H437 H 0.98496 0.45134 0.02401 0.0
H438 H 0.03083 0.46732 0.03675 0.0
H439 H 0.99258 0.50198 0.03135 0.0
H440 H 0.13371 0.52147 0.06293 0.0
H441 H 0.04621 0.60916 0.05021 0.0
H442 H 0.14856 0.47209 0.03526 0.0
H443 H 0.13066 0.47639 1.00512 0.0
H444 H 0.10143 0.45253 0.02708 0.0
H445 H 1.01196 0.61292 1.01349 0.0
H446 H 0.99365 0.56424 1.00856 0.0
H447 H 0.02913 0.58427 0.98858 0.0
C448 C 0.74474 0.73014 0.8293 0.0
C449 C 0.72662 0.76664 0.82708 0.0
C450 C 0.75944 0.71115 0.8093 0.0
C451 C 0.75455 0.72892 0.78687 0.0
C452 C 0.73178 0.76322 0.78428 0.0
C453 C 0.71837 0.78214 0.80467 0.0
C454 C 0.78381 0.67473 0.81256 0.0
C455 C 0.7247 0.78185 0.76027 0.0
C456 C 0.82996 0.72847 0.7389 0.0
C457 C 0.81232 0.70295 0.72289 0.0
C458 C 0.81322 0.73426 0.76124 0.0
C459 C 0.77748 0.71521 0.76663 0.0
C460 C 0.76128 0.68731 0.75099 0.0
C461 C 0.77938 0.68119 0.72918 0.0
C462 C 0.83178 0.76324 0.77815 0.0
C463 C 0.72282 0.66725 0.75604 0.0
H464 H 0.75043 0.71804 0.84679 0.0
H465 H 0.70373 0.81016 0.80316 0.0
H466 H 0.78007 0.65404 0.79752 0.0
H467 H 0.81518 0.68309 0.81324 0.0
H468 H 0.77638 0.65943 0.82939 0.0
H469 H 0.70163 0.8047 0.76106 0.0
H470 H 0.75214 0.79563 0.75391 0.0
H471 H 0.71594 0.75948 0.74695 0.0
H472 H 0.85529 0.74532 0.73348 0.0
H473 H 0.76568 0.66213 0.71612 0.0
H474 H 0.83243 0.75133 0.79652 0.0
H475 H 0.81415 0.79046 0.77847 0.0
H476 H 0.86211 0.77083 0.77277 0.0
H477 H 0.71742 0.64239 0.74371 0.0
H478 H 0.69861 0.68861 0.75392 0.0
H479 H 0.72185 0.65637 0.77462 0.0
C480 C 0.75132 0.3593 0.2325 0.0
C481 C 0.71798 0.3387 0.2253 0.0
C482 C 0.77162 0.34825 0.25291 0.0
C483 C 0.75675 0.31729 0.26672 0.0
C484 C 0.72105 0.29871 0.26055 0.0
C485 C 0.70251 0.30901 0.23931 0.0
C486 C 0.8104 0.36744 0.25853 0.0
C487 C 0.70365 0.26667 0.27567 0.0
C488 C 0.81558 0.24944 0.30467 0.0
C489 C 0.80686 0.26438 0.32717 0.0
C490 C 0.80252 0.26886 0.28431 0.0
C491 C 0.77925 0.30277 0.28702 0.0
C492 C 0.77349 0.31974 0.30963 0.0
C493 C 0.78817 0.30054 0.32956 0.0
C494 C 0.81094 0.25145 0.26012 0.0
C495 C 0.74819 0.3555 0.31311 0.0
H496 H 0.76359 0.38159 0.221 0.0
H497 H 0.67699 0.293 0.2332 0.0
H498 H 0.81139 0.37728 0.27734 0.0
H499 H 0.8343 0.34583 0.25615 0.0
H500 H 0.8163 0.39291 0.24683 0.0
H501 H 0.6736 0.25873 0.2698 0.0
H502 H 0.72228 0.24018 0.27463 0.0
H503 H 0.70261 0.2759 0.29463 0.0
H504 H 0.83067 0.22168 0.30302 0.0
H505 H 0.78203 0.3122 0.34711 0.0
H506 H 0.819 0.27466 0.24725 0.0
H507 H 0.7843 0.23673 0.25322 0.0
H508 H 0.83495 0.2296 0.2609 0.0
H509 H 0.75432 0.37003 0.33042 0.0
H510 H 0.71699 0.34647 0.31275 0.0
H511 H 0.75232 0.37715 0.29869 0.0
C512 C 0.9252 0.96753 0.04533 0.0
C513 C 0.95336 0.95254 0.06092 0.0
C514 C 0.93539 0.97728 0.02214 0.0
C515 C 0.97441 0.97135 1.01485 0.0
C516 C 1.00171 0.95215 0.02975 0.0
C517 C 0.99081 0.94319 0.05296 0.0
C518 C 0.90573 0.99788 1.00662 0.0
C519 C 0.04337 0.94465 0.02203 0.0
C520 C 1.00673 0.98566 0.95211 0.0
C521 C 0.02493 0.02219 0.95386 0.0
C522 C 0.98818 0.96936 0.97168 0.0
C523 C 0.98848 0.99021 0.9933 0.0
C524 C 1.00548 0.02787 0.99494 0.0
C525 C 0.02387 0.0435 0.975 0.0
C526 C 0.97016 0.92919 0.96956 0.0
C527 C 1.00561 0.05086 0.01795 0.0
H528 H 0.89634 0.97506 0.05185 0.0
H529 H 1.01223 0.93134 0.06529 0.0
H530 H 0.90854 0.98903 0.98769 0.0
H531 H 0.87531 0.99197 1.01258 0.0
H532 H 0.91085 0.02986 1.00763 0.0
H533 H 0.05893 0.92463 0.03442 0.0
H534 H 0.04406 0.93189 1.00386 0.0
H535 H 0.05961 0.97272 0.02147 0.0
H536 H 1.00814 0.9691 0.93566 0.0
H537 H 0.03798 0.07183 0.97604 0.0
H538 H 0.98786 0.908 0.97995 0.0
H539 H 0.96866 0.91899 0.95077 0.0
H540 H 0.94019 0.92901 0.9771 0.0
H541 H 0.97557 0.0526 0.02534 0.0
H542 H 1.01698 0.081 1.01553 0.0
H543 H 0.02421 0.03577 0.03131 0.0
C544 C 0.49877 0.98427 0.47847 0.0
C545 C 0.50646 1.00243 0.45678 0.0
C546 C 0.51583 0.9986 0.49925 0.0
C547 C 0.54115 0.03119 0.49773 0.0
C548 C 0.54996 0.04873 0.47573 0.0
C549 C 0.53199 0.03425 0.45541 0.0
C550 C 0.50583 0.97983 0.52282 0.0
C551 C 0.57755 0.08312 0.47377 0.0
C552 C 0.54965 0.09073 0.55327 0.0
C553 C 0.58304 0.07402 0.56328 0.0
C554 C 0.5361 0.07771 0.53127 0.0
C555 C 0.55714 0.04798 0.51939 0.0
C556 C 0.59197 0.03249 0.52893 0.0
C557 C 0.60409 0.0452 0.55122 0.0
C558 C 0.49831 0.09405 0.52141 0.0
C559 C 0.6153 1.00136 0.51615 0.0
H560 H 0.47869 0.95977 0.47925 0.0
H561 H 0.53705 0.04857 0.43853 0.0
H562 H 0.53291 0.97015 0.53201 0.0
H563 H 0.4913 1.00152 0.53456 0.0
H564 H 0.48612 0.95424 0.52068 0.0
H565 H 0.60722 0.07436 0.47981 0.0
H566 H 0.57966 0.09436 0.45526 0.0
H567 H 0.56779 0.1073 0.4855 0.0
H568 H 0.53323 0.1125 0.56313 0.0
H569 H 0.62919 0.03145 0.5596 0.0
H570 H 0.47596 0.07056 0.52053 0.0
H571 H 0.50274 0.1049 0.503 0.0
H572 H 0.48665 0.11831 0.53248 0.0
H573 H 0.59753 0.97441 0.51429 0.0
H574 H 0.64283 0.9939 0.5257 0.0
H575 H 0.62276 1.01134 0.49792 0.0
C576 C 0.17813 0.07479 0.93465 0.0
C577 C 0.1896 0.09669 0.9146 0.0
C578 C 0.19459 0.08102 0.95733 0.0
C579 C 0.22351 0.11017 0.96051 0.0
C580 C 0.23512 0.13274 0.94045 0.0
C581 C 0.21811 0.12573 0.91773 0.0
C582 C 0.1808 0.05628 0.97795 0.0
C583 C 0.26549 0.16439 0.94306 0.0
C584 C 0.23664 0.14843 0.02423 0.0
C585 C 0.26965 0.12779 0.03232 0.0
C586 C 0.22197 0.14362 1.00091 0.0
C587 C 0.24057 0.11738 0.98499 0.0
C588 C 0.274 0.09643 0.99306 0.0
C589 C 0.28819 0.10195 0.01655 0.0
C590 C 0.18606 0.16627 0.99347 0.0
C591 C 0.2944 0.06763 0.97698 0.0
H592 H 0.15607 0.05229 0.93265 0.0
H593 H 0.22717 0.14284 0.90249 0.0
H594 H 0.20597 0.04067 0.98606 0.0
H595 H 0.16796 0.07516 0.99198 0.0
H596 H 0.15851 0.03437 0.97247 0.0
H597 H 0.27181 0.17913 0.92588 0.0
H598 H 0.25529 0.1866 0.95606 0.0
H599 H 0.29306 0.15182 0.95018 0.0
H600 H 0.22201 0.16848 0.03624 0.0
H601 H 0.31361 0.08581 0.02262 0.0
H602 H 0.16178 0.14576 0.98943 0.0
H603 H 0.1921 0.18298 0.97696 0.0
H604 H 0.17612 0.18693 1.00748 0.0
H605 H 0.27404 0.04355 0.97227 0.0
H606 H 0.32091 0.05487 0.98543 0.0
H607 H 0.30301 0.08211 0.96012 0.0
C608 C 0.669 0.55029 0.2637 0.0
C609 C 0.65713 0.52379 0.28126 0.0
C610 C 0.67294 0.53854 0.23966 0.0
C611 C 0.66556 0.49915 0.23299 0.0
C612 C 0.65413 0.4722 0.25084 0.0
C613 C 0.64962 0.48493 0.27457 0.0
C614 C 0.68529 0.56827 0.22136 0.0
C615 C 0.64763 0.4296 0.24504 0.0
C616 C 0.65015 0.46818 0.16741 0.0
C617 C 0.68777 0.45545 0.1612 0.0
C618 C 0.64256 0.48352 0.19049 0.0
C619 C 0.67302 0.48539 0.20785 0.0
C620 C 0.71103 0.47311 0.20137 0.0
C621 C 0.71799 0.45943 0.17818 0.0
C622 C 0.60173 0.49674 0.19658 0.0
C623 C 0.74423 0.47271 0.21924 0.0
H624 H 0.67467 0.58037 0.26868 0.0
H625 H 0.64061 0.46416 0.28805 0.0
H626 H 0.71434 0.56027 0.21405 0.0
H627 H 0.66423 0.56841 0.20627 0.0
H628 H 0.68716 0.59821 0.22894 0.0
H629 H 0.63758 0.41262 0.26074 0.0
H630 H 0.6256 0.42658 0.23061 0.0
H631 H 0.67527 0.41647 0.23848 0.0
H632 H 0.62653 0.46494 0.15464 0.0
H633 H 0.74732 0.45003 0.17366 0.0
H634 H 0.60249 0.52691 0.20384 0.0
H635 H 0.58941 0.47763 0.21063 0.0
H636 H 0.58189 0.49603 0.18087 0.0
H637 H 0.77204 0.46182 0.21143 0.0
H638 H 0.73651 0.45374 0.23454 0.0
H639 H 0.74924 0.50251 0.22638 0.0
C640 C 0.282 0.875 0.51916 0.0
C641 C 0.25757 0.90311 0.52969 0.0
C642 C 0.29885 0.88098 0.49658 0.0
C643 C 0.28996 0.9153 0.48354 0.0
C644 C 0.26482 0.94362 0.494 0.0
C645 C 0.24954 0.93752 0.51711 0.0
C646 C 0.3271 0.85096 0.48697 0.0
C647 C 0.25404 0.98041 0.48077 0.0
C648 C 0.36009 0.95056 0.43516 0.0
C649 C 0.3436 0.93529 0.41413 0.0
C650 C 0.34356 0.94362 0.45769 0.0
C651 C 0.30829 0.92216 0.45947 0.0
C652 C 0.29108 0.90694 0.43829 0.0
C653 C 0.30922 0.91316 0.41591 0.0
C654 C 0.36412 0.95926 0.47959 0.0
C655 C 0.2531 0.88461 0.43926 0.0
H656 H 0.28892 0.84859 0.52895 0.0
H657 H 0.2308 0.9594 0.52516 0.0
H658 H 0.31627 0.83929 0.46973 0.0
H659 H 0.3559 0.86484 0.48354 0.0
H660 H 0.3315 0.82616 0.49944 0.0
H661 H 0.23162 0.99785 0.49036 0.0
H662 H 0.28042 0.99882 0.4783 0.0
H663 H 0.24268 0.97299 0.46278 0.0
H664 H 0.38622 0.96828 0.43405 0.0
H665 H 0.29595 0.90164 0.39982 0.0
H666 H 0.36922 0.93533 0.49255 0.0
H667 H 0.34546 0.98135 0.48851 0.0
H668 H 0.39272 0.97299 0.47531 0.0
H669 H 0.25695 0.85772 0.45001 0.0
H670 H 0.24239 0.87625 0.42126 0.0
H671 H 0.23038 0.90258 0.44818 0.0
C672 C 0.87609 0.56893 0.66964 0.0
C673 C 0.84034 0.58743 0.66467 0.0
C674 C 0.8836 0.55238 0.69244 0.0
C675 C 0.85488 0.55448 0.71076 0.0
C676 C 0.8186 0.57249 0.70555 0.0
C677 C 0.81178 0.58818 0.68276 0.0
C678 C 0.92258 0.53325 0.69712 0.0
C679 C 0.78714 0.57628 0.7243 0.0
C680 C 0.85607 0.48732 0.76577 0.0
C681 C 0.87252 0.51154 0.78331 0.0
C682 C 0.85116 0.50047 0.74204 0.0
C683 C 0.86261 0.53895 0.73556 0.0
C684 C 0.8789 0.56357 0.75337 0.0
C685 C 0.88389 0.54953 0.77682 0.0
C686 C 0.83323 0.47328 0.72389 0.0
C687 C 0.89041 0.60515 0.74779 0.0
H688 H 0.89843 0.56818 0.65599 0.0
H689 H 0.78386 0.60203 0.67932 0.0
H690 H 0.93845 0.54952 0.71126 0.0
H691 H 0.91809 0.50303 0.7037 0.0
H692 H 0.94119 0.53222 0.68093 0.0
H693 H 0.75945 0.5884 0.71698 0.0
H694 H 0.78078 0.54747 0.73241 0.0
H695 H 0.79753 0.59577 0.73881 0.0
H696 H 0.84728 0.45794 0.77055 0.0
H697 H 0.89654 0.56861 0.79021 0.0
H698 H 0.85276 0.47064 0.7082 0.0
H699 H 0.80501 0.48547 0.71749 0.0
H700 H 0.82781 0.44368 0.73126 0.0
H701 H 0.91092 0.60577 0.73251 0.0
H702 H 0.90446 0.61996 0.76322 0.0
H703 H 0.86408 0.62212 0.74255 0.0
C704 C 0.81663 0.89846 0.11675 0.0
C705 C 0.82899 0.9362 0.123 0.0
C706 C 0.80128 0.89057 0.09365 0.0
C707 C 0.79877 0.92086 0.07632 0.0
C708 C 0.81094 0.95891 0.08279 0.0
C709 C 0.8248 0.96613 0.10596 0.0
C710 C 0.78881 0.84958 0.0875 0.0
C711 C 0.81066 0.99205 0.065 0.0
C712 C 0.7989 0.89716 1.00945 0.0
C713 C 0.76024 0.90572 1.00267 0.0
C714 C 0.81168 0.90121 0.03324 0.0
C715 C 0.78491 0.91319 0.05114 0.0
C716 C 0.74559 0.92124 0.0444 0.0
C717 C 0.73385 0.91781 0.0203 0.0
C718 C 0.85394 0.89215 0.0389 0.0
C719 C 0.7158 0.93341 0.06275 0.0
H720 H 0.82015 0.875 0.12952 0.0
H721 H 0.83388 0.99555 0.11047 0.0
H722 H 0.75895 0.8498 0.07965 0.0
H723 H 0.80891 0.83736 0.0739 0.0
H724 H 0.78904 0.83007 0.10329 0.0
H725 H 0.8266 0.01817 0.07168 0.0
H726 H 0.8242 0.98272 0.04797 0.0
H727 H 0.78005 1.00066 0.06105 0.0
H728 H 0.81953 0.88745 0.99604 0.0
H729 H 0.70383 0.92403 1.01531 0.0
H730 H 0.85651 0.86073 0.04347 0.0
H731 H 0.86505 0.90932 0.05424 0.0
H732 H 0.87306 0.89774 0.02329 0.0
H733 H 0.71598 0.91252 0.07786 0.0
H734 H 0.68574 0.93488 0.05522 0.0
H735 H 0.72351 0.96256 0.07 0.0
C736 C 0.3176 0.57825 0.85512 0.0
C737 C 0.34685 0.58135 0.87278 0.0
C738 C 0.32515 0.56301 0.83234 0.0
C739 C 0.3628 0.54839 0.82689 0.0
C740 C 0.39228 0.54973 0.84488 0.0
C741 C 0.3841 0.56641 0.86758 0.0
C742 C 0.29277 0.56371 0.81392 0.0
C743 C 0.43278 0.53452 0.83986 0.0
C744 C 0.36527 0.48233 0.7714 0.0
C745 C 0.37999 0.50754 0.7539 0.0
C746 C 0.36113 0.4947 0.79534 0.0
C747 C 0.37115 0.53352 0.80202 0.0
C748 C 0.38593 0.55906 0.78426 0.0
C749 C 0.39059 0.54563 0.76067 0.0
C750 C 0.34589 0.46615 0.81352 0.0
C751 C 0.39725 0.60073 0.78981 0.0
H752 H 0.28847 0.589 0.85883 0.0
H753 H 0.40706 0.56884 0.88085 0.0
H754 H 0.30383 0.57434 0.79653 0.0
H755 H 0.28143 0.5337 0.81116 0.0
H756 H 0.26795 0.58264 0.81942 0.0
H757 H 0.45138 0.53395 0.85611 0.0
H758 H 0.43109 0.50457 0.8323 0.0
H759 H 0.44705 0.55338 0.82637 0.0
H760 H 0.35722 0.45279 0.76642 0.0
H761 H 0.40217 0.5654 0.74736 0.0
H762 H 0.31645 0.47541 0.81957 0.0
H763 H 0.36535 0.4658 0.82939 0.0
H764 H 0.34366 0.43602 0.80626 0.0
H765 H 0.38081 0.61294 0.80509 0.0
H766 H 0.39255 0.61992 0.7741 0.0
H767 H 0.42887 0.60166 0.79432 0.0
C768 C 0.80048 0.11905 0.52155 0.0
C769 C 0.7746 0.11719 0.5021 0.0
C770 C 0.78718 0.11342 0.54524 0.0
C771 C 0.74723 0.10443 0.54976 0.0
C772 C 0.72139 0.10195 0.52994 0.0
C773 C 0.73518 0.10868 0.50662 0.0
C774 C 0.81572 0.11818 0.56556 0.0
C775 C 0.67935 0.09034 0.53299 0.0
C776 C 0.72181 0.05783 0.61062 0.0
C777 C 0.70482 0.08916 0.62311 0.0
C778 C 0.73481 0.06204 0.58674 0.0
C779 C 0.73241 0.09889 0.57512 0.0
C780 C 0.71535 0.13055 0.58777 0.0
C781 C 0.7013 0.12515 0.61126 0.0
C782 C 0.74986 0.02664 0.57363 0.0
C783 C 0.71131 0.17021 0.57633 0.0
H784 H 0.83091 0.12617 0.51833 0.0
H785 H 0.71494 0.10684 0.49174 0.0
H786 H 0.80507 0.14116 0.57793 0.0
H787 H 0.81771 0.09059 0.57583 0.0
H788 H 0.84547 0.12626 0.55933 0.0
H789 H 0.66116 0.0981 0.51725 0.0
H790 H 0.67866 0.0582 0.53509 0.0
H791 H 0.66627 0.10379 0.54908 0.0
H792 H 0.72352 0.02952 0.61918 0.0
H793 H 0.68741 0.14932 0.62044 0.0
H794 H 0.78046 0.03163 0.56784 0.0
H795 H 0.73203 0.0217 0.55734 0.0
H796 H 0.74885 0.9998 0.58473 0.0
H797 H 0.7402 0.18027 0.56972 0.0
H798 H 0.69953 0.19243 0.58884 0.0
H799 H 0.69139 0.16824 0.56073 0.0
C800 C 0.20773 0.48712 0.36352 0.0
C801 C 0.18887 0.4526 0.37059 0.0
C802 C 0.20287 0.50245 0.34022 0.0
C803 C 0.1793 0.48248 0.32319 0.0
C804 C 0.16048 0.44745 0.33026 0.0
C805 C 0.16457 0.43369 0.35387 0.0
C806 C 0.22322 0.54 0.3337 0.0
C807 C 0.13682 0.42376 0.31267 0.0
C808 C 0.13414 0.53587 0.26943 0.0
C809 C 0.16052 0.52735 0.25101 0.0
C810 C 0.14041 0.52227 0.29292 0.0
C811 C 0.17344 0.49863 0.29827 0.0
C812 C 0.20007 0.48985 0.27958 0.0
C813 C 0.1935 0.50454 0.25636 0.0
C814 C 0.11144 0.53313 0.31205 0.0
C815 C 0.2343 0.46294 0.28359 0.0
H816 H 0.22663 0.50201 0.37613 0.0
H817 H 0.14988 0.40693 0.35899 0.0
H818 H 0.24385 0.53469 0.31881 0.0
H819 H 0.20138 0.56171 0.32743 0.0
H820 H 0.23974 0.55266 0.34893 0.0
H821 H 0.12606 0.39595 0.32045 0.0
H822 H 0.11132 0.44096 0.30637 0.0
H823 H 0.15492 0.41679 0.29683 0.0
H824 H 0.1085 0.55339 0.2655 0.0
H825 H 0.21371 0.49715 0.24219 0.0
H826 H 0.12693 0.54699 0.32728 0.0
H827 H 0.0969 0.50645 0.31888 0.0
H828 H 0.08856 0.55351 0.30546 0.0
H829 H 0.24917 0.46912 0.30078 0.0
H830 H 0.25609 0.46469 0.26897 0.0
H831 H 0.22299 0.43269 0.28423 0.0
C832 C 0.78758 0.60405 0.51804 0.0
C833 C 0.76949 0.63137 0.53307 0.0
C834 C 0.7738 0.59758 0.49456 0.0
C835 C 0.74104 0.61882 0.48581 0.0
C836 C 0.72276 0.64639 0.50102 0.0
C837 C 0.73721 0.65236 0.52429 0.0
C838 C 0.79398 0.56757 0.47921 0.0
C839 C 0.68733 0.66916 0.49289 0.0
C840 C 0.71976 0.62419 0.41831 0.0
C841 C 0.69102 0.59529 0.41553 0.0
C842 C 0.73655 0.63203 0.44099 0.0
C843 C 0.72432 0.61059 0.46137 0.0
C844 C 0.6952 0.58155 0.45853 0.0
C845 C 0.6792 0.57429 0.43585 0.0
C846 C 0.76734 0.66336 0.44321 0.0
C847 C 0.68064 0.55809 0.4795 0.0
H848 H 0.81245 0.58762 0.52466 0.0
H849 H 0.72285 0.67343 0.53576 0.0
H850 H 0.77332 0.54358 0.47486 0.0
H851 H 0.8031 0.58098 0.46211 0.0
H852 H 0.82014 0.55486 0.48808 0.0
H853 H 0.67734 0.69057 0.50648 0.0
H854 H 0.69399 0.68505 0.47618 0.0
H855 H 0.66288 0.64879 0.48898 0.0
H856 H 0.72912 0.64059 0.40285 0.0
H857 H 0.65713 0.55175 0.43408 0.0
H858 H 0.79455 0.65077 0.45083 0.0
H859 H 0.75719 0.68643 0.45565 0.0
H860 H 0.77428 0.67703 0.42579 0.0
H861 H 0.70532 0.54207 0.48787 0.0
H862 H 0.65771 0.53664 0.47434 0.0
H863 H 0.66835 0.57791 0.49323 0.0
C864 C 0.12966 1.00006 0.7693 0.0
C865 C 0.15816 0.02408 0.7799 0.0
C866 C 0.13556 0.98265 0.7468 0.0
C867 C 0.17033 0.99041 0.73391 0.0
C868 C 0.1991 1.01506 0.74445 0.0
C869 C 0.19298 0.03101 0.76744 0.0
C870 C 0.10486 0.95516 0.73709 0.0
C871 C 0.2364 0.02466 0.7314 0.0
C872 C 0.20397 0.91883 0.68555 0.0
C873 C 0.18969 0.93583 0.66443 0.0
C874 C 0.19739 0.93578 0.70807 0.0
C875 C 0.17698 0.9717 0.70982 0.0
C876 C 0.16255 0.98921 0.68856 0.0
C877 C 0.16859 0.97087 0.66618 0.0
C878 C 0.21226 0.915 0.73003 0.0
C879 C 0.14122 0.02775 0.68945 0.0
H880 H 0.10288 0.99398 0.77894 0.0
H881 H 0.2152 0.0494 0.7755 0.0
H882 H 0.09354 0.96619 0.71984 0.0
H883 H 0.11806 0.92606 0.73368 0.0
H884 H 0.07985 0.95145 0.74949 0.0
H885 H 0.25452 0.04642 0.74114 0.0
H886 H 0.25398 0.99775 0.72887 0.0
H887 H 0.22946 0.03632 0.71344 0.0
H888 H 0.22052 0.89191 0.68448 0.0
H889 H 0.15775 0.98447 0.65005 0.0
H890 H 0.18791 0.91033 0.74276 0.0
H891 H 0.23449 0.93326 0.7392 0.0
H892 H 0.22563 0.88623 0.72578 0.0
H893 H 0.11412 0.02474 0.70012 0.0
H894 H 0.13325 0.03852 0.67142 0.0
H895 H 0.15979 0.04998 0.69841 0.0
C896 C 0.79308 0.37835 0.02479 0.0
C897 C 0.7607 0.39982 0.03289 0.0
C898 C 0.808 0.38325 1.0016 0.0
C899 C 0.79015 0.41026 0.98581 0.0
C900 C 0.75731 0.43199 0.9939 0.0
C901 C 0.74298 0.42651 0.01728 0.0
C902 C 0.84352 0.36006 0.99418 0.0
C903 C 0.73777 0.46167 0.97799 0.0
C904 C 0.85403 0.45303 0.93666 0.0
C905 C 0.84269 0.43189 0.91622 0.0
C906 C 0.83713 0.44648 0.95908 0.0
C907 C 0.8077 0.41776 0.96161 0.0
C908 C 0.79603 0.39599 0.94115 0.0
C909 C 0.81362 0.40328 0.91869 0.0
C910 C 0.851 0.47045 0.98012 0.0
C911 C 0.76492 0.36497 0.94308 0.0
H912 H 0.80715 0.3578 0.03674 0.0
H913 H 0.71809 0.44337 0.0234 0.0
H914 H 0.83737 0.34393 0.97743 0.0
H915 H 0.86827 0.38017 0.99059 0.0
H916 H 0.85283 0.33883 1.00803 0.0
H917 H 0.71133 0.47466 0.98633 0.0
H918 H 0.75865 0.48552 0.97383 0.0
H919 H 0.72924 0.4479 0.96084 0.0
H920 H 0.87636 0.47524 0.93523 0.0
H921 H 0.80452 0.3868 0.90314 0.0
H922 H 0.86308 0.45097 0.9941 0.0
H923 H 0.82603 0.48647 0.98809 0.0
H924 H 0.87391 0.49196 0.97513 0.0
H925 H 0.7744 0.34218 0.95589 0.0
H926 H 0.75856 0.35088 0.92565 0.0
H927 H 0.73752 0.37797 0.95011 0.0
C928 C 0.37242 0.05688 0.16583 0.0
C929 C 0.34889 0.09033 0.16428 0.0
C930 C 0.37871 0.03812 0.18805 0.0
C931 C 0.36194 0.05372 0.20923 0.0
C932 C 0.33897 0.08795 0.20765 0.0
C933 C 0.33222 0.10507 0.18534 0.0
C934 C 0.40279 1.00126 0.18889 0.0
C935 C 0.32145 0.10678 0.22956 0.0
C936 C 0.3459 0.99437 0.26635 0.0
C937 C 0.37907 1.00421 0.27979 0.0
C938 C 0.34075 1.00891 0.24299 0.0
C939 C 0.36869 0.03507 0.23316 0.0
C940 C 0.40174 0.04569 0.24702 0.0
C941 C 0.40688 0.02956 0.26987 0.0
C942 C 0.30523 0.99647 0.22889 0.0
C943 C 0.43105 0.07521 0.23808 0.0
H944 H 0.38505 0.04489 0.14971 0.0
H945 H 0.3133 0.13022 0.18443 0.0
H946 H 0.42918 1.00598 0.20007 0.0
H947 H 0.3856 0.97748 0.19728 0.0
H948 H 0.4122 0.99164 0.17089 0.0
H949 H 0.30638 0.13475 0.22545 0.0
H950 H 0.29999 0.08673 0.23787 0.0
H951 H 0.34465 0.1126 0.24298 0.0
H952 H 0.32431 0.97485 0.27395 0.0
H953 H 0.43231 0.03779 0.28033 0.0
H954 H 0.31411 0.98615 0.21094 0.0
H955 H 0.28539 0.02177 0.22633 0.0
H956 H 0.28865 0.97283 0.2379 0.0
H957 H 0.44371 0.0653 0.22094 0.0
H958 H 0.45526 0.08026 0.25097 0.0
H959 H 0.41614 0.10349 0.23468 0.0
C960 C 0.34354 0.41363 0.60663 0.0
C961 C 0.32572 0.43878 0.62324 0.0
C962 C 0.32958 0.40985 0.58302 0.0
C963 C 0.29495 0.42951 0.57587 0.0
C964 C 0.27572 0.45367 0.59287 0.0
C965 C 0.29162 0.45856 0.61611 0.0
C966 C 0.35278 0.38572 0.56548 0.0
C967 C 0.23822 0.4744 0.58648 0.0
C968 C 0.27408 0.44429 0.50886 0.0
C969 C 0.25099 0.4116 0.50315 0.0
C970 C 0.28842 0.45057 0.53225 0.0
C971 C 0.27879 0.4241 0.55083 0.0
C972 C 0.2548 0.39144 0.54516 0.0
C973 C 0.24167 0.38537 0.52149 0.0
C974 C 0.31462 0.48521 0.53689 0.0
C975 C 0.24309 0.36264 0.56416 0.0
H976 H 0.36969 0.39783 0.61185 0.0
H977 H 0.27746 0.47804 0.62864 0.0
H978 H 0.335 0.36068 0.55911 0.0
H979 H 0.36021 0.40367 0.54967 0.0
H980 H 0.38039 0.37429 0.57333 0.0
H981 H 0.2255 0.49024 0.60192 0.0
H982 H 0.24364 0.49567 0.57199 0.0
H983 H 0.21642 0.453 0.57974 0.0
H984 H 0.28185 0.46459 0.49484 0.0
H985 H 0.22399 0.35996 0.51733 0.0
H986 H 0.3416 0.47563 0.54615 0.0
H987 H 0.29963 0.50627 0.54878 0.0
H988 H 0.32284 0.50059 0.52022 0.0
H989 H 0.26937 0.34717 0.57093 0.0
H990 H 0.22194 0.34055 0.55743 0.0
H991 H 0.22977 0.3783 0.57945 0.0
C992 C 0.85483 0.99362 0.26763 0.0
C993 C 0.88156 1.01134 0.2521 0.0
C994 C 0.84928 1.00788 0.29106 0.0
C995 C 0.87099 0.04068 0.29928 0.0
C996 C 0.89808 0.05851 0.28359 0.0
C997 C 0.90304 0.04366 0.26035 0.0
C998 C 0.81958 0.9883 0.30687 0.0
C999 C 0.92129 0.09396 0.29115 0.0
C1000 C 0.82764 0.10415 0.34863 0.0
C1001 C 0.84897 0.09304 0.36905 0.0
C1002 C 0.83446 0.08744 0.32614 0.0
C1003 C 0.86337 0.05819 0.32355 0.0
C1004 C 0.88517 0.0466 0.34401 0.0
C1005 C 0.8778 0.06416 0.36651 0.0
C1006 C 0.81057 0.10134 0.30508 0.0
C1007 C 0.91634 1.01561 0.34206 0.0
H1008 H 0.838 0.96876 0.26142 0.0
H1009 H 0.92367 0.05772 0.24848 0.0
H1010 H 0.83339 0.97975 0.324 0.0
H1011 H 0.79565 1.00909 0.31108 0.0
H1012 H 0.80661 0.96192 0.29843 0.0
H1013 H 0.94255 0.1033 0.27734 0.0
H1014 H 0.90113 0.11864 0.29482 0.0
H1015 H 0.93747 0.08776 0.30788 0.0
H1016 H 0.8051 0.12616 0.35014 0.0
H1017 H 0.89441 0.0552 0.38204 0.0
H1018 H 0.79446 0.07646 0.29703 0.0
H1019 H 0.83017 0.11331 0.29116 0.0
H1020 H 0.78909 0.12431 0.31007 0.0
H1021 H 0.90341 0.98826 0.33489 0.0
H1022 H 0.93037 1.00923 0.35949 0.0
H1023 H 0.93922 0.02516 0.32934 0.0
C1024 C 0.23294 0.58274 0.11389 0.0
C1025 C 0.20504 0.60789 0.12403 0.0
C1026 C 0.24678 0.58794 0.09042 0.0
C1027 C 0.23159 0.61846 0.07603 0.0
C1028 C 0.20329 0.64404 0.08614 0.0
C1029 C 0.19061 0.63865 0.10999 0.0
C1030 C 0.27674 0.55973 0.08072 0.0
C1031 C 0.18465 0.67573 0.07131 0.0
C1032 C 0.29069 0.65202 0.02148 0.0
C1033 C 0.2739 0.63037 1.00281 0.0
C1034 C 0.27732 0.64836 0.04519 0.0
C1035 C 0.24545 0.62329 0.05053 0.0
C1036 C 0.22799 0.60186 0.03156 0.0
C1037 C 0.24271 0.60521 1.0081 0.0
C1038 C 0.29765 0.67109 0.06464 0.0
C1039 C 0.19308 0.57607 0.03588 0.0
H1040 H 0.24288 0.55777 0.12413 0.0
H1041 H 0.16741 0.65685 0.11708 0.0
H1042 H 0.26367 0.54232 0.06604 0.0
H1043 H 0.30196 0.57598 0.07322 0.0
H1044 H 0.2877 0.53927 0.09456 0.0
H1045 H 0.16439 0.69425 0.08188 0.0
H1046 H 0.20748 0.69462 0.06333 0.0
H1047 H 0.16798 0.6623 0.05641 0.0
H1048 H 0.31475 0.67161 0.01758 0.0
H1049 H 0.22909 0.58883 0.99376 0.0
H1050 H 0.30915 0.65067 0.07831 0.0
H1051 H 0.27646 0.69072 0.07361 0.0
H1052 H 0.32227 0.68896 0.05776 0.0
H1053 H 0.20034 0.55331 0.04921 0.0
H1054 H 0.18254 0.56154 0.01934 0.0
H1055 H 0.16897 0.59397 0.04329 0.0
C1056 C 0.62746 0.99229 0.76201 0.0
C1057 C 0.65119 0.02247 0.7532 0.0
C1058 C 0.6331 0.97681 0.78502 0.0
C1059 C 0.66285 0.99219 0.79998 0.0
C1060 C 0.68668 0.02301 0.79123 0.0
C1061 C 0.68073 0.03759 0.76794 0.0
C1062 C 0.60786 0.94314 0.79305 0.0
C1063 C 0.71893 0.04017 0.80637 0.0
C1064 C 0.65817 0.96922 0.86718 0.0
C1065 C 0.68543 0.93877 0.86923 0.0
C1066 C 0.65078 0.98723 0.84485 0.0
C1067 C 0.67065 0.97419 0.82404 0.0
C1068 C 0.69778 0.94317 0.82612 0.0
C1069 C 0.70504 0.92638 0.84852 0.0
C1070 C 0.62182 0.02036 0.84346 0.0
C1071 C 0.71923 0.92743 0.80462 0.0
H1072 H 0.60478 0.98011 0.75069 0.0
H1073 H 0.69931 0.06076 0.76125 0.0
H1074 H 0.62644 0.91712 0.79642 0.0
H1075 H 0.5931 0.95055 0.81003 0.0
H1076 H 0.58524 0.93523 0.77963 0.0
H1077 H 0.7331 0.06567 0.79773 0.0
H1078 H 0.70711 0.04943 0.82388 0.0
H1079 H 0.74161 0.01768 0.80983 0.0
H1080 H 0.64301 0.97923 0.88298 0.0
H1081 H 0.72654 0.90329 0.84975 0.0
H1082 H 0.59742 1.01237 0.83133 0.0
H1083 H 0.63619 0.04662 0.83589 0.0
H1084 H 0.60953 0.02795 0.86118 0.0
H1085 H 0.69794 0.91768 0.79089 0.0
H1086 H 0.73861 0.90242 0.80913 0.0
H1087 H 0.7373 0.9508 0.79654 0.0
C1088 C 0.4306 0.24407 0.09993 0.0
C1089 C 0.42299 0.21599 0.11748 0.0
C1090 C 0.46643 0.26468 0.09951 0.0
C1091 C 0.49607 0.25605 0.1165 0.0
C1092 C 0.48884 0.22673 0.13378 0.0
C1093 C 0.45223 0.20773 0.13435 0.0
C1094 C 0.47204 0.29675 0.08143 0.0
C1095 C 0.51964 0.2156 0.15187 0.0
C1096 C 0.60161 0.28706 0.10272 0.0
C1097 C 0.60688 0.3189 0.11815 0.0
C1098 C 0.56593 0.2662 0.10213 0.0
C1099 C 0.53414 0.2783 0.11662 0.0
C1100 C 0.53911 0.31129 0.13168 0.0
C1101 C 0.57554 0.33057 0.13261 0.0
C1102 C 0.5627 0.23031 0.08662 0.0
C1103 C 0.50603 0.32611 0.147 0.0
H1104 H 0.40784 0.2512 0.08716 0.0
H1105 H 0.44646 0.1862 0.14805 0.0
H1106 H 0.47792 0.3248 0.09072 0.0
H1107 H 0.49784 0.29032 0.07014 0.0
H1108 H 0.44604 0.3005 0.06973 0.0
H1109 H 0.51095 0.18972 0.16254 0.0
H1110 H 0.54775 0.20915 0.14282 0.0
H1111 H 0.52491 0.24036 0.16422 0.0
H1112 H 0.62599 0.27737 0.09189 0.0
H1113 H 0.57953 0.35502 0.14468 0.0
H1114 H 0.53865 0.23398 0.07351 0.0
H1115 H 0.55536 0.20458 0.09776 0.0
H1116 H 0.59023 0.22411 0.07683 0.0
H1117 H 0.47927 0.3303 0.13604 0.0
H1118 H 0.51336 0.35419 0.1559 0.0
H1119 H 0.499 0.30429 0.16092 0.0
C1120 C 0.53438 0.67999 0.38306 0.0
C1121 C 0.56636 0.67223 0.36812 0.0
C1122 C 0.51341 0.71523 0.38153 0.0
C1123 C 0.52535 0.74435 0.36519 0.0
C1124 C 0.55773 0.7367 0.35003 0.0
C1125 C 0.57737 0.70041 0.35134 0.0
C1126 C 0.47865 0.72143 0.39768 0.0
C1127 C 0.57244 0.7674 0.33302 0.0
C1128 C 0.45384 0.82765 0.35079 0.0
C1129 C 0.46452 0.85573 0.36779 0.0
C1130 C 0.47342 0.79129 0.3496 0.0
C1131 C 0.50535 0.78345 0.36516 0.0
C1132 C 0.51696 0.81243 0.38176 0.0
C1133 C 0.49612 0.84775 0.3831 0.0
C1134 C 0.4592 0.7608 0.33221 0.0
C1135 C 0.55131 0.80607 0.39831 0.0
H1136 H 0.52535 0.6581 0.39586 0.0
H1137 H 0.60213 0.69459 0.33983 0.0
H1138 H 0.48531 0.74476 0.4108 0.0
H1139 H 0.4529 0.73114 0.38715 0.0
H1140 H 0.47067 0.69451 0.40758 0.0
H1141 H 0.59726 0.75673 0.32205 0.0
H1142 H 0.5485 0.77695 0.32098 0.0
H1143 H 0.58219 0.79347 0.3432 0.0
H1144 H 0.42951 0.83365 0.33892 0.0
H1145 H 0.50507 0.86957 0.39604 0.0
H1146 H 0.44933 0.73454 0.3421 0.0
H1147 H 0.48344 0.75153 0.32039 0.0
H1148 H 0.43458 0.77153 0.32103 0.0
H1149 H 0.54434 0.78257 0.4112 0.0
H1150 H 0.55901 0.83287 0.40848 0.0
H1151 H 0.57734 0.79651 0.38805 0.0
C1152 C 0.9487 0.71076 0.6019 0.0
C1153 C 0.91916 0.72565 0.61663 0.0
C1154 C 0.9861 0.72844 0.60116 0.0
C1155 C 0.99378 0.7625 0.61492 0.0
C1156 C 0.96347 0.77825 0.62917 0.0
C1157 C 0.92692 0.75945 0.63006 0.0
C1158 C 0.01785 0.70986 0.58637 0.0
C1159 C 0.96981 0.81468 0.6439 0.0
C1160 C 0.09708 0.78965 0.63515 0.0
C1161 C 0.10796 0.81849 0.61863 0.0
C1162 C 0.06079 0.77037 0.63361 0.0
C1163 C 0.03383 0.78076 0.61547 0.0
C1164 C 0.04454 0.80998 0.59877 0.0
C1165 C 0.08169 0.82802 0.6003 0.0
C1166 C 0.05131 0.73887 0.65151 0.0
C1167 C 1.01635 0.82279 0.5796 0.0
H1168 H 0.94308 0.68443 0.5917 0.0
H1169 H 0.9042 0.77134 0.64141 0.0
H1170 H 0.02993 0.7314 0.57362 0.0
H1171 H 0.04226 0.70048 0.59812 0.0
H1172 H 1.00712 0.68406 0.57626 0.0
H1173 H 0.94239 0.8251 0.65239 0.0
H1174 H 0.99163 0.8088 0.65812 0.0
H1175 H 0.98171 0.83844 0.63261 0.0
H1176 H 0.11738 0.78148 0.64916 0.0
H1177 H 0.08985 0.85015 0.58745 0.0
H1178 H 0.042 0.7118 0.64219 0.0
H1179 H 0.02657 0.74838 0.66289 0.0
H1180 H 0.07663 0.73189 0.66321 0.0
H1181 H 1.00753 0.79739 0.56853 0.0
H1182 H 0.02908 0.8455 0.56781 0.0
H1183 H 0.98939 0.83464 0.5879 0.0
C1184 C 0.95919 0.3329 0.8503 0.0
C1185 C 0.97297 0.36246 0.86546 0.0
C1186 C 0.97786 0.29601 0.84941 0.0
C1187 C 1.01187 0.28893 0.8634 0.0
C1188 C 0.02655 0.31932 0.87806 0.0
C1189 C 1.0067 0.35529 0.87915 0.0
C1190 C 0.96032 0.26411 0.83421 0.0
C1191 C 0.06294 0.31368 0.893 0.0
C1192 C 0.0407 0.18628 0.88345 0.0
C1193 C 0.07025 0.17602 0.8672 0.0
C1194 C 0.02068 0.2221 0.88184 0.0
C1195 C 0.03097 0.24928 0.86391 0.0
C1196 C 0.06082 0.23916 0.84743 0.0
C1197 C 0.07963 0.20241 0.84901 0.0
C1198 C 0.98857 0.23088 0.89951 0.0
C1199 C 0.07357 0.2676 0.82849 0.0
H1200 H 0.93296 0.33808 0.83987 0.0
H1201 H 0.01776 0.37807 0.89081 0.0
H1202 H 0.98251 0.2526 0.82164 0.0
H1203 H 0.95109 0.23945 0.84572 0.0
H1204 H 0.93455 0.27441 0.82387 0.0
H1205 H 0.07265 0.34122 0.90169 0.0
H1206 H 0.05729 0.29172 0.90708 0.0
H1207 H 0.08718 0.30237 0.88182 0.0
H1208 H 0.03264 0.16587 0.89735 0.0
H1209 H 0.10232 0.19475 0.83639 0.0
H1210 H 0.96152 0.2399 0.89001 0.0
H1211 H 0.99748 0.25553 0.91116 0.0
H1212 H 0.98167 0.20535 0.91096 0.0
H1213 H 0.04818 0.27624 0.81734 0.0
H1214 H 0.09662 0.25525 0.81677 0.0
H1215 H 0.08504 0.29455 0.83703 0.0
C1216 C 0.60315 0.77795 0.90407 0.0
C1217 C 0.61274 0.80914 0.91933 0.0
C1218 C 0.56672 0.75891 0.90538 0.0
C1219 C 0.53836 0.77179 0.92201 0.0
C1220 C 0.54792 0.80315 0.93759 0.0
C1221 C 0.58517 0.82106 0.93632 0.0
C1222 C 0.55839 0.72537 0.8886 0.0
C1223 C 0.51824 0.81867 0.95503 0.0
C1224 C 0.43254 0.75003 0.90453 0.0
C1225 C 0.42305 0.71784 0.91896 0.0
C1226 C 0.46926 0.76843 0.90593 0.0
C1227 C 0.49803 0.75405 0.92187 0.0
C1228 C 0.48861 0.72175 0.93668 0.0
C1229 C 0.45109 0.70433 0.93527 0.0
C1230 C 0.47745 0.80293 0.88994 0.0
C1231 C 0.51866 0.70478 0.95343 0.0
H1232 H 0.62437 0.76819 0.89102 0.0
H1233 H 0.59221 0.84524 0.94805 0.0
H1234 H 0.54769 0.69967 0.8987 0.0
H1235 H 0.53499 0.73379 0.87587 0.0
H1236 H 0.58465 0.71659 0.87827 0.0
H1237 H 0.53043 0.84223 0.96648 0.0
H1238 H 0.4926 0.8304 0.94518 0.0
H1239 H 0.50746 0.79473 0.96658 0.0
H1240 H 0.41104 0.76103 0.89198 0.0
H1241 H 0.4442 0.67934 0.94633 0.0
H1242 H 0.50058 0.79521 0.87693 0.0
H1243 H 0.48844 0.82794 0.90063 0.0
H1244 H 0.45106 0.81246 0.87991 0.0
H1245 H 0.54396 0.69367 0.94307 0.0
H1246 H 0.50664 0.68046 0.96426 0.0
H1247 H 0.52988 0.72778 0.96559 0.0
C1248 C 0.45641 0.32595 0.65986 0.0
C1249 C 0.46419 0.35717 0.67541 0.0
C1250 C 0.47672 0.29032 0.6616 0.0
C1251 C 0.50659 0.28586 0.67896 0.0
C1252 C 0.51416 0.31712 0.69501 0.0
C1253 C 0.49253 0.35225 0.69325 0.0
C1254 C 0.46708 0.25797 0.64423 0.0
C1255 C 0.5465 0.31414 0.71324 0.0
C1256 C 0.54345 0.18197 0.69173 0.0
C1257 C 0.57505 0.1789 0.67595 0.0
C1258 C 0.5213 0.21679 0.69327 0.0
C1259 C 0.53149 0.24959 0.6791 0.0
C1260 C 0.56441 0.24694 0.66387 0.0
C1261 C 0.58539 0.21167 0.66232 0.0
C1262 C 0.48573 0.21783 0.7091 0.0
C1263 C 0.5767 0.2809 0.64846 0.0
H1264 H 0.43472 0.32973 0.64589 0.0
H1265 H 0.4993 0.37657 0.70494 0.0
H1266 H 0.49197 0.25352 0.63187 0.0
H1267 H 0.46242 0.23009 0.65387 0.0
H1268 H 0.44052 0.26453 0.63349 0.0
H1269 H 0.54771 0.3401 0.72511 0.0
H1270 H 0.54252 0.28761 0.72429 0.0
H1271 H 0.57507 0.31121 0.70402 0.0
H1272 H 0.53467 0.15651 0.70185 0.0
H1273 H 0.60956 0.20942 0.64991 0.0
H1274 H 0.45904 0.22151 0.69801 0.0
H1275 H 0.48731 0.24324 0.72135 0.0
H1276 H 0.48262 0.19075 0.71981 0.0
H1277 H 0.55404 0.28648 0.6347 0.0
H1278 H 0.605 0.27542 0.63933 0.0
H1279 H 0.57946 0.30782 0.65937 0.0
C1280 C 0.10074 0.28054 0.40822 0.0
C1281 C 0.10951 0.31468 0.42112 0.0
C1282 C 0.06401 0.26227 0.4098 0.0
C1283 C 0.03456 0.27868 0.42442 0.0
C1284 C 0.0434 0.31276 0.43792 0.0
C1285 C 0.08092 0.33014 0.43633 0.0
C1286 C 0.05641 0.22598 0.39515 0.0
C1287 C 1.01263 0.3318 0.45324 0.0
C1288 C 0.93049 0.25344 0.40479 0.0
C1289 C 0.9198 0.2238 0.42082 0.0
C1290 C 0.96687 0.27252 0.40641 0.0
C1291 C 0.99406 0.26133 0.42424 0.0
C1292 C 0.98334 0.23168 0.44067 0.0
C1293 C 0.94617 0.21364 0.43898 0.0
C1294 C 0.9765 0.30414 0.38862 0.0
C1295 C 1.01172 0.21804 0.45951 0.0
H1296 H 0.12269 0.26822 0.39647 0.0
H1297 H 0.08723 0.35674 0.4461 0.0
H1298 H 0.04439 0.20245 0.40656 0.0
H1299 H 0.03426 0.23237 0.3812 0.0
H1300 H 0.0833 0.215 0.3863 0.0
H1301 H 0.02446 0.35685 0.4636 0.0
H1302 H 0.98832 0.34244 0.44181 0.0
H1303 H 1.00008 0.31019 0.46579 0.0
H1304 H 0.91022 0.26189 0.39082 0.0
H1305 H 0.93831 0.19068 0.45134 0.0
H1306 H 1.00064 0.29426 0.37689 0.0
H1307 H 0.9867 0.33084 0.39799 0.0
H1308 H 0.95098 0.31188 0.37725 0.0
H1309 H 0.03782 0.20497 0.45087 0.0
H1310 H 0.99857 0.196 0.47159 0.0
H1311 H 0.02203 0.24321 0.4703 0.0
C1312 C 0.03447 0.67875 0.17833 0.0
C1313 C 0.0711 0.67646 0.16726 0.0
C1314 C 1.01325 0.71413 0.17884 0.0
C1315 C 0.02961 0.74841 0.16873 0.0
C1316 C 0.06724 0.7463 0.15815 0.0
C1317 C 0.0871 0.71022 0.1571 0.0
C1318 C 0.97263 0.71445 0.18931 0.0
C1319 C 0.08628 0.78199 0.1475 0.0
C1320 C 0.96307 0.83123 0.14751 0.0
C1321 C 0.96478 0.85789 0.16657 0.0
C1322 C 0.98332 0.79543 0.14819 0.0
C1323 C 1.0067 0.78597 0.16826 0.0
C1324 C 1.00844 0.81265 0.18763 0.0
C1325 C 0.98718 0.84805 0.18668 0.0
C1326 C 0.97988 0.76787 0.12725 0.0
C1327 C 0.03366 0.80422 0.20911 0.0
H1328 H 0.02158 0.6524 0.1856 0.0
H1329 H 0.11517 0.70832 0.1482 0.0
H1330 H 0.97076 0.73649 0.20376 0.0
H1331 H 0.9511 0.72295 0.1754 0.0
H1332 H 0.9641 0.68552 0.19658 0.0
H1333 H 0.11693 0.77629 0.14191 0.0
H1334 H 0.06939 0.7918 0.13171 0.0
H1335 H 0.0862 0.80634 0.16057 0.0
H1336 H 0.94586 0.83843 0.13187 0.0
H1337 H 0.98919 0.8686 0.20133 0.0
H1338 H 0.97021 0.73864 0.13341 0.0
H1339 H 1.00887 0.76411 0.11872 0.0
H1340 H 0.95887 0.77856 0.11359 0.0
H1341 H 0.02432 0.77649 0.21755 0.0
H1342 H 0.03227 0.82794 0.22261 0.0
H1343 H 0.06455 0.80042 0.20349 0.0
C1344 C 0.21513 0.27362 0.10158 0.0
C1345 C 0.25454 0.26607 0.10673 0.0
C1346 C 0.19883 0.31068 0.10564 0.0
C1347 C 0.22249 0.34072 0.11536 0.0
C1348 C 0.26306 0.33409 0.11877 0.0
C1349 C 0.27873 0.29688 0.11413 0.0
C1350 C 0.15559 0.31665 0.1014 0.0
C1351 C 0.28919 0.36515 0.1294 0.0
C1352 C 0.18463 0.44483 0.11378 0.0
C1353 C 0.16965 0.44979 0.13691 0.0
C1354 C 0.20205 0.4097 0.10665 0.0
C1355 C 0.20447 0.3784 0.12293 0.0
C1356 C 0.18935 0.38301 0.14631 0.0
C1357 C 0.17236 0.41883 0.15311 0.0
C1358 C 0.21767 0.40603 0.0816 0.0
C1359 C 0.19049 0.34984 0.16397 0.0
H1360 H 0.19621 0.24953 0.09653 0.0
H1361 H 0.30891 0.2908 0.1189 0.0
H1362 H 0.14038 0.31968 0.11875 0.0
H1363 H 0.1504 0.34395 0.09124 0.0
H1364 H 0.14223 0.29186 0.09151 0.0
H1365 H 0.3206 0.35681 0.12875 0.0
H1366 H 0.28528 0.39328 0.11989 0.0
H1367 H 0.28096 0.37003 0.14829 0.0
H1368 H 0.18302 0.46863 0.1011 0.0
H1369 H 0.16066 0.42236 0.17092 0.0
H1370 H 0.20278 0.38163 0.07222 0.0
H1371 H 0.24937 0.39904 0.08212 0.0
H1372 H 0.21346 0.43318 0.07106 0.0
H1373 H 0.1723 0.32528 0.15734 0.0
H1374 H 0.17939 0.35869 0.18176 0.0
H1375 H 0.22081 0.3387 0.16588 0.0
C1376 C 0.36077 0.42911 0.40517 0.0
C1377 C 0.33572 0.41239 0.38815 0.0
C1378 C 0.39589 0.44749 0.39832 0.0
C1379 C 0.4064 0.44889 0.37388 0.0
C1380 C 0.38204 0.43053 0.35679 0.0
C1381 C 0.34702 0.41274 0.36409 0.0
C1382 C 0.42104 0.4666 0.41718 0.0
C1383 C 0.39239 0.43064 0.33066 0.0
C1384 C 0.47036 0.53461 0.3554 0.0
C1385 C 0.50803 0.51833 0.35617 0.0
C1386 C 0.43703 0.51203 0.36037 0.0
C1387 C 0.44127 0.47193 0.36602 0.0
C1388 C 0.47892 0.45459 0.36504 0.0
C1389 C 0.51187 0.47797 0.36013 0.0
C1390 C 0.39755 0.53181 0.36122 0.0
C1391 C 0.48474 0.4119 0.3707 0.0
H1392 H 0.35237 0.42895 0.42378 0.0
H1393 H 0.32815 0.39954 0.35076 0.0
H1394 H 0.45142 0.45532 0.41616 0.0
H1395 H 0.42234 0.49857 0.414 0.0
H1396 H 0.40977 0.46148 0.43546 0.0
H1397 H 0.372 0.41251 0.31987 0.0
H1398 H 0.39158 0.46099 0.32376 0.0
H1399 H 0.42261 0.41955 0.3281 0.0
H1400 H 0.46724 0.56583 0.3527 0.0
H1401 H 0.54084 0.46516 0.36123 0.0
H1402 H 0.38622 0.53123 0.37974 0.0
H1403 H 0.37623 0.51588 0.34987 0.0
H1404 H 0.39888 0.56268 0.3552 0.0
H1405 H 0.47952 0.40692 0.38996 0.0
H1406 H 0.51481 0.40183 0.36638 0.0
H1407 H 0.46339 0.39371 0.3607 0.0
C1408 C 0.30285 0.75545 0.60598 0.0
C1409 C 0.2623 0.75385 0.60186 0.0
C1410 C 0.32449 0.72122 0.61063 0.0
C1411 C 0.30512 0.68459 0.61124 0.0
C1412 C 0.26482 0.68265 0.60542 0.0
C1413 C 0.24406 0.71718 0.6006 0.0
C1414 C 0.36747 0.72465 0.61653 0.0
C1415 C 0.24285 0.64439 0.6061 0.0
C1416 C 0.35924 0.58721 0.61039 0.0
C1417 C 0.35922 0.57682 0.63459 0.0
C1418 C 0.34316 0.62285 0.60266 0.0
C1419 C 0.32599 0.64856 0.61942 0.0
C1420 C 0.32647 0.63851 0.64394 0.0
C1421 C 0.34328 0.60295 0.65122 0.0
C1422 C 0.34411 0.63283 0.57649 0.0
C1423 C 0.30846 0.66494 0.66246 0.0
H1424 H 0.31717 0.78362 0.60744 0.0
H1425 H 0.21267 0.71578 0.59778 0.0
H1426 H 0.37187 0.71995 0.63591 0.0
H1427 H 0.38453 0.70193 0.607 0.0
H1428 H 0.37935 0.75385 0.61187 0.0
H1429 H 0.21217 0.64742 0.59976 0.0
H1430 H 0.25784 0.62219 0.59498 0.0
H1431 H 0.24238 0.63316 0.62465 0.0
H1432 H 0.37196 0.5675 0.59741 0.0
H1433 H 0.34327 0.59532 0.66996 0.0
H1434 H 0.3575 0.66205 0.5739 0.0
H1435 H 0.31382 0.63427 0.56938 0.0
H1436 H 0.36083 0.61105 0.56593 0.0
H1437 H 0.32144 0.69451 0.66123 0.0
H1438 H 0.31278 0.65386 0.68088 0.0
H1439 H 0.27659 0.66793 0.65905 0.0
C1440 C 0.02121 0.56908 0.85049 0.0
C1441 C 1.01418 0.52963 0.85549 0.0
C1442 C 0.05797 0.58598 0.85492 0.0
C1443 C 0.08827 0.56286 0.86483 0.0
C1444 C 0.0823 0.52223 0.86799 0.0
C1445 C 0.04538 0.50598 0.86299 0.0
C1446 C 0.06325 0.62926 0.85093 0.0
C1447 C 0.11369 0.49663 0.87871 0.0
C1448 C 0.19159 0.60334 0.86437 0.0
C1449 C 0.19569 0.61821 0.88762 0.0
C1450 C 0.15711 0.58489 0.85688 0.0
C1451 C 0.12548 0.58154 0.87287 0.0
C1452 C 0.12925 0.59654 0.89638 0.0
C1453 C 0.16455 0.61435 0.90359 0.0
C1454 C 0.15445 0.56926 0.83175 0.0
C1455 C 0.09571 0.59441 0.91374 0.0
H1456 H 0.99684 0.58759 0.84534 0.0
H1457 H 0.03973 0.47575 0.86764 0.0
H1458 H 0.06585 0.64436 0.86836 0.0
H1459 H 0.09061 0.63495 0.84093 0.0
H1460 H 0.0383 0.64225 0.84098 0.0
H1461 H 0.10595 0.46514 0.87779 0.0
H1462 H 0.142 0.50118 0.86949 0.0
H1463 H 0.118 0.50472 0.8977 0.0
H1464 H 0.21558 0.60581 0.85188 0.0
H1465 H 0.16747 0.62592 0.9215 0.0
H1466 H 0.13029 0.58403 0.82206 0.0
H1467 H 0.14759 0.53759 0.83207 0.0
H1468 H 0.18202 0.57359 0.82163 0.0
H1469 H 0.07054 0.61147 0.90682 0.0
H1470 H 0.10375 0.60606 0.93156 0.0
H1471 H 0.08576 0.56375 0.91563 0.0
C1472 C 0.75315 0.73387 0.92632 0.0
C1473 C 0.77879 0.7648 0.93135 0.0
C1474 C 0.76757 0.69599 0.92215 0.0
C1475 C 0.80843 0.68906 0.92323 0.0
C1476 C 0.83383 0.71939 0.93074 0.0
C1477 C 0.81861 0.75685 0.93483 0.0
C1478 C 0.73951 0.66444 0.91429 0.0
C1479 C 0.87757 0.71341 0.932 0.0
C1480 C 0.85041 0.58634 0.92261 0.0
C1481 C 0.8609 0.58178 0.89859 0.0
C1482 C 0.83227 0.62059 0.93074 0.0
C1483 C 0.82511 0.65139 0.91457 0.0
C1484 C 0.83543 0.64684 0.89024 0.0
C1485 C 0.85268 0.61178 0.88245 0.0
C1486 C 0.82147 0.62413 0.95671 0.0
C1487 C 0.82905 0.67935 0.87255 0.0
H1488 H 0.72251 0.74011 0.92291 0.0
H1489 H 0.83853 0.78097 0.9381 0.0
H1490 H 0.74285 0.65937 0.89487 0.0
H1491 H 0.74609 0.6365 0.92347 0.0
H1492 H 0.70858 0.67256 0.91783 0.0
H1493 H 0.89279 0.73866 0.94035 0.0
H1494 H 0.88469 0.68667 0.94226 0.0
H1495 H 0.88929 0.70937 0.91373 0.0
H1496 H 0.8564 0.56302 0.93515 0.0
H1497 H 0.86098 0.60839 0.86393 0.0
H1498 H 0.79003 0.63173 0.95845 0.0
H1499 H 0.83851 0.6481 0.96509 0.0
H1500 H 0.82716 0.59673 0.96673 0.0
H1501 H 0.79735 0.68572 0.87115 0.0
H1502 H 0.84046 0.6719 0.85461 0.0
H1503 H 0.84368 0.70645 0.87877 0.0
C1504 C 0.66814 0.60483 0.62616 0.0
C1505 C 0.69114 0.62223 0.64395 0.0
C1506 C 0.63236 0.5867 0.63177 0.0
C1507 C 0.61933 0.58587 0.65576 0.0
C1508 C 0.64269 0.60291 0.6738 0.0
C1509 C 0.67816 0.6209 0.6677 0.0
C1510 C 0.60827 0.56883 0.61198 0.0
C1511 C 0.62999 0.6026 0.69955 0.0
C1512 C 0.5094 0.57554 0.66268 0.0
C1513 C 0.50528 0.5353 0.6663 0.0
C1514 C 0.54649 0.59272 0.66051 0.0
C1515 C 0.58033 0.56892 0.66174 0.0
C1516 C 0.57641 0.52864 0.66713 0.0
C1517 C 0.5388 0.51225 0.66942 0.0
C1518 C 0.54927 0.63581 0.65507 0.0
C1519 C 0.61173 0.50228 0.66859 0.0
H1520 H 0.67797 0.60553 0.60782 0.0
H1521 H 0.69577 0.6339 0.68171 0.0
H1522 H 0.60224 0.53767 0.61595 0.0
H1523 H 0.57962 0.58397 0.6107 0.0
H1524 H 0.62308 0.57072 0.59443 0.0
H1525 H 0.65233 0.6156 0.7116 0.0
H1526 H 0.60231 0.61923 0.70151 0.0
H1527 H 0.6241 0.57222 0.70539 0.0
H1528 H 0.48343 0.59314 0.65973 0.0
H1529 H 0.53564 0.48092 0.6715 0.0
H1530 H 0.55979 0.63987 0.63655 0.0
H1531 H 0.57073 0.65012 0.6671 0.0
H1532 H 0.5206 0.65083 0.65692 0.0
H1533 H 0.62452 0.49873 0.65056 0.0
H1534 H 0.60421 0.47289 0.6756 0.0
H1535 H 0.6346 0.51543 0.68014 0.0
C1536 C 0.77646 0.29737 0.4254 0.0
C1537 C 0.75168 0.26584 0.43058 0.0
C1538 C 0.76105 0.33479 0.42082 0.0
C1539 C 0.72 0.34076 0.42159 0.0
C1540 C 0.69541 0.30991 0.42917 0.0
C1541 C 0.7116 0.2729 0.43366 0.0
C1542 C 0.78836 0.36686 0.41291 0.0
C1543 C 0.65151 0.31474 0.43013 0.0
C1544 C 0.67583 0.44288 0.41936 0.0
C1545 C 0.66646 0.44679 0.39509 0.0
C1546 C 0.69417 0.40907 0.42812 0.0
C1547 C 0.70239 0.37785 0.4124 0.0
C1548 C 0.69264 0.38155 0.38789 0.0
C1549 C 0.67554 0.41634 0.37942 0.0
C1550 C 0.70437 0.40659 0.45426 0.0
C1551 C 0.69954 0.34841 0.37069 0.0
H1552 H 0.80728 0.29187 0.42225 0.0
H1553 H 0.69227 0.24837 0.43698 0.0
H1554 H 0.78488 0.37154 0.39346 0.0
H1555 H 0.7811 0.39476 0.42196 0.0
H1556 H 0.81947 0.35954 0.41658 0.0
H1557 H 0.63694 0.28938 0.43868 0.0
H1558 H 0.6436 0.34163 0.44005 0.0
H1559 H 0.63982 0.31782 0.41176 0.0
H1560 H 0.66915 0.46656 0.43154 0.0
H1561 H 0.66808 0.41922 0.36072 0.0
H1562 H 0.73599 0.40005 0.45644 0.0
H1563 H 0.68792 0.38232 0.46264 0.0
H1564 H 0.69757 0.43407 0.46396 0.0
H1565 H 0.7313 0.34215 0.3697 0.0
H1566 H 0.68836 0.35508 0.35257 0.0
H1567 H 0.68496 0.32148 0.37712 0.0
C1568 C 0.8617 0.4297 0.12636 0.0
C1569 C 0.83738 0.41573 0.14452 0.0
C1570 C 0.89759 0.44795 0.13174 0.0
C1571 C 0.9094 0.4525 0.15585 0.0
C1572 C 0.8848 0.43876 0.17423 0.0
C1573 C 0.84926 0.42051 0.16837 0.0
C1574 C 0.92306 0.46209 0.11157 0.0
C1575 C 0.89615 0.44303 0.20012 0.0
C1576 C 0.0191 0.46289 0.16455 0.0
C1577 C 0.02365 0.50352 0.16554 0.0
C1578 C 0.98189 0.44578 0.16274 0.0
C1579 C 0.94833 0.46998 0.16173 0.0
C1580 C 0.95258 0.51095 0.16464 0.0
C1581 C 0.99032 0.5273 0.16654 0.0
C1582 C 0.97882 0.40202 0.15988 0.0
C1583 C 0.91757 0.53777 0.16373 0.0
H1584 H 0.85277 0.4263 0.10793 0.0
H1585 H 0.83066 0.41016 0.18264 0.0
H1586 H 0.92931 0.4937 0.11376 0.0
H1587 H 0.95154 0.44651 0.11195 0.0
H1588 H 0.90924 0.45738 0.09386 0.0
H1589 H 0.87303 0.43222 0.21233 0.0
H1590 H 0.9235 0.42653 0.20367 0.0
H1591 H 0.90212 0.47415 0.20432 0.0
H1592 H 0.04494 0.4446 0.16316 0.0
H1593 H 0.99381 0.55879 0.16652 0.0
H1594 H 0.9694 0.39496 0.14143 0.0
H1595 H 0.95643 0.39002 0.17213 0.0
H1596 H 1.00713 0.3871 0.1634 0.0
H1597 H 0.90584 0.53859 0.14528 0.0
H1598 H 0.92511 0.56805 0.16922 0.0
H1599 H 0.89389 0.52674 0.17542 0.0
C1600 C 0.71374 0.77517 0.60537 0.0
C1601 C 0.75401 0.76997 0.6089 0.0
C1602 C 0.69665 0.81245 0.60655 0.0
C1603 C 0.72045 0.84535 0.61149 0.0
C1604 C 0.76169 0.84067 0.61258 0.0
C1605 C 0.77803 0.80294 0.61121 0.0
C1606 C 0.65265 0.81587 0.60523 0.0
C1607 C 0.78821 0.87483 0.61788 0.0
C1608 C 0.67402 0.94698 0.61025 0.0
C1609 C 0.66523 0.95295 0.63442 0.0
C1610 C 0.69235 0.91236 0.60248 0.0
C1611 C 0.70189 0.88289 0.61921 0.0
C1612 C 0.69286 0.88875 0.6436 0.0
C1613 C 0.67478 0.92361 0.65087 0.0
C1614 C 0.70162 0.90737 0.57639 0.0
C1615 C 0.70228 0.85813 0.66211 0.0
H1616 H 0.69503 0.74962 0.6042 0.0
H1617 H 0.80902 0.79894 0.61469 0.0
H1618 H 0.64084 0.82074 0.6234 0.0
H1619 H 0.64393 0.84122 0.59414 0.0
H1620 H 0.63893 0.78906 0.59779 0.0
H1621 H 0.81935 0.86786 0.61413 0.0
H1622 H 0.77954 0.90077 0.60728 0.0
H1623 H 0.78562 0.88278 0.63699 0.0
H1624 H 0.66712 0.9696 0.59741 0.0
H1625 H 0.66814 0.92785 0.66957 0.0
H1626 H 0.68598 0.88148 0.56923 0.0
H1627 H 0.73341 0.90199 0.57407 0.0
H1628 H 0.69323 0.93338 0.56571 0.0
H1629 H 0.6869 0.83047 0.65775 0.0
H1630 H 0.69366 0.86732 0.68035 0.0
H1631 H 0.73414 0.85184 0.6621 0.0
C1632 C 0.85884 0.93696 0.90495 0.0
C1633 C 0.83797 0.91356 0.88882 0.0
C1634 C 0.89365 0.95584 0.89807 0.0
C1635 C 0.90786 0.95134 0.87448 0.0
C1636 C 0.8873 0.92713 0.85832 0.0
C1637 C 0.85275 0.9086 0.86565 0.0
C1638 C 0.91471 0.98128 0.91593 0.0
C1639 C 0.90146 0.92131 0.83309 0.0
C1640 C 0.97315 0.03249 0.85071 0.0
C1641 C 1.01071 0.01696 0.8542 0.0
C1642 C 0.93947 1.01103 0.85661 0.0
C1643 C 0.94334 0.97306 0.86633 0.0
C1644 C 0.98108 0.95628 0.86858 0.0
C1645 C 1.01429 0.97829 0.86233 0.0
C1646 C 0.89981 0.02993 0.85376 0.0
C1647 C 0.98657 0.91611 0.87915 0.0
H1648 H 0.84781 0.94091 0.92288 0.0
H1649 H 0.83711 0.89044 0.85298 0.0
H1650 H 0.94642 0.9747 0.91586 0.0
H1651 H 0.91125 1.0124 0.91085 0.0
H1652 H 0.90335 0.97736 0.9343 0.0
H1653 H 0.88272 0.90067 0.82289 0.0
H1654 H 0.90185 0.94975 0.82363 0.0
H1655 H 0.93188 0.90998 0.83322 0.0
H1656 H 0.97022 0.06257 0.84493 0.0
H1657 H 0.04315 0.96628 0.86569 0.0
H1658 H 0.8863 0.03416 0.87153 0.0
H1659 H 0.88008 1.01066 0.84331 0.0
H1660 H 0.90159 0.05875 0.84475 0.0
H1661 H 0.97811 0.91663 0.89822 0.0
H1662 H 1.01736 0.90589 0.87786 0.0
H1663 H 0.96732 0.89464 0.87005 0.0
C1664 C 0.85609 0.09464 0.11553 0.0
C1665 C 0.86411 0.08573 0.13951 0.0
C1666 C 0.83691 0.12924 0.1091 0.0
C1667 C 0.82571 0.15597 0.12701 0.0
C1668 C 0.83339 0.14713 0.15128 0.0
C1669 C 0.85234 0.11196 0.15727 0.0
C1670 C 0.82903 0.13738 0.08309 0.0
C1671 C 0.82209 0.17508 0.17092 0.0
C1672 C 0.81487 0.264 0.11418 0.0
C1673 C 0.77425 0.26888 0.11553 0.0
C1674 C 0.83197 0.22698 0.11654 0.0
C1675 C 0.80772 0.19407 0.12032 0.0
C1676 C 0.76647 0.19838 0.11939 0.0
C1677 C 0.75013 0.23591 0.11698 0.0
C1678 C 0.87604 0.22373 0.11726 0.0
C1679 C 0.73964 0.16394 0.12312 0.0
H1680 H 0.86458 0.0744 0.10161 0.0
H1681 H 0.85832 0.10524 0.17579 0.0
H1682 H 0.79751 0.14371 0.08027 0.0
H1683 H 0.84559 0.16364 0.07743 0.0
H1684 H 0.8375 0.11251 0.07145 0.0
H1685 H 0.8291 0.16343 0.18889 0.0
H1686 H 0.83773 0.20322 0.16855 0.0
H1687 H 0.79027 0.18138 0.17002 0.0
H1688 H 0.83348 0.28968 0.11367 0.0
H1689 H 0.71877 0.2398 0.11877 0.0
H1690 H 0.88616 0.1998 0.10544 0.0
H1691 H 0.88563 0.21652 0.13564 0.0
H1692 H 0.89059 0.2513 0.11177 0.0
H1693 H 0.74909 0.13871 0.11211 0.0
H1694 H 0.70875 0.17107 0.11866 0.0
H1695 H 0.74102 0.15473 0.14205 0.0
C1696 C 0.52135 0.05127 0.36166 0.0
C1697 C 0.52448 1.01221 0.35417 0.0
C1698 C 0.55485 0.07335 0.36724 0.0
C1699 C 0.59239 0.05625 0.36483 0.0
C1700 C 0.59577 0.01791 0.35553 0.0
C1701 C 0.56178 0.9963 0.35045 0.0
C1702 C 0.5499 0.11388 0.37745 0.0
C1703 C 0.63524 0.99879 0.3524 0.0
C1704 C 0.68251 0.12129 0.36464 0.0
C1705 C 0.69699 0.11658 0.38794 0.0
C1706 C 0.6484 0.10218 0.35699 0.0
C1707 C 0.62804 0.07772 0.37298 0.0
C1708 C 0.64218 0.07318 0.39661 0.0
C1709 C 0.67648 0.09266 0.40382 0.0
C1710 C 0.63445 0.10774 0.33167 0.0
C1711 C 0.62139 0.0473 0.4142 0.0
H1712 H 0.4927 0.06359 0.36516 0.0
H1713 H 0.56432 0.96594 0.34511 0.0
H1714 H 0.55887 0.11383 0.39648 0.0
H1715 H 0.56904 0.13496 0.36804 0.0
H1716 H 0.51915 0.12426 0.37627 0.0
H1717 H 0.63306 0.97017 0.34313 0.0
H1718 H 0.65499 0.01811 0.34208 0.0
H1719 H 0.64898 0.99407 0.37009 0.0
H1720 H 0.698 0.13975 0.35215 0.0
H1721 H 0.6874 0.08881 0.42182 0.0
H1722 H 0.60414 0.11937 0.33159 0.0
H1723 H 0.63381 0.07917 0.32232 0.0
H1724 H 0.65344 0.12805 0.32149 0.0
H1725 H 0.58978 0.05424 0.41427 0.0
H1726 H 0.63314 0.05051 0.43257 0.0
H1727 H 0.62442 1.01632 0.40869 0.0
C1728 C 0.32476 0.2705 0.40733 0.0
C1729 C 0.2855 0.271 0.41444 0.0
C1730 C 0.34548 0.23515 0.40541 0.0
C1731 C 0.32635 0.1995 0.41074 0.0
C1732 C 0.28796 0.20035 0.42023 0.0
C1733 C 0.26792 0.23615 0.42185 0.0
C1734 C 0.38635 0.23572 0.3953 0.0
C1735 C 0.26656 0.16316 0.42636 0.0
C1736 C 0.35412 0.10968 0.37424 0.0
C1737 C 0.37778 0.08887 0.39023 0.0
C1738 C 0.33748 0.14577 0.38067 0.0
C1739 C 0.34452 0.16149 0.4037 0.0
C1740 C 0.36861 0.14078 0.41985 0.0
C1741 C 0.38499 0.10486 0.41293 0.0
C1742 C 0.3121 0.16698 0.36283 0.0
C1743 C 0.37677 0.15641 0.44453 0.0
H1744 H 0.33794 0.29726 0.40081 0.0
H1745 H 0.23714 0.23631 0.42655 0.0
H1746 H 0.40596 0.21618 0.40561 0.0
H1747 H 0.38561 0.22477 0.37668 0.0
H1748 H 0.399 0.26562 0.39525 0.0
H1749 H 0.23944 0.16897 0.43665 0.0
H1750 H 0.25842 0.14763 0.4097 0.0
H1751 H 0.28564 0.14335 0.43685 0.0
H1752 H 0.34837 0.09769 0.3567 0.0
H1753 H 0.40319 0.08913 0.42552 0.0
H1754 H 0.32415 0.19654 0.35942 0.0
H1755 H 0.2822 0.17083 0.37013 0.0
H1756 H 0.30988 0.15112 0.34559 0.0
H1757 H 0.39042 0.18575 0.44336 0.0
H1758 H 0.39644 0.13697 0.45493 0.0
H1759 H 0.34889 0.15986 0.45441 0.0
C1760 C 0.04651 1.00191 0.17054 0.0
C1761 C 1.0137 0.02642 0.17098 0.0
C1762 C 0.0844 0.01764 0.16833 0.0
C1763 C 0.08923 0.05867 0.16648 0.0
C1764 C 0.0564 0.08346 0.16921 0.0
C1765 C 0.01905 0.06698 0.17152 0.0
C1766 C 0.11874 0.99026 0.16574 0.0
C1767 C 0.0601 0.12732 0.1673 0.0
C1768 C 0.18897 0.1073 0.17045 0.0
C1769 C 0.1981 0.11318 0.14632 0.0
C1770 C 0.15425 0.08856 0.17725 0.0
C1771 C 0.1277 0.07571 0.15955 0.0
C1772 C 0.13694 0.08113 0.13514 0.0
C1773 C 0.17216 0.09959 0.12881 0.0
C1774 C 0.14566 0.08306 0.2034 0.0
C1775 C 0.10918 0.06825 0.11569 0.0
H1776 H 0.04233 0.97055 0.1694 0.0
H1777 H 0.99354 0.08586 0.17127 0.0
H1778 H 0.12844 0.98994 0.14689 0.0
H1779 H 0.14381 1.0004 0.17672 0.0
H1780 H 0.11116 0.95992 0.17101 0.0
H1781 H 0.03251 0.14253 0.17213 0.0
H1782 H 0.08393 0.13818 0.179 0.0
H1783 H 0.06776 0.13529 0.14873 0.0
H1784 H 0.20901 0.11734 0.18414 0.0
H1785 H 0.17899 0.10407 0.11017 0.0
H1786 H 0.13918 0.0519 0.20713 0.0
H1787 H 0.11931 0.10014 0.20837 0.0
H1788 H 0.17042 0.0925 0.21492 0.0
H1789 H 0.10263 0.03666 0.11752 0.0
H1790 H 0.12119 0.07354 0.0976 0.0
H1791 H 0.08106 0.08424 0.11736 0.0
C1792 C 0.1801 0.9208 0.8754 0.0
C1793 C 0.16319 0.94618 0.89204 0.0
C1794 C 0.19796 0.88576 0.88272 0.0
C1795 C 0.19954 0.8762 0.90732 0.0
C1796 C 0.18328 0.90217 0.9242 0.0
C1797 C 0.16507 0.93661 0.91637 0.0
C1798 C 0.21446 0.85857 0.86408 0.0
C1799 C 0.18483 0.89339 0.95054 0.0
C1800 C 0.20851 0.76769 0.91931 0.0
C1801 C 0.24918 0.76298 0.92074 0.0
C1802 C 0.19171 0.80474 0.91633 0.0
C1803 C 0.21623 0.83799 0.91513 0.0
C1804 C 0.257 0.83379 0.91923 0.0
C1805 C 0.2731 0.79616 0.92192 0.0
C1806 C 0.14818 0.80769 0.91195 0.0
C1807 C 0.28405 0.86859 0.91854 0.0
H1808 H 0.17878 0.928 0.85661 0.0
H1809 H 0.15256 0.95626 0.92946 0.0
H1810 H 0.2459 0.853 0.8677 0.0
H1811 H 0.19914 0.83002 0.86485 0.0
H1812 H 0.21147 0.87052 0.84577 0.0
H1813 H 0.17291 0.91768 0.96149 0.0
H1814 H 0.16778 0.86656 0.95439 0.0
H1815 H 0.21549 0.88774 0.95614 0.0
H1816 H 0.19014 0.74193 0.91783 0.0
H1817 H 0.30463 0.79255 0.92236 0.0
H1818 H 0.14282 0.8155 0.89303 0.0
H1819 H 0.13517 0.83108 0.92308 0.0
H1820 H 0.1328 0.7798 0.91577 0.0
H1821 H 0.28723 0.87865 0.89986 0.0
H1822 H 0.31359 0.86144 0.92562 0.0
H1823 H 0.27173 0.89322 0.92898 0.0
C1824 C 0.36306 0.92753 0.62182 0.0
C1825 C 0.34307 0.90437 0.63841 0.0
C1826 C 0.39823 0.9465 0.62791 0.0
C1827 C 0.41385 0.94248 0.65122 0.0
C1828 C 0.39434 0.91837 0.66786 0.0
C1829 C 0.35933 0.89956 0.66126 0.0
C1830 C 0.41819 0.97166 0.60952 0.0
C1831 C 0.40982 0.91333 0.69288 0.0
C1832 C 0.52034 0.97393 0.65913 0.0
C1833 C 0.51591 1.01311 0.66602 0.0
C1834 C 0.48741 0.94994 0.65516 0.0
C1835 C 0.44928 0.96539 0.65845 0.0
C1836 C 0.44494 1.00409 0.66703 0.0
C1837 C 0.47825 0.02752 0.6705 0.0
C1838 C 0.49337 0.90898 0.64589 0.0
C1839 C 0.40497 0.02161 0.67118 0.0
H1840 H 0.35095 0.93135 0.60411 0.0
H1841 H 0.34426 0.88172 0.67428 0.0
H1842 H 0.4183 1.00255 0.61554 0.0
H1843 H 0.44914 0.96252 0.60743 0.0
H1844 H 0.40352 0.9701 0.59186 0.0
H1845 H 0.39238 0.89202 0.70333 0.0
H1846 H 0.44069 0.90333 0.69242 0.0
H1847 H 0.40939 0.94186 0.70229 0.0
H1848 H 0.54934 0.96282 0.65518 0.0
H1849 H 0.47475 0.05791 0.67556 0.0
H1850 H 0.48313 0.90727 0.62713 0.0
H1851 H 0.47578 0.88786 0.65632 0.0
H1852 H 0.52459 0.89997 0.64655 0.0
H1853 H 0.38959 0.02508 0.65387 0.0
H1854 H 0.40666 0.05064 0.68 0.0
H1855 H 0.38698 1.00189 0.68236 0.0
loop_
_geom_bond_atom_site_label_1
_geom_bond_atom_site_label_2
_geom_bond_distance
_geom_bond_site_symmetry_2
_ccdc_geom_bond_type
Dy0 O4 2.398 . S
Dy0 O5 2.491 . S
Dy0 O6 2.403 . S
Dy0 O7 2.664 . S
Dy0 O11 2.326 . S
Dy0 O15 2.310 . S
Dy0 O16 2.351 . S
C1 O12 1.185 . S
C1 O13 1.355 . S
C2 O4 1.185 . S
C2 O5 1.355 . S
Dy3 O7 2.310 . S
Dy3 O10 2.351 . S
Dy3 O12 2.398 . S
Dy3 O13 2.491 . S
Dy3 O14 2.403 . S
Dy3 O15 2.664 . S
Dy3 O17 2.326 . S
O4 Dy0 2.398 . S
O4 C2 1.185 . S
O5 Dy0 2.491 . S
O5 C2 1.355 . S
O6 Dy0 2.403 . S
O6 C8 1.254 . S
O7 Dy0 2.664 . S
O7 Dy3 2.310 . S
O7 C8 1.268 . S
C8 O6 1.254 . S
C8 O7 1.268 . S
C9 O14 1.254 . S
C9 O15 1.268 . S
O10 Dy3 2.351 . S
O10 C18 1.249 . S
O11 Dy0 2.326 . S
O11 C18 1.267 . S
O12 C1 1.185 . S
O12 Dy3 2.398 . S
O13 C1 1.355 . S
O13 Dy3 2.491 . S
O14 Dy3 2.403 . S
O14 C9 1.254 . S
O15 Dy0 2.310 . S
O15 Dy3 2.664 . S
O15 C9 1.268 . S
O16 Dy0 2.351 . S
O16 C19 1.249 . S
O17 Dy3 2.326 . S
O17 C19 1.267 . S
C18 O10 1.249 . S
C18 O11 1.267 . S
C19 O16 1.249 . S
C19 O17 1.267 . S
Dy20 O24 2.398 . S
Dy20 O25 2.491 . S
Dy20 O26 2.403 . S
Dy20 O27 2.664 . S
Dy20 O31 2.326 . S
Dy20 O35 2.310 . S
Dy20 O36 2.351 . S
C21 O32 1.185 . S
C21 O33 1.355 . S
C22 O24 1.185 . S
C22 O25 1.355 . S
Dy23 O27 2.310 . S
Dy23 O30 2.351 . S
Dy23 O32 2.398 . S
Dy23 O33 2.491 . S
Dy23 O34 2.403 . S
Dy23 O35 2.664 . S
Dy23 O37 2.326 . S
O24 Dy20 2.398 . S
O24 C22 1.185 . S
O25 Dy20 2.491 . S
O25 C22 1.355 . S
O26 Dy20 2.403 . S
O26 C28 1.254 . S
O27 Dy20 2.664 . S
O27 Dy23 2.310 . S
O27 C28 1.268 . S
C28 O26 1.254 . S
C28 O27 1.268 . S
C29 O34 1.254 . S
C29 O35 1.268 . S
O30 Dy23 2.351 . S
O30 C38 1.249 . S
O31 Dy20 2.326 . S
O31 C38 1.267 . S
O32 C21 1.185 . S
O32 Dy23 2.398 . S
O33 C21 1.355 . S
O33 Dy23 2.491 . S
O34 Dy23 2.403 . S
O34 C29 1.254 . S
O35 Dy20 2.310 . S
O35 Dy23 2.664 . S
O35 C29 1.268 . S
O36 Dy20 2.351 . S
O36 C39 1.249 . S
O37 Dy23 2.326 . S
O37 C39 1.267 . S
C38 O30 1.249 . S
C38 O31 1.267 . S
C39 O36 1.249 . S
C39 O37 1.267 . S
Dy40 O44 2.398 . S
Dy40 O45 2.491 . S
Dy40 O46 2.403 . S
Dy40 O47 2.664 . S
Dy40 O51 2.326 . S
Dy40 O55 2.310 . S
Dy40 O56 2.351 . S
C41 O52 1.185 . S
C41 O53 1.355 . S
C42 O44 1.185 . S
C42 O45 1.355 . S
Dy43 O47 2.310 . S
Dy43 O50 2.351 . S
Dy43 O52 2.398 . S
Dy43 O53 2.491 . S
Dy43 O54 2.403 . S
Dy43 O55 2.664 . S
Dy43 O57 2.326 . S
O44 Dy40 2.398 . S
O44 C42 1.185 . S
O45 Dy40 2.491 . S
O45 C42 1.355 . S
O46 Dy40 2.403 . S
O46 C48 1.254 . S
O47 Dy40 2.664 . S
O47 Dy43 2.310 . S
O47 C48 1.268 . S
C48 O46 1.254 . S
C48 O47 1.268 . S
C49 O54 1.254 . S
C49 O55 1.268 . S
O50 Dy43 2.351 . S
O50 C58 1.249 . S
O51 Dy40 2.326 . S
O51 C58 1.267 . S
O52 C41 1.185 . S
O52 Dy43 2.398 . S
O53 C41 1.355 . S
O53 Dy43 2.491 . S
O54 Dy43 2.403 . S
O54 C49 1.254 . S
O55 Dy40 2.310 . S
O55 Dy43 2.664 . S
O55 C49 1.268 . S
O56 Dy40 2.351 . S
O56 C59 1.249 . S
O57 Dy43 2.326 . S
O57 C59 1.267 . S
C58 O50 1.249 . S
C58 O51 1.267 . S
C59 O56 1.249 . S
C59 O57 1.267 . S
Dy60 O64 2.398 . S
Dy60 O65 2.491 . S
Dy60 O66 2.403 . S
Dy60 O67 2.664 . S
Dy60 O71 2.326 . S
Dy60 O75 2.310 . S
Dy60 O76 2.351 . S
C61 O72 1.185 . S
C61 O73 1.355 . S
C62 O64 1.185 . S
C62 O65 1.355 . S
Dy63 O67 2.310 . S
Dy63 O70 2.351 . S
Dy63 O72 2.398 . S
Dy63 O73 2.491 . S
Dy63 O74 2.403 . S
Dy63 O75 2.664 . S
Dy63 O77 2.326 . S
O64 Dy60 2.398 . S
O64 C62 1.185 . S
O65 Dy60 2.491 . S
O65 C62 1.355 . S
O66 Dy60 2.403 . S
O66 C68 1.254 . S
O67 Dy60 2.664 . S
O67 Dy63 2.310 . S
O67 C68 1.268 . S
C68 O66 1.254 . S
C68 O67 1.268 . S
C69 O74 1.254 . S
C69 O75 1.268 . S
O70 Dy63 2.351 . S
O70 C78 1.249 . S
O71 Dy60 2.326 . S
O71 C78 1.267 . S
O72 C61 1.185 . S
O72 Dy63 2.398 . S
O73 C61 1.355 . S
O73 Dy63 2.491 . S
O74 Dy63 2.403 . S
O74 C69 1.254 . S
O75 Dy60 2.310 . S
O75 Dy63 2.664 . S
O75 C69 1.268 . S
O76 Dy60 2.351 . S
O76 C79 1.249 . S
O77 Dy63 2.326 . S
O77 C79 1.267 . S
C78 O70 1.249 . S
C78 O71 1.267 . S
C79 O76 1.249 . S
C79 O77 1.267 . S
Dy80 O84 2.398 . S
Dy80 O85 2.491 . S
Dy80 O86 2.403 . S
Dy80 O87 2.664 . S
Dy80 O91 2.326 . S
Dy80 O95 2.310 . S
Dy80 O96 2.351 . S
C81 O92 1.185 . S
C81 O93 1.355 . S
C82 O84 1.185 . S
C82 O85 1.355 . S
Dy83 O87 2.310 . S
Dy83 O90 2.351 . S
Dy83 O92 2.398 . S
Dy83 O93 2.491 . S
Dy83 O94 2.403 . S
Dy83 O95 2.664 . S
Dy83 O97 2.326 . S
O84 Dy80 2.398 . S
O84 C82 1.185 . S
O85 Dy80 2.491 . S
O85 C82 1.355 . S
O86 Dy80 2.403 . S
O86 C88 1.254 . S
O87 Dy80 2.664 . S
O87 Dy83 2.310 . S
O87 C88 1.268 . S
C88 O86 1.254 . S
C88 O87 1.268 . S
C89 O94 1.254 . S
C89 O95 1.268 . S
O90 Dy83 2.351 . S
O90 C98 1.249 . S
O91 Dy80 2.326 . S
O91 C98 1.267 . S
O92 C81 1.185 . S
O92 Dy83 2.398 . S
O93 C81 1.355 . S
O93 Dy83 2.491 . S
O94 Dy83 2.403 . S
O94 C89 1.254 . S
O95 Dy80 2.310 . S
O95 Dy83 2.664 . S
O95 C89 1.268 . S
O96 Dy80 2.351 . S
O96 C99 1.249 . S
O97 Dy83 2.326 . S
O97 C99 1.267 . S
C98 O90 1.249 . S
C98 O91 1.267 . S
C99 O96 1.249 . S
C99 O97 1.267 . S
Dy100 O104 2.398 . S
Dy100 O105 2.491 . S
Dy100 O106 2.403 . S
Dy100 O107 2.664 . S
Dy100 O111 2.326 . S
Dy100 O115 2.310 . S
Dy100 O116 2.351 . S
C101 O112 1.185 . S
C101 O113 1.355 . S
C102 O104 1.185 . S
C102 O105 1.355 . S
Dy103 O107 2.310 . S
Dy103 O110 2.351 . S
Dy103 O112 2.398 . S
Dy103 O113 2.491 . S
Dy103 O114 2.403 . S
Dy103 O115 2.664 . S
Dy103 O117 2.326 . S
O104 Dy100 2.398 . S
O104 C102 1.185 . S
O105 Dy100 2.491 . S
O105 C102 1.355 . S
O106 Dy100 2.403 . S
O106 C108 1.254 . S
O107 Dy100 2.664 . S
O107 Dy103 2.310 . S
O107 C108 1.268 . S
C108 O106 1.254 . S
C108 O107 1.268 . S
C109 O114 1.254 . S
C109 O115 1.268 . S
O110 Dy103 2.351 . S
O110 C118 1.249 . S
O111 Dy100 2.326 . S
O111 C118 1.267 . S
O112 C101 1.185 . S
O112 Dy103 2.398 . S
O113 C101 1.355 . S
O113 Dy103 2.491 . S
O114 Dy103 2.403 . S
O114 C109 1.254 . S
O115 Dy100 2.310 . S
O115 Dy103 2.664 . S
O115 C109 1.268 . S
O116 Dy100 2.351 . S
O116 C119 1.249 . S
O117 Dy103 2.326 . S
O117 C119 1.267 . S
C118 O110 1.249 . S
C118 O111 1.267 . S
C119 O116 1.249 . S
C119 O117 1.267 . S
Dy120 O124 2.398 . S
Dy120 O125 2.491 . S
Dy120 O126 2.403 . S
Dy120 O127 2.664 . S
Dy120 O131 2.326 . S
Dy120 O135 2.310 . S
Dy120 O136 2.351 . S
C121 O132 1.185 . S
C121 O133 1.355 . S
C122 O124 1.185 . S
C122 O125 1.355 . S
Dy123 O127 2.310 . S
Dy123 O130 2.351 . S
Dy123 O132 2.398 . S
Dy123 O133 2.491 . S
Dy123 O134 2.403 . S
Dy123 O135 2.664 . S
Dy123 O137 2.326 . S
O124 Dy120 2.398 . S
O124 C122 1.185 . S
O125 Dy120 2.491 . S
O125 C122 1.355 . S
O126 Dy120 2.403 . S
O126 C128 1.254 . S
O127 Dy120 2.664 . S
O127 Dy123 2.310 . S
O127 C128 1.268 . S
C128 O126 1.254 . S
C128 O127 1.268 . S
C129 O134 1.254 . S
C129 O135 1.268 . S
O130 Dy123 2.351 . S
O130 C138 1.249 . S
O131 Dy120 2.326 . S
O131 C138 1.267 . S
O132 C121 1.185 . S
O132 Dy123 2.398 . S
O133 C121 1.355 . S
O133 Dy123 2.491 . S
O134 Dy123 2.403 . S
O134 C129 1.254 . S
O135 Dy120 2.310 . S
O135 Dy123 2.664 . S
O135 C129 1.268 . S
O136 Dy120 2.351 . S
O136 C139 1.249 . S
O137 Dy123 2.326 . S
O137 C139 1.267 . S
C138 O130 1.249 . S
C138 O131 1.267 . S
C139 O136 1.249 . S
C139 O137 1.267 . S
Dy140 O144 2.398 . S
Dy140 O145 2.491 . S
Dy140 O146 2.403 . S
Dy140 O147 2.664 . S
Dy140 O151 2.326 . S
Dy140 O155 2.310 . S
Dy140 O156 2.351 . S
C141 O152 1.185 . S
C141 O153 1.355 . S
C142 O144 1.185 . S
C142 O145 1.355 . S
Dy143 O147 2.310 . S
Dy143 O150 2.351 . S
Dy143 O152 2.398 . S
Dy143 O153 2.491 . S
Dy143 O154 2.403 . S
Dy143 O155 2.664 . S
Dy143 O157 2.326 . S
O144 Dy140 2.398 . S
O144 C142 1.185 . S
O145 Dy140 2.491 . S
O145 C142 1.355 . S
O146 Dy140 2.403 . S
O146 C148 1.254 . S
O147 Dy140 2.664 . S
O147 Dy143 2.310 . S
O147 C148 1.268 . S
C148 O146 1.254 . S
C148 O147 1.268 . S
C149 O154 1.254 . S
C149 O155 1.268 . S
O150 Dy143 2.351 . S
O150 C158 1.249 . S
O151 Dy140 2.326 . S
O151 C158 1.267 . S
O152 C141 1.185 . S
O152 Dy143 2.398 . S
O153 C141 1.355 . S
O153 Dy143 2.491 . S
O154 Dy143 2.403 . S
O154 C149 1.254 . S
O155 Dy140 2.310 . S
O155 Dy143 2.664 . S
O155 C149 1.268 . S
O156 Dy140 2.351 . S
O156 C159 1.249 . S
O157 Dy143 2.326 . S
O157 C159 1.267 . S
C158 O150 1.249 . S
C158 O151 1.267 . S
C159 O156 1.249 . S
C159 O157 1.267 . S
Dy160 O164 2.398 . S
Dy160 O165 2.491 . S
Dy160 O166 2.403 . S
Dy160 O167 2.664 . S
Dy160 O171 2.326 . S
Dy160 O175 2.310 . S
Dy160 O176 2.351 . S
C161 O172 1.185 . S
C161 O173 1.355 . S
C162 O164 1.185 . S
C162 O165 1.355 . S
Dy163 O167 2.310 . S
Dy163 O170 2.351 . S
Dy163 O172 2.398 . S
Dy163 O173 2.491 . S
Dy163 O174 2.403 . S
Dy163 O175 2.664 . S
Dy163 O177 2.326 . S
O164 Dy160 2.398 . S
O164 C162 1.185 . S
O165 Dy160 2.491 . S
O165 C162 1.355 . S
O166 Dy160 2.403 . S
O166 C168 1.254 . S
O167 Dy160 2.664 . S
O167 Dy163 2.310 . S
O167 C168 1.268 . S
C168 O166 1.254 . S
C168 O167 1.268 . S
C169 O174 1.254 . S
C169 O175 1.268 . S
O170 Dy163 2.351 . S
O170 C178 1.249 . S
O171 Dy160 2.326 . S
O171 C178 1.267 . S
O172 C161 1.185 . S
O172 Dy163 2.398 . S
O173 C161 1.355 . S
O173 Dy163 2.491 . S
O174 Dy163 2.403 . S
O174 C169 1.254 . S
O175 Dy160 2.310 . S
O175 Dy163 2.664 . S
O175 C169 1.268 . S
O176 Dy160 2.351 . S
O176 C179 1.249 . S
O177 Dy163 2.326 . S
O177 C179 1.267 . S
C178 O170 1.249 . S
C178 O171 1.267 . S
C179 O176 1.249 . S
C179 O177 1.267 . S
Dy180 O184 2.398 . S
Dy180 O185 2.491 . S
Dy180 O186 2.403 1_545 S
Dy180 O187 2.664 . S
Dy180 O191 2.326 . S
Dy180 O195 2.310 . S
Dy180 O196 2.351 1_545 S
C181 O192 1.185 . S
C181 O193 1.355 . S
C182 O184 1.185 . S
C182 O185 1.355 . S
Dy183 O187 2.310 . S
Dy183 O190 2.351 . S
Dy183 O192 2.398 . S
Dy183 O193 2.491 . S
Dy183 O194 2.403 . S
Dy183 O195 2.664 . S
Dy183 O197 2.326 1_545 S
O184 Dy180 2.398 . S
O184 C182 1.185 . S
O185 Dy180 2.491 . S
O185 C182 1.355 . S
O186 Dy180 2.403 1_565 S
O186 C188 1.254 . S
O187 Dy180 2.664 . S
O187 Dy183 2.310 . S
O187 C188 1.268 1_545 S
C188 O186 1.254 . S
C188 O187 1.268 1_565 S
C189 O194 1.254 . S
C189 O195 1.268 . S
O190 Dy183 2.351 . S
O190 C198 1.249 . S
O191 Dy180 2.326 . S
O191 C198 1.267 . S
O192 C181 1.185 . S
O192 Dy183 2.398 . S
O193 C181 1.355 . S
O193 Dy183 2.491 . S
O194 Dy183 2.403 . S
O194 C189 1.254 . S
O195 Dy180 2.310 . S
O195 Dy183 2.664 . S
O195 C189 1.268 . S
O196 Dy180 2.351 1_565 S
O196 C199 1.249 . S
O197 Dy183 2.326 1_565 S
O197 C199 1.267 . S
C198 O190 1.249 . S
C198 O191 1.267 . S
C199 O196 1.249 . S
C199 O197 1.267 . S
Dy200 O204 2.398 . S
Dy200 O205 2.491 . S
Dy200 O206 2.403 . S
Dy200 O207 2.664 . S
Dy200 O211 2.326 . S
Dy200 O215 2.310 . S
Dy200 O216 2.351 . S
C201 O212 1.185 . S
C201 O213 1.355 . S
C202 O204 1.185 . S
C202 O205 1.355 . S
Dy203 O207 2.310 . S
Dy203 O210 2.351 . S
Dy203 O212 2.398 . S
Dy203 O213 2.491 . S
Dy203 O214 2.403 . S
Dy203 O215 2.664 . S
Dy203 O217 2.326 . S
O204 Dy200 2.398 . S
O204 C202 1.185 . S
O205 Dy200 2.491 . S
O205 C202 1.355 . S
O206 Dy200 2.403 . S
O206 C208 1.254 . S
O207 Dy200 2.664 . S
O207 Dy203 2.310 . S
O207 C208 1.268 . S
C208 O206 1.254 . S
C208 O207 1.268 . S
C209 O214 1.254 . S
C209 O215 1.268 . S
O210 Dy203 2.351 . S
O210 C218 1.249 . S
O211 Dy200 2.326 . S
O211 C218 1.267 . S
O212 C201 1.185 . S
O212 Dy203 2.398 . S
O213 C201 1.355 . S
O213 Dy203 2.491 . S
O214 Dy203 2.403 . S
O214 C209 1.254 . S
O215 Dy200 2.310 . S
O215 Dy203 2.664 . S
O215 C209 1.268 . S
O216 Dy200 2.351 . S
O216 C219 1.249 . S
O217 Dy203 2.326 . S
O217 C219 1.267 . S
C218 O210 1.249 . S
C218 O211 1.267 . S
C219 O216 1.249 . S
C219 O217 1.267 . S
Dy220 O224 2.398 . S
Dy220 O225 2.491 . S
Dy220 O226 2.403 1_565 S
Dy220 O227 2.664 . S
Dy220 O231 2.326 . S
Dy220 O235 2.310 . S
Dy220 O236 2.351 1_565 S
C221 O232 1.185 . S
C221 O233 1.355 . S
C222 O224 1.185 . S
C222 O225 1.355 . S
Dy223 O227 2.310 . S
Dy223 O230 2.351 . S
Dy223 O232 2.398 . S
Dy223 O233 2.491 . S
Dy223 O234 2.403 . S
Dy223 O235 2.664 . S
Dy223 O237 2.326 1_565 S
O224 Dy220 2.398 . S
O224 C222 1.185 . S
O225 Dy220 2.491 . S
O225 C222 1.355 . S
O226 Dy220 2.403 1_545 S
O226 C228 1.254 . S
O227 Dy220 2.664 . S
O227 Dy223 2.310 . S
O227 C228 1.268 1_565 S
C228 O226 1.254 . S
C228 O227 1.268 1_545 S
C229 O234 1.254 . S
C229 O235 1.268 . S
O230 Dy223 2.351 . S
O230 C238 1.249 . S
O231 Dy220 2.326 . S
O231 C238 1.267 . S
O232 C221 1.185 . S
O232 Dy223 2.398 . S
O233 C221 1.355 . S
O233 Dy223 2.491 . S
O234 Dy223 2.403 . S
O234 C229 1.254 . S
O235 Dy220 2.310 . S
O235 Dy223 2.664 . S
O235 C229 1.268 . S
O236 Dy220 2.351 1_545 S
O236 C239 1.249 . S
O237 Dy223 2.326 1_545 S
O237 C239 1.267 . S
C238 O230 1.249 . S
C238 O231 1.267 . S
C239 O236 1.249 . S
C239 O237 1.267 . S
Dy240 O244 2.398 . S
Dy240 O245 2.491 . S
Dy240 O246 2.403 . S
Dy240 O247 2.664 . S
Dy240 O251 2.326 . S
Dy240 O255 2.310 . S
Dy240 O256 2.351 . S
C241 O252 1.185 . S
C241 O253 1.355 . S
C242 O244 1.185 . S
C242 O245 1.355 . S
Dy243 O247 2.310 . S
Dy243 O250 2.351 . S
Dy243 O252 2.398 . S
Dy243 O253 2.491 . S
Dy243 O254 2.403 . S
Dy243 O255 2.664 . S
Dy243 O257 2.326 . S
O244 Dy240 2.398 . S
O244 C242 1.185 . S
O245 Dy240 2.491 . S
O245 C242 1.355 . S
O246 Dy240 2.403 . S
O246 C248 1.254 . S
O247 Dy240 2.664 . S
O247 Dy243 2.310 . S
O247 C248 1.268 . S
C248 O246 1.254 . S
C248 O247 1.268 . S
C249 O254 1.254 . S
C249 O255 1.268 . S
O250 Dy243 2.351 . S
O250 C258 1.249 . S
O251 Dy240 2.326 . S
O251 C258 1.267 . S
O252 C241 1.185 . S
O252 Dy243 2.398 . S
O253 C241 1.355 . S
O253 Dy243 2.491 . S
O254 Dy243 2.403 . S
O254 C249 1.254 . S
O255 Dy240 2.310 . S
O255 Dy243 2.664 . S
O255 C249 1.268 . S
O256 Dy240 2.351 . S
O256 C259 1.249 . S
O257 Dy243 2.326 . S
O257 C259 1.267 . S
C258 O250 1.249 . S
C258 O251 1.267 . S
C259 O256 1.249 . S
C259 O257 1.267 . S
Dy260 O264 2.398 . S
Dy260 O265 2.491 . S
Dy260 O266 2.403 . S
Dy260 O267 2.664 . S
Dy260 O271 2.326 1_565 S
Dy260 O275 2.310 . S
Dy260 O276 2.351 . S
C261 O272 1.185 . S
C261 O273 1.355 . S
C262 O264 1.185 . S
C262 O265 1.355 . S
Dy263 O267 2.310 . S
Dy263 O270 2.351 1_565 S
Dy263 O272 2.398 . S
Dy263 O273 2.491 . S
Dy263 O274 2.403 1_565 S
Dy263 O275 2.664 . S
Dy263 O277 2.326 . S
O264 Dy260 2.398 . S
O264 C262 1.185 . S
O265 Dy260 2.491 . S
O265 C262 1.355 . S
O266 Dy260 2.403 . S
O266 C268 1.254 . S
O267 Dy260 2.664 . S
O267 Dy263 2.310 . S
O267 C268 1.268 . S
C268 O266 1.254 . S
C268 O267 1.268 . S
C269 O274 1.254 . S
C269 O275 1.268 1_545 S
O270 Dy263 2.351 1_545 S
O270 C278 1.249 . S
O271 Dy260 2.326 1_545 S
O271 C278 1.267 . S
O272 C261 1.185 . S
O272 Dy263 2.398 . S
O273 C261 1.355 . S
O273 Dy263 2.491 . S
O274 Dy263 2.403 1_545 S
O274 C269 1.254 . S
O275 Dy260 2.310 . S
O275 Dy263 2.664 . S
O275 C269 1.268 1_565 S
O276 Dy260 2.351 . S
O276 C279 1.249 . S
O277 Dy263 2.326 . S
O277 C279 1.267 . S
C278 O270 1.249 . S
C278 O271 1.267 . S
C279 O276 1.249 . S
C279 O277 1.267 . S
Dy280 O284 2.398 . S
Dy280 O285 2.491 . S
Dy280 O286 2.403 . S
Dy280 O287 2.664 . S
Dy280 O291 2.326 . S
Dy280 O295 2.310 . S
Dy280 O296 2.351 . S
C281 O292 1.185 . S
C281 O293 1.355 . S
C282 O284 1.185 . S
C282 O285 1.355 . S
Dy283 O287 2.310 . S
Dy283 O290 2.351 . S
Dy283 O292 2.398 . S
Dy283 O293 2.491 . S
Dy283 O294 2.403 . S
Dy283 O295 2.664 . S
Dy283 O297 2.326 . S
O284 Dy280 2.398 . S
O284 C282 1.185 . S
O285 Dy280 2.491 . S
O285 C282 1.355 . S
O286 Dy280 2.403 . S
O286 C288 1.254 . S
O287 Dy280 2.664 . S
O287 Dy283 2.310 . S
O287 C288 1.268 . S
C288 O286 1.254 . S
C288 O287 1.268 . S
C289 O294 1.254 . S
C289 O295 1.268 . S
O290 Dy283 2.351 . S
O290 C298 1.249 . S
O291 Dy280 2.326 . S
O291 C298 1.267 . S
O292 C281 1.185 . S
O292 Dy283 2.398 . S
O293 C281 1.355 . S
O293 Dy283 2.491 . S
O294 Dy283 2.403 . S
O294 C289 1.254 . S
O295 Dy280 2.310 . S
O295 Dy283 2.664 . S
O295 C289 1.268 . S
O296 Dy280 2.351 . S
O296 C299 1.249 . S
O297 Dy283 2.326 . S
O297 C299 1.267 . S
C298 O290 1.249 . S
C298 O291 1.267 . S
C299 O296 1.249 . S
C299 O297 1.267 . S
Dy300 O304 2.398 . S
Dy300 O305 2.491 . S
Dy300 O306 2.403 . S
Dy300 O307 2.664 . S
Dy300 O311 2.326 1_545 S
Dy300 O315 2.310 . S
Dy300 O316 2.351 . S
C301 O312 1.185 . S
C301 O313 1.355 . S
C302 O304 1.185 . S
C302 O305 1.355 . S
Dy303 O307 2.310 . S
Dy303 O310 2.351 1_545 S
Dy303 O312 2.398 . S
Dy303 O313 2.491 . S
Dy303 O314 2.403 1_545 S
Dy303 O315 2.664 . S
Dy303 O317 2.326 . S
O304 Dy300 2.398 . S
O304 C302 1.185 . S
O305 Dy300 2.491 . S
O305 C302 1.355 . S
O306 Dy300 2.403 . S
O306 C308 1.254 . S
O307 Dy300 2.664 . S
O307 Dy303 2.310 . S
O307 C308 1.268 . S
C308 O306 1.254 . S
C308 O307 1.268 . S
C309 O314 1.254 . S
C309 O315 1.268 1_565 S
O310 Dy303 2.351 1_565 S
O310 C318 1.249 . S
O311 Dy300 2.326 1_565 S
O311 C318 1.267 . S
O312 C301 1.185 . S
O312 Dy303 2.398 . S
O313 C301 1.355 . S
O313 Dy303 2.491 . S
O314 Dy303 2.403 1_565 S
O314 C309 1.254 . S
O315 Dy300 2.310 . S
O315 Dy303 2.664 . S
O315 C309 1.268 1_545 S
O316 Dy300 2.351 . S
O316 C319 1.249 . S
O317 Dy303 2.326 . S
O317 C319 1.267 . S
C318 O310 1.249 . S
C318 O311 1.267 . S
C319 O316 1.249 . S
C319 O317 1.267 . S
C320 C321 1.391 . S
C320 C322 1.394 . S
C320 H336 0.931 . S
C321 C320 1.391 . S
C321 C325 1.376 . S
C322 C320 1.394 . S
C322 C323 1.369 . S
C322 C326 1.531 . S
C323 C322 1.369 . S
C323 C324 1.410 . S
C323 C331 1.503 . S
C324 C323 1.410 . S
C324 C325 1.392 . S
C324 C327 1.511 . S
C325 C321 1.376 . S
C325 C324 1.392 . S
C325 H337 0.929 . S
C326 C322 1.531 . S
C326 H338 0.960 . S
C326 H339 0.962 . S
C326 H340 0.960 . S
C327 C324 1.511 . S
C327 H341 0.961 . S
C327 H342 0.961 . S
C327 H343 0.961 . S
C328 C329 1.370 . S
C328 C330 1.363 . S
C328 H344 0.931 . S
C329 C328 1.370 . S
C329 C333 1.408 . S
C330 C328 1.363 . S
C330 C331 1.370 . S
C330 C334 1.524 . S
C331 C323 1.503 . S
C331 C330 1.370 . S
C331 C332 1.403 . S
C332 C331 1.403 . S
C332 C333 1.404 . S
C332 C335 1.539 . S
C333 C329 1.408 . S
C333 C332 1.404 . S
C333 H345 0.930 . S
C334 C330 1.524 . S
C334 H346 0.956 . S
C334 H347 0.961 . S
C334 H348 0.961 . S
C335 C332 1.539 . S
C335 H349 0.958 . S
C335 H350 0.961 . S
C335 H351 0.960 . S
H336 C320 0.931 . S
H337 C325 0.929 . S
H338 C326 0.960 . S
H339 C326 0.962 . S
H340 C326 0.960 . S
H341 C327 0.961 . S
H342 C327 0.961 . S
H343 C327 0.961 . S
H344 C328 0.931 . S
H345 C333 0.930 . S
H346 C334 0.956 . S
H347 C334 0.961 . S
H348 C334 0.961 . S
H349 C335 0.958 . S
H350 C335 0.961 . S
H351 C335 0.960 . S
C352 C353 1.391 . S
C352 C354 1.394 . S
C352 H368 0.931 . S
C353 C352 1.391 . S
C353 C357 1.376 . S
C354 C352 1.394 . S
C354 C355 1.369 . S
C354 C358 1.531 . S
C355 C354 1.369 . S
C355 C356 1.410 . S
C355 C363 1.503 . S
C356 C355 1.410 . S
C356 C357 1.392 . S
C356 C359 1.511 . S
C357 C353 1.376 . S
C357 C356 1.392 . S
C357 H369 0.929 . S
C358 C354 1.531 . S
C358 H370 0.960 . S
C358 H371 0.962 . S
C358 H372 0.960 . S
C359 C356 1.511 . S
C359 H373 0.961 . S
C359 H374 0.961 . S
C359 H375 0.961 . S
C360 C361 1.370 . S
C360 C362 1.363 . S
C360 H376 0.931 . S
C361 C360 1.370 . S
C361 C365 1.408 . S
C362 C360 1.363 . S
C362 C363 1.370 . S
C362 C366 1.524 . S
C363 C355 1.503 . S
C363 C362 1.370 . S
C363 C364 1.403 . S
C364 C363 1.403 . S
C364 C365 1.404 . S
C364 C367 1.539 . S
C365 C361 1.408 . S
C365 C364 1.404 . S
C365 H377 0.930 . S
C366 C362 1.524 . S
C366 H378 0.956 . S
C366 H379 0.961 . S
C366 H380 0.961 . S
C367 C364 1.539 . S
C367 H381 0.958 . S
C367 H382 0.961 . S
C367 H383 0.960 . S
H368 C352 0.931 . S
H369 C357 0.929 . S
H370 C358 0.960 . S
H371 C358 0.962 . S
H372 C358 0.960 . S
H373 C359 0.961 . S
H374 C359 0.961 . S
H375 C359 0.961 . S
H376 C360 0.931 . S
H377 C365 0.930 . S
H378 C366 0.956 . S
H379 C366 0.961 . S
H380 C366 0.961 . S
H381 C367 0.958 . S
H382 C367 0.961 . S
H383 C367 0.960 . S
C384 C385 1.391 . S
C384 C386 1.394 . S
C384 H400 0.931 . S
C385 C384 1.391 . S
C385 C389 1.376 . S
C386 C384 1.394 . S
C386 C387 1.369 . S
C386 C390 1.531 . S
C387 C386 1.369 . S
C387 C388 1.410 . S
C387 C395 1.503 . S
C388 C387 1.410 . S
C388 C389 1.392 . S
C388 C391 1.511 . S
C389 C385 1.376 . S
C389 C388 1.392 . S
C389 H401 0.929 . S
C390 C386 1.531 . S
C390 H402 0.960 . S
C390 H403 0.962 . S
C390 H404 0.960 . S
C391 C388 1.511 . S
C391 H405 0.961 . S
C391 H406 0.961 . S
C391 H407 0.961 . S
C392 C393 1.370 . S
C392 C394 1.363 . S
C392 H408 0.931 . S
C393 C392 1.370 . S
C393 C397 1.408 . S
C394 C392 1.363 . S
C394 C395 1.370 . S
C394 C398 1.524 . S
C395 C387 1.503 . S
C395 C394 1.370 . S
C395 C396 1.403 . S
C396 C395 1.403 . S
C396 C397 1.404 . S
C396 C399 1.539 . S
C397 C393 1.408 . S
C397 C396 1.404 . S
C397 H409 0.930 . S
C398 C394 1.524 . S
C398 H410 0.956 . S
C398 H411 0.961 . S
C398 H412 0.961 . S
C399 C396 1.539 . S
C399 H413 0.958 . S
C399 H414 0.961 . S
C399 H415 0.960 . S
H400 C384 0.931 . S
H401 C389 0.929 . S
H402 C390 0.960 . S
H403 C390 0.962 . S
H404 C390 0.960 . S
H405 C391 0.961 . S
H406 C391 0.961 . S
H407 C391 0.961 . S
H408 C392 0.931 . S
H409 C397 0.930 . S
H410 C398 0.956 . S
H411 C398 0.961 . S
H412 C398 0.961 . S
H413 C399 0.958 . S
H414 C399 0.961 . S
H415 C399 0.960 . S
C416 C417 1.391 . S
C416 C418 1.394 . S
C416 H432 0.931 . S
C417 C416 1.391 . S
C417 C421 1.376 . S
C418 C416 1.394 . S
C418 C419 1.369 . S
C418 C422 1.531 1_655 S
C419 C418 1.369 . S
C419 C420 1.410 . S
C419 C427 1.503 1_656 S
C420 C419 1.410 . S
C420 C421 1.392 . S
C420 C423 1.511 1_556 S
C421 C417 1.376 . S
C421 C420 1.392 . S
C421 H433 0.929 . S
C422 C418 1.531 1_455 S
C422 H434 0.960 . S
C422 H435 0.962 . S
C422 H436 0.960 . S
C423 C420 1.511 1_554 S
C423 H437 0.961 . S
C423 H438 0.961 . S
C423 H439 0.961 . S
C424 C425 1.370 . S
C424 C426 1.363 . S
C424 H440 0.931 . S
C425 C424 1.370 . S
C425 C429 1.408 1_455 S
C426 C424 1.363 . S
C426 C427 1.370 . S
C426 C430 1.524 . S
C427 C419 1.503 1_454 S
C427 C426 1.370 . S
C427 C428 1.403 1_455 S
C428 C427 1.403 1_655 S
C428 C429 1.404 . S
C428 C431 1.539 . S
C429 C425 1.408 1_655 S
C429 C428 1.404 . S
C429 H441 0.930 . S
C430 C426 1.524 . S
C430 H442 0.956 1_554 S
C430 H443 0.961 . S
C430 H444 0.961 . S
C431 C428 1.539 . S
C431 H445 0.958 1_554 S
C431 H446 0.961 . S
C431 H447 0.962 . S
H432 C416 0.931 . S
H433 C421 0.929 . S
H434 C422 0.960 . S
H435 C422 0.962 . S
H436 C422 0.960 . S
H437 C423 0.961 . S
H438 C423 0.961 . S
H439 C423 0.961 . S
H440 C424 0.931 . S
H441 C429 0.930 . S
H442 C430 0.956 1_556 S
H443 C430 0.961 . S
H444 C430 0.961 . S
H445 C431 0.958 1_556 S
H446 C431 0.961 . S
H447 C431 0.962 . S
C448 C449 1.391 . S
C448 C450 1.394 . S
C448 H464 0.931 . S
C449 C448 1.391 . S
C449 C453 1.376 . S
C450 C448 1.394 . S
C450 C451 1.369 . S
C450 C454 1.531 . S
C451 C450 1.369 . S
C451 C452 1.410 . S
C451 C459 1.503 . S
C452 C451 1.410 . S
C452 C453 1.392 . S
C452 C455 1.511 . S
C453 C449 1.376 . S
C453 C452 1.392 . S
C453 H465 0.929 . S
C454 C450 1.531 . S
C454 H466 0.960 . S
C454 H467 0.962 . S
C454 H468 0.960 . S
C455 C452 1.511 . S
C455 H469 0.961 . S
C455 H470 0.961 . S
C455 H471 0.961 . S
C456 C457 1.370 . S
C456 C458 1.363 . S
C456 H472 0.931 . S
C457 C456 1.370 . S
C457 C461 1.408 . S
C458 C456 1.363 . S
C458 C459 1.370 . S
C458 C462 1.524 . S
C459 C451 1.503 . S
C459 C458 1.370 . S
C459 C460 1.403 . S
C460 C459 1.403 . S
C460 C461 1.404 . S
C460 C463 1.539 . S
C461 C457 1.408 . S
C461 C460 1.404 . S
C461 H473 0.930 . S
C462 C458 1.524 . S
C462 H474 0.956 . S
C462 H475 0.961 . S
C462 H476 0.961 . S
C463 C460 1.539 . S
C463 H477 0.958 . S
C463 H478 0.961 . S
C463 H479 0.960 . S
H464 C448 0.931 . S
H465 C453 0.929 . S
H466 C454 0.960 . S
H467 C454 0.962 . S
H468 C454 0.960 . S
H469 C455 0.961 . S
H470 C455 0.961 . S
H471 C455 0.961 . S
H472 C456 0.931 . S
H473 C461 0.930 . S
H474 C462 0.956 . S
H475 C462 0.961 . S
H476 C462 0.961 . S
H477 C463 0.958 . S
H478 C463 0.961 . S
H479 C463 0.960 . S
C480 C481 1.391 . S
C480 C482 1.394 . S
C480 H496 0.931 . S
C481 C480 1.391 . S
C481 C485 1.376 . S
C482 C480 1.394 . S
C482 C483 1.369 . S
C482 C486 1.531 . S
C483 C482 1.369 . S
C483 C484 1.410 . S
C483 C491 1.503 . S
C484 C483 1.410 . S
C484 C485 1.392 . S
C484 C487 1.511 . S
C485 C481 1.376 . S
C485 C484 1.392 . S
C485 H497 0.929 . S
C486 C482 1.531 . S
C486 H498 0.960 . S
C486 H499 0.962 . S
C486 H500 0.960 . S
C487 C484 1.511 . S
C487 H501 0.961 . S
C487 H502 0.961 . S
C487 H503 0.961 . S
C488 C489 1.370 . S
C488 C490 1.363 . S
C488 H504 0.931 . S
C489 C488 1.370 . S
C489 C493 1.408 . S
C490 C488 1.363 . S
C490 C491 1.370 . S
C490 C494 1.524 . S
C491 C483 1.503 . S
C491 C490 1.370 . S
C491 C492 1.403 . S
C492 C491 1.403 . S
C492 C493 1.404 . S
C492 C495 1.539 . S
C493 C489 1.408 . S
C493 C492 1.404 . S
C493 H505 0.930 . S
C494 C490 1.524 . S
C494 H506 0.956 . S
C494 H507 0.961 . S
C494 H508 0.961 . S
C495 C492 1.539 . S
C495 H509 0.958 . S
C495 H510 0.961 . S
C495 H511 0.960 . S
H496 C480 0.931 . S
H497 C485 0.929 . S
H498 C486 0.960 . S
H499 C486 0.962 . S
H500 C486 0.960 . S
H501 C487 0.961 . S
H502 C487 0.961 . S
H503 C487 0.961 . S
H504 C488 0.931 . S
H505 C493 0.930 . S
H506 C494 0.956 . S
H507 C494 0.961 . S
H508 C494 0.961 . S
H509 C495 0.958 . S
H510 C495 0.961 . S
H511 C495 0.960 . S
C512 C513 1.391 . S
C512 C514 1.394 . S
C512 H528 0.931 . S
C513 C512 1.391 . S
C513 C517 1.376 1_655 S
C514 C512 1.394 . S
C514 C515 1.369 . S
C514 C518 1.531 1_565 S
C515 C514 1.369 . S
C515 C516 1.410 1_655 S
C515 C523 1.503 1_664 S
C516 C515 1.410 1_455 S
C516 C517 1.392 . S
C516 C519 1.511 . S
C517 C513 1.376 1_455 S
C517 C516 1.392 . S
C517 H529 0.929 . S
C518 C514 1.531 1_545 S
C518 H530 0.960 . S
C518 H531 0.962 1_554 S
C518 H532 0.960 . S
C519 C516 1.511 . S
C519 H533 0.961 . S
C519 H534 0.961 1_554 S
C519 H535 0.961 . S
C520 C521 1.370 . S
C520 C522 1.363 . S
C520 H536 0.931 . S
C521 C520 1.370 . S
C521 C525 1.408 . S
C522 C520 1.363 . S
C522 C523 1.370 . S
C522 C526 1.524 1_445 S
C523 C515 1.503 1_446 S
C523 C522 1.370 . S
C523 C524 1.404 . S
C524 C523 1.404 . S
C524 C525 1.407 . S
C524 C527 1.535 1_556 S
C525 C521 1.408 . S
C525 C524 1.407 . S
C525 H537 0.930 . S
C526 C522 1.524 1_665 S
C526 H538 0.956 . S
C526 H539 0.961 . S
C526 H540 0.961 . S
C527 C524 1.535 1_554 S
C527 H541 0.958 . S
C527 H542 0.961 . S
C527 H543 0.960 . S
H528 C512 0.931 . S
H529 C517 0.929 . S
H530 C518 0.960 . S
H531 C518 0.962 1_556 S
H532 C518 0.960 . S
H533 C519 0.961 . S
H534 C519 0.961 1_556 S
H535 C519 0.961 . S
H536 C520 0.931 . S
H537 C525 0.930 . S
H538 C526 0.956 . S
H539 C526 0.961 . S
H540 C526 0.961 . S
H541 C527 0.958 . S
H542 C527 0.961 . S
H543 C527 0.960 . S
C544 C545 1.391 . S
C544 C546 1.394 . S
C544 H560 0.931 . S
C545 C544 1.391 . S
C545 C549 1.376 . S
C546 C544 1.394 . S
C546 C547 1.369 . S
C546 C550 1.531 . S
C547 C546 1.369 . S
C547 C548 1.410 . S
C547 C555 1.503 1_565 S
C548 C547 1.410 . S
C548 C549 1.392 . S
C548 C551 1.511 . S
C549 C545 1.376 . S
C549 C548 1.392 . S
C549 H561 0.929 . S
C550 C546 1.531 . S
C550 H562 0.960 . S
C550 H563 0.962 1_565 S
C550 H564 0.960 . S
C551 C548 1.511 . S
C551 H565 0.961 . S
C551 H566 0.961 1_565 S
C551 H567 0.961 . S
C552 C553 1.370 . S
C552 C554 1.363 . S
C552 H568 0.931 . S
C553 C552 1.370 . S
C553 C557 1.408 . S
C554 C552 1.363 . S
C554 C555 1.370 . S
C554 C558 1.524 . S
C555 C547 1.503 1_545 S
C555 C554 1.370 . S
C555 C556 1.403 1_545 S
C556 C555 1.403 1_565 S
C556 C557 1.404 1_565 S
C556 C559 1.539 . S
C557 C553 1.408 . S
C557 C556 1.404 1_545 S
C557 H569 0.930 . S
C558 C554 1.524 . S
C558 H570 0.956 . S
C558 H571 0.961 . S
C558 H572 0.961 . S
C559 C556 1.539 . S
C559 H573 0.958 . S
C559 H574 0.961 . S
C559 H575 0.960 . S
H560 C544 0.931 . S
H561 C549 0.929 . S
H562 C550 0.960 . S
H563 C550 0.962 1_545 S
H564 C550 0.960 . S
H565 C551 0.961 . S
H566 C551 0.961 1_545 S
H567 C551 0.961 . S
H568 C552 0.931 . S
H569 C557 0.930 . S
H570 C558 0.956 . S
H571 C558 0.961 . S
H572 C558 0.961 . S
H573 C559 0.958 . S
H574 C559 0.961 . S
H575 C559 0.960 . S
C576 C577 1.391 . S
C576 C578 1.394 . S
C576 H592 0.931 . S
C577 C576 1.391 . S
C577 C581 1.376 . S
C578 C576 1.394 . S
C578 C579 1.369 . S
C578 C582 1.531 . S
C579 C578 1.369 . S
C579 C580 1.410 . S
C579 C587 1.503 1_556 S
C580 C579 1.410 . S
C580 C581 1.392 . S
C580 C583 1.511 . S
C581 C577 1.376 . S
C581 C580 1.392 . S
C581 H593 0.929 . S
C582 C578 1.531 . S
C582 H594 0.960 1_556 S
C582 H595 0.962 . S
C582 H596 0.960 . S
C583 C580 1.511 . S
C583 H597 0.961 . S
C583 H598 0.961 . S
C583 H599 0.961 . S
C584 C585 1.370 . S
C584 C586 1.363 . S
C584 H600 0.931 . S
C585 C584 1.370 . S
C585 C589 1.408 . S
C586 C584 1.363 . S
C586 C587 1.370 . S
C586 C590 1.524 . S
C587 C579 1.503 1_554 S
C587 C586 1.370 . S
C587 C588 1.403 . S
C588 C587 1.403 . S
C588 C589 1.404 . S
C588 C591 1.539 1_554 S
C589 C585 1.408 . S
C589 C588 1.404 . S
C589 H601 0.930 . S
C590 C586 1.524 . S
C590 H602 0.957 . S
C590 H603 0.961 1_554 S
C590 H604 0.961 . S
C591 C588 1.539 1_556 S
C591 H605 0.957 1_546 S
C591 H606 0.961 1_546 S
C591 H607 0.960 . S
H592 C576 0.931 . S
H593 C581 0.929 . S
H594 C582 0.960 1_554 S
H595 C582 0.962 . S
H596 C582 0.960 . S
H597 C583 0.961 . S
H598 C583 0.961 . S
H599 C583 0.961 . S
H600 C584 0.931 . S
H601 C589 0.930 . S
H602 C590 0.957 . S
H603 C590 0.961 1_556 S
H604 C590 0.961 . S
H605 C591 0.957 1_564 S
H606 C591 0.961 1_564 S
H607 C591 0.960 . S
C608 C609 1.391 . S
C608 C610 1.394 . S
C608 H624 0.931 . S
C609 C608 1.391 . S
C609 C613 1.376 . S
C610 C608 1.394 . S
C610 C611 1.369 . S
C610 C614 1.531 . S
C611 C610 1.369 . S
C611 C612 1.410 . S
C611 C619 1.503 . S
C612 C611 1.410 . S
C612 C613 1.392 . S
C612 C615 1.511 . S
C613 C609 1.376 . S
C613 C612 1.392 . S
C613 H625 0.929 . S
C614 C610 1.531 . S
C614 H626 0.960 . S
C614 H627 0.962 . S
C614 H628 0.960 . S
C615 C612 1.511 . S
C615 H629 0.961 . S
C615 H630 0.961 . S
C615 H631 0.961 . S
C616 C617 1.370 . S
C616 C618 1.363 . S
C616 H632 0.931 . S
C617 C616 1.370 . S
C617 C621 1.408 . S
C618 C616 1.363 . S
C618 C619 1.370 . S
C618 C622 1.524 . S
C619 C611 1.503 . S
C619 C618 1.370 . S
C619 C620 1.403 . S
C620 C619 1.403 . S
C620 C621 1.404 . S
C620 C623 1.539 . S
C621 C617 1.408 . S
C621 C620 1.404 . S
C621 H633 0.930 . S
C622 C618 1.524 . S
C622 H634 0.956 . S
C622 H635 0.961 . S
C622 H636 0.961 . S
C623 C620 1.539 . S
C623 H637 0.958 . S
C623 H638 0.961 . S
C623 H639 0.960 . S
H624 C608 0.931 . S
H625 C613 0.929 . S
H626 C614 0.960 . S
H627 C614 0.962 . S
H628 C614 0.960 . S
H629 C615 0.961 . S
H630 C615 0.961 . S
H631 C615 0.961 . S
H632 C616 0.931 . S
H633 C621 0.930 . S
H634 C622 0.956 . S
H635 C622 0.961 . S
H636 C622 0.961 . S
H637 C623 0.958 . S
H638 C623 0.961 . S
H639 C623 0.960 . S
C640 C641 1.391 . S
C640 C642 1.394 . S
C640 H656 0.931 . S
C641 C640 1.391 . S
C641 C645 1.376 . S
C642 C640 1.394 . S
C642 C643 1.369 . S
C642 C646 1.531 . S
C643 C642 1.369 . S
C643 C644 1.410 . S
C643 C651 1.503 . S
C644 C643 1.410 . S
C644 C645 1.392 . S
C644 C647 1.511 . S
C645 C641 1.376 . S
C645 C644 1.392 . S
C645 H657 0.929 . S
C646 C642 1.531 . S
C646 H658 0.960 . S
C646 H659 0.962 . S
C646 H660 0.960 . S
C647 C644 1.511 . S
C647 H661 0.961 . S
C647 H662 0.961 . S
C647 H663 0.961 . S
C648 C649 1.370 . S
C648 C650 1.363 . S
C648 H664 0.931 . S
C649 C648 1.370 . S
C649 C653 1.408 . S
C650 C648 1.363 . S
C650 C651 1.370 . S
C650 C654 1.524 . S
C651 C643 1.503 . S
C651 C650 1.370 . S
C651 C652 1.403 . S
C652 C651 1.403 . S
C652 C653 1.404 . S
C652 C655 1.539 . S
C653 C649 1.408 . S
C653 C652 1.404 . S
C653 H665 0.930 . S
C654 C650 1.524 . S
C654 H666 0.956 . S
C654 H667 0.961 . S
C654 H668 0.961 1_565 S
C655 C652 1.539 . S
C655 H669 0.958 . S
C655 H670 0.961 . S
C655 H671 0.960 . S
H656 C640 0.931 . S
H657 C645 0.929 . S
H658 C646 0.960 . S
H659 C646 0.962 . S
H660 C646 0.960 . S
H661 C647 0.961 . S
H662 C647 0.961 . S
H663 C647 0.961 . S
H664 C648 0.931 . S
H665 C653 0.930 . S
H666 C654 0.956 . S
H667 C654 0.961 . S
H668 C654 0.961 1_545 S
H669 C655 0.958 . S
H670 C655 0.961 . S
H671 C655 0.960 . S
C672 C673 1.391 . S
C672 C674 1.394 . S
C672 H688 0.931 . S
C673 C672 1.391 . S
C673 C677 1.376 . S
C674 C672 1.394 . S
C674 C675 1.369 . S
C674 C678 1.531 . S
C675 C674 1.369 . S
C675 C676 1.410 . S
C675 C683 1.503 . S
C676 C675 1.410 . S
C676 C677 1.392 . S
C676 C679 1.511 . S
C677 C673 1.376 . S
C677 C676 1.392 . S
C677 H689 0.929 . S
C678 C674 1.531 . S
C678 H690 0.960 . S
C678 H691 0.962 . S
C678 H692 0.960 . S
C679 C676 1.511 . S
C679 H693 0.961 . S
C679 H694 0.961 . S
C679 H695 0.961 . S
C680 C681 1.370 . S
C680 C682 1.363 . S
C680 H696 0.931 . S
C681 C680 1.370 . S
C681 C685 1.408 . S
C682 C680 1.363 . S
C682 C683 1.370 . S
C682 C686 1.524 . S
C683 C675 1.503 . S
C683 C682 1.370 . S
C683 C684 1.403 . S
C684 C683 1.403 . S
C684 C685 1.404 . S
C684 C687 1.539 . S
C685 C681 1.408 . S
C685 C684 1.404 . S
C685 H697 0.930 . S
C686 C682 1.524 . S
C686 H698 0.956 . S
C686 H699 0.961 . S
C686 H700 0.961 . S
C687 C684 1.539 . S
C687 H701 0.958 . S
C687 H702 0.961 . S
C687 H703 0.960 . S
H688 C672 0.931 . S
H689 C677 0.929 . S
H690 C678 0.960 . S
H691 C678 0.962 . S
H692 C678 0.960 . S
H693 C679 0.961 . S
H694 C679 0.961 . S
H695 C679 0.961 . S
H696 C680 0.931 . S
H697 C685 0.930 . S
H698 C686 0.956 . S
H699 C686 0.961 . S
H700 C686 0.961 . S
H701 C687 0.958 . S
H702 C687 0.961 . S
H703 C687 0.960 . S
C704 C705 1.391 . S
C704 C706 1.394 . S
C704 H720 0.931 . S
C705 C704 1.391 . S
C705 C709 1.376 . S
C706 C704 1.394 . S
C706 C707 1.369 . S
C706 C710 1.531 . S
C707 C706 1.369 . S
C707 C708 1.410 . S
C707 C715 1.503 1_554 S
C708 C707 1.410 . S
C708 C709 1.392 . S
C708 C711 1.511 . S
C709 C705 1.376 . S
C709 C708 1.392 . S
C709 H721 0.929 . S
C710 C706 1.531 . S
C710 H722 0.956 1_554 S
C710 H723 0.962 . S
C710 H724 0.960 . S
C711 C708 1.511 . S
C711 H725 0.961 . S
C711 H726 0.961 . S
C711 H727 0.961 . S
C712 C713 1.370 . S
C712 C714 1.363 . S
C712 H728 0.931 . S
C713 C712 1.370 . S
C713 C717 1.408 . S
C714 C712 1.363 . S
C714 C715 1.370 . S
C714 C718 1.524 . S
C715 C707 1.503 1_556 S
C715 C714 1.370 . S
C715 C716 1.403 . S
C716 C715 1.403 . S
C716 C717 1.404 . S
C716 C719 1.539 1_556 S
C717 C713 1.408 . S
C717 C716 1.404 . S
C717 H729 0.930 . S
C718 C714 1.524 . S
C718 H730 0.956 . S
C718 H731 0.961 1_556 S
C718 H732 0.961 1_565 S
C719 C716 1.539 1_554 S
C719 H733 0.958 . S
C719 H734 0.961 . S
C719 H735 0.960 . S
H720 C704 0.931 . S
H721 C709 0.929 . S
H722 C710 0.956 1_556 S
H723 C710 0.962 . S
H724 C710 0.960 . S
H725 C711 0.961 . S
H726 C711 0.961 . S
H727 C711 0.961 . S
H728 C712 0.931 . S
H729 C717 0.930 . S
H730 C718 0.956 . S
H731 C718 0.961 1_554 S
H732 C718 0.961 1_545 S
H733 C719 0.958 . S
H734 C719 0.961 . S
H735 C719 0.960 . S
C736 C737 1.391 . S
C736 C738 1.394 . S
C736 H752 0.931 . S
C737 C736 1.391 . S
C737 C741 1.376 . S
C738 C736 1.394 . S
C738 C739 1.369 . S
C738 C742 1.531 . S
C739 C738 1.369 . S
C739 C740 1.410 . S
C739 C747 1.503 . S
C740 C739 1.410 . S
C740 C741 1.392 . S
C740 C743 1.511 . S
C741 C737 1.376 . S
C741 C740 1.392 . S
C741 H753 0.929 . S
C742 C738 1.531 . S
C742 H754 0.960 . S
C742 H755 0.962 . S
C742 H756 0.960 . S
C743 C740 1.511 . S
C743 H757 0.961 . S
C743 H758 0.961 . S
C743 H759 0.961 . S
C744 C745 1.370 . S
C744 C746 1.363 . S
C744 H760 0.931 . S
C745 C744 1.370 . S
C745 C749 1.408 . S
C746 C744 1.363 . S
C746 C747 1.370 . S
C746 C750 1.524 . S
C747 C739 1.503 . S
C747 C746 1.370 . S
C747 C748 1.403 . S
C748 C747 1.403 . S
C748 C749 1.404 . S
C748 C751 1.539 . S
C749 C745 1.408 . S
C749 C748 1.404 . S
C749 H761 0.930 . S
C750 C746 1.524 . S
C750 H762 0.956 . S
C750 H763 0.961 . S
C750 H764 0.961 . S
C751 C748 1.539 . S
C751 H765 0.958 . S
C751 H766 0.961 . S
C751 H767 0.960 . S
H752 C736 0.931 . S
H753 C741 0.929 . S
H754 C742 0.960 . S
H755 C742 0.962 . S
H756 C742 0.960 . S
H757 C743 0.961 . S
H758 C743 0.961 . S
H759 C743 0.961 . S
H760 C744 0.931 . S
H761 C749 0.930 . S
H762 C750 0.956 . S
H763 C750 0.961 . S
H764 C750 0.961 . S
H765 C751 0.958 . S
H766 C751 0.961 . S
H767 C751 0.960 . S
C768 C769 1.391 . S
C768 C770 1.394 . S
C768 H784 0.931 . S
C769 C768 1.391 . S
C769 C773 1.376 . S
C770 C768 1.394 . S
C770 C771 1.369 . S
C770 C774 1.531 . S
C771 C770 1.369 . S
C771 C772 1.410 . S
C771 C779 1.503 . S
C772 C771 1.410 . S
C772 C773 1.392 . S
C772 C775 1.511 . S
C773 C769 1.376 . S
C773 C772 1.392 . S
C773 H785 0.929 . S
C774 C770 1.531 . S
C774 H786 0.960 . S
C774 H787 0.962 . S
C774 H788 0.960 . S
C775 C772 1.511 . S
C775 H789 0.961 . S
C775 H790 0.961 . S
C775 H791 0.961 . S
C776 C777 1.370 . S
C776 C778 1.363 . S
C776 H792 0.931 . S
C777 C776 1.370 . S
C777 C781 1.408 . S
C778 C776 1.363 . S
C778 C779 1.370 . S
C778 C782 1.524 . S
C779 C771 1.503 . S
C779 C778 1.370 . S
C779 C780 1.403 . S
C780 C779 1.403 . S
C780 C781 1.404 . S
C780 C783 1.539 . S
C781 C777 1.408 . S
C781 C780 1.404 . S
C781 H793 0.930 . S
C782 C778 1.524 . S
C782 H794 0.956 . S
C782 H795 0.961 . S
C782 H796 0.961 1_545 S
C783 C780 1.539 . S
C783 H797 0.958 . S
C783 H798 0.961 . S
C783 H799 0.960 . S
H784 C768 0.931 . S
H785 C773 0.929 . S
H786 C774 0.960 . S
H787 C774 0.962 . S
H788 C774 0.960 . S
H789 C775 0.961 . S
H790 C775 0.961 . S
H791 C775 0.961 . S
H792 C776 0.931 . S
H793 C781 0.930 . S
H794 C782 0.956 . S
H795 C782 0.961 . S
H796 C782 0.961 1_565 S
H797 C783 0.958 . S
H798 C783 0.961 . S
H799 C783 0.960 . S
C800 C801 1.391 . S
C800 C802 1.394 . S
C800 H816 0.931 . S
C801 C800 1.391 . S
C801 C805 1.376 . S
C802 C800 1.394 . S
C802 C803 1.369 . S
C802 C806 1.531 . S
C803 C802 1.369 . S
C803 C804 1.410 . S
C803 C811 1.503 . S
C804 C803 1.410 . S
C804 C805 1.392 . S
C804 C807 1.511 . S
C805 C801 1.376 . S
C805 C804 1.392 . S
C805 H817 0.929 . S
C806 C802 1.531 . S
C806 H818 0.960 . S
C806 H819 0.962 . S
C806 H820 0.960 . S
C807 C804 1.511 . S
C807 H821 0.961 . S
C807 H822 0.961 . S
C807 H823 0.961 . S
C808 C809 1.370 . S
C808 C810 1.363 . S
C808 H824 0.931 . S
C809 C808 1.370 . S
C809 C813 1.408 . S
C810 C808 1.363 . S
C810 C811 1.370 . S
C810 C814 1.524 . S
C811 C803 1.503 . S
C811 C810 1.370 . S
C811 C812 1.403 . S
C812 C811 1.403 . S
C812 C813 1.404 . S
C812 C815 1.539 . S
C813 C809 1.408 . S
C813 C812 1.404 . S
C813 H825 0.930 . S
C814 C810 1.524 . S
C814 H826 0.956 . S
C814 H827 0.961 . S
C814 H828 0.961 . S
C815 C812 1.539 . S
C815 H829 0.958 . S
C815 H830 0.961 . S
C815 H831 0.960 . S
H816 C800 0.931 . S
H817 C805 0.929 . S
H818 C806 0.960 . S
H819 C806 0.962 . S
H820 C806 0.960 . S
H821 C807 0.961 . S
H822 C807 0.961 . S
H823 C807 0.961 . S
H824 C808 0.931 . S
H825 C813 0.930 . S
H826 C814 0.956 . S
H827 C814 0.961 . S
H828 C814 0.961 . S
H829 C815 0.958 . S
H830 C815 0.961 . S
H831 C815 0.960 . S
C832 C833 1.391 . S
C832 C834 1.394 . S
C832 H848 0.931 . S
C833 C832 1.391 . S
C833 C837 1.376 . S
C834 C832 1.394 . S
C834 C835 1.369 . S
C834 C838 1.531 . S
C835 C834 1.369 . S
C835 C836 1.410 . S
C835 C843 1.503 . S
C836 C835 1.410 . S
C836 C837 1.392 . S
C836 C839 1.511 . S
C837 C833 1.376 . S
C837 C836 1.392 . S
C837 H849 0.929 . S
C838 C834 1.531 . S
C838 H850 0.960 . S
C838 H851 0.962 . S
C838 H852 0.960 . S
C839 C836 1.511 . S
C839 H853 0.961 . S
C839 H854 0.961 . S
C839 H855 0.961 . S
C840 C841 1.370 . S
C840 C842 1.363 . S
C840 H856 0.931 . S
C841 C840 1.370 . S
C841 C845 1.408 . S
C842 C840 1.363 . S
C842 C843 1.370 . S
C842 C846 1.524 . S
C843 C835 1.503 . S
C843 C842 1.370 . S
C843 C844 1.403 . S
C844 C843 1.403 . S
C844 C845 1.404 . S
C844 C847 1.539 . S
C845 C841 1.408 . S
C845 C844 1.404 . S
C845 H857 0.930 . S
C846 C842 1.524 . S
C846 H858 0.956 . S
C846 H859 0.961 . S
C846 H860 0.961 . S
C847 C844 1.539 . S
C847 H861 0.958 . S
C847 H862 0.961 . S
C847 H863 0.960 . S
H848 C832 0.931 . S
H849 C837 0.929 . S
H850 C838 0.960 . S
H851 C838 0.962 . S
H852 C838 0.960 . S
H853 C839 0.961 . S
H854 C839 0.961 . S
H855 C839 0.961 . S
H856 C840 0.931 . S
H857 C845 0.930 . S
H858 C846 0.956 . S
H859 C846 0.961 . S
H860 C846 0.961 . S
H861 C847 0.958 . S
H862 C847 0.961 . S
H863 C847 0.960 . S
C864 C865 1.391 . S
C864 C866 1.394 . S
C864 H880 0.931 . S
C865 C864 1.391 . S
C865 C869 1.376 1_565 S
C866 C864 1.394 . S
C866 C867 1.369 . S
C866 C870 1.531 . S
C867 C866 1.369 . S
C867 C868 1.410 1_565 S
C867 C875 1.503 . S
C868 C867 1.410 1_545 S
C868 C869 1.392 . S
C868 C871 1.511 . S
C869 C865 1.376 1_545 S
C869 C868 1.392 . S
C869 H881 0.929 . S
C870 C866 1.531 . S
C870 H882 0.960 . S
C870 H883 0.962 . S
C870 H884 0.960 . S
C871 C868 1.511 . S
C871 H885 0.961 . S
C871 H886 0.961 . S
C871 H887 0.961 . S
C872 C873 1.370 . S
C872 C874 1.363 . S
C872 H888 0.931 . S
C873 C872 1.370 . S
C873 C877 1.408 . S
C874 C872 1.363 . S
C874 C875 1.370 . S
C874 C878 1.524 . S
C875 C867 1.503 . S
C875 C874 1.370 . S
C875 C876 1.403 . S
C876 C875 1.403 . S
C876 C877 1.404 . S
C876 C879 1.539 . S
C877 C873 1.408 . S
C877 C876 1.404 . S
C877 H889 0.930 . S
C878 C874 1.524 . S
C878 H890 0.956 . S
C878 H891 0.961 . S
C878 H892 0.961 . S
C879 C876 1.539 . S
C879 H893 0.958 . S
C879 H894 0.961 . S
C879 H895 0.960 1_565 S
H880 C864 0.931 . S
H881 C869 0.929 . S
H882 C870 0.960 . S
H883 C870 0.962 . S
H884 C870 0.960 . S
H885 C871 0.961 . S
H886 C871 0.961 . S
H887 C871 0.961 . S
H888 C872 0.931 . S
H889 C877 0.930 . S
H890 C878 0.956 . S
H891 C878 0.961 . S
H892 C878 0.961 . S
H893 C879 0.958 . S
H894 C879 0.961 . S
H895 C879 0.960 1_545 S
C896 C897 1.391 . S
C896 C898 1.394 . S
C896 H912 0.931 . S
C897 C896 1.391 . S
C897 C901 1.376 . S
C898 C896 1.394 . S
C898 C899 1.399 . S
C898 C902 1.531 . S
C899 C898 1.399 . S
C899 C900 1.426 . S
C899 C907 1.459 1_554 S
C900 C899 1.426 . S
C900 C901 1.392 . S
C900 C903 1.511 1_554 S
C901 C897 1.376 . S
C901 C900 1.392 . S
C901 H913 0.929 . S
C902 C898 1.531 . S
C902 H914 0.960 1_554 S
C902 H915 0.962 . S
C902 H916 0.960 . S
C903 C900 1.511 1_556 S
C903 H917 0.961 1_556 S
C903 H918 0.961 . S
C903 H919 0.961 . S
C904 C905 1.370 . S
C904 C906 1.363 . S
C904 H920 0.931 . S
C905 C904 1.370 . S
C905 C909 1.408 . S
C906 C904 1.363 . S
C906 C907 1.370 . S
C906 C910 1.524 . S
C907 C899 1.459 1_556 S
C907 C906 1.370 . S
C907 C908 1.403 . S
C908 C907 1.403 . S
C908 C909 1.404 . S
C908 C911 1.539 . S
C909 C905 1.408 . S
C909 C908 1.404 . S
C909 H921 0.930 . S
C910 C906 1.524 . S
C910 H922 0.956 1_556 S
C910 H923 0.941 1_556 S
C910 H924 0.961 . S
C911 C908 1.539 . S
C911 H925 0.958 . S
C911 H926 0.961 . S
C911 H927 0.960 . S
H912 C896 0.931 . S
H913 C901 0.929 . S
H914 C902 0.960 1_556 S
H915 C902 0.962 . S
H916 C902 0.960 . S
H917 C903 0.961 1_554 S
H918 C903 0.961 . S
H919 C903 0.961 . S
H920 C904 0.931 . S
H921 C909 0.930 . S
H922 C910 0.956 1_554 S
H923 C910 0.941 1_554 S
H924 C910 0.961 . S
H925 C911 0.958 . S
H926 C911 0.961 . S
H927 C911 0.960 . S
C928 C929 1.391 . S
C928 C930 1.394 . S
C928 H944 0.931 . S
C929 C928 1.391 . S
C929 C933 1.376 . S
C930 C928 1.394 . S
C930 C931 1.369 . S
C930 C934 1.531 . S
C931 C930 1.369 . S
C931 C932 1.410 . S
C931 C939 1.503 . S
C932 C931 1.410 . S
C932 C933 1.392 . S
C932 C935 1.511 . S
C933 C929 1.376 . S
C933 C932 1.392 . S
C933 H945 0.929 . S
C934 C930 1.531 . S
C934 H946 0.960 . S
C934 H947 0.962 . S
C934 H948 0.960 . S
C935 C932 1.511 . S
C935 H949 0.961 . S
C935 H950 0.961 . S
C935 H951 0.961 . S
C936 C937 1.370 1_565 S
C936 C938 1.363 . S
C936 H952 0.931 . S
C937 C936 1.370 1_545 S
C937 C941 1.408 . S
C938 C936 1.363 . S
C938 C939 1.370 1_565 S
C938 C942 1.524 . S
C939 C931 1.503 . S
C939 C938 1.370 1_545 S
C939 C940 1.403 . S
C940 C939 1.403 . S
C940 C941 1.404 . S
C940 C943 1.539 . S
C941 C937 1.408 . S
C941 C940 1.404 . S
C941 H953 0.930 . S
C942 C938 1.524 . S
C942 H954 0.956 . S
C942 H955 0.961 . S
C942 H956 0.961 . S
C943 C940 1.539 . S
C943 H957 0.958 . S
C943 H958 0.961 . S
C943 H959 0.960 . S
H944 C928 0.931 . S
H945 C933 0.929 . S
H946 C934 0.960 . S
H947 C934 0.962 . S
H948 C934 0.960 . S
H949 C935 0.961 . S
H950 C935 0.961 . S
H951 C935 0.961 . S
H952 C936 0.931 . S
H953 C941 0.930 . S
H954 C942 0.956 . S
H955 C942 0.961 . S
H956 C942 0.961 . S
H957 C943 0.958 . S
H958 C943 0.961 . S
H959 C943 0.960 . S
C960 C961 1.391 . S
C960 C962 1.394 . S
C960 H976 0.931 . S
C961 C960 1.391 . S
C961 C965 1.376 . S
C962 C960 1.394 . S
C962 C963 1.369 . S
C962 C966 1.531 . S
C963 C962 1.369 . S
C963 C964 1.410 . S
C963 C971 1.503 . S
C964 C963 1.410 . S
C964 C965 1.392 . S
C964 C967 1.511 . S
C965 C961 1.376 . S
C965 C964 1.392 . S
C965 H977 0.929 . S
C966 C962 1.531 . S
C966 H978 0.960 . S
C966 H979 0.962 . S
C966 H980 0.960 . S
C967 C964 1.511 . S
C967 H981 0.961 . S
C967 H982 0.961 . S
C967 H983 0.961 . S
C968 C969 1.370 . S
C968 C970 1.363 . S
C968 H984 0.931 . S
C969 C968 1.370 . S
C969 C973 1.408 . S
C970 C968 1.363 . S
C970 C971 1.370 . S
C970 C974 1.524 . S
C971 C963 1.503 . S
C971 C970 1.370 . S
C971 C972 1.403 . S
C972 C971 1.403 . S
C972 C973 1.404 . S
C972 C975 1.539 . S
C973 C969 1.408 . S
C973 C972 1.404 . S
C973 H985 0.930 . S
C974 C970 1.524 . S
C974 H986 0.956 . S
C974 H987 0.961 . S
C974 H988 0.961 . S
C975 C972 1.539 . S
C975 H989 0.958 . S
C975 H990 0.961 . S
C975 H991 0.960 . S
H976 C960 0.931 . S
H977 C965 0.929 . S
H978 C966 0.960 . S
H979 C966 0.962 . S
H980 C966 0.960 . S
H981 C967 0.961 . S
H982 C967 0.961 . S
H983 C967 0.961 . S
H984 C968 0.931 . S
H985 C973 0.930 . S
H986 C974 0.956 . S
H987 C974 0.961 . S
H988 C974 0.961 . S
H989 C975 0.958 . S
H990 C975 0.961 . S
H991 C975 0.960 . S
C992 C993 1.391 . S
C992 C994 1.394 . S
C992 H1008 0.931 1_545 S
C993 C992 1.391 . S
C993 C997 1.376 . S
C994 C992 1.394 . S
C994 C995 1.369 . S
C994 C998 1.531 . S
C995 C994 1.369 . S
C995 C996 1.410 . S
C995 C1003 1.503 . S
C996 C995 1.410 . S
C996 C997 1.392 . S
C996 C999 1.511 . S
C997 C993 1.376 . S
C997 C996 1.392 . S
C997 H1009 0.929 . S
C998 C994 1.531 . S
C998 H1010 0.960 . S
C998 H1011 0.962 . S
C998 H1012 0.960 1_545 S
C999 C996 1.511 . S
C999 H1013 0.961 . S
C999 H1014 0.961 . S
C999 H1015 0.961 . S
C1000 C1001 1.370 . S
C1000 C1002 1.363 . S
C1000 H1016 0.931 . S
C1001 C1000 1.370 . S
C1001 C1005 1.408 . S
C1002 C1000 1.363 . S
C1002 C1003 1.370 . S
C1002 C1006 1.524 . S
C1003 C995 1.503 . S
C1003 C1002 1.370 . S
C1003 C1004 1.403 . S
C1004 C1003 1.403 . S
C1004 C1005 1.404 . S
C1004 C1007 1.539 1_545 S
C1005 C1001 1.408 . S
C1005 C1004 1.404 . S
C1005 H1017 0.930 . S
C1006 C1002 1.524 . S
C1006 H1018 0.956 . S
C1006 H1019 0.961 . S
C1006 H1020 0.961 . S
C1007 C1004 1.539 1_565 S
C1007 H1021 0.958 . S
C1007 H1022 0.961 . S
C1007 H1023 0.960 . S
H1008 C992 0.931 1_565 S
H1009 C997 0.929 . S
H1010 C998 0.960 . S
H1011 C998 0.962 . S
H1012 C998 0.960 1_565 S
H1013 C999 0.961 . S
H1014 C999 0.961 . S
H1015 C999 0.961 . S
H1016 C1000 0.931 . S
H1017 C1005 0.930 . S
H1018 C1006 0.956 . S
H1019 C1006 0.961 . S
H1020 C1006 0.961 . S
H1021 C1007 0.958 . S
H1022 C1007 0.961 . S
H1023 C1007 0.960 . S
C1024 C1025 1.391 . S
C1024 C1026 1.394 . S
C1024 H1040 0.931 . S
C1025 C1024 1.391 . S
C1025 C1029 1.376 . S
C1026 C1024 1.394 . S
C1026 C1027 1.369 . S
C1026 C1030 1.531 . S
C1027 C1026 1.369 . S
C1027 C1028 1.410 . S
C1027 C1035 1.503 1_554 S
C1028 C1027 1.410 . S
C1028 C1029 1.392 . S
C1028 C1031 1.511 . S
C1029 C1025 1.376 . S
C1029 C1028 1.392 . S
C1029 H1041 0.929 . S
C1030 C1026 1.531 . S
C1030 H1042 0.960 . S
C1030 H1043 0.962 . S
C1030 H1044 0.960 . S
C1031 C1028 1.511 . S
C1031 H1045 0.961 . S
C1031 H1046 0.961 1_554 S
C1031 H1047 0.961 . S
C1032 C1033 1.370 . S
C1032 C1034 1.363 . S
C1032 H1048 0.931 . S
C1033 C1032 1.370 . S
C1033 C1037 1.408 . S
C1034 C1032 1.363 . S
C1034 C1035 1.370 . S
C1034 C1038 1.524 1_556 S
C1035 C1027 1.503 1_556 S
C1035 C1034 1.370 . S
C1035 C1036 1.403 . S
C1036 C1035 1.403 . S
C1036 C1037 1.404 . S
C1036 C1039 1.539 . S
C1037 C1033 1.408 . S
C1037 C1036 1.404 . S
C1037 H1049 0.930 . S
C1038 C1034 1.524 1_554 S
C1038 H1050 0.956 . S
C1038 H1051 0.961 . S
C1038 H1052 0.962 1_554 S
C1039 C1036 1.539 . S
C1039 H1053 0.958 . S
C1039 H1054 0.961 . S
C1039 H1055 0.997 . S
H1040 C1024 0.931 . S
H1041 C1029 0.929 . S
H1042 C1030 0.960 . S
H1043 C1030 0.962 . S
H1044 C1030 0.960 . S
H1045 C1031 0.961 . S
H1046 C1031 0.961 1_556 S
H1047 C1031 0.961 . S
H1048 C1032 0.931 . S
H1049 C1037 0.930 . S
H1050 C1038 0.956 . S
H1051 C1038 0.961 . S
H1052 C1038 0.962 1_556 S
H1053 C1039 0.958 . S
H1054 C1039 0.961 . S
H1055 C1039 0.997 . S
C1056 C1057 1.391 . S
C1056 C1058 1.394 . S
C1056 H1072 0.931 . S
C1057 C1056 1.391 . S
C1057 C1061 1.376 . S
C1058 C1056 1.394 . S
C1058 C1059 1.369 . S
C1058 C1062 1.531 . S
C1059 C1058 1.369 . S
C1059 C1060 1.410 . S
C1059 C1067 1.503 . S
C1060 C1059 1.410 . S
C1060 C1061 1.392 . S
C1060 C1063 1.511 . S
C1061 C1057 1.376 . S
C1061 C1060 1.392 . S
C1061 H1073 0.929 1_565 S
C1062 C1058 1.531 . S
C1062 H1074 0.960 . S
C1062 H1075 0.962 . S
C1062 H1076 0.960 . S
C1063 C1060 1.511 . S
C1063 H1077 0.961 1_565 S
C1063 H1078 0.961 . S
C1063 H1079 0.961 . S
C1064 C1065 1.370 . S
C1064 C1066 1.363 . S
C1064 H1080 0.931 . S
C1065 C1064 1.370 . S
C1065 C1069 1.408 . S
C1066 C1064 1.363 . S
C1066 C1067 1.370 . S
C1066 C1070 1.524 1_565 S
C1067 C1059 1.503 . S
C1067 C1066 1.370 . S
C1067 C1068 1.403 . S
C1068 C1067 1.403 . S
C1068 C1069 1.404 . S
C1068 C1071 1.539 . S
C1069 C1065 1.408 . S
C1069 C1068 1.404 . S
C1069 H1081 0.930 . S
C1070 C1066 1.524 1_545 S
C1070 H1082 0.956 . S
C1070 H1083 0.961 . S
C1070 H1084 0.961 . S
C1071 C1068 1.539 . S
C1071 H1085 0.958 . S
C1071 H1086 0.961 . S
C1071 H1087 0.960 . S
H1072 C1056 0.931 . S
H1073 C1061 0.929 1_545 S
H1074 C1062 0.960 . S
H1075 C1062 0.962 . S
H1076 C1062 0.960 . S
H1077 C1063 0.961 1_545 S
H1078 C1063 0.961 . S
H1079 C1063 0.961 . S
H1080 C1064 0.931 . S
H1081 C1069 0.930 . S
H1082 C1070 0.956 . S
H1083 C1070 0.961 . S
H1084 C1070 0.961 . S
H1085 C1071 0.958 . S
H1086 C1071 0.961 . S
H1087 C1071 0.960 . S
C1088 C1089 1.391 . S
C1088 C1090 1.394 . S
C1088 H1104 0.931 . S
C1089 C1088 1.391 . S
C1089 C1093 1.376 . S
C1090 C1088 1.394 . S
C1090 C1091 1.369 . S
C1090 C1094 1.531 . S
C1091 C1090 1.369 . S
C1091 C1092 1.410 . S
C1091 C1099 1.503 . S
C1092 C1091 1.410 . S
C1092 C1093 1.392 . S
C1092 C1095 1.511 . S
C1093 C1089 1.376 . S
C1093 C1092 1.392 . S
C1093 H1105 0.929 . S
C1094 C1090 1.531 . S
C1094 H1106 0.960 . S
C1094 H1107 0.962 . S
C1094 H1108 0.960 . S
C1095 C1092 1.511 . S
C1095 H1109 0.961 . S
C1095 H1110 0.961 . S
C1095 H1111 0.961 . S
C1096 C1097 1.370 . S
C1096 C1098 1.363 . S
C1096 H1112 0.931 . S
C1097 C1096 1.370 . S
C1097 C1101 1.408 . S
C1098 C1096 1.363 . S
C1098 C1099 1.370 . S
C1098 C1102 1.524 . S
C1099 C1091 1.503 . S
C1099 C1098 1.370 . S
C1099 C1100 1.403 . S
C1100 C1099 1.403 . S
C1100 C1101 1.404 . S
C1100 C1103 1.539 . S
C1101 C1097 1.408 . S
C1101 C1100 1.404 . S
C1101 H1113 0.930 . S
C1102 C1098 1.524 . S
C1102 H1114 0.956 . S
C1102 H1115 0.961 . S
C1102 H1116 0.961 . S
C1103 C1100 1.539 . S
C1103 H1117 0.958 . S
C1103 H1118 0.961 . S
C1103 H1119 0.960 . S
H1104 C1088 0.931 . S
H1105 C1093 0.929 . S
H1106 C1094 0.960 . S
H1107 C1094 0.962 . S
H1108 C1094 0.960 . S
H1109 C1095 0.961 . S
H1110 C1095 0.961 . S
H1111 C1095 0.961 . S
H1112 C1096 0.931 . S
H1113 C1101 0.930 . S
H1114 C1102 0.956 . S
H1115 C1102 0.961 . S
H1116 C1102 0.961 . S
H1117 C1103 0.958 . S
H1118 C1103 0.961 . S
H1119 C1103 0.960 . S
C1120 C1121 1.391 . S
C1120 C1122 1.394 . S
C1120 H1136 0.931 . S
C1121 C1120 1.391 . S
C1121 C1125 1.376 . S
C1122 C1120 1.394 . S
C1122 C1123 1.369 . S
C1122 C1126 1.531 . S
C1123 C1122 1.369 . S
C1123 C1124 1.410 . S
C1123 C1131 1.503 . S
C1124 C1123 1.410 . S
C1124 C1125 1.392 . S
C1124 C1127 1.511 . S
C1125 C1121 1.376 . S
C1125 C1124 1.392 . S
C1125 H1137 0.929 . S
C1126 C1122 1.531 . S
C1126 H1138 0.960 . S
C1126 H1139 0.962 . S
C1126 H1140 0.960 . S
C1127 C1124 1.511 . S
C1127 H1141 0.961 . S
C1127 H1142 0.961 . S
C1127 H1143 0.961 . S
C1128 C1129 1.370 . S
C1128 C1130 1.363 . S
C1128 H1144 0.931 . S
C1129 C1128 1.370 . S
C1129 C1133 1.408 . S
C1130 C1128 1.363 . S
C1130 C1131 1.370 . S
C1130 C1134 1.524 . S
C1131 C1123 1.503 . S
C1131 C1130 1.370 . S
C1131 C1132 1.403 . S
C1132 C1131 1.403 . S
C1132 C1133 1.404 . S
C1132 C1135 1.539 . S
C1133 C1129 1.408 . S
C1133 C1132 1.404 . S
C1133 H1145 0.930 . S
C1134 C1130 1.524 . S
C1134 H1146 0.956 . S
C1134 H1147 0.961 . S
C1134 H1148 0.961 . S
C1135 C1132 1.539 . S
C1135 H1149 0.958 . S
C1135 H1150 0.961 . S
C1135 H1151 0.960 . S
H1136 C1120 0.931 . S
H1137 C1125 0.929 . S
H1138 C1126 0.960 . S
H1139 C1126 0.962 . S
H1140 C1126 0.960 . S
H1141 C1127 0.961 . S
H1142 C1127 0.961 . S
H1143 C1127 0.961 . S
H1144 C1128 0.931 . S
H1145 C1133 0.930 . S
H1146 C1134 0.956 . S
H1147 C1134 0.961 . S
H1148 C1134 0.961 . S
H1149 C1135 0.958 . S
H1150 C1135 0.961 . S
H1151 C1135 0.960 . S
C1152 C1153 1.391 . S
C1152 C1154 1.394 . S
C1152 H1168 0.931 . S
C1153 C1152 1.391 . S
C1153 C1157 1.376 . S
C1154 C1152 1.394 . S
C1154 C1155 1.369 . S
C1154 C1158 1.531 1_655 S
C1155 C1154 1.369 . S
C1155 C1156 1.410 . S
C1155 C1163 1.503 1_655 S
C1156 C1155 1.410 . S
C1156 C1157 1.392 . S
C1156 C1159 1.511 . S
C1157 C1153 1.376 . S
C1157 C1156 1.392 . S
C1157 H1169 0.929 . S
C1158 C1154 1.531 1_455 S
C1158 H1170 0.960 . S
C1158 H1171 0.962 . S
C1158 H1172 0.960 1_455 S
C1159 C1156 1.511 . S
C1159 H1173 0.961 . S
C1159 H1174 0.961 . S
C1159 H1175 0.961 . S
C1160 C1161 1.370 . S
C1160 C1162 1.363 . S
C1160 H1176 0.931 . S
C1161 C1160 1.370 . S
C1161 C1165 1.408 . S
C1162 C1160 1.363 . S
C1162 C1163 1.370 . S
C1162 C1166 1.524 . S
C1163 C1155 1.503 1_455 S
C1163 C1162 1.370 . S
C1163 C1164 1.403 . S
C1164 C1163 1.403 . S
C1164 C1165 1.404 . S
C1164 C1167 1.539 . S
C1165 C1161 1.408 . S
C1165 C1164 1.404 . S
C1165 H1177 0.930 . S
C1166 C1162 1.524 . S
C1166 H1178 0.956 . S
C1166 H1179 0.961 . S
C1166 H1180 0.961 . S
C1167 C1164 1.539 . S
C1167 H1181 0.958 . S
C1167 H1182 0.961 . S
C1167 H1183 0.960 1_455 S
H1168 C1152 0.931 . S
H1169 C1157 0.929 . S
H1170 C1158 0.960 . S
H1171 C1158 0.962 . S
H1172 C1158 0.960 1_655 S
H1173 C1159 0.961 . S
H1174 C1159 0.961 . S
H1175 C1159 0.961 . S
H1176 C1160 0.931 . S
H1177 C1165 0.930 . S
H1178 C1166 0.956 . S
H1179 C1166 0.961 . S
H1180 C1166 0.961 . S
H1181 C1167 0.958 . S
H1182 C1167 0.961 . S
H1183 C1167 0.960 1_655 S
C1184 C1185 1.391 . S
C1184 C1186 1.394 . S
C1184 H1200 0.931 . S
C1185 C1184 1.391 . S
C1185 C1189 1.363 1_655 S
C1186 C1184 1.394 . S
C1186 C1187 1.369 . S
C1186 C1190 1.531 . S
C1187 C1186 1.369 . S
C1187 C1188 1.410 1_655 S
C1187 C1195 1.503 1_655 S
C1188 C1187 1.410 1_455 S
C1188 C1189 1.398 . S
C1188 C1191 1.511 . S
C1189 C1185 1.363 1_455 S
C1189 C1188 1.398 . S
C1189 H1201 0.937 . S
C1190 C1186 1.531 . S
C1190 H1202 0.960 . S
C1190 H1203 0.962 . S
C1190 H1204 0.960 . S
C1191 C1188 1.511 . S
C1191 H1205 0.961 . S
C1191 H1206 0.961 . S
C1191 H1207 0.961 . S
C1192 C1193 1.370 . S
C1192 C1194 1.363 . S
C1192 H1208 0.931 . S
C1193 C1192 1.370 . S
C1193 C1197 1.408 . S
C1194 C1192 1.363 . S
C1194 C1195 1.370 . S
C1194 C1198 1.524 . S
C1195 C1187 1.503 1_455 S
C1195 C1194 1.370 . S
C1195 C1196 1.403 . S
C1196 C1195 1.403 . S
C1196 C1197 1.404 . S
C1196 C1199 1.539 . S
C1197 C1193 1.408 . S
C1197 C1196 1.404 . S
C1197 H1209 0.930 . S
C1198 C1194 1.524 . S
C1198 H1210 0.956 1_455 S
C1198 H1211 0.961 . S
C1198 H1212 0.961 . S
C1199 C1196 1.539 . S
C1199 H1213 0.958 1_455 S
C1199 H1214 0.961 . S
C1199 H1215 0.960 . S
H1200 C1184 0.931 . S
H1201 C1189 0.937 . S
H1202 C1190 0.960 . S
H1203 C1190 0.962 . S
H1204 C1190 0.960 . S
H1205 C1191 0.961 . S
H1206 C1191 0.961 . S
H1207 C1191 0.961 . S
H1208 C1192 0.931 . S
H1209 C1197 0.930 . S
H1210 C1198 0.956 1_655 S
H1211 C1198 0.961 . S
H1212 C1198 0.961 . S
H1213 C1199 0.958 1_655 S
H1214 C1199 0.961 . S
H1215 C1199 0.960 . S
C1216 C1217 1.391 . S
C1216 C1218 1.394 . S
C1216 H1232 0.931 . S
C1217 C1216 1.391 . S
C1217 C1221 1.376 . S
C1218 C1216 1.394 . S
C1218 C1219 1.369 . S
C1218 C1222 1.531 . S
C1219 C1218 1.369 . S
C1219 C1220 1.410 . S
C1219 C1227 1.503 . S
C1220 C1219 1.410 . S
C1220 C1221 1.392 . S
C1220 C1223 1.511 . S
C1221 C1217 1.376 . S
C1221 C1220 1.392 . S
C1221 H1233 0.929 . S
C1222 C1218 1.531 . S
C1222 H1234 0.960 . S
C1222 H1235 0.962 . S
C1222 H1236 0.960 . S
C1223 C1220 1.511 . S
C1223 H1237 0.961 . S
C1223 H1238 0.961 . S
C1223 H1239 0.961 . S
C1224 C1225 1.370 . S
C1224 C1226 1.363 . S
C1224 H1240 0.931 . S
C1225 C1224 1.370 . S
C1225 C1229 1.408 . S
C1226 C1224 1.363 . S
C1226 C1227 1.370 . S
C1226 C1230 1.524 . S
C1227 C1219 1.503 . S
C1227 C1226 1.370 . S
C1227 C1228 1.403 . S
C1228 C1227 1.403 . S
C1228 C1229 1.404 . S
C1228 C1231 1.539 . S
C1229 C1225 1.408 . S
C1229 C1228 1.404 . S
C1229 H1241 0.930 . S
C1230 C1226 1.524 . S
C1230 H1242 0.956 . S
C1230 H1243 0.961 . S
C1230 H1244 0.961 . S
C1231 C1228 1.539 . S
C1231 H1245 0.958 . S
C1231 H1246 0.961 . S
C1231 H1247 0.960 . S
H1232 C1216 0.931 . S
H1233 C1221 0.929 . S
H1234 C1222 0.960 . S
H1235 C1222 0.962 . S
H1236 C1222 0.960 . S
H1237 C1223 0.961 . S
H1238 C1223 0.961 . S
H1239 C1223 0.961 . S
H1240 C1224 0.931 . S
H1241 C1229 0.930 . S
H1242 C1230 0.956 . S
H1243 C1230 0.961 . S
H1244 C1230 0.961 . S
H1245 C1231 0.958 . S
H1246 C1231 0.961 . S
H1247 C1231 0.960 . S
C1248 C1249 1.391 . S
C1248 C1250 1.394 . S
C1248 H1264 0.931 . S
C1249 C1248 1.391 . S
C1249 C1253 1.376 . S
C1250 C1248 1.394 . S
C1250 C1251 1.369 . S
C1250 C1254 1.531 . S
C1251 C1250 1.369 . S
C1251 C1252 1.410 . S
C1251 C1259 1.503 . S
C1252 C1251 1.410 . S
C1252 C1253 1.392 . S
C1252 C1255 1.511 . S
C1253 C1249 1.376 . S
C1253 C1252 1.392 . S
C1253 H1265 0.929 . S
C1254 C1250 1.531 . S
C1254 H1266 0.960 . S
C1254 H1267 0.962 . S
C1254 H1268 0.960 . S
C1255 C1252 1.511 . S
C1255 H1269 0.961 . S
C1255 H1270 0.961 . S
C1255 H1271 0.961 . S
C1256 C1257 1.370 . S
C1256 C1258 1.363 . S
C1256 H1272 0.931 . S
C1257 C1256 1.370 . S
C1257 C1261 1.408 . S
C1258 C1256 1.363 . S
C1258 C1259 1.370 . S
C1258 C1262 1.524 . S
C1259 C1251 1.503 . S
C1259 C1258 1.370 . S
C1259 C1260 1.403 . S
C1260 C1259 1.403 . S
C1260 C1261 1.404 . S
C1260 C1263 1.539 . S
C1261 C1257 1.408 . S
C1261 C1260 1.404 . S
C1261 H1273 0.930 . S
C1262 C1258 1.524 . S
C1262 H1274 0.956 . S
C1262 H1275 0.961 . S
C1262 H1276 0.961 . S
C1263 C1260 1.539 . S
C1263 H1277 0.958 . S
C1263 H1278 0.961 . S
C1263 H1279 0.960 . S
H1264 C1248 0.931 . S
H1265 C1253 0.929 . S
H1266 C1254 0.960 . S
H1267 C1254 0.962 . S
H1268 C1254 0.960 . S
H1269 C1255 0.961 . S
H1270 C1255 0.961 . S
H1271 C1255 0.961 . S
H1272 C1256 0.931 . S
H1273 C1261 0.930 . S
H1274 C1262 0.956 . S
H1275 C1262 0.961 . S
H1276 C1262 0.961 . S
H1277 C1263 0.958 . S
H1278 C1263 0.961 . S
H1279 C1263 0.960 . S
C1280 C1281 1.391 . S
C1280 C1282 1.394 . S
C1280 H1296 0.931 . S
C1281 C1280 1.391 . S
C1281 C1285 1.376 . S
C1282 C1280 1.394 . S
C1282 C1283 1.369 . S
C1282 C1286 1.531 . S
C1283 C1282 1.369 . S
C1283 C1284 1.410 . S
C1283 C1291 1.503 1_455 S
C1284 C1283 1.410 . S
C1284 C1285 1.392 . S
C1284 C1287 1.511 1_455 S
C1285 C1281 1.376 . S
C1285 C1284 1.392 . S
C1285 H1297 0.929 . S
C1286 C1282 1.531 . S
C1286 H1298 0.960 . S
C1286 H1299 0.962 . S
C1286 H1300 0.960 . S
C1287 C1284 1.511 1_655 S
C1287 H1301 0.961 . S
C1287 H1302 0.961 . S
C1287 H1303 0.961 . S
C1288 C1289 1.370 . S
C1288 C1290 1.363 . S
C1288 H1304 0.931 . S
C1289 C1288 1.370 . S
C1289 C1293 1.408 . S
C1290 C1288 1.363 . S
C1290 C1291 1.370 . S
C1290 C1294 1.524 . S
C1291 C1283 1.503 1_655 S
C1291 C1290 1.370 . S
C1291 C1292 1.403 . S
C1292 C1291 1.403 . S
C1292 C1293 1.404 . S
C1292 C1295 1.539 . S
C1293 C1289 1.408 . S
C1293 C1292 1.404 . S
C1293 H1305 0.930 . S
C1294 C1290 1.524 . S
C1294 H1306 0.956 1_655 S
C1294 H1307 0.961 . S
C1294 H1308 0.961 . S
C1295 C1292 1.539 . S
C1295 H1309 0.958 . S
C1295 H1310 0.961 . S
C1295 H1311 0.960 . S
H1296 C1280 0.931 . S
H1297 C1285 0.929 . S
H1298 C1286 0.960 . S
H1299 C1286 0.962 . S
H1300 C1286 0.960 . S
H1301 C1287 0.961 . S
H1302 C1287 0.961 . S
H1303 C1287 0.961 . S
H1304 C1288 0.931 . S
H1305 C1293 0.930 . S
H1306 C1294 0.956 1_455 S
H1307 C1294 0.961 . S
H1308 C1294 0.961 . S
H1309 C1295 0.958 . S
H1310 C1295 0.961 . S
H1311 C1295 0.960 . S
C1312 C1313 1.391 . S
C1312 C1314 1.394 1_455 S
C1312 H1328 0.931 1_455 S
C1313 C1312 1.391 . S
C1313 C1317 1.376 . S
C1314 C1312 1.394 1_655 S
C1314 C1315 1.369 1_655 S
C1314 C1318 1.531 . S
C1315 C1314 1.369 1_455 S
C1315 C1316 1.410 . S
C1315 C1323 1.503 1_455 S
C1316 C1315 1.410 . S
C1316 C1317 1.392 . S
C1316 C1319 1.511 . S
C1317 C1313 1.376 . S
C1317 C1316 1.392 . S
C1317 H1329 0.929 . S
C1318 C1314 1.531 . S
C1318 H1330 0.960 . S
C1318 H1331 0.962 . S
C1318 H1332 0.960 . S
C1319 C1316 1.511 . S
C1319 H1333 0.961 . S
C1319 H1334 0.961 . S
C1319 H1335 0.961 . S
C1320 C1321 1.370 . S
C1320 C1322 1.363 . S
C1320 H1336 0.931 . S
C1321 C1320 1.370 . S
C1321 C1325 1.408 . S
C1322 C1320 1.363 . S
C1322 C1323 1.370 . S
C1322 C1326 1.524 . S
C1323 C1315 1.503 1_655 S
C1323 C1322 1.370 . S
C1323 C1324 1.403 . S
C1324 C1323 1.403 . S
C1324 C1325 1.404 . S
C1324 C1327 1.539 1_655 S
C1325 C1321 1.408 . S
C1325 C1324 1.404 . S
C1325 H1337 0.930 . S
C1326 C1322 1.524 . S
C1326 H1338 0.956 . S
C1326 H1339 0.961 . S
C1326 H1340 0.961 . S
C1327 C1324 1.539 1_455 S
C1327 H1341 0.958 . S
C1327 H1342 0.961 . S
C1327 H1343 0.960 . S
H1328 C1312 0.931 1_655 S
H1329 C1317 0.929 . S
H1330 C1318 0.960 . S
H1331 C1318 0.962 . S
H1332 C1318 0.960 . S
H1333 C1319 0.961 . S
H1334 C1319 0.961 . S
H1335 C1319 0.961 . S
H1336 C1320 0.931 . S
H1337 C1325 0.930 . S
H1338 C1326 0.956 . S
H1339 C1326 0.961 . S
H1340 C1326 0.961 . S
H1341 C1327 0.958 . S
H1342 C1327 0.961 . S
H1343 C1327 0.960 . S
C1344 C1345 1.391 . S
C1344 C1346 1.394 . S
C1344 H1360 0.931 . S
C1345 C1344 1.391 . S
C1345 C1349 1.376 . S
C1346 C1344 1.394 . S
C1346 C1347 1.369 . S
C1346 C1350 1.531 . S
C1347 C1346 1.369 . S
C1347 C1348 1.410 . S
C1347 C1355 1.503 . S
C1348 C1347 1.410 . S
C1348 C1349 1.392 . S
C1348 C1351 1.511 . S
C1349 C1345 1.376 . S
C1349 C1348 1.392 . S
C1349 H1361 0.929 . S
C1350 C1346 1.531 . S
C1350 H1362 0.960 . S
C1350 H1363 0.962 . S
C1350 H1364 0.960 . S
C1351 C1348 1.511 . S
C1351 H1365 0.961 . S
C1351 H1366 0.961 . S
C1351 H1367 0.961 . S
C1352 C1353 1.370 . S
C1352 C1354 1.363 . S
C1352 H1368 0.931 . S
C1353 C1352 1.370 . S
C1353 C1357 1.408 . S
C1354 C1352 1.363 . S
C1354 C1355 1.370 . S
C1354 C1358 1.524 . S
C1355 C1347 1.503 . S
C1355 C1354 1.370 . S
C1355 C1356 1.403 . S
C1356 C1355 1.403 . S
C1356 C1357 1.404 . S
C1356 C1359 1.539 . S
C1357 C1353 1.408 . S
C1357 C1356 1.404 . S
C1357 H1369 0.930 . S
C1358 C1354 1.524 . S
C1358 H1370 0.956 . S
C1358 H1371 0.961 . S
C1358 H1372 0.961 . S
C1359 C1356 1.539 . S
C1359 H1373 0.958 . S
C1359 H1374 0.961 . S
C1359 H1375 0.960 . S
H1360 C1344 0.931 . S
H1361 C1349 0.929 . S
H1362 C1350 0.960 . S
H1363 C1350 0.962 . S
H1364 C1350 0.960 . S
H1365 C1351 0.961 . S
H1366 C1351 0.961 . S
H1367 C1351 0.961 . S
H1368 C1352 0.931 . S
H1369 C1357 0.930 . S
H1370 C1358 0.956 . S
H1371 C1358 0.961 . S
H1372 C1358 0.961 . S
H1373 C1359 0.958 . S
H1374 C1359 0.961 . S
H1375 C1359 0.960 . S
C1376 C1377 1.391 . S
C1376 C1378 1.394 . S
C1376 H1392 0.931 . S
C1377 C1376 1.391 . S
C1377 C1381 1.376 . S
C1378 C1376 1.394 . S
C1378 C1379 1.369 . S
C1378 C1382 1.531 . S
C1379 C1378 1.369 . S
C1379 C1380 1.410 . S
C1379 C1387 1.503 . S
C1380 C1379 1.410 . S
C1380 C1381 1.392 . S
C1380 C1383 1.511 . S
C1381 C1377 1.376 . S
C1381 C1380 1.392 . S
C1381 H1393 0.929 . S
C1382 C1378 1.531 . S
C1382 H1394 0.960 . S
C1382 H1395 0.962 . S
C1382 H1396 0.960 . S
C1383 C1380 1.511 . S
C1383 H1397 0.961 . S
C1383 H1398 0.961 . S
C1383 H1399 0.961 . S
C1384 C1385 1.370 . S
C1384 C1386 1.363 . S
C1384 H1400 0.931 . S
C1385 C1384 1.370 . S
C1385 C1389 1.408 . S
C1386 C1384 1.363 . S
C1386 C1387 1.370 . S
C1386 C1390 1.524 . S
C1387 C1379 1.503 . S
C1387 C1386 1.370 . S
C1387 C1388 1.403 . S
C1388 C1387 1.403 . S
C1388 C1389 1.404 . S
C1388 C1391 1.539 . S
C1389 C1385 1.408 . S
C1389 C1388 1.404 . S
C1389 H1401 0.930 . S
C1390 C1386 1.524 . S
C1390 H1402 0.956 . S
C1390 H1403 0.961 . S
C1390 H1404 0.961 . S
C1391 C1388 1.539 . S
C1391 H1405 0.958 . S
C1391 H1406 0.961 . S
C1391 H1407 0.960 . S
H1392 C1376 0.931 . S
H1393 C1381 0.929 . S
H1394 C1382 0.960 . S
H1395 C1382 0.962 . S
H1396 C1382 0.960 . S
H1397 C1383 0.961 . S
H1398 C1383 0.961 . S
H1399 C1383 0.961 . S
H1400 C1384 0.931 . S
H1401 C1389 0.930 . S
H1402 C1390 0.956 . S
H1403 C1390 0.961 . S
H1404 C1390 0.961 . S
H1405 C1391 0.958 . S
H1406 C1391 0.961 . S
H1407 C1391 0.960 . S
C1408 C1409 1.391 . S
C1408 C1410 1.394 . S
C1408 H1424 0.931 . S
C1409 C1408 1.391 . S
C1409 C1413 1.376 . S
C1410 C1408 1.394 . S
C1410 C1411 1.369 . S
C1410 C1414 1.531 . S
C1411 C1410 1.369 . S
C1411 C1412 1.410 . S
C1411 C1419 1.503 . S
C1412 C1411 1.410 . S
C1412 C1413 1.392 . S
C1412 C1415 1.511 . S
C1413 C1409 1.376 . S
C1413 C1412 1.392 . S
C1413 H1425 0.929 . S
C1414 C1410 1.531 . S
C1414 H1426 0.960 . S
C1414 H1427 0.962 . S
C1414 H1428 0.960 . S
C1415 C1412 1.511 . S
C1415 H1429 0.961 . S
C1415 H1430 0.961 . S
C1415 H1431 0.961 . S
C1416 C1417 1.370 . S
C1416 C1418 1.363 . S
C1416 H1432 0.931 . S
C1417 C1416 1.370 . S
C1417 C1421 1.408 . S
C1418 C1416 1.363 . S
C1418 C1419 1.370 . S
C1418 C1422 1.524 . S
C1419 C1411 1.503 . S
C1419 C1418 1.370 . S
C1419 C1420 1.403 . S
C1420 C1419 1.403 . S
C1420 C1421 1.404 . S
C1420 C1423 1.539 . S
C1421 C1417 1.408 . S
C1421 C1420 1.404 . S
C1421 H1433 0.930 . S
C1422 C1418 1.524 . S
C1422 H1434 0.956 . S
C1422 H1435 0.961 . S
C1422 H1436 0.961 . S
C1423 C1420 1.539 . S
C1423 H1437 0.958 . S
C1423 H1438 0.961 . S
C1423 H1439 0.960 . S
H1424 C1408 0.931 . S
H1425 C1413 0.929 . S
H1426 C1414 0.960 . S
H1427 C1414 0.962 . S
H1428 C1414 0.960 . S
H1429 C1415 0.961 . S
H1430 C1415 0.961 . S
H1431 C1415 0.961 . S
H1432 C1416 0.931 . S
H1433 C1421 0.930 . S
H1434 C1422 0.956 . S
H1435 C1422 0.961 . S
H1436 C1422 0.961 . S
H1437 C1423 0.958 . S
H1438 C1423 0.961 . S
H1439 C1423 0.960 . S
C1440 C1441 1.391 . S
C1440 C1442 1.394 1_655 S
C1440 H1456 0.931 . S
C1441 C1440 1.391 . S
C1441 C1445 1.376 1_655 S
C1442 C1440 1.394 1_455 S
C1442 C1443 1.369 . S
C1442 C1446 1.531 . S
C1443 C1442 1.369 . S
C1443 C1444 1.410 . S
C1443 C1451 1.503 . S
C1444 C1443 1.410 . S
C1444 C1445 1.392 . S
C1444 C1447 1.511 . S
C1445 C1441 1.376 1_455 S
C1445 C1444 1.392 . S
C1445 H1457 0.929 . S
C1446 C1442 1.531 . S
C1446 H1458 0.960 . S
C1446 H1459 0.962 . S
C1446 H1460 0.960 . S
C1447 C1444 1.511 . S
C1447 H1461 0.961 . S
C1447 H1462 0.961 . S
C1447 H1463 0.961 . S
C1448 C1449 1.370 . S
C1448 C1450 1.363 . S
C1448 H1464 0.931 . S
C1449 C1448 1.370 . S
C1449 C1453 1.408 . S
C1450 C1448 1.363 . S
C1450 C1451 1.370 . S
C1450 C1454 1.524 . S
C1451 C1443 1.503 . S
C1451 C1450 1.370 . S
C1451 C1452 1.403 . S
C1452 C1451 1.403 . S
C1452 C1453 1.404 . S
C1452 C1455 1.539 . S
C1453 C1449 1.408 . S
C1453 C1452 1.404 . S
C1453 H1465 0.930 . S
C1454 C1450 1.524 . S
C1454 H1466 0.956 . S
C1454 H1467 0.961 . S
C1454 H1468 0.961 . S
C1455 C1452 1.539 . S
C1455 H1469 0.958 . S
C1455 H1470 0.961 . S
C1455 H1471 0.960 . S
H1456 C1440 0.931 . S
H1457 C1445 0.929 . S
H1458 C1446 0.960 . S
H1459 C1446 0.962 . S
H1460 C1446 0.960 . S
H1461 C1447 0.961 . S
H1462 C1447 0.961 . S
H1463 C1447 0.961 . S
H1464 C1448 0.931 . S
H1465 C1453 0.930 . S
H1466 C1454 0.956 . S
H1467 C1454 0.961 . S
H1468 C1454 0.961 . S
H1469 C1455 0.958 . S
H1470 C1455 0.961 . S
H1471 C1455 0.960 . S
C1472 C1473 1.391 . S
C1472 C1474 1.394 . S
C1472 H1488 0.931 . S
C1473 C1472 1.391 . S
C1473 C1477 1.376 . S
C1474 C1472 1.394 . S
C1474 C1475 1.369 . S
C1474 C1478 1.531 . S
C1475 C1474 1.369 . S
C1475 C1476 1.410 . S
C1475 C1483 1.503 . S
C1476 C1475 1.410 . S
C1476 C1477 1.392 . S
C1476 C1479 1.511 . S
C1477 C1473 1.376 . S
C1477 C1476 1.392 . S
C1477 H1489 0.929 . S
C1478 C1474 1.531 . S
C1478 H1490 0.960 . S
C1478 H1491 0.962 . S
C1478 H1492 0.960 . S
C1479 C1476 1.511 . S
C1479 H1493 0.961 . S
C1479 H1494 0.961 . S
C1479 H1495 0.961 . S
C1480 C1481 1.370 . S
C1480 C1482 1.363 . S
C1480 H1496 0.931 . S
C1481 C1480 1.370 . S
C1481 C1485 1.408 . S
C1482 C1480 1.363 . S
C1482 C1483 1.370 . S
C1482 C1486 1.524 . S
C1483 C1475 1.503 . S
C1483 C1482 1.370 . S
C1483 C1484 1.403 . S
C1484 C1483 1.403 . S
C1484 C1485 1.404 . S
C1484 C1487 1.539 . S
C1485 C1481 1.408 . S
C1485 C1484 1.404 . S
C1485 H1497 0.930 . S
C1486 C1482 1.524 . S
C1486 H1498 0.956 . S
C1486 H1499 0.961 . S
C1486 H1500 0.961 . S
C1487 C1484 1.539 . S
C1487 H1501 0.958 . S
C1487 H1502 0.961 . S
C1487 H1503 0.960 . S
H1488 C1472 0.931 . S
H1489 C1477 0.929 . S
H1490 C1478 0.960 . S
H1491 C1478 0.962 . S
H1492 C1478 0.960 . S
H1493 C1479 0.961 . S
H1494 C1479 0.961 . S
H1495 C1479 0.961 . S
H1496 C1480 0.931 . S
H1497 C1485 0.930 . S
H1498 C1486 0.956 . S
H1499 C1486 0.961 . S
H1500 C1486 0.961 . S
H1501 C1487 0.958 . S
H1502 C1487 0.961 . S
H1503 C1487 0.960 . S
C1504 C1505 1.391 . S
C1504 C1506 1.394 . S
C1504 H1520 0.931 . S
C1505 C1504 1.391 . S
C1505 C1509 1.376 . S
C1506 C1504 1.394 . S
C1506 C1507 1.369 . S
C1506 C1510 1.531 . S
C1507 C1506 1.369 . S
C1507 C1508 1.410 . S
C1507 C1515 1.503 . S
C1508 C1507 1.410 . S
C1508 C1509 1.392 . S
C1508 C1511 1.511 . S
C1509 C1505 1.376 . S
C1509 C1508 1.392 . S
C1509 H1521 0.929 . S
C1510 C1506 1.531 . S
C1510 H1522 0.960 . S
C1510 H1523 0.962 . S
C1510 H1524 0.960 . S
C1511 C1508 1.511 . S
C1511 H1525 0.961 . S
C1511 H1526 0.961 . S
C1511 H1527 0.961 . S
C1512 C1513 1.370 . S
C1512 C1514 1.363 . S
C1512 H1528 0.931 . S
C1513 C1512 1.370 . S
C1513 C1517 1.408 . S
C1514 C1512 1.363 . S
C1514 C1515 1.370 . S
C1514 C1518 1.524 . S
C1515 C1507 1.503 . S
C1515 C1514 1.370 . S
C1515 C1516 1.403 . S
C1516 C1515 1.403 . S
C1516 C1517 1.404 . S
C1516 C1519 1.539 . S
C1517 C1513 1.408 . S
C1517 C1516 1.404 . S
C1517 H1529 0.930 . S
C1518 C1514 1.524 . S
C1518 H1530 0.956 . S
C1518 H1531 0.961 . S
C1518 H1532 0.961 . S
C1519 C1516 1.539 . S
C1519 H1533 0.958 . S
C1519 H1534 0.961 . S
C1519 H1535 0.960 . S
H1520 C1504 0.931 . S
H1521 C1509 0.929 . S
H1522 C1510 0.960 . S
H1523 C1510 0.962 . S
H1524 C1510 0.960 . S
H1525 C1511 0.961 . S
H1526 C1511 0.961 . S
H1527 C1511 0.961 . S
H1528 C1512 0.931 . S
H1529 C1517 0.930 . S
H1530 C1518 0.956 . S
H1531 C1518 0.961 . S
H1532 C1518 0.961 . S
H1533 C1519 0.958 . S
H1534 C1519 0.961 . S
H1535 C1519 0.960 . S
C1536 C1537 1.391 . S
C1536 C1538 1.394 . S
C1536 H1552 0.931 . S
C1537 C1536 1.391 . S
C1537 C1541 1.376 . S
C1538 C1536 1.394 . S
C1538 C1539 1.369 . S
C1538 C1542 1.531 . S
C1539 C1538 1.369 . S
C1539 C1540 1.410 . S
C1539 C1547 1.503 . S
C1540 C1539 1.410 . S
C1540 C1541 1.392 . S
C1540 C1543 1.511 . S
C1541 C1537 1.376 . S
C1541 C1540 1.392 . S
C1541 H1553 0.929 . S
C1542 C1538 1.531 . S
C1542 H1554 0.960 . S
C1542 H1555 0.962 . S
C1542 H1556 0.960 . S
C1543 C1540 1.511 . S
C1543 H1557 0.961 . S
C1543 H1558 0.961 . S
C1543 H1559 0.961 . S
C1544 C1545 1.370 . S
C1544 C1546 1.363 . S
C1544 H1560 0.931 . S
C1545 C1544 1.370 . S
C1545 C1549 1.408 . S
C1546 C1544 1.363 . S
C1546 C1547 1.370 . S
C1546 C1550 1.524 . S
C1547 C1539 1.503 . S
C1547 C1546 1.370 . S
C1547 C1548 1.403 . S
C1548 C1547 1.403 . S
C1548 C1549 1.404 . S
C1548 C1551 1.539 . S
C1549 C1545 1.408 . S
C1549 C1548 1.404 . S
C1549 H1561 0.930 . S
C1550 C1546 1.524 . S
C1550 H1562 0.956 . S
C1550 H1563 0.961 . S
C1550 H1564 0.961 . S
C1551 C1548 1.539 . S
C1551 H1565 0.958 . S
C1551 H1566 0.961 . S
C1551 H1567 0.960 . S
H1552 C1536 0.931 . S
H1553 C1541 0.929 . S
H1554 C1542 0.960 . S
H1555 C1542 0.962 . S
H1556 C1542 0.960 . S
H1557 C1543 0.961 . S
H1558 C1543 0.961 . S
H1559 C1543 0.961 . S
H1560 C1544 0.931 . S
H1561 C1549 0.930 . S
H1562 C1550 0.956 . S
H1563 C1550 0.961 . S
H1564 C1550 0.961 . S
H1565 C1551 0.958 . S
H1566 C1551 0.961 . S
H1567 C1551 0.960 . S
C1568 C1569 1.391 . S
C1568 C1570 1.394 . S
C1568 H1584 0.931 . S
C1569 C1568 1.391 . S
C1569 C1573 1.376 . S
C1570 C1568 1.394 . S
C1570 C1571 1.369 . S
C1570 C1574 1.531 . S
C1571 C1570 1.369 . S
C1571 C1572 1.410 . S
C1571 C1579 1.503 . S
C1572 C1571 1.410 . S
C1572 C1573 1.392 . S
C1572 C1575 1.511 . S
C1573 C1569 1.376 . S
C1573 C1572 1.392 . S
C1573 H1585 0.929 . S
C1574 C1570 1.531 . S
C1574 H1586 0.960 . S
C1574 H1587 0.962 . S
C1574 H1588 0.960 . S
C1575 C1572 1.511 . S
C1575 H1589 0.961 . S
C1575 H1590 0.961 . S
C1575 H1591 0.961 . S
C1576 C1577 1.370 1_655 S
C1576 C1578 1.363 . S
C1576 H1592 0.931 1_655 S
C1577 C1576 1.370 1_455 S
C1577 C1581 1.408 1_455 S
C1578 C1576 1.363 . S
C1578 C1579 1.370 . S
C1578 C1582 1.524 . S
C1579 C1571 1.503 . S
C1579 C1578 1.370 . S
C1579 C1580 1.403 . S
C1580 C1579 1.403 . S
C1580 C1581 1.404 . S
C1580 C1583 1.539 . S
C1581 C1577 1.408 1_655 S
C1581 C1580 1.404 . S
C1581 H1593 0.930 . S
C1582 C1578 1.524 . S
C1582 H1594 0.956 . S
C1582 H1595 0.961 . S
C1582 H1596 0.961 . S
C1583 C1580 1.539 . S
C1583 H1597 0.958 . S
C1583 H1598 0.961 . S
C1583 H1599 0.960 . S
H1584 C1568 0.931 . S
H1585 C1573 0.929 . S
H1586 C1574 0.960 . S
H1587 C1574 0.962 . S
H1588 C1574 0.960 . S
H1589 C1575 0.961 . S
H1590 C1575 0.961 . S
H1591 C1575 0.961 . S
H1592 C1576 0.931 1_455 S
H1593 C1581 0.930 . S
H1594 C1582 0.956 . S
H1595 C1582 0.961 . S
H1596 C1582 0.961 . S
H1597 C1583 0.958 . S
H1598 C1583 0.961 . S
H1599 C1583 0.960 . S
C1600 C1601 1.391 . S
C1600 C1602 1.394 . S
C1600 H1616 0.931 . S
C1601 C1600 1.391 . S
C1601 C1605 1.376 . S
C1602 C1600 1.394 . S
C1602 C1603 1.369 . S
C1602 C1606 1.531 . S
C1603 C1602 1.369 . S
C1603 C1604 1.410 . S
C1603 C1611 1.503 . S
C1604 C1603 1.410 . S
C1604 C1605 1.392 . S
C1604 C1607 1.511 . S
C1605 C1601 1.376 . S
C1605 C1604 1.392 . S
C1605 H1617 0.929 . S
C1606 C1602 1.531 . S
C1606 H1618 0.960 . S
C1606 H1619 0.962 . S
C1606 H1620 0.960 . S
C1607 C1604 1.511 . S
C1607 H1621 0.961 . S
C1607 H1622 0.961 . S
C1607 H1623 0.961 . S
C1608 C1609 1.370 . S
C1608 C1610 1.363 . S
C1608 H1624 0.931 . S
C1609 C1608 1.370 . S
C1609 C1613 1.408 . S
C1610 C1608 1.363 . S
C1610 C1611 1.370 . S
C1610 C1614 1.524 . S
C1611 C1603 1.503 . S
C1611 C1610 1.370 . S
C1611 C1612 1.403 . S
C1612 C1611 1.403 . S
C1612 C1613 1.404 . S
C1612 C1615 1.539 . S
C1613 C1609 1.408 . S
C1613 C1612 1.404 . S
C1613 H1625 0.930 . S
C1614 C1610 1.524 . S
C1614 H1626 0.956 . S
C1614 H1627 0.961 . S
C1614 H1628 0.961 . S
C1615 C1612 1.539 . S
C1615 H1629 0.958 . S
C1615 H1630 0.961 . S
C1615 H1631 0.960 . S
H1616 C1600 0.931 . S
H1617 C1605 0.929 . S
H1618 C1606 0.960 . S
H1619 C1606 0.962 . S
H1620 C1606 0.960 . S
H1621 C1607 0.961 . S
H1622 C1607 0.961 . S
H1623 C1607 0.961 . S
H1624 C1608 0.931 . S
H1625 C1613 0.930 . S
H1626 C1614 0.956 . S
H1627 C1614 0.961 . S
H1628 C1614 0.961 . S
H1629 C1615 0.958 . S
H1630 C1615 0.961 . S
H1631 C1615 0.960 . S
C1632 C1633 1.391 . S
C1632 C1634 1.394 . S
C1632 H1648 0.931 . S
C1633 C1632 1.391 . S
C1633 C1637 1.376 . S
C1634 C1632 1.394 . S
C1634 C1635 1.369 . S
C1634 C1638 1.531 . S
C1635 C1634 1.369 . S
C1635 C1636 1.410 . S
C1635 C1643 1.503 . S
C1636 C1635 1.410 . S
C1636 C1637 1.392 . S
C1636 C1639 1.511 . S
C1637 C1633 1.376 . S
C1637 C1636 1.392 . S
C1637 H1649 0.929 . S
C1638 C1634 1.531 . S
C1638 H1650 0.960 . S
C1638 H1651 0.962 . S
C1638 H1652 0.960 . S
C1639 C1636 1.511 . S
C1639 H1653 0.961 . S
C1639 H1654 0.961 . S
C1639 H1655 0.961 . S
C1640 C1641 1.362 1_645 S
C1640 C1642 1.355 1_545 S
C1640 H1656 0.948 . S
C1641 C1640 1.362 1_465 S
C1641 C1645 1.408 . S
C1642 C1640 1.355 1_565 S
C1642 C1643 1.370 . S
C1642 C1646 1.524 1_565 S
C1643 C1635 1.503 . S
C1643 C1642 1.370 . S
C1643 C1644 1.403 . S
C1644 C1643 1.403 . S
C1644 C1645 1.404 1_655 S
C1644 C1647 1.539 . S
C1645 C1641 1.408 . S
C1645 C1644 1.404 1_455 S
C1645 H1657 0.930 . S
C1646 C1642 1.524 1_545 S
C1646 H1658 0.956 . S
C1646 H1659 0.961 1_545 S
C1646 H1660 0.961 . S
C1647 C1644 1.539 . S
C1647 H1661 0.958 . S
C1647 H1662 0.961 . S
C1647 H1663 0.960 . S
H1648 C1632 0.931 . S
H1649 C1637 0.929 . S
H1650 C1638 0.960 . S
H1651 C1638 0.962 . S
H1652 C1638 0.960 . S
H1653 C1639 0.961 . S
H1654 C1639 0.961 . S
H1655 C1639 0.961 . S
H1656 C1640 0.948 . S
H1657 C1645 0.930 . S
H1658 C1646 0.956 . S
H1659 C1646 0.961 1_565 S
H1660 C1646 0.961 . S
H1661 C1647 0.958 . S
H1662 C1647 0.961 . S
H1663 C1647 0.960 . S
C1664 C1665 1.391 . S
C1664 C1666 1.394 . S
C1664 H1680 0.931 . S
C1665 C1664 1.391 . S
C1665 C1669 1.376 . S
C1666 C1664 1.394 . S
C1666 C1667 1.369 . S
C1666 C1670 1.531 . S
C1667 C1666 1.369 . S
C1667 C1668 1.410 . S
C1667 C1675 1.503 . S
C1668 C1667 1.410 . S
C1668 C1669 1.392 . S
C1668 C1671 1.511 . S
C1669 C1665 1.376 . S
C1669 C1668 1.392 . S
C1669 H1681 0.929 . S
C1670 C1666 1.531 . S
C1670 H1682 0.960 . S
C1670 H1683 0.962 . S
C1670 H1684 0.960 . S
C1671 C1668 1.511 . S
C1671 H1685 0.961 . S
C1671 H1686 0.961 . S
C1671 H1687 0.961 . S
C1672 C1673 1.370 . S
C1672 C1674 1.363 . S
C1672 H1688 0.931 . S
C1673 C1672 1.370 . S
C1673 C1677 1.408 . S
C1674 C1672 1.363 . S
C1674 C1675 1.370 . S
C1674 C1678 1.524 . S
C1675 C1667 1.503 . S
C1675 C1674 1.370 . S
C1675 C1676 1.403 . S
C1676 C1675 1.403 . S
C1676 C1677 1.404 . S
C1676 C1679 1.539 . S
C1677 C1673 1.408 . S
C1677 C1676 1.404 . S
C1677 H1689 0.930 . S
C1678 C1674 1.524 . S
C1678 H1690 0.956 . S
C1678 H1691 0.961 . S
C1678 H1692 0.961 . S
C1679 C1676 1.539 . S
C1679 H1693 0.958 . S
C1679 H1694 0.961 . S
C1679 H1695 0.960 . S
H1680 C1664 0.931 . S
H1681 C1669 0.929 . S
H1682 C1670 0.960 . S
H1683 C1670 0.962 . S
H1684 C1670 0.960 . S
H1685 C1671 0.961 . S
H1686 C1671 0.961 . S
H1687 C1671 0.961 . S
H1688 C1672 0.931 . S
H1689 C1677 0.930 . S
H1690 C1678 0.956 . S
H1691 C1678 0.961 . S
H1692 C1678 0.961 . S
H1693 C1679 0.958 . S
H1694 C1679 0.961 . S
H1695 C1679 0.960 . S
C1696 C1697 1.391 . S
C1696 C1698 1.394 . S
C1696 H1712 0.931 . S
C1697 C1696 1.391 . S
C1697 C1701 1.376 1_545 S
C1698 C1696 1.394 . S
C1698 C1699 1.369 . S
C1698 C1702 1.531 . S
C1699 C1698 1.369 . S
C1699 C1700 1.410 . S
C1699 C1707 1.503 . S
C1700 C1699 1.410 . S
C1700 C1701 1.392 1_545 S
C1700 C1703 1.511 1_545 S
C1701 C1697 1.376 1_565 S
C1701 C1700 1.392 1_565 S
C1701 H1713 0.929 . S
C1702 C1698 1.531 . S
C1702 H1714 0.960 . S
C1702 H1715 0.962 . S
C1702 H1716 0.960 . S
C1703 C1700 1.511 1_565 S
C1703 H1717 0.961 . S
C1703 H1718 0.961 1_565 S
C1703 H1719 0.961 . S
C1704 C1705 1.370 . S
C1704 C1706 1.363 . S
C1704 H1720 0.931 . S
C1705 C1704 1.370 . S
C1705 C1709 1.408 . S
C1706 C1704 1.363 . S
C1706 C1707 1.370 . S
C1706 C1710 1.524 . S
C1707 C1699 1.503 . S
C1707 C1706 1.370 . S
C1707 C1708 1.403 . S
C1708 C1707 1.403 . S
C1708 C1709 1.404 . S
C1708 C1711 1.539 . S
C1709 C1705 1.408 . S
C1709 C1708 1.404 . S
C1709 H1721 0.930 . S
C1710 C1706 1.524 . S
C1710 H1722 0.956 . S
C1710 H1723 0.961 . S
C1710 H1724 0.961 . S
C1711 C1708 1.539 . S
C1711 H1725 0.958 . S
C1711 H1726 0.961 . S
C1711 H1727 0.958 . S
H1712 C1696 0.931 . S
H1713 C1701 0.929 . S
H1714 C1702 0.960 . S
H1715 C1702 0.962 . S
H1716 C1702 0.960 . S
H1717 C1703 0.961 . S
H1718 C1703 0.961 1_545 S
H1719 C1703 0.961 . S
H1720 C1704 0.931 . S
H1721 C1709 0.930 . S
H1722 C1710 0.956 . S
H1723 C1710 0.961 . S
H1724 C1710 0.961 . S
H1725 C1711 0.958 . S
H1726 C1711 0.961 . S
H1727 C1711 0.958 . S
C1728 C1729 1.391 . S
C1728 C1730 1.394 . S
C1728 H1744 0.931 . S
C1729 C1728 1.391 . S
C1729 C1733 1.376 . S
C1730 C1728 1.394 . S
C1730 C1731 1.369 . S
C1730 C1734 1.531 . S
C1731 C1730 1.369 . S
C1731 C1732 1.410 . S
C1731 C1739 1.503 . S
C1732 C1731 1.410 . S
C1732 C1733 1.392 . S
C1732 C1735 1.511 . S
C1733 C1729 1.376 . S
C1733 C1732 1.392 . S
C1733 H1745 0.929 . S
C1734 C1730 1.531 . S
C1734 H1746 0.960 . S
C1734 H1747 0.962 . S
C1734 H1748 0.960 . S
C1735 C1732 1.511 . S
C1735 H1749 0.961 . S
C1735 H1750 0.961 . S
C1735 H1751 0.961 . S
C1736 C1737 1.370 . S
C1736 C1738 1.363 . S
C1736 H1752 0.931 . S
C1737 C1736 1.370 . S
C1737 C1741 1.408 . S
C1738 C1736 1.363 . S
C1738 C1739 1.370 . S
C1738 C1742 1.524 . S
C1739 C1731 1.503 . S
C1739 C1738 1.370 . S
C1739 C1740 1.403 . S
C1740 C1739 1.403 . S
C1740 C1741 1.404 . S
C1740 C1743 1.539 . S
C1741 C1737 1.408 . S
C1741 C1740 1.404 . S
C1741 H1753 0.930 . S
C1742 C1738 1.524 . S
C1742 H1754 0.956 . S
C1742 H1755 0.961 . S
C1742 H1756 0.961 . S
C1743 C1740 1.539 . S
C1743 H1757 0.958 . S
C1743 H1758 0.961 . S
C1743 H1759 0.960 . S
H1744 C1728 0.931 . S
H1745 C1733 0.929 . S
H1746 C1734 0.960 . S
H1747 C1734 0.962 . S
H1748 C1734 0.960 . S
H1749 C1735 0.961 . S
H1750 C1735 0.961 . S
H1751 C1735 0.961 . S
H1752 C1736 0.931 . S
H1753 C1741 0.930 . S
H1754 C1742 0.956 . S
H1755 C1742 0.961 . S
H1756 C1742 0.961 . S
H1757 C1743 0.958 . S
H1758 C1743 0.961 . S
H1759 C1743 0.960 . S
C1760 C1761 1.391 1_465 S
C1760 C1762 1.394 1_565 S
C1760 H1776 0.931 . S
C1761 C1760 1.391 1_645 S
C1761 C1765 1.376 . S
C1762 C1760 1.394 1_545 S
C1762 C1763 1.369 . S
C1762 C1766 1.531 1_545 S
C1763 C1762 1.369 . S
C1763 C1764 1.410 . S
C1763 C1771 1.503 . S
C1764 C1763 1.410 . S
C1764 C1765 1.392 1_455 S
C1764 C1767 1.511 . S
C1765 C1761 1.376 . S
C1765 C1764 1.392 1_655 S
C1765 H1777 0.929 . S
C1766 C1762 1.531 1_565 S
C1766 H1778 0.960 . S
C1766 H1779 0.962 . S
C1766 H1780 0.960 . S
C1767 C1764 1.511 . S
C1767 H1781 0.961 . S
C1767 H1782 0.961 . S
C1767 H1783 0.961 . S
C1768 C1769 1.370 . S
C1768 C1770 1.363 . S
C1768 H1784 0.931 . S
C1769 C1768 1.370 . S
C1769 C1773 1.408 . S
C1770 C1768 1.363 . S
C1770 C1771 1.370 . S
C1770 C1774 1.524 . S
C1771 C1763 1.503 . S
C1771 C1770 1.370 . S
C1771 C1772 1.403 . S
C1772 C1771 1.403 . S
C1772 C1773 1.404 . S
C1772 C1775 1.539 . S
C1773 C1769 1.408 . S
C1773 C1772 1.404 . S
C1773 H1785 0.930 . S
C1774 C1770 1.524 . S
C1774 H1786 0.956 . S
C1774 H1787 0.961 . S
C1774 H1788 0.961 . S
C1775 C1772 1.539 . S
C1775 H1789 0.958 . S
C1775 H1790 0.961 . S
C1775 H1791 0.960 . S
H1776 C1760 0.931 . S
H1777 C1765 0.929 . S
H1778 C1766 0.960 . S
H1779 C1766 0.962 . S
H1780 C1766 0.960 . S
H1781 C1767 0.961 . S
H1782 C1767 0.961 . S
H1783 C1767 0.961 . S
H1784 C1768 0.931 . S
H1785 C1773 0.930 . S
H1786 C1774 0.956 . S
H1787 C1774 0.961 . S
H1788 C1774 0.961 . S
H1789 C1775 0.958 . S
H1790 C1775 0.961 . S
H1791 C1775 0.960 . S
C1792 C1793 1.391 . S
C1792 C1794 1.394 . S
C1792 H1808 0.931 . S
C1793 C1792 1.391 . S
C1793 C1797 1.376 . S
C1794 C1792 1.394 . S
C1794 C1795 1.369 . S
C1794 C1798 1.531 . S
C1795 C1794 1.369 . S
C1795 C1796 1.410 . S
C1795 C1803 1.503 . S
C1796 C1795 1.410 . S
C1796 C1797 1.392 . S
C1796 C1799 1.511 . S
C1797 C1793 1.376 . S
C1797 C1796 1.392 . S
C1797 H1809 0.929 . S
C1798 C1794 1.531 . S
C1798 H1810 0.960 . S
C1798 H1811 0.962 . S
C1798 H1812 0.960 . S
C1799 C1796 1.511 . S
C1799 H1813 0.961 . S
C1799 H1814 0.961 . S
C1799 H1815 0.961 . S
C1800 C1801 1.370 . S
C1800 C1802 1.363 . S
C1800 H1816 0.931 . S
C1801 C1800 1.370 . S
C1801 C1805 1.408 . S
C1802 C1800 1.363 . S
C1802 C1803 1.370 . S
C1802 C1806 1.524 . S
C1803 C1795 1.503 . S
C1803 C1802 1.370 . S
C1803 C1804 1.403 . S
C1804 C1803 1.403 . S
C1804 C1805 1.404 . S
C1804 C1807 1.539 . S
C1805 C1801 1.408 . S
C1805 C1804 1.404 . S
C1805 H1817 0.930 . S
C1806 C1802 1.524 . S
C1806 H1818 0.956 . S
C1806 H1819 0.961 . S
C1806 H1820 0.961 . S
C1807 C1804 1.539 . S
C1807 H1821 0.958 . S
C1807 H1822 0.961 . S
C1807 H1823 0.960 . S
H1808 C1792 0.931 . S
H1809 C1797 0.929 . S
H1810 C1798 0.960 . S
H1811 C1798 0.962 . S
H1812 C1798 0.960 . S
H1813 C1799 0.961 . S
H1814 C1799 0.961 . S
H1815 C1799 0.961 . S
H1816 C1800 0.931 . S
H1817 C1805 0.930 . S
H1818 C1806 0.956 . S
H1819 C1806 0.961 . S
H1820 C1806 0.961 . S
H1821 C1807 0.958 . S
H1822 C1807 0.961 . S
H1823 C1807 0.960 . S
C1824 C1825 1.391 . S
C1824 C1826 1.394 . S
C1824 H1840 0.931 . S
C1825 C1824 1.391 . S
C1825 C1829 1.376 . S
C1826 C1824 1.394 . S
C1826 C1827 1.369 . S
C1826 C1830 1.531 . S
C1827 C1826 1.369 . S
C1827 C1828 1.410 . S
C1827 C1835 1.503 . S
C1828 C1827 1.410 . S
C1828 C1829 1.392 . S
C1828 C1831 1.511 . S
C1829 C1825 1.376 . S
C1829 C1828 1.392 . S
C1829 H1841 0.929 . S
C1830 C1826 1.531 . S
C1830 H1842 0.960 1_565 S
C1830 H1843 0.962 . S
C1830 H1844 0.960 1_565 S
C1831 C1828 1.511 . S
C1831 H1845 0.961 . S
C1831 H1846 0.961 . S
C1831 H1847 0.961 . S
C1832 C1833 1.370 . S
C1832 C1834 1.363 . S
C1832 H1848 0.931 . S
C1833 C1832 1.370 . S
C1833 C1837 1.408 . S
C1834 C1832 1.363 . S
C1834 C1835 1.370 . S
C1834 C1838 1.524 . S
C1835 C1827 1.503 . S
C1835 C1834 1.370 . S
C1835 C1836 1.403 . S
C1836 C1835 1.403 . S
C1836 C1837 1.404 . S
C1836 C1839 1.539 . S
C1837 C1833 1.408 . S
C1837 C1836 1.404 . S
C1837 H1849 0.930 1_565 S
C1838 C1834 1.524 . S
C1838 H1850 0.956 . S
C1838 H1851 0.961 . S
C1838 H1852 0.961 . S
C1839 C1836 1.539 . S
C1839 H1853 0.958 1_565 S
C1839 H1854 0.961 . S
C1839 H1855 0.960 . S
H1840 C1824 0.931 . S
H1841 C1829 0.929 . S
H1842 C1830 0.960 1_545 S
H1843 C1830 0.962 . S
H1844 C1830 0.960 1_545 S
H1845 C1831 0.961 . S
H1846 C1831 0.961 . S
H1847 C1831 0.961 . S
H1848 C1832 0.931 . S
H1849 C1837 0.930 1_545 S
H1850 C1838 0.956 . S
H1851 C1838 0.961 . S
H1852 C1838 0.961 . S
H1853 C1839 0.958 1_545 S
H1854 C1839 0.961 . S
H1855 C1839 0.960 . S
C321 C2 0.699 . S
C329 C241 0.828 . S
C353 C101 0.814 . S
C361 C22 0.778 . S
C385 C42 0.834 . S
C393 C281 0.784 . S
C417 C62 0.715 . S
C425 C141 0.820 . S
C449 C81 0.898 . S
C457 C162 0.747 . S
C481 C202 0.821 . S
C489 C121 0.776 . S
C513 C261 0.723 . S
C521 C182 0.817 . S
C545 C222 0.898 . S
C553 C301 0.746 . S
C577 C189 1.730 . S
C585 C1 1.703 . S
C609 C21 1.710 . S
C617 C209 1.726 . S
C641 C41 1.670 . S
C649 C229 1.737 . S
C673 C169 1.713 . S
C681 C61 1.706 . S
C705 C268 1.739 . S
C713 C82 1.689 . S
C737 C288 1.716 . S
C745 C102 1.698 . S
C769 C122 1.682 . S
C777 C308 1.730 . S
C801 C248 1.715 . S
C809 C142 1.708 . S
C833 C161 1.718 . S
C841 C29 1.726 . S
C865 C181 1.670 1_565 S
C873 C49 1.737 . S
C897 C201 1.673 . S
C905 C69 1.738 . S
C929 C9 1.715 . S
C937 C221 1.703 1_545 S
C961 C108 1.739 . S
C969 C242 1.689 . S
C993 C262 1.683 1_545 S
C1001 C128 1.738 . S
C1025 C148 1.717 . S
C1033 C282 1.709 . S
C1057 C302 1.711 1_565 S
C1065 C88 1.726 . S
C1089 C18 2.491 . S
C1097 C218 2.496 . S
C1121 C38 2.498 . S
C1129 C238 2.496 . S
C1153 C178 2.476 . S
C1161 C58 2.489 . S
C1185 C78 2.476 . S
C1193 C198 2.488 . S
C1217 C99 2.475 . S
C1225 C299 2.488 . S
C1249 C119 2.495 . S
C1257 C319 2.496 . S
C1281 C259 2.476 . S
C1289 C139 2.488 . S
C1313 C159 2.478 . S
C1321 C279 2.488 . S
C1345 C8 1.331 . S
C1353 C158 1.532 . S
C1377 C258 1.542 . S
C1385 C28 1.341 . S
C1409 C48 1.327 . S
C1417 C118 1.528 . S
C1441 C68 1.308 . S
C1449 C298 1.532 . S
C1473 C89 1.307 . S
C1481 C79 1.534 . S
C1505 C179 1.534 . S
C1513 C109 1.348 . S
C1537 C129 1.320 . S
C1545 C39 1.532 . S
C1569 C219 1.536 . S
C1577 C149 1.345 . S
C1601 C168 1.312 . S
C1609 C318 1.531 . S
C1633 C98 1.535 . S
C1641 C188 1.354 . S
C1665 C278 1.504 . S
C1673 C208 1.377 . S
C1697 C228 1.320 . S
C1705 C138 1.529 . S
C1729 C249 1.402 . S
C1737 C239 1.519 . S
C1761 C269 1.309 . S
C1769 C19 1.533 . S
C1793 C199 1.535 . S
C1801 C289 1.347 . S
C1825 C59 1.502 . S
C1833 C309 1.383 . S
