# Generated by pormake.
# Topology hbo, (4)-cn, num edge types: 1
# Building blocks:
#     Node 0, Type 0, BuildingBlock: KOZSID_clean_sbu_0, # of connection points: 4
#     Node 1, Type 0, BuildingBlock: KOZSID_clean_sbu_0, # of connection points: 4
#     Node 2, Type 0, BuildingBlock: KOZSID_clean_sbu_0, # of connection points: 4
#     Node 3, Type 0, BuildingBlock: KOZSID_clean_sbu_0, # of connection points: 4
#     Node 4, Type 0, BuildingBlock: KOZSID_clean_sbu_0, # of connection points: 4
#     Node 5, Type 0, BuildingBlock: KOZSID_clean_sbu_0, # of connection points: 4
#     Node 6, Type 0, BuildingBlock: KOZSID_clean_sbu_0, # of connection points: 4
#     Node 7, Type 0, BuildingBlock: KOZSID_clean_sbu_0, # of connection points: 4
#     Node 8, Type 0, BuildingBlock: KOZSID_clean_sbu_0, # of connection points: 4
#     Node 9, Type 0, BuildingBlock: KOZSID_clean_sbu_0, # of connection points: 4
#     Node 10, Type 0, BuildingBlock: KOZSID_clean_sbu_0, # of connection points: 4
#     Node 11, Type 0, BuildingBlock: KOZSID_clean_sbu_0, # of connection points: 4
#     Node 12, Type 0, BuildingBlock: KOZSID_clean_sbu_0, # of connection points: 4
#     Node 13, Type 0, BuildingBlock: KOZSID_clean_sbu_0, # of connection points: 4
#     Node 14, Type 0, BuildingBlock: KOZSID_clean_sbu_0, # of connection points: 4
#     Node 15, Type 0, BuildingBlock: KOZSID_clean_sbu_0, # of connection points: 4
#     Node 16, Type 0, BuildingBlock: KOZSID_clean_sbu_0, # of connection points: 4
#     Node 17, Type 0, BuildingBlock: KOZSID_clean_sbu_0, # of connection points: 4
#     Node 18, Type 0, BuildingBlock: KOZSID_clean_sbu_0, # of connection points: 4
#     Node 19, Type 0, BuildingBlock: KOZSID_clean_sbu_0, # of connection points: 4
#     Node 20, Type 0, BuildingBlock: KOZSID_clean_sbu_0, # of connection points: 4
#     Node 21, Type 0, BuildingBlock: KOZSID_clean_sbu_0, # of connection points: 4
#     Node 22, Type 0, BuildingBlock: KOZSID_clean_sbu_0, # of connection points: 4
#     Node 23, Type 0, BuildingBlock: KOZSID_clean_sbu_0, # of connection points: 4
#     Edge 24, Type (0, 0), BuildingBlock: CIFDUS_clean_linker_0, # of connection points: 2
#     Edge 25, Type (0, 0), BuildingBlock: CIFDUS_clean_linker_0, # of connection points: 2
#     Edge 26, Type (0, 0), BuildingBlock: CIFDUS_clean_linker_0, # of connection points: 2
#     Edge 27, Type (0, 0), BuildingBlock: CIFDUS_clean_linker_0, # of connection points: 2
#     Edge 28, Type (0, 0), BuildingBlock: CIFDUS_clean_linker_0, # of connection points: 2
#     Edge 29, Type (0, 0), BuildingBlock: CIFDUS_clean_linker_0, # of connection points: 2
#     Edge 30, Type (0, 0), BuildingBlock: CIFDUS_clean_linker_0, # of connection points: 2
#     Edge 31, Type (0, 0), BuildingBlock: CIFDUS_clean_linker_0, # of connection points: 2
#     Edge 32, Type (0, 0), BuildingBlock: CIFDUS_clean_linker_0, # of connection points: 2
#     Edge 33, Type (0, 0), BuildingBlock: CIFDUS_clean_linker_0, # of connection points: 2
#     Edge 34, Type (0, 0), BuildingBlock: CIFDUS_clean_linker_0, # of connection points: 2
#     Edge 35, Type (0, 0), BuildingBlock: CIFDUS_clean_linker_0, # of connection points: 2
#     Edge 36, Type (0, 0), BuildingBlock: CIFDUS_clean_linker_0, # of connection points: 2
#     Edge 37, Type (0, 0), BuildingBlock: CIFDUS_clean_linker_0, # of connection points: 2
#     Edge 38, Type (0, 0), BuildingBlock: CIFDUS_clean_linker_0, # of connection points: 2
#     Edge 39, Type (0, 0), BuildingBlock: CIFDUS_clean_linker_0, # of connection points: 2
#     Edge 40, Type (0, 0), BuildingBlock: CIFDUS_clean_linker_0, # of connection points: 2
#     Edge 41, Type (0, 0), BuildingBlock: CIFDUS_clean_linker_0, # of connection points: 2
#     Edge 42, Type (0, 0), BuildingBlock: CIFDUS_clean_linker_0, # of connection points: 2
#     Edge 43, Type (0, 0), BuildingBlock: CIFDUS_clean_linker_0, # of connection points: 2
#     Edge 44, Type (0, 0), BuildingBlock: CIFDUS_clean_linker_0, # of connection points: 2
#     Edge 45, Type (0, 0), BuildingBlock: CIFDUS_clean_linker_0, # of connection points: 2
#     Edge 46, Type (0, 0), BuildingBlock: CIFDUS_clean_linker_0, # of connection points: 2
#     Edge 47, Type (0, 0), BuildingBlock: CIFDUS_clean_linker_0, # of connection points: 2
#     Edge 48, Type (0, 0), BuildingBlock: CIFDUS_clean_linker_0, # of connection points: 2
#     Edge 49, Type (0, 0), BuildingBlock: CIFDUS_clean_linker_0, # of connection points: 2
#     Edge 50, Type (0, 0), BuildingBlock: CIFDUS_clean_linker_0, # of connection points: 2
#     Edge 51, Type (0, 0), BuildingBlock: CIFDUS_clean_linker_0, # of connection points: 2
#     Edge 52, Type (0, 0), BuildingBlock: CIFDUS_clean_linker_0, # of connection points: 2
#     Edge 53, Type (0, 0), BuildingBlock: CIFDUS_clean_linker_0, # of connection points: 2
#     Edge 54, Type (0, 0), BuildingBlock: CIFDUS_clean_linker_0, # of connection points: 2
#     Edge 55, Type (0, 0), BuildingBlock: CIFDUS_clean_linker_0, # of connection points: 2
#     Edge 56, Type (0, 0), BuildingBlock: CIFDUS_clean_linker_0, # of connection points: 2
#     Edge 57, Type (0, 0), BuildingBlock: CIFDUS_clean_linker_0, # of connection points: 2
#     Edge 58, Type (0, 0), BuildingBlock: CIFDUS_clean_linker_0, # of connection points: 2
#     Edge 59, Type (0, 0), BuildingBlock: CIFDUS_clean_linker_0, # of connection points: 2
#     Edge 60, Type (0, 0), BuildingBlock: CIFDUS_clean_linker_0, # of connection points: 2
#     Edge 61, Type (0, 0), BuildingBlock: CIFDUS_clean_linker_0, # of connection points: 2
#     Edge 62, Type (0, 0), BuildingBlock: CIFDUS_clean_linker_0, # of connection points: 2
#     Edge 63, Type (0, 0), BuildingBlock: CIFDUS_clean_linker_0, # of connection points: 2
#     Edge 64, Type (0, 0), BuildingBlock: CIFDUS_clean_linker_0, # of connection points: 2
#     Edge 65, Type (0, 0), BuildingBlock: CIFDUS_clean_linker_0, # of connection points: 2
#     Edge 66, Type (0, 0), BuildingBlock: CIFDUS_clean_linker_0, # of connection points: 2
#     Edge 67, Type (0, 0), BuildingBlock: CIFDUS_clean_linker_0, # of connection points: 2
#     Edge 68, Type (0, 0), BuildingBlock: CIFDUS_clean_linker_0, # of connection points: 2
#     Edge 69, Type (0, 0), BuildingBlock: CIFDUS_clean_linker_0, # of connection points: 2
#     Edge 70, Type (0, 0), BuildingBlock: CIFDUS_clean_linker_0, # of connection points: 2
#     Edge 71, Type (0, 0), BuildingBlock: CIFDUS_clean_linker_0, # of connection points: 2
# Relax obj value: 0.078
# Max RMSD: 0.320
# Mean RMSD: 0.297
data_MOF--net-hbo--node1-KOZSID_clean_sbu_0--edge1-CIFDUS_clean_linker_0
_symmetry_space_group_name_H-M    P1
_symmetry_Int_Tables_number       1
_symmetry_cell_setting            triclinic
loop_
_symmetry_equiv_pos_as_xyz
'x, y, z'
_cell_length_a     62.013335
_cell_length_b     56.359513
_cell_length_c     56.37786
_cell_angle_alpha  89.944644
_cell_angle_beta   90.499768
_cell_angle_gamma 88.455612
loop_
_atom_site_label
_atom_site_type_symbol
_atom_site_fract_x
_atom_site_fract_y
_atom_site_fract_z
_atom_type_partial_charge
C0 C 0.18972 0.34437 0.31984 0.0
C1 C 0.19926 0.34131 0.3421 0.0
C2 C 0.19839 0.36289 0.35309 0.0
C3 C 0.18889 0.37811 0.33694 0.0
N4 N 0.18358 0.36749 0.31641 0.0
Co5 Co 0.17186 0.38397 0.28752 0.0
N6 N 0.18131 0.4157 0.29887 0.0
C7 C 0.18757 0.42061 0.32123 0.0
C8 C 0.19276 0.44383 0.32463 0.0
C9 C 0.18919 0.45453 0.30318 0.0
C10 C 0.1819 0.43717 0.28776 0.0
N11 N 0.15956 0.40076 0.25904 0.0
C12 C 0.16088 0.42383 0.25173 0.0
C13 C 0.1479 0.42796 0.23191 0.0
C14 C 0.13778 0.40712 0.22704 0.0
C15 C 0.14508 0.39132 0.24405 0.0
N16 N 0.16324 0.35213 0.27636 0.0
C17 C 0.14868 0.34807 0.25917 0.0
C18 C 0.14678 0.32427 0.25446 0.0
C19 C 0.16109 0.31274 0.26965 0.0
C20 C 0.17107 0.33016 0.28279 0.0
N21 N 0.14335 0.38872 0.30296 0.0
C22 C 0.09843 0.39237 0.31239 0.0
C23 C 0.11033 0.37111 0.31646 0.0
C24 C 0.13268 0.36975 0.31194 0.0
C25 C 0.1101 0.41214 0.30522 0.0
C26 C 0.13232 0.41002 0.30083 0.0
N27 N 0.19949 0.37817 0.27097 0.0
C28 C 0.2162 0.35992 0.23672 0.0
C29 C 0.23587 0.35666 0.24882 0.0
C30 C 0.23724 0.36606 0.27198 0.0
C31 C 0.21893 0.37685 0.28266 0.0
C32 C 0.19856 0.37079 0.24786 0.0
H33 H 0.22025 0.38303 0.30072 0.0
H34 H 0.18366 0.37142 0.23805 0.0
H35 H 0.14109 0.35291 0.31456 0.0
H36 H 0.14018 0.42545 0.2943 0.0
C37 C 0.18999 0.40269 0.33811 0.0
C38 C 0.18669 0.3252 0.30239 0.0
C39 C 0.17246 0.44286 0.26429 0.0
C40 C 0.14038 0.36703 0.2453 0.0
H41 H 0.20695 0.3256 0.34961 0.0
H42 H 0.20555 0.36732 0.37004 0.0
H43 H 0.19842 0.45203 0.3408 0.0
H44 H 0.19086 0.47326 0.2997 0.0
H45 H 0.14558 0.4445 0.22234 0.0
H46 H 0.12652 0.40387 0.2127 0.0
H47 H 0.13689 0.31625 0.2409 0.0
H48 H 0.16388 0.29375 0.27092 0.0
H49 H 0.10242 0.35543 0.3227 0.0
H50 H 0.102 0.42906 0.30176 0.0
H51 H 0.21381 0.35289 0.21907 0.0
H52 H 0.25216 0.36466 0.28204 0.0
C53 C 0.16039 0.68223 0.72607 0.0
C54 C 0.16085 0.68759 0.70203 0.0
C55 C 0.15656 0.66697 0.69019 0.0
C56 C 0.15352 0.65037 0.70761 0.0
N57 N 0.15545 0.65932 0.72958 0.0
Co58 Co 0.15067 0.64198 0.7595 0.0
N59 N 0.15668 0.61074 0.74403 0.0
C60 C 0.15648 0.60696 0.72041 0.0
C61 C 0.16041 0.5837 0.7144 0.0
C62 C 0.16286 0.57191 0.73549 0.0
C63 C 0.16017 0.58867 0.7534 0.0
N64 N 0.14465 0.62399 0.789 0.0
C65 C 0.14792 0.60054 0.79449 0.0
C66 C 0.13976 0.59573 0.81676 0.0
C67 C 0.13087 0.61667 0.82521 0.0
C68 C 0.134 0.6332 0.80772 0.0
N69 N 0.14578 0.67347 0.77442 0.0
C70 C 0.13632 0.67736 0.79542 0.0
C71 C 0.13844 0.70044 0.80285 0.0
C72 C 0.15002 0.71153 0.78544 0.0
C73 C 0.15424 0.69468 0.76806 0.0
N74 N 0.11924 0.64025 0.75136 0.0
C75 C 0.0731 0.63976 0.75023 0.0
C76 C 0.08439 0.66062 0.74565 0.0
C77 C 0.10724 0.66046 0.74617 0.0
C78 C 0.08581 0.61889 0.75363 0.0
C79 C 0.10852 0.61949 0.75413 0.0
N80 N 0.18154 0.64521 0.76923 0.0
C81 C 0.2043 0.65979 0.80099 0.0
C82 C 0.21974 0.66767 0.78505 0.0
C83 C 0.21646 0.66188 0.76092 0.0
C84 C 0.19745 0.65042 0.75344 0.0
C85 C 0.1858 0.6486 0.79291 0.0
H86 H 0.19507 0.64729 0.73471 0.0
H87 H 0.17415 0.64492 0.80621 0.0
H88 H 0.11517 0.67706 0.74344 0.0
H89 H 0.11731 0.60315 0.75787 0.0
C90 C 0.15388 0.62582 0.70438 0.0
C91 C 0.16542 0.69885 0.74515 0.0
C92 C 0.1574 0.58216 0.77852 0.0
C93 C 0.13046 0.65798 0.8096 0.0
H94 H 0.16453 0.70441 0.69395 0.0
H95 H 0.15702 0.66412 0.67122 0.0
H96 H 0.16127 0.57616 0.69677 0.0
H97 H 0.16525 0.55291 0.73739 0.0
H98 H 0.14007 0.57881 0.82587 0.0
H99 H 0.12356 0.61958 0.84236 0.0
H100 H 0.13355 0.70793 0.8197 0.0
H101 H 0.15516 0.72967 0.78602 0.0
H102 H 0.0757 0.6773 0.74276 0.0
H103 H 0.0783 0.60202 0.75648 0.0
H104 H 0.20555 0.66366 0.81974 0.0
H105 H 0.22813 0.66679 0.74775 0.0
C106 C 0.87887 0.68579 0.3019 0.0
C107 C 0.87608 0.69173 0.32561 0.0
C108 C 0.88048 0.67148 0.33847 0.0
C109 C 0.8859 0.65449 0.32196 0.0
N110 N 0.88528 0.66286 0.29963 0.0
Co111 Co 0.89402 0.64508 0.27095 0.0
N112 N 0.88888 0.61421 0.28668 0.0
C113 C 0.88761 0.6108 0.31029 0.0
C114 C 0.88492 0.58752 0.3164 0.0
C115 C 0.88481 0.5754 0.29538 0.0
C116 C 0.88755 0.59204 0.27751 0.0
N117 N 0.90399 0.62668 0.24283 0.0
C118 C 0.9021 0.60325 0.23747 0.0
C119 C 0.91241 0.5979 0.21634 0.0
C120 C 0.92117 0.61863 0.20843 0.0
C121 C 0.91581 0.63552 0.22513 0.0
N122 N 0.8983 0.67618 0.25558 0.0
C123 C 0.90951 0.67977 0.23569 0.0
C124 C 0.90684 0.70267 0.22746 0.0
C125 C 0.89308 0.71397 0.24317 0.0
C126 C 0.88823 0.69742 0.26042 0.0
N127 N 0.9244 0.64442 0.28275 0.0
C128 C 0.96957 0.64628 0.29177 0.0
C129 C 0.95581 0.66633 0.29463 0.0
C130 C 0.93353 0.66504 0.29012 0.0
C131 C 0.95975 0.62489 0.28561 0.0
C132 C 0.93731 0.62432 0.28127 0.0
N133 N 0.86399 0.64716 0.25785 0.0
C134 C 0.84243 0.65788 0.22315 0.0
C135 C 0.82512 0.66545 0.23708 0.0
C136 C 0.827 0.66209 0.26175 0.0
C137 C 0.8464 0.65241 0.27173 0.0
C138 C 0.86149 0.64909 0.23368 0.0
H139 H 0.84745 0.65044 0.29075 0.0
H140 H 0.87458 0.64561 0.22182 0.0
H141 H 0.92379 0.68109 0.2918 0.0
H142 H 0.93061 0.60774 0.27576 0.0
C143 C 0.8873 0.63003 0.326 0.0
C144 C 0.87493 0.70196 0.28189 0.0
C145 C 0.89171 0.58559 0.25267 0.0
C146 C 0.91798 0.66026 0.22284 0.0
H147 H 0.87097 0.70876 0.33278 0.0
H148 H 0.87877 0.66915 0.35741 0.0
H149 H 0.88319 0.58021 0.33402 0.0
H150 H 0.88372 0.55636 0.29352 0.0
H151 H 0.91353 0.58081 0.20764 0.0
H152 H 0.92973 0.62121 0.19202 0.0
H153 H 0.91293 0.70989 0.21112 0.0
H154 H 0.88705 0.73205 0.24157 0.0
H155 H 0.96222 0.6832 0.29999 0.0
H156 H 0.96941 0.60882 0.28312 0.0
H157 H 0.84167 0.65981 0.20403 0.0
H158 H 0.81374 0.66712 0.27323 0.0
C159 C 0.87522 0.34193 0.72351 0.0
C160 C 0.86998 0.34028 0.69957 0.0
C161 C 0.87351 0.36206 0.68983 0.0
C162 C 0.88056 0.37574 0.70829 0.0
N163 N 0.8818 0.36396 0.72902 0.0
Co164 Co 0.89133 0.37723 0.75991 0.0
N165 N 0.88528 0.41044 0.74898 0.0
C166 C 0.88265 0.41711 0.72612 0.0
C167 C 0.88018 0.44111 0.7231 0.0
C168 C 0.88171 0.45039 0.74536 0.0
C169 C 0.88501 0.43142 0.76094 0.0
N170 N 0.90182 0.39089 0.79034 0.0
C171 C 0.90064 0.41357 0.79887 0.0
C172 C 0.91124 0.4149 0.82059 0.0
C173 C 0.91983 0.39265 0.82537 0.0
C174 C 0.91399 0.3788 0.80646 0.0
N175 N 0.89653 0.34393 0.77037 0.0
C176 C 0.90864 0.3369 0.78905 0.0
C177 C 0.90747 0.31285 0.79309 0.0
C178 C 0.89371 0.30444 0.77587 0.0
C179 C 0.88717 0.32383 0.76227 0.0
N180 N 0.92152 0.37855 0.74807 0.0
C181 C 0.96714 0.37601 0.74239 0.0
C182 C 0.95403 0.35691 0.7362 0.0
C183 C 0.93144 0.3586 0.73891 0.0
C184 C 0.95648 0.39702 0.74978 0.0
C185 C 0.93388 0.39793 0.75245 0.0
N186 N 0.86177 0.37446 0.77315 0.0
C187 C 0.8415 0.3576 0.80539 0.0
C188 C 0.82292 0.35569 0.79132 0.0
C189 C 0.82392 0.36526 0.76811 0.0
C190 C 0.84341 0.37453 0.75941 0.0
C191 C 0.86026 0.36711 0.79626 0.0
H192 H 0.8439 0.38057 0.74123 0.0
H193 H 0.87406 0.3664 0.80778 0.0
H194 H 0.92213 0.34323 0.73469 0.0
H195 H 0.92667 0.41405 0.75934 0.0
C196 C 0.88146 0.40037 0.708 0.0
C197 C 0.87351 0.3226 0.74068 0.0
C198 C 0.89127 0.43452 0.78604 0.0
C199 C 0.9169 0.35394 0.80472 0.0
H200 H 0.86381 0.32523 0.69007 0.0
H201 H 0.87001 0.36765 0.6718 0.0
H202 H 0.87782 0.45076 0.70663 0.0
H203 H 0.88158 0.46917 0.74925 0.0
H204 H 0.91288 0.4304 0.8317 0.0
H205 H 0.92886 0.38714 0.84103 0.0
H206 H 0.91483 0.30281 0.80755 0.0
H207 H 0.88899 0.28623 0.77355 0.0
H208 H 0.96118 0.34044 0.72975 0.0
H209 H 0.96559 0.41239 0.75475 0.0
H210 H 0.84233 0.35038 0.82316 0.0
H211 H 0.81003 0.36488 0.75639 0.0
C212 C 0.22482 0.18033 0.34033 0.0
C213 C 0.20409 0.18442 0.33139 0.0
C214 C 0.19482 0.1628 0.32952 0.0
C215 C 0.21031 0.14676 0.33733 0.0
N216 N 0.22884 0.1568 0.34409 0.0
Co217 Co 0.25518 0.1394 0.35631 0.0
N218 N 0.24498 0.10814 0.34423 0.0
C219 C 0.22486 0.10403 0.33629 0.0
C220 C 0.22171 0.08094 0.32991 0.0
C221 C 0.24093 0.06942 0.33443 0.0
C222 C 0.25484 0.08621 0.34341 0.0
N223 N 0.28091 0.12138 0.36959 0.0
C224 C 0.28736 0.09804 0.36758 0.0
C225 C 0.30532 0.09313 0.38173 0.0
C226 C 0.31002 0.11378 0.39334 0.0
C227 C 0.29474 0.13022 0.38569 0.0
N228 N 0.26526 0.17078 0.36755 0.0
C229 C 0.28138 0.17398 0.3832 0.0
C230 C 0.28506 0.19755 0.38745 0.0
C231 C 0.27029 0.20997 0.37359 0.0
C232 C 0.25835 0.19327 0.36158 0.0
N233 N 0.24082 0.13443 0.38719 0.0
C234 C 0.23563 0.13163 0.4368 0.0
C235 C 0.23005 0.15253 0.42439 0.0
C236 C 0.2326 0.15351 0.3996 0.0
C237 C 0.24115 0.11145 0.4234 0.0
C238 C 0.24326 0.11311 0.39872 0.0
N239 N 0.2707 0.14569 0.32623 0.0
C240 C 0.30366 0.15992 0.30902 0.0
C241 C 0.29262 0.16925 0.28914 0.0
C242 C 0.27045 0.16428 0.28737 0.0
C243 C 0.26001 0.15205 0.30571 0.0
C244 C 0.29256 0.14877 0.32721 0.0
H245 H 0.24301 0.14898 0.30369 0.0
H246 H 0.30194 0.14404 0.34261 0.0
H247 H 0.22958 0.1703 0.39083 0.0
H248 H 0.24866 0.09745 0.38943 0.0
C249 C 0.20948 0.12235 0.33431 0.0
C250 C 0.23971 0.19938 0.34588 0.0
C251 C 0.27596 0.07964 0.35403 0.0
C252 C 0.29397 0.1545 0.39135 0.0
H253 H 0.19647 0.20124 0.32653 0.0
H254 H 0.17906 0.15912 0.3222 0.0
H255 H 0.20708 0.07331 0.32308 0.0
H256 H 0.24394 0.05054 0.33237 0.0
H257 H 0.31385 0.07623 0.38383 0.0
H258 H 0.32313 0.11651 0.40575 0.0
H259 H 0.29735 0.20488 0.39882 0.0
H260 H 0.26841 0.22908 0.37251 0.0
H261 H 0.22534 0.16852 0.43388 0.0
H262 H 0.24498 0.09469 0.43208 0.0
H263 H 0.32089 0.16165 0.31115 0.0
H264 H 0.2608 0.17049 0.27244 0.0
C265 C 0.36265 0.80944 0.83794 0.0
C266 C 0.35606 0.83293 0.83422 0.0
C267 C 0.35798 0.84424 0.85555 0.0
C268 C 0.36554 0.82713 0.87106 0.0
N269 N 0.36864 0.80578 0.86082 0.0
Co270 Co 0.37897 0.77627 0.87711 0.0
N271 N 0.3704 0.78898 0.90878 0.0
C272 C 0.36602 0.81202 0.91367 0.0
C273 C 0.36141 0.81618 0.93703 0.0
C274 C 0.36335 0.79452 0.9478 0.0
C275 C 0.36916 0.77822 0.93031 0.0
N276 N 0.39014 0.74728 0.89396 0.0
C277 C 0.38822 0.74031 0.91706 0.0
C278 C 0.40034 0.71969 0.9213 0.0
C279 C 0.41042 0.71386 0.90035 0.0
C280 C 0.40397 0.73118 0.88442 0.0
N281 N 0.38661 0.76402 0.84524 0.0
C282 C 0.40019 0.74563 0.8409 0.0
C283 C 0.4014 0.7405 0.81706 0.0
C284 C 0.38762 0.75669 0.80589 0.0
C285 C 0.37868 0.77084 0.82353 0.0
N286 N 0.40849 0.78944 0.88087 0.0
C287 C 0.45398 0.79621 0.88405 0.0
C288 C 0.44242 0.79998 0.86267 0.0
C289 C 0.41984 0.79683 0.86153 0.0
C290 C 0.44172 0.79034 0.90401 0.0
C291 C 0.41932 0.78719 0.9021 0.0
N292 N 0.35035 0.76155 0.87219 0.0
C293 C 0.33198 0.72645 0.8588 0.0
C294 C 0.31288 0.73938 0.85437 0.0
C295 C 0.31259 0.76376 0.85992 0.0
C296 C 0.3314 0.77443 0.86915 0.0
C297 C 0.35027 0.73768 0.86735 0.0
H298 H 0.33076 0.79319 0.87304 0.0
H299 H 0.36466 0.72682 0.86871 0.0
H300 H 0.41175 0.79938 0.84465 0.0
H301 H 0.4111 0.78161 0.91778 0.0
C302 C 0.36489 0.829 0.89567 0.0
C303 C 0.36353 0.79132 0.8193 0.0
C304 C 0.3765 0.75375 0.93574 0.0
C305 C 0.40825 0.73152 0.85985 0.0
H306 H 0.3501 0.84102 0.81794 0.0
H307 H 0.35305 0.86236 0.85958 0.0
H308 H 0.3572 0.83299 0.94529 0.0
H309 H 0.36165 0.79135 0.96661 0.0
H310 H 0.40203 0.71014 0.9379 0.0
H311 H 0.42092 0.69859 0.89708 0.0
H312 H 0.41041 0.72606 0.80883 0.0
H313 H 0.3844 0.75786 0.78703 0.0
H314 H 0.45075 0.80514 0.84676 0.0
H315 H 0.44946 0.78708 0.92102 0.0
H316 H 0.33302 0.70762 0.85497 0.0
H317 H 0.298 0.77445 0.85723 0.0
C318 C 0.72388 0.84561 0.33596 0.0
C319 C 0.70408 0.83452 0.33564 0.0
C320 C 0.69629 0.83543 0.35815 0.0
C321 C 0.71187 0.84628 0.37122 0.0
N322 N 0.72907 0.85246 0.35836 0.0
Co323 Co 0.75629 0.86574 0.37141 0.0
N324 N 0.74917 0.85613 0.40453 0.0
C325 C 0.73001 0.84826 0.41179 0.0
C326 C 0.7296 0.84227 0.43532 0.0
C327 C 0.74968 0.84709 0.44376 0.0
C328 C 0.76116 0.85611 0.42485 0.0
N329 N 0.78287 0.88012 0.38491 0.0
C330 C 0.79134 0.87966 0.40737 0.0
C331 C 0.80892 0.89428 0.40907 0.0
C332 C 0.81134 0.90448 0.38716 0.0
C333 C 0.79511 0.89566 0.37327 0.0
N334 N 0.76341 0.87423 0.33818 0.0
C335 C 0.77838 0.88971 0.33171 0.0
C336 C 0.78029 0.89144 0.30749 0.0
C337 C 0.76562 0.87601 0.29821 0.0
C338 C 0.75555 0.8656 0.31729 0.0
N339 N 0.74152 0.89713 0.37574 0.0
C340 C 0.7346 0.94699 0.37582 0.0
C341 C 0.72868 0.93311 0.3562 0.0
C342 C 0.73191 0.90831 0.35667 0.0
C343 C 0.74168 0.93486 0.39633 0.0
C344 C 0.74486 0.91006 0.39598 0.0
N345 N 0.77218 0.83514 0.36577 0.0
C346 C 0.80441 0.81639 0.3495 0.0
C347 C 0.79355 0.79557 0.34403 0.0
C348 C 0.772 0.79445 0.35184 0.0
C349 C 0.76187 0.81409 0.36313 0.0
C350 C 0.79352 0.83577 0.35974 0.0
H351 H 0.74535 0.8125 0.36856 0.0
H352 H 0.80253 0.85164 0.36135 0.0
H353 H 0.72811 0.89843 0.34086 0.0
H354 H 0.75165 0.90177 0.41162 0.0
C355 C 0.71327 0.845 0.39576 0.0
C356 C 0.73741 0.84912 0.31492 0.0
C357 C 0.78194 0.86765 0.428 0.0
C358 C 0.79209 0.89955 0.34882 0.0
H359 H 0.69622 0.82557 0.32118 0.0
H360 H 0.68192 0.82714 0.36459 0.0
H361 H 0.71632 0.83517 0.44516 0.0
H362 H 0.75497 0.84504 0.46201 0.0
H363 H 0.81864 0.89763 0.42468 0.0
H364 H 0.82356 0.91676 0.38197 0.0
H365 H 0.79148 0.90206 0.29773 0.0
H366 H 0.76256 0.87289 0.27956 0.0
H367 H 0.72237 0.94143 0.34017 0.0
H368 H 0.74622 0.94453 0.4121 0.0
H369 H 0.82127 0.81831 0.34544 0.0
H370 H 0.76255 0.77893 0.34863 0.0
C371 C 0.67751 0.21998 0.84553 0.0
C372 C 0.68433 0.19649 0.84219 0.0
C373 C 0.68191 0.18507 0.8633 0.0
C374 C 0.67433 0.20213 0.87857 0.0
N375 N 0.6717 0.22367 0.86844 0.0
Co376 Co 0.66326 0.25351 0.88535 0.0
N377 N 0.67134 0.23966 0.91702 0.0
C378 C 0.67463 0.21633 0.92143 0.0
C379 C 0.67915 0.21121 0.94469 0.0
C380 C 0.67832 0.23258 0.95599 0.0
C381 C 0.67328 0.24973 0.93889 0.0
N382 N 0.65398 0.2828 0.90281 0.0
C383 C 0.65628 0.28904 0.92616 0.0
C384 C 0.64555 0.3105 0.9305 0.0
C385 C 0.63588 0.31754 0.90951 0.0
C386 C 0.64119 0.30013 0.89338 0.0
N387 N 0.65618 0.26698 0.8536 0.0
C388 C 0.64387 0.28655 0.84958 0.0
C389 C 0.6429 0.29246 0.82589 0.0
C390 C 0.65546 0.27554 0.81445 0.0
C391 C 0.66351 0.26017 0.83178 0.0
N392 N 0.63296 0.24247 0.88842 0.0
C393 C 0.58692 0.24178 0.89015 0.0
C394 C 0.59819 0.23656 0.86911 0.0
C395 C 0.62104 0.23676 0.86868 0.0
C396 C 0.59963 0.24489 0.91069 0.0
C397 C 0.6223 0.24512 0.90949 0.0
N398 N 0.69267 0.26627 0.88094 0.0
C399 C 0.71268 0.29996 0.86709 0.0
C400 C 0.73082 0.2857 0.86243 0.0
C401 C 0.72999 0.26148 0.86844 0.0
C402 C 0.71081 0.25214 0.87786 0.0
C403 C 0.69404 0.29009 0.87616 0.0
H404 H 0.71045 0.2334 0.88177 0.0
H405 H 0.68038 0.30196 0.87784 0.0
H406 H 0.62895 0.23377 0.85192 0.0
H407 H 0.63099 0.24903 0.92555 0.0
C408 C 0.67501 0.19989 0.90309 0.0
C409 C 0.67669 0.23831 0.82683 0.0
C410 C 0.667 0.27437 0.94503 0.0
C411 C 0.63684 0.30071 0.86876 0.0
H412 H 0.69122 0.18824 0.82664 0.0
H413 H 0.68689 0.16698 0.86749 0.0
H414 H 0.68257 0.19397 0.95254 0.0
H415 H 0.68019 0.23491 0.97492 0.0
H416 H 0.64452 0.31988 0.94721 0.0
H417 H 0.62641 0.33366 0.90634 0.0
H418 H 0.63482 0.3078 0.81795 0.0
H419 H 0.65836 0.27457 0.79557 0.0
H420 H 0.58948 0.23366 0.85269 0.0
H421 H 0.59212 0.24802 0.9277 0.0
H422 H 0.71266 0.31879 0.86314 0.0
H423 H 0.7439 0.24983 0.86565 0.0
C424 C 0.31033 0.83862 0.6838 0.0
C425 C 0.33011 0.82633 0.68359 0.0
C426 C 0.3374 0.82687 0.66091 0.0
C427 C 0.32153 0.83865 0.64828 0.0
N428 N 0.30453 0.84575 0.66151 0.0
Co429 Co 0.27679 0.86016 0.64895 0.0
N430 N 0.28389 0.85114 0.61543 0.0
C431 C 0.3031 0.84246 0.60793 0.0
C432 C 0.30365 0.83721 0.58425 0.0
C433 C 0.28362 0.84337 0.57588 0.0
C434 C 0.27203 0.85242 0.59499 0.0
N435 N 0.24961 0.87537 0.63576 0.0
C436 C 0.24105 0.87578 0.61325 0.0
C437 C 0.22294 0.89071 0.61209 0.0
C438 C 0.22025 0.90024 0.63432 0.0
C439 C 0.23686 0.89074 0.64788 0.0
N440 N 0.26989 0.86832 0.68245 0.0
C441 C 0.25438 0.88392 0.68922 0.0
C442 C 0.25293 0.88582 0.71347 0.0
C443 C 0.26852 0.87041 0.72249 0.0
C444 C 0.27866 0.85981 0.70325 0.0
N445 N 0.29068 0.89142 0.64517 0.0
C446 C 0.29599 0.94132 0.64844 0.0
C447 C 0.3042 0.92561 0.66601 0.0
C448 C 0.30146 0.90097 0.66403 0.0
C449 C 0.28759 0.93085 0.6278 0.0
C450 C 0.28549 0.90602 0.62636 0.0
N451 N 0.26166 0.82977 0.65449 0.0
C452 C 0.23021 0.81195 0.67189 0.0
C453 C 0.2416 0.79072 0.67706 0.0
C454 C 0.263 0.78898 0.66861 0.0
C455 C 0.27249 0.80837 0.65702 0.0
C456 C 0.2404 0.83098 0.6611 0.0
H457 H 0.28895 0.80626 0.65127 0.0
H458 H 0.23094 0.84708 0.65959 0.0
H459 H 0.30663 0.88987 0.67872 0.0
H460 H 0.27806 0.899 0.61065 0.0
C461 C 0.31986 0.83789 0.6238 0.0
C462 C 0.29765 0.84326 0.7054 0.0
C463 C 0.25093 0.86458 0.59205 0.0
C464 C 0.24007 0.89409 0.67237 0.0
H465 H 0.3383 0.81692 0.69786 0.0
H466 H 0.35169 0.81788 0.65409 0.0
H467 H 0.31701 0.82968 0.57427 0.0
H468 H 0.27841 0.84202 0.55757 0.0
H469 H 0.2131 0.8948 0.5966 0.0
H470 H 0.20767 0.91264 0.6399 0.0
H471 H 0.24154 0.89664 0.72344 0.0
H472 H 0.27215 0.86748 0.74109 0.0
H473 H 0.31194 0.93227 0.68184 0.0
H474 H 0.28136 0.9417 0.61333 0.0
H475 H 0.21343 0.81439 0.67658 0.0
H476 H 0.27286 0.77312 0.67157 0.0
C477 C 0.68126 0.81202 0.17998 0.0
C478 C 0.68733 0.83536 0.18333 0.0
C479 C 0.68506 0.84649 0.16185 0.0
C480 C 0.67785 0.82942 0.14663 0.0
N481 N 0.67538 0.80824 0.15714 0.0
Co482 Co 0.66579 0.77881 0.14126 0.0
N483 N 0.67334 0.79122 0.10932 0.0
C484 C 0.67671 0.81418 0.10414 0.0
C485 C 0.6805 0.8182 0.08061 0.0
C486 C 0.67913 0.79651 0.07004 0.0
C487 C 0.67451 0.78034 0.08783 0.0
N488 N 0.65555 0.74979 0.12481 0.0
C489 C 0.65769 0.74251 0.10181 0.0
C490 C 0.6465 0.72188 0.09793 0.0
C491 C 0.63678 0.71636 0.119 0.0
C492 C 0.64251 0.73385 0.13464 0.0
N493 N 0.65878 0.76683 0.1733 0.0
C494 C 0.64582 0.74872 0.17788 0.0
C495 C 0.64456 0.744 0.20178 0.0
C496 C 0.65759 0.7602 0.21277 0.0
C497 C 0.66616 0.77394 0.19495 0.0
N498 N 0.63596 0.7926 0.13812 0.0
C499 C 0.59046 0.80122 0.13805 0.0
C500 C 0.60338 0.80628 0.15799 0.0
C501 C 0.62587 0.80208 0.1576 0.0
C502 C 0.60134 0.79329 0.11761 0.0
C503 C 0.62389 0.78929 0.11795 0.0
N504 N 0.69495 0.76378 0.14592 0.0
C505 C 0.7143 0.72983 0.16305 0.0
C506 C 0.73252 0.74321 0.16786 0.0
C507 C 0.73199 0.76692 0.15968 0.0
C508 C 0.71323 0.77673 0.14851 0.0
C509 C 0.69603 0.74024 0.15218 0.0
H510 H 0.71314 0.79516 0.14322 0.0
H511 H 0.68218 0.72934 0.15079 0.0
H512 H 0.63494 0.80533 0.17364 0.0
H513 H 0.63134 0.78245 0.10208 0.0
C514 C 0.67784 0.83118 0.12201 0.0
C515 C 0.68032 0.79435 0.19905 0.0
C516 C 0.6686 0.75573 0.08287 0.0
C517 C 0.63826 0.73451 0.15918 0.0
H518 H 0.69302 0.84351 0.1995 0.0
H519 H 0.68938 0.86447 0.15759 0.0
H520 H 0.68387 0.83492 0.07212 0.0
H521 H 0.68052 0.79322 0.05121 0.0
H522 H 0.64517 0.71214 0.08148 0.0
H523 H 0.62697 0.70118 0.12255 0.0
H524 H 0.63595 0.72987 0.21019 0.0
H525 H 0.66053 0.76168 0.23165 0.0
H526 H 0.59615 0.81247 0.17434 0.0
H527 H 0.5925 0.78979 0.1014 0.0
H528 H 0.71342 0.71163 0.16902 0.0
H529 H 0.74577 0.77803 0.16235 0.0
C530 C 0.71447 0.18549 0.68659 0.0
C531 C 0.69324 0.19392 0.68786 0.0
C532 C 0.68607 0.19678 0.66515 0.0
C533 C 0.70325 0.19018 0.65135 0.0
N534 N 0.72105 0.18324 0.66365 0.0
Co535 Co 0.74927 0.17179 0.64955 0.0
N536 N 0.73917 0.17947 0.61628 0.0
C537 C 0.71924 0.18756 0.61007 0.0
C538 C 0.71622 0.19094 0.58625 0.0
C539 C 0.73538 0.18446 0.57636 0.0
C540 C 0.74916 0.17753 0.59485 0.0
N541 N 0.77696 0.15971 0.63485 0.0
C542 C 0.78338 0.15842 0.61159 0.0
C543 C 0.8037 0.14779 0.60985 0.0
C544 C 0.81022 0.1421 0.63251 0.0
C545 C 0.79359 0.14956 0.64689 0.0
N546 N 0.75912 0.1648 0.68293 0.0
C547 C 0.77812 0.15437 0.68903 0.0
C548 C 0.78117 0.15266 0.71315 0.0
C549 C 0.76296 0.16274 0.723 0.0
C550 C 0.74976 0.17009 0.70432 0.0
N551 N 0.73811 0.13883 0.64717 0.0
C552 C 0.73474 0.0885 0.65095 0.0
C553 C 0.72682 0.10398 0.66864 0.0
C554 C 0.72869 0.12871 0.66647 0.0
C555 C 0.74219 0.09929 0.63013 0.0
C556 C 0.74336 0.12425 0.62847 0.0
N557 N 0.76202 0.20397 0.65335 0.0
C558 C 0.79482 0.22612 0.64899 0.0
C559 C 0.79274 0.23605 0.67188 0.0
C560 C 0.77308 0.23224 0.68327 0.0
C561 C 0.75786 0.21707 0.67336 0.0
C562 C 0.77933 0.21045 0.64008 0.0
H563 H 0.7434 0.21514 0.68309 0.0
H564 H 0.78214 0.20277 0.62293 0.0
H565 H 0.72354 0.1394 0.68123 0.0
H566 H 0.74967 0.13144 0.61241 0.0
C567 C 0.70356 0.19175 0.62693 0.0
C568 C 0.72817 0.18142 0.70766 0.0
C569 C 0.7709 0.16745 0.59072 0.0
C570 C 0.79303 0.1477 0.67163 0.0
H571 H 0.68395 0.19813 0.70352 0.0
H572 H 0.67036 0.20347 0.65937 0.0
H573 H 0.70167 0.19705 0.57711 0.0
H574 H 0.73847 0.18423 0.55752 0.0
H575 H 0.81284 0.14459 0.59385 0.0
H576 H 0.82535 0.13359 0.63787 0.0
H577 H 0.79513 0.14529 0.7225 0.0
H578 H 0.75973 0.16453 0.74176 0.0
H579 H 0.71975 0.09713 0.68464 0.0
H580 H 0.74818 0.08863 0.61553 0.0
H581 H 0.80858 0.22974 0.63805 0.0
H582 H 0.7695 0.23983 0.70042 0.0
C583 C 0.37799 0.22094 0.18526 0.0
C584 C 0.37454 0.19677 0.18724 0.0
C585 C 0.37938 0.18696 0.16562 0.0
C586 C 0.38572 0.20558 0.15185 0.0
N587 N 0.3853 0.22638 0.16347 0.0
Co588 Co 0.39473 0.2571 0.15069 0.0
N589 N 0.39021 0.24646 0.1174 0.0
C590 C 0.3885 0.22365 0.11056 0.0
C591 C 0.38685 0.22095 0.08649 0.0
C592 C 0.38798 0.24336 0.07744 0.0
C593 C 0.39028 0.25871 0.09659 0.0
N594 N 0.40526 0.28743 0.13759 0.0
C595 C 0.40459 0.29625 0.11507 0.0
C596 C 0.41465 0.31795 0.11416 0.0
C597 C 0.42242 0.32237 0.13656 0.0
C598 C 0.41662 0.30331 0.15004 0.0
N599 N 0.3983 0.26734 0.18415 0.0
C600 C 0.40955 0.286 0.19156 0.0
C601 C 0.40649 0.29067 0.21524 0.0
C602 C 0.39242 0.27393 0.22307 0.0
C603 C 0.38781 0.25962 0.20377 0.0
N604 N 0.42495 0.2447 0.15018 0.0
C605 C 0.47021 0.23712 0.15322 0.0
C606 C 0.45673 0.23157 0.17226 0.0
C607 C 0.43425 0.23522 0.1703 0.0
C608 C 0.46023 0.24491 0.13208 0.0
C609 C 0.43776 0.24856 0.13092 0.0
N610 N 0.36494 0.2706 0.15242 0.0
C611 C 0.34301 0.30325 0.16749 0.0
C612 C 0.32522 0.28888 0.1693 0.0
C613 C 0.32708 0.26547 0.16084 0.0
C614 C 0.3471 0.25673 0.15215 0.0
C615 C 0.36249 0.29391 0.15911 0.0
H616 H 0.34838 0.23847 0.14646 0.0
H617 H 0.37586 0.30551 0.15988 0.0
H618 H 0.4245 0.23143 0.18554 0.0
H619 H 0.431 0.25576 0.11474 0.0
C620 C 0.38752 0.20532 0.12722 0.0
C621 C 0.37421 0.23828 0.20424 0.0
C622 C 0.39622 0.28376 0.09392 0.0
C623 C 0.41834 0.30152 0.1749 0.0
H624 H 0.36877 0.18729 0.20252 0.0
H625 H 0.37733 0.16872 0.16025 0.0
H626 H 0.38531 0.20459 0.07665 0.0
H627 H 0.38829 0.24756 0.05873 0.0
H628 H 0.41642 0.32931 0.09886 0.0
H629 H 0.43074 0.33798 0.14243 0.0
H630 H 0.41249 0.30552 0.22527 0.0
H631 H 0.38597 0.27298 0.24077 0.0
H632 H 0.46352 0.22495 0.18882 0.0
H633 H 0.46979 0.24948 0.11683 0.0
H634 H 0.34213 0.32151 0.17351 0.0
H635 H 0.31344 0.2539 0.16154 0.0
C636 C 0.83974 0.66472 0.7764 0.0
C637 C 0.82335 0.65772 0.76135 0.0
C638 C 0.83283 0.64319 0.74451 0.0
C639 C 0.85448 0.64214 0.75013 0.0
N640 N 0.85912 0.65498 0.76945 0.0
Co641 Co 0.88861 0.66047 0.78213 0.0
N642 N 0.90338 0.64866 0.75286 0.0
C643 C 0.89379 0.63564 0.73593 0.0
C644 C 0.90781 0.6284 0.71846 0.0
C645 C 0.92753 0.63697 0.72501 0.0
C646 C 0.92454 0.64914 0.74614 0.0
N647 N 0.91799 0.66681 0.7952 0.0
C648 C 0.93774 0.66675 0.78474 0.0
C649 C 0.95371 0.67267 0.80098 0.0
C650 C 0.94393 0.67534 0.82244 0.0
C651 C 0.92256 0.67135 0.81816 0.0
N652 N 0.87432 0.67119 0.81193 0.0
C653 C 0.88389 0.6731 0.83331 0.0
C654 C 0.86997 0.68037 0.85081 0.0
C655 C 0.85037 0.68343 0.83972 0.0
C656 C 0.85355 0.67796 0.81599 0.0
N657 N 0.89026 0.62738 0.79462 0.0
C658 C 0.88782 0.57738 0.80126 0.0
C659 C 0.90683 0.58785 0.7933 0.0
C660 C 0.90782 0.61268 0.79051 0.0
C661 C 0.87085 0.59311 0.80784 0.0
C662 C 0.8723 0.61771 0.80424 0.0
N663 N 0.88544 0.69304 0.76832 0.0
C664 C 0.87017 0.73291 0.77274 0.0
C665 C 0.86403 0.73399 0.74854 0.0
C666 C 0.87151 0.71519 0.73428 0.0
C667 C 0.88184 0.69517 0.74434 0.0
C668 C 0.88114 0.71259 0.78212 0.0
H669 H 0.88529 0.68085 0.73239 0.0
H670 H 0.88474 0.71221 0.80088 0.0
H671 H 0.9225 0.61973 0.78372 0.0
H672 H 0.85832 0.62877 0.80817 0.0
C673 C 0.87124 0.63309 0.73579 0.0
C674 C 0.8366 0.67965 0.7978 0.0
C675 C 0.94256 0.65854 0.76049 0.0
C676 C 0.90629 0.67298 0.83505 0.0
H677 H 0.80641 0.66269 0.76233 0.0
H678 H 0.82497 0.63532 0.72934 0.0
H679 H 0.90411 0.6183 0.7027 0.0
H680 H 0.94251 0.63411 0.71561 0.0
H681 H 0.9708 0.67419 0.79789 0.0
H682 H 0.95152 0.67969 0.83919 0.0
H683 H 0.87384 0.68438 0.8691 0.0
H684 H 0.83555 0.68951 0.84802 0.0
H685 H 0.92064 0.57702 0.78809 0.0
H686 H 0.85608 0.58656 0.81515 0.0
H687 H 0.86566 0.74701 0.78485 0.0
H688 H 0.86885 0.71529 0.7153 0.0
C689 C 0.88927 0.33381 0.28078 0.0
C690 C 0.89649 0.31449 0.26764 0.0
C691 C 0.9111 0.32302 0.25162 0.0
C692 C 0.91202 0.34704 0.25587 0.0
N693 N 0.89899 0.35396 0.27359 0.0
Co694 Co 0.89328 0.38716 0.2839 0.0
N695 N 0.90519 0.40095 0.25441 0.0
C696 C 0.91823 0.38902 0.23926 0.0
C697 C 0.92516 0.40308 0.22108 0.0
C698 C 0.9163 0.42528 0.22532 0.0
C699 C 0.90441 0.42365 0.24597 0.0
N700 N 0.88668 0.42024 0.29454 0.0
C701 C 0.88658 0.44117 0.2825 0.0
C702 C 0.88193 0.46008 0.29765 0.0
C703 C 0.8795 0.45078 0.31981 0.0
C704 C 0.88273 0.42682 0.31711 0.0
N705 N 0.88226 0.37369 0.31387 0.0
C706 C 0.87993 0.38529 0.33455 0.0
C707 C 0.87183 0.37141 0.35221 0.0
C708 C 0.86877 0.34973 0.34194 0.0
C709 C 0.87527 0.35166 0.31853 0.0
N710 N 0.92269 0.38833 0.29809 0.0
C711 C 0.96777 0.38546 0.30731 0.0
C712 C 0.95769 0.40656 0.29906 0.0
C713 C 0.9353 0.40765 0.29468 0.0
C714 C 0.9543 0.36651 0.31263 0.0
C715 C 0.93196 0.36836 0.30812 0.0
N716 N 0.86449 0.38469 0.26859 0.0
C717 C 0.82665 0.37544 0.27151 0.0
C718 C 0.82675 0.36553 0.24853 0.0
C719 C 0.84547 0.36789 0.23522 0.0
C720 C 0.86387 0.37744 0.24539 0.0
C721 C 0.84569 0.38497 0.2812 0.0
H722 H 0.87804 0.37701 0.23466 0.0
H723 H 0.84553 0.39115 0.29933 0.0
H724 H 0.9285 0.42381 0.28723 0.0
H725 H 0.92235 0.35307 0.31162 0.0
C726 C 0.92109 0.36416 0.24103 0.0
C727 C 0.87438 0.33256 0.30104 0.0
C728 C 0.89418 0.44438 0.25802 0.0
C729 C 0.88067 0.40996 0.33505 0.0
H730 H 0.89165 0.29628 0.26943 0.0
H731 H 0.91918 0.31306 0.23773 0.0
H732 H 0.93511 0.39776 0.20623 0.0
H733 H 0.91862 0.44096 0.21465 0.0
H734 H 0.88134 0.47883 0.29351 0.0
H735 H 0.87591 0.46039 0.33598 0.0
H736 H 0.86731 0.37682 0.36994 0.0
H737 H 0.86203 0.33453 0.35061 0.0
H738 H 0.96715 0.42181 0.29472 0.0
H739 H 0.96102 0.35001 0.3197 0.0
H740 H 0.81246 0.37452 0.28248 0.0
H741 H 0.84626 0.36156 0.2171 0.0
C742 C 0.18075 0.32636 0.76112 0.0
C743 C 0.17986 0.30908 0.77861 0.0
C744 C 0.1718 0.32 0.79852 0.0
C745 C 0.16846 0.3434 0.79241 0.0
N746 N 0.17376 0.34797 0.76983 0.0
Co747 Co 0.17606 0.38048 0.75576 0.0
N748 N 0.17001 0.39734 0.78644 0.0
C749 C 0.16379 0.38677 0.80654 0.0
C750 C 0.15958 0.40255 0.82459 0.0
C751 C 0.16325 0.42458 0.81528 0.0
C752 C 0.16951 0.42103 0.792 0.0
N753 N 0.17964 0.41265 0.74125 0.0
C754 C 0.18051 0.43467 0.75116 0.0
C755 C 0.18259 0.45206 0.73389 0.0
C756 C 0.18245 0.4408 0.7125 0.0
C757 C 0.18041 0.41726 0.71779 0.0
N758 N 0.18005 0.36427 0.72456 0.0
C759 C 0.17773 0.37472 0.7032 0.0
C760 C 0.17675 0.35899 0.68471 0.0
C761 C 0.17865 0.33707 0.69499 0.0
C762 C 0.1811 0.3408 0.71919 0.0
N763 N 0.14427 0.38219 0.749 0.0
C764 C 0.09835 0.38413 0.74343 0.0
C765 C 0.11013 0.40439 0.74902 0.0
C766 C 0.13271 0.4031 0.75156 0.0
C767 C 0.11041 0.36281 0.74048 0.0
C768 C 0.13311 0.36223 0.74329 0.0
N769 N 0.20787 0.3778 0.76396 0.0
C770 C 0.23929 0.35082 0.76576 0.0
C771 C 0.24548 0.35934 0.78819 0.0
C772 C 0.23416 0.37975 0.79616 0.0
C773 C 0.21585 0.38874 0.78382 0.0
C774 C 0.22106 0.36076 0.75376 0.0
H775 H 0.20801 0.40414 0.79123 0.0
H776 H 0.21744 0.35376 0.73662 0.0
H777 H 0.1406 0.4192 0.75608 0.0
H778 H 0.14154 0.34542 0.74104 0.0
C779 C 0.16358 0.36199 0.80811 0.0
C780 C 0.18724 0.32192 0.73609 0.0
C781 C 0.17584 0.44048 0.77606 0.0
C782 C 0.17839 0.39924 0.70115 0.0
H783 H 0.18483 0.29065 0.77762 0.0
H784 H 0.16971 0.31202 0.81579 0.0
H785 H 0.15481 0.39852 0.84254 0.0
H786 H 0.16179 0.44131 0.82461 0.0
H787 H 0.18285 0.47109 0.73632 0.0
H788 H 0.18302 0.44892 0.69511 0.0
H789 H 0.17541 0.36299 0.66596 0.0
H790 H 0.17911 0.32026 0.68571 0.0
H791 H 0.102 0.42134 0.75202 0.0
H792 H 0.10245 0.34658 0.73583 0.0
H793 H 0.24781 0.33592 0.75774 0.0
H794 H 0.23903 0.38865 0.81226 0.0
C795 C 0.17204 0.69755 0.28092 0.0
C796 C 0.16192 0.71527 0.26751 0.0
C797 C 0.14853 0.70412 0.25163 0.0
C798 C 0.15113 0.68021 0.25618 0.0
N799 N 0.16523 0.67575 0.27393 0.0
Co800 Co 0.17449 0.64367 0.28533 0.0
N801 N 0.1632 0.62714 0.25663 0.0
C802 C 0.1487 0.63691 0.24131 0.0
C803 C 0.14213 0.62118 0.22426 0.0
C804 C 0.1528 0.60007 0.22947 0.0
C805 C 0.16537 0.60402 0.24946 0.0
N806 N 0.18467 0.61177 0.29706 0.0
C807 C 0.1861 0.5903 0.28605 0.0
C808 C 0.19333 0.57267 0.30172 0.0
C809 C 0.19599 0.58324 0.32327 0.0
C810 C 0.19036 0.60663 0.31966 0.0
N811 N 0.18493 0.65965 0.31457 0.0
C812 C 0.18947 0.64898 0.33546 0.0
C813 C 0.19689 0.66423 0.35242 0.0
C814 C 0.19719 0.6859 0.34154 0.0
C815 C 0.18981 0.68264 0.31844 0.0
N816 N 0.14564 0.63946 0.29986 0.0
C817 C 0.10029 0.63674 0.30616 0.0
C818 C 0.11308 0.61659 0.30053 0.0
C819 C 0.13547 0.61827 0.29764 0.0
C820 C 0.11121 0.65789 0.31053 0.0
C821 C 0.13378 0.65877 0.30768 0.0
N822 N 0.20238 0.64916 0.26932 0.0
C823 C 0.23872 0.66417 0.27074 0.0
C824 C 0.23723 0.67178 0.2469 0.0
C825 C 0.21846 0.66617 0.2344 0.0
C826 C 0.20158 0.65497 0.2457 0.0
C827 C 0.22127 0.65264 0.2815 0.0
H828 H 0.1872 0.65297 0.23534 0.0
H829 H 0.22269 0.64774 0.29998 0.0
H830 H 0.1442 0.60256 0.29202 0.0
H831 H 0.14143 0.67553 0.31051 0.0
C832 C 0.14354 0.66143 0.2422 0.0
C833 C 0.18709 0.70187 0.301 0.0
C834 C 0.17765 0.58498 0.26223 0.0
C835 C 0.19142 0.62438 0.33676 0.0
H836 H 0.16406 0.7342 0.26902 0.0
H837 H 0.13875 0.71246 0.2378 0.0
H838 H 0.13106 0.62465 0.20965 0.0
H839 H 0.15115 0.58353 0.21999 0.0
H840 H 0.1955 0.55388 0.29828 0.0
H841 H 0.20124 0.57481 0.33967 0.0
H842 H 0.20276 0.65987 0.37007 0.0
H843 H 0.20264 0.7021 0.34962 0.0
H844 H 0.10575 0.59971 0.29705 0.0
H845 H 0.10236 0.67386 0.31568 0.0
H846 H 0.25303 0.66752 0.28121 0.0
H847 H 0.21601 0.67175 0.21618 0.0
C848 C 0.77384 0.83266 0.65726 0.0
C849 C 0.76001 0.81447 0.65183 0.0
C850 C 0.74356 0.82432 0.63818 0.0
C851 C 0.74799 0.848 0.63621 0.0
N852 N 0.76623 0.85359 0.64766 0.0
Co853 Co 0.77639 0.88631 0.65325 0.0
N854 N 0.74859 0.90188 0.64283 0.0
C855 C 0.73301 0.89086 0.6306 0.0
C856 C 0.71595 0.90578 0.62463 0.0
C857 C 0.72129 0.92767 0.63319 0.0
C858 C 0.74145 0.92501 0.64391 0.0
N859 N 0.78687 0.91886 0.66025 0.0
C860 C 0.77629 0.94038 0.66114 0.0
C861 C 0.79071 0.95843 0.66539 0.0
C862 C 0.81084 0.9481 0.6666 0.0
C863 C 0.80777 0.92441 0.66309 0.0
N864 N 0.80475 0.87136 0.66189 0.0
C865 C 0.82375 0.88229 0.66209 0.0
C866 C 0.841 0.86724 0.66684 0.0
C867 C 0.83229 0.84543 0.67002 0.0
C868 C 0.8101 0.84856 0.66732 0.0
N869 N 0.78605 0.88867 0.61972 0.0
C870 C 0.78942 0.88951 0.56943 0.0
C871 C 0.78476 0.91023 0.58252 0.0
C872 C 0.78311 0.90943 0.60732 0.0
C873 C 0.79428 0.86875 0.58252 0.0
C874 C 0.79271 0.86876 0.60751 0.0
N875 N 0.76548 0.88249 0.68633 0.0
C876 C 0.7712 0.86454 0.72521 0.0
C877 C 0.74909 0.8596 0.72731 0.0
C878 C 0.73538 0.86887 0.70955 0.0
C879 C 0.74372 0.87993 0.68953 0.0
C880 C 0.77894 0.87639 0.70494 0.0
H881 H 0.7321 0.88487 0.67617 0.0
H882 H 0.79604 0.87923 0.70389 0.0
H883 H 0.7783 0.92557 0.61616 0.0
H884 H 0.79581 0.85226 0.6168 0.0
C885 C 0.7337 0.86603 0.62809 0.0
C886 C 0.79454 0.8298 0.67065 0.0
C887 C 0.75372 0.94513 0.65358 0.0
C888 C 0.82413 0.90695 0.66259 0.0
H889 H 0.76125 0.79616 0.65747 0.0
H890 H 0.72937 0.81549 0.63176 0.0
H891 H 0.70114 0.90122 0.61564 0.0
H892 H 0.71151 0.94378 0.63157 0.0
H893 H 0.78741 0.97734 0.66606 0.0
H894 H 0.82598 0.95692 0.6691 0.0
H895 H 0.85775 0.87178 0.66903 0.0
H896 H 0.84121 0.82921 0.67438 0.0
H897 H 0.78165 0.92703 0.57364 0.0
H898 H 0.7982 0.85223 0.57356 0.0
H899 H 0.78272 0.85845 0.73854 0.0
H900 H 0.71808 0.86708 0.71057 0.0
C901 C 0.67757 0.267 0.20174 0.0
C902 C 0.67295 0.28587 0.21687 0.0
C903 C 0.66047 0.30207 0.20427 0.0
C904 C 0.65856 0.29282 0.18187 0.0
N905 N 0.66914 0.27182 0.17963 0.0
Co906 Co 0.67556 0.25581 0.14891 0.0
N907 N 0.66654 0.28396 0.12916 0.0
C908 C 0.65457 0.30249 0.13721 0.0
C909 C 0.64948 0.31884 0.11982 0.0
C910 C 0.65843 0.30985 0.09941 0.0
C911 C 0.66857 0.28843 0.10544 0.0
N912 N 0.68298 0.23949 0.11846 0.0
C913 C 0.68464 0.24791 0.09585 0.0
C914 C 0.68895 0.22949 0.08007 0.0
C915 C 0.68946 0.20894 0.09297 0.0
C916 C 0.68554 0.21582 0.11588 0.0
N917 N 0.68326 0.22713 0.16804 0.0
C918 C 0.68343 0.20478 0.15974 0.0
C919 C 0.6861 0.18798 0.17718 0.0
C920 C 0.68788 0.20057 0.19782 0.0
C921 C 0.68676 0.22449 0.1917 0.0
N922 N 0.64545 0.24491 0.14655 0.0
C923 C 0.60057 0.23632 0.14447 0.0
C924 C 0.61225 0.2418 0.12401 0.0
C925 C 0.63446 0.24582 0.12538 0.0
C926 C 0.61227 0.23437 0.1659 0.0
C927 C 0.63453 0.23866 0.16655 0.0
N928 N 0.70524 0.26791 0.15253 0.0
C929 C 0.74086 0.26252 0.17016 0.0
C930 C 0.7422 0.28708 0.1745 0.0
C931 C 0.72562 0.30174 0.16532 0.0
C932 C 0.70757 0.29197 0.15451 0.0
C933 C 0.72239 0.25334 0.15892 0.0
H934 H 0.69493 0.30432 0.14951 0.0
H935 H 0.7215 0.23436 0.15681 0.0
H936 H 0.64247 0.2505 0.10928 0.0
H937 H 0.64278 0.23749 0.18345 0.0
C938 C 0.65147 0.3055 0.16167 0.0
C939 C 0.68891 0.24416 0.20872 0.0
C940 C 0.67872 0.27219 0.08791 0.0
C941 C 0.68448 0.20061 0.13539 0.0
H942 H 0.67859 0.28856 0.23478 0.0
H943 H 0.65495 0.31942 0.21026 0.0
H944 H 0.64078 0.33562 0.12183 0.0
H945 H 0.65745 0.31803 0.08205 0.0
H946 H 0.69036 0.23058 0.06098 0.0
H947 H 0.69195 0.19106 0.08635 0.0
H948 H 0.68734 0.1689 0.1751 0.0
H949 H 0.68993 0.19291 0.21532 0.0
H950 H 0.60424 0.24383 0.10697 0.0
H951 H 0.60433 0.22967 0.1822 0.0
H952 H 0.75344 0.25031 0.17639 0.0
H953 H 0.72615 0.32085 0.16712 0.0
C954 C 0.2593 0.19792 0.66752 0.0
C955 C 0.27479 0.21524 0.66856 0.0
C956 C 0.29396 0.2046 0.66233 0.0
C957 C 0.28939 0.18135 0.65814 0.0
N958 N 0.26833 0.17649 0.66066 0.0
Co959 Co 0.2569 0.14343 0.66298 0.0
N960 N 0.28488 0.12772 0.65308 0.0
C961 C 0.30365 0.13879 0.6503 0.0
C962 C 0.32031 0.12384 0.64354 0.0
C963 C 0.31161 0.1018 0.64209 0.0
C964 C 0.29003 0.10451 0.64807 0.0
N965 N 0.24553 0.11063 0.66685 0.0
C966 C 0.25438 0.08885 0.66171 0.0
C967 C 0.24021 0.0709 0.66684 0.0
C968 C 0.22207 0.08155 0.6758 0.0
C969 C 0.22598 0.10534 0.67548 0.0
N970 N 0.22847 0.15878 0.67144 0.0
C971 C 0.21021 0.14751 0.67652 0.0
C972 C 0.19234 0.16227 0.67778 0.0
C973 C 0.19982 0.1845 0.67396 0.0
C974 C 0.22203 0.18203 0.67132 0.0
N975 N 0.24808 0.14396 0.62894 0.0
C976 C 0.23831 0.14231 0.57973 0.0
C977 C 0.22376 0.13416 0.59665 0.0
C978 C 0.22901 0.13491 0.62102 0.0
C979 C 0.25757 0.15176 0.58809 0.0
C980 C 0.26197 0.15266 0.61249 0.0
N981 N 0.26692 0.14357 0.69662 0.0
C982 C 0.27562 0.17122 0.72776 0.0
C983 C 0.2961 0.16044 0.73083 0.0
C984 C 0.29981 0.1385 0.7195 0.0
C985 C 0.28465 0.13001 0.70314 0.0
C986 C 0.26109 0.16209 0.71113 0.0
H987 H 0.28844 0.11354 0.69424 0.0
H988 H 0.24594 0.17137 0.70892 0.0
H989 H 0.21766 0.12784 0.63322 0.0
H990 H 0.27695 0.16016 0.61782 0.0
C991 C 0.3047 0.16328 0.65357 0.0
C992 C 0.23661 0.20187 0.67509 0.0
C993 C 0.27584 0.08422 0.65157 0.0
C994 C 0.21036 0.12303 0.67932 0.0
H995 H 0.27302 0.23339 0.67437 0.0
H996 H 0.30963 0.21263 0.66214 0.0
H997 H 0.33686 0.12838 0.6402 0.0
H998 H 0.32031 0.08546 0.63789 0.0
H999 H 0.24236 0.05205 0.66382 0.0
H1000 H 0.20733 0.07305 0.68075 0.0
H1001 H 0.17591 0.15751 0.68148 0.0
H1002 H 0.19034 0.20087 0.67501 0.0
H1003 H 0.20864 0.12666 0.59108 0.0
H1004 H 0.26921 0.15864 0.57582 0.0
H1005 H 0.27106 0.18715 0.73742 0.0
H1006 H 0.31485 0.12858 0.72192 0.0
C1007 C 0.38244 0.7702 0.19057 0.0
C1008 C 0.38913 0.7541 0.20793 0.0
C1009 C 0.4027 0.73775 0.1971 0.0
C1010 C 0.40343 0.74444 0.17366 0.0
N1011 N 0.39126 0.76401 0.16921 0.0
Co1012 Co 0.38413 0.77692 0.13721 0.0
N1013 N 0.39465 0.74785 0.12025 0.0
C1014 C 0.40775 0.731 0.13007 0.0
C1015 C 0.41396 0.71373 0.11417 0.0
C1016 C 0.40457 0.72036 0.09293 0.0
C1017 C 0.39303 0.74138 0.09697 0.0
N1018 N 0.37568 0.79011 0.10547 0.0
C1019 C 0.37413 0.7796 0.08377 0.0
C1020 C 0.36813 0.79619 0.0665 0.0
C1021 C 0.36655 0.81775 0.07749 0.0
C1022 C 0.3715 0.81326 0.10083 0.0
N1023 N 0.375 0.80662 0.15357 0.0
C1024 C 0.37313 0.82821 0.14351 0.0
C1025 C 0.36773 0.84578 0.15941 0.0
C1026 C 0.36588 0.83446 0.18078 0.0
C1027 C 0.37002 0.8105 0.17658 0.0
N1028 N 0.41386 0.78921 0.13404 0.0
C1029 C 0.45933 0.79447 0.13155 0.0
C1030 C 0.44682 0.78983 0.11125 0.0
C1031 C 0.42439 0.78741 0.11282 0.0
C1032 C 0.44808 0.7985 0.15282 0.0
C1033 C 0.42546 0.79591 0.15366 0.0
N1034 N 0.3551 0.76315 0.14162 0.0
C1035 C 0.31923 0.76659 0.15865 0.0
C1036 C 0.31899 0.74199 0.16274 0.0
C1037 C 0.33637 0.72826 0.15451 0.0
C1038 C 0.35406 0.73898 0.14432 0.0
C1039 C 0.33721 0.77675 0.14753 0.0
H1040 H 0.36735 0.72726 0.14028 0.0
H1041 H 0.33698 0.79572 0.14488 0.0
H1042 H 0.4159 0.78271 0.09689 0.0
H1043 H 0.41756 0.79813 0.17053 0.0
C1044 C 0.41125 0.73045 0.15478 0.0
C1045 C 0.36848 0.79178 0.19452 0.0
C1046 C 0.3821 0.75542 0.07789 0.0
C1047 C 0.37164 0.83021 0.1189 0.0
H1048 H 0.3844 0.75366 0.22631 0.0
H1049 H 0.40996 0.72197 0.20509 0.0
H1050 H 0.42379 0.69794 0.11768 0.0
H1051 H 0.40622 0.71095 0.07629 0.0
H1052 H 0.36628 0.79333 0.04763 0.0
H1053 H 0.3626 0.83473 0.06935 0.0
H1054 H 0.36419 0.86433 0.15567 0.0
H1055 H 0.36141 0.84278 0.19738 0.0
H1056 H 0.45439 0.78732 0.09417 0.0
H1057 H 0.45676 0.8024 0.16903 0.0
H1058 H 0.30579 0.77788 0.16415 0.0
H1059 H 0.33679 0.70917 0.15696 0.0
C1060 C 0.7671 0.17447 0.33286 0.0
C1061 C 0.78441 0.1716 0.31755 0.0
C1062 C 0.80108 0.16145 0.33038 0.0
C1063 C 0.79349 0.15923 0.353 0.0
N1064 N 0.77299 0.16727 0.35536 0.0
Co1065 Co 0.75835 0.17318 0.3865 0.0
N1066 N 0.78451 0.16367 0.40607 0.0
C1067 C 0.80296 0.15436 0.39735 0.0
C1068 C 0.818 0.14856 0.41458 0.0
C1069 C 0.80845 0.15448 0.43568 0.0
C1070 C 0.78806 0.1636 0.43014 0.0
N1071 N 0.74361 0.1803 0.41739 0.0
C1072 C 0.75122 0.18081 0.4402 0.0
C1073 C 0.73477 0.18611 0.45605 0.0
C1074 C 0.71619 0.18843 0.44302 0.0
C1075 C 0.72227 0.18457 0.42001 0.0
N1076 N 0.73159 0.18091 0.3675 0.0
C1077 C 0.7115 0.18216 0.37632 0.0
C1078 C 0.6956 0.18295 0.35929 0.0
C1079 C 0.70624 0.18228 0.33819 0.0
C1080 C 0.72814 0.18169 0.3436 0.0
N1081 N 0.74931 0.13954 0.38787 0.0
C1082 C 0.74085 0.09011 0.38889 0.0
C1083 C 0.7459 0.10272 0.40964 0.0
C1084 C 0.74986 0.12713 0.40879 0.0
C1085 C 0.73966 0.10323 0.36766 0.0
C1086 C 0.74396 0.12765 0.36752 0.0
N1087 N 0.76861 0.20661 0.38411 0.0
C1088 C 0.77717 0.2367 0.35509 0.0
C1089 C 0.79721 0.24072 0.36601 0.0
C1090 C 0.80046 0.2303 0.38854 0.0
C1091 C 0.78599 0.21366 0.39727 0.0
C1092 C 0.76286 0.22053 0.36498 0.0
H1093 H 0.7897 0.20589 0.41424 0.0
H1094 H 0.74775 0.21862 0.35603 0.0
H1095 H 0.75387 0.13567 0.42518 0.0
H1096 H 0.74324 0.13672 0.35072 0.0
C1097 C 0.80604 0.15311 0.37289 0.0
C1098 C 0.74516 0.18366 0.32564 0.0
C1099 C 0.77297 0.17313 0.44816 0.0
C1100 C 0.7083 0.18414 0.4006 0.0
H1101 H 0.78559 0.17703 0.29929 0.0
H1102 H 0.81728 0.15757 0.32424 0.0
H1103 H 0.83418 0.14136 0.41208 0.0
H1104 H 0.81574 0.15267 0.45312 0.0
H1105 H 0.73586 0.18697 0.4752 0.0
H1106 H 0.70007 0.19185 0.44962 0.0
H1107 H 0.67833 0.18421 0.36189 0.0
H1108 H 0.69871 0.18264 0.3208 0.0
H1109 H 0.74742 0.09376 0.42658 0.0
H1110 H 0.73541 0.0948 0.35109 0.0
H1111 H 0.77265 0.24498 0.33842 0.0
H1112 H 0.81441 0.2343 0.3993 0.0
C1113 C 0.35392 0.27875 0.8695 0.0
C1114 C 0.33745 0.26588 0.8792 0.0
C1115 C 0.34696 0.25051 0.89549 0.0
C1116 C 0.3687 0.25481 0.89487 0.0
N1117 N 0.37336 0.27188 0.87925 0.0
Co1118 Co 0.40288 0.28247 0.87173 0.0
N1119 N 0.41751 0.25409 0.88671 0.0
C1120 C 0.40796 0.23953 0.90216 0.0
C1121 C 0.42191 0.2223 0.91106 0.0
C1122 C 0.44154 0.22654 0.90094 0.0
C1123 C 0.43856 0.24615 0.88628 0.0
N1124 N 0.4323 0.29337 0.86351 0.0
C1125 C 0.45197 0.28197 0.86434 0.0
C1126 C 0.46809 0.29678 0.85671 0.0
C1127 C 0.45844 0.31833 0.85189 0.0
C1128 C 0.437 0.3155 0.85647 0.0
N1129 N 0.38867 0.31136 0.85752 0.0
C1130 C 0.39834 0.33186 0.85267 0.0
C1131 C 0.38456 0.34883 0.84309 0.0
C1132 C 0.36493 0.33835 0.8417 0.0
C1133 C 0.36793 0.31548 0.85049 0.0
N1134 N 0.40434 0.29853 0.90297 0.0
C1135 C 0.39986 0.30576 0.95245 0.0
C1136 C 0.41944 0.29732 0.94272 0.0
C1137 C 0.42148 0.29438 0.91804 0.0
C1138 C 0.38367 0.31334 0.93624 0.0
C1139 C 0.38617 0.3095 0.9118 0.0
N1140 N 0.39997 0.26513 0.84131 0.0
C1141 C 0.3867 0.26529 0.80074 0.0
C1142 C 0.37934 0.24191 0.8031 0.0
C1143 C 0.38469 0.22998 0.8242 0.0
C1144 C 0.39503 0.24161 0.84264 0.0
C1145 C 0.39716 0.27648 0.81995 0.0
H1146 H 0.39681 0.23175 0.85878 0.0
H1147 H 0.4016 0.29476 0.81798 0.0
H1148 H 0.43642 0.28685 0.91149 0.0
H1149 H 0.37262 0.31376 0.90029 0.0
C1150 C 0.38543 0.24097 0.90544 0.0
C1151 C 0.35069 0.29833 0.85217 0.0
C1152 C 0.45653 0.25826 0.87453 0.0
C1153 C 0.42075 0.33271 0.85269 0.0
H1154 H 0.32042 0.26747 0.87495 0.0
H1155 H 0.33902 0.23716 0.90581 0.0
H1156 H 0.41823 0.20813 0.92322 0.0
H1157 H 0.45647 0.21672 0.90441 0.0
H1158 H 0.48518 0.2927 0.85534 0.0
H1159 H 0.46613 0.33413 0.84561 0.0
H1160 H 0.38853 0.36626 0.83664 0.0
H1161 H 0.3502 0.34648 0.8347 0.0
H1162 H 0.43277 0.29151 0.95398 0.0
H1163 H 0.36862 0.32125 0.94231 0.0
H1164 H 0.38368 0.27526 0.78458 0.0
H1165 H 0.37942 0.21216 0.82757 0.0
C1166 C 0.26115 0.82448 0.36693 0.0
C1167 C 0.27401 0.80642 0.37667 0.0
C1168 C 0.28922 0.81709 0.39071 0.0
C1169 C 0.28486 0.84109 0.3889 0.0
N1170 N 0.26786 0.8461 0.37469 0.0
Co1171 Co 0.25701 0.8786 0.36641 0.0
N1172 N 0.28339 0.89449 0.37848 0.0
C1173 C 0.29806 0.88407 0.39316 0.0
C1174 C 0.31371 0.8993 0.40049 0.0
C1175 C 0.30835 0.92079 0.39016 0.0
C1176 C 0.28966 0.91757 0.37701 0.0
N1177 N 0.246 0.91105 0.35693 0.0
C1178 C 0.25591 0.93232 0.35566 0.0
C1179 C 0.24145 0.95028 0.34846 0.0
C1180 C 0.22187 0.9402 0.34571 0.0
C1181 C 0.22537 0.91676 0.35123 0.0
N1182 N 0.22995 0.86335 0.35543 0.0
C1183 C 0.21107 0.87486 0.35068 0.0
C1184 C 0.19575 0.86062 0.34114 0.0
C1185 C 0.20545 0.83871 0.33967 0.0
C1186 C 0.22614 0.84053 0.34919 0.0
N1187 N 0.24484 0.88245 0.39904 0.0
C1188 C 0.24118 0.88438 0.44952 0.0
C1189 C 0.24521 0.90473 0.43588 0.0
C1190 C 0.24689 0.90343 0.41102 0.0
C1191 C 0.23674 0.86358 0.43674 0.0
C1192 C 0.2384 0.86306 0.41169 0.0
N1193 N 0.27065 0.87335 0.33471 0.0
C1194 C 0.2685 0.85851 0.29427 0.0
C1195 C 0.29084 0.8526 0.29387 0.0
C1196 C 0.30274 0.85922 0.31396 0.0
C1197 C 0.29253 0.86899 0.33391 0.0
C1198 C 0.25891 0.86923 0.31448 0.0
H1199 H 0.30269 0.87169 0.34906 0.0
H1200 H 0.24178 0.87308 0.31398 0.0
H1201 H 0.25128 0.91927 0.40179 0.0
H1202 H 0.23581 0.84644 0.40276 0.0
C1203 C 0.29775 0.85945 0.39743 0.0
C1204 C 0.24169 0.82041 0.35201 0.0
C1205 C 0.27763 0.93726 0.36481 0.0
C1206 C 0.21 0.89943 0.34949 0.0
H1207 H 0.27245 0.78752 0.37402 0.0
H1208 H 0.3023 0.80838 0.40046 0.0
H1209 H 0.32754 0.89524 0.41176 0.0
H1210 H 0.317 0.93708 0.39235 0.0
H1211 H 0.24439 0.96899 0.34642 0.0
H1212 H 0.20685 0.94894 0.34035 0.0
H1213 H 0.18006 0.86596 0.33408 0.0
H1214 H 0.19807 0.82366 0.33142 0.0
H1215 H 0.24788 0.92162 0.4444 0.0
H1216 H 0.2332 0.84734 0.44602 0.0
H1217 H 0.2581 0.85427 0.27948 0.0
H1218 H 0.32005 0.85653 0.31484 0.0
C1219 C 0.66828 0.76757 0.82798 0.0
C1220 C 0.66489 0.75071 0.81054 0.0
C1221 C 0.65366 0.73279 0.82096 0.0
C1222 C 0.65098 0.73947 0.84422 0.0
N1223 N 0.6597 0.76049 0.84902 0.0
Co1224 Co 0.6629 0.77462 0.88118 0.0
N1225 N 0.65423 0.74522 0.89804 0.0
C1226 C 0.64492 0.7266 0.88755 0.0
C1227 C 0.63969 0.70917 0.90339 0.0
C1228 C 0.6459 0.7174 0.92526 0.0
C1229 C 0.65466 0.73947 0.92162 0.0
N1230 N 0.66726 0.78906 0.91318 0.0
C1231 C 0.66819 0.77915 0.93523 0.0
C1232 C 0.67101 0.79639 0.95254 0.0
C1233 C 0.67124 0.81775 0.94113 0.0
C1234 C 0.6687 0.81248 0.91757 0.0
N1235 N 0.66977 0.8048 0.86484 0.0
C1236 C 0.66883 0.82655 0.87461 0.0
C1237 C 0.67246 0.84442 0.85871 0.0
C1238 C 0.67604 0.83322 0.83754 0.0
C1239 C 0.67458 0.80906 0.84186 0.0
N1240 N 0.63171 0.78486 0.88104 0.0
C1241 C 0.58581 0.79072 0.87787 0.0
C1242 C 0.59632 0.78519 0.8995 0.0
C1243 C 0.61905 0.78243 0.90071 0.0
C1244 C 0.59921 0.79465 0.85827 0.0
C1245 C 0.62182 0.79175 0.86021 0.0
N1246 N 0.69395 0.76285 0.87986 0.0
C1247 C 0.72767 0.7646 0.85795 0.0
C1248 C 0.73091 0.73977 0.8591 0.0
C1249 C 0.71688 0.72766 0.87398 0.0
C1250 C 0.69883 0.73925 0.88395 0.0
C1251 C 0.70963 0.77576 0.86902 0.0
H1252 H 0.68859 0.72812 0.89399 0.0
H1253 H 0.70806 0.79476 0.86754 0.0
H1254 H 0.62619 0.77737 0.91751 0.0
H1255 H 0.63123 0.79432 0.84446 0.0
C1256 C 0.6439 0.72501 0.86272 0.0
C1257 C 0.67887 0.79059 0.82416 0.0
C1258 C 0.66294 0.75451 0.94102 0.0
C1259 C 0.66832 0.82902 0.89915 0.0
H1260 H 0.67023 0.75097 0.79236 0.0
H1261 H 0.64908 0.71627 0.81282 0.0
H1262 H 0.63273 0.69219 0.89946 0.0
H1263 H 0.6443 0.70817 0.94197 0.0
H1264 H 0.67173 0.79399 0.97157 0.0
H1265 H 0.67279 0.83509 0.9491 0.0
H1266 H 0.67344 0.86323 0.8623 0.0
H1267 H 0.6798 0.84181 0.82096 0.0
H1268 H 0.58706 0.78196 0.91531 0.0
H1269 H 0.5923 0.79965 0.84123 0.0
H1270 H 0.73838 0.77542 0.84778 0.0
H1271 H 0.71928 0.7089 0.87752 0.0
H1272 H 0.14517 0.55256 0.2646 0.0
H1273 H 0.21155 0.5591 0.2446 0.0
H1274 H 0.21549 0.51586 0.24107 0.0
H1275 H 0.20123 0.47562 0.2482 0.0
H1276 H 0.135 0.46899 0.26877 0.0
H1277 H 0.12973 0.51225 0.26727 0.0
C1278 C 0.16026 0.54453 0.25866 0.0
C1279 C 0.17796 0.55925 0.2544 0.0
C1280 C 0.16251 0.51939 0.25707 0.0
C1281 C 0.19758 0.54836 0.24747 0.0
C1282 C 0.19989 0.52353 0.24571 0.0
C1283 C 0.18548 0.48364 0.25165 0.0
C1284 C 0.16843 0.46888 0.25827 0.0
C1285 C 0.18265 0.50876 0.25105 0.0
C1286 C 0.14828 0.47974 0.26323 0.0
C1287 C 0.14532 0.50458 0.26258 0.0
H1288 H 0.97397 0.62806 0.77857 0.0
H1289 H 0.96425 0.68293 0.72618 0.0
H1290 H 1.00314 0.68205 0.71784 0.0
H1291 H 0.04065 0.66691 0.72695 0.0
H1292 H 0.04958 0.61286 0.78077 0.0
H1293 H 1.01088 0.61227 0.78682 0.0
C1294 C 0.98033 0.63962 0.76509 0.0
C1295 C 0.96602 0.65555 0.753 0.0
C1296 C 1.00287 0.63932 0.76073 0.0
C1297 C 0.97471 0.67041 0.73567 0.0
C1298 C 0.99707 0.67002 0.73104 0.0
C1299 C 0.03423 0.65498 0.74004 0.0
C1300 C 0.04862 0.63973 0.75312 0.0
C1301 C 1.01147 0.6548 0.74373 0.0
C1302 C 0.03942 0.62444 0.76988 0.0
C1303 C 1.01706 0.62419 0.77356 0.0
H1304 H 0.86423 0.47868 0.24485 0.0
H1305 H 0.93253 0.46681 0.25507 0.0
H1306 H 0.93838 0.50944 0.25107 0.0
H1307 H 0.92346 0.55083 0.25001 0.0
H1308 H 0.85497 0.5627 0.24183 0.0
H1309 H 0.84976 0.51981 0.23947 0.0
C1310 C 0.88044 0.4854 0.24542 0.0
C1311 C 0.89796 0.46944 0.24988 0.0
C1312 C 0.88361 0.51015 0.24377 0.0
C1313 C 0.91884 0.47855 0.25118 0.0
C1314 C 0.92215 0.50302 0.24917 0.0
C1315 C 0.90751 0.54398 0.2469 0.0
C1316 C 0.88964 0.56 0.24562 0.0
C1317 C 0.90461 0.51912 0.24615 0.0
C1318 C 0.86899 0.55081 0.24238 0.0
C1319 C 0.866 0.52623 0.24126 0.0
H1320 H 0.0679 0.35016 0.75371 0.0
H1321 H 0.07286 0.42147 0.72657 0.0
H1322 H 0.03375 0.42537 0.72414 0.0
H1323 H 0.9975 0.40902 0.7299 0.0
H1324 H 0.9924 0.33734 0.75573 0.0
H1325 H 0.03165 0.33317 0.7578 0.0
C1326 C 0.06057 0.36651 0.74698 0.0
C1327 C 0.07389 0.38558 0.74073 0.0
C1328 C 0.03769 0.36865 0.74523 0.0
C1329 C 0.06351 0.40658 0.73222 0.0
C1330 C 0.04093 0.40882 0.7306 0.0
C1331 C 1.0049 0.39246 0.73603 0.0
C1332 C 0.99158 0.37353 0.74256 0.0
C1333 C 0.02776 0.39008 0.73721 0.0
C1334 C 1.00187 0.35219 0.75019 0.0
C1335 C 0.02449 0.34981 0.75156 0.0
H1336 H 0.14104 0.47115 0.78362 0.0
H1337 H 0.21045 0.46833 0.78312 0.0
H1338 H 0.21119 0.51168 0.78605 0.0
H1339 H 0.19202 0.55099 0.78428 0.0
H1340 H 0.12262 0.55404 0.78462 0.0
H1341 H 0.12187 0.51058 0.7865 0.0
C1342 C 0.15631 0.48002 0.78493 0.0
C1343 C 0.17572 0.46633 0.78349 0.0
C1344 C 0.15658 0.50523 0.78631 0.0
C1345 C 0.19533 0.47827 0.78458 0.0
C1346 C 0.19573 0.50316 0.78603 0.0
C1347 C 0.17676 0.54213 0.78546 0.0
C1348 C 0.15738 0.55595 0.7847 0.0
C1349 C 0.17648 0.51693 0.78631 0.0
C1350 C 0.13776 0.54402 0.78567 0.0
C1351 C 0.13734 0.51907 0.78651 0.0
H1352 H 0.99988 0.61352 0.30968 0.0
H1353 H 0.99465 0.68337 0.27835 0.0
H1354 H 0.03361 0.68709 0.28108 0.0
H1355 H 0.0698 0.67028 0.29104 0.0
H1356 H 0.07529 0.6004 0.32217 0.0
H1357 H 0.03615 0.597 0.32046 0.0
C1358 C 1.00719 0.62955 0.30334 0.0
C1359 C 0.99387 0.64818 0.29397 0.0
C1360 C 0.02996 0.63162 0.3048 0.0
C1361 C 1.00405 0.66883 0.28611 0.0
C1362 C 0.02653 0.67096 0.2875 0.0
C1363 C 0.0625 0.6544 0.29779 0.0
C1364 C 0.07589 0.6356 0.30664 0.0
C1365 C 0.03973 0.65248 0.29676 0.0
C1366 C 0.06576 0.6151 0.31491 0.0
C1367 C 0.04321 0.61314 0.31403 0.0
H1368 H 0.91889 0.54066 0.8061 0.0
H1369 H 0.85029 0.55262 0.79557 0.0
H1370 H 0.84519 0.51022 0.794 0.0
H1371 H 0.86004 0.46919 0.79223 0.0
H1372 H 0.92871 0.45698 0.79776 0.0
H1373 H 0.93375 0.49939 0.80474 0.0
C1374 C 0.90277 0.5342 0.80338 0.0
C1375 C 0.88505 0.5506 0.80128 0.0
C1376 C 0.89985 0.50931 0.80165 0.0
C1377 C 0.86437 0.54111 0.798 0.0
C1378 C 0.86136 0.51657 0.79682 0.0
C1379 C 0.87606 0.47576 0.79555 0.0
C1380 C 0.8939 0.45965 0.79497 0.0
C1381 C 0.87895 0.50046 0.79836 0.0
C1382 C 0.91461 0.46868 0.79871 0.0
C1383 C 0.91752 0.4931 0.80235 0.0
H1384 H 0.99784 0.41815 0.32162 0.0
H1385 H 0.99295 0.34642 0.29583 0.0
H1386 H 0.03216 0.3418 0.29612 0.0
H1387 H 0.06828 0.35853 0.30188 0.0
H1388 H 0.07322 0.43006 0.32827 0.0
H1389 H 0.03402 0.43427 0.32912 0.0
C1390 C 1.00529 0.40149 0.31603 0.0
C1391 C 0.99208 0.38267 0.30879 0.0
C1392 C 0.02812 0.39889 0.31614 0.0
C1393 C 1.00237 0.36117 0.30189 0.0
C1394 C 0.02495 0.35854 0.30187 0.0
C1395 C 0.06089 0.37495 0.30819 0.0
C1396 C 0.07412 0.39399 0.31477 0.0
C1397 C 0.03806 0.37729 0.30881 0.0
C1398 C 0.06381 0.41517 0.32258 0.0
C1399 C 0.04123 0.41759 0.32322 0.0
H1400 H 0.26491 0.12547 0.54494 0.0
H1401 H 0.2014 0.15625 0.5556 0.0
H1402 H 0.19473 0.15605 0.51262 0.0
H1403 H 0.20743 0.14783 0.47145 0.0
H1404 H 0.27042 0.11514 0.46181 0.0
H1405 H 0.27676 0.11544 0.50456 0.0
C1406 C 0.2496 0.13215 0.53786 0.0
C1407 C 0.23375 0.14101 0.55357 0.0
C1408 C 0.24577 0.13165 0.51314 0.0
C1409 C 0.21387 0.14923 0.54402 0.0
C1410 C 0.21009 0.14922 0.51938 0.0
C1411 C 0.2225 0.14073 0.47876 0.0
C1412 C 0.23839 0.13139 0.46329 0.0
C1413 C 0.22597 0.14059 0.50368 0.0
C1414 C 0.25779 0.12216 0.47318 0.0
C1415 C 0.26149 0.12243 0.49769 0.0
H1416 H 0.40915 0.75342 0.96923 0.0
H1417 H 0.34182 0.73881 0.96029 0.0
H1418 H 0.33773 0.73589 1.00338 0.0
H1419 H 0.35238 0.74211 0.04409 0.0
H1420 H 0.41962 0.75717 0.05311 0.0
H1421 H 0.42475 0.75508 1.01008 0.0
C1422 C 0.39379 0.74874 0.97673 0.0
C1423 C 0.37589 0.74583 0.96138 0.0
C1424 C 0.39147 0.74753 1.00177 0.0
C1425 C 0.35594 0.74059 0.97154 0.0
C1426 C 0.35355 0.7392 0.99628 0.0
C1427 C 0.36826 0.74429 0.03664 0.0
C1428 C 0.38566 0.7495 0.05197 0.0
C1429 C 0.37105 0.74326 1.01166 0.0
C1430 C 0.40604 0.75276 0.04187 0.0
C1431 C 0.40893 0.75175 0.01717 0.0
H1432 H 0.7644 0.89882 0.45971 0.0
H1433 H 0.81534 0.84604 0.45285 0.0
H1434 H 0.8229 0.84839 0.49569 0.0
H1435 H 0.81316 0.86365 0.53587 0.0
H1436 H 0.7605 0.91499 0.54186 0.0
H1437 H 0.75568 0.91506 0.49911 0.0
C1438 C 0.77749 0.88825 0.46756 0.0
C1439 C 0.78947 0.87247 0.45302 0.0
C1440 C 0.78129 0.88922 0.4923 0.0
C1441 C 0.8061 0.85855 0.46353 0.0
C1442 C 0.81025 0.85974 0.48811 0.0
C1443 C 0.80063 0.87488 0.5279 0.0
C1444 C 0.78743 0.88951 0.54259 0.0
C1445 C 0.79762 0.87466 0.50285 0.0
C1446 C 0.77137 0.90395 0.53146 0.0
C1447 C 0.76842 0.90389 0.5068 0.0
H1448 H 0.64512 0.27826 0.05541 0.0
H1449 H 0.71441 0.27771 0.06081 0.0
H1450 H 0.71705 0.28111 0.01759 0.0
H1451 H 0.6998 0.28059 0.97761 0.0
H1452 H 0.63057 0.27981 0.97196 0.0
H1453 H 0.62773 0.28111 1.0153 0.0
C1454 C 0.66077 0.27948 0.04715 0.0
C1455 C 0.67958 0.27805 0.06159 0.0
C1456 C 0.66217 0.28116 0.02198 0.0
C1457 C 0.6997 0.27908 0.05034 0.0
C1458 C 0.7012 0.2809 0.02552 0.0
C1459 C 0.68408 0.28142 0.98587 0.0
C1460 C 0.6654 0.28056 0.97127 0.0
C1461 C 0.68259 0.28154 1.01104 0.0
C1462 C 0.6452 0.28101 0.98249 0.0
C1463 C 0.64359 0.28144 1.00741 0.0
H1464 H 0.21863 0.85949 0.48424 0.0
H1465 H 0.2695 0.90972 0.47649 0.0
H1466 H 0.27484 0.91037 0.51918 0.0
H1467 H 0.26716 0.89499 0.55919 0.0
H1468 H 0.21772 0.84372 0.56785 0.0
H1469 H 0.20972 0.84538 0.52506 0.0
C1470 C 0.23087 0.87065 0.4918 0.0
C1471 C 0.24341 0.88476 0.47651 0.0
C1472 C 0.23414 0.87086 0.51691 0.0
C1473 C 0.25911 0.89905 0.48724 0.0
C1474 C 0.26237 0.89934 0.51191 0.0
C1475 C 0.25425 0.88463 0.55178 0.0
C1476 C 0.24284 0.86949 0.56695 0.0
C1477 C 0.25014 0.88523 0.52696 0.0
C1478 C 0.2265 0.85582 0.55683 0.0
C1479 C 0.22211 0.85658 0.53221 0.0
H1480 H 0.636 0.7522 0.04949 0.0
H1481 H 0.70466 0.74265 0.05863 0.0
H1482 H 0.70905 0.73905 0.01564 0.0
H1483 H 0.69383 0.74355 0.97489 0.0
H1484 H 0.62522 0.75324 0.96554 0.0
H1485 H 0.62027 0.75158 1.00863 0.0
C1486 C 0.65181 0.74845 0.04209 0.0
C1487 C 0.66997 0.74726 0.05745 0.0
C1488 C 0.65424 0.74677 0.01708 0.0
C1489 C 0.6904 0.74315 0.04738 0.0
C1490 C 0.69293 0.74136 0.0227 0.0
C1491 C 0.67775 0.74457 0.98229 0.0
C1492 C 0.65988 0.74819 0.96687 0.0
C1493 C 0.67506 0.7438 1.00727 0.0
C1494 C 0.6392 0.75003 0.97687 0.0
C1495 C 0.6364 0.74929 1.0016 0.0
H1496 H 0.78206 0.20052 0.55733 0.0
H1497 H 0.7733 0.12557 0.56609 0.0
H1498 H 0.77519 0.11999 0.52295 0.0
H1499 H 0.77495 0.13728 0.48198 0.0
H1500 H 0.78239 0.21253 0.47364 0.0
H1501 H 0.78544 0.21714 0.51675 0.0
C1502 C 0.78129 0.18285 0.54983 0.0
C1503 C 0.77784 0.16342 0.56518 0.0
C1504 C 0.78177 0.1799 0.52478 0.0
C1505 C 0.77634 0.14076 0.55494 0.0
C1506 C 0.77715 0.13763 0.53013 0.0
C1507 C 0.77781 0.15457 0.48961 0.0
C1508 C 0.77872 0.17454 0.47438 0.0
C1509 C 0.77924 0.15715 0.51474 0.0
C1510 C 0.78192 0.19686 0.48476 0.0
C1511 C 0.78354 0.19951 0.50951 0.0
H1512 H 0.36663 0.29156 0.0583 0.0
H1513 H 0.43465 0.29473 0.07347 0.0
H1514 H 0.4417 0.30392 0.03184 0.0
H1515 H 0.42885 0.30828 0.99043 0.0
H1516 H 0.36101 0.30013 0.97501 0.0
H1517 H 0.35377 0.29615 0.01694 0.0
C1518 C 0.38294 0.29475 0.05253 0.0
C1519 C 0.4 0.29297 0.06919 0.0
C1520 C 0.387 0.29898 0.02826 0.0
C1521 C 0.42112 0.2966 0.06126 0.0
C1522 C 0.42519 0.30157 0.03732 0.0
C1523 C 0.41244 0.30555 0.99603 0.0
C1524 C 0.3956 0.30482 0.9789 0.0
C1525 C 0.40831 0.30233 0.0205 0.0
C1526 C 0.37446 0.30154 0.98722 0.0
C1527 C 0.37021 0.29894 1.01144 0.0
H1528 H 0.5698 0.24807 0.17802 0.0
H1529 H 0.57641 0.21727 0.10826 0.0
H1530 H 0.53737 0.21471 0.10484 0.0
H1531 H 0.50089 0.22189 0.1211 0.0
H1532 H 0.49432 0.25138 0.19132 0.0
H1533 H 0.5335 0.25305 0.19521 0.0
C1534 C 0.56285 0.24043 0.16217 0.0
C1535 C 0.57644 0.23319 0.14333 0.0
C1536 C 0.54015 0.23865 0.16036 0.0
C1537 C 0.56667 0.22361 0.12291 0.0
C1538 C 0.5442 0.22194 0.12096 0.0
C1539 C 0.50799 0.22867 0.13728 0.0
C1540 C 0.49442 0.23647 0.15588 0.0
C1541 C 0.53072 0.22962 0.13945 0.0
C1542 C 0.50416 0.24493 0.17679 0.0
C1543 C 0.52666 0.24607 0.17898 0.0
H1544 H 0.55437 0.80563 0.91015 0.0
H1545 H 0.56122 0.77654 0.83975 0.0
H1546 H 0.52214 0.77658 0.835 0.0
H1547 H 0.48535 0.78364 0.85097 0.0
H1548 H 0.47847 0.81284 0.9213 0.0
H1549 H 0.51757 0.81354 0.92578 0.0
C1550 C 0.54742 0.79919 0.89376 0.0
C1551 C 0.56129 0.79126 0.87532 0.0
C1552 C 0.52455 0.7991 0.89105 0.0
C1553 C 0.55145 0.78324 0.85421 0.0
C1554 C 0.52887 0.78307 0.85148 0.0
C1555 C 0.4923 0.79044 0.86721 0.0
C1556 C 0.47844 0.79797 0.88581 0.0
C1557 C 0.51516 0.79092 0.86976 0.0
C1558 C 0.48826 0.80644 0.90673 0.0
C1559 C 0.51084 0.80699 0.90932 0.0
H1560 H 0.72333 0.98071 0.40949 0.0
H1561 H 0.748 0.97373 0.33846 0.0
H1562 H 0.75169 0.01664 0.33595 0.0
H1563 H 0.74958 0.05626 0.35439 0.0
H1564 H 0.7234 0.06356 0.42484 0.0
H1565 H 0.71923 0.0208 0.42711 0.0
C1566 C 0.72948 0.98854 0.39342 0.0
C1567 C 0.73527 0.97368 0.37417 0.0
C1568 C 0.73159 1.01349 0.39203 0.0
C1569 C 0.74304 0.98447 0.35347 0.0
C1570 C 0.74534 1.00913 0.35207 0.0
C1571 C 0.74263 0.04871 0.37017 0.0
C1572 C 0.73714 0.06364 0.38951 0.0
C1573 C 0.73982 0.02386 0.37128 0.0
C1574 C 0.72841 0.05291 0.4098 0.0
C1575 C 0.72579 0.02828 0.41108 0.0
H1576 H 0.48821 0.27556 0.90359 0.0
H1577 H 0.47766 0.22221 0.85056 0.0
H1578 H 0.51647 0.21191 0.85056 0.0
H1579 H 0.55416 0.21949 0.86442 0.0
H1580 H 0.56389 0.27414 0.91679 0.0
H1581 H 0.52527 0.28223 0.91821 0.0
C1582 C 0.49438 0.26141 0.8923 0.0
C1583 C 0.47987 0.24959 0.87717 0.0
C1584 C 0.51686 0.25588 0.89212 0.0
C1585 C 0.48829 0.23146 0.86253 0.0
C1586 C 0.5106 0.22572 0.86241 0.0
C1587 C 0.54791 0.23317 0.87618 0.0
C1588 C 0.56249 0.24587 0.8907 0.0
C1589 C 0.5252 0.23804 0.87687 0.0
C1590 C 0.55355 0.26349 0.90577 0.0
C1591 C 0.53124 0.26835 0.9065 0.0
H1592 H 0.29055 0.96973 0.33149 0.0
H1593 H 0.27518 0.96356 0.40548 0.0
H1594 H 0.27533 1.00688 0.40962 0.0
H1595 H 0.27559 0.04715 0.39099 0.0
H1596 H 0.2907 0.05309 0.31689 0.0
H1597 H 0.29507 1.00985 0.31403 0.0
C1598 C 0.28795 0.97785 0.34869 0.0
C1599 C 0.28322 0.96316 0.36826 0.0
C1600 C 0.28771 1.00302 0.35084 0.0
C1601 C 0.27932 0.9742 0.39025 0.0
C1602 C 0.27915 0.99911 0.39254 0.0
C1603 C 0.28048 0.039 0.37441 0.0
C1604 C 0.28306 0.05359 0.3542 0.0
C1605 C 0.28276 1.01382 0.37283 0.0
C1606 C 0.2889 0.0425 0.33276 0.0
C1607 C 0.29123 0.01765 0.33109 0.0
H1608 H 0.55996 0.77408 0.11539 0.0
H1609 H 0.56511 0.83387 0.16269 0.0
H1610 H 0.52589 0.83681 0.16547 0.0
H1611 H 0.48945 0.82259 0.15441 0.0
H1612 H 0.48484 0.76325 0.10648 0.0
H1613 H 0.52397 0.76049 0.1038 0.0
C1614 C 0.55264 0.78803 0.12609 0.0
C1615 C 0.566 0.80364 0.13884 0.0
C1616 C 0.52982 0.78984 0.1275 0.0
C1617 C 0.55569 0.82123 0.1529 0.0
C1618 C 0.53306 0.82306 0.15441 0.0
C1619 C 0.49696 0.809 0.14342 0.0
C1620 C 0.48377 0.79334 0.13047 0.0
C1621 C 0.51986 0.80741 0.14188 0.0
C1622 C 0.49418 0.77595 0.1163 0.0
C1623 C 0.51674 0.77421 0.11486 0.0
H1624 H 0.74769 0.98086 0.68625 0.0
H1625 H 0.74447 0.9674 0.61119 0.0
H1626 H 0.7372 1.00971 0.60358 0.0
H1627 H 0.7337 0.05123 0.6181 0.0
H1628 H 0.74038 0.06445 0.69329 0.0
H1629 H 0.74406 0.02218 0.70073 0.0
C1630 C 0.74502 0.98715 0.66826 0.0
C1631 C 0.74628 0.9707 0.64938 0.0
C1632 C 0.7416 1.01178 0.66392 0.0
C1633 C 0.74316 0.97939 0.62614 0.0
C1634 C 0.73924 1.00374 0.62176 0.0
C1635 C 0.73602 0.04505 0.63616 0.0
C1636 C 0.73638 0.06175 0.65501 0.0
C1637 C 0.73876 0.02026 0.64048 0.0
C1638 C 0.7393 0.05265 0.67823 0.0
C1639 C 0.74168 0.0282 0.68261 0.0
H1640 H 0.28243 0.0484 0.684 0.0
H1641 H 0.28585 0.06278 0.60919 0.0
H1642 H 0.2935 0.02049 0.60138 0.0
H1643 H 0.29703 0.97875 0.61574 0.0
H1644 H 0.29096 0.96496 0.6908 0.0
H1645 H 0.28681 1.00716 0.69836 0.0
C1646 C 0.2851 0.04229 0.666 0.0
C1647 C 0.28348 0.05884 0.64719 0.0
C1648 C 0.28893 0.01779 0.66162 0.0
C1649 C 0.28703 0.05055 0.624 0.0
C1650 C 0.29126 0.02627 0.61954 0.0
C1651 C 0.29478 0.98482 0.6338 0.0
C1652 C 0.29462 0.96801 0.6526 0.0
C1653 C 0.29184 1.00956 0.63818 0.0
C1654 C 0.29182 0.9769 0.67582 0.0
C1655 C 0.28918 1.00128 0.68025 0.0
H1656 H 0.18352 0.29493 0.34072 0.0
H1657 H 0.21348 0.30021 0.27238 0.0
H1658 H 0.23342 0.26257 0.27972 0.0
H1659 H 0.24289 0.22803 0.30633 0.0
H1660 H 0.21605 0.22626 0.37646 0.0
H1661 H 0.19541 0.26308 0.36835 0.0
C1662 C 0.19475 0.28814 0.32758 0.0
C1663 C 0.19726 0.30086 0.30617 0.0
C1664 C 0.20718 0.26726 0.33258 0.0
C1665 C 0.2112 0.291 0.28902 0.0
C1666 C 0.22281 0.26956 0.29336 0.0
C1667 C 0.233 0.23614 0.32003 0.0
C1668 C 0.23143 0.22459 0.34225 0.0
C1669 C 0.2212 0.25763 0.31524 0.0
C1670 C 0.21802 0.23502 0.35954 0.0
C1671 C 0.20596 0.25592 0.35474 0.0
H1672 H 0.29164 0.74379 0.81095 0.0
H1673 H 0.2919 0.70445 0.87653 0.0
H1674 H 0.26443 0.67838 0.86073 0.0
H1675 H 0.24137 0.66549 0.82807 0.0
H1676 H 0.23958 0.7048 0.76231 0.0
H1677 H 0.26692 0.73131 0.77797 0.0
C1678 C 0.28532 0.72981 0.8219 0.0
C1679 C 0.29366 0.72639 0.84516 0.0
C1680 C 0.26957 0.7144 0.81243 0.0
C1681 C 0.28563 0.70773 0.8588 0.0
C1682 C 0.27001 0.69266 0.84966 0.0
C1683 C 0.24663 0.67998 0.81708 0.0
C1684 C 0.23803 0.68286 0.79385 0.0
C1685 C 0.26201 0.69561 0.82644 0.0
C1686 C 0.24588 0.7016 0.78003 0.0
C1687 C 0.26143 0.71707 0.78914 0.0
H1688 H 0.83423 0.70093 0.29876 0.0
H1689 H 0.88241 0.75003 0.27713 0.0
H1690 H 0.8599 0.78317 0.29129 0.0
H1691 H 0.82842 0.79785 0.3134 0.0
H1692 H 0.78441 0.7475 0.34286 0.0
H1693 H 0.80319 0.71559 0.32197 0.0
C1694 C 0.83959 0.71896 0.29662 0.0
C1695 C 0.85973 0.72285 0.28587 0.0
C1696 C 0.82743 0.73782 0.30679 0.0
C1697 C 0.86661 0.74633 0.28394 0.0
C1698 C 0.85391 0.76534 0.2927 0.0
C1699 C 0.82295 0.77997 0.31591 0.0
C1700 C 0.8048 0.77565 0.33037 0.0
C1701 C 0.8346 0.76123 0.30481 0.0
C1702 C 0.79794 0.75203 0.33194 0.0
C1703 C 0.80886 0.73351 0.32004 0.0
H1704 H 0.80912 0.35074 0.83774 0.0
H1705 H 0.79273 0.32986 0.76627 0.0
H1706 H 0.764 0.30548 0.7816 0.0
H1707 H 0.74326 0.28946 0.81574 0.0
H1708 H 0.76121 0.30942 0.88678 0.0
H1709 H 0.78997 0.33381 0.87126 0.0
C1710 C 0.79967 0.34063 0.8253 0.0
C1711 C 0.80372 0.34229 0.80061 0.0
C1712 C 0.78346 0.32598 0.83431 0.0
C1713 C 0.79027 0.32945 0.78523 0.0
C1714 C 0.77384 0.31516 0.79406 0.0
C1715 C 0.75382 0.29875 0.82779 0.0
C1716 C 0.7504 0.2971 0.85252 0.0
C1717 C 0.77034 0.31308 0.81861 0.0
C1718 C 0.7638 0.30987 0.86781 0.0
C1719 C 0.78012 0.32405 0.85888 0.0
H1720 H 0.20769 0.79382 0.70929 0.0
H1721 H 0.25134 0.74225 0.67716 0.0
H1722 H 0.234 0.7107 0.69861 0.0
H1723 H 0.20449 0.69681 0.72363 0.0
H1724 H 0.15726 0.74738 0.75008 0.0
H1725 H 0.17789 0.77987 0.73386 0.0
C1726 C 0.2134 0.77575 0.70642 0.0
C1727 C 0.23106 0.771 0.69101 0.0
C1728 C 0.20269 0.75724 0.71817 0.0
C1729 C 0.23821 0.74712 0.68882 0.0
C1730 C 0.2281 0.7288 0.70105 0.0
C1731 C 0.19895 0.71499 0.7264 0.0
C1732 C 0.17966 0.71942 0.73916 0.0
C1733 C 0.21014 0.73358 0.71549 0.0
C1734 C 0.17251 0.74317 0.74172 0.0
C1735 C 0.18411 0.76184 0.73182 0.0
H1736 H 0.74857 0.69708 0.16792 0.0
H1737 H 0.75836 0.76489 0.20122 0.0
H1738 H 0.78655 0.74693 0.22665 0.0
H1739 H 0.80887 0.71149 0.23967 0.0
H1740 H 0.7983 0.64413 0.20606 0.0
H1741 H 0.76966 0.6621 0.18137 0.0
C1742 C 0.75663 0.70804 0.18085 0.0
C1743 C 0.75105 0.73252 0.18238 0.0
C1744 C 0.77263 0.69747 0.1958 0.0
C1745 C 0.76232 0.74619 0.1991 0.0
C1746 C 0.77837 0.73581 0.21395 0.0
C1747 C 0.79995 0.70071 0.22727 0.0
C1748 C 0.80552 0.67631 0.22506 0.0
C1749 C 0.78365 0.7114 0.21258 0.0
C1750 C 0.79418 0.66278 0.20841 0.0
C1751 C 0.77789 0.67313 0.19411 0.0
H1752 H 0.79096 0.26818 0.70985 0.0
H1753 H 0.83661 0.23413 0.66226 0.0
H1754 H 0.86567 0.25539 0.68089 0.0
H1755 H 0.87848 0.28537 0.70962 0.0
H1756 H 0.83347 0.31711 0.75854 0.0
H1757 H 0.80431 0.29388 0.74152 0.0
C1758 C 0.80716 0.26476 0.70356 0.0
C1759 C 0.81088 0.24945 0.68391 0.0
C1760 C 0.82429 0.27646 0.71506 0.0
C1761 C 0.83248 0.2462 0.67649 0.0
C1762 C 0.84944 0.25815 0.6875 0.0
C1763 C 0.8624 0.28661 0.71701 0.0
C1764 C 0.85814 0.30309 0.73535 0.0
C1765 C 0.84556 0.27348 0.70669 0.0
C1766 C 0.83718 0.30467 0.7445 0.0
C1767 C 0.82045 0.29155 0.73453 0.0
H1768 H 0.2464 0.3534 0.20146 0.0
H1769 H 0.26648 0.3272 0.27044 0.0
H1770 H 0.29471 0.30266 0.25198 0.0
H1771 H 0.31426 0.2888 0.21598 0.0
H1772 H 0.29284 0.31379 0.14732 0.0
H1773 H 0.26401 0.33773 0.1658 0.0
C1774 C 0.25662 0.3421 0.21261 0.0
C1775 C 0.25405 0.34246 0.23754 0.0
C1776 C 0.27245 0.32737 0.2018 0.0
C1777 C 0.26813 0.32794 0.25136 0.0
C1778 C 0.28418 0.31356 0.24075 0.0
C1779 C 0.30287 0.29903 0.20511 0.0
C1780 C 0.3053 0.29911 0.18025 0.0
C1781 C 0.28649 0.31307 0.21597 0.0
C1782 C 0.29091 0.31299 0.16638 0.0
C1783 C 0.27462 0.3269 0.177 0.0
H1784 H 0.33295 0.22349 0.2009 0.0
H1785 H 0.38366 0.23429 0.25219 0.0
H1786 H 0.3618 0.21679 0.28307 0.0
H1787 H 0.32967 0.19549 0.2949 0.0
H1788 H 0.28224 0.17739 0.24162 0.0
H1789 H 0.30124 0.20064 0.21253 0.0
C1790 C 0.33903 0.22244 0.21898 0.0
C1791 C 0.35967 0.23131 0.22426 0.0
C1792 C 0.32705 0.21051 0.23633 0.0
C1793 C 0.36748 0.22908 0.24767 0.0
C1794 C 0.35512 0.21843 0.2653 0.0
C1795 C 0.32347 0.19599 0.27691 0.0
C1796 C 0.30427 0.18405 0.27095 0.0
C1797 C 0.3351 0.20856 0.25972 0.0
C1798 C 0.29658 0.18629 0.24738 0.0
C1799 C 0.30762 0.19956 0.23047 0.0
H1800 H 0.32245 0.78678 0.80106 0.0
H1801 H 0.3847 0.81432 0.78466 0.0
H1802 H 0.36909 0.8359 0.75064 0.0
H1803 H 0.33749 0.84861 0.72655 0.0
H1804 H 0.27638 0.81614 0.738 0.0
H1805 H 0.29122 0.79607 0.77358 0.0
C1806 C 0.3327 0.79687 0.78952 0.0
C1807 C 0.35491 0.79847 0.79517 0.0
C1808 C 0.32356 0.80909 0.76959 0.0
C1809 C 0.36779 0.8122 0.78039 0.0
C1810 C 0.35875 0.82492 0.76116 0.0
C1811 C 0.32742 0.83687 0.7366 0.0
C1812 C 0.30585 0.83363 0.72913 0.0
C1813 C 0.33661 0.8238 0.75579 0.0
C1814 C 0.29299 0.819 0.7431 0.0
C1815 C 0.30161 0.80723 0.7633 0.0
H1816 H 0.69883 0.85449 0.29084 0.0
H1817 H 0.76144 0.82012 0.2855 0.0
H1818 H 0.74945 0.79897 0.24976 0.0
H1819 H 0.72028 0.78943 0.22041 0.0
H1820 H 0.65634 0.81908 0.23088 0.0
H1821 H 0.66915 0.84155 0.2651 0.0
C1822 C 0.7098 0.84204 0.28214 0.0
C1823 C 0.73092 0.83856 0.2913 0.0
C1824 C 0.70223 0.82846 0.26291 0.0
C1825 C 0.74509 0.82311 0.27903 0.0
C1826 C 0.73811 0.81075 0.25876 0.0
C1827 C 0.70906 0.8002 0.23072 0.0
C1828 C 0.68722 0.8022 0.22336 0.0
C1829 C 0.71655 0.81291 0.25076 0.0
C1830 C 0.67301 0.81674 0.23653 0.0
C1831 C 0.68044 0.82993 0.25585 0.0
H1832 H 0.73612 0.22061 0.73577 0.0
H1833 H 0.69837 0.15763 0.73243 0.0
H1834 H 0.67686 0.17161 0.76606 0.0
H1835 H 0.66774 0.20226 0.7957 0.0
H1836 H 0.70856 0.26229 0.80401 0.0
H1837 H 0.72896 0.24996 0.76862 0.0
C1838 C 0.72357 0.20969 0.74287 0.0
C1839 C 0.71904 0.18787 0.73166 0.0
C1840 C 0.71129 0.21781 0.76265 0.0
C1841 C 0.70245 0.17419 0.74089 0.0
C1842 C 0.68991 0.1824 0.75993 0.0
C1843 C 0.68123 0.21259 0.78991 0.0
C1844 C 0.68674 0.23304 0.80289 0.0
C1845 C 0.69395 0.2043 0.77075 0.0
C1846 C 0.70388 0.24651 0.79452 0.0
C1847 C 0.71578 0.23921 0.77444 0.0
H1848 H 0.81175 0.82798 0.71524 0.0
H1849 H 0.79675 0.78289 0.65601 0.0
H1850 H 0.81474 0.74925 0.67597 0.0
H1851 H 0.83721 0.73329 0.70869 0.0
H1852 H 0.85779 0.7804 0.76453 0.0
H1853 H 0.83522 0.81216 0.7476 0.0
C1854 C 0.81202 0.81064 0.70692 0.0
C1855 C 0.80199 0.80797 0.68443 0.0
C1856 C 0.82389 0.79168 0.71775 0.0
C1857 C 0.80313 0.78545 0.67371 0.0
C1858 C 0.81397 0.76624 0.68495 0.0
C1859 C 0.83731 0.7505 0.71715 0.0
C1860 C 0.84981 0.75391 0.73809 0.0
C1861 C 0.82486 0.76927 0.70672 0.0
C1862 C 0.8485 0.77655 0.74875 0.0
C1863 C 0.83558 0.79501 0.73891 0.0
H1864 H 0.73997 0.32389 0.20647 0.0
H1865 H 0.78543 0.27434 0.17468 0.0
H1866 H 0.81502 0.29324 0.19574 0.0
H1867 H 0.82831 0.32495 0.22169 0.0
H1868 H 0.78309 0.37538 0.25247 0.0
H1869 H 0.7532 0.35493 0.23344 0.0
C1870 C 0.75635 0.31725 0.20393 0.0
C1871 C 0.76031 0.29773 0.18858 0.0
C1872 C 0.77341 0.32843 0.21596 0.0
C1873 C 0.7817 0.28915 0.18629 0.0
C1874 C 0.79871 0.30009 0.19827 0.0
C1875 C 0.81194 0.33167 0.22415 0.0
C1876 C 0.80815 0.35209 0.23832 0.0
C1877 C 0.7948 0.31994 0.21289 0.0
C1878 C 0.78666 0.35984 0.24178 0.0
C1879 C 0.76952 0.34818 0.23074 0.0
H1880 H 0.18499 0.27237 0.74362 0.0
H1881 H 0.22157 0.32452 0.70624 0.0
H1882 H 0.23889 0.2933 0.68306 0.0
H1883 H 0.24088 0.25112 0.67041 0.0
H1884 H 0.21484 0.1987 0.71726 0.0
H1885 H 0.19645 0.22991 0.7397 0.0
C1886 C 0.19764 0.27718 0.73163 0.0
C1887 C 0.20144 0.30138 0.72693 0.0
C1888 C 0.20918 0.25884 0.7194 0.0
C1889 C 0.21759 0.30636 0.71017 0.0
C1890 C 0.22766 0.2884 0.69674 0.0
C1891 C 0.23225 0.24629 0.68622 0.0
C1892 C 0.22918 0.22208 0.69145 0.0
C1893 C 0.22324 0.26452 0.70077 0.0
C1894 C 0.21708 0.21691 0.7119 0.0
C1895 C 0.20658 0.23486 0.72504 0.0
H1896 H 0.24995 0.67091 0.20026 0.0
H1897 H 0.26265 0.70646 0.26649 0.0
H1898 H 0.28775 0.73244 0.2464 0.0
H1899 H 0.30634 0.74536 0.20946 0.0
H1900 H 0.29242 0.70974 0.14371 0.0
H1901 H 0.26703 0.68436 0.16391 0.0
C1902 C 0.25794 0.68447 0.21043 0.0
C1903 C 0.25413 0.6865 0.23506 0.0
C1904 C 0.27198 0.69979 0.19863 0.0
C1905 C 0.26532 0.70398 0.24769 0.0
C1906 C 0.27955 0.71914 0.23609 0.0
C1907 C 0.29735 0.73238 0.19954 0.0
C1908 C 0.30101 0.72976 0.17494 0.0
C1909 C 0.28294 0.71735 0.21149 0.0
C1910 C 0.28968 0.71239 0.16249 0.0
C1911 C 0.27529 0.6977 0.17411 0.0
H1912 H 0.88079 0.29351 0.32943 0.0
H1913 H 0.83361 0.32815 0.28402 0.0
H1914 H 0.80534 0.30343 0.30003 0.0
H1915 H 0.79343 0.27497 0.33004 0.0
H1916 H 0.84135 0.23827 0.37383 0.0
H1917 H 0.86944 0.26118 0.356 0.0
C1918 C 0.86444 0.29502 0.32249 0.0
C1919 C 0.85934 0.31263 0.30539 0.0
C1920 C 0.84813 0.28092 0.33219 0.0
C1921 C 0.838 0.31472 0.29698 0.0
C1922 C 0.82177 0.30071 0.3064 0.0
C1923 C 0.80994 0.27146 0.33563 0.0
C1924 C 0.81463 0.25493 0.3541 0.0
C1925 C 0.8265 0.28421 0.32457 0.0
C1926 C 0.83654 0.25133 0.36062 0.0
C1927 C 0.85293 0.26424 0.35006 0.0
H1928 H 0.28175 0.33205 0.77459 0.0
H1929 H 0.24882 0.35801 0.83702 0.0
H1930 H 0.27676 0.34 0.86212 0.0
H1931 H 0.31195 0.31827 0.867 0.0
H1932 H 0.34457 0.29186 0.80506 0.0
H1933 H 0.31533 0.30765 0.77962 0.0
C1934 C 0.28037 0.33364 0.79366 0.0
C1935 C 0.26297 0.34716 0.80344 0.0
C1936 C 0.29653 0.32268 0.8084 0.0
C1937 C 0.26208 0.34869 0.82845 0.0
C1938 C 0.27806 0.33802 0.84307 0.0
C1939 C 0.31227 0.31533 0.848 0.0
C1940 C 0.33023 0.30316 0.83804 0.0
C1941 C 0.29551 0.32513 0.83333 0.0
C1942 C 0.3307 0.30041 0.81325 0.0
C1943 C 0.31407 0.3098 0.79866 0.0
H1944 H 0.2057 0.79417 0.36065 0.0
H1945 H 0.26503 0.79161 0.32155 0.0
H1946 H 0.25352 0.7553 0.30135 0.0
H1947 H 0.2254 0.72475 0.2937 0.0
H1948 H 0.16383 0.73276 0.32796 0.0
H1949 H 0.17662 0.76722 0.34981 0.0
C1950 C 0.21605 0.78592 0.34743 0.0
C1951 C 0.2361 0.79612 0.34235 0.0
C1952 C 0.20847 0.76636 0.33435 0.0
C1953 C 0.24953 0.7844 0.32584 0.0
C1954 C 0.24276 0.76378 0.31401 0.0
C1955 C 0.21459 0.73455 0.30537 0.0
C1956 C 0.19344 0.72636 0.30881 0.0
C1957 C 0.22202 0.75484 0.3177 0.0
C1958 C 0.17989 0.73896 0.3245 0.0
C1959 C 0.18736 0.75845 0.33733 0.0
H1960 H 0.79485 0.66593 0.80662 0.0
H1961 H 0.83443 0.72736 0.80365 0.0
H1962 H 0.80578 0.75167 0.82163 0.0
H1963 H 0.77054 0.75484 0.84182 0.0
H1964 H 0.73011 0.69358 0.84279 0.0
H1965 H 0.75778 0.6703 0.82268 0.0
C1966 C 0.7969 0.6848 0.80912 0.0
C1967 C 0.81675 0.69483 0.80314 0.0
C1968 C 0.78029 0.69877 0.81998 0.0
C1969 C 0.81924 0.71923 0.80742 0.0
C1970 C 0.80288 0.73313 0.81808 0.0
C1971 C 0.76748 0.73652 0.83746 0.0
C1972 C 0.74808 0.72619 0.84495 0.0
C1973 C 0.78346 0.72302 0.82501 0.0
C1974 C 0.74497 0.70222 0.83861 0.0
C1975 C 0.7608 0.68874 0.82663 0.0
H1976 H 0.71363 0.83069 0.72683 0.0
H1977 H 0.76401 0.85487 0.77366 0.0
H1978 H 0.74852 0.83274 0.80628 0.0
H1979 H 0.71895 0.80922 0.82269 0.0
H1980 H 0.66631 0.78961 0.77703 0.0
H1981 H 0.68437 0.80704 0.74306 0.0
C1982 C 0.72123 0.83154 0.74417 0.0
C1983 C 0.74006 0.84502 0.74741 0.0
C1984 C 0.71182 0.81925 0.76323 0.0
C1985 C 0.74974 0.84477 0.77014 0.0
C1986 C 0.74075 0.83215 0.78901 0.0
C1987 C 0.71168 0.80826 0.80517 0.0
C1988 C 0.69155 0.79722 0.80244 0.0
C1989 C 0.72163 0.81961 0.78587 0.0
C1990 C 0.68213 0.79685 0.77967 0.0
C1991 C 0.69232 0.80733 0.76026 0.0
H1992 H 0.71861 0.22278 0.31618 0.0
H1993 H 0.75618 0.16875 0.27984 0.0
H1994 H 0.74689 0.18721 0.24193 0.0
H1995 H 0.72539 0.21674 0.21839 0.0
H1996 H 0.67488 0.25598 0.25456 0.0
H1997 H 0.69154 0.24596 0.29253 0.0
C1998 C 0.72477 0.21477 0.30005 0.0
C1999 C 0.73947 0.19502 0.30159 0.0
C2000 C 0.71675 0.22328 0.27787 0.0
C2001 C 0.74663 0.18506 0.28001 0.0
C2002 C 0.74066 0.19524 0.25802 0.0
C2003 C 0.71788 0.2232 0.23452 0.0
C2004 C 0.6995 0.23879 0.23287 0.0
C2005 C 0.7255 0.21422 0.25667 0.0
C2006 C 0.69004 0.24615 0.25441 0.0
C2007 C 0.6992 0.23957 0.27647 0.0
H2008 H 0.30367 0.20821 0.73504 0.0
H2009 H 0.32832 0.13957 0.7584 0.0
H2010 H 0.35749 0.15853 0.7797 0.0
H2011 H 0.37565 0.19429 0.79263 0.0
H2012 H 0.3491 0.26328 0.77298 0.0
H2013 H 0.32164 0.24439 0.74887 0.0
C2014 C 0.31518 0.19732 0.74506 0.0
C2015 C 0.3135 0.17229 0.74495 0.0
C2016 C 0.33187 0.20841 0.75779 0.0
C2017 C 0.3291 0.15872 0.75769 0.0
C2018 C 0.34585 0.1696 0.77004 0.0
C2019 C 0.36376 0.20541 0.78343 0.0
C2020 C 0.36453 0.23044 0.78531 0.0
C2021 C 0.34735 0.19441 0.77032 0.0
C2022 C 0.34929 0.24411 0.77211 0.0
C2023 C 0.3333 0.23326 0.75842 0.0
H2024 H 0.32948 0.82574 0.29327 0.0
H2025 H 0.27748 0.84959 0.24662 0.0
H2026 H 0.29516 0.82973 0.21358 0.0
H2027 H 0.32667 0.80802 0.19667 0.0
H2028 H 0.3813 0.7909 0.24184 0.0
H2029 H 0.36136 0.80548 0.27627 0.0
C2030 C 0.32193 0.82723 0.27595 0.0
C2031 C 0.30181 0.83977 0.27313 0.0
C2032 C 0.33272 0.81652 0.25644 0.0
C2033 C 0.29255 0.84012 0.25014 0.0
C2034 C 0.30283 0.8288 0.23092 0.0
C2035 C 0.33409 0.80705 0.21414 0.0
C2036 C 0.35531 0.79724 0.21653 0.0
C2037 C 0.32304 0.81718 0.23375 0.0
C2038 C 0.36473 0.79689 0.23932 0.0
C2039 C 0.35342 0.80586 0.25906 0.0
loop_
_geom_bond_atom_site_label_1
_geom_bond_atom_site_label_2
_geom_bond_distance
_geom_bond_site_symmetry_2
_ccdc_geom_bond_type
C0 C1 1.443 . S
C0 N4 1.376 . S
C0 C38 1.389 . S
C1 C0 1.443 . S
C1 C2 1.340 . S
C1 H41 0.951 . S
C2 C1 1.340 . S
C2 C3 1.439 . S
C2 H42 0.950 . S
C3 C2 1.439 . S
C3 N4 1.374 . S
C3 C37 1.395 . S
N4 C0 1.376 . S
N4 C3 1.374 . S
N4 Co5 2.008 . S
Co5 N4 2.008 . S
Co5 N6 1.995 . S
Co5 N11 2.008 . S
Co5 N16 1.995 . S
Co5 N21 2.282 . S
Co5 N27 2.282 . S
N6 Co5 1.995 . S
N6 C7 1.376 . S
N6 C10 1.383 . S
C7 N6 1.376 . S
C7 C8 1.446 . S
C7 C37 1.391 . S
C8 C7 1.446 . S
C8 C9 1.339 . S
C8 H43 0.949 . S
C9 C8 1.339 . S
C9 C10 1.439 . S
C9 H44 0.950 . S
C10 N6 1.383 . S
C10 C9 1.439 . S
C10 C39 1.392 . S
N11 Co5 2.008 . S
N11 C12 1.376 . S
N11 C15 1.374 . S
C12 N11 1.376 . S
C12 C13 1.443 . S
C12 C39 1.389 . S
C13 C12 1.443 . S
C13 C14 1.340 . S
C13 H45 0.951 . S
C14 C13 1.340 . S
C14 C15 1.439 . S
C14 H46 0.950 . S
C15 N11 1.374 . S
C15 C14 1.439 . S
C15 C40 1.395 . S
N16 Co5 1.995 . S
N16 C17 1.376 . S
N16 C20 1.383 . S
C17 N16 1.376 . S
C17 C18 1.446 . S
C17 C40 1.391 . S
C18 C17 1.446 . S
C18 C19 1.339 . S
C18 H47 0.949 . S
C19 C18 1.339 . S
C19 C20 1.439 . S
C19 H48 0.950 . S
C20 N16 1.383 . S
C20 C19 1.439 . S
C20 C38 1.392 . S
N21 Co5 2.282 . S
N21 C24 1.332 . S
N21 C26 1.332 . S
C22 C23 1.386 . S
C22 C25 1.388 . S
C23 C22 1.386 . S
C23 C24 1.382 . S
C23 H49 0.950 . S
C24 N21 1.332 . S
C24 C23 1.382 . S
C24 H35 0.952 . S
C25 C22 1.388 . S
C25 C26 1.382 . S
C25 H50 0.950 . S
C26 N21 1.332 . S
C26 C25 1.382 . S
C26 H36 0.948 . S
N27 Co5 2.282 . S
N27 C31 1.332 . S
N27 C32 1.332 . S
C28 C29 1.388 . S
C28 C32 1.382 . S
C28 H51 0.950 . S
C29 C28 1.388 . S
C29 C30 1.386 . S
C30 C29 1.386 . S
C30 C31 1.382 . S
C30 H52 0.950 . S
C31 N27 1.332 . S
C31 C30 1.382 . S
C31 H33 0.952 . S
C32 N27 1.332 . S
C32 C28 1.382 . S
C32 H34 0.948 . S
H33 C31 0.952 . S
H34 C32 0.948 . S
H35 C24 0.952 . S
H36 C26 0.948 . S
C37 C3 1.395 . S
C37 C7 1.391 . S
C38 C0 1.389 . S
C38 C20 1.392 . S
C39 C10 1.392 . S
C39 C12 1.389 . S
C40 C15 1.395 . S
C40 C17 1.391 . S
H41 C1 0.951 . S
H42 C2 0.950 . S
H43 C8 0.949 . S
H44 C9 0.950 . S
H45 C13 0.951 . S
H46 C14 0.950 . S
H47 C18 0.949 . S
H48 C19 0.950 . S
H49 C23 0.950 . S
H50 C25 0.950 . S
H51 C28 0.950 . S
H52 C30 0.950 . S
C53 C54 1.443 . S
C53 N57 1.376 . S
C53 C91 1.389 . S
C54 C53 1.443 . S
C54 C55 1.340 . S
C54 H94 0.951 . S
C55 C54 1.340 . S
C55 C56 1.439 . S
C55 H95 0.950 . S
C56 C55 1.439 . S
C56 N57 1.374 . S
C56 C90 1.395 . S
N57 C53 1.376 . S
N57 C56 1.374 . S
N57 Co58 2.008 . S
Co58 N57 2.008 . S
Co58 N59 1.995 . S
Co58 N64 2.008 . S
Co58 N69 1.995 . S
Co58 N74 2.282 . S
Co58 N80 2.282 . S
N59 Co58 1.995 . S
N59 C60 1.376 . S
N59 C63 1.383 . S
C60 N59 1.376 . S
C60 C61 1.446 . S
C60 C90 1.391 . S
C61 C60 1.446 . S
C61 C62 1.339 . S
C61 H96 0.949 . S
C62 C61 1.339 . S
C62 C63 1.439 . S
C62 H97 0.950 . S
C63 N59 1.383 . S
C63 C62 1.439 . S
C63 C92 1.392 . S
N64 Co58 2.008 . S
N64 C65 1.376 . S
N64 C68 1.374 . S
C65 N64 1.376 . S
C65 C66 1.443 . S
C65 C92 1.389 . S
C66 C65 1.443 . S
C66 C67 1.340 . S
C66 H98 0.951 . S
C67 C66 1.340 . S
C67 C68 1.439 . S
C67 H99 0.950 . S
C68 N64 1.374 . S
C68 C67 1.439 . S
C68 C93 1.395 . S
N69 Co58 1.995 . S
N69 C70 1.376 . S
N69 C73 1.383 . S
C70 N69 1.376 . S
C70 C71 1.446 . S
C70 C93 1.391 . S
C71 C70 1.446 . S
C71 C72 1.339 . S
C71 H100 0.949 . S
C72 C71 1.339 . S
C72 C73 1.439 . S
C72 H101 0.950 . S
C73 N69 1.383 . S
C73 C72 1.439 . S
C73 C91 1.392 . S
N74 Co58 2.282 . S
N74 C77 1.332 . S
N74 C79 1.332 . S
C75 C76 1.386 . S
C75 C78 1.388 . S
C76 C75 1.386 . S
C76 C77 1.382 . S
C76 H102 0.950 . S
C77 N74 1.332 . S
C77 C76 1.382 . S
C77 H88 0.952 . S
C78 C75 1.388 . S
C78 C79 1.382 . S
C78 H103 0.950 . S
C79 N74 1.332 . S
C79 C78 1.382 . S
C79 H89 0.948 . S
N80 Co58 2.282 . S
N80 C84 1.332 . S
N80 C85 1.332 . S
C81 C82 1.388 . S
C81 C85 1.382 . S
C81 H104 0.950 . S
C82 C81 1.388 . S
C82 C83 1.386 . S
C83 C82 1.386 . S
C83 C84 1.382 . S
C83 H105 0.950 . S
C84 N80 1.332 . S
C84 C83 1.382 . S
C84 H86 0.952 . S
C85 N80 1.332 . S
C85 C81 1.382 . S
C85 H87 0.948 . S
H86 C84 0.952 . S
H87 C85 0.948 . S
H88 C77 0.952 . S
H89 C79 0.948 . S
C90 C56 1.395 . S
C90 C60 1.391 . S
C91 C53 1.389 . S
C91 C73 1.392 . S
C92 C63 1.392 . S
C92 C65 1.389 . S
C93 C68 1.395 . S
C93 C70 1.391 . S
H94 C54 0.951 . S
H95 C55 0.950 . S
H96 C61 0.949 . S
H97 C62 0.950 . S
H98 C66 0.951 . S
H99 C67 0.950 . S
H100 C71 0.949 . S
H101 C72 0.950 . S
H102 C76 0.950 . S
H103 C78 0.950 . S
H104 C81 0.950 . S
H105 C83 0.950 . S
C106 C107 1.443 . S
C106 N110 1.376 . S
C106 C144 1.389 . S
C107 C106 1.443 . S
C107 C108 1.340 . S
C107 H147 0.951 . S
C108 C107 1.340 . S
C108 C109 1.439 . S
C108 H148 0.950 . S
C109 C108 1.439 . S
C109 N110 1.374 . S
C109 C143 1.395 . S
N110 C106 1.376 . S
N110 C109 1.374 . S
N110 Co111 2.008 . S
Co111 N110 2.008 . S
Co111 N112 1.995 . S
Co111 N117 2.008 . S
Co111 N122 1.995 . S
Co111 N127 2.282 . S
Co111 N133 2.282 . S
N112 Co111 1.995 . S
N112 C113 1.376 . S
N112 C116 1.383 . S
C113 N112 1.376 . S
C113 C114 1.446 . S
C113 C143 1.391 . S
C114 C113 1.446 . S
C114 C115 1.339 . S
C114 H149 0.949 . S
C115 C114 1.339 . S
C115 C116 1.439 . S
C115 H150 0.950 . S
C116 N112 1.383 . S
C116 C115 1.439 . S
C116 C145 1.392 . S
N117 Co111 2.008 . S
N117 C118 1.376 . S
N117 C121 1.374 . S
C118 N117 1.376 . S
C118 C119 1.443 . S
C118 C145 1.389 . S
C119 C118 1.443 . S
C119 C120 1.340 . S
C119 H151 0.951 . S
C120 C119 1.340 . S
C120 C121 1.439 . S
C120 H152 0.950 . S
C121 N117 1.374 . S
C121 C120 1.439 . S
C121 C146 1.395 . S
N122 Co111 1.995 . S
N122 C123 1.376 . S
N122 C126 1.383 . S
C123 N122 1.376 . S
C123 C124 1.446 . S
C123 C146 1.391 . S
C124 C123 1.446 . S
C124 C125 1.339 . S
C124 H153 0.949 . S
C125 C124 1.339 . S
C125 C126 1.439 . S
C125 H154 0.950 . S
C126 N122 1.383 . S
C126 C125 1.439 . S
C126 C144 1.392 . S
N127 Co111 2.282 . S
N127 C130 1.332 . S
N127 C132 1.332 . S
C128 C129 1.386 . S
C128 C131 1.388 . S
C129 C128 1.386 . S
C129 C130 1.382 . S
C129 H155 0.950 . S
C130 N127 1.332 . S
C130 C129 1.382 . S
C130 H141 0.952 . S
C131 C128 1.388 . S
C131 C132 1.382 . S
C131 H156 0.950 . S
C132 N127 1.332 . S
C132 C131 1.382 . S
C132 H142 0.948 . S
N133 Co111 2.282 . S
N133 C137 1.332 . S
N133 C138 1.332 . S
C134 C135 1.388 . S
C134 C138 1.382 . S
C134 H157 0.950 . S
C135 C134 1.388 . S
C135 C136 1.386 . S
C136 C135 1.386 . S
C136 C137 1.382 . S
C136 H158 0.950 . S
C137 N133 1.332 . S
C137 C136 1.382 . S
C137 H139 0.952 . S
C138 N133 1.332 . S
C138 C134 1.382 . S
C138 H140 0.948 . S
H139 C137 0.952 . S
H140 C138 0.948 . S
H141 C130 0.952 . S
H142 C132 0.948 . S
C143 C109 1.395 . S
C143 C113 1.391 . S
C144 C106 1.389 . S
C144 C126 1.392 . S
C145 C116 1.392 . S
C145 C118 1.389 . S
C146 C121 1.395 . S
C146 C123 1.391 . S
H147 C107 0.951 . S
H148 C108 0.950 . S
H149 C114 0.949 . S
H150 C115 0.950 . S
H151 C119 0.951 . S
H152 C120 0.950 . S
H153 C124 0.949 . S
H154 C125 0.950 . S
H155 C129 0.950 . S
H156 C131 0.950 . S
H157 C134 0.950 . S
H158 C136 0.950 . S
C159 C160 1.443 . S
C159 N163 1.376 . S
C159 C197 1.389 . S
C160 C159 1.443 . S
C160 C161 1.340 . S
C160 H200 0.951 . S
C161 C160 1.340 . S
C161 C162 1.439 . S
C161 H201 0.950 . S
C162 C161 1.439 . S
C162 N163 1.374 . S
C162 C196 1.395 . S
N163 C159 1.376 . S
N163 C162 1.374 . S
N163 Co164 2.008 . S
Co164 N163 2.008 . S
Co164 N165 1.995 . S
Co164 N170 2.008 . S
Co164 N175 1.995 . S
Co164 N180 2.282 . S
Co164 N186 2.282 . S
N165 Co164 1.995 . S
N165 C166 1.376 . S
N165 C169 1.383 . S
C166 N165 1.376 . S
C166 C167 1.446 . S
C166 C196 1.391 . S
C167 C166 1.446 . S
C167 C168 1.339 . S
C167 H202 0.949 . S
C168 C167 1.339 . S
C168 C169 1.439 . S
C168 H203 0.950 . S
C169 N165 1.383 . S
C169 C168 1.439 . S
C169 C198 1.392 . S
N170 Co164 2.008 . S
N170 C171 1.376 . S
N170 C174 1.374 . S
C171 N170 1.376 . S
C171 C172 1.443 . S
C171 C198 1.389 . S
C172 C171 1.443 . S
C172 C173 1.340 . S
C172 H204 0.951 . S
C173 C172 1.340 . S
C173 C174 1.439 . S
C173 H205 0.950 . S
C174 N170 1.374 . S
C174 C173 1.439 . S
C174 C199 1.395 . S
N175 Co164 1.995 . S
N175 C176 1.376 . S
N175 C179 1.383 . S
C176 N175 1.376 . S
C176 C177 1.446 . S
C176 C199 1.391 . S
C177 C176 1.446 . S
C177 C178 1.339 . S
C177 H206 0.949 . S
C178 C177 1.339 . S
C178 C179 1.439 . S
C178 H207 0.950 . S
C179 N175 1.383 . S
C179 C178 1.439 . S
C179 C197 1.392 . S
N180 Co164 2.282 . S
N180 C183 1.332 . S
N180 C185 1.332 . S
C181 C182 1.386 . S
C181 C184 1.388 . S
C182 C181 1.386 . S
C182 C183 1.382 . S
C182 H208 0.950 . S
C183 N180 1.332 . S
C183 C182 1.382 . S
C183 H194 0.952 . S
C184 C181 1.388 . S
C184 C185 1.382 . S
C184 H209 0.950 . S
C185 N180 1.332 . S
C185 C184 1.382 . S
C185 H195 0.948 . S
N186 Co164 2.282 . S
N186 C190 1.332 . S
N186 C191 1.332 . S
C187 C188 1.388 . S
C187 C191 1.382 . S
C187 H210 0.950 . S
C188 C187 1.388 . S
C188 C189 1.386 . S
C189 C188 1.386 . S
C189 C190 1.382 . S
C189 H211 0.950 . S
C190 N186 1.332 . S
C190 C189 1.382 . S
C190 H192 0.952 . S
C191 N186 1.332 . S
C191 C187 1.382 . S
C191 H193 0.948 . S
H192 C190 0.952 . S
H193 C191 0.948 . S
H194 C183 0.952 . S
H195 C185 0.948 . S
C196 C162 1.395 . S
C196 C166 1.391 . S
C197 C159 1.389 . S
C197 C179 1.392 . S
C198 C169 1.392 . S
C198 C171 1.389 . S
C199 C174 1.395 . S
C199 C176 1.391 . S
H200 C160 0.951 . S
H201 C161 0.950 . S
H202 C167 0.949 . S
H203 C168 0.950 . S
H204 C172 0.951 . S
H205 C173 0.950 . S
H206 C177 0.949 . S
H207 C178 0.950 . S
H208 C182 0.950 . S
H209 C184 0.950 . S
H210 C187 0.950 . S
H211 C189 0.950 . S
C212 C213 1.443 . S
C212 N216 1.376 . S
C212 C250 1.389 . S
C213 C212 1.443 . S
C213 C214 1.340 . S
C213 H253 0.951 . S
C214 C213 1.340 . S
C214 C215 1.439 . S
C214 H254 0.950 . S
C215 C214 1.439 . S
C215 N216 1.374 . S
C215 C249 1.395 . S
N216 C212 1.376 . S
N216 C215 1.374 . S
N216 Co217 2.008 . S
Co217 N216 2.008 . S
Co217 N218 1.995 . S
Co217 N223 2.008 . S
Co217 N228 1.995 . S
Co217 N233 2.282 . S
Co217 N239 2.282 . S
N218 Co217 1.995 . S
N218 C219 1.376 . S
N218 C222 1.383 . S
C219 N218 1.376 . S
C219 C220 1.446 . S
C219 C249 1.391 . S
C220 C219 1.446 . S
C220 C221 1.339 . S
C220 H255 0.949 . S
C221 C220 1.339 . S
C221 C222 1.439 . S
C221 H256 0.950 . S
C222 N218 1.383 . S
C222 C221 1.439 . S
C222 C251 1.392 . S
N223 Co217 2.008 . S
N223 C224 1.376 . S
N223 C227 1.374 . S
C224 N223 1.376 . S
C224 C225 1.443 . S
C224 C251 1.389 . S
C225 C224 1.443 . S
C225 C226 1.340 . S
C225 H257 0.951 . S
C226 C225 1.340 . S
C226 C227 1.439 . S
C226 H258 0.950 . S
C227 N223 1.374 . S
C227 C226 1.439 . S
C227 C252 1.395 . S
N228 Co217 1.995 . S
N228 C229 1.376 . S
N228 C232 1.383 . S
C229 N228 1.376 . S
C229 C230 1.446 . S
C229 C252 1.391 . S
C230 C229 1.446 . S
C230 C231 1.339 . S
C230 H259 0.949 . S
C231 C230 1.339 . S
C231 C232 1.439 . S
C231 H260 0.950 . S
C232 N228 1.383 . S
C232 C231 1.439 . S
C232 C250 1.392 . S
N233 Co217 2.282 . S
N233 C236 1.332 . S
N233 C238 1.332 . S
C234 C235 1.386 . S
C234 C237 1.388 . S
C235 C234 1.386 . S
C235 C236 1.382 . S
C235 H261 0.950 . S
C236 N233 1.332 . S
C236 C235 1.382 . S
C236 H247 0.952 . S
C237 C234 1.388 . S
C237 C238 1.382 . S
C237 H262 0.950 . S
C238 N233 1.332 . S
C238 C237 1.382 . S
C238 H248 0.948 . S
N239 Co217 2.282 . S
N239 C243 1.332 . S
N239 C244 1.332 . S
C240 C241 1.388 . S
C240 C244 1.382 . S
C240 H263 0.950 . S
C241 C240 1.388 . S
C241 C242 1.386 . S
C242 C241 1.386 . S
C242 C243 1.382 . S
C242 H264 0.950 . S
C243 N239 1.332 . S
C243 C242 1.382 . S
C243 H245 0.952 . S
C244 N239 1.332 . S
C244 C240 1.382 . S
C244 H246 0.948 . S
H245 C243 0.952 . S
H246 C244 0.948 . S
H247 C236 0.952 . S
H248 C238 0.948 . S
C249 C215 1.395 . S
C249 C219 1.391 . S
C250 C212 1.389 . S
C250 C232 1.392 . S
C251 C222 1.392 . S
C251 C224 1.389 . S
C252 C227 1.395 . S
C252 C229 1.391 . S
H253 C213 0.951 . S
H254 C214 0.950 . S
H255 C220 0.949 . S
H256 C221 0.950 . S
H257 C225 0.951 . S
H258 C226 0.950 . S
H259 C230 0.949 . S
H260 C231 0.950 . S
H261 C235 0.950 . S
H262 C237 0.950 . S
H263 C240 0.950 . S
H264 C242 0.950 . S
C265 C266 1.443 . S
C265 N269 1.376 . S
C265 C303 1.389 . S
C266 C265 1.443 . S
C266 C267 1.340 . S
C266 H306 0.951 . S
C267 C266 1.340 . S
C267 C268 1.439 . S
C267 H307 0.950 . S
C268 C267 1.439 . S
C268 N269 1.374 . S
C268 C302 1.395 . S
N269 C265 1.376 . S
N269 C268 1.374 . S
N269 Co270 2.008 . S
Co270 N269 2.008 . S
Co270 N271 1.995 . S
Co270 N276 2.008 . S
Co270 N281 1.995 . S
Co270 N286 2.282 . S
Co270 N292 2.282 . S
N271 Co270 1.995 . S
N271 C272 1.376 . S
N271 C275 1.383 . S
C272 N271 1.376 . S
C272 C273 1.446 . S
C272 C302 1.391 . S
C273 C272 1.446 . S
C273 C274 1.339 . S
C273 H308 0.949 . S
C274 C273 1.339 . S
C274 C275 1.439 . S
C274 H309 0.950 . S
C275 N271 1.383 . S
C275 C274 1.439 . S
C275 C304 1.392 . S
N276 Co270 2.008 . S
N276 C277 1.376 . S
N276 C280 1.374 . S
C277 N276 1.376 . S
C277 C278 1.443 . S
C277 C304 1.389 . S
C278 C277 1.443 . S
C278 C279 1.340 . S
C278 H310 0.951 . S
C279 C278 1.340 . S
C279 C280 1.439 . S
C279 H311 0.950 . S
C280 N276 1.374 . S
C280 C279 1.439 . S
C280 C305 1.395 . S
N281 Co270 1.995 . S
N281 C282 1.376 . S
N281 C285 1.383 . S
C282 N281 1.376 . S
C282 C283 1.446 . S
C282 C305 1.391 . S
C283 C282 1.446 . S
C283 C284 1.339 . S
C283 H312 0.949 . S
C284 C283 1.339 . S
C284 C285 1.439 . S
C284 H313 0.950 . S
C285 N281 1.383 . S
C285 C284 1.439 . S
C285 C303 1.392 . S
N286 Co270 2.282 . S
N286 C289 1.332 . S
N286 C291 1.332 . S
C287 C288 1.386 . S
C287 C290 1.388 . S
C288 C287 1.386 . S
C288 C289 1.382 . S
C288 H314 0.950 . S
C289 N286 1.332 . S
C289 C288 1.382 . S
C289 H300 0.952 . S
C290 C287 1.388 . S
C290 C291 1.382 . S
C290 H315 0.950 . S
C291 N286 1.332 . S
C291 C290 1.382 . S
C291 H301 0.948 . S
N292 Co270 2.282 . S
N292 C296 1.332 . S
N292 C297 1.332 . S
C293 C294 1.388 . S
C293 C297 1.382 . S
C293 H316 0.950 . S
C294 C293 1.388 . S
C294 C295 1.386 . S
C295 C294 1.386 . S
C295 C296 1.382 . S
C295 H317 0.950 . S
C296 N292 1.332 . S
C296 C295 1.382 . S
C296 H298 0.952 . S
C297 N292 1.332 . S
C297 C293 1.382 . S
C297 H299 0.948 . S
H298 C296 0.952 . S
H299 C297 0.948 . S
H300 C289 0.952 . S
H301 C291 0.948 . S
C302 C268 1.395 . S
C302 C272 1.391 . S
C303 C265 1.389 . S
C303 C285 1.392 . S
C304 C275 1.392 . S
C304 C277 1.389 . S
C305 C280 1.395 . S
C305 C282 1.391 . S
H306 C266 0.951 . S
H307 C267 0.950 . S
H308 C273 0.949 . S
H309 C274 0.950 . S
H310 C278 0.951 . S
H311 C279 0.950 . S
H312 C283 0.949 . S
H313 C284 0.950 . S
H314 C288 0.950 . S
H315 C290 0.950 . S
H316 C293 0.950 . S
H317 C295 0.950 . S
C318 C319 1.443 . S
C318 N322 1.376 . S
C318 C356 1.389 . S
C319 C318 1.443 . S
C319 C320 1.340 . S
C319 H359 0.951 . S
C320 C319 1.340 . S
C320 C321 1.439 . S
C320 H360 0.950 . S
C321 C320 1.439 . S
C321 N322 1.374 . S
C321 C355 1.395 . S
N322 C318 1.376 . S
N322 C321 1.374 . S
N322 Co323 2.008 . S
Co323 N322 2.008 . S
Co323 N324 1.995 . S
Co323 N329 2.008 . S
Co323 N334 1.995 . S
Co323 N339 2.282 . S
Co323 N345 2.282 . S
N324 Co323 1.995 . S
N324 C325 1.376 . S
N324 C328 1.383 . S
C325 N324 1.376 . S
C325 C326 1.446 . S
C325 C355 1.391 . S
C326 C325 1.446 . S
C326 C327 1.339 . S
C326 H361 0.949 . S
C327 C326 1.339 . S
C327 C328 1.439 . S
C327 H362 0.950 . S
C328 N324 1.383 . S
C328 C327 1.439 . S
C328 C357 1.392 . S
N329 Co323 2.008 . S
N329 C330 1.376 . S
N329 C333 1.374 . S
C330 N329 1.376 . S
C330 C331 1.443 . S
C330 C357 1.389 . S
C331 C330 1.443 . S
C331 C332 1.340 . S
C331 H363 0.951 . S
C332 C331 1.340 . S
C332 C333 1.439 . S
C332 H364 0.950 . S
C333 N329 1.374 . S
C333 C332 1.439 . S
C333 C358 1.395 . S
N334 Co323 1.995 . S
N334 C335 1.376 . S
N334 C338 1.383 . S
C335 N334 1.376 . S
C335 C336 1.446 . S
C335 C358 1.391 . S
C336 C335 1.446 . S
C336 C337 1.339 . S
C336 H365 0.949 . S
C337 C336 1.339 . S
C337 C338 1.439 . S
C337 H366 0.950 . S
C338 N334 1.383 . S
C338 C337 1.439 . S
C338 C356 1.392 . S
N339 Co323 2.282 . S
N339 C342 1.332 . S
N339 C344 1.332 . S
C340 C341 1.386 . S
C340 C343 1.388 . S
C341 C340 1.386 . S
C341 C342 1.382 . S
C341 H367 0.950 . S
C342 N339 1.332 . S
C342 C341 1.382 . S
C342 H353 0.952 . S
C343 C340 1.388 . S
C343 C344 1.382 . S
C343 H368 0.950 . S
C344 N339 1.332 . S
C344 C343 1.382 . S
C344 H354 0.948 . S
N345 Co323 2.282 . S
N345 C349 1.332 . S
N345 C350 1.332 . S
C346 C347 1.388 . S
C346 C350 1.382 . S
C346 H369 0.950 . S
C347 C346 1.388 . S
C347 C348 1.386 . S
C348 C347 1.386 . S
C348 C349 1.382 . S
C348 H370 0.950 . S
C349 N345 1.332 . S
C349 C348 1.382 . S
C349 H351 0.952 . S
C350 N345 1.332 . S
C350 C346 1.382 . S
C350 H352 0.948 . S
H351 C349 0.952 . S
H352 C350 0.948 . S
H353 C342 0.952 . S
H354 C344 0.948 . S
C355 C321 1.395 . S
C355 C325 1.391 . S
C356 C318 1.389 . S
C356 C338 1.392 . S
C357 C328 1.392 . S
C357 C330 1.389 . S
C358 C333 1.395 . S
C358 C335 1.391 . S
H359 C319 0.951 . S
H360 C320 0.950 . S
H361 C326 0.949 . S
H362 C327 0.950 . S
H363 C331 0.951 . S
H364 C332 0.950 . S
H365 C336 0.949 . S
H366 C337 0.950 . S
H367 C341 0.950 . S
H368 C343 0.950 . S
H369 C346 0.950 . S
H370 C348 0.950 . S
C371 C372 1.443 . S
C371 N375 1.376 . S
C371 C409 1.389 . S
C372 C371 1.443 . S
C372 C373 1.340 . S
C372 H412 0.951 . S
C373 C372 1.340 . S
C373 C374 1.439 . S
C373 H413 0.950 . S
C374 C373 1.439 . S
C374 N375 1.374 . S
C374 C408 1.395 . S
N375 C371 1.376 . S
N375 C374 1.374 . S
N375 Co376 2.008 . S
Co376 N375 2.008 . S
Co376 N377 1.995 . S
Co376 N382 2.008 . S
Co376 N387 1.995 . S
Co376 N392 2.282 . S
Co376 N398 2.282 . S
N377 Co376 1.995 . S
N377 C378 1.376 . S
N377 C381 1.383 . S
C378 N377 1.376 . S
C378 C379 1.446 . S
C378 C408 1.391 . S
C379 C378 1.446 . S
C379 C380 1.339 . S
C379 H414 0.949 . S
C380 C379 1.339 . S
C380 C381 1.439 . S
C380 H415 0.950 . S
C381 N377 1.383 . S
C381 C380 1.439 . S
C381 C410 1.392 . S
N382 Co376 2.008 . S
N382 C383 1.376 . S
N382 C386 1.374 . S
C383 N382 1.376 . S
C383 C384 1.443 . S
C383 C410 1.389 . S
C384 C383 1.443 . S
C384 C385 1.340 . S
C384 H416 0.951 . S
C385 C384 1.340 . S
C385 C386 1.439 . S
C385 H417 0.950 . S
C386 N382 1.374 . S
C386 C385 1.439 . S
C386 C411 1.395 . S
N387 Co376 1.995 . S
N387 C388 1.376 . S
N387 C391 1.383 . S
C388 N387 1.376 . S
C388 C389 1.446 . S
C388 C411 1.391 . S
C389 C388 1.446 . S
C389 C390 1.339 . S
C389 H418 0.949 . S
C390 C389 1.339 . S
C390 C391 1.439 . S
C390 H419 0.950 . S
C391 N387 1.383 . S
C391 C390 1.439 . S
C391 C409 1.392 . S
N392 Co376 2.282 . S
N392 C395 1.332 . S
N392 C397 1.332 . S
C393 C394 1.386 . S
C393 C396 1.388 . S
C394 C393 1.386 . S
C394 C395 1.382 . S
C394 H420 0.950 . S
C395 N392 1.332 . S
C395 C394 1.382 . S
C395 H406 0.952 . S
C396 C393 1.388 . S
C396 C397 1.382 . S
C396 H421 0.950 . S
C397 N392 1.332 . S
C397 C396 1.382 . S
C397 H407 0.948 . S
N398 Co376 2.282 . S
N398 C402 1.332 . S
N398 C403 1.332 . S
C399 C400 1.388 . S
C399 C403 1.382 . S
C399 H422 0.950 . S
C400 C399 1.388 . S
C400 C401 1.386 . S
C401 C400 1.386 . S
C401 C402 1.382 . S
C401 H423 0.950 . S
C402 N398 1.332 . S
C402 C401 1.382 . S
C402 H404 0.952 . S
C403 N398 1.332 . S
C403 C399 1.382 . S
C403 H405 0.948 . S
H404 C402 0.952 . S
H405 C403 0.948 . S
H406 C395 0.952 . S
H407 C397 0.948 . S
C408 C374 1.395 . S
C408 C378 1.391 . S
C409 C371 1.389 . S
C409 C391 1.392 . S
C410 C381 1.392 . S
C410 C383 1.389 . S
C411 C386 1.395 . S
C411 C388 1.391 . S
H412 C372 0.951 . S
H413 C373 0.950 . S
H414 C379 0.949 . S
H415 C380 0.950 . S
H416 C384 0.951 . S
H417 C385 0.950 . S
H418 C389 0.949 . S
H419 C390 0.950 . S
H420 C394 0.950 . S
H421 C396 0.950 . S
H422 C399 0.950 . S
H423 C401 0.950 . S
C424 C425 1.443 . S
C424 N428 1.376 . S
C424 C462 1.389 . S
C425 C424 1.443 . S
C425 C426 1.340 . S
C425 H465 0.951 . S
C426 C425 1.340 . S
C426 C427 1.439 . S
C426 H466 0.950 . S
C427 C426 1.439 . S
C427 N428 1.374 . S
C427 C461 1.395 . S
N428 C424 1.376 . S
N428 C427 1.374 . S
N428 Co429 2.008 . S
Co429 N428 2.008 . S
Co429 N430 1.995 . S
Co429 N435 2.008 . S
Co429 N440 1.995 . S
Co429 N445 2.282 . S
Co429 N451 2.282 . S
N430 Co429 1.995 . S
N430 C431 1.376 . S
N430 C434 1.383 . S
C431 N430 1.376 . S
C431 C432 1.446 . S
C431 C461 1.391 . S
C432 C431 1.446 . S
C432 C433 1.339 . S
C432 H467 0.949 . S
C433 C432 1.339 . S
C433 C434 1.439 . S
C433 H468 0.950 . S
C434 N430 1.383 . S
C434 C433 1.439 . S
C434 C463 1.392 . S
N435 Co429 2.008 . S
N435 C436 1.376 . S
N435 C439 1.374 . S
C436 N435 1.376 . S
C436 C437 1.443 . S
C436 C463 1.389 . S
C437 C436 1.443 . S
C437 C438 1.340 . S
C437 H469 0.951 . S
C438 C437 1.340 . S
C438 C439 1.439 . S
C438 H470 0.950 . S
C439 N435 1.374 . S
C439 C438 1.439 . S
C439 C464 1.395 . S
N440 Co429 1.995 . S
N440 C441 1.376 . S
N440 C444 1.383 . S
C441 N440 1.376 . S
C441 C442 1.446 . S
C441 C464 1.391 . S
C442 C441 1.446 . S
C442 C443 1.339 . S
C442 H471 0.949 . S
C443 C442 1.339 . S
C443 C444 1.439 . S
C443 H472 0.950 . S
C444 N440 1.383 . S
C444 C443 1.439 . S
C444 C462 1.392 . S
N445 Co429 2.282 . S
N445 C448 1.332 . S
N445 C450 1.332 . S
C446 C447 1.386 . S
C446 C449 1.388 . S
C447 C446 1.386 . S
C447 C448 1.382 . S
C447 H473 0.950 . S
C448 N445 1.332 . S
C448 C447 1.382 . S
C448 H459 0.952 . S
C449 C446 1.388 . S
C449 C450 1.382 . S
C449 H474 0.950 . S
C450 N445 1.332 . S
C450 C449 1.382 . S
C450 H460 0.948 . S
N451 Co429 2.282 . S
N451 C455 1.332 . S
N451 C456 1.332 . S
C452 C453 1.388 . S
C452 C456 1.382 . S
C452 H475 0.950 . S
C453 C452 1.388 . S
C453 C454 1.386 . S
C454 C453 1.386 . S
C454 C455 1.382 . S
C454 H476 0.950 . S
C455 N451 1.332 . S
C455 C454 1.382 . S
C455 H457 0.952 . S
C456 N451 1.332 . S
C456 C452 1.382 . S
C456 H458 0.948 . S
H457 C455 0.952 . S
H458 C456 0.948 . S
H459 C448 0.952 . S
H460 C450 0.948 . S
C461 C427 1.395 . S
C461 C431 1.391 . S
C462 C424 1.389 . S
C462 C444 1.392 . S
C463 C434 1.392 . S
C463 C436 1.389 . S
C464 C439 1.395 . S
C464 C441 1.391 . S
H465 C425 0.951 . S
H466 C426 0.950 . S
H467 C432 0.949 . S
H468 C433 0.950 . S
H469 C437 0.951 . S
H470 C438 0.950 . S
H471 C442 0.949 . S
H472 C443 0.950 . S
H473 C447 0.950 . S
H474 C449 0.950 . S
H475 C452 0.950 . S
H476 C454 0.950 . S
C477 C478 1.443 . S
C477 N481 1.376 . S
C477 C515 1.389 . S
C478 C477 1.443 . S
C478 C479 1.340 . S
C478 H518 0.951 . S
C479 C478 1.340 . S
C479 C480 1.439 . S
C479 H519 0.950 . S
C480 C479 1.439 . S
C480 N481 1.374 . S
C480 C514 1.395 . S
N481 C477 1.376 . S
N481 C480 1.374 . S
N481 Co482 2.008 . S
Co482 N481 2.008 . S
Co482 N483 1.995 . S
Co482 N488 2.008 . S
Co482 N493 1.995 . S
Co482 N498 2.282 . S
Co482 N504 2.282 . S
N483 Co482 1.995 . S
N483 C484 1.376 . S
N483 C487 1.383 . S
C484 N483 1.376 . S
C484 C485 1.446 . S
C484 C514 1.391 . S
C485 C484 1.446 . S
C485 C486 1.339 . S
C485 H520 0.949 . S
C486 C485 1.339 . S
C486 C487 1.439 . S
C486 H521 0.950 . S
C487 N483 1.383 . S
C487 C486 1.439 . S
C487 C516 1.392 . S
N488 Co482 2.008 . S
N488 C489 1.376 . S
N488 C492 1.374 . S
C489 N488 1.376 . S
C489 C490 1.443 . S
C489 C516 1.389 . S
C490 C489 1.443 . S
C490 C491 1.340 . S
C490 H522 0.951 . S
C491 C490 1.340 . S
C491 C492 1.439 . S
C491 H523 0.950 . S
C492 N488 1.374 . S
C492 C491 1.439 . S
C492 C517 1.395 . S
N493 Co482 1.995 . S
N493 C494 1.376 . S
N493 C497 1.383 . S
C494 N493 1.376 . S
C494 C495 1.446 . S
C494 C517 1.391 . S
C495 C494 1.446 . S
C495 C496 1.339 . S
C495 H524 0.949 . S
C496 C495 1.339 . S
C496 C497 1.439 . S
C496 H525 0.950 . S
C497 N493 1.383 . S
C497 C496 1.439 . S
C497 C515 1.392 . S
N498 Co482 2.282 . S
N498 C501 1.332 . S
N498 C503 1.332 . S
C499 C500 1.386 . S
C499 C502 1.388 . S
C500 C499 1.386 . S
C500 C501 1.382 . S
C500 H526 0.950 . S
C501 N498 1.332 . S
C501 C500 1.382 . S
C501 H512 0.952 . S
C502 C499 1.388 . S
C502 C503 1.382 . S
C502 H527 0.950 . S
C503 N498 1.332 . S
C503 C502 1.382 . S
C503 H513 0.948 . S
N504 Co482 2.282 . S
N504 C508 1.332 . S
N504 C509 1.332 . S
C505 C506 1.388 . S
C505 C509 1.382 . S
C505 H528 0.950 . S
C506 C505 1.388 . S
C506 C507 1.386 . S
C507 C506 1.386 . S
C507 C508 1.382 . S
C507 H529 0.950 . S
C508 N504 1.332 . S
C508 C507 1.382 . S
C508 H510 0.952 . S
C509 N504 1.332 . S
C509 C505 1.382 . S
C509 H511 0.948 . S
H510 C508 0.952 . S
H511 C509 0.948 . S
H512 C501 0.952 . S
H513 C503 0.948 . S
C514 C480 1.395 . S
C514 C484 1.391 . S
C515 C477 1.389 . S
C515 C497 1.392 . S
C516 C487 1.392 . S
C516 C489 1.389 . S
C517 C492 1.395 . S
C517 C494 1.391 . S
H518 C478 0.951 . S
H519 C479 0.950 . S
H520 C485 0.949 . S
H521 C486 0.950 . S
H522 C490 0.951 . S
H523 C491 0.950 . S
H524 C495 0.949 . S
H525 C496 0.950 . S
H526 C500 0.950 . S
H527 C502 0.950 . S
H528 C505 0.950 . S
H529 C507 0.950 . S
C530 C531 1.443 . S
C530 N534 1.376 . S
C530 C568 1.389 . S
C531 C530 1.443 . S
C531 C532 1.340 . S
C531 H571 0.951 . S
C532 C531 1.340 . S
C532 C533 1.439 . S
C532 H572 0.950 . S
C533 C532 1.439 . S
C533 N534 1.374 . S
C533 C567 1.395 . S
N534 C530 1.376 . S
N534 C533 1.374 . S
N534 Co535 2.008 . S
Co535 N534 2.008 . S
Co535 N536 1.995 . S
Co535 N541 2.008 . S
Co535 N546 1.995 . S
Co535 N551 2.282 . S
Co535 N557 2.282 . S
N536 Co535 1.995 . S
N536 C537 1.376 . S
N536 C540 1.383 . S
C537 N536 1.376 . S
C537 C538 1.446 . S
C537 C567 1.391 . S
C538 C537 1.446 . S
C538 C539 1.339 . S
C538 H573 0.949 . S
C539 C538 1.339 . S
C539 C540 1.439 . S
C539 H574 0.950 . S
C540 N536 1.383 . S
C540 C539 1.439 . S
C540 C569 1.392 . S
N541 Co535 2.008 . S
N541 C542 1.376 . S
N541 C545 1.374 . S
C542 N541 1.376 . S
C542 C543 1.443 . S
C542 C569 1.389 . S
C543 C542 1.443 . S
C543 C544 1.340 . S
C543 H575 0.951 . S
C544 C543 1.340 . S
C544 C545 1.439 . S
C544 H576 0.950 . S
C545 N541 1.374 . S
C545 C544 1.439 . S
C545 C570 1.395 . S
N546 Co535 1.995 . S
N546 C547 1.376 . S
N546 C550 1.383 . S
C547 N546 1.376 . S
C547 C548 1.446 . S
C547 C570 1.391 . S
C548 C547 1.446 . S
C548 C549 1.339 . S
C548 H577 0.949 . S
C549 C548 1.339 . S
C549 C550 1.439 . S
C549 H578 0.950 . S
C550 N546 1.383 . S
C550 C549 1.439 . S
C550 C568 1.392 . S
N551 Co535 2.282 . S
N551 C554 1.332 . S
N551 C556 1.332 . S
C552 C553 1.386 . S
C552 C555 1.388 . S
C553 C552 1.386 . S
C553 C554 1.382 . S
C553 H579 0.950 . S
C554 N551 1.332 . S
C554 C553 1.382 . S
C554 H565 0.952 . S
C555 C552 1.388 . S
C555 C556 1.382 . S
C555 H580 0.950 . S
C556 N551 1.332 . S
C556 C555 1.382 . S
C556 H566 0.948 . S
N557 Co535 2.282 . S
N557 C561 1.332 . S
N557 C562 1.332 . S
C558 C559 1.388 . S
C558 C562 1.382 . S
C558 H581 0.950 . S
C559 C558 1.388 . S
C559 C560 1.386 . S
C560 C559 1.386 . S
C560 C561 1.382 . S
C560 H582 0.950 . S
C561 N557 1.332 . S
C561 C560 1.382 . S
C561 H563 0.952 . S
C562 N557 1.332 . S
C562 C558 1.382 . S
C562 H564 0.948 . S
H563 C561 0.952 . S
H564 C562 0.948 . S
H565 C554 0.952 . S
H566 C556 0.948 . S
C567 C533 1.395 . S
C567 C537 1.391 . S
C568 C530 1.389 . S
C568 C550 1.392 . S
C569 C540 1.392 . S
C569 C542 1.389 . S
C570 C545 1.395 . S
C570 C547 1.391 . S
H571 C531 0.951 . S
H572 C532 0.950 . S
H573 C538 0.949 . S
H574 C539 0.950 . S
H575 C543 0.951 . S
H576 C544 0.950 . S
H577 C548 0.949 . S
H578 C549 0.950 . S
H579 C553 0.950 . S
H580 C555 0.950 . S
H581 C558 0.950 . S
H582 C560 0.950 . S
C583 C584 1.443 . S
C583 N587 1.376 . S
C583 C621 1.389 . S
C584 C583 1.443 . S
C584 C585 1.340 . S
C584 H624 0.951 . S
C585 C584 1.340 . S
C585 C586 1.439 . S
C585 H625 0.950 . S
C586 C585 1.439 . S
C586 N587 1.374 . S
C586 C620 1.395 . S
N587 C583 1.376 . S
N587 C586 1.374 . S
N587 Co588 2.008 . S
Co588 N587 2.008 . S
Co588 N589 1.995 . S
Co588 N594 2.008 . S
Co588 N599 1.995 . S
Co588 N604 2.282 . S
Co588 N610 2.282 . S
N589 Co588 1.995 . S
N589 C590 1.376 . S
N589 C593 1.383 . S
C590 N589 1.376 . S
C590 C591 1.446 . S
C590 C620 1.391 . S
C591 C590 1.446 . S
C591 C592 1.339 . S
C591 H626 0.949 . S
C592 C591 1.339 . S
C592 C593 1.439 . S
C592 H627 0.950 . S
C593 N589 1.383 . S
C593 C592 1.439 . S
C593 C622 1.392 . S
N594 Co588 2.008 . S
N594 C595 1.376 . S
N594 C598 1.374 . S
C595 N594 1.376 . S
C595 C596 1.443 . S
C595 C622 1.389 . S
C596 C595 1.443 . S
C596 C597 1.340 . S
C596 H628 0.951 . S
C597 C596 1.340 . S
C597 C598 1.439 . S
C597 H629 0.950 . S
C598 N594 1.374 . S
C598 C597 1.439 . S
C598 C623 1.395 . S
N599 Co588 1.995 . S
N599 C600 1.376 . S
N599 C603 1.383 . S
C600 N599 1.376 . S
C600 C601 1.446 . S
C600 C623 1.391 . S
C601 C600 1.446 . S
C601 C602 1.339 . S
C601 H630 0.949 . S
C602 C601 1.339 . S
C602 C603 1.439 . S
C602 H631 0.950 . S
C603 N599 1.383 . S
C603 C602 1.439 . S
C603 C621 1.392 . S
N604 Co588 2.282 . S
N604 C607 1.332 . S
N604 C609 1.332 . S
C605 C606 1.386 . S
C605 C608 1.388 . S
C606 C605 1.386 . S
C606 C607 1.382 . S
C606 H632 0.950 . S
C607 N604 1.332 . S
C607 C606 1.382 . S
C607 H618 0.952 . S
C608 C605 1.388 . S
C608 C609 1.382 . S
C608 H633 0.950 . S
C609 N604 1.332 . S
C609 C608 1.382 . S
C609 H619 0.948 . S
N610 Co588 2.282 . S
N610 C614 1.332 . S
N610 C615 1.332 . S
C611 C612 1.388 . S
C611 C615 1.382 . S
C611 H634 0.950 . S
C612 C611 1.388 . S
C612 C613 1.386 . S
C613 C612 1.386 . S
C613 C614 1.382 . S
C613 H635 0.950 . S
C614 N610 1.332 . S
C614 C613 1.382 . S
C614 H616 0.952 . S
C615 N610 1.332 . S
C615 C611 1.382 . S
C615 H617 0.948 . S
H616 C614 0.952 . S
H617 C615 0.948 . S
H618 C607 0.952 . S
H619 C609 0.948 . S
C620 C586 1.395 . S
C620 C590 1.391 . S
C621 C583 1.389 . S
C621 C603 1.392 . S
C622 C593 1.392 . S
C622 C595 1.389 . S
C623 C598 1.395 . S
C623 C600 1.391 . S
H624 C584 0.951 . S
H625 C585 0.950 . S
H626 C591 0.949 . S
H627 C592 0.950 . S
H628 C596 0.951 . S
H629 C597 0.950 . S
H630 C601 0.949 . S
H631 C602 0.950 . S
H632 C606 0.950 . S
H633 C608 0.950 . S
H634 C611 0.950 . S
H635 C613 0.950 . S
C636 C637 1.443 . S
C636 N640 1.376 . S
C636 C674 1.389 . S
C637 C636 1.443 . S
C637 C638 1.340 . S
C637 H677 0.951 . S
C638 C637 1.340 . S
C638 C639 1.439 . S
C638 H678 0.950 . S
C639 C638 1.439 . S
C639 N640 1.374 . S
C639 C673 1.395 . S
N640 C636 1.376 . S
N640 C639 1.374 . S
N640 Co641 2.008 . S
Co641 N640 2.008 . S
Co641 N642 1.995 . S
Co641 N647 2.008 . S
Co641 N652 1.995 . S
Co641 N657 2.282 . S
Co641 N663 2.282 . S
N642 Co641 1.995 . S
N642 C643 1.376 . S
N642 C646 1.383 . S
C643 N642 1.376 . S
C643 C644 1.446 . S
C643 C673 1.391 . S
C644 C643 1.446 . S
C644 C645 1.339 . S
C644 H679 0.949 . S
C645 C644 1.339 . S
C645 C646 1.439 . S
C645 H680 0.950 . S
C646 N642 1.383 . S
C646 C645 1.439 . S
C646 C675 1.392 . S
N647 Co641 2.008 . S
N647 C648 1.376 . S
N647 C651 1.374 . S
C648 N647 1.376 . S
C648 C649 1.443 . S
C648 C675 1.389 . S
C649 C648 1.443 . S
C649 C650 1.340 . S
C649 H681 0.951 . S
C650 C649 1.340 . S
C650 C651 1.439 . S
C650 H682 0.950 . S
C651 N647 1.374 . S
C651 C650 1.439 . S
C651 C676 1.395 . S
N652 Co641 1.995 . S
N652 C653 1.376 . S
N652 C656 1.383 . S
C653 N652 1.376 . S
C653 C654 1.446 . S
C653 C676 1.391 . S
C654 C653 1.446 . S
C654 C655 1.339 . S
C654 H683 0.949 . S
C655 C654 1.339 . S
C655 C656 1.439 . S
C655 H684 0.950 . S
C656 N652 1.383 . S
C656 C655 1.439 . S
C656 C674 1.392 . S
N657 Co641 2.282 . S
N657 C660 1.332 . S
N657 C662 1.332 . S
C658 C659 1.386 . S
C658 C661 1.388 . S
C659 C658 1.386 . S
C659 C660 1.382 . S
C659 H685 0.950 . S
C660 N657 1.332 . S
C660 C659 1.382 . S
C660 H671 0.952 . S
C661 C658 1.388 . S
C661 C662 1.382 . S
C661 H686 0.950 . S
C662 N657 1.332 . S
C662 C661 1.382 . S
C662 H672 0.948 . S
N663 Co641 2.282 . S
N663 C667 1.332 . S
N663 C668 1.332 . S
C664 C665 1.388 . S
C664 C668 1.382 . S
C664 H687 0.950 . S
C665 C664 1.388 . S
C665 C666 1.386 . S
C666 C665 1.386 . S
C666 C667 1.382 . S
C666 H688 0.950 . S
C667 N663 1.332 . S
C667 C666 1.382 . S
C667 H669 0.952 . S
C668 N663 1.332 . S
C668 C664 1.382 . S
C668 H670 0.948 . S
H669 C667 0.952 . S
H670 C668 0.948 . S
H671 C660 0.952 . S
H672 C662 0.948 . S
C673 C639 1.395 . S
C673 C643 1.391 . S
C674 C636 1.389 . S
C674 C656 1.392 . S
C675 C646 1.392 . S
C675 C648 1.389 . S
C676 C651 1.395 . S
C676 C653 1.391 . S
H677 C637 0.951 . S
H678 C638 0.950 . S
H679 C644 0.949 . S
H680 C645 0.950 . S
H681 C649 0.951 . S
H682 C650 0.950 . S
H683 C654 0.949 . S
H684 C655 0.950 . S
H685 C659 0.950 . S
H686 C661 0.950 . S
H687 C664 0.950 . S
H688 C666 0.950 . S
C689 C690 1.443 . S
C689 N693 1.376 . S
C689 C727 1.389 . S
C690 C689 1.443 . S
C690 C691 1.340 . S
C690 H730 0.951 . S
C691 C690 1.340 . S
C691 C692 1.439 . S
C691 H731 0.950 . S
C692 C691 1.439 . S
C692 N693 1.374 . S
C692 C726 1.395 . S
N693 C689 1.376 . S
N693 C692 1.374 . S
N693 Co694 2.008 . S
Co694 N693 2.008 . S
Co694 N695 1.995 . S
Co694 N700 2.008 . S
Co694 N705 1.995 . S
Co694 N710 2.282 . S
Co694 N716 2.282 . S
N695 Co694 1.995 . S
N695 C696 1.376 . S
N695 C699 1.383 . S
C696 N695 1.376 . S
C696 C697 1.446 . S
C696 C726 1.391 . S
C697 C696 1.446 . S
C697 C698 1.339 . S
C697 H732 0.949 . S
C698 C697 1.339 . S
C698 C699 1.439 . S
C698 H733 0.950 . S
C699 N695 1.383 . S
C699 C698 1.439 . S
C699 C728 1.392 . S
N700 Co694 2.008 . S
N700 C701 1.376 . S
N700 C704 1.374 . S
C701 N700 1.376 . S
C701 C702 1.443 . S
C701 C728 1.389 . S
C702 C701 1.443 . S
C702 C703 1.340 . S
C702 H734 0.951 . S
C703 C702 1.340 . S
C703 C704 1.439 . S
C703 H735 0.950 . S
C704 N700 1.374 . S
C704 C703 1.439 . S
C704 C729 1.395 . S
N705 Co694 1.995 . S
N705 C706 1.376 . S
N705 C709 1.383 . S
C706 N705 1.376 . S
C706 C707 1.446 . S
C706 C729 1.391 . S
C707 C706 1.446 . S
C707 C708 1.339 . S
C707 H736 0.949 . S
C708 C707 1.339 . S
C708 C709 1.439 . S
C708 H737 0.950 . S
C709 N705 1.383 . S
C709 C708 1.439 . S
C709 C727 1.392 . S
N710 Co694 2.282 . S
N710 C713 1.332 . S
N710 C715 1.332 . S
C711 C712 1.386 . S
C711 C714 1.388 . S
C712 C711 1.386 . S
C712 C713 1.382 . S
C712 H738 0.950 . S
C713 N710 1.332 . S
C713 C712 1.382 . S
C713 H724 0.952 . S
C714 C711 1.388 . S
C714 C715 1.382 . S
C714 H739 0.950 . S
C715 N710 1.332 . S
C715 C714 1.382 . S
C715 H725 0.948 . S
N716 Co694 2.282 . S
N716 C720 1.332 . S
N716 C721 1.332 . S
C717 C718 1.388 . S
C717 C721 1.382 . S
C717 H740 0.950 . S
C718 C717 1.388 . S
C718 C719 1.386 . S
C719 C718 1.386 . S
C719 C720 1.382 . S
C719 H741 0.950 . S
C720 N716 1.332 . S
C720 C719 1.382 . S
C720 H722 0.952 . S
C721 N716 1.332 . S
C721 C717 1.382 . S
C721 H723 0.948 . S
H722 C720 0.952 . S
H723 C721 0.948 . S
H724 C713 0.952 . S
H725 C715 0.948 . S
C726 C692 1.395 . S
C726 C696 1.391 . S
C727 C689 1.389 . S
C727 C709 1.392 . S
C728 C699 1.392 . S
C728 C701 1.389 . S
C729 C704 1.395 . S
C729 C706 1.391 . S
H730 C690 0.951 . S
H731 C691 0.950 . S
H732 C697 0.949 . S
H733 C698 0.950 . S
H734 C702 0.951 . S
H735 C703 0.950 . S
H736 C707 0.949 . S
H737 C708 0.950 . S
H738 C712 0.950 . S
H739 C714 0.950 . S
H740 C717 0.950 . S
H741 C719 0.950 . S
C742 C743 1.443 . S
C742 N746 1.376 . S
C742 C780 1.389 . S
C743 C742 1.443 . S
C743 C744 1.340 . S
C743 H783 0.951 . S
C744 C743 1.340 . S
C744 C745 1.439 . S
C744 H784 0.950 . S
C745 C744 1.439 . S
C745 N746 1.374 . S
C745 C779 1.395 . S
N746 C742 1.376 . S
N746 C745 1.374 . S
N746 Co747 2.008 . S
Co747 N746 2.008 . S
Co747 N748 1.995 . S
Co747 N753 2.008 . S
Co747 N758 1.995 . S
Co747 N763 2.282 . S
Co747 N769 2.282 . S
N748 Co747 1.995 . S
N748 C749 1.376 . S
N748 C752 1.383 . S
C749 N748 1.376 . S
C749 C750 1.446 . S
C749 C779 1.391 . S
C750 C749 1.446 . S
C750 C751 1.339 . S
C750 H785 0.949 . S
C751 C750 1.339 . S
C751 C752 1.439 . S
C751 H786 0.950 . S
C752 N748 1.383 . S
C752 C751 1.439 . S
C752 C781 1.392 . S
N753 Co747 2.008 . S
N753 C754 1.376 . S
N753 C757 1.374 . S
C754 N753 1.376 . S
C754 C755 1.443 . S
C754 C781 1.389 . S
C755 C754 1.443 . S
C755 C756 1.340 . S
C755 H787 0.951 . S
C756 C755 1.340 . S
C756 C757 1.439 . S
C756 H788 0.950 . S
C757 N753 1.374 . S
C757 C756 1.439 . S
C757 C782 1.395 . S
N758 Co747 1.995 . S
N758 C759 1.376 . S
N758 C762 1.383 . S
C759 N758 1.376 . S
C759 C760 1.446 . S
C759 C782 1.391 . S
C760 C759 1.446 . S
C760 C761 1.339 . S
C760 H789 0.949 . S
C761 C760 1.339 . S
C761 C762 1.439 . S
C761 H790 0.950 . S
C762 N758 1.383 . S
C762 C761 1.439 . S
C762 C780 1.392 . S
N763 Co747 2.282 . S
N763 C766 1.332 . S
N763 C768 1.332 . S
C764 C765 1.386 . S
C764 C767 1.388 . S
C765 C764 1.386 . S
C765 C766 1.382 . S
C765 H791 0.950 . S
C766 N763 1.332 . S
C766 C765 1.382 . S
C766 H777 0.952 . S
C767 C764 1.388 . S
C767 C768 1.382 . S
C767 H792 0.950 . S
C768 N763 1.332 . S
C768 C767 1.382 . S
C768 H778 0.948 . S
N769 Co747 2.282 . S
N769 C773 1.332 . S
N769 C774 1.332 . S
C770 C771 1.388 . S
C770 C774 1.382 . S
C770 H793 0.950 . S
C771 C770 1.388 . S
C771 C772 1.386 . S
C772 C771 1.386 . S
C772 C773 1.382 . S
C772 H794 0.950 . S
C773 N769 1.332 . S
C773 C772 1.382 . S
C773 H775 0.952 . S
C774 N769 1.332 . S
C774 C770 1.382 . S
C774 H776 0.948 . S
H775 C773 0.952 . S
H776 C774 0.948 . S
H777 C766 0.952 . S
H778 C768 0.948 . S
C779 C745 1.395 . S
C779 C749 1.391 . S
C780 C742 1.389 . S
C780 C762 1.392 . S
C781 C752 1.392 . S
C781 C754 1.389 . S
C782 C757 1.395 . S
C782 C759 1.391 . S
H783 C743 0.951 . S
H784 C744 0.950 . S
H785 C750 0.949 . S
H786 C751 0.950 . S
H787 C755 0.951 . S
H788 C756 0.950 . S
H789 C760 0.949 . S
H790 C761 0.950 . S
H791 C765 0.950 . S
H792 C767 0.950 . S
H793 C770 0.950 . S
H794 C772 0.950 . S
C795 C796 1.443 . S
C795 N799 1.376 . S
C795 C833 1.389 . S
C796 C795 1.443 . S
C796 C797 1.340 . S
C796 H836 0.951 . S
C797 C796 1.340 . S
C797 C798 1.439 . S
C797 H837 0.950 . S
C798 C797 1.439 . S
C798 N799 1.374 . S
C798 C832 1.395 . S
N799 C795 1.376 . S
N799 C798 1.374 . S
N799 Co800 2.008 . S
Co800 N799 2.008 . S
Co800 N801 1.995 . S
Co800 N806 2.008 . S
Co800 N811 1.995 . S
Co800 N816 2.282 . S
Co800 N822 2.282 . S
N801 Co800 1.995 . S
N801 C802 1.376 . S
N801 C805 1.383 . S
C802 N801 1.376 . S
C802 C803 1.446 . S
C802 C832 1.391 . S
C803 C802 1.446 . S
C803 C804 1.339 . S
C803 H838 0.949 . S
C804 C803 1.339 . S
C804 C805 1.439 . S
C804 H839 0.950 . S
C805 N801 1.383 . S
C805 C804 1.439 . S
C805 C834 1.392 . S
N806 Co800 2.008 . S
N806 C807 1.376 . S
N806 C810 1.374 . S
C807 N806 1.376 . S
C807 C808 1.443 . S
C807 C834 1.389 . S
C808 C807 1.443 . S
C808 C809 1.340 . S
C808 H840 0.951 . S
C809 C808 1.340 . S
C809 C810 1.439 . S
C809 H841 0.950 . S
C810 N806 1.374 . S
C810 C809 1.439 . S
C810 C835 1.395 . S
N811 Co800 1.995 . S
N811 C812 1.376 . S
N811 C815 1.383 . S
C812 N811 1.376 . S
C812 C813 1.446 . S
C812 C835 1.391 . S
C813 C812 1.446 . S
C813 C814 1.339 . S
C813 H842 0.949 . S
C814 C813 1.339 . S
C814 C815 1.439 . S
C814 H843 0.950 . S
C815 N811 1.383 . S
C815 C814 1.439 . S
C815 C833 1.392 . S
N816 Co800 2.282 . S
N816 C819 1.332 . S
N816 C821 1.332 . S
C817 C818 1.386 . S
C817 C820 1.388 . S
C818 C817 1.386 . S
C818 C819 1.382 . S
C818 H844 0.950 . S
C819 N816 1.332 . S
C819 C818 1.382 . S
C819 H830 0.952 . S
C820 C817 1.388 . S
C820 C821 1.382 . S
C820 H845 0.950 . S
C821 N816 1.332 . S
C821 C820 1.382 . S
C821 H831 0.948 . S
N822 Co800 2.282 . S
N822 C826 1.332 . S
N822 C827 1.332 . S
C823 C824 1.388 . S
C823 C827 1.382 . S
C823 H846 0.950 . S
C824 C823 1.388 . S
C824 C825 1.386 . S
C825 C824 1.386 . S
C825 C826 1.382 . S
C825 H847 0.950 . S
C826 N822 1.332 . S
C826 C825 1.382 . S
C826 H828 0.952 . S
C827 N822 1.332 . S
C827 C823 1.382 . S
C827 H829 0.948 . S
H828 C826 0.952 . S
H829 C827 0.948 . S
H830 C819 0.952 . S
H831 C821 0.948 . S
C832 C798 1.395 . S
C832 C802 1.391 . S
C833 C795 1.389 . S
C833 C815 1.392 . S
C834 C805 1.392 . S
C834 C807 1.389 . S
C835 C810 1.395 . S
C835 C812 1.391 . S
H836 C796 0.951 . S
H837 C797 0.950 . S
H838 C803 0.949 . S
H839 C804 0.950 . S
H840 C808 0.951 . S
H841 C809 0.950 . S
H842 C813 0.949 . S
H843 C814 0.950 . S
H844 C818 0.950 . S
H845 C820 0.950 . S
H846 C823 0.950 . S
H847 C825 0.950 . S
C848 C849 1.443 . S
C848 N852 1.376 . S
C848 C886 1.389 . S
C849 C848 1.443 . S
C849 C850 1.340 . S
C849 H889 0.951 . S
C850 C849 1.340 . S
C850 C851 1.439 . S
C850 H890 0.950 . S
C851 C850 1.439 . S
C851 N852 1.374 . S
C851 C885 1.395 . S
N852 C848 1.376 . S
N852 C851 1.374 . S
N852 Co853 2.008 . S
Co853 N852 2.008 . S
Co853 N854 1.995 . S
Co853 N859 2.008 . S
Co853 N864 1.995 . S
Co853 N869 2.282 . S
Co853 N875 2.282 . S
N854 Co853 1.995 . S
N854 C855 1.376 . S
N854 C858 1.383 . S
C855 N854 1.376 . S
C855 C856 1.446 . S
C855 C885 1.391 . S
C856 C855 1.446 . S
C856 C857 1.339 . S
C856 H891 0.949 . S
C857 C856 1.339 . S
C857 C858 1.439 . S
C857 H892 0.950 . S
C858 N854 1.383 . S
C858 C857 1.439 . S
C858 C887 1.392 . S
N859 Co853 2.008 . S
N859 C860 1.376 . S
N859 C863 1.374 . S
C860 N859 1.376 . S
C860 C861 1.443 . S
C860 C887 1.389 . S
C861 C860 1.443 . S
C861 C862 1.340 . S
C861 H893 0.951 . S
C862 C861 1.340 . S
C862 C863 1.439 . S
C862 H894 0.950 . S
C863 N859 1.374 . S
C863 C862 1.439 . S
C863 C888 1.395 . S
N864 Co853 1.995 . S
N864 C865 1.376 . S
N864 C868 1.383 . S
C865 N864 1.376 . S
C865 C866 1.446 . S
C865 C888 1.391 . S
C866 C865 1.446 . S
C866 C867 1.339 . S
C866 H895 0.949 . S
C867 C866 1.339 . S
C867 C868 1.439 . S
C867 H896 0.950 . S
C868 N864 1.383 . S
C868 C867 1.439 . S
C868 C886 1.392 . S
N869 Co853 2.282 . S
N869 C872 1.332 . S
N869 C874 1.332 . S
C870 C871 1.386 . S
C870 C873 1.388 . S
C871 C870 1.386 . S
C871 C872 1.382 . S
C871 H897 0.950 . S
C872 N869 1.332 . S
C872 C871 1.382 . S
C872 H883 0.952 . S
C873 C870 1.388 . S
C873 C874 1.382 . S
C873 H898 0.950 . S
C874 N869 1.332 . S
C874 C873 1.382 . S
C874 H884 0.948 . S
N875 Co853 2.282 . S
N875 C879 1.332 . S
N875 C880 1.332 . S
C876 C877 1.388 . S
C876 C880 1.382 . S
C876 H899 0.950 . S
C877 C876 1.388 . S
C877 C878 1.386 . S
C878 C877 1.386 . S
C878 C879 1.382 . S
C878 H900 0.950 . S
C879 N875 1.332 . S
C879 C878 1.382 . S
C879 H881 0.952 . S
C880 N875 1.332 . S
C880 C876 1.382 . S
C880 H882 0.948 . S
H881 C879 0.952 . S
H882 C880 0.948 . S
H883 C872 0.952 . S
H884 C874 0.948 . S
C885 C851 1.395 . S
C885 C855 1.391 . S
C886 C848 1.389 . S
C886 C868 1.392 . S
C887 C858 1.392 . S
C887 C860 1.389 . S
C888 C863 1.395 . S
C888 C865 1.391 . S
H889 C849 0.951 . S
H890 C850 0.950 . S
H891 C856 0.949 . S
H892 C857 0.950 . S
H893 C861 0.951 . S
H894 C862 0.950 . S
H895 C866 0.949 . S
H896 C867 0.950 . S
H897 C871 0.950 . S
H898 C873 0.950 . S
H899 C876 0.950 . S
H900 C878 0.950 . S
C901 C902 1.443 . S
C901 N905 1.376 . S
C901 C939 1.389 . S
C902 C901 1.443 . S
C902 C903 1.340 . S
C902 H942 0.951 . S
C903 C902 1.340 . S
C903 C904 1.439 . S
C903 H943 0.950 . S
C904 C903 1.439 . S
C904 N905 1.374 . S
C904 C938 1.395 . S
N905 C901 1.376 . S
N905 C904 1.374 . S
N905 Co906 2.008 . S
Co906 N905 2.008 . S
Co906 N907 1.995 . S
Co906 N912 2.008 . S
Co906 N917 1.995 . S
Co906 N922 2.282 . S
Co906 N928 2.282 . S
N907 Co906 1.995 . S
N907 C908 1.376 . S
N907 C911 1.383 . S
C908 N907 1.376 . S
C908 C909 1.446 . S
C908 C938 1.391 . S
C909 C908 1.446 . S
C909 C910 1.339 . S
C909 H944 0.949 . S
C910 C909 1.339 . S
C910 C911 1.439 . S
C910 H945 0.950 . S
C911 N907 1.383 . S
C911 C910 1.439 . S
C911 C940 1.392 . S
N912 Co906 2.008 . S
N912 C913 1.376 . S
N912 C916 1.374 . S
C913 N912 1.376 . S
C913 C914 1.443 . S
C913 C940 1.389 . S
C914 C913 1.443 . S
C914 C915 1.340 . S
C914 H946 0.951 . S
C915 C914 1.340 . S
C915 C916 1.439 . S
C915 H947 0.950 . S
C916 N912 1.374 . S
C916 C915 1.439 . S
C916 C941 1.395 . S
N917 Co906 1.995 . S
N917 C918 1.376 . S
N917 C921 1.383 . S
C918 N917 1.376 . S
C918 C919 1.446 . S
C918 C941 1.391 . S
C919 C918 1.446 . S
C919 C920 1.339 . S
C919 H948 0.949 . S
C920 C919 1.339 . S
C920 C921 1.439 . S
C920 H949 0.950 . S
C921 N917 1.383 . S
C921 C920 1.439 . S
C921 C939 1.392 . S
N922 Co906 2.282 . S
N922 C925 1.332 . S
N922 C927 1.332 . S
C923 C924 1.386 . S
C923 C926 1.388 . S
C924 C923 1.386 . S
C924 C925 1.382 . S
C924 H950 0.950 . S
C925 N922 1.332 . S
C925 C924 1.382 . S
C925 H936 0.952 . S
C926 C923 1.388 . S
C926 C927 1.382 . S
C926 H951 0.950 . S
C927 N922 1.332 . S
C927 C926 1.382 . S
C927 H937 0.948 . S
N928 Co906 2.282 . S
N928 C932 1.332 . S
N928 C933 1.332 . S
C929 C930 1.388 . S
C929 C933 1.382 . S
C929 H952 0.950 . S
C930 C929 1.388 . S
C930 C931 1.386 . S
C931 C930 1.386 . S
C931 C932 1.382 . S
C931 H953 0.950 . S
C932 N928 1.332 . S
C932 C931 1.382 . S
C932 H934 0.952 . S
C933 N928 1.332 . S
C933 C929 1.382 . S
C933 H935 0.948 . S
H934 C932 0.952 . S
H935 C933 0.948 . S
H936 C925 0.952 . S
H937 C927 0.948 . S
C938 C904 1.395 . S
C938 C908 1.391 . S
C939 C901 1.389 . S
C939 C921 1.392 . S
C940 C911 1.392 . S
C940 C913 1.389 . S
C941 C916 1.395 . S
C941 C918 1.391 . S
H942 C902 0.951 . S
H943 C903 0.950 . S
H944 C909 0.949 . S
H945 C910 0.950 . S
H946 C914 0.951 . S
H947 C915 0.950 . S
H948 C919 0.949 . S
H949 C920 0.950 . S
H950 C924 0.950 . S
H951 C926 0.950 . S
H952 C929 0.950 . S
H953 C931 0.950 . S
C954 C955 1.443 . S
C954 N958 1.376 . S
C954 C992 1.389 . S
C955 C954 1.443 . S
C955 C956 1.340 . S
C955 H995 0.951 . S
C956 C955 1.340 . S
C956 C957 1.439 . S
C956 H996 0.950 . S
C957 C956 1.439 . S
C957 N958 1.374 . S
C957 C991 1.395 . S
N958 C954 1.376 . S
N958 C957 1.374 . S
N958 Co959 2.008 . S
Co959 N958 2.008 . S
Co959 N960 1.995 . S
Co959 N965 2.008 . S
Co959 N970 1.995 . S
Co959 N975 2.282 . S
Co959 N981 2.282 . S
N960 Co959 1.995 . S
N960 C961 1.376 . S
N960 C964 1.383 . S
C961 N960 1.376 . S
C961 C962 1.446 . S
C961 C991 1.391 . S
C962 C961 1.446 . S
C962 C963 1.339 . S
C962 H997 0.949 . S
C963 C962 1.339 . S
C963 C964 1.439 . S
C963 H998 0.950 . S
C964 N960 1.383 . S
C964 C963 1.439 . S
C964 C993 1.392 . S
N965 Co959 2.008 . S
N965 C966 1.376 . S
N965 C969 1.374 . S
C966 N965 1.376 . S
C966 C967 1.443 . S
C966 C993 1.389 . S
C967 C966 1.443 . S
C967 C968 1.340 . S
C967 H999 0.951 . S
C968 C967 1.340 . S
C968 C969 1.439 . S
C968 H1000 0.950 . S
C969 N965 1.374 . S
C969 C968 1.439 . S
C969 C994 1.395 . S
N970 Co959 1.995 . S
N970 C971 1.376 . S
N970 C974 1.383 . S
C971 N970 1.376 . S
C971 C972 1.446 . S
C971 C994 1.391 . S
C972 C971 1.446 . S
C972 C973 1.339 . S
C972 H1001 0.949 . S
C973 C972 1.339 . S
C973 C974 1.439 . S
C973 H1002 0.950 . S
C974 N970 1.383 . S
C974 C973 1.439 . S
C974 C992 1.392 . S
N975 Co959 2.282 . S
N975 C978 1.332 . S
N975 C980 1.332 . S
C976 C977 1.386 . S
C976 C979 1.388 . S
C977 C976 1.386 . S
C977 C978 1.382 . S
C977 H1003 0.950 . S
C978 N975 1.332 . S
C978 C977 1.382 . S
C978 H989 0.952 . S
C979 C976 1.388 . S
C979 C980 1.382 . S
C979 H1004 0.950 . S
C980 N975 1.332 . S
C980 C979 1.382 . S
C980 H990 0.948 . S
N981 Co959 2.282 . S
N981 C985 1.332 . S
N981 C986 1.332 . S
C982 C983 1.388 . S
C982 C986 1.382 . S
C982 H1005 0.950 . S
C983 C982 1.388 . S
C983 C984 1.386 . S
C984 C983 1.386 . S
C984 C985 1.382 . S
C984 H1006 0.950 . S
C985 N981 1.332 . S
C985 C984 1.382 . S
C985 H987 0.952 . S
C986 N981 1.332 . S
C986 C982 1.382 . S
C986 H988 0.948 . S
H987 C985 0.952 . S
H988 C986 0.948 . S
H989 C978 0.952 . S
H990 C980 0.948 . S
C991 C957 1.395 . S
C991 C961 1.391 . S
C992 C954 1.389 . S
C992 C974 1.392 . S
C993 C964 1.392 . S
C993 C966 1.389 . S
C994 C969 1.395 . S
C994 C971 1.391 . S
H995 C955 0.951 . S
H996 C956 0.950 . S
H997 C962 0.949 . S
H998 C963 0.950 . S
H999 C967 0.951 . S
H1000 C968 0.950 . S
H1001 C972 0.949 . S
H1002 C973 0.950 . S
H1003 C977 0.950 . S
H1004 C979 0.950 . S
H1005 C982 0.950 . S
H1006 C984 0.950 . S
C1007 C1008 1.443 . S
C1007 N1011 1.376 . S
C1007 C1045 1.389 . S
C1008 C1007 1.443 . S
C1008 C1009 1.340 . S
C1008 H1048 0.951 . S
C1009 C1008 1.340 . S
C1009 C1010 1.439 . S
C1009 H1049 0.950 . S
C1010 C1009 1.439 . S
C1010 N1011 1.374 . S
C1010 C1044 1.395 . S
N1011 C1007 1.376 . S
N1011 C1010 1.374 . S
N1011 Co1012 2.008 . S
Co1012 N1011 2.008 . S
Co1012 N1013 1.995 . S
Co1012 N1018 2.008 . S
Co1012 N1023 1.995 . S
Co1012 N1028 2.282 . S
Co1012 N1034 2.282 . S
N1013 Co1012 1.995 . S
N1013 C1014 1.376 . S
N1013 C1017 1.383 . S
C1014 N1013 1.376 . S
C1014 C1015 1.446 . S
C1014 C1044 1.391 . S
C1015 C1014 1.446 . S
C1015 C1016 1.339 . S
C1015 H1050 0.949 . S
C1016 C1015 1.339 . S
C1016 C1017 1.439 . S
C1016 H1051 0.950 . S
C1017 N1013 1.383 . S
C1017 C1016 1.439 . S
C1017 C1046 1.392 . S
N1018 Co1012 2.008 . S
N1018 C1019 1.376 . S
N1018 C1022 1.374 . S
C1019 N1018 1.376 . S
C1019 C1020 1.443 . S
C1019 C1046 1.389 . S
C1020 C1019 1.443 . S
C1020 C1021 1.340 . S
C1020 H1052 0.951 . S
C1021 C1020 1.340 . S
C1021 C1022 1.439 . S
C1021 H1053 0.950 . S
C1022 N1018 1.374 . S
C1022 C1021 1.439 . S
C1022 C1047 1.395 . S
N1023 Co1012 1.995 . S
N1023 C1024 1.376 . S
N1023 C1027 1.383 . S
C1024 N1023 1.376 . S
C1024 C1025 1.446 . S
C1024 C1047 1.391 . S
C1025 C1024 1.446 . S
C1025 C1026 1.339 . S
C1025 H1054 0.949 . S
C1026 C1025 1.339 . S
C1026 C1027 1.439 . S
C1026 H1055 0.950 . S
C1027 N1023 1.383 . S
C1027 C1026 1.439 . S
C1027 C1045 1.392 . S
N1028 Co1012 2.282 . S
N1028 C1031 1.332 . S
N1028 C1033 1.332 . S
C1029 C1030 1.386 . S
C1029 C1032 1.388 . S
C1030 C1029 1.386 . S
C1030 C1031 1.382 . S
C1030 H1056 0.950 . S
C1031 N1028 1.332 . S
C1031 C1030 1.382 . S
C1031 H1042 0.952 . S
C1032 C1029 1.388 . S
C1032 C1033 1.382 . S
C1032 H1057 0.950 . S
C1033 N1028 1.332 . S
C1033 C1032 1.382 . S
C1033 H1043 0.948 . S
N1034 Co1012 2.282 . S
N1034 C1038 1.332 . S
N1034 C1039 1.332 . S
C1035 C1036 1.388 . S
C1035 C1039 1.382 . S
C1035 H1058 0.950 . S
C1036 C1035 1.388 . S
C1036 C1037 1.386 . S
C1037 C1036 1.386 . S
C1037 C1038 1.382 . S
C1037 H1059 0.950 . S
C1038 N1034 1.332 . S
C1038 C1037 1.382 . S
C1038 H1040 0.952 . S
C1039 N1034 1.332 . S
C1039 C1035 1.382 . S
C1039 H1041 0.948 . S
H1040 C1038 0.952 . S
H1041 C1039 0.948 . S
H1042 C1031 0.952 . S
H1043 C1033 0.948 . S
C1044 C1010 1.395 . S
C1044 C1014 1.391 . S
C1045 C1007 1.389 . S
C1045 C1027 1.392 . S
C1046 C1017 1.392 . S
C1046 C1019 1.389 . S
C1047 C1022 1.395 . S
C1047 C1024 1.391 . S
H1048 C1008 0.951 . S
H1049 C1009 0.950 . S
H1050 C1015 0.949 . S
H1051 C1016 0.950 . S
H1052 C1020 0.951 . S
H1053 C1021 0.950 . S
H1054 C1025 0.949 . S
H1055 C1026 0.950 . S
H1056 C1030 0.950 . S
H1057 C1032 0.950 . S
H1058 C1035 0.950 . S
H1059 C1037 0.950 . S
C1060 C1061 1.443 . S
C1060 N1064 1.376 . S
C1060 C1098 1.389 . S
C1061 C1060 1.443 . S
C1061 C1062 1.340 . S
C1061 H1101 0.951 . S
C1062 C1061 1.340 . S
C1062 C1063 1.439 . S
C1062 H1102 0.950 . S
C1063 C1062 1.439 . S
C1063 N1064 1.374 . S
C1063 C1097 1.395 . S
N1064 C1060 1.376 . S
N1064 C1063 1.374 . S
N1064 Co1065 2.008 . S
Co1065 N1064 2.008 . S
Co1065 N1066 1.995 . S
Co1065 N1071 2.008 . S
Co1065 N1076 1.995 . S
Co1065 N1081 2.282 . S
Co1065 N1087 2.282 . S
N1066 Co1065 1.995 . S
N1066 C1067 1.376 . S
N1066 C1070 1.383 . S
C1067 N1066 1.376 . S
C1067 C1068 1.446 . S
C1067 C1097 1.391 . S
C1068 C1067 1.446 . S
C1068 C1069 1.339 . S
C1068 H1103 0.949 . S
C1069 C1068 1.339 . S
C1069 C1070 1.439 . S
C1069 H1104 0.950 . S
C1070 N1066 1.383 . S
C1070 C1069 1.439 . S
C1070 C1099 1.392 . S
N1071 Co1065 2.008 . S
N1071 C1072 1.376 . S
N1071 C1075 1.374 . S
C1072 N1071 1.376 . S
C1072 C1073 1.443 . S
C1072 C1099 1.389 . S
C1073 C1072 1.443 . S
C1073 C1074 1.340 . S
C1073 H1105 0.951 . S
C1074 C1073 1.340 . S
C1074 C1075 1.439 . S
C1074 H1106 0.950 . S
C1075 N1071 1.374 . S
C1075 C1074 1.439 . S
C1075 C1100 1.395 . S
N1076 Co1065 1.995 . S
N1076 C1077 1.376 . S
N1076 C1080 1.383 . S
C1077 N1076 1.376 . S
C1077 C1078 1.446 . S
C1077 C1100 1.391 . S
C1078 C1077 1.446 . S
C1078 C1079 1.339 . S
C1078 H1107 0.949 . S
C1079 C1078 1.339 . S
C1079 C1080 1.439 . S
C1079 H1108 0.950 . S
C1080 N1076 1.383 . S
C1080 C1079 1.439 . S
C1080 C1098 1.392 . S
N1081 Co1065 2.282 . S
N1081 C1084 1.332 . S
N1081 C1086 1.332 . S
C1082 C1083 1.386 . S
C1082 C1085 1.388 . S
C1083 C1082 1.386 . S
C1083 C1084 1.382 . S
C1083 H1109 0.950 . S
C1084 N1081 1.332 . S
C1084 C1083 1.382 . S
C1084 H1095 0.952 . S
C1085 C1082 1.388 . S
C1085 C1086 1.382 . S
C1085 H1110 0.950 . S
C1086 N1081 1.332 . S
C1086 C1085 1.382 . S
C1086 H1096 0.948 . S
N1087 Co1065 2.282 . S
N1087 C1091 1.332 . S
N1087 C1092 1.332 . S
C1088 C1089 1.388 . S
C1088 C1092 1.382 . S
C1088 H1111 0.950 . S
C1089 C1088 1.388 . S
C1089 C1090 1.386 . S
C1090 C1089 1.386 . S
C1090 C1091 1.382 . S
C1090 H1112 0.950 . S
C1091 N1087 1.332 . S
C1091 C1090 1.382 . S
C1091 H1093 0.952 . S
C1092 N1087 1.332 . S
C1092 C1088 1.382 . S
C1092 H1094 0.948 . S
H1093 C1091 0.952 . S
H1094 C1092 0.948 . S
H1095 C1084 0.952 . S
H1096 C1086 0.948 . S
C1097 C1063 1.395 . S
C1097 C1067 1.391 . S
C1098 C1060 1.389 . S
C1098 C1080 1.392 . S
C1099 C1070 1.392 . S
C1099 C1072 1.389 . S
C1100 C1075 1.395 . S
C1100 C1077 1.391 . S
H1101 C1061 0.951 . S
H1102 C1062 0.950 . S
H1103 C1068 0.949 . S
H1104 C1069 0.950 . S
H1105 C1073 0.951 . S
H1106 C1074 0.950 . S
H1107 C1078 0.949 . S
H1108 C1079 0.950 . S
H1109 C1083 0.950 . S
H1110 C1085 0.950 . S
H1111 C1088 0.950 . S
H1112 C1090 0.950 . S
C1113 C1114 1.443 . S
C1113 N1117 1.376 . S
C1113 C1151 1.389 . S
C1114 C1113 1.443 . S
C1114 C1115 1.340 . S
C1114 H1154 0.951 . S
C1115 C1114 1.340 . S
C1115 C1116 1.439 . S
C1115 H1155 0.950 . S
C1116 C1115 1.439 . S
C1116 N1117 1.374 . S
C1116 C1150 1.395 . S
N1117 C1113 1.376 . S
N1117 C1116 1.374 . S
N1117 Co1118 2.008 . S
Co1118 N1117 2.008 . S
Co1118 N1119 1.995 . S
Co1118 N1124 2.008 . S
Co1118 N1129 1.995 . S
Co1118 N1134 2.282 . S
Co1118 N1140 2.282 . S
N1119 Co1118 1.995 . S
N1119 C1120 1.376 . S
N1119 C1123 1.383 . S
C1120 N1119 1.376 . S
C1120 C1121 1.446 . S
C1120 C1150 1.391 . S
C1121 C1120 1.446 . S
C1121 C1122 1.339 . S
C1121 H1156 0.949 . S
C1122 C1121 1.339 . S
C1122 C1123 1.439 . S
C1122 H1157 0.950 . S
C1123 N1119 1.383 . S
C1123 C1122 1.439 . S
C1123 C1152 1.392 . S
N1124 Co1118 2.008 . S
N1124 C1125 1.376 . S
N1124 C1128 1.374 . S
C1125 N1124 1.376 . S
C1125 C1126 1.443 . S
C1125 C1152 1.389 . S
C1126 C1125 1.443 . S
C1126 C1127 1.340 . S
C1126 H1158 0.951 . S
C1127 C1126 1.340 . S
C1127 C1128 1.439 . S
C1127 H1159 0.950 . S
C1128 N1124 1.374 . S
C1128 C1127 1.439 . S
C1128 C1153 1.395 . S
N1129 Co1118 1.995 . S
N1129 C1130 1.376 . S
N1129 C1133 1.383 . S
C1130 N1129 1.376 . S
C1130 C1131 1.446 . S
C1130 C1153 1.391 . S
C1131 C1130 1.446 . S
C1131 C1132 1.339 . S
C1131 H1160 0.949 . S
C1132 C1131 1.339 . S
C1132 C1133 1.439 . S
C1132 H1161 0.950 . S
C1133 N1129 1.383 . S
C1133 C1132 1.439 . S
C1133 C1151 1.392 . S
N1134 Co1118 2.282 . S
N1134 C1137 1.332 . S
N1134 C1139 1.332 . S
C1135 C1136 1.386 . S
C1135 C1138 1.388 . S
C1136 C1135 1.386 . S
C1136 C1137 1.382 . S
C1136 H1162 0.950 . S
C1137 N1134 1.332 . S
C1137 C1136 1.382 . S
C1137 H1148 0.952 . S
C1138 C1135 1.388 . S
C1138 C1139 1.382 . S
C1138 H1163 0.950 . S
C1139 N1134 1.332 . S
C1139 C1138 1.382 . S
C1139 H1149 0.948 . S
N1140 Co1118 2.282 . S
N1140 C1144 1.332 . S
N1140 C1145 1.332 . S
C1141 C1142 1.388 . S
C1141 C1145 1.382 . S
C1141 H1164 0.950 . S
C1142 C1141 1.388 . S
C1142 C1143 1.386 . S
C1143 C1142 1.386 . S
C1143 C1144 1.382 . S
C1143 H1165 0.950 . S
C1144 N1140 1.332 . S
C1144 C1143 1.382 . S
C1144 H1146 0.952 . S
C1145 N1140 1.332 . S
C1145 C1141 1.382 . S
C1145 H1147 0.948 . S
H1146 C1144 0.952 . S
H1147 C1145 0.948 . S
H1148 C1137 0.952 . S
H1149 C1139 0.948 . S
C1150 C1116 1.395 . S
C1150 C1120 1.391 . S
C1151 C1113 1.389 . S
C1151 C1133 1.392 . S
C1152 C1123 1.392 . S
C1152 C1125 1.389 . S
C1153 C1128 1.395 . S
C1153 C1130 1.391 . S
H1154 C1114 0.951 . S
H1155 C1115 0.950 . S
H1156 C1121 0.949 . S
H1157 C1122 0.950 . S
H1158 C1126 0.951 . S
H1159 C1127 0.950 . S
H1160 C1131 0.949 . S
H1161 C1132 0.950 . S
H1162 C1136 0.950 . S
H1163 C1138 0.950 . S
H1164 C1141 0.950 . S
H1165 C1143 0.950 . S
C1166 C1167 1.443 . S
C1166 N1170 1.376 . S
C1166 C1204 1.389 . S
C1167 C1166 1.443 . S
C1167 C1168 1.340 . S
C1167 H1207 0.951 . S
C1168 C1167 1.340 . S
C1168 C1169 1.439 . S
C1168 H1208 0.950 . S
C1169 C1168 1.439 . S
C1169 N1170 1.374 . S
C1169 C1203 1.395 . S
N1170 C1166 1.376 . S
N1170 C1169 1.374 . S
N1170 Co1171 2.008 . S
Co1171 N1170 2.008 . S
Co1171 N1172 1.995 . S
Co1171 N1177 2.008 . S
Co1171 N1182 1.995 . S
Co1171 N1187 2.282 . S
Co1171 N1193 2.282 . S
N1172 Co1171 1.995 . S
N1172 C1173 1.376 . S
N1172 C1176 1.383 . S
C1173 N1172 1.376 . S
C1173 C1174 1.446 . S
C1173 C1203 1.391 . S
C1174 C1173 1.446 . S
C1174 C1175 1.339 . S
C1174 H1209 0.949 . S
C1175 C1174 1.339 . S
C1175 C1176 1.439 . S
C1175 H1210 0.950 . S
C1176 N1172 1.383 . S
C1176 C1175 1.439 . S
C1176 C1205 1.392 . S
N1177 Co1171 2.008 . S
N1177 C1178 1.376 . S
N1177 C1181 1.374 . S
C1178 N1177 1.376 . S
C1178 C1179 1.443 . S
C1178 C1205 1.389 . S
C1179 C1178 1.443 . S
C1179 C1180 1.340 . S
C1179 H1211 0.951 . S
C1180 C1179 1.340 . S
C1180 C1181 1.439 . S
C1180 H1212 0.950 . S
C1181 N1177 1.374 . S
C1181 C1180 1.439 . S
C1181 C1206 1.395 . S
N1182 Co1171 1.995 . S
N1182 C1183 1.376 . S
N1182 C1186 1.383 . S
C1183 N1182 1.376 . S
C1183 C1184 1.446 . S
C1183 C1206 1.391 . S
C1184 C1183 1.446 . S
C1184 C1185 1.339 . S
C1184 H1213 0.949 . S
C1185 C1184 1.339 . S
C1185 C1186 1.439 . S
C1185 H1214 0.950 . S
C1186 N1182 1.383 . S
C1186 C1185 1.439 . S
C1186 C1204 1.392 . S
N1187 Co1171 2.282 . S
N1187 C1190 1.332 . S
N1187 C1192 1.332 . S
C1188 C1189 1.386 . S
C1188 C1191 1.388 . S
C1189 C1188 1.386 . S
C1189 C1190 1.382 . S
C1189 H1215 0.950 . S
C1190 N1187 1.332 . S
C1190 C1189 1.382 . S
C1190 H1201 0.952 . S
C1191 C1188 1.388 . S
C1191 C1192 1.382 . S
C1191 H1216 0.950 . S
C1192 N1187 1.332 . S
C1192 C1191 1.382 . S
C1192 H1202 0.948 . S
N1193 Co1171 2.282 . S
N1193 C1197 1.332 . S
N1193 C1198 1.332 . S
C1194 C1195 1.388 . S
C1194 C1198 1.382 . S
C1194 H1217 0.950 . S
C1195 C1194 1.388 . S
C1195 C1196 1.386 . S
C1196 C1195 1.386 . S
C1196 C1197 1.382 . S
C1196 H1218 0.950 . S
C1197 N1193 1.332 . S
C1197 C1196 1.382 . S
C1197 H1199 0.952 . S
C1198 N1193 1.332 . S
C1198 C1194 1.382 . S
C1198 H1200 0.948 . S
H1199 C1197 0.952 . S
H1200 C1198 0.948 . S
H1201 C1190 0.952 . S
H1202 C1192 0.948 . S
C1203 C1169 1.395 . S
C1203 C1173 1.391 . S
C1204 C1166 1.389 . S
C1204 C1186 1.392 . S
C1205 C1176 1.392 . S
C1205 C1178 1.389 . S
C1206 C1181 1.395 . S
C1206 C1183 1.391 . S
H1207 C1167 0.951 . S
H1208 C1168 0.950 . S
H1209 C1174 0.949 . S
H1210 C1175 0.950 . S
H1211 C1179 0.951 . S
H1212 C1180 0.950 . S
H1213 C1184 0.949 . S
H1214 C1185 0.950 . S
H1215 C1189 0.950 . S
H1216 C1191 0.950 . S
H1217 C1194 0.950 . S
H1218 C1196 0.950 . S
C1219 C1220 1.443 . S
C1219 N1223 1.376 . S
C1219 C1257 1.389 . S
C1220 C1219 1.443 . S
C1220 C1221 1.340 . S
C1220 H1260 0.951 . S
C1221 C1220 1.340 . S
C1221 C1222 1.439 . S
C1221 H1261 0.950 . S
C1222 C1221 1.439 . S
C1222 N1223 1.374 . S
C1222 C1256 1.395 . S
N1223 C1219 1.376 . S
N1223 C1222 1.374 . S
N1223 Co1224 2.008 . S
Co1224 N1223 2.008 . S
Co1224 N1225 1.995 . S
Co1224 N1230 2.008 . S
Co1224 N1235 1.995 . S
Co1224 N1240 2.282 . S
Co1224 N1246 2.282 . S
N1225 Co1224 1.995 . S
N1225 C1226 1.376 . S
N1225 C1229 1.383 . S
C1226 N1225 1.376 . S
C1226 C1227 1.446 . S
C1226 C1256 1.391 . S
C1227 C1226 1.446 . S
C1227 C1228 1.339 . S
C1227 H1262 0.949 . S
C1228 C1227 1.339 . S
C1228 C1229 1.439 . S
C1228 H1263 0.950 . S
C1229 N1225 1.383 . S
C1229 C1228 1.439 . S
C1229 C1258 1.392 . S
N1230 Co1224 2.008 . S
N1230 C1231 1.376 . S
N1230 C1234 1.374 . S
C1231 N1230 1.376 . S
C1231 C1232 1.443 . S
C1231 C1258 1.389 . S
C1232 C1231 1.443 . S
C1232 C1233 1.340 . S
C1232 H1264 0.951 . S
C1233 C1232 1.340 . S
C1233 C1234 1.439 . S
C1233 H1265 0.950 . S
C1234 N1230 1.374 . S
C1234 C1233 1.439 . S
C1234 C1259 1.395 . S
N1235 Co1224 1.995 . S
N1235 C1236 1.376 . S
N1235 C1239 1.383 . S
C1236 N1235 1.376 . S
C1236 C1237 1.446 . S
C1236 C1259 1.391 . S
C1237 C1236 1.446 . S
C1237 C1238 1.339 . S
C1237 H1266 0.949 . S
C1238 C1237 1.339 . S
C1238 C1239 1.439 . S
C1238 H1267 0.950 . S
C1239 N1235 1.383 . S
C1239 C1238 1.439 . S
C1239 C1257 1.392 . S
N1240 Co1224 2.282 . S
N1240 C1243 1.332 . S
N1240 C1245 1.332 . S
C1241 C1242 1.386 . S
C1241 C1244 1.388 . S
C1242 C1241 1.386 . S
C1242 C1243 1.382 . S
C1242 H1268 0.950 . S
C1243 N1240 1.332 . S
C1243 C1242 1.382 . S
C1243 H1254 0.952 . S
C1244 C1241 1.388 . S
C1244 C1245 1.382 . S
C1244 H1269 0.950 . S
C1245 N1240 1.332 . S
C1245 C1244 1.382 . S
C1245 H1255 0.948 . S
N1246 Co1224 2.282 . S
N1246 C1250 1.332 . S
N1246 C1251 1.332 . S
C1247 C1248 1.388 . S
C1247 C1251 1.382 . S
C1247 H1270 0.950 . S
C1248 C1247 1.388 . S
C1248 C1249 1.386 . S
C1249 C1248 1.386 . S
C1249 C1250 1.382 . S
C1249 H1271 0.950 . S
C1250 N1246 1.332 . S
C1250 C1249 1.382 . S
C1250 H1252 0.952 . S
C1251 N1246 1.332 . S
C1251 C1247 1.382 . S
C1251 H1253 0.948 . S
H1252 C1250 0.952 . S
H1253 C1251 0.948 . S
H1254 C1243 0.952 . S
H1255 C1245 0.948 . S
C1256 C1222 1.395 . S
C1256 C1226 1.391 . S
C1257 C1219 1.389 . S
C1257 C1239 1.392 . S
C1258 C1229 1.392 . S
C1258 C1231 1.389 . S
C1259 C1234 1.395 . S
C1259 C1236 1.391 . S
H1260 C1220 0.951 . S
H1261 C1221 0.950 . S
H1262 C1227 0.949 . S
H1263 C1228 0.950 . S
H1264 C1232 0.951 . S
H1265 C1233 0.950 . S
H1266 C1237 0.949 . S
H1267 C1238 0.950 . S
H1268 C1242 0.950 . S
H1269 C1244 0.950 . S
H1270 C1247 0.950 . S
H1271 C1249 0.950 . S
H1272 C1278 0.930 . S
H1273 C1281 0.930 . S
H1274 C1282 0.930 . S
H1275 C1283 0.930 . S
H1276 C1286 0.930 . S
H1277 C1287 0.930 . S
C1278 H1272 0.930 . S
C1278 C1279 1.355 . S
C1278 C1280 1.415 . S
C1279 C1278 1.355 . S
C1279 C1281 1.419 . S
C1280 C1278 1.415 . S
C1280 C1285 1.425 . S
C1280 C1287 1.409 . S
C1281 H1273 0.930 . S
C1281 C1279 1.419 . S
C1281 C1282 1.362 . S
C1282 H1274 0.930 . S
C1282 C1281 1.362 . S
C1282 C1285 1.409 . S
C1283 H1275 0.930 . S
C1283 C1284 1.355 . S
C1283 C1285 1.415 . S
C1284 C1283 1.355 . S
C1284 C1286 1.419 . S
C1285 C1280 1.425 . S
C1285 C1282 1.409 . S
C1285 C1283 1.415 . S
C1286 H1276 0.930 . S
C1286 C1284 1.419 . S
C1286 C1287 1.362 . S
C1287 H1277 0.930 . S
C1287 C1280 1.409 . S
C1287 C1286 1.362 . S
H1288 C1294 0.930 . S
H1289 C1297 0.930 . S
H1290 C1298 0.930 . S
H1291 C1299 0.930 . S
H1292 C1302 0.930 . S
H1293 C1303 0.930 . S
C1294 H1288 0.930 . S
C1294 C1295 1.355 . S
C1294 C1296 1.415 . S
C1295 C1294 1.355 . S
C1295 C1297 1.419 . S
C1296 C1294 1.415 . S
C1296 C1301 1.425 . S
C1296 C1303 1.409 . S
C1297 H1289 0.930 . S
C1297 C1295 1.419 . S
C1297 C1298 1.362 . S
C1298 H1290 0.930 . S
C1298 C1297 1.362 . S
C1298 C1301 1.409 . S
C1299 H1291 0.930 . S
C1299 C1300 1.355 . S
C1299 C1301 1.415 1_455 S
C1300 C1299 1.355 . S
C1300 C1302 1.419 . S
C1301 C1296 1.425 . S
C1301 C1298 1.409 . S
C1301 C1299 1.415 1_655 S
C1302 H1292 0.930 . S
C1302 C1300 1.419 . S
C1302 C1303 1.362 1_455 S
C1303 H1293 0.930 . S
C1303 C1296 1.409 . S
C1303 C1302 1.362 1_655 S
H1304 C1310 0.930 . S
H1305 C1313 0.930 . S
H1306 C1314 0.930 . S
H1307 C1315 0.930 . S
H1308 C1318 0.930 . S
H1309 C1319 0.930 . S
C1310 H1304 0.930 . S
C1310 C1311 1.355 . S
C1310 C1312 1.415 . S
C1311 C1310 1.355 . S
C1311 C1313 1.419 . S
C1312 C1310 1.415 . S
C1312 C1317 1.425 . S
C1312 C1319 1.409 . S
C1313 H1305 0.930 . S
C1313 C1311 1.419 . S
C1313 C1314 1.362 . S
C1314 H1306 0.930 . S
C1314 C1313 1.362 . S
C1314 C1317 1.409 . S
C1315 H1307 0.930 . S
C1315 C1316 1.355 . S
C1315 C1317 1.415 . S
C1316 C1315 1.355 . S
C1316 C1318 1.419 . S
C1317 C1312 1.425 . S
C1317 C1314 1.409 . S
C1317 C1315 1.415 . S
C1318 H1308 0.930 . S
C1318 C1316 1.419 . S
C1318 C1319 1.362 . S
C1319 H1309 0.930 . S
C1319 C1312 1.409 . S
C1319 C1318 1.362 . S
H1320 C1326 0.930 . S
H1321 C1329 0.930 . S
H1322 C1330 0.930 . S
H1323 C1331 0.930 . S
H1324 C1334 0.930 . S
H1325 C1335 0.930 1_455 S
C1326 H1320 0.930 . S
C1326 C1327 1.355 . S
C1326 C1328 1.415 . S
C1327 C1326 1.355 . S
C1327 C1329 1.419 . S
C1328 C1326 1.415 . S
C1328 C1333 1.425 . S
C1328 C1335 1.409 1_455 S
C1329 H1321 0.930 . S
C1329 C1327 1.419 . S
C1329 C1330 1.362 . S
C1330 H1322 0.930 . S
C1330 C1329 1.362 . S
C1330 C1333 1.409 . S
C1331 H1323 0.930 . S
C1331 C1332 1.355 . S
C1331 C1333 1.415 1_655 S
C1332 C1331 1.355 . S
C1332 C1334 1.419 . S
C1333 C1328 1.425 . S
C1333 C1330 1.409 . S
C1333 C1331 1.415 1_455 S
C1334 H1324 0.930 . S
C1334 C1332 1.419 . S
C1334 C1335 1.362 . S
C1335 H1325 0.930 1_655 S
C1335 C1328 1.409 1_655 S
C1335 C1334 1.362 . S
H1336 C1342 0.930 . S
H1337 C1345 0.930 . S
H1338 C1346 0.930 . S
H1339 C1347 0.930 . S
H1340 C1350 0.930 . S
H1341 C1351 0.930 . S
C1342 H1336 0.930 . S
C1342 C1343 1.355 . S
C1342 C1344 1.415 . S
C1343 C1342 1.355 . S
C1343 C1345 1.419 . S
C1344 C1342 1.415 . S
C1344 C1349 1.425 . S
C1344 C1351 1.409 . S
C1345 H1337 0.930 . S
C1345 C1343 1.419 . S
C1345 C1346 1.362 . S
C1346 H1338 0.930 . S
C1346 C1345 1.362 . S
C1346 C1349 1.409 . S
C1347 H1339 0.930 . S
C1347 C1348 1.355 . S
C1347 C1349 1.415 . S
C1348 C1347 1.355 . S
C1348 C1350 1.419 . S
C1349 C1344 1.425 . S
C1349 C1346 1.409 . S
C1349 C1347 1.415 . S
C1350 H1340 0.930 . S
C1350 C1348 1.419 . S
C1350 C1351 1.362 . S
C1351 H1341 0.930 . S
C1351 C1344 1.409 . S
C1351 C1350 1.362 . S
H1352 C1358 0.930 . S
H1353 C1361 0.930 . S
H1354 C1362 0.930 1_455 S
H1355 C1363 0.930 . S
H1356 C1366 0.930 . S
H1357 C1367 0.930 . S
C1358 H1352 0.930 . S
C1358 C1359 1.355 . S
C1358 C1360 1.415 1_655 S
C1359 C1358 1.355 . S
C1359 C1361 1.419 . S
C1360 C1358 1.415 1_455 S
C1360 C1365 1.425 . S
C1360 C1367 1.409 . S
C1361 H1353 0.930 . S
C1361 C1359 1.419 . S
C1361 C1362 1.362 . S
C1362 H1354 0.930 1_655 S
C1362 C1361 1.362 . S
C1362 C1365 1.409 1_655 S
C1363 H1355 0.930 . S
C1363 C1364 1.355 . S
C1363 C1365 1.415 . S
C1364 C1363 1.355 . S
C1364 C1366 1.419 . S
C1365 C1360 1.425 . S
C1365 C1362 1.409 1_455 S
C1365 C1363 1.415 . S
C1366 H1356 0.930 . S
C1366 C1364 1.419 . S
C1366 C1367 1.362 . S
C1367 H1357 0.930 . S
C1367 C1360 1.409 . S
C1367 C1366 1.362 . S
H1368 C1374 0.930 . S
H1369 C1377 0.930 . S
H1370 C1378 0.930 . S
H1371 C1379 0.930 . S
H1372 C1382 0.930 . S
H1373 C1383 0.930 . S
C1374 H1368 0.930 . S
C1374 C1375 1.355 . S
C1374 C1376 1.415 . S
C1375 C1374 1.355 . S
C1375 C1377 1.419 . S
C1376 C1374 1.415 . S
C1376 C1381 1.425 . S
C1376 C1383 1.409 . S
C1377 H1369 0.930 . S
C1377 C1375 1.419 . S
C1377 C1378 1.362 . S
C1378 H1370 0.930 . S
C1378 C1377 1.362 . S
C1378 C1381 1.409 . S
C1379 H1371 0.930 . S
C1379 C1380 1.355 . S
C1379 C1381 1.415 . S
C1380 C1379 1.355 . S
C1380 C1382 1.419 . S
C1381 C1376 1.425 . S
C1381 C1378 1.409 . S
C1381 C1379 1.415 . S
C1382 H1372 0.930 . S
C1382 C1380 1.419 . S
C1382 C1383 1.362 . S
C1383 H1373 0.930 . S
C1383 C1376 1.409 . S
C1383 C1382 1.362 . S
H1384 C1390 0.930 . S
H1385 C1393 0.930 . S
H1386 C1394 0.930 . S
H1387 C1395 0.930 . S
H1388 C1398 0.930 . S
H1389 C1399 0.930 . S
C1390 H1384 0.930 . S
C1390 C1391 1.355 . S
C1390 C1392 1.415 1_655 S
C1391 C1390 1.355 . S
C1391 C1393 1.419 . S
C1392 C1390 1.415 1_455 S
C1392 C1397 1.425 . S
C1392 C1399 1.409 . S
C1393 H1385 0.930 . S
C1393 C1391 1.419 . S
C1393 C1394 1.362 . S
C1394 H1386 0.930 . S
C1394 C1393 1.362 . S
C1394 C1397 1.409 1_655 S
C1395 H1387 0.930 . S
C1395 C1396 1.355 . S
C1395 C1397 1.415 . S
C1396 C1395 1.355 . S
C1396 C1398 1.419 . S
C1397 C1392 1.425 . S
C1397 C1394 1.409 1_455 S
C1397 C1395 1.415 . S
C1398 H1388 0.930 . S
C1398 C1396 1.419 . S
C1398 C1399 1.362 . S
C1399 H1389 0.930 . S
C1399 C1392 1.409 . S
C1399 C1398 1.362 . S
H1400 C1406 0.930 . S
H1401 C1409 0.930 . S
H1402 C1410 0.930 . S
H1403 C1411 0.930 . S
H1404 C1414 0.930 . S
H1405 C1415 0.930 . S
C1406 H1400 0.930 . S
C1406 C1407 1.355 . S
C1406 C1408 1.415 . S
C1407 C1406 1.355 . S
C1407 C1409 1.419 . S
C1408 C1406 1.415 . S
C1408 C1413 1.425 . S
C1408 C1415 1.409 . S
C1409 H1401 0.930 . S
C1409 C1407 1.419 . S
C1409 C1410 1.362 . S
C1410 H1402 0.930 . S
C1410 C1409 1.362 . S
C1410 C1413 1.409 . S
C1411 H1403 0.930 . S
C1411 C1412 1.355 . S
C1411 C1413 1.415 . S
C1412 C1411 1.355 . S
C1412 C1414 1.419 . S
C1413 C1408 1.425 . S
C1413 C1410 1.409 . S
C1413 C1411 1.415 . S
C1414 H1404 0.930 . S
C1414 C1412 1.419 . S
C1414 C1415 1.362 . S
C1415 H1405 0.930 . S
C1415 C1408 1.409 . S
C1415 C1414 1.362 . S
H1416 C1422 0.930 . S
H1417 C1425 0.930 . S
H1418 C1426 0.930 . S
H1419 C1427 0.930 . S
H1420 C1430 0.930 . S
H1421 C1431 0.928 1_556 S
C1422 H1416 0.930 . S
C1422 C1423 1.355 . S
C1422 C1424 1.415 . S
C1423 C1422 1.355 . S
C1423 C1425 1.419 . S
C1424 C1422 1.415 . S
C1424 C1429 1.425 . S
C1424 C1431 1.409 1_556 S
C1425 H1417 0.930 . S
C1425 C1423 1.419 . S
C1425 C1426 1.362 . S
C1426 H1418 0.930 . S
C1426 C1425 1.362 . S
C1426 C1429 1.409 . S
C1427 H1419 0.930 . S
C1427 C1428 1.355 . S
C1427 C1429 1.415 1_554 S
C1428 C1427 1.355 . S
C1428 C1430 1.419 . S
C1429 C1424 1.425 . S
C1429 C1426 1.409 . S
C1429 C1427 1.415 1_556 S
C1430 H1420 0.930 . S
C1430 C1428 1.419 . S
C1430 C1431 1.362 . S
C1431 H1421 0.928 1_554 S
C1431 C1424 1.409 1_554 S
C1431 C1430 1.362 . S
H1432 C1438 0.930 . S
H1433 C1441 0.930 . S
H1434 C1442 0.930 . S
H1435 C1443 0.930 . S
H1436 C1446 0.930 . S
H1437 C1447 0.930 . S
C1438 H1432 0.930 . S
C1438 C1439 1.355 . S
C1438 C1440 1.415 . S
C1439 C1438 1.355 . S
C1439 C1441 1.419 . S
C1440 C1438 1.415 . S
C1440 C1445 1.425 . S
C1440 C1447 1.409 . S
C1441 H1433 0.930 . S
C1441 C1439 1.419 . S
C1441 C1442 1.362 . S
C1442 H1434 0.930 . S
C1442 C1441 1.362 . S
C1442 C1445 1.409 . S
C1443 H1435 0.930 . S
C1443 C1444 1.355 . S
C1443 C1445 1.415 . S
C1444 C1443 1.355 . S
C1444 C1446 1.419 . S
C1445 C1440 1.425 . S
C1445 C1442 1.409 . S
C1445 C1443 1.415 . S
C1446 H1436 0.930 . S
C1446 C1444 1.419 . S
C1446 C1447 1.362 . S
C1447 H1437 0.930 . S
C1447 C1440 1.409 . S
C1447 C1446 1.362 . S
H1448 C1454 0.930 . S
H1449 C1457 0.930 . S
H1450 C1458 0.930 . S
H1451 C1459 0.930 . S
H1452 C1462 0.930 . S
H1453 C1463 0.930 . S
C1454 H1448 0.930 . S
C1454 C1455 1.355 . S
C1454 C1456 1.415 . S
C1455 C1454 1.355 . S
C1455 C1457 1.419 . S
C1456 C1454 1.415 . S
C1456 C1461 1.425 1_554 S
C1456 C1463 1.409 1_554 S
C1457 H1449 0.930 . S
C1457 C1455 1.419 . S
C1457 C1458 1.362 . S
C1458 H1450 0.930 . S
C1458 C1457 1.362 . S
C1458 C1461 1.409 1_554 S
C1459 H1451 0.930 . S
C1459 C1460 1.355 . S
C1459 C1461 1.415 . S
C1460 C1459 1.355 . S
C1460 C1462 1.419 . S
C1461 C1456 1.425 1_556 S
C1461 C1458 1.409 1_556 S
C1461 C1459 1.415 . S
C1462 H1452 0.930 . S
C1462 C1460 1.419 . S
C1462 C1463 1.362 . S
C1463 H1453 0.930 . S
C1463 C1456 1.409 1_556 S
C1463 C1462 1.362 . S
H1464 C1470 0.930 . S
H1465 C1473 0.930 . S
H1466 C1474 0.930 . S
H1467 C1475 0.930 . S
H1468 C1478 0.930 . S
H1469 C1479 0.930 . S
C1470 H1464 0.930 . S
C1470 C1471 1.355 . S
C1470 C1472 1.415 . S
C1471 C1470 1.355 . S
C1471 C1473 1.419 . S
C1472 C1470 1.415 . S
C1472 C1477 1.425 . S
C1472 C1479 1.409 . S
C1473 H1465 0.930 . S
C1473 C1471 1.419 . S
C1473 C1474 1.362 . S
C1474 H1466 0.930 . S
C1474 C1473 1.362 . S
C1474 C1477 1.409 . S
C1475 H1467 0.930 . S
C1475 C1476 1.355 . S
C1475 C1477 1.415 . S
C1476 C1475 1.355 . S
C1476 C1478 1.419 . S
C1477 C1472 1.425 . S
C1477 C1474 1.409 . S
C1477 C1475 1.415 . S
C1478 H1468 0.930 . S
C1478 C1476 1.419 . S
C1478 C1479 1.362 . S
C1479 H1469 0.930 . S
C1479 C1472 1.409 . S
C1479 C1478 1.362 . S
H1480 C1486 0.930 . S
H1481 C1489 0.930 . S
H1482 C1490 0.930 . S
H1483 C1491 0.930 . S
H1484 C1494 0.930 . S
H1485 C1495 0.930 . S
C1486 H1480 0.930 . S
C1486 C1487 1.355 . S
C1486 C1488 1.415 . S
C1487 C1486 1.355 . S
C1487 C1489 1.419 . S
C1488 C1486 1.415 . S
C1488 C1493 1.425 1_554 S
C1488 C1495 1.409 1_554 S
C1489 H1481 0.930 . S
C1489 C1487 1.419 . S
C1489 C1490 1.362 . S
C1490 H1482 0.930 . S
C1490 C1489 1.362 . S
C1490 C1493 1.409 1_554 S
C1491 H1483 0.930 . S
C1491 C1492 1.355 . S
C1491 C1493 1.415 . S
C1492 C1491 1.355 . S
C1492 C1494 1.419 . S
C1493 C1488 1.425 1_556 S
C1493 C1490 1.409 1_556 S
C1493 C1491 1.415 . S
C1494 H1484 0.930 . S
C1494 C1492 1.419 . S
C1494 C1495 1.362 . S
C1495 H1485 0.930 . S
C1495 C1488 1.409 1_556 S
C1495 C1494 1.362 . S
H1496 C1502 0.930 . S
H1497 C1505 0.930 . S
H1498 C1506 0.930 . S
H1499 C1507 0.930 . S
H1500 C1510 0.930 . S
H1501 C1511 0.930 . S
C1502 H1496 0.930 . S
C1502 C1503 1.355 . S
C1502 C1504 1.415 . S
C1503 C1502 1.355 . S
C1503 C1505 1.419 . S
C1504 C1502 1.415 . S
C1504 C1509 1.425 . S
C1504 C1511 1.409 . S
C1505 H1497 0.930 . S
C1505 C1503 1.419 . S
C1505 C1506 1.362 . S
C1506 H1498 0.930 . S
C1506 C1505 1.362 . S
C1506 C1509 1.409 . S
C1507 H1499 0.930 . S
C1507 C1508 1.355 . S
C1507 C1509 1.415 . S
C1508 C1507 1.355 . S
C1508 C1510 1.419 . S
C1509 C1504 1.425 . S
C1509 C1506 1.409 . S
C1509 C1507 1.415 . S
C1510 H1500 0.930 . S
C1510 C1508 1.419 . S
C1510 C1511 1.362 . S
C1511 H1501 0.930 . S
C1511 C1504 1.409 . S
C1511 C1510 1.362 . S
H1512 C1518 0.930 . S
H1513 C1521 0.930 . S
H1514 C1522 0.930 . S
H1515 C1523 0.930 . S
H1516 C1526 0.930 . S
H1517 C1527 0.929 1_554 S
C1518 H1512 0.930 . S
C1518 C1519 1.355 . S
C1518 C1520 1.415 . S
C1519 C1518 1.355 . S
C1519 C1521 1.419 . S
C1520 C1518 1.415 . S
C1520 C1525 1.425 . S
C1520 C1527 1.409 1_554 S
C1521 H1513 0.930 . S
C1521 C1519 1.419 . S
C1521 C1522 1.362 . S
C1522 H1514 0.930 . S
C1522 C1521 1.362 . S
C1522 C1525 1.409 . S
C1523 H1515 0.930 . S
C1523 C1524 1.355 . S
C1523 C1525 1.415 1_556 S
C1524 C1523 1.355 . S
C1524 C1526 1.419 . S
C1525 C1520 1.425 . S
C1525 C1522 1.409 . S
C1525 C1523 1.415 1_554 S
C1526 H1516 0.930 . S
C1526 C1524 1.419 . S
C1526 C1527 1.362 . S
C1527 H1517 0.929 1_556 S
C1527 C1520 1.409 1_556 S
C1527 C1526 1.362 . S
H1528 C1534 0.930 . S
H1529 C1537 0.930 . S
H1530 C1538 0.930 . S
H1531 C1539 0.930 . S
H1532 C1542 0.930 . S
H1533 C1543 0.930 . S
C1534 H1528 0.930 . S
C1534 C1535 1.355 . S
C1534 C1536 1.415 . S
C1535 C1534 1.355 . S
C1535 C1537 1.419 . S
C1536 C1534 1.415 . S
C1536 C1541 1.425 . S
C1536 C1543 1.409 . S
C1537 H1529 0.930 . S
C1537 C1535 1.419 . S
C1537 C1538 1.362 . S
C1538 H1530 0.930 . S
C1538 C1537 1.362 . S
C1538 C1541 1.409 . S
C1539 H1531 0.930 . S
C1539 C1540 1.355 . S
C1539 C1541 1.415 . S
C1540 C1539 1.355 . S
C1540 C1542 1.419 . S
C1541 C1536 1.425 . S
C1541 C1538 1.409 . S
C1541 C1539 1.415 . S
C1542 H1532 0.930 . S
C1542 C1540 1.419 . S
C1542 C1543 1.362 . S
C1543 H1533 0.930 . S
C1543 C1536 1.409 . S
C1543 C1542 1.362 . S
H1544 C1550 0.930 . S
H1545 C1553 0.930 . S
H1546 C1554 0.930 . S
H1547 C1555 0.930 . S
H1548 C1558 0.930 . S
H1549 C1559 0.930 . S
C1550 H1544 0.930 . S
C1550 C1551 1.355 . S
C1550 C1552 1.415 . S
C1551 C1550 1.355 . S
C1551 C1553 1.419 . S
C1552 C1550 1.415 . S
C1552 C1557 1.425 . S
C1552 C1559 1.409 . S
C1553 H1545 0.930 . S
C1553 C1551 1.419 . S
C1553 C1554 1.362 . S
C1554 H1546 0.930 . S
C1554 C1553 1.362 . S
C1554 C1557 1.409 . S
C1555 H1547 0.930 . S
C1555 C1556 1.355 . S
C1555 C1557 1.415 . S
C1556 C1555 1.355 . S
C1556 C1558 1.419 . S
C1557 C1552 1.425 . S
C1557 C1554 1.409 . S
C1557 C1555 1.415 . S
C1558 H1548 0.930 . S
C1558 C1556 1.419 . S
C1558 C1559 1.362 . S
C1559 H1549 0.930 . S
C1559 C1552 1.409 . S
C1559 C1558 1.362 . S
H1560 C1566 0.930 . S
H1561 C1569 0.930 . S
H1562 C1570 0.928 1_545 S
H1563 C1571 0.930 . S
H1564 C1574 0.930 . S
H1565 C1575 0.930 . S
C1566 H1560 0.930 . S
C1566 C1567 1.355 . S
C1566 C1568 1.415 1_565 S
C1567 C1566 1.355 . S
C1567 C1569 1.419 . S
C1568 C1566 1.415 1_545 S
C1568 C1573 1.425 . S
C1568 C1575 1.409 . S
C1569 H1561 0.930 . S
C1569 C1567 1.419 . S
C1569 C1570 1.362 . S
C1570 H1562 0.928 1_565 S
C1570 C1569 1.362 . S
C1570 C1573 1.409 1_565 S
C1571 H1563 0.930 . S
C1571 C1572 1.355 . S
C1571 C1573 1.415 . S
C1572 C1571 1.355 . S
C1572 C1574 1.419 . S
C1573 C1568 1.425 . S
C1573 C1570 1.409 1_545 S
C1573 C1571 1.415 . S
C1574 H1564 0.930 . S
C1574 C1572 1.419 . S
C1574 C1575 1.362 . S
C1575 H1565 0.930 . S
C1575 C1568 1.409 . S
C1575 C1574 1.362 . S
H1576 C1582 0.930 . S
H1577 C1585 0.930 . S
H1578 C1586 0.930 . S
H1579 C1587 0.930 . S
H1580 C1590 0.930 . S
H1581 C1591 0.930 . S
C1582 H1576 0.930 . S
C1582 C1583 1.355 . S
C1582 C1584 1.415 . S
C1583 C1582 1.355 . S
C1583 C1585 1.419 . S
C1584 C1582 1.415 . S
C1584 C1589 1.425 . S
C1584 C1591 1.409 . S
C1585 H1577 0.930 . S
C1585 C1583 1.419 . S
C1585 C1586 1.362 . S
C1586 H1578 0.930 . S
C1586 C1585 1.362 . S
C1586 C1589 1.409 . S
C1587 H1579 0.930 . S
C1587 C1588 1.355 . S
C1587 C1589 1.415 . S
C1588 C1587 1.355 . S
C1588 C1590 1.419 . S
C1589 C1584 1.425 . S
C1589 C1586 1.409 . S
C1589 C1587 1.415 . S
C1590 H1580 0.930 . S
C1590 C1588 1.419 . S
C1590 C1591 1.362 . S
C1591 H1581 0.930 . S
C1591 C1584 1.409 . S
C1591 C1590 1.362 . S
H1592 C1598 0.930 . S
H1593 C1601 0.930 . S
H1594 C1602 0.930 . S
H1595 C1603 0.930 . S
H1596 C1606 0.930 . S
H1597 C1607 0.930 1_565 S
C1598 H1592 0.930 . S
C1598 C1599 1.355 . S
C1598 C1600 1.415 . S
C1599 C1598 1.355 . S
C1599 C1601 1.419 . S
C1600 C1598 1.415 . S
C1600 C1605 1.425 . S
C1600 C1607 1.409 1_565 S
C1601 H1593 0.930 . S
C1601 C1599 1.419 . S
C1601 C1602 1.362 . S
C1602 H1594 0.930 . S
C1602 C1601 1.362 . S
C1602 C1605 1.409 . S
C1603 H1595 0.930 . S
C1603 C1604 1.355 . S
C1603 C1605 1.415 1_545 S
C1604 C1603 1.355 . S
C1604 C1606 1.419 . S
C1605 C1600 1.425 . S
C1605 C1602 1.409 . S
C1605 C1603 1.415 1_565 S
C1606 H1596 0.930 . S
C1606 C1604 1.419 . S
C1606 C1607 1.362 . S
C1607 H1597 0.930 1_545 S
C1607 C1600 1.409 1_545 S
C1607 C1606 1.362 . S
H1608 C1614 0.930 . S
H1609 C1617 0.930 . S
H1610 C1618 0.930 . S
H1611 C1619 0.930 . S
H1612 C1622 0.930 . S
H1613 C1623 0.930 . S
C1614 H1608 0.930 . S
C1614 C1615 1.355 . S
C1614 C1616 1.415 . S
C1615 C1614 1.355 . S
C1615 C1617 1.419 . S
C1616 C1614 1.415 . S
C1616 C1621 1.425 . S
C1616 C1623 1.409 . S
C1617 H1609 0.930 . S
C1617 C1615 1.419 . S
C1617 C1618 1.362 . S
C1618 H1610 0.930 . S
C1618 C1617 1.362 . S
C1618 C1621 1.409 . S
C1619 H1611 0.930 . S
C1619 C1620 1.355 . S
C1619 C1621 1.415 . S
C1620 C1619 1.355 . S
C1620 C1622 1.419 . S
C1621 C1616 1.425 . S
C1621 C1618 1.409 . S
C1621 C1619 1.415 . S
C1622 H1612 0.930 . S
C1622 C1620 1.419 . S
C1622 C1623 1.362 . S
C1623 H1613 0.930 . S
C1623 C1616 1.409 . S
C1623 C1622 1.362 . S
H1624 C1630 0.930 . S
H1625 C1633 0.930 . S
H1626 C1634 0.930 . S
H1627 C1635 0.930 . S
H1628 C1638 0.930 . S
H1629 C1639 0.930 . S
C1630 H1624 0.930 . S
C1630 C1631 1.355 . S
C1630 C1632 1.415 . S
C1631 C1630 1.355 . S
C1631 C1633 1.419 . S
C1632 C1630 1.415 . S
C1632 C1637 1.425 . S
C1632 C1639 1.409 1_565 S
C1633 H1625 0.930 . S
C1633 C1631 1.419 . S
C1633 C1634 1.362 . S
C1634 H1626 0.930 . S
C1634 C1633 1.362 . S
C1634 C1637 1.409 . S
C1635 H1627 0.930 . S
C1635 C1636 1.355 . S
C1635 C1637 1.415 1_545 S
C1636 C1635 1.355 . S
C1636 C1638 1.419 . S
C1637 C1632 1.425 . S
C1637 C1634 1.409 . S
C1637 C1635 1.415 1_565 S
C1638 H1628 0.930 . S
C1638 C1636 1.419 . S
C1638 C1639 1.362 . S
C1639 H1629 0.930 . S
C1639 C1632 1.409 1_545 S
C1639 C1638 1.362 . S
H1640 C1646 0.930 . S
H1641 C1649 0.930 . S
H1642 C1650 0.930 . S
H1643 C1651 0.930 . S
H1644 C1654 0.930 . S
H1645 C1655 0.935 . S
C1646 H1640 0.930 . S
C1646 C1647 1.355 . S
C1646 C1648 1.415 . S
C1647 C1646 1.355 . S
C1647 C1649 1.419 . S
C1648 C1646 1.415 . S
C1648 C1653 1.425 . S
C1648 C1655 1.409 1_545 S
C1649 H1641 0.930 . S
C1649 C1647 1.419 . S
C1649 C1650 1.362 . S
C1650 H1642 0.930 . S
C1650 C1649 1.362 . S
C1650 C1653 1.409 . S
C1651 H1643 0.930 . S
C1651 C1652 1.355 . S
C1651 C1653 1.415 1_565 S
C1652 C1651 1.355 . S
C1652 C1654 1.419 . S
C1653 C1648 1.425 . S
C1653 C1650 1.409 . S
C1653 C1651 1.415 1_545 S
C1654 H1644 0.930 . S
C1654 C1652 1.419 . S
C1654 C1655 1.362 . S
C1655 H1645 0.935 . S
C1655 C1648 1.409 1_565 S
C1655 C1654 1.362 . S
H1656 C1662 0.930 . S
H1657 C1665 0.930 . S
H1658 C1666 0.930 . S
H1659 C1667 0.930 . S
H1660 C1670 0.930 . S
H1661 C1671 0.930 . S
C1662 H1656 0.930 . S
C1662 C1663 1.355 . S
C1662 C1664 1.415 . S
C1663 C1662 1.355 . S
C1663 C1665 1.419 . S
C1664 C1662 1.415 . S
C1664 C1669 1.425 . S
C1664 C1671 1.409 . S
C1665 H1657 0.930 . S
C1665 C1663 1.419 . S
C1665 C1666 1.362 . S
C1666 H1658 0.930 . S
C1666 C1665 1.362 . S
C1666 C1669 1.409 . S
C1667 H1659 0.930 . S
C1667 C1668 1.355 . S
C1667 C1669 1.415 . S
C1668 C1667 1.355 . S
C1668 C1670 1.419 . S
C1669 C1664 1.425 . S
C1669 C1666 1.409 . S
C1669 C1667 1.415 . S
C1670 H1660 0.930 . S
C1670 C1668 1.419 . S
C1670 C1671 1.362 . S
C1671 H1661 0.930 . S
C1671 C1664 1.409 . S
C1671 C1670 1.362 . S
H1672 C1678 0.930 . S
H1673 C1681 0.930 . S
H1674 C1682 0.930 . S
H1675 C1683 0.930 . S
H1676 C1686 0.930 . S
H1677 C1687 0.930 . S
C1678 H1672 0.930 . S
C1678 C1679 1.355 . S
C1678 C1680 1.415 . S
C1679 C1678 1.355 . S
C1679 C1681 1.419 . S
C1680 C1678 1.415 . S
C1680 C1685 1.425 . S
C1680 C1687 1.409 . S
C1681 H1673 0.930 . S
C1681 C1679 1.419 . S
C1681 C1682 1.362 . S
C1682 H1674 0.930 . S
C1682 C1681 1.362 . S
C1682 C1685 1.409 . S
C1683 H1675 0.930 . S
C1683 C1684 1.355 . S
C1683 C1685 1.415 . S
C1684 C1683 1.355 . S
C1684 C1686 1.419 . S
C1685 C1680 1.425 . S
C1685 C1682 1.409 . S
C1685 C1683 1.415 . S
C1686 H1676 0.930 . S
C1686 C1684 1.419 . S
C1686 C1687 1.362 . S
C1687 H1677 0.930 . S
C1687 C1680 1.409 . S
C1687 C1686 1.362 . S
H1688 C1694 0.930 . S
H1689 C1697 0.930 . S
H1690 C1698 0.930 . S
H1691 C1699 0.930 . S
H1692 C1702 0.930 . S
H1693 C1703 0.930 . S
C1694 H1688 0.930 . S
C1694 C1695 1.355 . S
C1694 C1696 1.415 . S
C1695 C1694 1.355 . S
C1695 C1697 1.419 . S
C1696 C1694 1.415 . S
C1696 C1701 1.425 . S
C1696 C1703 1.409 . S
C1697 H1689 0.930 . S
C1697 C1695 1.419 . S
C1697 C1698 1.362 . S
C1698 H1690 0.930 . S
C1698 C1697 1.362 . S
C1698 C1701 1.409 . S
C1699 H1691 0.930 . S
C1699 C1700 1.355 . S
C1699 C1701 1.415 . S
C1700 C1699 1.355 . S
C1700 C1702 1.419 . S
C1701 C1696 1.425 . S
C1701 C1698 1.409 . S
C1701 C1699 1.415 . S
C1702 H1692 0.930 . S
C1702 C1700 1.419 . S
C1702 C1703 1.362 . S
C1703 H1693 0.930 . S
C1703 C1696 1.409 . S
C1703 C1702 1.362 . S
H1704 C1710 0.930 . S
H1705 C1713 0.930 . S
H1706 C1714 0.930 . S
H1707 C1715 0.930 . S
H1708 C1718 0.930 . S
H1709 C1719 0.930 . S
C1710 H1704 0.930 . S
C1710 C1711 1.355 . S
C1710 C1712 1.415 . S
C1711 C1710 1.355 . S
C1711 C1713 1.419 . S
C1712 C1710 1.415 . S
C1712 C1717 1.425 . S
C1712 C1719 1.409 . S
C1713 H1705 0.930 . S
C1713 C1711 1.419 . S
C1713 C1714 1.362 . S
C1714 H1706 0.930 . S
C1714 C1713 1.362 . S
C1714 C1717 1.409 . S
C1715 H1707 0.930 . S
C1715 C1716 1.355 . S
C1715 C1717 1.415 . S
C1716 C1715 1.355 . S
C1716 C1718 1.419 . S
C1717 C1712 1.425 . S
C1717 C1714 1.409 . S
C1717 C1715 1.415 . S
C1718 H1708 0.930 . S
C1718 C1716 1.419 . S
C1718 C1719 1.362 . S
C1719 H1709 0.930 . S
C1719 C1712 1.409 . S
C1719 C1718 1.362 . S
H1720 C1726 0.930 . S
H1721 C1729 0.930 . S
H1722 C1730 0.930 . S
H1723 C1731 0.930 . S
H1724 C1734 0.930 . S
H1725 C1735 0.930 . S
C1726 H1720 0.930 . S
C1726 C1727 1.355 . S
C1726 C1728 1.415 . S
C1727 C1726 1.355 . S
C1727 C1729 1.419 . S
C1728 C1726 1.415 . S
C1728 C1733 1.425 . S
C1728 C1735 1.409 . S
C1729 H1721 0.930 . S
C1729 C1727 1.419 . S
C1729 C1730 1.362 . S
C1730 H1722 0.930 . S
C1730 C1729 1.362 . S
C1730 C1733 1.409 . S
C1731 H1723 0.930 . S
C1731 C1732 1.355 . S
C1731 C1733 1.415 . S
C1732 C1731 1.355 . S
C1732 C1734 1.419 . S
C1733 C1728 1.425 . S
C1733 C1730 1.409 . S
C1733 C1731 1.415 . S
C1734 H1724 0.930 . S
C1734 C1732 1.419 . S
C1734 C1735 1.362 . S
C1735 H1725 0.930 . S
C1735 C1728 1.409 . S
C1735 C1734 1.362 . S
H1736 C1742 0.930 . S
H1737 C1745 0.930 . S
H1738 C1746 0.930 . S
H1739 C1747 0.930 . S
H1740 C1750 0.930 . S
H1741 C1751 0.930 . S
C1742 H1736 0.930 . S
C1742 C1743 1.355 . S
C1742 C1744 1.415 . S
C1743 C1742 1.355 . S
C1743 C1745 1.419 . S
C1744 C1742 1.415 . S
C1744 C1749 1.425 . S
C1744 C1751 1.409 . S
C1745 H1737 0.930 . S
C1745 C1743 1.419 . S
C1745 C1746 1.362 . S
C1746 H1738 0.930 . S
C1746 C1745 1.362 . S
C1746 C1749 1.409 . S
C1747 H1739 0.930 . S
C1747 C1748 1.355 . S
C1747 C1749 1.415 . S
C1748 C1747 1.355 . S
C1748 C1750 1.419 . S
C1749 C1744 1.425 . S
C1749 C1746 1.409 . S
C1749 C1747 1.415 . S
C1750 H1740 0.930 . S
C1750 C1748 1.419 . S
C1750 C1751 1.362 . S
C1751 H1741 0.930 . S
C1751 C1744 1.409 . S
C1751 C1750 1.362 . S
H1752 C1758 0.930 . S
H1753 C1761 0.930 . S
H1754 C1762 0.930 . S
H1755 C1763 0.930 . S
H1756 C1766 0.930 . S
H1757 C1767 0.930 . S
C1758 H1752 0.930 . S
C1758 C1759 1.355 . S
C1758 C1760 1.415 . S
C1759 C1758 1.355 . S
C1759 C1761 1.419 . S
C1760 C1758 1.415 . S
C1760 C1765 1.425 . S
C1760 C1767 1.409 . S
C1761 H1753 0.930 . S
C1761 C1759 1.419 . S
C1761 C1762 1.362 . S
C1762 H1754 0.930 . S
C1762 C1761 1.362 . S
C1762 C1765 1.409 . S
C1763 H1755 0.930 . S
C1763 C1764 1.355 . S
C1763 C1765 1.415 . S
C1764 C1763 1.355 . S
C1764 C1766 1.419 . S
C1765 C1760 1.425 . S
C1765 C1762 1.409 . S
C1765 C1763 1.415 . S
C1766 H1756 0.930 . S
C1766 C1764 1.419 . S
C1766 C1767 1.362 . S
C1767 H1757 0.930 . S
C1767 C1760 1.409 . S
C1767 C1766 1.362 . S
H1768 C1774 0.930 . S
H1769 C1777 0.930 . S
H1770 C1778 0.930 . S
H1771 C1779 0.930 . S
H1772 C1782 0.930 . S
H1773 C1783 0.930 . S
C1774 H1768 0.930 . S
C1774 C1775 1.355 . S
C1774 C1776 1.415 . S
C1775 C1774 1.355 . S
C1775 C1777 1.419 . S
C1776 C1774 1.415 . S
C1776 C1781 1.425 . S
C1776 C1783 1.409 . S
C1777 H1769 0.930 . S
C1777 C1775 1.419 . S
C1777 C1778 1.362 . S
C1778 H1770 0.930 . S
C1778 C1777 1.362 . S
C1778 C1781 1.409 . S
C1779 H1771 0.930 . S
C1779 C1780 1.355 . S
C1779 C1781 1.415 . S
C1780 C1779 1.355 . S
C1780 C1782 1.419 . S
C1781 C1776 1.425 . S
C1781 C1778 1.409 . S
C1781 C1779 1.415 . S
C1782 H1772 0.930 . S
C1782 C1780 1.419 . S
C1782 C1783 1.362 . S
C1783 H1773 0.930 . S
C1783 C1776 1.409 . S
C1783 C1782 1.362 . S
H1784 C1790 0.930 . S
H1785 C1793 0.930 . S
H1786 C1794 0.930 . S
H1787 C1795 0.930 . S
H1788 C1798 0.930 . S
H1789 C1799 0.930 . S
C1790 H1784 0.930 . S
C1790 C1791 1.355 . S
C1790 C1792 1.415 . S
C1791 C1790 1.355 . S
C1791 C1793 1.419 . S
C1792 C1790 1.415 . S
C1792 C1797 1.425 . S
C1792 C1799 1.409 . S
C1793 H1785 0.930 . S
C1793 C1791 1.419 . S
C1793 C1794 1.362 . S
C1794 H1786 0.930 . S
C1794 C1793 1.362 . S
C1794 C1797 1.409 . S
C1795 H1787 0.930 . S
C1795 C1796 1.355 . S
C1795 C1797 1.415 . S
C1796 C1795 1.355 . S
C1796 C1798 1.419 . S
C1797 C1792 1.425 . S
C1797 C1794 1.409 . S
C1797 C1795 1.415 . S
C1798 H1788 0.930 . S
C1798 C1796 1.419 . S
C1798 C1799 1.362 . S
C1799 H1789 0.930 . S
C1799 C1792 1.409 . S
C1799 C1798 1.362 . S
H1800 C1806 0.930 . S
H1801 C1809 0.930 . S
H1802 C1810 0.930 . S
H1803 C1811 0.930 . S
H1804 C1814 0.930 . S
H1805 C1815 0.930 . S
C1806 H1800 0.930 . S
C1806 C1807 1.355 . S
C1806 C1808 1.415 . S
C1807 C1806 1.355 . S
C1807 C1809 1.419 . S
C1808 C1806 1.415 . S
C1808 C1813 1.425 . S
C1808 C1815 1.409 . S
C1809 H1801 0.930 . S
C1809 C1807 1.419 . S
C1809 C1810 1.362 . S
C1810 H1802 0.930 . S
C1810 C1809 1.362 . S
C1810 C1813 1.409 . S
C1811 H1803 0.930 . S
C1811 C1812 1.355 . S
C1811 C1813 1.415 . S
C1812 C1811 1.355 . S
C1812 C1814 1.419 . S
C1813 C1808 1.425 . S
C1813 C1810 1.409 . S
C1813 C1811 1.415 . S
C1814 H1804 0.930 . S
C1814 C1812 1.419 . S
C1814 C1815 1.362 . S
C1815 H1805 0.930 . S
C1815 C1808 1.409 . S
C1815 C1814 1.362 . S
H1816 C1822 0.930 . S
H1817 C1825 0.930 . S
H1818 C1826 0.930 . S
H1819 C1827 0.930 . S
H1820 C1830 0.930 . S
H1821 C1831 0.930 . S
C1822 H1816 0.930 . S
C1822 C1823 1.355 . S
C1822 C1824 1.415 . S
C1823 C1822 1.355 . S
C1823 C1825 1.419 . S
C1824 C1822 1.415 . S
C1824 C1829 1.425 . S
C1824 C1831 1.409 . S
C1825 H1817 0.930 . S
C1825 C1823 1.419 . S
C1825 C1826 1.362 . S
C1826 H1818 0.930 . S
C1826 C1825 1.362 . S
C1826 C1829 1.409 . S
C1827 H1819 0.930 . S
C1827 C1828 1.355 . S
C1827 C1829 1.415 . S
C1828 C1827 1.355 . S
C1828 C1830 1.419 . S
C1829 C1824 1.425 . S
C1829 C1826 1.409 . S
C1829 C1827 1.415 . S
C1830 H1820 0.930 . S
C1830 C1828 1.419 . S
C1830 C1831 1.362 . S
C1831 H1821 0.930 . S
C1831 C1824 1.409 . S
C1831 C1830 1.362 . S
H1832 C1838 0.930 . S
H1833 C1841 0.930 . S
H1834 C1842 0.930 . S
H1835 C1843 0.930 . S
H1836 C1846 0.930 . S
H1837 C1847 0.930 . S
C1838 H1832 0.930 . S
C1838 C1839 1.355 . S
C1838 C1840 1.415 . S
C1839 C1838 1.355 . S
C1839 C1841 1.419 . S
C1840 C1838 1.415 . S
C1840 C1845 1.425 . S
C1840 C1847 1.409 . S
C1841 H1833 0.930 . S
C1841 C1839 1.419 . S
C1841 C1842 1.362 . S
C1842 H1834 0.930 . S
C1842 C1841 1.362 . S
C1842 C1845 1.409 . S
C1843 H1835 0.930 . S
C1843 C1844 1.355 . S
C1843 C1845 1.415 . S
C1844 C1843 1.355 . S
C1844 C1846 1.419 . S
C1845 C1840 1.425 . S
C1845 C1842 1.409 . S
C1845 C1843 1.415 . S
C1846 H1836 0.930 . S
C1846 C1844 1.419 . S
C1846 C1847 1.362 . S
C1847 H1837 0.930 . S
C1847 C1840 1.409 . S
C1847 C1846 1.362 . S
H1848 C1854 0.930 . S
H1849 C1857 0.930 . S
H1850 C1858 0.930 . S
H1851 C1859 0.930 . S
H1852 C1862 0.930 . S
H1853 C1863 0.930 . S
C1854 H1848 0.930 . S
C1854 C1855 1.355 . S
C1854 C1856 1.415 . S
C1855 C1854 1.355 . S
C1855 C1857 1.419 . S
C1856 C1854 1.415 . S
C1856 C1861 1.425 . S
C1856 C1863 1.409 . S
C1857 H1849 0.930 . S
C1857 C1855 1.419 . S
C1857 C1858 1.362 . S
C1858 H1850 0.930 . S
C1858 C1857 1.362 . S
C1858 C1861 1.409 . S
C1859 H1851 0.930 . S
C1859 C1860 1.355 . S
C1859 C1861 1.415 . S
C1860 C1859 1.355 . S
C1860 C1862 1.419 . S
C1861 C1856 1.425 . S
C1861 C1858 1.409 . S
C1861 C1859 1.415 . S
C1862 H1852 0.930 . S
C1862 C1860 1.419 . S
C1862 C1863 1.362 . S
C1863 H1853 0.930 . S
C1863 C1856 1.409 . S
C1863 C1862 1.362 . S
H1864 C1870 0.930 . S
H1865 C1873 0.930 . S
H1866 C1874 0.930 . S
H1867 C1875 0.930 . S
H1868 C1878 0.930 . S
H1869 C1879 0.930 . S
C1870 H1864 0.930 . S
C1870 C1871 1.355 . S
C1870 C1872 1.415 . S
C1871 C1870 1.355 . S
C1871 C1873 1.419 . S
C1872 C1870 1.415 . S
C1872 C1877 1.425 . S
C1872 C1879 1.409 . S
C1873 H1865 0.930 . S
C1873 C1871 1.419 . S
C1873 C1874 1.362 . S
C1874 H1866 0.930 . S
C1874 C1873 1.362 . S
C1874 C1877 1.409 . S
C1875 H1867 0.930 . S
C1875 C1876 1.355 . S
C1875 C1877 1.415 . S
C1876 C1875 1.355 . S
C1876 C1878 1.419 . S
C1877 C1872 1.425 . S
C1877 C1874 1.409 . S
C1877 C1875 1.415 . S
C1878 H1868 0.930 . S
C1878 C1876 1.419 . S
C1878 C1879 1.362 . S
C1879 H1869 0.930 . S
C1879 C1872 1.409 . S
C1879 C1878 1.362 . S
H1880 C1886 0.930 . S
H1881 C1889 0.930 . S
H1882 C1890 0.930 . S
H1883 C1891 0.930 . S
H1884 C1894 0.930 . S
H1885 C1895 0.930 . S
C1886 H1880 0.930 . S
C1886 C1887 1.355 . S
C1886 C1888 1.415 . S
C1887 C1886 1.355 . S
C1887 C1889 1.419 . S
C1888 C1886 1.415 . S
C1888 C1893 1.425 . S
C1888 C1895 1.409 . S
C1889 H1881 0.930 . S
C1889 C1887 1.419 . S
C1889 C1890 1.362 . S
C1890 H1882 0.930 . S
C1890 C1889 1.362 . S
C1890 C1893 1.409 . S
C1891 H1883 0.930 . S
C1891 C1892 1.355 . S
C1891 C1893 1.415 . S
C1892 C1891 1.355 . S
C1892 C1894 1.419 . S
C1893 C1888 1.425 . S
C1893 C1890 1.409 . S
C1893 C1891 1.415 . S
C1894 H1884 0.930 . S
C1894 C1892 1.419 . S
C1894 C1895 1.362 . S
C1895 H1885 0.930 . S
C1895 C1888 1.409 . S
C1895 C1894 1.362 . S
H1896 C1902 0.930 . S
H1897 C1905 0.930 . S
H1898 C1906 0.930 . S
H1899 C1907 0.930 . S
H1900 C1910 0.930 . S
H1901 C1911 0.930 . S
C1902 H1896 0.930 . S
C1902 C1903 1.355 . S
C1902 C1904 1.415 . S
C1903 C1902 1.355 . S
C1903 C1905 1.419 . S
C1904 C1902 1.415 . S
C1904 C1909 1.425 . S
C1904 C1911 1.409 . S
C1905 H1897 0.930 . S
C1905 C1903 1.419 . S
C1905 C1906 1.362 . S
C1906 H1898 0.930 . S
C1906 C1905 1.362 . S
C1906 C1909 1.409 . S
C1907 H1899 0.930 . S
C1907 C1908 1.355 . S
C1907 C1909 1.415 . S
C1908 C1907 1.355 . S
C1908 C1910 1.419 . S
C1909 C1904 1.425 . S
C1909 C1906 1.409 . S
C1909 C1907 1.415 . S
C1910 H1900 0.930 . S
C1910 C1908 1.419 . S
C1910 C1911 1.362 . S
C1911 H1901 0.930 . S
C1911 C1904 1.409 . S
C1911 C1910 1.362 . S
H1912 C1918 0.930 . S
H1913 C1921 0.930 . S
H1914 C1922 0.930 . S
H1915 C1923 0.930 . S
H1916 C1926 0.930 . S
H1917 C1927 0.930 . S
C1918 H1912 0.930 . S
C1918 C1919 1.355 . S
C1918 C1920 1.415 . S
C1919 C1918 1.355 . S
C1919 C1921 1.419 . S
C1920 C1918 1.415 . S
C1920 C1925 1.425 . S
C1920 C1927 1.409 . S
C1921 H1913 0.930 . S
C1921 C1919 1.419 . S
C1921 C1922 1.362 . S
C1922 H1914 0.930 . S
C1922 C1921 1.362 . S
C1922 C1925 1.409 . S
C1923 H1915 0.930 . S
C1923 C1924 1.355 . S
C1923 C1925 1.415 . S
C1924 C1923 1.355 . S
C1924 C1926 1.419 . S
C1925 C1920 1.425 . S
C1925 C1922 1.409 . S
C1925 C1923 1.415 . S
C1926 H1916 0.930 . S
C1926 C1924 1.419 . S
C1926 C1927 1.362 . S
C1927 H1917 0.930 . S
C1927 C1920 1.409 . S
C1927 C1926 1.362 . S
H1928 C1934 0.930 . S
H1929 C1937 0.930 . S
H1930 C1938 0.930 . S
H1931 C1939 0.930 . S
H1932 C1942 0.930 . S
H1933 C1943 0.930 . S
C1934 H1928 0.930 . S
C1934 C1935 1.355 . S
C1934 C1936 1.415 . S
C1935 C1934 1.355 . S
C1935 C1937 1.419 . S
C1936 C1934 1.415 . S
C1936 C1941 1.425 . S
C1936 C1943 1.409 . S
C1937 H1929 0.930 . S
C1937 C1935 1.419 . S
C1937 C1938 1.362 . S
C1938 H1930 0.930 . S
C1938 C1937 1.362 . S
C1938 C1941 1.409 . S
C1939 H1931 0.930 . S
C1939 C1940 1.355 . S
C1939 C1941 1.415 . S
C1940 C1939 1.355 . S
C1940 C1942 1.419 . S
C1941 C1936 1.425 . S
C1941 C1938 1.409 . S
C1941 C1939 1.415 . S
C1942 H1932 0.930 . S
C1942 C1940 1.419 . S
C1942 C1943 1.362 . S
C1943 H1933 0.930 . S
C1943 C1936 1.409 . S
C1943 C1942 1.362 . S
H1944 C1950 0.930 . S
H1945 C1953 0.930 . S
H1946 C1954 0.930 . S
H1947 C1955 0.930 . S
H1948 C1958 0.930 . S
H1949 C1959 0.930 . S
C1950 H1944 0.930 . S
C1950 C1951 1.355 . S
C1950 C1952 1.415 . S
C1951 C1950 1.355 . S
C1951 C1953 1.419 . S
C1952 C1950 1.415 . S
C1952 C1957 1.425 . S
C1952 C1959 1.409 . S
C1953 H1945 0.930 . S
C1953 C1951 1.419 . S
C1953 C1954 1.362 . S
C1954 H1946 0.930 . S
C1954 C1953 1.362 . S
C1954 C1957 1.409 . S
C1955 H1947 0.930 . S
C1955 C1956 1.355 . S
C1955 C1957 1.415 . S
C1956 C1955 1.355 . S
C1956 C1958 1.419 . S
C1957 C1952 1.425 . S
C1957 C1954 1.409 . S
C1957 C1955 1.415 . S
C1958 H1948 0.930 . S
C1958 C1956 1.419 . S
C1958 C1959 1.362 . S
C1959 H1949 0.930 . S
C1959 C1952 1.409 . S
C1959 C1958 1.362 . S
H1960 C1966 0.930 . S
H1961 C1969 0.930 . S
H1962 C1970 0.930 . S
H1963 C1971 0.930 . S
H1964 C1974 0.930 . S
H1965 C1975 0.930 . S
C1966 H1960 0.930 . S
C1966 C1967 1.355 . S
C1966 C1968 1.415 . S
C1967 C1966 1.355 . S
C1967 C1969 1.419 . S
C1968 C1966 1.415 . S
C1968 C1973 1.425 . S
C1968 C1975 1.409 . S
C1969 H1961 0.930 . S
C1969 C1967 1.419 . S
C1969 C1970 1.362 . S
C1970 H1962 0.930 . S
C1970 C1969 1.362 . S
C1970 C1973 1.409 . S
C1971 H1963 0.930 . S
C1971 C1972 1.355 . S
C1971 C1973 1.415 . S
C1972 C1971 1.355 . S
C1972 C1974 1.419 . S
C1973 C1968 1.425 . S
C1973 C1970 1.409 . S
C1973 C1971 1.415 . S
C1974 H1964 0.930 . S
C1974 C1972 1.419 . S
C1974 C1975 1.362 . S
C1975 H1965 0.930 . S
C1975 C1968 1.409 . S
C1975 C1974 1.362 . S
H1976 C1982 0.930 . S
H1977 C1985 0.930 . S
H1978 C1986 0.930 . S
H1979 C1987 0.930 . S
H1980 C1990 0.930 . S
H1981 C1991 0.930 . S
C1982 H1976 0.930 . S
C1982 C1983 1.355 . S
C1982 C1984 1.415 . S
C1983 C1982 1.355 . S
C1983 C1985 1.419 . S
C1984 C1982 1.415 . S
C1984 C1989 1.425 . S
C1984 C1991 1.409 . S
C1985 H1977 0.930 . S
C1985 C1983 1.419 . S
C1985 C1986 1.362 . S
C1986 H1978 0.930 . S
C1986 C1985 1.362 . S
C1986 C1989 1.409 . S
C1987 H1979 0.930 . S
C1987 C1988 1.355 . S
C1987 C1989 1.415 . S
C1988 C1987 1.355 . S
C1988 C1990 1.419 . S
C1989 C1984 1.425 . S
C1989 C1986 1.409 . S
C1989 C1987 1.415 . S
C1990 H1980 0.930 . S
C1990 C1988 1.419 . S
C1990 C1991 1.362 . S
C1991 H1981 0.930 . S
C1991 C1984 1.409 . S
C1991 C1990 1.362 . S
H1992 C1998 0.930 . S
H1993 C2001 0.930 . S
H1994 C2002 0.930 . S
H1995 C2003 0.930 . S
H1996 C2006 0.930 . S
H1997 C2007 0.930 . S
C1998 H1992 0.930 . S
C1998 C1999 1.355 . S
C1998 C2000 1.415 . S
C1999 C1998 1.355 . S
C1999 C2001 1.419 . S
C2000 C1998 1.415 . S
C2000 C2005 1.425 . S
C2000 C2007 1.409 . S
C2001 H1993 0.930 . S
C2001 C1999 1.419 . S
C2001 C2002 1.362 . S
C2002 H1994 0.930 . S
C2002 C2001 1.362 . S
C2002 C2005 1.409 . S
C2003 H1995 0.930 . S
C2003 C2004 1.355 . S
C2003 C2005 1.415 . S
C2004 C2003 1.355 . S
C2004 C2006 1.419 . S
C2005 C2000 1.425 . S
C2005 C2002 1.409 . S
C2005 C2003 1.415 . S
C2006 H1996 0.930 . S
C2006 C2004 1.419 . S
C2006 C2007 1.362 . S
C2007 H1997 0.930 . S
C2007 C2000 1.409 . S
C2007 C2006 1.362 . S
H2008 C2014 0.930 . S
H2009 C2017 0.930 . S
H2010 C2018 0.930 . S
H2011 C2019 0.930 . S
H2012 C2022 0.930 . S
H2013 C2023 0.930 . S
C2014 H2008 0.930 . S
C2014 C2015 1.355 . S
C2014 C2016 1.415 . S
C2015 C2014 1.355 . S
C2015 C2017 1.419 . S
C2016 C2014 1.415 . S
C2016 C2021 1.425 . S
C2016 C2023 1.409 . S
C2017 H2009 0.930 . S
C2017 C2015 1.419 . S
C2017 C2018 1.362 . S
C2018 H2010 0.930 . S
C2018 C2017 1.362 . S
C2018 C2021 1.409 . S
C2019 H2011 0.930 . S
C2019 C2020 1.355 . S
C2019 C2021 1.415 . S
C2020 C2019 1.355 . S
C2020 C2022 1.419 . S
C2021 C2016 1.425 . S
C2021 C2018 1.409 . S
C2021 C2019 1.415 . S
C2022 H2012 0.930 . S
C2022 C2020 1.419 . S
C2022 C2023 1.362 . S
C2023 H2013 0.930 . S
C2023 C2016 1.409 . S
C2023 C2022 1.362 . S
H2024 C2030 0.930 . S
H2025 C2033 0.930 . S
H2026 C2034 0.930 . S
H2027 C2035 0.930 . S
H2028 C2038 0.930 . S
H2029 C2039 0.930 . S
C2030 H2024 0.930 . S
C2030 C2031 1.355 . S
C2030 C2032 1.415 . S
C2031 C2030 1.355 . S
C2031 C2033 1.419 . S
C2032 C2030 1.415 . S
C2032 C2037 1.425 . S
C2032 C2039 1.409 . S
C2033 H2025 0.930 . S
C2033 C2031 1.419 . S
C2033 C2034 1.362 . S
C2034 H2026 0.930 . S
C2034 C2033 1.362 . S
C2034 C2037 1.409 . S
C2035 H2027 0.930 . S
C2035 C2036 1.355 . S
C2035 C2037 1.415 . S
C2036 C2035 1.355 . S
C2036 C2038 1.419 . S
C2037 C2032 1.425 . S
C2037 C2034 1.409 . S
C2037 C2035 1.415 . S
C2038 H2028 0.930 . S
C2038 C2036 1.419 . S
C2038 C2039 1.362 . S
C2039 H2029 0.930 . S
C2039 C2032 1.409 . S
C2039 C2038 1.362 . S
C1279 C834 1.989 . S
C1284 C39 2.025 . S
C1295 C675 2.081 . S
C1300 C75 2.068 . S
C1311 C728 1.665 . S
C1316 C145 1.622 . S
C1327 C764 1.863 . S
C1332 C181 1.857 . S
C1343 C781 2.020 . S
C1348 C92 1.998 . S
C1359 C128 1.823 . S
C1364 C817 1.841 . S
C1375 C658 1.817 . S
C1380 C198 1.842 . S
C1391 C711 1.759 . S
C1396 C22 1.799 . S
C1407 C976 1.711 . S
C1412 C234 1.672 . S
C1423 C304 1.938 . S
C1428 C1046 1.973 . S
C1439 C357 1.830 . S
C1444 C870 1.819 . S
C1455 C940 2.116 . S
C1460 C410 2.135 . S
C1471 C1188 2.078 . S
C1476 C463 2.123 . S
C1487 C516 1.857 . S
C1492 C1258 1.883 . S
C1503 C569 2.164 . S
C1508 C1099 2.169 . S
C1519 C622 1.683 . S
C1524 C1135 1.571 . S
C1535 C923 1.708 . S
C1540 C605 1.674 . S
C1551 C1241 1.963 . S
C1556 C287 2.007 . S
C1567 C340 1.798 . S
C1572 C1082 1.818 . S
C1583 C1152 2.038 . S
C1588 C393 1.994 . S
C1599 C1205 2.111 . S
C1604 C251 2.114 . S
C1615 C499 1.858 . S
C1620 C1029 1.855 . S
C1631 C887 2.023 . S
C1636 C552 1.943 . S
C1647 C993 1.881 . S
C1652 C446 1.821 . S
C1663 C38 1.969 . S
C1668 C250 1.971 . S
C1679 C294 1.847 . S
C1684 C82 1.834 . S
C1695 C144 1.906 . S
C1700 C347 1.905 . S
C1711 C188 1.747 . S
C1716 C400 1.736 . S
C1727 C453 2.016 . S
C1732 C91 2.014 . S
C1743 C506 1.774 . S
C1748 C135 1.775 . S
C1759 C559 2.030 . S
C1764 C197 2.033 . S
C1775 C29 1.677 . S
C1780 C612 1.669 . S
C1791 C621 2.028 . S
C1796 C241 2.004 . S
C1807 C303 2.194 . S
C1812 C462 2.199 . S
C1823 C356 1.980 . S
C1828 C515 1.976 . S
C1839 C568 2.250 . S
C1844 C409 2.250 . S
C1855 C886 2.063 . S
C1860 C665 2.049 . S
C1871 C930 1.866 . S
C1876 C718 1.860 . S
C1887 C780 1.980 . S
C1892 C992 1.970 . S
C1903 C824 1.953 . S
C1908 C1036 1.958 . S
C1919 C727 1.962 . S
C1924 C1089 1.949 . S
C1935 C771 1.891 . S
C1940 C1151 1.905 . S
C1951 C1204 2.182 . S
C1956 C833 2.182 . S
C1967 C674 1.953 . S
C1972 C1248 1.929 . S
C1983 C877 1.857 . S
C1988 C1257 1.868 . S
C1999 C1098 2.069 . S
C2004 C939 2.069 . S
C2015 C983 1.924 . S
C2020 C1142 1.899 . S
C2031 C1195 2.019 . S
C2036 C1045 2.023 . S
