# Generated by pormake.
# Topology wke, (5)-cn, num edge types: 1
# Building blocks:
#     Node 0, Type 0, BuildingBlock: XOMCOT_clean_sbu_0, # of connection points: 5
#     Node 1, Type 0, BuildingBlock: XOMCOT_clean_sbu_0, # of connection points: 5
#     Node 2, Type 0, BuildingBlock: XOMCOT_clean_sbu_0, # of connection points: 5
#     Node 3, Type 0, BuildingBlock: XOMCOT_clean_sbu_0, # of connection points: 5
#     Node 4, Type 0, BuildingBlock: XOMCOT_clean_sbu_0, # of connection points: 5
#     Node 5, Type 0, BuildingBlock: XOMCOT_clean_sbu_0, # of connection points: 5
#     Node 6, Type 0, BuildingBlock: XOMCOT_clean_sbu_0, # of connection points: 5
#     Node 7, Type 0, BuildingBlock: XOMCOT_clean_sbu_0, # of connection points: 5
#     Node 8, Type 0, BuildingBlock: XOMCOT_clean_sbu_0, # of connection points: 5
#     Node 9, Type 0, BuildingBlock: XOMCOT_clean_sbu_0, # of connection points: 5
#     Node 10, Type 0, BuildingBlock: XOMCOT_clean_sbu_0, # of connection points: 5
#     Node 11, Type 0, BuildingBlock: XOMCOT_clean_sbu_0, # of connection points: 5
#     Edge 12, Type (0, 0), BuildingBlock: XUDNAN_clean_linker_2, # of connection points: 2
#     Edge 13, Type (0, 0), BuildingBlock: XUDNAN_clean_linker_2, # of connection points: 2
#     Edge 14, Type (0, 0), BuildingBlock: XUDNAN_clean_linker_2, # of connection points: 2
#     Edge 15, Type (0, 0), BuildingBlock: XUDNAN_clean_linker_2, # of connection points: 2
#     Edge 16, Type (0, 0), BuildingBlock: XUDNAN_clean_linker_2, # of connection points: 2
#     Edge 17, Type (0, 0), BuildingBlock: XUDNAN_clean_linker_2, # of connection points: 2
#     Edge 18, Type (0, 0), BuildingBlock: XUDNAN_clean_linker_2, # of connection points: 2
#     Edge 19, Type (0, 0), BuildingBlock: XUDNAN_clean_linker_2, # of connection points: 2
#     Edge 20, Type (0, 0), BuildingBlock: XUDNAN_clean_linker_2, # of connection points: 2
#     Edge 21, Type (0, 0), BuildingBlock: XUDNAN_clean_linker_2, # of connection points: 2
#     Edge 22, Type (0, 0), BuildingBlock: XUDNAN_clean_linker_2, # of connection points: 2
#     Edge 23, Type (0, 0), BuildingBlock: XUDNAN_clean_linker_2, # of connection points: 2
#     Edge 24, Type (0, 0), BuildingBlock: XUDNAN_clean_linker_2, # of connection points: 2
#     Edge 25, Type (0, 0), BuildingBlock: XUDNAN_clean_linker_2, # of connection points: 2
#     Edge 26, Type (0, 0), BuildingBlock: XUDNAN_clean_linker_2, # of connection points: 2
#     Edge 27, Type (0, 0), BuildingBlock: XUDNAN_clean_linker_2, # of connection points: 2
#     Edge 28, Type (0, 0), BuildingBlock: XUDNAN_clean_linker_2, # of connection points: 2
#     Edge 29, Type (0, 0), BuildingBlock: XUDNAN_clean_linker_2, # of connection points: 2
#     Edge 30, Type (0, 0), BuildingBlock: XUDNAN_clean_linker_2, # of connection points: 2
#     Edge 31, Type (0, 0), BuildingBlock: XUDNAN_clean_linker_2, # of connection points: 2
#     Edge 32, Type (0, 0), BuildingBlock: XUDNAN_clean_linker_2, # of connection points: 2
#     Edge 33, Type (0, 0), BuildingBlock: XUDNAN_clean_linker_2, # of connection points: 2
#     Edge 34, Type (0, 0), BuildingBlock: XUDNAN_clean_linker_2, # of connection points: 2
#     Edge 35, Type (0, 0), BuildingBlock: XUDNAN_clean_linker_2, # of connection points: 2
#     Edge 36, Type (0, 0), BuildingBlock: XUDNAN_clean_linker_2, # of connection points: 2
#     Edge 37, Type (0, 0), BuildingBlock: XUDNAN_clean_linker_2, # of connection points: 2
#     Edge 38, Type (0, 0), BuildingBlock: XUDNAN_clean_linker_2, # of connection points: 2
#     Edge 39, Type (0, 0), BuildingBlock: XUDNAN_clean_linker_2, # of connection points: 2
#     Edge 40, Type (0, 0), BuildingBlock: XUDNAN_clean_linker_2, # of connection points: 2
#     Edge 41, Type (0, 0), BuildingBlock: XUDNAN_clean_linker_2, # of connection points: 2
# Relax obj value: 0.148
# Max RMSD: 0.150
# Mean RMSD: 0.150
data_MOF--net-wke--node1-XOMCOT_clean_sbu_0--edge1-XUDNAN_clean_linker_2
_symmetry_space_group_name_H-M    P1
_symmetry_Int_Tables_number       1
_symmetry_cell_setting            triclinic
loop_
_symmetry_equiv_pos_as_xyz
'x, y, z'
_cell_length_a     71.279518
_cell_length_b     71.295808
_cell_length_c     17.575355
_cell_angle_alpha  90.016848
_cell_angle_beta   90.020987
_cell_angle_gamma 119.96627
loop_
_atom_site_label
_atom_site_type_symbol
_atom_site_fract_x
_atom_site_fract_y
_atom_site_fract_z
_atom_type_partial_charge
Co0 Co 0.11705 0.42886 0.33323 0.0
C1 C 0.11032 0.42741 0.16387 0.0
C2 C 0.10346 0.39682 0.20953 0.0
C3 C 0.10035 0.39469 0.1318 0.0
N4 N 0.10955 0.41734 0.22994 0.0
N5 N 0.10459 0.41397 0.10332 0.0
H6 H 0.1154 0.44428 0.15874 0.0
H7 H 0.10137 0.38422 0.24869 0.0
C8 C 0.06951 0.39823 0.33595 0.0
O9 O 0.06865 0.40507 0.26739 0.0
N10 N 0.12487 0.44014 0.43548 0.0
C11 C 0.13857 0.46105 0.45299 0.0
C12 C 0.13783 0.46375 0.5301 0.0
C13 C 0.11613 0.43028 0.5024 0.0
N14 N 0.12374 0.44445 0.56095 0.0
C15 C 0.11998 0.46762 0.27381 0.0
C16 C 0.08538 0.46538 0.35224 0.0
C17 C 0.09778 0.48334 0.30555 0.0
C18 C 0.11526 0.48426 0.26598 0.0
C19 C 0.09061 0.44895 0.35807 0.0
N20 N 0.10721 0.44969 0.31654 0.0
H21 H 0.13427 0.46944 0.2459 0.0
H22 H 0.0819 0.4363 0.39914 0.0
H23 H 0.14774 0.47367 0.412 0.0
H24 H 0.10369 0.41346 0.50783 0.0
O25 O 0.14661 0.44672 0.30223 0.0
O26 O 0.13288 0.41325 0.34562 0.0
O27 O 0.08759 0.406 0.37107 0.0
C28 C 0.1496 0.43075 0.31966 0.0
H29 H 0.09519 0.38006 0.09907 0.0
H30 H 0.14651 0.47886 0.56105 0.0
H31 H 0.07229 0.46441 0.38644 0.0
H32 H 0.12545 0.49785 0.22961 0.0
Co33 Co 0.69372 0.11462 0.84842 0.0
C34 C 0.69556 0.11226 0.67867 0.0
C35 C 0.69676 0.08618 0.73539 0.0
C36 C 0.69925 0.08451 0.65872 0.0
N37 N 0.69442 0.10352 0.74821 0.0
N38 N 0.69867 0.10094 0.62291 0.0
H39 H 0.69523 0.1271 0.66952 0.0
H40 H 0.69752 0.0759 0.77897 0.0
C41 C 0.66645 0.07532 0.94192 0.0
O42 O 0.65659 0.08535 0.96863 0.0
N43 N 0.69396 0.12561 0.95091 0.0
C44 C 0.68968 0.14106 0.97539 0.0
C45 C 0.6921 0.14296 0.05339 0.0
C46 C 0.69993 0.1192 0.01451 0.0
N47 N 0.69845 0.12911 0.07802 0.0
C48 C 0.66152 0.12706 0.82079 0.0
C49 C 0.62772 0.0859 0.79172 0.0
C50 C 0.62325 0.10296 0.79662 0.0
C51 C 0.64074 0.12392 0.80928 0.0
C52 C 0.64864 0.08975 0.80556 0.0
N53 N 0.66491 0.10989 0.8255 0.0
H54 H 0.6749 0.14336 0.8252 0.0
H55 H 0.6517 0.07643 0.8001 0.0
H56 H 0.68568 0.15092 0.9404 0.0
H57 H 0.7048 0.10706 0.01428 0.0
O58 O 0.71091 0.14388 0.81139 0.0
O59 O 0.72409 0.12409 0.85994 0.0
O60 O 0.68139 0.08447 0.89203 0.0
C61 C 0.72774 0.14224 0.82932 0.0
H62 H 0.70182 0.07235 0.63152 0.0
H63 H 0.68981 0.15405 0.08894 0.0
H64 H 0.61524 0.06965 0.77702 0.0
H65 H 0.63855 0.13787 0.8114 0.0
Co66 Co 0.56846 0.68586 0.33247 0.0
C67 C 0.56827 0.68121 0.16676 0.0
C68 C 0.60056 0.69433 0.20998 0.0
C69 C 0.60107 0.69284 0.13152 0.0
N70 N 0.57992 0.68692 0.23161 0.0
N71 N 0.58068 0.68451 0.1045 0.0
H72 H 0.551 0.67514 0.16555 0.0
H73 H 0.61426 0.70054 0.24827 0.0
C74 C 0.58627 0.66329 0.42286 0.0
O75 O 0.56621 0.65028 0.44482 0.0
N76 N 0.5568 0.68573 0.43441 0.0
C77 C 0.5384 0.68622 0.44875 0.0
C78 C 0.53511 0.68561 0.52575 0.0
C79 C 0.56527 0.68668 0.50467 0.0
N80 N 0.55184 0.6856 0.56102 0.0
C81 C 0.52643 0.64735 0.32522 0.0
C82 C 0.5405 0.62014 0.27039 0.0
C83 C 0.51827 0.61176 0.28244 0.0
C84 C 0.51139 0.62574 0.31059 0.0
C85 C 0.55508 0.64186 0.28702 0.0
N86 N 0.54806 0.6551 0.31624 0.0
H87 H 0.52042 0.65787 0.34147 0.0
H88 H 0.57208 0.64811 0.2757 0.0
H89 H 0.52788 0.68711 0.40647 0.0
H90 H 0.58073 0.68785 0.51531 0.0
O91 O 0.5512 0.69694 0.29048 0.0
O92 O 0.58438 0.71742 0.33616 0.0
O93 O 0.59061 0.6791 0.3779 0.0
C94 C 0.56719 0.7162 0.30475 0.0
H95 H 0.61534 0.69745 0.09731 0.0
H96 H 0.52132 0.68506 0.5538 0.0
H97 H 0.5466 0.6102 0.24674 0.0
H98 H 0.49443 0.62017 0.32101 0.0
Co99 Co 0.8826 0.5716 0.84078 0.0
C100 C 0.88859 0.57031 0.67345 0.0
C101 C 0.90642 0.60261 0.71676 0.0
C102 C 0.90861 0.60332 0.6385 0.0
N103 N 0.89418 0.58181 0.73895 0.0
N104 N 0.89738 0.58292 0.61135 0.0
H105 H 0.8772 0.55326 0.67012 0.0
H106 H 0.91282 0.6164 0.75467 0.0
C107 C 0.93102 0.59797 0.86582 0.0
O108 O 0.93457 0.59069 0.80191 0.0
N109 N 0.87058 0.5612 0.94134 0.0
C110 C 0.85262 0.54205 0.955 0.0
C111 C 0.85075 0.53824 0.03203 0.0
C112 C 0.87936 0.56888 0.01076 0.0
N113 N 0.86758 0.55504 0.06708 0.0
C114 C 0.87508 0.52989 0.79021 0.0
C115 C 0.90709 0.52933 0.87699 0.0
C116 C 0.89467 0.51177 0.82865 0.0
C117 C 0.87831 0.51212 0.78542 0.0
C118 C 0.90326 0.54668 0.88017 0.0
N119 N 0.88824 0.54748 0.83395 0.0
H120 H 0.86154 0.52917 0.7602 0.0
H121 H 0.912 0.55901 0.92217 0.0
H122 H 0.84216 0.53101 0.91162 0.0
H123 H 0.89459 0.58353 0.01992 0.0
O124 O 0.85349 0.55817 0.79884 0.0
O125 O 0.87222 0.5918 0.8424 0.0
O126 O 0.91168 0.59149 0.88809 0.0
C127 C 0.85453 0.57667 0.81162 0.0
H128 H 0.91751 0.61777 0.60441 0.0
H129 H 0.83835 0.52383 0.06001 0.0
H130 H 0.91958 0.52964 0.91294 0.0
H131 H 0.86759 0.49846 0.75011 0.0
Co132 Co 0.30921 0.88593 0.32644 0.0
C133 C 0.30623 0.8858 0.15762 0.0
C134 C 0.30754 0.91419 0.20324 0.0
C135 C 0.30508 0.91416 0.12511 0.0
N136 N 0.30902 0.8967 0.2237 0.0
N137 N 0.30414 0.89617 0.0967 0.0
H138 H 0.30459 0.86996 0.154 0.0
H139 H 0.3071 0.92567 0.24224 0.0
C140 C 0.33587 0.93425 0.35603 0.0
O141 O 0.34744 0.93727 0.29431 0.0
N142 N 0.3088 0.87474 0.4273 0.0
C143 C 0.31292 0.85868 0.44325 0.0
C144 C 0.31044 0.85466 0.52019 0.0
C145 C 0.30387 0.88035 0.49486 0.0
N146 N 0.30482 0.8683 0.55265 0.0
C147 C 0.34217 0.88025 0.25429 0.0
C148 C 0.37592 0.90743 0.34871 0.0
C149 C 0.38032 0.89858 0.28462 0.0
C150 C 0.36302 0.88432 0.23849 0.0
C151 C 0.35474 0.90303 0.36202 0.0
N152 N 0.33841 0.89069 0.31214 0.0
H153 H 0.32906 0.86842 0.22041 0.0
H154 H 0.35153 0.9097 0.41227 0.0
H155 H 0.31729 0.85036 0.40155 0.0
H156 H 0.29901 0.8924 0.50132 0.0
O157 O 0.29257 0.85653 0.28923 0.0
O158 O 0.27875 0.87616 0.3341 0.0
O159 O 0.32038 0.91543 0.37313 0.0
C160 C 0.2755 0.85802 0.30465 0.0
H161 H 0.3029 0.9258 0.09242 0.0
H162 H 0.31263 0.84262 0.55015 0.0
H163 H 0.38876 0.91801 0.38719 0.0
H164 H 0.36554 0.8762 0.19078 0.0
Co165 Co 0.4224 0.30771 0.83242 0.0
C166 C 0.41955 0.3045 0.66365 0.0
C167 C 0.39192 0.30477 0.70927 0.0
C168 C 0.38955 0.30231 0.63113 0.0
N169 N 0.41115 0.30685 0.72973 0.0
N170 N 0.40695 0.30204 0.60272 0.0
H171 H 0.4341 0.3035 0.65997 0.0
H172 H 0.37981 0.30393 0.74826 0.0
C173 C 0.39902 0.33311 0.86095 0.0
O174 O 0.40738 0.34515 0.80006 0.0
N175 N 0.43354 0.30808 0.93332 0.0
C176 C 0.45384 0.31254 0.94901 0.0
C177 C 0.45557 0.31028 0.02599 0.0
C178 C 0.42313 0.30321 1.0011 0.0
N179 N 0.43631 0.30445 0.05875 0.0
C180 C 0.46135 0.33962 0.76071 0.0
C181 C 0.46773 0.37486 0.84617 0.0
C182 C 0.48157 0.37807 0.78476 0.0
C183 C 0.47853 0.36004 0.74324 0.0
C184 C 0.45043 0.35399 0.86119 0.0
N185 N 0.44668 0.33688 0.81561 0.0
H186 H 0.46019 0.32598 0.73064 0.0
H187 H 0.44018 0.35164 0.90963 0.0
H188 H 0.46646 0.31688 0.90709 0.0
H189 H 0.40617 0.29814 1.00782 0.0
O190 O 0.43535 0.29108 0.7966 0.0
O191 O 0.40203 0.27717 0.84225 0.0
O192 O 0.40363 0.31848 0.87821 0.0
C193 C 0.417 0.27397 0.8133 0.0
H194 H 0.37559 0.29974 0.59839 0.0
H195 H 0.46991 0.31267 0.05572 0.0
H196 H 0.47 0.38834 0.88116 0.0
H197 H 0.48952 0.36168 0.69779 0.0
Co198 Co 0.57535 0.88785 0.20696 0.0
C199 C 0.57874 0.89371 0.3785 0.0
C200 C 0.60881 0.90296 0.32205 0.0
C201 C 0.61285 0.90679 0.3984 0.0
N202 N 0.58753 0.89512 0.3089 0.0
N203 N 0.59398 0.90099 0.43375 0.0
H204 H 0.56187 0.88791 0.38952 0.0
H205 H 0.62068 0.90592 0.27846 0.0
C206 C 0.60562 0.93543 0.2017 0.0
O207 O 0.59758 0.93664 0.26761 0.0
N208 N 0.56432 0.88075 0.10434 0.0
C209 C 0.54362 0.86843 0.08144 0.0
C210 C 0.543 0.86935 1.00302 0.0
C211 C 0.57596 0.88879 0.04025 0.0
N212 N 0.56336 0.88232 0.97743 0.0
C213 C 0.53804 0.88714 0.27133 0.0
C214 C 0.53949 0.91972 0.18213 0.0
C215 C 0.52159 0.90805 0.22995 0.0
C216 C 0.52118 0.89173 0.27563 0.0
C217 C 0.55585 0.91442 0.17889 0.0
N218 N 0.55541 0.89869 0.22471 0.0
H219 H 0.53634 0.87331 0.30218 0.0
H220 H 0.56813 0.92215 0.13578 0.0
H221 H 0.52992 0.85997 0.11915 0.0
H222 H 0.59333 0.89939 0.03976 0.0
O223 O 0.55656 0.85838 0.23684 0.0
O224 O 0.58996 0.87118 0.19317 0.0
O225 O 0.5989 0.91702 0.17 0.0
C226 C 0.57207 0.85475 0.2181 0.0
H227 H 0.62844 0.9132 0.42602 0.0
H228 H 0.52859 0.86176 0.96795 0.0
H229 H 0.54049 0.9323 0.14502 0.0
H230 H 0.50732 0.88162 0.31109 0.0
Co231 Co 0.68796 0.57554 0.6777 0.0
C232 C 0.68401 0.57772 0.8489 0.0
C233 C 0.70052 0.60864 0.79353 0.0
C234 C 0.69978 0.61203 0.86996 0.0
N235 N 0.69028 0.58717 0.7796 0.0
N236 N 0.68942 0.59263 0.90468 0.0
H237 H 0.67562 0.56054 0.85927 0.0
H238 H 0.70795 0.62107 0.75047 0.0
C239 C 0.66471 0.60068 0.66965 0.0
O240 O 0.65523 0.59175 0.73438 0.0
N241 N 0.68643 0.56501 0.57536 0.0
C242 C 0.68131 0.54494 0.55288 0.0
C243 C 0.67981 0.544 0.47441 0.0
C244 C 0.68816 0.57599 0.511 0.0
N245 N 0.68394 0.56352 0.44841 0.0
C246 C 0.65451 0.53517 0.74068 0.0
C247 C 0.62115 0.53275 0.65327 0.0
C248 C 0.61673 0.51558 0.70255 0.0
C249 C 0.63376 0.51699 0.74696 0.0
C250 C 0.64206 0.5504 0.64821 0.0
N251 N 0.65835 0.55199 0.69375 0.0
H252 H 0.66769 0.53525 0.7712 0.0
H253 H 0.64521 0.56229 0.60478 0.0
H254 H 0.67809 0.53174 0.5909 0.0
H255 H 0.69209 0.59273 0.51014 0.0
O256 O 0.70384 0.56139 0.70998 0.0
O257 O 0.71853 0.59489 0.66538 0.0
O258 O 0.67786 0.59568 0.639 0.0
C259 C 0.72125 0.57945 0.69247 0.0
H260 H 0.70655 0.62758 0.89813 0.0
H261 H 0.6751 0.5298 0.43962 0.0
H262 H 0.60868 0.53239 0.61708 0.0
H263 H 0.63136 0.50377 0.78361 0.0
Co264 Co 0.11165 0.6909 0.17089 0.0
C265 C 0.10639 0.6889 0.34287 0.0
C266 C 0.09321 0.70631 0.28561 0.0
C267 C 0.08937 0.70631 0.36208 0.0
N268 N 0.10351 0.69505 0.27283 0.0
N269 N 0.09763 0.69538 0.39794 0.0
H270 H 0.11424 0.67965 0.35444 0.0
H271 H 0.08845 0.71372 0.24167 0.0
C272 C 0.06336 0.66763 0.17191 0.0
O273 O 0.06391 0.66076 0.24077 0.0
N274 N 0.11953 0.68767 0.06873 0.0
C275 C 0.1341 0.68205 0.04613 0.0
C276 C 0.13336 0.68043 0.96766 0.0
C277 C 0.11031 0.68956 1.00453 0.0
N278 N 0.11826 0.68502 0.94181 0.0
C279 C 0.11943 0.65902 0.24213 0.0
C280 C 0.0864 0.62351 0.16923 0.0
C281 C 0.09867 0.62015 0.2241 0.0
C282 C 0.11572 0.6383 0.2596 0.0
C283 C 0.09065 0.64445 0.15372 0.0
N284 N 0.10608 0.6618 0.1935 0.0
H285 H 0.13306 0.67286 0.26795 0.0
H286 H 0.08173 0.64661 0.10828 0.0
H287 H 0.14413 0.67885 0.08402 0.0
H288 H 0.09793 0.6941 1.00395 0.0
O289 O 0.1419 0.70749 0.19897 0.0
O290 O 0.12241 0.7212 0.1521 0.0
O291 O 0.08086 0.6795 0.1354 0.0
C292 C 0.14084 0.7245 0.1788 0.0
H293 H 0.08114 0.71381 0.38936 0.0
H294 H 0.14271 0.67557 0.93271 0.0
H295 H 0.07388 0.61012 0.13719 0.0
H296 H 0.12602 0.63657 0.30093 0.0
Co297 Co 0.42608 0.11291 0.67972 0.0
C298 C 0.42467 0.11291 0.84931 0.0
C299 C 0.39418 0.08951 0.80204 0.0
C300 C 0.39199 0.08964 0.88006 0.0
N301 N 0.41491 0.10364 0.78272 0.0
N302 N 0.41118 0.10449 0.90941 0.0
H303 H 0.44089 0.12639 0.8541 0.0
H304 H 0.38127 0.08035 0.76191 0.0
C305 C 0.40385 0.0648 0.6733 0.0
O306 O 0.41262 0.06531 0.73959 0.0
N307 N 0.43707 0.12273 0.57833 0.0
C308 C 0.45744 0.13842 0.56288 0.0
C309 C 0.45927 0.14239 0.48614 0.0
C310 C 0.42667 0.11726 0.51054 0.0
N311 N 0.43997 0.1292 0.45317 0.0
C312 C 0.46702 0.12238 0.74586 0.0
C313 C 0.47073 0.09059 0.66883 0.0
C314 C 0.48648 0.10327 0.72246 0.0
C315 C 0.48492 0.11978 0.75963 0.0
C316 C 0.45345 0.09411 0.65549 0.0
N317 N 0.45083 0.10875 0.69784 0.0
H318 H 0.4666 0.1358 0.77218 0.0
H319 H 0.4424 0.08518 0.61001 0.0
H320 H 0.47001 0.14674 0.60495 0.0
H321 H 0.40967 0.10546 0.50375 0.0
O322 O 0.43841 0.14276 0.7117 0.0
O323 O 0.40515 0.12227 0.66654 0.0
O324 O 0.40783 0.08237 0.64018 0.0
C325 C 0.41979 0.14083 0.69401 0.0
H326 H 0.37716 0.08055 0.91215 0.0
H327 H 0.4737 0.15428 0.45678 0.0
H328 H 0.47202 0.07835 0.63642 0.0
H329 H 0.49731 0.13045 0.79933 0.0
Co330 Co 0.31172 0.42162 0.19388 0.0
C331 C 0.3099 0.42014 0.36355 0.0
C332 C 0.29737 0.38851 0.31611 0.0
C333 C 0.29479 0.38656 0.39412 0.0
N334 N 0.3076 0.4097 0.29687 0.0
N335 N 0.30259 0.40651 0.42356 0.0
H336 H 0.31544 0.43717 0.36851 0.0
H337 H 0.29129 0.37524 0.27601 0.0
C338 C 0.32753 0.39032 0.18171 0.0
O339 O 0.33721 0.39783 0.2474 0.0
N340 N 0.31512 0.43347 0.09252 0.0
C341 C 0.32416 0.45472 0.07681 0.0
C342 C 0.32278 0.4572 0.99997 0.0
C343 C 0.30841 0.4232 0.02478 0.0
N344 N 0.31286 0.43745 0.96723 0.0
C345 C 0.34964 0.45747 0.25842 0.0
C346 C 0.3796 0.45509 0.16511 0.0
C347 C 0.38661 0.47218 0.21687 0.0
C348 C 0.37139 0.47326 0.26395 0.0
C349 C 0.35753 0.43977 0.1605 0.0
N350 N 0.34284 0.44057 0.20876 0.0
H351 H 0.33822 0.45989 0.29048 0.0
H352 H 0.35226 0.42803 0.11515 0.0
H353 H 0.33101 0.46754 0.11872 0.0
H354 H 0.29988 0.40578 0.01805 0.0
O355 O 0.30231 0.44109 0.22834 0.0
O356 O 0.2803 0.40802 0.18487 0.0
O357 O 0.31622 0.39775 0.15169 0.0
C358 C 0.2827 0.42607 0.2126 0.0
H359 H 0.28659 0.37161 0.42611 0.0
H360 H 0.3285 0.47241 0.97032 0.0
H361 H 0.39086 0.45428 0.12572 0.0
H362 H 0.37619 0.48667 0.30298 0.0
Co363 Co 0.88941 0.30916 0.67429 0.0
C364 C 0.89213 0.30728 0.84556 0.0
C365 C 0.91594 0.30275 0.78722 0.0
C366 C 0.91743 0.29976 0.86372 0.0
N367 N 0.90042 0.30797 0.77523 0.0
N368 N 0.90244 0.30255 0.90055 0.0
H369 H 0.87785 0.30841 0.85646 0.0
H370 H 0.92487 0.30008 0.74294 0.0
C371 C 0.93812 0.33531 0.64784 0.0
O372 O 0.94139 0.34597 0.71203 0.0
N373 N 0.87881 0.3096 0.57303 0.0
C374 C 0.8659 0.31727 0.54985 0.0
C375 C 0.86404 0.31551 0.47139 0.0
C376 C 0.88439 0.30311 0.50903 0.0
N377 N 0.87569 0.30657 0.44583 0.0
C378 C 0.88123 0.3398 0.74929 0.0
C379 C 0.91019 0.37618 0.66909 0.0
C380 C 0.89904 0.37845 0.73085 0.0
C381 C 0.88403 0.35988 0.76978 0.0
C382 C 0.90709 0.35563 0.65112 0.0
N383 N 0.89362 0.33794 0.69402 0.0
H384 H 0.86878 0.3257 0.7776 0.0
H385 H 0.91542 0.35401 0.60248 0.0
H386 H 0.85864 0.32397 0.58703 0.0
H387 H 0.89507 0.29643 0.5089 0.0
O388 O 0.86005 0.29201 0.71063 0.0
O389 O 0.87975 0.27871 0.66248 0.0
O390 O 0.91904 0.32093 0.62796 0.0
C391 C 0.86157 0.27513 0.69263 0.0
H392 H 0.92828 0.29515 0.88992 0.0
H393 H 0.85476 0.32036 0.4361 0.0
H394 H 0.92143 0.39013 0.63607 0.0
H395 H 0.87434 0.36085 0.81549 0.0
H396 H 0.05962 0.39929 0.48633 0.0
H397 H 0.03304 0.36559 0.2734 0.0
H398 H 0.99731 0.34386 0.3344 0.0
H399 H 0.02634 0.35349 0.61638 0.0
H400 H 0.02292 0.37056 0.68402 0.0
H401 H 0.04714 0.38144 0.62702 0.0
H402 H 0.04016 0.41168 0.57864 0.0
H403 H 0.01586 0.40087 0.63492 0.0
H404 H 0.01466 0.40447 0.53387 0.0
H405 H 0.96438 0.32775 0.41386 0.0
H406 H 0.93526 0.3186 0.50604 0.0
H407 H 0.98204 0.36387 0.66819 0.0
C408 C 0.04638 0.38689 0.45339 0.0
C409 C 0.04906 0.38377 0.37553 0.0
C410 C 0.03128 0.36801 0.33325 0.0
C411 C 0.01098 0.35559 0.36745 0.0
C412 C 0.00869 0.35933 0.44378 0.0
C413 C 0.02583 0.37461 0.48639 0.0
C414 C 0.01839 0.37673 0.56532 0.0
C415 C 0.02935 0.37016 0.62682 0.0
C416 C 0.02251 0.39981 0.57894 0.0
C417 C 0.99433 0.36049 0.55979 0.0
C418 C 0.98926 0.35049 0.48943 0.0
C419 C 0.96814 0.33534 0.46938 0.0
C420 C 0.95167 0.33028 0.52239 0.0
C421 C 0.95626 0.34048 0.59472 0.0
C422 C 0.97798 0.35573 0.61363 0.0
H423 H 0.64443 0.05619 0.07257 0.0
H424 H 0.67508 0.04542 0.87719 0.0
H425 H 0.6646 0.00892 0.9258 0.0
H426 H 0.66019 0.02863 0.20975 0.0
H427 H 0.63512 0.01768 0.2618 0.0
H428 H 0.6454 0.04303 0.21206 0.0
H429 H 0.60926 0.02781 0.13771 0.0
H430 H 0.59884 0.00248 0.18744 0.0
H431 H 0.59932 0.00294 0.08491 0.0
H432 H 0.6486 0.97263 0.99236 0.0
H433 H 0.62943 0.94006 0.07333 0.0
H434 H 0.61104 0.97565 0.22772 0.0
C435 C 0.64896 0.04617 0.03994 0.0
C436 C 0.66048 0.05358 0.97091 0.0
C437 C 0.66628 0.04006 0.93031 0.0
C438 C 0.6604 0.01932 0.95746 0.0
C439 C 0.64899 0.01249 0.02575 0.0
C440 C 0.64348 0.02559 0.06666 0.0
C441 C 0.63109 0.01445 0.13811 0.0
C442 C 0.64371 0.02668 0.20965 0.0
C443 C 0.60828 0.01176 0.13691 0.0
C444 C 0.63017 0.99287 0.13051 0.0
C445 C 0.64054 0.992 0.0653 0.0
C446 C 0.64071 0.97324 0.04413 0.0
C447 C 0.62979 0.95483 0.09046 0.0
C448 C 0.619 0.95539 0.15738 0.0
C449 C 0.61951 0.9748 0.17785 0.0
H450 H 0.63102 0.60753 0.70119 0.0
H451 H 0.68384 0.62509 0.54235 0.0
H452 H 0.67169 0.64645 0.46773 0.0
H453 H 0.59223 0.59885 0.56479 0.0
H454 H 0.57838 0.60933 0.62119 0.0
H455 H 0.59291 0.5979 0.66722 0.0
H456 H 0.61552 0.63356 0.74293 0.0
H457 H 0.60095 0.64504 0.69701 0.0
H458 H 0.63009 0.65885 0.69231 0.0
H459 H 0.65216 0.66412 0.40579 0.0
H460 H 0.62561 0.67428 0.35855 0.0
H461 H 0.58536 0.64378 0.55621 0.0
C462 C 0.64033 0.61622 0.65164 0.0
C463 C 0.65847 0.61477 0.62799 0.0
C464 C 0.66992 0.62604 0.5618 0.0
C465 C 0.66321 0.63829 0.5192 0.0
C466 C 0.64503 0.63913 0.54355 0.0
C467 C 0.63375 0.62835 0.60826 0.0
C468 C 0.61369 0.6302 0.61882 0.0
C469 C 0.5931 0.60774 0.6179 0.0
C470 C 0.61517 0.64266 0.69212 0.0
C471 C 0.61512 0.64321 0.54897 0.0
C472 C 0.63349 0.64861 0.50685 0.0
C473 C 0.6378 0.6601 0.43865 0.0
C474 C 0.62271 0.66585 0.41232 0.0
C475 C 0.60347 0.65971 0.45361 0.0
C476 C 0.59991 0.64859 0.52326 0.0
H477 H 0.05269 0.65609 0.02284 0.0
H478 H 0.02658 0.6619 0.23872 0.0
H479 H 0.99055 0.64782 0.17936 0.0
H480 H 0.01874 0.66858 0.89704 0.0
H481 H 0.01537 0.64847 0.82776 0.0
H482 H 0.03965 0.66171 0.88434 0.0
H483 H 0.03314 0.62435 0.92964 0.0
H484 H 0.00874 0.61102 0.87376 0.0
H485 H 0.00778 0.60575 0.9744 0.0
H486 H 0.9576 0.6326 0.09855 0.0
H487 H 0.92846 0.61337 1.00559 0.0
H488 H 0.9748 0.61379 0.8441 0.0
C489 C 0.03943 0.65479 0.05695 0.0
C490 C 0.04231 0.66032 0.13496 0.0
C491 C 0.02459 0.65783 0.17875 0.0
C492 C 0.00416 0.64997 0.14546 0.0
C493 C 0.00173 0.6444 0.06863 0.0
C494 C 0.01878 0.64646 0.02497 0.0
C495 C 0.01122 0.63727 0.94578 0.0
C496 C 0.02188 0.65507 0.88514 0.0
C497 C 0.01547 0.61848 0.93002 0.0
C498 C 0.98721 0.62938 0.95234 0.0
C499 C 0.98225 0.63416 0.02314 0.0
C500 C 0.96124 0.62864 0.04307 0.0
C501 C 0.94474 0.61755 0.98979 0.0
C502 C 0.94917 0.61158 0.91789 0.0
C503 C 0.97082 0.61795 0.89866 0.0
H504 H 0.40149 0.05522 0.52117 0.0
H505 H 0.37588 0.02708 0.74233 0.0
H506 H 0.35377 0.99121 0.68251 0.0
H507 H 0.3528 0.02118 0.40806 0.0
H508 H 0.36777 0.01866 0.32991 0.0
H509 H 0.37999 0.04262 0.38843 0.0
H510 H 0.4123 0.03673 0.41651 0.0
H511 H 0.40024 0.01276 0.35821 0.0
H512 H 0.40731 0.01126 0.45562 0.0
H513 H 0.33544 0.95869 0.6013 0.0
H514 H 0.32364 0.93024 0.50455 0.0
H515 H 0.3627 0.97831 0.33486 0.0
C516 C 0.3909 0.04151 0.55651 0.0
C517 C 0.39008 0.0438 0.63613 0.0
C518 C 0.37659 0.02555 0.68121 0.0
C519 C 0.36394 0.00519 0.64773 0.0
C520 C 0.36524 0.00335 0.56926 0.0
C521 C 0.3785 0.02092 0.52411 0.0
C522 C 0.37818 0.01402 0.44213 0.0
C523 C 0.36914 0.02476 0.38902 0.0
C524 C 0.40085 0.01899 0.41666 0.0
C525 C 0.36274 0.98982 0.44859 0.0
C526 C 0.35528 0.98418 0.52232 0.0
C527 C 0.34108 0.96288 0.54327 0.0
C528 C 0.33443 0.94681 0.48761 0.0
C529 C 0.34217 0.95198 0.41185 0.0
C530 C 0.35648 0.97384 0.39217 0.0
H531 H 0.38317 0.36141 0.84459 0.0
H532 H 0.38285 0.31327 0.99701 0.0
H533 H 0.36121 0.32019 0.08894 0.0
H534 H 0.38877 0.39885 0.98549 0.0
H535 H 0.37097 0.40683 0.94153 0.0
H536 H 0.38505 0.39697 0.88372 0.0
H537 H 0.34847 0.36772 0.8273 0.0
H538 H 0.33417 0.37723 0.8859 0.0
H539 H 0.32727 0.34925 0.89012 0.0
H540 H 0.34356 0.33483 0.17094 0.0
H541 H 0.32966 0.35603 0.23686 0.0
H542 H 0.33851 0.39309 0.03116 0.0
C543 C 0.37828 0.35213 0.89681 0.0
C544 C 0.38484 0.33681 0.91331 0.0
C545 C 0.37815 0.3251 0.98263 0.0
C546 C 0.36572 0.32883 0.03539 0.0
C547 C 0.35971 0.34411 0.01788 0.0
C548 C 0.36554 0.35547 0.95013 0.0
C549 C 0.35766 0.37172 0.94768 0.0
C550 C 0.37675 0.39496 0.93913 0.0
C551 C 0.3409 0.36614 0.88395 0.0
C552 C 0.3472 0.36813 0.0256 0.0
C553 C 0.34853 0.35203 0.06483 0.0
C554 C 0.34193 0.34711 0.14035 0.0
C555 C 0.33408 0.3592 0.17733 0.0
C556 C 0.33263 0.37576 0.13848 0.0
C557 C 0.33884 0.38 0.06122 0.0
H558 H 0.12781 0.60618 0.24939 0.0
H559 H 0.05891 0.58361 0.23908 0.0
H560 H 0.05101 0.54625 0.26334 0.0
H561 H 0.12609 0.56153 0.15626 0.0
H562 H 0.14655 0.56098 0.21498 0.0
H563 H 0.14678 0.58607 0.20008 0.0
H564 H 0.14586 0.59108 0.34588 0.0
H565 H 0.14574 0.56604 0.36125 0.0
H566 H 0.12468 0.56989 0.40178 0.0
H567 H 0.05068 0.51105 0.28363 0.0
H568 H 0.05808 0.48085 0.29805 0.0
H569 H 0.12711 0.52691 0.30016 0.0
C570 C 0.11105 0.59347 0.25352 0.0
C571 C 0.09399 0.59785 0.2422 0.0
C572 C 0.07227 0.58062 0.24659 0.0
C573 C 0.06761 0.55936 0.26087 0.0
C574 C 0.08482 0.5556 0.27107 0.0
C575 C 0.10611 0.5722 0.26791 0.0
C576 C 0.12165 0.56377 0.2788 0.0
C577 C 0.13611 0.56836 0.20833 0.0
C578 C 0.13528 0.57326 0.35125 0.0
C579 C 0.10579 0.53982 0.28749 0.0
C580 C 0.08463 0.53541 0.28323 0.0
C581 C 0.0672 0.51433 0.28772 0.0
C582 C 0.07155 0.49729 0.29625 0.0
C583 C 0.09316 0.50145 0.30001 0.0
C584 C 0.11041 0.52309 0.29639 0.0
H585 H 0.52991 0.13135 0.70501 0.0
H586 H 0.48336 0.06606 0.77523 0.0
H587 H 0.51327 0.05885 0.80254 0.0
H588 H 0.56572 0.11688 0.6093 0.0
H589 H 0.59004 0.14127 0.63683 0.0
H590 H 0.56504 0.1415 0.62568 0.0
H591 H 0.56861 0.15597 0.76333 0.0
H592 H 0.59361 0.15575 0.77493 0.0
H593 H 0.57169 0.14122 0.84103 0.0
H594 H 0.54816 0.05937 0.82682 0.0
H595 H 0.58546 0.06639 0.83858 0.0
H596 H 0.60927 0.13025 0.73943 0.0
C597 C 0.52613 0.11562 0.72657 0.0
C598 C 0.50448 0.09926 0.73883 0.0
C599 C 0.49994 0.07873 0.76581 0.0
C600 C 0.51677 0.07453 0.78152 0.0
C601 C 0.538 0.09097 0.76874 0.0
C602 C 0.54274 0.11102 0.74109 0.0
C603 C 0.56689 0.12555 0.72967 0.0
C604 C 0.57223 0.13165 0.64535 0.0
C605 C 0.57571 0.14582 0.78027 0.0
C606 C 0.57498 0.1106 0.75591 0.0
C607 C 0.55807 0.09083 0.77882 0.0
C608 C 0.56154 0.07467 0.80788 0.0
C609 C 0.58288 0.07879 0.81356 0.0
C610 C 0.6006 0.09881 0.78906 0.0
C611 C 0.59637 0.11484 0.75957 0.0
H612 H 0.47729 0.59565 0.22456 0.0
H613 H 0.52263 0.57568 0.30092 0.0
H614 H 0.49485 0.53746 0.27888 0.0
H615 H 0.4327 0.555 0.32151 0.0
H616 H 0.41329 0.55163 0.24928 0.0
H617 H 0.43768 0.57733 0.26036 0.0
H618 H 0.44718 0.5764 0.11848 0.0
H619 H 0.42278 0.55064 0.10696 0.0
H620 H 0.44864 0.55347 0.08265 0.0
H621 H 0.46084 0.50099 0.25676 0.0
H622 H 0.42334 0.47 0.24374 0.0
H623 H 0.40048 0.51458 0.19196 0.0
C624 C 0.48151 0.58334 0.23682 0.0
C625 C 0.50222 0.58879 0.26468 0.0
C626 C 0.50702 0.57202 0.27844 0.0
C627 C 0.49131 0.55023 0.26635 0.0
C628 C 0.47089 0.54548 0.24061 0.0
C629 C 0.466 0.56162 0.22628 0.0
C630 C 0.44246 0.55239 0.2053 0.0
C631 C 0.43086 0.55951 0.26254 0.0
C632 C 0.44014 0.55859 0.12347 0.0
C633 C 0.43466 0.5285 0.21176 0.0
C634 C 0.45132 0.52472 0.23071 0.0
C635 C 0.44772 0.50377 0.24153 0.0
C636 C 0.42647 0.48631 0.23398 0.0
C637 C 0.40923 0.49008 0.21729 0.0
C638 C 0.41348 0.51138 0.20502 0.0
H639 H 0.89302 0.48721 0.70462 0.0
H640 H 0.90332 0.4929 0.94914 0.0
H641 H 0.90872 0.4614 0.94751 0.0
H642 H 0.86233 0.42963 0.70054 0.0
H643 H 0.87347 0.427 0.61178 0.0
H644 H 0.87198 0.45102 0.63091 0.0
H645 H 0.91322 0.47462 0.60677 0.0
H646 H 0.91486 0.45062 0.588 0.0
H647 H 0.93178 0.46947 0.6602 0.0
H648 H 0.91089 0.42834 0.92191 0.0
H649 H 0.90875 0.3948 0.87379 0.0
H650 H 0.89685 0.40977 0.6459 0.0
C651 C 0.89644 0.48185 0.75781 0.0
C652 C 0.898 0.49276 0.82691 0.0
C653 C 0.90254 0.4852 0.8952 0.0
C654 C 0.90554 0.46723 0.89497 0.0
C655 C 0.90396 0.45694 0.82602 0.0
C656 C 0.89948 0.46388 0.75865 0.0
C657 C 0.89773 0.44925 0.69303 0.0
C658 C 0.87503 0.43859 0.65697 0.0
C659 C 0.91546 0.46174 0.63348 0.0
C660 C 0.90153 0.43278 0.73443 0.0
C661 C 0.90524 0.43767 0.81104 0.0
C662 C 0.90819 0.42442 0.86197 0.0
C663 C 0.90692 0.40542 0.8342 0.0
C664 C 0.90276 0.39984 0.75625 0.0
C665 C 0.90042 0.4139 0.70549 0.0
H666 H 0.49458 0.90557 0.34703 0.0
H667 H 0.50459 0.91665 0.10356 0.0
H668 H 0.47136 0.91888 0.09449 0.0
H669 H 0.43845 0.87041 0.33586 0.0
H670 H 0.43199 0.87983 0.42173 0.0
H671 H 0.45806 0.88186 0.4116 0.0
H672 H 0.47692 0.9231 0.43786 0.0
H673 H 0.45086 0.92119 0.44823 0.0
H674 H 0.47013 0.93982 0.38046 0.0
H675 H 0.43557 0.91646 0.10842 0.0
H676 H 0.39936 0.9098 0.14527 0.0
H677 H 0.41156 0.89929 0.37889 0.0
C678 C 0.48993 0.90869 0.2919 0.0
C679 C 0.50248 0.91121 0.22622 0.0
C680 C 0.4957 0.91524 0.15519 0.0
C681 C 0.47672 0.91639 0.14926 0.0
C682 C 0.4646 0.91348 0.21477 0.0
C683 C 0.47093 0.90978 0.28483 0.0
C684 C 0.45417 0.90576 0.34536 0.0
C685 C 0.44513 0.88312 0.38068 0.0
C686 C 0.46359 0.92353 0.4066 0.0
C687 C 0.43721 0.90726 0.29788 0.0
C688 C 0.44369 0.91191 0.22283 0.0
C689 C 0.43039 0.91302 0.16713 0.0
C690 C 0.40982 0.90909 0.1885 0.0
C691 C 0.4027 0.90404 0.26485 0.0
C692 C 0.41673 0.90343 0.32037 0.0
H693 H 0.5139 0.40952 0.87397 0.0
H694 H 0.48885 0.3954 0.64341 0.0
H695 H 0.51984 0.42977 0.59937 0.0
H696 H 0.53642 0.46897 0.8641 0.0
H697 H 0.55993 0.47474 0.91995 0.0
H698 H 0.53474 0.44995 0.93516 0.0
H699 H 0.55419 0.42798 0.91218 0.0
H700 H 0.57937 0.45266 0.89615 0.0
H701 H 0.56887 0.4317 0.82476 0.0
H702 H 0.55444 0.46352 0.57776 0.0
H703 H 0.59049 0.49603 0.57982 0.0
H704 H 0.59377 0.48963 0.82466 0.0
C705 C 0.51476 0.41398 0.81465 0.0
C706 C 0.49901 0.39989 0.76195 0.0
C707 C 0.50083 0.40598 0.68446 0.0
C708 C 0.51832 0.42547 0.65899 0.0
C709 C 0.53388 0.43875 0.71172 0.0
C710 C 0.53229 0.43344 0.78801 0.0
C711 C 0.55195 0.45024 0.83158 0.0
C712 C 0.54536 0.46166 0.89123 0.0
C713 C 0.56432 0.44003 0.86832 0.0
C714 C 0.56492 0.46554 0.76753 0.0
C715 C 0.55407 0.45858 0.6991 0.0
C716 C 0.56296 0.46939 0.63118 0.0
C717 C 0.58345 0.48797 0.63311 0.0
C718 C 0.59492 0.49573 0.70259 0.0
C719 C 0.58546 0.48421 0.77064 0.0
H720 H 0.11938 0.41197 0.65354 0.0
H721 H 0.11296 0.4692 0.64452 0.0
H722 H 0.1041 0.46546 0.78154 0.0
H723 H 0.07658 0.38206 0.79866 0.0
H724 H 0.0919 0.37151 0.84528 0.0
H725 H 0.09506 0.37698 0.74454 0.0
H726 H 0.1364 0.4018 0.76311 0.0
H727 H 0.13339 0.39647 0.86375 0.0
H728 H 0.14619 0.42397 0.8297 0.0
H729 H 0.09854 0.45728 0.91949 0.0
H730 H 0.09758 0.44585 0.05207 0.0
H731 H 0.10931 0.39468 0.97568 0.0
C732 C 0.11559 0.42332 0.68047 0.0
C733 C 0.11669 0.4408 0.63889 0.0
C734 C 0.11219 0.45575 0.67582 0.0
C735 C 0.10705 0.45368 0.75335 0.0
C736 C 0.10657 0.4366 0.79338 0.0
C737 C 0.11072 0.42165 0.7585 0.0
C738 C 0.11087 0.40592 0.81639 0.0
C739 C 0.09251 0.38274 0.80025 0.0
C740 C 0.13303 0.40712 0.81834 0.0
C741 C 0.10671 0.41472 0.88924 0.0
C742 C 0.10396 0.43221 0.87422 0.0
C743 C 0.10061 0.44356 0.93202 0.0
C744 C 0.10031 0.43705 1.00739 0.0
C745 C 0.10359 0.41948 0.02484 0.0
C746 C 0.10652 0.40802 0.96448 0.0
H747 H 0.68078 0.1186 0.52955 0.0
H748 H 0.72603 0.09469 0.53451 0.0
H749 H 0.73158 0.10045 0.39643 0.0
H750 H 0.65603 0.09423 0.35262 0.0
H751 H 0.65299 0.11652 0.31985 0.0
H752 H 0.6533 0.11173 0.42031 0.0
H753 H 0.685 0.15093 0.43862 0.0
H754 H 0.68474 0.15585 0.33815 0.0
H755 H 0.70934 0.16028 0.38322 0.0
H756 H 0.73117 0.107 0.25756 0.0
H757 H 0.72533 0.1148 0.12585 0.0
H758 H 0.6803 0.13452 0.20736 0.0
C759 C 0.69208 0.11492 0.50155 0.0
C760 C 0.70286 0.10605 0.54293 0.0
C761 C 0.71734 0.10117 0.50403 0.0
C762 C 0.72071 0.10451 0.42555 0.0
C763 C 0.70955 0.11282 0.38614 0.0
C764 C 0.69559 0.11807 0.42256 0.0
C765 C 0.68514 0.12611 0.36559 0.0
C766 C 0.6604 0.11126 0.36455 0.0
C767 C 0.69144 0.1497 0.38241 0.0
C768 C 0.69531 0.12435 0.29181 0.0
C769 C 0.70936 0.11669 0.30525 0.0
C770 C 0.72027 0.11311 0.24628 0.0
C771 C 0.71673 0.11745 0.17145 0.0
C772 C 0.70237 0.1253 0.15576 0.0
C773 C 0.69163 0.12886 0.21725 0.0
H774 H 0.58773 0.70304 0.65296 0.0
H775 H 0.51834 0.65903 0.65023 0.0
H776 H 0.519 0.65246 0.78736 0.0
H777 H 0.60061 0.67318 0.79661 0.0
H778 H 0.62125 0.6975 0.84163 0.0
H779 H 0.61576 0.69754 0.7415 0.0
H780 H 0.60914 0.72979 0.76273 0.0
H781 H 0.61448 0.72968 0.86282 0.0
H782 H 0.58928 0.72729 0.83165 0.0
H783 H 0.52647 0.6511 0.92368 0.0
H784 H 0.54 0.65645 0.05476 0.0
H785 H 0.6046 0.70274 0.97505 0.0
C786 C 0.57279 0.69187 0.68136 0.0
C787 C 0.55293 0.68164 0.64099 0.0
C788 C 0.53365 0.66728 0.68016 0.0
C789 C 0.53388 0.66329 0.75795 0.0
C790 C 0.55356 0.67381 0.79638 0.0
C791 C 0.57269 0.68786 0.75987 0.0
C792 C 0.59134 0.69784 0.81638 0.0
C793 C 0.60824 0.69112 0.79791 0.0
C794 C 0.60166 0.72262 0.81851 0.0
C795 C 0.57953 0.68755 0.89023 0.0
C796 C 0.55782 0.67349 0.87671 0.0
C797 C 0.54343 0.66215 0.93517 0.0
C798 C 0.55129 0.66548 1.00983 0.0
C799 C 0.57335 0.6803 0.02621 0.0
C800 C 0.58769 0.69123 0.96496 0.0
H801 H 0.90107 0.60662 0.48309 0.0
H802 H 0.88666 0.54288 0.55991 0.0
H803 H 0.87896 0.52963 0.42818 0.0
H804 H 0.8605 0.58915 0.34124 0.0
H805 H 0.87677 0.60987 0.27315 0.0
H806 H 0.88218 0.61496 0.37337 0.0
H807 H 0.92194 0.62462 0.3514 0.0
H808 H 0.91666 0.6196 0.25097 0.0
H809 H 0.92748 0.60549 0.30393 0.0
H810 H 0.87055 0.52235 0.29067 0.0
H811 H 0.86315 0.52186 0.15344 0.0
H812 H 0.88435 0.59038 0.16081 0.0
C813 C 0.89663 0.58997 0.47223 0.0
C814 C 0.89426 0.57577 0.53279 0.0
C815 C 0.88817 0.55403 0.51543 0.0
C816 C 0.88392 0.54635 0.44043 0.0
C817 C 0.88605 0.56061 0.3826 0.0
C818 C 0.89244 0.58202 0.39719 0.0
C819 C 0.893 0.59372 0.32409 0.0
C820 C 0.87717 0.60244 0.32824 0.0
C821 C 0.91615 0.61194 0.30658 0.0
C822 C 0.8855 0.57541 0.26663 0.0
C823 C 0.88164 0.55649 0.30198 0.0
C824 C 0.87369 0.5371 0.26222 0.0
C825 C 0.86941 0.53694 0.18438 0.0
C826 C 0.87314 0.55604 0.14654 0.0
C827 C 0.88159 0.57561 0.18818 0.0
H828 H 0.31683 0.90382 0.6427 0.0
H829 H 0.28248 0.83367 0.64303 0.0
H830 H 0.27669 0.83353 0.78145 0.0
H831 H 0.34476 0.91014 0.81639 0.0
H832 H 0.34332 0.93335 0.84914 0.0
H833 H 0.34305 0.92824 0.7487 0.0
H834 H 0.30709 0.92851 0.7342 0.0
H835 H 0.30724 0.93371 0.83465 0.0
H836 H 0.28416 0.91074 0.79228 0.0
H837 H 0.27633 0.84056 0.91937 0.0
H838 H 0.28167 0.85435 0.05056 0.0
H839 H 0.3171 0.92028 0.96598 0.0
C840 C 0.3077 0.8885 0.67199 0.0
C841 C 0.29997 0.8687 0.63218 0.0
C842 C 0.28856 0.84895 0.67252 0.0
C843 C 0.28513 0.84873 0.75106 0.0
C844 C 0.29329 0.86843 0.78901 0.0
C845 C 0.30434 0.88799 0.75115 0.0
C846 C 0.31253 0.90676 0.8071 0.0
C847 C 0.33739 0.92042 0.8052 0.0
C848 C 0.30213 0.92076 0.79109 0.0
C849 C 0.30455 0.89463 0.88208 0.0
C850 C 0.29337 0.87254 0.86984 0.0
C851 C 0.28501 0.85783 0.92972 0.0
C852 C 0.28829 0.86584 1.00426 0.0
C853 C 0.29995 0.8884 0.01897 0.0
C854 C 0.30794 0.90297 0.95664 0.0
H855 H 0.39523 0.31458 0.47226 0.0
H856 H 0.42746 0.28072 0.55628 0.0
H857 H 0.43634 0.27596 0.42502 0.0
H858 H 0.37276 0.28174 0.29799 0.0
H859 H 0.37718 0.30457 0.24072 0.0
H860 H 0.37204 0.30431 0.34125 0.0
H861 H 0.40766 0.34086 0.3569 0.0
H862 H 0.41288 0.3412 0.25653 0.0
H863 H 0.43278 0.34329 0.32453 0.0
H864 H 0.44391 0.27674 0.28718 0.0
H865 H 0.44955 0.28281 0.14891 0.0
H866 H 0.41198 0.3154 0.14904 0.0
C867 C 0.40384 0.30587 0.46275 0.0
C868 C 0.41078 0.29816 0.52494 0.0
C869 C 0.42229 0.28711 0.51008 0.0
C870 C 0.42726 0.28416 0.4355 0.0
C871 C 0.42056 0.29224 0.37575 0.0
C872 C 0.40902 0.3028 0.38813 0.0
C873 C 0.40464 0.31067 0.31324 0.0
C874 C 0.3802 0.29966 0.29738 0.0
C875 C 0.41512 0.33548 0.31281 0.0
C876 C 0.41579 0.30313 0.25729 0.0
C877 C 0.42477 0.29247 0.29497 0.0
C878 C 0.4368 0.28488 0.25693 0.0
C879 C 0.43999 0.28847 0.17846 0.0
C880 C 0.43116 0.29948 0.13828 0.0
C881 C 0.4186 0.30662 0.17819 0.0
H882 H 0.56132 0.87218 0.52451 0.0
H883 H 0.62094 0.93401 0.52418 0.0
H884 H 0.61845 0.93659 0.66348 0.0
H885 H 0.53407 0.8847 0.67803 0.0
H886 H 0.52204 0.85794 0.71856 0.0
H887 H 0.52749 0.86173 0.61791 0.0
H888 H 0.55016 0.84258 0.62774 0.0
H889 H 0.54489 0.83884 0.72838 0.0
H890 H 0.5724 0.8526 0.69412 0.0
H891 H 0.61068 0.93187 0.80186 0.0
H892 H 0.59821 0.92012 0.93275 0.0
H893 H 0.54399 0.86057 0.84646 0.0
C894 C 0.57355 0.88641 0.5539 0.0
C895 C 0.5913 0.90296 0.51391 0.0
C896 C 0.60731 0.92115 0.5541 0.0
C897 C 0.60598 0.92279 0.63302 0.0
C898 C 0.58854 0.90603 0.6711 0.0
C899 C 0.57258 0.88818 0.63317 0.0
C900 C 0.55627 0.87193 0.68876 0.0
C901 C 0.53362 0.86891 0.67499 0.0
C902 C 0.55592 0.85021 0.68448 0.0
C903 C 0.56571 0.8834 0.76368 0.0
C904 C 0.58425 0.90309 0.75187 0.0
C905 C 0.59618 0.91648 0.81193 0.0
C906 C 0.58905 0.90954 0.88626 0.0
C907 C 0.5702 0.8893 0.90026 0.0
C908 C 0.55833 0.87618 0.83777 0.0
H909 H 0.69019 0.54675 0.31728 0.0
H910 H 0.67345 0.59356 0.40395 0.0
H911 H 0.67124 0.60447 0.27315 0.0
H912 H 0.72343 0.57906 0.16476 0.0
H913 H 0.71472 0.55695 0.09849 0.0
H914 H 0.71419 0.55201 0.19914 0.0
H915 H 0.67343 0.52334 0.19027 0.0
H916 H 0.67383 0.52823 0.08952 0.0
H917 H 0.65479 0.53078 0.14996 0.0
H918 H 0.67242 0.61169 0.13495 0.0
H919 H 0.67714 0.6149 0.99559 0.0
H920 H 0.69209 0.56297 0.99499 0.0
C921 C 0.68582 0.55911 0.30864 0.0
C922 C 0.68219 0.56941 0.37123 0.0
C923 C 0.67674 0.5857 0.35737 0.0
C924 C 0.67523 0.59189 0.28309 0.0
C925 C 0.67907 0.58158 0.22291 0.0
C926 C 0.68421 0.56551 0.23453 0.0
C927 C 0.68822 0.55758 0.15936 0.0
C928 C 0.71153 0.56165 0.15522 0.0
C929 C 0.67157 0.53355 0.14654 0.0
C930 C 0.68479 0.57193 0.10395 0.0
C931 C 0.67945 0.58557 0.14215 0.0
C932 C 0.67643 0.601 0.10428 0.0
C933 C 0.67922 0.60276 0.02531 0.0
C934 C 0.6849 0.58916 0.98481 0.0
C935 C 0.68739 0.5733 0.02459 0.0
H936 H 0.1288 0.69587 0.48906 0.0
H937 H 0.06333 0.68507 0.48826 0.0
H938 H 0.06108 0.67946 0.62728 0.0
H939 H 0.12093 0.65685 0.64006 0.0
H940 H 0.14719 0.67401 0.68177 0.0
H941 H 0.14317 0.67555 0.58122 0.0
H942 H 0.15749 0.71671 0.59386 0.0
H943 H 0.16149 0.71529 0.69439 0.0
H944 H 0.14494 0.72616 0.66104 0.0
H945 H 0.06619 0.67645 0.76542 0.0
H946 H 0.07856 0.67684 0.8964 0.0
H947 H 0.14136 0.69081 0.81104 0.0
C948 C 0.11392 0.69195 0.51829 0.0
C949 C 0.09619 0.69084 0.47818 0.0
C950 C 0.0771 0.68612 0.51821 0.0
C951 C 0.07565 0.68281 0.59698 0.0
C952 C 0.09349 0.68436 0.63514 0.0
C953 C 0.11229 0.68884 0.59744 0.0
C954 C 0.12947 0.6908 0.65318 0.0
C955 C 0.13554 0.67325 0.63815 0.0
C956 C 0.14953 0.71359 0.65044 0.0
C957 C 0.11739 0.68689 0.72792 0.0
C958 C 0.09662 0.68306 0.71585 0.0
C959 C 0.08243 0.67944 0.7757 0.0
C960 C 0.08968 0.67988 0.85005 0.0
C961 C 0.111 0.68405 0.86442 0.0
C962 C 0.12494 0.68741 0.80212 0.0
H963 H 0.39728 0.08011 0.03862 0.0
H964 H 0.43538 0.14594 0.95573 0.0
H965 H 0.44434 0.15925 0.08765 0.0
H966 H 0.37638 0.09285 0.21123 0.0
H967 H 0.37855 0.07313 0.26902 0.0
H968 H 0.37365 0.06865 0.16823 0.0
H969 H 0.40742 0.06422 0.15492 0.0
H970 H 0.41229 0.06862 0.25562 0.0
H971 H 0.43326 0.0854 0.18902 0.0
H972 H 0.45053 0.16553 0.2256 0.0
H973 H 0.45521 0.16448 0.36397 0.0
H974 H 0.41383 0.09467 0.36234 0.0
C975 C 0.40726 0.09732 0.04869 0.0
C976 C 0.41569 0.11203 0.98701 0.0
C977 C 0.42898 0.13441 1.00202 0.0
C978 C 0.434 0.14212 0.07678 0.0
C979 C 0.42567 0.12726 0.13621 0.0
C980 C 0.41265 0.10531 0.12342 0.0
C981 C 0.40696 0.09283 0.19807 0.0
C982 C 0.38242 0.08118 0.21247 0.0
C983 C 0.4155 0.07683 0.19946 0.0
C984 C 0.41907 0.11122 0.2544 0.0
C985 C 0.42953 0.13091 0.21708 0.0
C986 C 0.44238 0.15024 0.25555 0.0
C987 C 0.44503 0.14946 0.3341 0.0
C988 C 0.43498 0.12951 0.37382 0.0
C989 C 0.42147 0.11015 0.33353 0.0
H990 H 0.3151 0.40748 0.87629 0.0
H991 H 0.29835 0.45817 0.87824 0.0
H992 H 0.29208 0.45412 0.73986 0.0
H993 H 0.34418 0.42308 0.70228 0.0
H994 H 0.33516 0.39595 0.66917 0.0
H995 H 0.33664 0.40142 0.76967 0.0
H996 H 0.29627 0.37217 0.78409 0.0
H997 H 0.29465 0.36665 0.68348 0.0
H998 H 0.27615 0.37381 0.72672 0.0
H999 H 0.29036 0.44701 0.60179 0.0
H1000 H 0.29205 0.43615 0.46988 0.0
H1001 H 0.30943 0.38957 0.55275 0.0
C1002 C 0.30965 0.41733 0.84751 0.0
C1003 C 0.30719 0.43316 0.88787 0.0
C1004 C 0.30048 0.4461 0.84825 0.0
C1005 C 0.29679 0.44385 0.76974 0.0
C1006 C 0.29985 0.42854 0.7312 0.0
C1007 C 0.306 0.41538 0.76842 0.0
C1008 C 0.30916 0.40102 0.71197 0.0
C1009 C 0.33268 0.40565 0.71338 0.0
C1010 C 0.29309 0.37699 0.7275 0.0
C1011 C 0.30402 0.40838 0.6375 0.0
C1012 C 0.2987 0.42428 0.65034 0.0
C1013 C 0.29432 0.43445 0.59092 0.0
C1014 C 0.29548 0.4283 0.51618 0.0
C1015 C 0.30088 0.41206 0.50116 0.0
C1016 C 0.30499 0.40182 0.56282 0.0
H1017 H 0.87307 0.3265 0.31579 0.0
H1018 H 0.88527 0.27613 0.39781 0.0
H1019 H 0.89207 0.26905 0.26661 0.0
H1020 H 0.84568 0.29892 0.1394 0.0
H1021 H 0.85748 0.3235 0.08416 0.0
H1022 H 0.85281 0.32434 0.18457 0.0
H1023 H 0.89325 0.3529 0.20375 0.0
H1024 H 0.89803 0.35214 0.10349 0.0
H1025 H 0.91379 0.347 0.17186 0.0
H1026 H 0.89883 0.26803 0.12811 0.0
H1027 H 0.90517 0.27315 0.99003 0.0
H1028 H 0.88826 0.32375 0.99357 0.0
C1029 C 0.87687 0.31378 0.30612 0.0
C1030 C 0.87871 0.30195 0.36787 0.0
C1031 C 0.88406 0.28567 0.35225 0.0
C1032 C 0.88782 0.2814 0.27761 0.0
C1033 C 0.8861 0.29345 0.21846 0.0
C1034 C 0.8807 0.30928 0.23155 0.0
C1035 C 0.88053 0.32022 0.15738 0.0
C1036 C 0.85777 0.31652 0.14039 0.0
C1037 C 0.89741 0.3445 0.15926 0.0
C1038 C 0.88686 0.30818 0.10087 0.0
C1039 C 0.88992 0.29279 0.13767 0.0
C1040 C 0.89643 0.28 0.09866 0.0
C1041 C 0.90012 0.28312 0.02016 0.0
C1042 C 0.89732 0.29891 0.98079 0.0
C1043 C 0.89032 0.31141 0.02187 0.0
H1044 H 0.16046 0.3988 0.29652 0.0
H1045 H 0.1876 0.46825 0.31971 0.0
H1046 H 0.22397 0.47393 0.2948 0.0
H1047 H 0.2061 0.39632 0.38277 0.0
H1048 H 0.20462 0.37618 0.31719 0.0
H1049 H 0.1805 0.37711 0.34085 0.0
H1050 H 0.17379 0.3802 0.19775 0.0
H1051 H 0.19799 0.37947 0.1737 0.0
H1052 H 0.1947 0.4017 0.14201 0.0
H1053 H 0.25685 0.47282 0.2654 0.0
H1054 H 0.28574 0.46497 0.23399 0.0
H1055 H 0.23872 0.3962 0.2249 0.0
C1056 C 0.17416 0.41512 0.29737 0.0
C1057 C 0.17126 0.43311 0.31026 0.0
C1058 C 0.18945 0.45427 0.30975 0.0
C1059 C 0.2102 0.45768 0.29574 0.0
C1060 C 0.21254 0.43977 0.2818 0.0
C1061 C 0.19516 0.41888 0.2825 0.0
C1062 C 0.20248 0.40272 0.26321 0.0
C1063 C 0.19817 0.38717 0.33 0.0
C1064 C 0.19159 0.39029 0.1898 0.0
C1065 C 0.22662 0.41789 0.25158 0.0
C1066 C 0.2319 0.43915 0.26299 0.0
C1067 C 0.25299 0.45626 0.25639 0.0
C1068 C 0.26929 0.45159 0.23849 0.0
C1069 C 0.26451 0.42998 0.22692 0.0
C1070 C 0.24281 0.41288 0.23287 0.0
H1071 H 0.81911 0.26225 0.72063 0.0
H1072 H 0.86415 0.23824 0.703 0.0
H1073 H 0.8349 0.2016 0.73856 0.0
H1074 H 0.78911 0.23049 0.8801 0.0
H1075 H 0.7633 0.22563 0.84493 0.0
H1076 H 0.78774 0.24993 0.81816 0.0
H1077 H 0.77842 0.24057 0.6756 0.0
H1078 H 0.75386 0.21633 0.70193 0.0
H1079 H 0.77317 0.21464 0.64029 0.0
H1080 H 0.80106 0.16802 0.7822 0.0
H1081 H 0.76432 0.13914 0.81838 0.0
H1082 H 0.74106 0.18478 0.80049 0.0
C1083 C 0.82279 0.24925 0.72403 0.0
C1084 C 0.84387 0.25303 0.70936 0.0
C1085 C 0.84806 0.23563 0.71377 0.0
C1086 C 0.83159 0.21482 0.73425 0.0
C1087 C 0.811 0.21167 0.74912 0.0
C1088 C 0.80648 0.22835 0.74319 0.0
C1089 C 0.7829 0.22059 0.7603 0.0
C1090 C 0.78064 0.23236 0.83002 0.0
C1091 C 0.77142 0.22319 0.69035 0.0
C1092 C 0.77488 0.19698 0.7774 0.0
C1093 C 0.79138 0.19219 0.7714 0.0
C1094 C 0.78799 0.17154 0.78652 0.0
C1095 C 0.76711 0.15528 0.80737 0.0
C1096 C 0.74989 0.15974 0.81193 0.0
C1097 C 0.75391 0.18089 0.79694 0.0
H1098 H 0.60189 0.84159 0.24842 0.0
H1099 H 0.53407 0.81801 0.19834 0.0
H1100 H 0.52635 0.78047 0.2112 0.0
H1101 H 0.60592 0.79776 0.15346 0.0
H1102 H 0.62308 0.7963 0.22576 0.0
H1103 H 0.62398 0.8216 0.20721 0.0
H1104 H 0.61582 0.82421 0.34918 0.0
H1105 H 0.61479 0.79887 0.36809 0.0
H1106 H 0.59207 0.80222 0.39238 0.0
H1107 H 0.52524 0.74615 0.23198 0.0
H1108 H 0.53041 0.71555 0.263 0.0
H1109 H 0.59873 0.75985 0.30612 0.0
C1110 C 0.58553 0.82844 0.23912 0.0
C1111 C 0.56855 0.83259 0.22199 0.0
C1112 C 0.54726 0.81511 0.21165 0.0
C1113 C 0.54272 0.79375 0.21859 0.0
C1114 C 0.55963 0.79011 0.23669 0.0
C1115 C 0.5806 0.80683 0.24718 0.0
C1116 C 0.59534 0.79807 0.27036 0.0
C1117 C 0.61313 0.80378 0.21062 0.0
C1118 C 0.60508 0.80634 0.34972 0.0
C1119 C 0.57927 0.77389 0.27139 0.0
C1120 C 0.55885 0.76985 0.25109 0.0
C1121 C 0.54115 0.74903 0.2478 0.0
C1122 C 0.5443 0.73174 0.26558 0.0
C1123 C 0.56499 0.73527 0.28697 0.0
C1124 C 0.58274 0.75668 0.2901 0.0
H1125 H 0.81134 0.54704 0.78936 0.0
H1126 H 0.8581 0.61584 0.78654 0.0
H1127 H 0.8292 0.62366 0.75192 0.0
H1128 H 0.77805 0.54679 0.6325 0.0
H1129 H 0.75288 0.52741 0.67639 0.0
H1130 H 0.77737 0.52694 0.69766 0.0
H1131 H 0.77167 0.5303 0.84153 0.0
H1132 H 0.74717 0.53076 0.82071 0.0
H1133 H 0.76845 0.55246 0.87473 0.0
H1134 H 0.79579 0.62427 0.71711 0.0
H1135 H 0.75905 0.61783 0.69164 0.0
H1136 H 0.73301 0.54878 0.72298 0.0
C1137 C 0.81545 0.56371 0.78085 0.0
C1138 C 0.83694 0.58085 0.79024 0.0
C1139 C 0.84172 0.60248 0.77978 0.0
C1140 C 0.82544 0.60709 0.75984 0.0
C1141 C 0.80441 0.58989 0.75135 0.0
C1142 C 0.79927 0.56864 0.76207 0.0
C1143 C 0.77513 0.55334 0.75256 0.0
C1144 C 0.7706 0.5377 0.68579 0.0
C1145 C 0.76501 0.54099 0.82681 0.0
C1146 C 0.76759 0.56935 0.73481 0.0
C1147 C 0.78483 0.59031 0.73369 0.0
C1148 C 0.78213 0.60794 0.71795 0.0
C1149 C 0.7612 0.6041 0.70339 0.0
C1150 C 0.74319 0.58282 0.70545 0.0
C1151 C 0.74647 0.56523 0.7213 0.0
H1152 H 0.26226 0.81523 0.27929 0.0
H1153 H 0.23921 0.86118 0.28759 0.0
H1154 H 0.20258 0.83219 0.25144 0.0
H1155 H 0.23009 0.78385 0.1202 0.0
H1156 H 0.2247 0.75826 0.15934 0.0
H1157 H 0.2493 0.7827 0.18397 0.0
H1158 H 0.23993 0.77502 0.32717 0.0
H1159 H 0.21538 0.75049 0.30303 0.0
H1160 H 0.21422 0.77072 0.36116 0.0
H1161 H 0.16888 0.79864 0.21103 0.0
H1162 H 0.13921 0.76184 0.18105 0.0
H1163 H 0.18349 0.73706 0.20589 0.0
C1164 C 0.24948 0.81915 0.27339 0.0
C1165 C 0.25352 0.84043 0.28589 0.0
C1166 C 0.2364 0.84495 0.27847 0.0
C1167 C 0.21559 0.82863 0.25759 0.0
C1168 C 0.21214 0.80784 0.24527 0.0
C1169 C 0.22851 0.80297 0.25381 0.0
C1170 C 0.22024 0.77911 0.2401 0.0
C1171 C 0.23177 0.77579 0.17184 0.0
C1172 C 0.22258 0.7682 0.31216 0.0
C1173 C 0.19668 0.77136 0.22234 0.0
C1174 C 0.19245 0.78827 0.22473 0.0
C1175 C 0.17196 0.78525 0.20928 0.0
C1176 C 0.15525 0.76431 0.19198 0.0
C1177 C 0.15907 0.74663 0.19124 0.0
C1178 C 0.1801 0.75027 0.20627 0.0
H1179 H 0.44715 0.2615 0.78881 0.0
H1180 H 0.37791 0.23687 0.80103 0.0
H1181 H 0.3711 0.20023 0.76889 0.0
H1182 H 0.44647 0.22872 0.63304 0.0
H1183 H 0.4674 0.22436 0.6718 0.0
H1184 H 0.46688 0.24871 0.69475 0.0
H1185 H 0.46629 0.24044 0.83861 0.0
H1186 H 0.46694 0.21612 0.81613 0.0
H1187 H 0.44559 0.21471 0.8751 0.0
H1188 H 0.37186 0.16664 0.73092 0.0
H1189 H 0.38007 0.13765 0.70075 0.0
H1190 H 0.44881 0.18372 0.72011 0.0
C1191 C 0.43056 0.24838 0.78471 0.0
C1192 C 0.41303 0.25197 0.79708 0.0
C1193 C 0.39156 0.23441 0.79197 0.0
C1194 C 0.38754 0.21359 0.77345 0.0
C1195 C 0.40518 0.21059 0.76117 0.0
C1196 C 0.42626 0.22743 0.76749 0.0
C1197 C 0.4423 0.21972 0.75376 0.0
C1198 C 0.4566 0.23105 0.68419 0.0
C1199 C 0.45609 0.22294 0.82516 0.0
C1200 C 0.42694 0.19593 0.73821 0.0
C1201 C 0.4056 0.19105 0.74203 0.0
C1202 C 0.3885 0.17023 0.7282 0.0
C1203 C 0.39332 0.15391 0.71081 0.0
C1204 C 0.41506 0.15845 0.7083 0.0
C1205 C 0.43204 0.17977 0.72204 0.0
loop_
_geom_bond_atom_site_label_1
_geom_bond_atom_site_label_2
_geom_bond_distance
_geom_bond_site_symmetry_2
_ccdc_geom_bond_type
Co0 N4 2.148 . S
Co0 N10 2.128 . S
Co0 N20 2.194 . S
Co0 O25 2.351 . S
Co0 O26 2.155 . S
Co0 O27 2.096 . S
C1 N4 1.301 . S
C1 N5 1.328 . S
C1 H6 0.930 . S
C2 C3 1.333 . S
C2 N4 1.317 . S
C2 H7 0.930 . S
C3 C2 1.333 . S
C3 N5 1.350 . S
C3 H29 0.931 . S
N4 Co0 2.148 . S
N4 C1 1.301 . S
N4 C2 1.317 . S
N5 C1 1.328 . S
N5 C3 1.350 . S
H6 C1 0.930 . S
H7 C2 0.930 . S
C8 O9 1.224 . S
C8 O27 1.247 . S
O9 C8 1.224 . S
N10 Co0 2.128 . S
N10 C11 1.355 . S
N10 C13 1.311 . S
C11 N10 1.355 . S
C11 C12 1.363 . S
C11 H23 0.929 . S
C12 C11 1.363 . S
C12 N14 1.375 . S
C12 H30 0.931 . S
C13 N10 1.311 . S
C13 N14 1.347 . S
C13 H24 0.929 . S
N14 C12 1.375 . S
N14 C13 1.347 . S
C15 C18 1.365 . S
C15 N20 1.328 . S
C15 H21 0.929 . S
C16 C17 1.362 . S
C16 C19 1.378 . S
C16 H31 0.929 . S
C17 C16 1.362 . S
C17 C18 1.366 . S
C18 C15 1.365 . S
C18 C17 1.366 . S
C18 H32 0.930 . S
C19 C16 1.378 . S
C19 N20 1.315 . S
C19 H22 0.930 . S
N20 Co0 2.194 . S
N20 C15 1.328 . S
N20 C19 1.315 . S
H21 C15 0.929 . S
H22 C19 0.930 . S
H23 C11 0.929 . S
H24 C13 0.929 . S
O25 Co0 2.351 . S
O25 C28 1.244 . S
O26 Co0 2.155 . S
O26 C28 1.240 . S
O27 Co0 2.096 . S
O27 C8 1.247 . S
C28 O25 1.244 . S
C28 O26 1.240 . S
H29 C3 0.931 . S
H30 C12 0.931 . S
H31 C16 0.929 . S
H32 C18 0.930 . S
Co33 N37 2.148 . S
Co33 N43 2.128 . S
Co33 N53 2.194 . S
Co33 O58 2.351 . S
Co33 O59 2.155 . S
Co33 O60 2.096 . S
C34 N37 1.301 . S
C34 N38 1.328 . S
C34 H39 0.930 . S
C35 C36 1.333 . S
C35 N37 1.317 . S
C35 H40 0.930 . S
C36 C35 1.333 . S
C36 N38 1.350 . S
C36 H62 0.931 . S
N37 Co33 2.148 . S
N37 C34 1.301 . S
N37 C35 1.317 . S
N38 C34 1.328 . S
N38 C36 1.350 . S
H39 C34 0.930 . S
H40 C35 0.930 . S
C41 O42 1.224 . S
C41 O60 1.247 . S
O42 C41 1.224 . S
N43 Co33 2.128 . S
N43 C44 1.355 . S
N43 C46 1.311 1_556 S
C44 N43 1.355 . S
C44 C45 1.363 1_556 S
C44 H56 0.929 . S
C45 C44 1.363 1_554 S
C45 N47 1.375 . S
C45 H63 0.931 . S
C46 N43 1.311 1_554 S
C46 N47 1.347 . S
C46 H57 0.929 . S
N47 C45 1.375 . S
N47 C46 1.347 . S
C48 C51 1.365 . S
C48 N53 1.328 . S
C48 H54 0.929 . S
C49 C50 1.362 . S
C49 C52 1.378 . S
C49 H64 0.929 . S
C50 C49 1.362 . S
C50 C51 1.366 . S
C51 C48 1.365 . S
C51 C50 1.366 . S
C51 H65 0.930 . S
C52 C49 1.378 . S
C52 N53 1.315 . S
C52 H55 0.930 . S
N53 Co33 2.194 . S
N53 C48 1.328 . S
N53 C52 1.315 . S
H54 C48 0.929 . S
H55 C52 0.930 . S
H56 C44 0.929 . S
H57 C46 0.929 . S
O58 Co33 2.351 . S
O58 C61 1.244 . S
O59 Co33 2.155 . S
O59 C61 1.240 . S
O60 Co33 2.096 . S
O60 C41 1.247 . S
C61 O58 1.244 . S
C61 O59 1.240 . S
H62 C36 0.931 . S
H63 C45 0.931 . S
H64 C49 0.929 . S
H65 C51 0.930 . S
Co66 N70 2.148 . S
Co66 N76 2.128 . S
Co66 N86 2.194 . S
Co66 O91 2.351 . S
Co66 O92 2.155 . S
Co66 O93 2.096 . S
C67 N70 1.301 . S
C67 N71 1.328 . S
C67 H72 0.930 . S
C68 C69 1.333 . S
C68 N70 1.317 . S
C68 H73 0.930 . S
C69 C68 1.333 . S
C69 N71 1.350 . S
C69 H95 0.931 . S
N70 Co66 2.148 . S
N70 C67 1.301 . S
N70 C68 1.317 . S
N71 C67 1.328 . S
N71 C69 1.350 . S
H72 C67 0.930 . S
H73 C68 0.930 . S
C74 O75 1.224 . S
C74 O93 1.247 . S
O75 C74 1.224 . S
N76 Co66 2.128 . S
N76 C77 1.355 . S
N76 C79 1.311 . S
C77 N76 1.355 . S
C77 C78 1.363 . S
C77 H89 0.929 . S
C78 C77 1.363 . S
C78 N80 1.375 . S
C78 H96 0.931 . S
C79 N76 1.311 . S
C79 N80 1.347 . S
C79 H90 0.929 . S
N80 C78 1.375 . S
N80 C79 1.347 . S
C81 C84 1.365 . S
C81 N86 1.328 . S
C81 H87 0.929 . S
C82 C83 1.362 . S
C82 C85 1.378 . S
C82 H97 0.929 . S
C83 C82 1.362 . S
C83 C84 1.366 . S
C84 C81 1.365 . S
C84 C83 1.366 . S
C84 H98 0.930 . S
C85 C82 1.378 . S
C85 N86 1.315 . S
C85 H88 0.930 . S
N86 Co66 2.194 . S
N86 C81 1.328 . S
N86 C85 1.315 . S
H87 C81 0.929 . S
H88 C85 0.930 . S
H89 C77 0.929 . S
H90 C79 0.929 . S
O91 Co66 2.351 . S
O91 C94 1.244 . S
O92 Co66 2.155 . S
O92 C94 1.240 . S
O93 Co66 2.096 . S
O93 C74 1.247 . S
C94 O91 1.244 . S
C94 O92 1.240 . S
H95 C69 0.931 . S
H96 C78 0.931 . S
H97 C82 0.929 . S
H98 C84 0.930 . S
Co99 N103 2.148 . S
Co99 N109 2.128 . S
Co99 N119 2.194 . S
Co99 O124 2.351 . S
Co99 O125 2.155 . S
Co99 O126 2.096 . S
C100 N103 1.301 . S
C100 N104 1.328 . S
C100 H105 0.930 . S
C101 C102 1.333 . S
C101 N103 1.317 . S
C101 H106 0.930 . S
C102 C101 1.333 . S
C102 N104 1.350 . S
C102 H128 0.931 . S
N103 Co99 2.148 . S
N103 C100 1.301 . S
N103 C101 1.317 . S
N104 C100 1.328 . S
N104 C102 1.350 . S
H105 C100 0.930 . S
H106 C101 0.930 . S
C107 O108 1.224 . S
C107 O126 1.247 . S
O108 C107 1.224 . S
N109 Co99 2.128 . S
N109 C110 1.355 . S
N109 C112 1.311 1_556 S
C110 N109 1.355 . S
C110 C111 1.363 1_556 S
C110 H122 0.929 . S
C111 C110 1.363 1_554 S
C111 N113 1.375 . S
C111 H129 0.931 . S
C112 N109 1.311 1_554 S
C112 N113 1.347 . S
C112 H123 0.929 . S
N113 C111 1.375 . S
N113 C112 1.347 . S
C114 C117 1.365 . S
C114 N119 1.328 . S
C114 H120 0.929 . S
C115 C116 1.362 . S
C115 C118 1.378 . S
C115 H130 0.929 . S
C116 C115 1.362 . S
C116 C117 1.366 . S
C117 C114 1.365 . S
C117 C116 1.366 . S
C117 H131 0.930 . S
C118 C115 1.378 . S
C118 N119 1.315 . S
C118 H121 0.930 . S
N119 Co99 2.194 . S
N119 C114 1.328 . S
N119 C118 1.315 . S
H120 C114 0.929 . S
H121 C118 0.930 . S
H122 C110 0.929 . S
H123 C112 0.929 . S
O124 Co99 2.351 . S
O124 C127 1.244 . S
O125 Co99 2.155 . S
O125 C127 1.240 . S
O126 Co99 2.096 . S
O126 C107 1.247 . S
C127 O124 1.244 . S
C127 O125 1.240 . S
H128 C102 0.931 . S
H129 C111 0.931 . S
H130 C115 0.929 . S
H131 C117 0.930 . S
Co132 N136 2.148 . S
Co132 N142 2.128 . S
Co132 N152 2.194 . S
Co132 O157 2.351 . S
Co132 O158 2.155 . S
Co132 O159 2.096 . S
C133 N136 1.301 . S
C133 N137 1.328 . S
C133 H138 0.930 . S
C134 C135 1.333 . S
C134 N136 1.317 . S
C134 H139 0.930 . S
C135 C134 1.333 . S
C135 N137 1.350 . S
C135 H161 0.931 . S
N136 Co132 2.148 . S
N136 C133 1.301 . S
N136 C134 1.317 . S
N137 C133 1.328 . S
N137 C135 1.350 . S
H138 C133 0.930 . S
H139 C134 0.930 . S
C140 O141 1.224 . S
C140 O159 1.247 . S
O141 C140 1.224 . S
N142 Co132 2.128 . S
N142 C143 1.355 . S
N142 C145 1.311 . S
C143 N142 1.355 . S
C143 C144 1.363 . S
C143 H155 0.929 . S
C144 C143 1.363 . S
C144 N146 1.375 . S
C144 H162 0.931 . S
C145 N142 1.311 . S
C145 N146 1.347 . S
C145 H156 0.929 . S
N146 C144 1.375 . S
N146 C145 1.347 . S
C147 C150 1.365 . S
C147 N152 1.328 . S
C147 H153 0.929 . S
C148 C149 1.362 . S
C148 C151 1.378 . S
C148 H163 0.929 . S
C149 C148 1.362 . S
C149 C150 1.366 . S
C150 C147 1.365 . S
C150 C149 1.366 . S
C150 H164 0.930 . S
C151 C148 1.378 . S
C151 N152 1.315 . S
C151 H154 0.930 . S
N152 Co132 2.194 . S
N152 C147 1.328 . S
N152 C151 1.315 . S
H153 C147 0.929 . S
H154 C151 0.930 . S
H155 C143 0.929 . S
H156 C145 0.929 . S
O157 Co132 2.351 . S
O157 C160 1.244 . S
O158 Co132 2.155 . S
O158 C160 1.240 . S
O159 Co132 2.096 . S
O159 C140 1.247 . S
C160 O157 1.244 . S
C160 O158 1.240 . S
H161 C135 0.931 . S
H162 C144 0.931 . S
H163 C148 0.929 . S
H164 C150 0.930 . S
Co165 N169 2.148 . S
Co165 N175 2.128 . S
Co165 N185 2.194 . S
Co165 O190 2.351 . S
Co165 O191 2.155 . S
Co165 O192 2.096 . S
C166 N169 1.301 . S
C166 N170 1.328 . S
C166 H171 0.930 . S
C167 C168 1.333 . S
C167 N169 1.317 . S
C167 H172 0.930 . S
C168 C167 1.333 . S
C168 N170 1.350 . S
C168 H194 0.931 . S
N169 Co165 2.148 . S
N169 C166 1.301 . S
N169 C167 1.317 . S
N170 C166 1.328 . S
N170 C168 1.350 . S
H171 C166 0.930 . S
H172 C167 0.930 . S
C173 O174 1.224 . S
C173 O192 1.247 . S
O174 C173 1.224 . S
N175 Co165 2.128 . S
N175 C176 1.355 . S
N175 C178 1.311 1_556 S
C176 N175 1.355 . S
C176 C177 1.363 1_556 S
C176 H188 0.929 . S
C177 C176 1.363 1_554 S
C177 N179 1.375 . S
C177 H195 0.931 . S
C178 N175 1.311 1_554 S
C178 N179 1.347 . S
C178 H189 0.929 . S
N179 C177 1.375 . S
N179 C178 1.347 . S
C180 C183 1.365 . S
C180 N185 1.328 . S
C180 H186 0.929 . S
C181 C182 1.362 . S
C181 C184 1.378 . S
C181 H196 0.929 . S
C182 C181 1.362 . S
C182 C183 1.366 . S
C183 C180 1.365 . S
C183 C182 1.366 . S
C183 H197 0.930 . S
C184 C181 1.378 . S
C184 N185 1.315 . S
C184 H187 0.930 . S
N185 Co165 2.194 . S
N185 C180 1.328 . S
N185 C184 1.315 . S
H186 C180 0.929 . S
H187 C184 0.930 . S
H188 C176 0.929 . S
H189 C178 0.929 . S
O190 Co165 2.351 . S
O190 C193 1.244 . S
O191 Co165 2.155 . S
O191 C193 1.240 . S
O192 Co165 2.096 . S
O192 C173 1.247 . S
C193 O190 1.244 . S
C193 O191 1.240 . S
H194 C168 0.931 . S
H195 C177 0.931 . S
H196 C181 0.929 . S
H197 C183 0.930 . S
Co198 N202 2.148 . S
Co198 N208 2.128 . S
Co198 N218 2.194 . S
Co198 O223 2.351 . S
Co198 O224 2.155 . S
Co198 O225 2.096 . S
C199 N202 1.301 . S
C199 N203 1.328 . S
C199 H204 0.930 . S
C200 C201 1.333 . S
C200 N202 1.317 . S
C200 H205 0.930 . S
C201 C200 1.333 . S
C201 N203 1.350 . S
C201 H227 0.931 . S
N202 Co198 2.148 . S
N202 C199 1.301 . S
N202 C200 1.317 . S
N203 C199 1.328 . S
N203 C201 1.350 . S
H204 C199 0.930 . S
H205 C200 0.930 . S
C206 O207 1.224 . S
C206 O225 1.247 . S
O207 C206 1.224 . S
N208 Co198 2.128 . S
N208 C209 1.355 . S
N208 C211 1.311 1_554 S
C209 N208 1.355 . S
C209 C210 1.363 1_554 S
C209 H221 0.929 . S
C210 C209 1.363 1_556 S
C210 N212 1.375 . S
C210 H228 0.931 . S
C211 N208 1.311 1_556 S
C211 N212 1.347 . S
C211 H222 0.929 . S
N212 C210 1.375 . S
N212 C211 1.347 . S
C213 C216 1.365 . S
C213 N218 1.328 . S
C213 H219 0.929 . S
C214 C215 1.362 . S
C214 C217 1.378 . S
C214 H229 0.929 . S
C215 C214 1.362 . S
C215 C216 1.366 . S
C216 C213 1.365 . S
C216 C215 1.366 . S
C216 H230 0.930 . S
C217 C214 1.378 . S
C217 N218 1.315 . S
C217 H220 0.930 . S
N218 Co198 2.194 . S
N218 C213 1.328 . S
N218 C217 1.315 . S
H219 C213 0.929 . S
H220 C217 0.930 . S
H221 C209 0.929 . S
H222 C211 0.929 . S
O223 Co198 2.351 . S
O223 C226 1.244 . S
O224 Co198 2.155 . S
O224 C226 1.240 . S
O225 Co198 2.096 . S
O225 C206 1.247 . S
C226 O223 1.244 . S
C226 O224 1.240 . S
H227 C201 0.931 . S
H228 C210 0.931 . S
H229 C214 0.929 . S
H230 C216 0.930 . S
Co231 N235 2.148 . S
Co231 N241 2.128 . S
Co231 N251 2.194 . S
Co231 O256 2.351 . S
Co231 O257 2.155 . S
Co231 O258 2.096 . S
C232 N235 1.301 . S
C232 N236 1.328 . S
C232 H237 0.930 . S
C233 C234 1.333 . S
C233 N235 1.317 . S
C233 H238 0.930 . S
C234 C233 1.333 . S
C234 N236 1.350 . S
C234 H260 0.931 . S
N235 Co231 2.148 . S
N235 C232 1.301 . S
N235 C233 1.317 . S
N236 C232 1.328 . S
N236 C234 1.350 . S
H237 C232 0.930 . S
H238 C233 0.930 . S
C239 O240 1.224 . S
C239 O258 1.247 . S
O240 C239 1.224 . S
N241 Co231 2.128 . S
N241 C242 1.355 . S
N241 C244 1.311 . S
C242 N241 1.355 . S
C242 C243 1.363 . S
C242 H254 0.929 . S
C243 C242 1.363 . S
C243 N245 1.375 . S
C243 H261 0.931 . S
C244 N241 1.311 . S
C244 N245 1.347 . S
C244 H255 0.929 . S
N245 C243 1.375 . S
N245 C244 1.347 . S
C246 C249 1.365 . S
C246 N251 1.328 . S
C246 H252 0.929 . S
C247 C248 1.362 . S
C247 C250 1.378 . S
C247 H262 0.929 . S
C248 C247 1.362 . S
C248 C249 1.366 . S
C249 C246 1.365 . S
C249 C248 1.366 . S
C249 H263 0.930 . S
C250 C247 1.378 . S
C250 N251 1.315 . S
C250 H253 0.930 . S
N251 Co231 2.194 . S
N251 C246 1.328 . S
N251 C250 1.315 . S
H252 C246 0.929 . S
H253 C250 0.930 . S
H254 C242 0.929 . S
H255 C244 0.929 . S
O256 Co231 2.351 . S
O256 C259 1.244 . S
O257 Co231 2.155 . S
O257 C259 1.240 . S
O258 Co231 2.096 . S
O258 C239 1.247 . S
C259 O256 1.244 . S
C259 O257 1.240 . S
H260 C234 0.931 . S
H261 C243 0.931 . S
H262 C247 0.929 . S
H263 C249 0.930 . S
Co264 N268 2.148 . S
Co264 N274 2.128 . S
Co264 N284 2.194 . S
Co264 O289 2.351 . S
Co264 O290 2.155 . S
Co264 O291 2.096 . S
C265 N268 1.301 . S
C265 N269 1.328 . S
C265 H270 0.930 . S
C266 C267 1.333 . S
C266 N268 1.317 . S
C266 H271 0.930 . S
C267 C266 1.333 . S
C267 N269 1.350 . S
C267 H293 0.931 . S
N268 Co264 2.148 . S
N268 C265 1.301 . S
N268 C266 1.317 . S
N269 C265 1.328 . S
N269 C267 1.350 . S
H270 C265 0.930 . S
H271 C266 0.930 . S
C272 O273 1.224 . S
C272 O291 1.247 . S
O273 C272 1.224 . S
N274 Co264 2.128 . S
N274 C275 1.355 . S
N274 C277 1.311 1_554 S
C275 N274 1.355 . S
C275 C276 1.363 1_554 S
C275 H287 0.929 . S
C276 C275 1.363 1_556 S
C276 N278 1.375 . S
C276 H294 0.931 . S
C277 N274 1.311 1_556 S
C277 N278 1.347 . S
C277 H288 0.929 . S
N278 C276 1.375 . S
N278 C277 1.347 . S
C279 C282 1.365 . S
C279 N284 1.328 . S
C279 H285 0.929 . S
C280 C281 1.362 . S
C280 C283 1.378 . S
C280 H295 0.929 . S
C281 C280 1.362 . S
C281 C282 1.366 . S
C282 C279 1.365 . S
C282 C281 1.366 . S
C282 H296 0.930 . S
C283 C280 1.378 . S
C283 N284 1.315 . S
C283 H286 0.930 . S
N284 Co264 2.194 . S
N284 C279 1.328 . S
N284 C283 1.315 . S
H285 C279 0.929 . S
H286 C283 0.930 . S
H287 C275 0.929 . S
H288 C277 0.929 . S
O289 Co264 2.351 . S
O289 C292 1.244 . S
O290 Co264 2.155 . S
O290 C292 1.240 . S
O291 Co264 2.096 . S
O291 C272 1.247 . S
C292 O289 1.244 . S
C292 O290 1.240 . S
H293 C267 0.931 . S
H294 C276 0.931 . S
H295 C280 0.929 . S
H296 C282 0.930 . S
Co297 N301 2.148 . S
Co297 N307 2.128 . S
Co297 N317 2.194 . S
Co297 O322 2.351 . S
Co297 O323 2.155 . S
Co297 O324 2.096 . S
C298 N301 1.301 . S
C298 N302 1.328 . S
C298 H303 0.930 . S
C299 C300 1.333 . S
C299 N301 1.317 . S
C299 H304 0.930 . S
C300 C299 1.333 . S
C300 N302 1.350 . S
C300 H326 0.931 . S
N301 Co297 2.148 . S
N301 C298 1.301 . S
N301 C299 1.317 . S
N302 C298 1.328 . S
N302 C300 1.350 . S
H303 C298 0.930 . S
H304 C299 0.930 . S
C305 O306 1.224 . S
C305 O324 1.247 . S
O306 C305 1.224 . S
N307 Co297 2.128 . S
N307 C308 1.355 . S
N307 C310 1.311 . S
C308 N307 1.355 . S
C308 C309 1.363 . S
C308 H320 0.929 . S
C309 C308 1.363 . S
C309 N311 1.375 . S
C309 H327 0.931 . S
C310 N307 1.311 . S
C310 N311 1.347 . S
C310 H321 0.929 . S
N311 C309 1.375 . S
N311 C310 1.347 . S
C312 C315 1.365 . S
C312 N317 1.328 . S
C312 H318 0.929 . S
C313 C314 1.362 . S
C313 C316 1.378 . S
C313 H328 0.929 . S
C314 C313 1.362 . S
C314 C315 1.366 . S
C315 C312 1.365 . S
C315 C314 1.366 . S
C315 H329 0.930 . S
C316 C313 1.378 . S
C316 N317 1.315 . S
C316 H319 0.930 . S
N317 Co297 2.194 . S
N317 C312 1.328 . S
N317 C316 1.315 . S
H318 C312 0.929 . S
H319 C316 0.930 . S
H320 C308 0.929 . S
H321 C310 0.929 . S
O322 Co297 2.351 . S
O322 C325 1.244 . S
O323 Co297 2.155 . S
O323 C325 1.240 . S
O324 Co297 2.096 . S
O324 C305 1.247 . S
C325 O322 1.244 . S
C325 O323 1.240 . S
H326 C300 0.931 . S
H327 C309 0.931 . S
H328 C313 0.929 . S
H329 C315 0.930 . S
Co330 N334 2.148 . S
Co330 N340 2.128 . S
Co330 N350 2.194 . S
Co330 O355 2.351 . S
Co330 O356 2.155 . S
Co330 O357 2.096 . S
C331 N334 1.301 . S
C331 N335 1.328 . S
C331 H336 0.930 . S
C332 C333 1.333 . S
C332 N334 1.317 . S
C332 H337 0.930 . S
C333 C332 1.333 . S
C333 N335 1.350 . S
C333 H359 0.931 . S
N334 Co330 2.148 . S
N334 C331 1.301 . S
N334 C332 1.317 . S
N335 C331 1.328 . S
N335 C333 1.350 . S
H336 C331 0.930 . S
H337 C332 0.930 . S
C338 O339 1.224 . S
C338 O357 1.247 . S
O339 C338 1.224 . S
N340 Co330 2.128 . S
N340 C341 1.355 . S
N340 C343 1.311 1_554 S
C341 N340 1.355 . S
C341 C342 1.363 1_554 S
C341 H353 0.929 . S
C342 C341 1.363 1_556 S
C342 N344 1.375 . S
C342 H360 0.931 . S
C343 N340 1.311 1_556 S
C343 N344 1.347 . S
C343 H354 0.929 . S
N344 C342 1.375 . S
N344 C343 1.347 . S
C345 C348 1.365 . S
C345 N350 1.328 . S
C345 H351 0.929 . S
C346 C347 1.362 . S
C346 C349 1.378 . S
C346 H361 0.929 . S
C347 C346 1.362 . S
C347 C348 1.366 . S
C348 C345 1.365 . S
C348 C347 1.366 . S
C348 H362 0.930 . S
C349 C346 1.378 . S
C349 N350 1.315 . S
C349 H352 0.930 . S
N350 Co330 2.194 . S
N350 C345 1.328 . S
N350 C349 1.315 . S
H351 C345 0.929 . S
H352 C349 0.930 . S
H353 C341 0.929 . S
H354 C343 0.929 . S
O355 Co330 2.351 . S
O355 C358 1.244 . S
O356 Co330 2.155 . S
O356 C358 1.240 . S
O357 Co330 2.096 . S
O357 C338 1.247 . S
C358 O355 1.244 . S
C358 O356 1.240 . S
H359 C333 0.931 . S
H360 C342 0.931 . S
H361 C346 0.929 . S
H362 C348 0.930 . S
Co363 N367 2.148 . S
Co363 N373 2.128 . S
Co363 N383 2.194 . S
Co363 O388 2.351 . S
Co363 O389 2.155 . S
Co363 O390 2.096 . S
C364 N367 1.301 . S
C364 N368 1.328 . S
C364 H369 0.930 . S
C365 C366 1.333 . S
C365 N367 1.317 . S
C365 H370 0.930 . S
C366 C365 1.333 . S
C366 N368 1.350 . S
C366 H392 0.931 . S
N367 Co363 2.148 . S
N367 C364 1.301 . S
N367 C365 1.317 . S
N368 C364 1.328 . S
N368 C366 1.350 . S
H369 C364 0.930 . S
H370 C365 0.930 . S
C371 O372 1.224 . S
C371 O390 1.247 . S
O372 C371 1.224 . S
N373 Co363 2.128 . S
N373 C374 1.355 . S
N373 C376 1.311 . S
C374 N373 1.355 . S
C374 C375 1.363 . S
C374 H386 0.929 . S
C375 C374 1.363 . S
C375 N377 1.375 . S
C375 H393 0.931 . S
C376 N373 1.311 . S
C376 N377 1.347 . S
C376 H387 0.929 . S
N377 C375 1.375 . S
N377 C376 1.347 . S
C378 C381 1.365 . S
C378 N383 1.328 . S
C378 H384 0.929 . S
C379 C380 1.362 . S
C379 C382 1.378 . S
C379 H394 0.929 . S
C380 C379 1.362 . S
C380 C381 1.366 . S
C381 C378 1.365 . S
C381 C380 1.366 . S
C381 H395 0.930 . S
C382 C379 1.378 . S
C382 N383 1.315 . S
C382 H385 0.930 . S
N383 Co363 2.194 . S
N383 C378 1.328 . S
N383 C382 1.315 . S
H384 C378 0.929 . S
H385 C382 0.930 . S
H386 C374 0.929 . S
H387 C376 0.929 . S
O388 Co363 2.351 . S
O388 C391 1.244 . S
O389 Co363 2.155 . S
O389 C391 1.240 . S
O390 Co363 2.096 . S
O390 C371 1.247 . S
C391 O388 1.244 . S
C391 O389 1.240 . S
H392 C366 0.931 . S
H393 C375 0.931 . S
H394 C379 0.929 . S
H395 C381 0.930 . S
H396 C408 0.930 . S
H397 C410 0.930 . S
H398 C411 0.930 1_655 S
H399 C415 0.959 . S
H400 C415 0.959 . S
H401 C415 0.961 . S
H402 C416 0.960 . S
H403 C416 0.961 . S
H404 C416 0.939 1_655 S
H405 C419 0.929 . S
H406 C420 0.931 . S
H407 C422 0.930 . S
C408 H396 0.930 . S
C408 C409 1.399 . S
C408 C413 1.399 . S
C409 C408 1.399 . S
C409 C410 1.376 . S
C410 H397 0.930 . S
C410 C409 1.376 . S
C410 C411 1.388 . S
C411 H398 0.930 1_455 S
C411 C410 1.388 . S
C411 C412 1.390 . S
C412 C411 1.390 . S
C412 C413 1.394 . S
C412 C418 1.465 1_455 S
C413 C408 1.399 . S
C413 C412 1.394 . S
C413 C414 1.516 . S
C414 C413 1.516 . S
C414 C415 1.502 . S
C414 C416 1.561 . S
C414 C417 1.526 1_455 S
C415 H399 0.959 . S
C415 H400 0.959 . S
C415 H401 0.961 . S
C415 C414 1.502 . S
C416 H402 0.960 . S
C416 H403 0.961 . S
C416 H404 0.939 1_455 S
C416 C414 1.561 . S
C417 C414 1.526 1_655 S
C417 C418 1.396 . S
C417 C422 1.390 . S
C418 C412 1.465 1_655 S
C418 C417 1.396 . S
C418 C419 1.399 . S
C419 H405 0.929 . S
C419 C418 1.399 . S
C419 C420 1.385 . S
C420 H406 0.931 . S
C420 C419 1.385 . S
C420 C421 1.389 . S
C421 C420 1.389 . S
C421 C422 1.387 . S
C422 H407 0.930 . S
C422 C417 1.390 . S
C422 C421 1.387 . S
H423 C435 0.930 . S
H424 C437 0.930 . S
H425 C438 0.930 . S
H426 C442 0.959 . S
H427 C442 0.959 . S
H428 C442 0.961 . S
H429 C443 0.960 . S
H430 C443 0.961 . S
H431 C443 0.959 . S
H432 C446 0.929 . S
H433 C447 0.931 . S
H434 C449 0.930 . S
C435 H423 0.930 . S
C435 C436 1.399 . S
C435 C440 1.399 . S
C436 C435 1.399 . S
C436 C437 1.376 . S
C437 H424 0.930 . S
C437 C436 1.376 . S
C437 C438 1.388 . S
C438 H425 0.930 . S
C438 C437 1.388 . S
C438 C439 1.390 . S
C439 C438 1.390 . S
C439 C440 1.394 . S
C439 C445 1.467 1_545 S
C440 C435 1.399 . S
C440 C439 1.394 . S
C440 C441 1.516 1_556 S
C441 C440 1.516 1_554 S
C441 C442 1.502 . S
C441 C443 1.561 . S
C441 C444 1.526 1_545 S
C442 H426 0.959 . S
C442 H427 0.959 . S
C442 H428 0.961 . S
C442 C441 1.502 . S
C443 H429 0.960 . S
C443 H430 0.961 . S
C443 H431 0.959 . S
C443 C441 1.561 . S
C444 C441 1.526 1_565 S
C444 C445 1.394 1_554 S
C444 C449 1.390 . S
C445 C439 1.467 1_565 S
C445 C444 1.394 1_556 S
C445 C446 1.399 . S
C446 H432 0.929 . S
C446 C445 1.399 . S
C446 C447 1.385 1_556 S
C447 H433 0.931 . S
C447 C446 1.385 1_554 S
C447 C448 1.389 . S
C448 C447 1.389 . S
C448 C449 1.387 . S
C449 H434 0.930 . S
C449 C444 1.390 . S
C449 C448 1.387 . S
H450 C462 0.930 . S
H451 C464 0.930 . S
H452 C465 0.930 . S
H453 C469 0.959 . S
H454 C469 0.959 . S
H455 C469 0.961 . S
H456 C470 0.960 . S
H457 C470 0.961 . S
H458 C470 0.959 . S
H459 C473 0.929 . S
H460 C474 0.931 . S
H461 C476 0.930 . S
C462 H450 0.930 . S
C462 C463 1.399 . S
C462 C467 1.399 . S
C463 C462 1.399 . S
C463 C464 1.376 . S
C464 H451 0.930 . S
C464 C463 1.376 . S
C464 C465 1.388 . S
C465 H452 0.930 . S
C465 C464 1.388 . S
C465 C466 1.390 . S
C466 C465 1.390 . S
C466 C467 1.394 . S
C466 C472 1.465 . S
C467 C462 1.399 . S
C467 C466 1.394 . S
C467 C468 1.516 . S
C468 C467 1.516 . S
C468 C469 1.502 . S
C468 C470 1.561 . S
C468 C471 1.526 . S
C469 H453 0.959 . S
C469 H454 0.959 . S
C469 H455 0.961 . S
C469 C468 1.502 . S
C470 H456 0.960 . S
C470 H457 0.961 . S
C470 H458 0.959 . S
C470 C468 1.561 . S
C471 C468 1.526 . S
C471 C472 1.396 . S
C471 C476 1.390 . S
C472 C466 1.465 . S
C472 C471 1.396 . S
C472 C473 1.399 . S
C473 H459 0.929 . S
C473 C472 1.399 . S
C473 C474 1.385 . S
C474 H460 0.931 . S
C474 C473 1.385 . S
C474 C475 1.389 . S
C475 C474 1.389 . S
C475 C476 1.387 . S
C476 H461 0.930 . S
C476 C471 1.390 . S
C476 C475 1.387 . S
H477 C489 0.930 . S
H478 C491 0.930 . S
H479 C492 0.930 . S
H480 C496 0.959 . S
H481 C496 0.959 . S
H482 C496 0.961 . S
H483 C497 0.960 . S
H484 C497 0.956 1_655 S
H485 C497 0.959 1_654 S
H486 C500 0.929 . S
H487 C501 0.931 . S
H488 C503 0.930 . S
C489 H477 0.930 . S
C489 C490 1.399 . S
C489 C494 1.399 . S
C490 C489 1.399 . S
C490 C491 1.376 . S
C491 H478 0.930 . S
C491 C490 1.376 . S
C491 C492 1.388 . S
C492 H479 0.930 . S
C492 C491 1.388 . S
C492 C493 1.390 . S
C493 C492 1.390 . S
C493 C494 1.394 . S
C493 C499 1.465 1_455 S
C494 C489 1.399 . S
C494 C493 1.394 . S
C494 C495 1.516 1_554 S
C495 C494 1.516 1_556 S
C495 C496 1.502 . S
C495 C497 1.561 . S
C495 C498 1.526 1_455 S
C496 H480 0.959 . S
C496 H481 0.959 . S
C496 H482 0.961 . S
C496 C495 1.502 . S
C497 H483 0.960 . S
C497 H484 0.956 1_455 S
C497 H485 0.959 1_456 S
C497 C495 1.561 . S
C498 C495 1.526 1_655 S
C498 C499 1.396 1_556 S
C498 C503 1.390 . S
C499 C493 1.465 1_655 S
C499 C498 1.396 1_554 S
C499 C500 1.399 . S
C500 H486 0.929 . S
C500 C499 1.399 . S
C500 C501 1.385 1_554 S
C501 H487 0.931 . S
C501 C500 1.385 1_556 S
C501 C502 1.389 . S
C502 C501 1.389 . S
C502 C503 1.387 . S
C503 H488 0.930 . S
C503 C498 1.390 . S
C503 C502 1.387 . S
H504 C516 0.930 . S
H505 C518 0.930 . S
H506 C519 0.930 . S
H507 C523 0.959 . S
H508 C523 0.959 . S
H509 C523 0.961 . S
H510 C524 0.960 1_545 S
H511 C524 0.961 . S
H512 C524 0.959 . S
H513 C527 0.929 . S
H514 C528 0.931 . S
H515 C530 0.930 . S
C516 H504 0.930 . S
C516 C517 1.399 . S
C516 C521 1.399 . S
C517 C516 1.399 . S
C517 C518 1.376 . S
C518 H505 0.930 . S
C518 C517 1.376 . S
C518 C519 1.388 . S
C519 H506 0.930 . S
C519 C518 1.388 . S
C519 C520 1.390 . S
C520 C519 1.390 . S
C520 C521 1.394 . S
C520 C526 1.465 1_545 S
C521 C516 1.399 . S
C521 C520 1.394 . S
C521 C522 1.516 . S
C522 C521 1.516 . S
C522 C523 1.502 . S
C522 C524 1.561 1_545 S
C522 C525 1.526 1_545 S
C523 H507 0.959 . S
C523 H508 0.959 . S
C523 H509 0.961 . S
C523 C522 1.502 . S
C524 H510 0.960 1_565 S
C524 H511 0.961 . S
C524 H512 0.959 . S
C524 C522 1.561 1_565 S
C525 C522 1.526 1_565 S
C525 C526 1.396 . S
C525 C530 1.390 . S
C526 C520 1.465 1_565 S
C526 C525 1.396 . S
C526 C527 1.399 . S
C527 H513 0.929 . S
C527 C526 1.399 . S
C527 C528 1.385 . S
C528 H514 0.931 . S
C528 C527 1.385 . S
C528 C529 1.389 . S
C529 C528 1.389 . S
C529 C530 1.387 . S
C530 H515 0.930 . S
C530 C525 1.390 . S
C530 C529 1.387 . S
H531 C543 0.930 . S
H532 C545 0.930 . S
H533 C546 0.930 . S
H534 C550 0.959 . S
H535 C550 0.959 . S
H536 C550 0.961 . S
H537 C551 0.960 . S
H538 C551 0.961 . S
H539 C551 0.959 . S
H540 C554 0.929 . S
H541 C555 0.931 . S
H542 C557 0.930 . S
C543 H531 0.930 . S
C543 C544 1.399 . S
C543 C548 1.399 . S
C544 C543 1.399 . S
C544 C545 1.376 . S
C545 H532 0.930 . S
C545 C544 1.376 . S
C545 C546 1.388 1_556 S
C546 H533 0.930 . S
C546 C545 1.388 1_554 S
C546 C547 1.390 . S
C547 C546 1.390 . S
C547 C548 1.394 1_554 S
C547 C553 1.465 . S
C548 C543 1.399 . S
C548 C547 1.394 1_556 S
C548 C549 1.516 . S
C549 C548 1.516 . S
C549 C550 1.502 . S
C549 C551 1.561 . S
C549 C552 1.526 1_556 S
C550 H534 0.959 . S
C550 H535 0.959 . S
C550 H536 0.961 . S
C550 C549 1.502 . S
C551 H537 0.960 . S
C551 H538 0.961 . S
C551 H539 0.959 . S
C551 C549 1.561 . S
C552 C549 1.526 1_554 S
C552 C553 1.396 . S
C552 C557 1.390 . S
C553 C547 1.465 . S
C553 C552 1.396 . S
C553 C554 1.399 . S
C554 H540 0.929 . S
C554 C553 1.399 . S
C554 C555 1.385 . S
C555 H541 0.931 . S
C555 C554 1.385 . S
C555 C556 1.389 . S
C556 C555 1.389 . S
C556 C557 1.387 . S
C557 H542 0.930 . S
C557 C552 1.390 . S
C557 C556 1.387 . S
H558 C570 0.930 . S
H559 C572 0.930 . S
H560 C573 0.930 . S
H561 C577 0.959 . S
H562 C577 0.959 . S
H563 C577 0.961 . S
H564 C578 0.960 . S
H565 C578 0.961 . S
H566 C578 0.959 . S
H567 C581 0.929 . S
H568 C582 0.931 . S
H569 C584 0.930 . S
C570 H558 0.930 . S
C570 C571 1.399 . S
C570 C575 1.399 . S
C571 C570 1.399 . S
C571 C572 1.376 . S
C572 H559 0.930 . S
C572 C571 1.376 . S
C572 C573 1.388 . S
C573 H560 0.930 . S
C573 C572 1.388 . S
C573 C574 1.390 . S
C574 C573 1.390 . S
C574 C575 1.394 . S
C574 C580 1.465 . S
C575 C570 1.399 . S
C575 C574 1.394 . S
C575 C576 1.516 . S
C576 C575 1.516 . S
C576 C577 1.502 . S
C576 C578 1.561 . S
C576 C579 1.526 . S
C577 H561 0.959 . S
C577 H562 0.959 . S
C577 H563 0.961 . S
C577 C576 1.502 . S
C578 H564 0.960 . S
C578 H565 0.961 . S
C578 H566 0.959 . S
C578 C576 1.561 . S
C579 C576 1.526 . S
C579 C580 1.396 . S
C579 C584 1.390 . S
C580 C574 1.465 . S
C580 C579 1.396 . S
C580 C581 1.399 . S
C581 H567 0.929 . S
C581 C580 1.399 . S
C581 C582 1.385 . S
C582 H568 0.931 . S
C582 C581 1.385 . S
C582 C583 1.389 . S
C583 C582 1.389 . S
C583 C584 1.387 . S
C584 H569 0.930 . S
C584 C579 1.390 . S
C584 C583 1.387 . S
H585 C597 0.930 . S
H586 C599 0.930 . S
H587 C600 0.930 . S
H588 C604 0.959 . S
H589 C604 0.959 . S
H590 C604 0.961 . S
H591 C605 0.960 . S
H592 C605 0.961 . S
H593 C605 0.959 . S
H594 C608 0.929 . S
H595 C609 0.931 . S
H596 C611 0.930 . S
C597 H585 0.930 . S
C597 C598 1.399 . S
C597 C602 1.399 . S
C598 C597 1.399 . S
C598 C599 1.376 . S
C599 H586 0.930 . S
C599 C598 1.376 . S
C599 C600 1.388 . S
C600 H587 0.930 . S
C600 C599 1.388 . S
C600 C601 1.390 . S
C601 C600 1.390 . S
C601 C602 1.394 . S
C601 C607 1.465 . S
C602 C597 1.399 . S
C602 C601 1.394 . S
C602 C603 1.516 . S
C603 C602 1.516 . S
C603 C604 1.502 . S
C603 C605 1.561 . S
C603 C606 1.526 . S
C604 H588 0.959 . S
C604 H589 0.959 . S
C604 H590 0.961 . S
C604 C603 1.502 . S
C605 H591 0.960 . S
C605 H592 0.961 . S
C605 H593 0.959 . S
C605 C603 1.561 . S
C606 C603 1.526 . S
C606 C607 1.396 . S
C606 C611 1.390 . S
C607 C601 1.465 . S
C607 C606 1.396 . S
C607 C608 1.399 . S
C608 H594 0.929 . S
C608 C607 1.399 . S
C608 C609 1.385 . S
C609 H595 0.931 . S
C609 C608 1.385 . S
C609 C610 1.389 . S
C610 C609 1.389 . S
C610 C611 1.387 . S
C611 H596 0.930 . S
C611 C606 1.390 . S
C611 C610 1.387 . S
H612 C624 0.930 . S
H613 C626 0.930 . S
H614 C627 0.930 . S
H615 C631 0.959 . S
H616 C631 0.959 . S
H617 C631 0.961 . S
H618 C632 0.960 . S
H619 C632 0.961 . S
H620 C632 0.959 . S
H621 C635 0.929 . S
H622 C636 0.931 . S
H623 C638 0.930 . S
C624 H612 0.930 . S
C624 C625 1.399 . S
C624 C629 1.399 . S
C625 C624 1.399 . S
C625 C626 1.376 . S
C626 H613 0.930 . S
C626 C625 1.376 . S
C626 C627 1.388 . S
C627 H614 0.930 . S
C627 C626 1.388 . S
C627 C628 1.390 . S
C628 C627 1.390 . S
C628 C629 1.394 . S
C628 C634 1.465 . S
C629 C624 1.399 . S
C629 C628 1.394 . S
C629 C630 1.516 . S
C630 C629 1.516 . S
C630 C631 1.502 . S
C630 C632 1.561 . S
C630 C633 1.526 . S
C631 H615 0.959 . S
C631 H616 0.959 . S
C631 H617 0.961 . S
C631 C630 1.502 . S
C632 H618 0.960 . S
C632 H619 0.961 . S
C632 H620 0.959 . S
C632 C630 1.561 . S
C633 C630 1.526 . S
C633 C634 1.396 . S
C633 C638 1.390 . S
C634 C628 1.465 . S
C634 C633 1.396 . S
C634 C635 1.399 . S
C635 H621 0.929 . S
C635 C634 1.399 . S
C635 C636 1.385 . S
C636 H622 0.931 . S
C636 C635 1.385 . S
C636 C637 1.389 . S
C637 C636 1.389 . S
C637 C638 1.387 . S
C638 H623 0.930 . S
C638 C633 1.390 . S
C638 C637 1.387 . S
H639 C651 0.930 . S
H640 C653 0.930 . S
H641 C654 0.930 . S
H642 C658 0.959 . S
H643 C658 0.959 . S
H644 C658 0.961 . S
H645 C659 0.960 . S
H646 C659 0.961 . S
H647 C659 0.959 . S
H648 C662 0.929 . S
H649 C663 0.931 . S
H650 C665 0.930 . S
C651 H639 0.930 . S
C651 C652 1.399 . S
C651 C656 1.399 . S
C652 C651 1.399 . S
C652 C653 1.376 . S
C653 H640 0.930 . S
C653 C652 1.376 . S
C653 C654 1.388 . S
C654 H641 0.930 . S
C654 C653 1.388 . S
C654 C655 1.390 . S
C655 C654 1.390 . S
C655 C656 1.394 . S
C655 C661 1.465 . S
C656 C651 1.399 . S
C656 C655 1.394 . S
C656 C657 1.516 . S
C657 C656 1.516 . S
C657 C658 1.502 . S
C657 C659 1.561 . S
C657 C660 1.526 . S
C658 H642 0.959 . S
C658 H643 0.959 . S
C658 H644 0.961 . S
C658 C657 1.502 . S
C659 H645 0.960 . S
C659 H646 0.961 . S
C659 H647 0.959 . S
C659 C657 1.561 . S
C660 C657 1.526 . S
C660 C661 1.396 . S
C660 C665 1.390 . S
C661 C655 1.465 . S
C661 C660 1.396 . S
C661 C662 1.399 . S
C662 H648 0.929 . S
C662 C661 1.399 . S
C662 C663 1.385 . S
C663 H649 0.931 . S
C663 C662 1.385 . S
C663 C664 1.389 . S
C664 C663 1.389 . S
C664 C665 1.387 . S
C665 H650 0.930 . S
C665 C660 1.390 . S
C665 C664 1.387 . S
H666 C678 0.930 . S
H667 C680 0.930 . S
H668 C681 0.930 . S
H669 C685 0.959 . S
H670 C685 0.959 . S
H671 C685 0.961 . S
H672 C686 0.960 . S
H673 C686 0.961 . S
H674 C686 0.959 . S
H675 C689 0.929 . S
H676 C690 0.931 . S
H677 C692 0.930 . S
C678 H666 0.930 . S
C678 C679 1.399 . S
C678 C683 1.399 . S
C679 C678 1.399 . S
C679 C680 1.376 . S
C680 H667 0.930 . S
C680 C679 1.376 . S
C680 C681 1.388 . S
C681 H668 0.930 . S
C681 C680 1.388 . S
C681 C682 1.390 . S
C682 C681 1.390 . S
C682 C683 1.394 . S
C682 C688 1.465 . S
C683 C678 1.399 . S
C683 C682 1.394 . S
C683 C684 1.516 . S
C684 C683 1.516 . S
C684 C685 1.502 . S
C684 C686 1.561 . S
C684 C687 1.526 . S
C685 H669 0.959 . S
C685 H670 0.959 . S
C685 H671 0.961 . S
C685 C684 1.502 . S
C686 H672 0.960 . S
C686 H673 0.961 . S
C686 H674 0.959 . S
C686 C684 1.561 . S
C687 C684 1.526 . S
C687 C688 1.396 . S
C687 C692 1.390 . S
C688 C682 1.465 . S
C688 C687 1.396 . S
C688 C689 1.399 . S
C689 H675 0.929 . S
C689 C688 1.399 . S
C689 C690 1.385 . S
C690 H676 0.931 . S
C690 C689 1.385 . S
C690 C691 1.389 . S
C691 C690 1.389 . S
C691 C692 1.387 . S
C692 H677 0.930 . S
C692 C687 1.390 . S
C692 C691 1.387 . S
H693 C705 0.930 . S
H694 C707 0.930 . S
H695 C708 0.930 . S
H696 C712 0.959 . S
H697 C712 0.959 . S
H698 C712 0.961 . S
H699 C713 0.960 . S
H700 C713 0.961 . S
H701 C713 0.959 . S
H702 C716 0.929 . S
H703 C717 0.931 . S
H704 C719 0.930 . S
C705 H693 0.930 . S
C705 C706 1.399 . S
C705 C710 1.399 . S
C706 C705 1.399 . S
C706 C707 1.376 . S
C707 H694 0.930 . S
C707 C706 1.376 . S
C707 C708 1.388 . S
C708 H695 0.930 . S
C708 C707 1.388 . S
C708 C709 1.390 . S
C709 C708 1.390 . S
C709 C710 1.394 . S
C709 C715 1.465 . S
C710 C705 1.399 . S
C710 C709 1.394 . S
C710 C711 1.516 . S
C711 C710 1.516 . S
C711 C712 1.502 . S
C711 C713 1.561 . S
C711 C714 1.526 . S
C712 H696 0.959 . S
C712 H697 0.959 . S
C712 H698 0.961 . S
C712 C711 1.502 . S
C713 H699 0.960 . S
C713 H700 0.961 . S
C713 H701 0.959 . S
C713 C711 1.561 . S
C714 C711 1.526 . S
C714 C715 1.396 . S
C714 C719 1.390 . S
C715 C709 1.465 . S
C715 C714 1.396 . S
C715 C716 1.399 . S
C716 H702 0.929 . S
C716 C715 1.399 . S
C716 C717 1.385 . S
C717 H703 0.931 . S
C717 C716 1.385 . S
C717 C718 1.389 . S
C718 C717 1.389 . S
C718 C719 1.387 . S
C719 H704 0.930 . S
C719 C714 1.390 . S
C719 C718 1.387 . S
H720 C732 0.930 . S
H721 C734 0.930 . S
H722 C735 0.930 . S
H723 C739 0.959 . S
H724 C739 0.959 . S
H725 C739 0.961 . S
H726 C740 0.960 . S
H727 C740 0.961 . S
H728 C740 0.959 . S
H729 C743 0.929 . S
H730 C744 0.931 . S
H731 C746 0.930 . S
C732 H720 0.930 . S
C732 C733 1.399 . S
C732 C737 1.399 . S
C733 C732 1.399 . S
C733 C734 1.376 . S
C734 H721 0.930 . S
C734 C733 1.376 . S
C734 C735 1.388 . S
C735 H722 0.930 . S
C735 C734 1.388 . S
C735 C736 1.390 . S
C736 C735 1.390 . S
C736 C737 1.394 . S
C736 C742 1.465 . S
C737 C732 1.399 . S
C737 C736 1.394 . S
C737 C738 1.516 . S
C738 C737 1.516 . S
C738 C739 1.502 . S
C738 C740 1.561 . S
C738 C741 1.526 . S
C739 H723 0.959 . S
C739 H724 0.959 . S
C739 H725 0.961 . S
C739 C738 1.502 . S
C740 H726 0.960 . S
C740 H727 0.961 . S
C740 H728 0.959 . S
C740 C738 1.561 . S
C741 C738 1.526 . S
C741 C742 1.396 . S
C741 C746 1.390 . S
C742 C736 1.465 . S
C742 C741 1.396 . S
C742 C743 1.399 . S
C743 H729 0.929 . S
C743 C742 1.399 . S
C743 C744 1.385 1_556 S
C744 H730 0.931 . S
C744 C743 1.385 1_554 S
C744 C745 1.389 . S
C745 C744 1.389 . S
C745 C746 1.387 1_554 S
C746 H731 0.930 . S
C746 C741 1.390 . S
C746 C745 1.387 1_556 S
H747 C759 0.930 . S
H748 C761 0.930 . S
H749 C762 0.930 . S
H750 C766 0.959 . S
H751 C766 0.959 . S
H752 C766 0.961 . S
H753 C767 0.960 . S
H754 C767 0.961 . S
H755 C767 0.959 . S
H756 C770 0.929 . S
H757 C771 0.931 . S
H758 C773 0.930 . S
C759 H747 0.930 . S
C759 C760 1.399 . S
C759 C764 1.399 . S
C760 C759 1.399 . S
C760 C761 1.376 . S
C761 H748 0.930 . S
C761 C760 1.376 . S
C761 C762 1.388 . S
C762 H749 0.930 . S
C762 C761 1.388 . S
C762 C763 1.390 . S
C763 C762 1.390 . S
C763 C764 1.394 . S
C763 C769 1.465 . S
C764 C759 1.399 . S
C764 C763 1.394 . S
C764 C765 1.516 . S
C765 C764 1.516 . S
C765 C766 1.502 . S
C765 C767 1.561 . S
C765 C768 1.526 . S
C766 H750 0.959 . S
C766 H751 0.959 . S
C766 H752 0.961 . S
C766 C765 1.502 . S
C767 H753 0.960 . S
C767 H754 0.961 . S
C767 H755 0.959 . S
C767 C765 1.561 . S
C768 C765 1.526 . S
C768 C769 1.396 . S
C768 C773 1.390 . S
C769 C763 1.465 . S
C769 C768 1.396 . S
C769 C770 1.399 . S
C770 H756 0.929 . S
C770 C769 1.399 . S
C770 C771 1.385 . S
C771 H757 0.931 . S
C771 C770 1.385 . S
C771 C772 1.389 . S
C772 C771 1.389 . S
C772 C773 1.387 . S
C773 H758 0.930 . S
C773 C768 1.390 . S
C773 C772 1.387 . S
H774 C786 0.930 . S
H775 C788 0.930 . S
H776 C789 0.930 . S
H777 C793 0.959 . S
H778 C793 0.959 . S
H779 C793 0.961 . S
H780 C794 0.960 . S
H781 C794 0.961 . S
H782 C794 0.959 . S
H783 C797 0.929 . S
H784 C798 0.931 . S
H785 C800 0.930 . S
C786 H774 0.930 . S
C786 C787 1.399 . S
C786 C791 1.399 . S
C787 C786 1.399 . S
C787 C788 1.376 . S
C788 H775 0.930 . S
C788 C787 1.376 . S
C788 C789 1.388 . S
C789 H776 0.930 . S
C789 C788 1.388 . S
C789 C790 1.390 . S
C790 C789 1.390 . S
C790 C791 1.394 . S
C790 C796 1.465 . S
C791 C786 1.399 . S
C791 C790 1.394 . S
C791 C792 1.516 . S
C792 C791 1.516 . S
C792 C793 1.502 . S
C792 C794 1.561 . S
C792 C795 1.526 . S
C793 H777 0.959 . S
C793 H778 0.959 . S
C793 H779 0.961 . S
C793 C792 1.502 . S
C794 H780 0.960 . S
C794 H781 0.961 . S
C794 H782 0.959 . S
C794 C792 1.561 . S
C795 C792 1.526 . S
C795 C796 1.396 . S
C795 C800 1.390 . S
C796 C790 1.465 . S
C796 C795 1.396 . S
C796 C797 1.399 . S
C797 H783 0.929 . S
C797 C796 1.399 . S
C797 C798 1.385 1_556 S
C798 H784 0.931 . S
C798 C797 1.385 1_554 S
C798 C799 1.389 . S
C799 C798 1.389 . S
C799 C800 1.387 1_554 S
C800 H785 0.930 . S
C800 C795 1.390 . S
C800 C799 1.387 1_556 S
H801 C813 0.930 . S
H802 C815 0.930 . S
H803 C816 0.930 . S
H804 C820 0.959 . S
H805 C820 0.959 . S
H806 C820 0.961 . S
H807 C821 0.960 . S
H808 C821 0.961 . S
H809 C821 0.959 . S
H810 C824 0.929 . S
H811 C825 0.931 . S
H812 C827 0.930 . S
C813 H801 0.930 . S
C813 C814 1.399 . S
C813 C818 1.399 . S
C814 C813 1.399 . S
C814 C815 1.376 . S
C815 H802 0.930 . S
C815 C814 1.376 . S
C815 C816 1.388 . S
C816 H803 0.930 . S
C816 C815 1.388 . S
C816 C817 1.390 . S
C817 C816 1.390 . S
C817 C818 1.394 . S
C817 C823 1.465 . S
C818 C813 1.399 . S
C818 C817 1.394 . S
C818 C819 1.516 . S
C819 C818 1.516 . S
C819 C820 1.502 . S
C819 C821 1.561 . S
C819 C822 1.526 . S
C820 H804 0.959 . S
C820 H805 0.959 . S
C820 H806 0.961 . S
C820 C819 1.502 . S
C821 H807 0.960 . S
C821 H808 0.961 . S
C821 H809 0.959 . S
C821 C819 1.561 . S
C822 C819 1.526 . S
C822 C823 1.396 . S
C822 C827 1.390 . S
C823 C817 1.465 . S
C823 C822 1.396 . S
C823 C824 1.399 . S
C824 H810 0.929 . S
C824 C823 1.399 . S
C824 C825 1.385 . S
C825 H811 0.931 . S
C825 C824 1.385 . S
C825 C826 1.389 . S
C826 C825 1.389 . S
C826 C827 1.387 . S
C827 H812 0.930 . S
C827 C822 1.390 . S
C827 C826 1.387 . S
H828 C840 0.930 . S
H829 C842 0.930 . S
H830 C843 0.930 . S
H831 C847 0.959 . S
H832 C847 0.959 . S
H833 C847 0.961 . S
H834 C848 0.960 . S
H835 C848 0.961 . S
H836 C848 0.959 . S
H837 C851 0.929 . S
H838 C852 0.931 1_554 S
H839 C854 0.930 . S
C840 H828 0.930 . S
C840 C841 1.399 . S
C840 C845 1.399 . S
C841 C840 1.399 . S
C841 C842 1.376 . S
C842 H829 0.930 . S
C842 C841 1.376 . S
C842 C843 1.388 . S
C843 H830 0.930 . S
C843 C842 1.388 . S
C843 C844 1.390 . S
C844 C843 1.390 . S
C844 C845 1.394 . S
C844 C850 1.465 . S
C845 C840 1.399 . S
C845 C844 1.394 . S
C845 C846 1.516 . S
C846 C845 1.516 . S
C846 C847 1.502 . S
C846 C848 1.561 . S
C846 C849 1.526 . S
C847 H831 0.959 . S
C847 H832 0.959 . S
C847 H833 0.961 . S
C847 C846 1.502 . S
C848 H834 0.960 . S
C848 H835 0.961 . S
C848 H836 0.959 . S
C848 C846 1.561 . S
C849 C846 1.526 . S
C849 C850 1.396 . S
C849 C854 1.390 . S
C850 C844 1.465 . S
C850 C849 1.396 . S
C850 C851 1.399 . S
C851 H837 0.929 . S
C851 C850 1.399 . S
C851 C852 1.385 . S
C852 H838 0.931 1_556 S
C852 C851 1.385 . S
C852 C853 1.389 1_556 S
C853 C852 1.389 1_554 S
C853 C854 1.387 1_554 S
C854 H839 0.930 . S
C854 C849 1.390 . S
C854 C853 1.387 1_556 S
H855 C867 0.930 . S
H856 C869 0.930 . S
H857 C870 0.930 . S
H858 C874 0.959 . S
H859 C874 0.959 . S
H860 C874 0.961 . S
H861 C875 0.960 . S
H862 C875 0.961 . S
H863 C875 0.959 . S
H864 C878 0.929 . S
H865 C879 0.931 . S
H866 C881 0.930 . S
C867 H855 0.930 . S
C867 C868 1.399 . S
C867 C872 1.399 . S
C868 C867 1.399 . S
C868 C869 1.376 . S
C869 H856 0.930 . S
C869 C868 1.376 . S
C869 C870 1.388 . S
C870 H857 0.930 . S
C870 C869 1.388 . S
C870 C871 1.390 . S
C871 C870 1.390 . S
C871 C872 1.394 . S
C871 C877 1.465 . S
C872 C867 1.399 . S
C872 C871 1.394 . S
C872 C873 1.516 . S
C873 C872 1.516 . S
C873 C874 1.502 . S
C873 C875 1.561 . S
C873 C876 1.526 . S
C874 H858 0.959 . S
C874 H859 0.959 . S
C874 H860 0.961 . S
C874 C873 1.502 . S
C875 H861 0.960 . S
C875 H862 0.961 . S
C875 H863 0.959 . S
C875 C873 1.561 . S
C876 C873 1.526 . S
C876 C877 1.396 . S
C876 C881 1.390 . S
C877 C871 1.465 . S
C877 C876 1.396 . S
C877 C878 1.399 . S
C878 H864 0.929 . S
C878 C877 1.399 . S
C878 C879 1.385 . S
C879 H865 0.931 . S
C879 C878 1.385 . S
C879 C880 1.389 . S
C880 C879 1.389 . S
C880 C881 1.387 . S
C881 H866 0.930 . S
C881 C876 1.390 . S
C881 C880 1.387 . S
H882 C894 0.930 . S
H883 C896 0.930 . S
H884 C897 0.930 . S
H885 C901 0.959 . S
H886 C901 0.959 . S
H887 C901 0.961 . S
H888 C902 0.960 . S
H889 C902 0.961 . S
H890 C902 0.959 . S
H891 C905 0.929 . S
H892 C906 0.931 . S
H893 C908 0.930 . S
C894 H882 0.930 . S
C894 C895 1.399 . S
C894 C899 1.399 . S
C895 C894 1.399 . S
C895 C896 1.376 . S
C896 H883 0.930 . S
C896 C895 1.376 . S
C896 C897 1.388 . S
C897 H884 0.930 . S
C897 C896 1.388 . S
C897 C898 1.390 . S
C898 C897 1.390 . S
C898 C899 1.394 . S
C898 C904 1.465 . S
C899 C894 1.399 . S
C899 C898 1.394 . S
C899 C900 1.516 . S
C900 C899 1.516 . S
C900 C901 1.502 . S
C900 C902 1.561 . S
C900 C903 1.526 . S
C901 H885 0.959 . S
C901 H886 0.959 . S
C901 H887 0.961 . S
C901 C900 1.502 . S
C902 H888 0.960 . S
C902 H889 0.961 . S
C902 H890 0.959 . S
C902 C900 1.561 . S
C903 C900 1.526 . S
C903 C904 1.396 . S
C903 C908 1.390 . S
C904 C898 1.465 . S
C904 C903 1.396 . S
C904 C905 1.399 . S
C905 H891 0.929 . S
C905 C904 1.399 . S
C905 C906 1.385 . S
C906 H892 0.931 . S
C906 C905 1.385 . S
C906 C907 1.389 . S
C907 C906 1.389 . S
C907 C908 1.387 . S
C908 H893 0.930 . S
C908 C903 1.390 . S
C908 C907 1.387 . S
H909 C921 0.930 . S
H910 C923 0.930 . S
H911 C924 0.930 . S
H912 C928 0.959 . S
H913 C928 0.959 . S
H914 C928 0.961 . S
H915 C929 0.960 . S
H916 C929 0.961 . S
H917 C929 0.959 . S
H918 C932 0.929 . S
H919 C933 0.931 1_556 S
H920 C935 0.930 . S
C921 H909 0.930 . S
C921 C922 1.399 . S
C921 C926 1.399 . S
C922 C921 1.399 . S
C922 C923 1.376 . S
C923 H910 0.930 . S
C923 C922 1.376 . S
C923 C924 1.388 . S
C924 H911 0.930 . S
C924 C923 1.388 . S
C924 C925 1.390 . S
C925 C924 1.390 . S
C925 C926 1.394 . S
C925 C931 1.465 . S
C926 C921 1.399 . S
C926 C925 1.394 . S
C926 C927 1.516 . S
C927 C926 1.516 . S
C927 C928 1.502 . S
C927 C929 1.561 . S
C927 C930 1.526 . S
C928 H912 0.959 . S
C928 H913 0.959 . S
C928 H914 0.961 . S
C928 C927 1.502 . S
C929 H915 0.960 . S
C929 H916 0.961 . S
C929 H917 0.959 . S
C929 C927 1.561 . S
C930 C927 1.526 . S
C930 C931 1.396 . S
C930 C935 1.390 . S
C931 C925 1.465 . S
C931 C930 1.396 . S
C931 C932 1.399 . S
C932 H918 0.929 . S
C932 C931 1.399 . S
C932 C933 1.385 . S
C933 H919 0.931 1_554 S
C933 C932 1.385 . S
C933 C934 1.389 1_554 S
C934 C933 1.389 1_556 S
C934 C935 1.387 1_556 S
C935 H920 0.930 . S
C935 C930 1.390 . S
C935 C934 1.387 1_554 S
H936 C948 0.930 . S
H937 C950 0.930 . S
H938 C951 0.930 . S
H939 C955 0.959 . S
H940 C955 0.959 . S
H941 C955 0.961 . S
H942 C956 0.960 . S
H943 C956 0.961 . S
H944 C956 0.959 . S
H945 C959 0.929 . S
H946 C960 0.931 . S
H947 C962 0.930 . S
C948 H936 0.930 . S
C948 C949 1.399 . S
C948 C953 1.399 . S
C949 C948 1.399 . S
C949 C950 1.376 . S
C950 H937 0.930 . S
C950 C949 1.376 . S
C950 C951 1.388 . S
C951 H938 0.930 . S
C951 C950 1.388 . S
C951 C952 1.390 . S
C952 C951 1.390 . S
C952 C953 1.394 . S
C952 C958 1.465 . S
C953 C948 1.399 . S
C953 C952 1.394 . S
C953 C954 1.516 . S
C954 C953 1.516 . S
C954 C955 1.502 . S
C954 C956 1.561 . S
C954 C957 1.526 . S
C955 H939 0.959 . S
C955 H940 0.959 . S
C955 H941 0.961 . S
C955 C954 1.502 . S
C956 H942 0.960 . S
C956 H943 0.961 . S
C956 H944 0.959 . S
C956 C954 1.561 . S
C957 C954 1.526 . S
C957 C958 1.396 . S
C957 C962 1.390 . S
C958 C952 1.465 . S
C958 C957 1.396 . S
C958 C959 1.399 . S
C959 H945 0.929 . S
C959 C958 1.399 . S
C959 C960 1.385 . S
C960 H946 0.931 . S
C960 C959 1.385 . S
C960 C961 1.389 . S
C961 C960 1.389 . S
C961 C962 1.387 . S
C962 H947 0.930 . S
C962 C957 1.390 . S
C962 C961 1.387 . S
H963 C975 0.930 . S
H964 C977 0.930 . S
H965 C978 0.930 . S
H966 C982 0.959 . S
H967 C982 0.959 . S
H968 C982 0.961 . S
H969 C983 0.960 . S
H970 C983 0.961 . S
H971 C983 0.959 . S
H972 C986 0.929 . S
H973 C987 0.931 . S
H974 C989 0.930 . S
C975 H963 0.930 . S
C975 C976 1.399 1_554 S
C975 C980 1.399 . S
C976 C975 1.399 1_556 S
C976 C977 1.376 . S
C977 H964 0.930 . S
C977 C976 1.376 . S
C977 C978 1.388 1_556 S
C978 H965 0.930 . S
C978 C977 1.388 1_554 S
C978 C979 1.390 . S
C979 C978 1.390 . S
C979 C980 1.394 . S
C979 C985 1.465 . S
C980 C975 1.399 . S
C980 C979 1.394 . S
C980 C981 1.516 . S
C981 C980 1.516 . S
C981 C982 1.502 . S
C981 C983 1.561 . S
C981 C984 1.526 . S
C982 H966 0.959 . S
C982 H967 0.959 . S
C982 H968 0.961 . S
C982 C981 1.502 . S
C983 H969 0.960 . S
C983 H970 0.961 . S
C983 H971 0.959 . S
C983 C981 1.561 . S
C984 C981 1.526 . S
C984 C985 1.396 . S
C984 C989 1.390 . S
C985 C979 1.465 . S
C985 C984 1.396 . S
C985 C986 1.399 . S
C986 H972 0.929 . S
C986 C985 1.399 . S
C986 C987 1.385 . S
C987 H973 0.931 . S
C987 C986 1.385 . S
C987 C988 1.389 . S
C988 C987 1.389 . S
C988 C989 1.387 . S
C989 H974 0.930 . S
C989 C984 1.390 . S
C989 C988 1.387 . S
H990 C1002 0.930 . S
H991 C1004 0.930 . S
H992 C1005 0.930 . S
H993 C1009 0.959 . S
H994 C1009 0.959 . S
H995 C1009 0.961 . S
H996 C1010 0.960 . S
H997 C1010 0.961 . S
H998 C1010 0.959 . S
H999 C1013 0.929 . S
H1000 C1014 0.931 . S
H1001 C1016 0.930 . S
C1002 H990 0.930 . S
C1002 C1003 1.399 . S
C1002 C1007 1.399 . S
C1003 C1002 1.399 . S
C1003 C1004 1.376 . S
C1004 H991 0.930 . S
C1004 C1003 1.376 . S
C1004 C1005 1.388 . S
C1005 H992 0.930 . S
C1005 C1004 1.388 . S
C1005 C1006 1.390 . S
C1006 C1005 1.390 . S
C1006 C1007 1.394 . S
C1006 C1012 1.465 . S
C1007 C1002 1.399 . S
C1007 C1006 1.394 . S
C1007 C1008 1.516 . S
C1008 C1007 1.516 . S
C1008 C1009 1.502 . S
C1008 C1010 1.561 . S
C1008 C1011 1.526 . S
C1009 H993 0.959 . S
C1009 H994 0.959 . S
C1009 H995 0.961 . S
C1009 C1008 1.502 . S
C1010 H996 0.960 . S
C1010 H997 0.961 . S
C1010 H998 0.959 . S
C1010 C1008 1.561 . S
C1011 C1008 1.526 . S
C1011 C1012 1.396 . S
C1011 C1016 1.390 . S
C1012 C1006 1.465 . S
C1012 C1011 1.396 . S
C1012 C1013 1.399 . S
C1013 H999 0.929 . S
C1013 C1012 1.399 . S
C1013 C1014 1.385 . S
C1014 H1000 0.931 . S
C1014 C1013 1.385 . S
C1014 C1015 1.389 . S
C1015 C1014 1.389 . S
C1015 C1016 1.387 . S
C1016 H1001 0.930 . S
C1016 C1011 1.390 . S
C1016 C1015 1.387 . S
H1017 C1029 0.930 . S
H1018 C1031 0.930 . S
H1019 C1032 0.930 . S
H1020 C1036 0.959 . S
H1021 C1036 0.959 . S
H1022 C1036 0.961 . S
H1023 C1037 0.960 . S
H1024 C1037 0.961 . S
H1025 C1037 0.959 . S
H1026 C1040 0.929 . S
H1027 C1041 0.931 1_556 S
H1028 C1043 0.930 . S
C1029 H1017 0.930 . S
C1029 C1030 1.399 . S
C1029 C1034 1.399 . S
C1030 C1029 1.399 . S
C1030 C1031 1.376 . S
C1031 H1018 0.930 . S
C1031 C1030 1.376 . S
C1031 C1032 1.388 . S
C1032 H1019 0.930 . S
C1032 C1031 1.388 . S
C1032 C1033 1.390 . S
C1033 C1032 1.390 . S
C1033 C1034 1.394 . S
C1033 C1039 1.465 . S
C1034 C1029 1.399 . S
C1034 C1033 1.394 . S
C1034 C1035 1.516 . S
C1035 C1034 1.516 . S
C1035 C1036 1.502 . S
C1035 C1037 1.561 . S
C1035 C1038 1.526 . S
C1036 H1020 0.959 . S
C1036 H1021 0.959 . S
C1036 H1022 0.961 . S
C1036 C1035 1.502 . S
C1037 H1023 0.960 . S
C1037 H1024 0.961 . S
C1037 H1025 0.959 . S
C1037 C1035 1.561 . S
C1038 C1035 1.526 . S
C1038 C1039 1.396 . S
C1038 C1043 1.390 . S
C1039 C1033 1.465 . S
C1039 C1038 1.396 . S
C1039 C1040 1.399 . S
C1040 H1026 0.929 . S
C1040 C1039 1.399 . S
C1040 C1041 1.385 . S
C1041 H1027 0.931 1_554 S
C1041 C1040 1.385 . S
C1041 C1042 1.389 1_554 S
C1042 C1041 1.389 1_556 S
C1042 C1043 1.387 1_556 S
C1043 H1028 0.930 . S
C1043 C1038 1.390 . S
C1043 C1042 1.387 1_554 S
H1044 C1056 0.930 . S
H1045 C1058 0.930 . S
H1046 C1059 0.930 . S
H1047 C1063 0.959 . S
H1048 C1063 0.959 . S
H1049 C1063 0.961 . S
H1050 C1064 0.960 . S
H1051 C1064 0.961 . S
H1052 C1064 0.959 . S
H1053 C1067 0.929 . S
H1054 C1068 0.931 . S
H1055 C1070 0.930 . S
C1056 H1044 0.930 . S
C1056 C1057 1.399 . S
C1056 C1061 1.399 . S
C1057 C1056 1.399 . S
C1057 C1058 1.376 . S
C1058 H1045 0.930 . S
C1058 C1057 1.376 . S
C1058 C1059 1.388 . S
C1059 H1046 0.930 . S
C1059 C1058 1.388 . S
C1059 C1060 1.390 . S
C1060 C1059 1.390 . S
C1060 C1061 1.394 . S
C1060 C1066 1.465 . S
C1061 C1056 1.399 . S
C1061 C1060 1.394 . S
C1061 C1062 1.516 . S
C1062 C1061 1.516 . S
C1062 C1063 1.502 . S
C1062 C1064 1.561 . S
C1062 C1065 1.526 . S
C1063 H1047 0.959 . S
C1063 H1048 0.959 . S
C1063 H1049 0.961 . S
C1063 C1062 1.502 . S
C1064 H1050 0.960 . S
C1064 H1051 0.961 . S
C1064 H1052 0.959 . S
C1064 C1062 1.561 . S
C1065 C1062 1.526 . S
C1065 C1066 1.396 . S
C1065 C1070 1.390 . S
C1066 C1060 1.465 . S
C1066 C1065 1.396 . S
C1066 C1067 1.399 . S
C1067 H1053 0.929 . S
C1067 C1066 1.399 . S
C1067 C1068 1.385 . S
C1068 H1054 0.931 . S
C1068 C1067 1.385 . S
C1068 C1069 1.389 . S
C1069 C1068 1.389 . S
C1069 C1070 1.387 . S
C1070 H1055 0.930 . S
C1070 C1065 1.390 . S
C1070 C1069 1.387 . S
H1071 C1083 0.930 . S
H1072 C1085 0.930 . S
H1073 C1086 0.930 . S
H1074 C1090 0.959 . S
H1075 C1090 0.959 . S
H1076 C1090 0.961 . S
H1077 C1091 0.960 . S
H1078 C1091 0.961 . S
H1079 C1091 0.959 . S
H1080 C1094 0.929 . S
H1081 C1095 0.931 . S
H1082 C1097 0.930 . S
C1083 H1071 0.930 . S
C1083 C1084 1.399 . S
C1083 C1088 1.399 . S
C1084 C1083 1.399 . S
C1084 C1085 1.376 . S
C1085 H1072 0.930 . S
C1085 C1084 1.376 . S
C1085 C1086 1.388 . S
C1086 H1073 0.930 . S
C1086 C1085 1.388 . S
C1086 C1087 1.390 . S
C1087 C1086 1.390 . S
C1087 C1088 1.394 . S
C1087 C1093 1.465 . S
C1088 C1083 1.399 . S
C1088 C1087 1.394 . S
C1088 C1089 1.516 . S
C1089 C1088 1.516 . S
C1089 C1090 1.502 . S
C1089 C1091 1.561 . S
C1089 C1092 1.526 . S
C1090 H1074 0.959 . S
C1090 H1075 0.959 . S
C1090 H1076 0.961 . S
C1090 C1089 1.502 . S
C1091 H1077 0.960 . S
C1091 H1078 0.961 . S
C1091 H1079 0.959 . S
C1091 C1089 1.561 . S
C1092 C1089 1.526 . S
C1092 C1093 1.396 . S
C1092 C1097 1.390 . S
C1093 C1087 1.465 . S
C1093 C1092 1.396 . S
C1093 C1094 1.399 . S
C1094 H1080 0.929 . S
C1094 C1093 1.399 . S
C1094 C1095 1.385 . S
C1095 H1081 0.931 . S
C1095 C1094 1.385 . S
C1095 C1096 1.389 . S
C1096 C1095 1.389 . S
C1096 C1097 1.387 . S
C1097 H1082 0.930 . S
C1097 C1092 1.390 . S
C1097 C1096 1.387 . S
H1098 C1110 0.930 . S
H1099 C1112 0.930 . S
H1100 C1113 0.930 . S
H1101 C1117 0.959 . S
H1102 C1117 0.959 . S
H1103 C1117 0.961 . S
H1104 C1118 0.960 . S
H1105 C1118 0.961 . S
H1106 C1118 0.959 . S
H1107 C1121 0.929 . S
H1108 C1122 0.931 . S
H1109 C1124 0.930 . S
C1110 H1098 0.930 . S
C1110 C1111 1.399 . S
C1110 C1115 1.399 . S
C1111 C1110 1.399 . S
C1111 C1112 1.376 . S
C1112 H1099 0.930 . S
C1112 C1111 1.376 . S
C1112 C1113 1.388 . S
C1113 H1100 0.930 . S
C1113 C1112 1.388 . S
C1113 C1114 1.390 . S
C1114 C1113 1.390 . S
C1114 C1115 1.394 . S
C1114 C1120 1.465 . S
C1115 C1110 1.399 . S
C1115 C1114 1.394 . S
C1115 C1116 1.516 . S
C1116 C1115 1.516 . S
C1116 C1117 1.502 . S
C1116 C1118 1.561 . S
C1116 C1119 1.526 . S
C1117 H1101 0.959 . S
C1117 H1102 0.959 . S
C1117 H1103 0.961 . S
C1117 C1116 1.502 . S
C1118 H1104 0.960 . S
C1118 H1105 0.961 . S
C1118 H1106 0.959 . S
C1118 C1116 1.561 . S
C1119 C1116 1.526 . S
C1119 C1120 1.396 . S
C1119 C1124 1.390 . S
C1120 C1114 1.465 . S
C1120 C1119 1.396 . S
C1120 C1121 1.399 . S
C1121 H1107 0.929 . S
C1121 C1120 1.399 . S
C1121 C1122 1.385 . S
C1122 H1108 0.931 . S
C1122 C1121 1.385 . S
C1122 C1123 1.389 . S
C1123 C1122 1.389 . S
C1123 C1124 1.387 . S
C1124 H1109 0.930 . S
C1124 C1119 1.390 . S
C1124 C1123 1.387 . S
H1125 C1137 0.930 . S
H1126 C1139 0.930 . S
H1127 C1140 0.930 . S
H1128 C1144 0.959 . S
H1129 C1144 0.959 . S
H1130 C1144 0.961 . S
H1131 C1145 0.960 . S
H1132 C1145 0.961 . S
H1133 C1145 0.959 . S
H1134 C1148 0.929 . S
H1135 C1149 0.931 . S
H1136 C1151 0.930 . S
C1137 H1125 0.930 . S
C1137 C1138 1.399 . S
C1137 C1142 1.399 . S
C1138 C1137 1.399 . S
C1138 C1139 1.376 . S
C1139 H1126 0.930 . S
C1139 C1138 1.376 . S
C1139 C1140 1.388 . S
C1140 H1127 0.930 . S
C1140 C1139 1.388 . S
C1140 C1141 1.390 . S
C1141 C1140 1.390 . S
C1141 C1142 1.394 . S
C1141 C1147 1.465 . S
C1142 C1137 1.399 . S
C1142 C1141 1.394 . S
C1142 C1143 1.516 . S
C1143 C1142 1.516 . S
C1143 C1144 1.502 . S
C1143 C1145 1.561 . S
C1143 C1146 1.526 . S
C1144 H1128 0.959 . S
C1144 H1129 0.959 . S
C1144 H1130 0.961 . S
C1144 C1143 1.502 . S
C1145 H1131 0.960 . S
C1145 H1132 0.961 . S
C1145 H1133 0.959 . S
C1145 C1143 1.561 . S
C1146 C1143 1.526 . S
C1146 C1147 1.396 . S
C1146 C1151 1.390 . S
C1147 C1141 1.465 . S
C1147 C1146 1.396 . S
C1147 C1148 1.399 . S
C1148 H1134 0.929 . S
C1148 C1147 1.399 . S
C1148 C1149 1.385 . S
C1149 H1135 0.931 . S
C1149 C1148 1.385 . S
C1149 C1150 1.389 . S
C1150 C1149 1.389 . S
C1150 C1151 1.387 . S
C1151 H1136 0.930 . S
C1151 C1146 1.390 . S
C1151 C1150 1.387 . S
H1152 C1164 0.930 . S
H1153 C1166 0.930 . S
H1154 C1167 0.930 . S
H1155 C1171 0.959 . S
H1156 C1171 0.959 . S
H1157 C1171 0.961 . S
H1158 C1172 0.960 . S
H1159 C1172 0.961 . S
H1160 C1172 0.959 . S
H1161 C1175 0.929 . S
H1162 C1176 0.931 . S
H1163 C1178 0.930 . S
C1164 H1152 0.930 . S
C1164 C1165 1.399 . S
C1164 C1169 1.399 . S
C1165 C1164 1.399 . S
C1165 C1166 1.376 . S
C1166 H1153 0.930 . S
C1166 C1165 1.376 . S
C1166 C1167 1.388 . S
C1167 H1154 0.930 . S
C1167 C1166 1.388 . S
C1167 C1168 1.390 . S
C1168 C1167 1.390 . S
C1168 C1169 1.394 . S
C1168 C1174 1.465 . S
C1169 C1164 1.399 . S
C1169 C1168 1.394 . S
C1169 C1170 1.516 . S
C1170 C1169 1.516 . S
C1170 C1171 1.502 . S
C1170 C1172 1.561 . S
C1170 C1173 1.526 . S
C1171 H1155 0.959 . S
C1171 H1156 0.959 . S
C1171 H1157 0.961 . S
C1171 C1170 1.502 . S
C1172 H1158 0.960 . S
C1172 H1159 0.961 . S
C1172 H1160 0.959 . S
C1172 C1170 1.561 . S
C1173 C1170 1.526 . S
C1173 C1174 1.396 . S
C1173 C1178 1.390 . S
C1174 C1168 1.465 . S
C1174 C1173 1.396 . S
C1174 C1175 1.399 . S
C1175 H1161 0.929 . S
C1175 C1174 1.399 . S
C1175 C1176 1.385 . S
C1176 H1162 0.931 . S
C1176 C1175 1.385 . S
C1176 C1177 1.389 . S
C1177 C1176 1.389 . S
C1177 C1178 1.387 . S
C1178 H1163 0.930 . S
C1178 C1173 1.390 . S
C1178 C1177 1.387 . S
H1179 C1191 0.930 . S
H1180 C1193 0.930 . S
H1181 C1194 0.930 . S
H1182 C1198 0.959 . S
H1183 C1198 0.959 . S
H1184 C1198 0.961 . S
H1185 C1199 0.960 . S
H1186 C1199 0.961 . S
H1187 C1199 0.959 . S
H1188 C1202 0.929 . S
H1189 C1203 0.931 . S
H1190 C1205 0.930 . S
C1191 H1179 0.930 . S
C1191 C1192 1.399 . S
C1191 C1196 1.399 . S
C1192 C1191 1.399 . S
C1192 C1193 1.376 . S
C1193 H1180 0.930 . S
C1193 C1192 1.376 . S
C1193 C1194 1.388 . S
C1194 H1181 0.930 . S
C1194 C1193 1.388 . S
C1194 C1195 1.390 . S
C1195 C1194 1.390 . S
C1195 C1196 1.394 . S
C1195 C1201 1.465 . S
C1196 C1191 1.399 . S
C1196 C1195 1.394 . S
C1196 C1197 1.516 . S
C1197 C1196 1.516 . S
C1197 C1198 1.502 . S
C1197 C1199 1.561 . S
C1197 C1200 1.526 . S
C1198 H1182 0.959 . S
C1198 H1183 0.959 . S
C1198 H1184 0.961 . S
C1198 C1197 1.502 . S
C1199 H1185 0.960 . S
C1199 H1186 0.961 . S
C1199 H1187 0.959 . S
C1199 C1197 1.561 . S
C1200 C1197 1.526 . S
C1200 C1201 1.396 . S
C1200 C1205 1.390 . S
C1201 C1195 1.465 . S
C1201 C1200 1.396 . S
C1201 C1202 1.399 . S
C1202 H1188 0.929 . S
C1202 C1201 1.399 . S
C1202 C1203 1.385 . S
C1203 H1189 0.931 . S
C1203 C1202 1.385 . S
C1203 C1204 1.389 . S
C1204 C1203 1.389 . S
C1204 C1205 1.387 . S
C1205 H1190 0.930 . S
C1205 C1200 1.390 . S
C1205 C1204 1.387 . S
C409 C8 1.189 . S
C421 C371 1.160 . S
C436 C41 1.136 . S
C448 C206 1.120 . S
C463 C239 1.150 . S
C475 C74 1.181 . S
C490 C272 1.192 . S
C502 C107 1.164 . S
C517 C305 1.202 . S
C529 C140 1.184 . S
C544 C173 1.172 . S
C556 C338 1.196 . S
C571 C281 1.590 . S
C583 C17 1.595 . S
C598 C314 1.587 . S
C610 C50 1.604 . S
C625 C83 1.603 . S
C637 C347 1.588 . S
C652 C116 1.612 . S
C664 C380 1.590 . S
C679 C215 1.594 . S
C691 C149 1.590 . S
C706 C182 1.608 . S
C718 C248 1.616 . S
C733 N14 1.330 . S
C745 N5 1.362 . S
C760 N38 1.343 . S
C772 N47 1.364 . S
C787 N80 1.332 . S
C799 N71 1.357 . S
C814 N104 1.338 . S
C826 N113 1.351 . S
C841 N146 1.335 . S
C853 N137 1.368 . S
C868 N170 1.369 . S
C880 N179 1.332 . S
C895 N203 1.333 . S
C907 N212 1.369 . S
C922 N245 1.369 . S
C934 N236 1.335 . S
C949 N269 1.331 . S
C961 N278 1.367 . S
C976 N302 1.357 . S
C988 N311 1.333 . S
C1003 N344 1.328 . S
C1015 N335 1.365 . S
C1030 N377 1.352 . S
C1042 N368 1.357 . S
C1057 C28 1.234 . S
C1069 C358 1.233 . S
C1084 C391 1.240 . S
C1096 C61 1.251 . S
C1111 C226 1.232 . S
C1123 C94 1.237 . S
C1138 C127 1.247 . S
C1150 C259 1.253 . S
C1165 C160 1.238 . S
C1177 C292 1.249 . S
C1192 C193 1.250 . S
C1204 C325 1.239 . S
