# Generated by pormake.
# Topology mer, (4)-cn, num edge types: 1
# Building blocks:
#     Node 0, Type 0, BuildingBlock: GALJAG_clean_sbu_0, # of connection points: 4
#     Node 1, Type 0, BuildingBlock: GALJAG_clean_sbu_0, # of connection points: 4
#     Node 2, Type 0, BuildingBlock: GALJAG_clean_sbu_0, # of connection points: 4
#     Node 3, Type 0, BuildingBlock: GALJAG_clean_sbu_0, # of connection points: 4
#     Node 4, Type 0, BuildingBlock: GALJAG_clean_sbu_0, # of connection points: 4
#     Node 5, Type 0, BuildingBlock: GALJAG_clean_sbu_0, # of connection points: 4
#     Node 6, Type 0, BuildingBlock: GALJAG_clean_sbu_0, # of connection points: 4
#     Node 7, Type 0, BuildingBlock: GALJAG_clean_sbu_0, # of connection points: 4
#     Node 8, Type 0, BuildingBlock: GALJAG_clean_sbu_0, # of connection points: 4
#     Node 9, Type 0, BuildingBlock: GALJAG_clean_sbu_0, # of connection points: 4
#     Node 10, Type 0, BuildingBlock: GALJAG_clean_sbu_0, # of connection points: 4
#     Node 11, Type 0, BuildingBlock: GALJAG_clean_sbu_0, # of connection points: 4
#     Node 12, Type 0, BuildingBlock: GALJAG_clean_sbu_0, # of connection points: 4
#     Node 13, Type 0, BuildingBlock: GALJAG_clean_sbu_0, # of connection points: 4
#     Node 14, Type 0, BuildingBlock: GALJAG_clean_sbu_0, # of connection points: 4
#     Node 15, Type 0, BuildingBlock: GALJAG_clean_sbu_0, # of connection points: 4
#     Node 16, Type 0, BuildingBlock: GALJAG_clean_sbu_0, # of connection points: 4
#     Node 17, Type 0, BuildingBlock: GALJAG_clean_sbu_0, # of connection points: 4
#     Node 18, Type 0, BuildingBlock: GALJAG_clean_sbu_0, # of connection points: 4
#     Node 19, Type 0, BuildingBlock: GALJAG_clean_sbu_0, # of connection points: 4
#     Node 20, Type 0, BuildingBlock: GALJAG_clean_sbu_0, # of connection points: 4
#     Node 21, Type 0, BuildingBlock: GALJAG_clean_sbu_0, # of connection points: 4
#     Node 22, Type 0, BuildingBlock: GALJAG_clean_sbu_0, # of connection points: 4
#     Node 23, Type 0, BuildingBlock: GALJAG_clean_sbu_0, # of connection points: 4
#     Node 24, Type 0, BuildingBlock: GALJAG_clean_sbu_0, # of connection points: 4
#     Node 25, Type 0, BuildingBlock: GALJAG_clean_sbu_0, # of connection points: 4
#     Node 26, Type 0, BuildingBlock: GALJAG_clean_sbu_0, # of connection points: 4
#     Node 27, Type 0, BuildingBlock: GALJAG_clean_sbu_0, # of connection points: 4
#     Node 28, Type 0, BuildingBlock: GALJAG_clean_sbu_0, # of connection points: 4
#     Node 29, Type 0, BuildingBlock: GALJAG_clean_sbu_0, # of connection points: 4
#     Node 30, Type 0, BuildingBlock: GALJAG_clean_sbu_0, # of connection points: 4
#     Node 31, Type 0, BuildingBlock: GALJAG_clean_sbu_0, # of connection points: 4
#     Edge 32, Type (0, 0), BuildingBlock: XUDNAN_clean_linker_2, # of connection points: 2
#     Edge 33, Type (0, 0), BuildingBlock: XUDNAN_clean_linker_2, # of connection points: 2
#     Edge 34, Type (0, 0), BuildingBlock: XUDNAN_clean_linker_2, # of connection points: 2
#     Edge 35, Type (0, 0), BuildingBlock: XUDNAN_clean_linker_2, # of connection points: 2
#     Edge 36, Type (0, 0), BuildingBlock: XUDNAN_clean_linker_2, # of connection points: 2
#     Edge 37, Type (0, 0), BuildingBlock: XUDNAN_clean_linker_2, # of connection points: 2
#     Edge 38, Type (0, 0), BuildingBlock: XUDNAN_clean_linker_2, # of connection points: 2
#     Edge 39, Type (0, 0), BuildingBlock: XUDNAN_clean_linker_2, # of connection points: 2
#     Edge 40, Type (0, 0), BuildingBlock: XUDNAN_clean_linker_2, # of connection points: 2
#     Edge 41, Type (0, 0), BuildingBlock: XUDNAN_clean_linker_2, # of connection points: 2
#     Edge 42, Type (0, 0), BuildingBlock: XUDNAN_clean_linker_2, # of connection points: 2
#     Edge 43, Type (0, 0), BuildingBlock: XUDNAN_clean_linker_2, # of connection points: 2
#     Edge 44, Type (0, 0), BuildingBlock: XUDNAN_clean_linker_2, # of connection points: 2
#     Edge 45, Type (0, 0), BuildingBlock: XUDNAN_clean_linker_2, # of connection points: 2
#     Edge 46, Type (0, 0), BuildingBlock: XUDNAN_clean_linker_2, # of connection points: 2
#     Edge 47, Type (0, 0), BuildingBlock: XUDNAN_clean_linker_2, # of connection points: 2
#     Edge 48, Type (0, 0), BuildingBlock: XUDNAN_clean_linker_2, # of connection points: 2
#     Edge 49, Type (0, 0), BuildingBlock: XUDNAN_clean_linker_2, # of connection points: 2
#     Edge 50, Type (0, 0), BuildingBlock: XUDNAN_clean_linker_2, # of connection points: 2
#     Edge 51, Type (0, 0), BuildingBlock: XUDNAN_clean_linker_2, # of connection points: 2
#     Edge 52, Type (0, 0), BuildingBlock: XUDNAN_clean_linker_2, # of connection points: 2
#     Edge 53, Type (0, 0), BuildingBlock: XUDNAN_clean_linker_2, # of connection points: 2
#     Edge 54, Type (0, 0), BuildingBlock: XUDNAN_clean_linker_2, # of connection points: 2
#     Edge 55, Type (0, 0), BuildingBlock: XUDNAN_clean_linker_2, # of connection points: 2
#     Edge 56, Type (0, 0), BuildingBlock: XUDNAN_clean_linker_2, # of connection points: 2
#     Edge 57, Type (0, 0), BuildingBlock: XUDNAN_clean_linker_2, # of connection points: 2
#     Edge 58, Type (0, 0), BuildingBlock: XUDNAN_clean_linker_2, # of connection points: 2
#     Edge 59, Type (0, 0), BuildingBlock: XUDNAN_clean_linker_2, # of connection points: 2
#     Edge 60, Type (0, 0), BuildingBlock: XUDNAN_clean_linker_2, # of connection points: 2
#     Edge 61, Type (0, 0), BuildingBlock: XUDNAN_clean_linker_2, # of connection points: 2
#     Edge 62, Type (0, 0), BuildingBlock: XUDNAN_clean_linker_2, # of connection points: 2
#     Edge 63, Type (0, 0), BuildingBlock: XUDNAN_clean_linker_2, # of connection points: 2
#     Edge 64, Type (0, 0), BuildingBlock: XUDNAN_clean_linker_2, # of connection points: 2
#     Edge 65, Type (0, 0), BuildingBlock: XUDNAN_clean_linker_2, # of connection points: 2
#     Edge 66, Type (0, 0), BuildingBlock: XUDNAN_clean_linker_2, # of connection points: 2
#     Edge 67, Type (0, 0), BuildingBlock: XUDNAN_clean_linker_2, # of connection points: 2
#     Edge 68, Type (0, 0), BuildingBlock: XUDNAN_clean_linker_2, # of connection points: 2
#     Edge 69, Type (0, 0), BuildingBlock: XUDNAN_clean_linker_2, # of connection points: 2
#     Edge 70, Type (0, 0), BuildingBlock: XUDNAN_clean_linker_2, # of connection points: 2
#     Edge 71, Type (0, 0), BuildingBlock: XUDNAN_clean_linker_2, # of connection points: 2
#     Edge 72, Type (0, 0), BuildingBlock: XUDNAN_clean_linker_2, # of connection points: 2
#     Edge 73, Type (0, 0), BuildingBlock: XUDNAN_clean_linker_2, # of connection points: 2
#     Edge 74, Type (0, 0), BuildingBlock: XUDNAN_clean_linker_2, # of connection points: 2
#     Edge 75, Type (0, 0), BuildingBlock: XUDNAN_clean_linker_2, # of connection points: 2
#     Edge 76, Type (0, 0), BuildingBlock: XUDNAN_clean_linker_2, # of connection points: 2
#     Edge 77, Type (0, 0), BuildingBlock: XUDNAN_clean_linker_2, # of connection points: 2
#     Edge 78, Type (0, 0), BuildingBlock: XUDNAN_clean_linker_2, # of connection points: 2
#     Edge 79, Type (0, 0), BuildingBlock: XUDNAN_clean_linker_2, # of connection points: 2
#     Edge 80, Type (0, 0), BuildingBlock: XUDNAN_clean_linker_2, # of connection points: 2
#     Edge 81, Type (0, 0), BuildingBlock: XUDNAN_clean_linker_2, # of connection points: 2
#     Edge 82, Type (0, 0), BuildingBlock: XUDNAN_clean_linker_2, # of connection points: 2
#     Edge 83, Type (0, 0), BuildingBlock: XUDNAN_clean_linker_2, # of connection points: 2
#     Edge 84, Type (0, 0), BuildingBlock: XUDNAN_clean_linker_2, # of connection points: 2
#     Edge 85, Type (0, 0), BuildingBlock: XUDNAN_clean_linker_2, # of connection points: 2
#     Edge 86, Type (0, 0), BuildingBlock: XUDNAN_clean_linker_2, # of connection points: 2
#     Edge 87, Type (0, 0), BuildingBlock: XUDNAN_clean_linker_2, # of connection points: 2
#     Edge 88, Type (0, 0), BuildingBlock: XUDNAN_clean_linker_2, # of connection points: 2
#     Edge 89, Type (0, 0), BuildingBlock: XUDNAN_clean_linker_2, # of connection points: 2
#     Edge 90, Type (0, 0), BuildingBlock: XUDNAN_clean_linker_2, # of connection points: 2
#     Edge 91, Type (0, 0), BuildingBlock: XUDNAN_clean_linker_2, # of connection points: 2
#     Edge 92, Type (0, 0), BuildingBlock: XUDNAN_clean_linker_2, # of connection points: 2
#     Edge 93, Type (0, 0), BuildingBlock: XUDNAN_clean_linker_2, # of connection points: 2
#     Edge 94, Type (0, 0), BuildingBlock: XUDNAN_clean_linker_2, # of connection points: 2
#     Edge 95, Type (0, 0), BuildingBlock: XUDNAN_clean_linker_2, # of connection points: 2
# Relax obj value: 0.054
# Max RMSD: 0.080
# Mean RMSD: 0.080
data_MOF--net-mer--node1-GALJAG_clean_sbu_0--edge1-XUDNAN_clean_linker_2
_symmetry_space_group_name_H-M    P1
_symmetry_Int_Tables_number       1
_symmetry_cell_setting            triclinic
loop_
_symmetry_equiv_pos_as_xyz
'x, y, z'
_cell_length_a     63.640859
_cell_length_b     63.650387
_cell_length_c     54.359498
_cell_angle_alpha  89.990684
_cell_angle_beta   89.994272
_cell_angle_gamma 90.00016
loop_
_atom_site_label
_atom_site_type_symbol
_atom_site_fract_x
_atom_site_fract_y
_atom_site_fract_z
_atom_type_partial_charge
In0 In 0.11566 0.27466 0.3579 0.0
O1 O 0.13225 0.29915 0.33382 0.0
O2 O 0.11196 0.27701 0.31659 0.0
C3 C 0.124 0.28591 0.40466 0.0
C4 C 0.13864 0.23933 0.35399 0.0
C5 C 0.07407 0.28156 0.36006 0.0
O6 O 0.1293 0.2973 0.38661 0.0
O7 O 0.11502 0.26893 0.39892 0.0
O8 O 0.08148 0.26323 0.3575 0.0
O9 O 0.08761 0.29599 0.36129 0.0
C10 C 0.12408 0.29254 0.31406 0.0
O11 O 0.11877 0.23905 0.35326 0.0
O12 O 0.14668 0.25731 0.35661 0.0
In13 In 0.71251 0.12184 0.3635 0.0
O14 O 0.74535 0.13024 0.34888 0.0
O15 O 0.72333 0.15481 0.35624 0.0
C16 C 0.70683 0.08016 0.36055 0.0
C17 C 0.68339 0.13363 0.33069 0.0
C18 C 0.718 0.1258 0.41233 0.0
O19 O 0.7235 0.08875 0.35272 0.0
O20 O 0.69346 0.09259 0.36957 0.0
O21 O 0.70085 0.13096 0.40218 0.0
O22 O 0.73185 0.11888 0.39787 0.0
C23 C 0.74146 0.14976 0.34892 0.0
O24 O 0.68132 0.1373 0.3535 0.0
O25 O 0.69989 0.12377 0.32479 0.0
In26 In 0.87825 0.71636 0.36568 0.0
O27 O 0.86226 0.68678 0.35158 0.0
O28 O 0.87713 0.70657 0.3253 0.0
C29 C 0.87013 0.71323 0.41416 0.0
C30 C 0.85616 0.75147 0.35568 0.0
C31 C 0.91992 0.70926 0.3673 0.0
O32 O 0.86258 0.70051 0.39867 0.0
O33 O 0.88143 0.72756 0.4051 0.0
O34 O 0.91248 0.72638 0.35935 0.0
O35 O 0.90638 0.69593 0.3738 0.0
C36 C 0.86687 0.68994 0.32931 0.0
O37 O 0.876 0.7511 0.35479 0.0
O38 O 0.8477 0.73417 0.36114 0.0
In39 In 0.27833 0.8731 0.36629 0.0
O40 O 0.30729 0.85348 0.35614 0.0
O41 O 0.28987 0.86812 0.32736 0.0
C42 C 0.27411 0.87118 0.41578 0.0
C43 C 0.2447 0.85006 0.35355 0.0
C44 C 0.2865 0.91423 0.3604 0.0
O45 O 0.29082 0.86517 0.4053 0.0
O46 O 0.26016 0.87796 0.40139 0.0
O47 O 0.26891 0.90634 0.35482 0.0
O48 O 0.29973 0.90141 0.36891 0.0
C49 C 0.30527 0.8567 0.33325 0.0
O50 O 0.24513 0.86979 0.35082 0.0
O51 O 0.26122 0.84212 0.36249 0.0
In52 In 0.12048 0.71039 0.63919 0.0
O53 O 0.12498 0.74137 0.6596 0.0
O54 O 0.15228 0.72487 0.64794 0.0
C55 C 0.07963 0.72064 0.63449 0.0
C56 C 0.12584 0.68112 0.67478 0.0
C57 C 0.13178 0.70564 0.59147 0.0
O58 O 0.09382 0.73404 0.63849 0.0
O59 O 0.08608 0.70196 0.6323 0.0
O60 O 0.12273 0.69108 0.60317 0.0
O61 O 0.13486 0.72209 0.60375 0.0
C62 C 0.14479 0.74093 0.65834 0.0
O63 O 0.13832 0.68286 0.65687 0.0
O64 O 0.11048 0.69354 0.67419 0.0
In65 In 0.28741 0.12017 0.63526 0.0
O66 O 0.31999 0.12716 0.65062 0.0
O67 O 0.29454 0.12485 0.67586 0.0
C68 C 0.29564 0.11971 0.58669 0.0
C69 C 0.26301 0.15478 0.63698 0.0
C70 C 0.27812 0.07955 0.64383 0.0
O71 O 0.30943 0.12433 0.60248 0.0
O72 O 0.27785 0.11517 0.59544 0.0
O73 O 0.26492 0.0941 0.64722 0.0
O74 O 0.29588 0.08556 0.63631 0.0
C75 C 0.31388 0.12825 0.67268 0.0
O76 O 0.25554 0.1366 0.64029 0.0
O77 O 0.28249 0.15529 0.63288 0.0
In78 In 0.88692 0.28203 0.64225 0.0
O79 O 0.87967 0.24977 0.65871 0.0
O80 O 0.85532 0.26534 0.63924 0.0
C81 C 0.92908 0.27763 0.64633 0.0
C82 C 0.87223 0.30899 0.67675 0.0
C83 C 0.88326 0.29078 0.59369 0.0
O84 O 0.91655 0.26231 0.64644 0.0
O85 O 0.92039 0.29535 0.6442 0.0
O86 O 0.88311 0.30481 0.61006 0.0
O87 O 0.88561 0.27234 0.60175 0.0
C88 C 0.86093 0.24932 0.65122 0.0
O89 O 0.86798 0.31059 0.65421 0.0
O90 O 0.8843 0.29394 0.68203 0.0
In91 In 0.70805 0.88367 0.63851 0.0
O92 O 0.68325 0.86499 0.66036 0.0
O93 O 0.70242 0.88705 0.67934 0.0
C94 C 0.70052 0.87639 0.59034 0.0
C95 C 0.74366 0.86162 0.64554 0.0
C96 C 0.70215 0.92547 0.63848 0.0
O97 O 0.68759 0.87093 0.60685 0.0
O98 O 0.7169 0.88524 0.59828 0.0
O99 O 0.72004 0.91729 0.64174 0.0
O100 O 0.68738 0.91254 0.63506 0.0
C101 C 0.68795 0.87359 0.68063 0.0
O102 O 0.74316 0.88143 0.64679 0.0
O103 O 0.72626 0.85305 0.64071 0.0
In104 In 0.88373 0.72548 0.64217 0.0
O105 O 0.87647 0.75864 0.65574 0.0
O106 O 0.8512 0.7405 0.64166 0.0
C107 C 0.92594 0.72982 0.64283 0.0
C108 C 0.87518 0.69764 0.67838 0.0
C109 C 0.87587 0.718 0.59414 0.0
O110 O 0.91351 0.74501 0.64582 0.0
O111 O 0.91712 0.71225 0.63993 0.0
O112 O 0.86866 0.70657 0.6111 0.0
O113 O 0.88705 0.73312 0.60141 0.0
C114 C 0.85716 0.75777 0.65063 0.0
O115 O 0.8758 0.69265 0.65596 0.0
O116 O 0.87922 0.71668 0.68269 0.0
In117 In 0.2747 0.88372 0.64615 0.0
O118 O 0.24382 0.87475 0.66455 0.0
O119 O 0.26256 0.85021 0.64958 0.0
C120 C 0.2708 0.92575 0.6505 0.0
C121 C 0.30541 0.87339 0.6783 0.0
C122 C 0.27167 0.87948 0.59667 0.0
O123 O 0.25669 0.91307 0.65721 0.0
O124 O 0.28706 0.91723 0.64164 0.0
O125 O 0.28919 0.87815 0.60755 0.0
O126 O 0.2563 0.88301 0.61067 0.0
C127 C 0.24588 0.85531 0.66064 0.0
O128 O 0.30674 0.86918 0.65562 0.0
O129 O 0.28901 0.88318 0.68438 0.0
In130 In 0.12398 0.29314 0.63342 0.0
O131 O 0.13884 0.26083 0.64015 0.0
O132 O 0.15889 0.28644 0.63121 0.0
C133 C 0.08307 0.28466 0.64184 0.0
C134 C 0.13335 0.31963 0.67056 0.0
C135 C 0.12456 0.29971 0.58433 0.0
O136 O 0.09737 0.27111 0.64454 0.0
O137 O 0.08943 0.30254 0.63512 0.0
O138 O 0.12882 0.31412 0.5995 0.0
O139 O 0.11972 0.28236 0.59397 0.0
C140 C 0.15736 0.26718 0.63632 0.0
O141 O 0.13194 0.32571 0.64848 0.0
O142 O 0.12956 0.30039 0.67386 0.0
In143 In 0.715 0.12072 0.64189 0.0
O144 O 0.68631 0.14026 0.65279 0.0
O145 O 0.70337 0.12432 0.68093 0.0
C146 C 0.7191 0.12377 0.5928 0.0
C147 C 0.74864 0.14413 0.65366 0.0
C148 C 0.70638 0.07944 0.64433 0.0
O149 O 0.70284 0.13056 0.60366 0.0
O150 O 0.73265 0.11549 0.60666 0.0
O151 O 0.72395 0.08679 0.65101 0.0
O152 O 0.69334 0.09293 0.63682 0.0
C153 C 0.68819 0.1362 0.6755 0.0
O154 O 0.74776 0.12472 0.65868 0.0
O155 O 0.73249 0.1515 0.64329 0.0
In156 In 0.87799 0.2866 0.36549 0.0
O157 O 0.86805 0.25248 0.35764 0.0
O158 O 0.84487 0.27672 0.35742 0.0
C159 C 0.92001 0.28862 0.36673 0.0
C160 C 0.8728 0.30905 0.32411 0.0
C161 C 0.87131 0.2934 0.41376 0.0
O162 O 0.91061 0.27148 0.3622 0.0
O163 O 0.90816 0.30417 0.37061 0.0
O164 O 0.86836 0.3076 0.39782 0.0
O165 O 0.87692 0.27585 0.40516 0.0
C166 C 0.84898 0.25751 0.35441 0.0
O167 O 0.86452 0.31465 0.34428 0.0
O168 O 0.88372 0.29251 0.32516 0.0
In169 In 0.71337 0.88422 0.36204 0.0
O170 O 0.68808 0.86675 0.33988 0.0
O171 O 0.70813 0.88813 0.32108 0.0
C172 C 0.70447 0.87637 0.4098 0.0
C173 C 0.7486 0.86136 0.35569 0.0
C174 C 0.70738 0.92599 0.36253 0.0
O175 O 0.6922 0.87089 0.39264 0.0
O176 O 0.721 0.88548 0.40272 0.0
O177 O 0.72532 0.91801 0.3589 0.0
O178 O 0.69278 0.91291 0.36606 0.0
C179 C 0.69304 0.87536 0.31972 0.0
O180 O 0.74885 0.88121 0.35589 0.0
O181 O 0.73069 0.85325 0.35861 0.0
In182 In 0.11573 0.70729 0.36668 0.0
O183 O 0.11759 0.74199 0.35588 0.0
O184 O 0.14556 0.7236 0.35476 0.0
C185 C 0.07396 0.7051 0.37359 0.0
C186 C 0.12262 0.6819 0.32777 0.0
C187 C 0.12952 0.70361 0.41342 0.0
O188 O 0.08261 0.72111 0.36425 0.0
O189 O 0.08642 0.69059 0.37968 0.0
O190 O 0.12539 0.68764 0.4005 0.0
O191 O 0.12668 0.72097 0.40285 0.0
C192 C 0.13716 0.74139 0.35181 0.0
O193 O 0.13409 0.68133 0.34673 0.0
O194 O 0.10772 0.69489 0.32875 0.0
In195 In 0.28487 0.10962 0.35815 0.0
O196 O 0.31408 0.12559 0.34322 0.0
O197 O 0.29115 0.11555 0.31732 0.0
C198 C 0.29274 0.11498 0.4065 0.0
C199 C 0.24921 0.13209 0.35309 0.0
C200 C 0.29068 0.06784 0.3534 0.0
O201 O 0.30415 0.12285 0.38994 0.0
O202 O 0.27726 0.10456 0.3987 0.0
O203 O 0.27281 0.0762 0.35101 0.0
O204 O 0.30535 0.08053 0.35792 0.0
C205 C 0.30874 0.12417 0.32095 0.0
O206 O 0.26663 0.14027 0.35861 0.0
O207 O 0.24972 0.11245 0.34986 0.0
In208 In 0.61614 0.77849 0.8612 0.0
O209 O 0.63118 0.80957 0.85012 0.0
O210 O 0.62025 0.78896 0.82177 0.0
C211 C 0.61608 0.7754 0.91057 0.0
C212 C 0.64634 0.75054 0.85085 0.0
C213 C 0.57486 0.78424 0.85403 0.0
O214 O 0.62269 0.7918 0.89987 0.0
O215 O 0.60981 0.76104 0.89636 0.0
O216 O 0.58337 0.7666 0.84973 0.0
O217 O 0.58712 0.79833 0.86179 0.0
C218 C 0.62906 0.80615 0.82725 0.0
O219 O 0.62711 0.74587 0.84802 0.0
O220 O 0.64987 0.76874 0.85907 0.0
In221 In 0.21418 0.6239 0.86411 0.0
O222 O 0.18169 0.62747 0.84682 0.0
O223 O 0.20819 0.62683 0.82299 0.0
C224 C 0.20442 0.626 0.91238 0.0
C225 C 0.23947 0.65778 0.86059 0.0
C226 C 0.2242 0.58311 0.8588 0.0
O227 O 0.22163 0.61887 0.90451 0.0
O228 O 0.19193 0.63218 0.89585 0.0
O229 O 0.23742 0.59761 0.85528 0.0
O230 O 0.20606 0.58925 0.86476 0.0
C231 C 0.18849 0.62829 0.82501 0.0
O232 O 0.24661 0.63928 0.85997 0.0
O233 O 0.2198 0.65903 0.8629 0.0
In234 In 0.38252 0.21256 0.86164 0.0
O235 O 0.36382 0.18856 0.83925 0.0
O236 O 0.38924 0.20432 0.82182 0.0
C237 C 0.37168 0.20309 0.90825 0.0
C238 C 0.36098 0.2482 0.8529 0.0
C239 C 0.4243 0.20793 0.86676 0.0
O240 O 0.37061 0.18971 0.89115 0.0
O241 O 0.37785 0.22106 0.90168 0.0
O242 O 0.41615 0.2255 0.86155 0.0
O243 O 0.41139 0.19306 0.86932 0.0
C244 C 0.37465 0.19103 0.82 0.0
O245 O 0.38082 0.24779 0.85375 0.0
O246 O 0.35218 0.23067 0.85621 0.0
In247 In 0.78725 0.3818 0.8641 0.0
O248 O 0.81449 0.36797 0.84193 0.0
O249 O 0.78861 0.38171 0.82267 0.0
C250 C 0.79632 0.37971 0.91228 0.0
C251 C 0.75963 0.35007 0.86205 0.0
C252 C 0.78986 0.42356 0.85902 0.0
O253 O 0.80968 0.37479 0.89597 0.0
O254 O 0.77872 0.38566 0.90412 0.0
O255 O 0.77213 0.4144 0.85896 0.0
O256 O 0.80553 0.41165 0.86197 0.0
C257 C 0.80622 0.37257 0.8214 0.0
O258 O 0.75347 0.36898 0.8602 0.0
O259 O 0.77916 0.34775 0.86497 0.0
In260 In 0.61326 0.21947 0.14427 0.0
O261 O 0.62895 0.19284 0.16606 0.0
O262 O 0.60596 0.21145 0.18407 0.0
C263 C 0.62063 0.20778 0.09733 0.0
C264 C 0.64037 0.25115 0.15333 0.0
C265 C 0.57162 0.22583 0.13974 0.0
O266 O 0.61756 0.22652 0.10386 0.0
O267 O 0.62017 0.19453 0.11465 0.0
O268 O 0.58465 0.2407 0.1415 0.0
O269 O 0.57959 0.20766 0.14033 0.0
C270 C 0.61894 0.19658 0.18563 0.0
O271 O 0.621 0.2524 0.15801 0.0
O272 O 0.64612 0.23385 0.14424 0.0
In273 In 0.79194 0.62058 0.13798 0.0
O274 O 0.75953 0.63505 0.14491 0.0
O275 O 0.78571 0.65551 0.14071 0.0
C276 C 0.78266 0.57947 0.13929 0.0
C277 C 0.81441 0.62457 0.17966 0.0
C278 C 0.80197 0.6239 0.08995 0.0
O279 O 0.76882 0.59356 0.14187 0.0
O280 O 0.80113 0.58618 0.13595 0.0
O281 O 0.81591 0.62423 0.10655 0.0
O282 O 0.78342 0.62196 0.09773 0.0
C283 C 0.76624 0.65373 0.14444 0.0
O284 O 0.8209 0.63189 0.15941 0.0
O285 O 0.79708 0.61505 0.17857 0.0
In286 In 0.38287 0.77876 0.14364 0.0
O287 O 0.36463 0.80342 0.16641 0.0
O288 O 0.38731 0.78457 0.18448 0.0
C289 C 0.37941 0.79205 0.0964 0.0
C290 C 0.35651 0.74564 0.14669 0.0
C291 C 0.42474 0.77329 0.14675 0.0
O292 O 0.3779 0.80459 0.11435 0.0
O293 O 0.38254 0.77319 0.10241 0.0
O294 O 0.41173 0.75847 0.14908 0.0
O295 O 0.41665 0.79107 0.14247 0.0
C296 C 0.37363 0.79873 0.18639 0.0
O297 O 0.37618 0.74398 0.14837 0.0
O298 O 0.34994 0.76413 0.14333 0.0
In299 In 0.20634 0.3768 0.13274 0.0
O300 O 0.17816 0.35668 0.14412 0.0
O301 O 0.19347 0.3745 0.17177 0.0
C302 C 0.19973 0.37599 0.08356 0.0
C303 C 0.23867 0.35083 0.14264 0.0
C304 C 0.21238 0.41837 0.13913 0.0
O305 O 0.18482 0.37719 0.09882 0.0
O306 O 0.21775 0.37514 0.09313 0.0
O307 O 0.22712 0.40518 0.13876 0.0
O308 O 0.19427 0.41066 0.1362 0.0
C309 C 0.17922 0.36151 0.16659 0.0
O310 O 0.23799 0.36958 0.15006 0.0
O311 O 0.22299 0.34509 0.1301 0.0
In312 In 0.37644 0.21301 0.1349 0.0
O313 O 0.38491 0.20077 0.17279 0.0
O314 O 0.35854 0.18696 0.15524 0.0
C315 C 0.37009 0.20245 0.08745 0.0
C316 C 0.34924 0.24408 0.14593 0.0
C317 C 0.41774 0.22168 0.13208 0.0
O318 O 0.37166 0.22113 0.09488 0.0
O319 O 0.37172 0.18868 0.10409 0.0
O320 O 0.4039 0.23579 0.13391 0.0
O321 O 0.41074 0.20311 0.1315 0.0
C322 C 0.37011 0.18771 0.17407 0.0
O323 O 0.36839 0.24482 0.15178 0.0
O324 O 0.34378 0.22759 0.13479 0.0
In325 In 0.78429 0.38347 0.14113 0.0
O326 O 0.81349 0.36604 0.15438 0.0
O327 O 0.79568 0.38261 0.18104 0.0
C328 C 0.79356 0.38011 0.09274 0.0
C329 C 0.75188 0.35732 0.15081 0.0
C330 C 0.77852 0.42546 0.14338 0.0
O331 O 0.80739 0.37886 0.1093 0.0
O332 O 0.77512 0.38289 0.1006 0.0
O333 O 0.76358 0.41251 0.14289 0.0
O334 O 0.79658 0.41728 0.14292 0.0
C335 C 0.81135 0.3711 0.17666 0.0
O336 O 0.75279 0.37589 0.15874 0.0
O337 O 0.76746 0.35174 0.13802 0.0
In338 In 0.61962 0.78236 0.14095 0.0
O339 O 0.62962 0.81574 0.15153 0.0
O340 O 0.62295 0.79366 0.18004 0.0
C341 C 0.61742 0.77883 0.09167 0.0
C342 C 0.65427 0.75901 0.14759 0.0
C343 C 0.57874 0.77627 0.15058 0.0
O344 O 0.62125 0.79639 0.10172 0.0
O345 O 0.6149 0.76377 0.10643 0.0
O346 O 0.59263 0.76286 0.15617 0.0
O347 O 0.58561 0.79287 0.14067 0.0
C348 C 0.6289 0.81196 0.17442 0.0
O349 O 0.63617 0.7521 0.15285 0.0
O350 O 0.6547 0.77748 0.13918 0.0
In351 In 0.21087 0.61425 0.14081 0.0
O352 O 0.17852 0.62174 0.15699 0.0
O353 O 0.20463 0.62159 0.1812 0.0
C354 C 0.20233 0.61981 0.09252 0.0
C355 C 0.24469 0.63942 0.14598 0.0
C356 C 0.21508 0.57228 0.14583 0.0
O357 O 0.21693 0.60818 0.10023 0.0
O358 O 0.19184 0.62874 0.10921 0.0
O359 O 0.23002 0.58502 0.14864 0.0
O360 O 0.19768 0.58068 0.14061 0.0
C361 C 0.18514 0.62414 0.17867 0.0
O362 O 0.24512 0.61992 0.1499 0.0
O363 O 0.22699 0.6465 0.13953 0.0
In364 In 0.37963 0.79498 0.86738 0.0
O365 O 0.36629 0.76167 0.86254 0.0
O366 O 0.34521 0.78757 0.86651 0.0
C367 C 0.42151 0.79518 0.86244 0.0
C368 C 0.37202 0.8148 0.82464 0.0
C369 C 0.37747 0.80274 0.91607 0.0
O370 O 0.41117 0.77815 0.86148 0.0
O371 O 0.41069 0.81148 0.86638 0.0
O372 O 0.37331 0.81683 0.90031 0.0
O373 O 0.38266 0.78518 0.90713 0.0
C374 C 0.34741 0.76803 0.86347 0.0
O375 O 0.36688 0.82288 0.84513 0.0
O376 O 0.38086 0.79707 0.82603 0.0
In377 In 0.22393 0.38749 0.85661 0.0
O378 O 0.1994 0.36848 0.83493 0.0
O379 O 0.21293 0.39511 0.81773 0.0
C380 C 0.21121 0.38199 0.90374 0.0
C381 C 0.25707 0.36166 0.84975 0.0
C382 C 0.23043 0.42926 0.85667 0.0
O383 O 0.19838 0.38339 0.88612 0.0
O384 O 0.23024 0.38317 0.89751 0.0
O385 O 0.24477 0.41621 0.85181 0.0
O386 O 0.21278 0.42122 0.86163 0.0
C387 C 0.2003 0.37997 0.81605 0.0
O388 O 0.2586 0.38139 0.84901 0.0
O389 O 0.23875 0.35489 0.85374 0.0
In390 In 0.62043 0.21159 0.86974 0.0
O391 O 0.63283 0.1853 0.84512 0.0
O392 O 0.61685 0.21124 0.8285 0.0
C393 C 0.62612 0.20288 0.91752 0.0
C394 C 0.65158 0.2396 0.86551 0.0
C395 C 0.57861 0.20806 0.87101 0.0
O396 O 0.62965 0.18923 0.90102 0.0
O397 O 0.62001 0.22055 0.90969 0.0
O398 O 0.58731 0.22582 0.86785 0.0
O399 O 0.59104 0.19272 0.87327 0.0
C400 C 0.62639 0.19401 0.82552 0.0
O401 O 0.63251 0.24552 0.86541 0.0
O402 O 0.65435 0.22005 0.86775 0.0
In403 In 0.79067 0.61983 0.86156 0.0
O404 O 0.81783 0.63638 0.84206 0.0
O405 O 0.79783 0.61639 0.82096 0.0
C406 C 0.79997 0.62504 0.90963 0.0
C407 C 0.76018 0.64817 0.85261 0.0
C408 C 0.79244 0.57772 0.8585 0.0
O409 O 0.81339 0.62794 0.89286 0.0
O410 O 0.78197 0.61983 0.90208 0.0
O411 O 0.77504 0.58734 0.85736 0.0
O412 O 0.80829 0.58931 0.86155 0.0
C413 C 0.81349 0.62857 0.82126 0.0
O414 O 0.75595 0.62884 0.85491 0.0
O415 O 0.77928 0.6528 0.85532 0.0
H416 H 0.24537 0.17455 0.3577 0.0
H417 H 0.20917 0.11794 0.34431 0.0
H418 H 0.17659 0.13919 0.34244 0.0
H419 H 0.20814 0.19981 0.39656 0.0
H420 H 0.21342 0.22573 0.38471 0.0
H421 H 0.23374 0.20605 0.38435 0.0
H422 H 0.23827 0.21118 0.33732 0.0
H423 H 0.218 0.23091 0.33755 0.0
H424 H 0.21577 0.20852 0.31742 0.0
H425 H 0.14782 0.16694 0.34326 0.0
H426 H 0.12554 0.1988 0.34585 0.0
H427 H 0.1812 0.23672 0.35826 0.0
C428 C 0.23061 0.16661 0.35426 0.0
C429 C 0.22975 0.14462 0.35114 0.0
C430 C 0.21014 0.1348 0.34671 0.0
C431 C 0.19159 0.14673 0.34564 0.0
C432 C 0.19299 0.16841 0.34895 0.0
C433 C 0.21204 0.17823 0.35308 0.0
C434 C 0.2094 0.20168 0.35627 0.0
C435 C 0.2166 0.20872 0.382 0.0
C436 C 0.22105 0.21378 0.33592 0.0
C437 C 0.18585 0.20356 0.35343 0.0
C438 C 0.17661 0.18424 0.34923 0.0
C439 C 0.15492 0.18215 0.34643 0.0
C440 C 0.1424 0.20029 0.34795 0.0
C441 C 0.15166 0.22019 0.35219 0.0
C442 C 0.17366 0.22174 0.3549 0.0
H443 H 0.78416 0.15021 0.3567 0.0
H444 H 0.73258 0.18629 0.32618 0.0
H445 H 0.75632 0.2163 0.31943 0.0
H446 H 0.80505 0.19073 0.39076 0.0
H447 H 0.83236 0.18422 0.38641 0.0
H448 H 0.81271 0.16398 0.38457 0.0
H449 H 0.82564 0.15392 0.34096 0.0
H450 H 0.84552 0.17405 0.34274 0.0
H451 H 0.82721 0.17382 0.31744 0.0
H452 H 0.78323 0.24358 0.32149 0.0
H453 H 0.8126 0.26715 0.33152 0.0
H454 H 0.84777 0.21448 0.36115 0.0
C455 C 0.77817 0.1642 0.34777 0.0
C456 C 0.75669 0.16597 0.34161 0.0
C457 C 0.74906 0.18468 0.33082 0.0
C458 C 0.76243 0.20175 0.32685 0.0
C459 C 0.78337 0.19988 0.33385 0.0
C460 C 0.79134 0.1816 0.34397 0.0
C461 C 0.81389 0.18473 0.35238 0.0
C462 C 0.81612 0.18068 0.38018 0.0
C463 C 0.82896 0.1708 0.33748 0.0
C464 C 0.81698 0.20779 0.34625 0.0
C465 C 0.79921 0.21604 0.33526 0.0
C466 C 0.7974 0.23727 0.32964 0.0
C467 C 0.81411 0.25055 0.33557 0.0
C468 C 0.83244 0.24259 0.34699 0.0
C469 C 0.83405 0.22086 0.35203 0.0
H470 H 0.81354 0.75488 0.35642 0.0
H471 H 0.87045 0.79159 0.34734 0.0
H472 H 0.84904 0.82402 0.34439 0.0
H473 H 0.78059 0.78544 0.31481 0.0
H474 H 0.75764 0.78251 0.33394 0.0
H475 H 0.77749 0.76233 0.33365 0.0
H476 H 0.78116 0.76544 0.38102 0.0
H477 H 0.76142 0.78567 0.38145 0.0
H478 H 0.78697 0.79065 0.39452 0.0
H479 H 0.82109 0.85267 0.34504 0.0
H480 H 0.78916 0.87478 0.34841 0.0
H481 H 0.75116 0.81866 0.35689 0.0
C482 C 0.82152 0.76969 0.35349 0.0
C483 C 0.84363 0.77075 0.35204 0.0
C484 C 0.85349 0.79045 0.34839 0.0
C485 C 0.84147 0.80893 0.34671 0.0
C486 C 0.81966 0.80734 0.3486 0.0
C487 C 0.80981 0.78817 0.35177 0.0
C488 C 0.78628 0.79064 0.35415 0.0
C489 C 0.77483 0.77958 0.33287 0.0
C490 C 0.77851 0.78263 0.37928 0.0
C491 C 0.78437 0.81423 0.3522 0.0
C492 C 0.80374 0.82365 0.34891 0.0
C493 C 0.80583 0.84543 0.34741 0.0
C494 C 0.78765 0.85786 0.34937 0.0
C495 C 0.76771 0.84842 0.35283 0.0
C496 C 0.76616 0.82633 0.35411 0.0
H497 H 0.17975 0.74408 0.35039 0.0
H498 H 0.12316 0.78138 0.34205 0.0
H499 H 0.14493 0.81341 0.33731 0.0
H500 H 0.20609 0.77938 0.38767 0.0
H501 H 0.23179 0.77427 0.37508 0.0
H502 H 0.21196 0.75417 0.3742 0.0
H503 H 0.21623 0.75116 0.3269 0.0
H504 H 0.2362 0.77123 0.32763 0.0
H505 H 0.21355 0.77433 0.30806 0.0
H506 H 0.1731 0.84168 0.33702 0.0
H507 H 0.20487 0.86365 0.34255 0.0
H508 H 0.24236 0.80737 0.3525 0.0
C509 C 0.17191 0.7589 0.34698 0.0
C510 C 0.1498 0.76027 0.34635 0.0
C511 C 0.14012 0.78001 0.3424 0.0
C512 C 0.15235 0.79824 0.33965 0.0
C513 C 0.17417 0.79639 0.34091 0.0
C514 C 0.18383 0.77717 0.34445 0.0
C515 C 0.20734 0.77947 0.34731 0.0
C516 C 0.21471 0.77135 0.37256 0.0
C517 C 0.21902 0.76839 0.32621 0.0
C518 C 0.20943 0.80305 0.34544 0.0
C519 C 0.19021 0.81257 0.34136 0.0
C520 C 0.18824 0.83436 0.33997 0.0
C521 C 0.20634 0.84671 0.34313 0.0
C522 C 0.22602 0.83718 0.34795 0.0
C523 C 0.22753 0.81509 0.34877 0.0
H524 H 0.18675 0.74611 0.65011 0.0
H525 H 0.13252 0.77626 0.68317 0.0
H526 H 0.1539 0.80788 0.69156 0.0
H527 H 0.22731 0.76984 0.69084 0.0
H528 H 0.24569 0.77254 0.66581 0.0
H529 H 0.22697 0.75128 0.6658 0.0
H530 H 0.21364 0.7631 0.62291 0.0
H531 H 0.23217 0.78442 0.62285 0.0
H532 H 0.20456 0.7897 0.61875 0.0
H533 H 0.18 0.83746 0.69202 0.0
H534 H 0.20878 0.86274 0.68452 0.0
H535 H 0.24574 0.81323 0.65075 0.0
C536 C 0.17952 0.75915 0.65971 0.0
C537 C 0.15804 0.75872 0.66618 0.0
C538 C 0.149 0.77625 0.67822 0.0
C539 C 0.16103 0.79424 0.6831 0.0
C540 C 0.18205 0.79437 0.67589 0.0
C541 C 0.19125 0.77723 0.66458 0.0
C542 C 0.21355 0.78199 0.65668 0.0
C543 C 0.22931 0.76809 0.67062 0.0
C544 C 0.21611 0.77967 0.62865 0.0
C545 C 0.21526 0.8047 0.66462 0.0
C546 C 0.19704 0.81148 0.67596 0.0
C547 C 0.19446 0.83225 0.6835 0.0
C548 C 0.21086 0.84649 0.67911 0.0
C549 C 0.22949 0.8399 0.66715 0.0
C550 C 0.23176 0.81866 0.66018 0.0
H551 H 0.22016 0.15838 0.64296 0.0
H552 H 0.27706 0.19489 0.63214 0.0
H553 H 0.2562 0.22747 0.63211 0.0
H554 H 0.18731 0.18936 0.60381 0.0
H555 H 0.16433 0.18722 0.62304 0.0
H556 H 0.18374 0.16663 0.62316 0.0
H557 H 0.18771 0.17042 0.67039 0.0
H558 H 0.1683 0.19103 0.67042 0.0
H559 H 0.19396 0.19574 0.68334 0.0
H560 H 0.22955 0.25588 0.63197 0.0
H561 H 0.19832 0.27876 0.63174 0.0
H562 H 0.15831 0.2243 0.64277 0.0
C563 C 0.2282 0.17325 0.64073 0.0
C564 C 0.25023 0.17412 0.63758 0.0
C565 C 0.2602 0.19385 0.63459 0.0
C566 C 0.24851 0.21246 0.63458 0.0
C567 C 0.22684 0.21109 0.6376 0.0
C568 C 0.21673 0.19205 0.64065 0.0
C569 C 0.19318 0.19508 0.643 0.0
C570 C 0.18146 0.18391 0.622 0.0
C571 C 0.18533 0.18763 0.6683 0.0
C572 C 0.19169 0.21876 0.64058 0.0
C573 C 0.21133 0.22763 0.63755 0.0
C574 C 0.21407 0.24916 0.63444 0.0
C575 C 0.19623 0.26201 0.63431 0.0
C576 C 0.17592 0.2533 0.63728 0.0
C577 C 0.17366 0.23139 0.64059 0.0
H578 H 0.7545 0.18478 0.63981 0.0
H579 H 0.7853 0.13288 0.67694 0.0
H580 H 0.8173 0.15467 0.68195 0.0
H581 H 0.79869 0.20156 0.60585 0.0
H582 H 0.79249 0.22912 0.60816 0.0
H583 H 0.77176 0.2099 0.60907 0.0
H584 H 0.759 0.22485 0.65085 0.0
H585 H 0.77966 0.24419 0.65003 0.0
H586 H 0.77724 0.22687 0.67611 0.0
H587 H 0.84638 0.18204 0.6813 0.0
H588 H 0.87006 0.21241 0.67487 0.0
H589 H 0.81982 0.24569 0.63755 0.0
C590 C 0.76787 0.17803 0.64927 0.0
C591 C 0.76742 0.15719 0.65812 0.0
C592 C 0.78533 0.14887 0.67013 0.0
C593 C 0.80353 0.16112 0.67305 0.0
C594 C 0.8035 0.18159 0.66383 0.0
C595 C 0.7861 0.18995 0.65221 0.0
C596 C 0.79024 0.212 0.64304 0.0
C597 C 0.78818 0.2132 0.61486 0.0
C598 C 0.77567 0.22791 0.65578 0.0
C599 C 0.81277 0.21475 0.65113 0.0
C600 C 0.82016 0.19712 0.66321 0.0
C601 C 0.84072 0.19595 0.67197 0.0
C602 C 0.85404 0.21325 0.66822 0.0
C603 C 0.84675 0.23137 0.65573 0.0
C604 C 0.82582 0.23207 0.64721 0.0
H605 H 0.81493 0.75895 0.64171 0.0
H606 H 0.86723 0.79742 0.66608 0.0
H607 H 0.84364 0.82821 0.66867 0.0
H608 H 0.79097 0.79717 0.6038 0.0
H609 H 0.76445 0.78969 0.61144 0.0
H610 H 0.7852 0.77051 0.61276 0.0
H611 H 0.77587 0.76243 0.65821 0.0
H612 H 0.755 0.78152 0.657 0.0
H613 H 0.77507 0.78357 0.68026 0.0
H614 H 0.81463 0.85521 0.6663 0.0
H615 H 0.78212 0.876 0.66063 0.0
H616 H 0.74896 0.8195 0.6385 0.0
C617 C 0.82138 0.7738 0.64784 0.0
C618 C 0.84288 0.77584 0.65373 0.0
C619 C 0.85077 0.79554 0.66156 0.0
C620 C 0.83751 0.8131 0.66306 0.0
C621 C 0.81641 0.81062 0.65681 0.0
C622 C 0.80837 0.79143 0.64953 0.0
C623 C 0.78526 0.793 0.64331 0.0
C624 C 0.78125 0.78726 0.61622 0.0
C625 C 0.77202 0.77932 0.66074 0.0
C626 C 0.78159 0.81614 0.64794 0.0
C627 C 0.79973 0.82605 0.65572 0.0
C628 C 0.80029 0.84758 0.66041 0.0
C629 C 0.78179 0.85926 0.65709 0.0
C630 C 0.76305 0.84933 0.64922 0.0
C631 C 0.76302 0.82749 0.64469 0.0
H632 H 0.64918 0.70747 0.85657 0.0
H633 H 0.6834 0.76247 0.83178 0.0
H634 H 0.715 0.7409 0.82533 0.0
H635 H 0.69017 0.68661 0.8913 0.0
H636 H 0.6852 0.65936 0.88439 0.0
H637 H 0.66401 0.67807 0.8834 0.0
H638 H 0.6558 0.66739 0.83844 0.0
H639 H 0.67691 0.64851 0.83934 0.0
H640 H 0.67638 0.66834 0.81567 0.0
H641 H 0.74353 0.71538 0.82608 0.0
H642 H 0.7683 0.68653 0.83372 0.0
H643 H 0.71694 0.64695 0.8586 0.0
C644 C 0.66319 0.71471 0.84908 0.0
C645 C 0.6639 0.73654 0.84439 0.0
C646 C 0.6826 0.74574 0.83537 0.0
C647 C 0.70058 0.73362 0.83156 0.0
C648 C 0.69966 0.71229 0.83697 0.0
C649 C 0.68152 0.70278 0.84547 0.0
C650 C 0.68564 0.67993 0.85206 0.0
C651 C 0.68098 0.67576 0.87941 0.0
C652 C 0.67293 0.66517 0.83538 0.0
C653 C 0.70902 0.6784 0.84664 0.0
C654 C 0.71659 0.69725 0.83766 0.0
C655 C 0.73779 0.70042 0.83273 0.0
C656 C 0.75174 0.68396 0.83728 0.0
C657 C 0.74452 0.66451 0.84667 0.0
C658 C 0.72281 0.66157 0.85108 0.0
H659 H 0.28272 0.65994 0.86094 0.0
H660 H 0.22638 0.6983 0.8571 0.0
H661 H 0.24816 0.73025 0.85589 0.0
H662 H 0.3115 0.69416 0.90059 0.0
H663 H 0.33653 0.68971 0.88598 0.0
H664 H 0.31667 0.66957 0.8853 0.0
H665 H 0.31871 0.66856 0.83772 0.0
H666 H 0.33861 0.6887 0.83824 0.0
H667 H 0.31499 0.69247 0.82047 0.0
H668 H 0.27532 0.75787 0.85664 0.0
H669 H 0.30675 0.78018 0.8593 0.0
H670 H 0.34623 0.72458 0.86269 0.0
C671 C 0.27502 0.67507 0.85963 0.0
C672 C 0.25286 0.67667 0.85906 0.0
C673 C 0.24332 0.69672 0.85756 0.0
C674 C 0.25555 0.71496 0.85682 0.0
C675 C 0.27731 0.71289 0.8576 0.0
C676 C 0.28704 0.69353 0.85895 0.0
C677 C 0.31074 0.69592 0.8603 0.0
C678 C 0.31936 0.6868 0.88448 0.0
C679 C 0.32139 0.68581 0.83784 0.0
C680 C 0.31274 0.71967 0.85971 0.0
C681 C 0.2932 0.72905 0.85806 0.0
C682 C 0.29073 0.75074 0.85781 0.0
C683 C 0.30871 0.76327 0.85939 0.0
C684 C 0.32894 0.75412 0.86118 0.0
C685 C 0.33097 0.732 0.86119 0.0
H686 H 0.31836 0.25273 0.8543 0.0
H687 H 0.3762 0.28774 0.84396 0.0
H688 H 0.35569 0.3206 0.83996 0.0
H689 H 0.2861 0.28304 0.81187 0.0
H690 H 0.26311 0.28146 0.83115 0.0
H691 H 0.28231 0.26066 0.83172 0.0
H692 H 0.28623 0.26514 0.87889 0.0
H693 H 0.26709 0.28595 0.87847 0.0
H694 H 0.2928 0.29058 0.89128 0.0
H695 H 0.32887 0.34974 0.83894 0.0
H696 H 0.29786 0.37303 0.84132 0.0
H697 H 0.25775 0.31874 0.85262 0.0
C698 C 0.32671 0.26727 0.85092 0.0
C699 C 0.34885 0.26773 0.84933 0.0
C700 C 0.35923 0.28707 0.84515 0.0
C701 C 0.34772 0.30578 0.84283 0.0
C702 C 0.32589 0.3048 0.84472 0.0
C703 C 0.3155 0.28604 0.84864 0.0
C704 C 0.29203 0.28931 0.85094 0.0
C705 C 0.28019 0.27795 0.83018 0.0
C706 C 0.28408 0.28234 0.87641 0.0
C707 C 0.29082 0.3129 0.84798 0.0
C708 C 0.3105 0.32155 0.84427 0.0
C709 C 0.31337 0.34313 0.84168 0.0
C710 C 0.29568 0.35622 0.84307 0.0
C711 C 0.27543 0.34767 0.84709 0.0
C712 C 0.27302 0.32571 0.84939 0.0
H713 H 0.65211 0.2833 0.8641 0.0
H714 H 0.69232 0.22812 0.86221 0.0
H715 H 0.72343 0.25066 0.85981 0.0
H716 H 0.68384 0.31499 0.82167 0.0
H717 H 0.67969 0.3392 0.83817 0.0
H718 H 0.65996 0.3189 0.8389 0.0
H719 H 0.66127 0.31876 0.88652 0.0
H720 H 0.68101 0.33903 0.88593 0.0
H721 H 0.68606 0.31471 0.90186 0.0
H722 H 0.75007 0.27792 0.85902 0.0
H723 H 0.77195 0.30956 0.85971 0.0
H724 H 0.71591 0.34856 0.86189 0.0
C725 C 0.66747 0.27605 0.863 0.0
C726 C 0.66976 0.25392 0.86333 0.0
C727 C 0.69012 0.24499 0.862 0.0
C728 C 0.70794 0.25766 0.86059 0.0
C729 C 0.70524 0.27931 0.86046 0.0
C730 C 0.68564 0.28857 0.86158 0.0
C731 C 0.6876 0.31239 0.86165 0.0
C732 C 0.67715 0.32193 0.83873 0.0
C733 C 0.67844 0.32177 0.88541 0.0
C734 C 0.71136 0.31488 0.86071 0.0
C735 C 0.72104 0.29547 0.85994 0.0
C736 C 0.74274 0.29325 0.8595 0.0
C737 C 0.75502 0.31138 0.85995 0.0
C738 C 0.74566 0.33156 0.86084 0.0
C739 C 0.72348 0.33335 0.86108 0.0
H740 H 0.68109 0.25449 0.13759 0.0
H741 H 0.63248 0.28774 0.17784 0.0
H742 H 0.65645 0.31792 0.18327 0.0
H743 H 0.72571 0.27359 0.1732 0.0
H744 H 0.74252 0.27583 0.14664 0.0
H745 H 0.72199 0.25634 0.14726 0.0
H746 H 0.70683 0.2713 0.10662 0.0
H747 H 0.72727 0.29084 0.1059 0.0
H748 H 0.7001 0.29877 0.10483 0.0
H749 H 0.68514 0.34483 0.18306 0.0
H750 H 0.71639 0.3671 0.17648 0.0
H751 H 0.74613 0.31661 0.13563 0.0
C752 C 0.67559 0.26803 0.14779 0.0
C753 C 0.65499 0.26878 0.15743 0.0
C754 C 0.64823 0.28686 0.17037 0.0
C755 C 0.66174 0.30404 0.17358 0.0
C756 C 0.68189 0.30288 0.16367 0.0
C757 C 0.6888 0.28537 0.15101 0.0
C758 C 0.71088 0.28851 0.14124 0.0
C759 C 0.72618 0.27262 0.15278 0.0
C760 C 0.71128 0.28729 0.11297 0.0
C761 C 0.71522 0.3106 0.1502 0.0
C762 C 0.69835 0.31853 0.16325 0.0
C763 C 0.69849 0.33877 0.17297 0.0
C764 C 0.7163 0.35129 0.16913 0.0
C765 C 0.73366 0.34356 0.15557 0.0
C766 C 0.73311 0.3229 0.14614 0.0
H767 H 0.72336 0.65445 0.15044 0.0
H768 H 0.77818 0.69477 0.14486 0.0
H769 H 0.75546 0.72601 0.14792 0.0
H770 H 0.68976 0.68566 0.11386 0.0
H771 H 0.6665 0.68096 0.13197 0.0
H772 H 0.68713 0.66163 0.13116 0.0
H773 H 0.68972 0.66277 0.17871 0.0
H774 H 0.66907 0.68212 0.17968 0.0
H775 H 0.69405 0.68755 0.19394 0.0
H776 H 0.72708 0.75268 0.14853 0.0
H777 H 0.69442 0.77347 0.14716 0.0
H778 H 0.65768 0.71624 0.15319 0.0
C779 C 0.73057 0.66986 0.15016 0.0
C780 C 0.75252 0.67222 0.14745 0.0
C781 C 0.7614 0.69261 0.14695 0.0
C782 C 0.74864 0.71045 0.14873 0.0
C783 C 0.72705 0.70762 0.15114 0.0
C784 C 0.71804 0.68787 0.15197 0.0
C785 C 0.69431 0.68931 0.15364 0.0
C786 C 0.68382 0.67877 0.13133 0.0
C787 C 0.68632 0.67988 0.17794 0.0
C788 C 0.69141 0.71294 0.15313 0.0
C789 C 0.71054 0.72315 0.1518 0.0
C790 C 0.71199 0.7449 0.14985 0.0
C791 C 0.69337 0.75656 0.14902 0.0
C792 C 0.67359 0.74645 0.15022 0.0
C793 C 0.67262 0.72438 0.1526 0.0
H794 H 0.24839 0.68198 0.13818 0.0
H795 H 0.28387 0.6265 0.15904 0.0
H796 H 0.31604 0.64786 0.1621 0.0
H797 H 0.28846 0.70533 0.10093 0.0
H798 H 0.28275 0.73189 0.1103 0.0
H799 H 0.26223 0.71241 0.11032 0.0
H800 H 0.25472 0.72014 0.15629 0.0
H801 H 0.2752 0.73968 0.1564 0.0
H802 H 0.27584 0.71843 0.17831 0.0
H803 H 0.34445 0.67462 0.16171 0.0
H804 H 0.36751 0.70564 0.15877 0.0
H805 H 0.31387 0.74417 0.13872 0.0
C806 C 0.26292 0.67439 0.14351 0.0
C807 C 0.26366 0.65259 0.14838 0.0
C808 C 0.28295 0.64318 0.15524 0.0
C809 C 0.30131 0.65517 0.15703 0.0
C810 C 0.30011 0.67656 0.15198 0.0
C811 C 0.28144 0.68615 0.14544 0.0
C812 C 0.28462 0.70942 0.14075 0.0
C813 C 0.27919 0.71509 0.11398 0.0
C814 C 0.27184 0.7227 0.15903 0.0
C815 C 0.308 0.71132 0.14554 0.0
C816 C 0.31658 0.69215 0.15197 0.0
C817 C 0.33792 0.68976 0.15681 0.0
C818 C 0.35089 0.70745 0.15505 0.0
C819 C 0.34246 0.72728 0.14858 0.0
C820 C 0.32071 0.72921 0.14383 0.0
H821 H 0.2444 0.31029 0.1272 0.0
H822 H 0.27366 0.36016 0.16953 0.0
H823 H 0.30448 0.33746 0.17699 0.0
H824 H 0.26344 0.26667 0.1647 0.0
H825 H 0.2675 0.24977 0.13853 0.0
H826 H 0.24724 0.26954 0.1377 0.0
H827 H 0.26342 0.28499 0.09783 0.0
H828 H 0.2837 0.26529 0.09854 0.0
H829 H 0.29067 0.29273 0.09763 0.0
H830 H 0.33286 0.31011 0.17789 0.0
H831 H 0.35679 0.2799 0.17221 0.0
H832 H 0.30879 0.24785 0.12968 0.0
C833 C 0.25721 0.31635 0.13824 0.0
C834 C 0.25667 0.33694 0.14783 0.0
C835 C 0.27377 0.34439 0.16204 0.0
C836 C 0.29131 0.33162 0.16641 0.0
C837 C 0.29143 0.31144 0.15652 0.0
C838 C 0.27482 0.30381 0.14279 0.0
C839 C 0.2792 0.28183 0.1335 0.0
C840 C 0.2634 0.26602 0.14426 0.0
C841 C 0.27925 0.28119 0.1052 0.0
C842 C 0.301 0.27842 0.14385 0.0
C843 C 0.30774 0.29563 0.15717 0.0
C844 C 0.32769 0.29646 0.1677 0.0
C845 C 0.34116 0.27926 0.16436 0.0
C846 C 0.33458 0.26155 0.15062 0.0
C847 C 0.31417 0.26111 0.14048 0.0
H848 H 0.95027 0.25804 0.35969 0.0
H849 H 0.94181 0.3246 0.37438 0.0
H850 H 0.98008 0.32958 0.37429 0.0
H851 H 0.99666 0.25154 0.39781 0.0
H852 H 0.00929 0.23343 0.37704 0.0
H853 H 0.98103 0.23478 0.37833 0.0
H854 H 0.97975 0.24193 0.33143 0.0
H855 H 0.008 0.24065 0.33 0.0
H856 H 0.99446 0.26363 0.31886 0.0
H857 H 0.01861 0.32795 0.37201 0.0
H858 H 0.05621 0.31956 0.36852 0.0
H859 H 0.04081 0.25396 0.35576 0.0
C860 C 0.95653 0.27362 0.36294 0.0
C861 C 0.94307 0.29094 0.36703 0.0
C862 C 0.9518 0.31109 0.37122 0.0
C863 C 0.97353 0.31411 0.3712 0.0
C864 C 0.98637 0.29681 0.36703 0.0
C865 C 0.97832 0.27694 0.36306 0.0
C866 C 0.99584 0.26113 0.35907 0.0
C867 C 0.99569 0.24422 0.37927 0.0
C868 C 0.99442 0.25126 0.33331 0.0
C869 C 0.0149 0.27533 0.36132 0.0
C870 C 0.00896 0.29583 0.36589 0.0
C871 C 0.02353 0.31195 0.3685 0.0
C872 C 0.04484 0.30701 0.36645 0.0
C873 C 0.05141 0.28612 0.36189 0.0
C874 C 0.03622 0.27006 0.3593 0.0
H875 H 0.73528 0.04836 0.35165 0.0
H876 H 0.66963 0.06047 0.36821 0.0
H877 H 0.66274 0.02244 0.36934 0.0
H878 H 0.72666 0.0021 0.313 0.0
H879 H 0.74943 0.98844 0.32454 0.0
H880 H 0.74915 0.01674 0.32363 0.0
H881 H 0.75752 0.01791 0.37025 0.0
H882 H 0.75772 0.98964 0.37133 0.0
H883 H 0.74064 0.00423 0.39153 0.0
H884 H 0.66288 0.98364 0.3702 0.0
H885 H 0.67007 0.94563 0.37053 0.0
H886 H 0.73572 0.9579 0.35407 0.0
C887 C 0.71943 0.04295 0.35522 0.0
C888 C 0.70297 0.05733 0.35978 0.0
C889 C 0.68248 0.04972 0.36468 0.0
C890 C 0.67838 0.02815 0.36533 0.0
C891 C 0.69495 0.01438 0.36111 0.0
C892 C 0.71507 0.02138 0.35612 0.0
C893 C 0.73011 0.00307 0.35313 0.0
C894 C 0.73938 0.00256 0.32702 0.0
C895 C 0.74753 0.00376 0.37273 0.0
C896 C 0.71528 0.98477 0.35741 0.0
C897 C 0.69508 0.99173 0.36187 0.0
C898 C 0.67861 0.97794 0.36665 0.0
C899 C 0.68287 0.95639 0.36684 0.0
C900 C 0.70344 0.94883 0.36234 0.0
C901 C 0.71985 0.96324 0.35756 0.0
H902 H 0.04324 0.73288 0.35916 0.0
H903 H 0.05289 0.67195 0.39329 0.0
H904 H 0.01458 0.66671 0.3954 0.0
H905 H 0.99666 0.74708 0.39449 0.0
H906 H 0.984 0.75983 0.36886 0.0
H907 H 0.01226 0.75918 0.37071 0.0
H908 H 0.0139 0.74201 0.32753 0.0
H909 H 0.98565 0.74247 0.32562 0.0
H910 H -0.0004 0.71804 0.32188 0.0
H911 H 0.97575 0.66728 0.39251 0.0
H912 H 0.93806 0.67424 0.38641 0.0
H913 H 0.95297 0.73498 0.35443 0.0
C914 C 0.03725 0.71854 0.36727 0.0
C915 C 0.05101 0.70282 0.37608 0.0
C916 C 0.04263 0.68421 0.38646 0.0
C917 C 0.0209 0.68107 0.38772 0.0
C918 C 0.00778 0.69672 0.37859 0.0
C919 C 0.01555 0.71515 0.36871 0.0
C920 C 0.99788 0.72928 0.35997 0.0
C921 C 0.99769 0.75007 0.37437 0.0
C922 C 0.99935 0.73317 0.33209 0.0
C923 C 0.97901 0.71581 0.36634 0.0
C924 C 0.98515 0.6971 0.37703 0.0
C925 C 0.97071 0.68191 0.38426 0.0
C926 C 0.94934 0.686 0.38065 0.0
C927 C 0.94261 0.70515 0.36996 0.0
C928 C 0.95768 0.72021 0.36266 0.0
H929 H 0.25895 0.94651 0.3514 0.0
H930 H 0.32496 0.93269 0.36331 0.0
H931 H 0.33331 0.97043 0.36007 0.0
H932 H 0.26639 0.98989 0.30798 0.0
H933 H 0.24495 0.00503 0.32044 0.0
H934 H 0.24426 0.97675 0.32183 0.0
H935 H 0.23913 0.97849 0.36908 0.0
H936 H 0.23981 0.00674 0.36784 0.0
H937 H 0.25781 0.99279 0.38755 0.0
H938 H 0.33443 0.00935 0.35752 0.0
H939 H 0.32817 0.04755 0.35696 0.0
H940 H 0.26133 0.03657 0.34741 0.0
C941 C 0.27517 0.95144 0.35301 0.0
C942 C 0.29134 0.93673 0.35749 0.0
C943 C 0.31235 0.94374 0.35985 0.0
C944 C 0.31726 0.96511 0.35796 0.0
C945 C 0.30096 0.97924 0.35377 0.0
C946 C 0.28034 0.97276 0.35137 0.0
C947 C 0.2657 0.99136 0.34829 0.0
C948 C 0.25468 0.99071 0.32313 0.0
C949 C 0.24967 0.9924 0.36945 0.0
C950 C 0.28131 0.00929 0.34966 0.0
C951 C 0.30157 0.00189 0.35261 0.0
C952 C 0.31866 0.01536 0.35506 0.0
C953 C 0.31494 0.03702 0.35475 0.0
C954 C 0.29428 0.04499 0.3521 0.0
C955 C 0.2773 0.03091 0.34929 0.0
H956 H 0.04578 0.69418 0.63038 0.0
H957 H 0.06277 0.75989 0.63824 0.0
H958 H 0.02522 0.76938 0.64063 0.0
H959 H 0.99886 0.70269 0.59307 0.0
H960 H 0.98442 0.68177 0.6077 0.0
H961 H 0.01262 0.68029 0.60541 0.0
H962 H 0.01514 0.6755 0.65266 0.0
H963 H 0.98697 0.67713 0.65513 0.0
H964 H 0.00331 0.69478 0.67263 0.0
H965 H 0.98612 0.77161 0.64402 0.0
H966 H 0.94773 0.76657 0.64671 0.0
H967 H 0.95605 0.69942 0.63665 0.0
C968 C 0.04158 0.71059 0.6323 0.0
C969 C 0.05715 0.72632 0.63406 0.0
C970 C 0.05107 0.7476 0.63679 0.0
C971 C 0.0298 0.75314 0.63819 0.0
C972 C 0.01484 0.73723 0.63679 0.0
C973 C 0.02041 0.7164 0.63376 0.0
C974 C 0.00122 0.70233 0.63333 0.0
C975 C 0.99916 0.69111 0.60839 0.0
C976 C 0.0017 0.6865 0.65472 0.0
C977 C 0.98401 0.71849 0.63682 0.0
C978 C 0.99222 0.73852 0.63875 0.0
C979 C 0.97948 0.75602 0.64242 0.0
C980 C 0.95771 0.75299 0.64399 0.0
C981 C 0.94894 0.73262 0.64189 0.0
C982 C 0.96232 0.71518 0.63831 0.0
H983 H 0.2992 0.95626 0.63787 0.0
H984 H 0.23652 0.9471 0.66748 0.0
H985 H 0.23174 0.98555 0.6699 0.0
H986 H 0.31244 0.00167 0.67495 0.0
H987 H 0.32674 0.01443 0.65053 0.0
H988 H 0.32535 0.98618 0.65166 0.0
H989 H 0.31027 0.98556 0.60737 0.0
H990 H 0.31159 0.01379 0.60611 0.0
H991 H 0.28701 0.0006 0.6004 0.0
H992 H 0.23342 0.02505 0.66792 0.0
H993 H 0.24172 0.06271 0.66213 0.0
H994 H 0.30337 0.04584 0.63428 0.0
C995 C 0.28451 0.96235 0.64497 0.0
C996 C 0.26823 0.94873 0.6525 0.0
C997 C 0.24921 0.95728 0.66164 0.0
C998 C 0.24635 0.97908 0.66309 0.0
C999 C 0.26267 0.99209 0.6554 0.0
C1000 C 0.2814 0.98406 0.6466 0.0
C1001 C 0.29637 0.00143 0.63924 0.0
C1002 C 0.3164 0.00089 0.65504 0.0
C1003 C 0.3016 0.00027 0.61164 0.0
C1004 C 0.28306 0.02049 0.6451 0.0
C1005 C 0.26369 0.01479 0.65443 0.0
C1006 C 0.24858 0.02971 0.66074 0.0
C1007 C 0.25342 0.05103 0.65738 0.0
C1008 C 0.27319 0.05716 0.64784 0.0
C1009 C 0.28816 0.04164 0.64174 0.0
H1010 H 0.04962 0.31154 0.6377 0.0
H1011 H 0.06575 0.24672 0.65378 0.0
H1012 H 0.02805 0.23814 0.65797 0.0
H1013 H 0.00535 0.31507 0.67999 0.0
H1014 H 0.99007 0.33133 0.65957 0.0
H1015 H 0.01835 0.33252 0.65876 0.0
H1016 H 0.01777 0.32407 0.61212 0.0
H1017 H 0.98952 0.32281 0.6128 0.0
H1018 H 0.00446 0.30078 0.60149 0.0
H1019 H 0.9887 0.23626 0.65845 0.0
H1020 H 0.95028 0.24136 0.6562 0.0
H1021 H 0.95974 0.30755 0.64049 0.0
C1022 C 0.04522 0.29558 0.6423 0.0
C1023 C 0.06058 0.27978 0.64544 0.0
C1024 C 0.05422 0.25906 0.65135 0.0
C1025 C 0.03287 0.25405 0.65376 0.0
C1026 C 0.01811 0.26995 0.65034 0.0
C1027 C 0.02399 0.29032 0.64486 0.0
C1028 C 0.00498 0.30438 0.64163 0.0
C1029 C 0.00467 0.32186 0.66115 0.0
C1030 C 0.00414 0.31354 0.61545 0.0
C1031 C 0.98747 0.28867 0.64585 0.0
C1032 C 0.9954 0.26891 0.65087 0.0
C1033 C 0.9823 0.25169 0.65471 0.0
C1034 C 0.96052 0.25474 0.65335 0.0
C1035 C 0.95206 0.27485 0.64826 0.0
C1036 C 0.96576 0.29203 0.6446 0.0
H1037 H 0.73341 0.04647 0.65224 0.0
H1038 H 0.66831 0.06133 0.63594 0.0
H1039 H 0.66007 0.02352 0.63362 0.0
H1040 H 0.73745 0.00314 0.61118 0.0
H1041 H 0.754 0.98766 0.63107 0.0
H1042 H 0.75467 0.0159 0.63286 0.0
H1043 H 0.7461 0.01412 0.67942 0.0
H1044 H 0.7455 0.98585 0.6778 0.0
H1045 H 0.72313 -0.0 0.68959 0.0
H1046 H 0.65901 0.98439 0.63176 0.0
H1047 H 0.66521 0.94613 0.63068 0.0
H1048 H 0.73108 0.95647 0.64757 0.0
C1049 C 0.71739 0.04174 0.64846 0.0
C1050 C 0.70147 0.05679 0.64435 0.0
C1051 C 0.68074 0.05003 0.63917 0.0
C1052 C 0.67589 0.02861 0.63784 0.0
C1053 C 0.69197 0.01416 0.64167 0.0
C1054 C 0.71229 0.02038 0.64692 0.0
C1055 C 0.72675 0.00159 0.6495 0.0
C1056 C 0.74425 0.00211 0.62998 0.0
C1057 C 0.7359 0.00032 0.67563 0.0
C1058 C 0.71139 0.98388 0.64471 0.0
C1059 C 0.6914 0.9915 0.64034 0.0
C1060 C 0.67457 0.97821 0.63523 0.0
C1061 C 0.67825 0.95652 0.63462 0.0
C1062 C 0.69861 0.94837 0.63902 0.0
C1063 C 0.71535 0.96227 0.64412 0.0
H1064 H 0.54142 0.75642 0.85467 0.0
H1065 H 0.55751 0.82234 0.84659 0.0
H1066 H 0.52002 0.8315 0.8452 0.0
H1067 H 0.49348 0.75766 0.81538 0.0
H1068 H 0.4792 0.73995 0.83514 0.0
H1069 H 0.50739 0.73798 0.83281 0.0
H1070 H 0.51047 0.74187 0.8801 0.0
H1071 H 0.48234 0.74402 0.88256 0.0
H1072 H 0.4989 0.76439 0.89498 0.0
H1073 H 0.48186 0.83434 0.84837 0.0
H1074 H 0.44385 0.83071 0.85474 0.0
H1075 H 0.45087 0.76303 0.86094 0.0
C1076 C 0.53695 0.77268 0.85204 0.0
C1077 C 0.55231 0.78869 0.85062 0.0
C1078 C 0.54597 0.80986 0.84773 0.0
C1079 C 0.52472 0.81522 0.84684 0.0
C1080 C 0.50995 0.79924 0.84891 0.0
C1081 C 0.51563 0.77838 0.85132 0.0
C1082 C 0.49633 0.76462 0.85474 0.0
C1083 C 0.49397 0.74914 0.83323 0.0
C1084 C 0.49706 0.75304 0.87957 0.0
C1085 C 0.47908 0.78112 0.85438 0.0
C1086 C 0.48743 0.80093 0.85083 0.0
C1087 C 0.47505 0.81891 0.85089 0.0
C1088 C 0.45347 0.81667 0.85466 0.0
C1089 C 0.4444 0.79659 0.8583 0.0
C1090 C 0.45738 0.77854 0.858 0.0
H1091 H 0.20167 0.46026 0.8655 0.0
H1092 H 0.26705 0.4499 0.84626 0.0
H1093 H 0.27271 0.4883 0.84443 0.0
H1094 H 0.19341 0.50473 0.82627 0.0
H1095 H 0.17659 0.51816 0.84782 0.0
H1096 H 0.17781 0.4899 0.84784 0.0
H1097 H 0.1878 0.49022 0.89408 0.0
H1098 H 0.18654 0.51848 0.89421 0.0
H1099 H 0.21016 0.50534 0.90412 0.0
H1100 H 0.27107 0.52792 0.8445 0.0
H1101 H 0.2623 0.56575 0.84701 0.0
H1102 H 0.19803 0.54975 0.8661 0.0
C1103 C 0.21719 0.46606 0.86096 0.0
C1104 C 0.23393 0.45215 0.85603 0.0
C1105 C 0.25401 0.46033 0.85012 0.0
C1106 C 0.25737 0.48209 0.84902 0.0
C1107 C 0.24049 0.49539 0.85388 0.0
C1108 C 0.22081 0.48768 0.85977 0.0
C1109 C 0.20529 0.50528 0.86416 0.0
C1110 C 0.18722 0.50446 0.8454 0.0
C1111 C 0.19697 0.5048 0.89072 0.0
C1112 C 0.21931 0.5241 0.85982 0.0
C1113 C 0.23955 0.5181 0.85389 0.0
C1114 C 0.25527 0.53281 0.84913 0.0
C1115 C 0.25015 0.55422 0.85057 0.0
C1116 C 0.22951 0.56063 0.85672 0.0
C1117 C 0.21395 0.54532 0.86132 0.0
H1118 H 0.45616 0.23697 0.86137 0.0
H1119 H 0.44396 0.17132 0.87788 0.0
H1120 H 0.48194 0.16487 0.88145 0.0
H1121 H 0.50211 0.22842 0.82461 0.0
H1122 H 0.516 0.25117 0.83581 0.0
H1123 H 0.4877 0.25108 0.83519 0.0
H1124 H 0.48679 0.25963 0.88177 0.0
H1125 H 0.5151 0.25978 0.88253 0.0
H1126 H 0.50063 0.24287 0.90304 0.0
H1127 H 0.52052 0.16494 0.88226 0.0
H1128 H 0.55851 0.17148 0.88066 0.0
H1129 H 0.54687 0.23721 0.86387 0.0
C1130 C 0.46153 0.22129 0.86585 0.0
C1131 C 0.44713 0.20463 0.86936 0.0
C1132 C 0.4547 0.1843 0.87513 0.0
C1133 C 0.47625 0.18047 0.87722 0.0
C1134 C 0.49002 0.19714 0.87355 0.0
C1135 C 0.48309 0.21716 0.86805 0.0
C1136 C 0.50146 0.23211 0.86472 0.0
C1137 C 0.50183 0.24122 0.83852 0.0
C1138 C 0.50096 0.24963 0.88418 0.0
C1139 C 0.51975 0.21725 0.86898 0.0
C1140 C 0.51266 0.1972 0.8741 0.0
C1141 C 0.52632 0.18057 0.87837 0.0
C1142 C 0.54789 0.18448 0.87738 0.0
C1143 C 0.55565 0.20487 0.87215 0.0
C1144 C 0.54137 0.2215 0.86797 0.0
H1145 H 0.76044 0.45561 0.86291 0.0
H1146 H 0.8262 0.44297 0.84738 0.0
H1147 H 0.83293 0.48076 0.84342 0.0
H1148 H 0.75532 0.50129 0.82136 0.0
H1149 H 0.73862 0.51567 0.84218 0.0
H1150 H 0.73819 0.48735 0.84213 0.0
H1151 H 0.74651 0.48713 0.88877 0.0
H1152 H 0.74703 0.51542 0.88895 0.0
H1153 H 0.76943 0.50081 0.89988 0.0
H1154 H 0.83369 0.519 0.84379 0.0
H1155 H 0.8283 0.55703 0.84778 0.0
H1156 H 0.76204 0.54669 0.86271 0.0
C1157 C 0.77614 0.46087 0.85834 0.0
C1158 C 0.7928 0.44636 0.85546 0.0
C1159 C 0.81321 0.45378 0.84978 0.0
C1160 C 0.81721 0.47523 0.84739 0.0
C1161 C 0.80064 0.48915 0.85071 0.0
C1162 C 0.78049 0.48243 0.85599 0.0
C1163 C 0.76591 0.50109 0.85974 0.0
C1164 C 0.74848 0.50136 0.84018 0.0
C1165 C 0.75668 0.50111 0.88589 0.0
C1166 C 0.78118 0.51918 0.85609 0.0
C1167 C 0.80108 0.51176 0.85082 0.0
C1168 C 0.81817 0.52508 0.84769 0.0
C1169 C 0.81494 0.54666 0.85011 0.0
C1170 C 0.79476 0.5548 0.85552 0.0
C1171 C 0.77759 0.54088 0.85833 0.0
H1172 H 0.45058 0.19388 0.13284 0.0
H1173 H 0.436 0.26046 0.13032 0.0
H1174 H 0.47392 0.26875 0.1309 0.0
H1175 H 0.4936 0.19803 0.17442 0.0
H1176 H 0.50896 0.17775 0.15984 0.0
H1177 H 0.48071 0.17701 0.15809 0.0
H1178 H 0.48275 0.17579 0.11049 0.0
H1179 H 0.51102 0.17648 0.11209 0.0
H1180 H 0.49711 0.19591 0.09429 0.0
H1181 H 0.51325 0.26982 0.13305 0.0
H1182 H 0.55145 0.26359 0.13647 0.0
H1183 H 0.54034 0.1963 0.13775 0.0
C1184 C 0.45538 0.21019 0.13219 0.0
C1185 C 0.4404 0.22654 0.13147 0.0
C1186 C 0.44725 0.2477 0.13085 0.0
C1187 C 0.46873 0.25256 0.13116 0.0
C1188 C 0.4831 0.23608 0.13209 0.0
C1189 C 0.47674 0.21532 0.13256 0.0
C1190 C 0.49537 0.20059 0.13422 0.0
C1191 C 0.49461 0.18759 0.15806 0.0
C1192 C 0.49663 0.18636 0.11141 0.0
C1193 C 0.5132 0.21632 0.1347 0.0
C1194 C 0.50579 0.2367 0.13341 0.0
C1195 C 0.51926 0.25393 0.13398 0.0
C1196 C 0.54091 0.25024 0.13595 0.0
C1197 C 0.54882 0.22948 0.13735 0.0
C1198 C 0.53474 0.21234 0.13664 0.0
H1199 H 0.81024 0.54657 0.13705 0.0
H1200 H 0.74394 0.56136 0.14426 0.0
H1201 H 0.73571 0.52346 0.14652 0.0
H1202 H 0.80398 0.50079 0.09918 0.0
H1203 H 0.82513 0.48656 0.11362 0.0
H1204 H 0.82575 0.51483 0.1126 0.0
H1205 H 0.82965 0.51606 0.16004 0.0
H1206 H 0.829 0.48778 0.16122 0.0
H1207 H 0.81052 0.5029 0.17905 0.0
H1208 H 0.73472 0.48408 0.14759 0.0
H1209 H 0.74098 0.44581 0.14757 0.0
H1210 H 0.80802 0.45676 0.14023 0.0
C1211 C 0.79399 0.54183 0.13908 0.0
C1212 C 0.7777 0.55686 0.14045 0.0
C1213 C 0.75664 0.55008 0.14317 0.0
C1214 C 0.75182 0.52861 0.14447 0.0
C1215 C 0.76826 0.5142 0.14311 0.0
C1216 C 0.78892 0.5205 0.14049 0.0
C1217 C 0.80364 0.50184 0.13952 0.0
C1218 C 0.81531 0.50096 0.11475 0.0
C1219 C 0.81911 0.50217 0.16125 0.0
C1220 C 0.78803 0.48403 0.14192 0.0
C1221 C 0.76771 0.4915 0.14395 0.0
C1222 C 0.75056 0.47804 0.14608 0.0
C1223 C 0.75428 0.45634 0.14604 0.0
C1224 C 0.77498 0.44836 0.14396 0.0
C1225 C 0.79204 0.46242 0.14197 0.0
H1226 H 0.45648 0.80152 0.13799 0.0
H1227 H 0.44447 0.73758 0.16195 0.0
H1228 H 0.48255 0.73189 0.16738 0.0
H1229 H 0.50283 0.78978 0.10329 0.0
H1230 H 0.51612 0.81379 0.11149 0.0
H1231 H 0.48785 0.81305 0.11037 0.0
H1232 H 0.48618 0.82631 0.15541 0.0
H1233 H 0.51446 0.82699 0.1567 0.0
H1234 H 0.49991 0.81204 0.17913 0.0
H1235 H 0.52187 0.733 0.16991 0.0
H1236 H 0.55995 0.74035 0.16727 0.0
H1237 H 0.54634 0.80329 0.14096 0.0
C1238 C 0.46188 0.78635 0.14446 0.0
C1239 C 0.44756 0.77 0.14962 0.0
C1240 C 0.4552 0.75032 0.15787 0.0
C1241 C 0.47678 0.74695 0.1611 0.0
C1242 C 0.4905 0.7634 0.1559 0.0
C1243 C 0.48339 0.78267 0.14762 0.0
C1244 C 0.5015 0.79749 0.1426 0.0
C1245 C 0.50211 0.80389 0.11532 0.0
C1246 C 0.50045 0.81685 0.15948 0.0
C1247 C 0.51988 0.78348 0.14922 0.0
C1248 C 0.5132 0.76395 0.15703 0.0
C1249 C 0.52732 0.74826 0.16386 0.0
C1250 C 0.54889 0.75258 0.16235 0.0
C1251 C 0.55606 0.77237 0.15394 0.0
C1252 C 0.54132 0.78803 0.14753 0.0
H1253 H 0.18403 0.45088 0.13583 0.0
H1254 H 0.24971 0.43692 0.15002 0.0
H1255 H 0.257 0.4747 0.15498 0.0
H1256 H 0.19304 0.49699 0.10018 0.0
H1257 H 0.17069 0.51113 0.11207 0.0
H1258 H 0.17025 0.48286 0.1109 0.0
H1259 H 0.16229 0.48146 0.15762 0.0
H1260 H 0.16271 0.50974 0.15894 0.0
H1261 H 0.1796 0.49465 0.17884 0.0
H1262 H 0.25759 0.51359 0.15725 0.0
H1263 H 0.25159 0.55181 0.15586 0.0
H1264 H 0.18563 0.54109 0.13971 0.0
C1265 C 0.19989 0.4558 0.14017 0.0
C1266 C 0.21631 0.441 0.14262 0.0
C1267 C 0.2369 0.448 0.14809 0.0
C1268 C 0.2412 0.46941 0.151 0.0
C1269 C 0.22473 0.48361 0.14835 0.0
C1270 C 0.2045 0.47717 0.14304 0.0
C1271 C 0.18987 0.49583 0.14035 0.0
C1272 C 0.18041 0.49675 0.11432 0.0
C1273 C 0.1726 0.49539 0.16012 0.0
C1274 C 0.20514 0.51372 0.14468 0.0
C1275 C 0.22512 0.50626 0.14945 0.0
C1276 C 0.24201 0.51966 0.15365 0.0
C1277 C 0.23843 0.54133 0.15281 0.0
C1278 C 0.21815 0.54938 0.14771 0.0
C1279 C 0.20128 0.53536 0.14374 0.0
H1280 H 0.11505 0.26258 0.44527 0.0
H1281 H 0.13926 0.32331 0.42268 0.0
H1282 H 0.14205 0.33392 0.46646 0.0
H1283 H 0.08369 0.28082 0.49488 0.0
H1284 H 0.08912 0.25849 0.51425 0.0
H1285 H 0.08969 0.25568 0.4813 0.0
H1286 H 0.12776 0.2413 0.48363 0.0
H1287 H 0.12726 0.24392 0.5166 0.0
H1288 H 0.14772 0.2565 0.49902 0.0
H1289 H 0.14107 0.33794 0.51326 0.0
H1290 H 0.13779 0.33445 0.55853 0.0
H1291 H 0.11436 0.27093 0.54926 0.0
C1292 C 0.12108 0.27808 0.44948 0.0
C1293 C 0.12697 0.29214 0.43061 0.0
C1294 C 0.13474 0.31228 0.4369 0.0
C1295 C 0.13631 0.31844 0.46168 0.0
C1296 C 0.13012 0.30424 0.47984 0.0
C1297 C 0.12278 0.28442 0.47397 0.0
C1298 C 0.117 0.27204 0.49671 0.0
C1299 C 0.09348 0.26644 0.49678 0.0
C1300 C 0.13076 0.25228 0.49913 0.0
C1301 C 0.12213 0.28797 0.5164 0.0
C1302 C 0.12964 0.30648 0.50642 0.0
C1303 C 0.13526 0.32348 0.52124 0.0
C1304 C 0.13329 0.32139 0.54689 0.0
C1305 C 0.12583 0.30243 0.55737 0.0
C1306 C 0.12013 0.28563 0.54182 0.0
H1307 H 0.69031 0.1329 0.55614 0.0
H1308 H 0.756 0.11807 0.56908 0.0
H1309 H 0.76277 0.11923 0.52462 0.0
H1310 H 0.68481 0.10122 0.50256 0.0
H1311 H 0.66773 0.11913 0.48645 0.0
H1312 H 0.66799 0.11879 0.51957 0.0
H1313 H 0.67639 0.15861 0.52017 0.0
H1314 H 0.67614 0.15908 0.48701 0.0
H1315 H 0.69891 0.16828 0.50353 0.0
H1316 H 0.7626 0.12018 0.4796 0.0
H1317 H 0.75534 0.12022 0.43522 0.0
H1318 H 0.68967 0.13408 0.44976 0.0
C1319 C 0.70613 0.13016 0.54954 0.0
C1320 C 0.72265 0.12545 0.56605 0.0
C1321 C 0.7431 0.12168 0.55678 0.0
C1322 C 0.74715 0.12238 0.53155 0.0
C1323 C 0.73057 0.12683 0.51575 0.0
C1324 C 0.71046 0.13065 0.52422 0.0
C1325 C 0.6954 0.13402 0.50289 0.0
C1326 C 0.67796 0.11729 0.50287 0.0
C1327 C 0.68617 0.15633 0.50344 0.0
C1328 C 0.71021 0.13117 0.48123 0.0
C1329 C 0.73043 0.12722 0.48924 0.0
C1330 C 0.74687 0.12339 0.47302 0.0
C1331 C 0.74256 0.12341 0.44784 0.0
C1332 C 0.72195 0.12718 0.43904 0.0
C1333 C 0.70559 0.13132 0.45598 0.0
H1334 H 0.88639 0.73808 0.45029 0.0
H1335 H 0.84694 0.68341 0.43841 0.0
H1336 H 0.84323 0.67905 0.48347 0.0
H1337 H 0.91416 0.71805 0.50161 0.0
H1338 H 0.91548 0.7429 0.51743 0.0
H1339 H 0.91408 0.74225 0.48437 0.0
H1340 H 0.88107 0.76611 0.48545 0.0
H1341 H 0.88242 0.76691 0.51853 0.0
H1342 H 0.85866 0.7583 0.50357 0.0
H1343 H 0.84505 0.68007 0.52998 0.0
H1344 H 0.85188 0.68663 0.57413 0.0
H1345 H 0.89024 0.74055 0.55488 0.0
C1346 C 0.8768 0.7253 0.45713 0.0
C1347 C 0.86689 0.7111 0.44092 0.0
C1348 C 0.8546 0.69449 0.45057 0.0
C1349 C 0.85242 0.6919 0.4761 0.0
C1350 C 0.86261 0.70607 0.4916 0.0
C1351 C 0.87449 0.72248 0.48245 0.0
C1352 C 0.88429 0.73525 0.50291 0.0
C1353 C 0.90843 0.73456 0.50149 0.0
C1354 C 0.87611 0.75799 0.50259 0.0
C1355 C 0.87622 0.72337 0.52506 0.0
C1356 C 0.86369 0.70663 0.5182 0.0
C1357 C 0.85475 0.6932 0.53555 0.0
C1358 C 0.85874 0.69702 0.56055 0.0
C1359 C 0.87156 0.71409 0.56787 0.0
C1360 C 0.88033 0.7274 0.54984 0.0
H1361 H 0.30194 0.87436 0.56023 0.0
H1362 H 0.23461 0.87913 0.57226 0.0
H1363 H 0.22849 0.87578 0.52786 0.0
H1364 H 0.30298 0.90451 0.50447 0.0
H1365 H 0.32266 0.88865 0.4895 0.0
H1366 H 0.32214 0.89048 0.52256 0.0
H1367 H 0.31983 0.84994 0.52568 0.0
H1368 H 0.32032 0.848 0.49261 0.0
H1369 H 0.29911 0.83625 0.50975 0.0
H1370 H 0.2291 0.87356 0.48291 0.0
H1371 H 0.23645 0.87254 0.43857 0.0
H1372 H 0.30335 0.86861 0.45365 0.0
C1373 C 0.28594 0.87455 0.55346 0.0
C1374 C 0.26875 0.877 0.56978 0.0
C1375 C 0.24804 0.8773 0.56021 0.0
C1376 C 0.24437 0.87536 0.53497 0.0
C1377 C 0.26154 0.87308 0.5194 0.0
C1378 C 0.28193 0.87263 0.5281 0.0
C1379 C 0.29743 0.87057 0.50691 0.0
C1380 C 0.31217 0.88969 0.5058 0.0
C1381 C 0.30991 0.84996 0.50886 0.0
C1382 C 0.28249 0.87017 0.48507 0.0
C1383 C 0.26188 0.87159 0.49291 0.0
C1384 C 0.24515 0.8723 0.4765 0.0
C1385 C 0.24951 0.87176 0.45132 0.0
C1386 C 0.27045 0.87043 0.44265 0.0
C1387 C 0.28718 0.86938 0.45978 0.0
H1388 H 0.11623 0.67694 0.44997 0.0
H1389 H 0.15804 0.72909 0.43472 0.0
H1390 H 0.16698 0.73147 0.47876 0.0
H1391 H 0.09463 0.69865 0.50221 0.0
H1392 H 0.09194 0.67462 0.51948 0.0
H1393 H 0.09192 0.6739 0.48641 0.0
H1394 H 0.12286 0.64747 0.4869 0.0
H1395 H 0.1229 0.64801 0.52007 0.0
H1396 H 0.1466 0.65397 0.50331 0.0
H1397 H 0.16782 0.73168 0.52382 0.0
H1398 H 0.16002 0.73034 0.56811 0.0
H1399 H 0.11683 0.67864 0.55577 0.0
C1400 C 0.12783 0.6883 0.45593 0.0
C1401 C 0.13679 0.70262 0.43908 0.0
C1402 C 0.15124 0.71788 0.44744 0.0
C1403 C 0.15646 0.71928 0.47237 0.0
C1404 C 0.14694 0.70539 0.48872 0.0
C1405 C 0.13293 0.69016 0.48096 0.0
C1406 C 0.12299 0.67906 0.5028 0.0
C1407 C 0.09895 0.68173 0.50271 0.0
C1408 C 0.12922 0.65574 0.50329 0.0
C1409 C 0.13303 0.69098 0.52394 0.0
C1410 C 0.14708 0.70582 0.51528 0.0
C1411 C 0.15715 0.7199 0.5309 0.0
C1412 C 0.15254 0.71907 0.55601 0.0
C1413 C 0.13792 0.70432 0.56534 0.0
C1414 C 0.12836 0.6898 0.54915 0.0
H1415 H 0.26802 0.10314 0.44519 0.0
H1416 H 0.32767 0.1325 0.42742 0.0
H1417 H 0.33544 0.1362 0.47179 0.0
H1418 H 0.25599 0.13584 0.49696 0.0
H1419 H 0.24405 0.11493 0.51441 0.0
H1420 H 0.24354 0.1142 0.4813 0.0
H1421 H 0.26121 0.0775 0.48198 0.0
H1422 H 0.26184 0.07814 0.5151 0.0
H1423 H 0.28577 0.07409 0.49801 0.0
H1424 H 0.33672 0.13636 0.51819 0.0
H1425 H 0.33064 0.13451 0.56311 0.0
H1426 H 0.26977 0.10587 0.55007 0.0
C1427 C 0.28274 0.11031 0.45063 0.0
C1428 C 0.29729 0.11749 0.43294 0.0
C1429 C 0.31631 0.12691 0.44074 0.0
C1430 C 0.32088 0.12903 0.46586 0.0
C1431 C 0.3062 0.12174 0.48286 0.0
C1432 C 0.28747 0.11268 0.47557 0.0
C1433 C 0.27414 0.10654 0.49747 0.0
C1434 C 0.2532 0.1186 0.49753 0.0
C1435 C 0.27054 0.08265 0.49817 0.0
C1436 C 0.28828 0.1136 0.51824 0.0
C1437 C 0.30677 0.12219 0.50947 0.0
C1438 C 0.32229 0.1297 0.52527 0.0
C1439 C 0.31873 0.12855 0.55071 0.0
C1440 C 0.29974 0.1201 0.55999 0.0
C1441 C 0.28442 0.11247 0.54349 0.0
H1442 H 0.87661 0.2647 0.45053 0.0
H1443 H 0.86366 0.3307 0.43747 0.0
H1444 H 0.86469 0.33726 0.48236 0.0
H1445 H 0.84586 0.25973 0.50679 0.0
H1446 H 0.86443 0.24202 0.52081 0.0
H1447 H 0.86153 0.24256 0.48785 0.0
H1448 H 0.90145 0.24965 0.48326 0.0
H1449 H 0.90445 0.24932 0.51618 0.0
H1450 H 0.913 0.27186 0.49878 0.0
H1451 H 0.86913 0.33675 0.52868 0.0
H1452 H 0.87493 0.32899 0.57274 0.0
H1453 H 0.88473 0.26324 0.55504 0.0
C1454 C 0.87372 0.2805 0.4571 0.0
C1455 C 0.86999 0.2972 0.44054 0.0
C1456 C 0.86643 0.31766 0.44986 0.0
C1457 C 0.86704 0.32153 0.4753 0.0
C1458 C 0.87114 0.30475 0.4911 0.0
C1459 C 0.87424 0.28461 0.48234 0.0
C1460 C 0.8788 0.26936 0.50305 0.0
C1461 C 0.86163 0.25242 0.50472 0.0
C1462 C 0.90073 0.25948 0.50013 0.0
C1463 C 0.87801 0.28409 0.52486 0.0
C1464 C 0.87357 0.30444 0.51763 0.0
C1465 C 0.87248 0.32085 0.53455 0.0
C1466 C 0.87586 0.3163 0.55951 0.0
C1467 C 0.88025 0.29552 0.56729 0.0
C1468 C 0.88135 0.27927 0.54966 0.0
H1469 H 0.72674 0.88748 0.553 0.0
H1470 H 0.66636 0.85833 0.56739 0.0
H1471 H 0.66078 0.85409 0.52247 0.0
H1472 H 0.71112 0.91661 0.50037 0.0
H1473 H 0.73579 0.91311 0.4846 0.0
H1474 H 0.73502 0.91307 0.5177 0.0
H1475 H 0.75298 0.87651 0.51833 0.0
H1476 H 0.75381 0.87644 0.48522 0.0
H1477 H 0.74138 0.85508 0.50142 0.0
H1478 H 0.66188 0.854 0.47521 0.0
H1479 H 0.66947 0.85817 0.4307 0.0
H1480 H 0.7291 0.88739 0.44866 0.0
C1481 C 0.71235 0.88009 0.54678 0.0
C1482 C 0.69698 0.8732 0.56368 0.0
C1483 C 0.67836 0.86369 0.55473 0.0
C1484 C 0.67508 0.86123 0.52928 0.0
C1485 C 0.69059 0.86833 0.5131 0.0
C1486 C 0.70886 0.87754 0.52161 0.0
C1487 C 0.723 0.88424 0.50068 0.0
C1488 C 0.72642 0.90818 0.50086 0.0
C1489 C 0.74403 0.87235 0.50147 0.0
C1490 C 0.70984 0.87749 0.47895 0.0
C1491 C 0.69121 0.86828 0.48635 0.0
C1492 C 0.67647 0.86113 0.46927 0.0
C1493 C 0.6809 0.86354 0.44405 0.0
C1494 C 0.69988 0.87306 0.43622 0.0
C1495 C 0.71447 0.87999 0.45401 0.0
H1496 H 0.62608 0.80671 0.0536 0.0
H1497 H 0.60505 0.74311 0.06905 0.0
H1498 H 0.60258 0.73596 0.02483 0.0
H1499 H 0.59287 0.81496 0.99996 0.0
H1500 H 0.61246 0.82942 0.98302 0.0
H1501 H 0.61243 0.83008 0.01616 0.0
H1502 H 0.65104 0.81725 0.01662 0.0
H1503 H 0.65118 0.8165 0.98348 0.0
H1504 H 0.65789 0.79331 0.00081 0.0
H1505 H 0.60242 0.73499 0.97991 0.0
H1506 H 0.60449 0.74033 0.93526 0.0
H1507 H 0.62592 0.80438 0.94693 0.0
C1508 C 0.62089 0.79135 0.04759 0.0
C1509 C 0.61576 0.77547 0.06482 0.0
C1510 C 0.60911 0.75552 0.05627 0.0
C1511 C 0.60763 0.75127 0.03115 0.0
C1512 C 0.61288 0.7671 0.01467 0.0
C1513 C 0.61937 0.78674 0.02235 0.0
C1514 C 0.62424 0.8007 1.00038 0.0
C1515 C 0.60962 0.81993 0.99985 0.0
C1516 C 0.64747 0.80733 1.00033 0.0
C1517 C 0.61945 0.78574 0.97931 0.0
C1518 C 0.61291 0.76648 0.98817 0.0
C1519 C 0.60751 0.74999 0.97266 0.0
C1520 C 0.60875 0.7532 0.9473 0.0
C1521 C 0.61537 0.77276 0.93758 0.0
C1522 C 0.62085 0.78925 0.95384 0.0
H1523 H 0.22656 0.60815 0.94977 0.0
H1524 H 0.17142 0.64613 0.93481 0.0
H1525 H 0.16426 0.64842 0.97955 0.0
H1526 H 0.20411 0.57871 1.00023 0.0
H1527 H 0.22846 0.57791 0.01714 0.0
H1528 H 0.22883 0.57916 0.98404 0.0
H1529 H 0.25215 0.61252 0.98606 0.0
H1530 H 0.25182 0.6114 0.01915 0.0
H1531 H 0.24331 0.63491 0.00356 0.0
H1532 H 0.16413 0.64742 0.02641 0.0
H1533 H 0.17039 0.64227 0.071 0.0
H1534 H 0.22516 0.60427 0.05424 0.0
C1535 C 0.21294 0.61692 0.95587 0.0
C1536 C 0.19956 0.62703 0.9389 0.0
C1537 C 0.18184 0.63825 0.94758 0.0
C1538 C 0.17768 0.63965 0.97292 0.0
C1539 C 0.1913 0.62957 0.9892 0.0
C1540 C 0.20849 0.61831 0.98096 0.0
C1541 C 0.22074 0.60888 0.00207 0.0
C1542 C 0.22051 0.58473 0.00079 0.0
C1543 C 0.24334 0.61745 0.00274 0.0
C1544 C 0.20796 0.61681 0.02357 0.0
C1545 C 0.19103 0.62872 0.01587 0.0
C1546 C 0.17727 0.63802 0.03262 0.0
C1547 C 0.18095 0.63504 0.05787 0.0
C1548 C 0.19821 0.62283 0.06603 0.0
C1549 C 0.21177 0.61361 0.04857 0.0
H1550 H 0.36685 0.23034 0.04991 0.0
H1551 H 0.36719 0.16352 0.06558 0.0
H1552 H 0.36432 0.15602 0.02092 0.0
H1553 H 0.33033 0.22867 0.99786 0.0
H1554 H 0.34436 0.2489 0.98149 0.0
H1555 H 0.34433 0.24869 0.01464 0.0
H1556 H 0.38508 0.2485 0.01477 0.0
H1557 H 0.38525 0.24873 0.9817 0.0
H1558 H 0.39892 0.22828 0.99813 0.0
H1559 H 0.36374 0.15626 0.97391 0.0
H1560 H 0.3669 0.16416 0.92939 0.0
H1561 H 0.36749 0.23082 0.94587 0.0
C1562 C 0.36603 0.2141 0.04404 0.0
C1563 C 0.36718 0.19749 0.06115 0.0
C1564 C 0.36625 0.17647 0.05271 0.0
C1565 C 0.36456 0.17208 0.02742 0.0
C1566 C 0.36372 0.18892 0.01098 0.0
C1567 C 0.3644 0.2095 0.01905 0.0
C1568 C 0.3646 0.22484 0.99785 0.0
C1569 C 0.34472 0.23858 0.99797 0.0
C1570 C 0.38466 0.23837 0.99814 0.0
C1571 C 0.3645 0.20972 0.97647 0.0
C1572 C 0.36368 0.18906 0.98428 0.0
C1573 C 0.36421 0.17239 0.96762 0.0
C1574 C 0.36596 0.177 0.94241 0.0
C1575 C 0.36743 0.19809 0.93427 0.0
C1576 C 0.36635 0.21455 0.95156 0.0
H1577 H 0.76673 0.38627 0.05424 0.0
H1578 H 0.83152 0.37097 0.07142 0.0
H1579 H 0.83959 0.36895 0.02691 0.0
H1580 H 0.7615 0.35254 0.00169 0.0
H1581 H 0.74542 0.37087 0.98483 0.0
H1582 H 0.7449 0.37083 0.01795 0.0
H1583 H 0.7546 0.4104 0.01831 0.0
H1584 H 0.75516 0.41056 0.98519 0.0
H1585 H 0.77783 0.41914 0.00232 0.0
H1586 H 0.84028 0.36845 0.9801 0.0
H1587 H 0.83363 0.37022 0.93521 0.0
H1588 H 0.76857 0.3865 0.94958 0.0
C1589 C 0.78261 0.38243 0.04867 0.0
C1590 C 0.7985 0.37871 0.06624 0.0
C1591 C 0.81911 0.37386 0.05821 0.0
C1592 C 0.82383 0.37266 0.033 0.0
C1593 C 0.80777 0.37645 0.01613 0.0
C1594 C 0.78759 0.38129 0.02367 0.0
C1595 C 0.77319 0.38498 0.00198 0.0
C1596 C 0.75519 0.36884 0.0016 0.0
C1597 C 0.7647 0.40761 0.00196 0.0
C1598 C 0.78837 0.3814 0.981 0.0
C1599 C 0.80824 0.37645 0.98945 0.0
C1600 C 0.82479 0.37235 0.9733 0.0
C1601 C 0.82088 0.37338 0.94787 0.0
C1602 C 0.80062 0.37853 0.93895 0.0
C1603 C 0.78425 0.38258 0.95582 0.0
H1604 H 0.6204 0.23434 0.05827 0.0
H1605 H 0.62789 0.1686 0.07739 0.0
H1606 H 0.632 0.15985 0.03315 0.0
H1607 H 0.58962 0.22634 0.00522 0.0
H1608 H 0.60121 0.24781 0.98838 0.0
H1609 H 0.6002 0.24866 0.02144 0.0
H1610 H 0.64058 0.25405 0.02305 0.0
H1611 H 0.64171 0.25322 0.98996 0.0
H1612 H 0.65757 0.23545 0.0079 0.0
H1613 H 0.63409 0.15864 0.98589 0.0
H1614 H 0.63299 0.16501 0.94084 0.0
H1615 H 0.62364 0.23151 0.95436 0.0
C1616 C 0.62309 0.21809 0.05325 0.0
C1617 C 0.6239 0.20214 0.07123 0.0
C1618 C 0.62728 0.18107 0.06386 0.0
C1619 C 0.62966 0.17598 0.0388 0.0
C1620 C 0.62862 0.19216 0.0215 0.0
C1621 C 0.62541 0.21279 0.02852 0.0
C1622 C 0.62409 0.22729 0.0066 0.0
C1623 C 0.6025 0.23815 0.00534 0.0
C1624 C 0.64206 0.24345 0.0069 0.0
C1625 C 0.62681 0.21164 0.98599 0.0
C1626 C 0.62958 0.19145 0.99479 0.0
C1627 C 0.63202 0.17441 0.97886 0.0
C1628 C 0.63141 0.17816 0.95334 0.0
C1629 C 0.62822 0.19873 0.94415 0.0
C1630 C 0.6261 0.21559 0.96079 0.0
H1631 H 0.77404 0.62051 0.05238 0.0
H1632 H 0.8402 0.63062 0.06749 0.0
H1633 H 0.84715 0.63302 0.02265 0.0
H1634 H 0.78102 0.588 0.9997 0.0
H1635 H 0.75854 0.59852 0.98375 0.0
H1636 H 0.75904 0.59822 0.01685 0.0
H1637 H 0.75237 0.63841 0.01757 0.0
H1638 H 0.75188 0.63885 0.98445 0.0
H1639 H 0.76981 0.65564 0.00095 0.0
H1640 H 0.84643 0.63404 0.97559 0.0
H1641 H 0.83836 0.63258 0.93102 0.0
H1642 H 0.7727 0.62136 0.94801 0.0
C1643 C 0.79001 0.62331 0.04633 0.0
C1644 C 0.8066 0.62545 0.06337 0.0
C1645 C 0.82727 0.62896 0.05468 0.0
C1646 C 0.83134 0.63037 0.02929 0.0
C1647 C 0.81454 0.62819 0.01297 0.0
C1648 C 0.79431 0.62467 0.02122 0.0
C1649 C 0.77899 0.62242 1.00014 0.0
C1650 C 0.76881 0.60049 1.00011 0.0
C1651 C 0.76228 0.63987 0.00083 0.0
C1652 C 0.79372 0.62516 0.9786 0.0
C1653 C 0.81416 0.62857 0.98626 0.0
C1654 C 0.83047 0.6314 0.96944 0.0
C1655 C 0.82575 0.63058 0.94419 0.0
C1656 C 0.80492 0.62687 0.9361 0.0
C1657 C 0.78878 0.62424 0.95362 0.0
H1658 H 0.38347 0.77347 0.95189 0.0
H1659 H 0.36915 0.83947 0.94119 0.0
H1660 H 0.3679 0.84438 0.98647 0.0
H1661 H 0.34979 0.76536 0.00391 0.0
H1662 H 0.36771 0.74749 0.01878 0.0
H1663 H 0.36743 0.74953 0.98575 0.0
H1664 H 0.40729 0.75798 0.98591 0.0
H1665 H 0.40769 0.75598 0.01894 0.0
H1666 H 0.41688 0.7796 0.00415 0.0
H1667 H 0.36877 0.84165 0.03371 0.0
H1668 H 0.37109 0.83146 0.0777 0.0
H1669 H 0.38441 0.76724 0.05604 0.0
C1670 C 0.38006 0.789 0.95899 0.0
C1671 C 0.37644 0.80612 0.94302 0.0
C1672 C 0.37197 0.82614 0.95312 0.0
C1673 C 0.37125 0.82906 0.97879 0.0
C1674 C 0.37495 0.81178 0.99403 0.0
C1675 C 0.37922 0.79214 0.9844 0.0
C1676 C 0.38258 0.77602 0.00445 0.0
C1677 C 0.36588 0.75858 0.00314 0.0
C1678 C 0.40494 0.76687 0.00329 0.0
C1679 C 0.37963 0.7896 0.02699 0.0
C1680 C 0.37527 0.81019 0.02075 0.0
C1681 C 0.37213 0.82554 0.03873 0.0
C1682 C 0.37349 0.81963 0.06366 0.0
C1683 C 0.37789 0.79857 0.07029 0.0
C1684 C 0.38096 0.78347 0.05161 0.0
H1685 H 0.23669 0.3778 0.94378 0.0
H1686 H 0.17112 0.38159 0.92241 0.0
H1687 H 0.16066 0.37949 0.96624 0.0
H1688 H 0.22962 0.34107 0.99412 0.0
H1689 H 0.24941 0.35341 0.01292 0.0
H1690 H 0.25144 0.35445 0.9799 0.0
H1691 H 0.25341 0.3951 0.98176 0.0
H1692 H 0.25133 0.39419 0.01476 0.0
H1693 H 0.23286 0.40951 0.99714 0.0
H1694 H 0.15769 0.37826 0.01293 0.0
H1695 H 0.16246 0.37759 0.05816 0.0
H1696 H 0.23002 0.37444 0.04811 0.0
C1697 C 0.22011 0.37804 0.94827 0.0
C1698 C 0.20469 0.37984 0.92972 0.0
C1699 C 0.18317 0.38017 0.93636 0.0
C1700 C 0.1771 0.37899 0.96119 0.0
C1701 C 0.19275 0.3774 0.97906 0.0
C1702 C 0.21381 0.37684 0.97285 0.0
C1703 C 0.22762 0.37547 0.99544 0.0
C1704 C 0.24026 0.35487 0.9956 0.0
C1705 C 0.24216 0.39472 0.99738 0.0
C1706 C 0.21109 0.37558 0.01541 0.0
C1707 C 0.19105 0.37663 0.00568 0.0
C1708 C 0.17331 0.37732 0.02073 0.0
C1709 C 0.17616 0.37695 0.04637 0.0
C1710 C 0.19659 0.37592 0.05662 0.0
C1711 C 0.2142 0.37515 0.04084 0.0
H1712 H 0.18298 0.36533 0.2165 0.0
H1713 H 0.14648 0.33431 0.15969 0.0
H1714 H 0.12695 0.31475 0.19165 0.0
H1715 H 0.1891 0.3212 0.25437 0.0
H1716 H 0.18703 0.33532 0.28301 0.0
H1717 H 0.19667 0.34846 0.25596 0.0
H1718 H 0.1679 0.37701 0.26059 0.0
H1719 H 0.15825 0.36403 0.2878 0.0
H1720 H 0.1407 0.36926 0.26251 0.0
H1721 H 0.11336 0.29675 0.22936 0.0
H1722 H 0.10605 0.28186 0.27037 0.0
H1723 H 0.15161 0.3244 0.30276 0.0
C1724 C 0.1706 0.35473 0.2108 0.0
C1725 C 0.16612 0.35141 0.18564 0.0
C1726 C 0.15006 0.33715 0.17888 0.0
C1727 C 0.1389 0.32599 0.19689 0.0
C1728 C 0.144 0.32931 0.22152 0.0
C1729 C 0.15938 0.34341 0.22852 0.0
C1730 C 0.16261 0.34322 0.25614 0.0
C1731 C 0.18519 0.33665 0.26274 0.0
C1732 C 0.15703 0.36465 0.26742 0.0
C1733 C 0.14688 0.32653 0.26356 0.0
C1734 C 0.13623 0.31882 0.24332 0.0
C1735 C 0.12146 0.30279 0.24538 0.0
C1736 C 0.11746 0.2944 0.26874 0.0
C1737 C 0.12824 0.30201 0.28974 0.0
C1738 C 0.14305 0.31837 0.28706 0.0
H1739 H 0.65025 0.16831 0.19582 0.0
H1740 H 0.59723 0.20074 0.22862 0.0
H1741 H 0.60607 0.18543 0.26904 0.0
H1742 H 0.64718 0.12029 0.23427 0.0
H1743 H 0.67536 0.11798 0.23614 0.0
H1744 H 0.66339 0.12951 0.2093 0.0
H1745 H 0.68601 0.163 0.21518 0.0
H1746 H 0.69797 0.15164 0.24205 0.0
H1747 H 0.68509 0.1768 0.24413 0.0
H1748 H 0.62276 0.16957 0.30658 0.0
H1749 H 0.64591 0.15389 0.33823 0.0
H1750 H 0.68778 0.13169 0.28083 0.0
C1751 C 0.64023 0.1718 0.2114 0.0
C1752 C 0.623 0.18561 0.20909 0.0
C1753 C 0.61047 0.19011 0.22998 0.0
C1754 C 0.61534 0.18147 0.25301 0.0
C1755 C 0.63272 0.16827 0.2548 0.0
C1756 C 0.6449 0.16333 0.23453 0.0
C1757 C 0.66356 0.14993 0.24172 0.0
C1758 C 0.66228 0.12814 0.22964 0.0
C1759 C 0.68438 0.16101 0.2354 0.0
C1760 C 0.66027 0.14857 0.26925 0.0
C1761 C 0.6423 0.15908 0.27644 0.0
C1762 C 0.63671 0.16102 0.30115 0.0
C1763 C 0.64995 0.15211 0.31899 0.0
C1764 C 0.66853 0.14148 0.31197 0.0
C1765 C 0.67353 0.13949 0.28675 0.0
H1766 H 0.84205 0.65608 0.19128 0.0
H1767 H 0.80943 0.60221 0.22178 0.0
H1768 H 0.82246 0.61133 0.26316 0.0
H1769 H 0.88808 0.65514 0.23427 0.0
H1770 H 0.88891 0.68341 0.23606 0.0
H1771 H 0.87991 0.67078 0.20832 0.0
H1772 H 0.84517 0.69189 0.21073 0.0
H1773 H 0.85392 0.7044 0.23856 0.0
H1774 H 0.82934 0.69034 0.23818 0.0
H1775 H 0.83515 0.62837 0.30146 0.0
H1776 H 0.84744 0.65201 0.33443 0.0
H1777 H 0.8715 0.6953 0.27953 0.0
C1778 C 0.83827 0.64585 0.20657 0.0
C1779 C 0.82495 0.62833 0.20339 0.0
C1780 C 0.81974 0.61564 0.22388 0.0
C1781 C 0.82709 0.62066 0.24742 0.0
C1782 C 0.83963 0.63843 0.25015 0.0
C1783 C 0.84532 0.65079 0.2303 0.0
C1784 C 0.85727 0.67012 0.23863 0.0
C1785 C 0.87989 0.66984 0.22873 0.0
C1786 C 0.84573 0.69037 0.23108 0.0
C1787 C 0.85682 0.66699 0.26626 0.0
C1788 C 0.84679 0.64849 0.27246 0.0
C1789 C 0.84333 0.64275 0.29686 0.0
C1790 C 0.85028 0.65632 0.31544 0.0
C1791 C 0.86047 0.67542 0.30952 0.0
C1792 C 0.86394 0.68069 0.28459 0.0
H1793 H 0.341 0.82561 0.19724 0.0
H1794 H 0.39313 0.79186 0.23023 0.0
H1795 H 0.38227 0.80423 0.27129 0.0
H1796 H 0.34238 0.87094 0.23915 0.0
H1797 H 0.31417 0.87332 0.23998 0.0
H1798 H 0.32692 0.86302 0.21296 0.0
H1799 H 0.30402 0.82944 0.21572 0.0
H1800 H 0.29129 0.83957 0.2428 0.0
H1801 H 0.30399 0.81427 0.24373 0.0
H1802 H 0.36442 0.81823 0.30912 0.0
H1803 H 0.3413 0.83393 0.3408 0.0
H1804 H 0.30105 0.85876 0.28328 0.0
C1805 C 0.35031 0.82113 0.21307 0.0
C1806 C 0.36795 0.80784 0.21053 0.0
C1807 C 0.37958 0.80208 0.23172 0.0
C1808 C 0.37355 0.80902 0.25515 0.0
C1809 C 0.35588 0.82179 0.25711 0.0
C1810 C 0.34449 0.82792 0.23665 0.0
C1811 C 0.32567 0.84108 0.24397 0.0
C1812 C 0.3274 0.86342 0.23339 0.0
C1813 C 0.30503 0.83045 0.23609 0.0
C1814 C 0.3281 0.8411 0.2717 0.0
C1815 C 0.34566 0.82995 0.27893 0.0
C1816 C 0.35073 0.82719 0.30369 0.0
C1817 C 0.33751 0.8361 0.32155 0.0
C1818 C 0.31946 0.84762 0.31451 0.0
C1819 C 0.31483 0.85017 0.28924 0.0
H1820 H 0.20025 0.63381 0.77708 0.0
H1821 H 0.14559 0.63104 0.82469 0.0
H1822 H 0.12276 0.63963 0.78932 0.0
H1823 H 0.18477 0.67755 0.74402 0.0
H1824 H 0.19512 0.6689 0.71486 0.0
H1825 H 0.2067 0.65964 0.743 0.0
H1826 H 0.20053 0.62113 0.72925 0.0
H1827 H 0.18886 0.63031 0.701 0.0
H1828 H 0.17446 0.61274 0.7208 0.0
H1829 H 0.10657 0.65269 0.75033 0.0
H1830 H 0.09824 0.66979 0.71074 0.0
H1831 H 0.16332 0.66353 0.68821 0.0
C1832 C 0.18343 0.63456 0.77995 0.0
C1833 C 0.17465 0.63167 0.80358 0.0
C1834 C 0.15262 0.63312 0.8067 0.0
C1835 C 0.13953 0.6379 0.78671 0.0
C1836 C 0.14873 0.64102 0.76372 0.0
C1837 C 0.17017 0.63932 0.76021 0.0
C1838 C 0.17631 0.64519 0.73418 0.0
C1839 C 0.19162 0.66393 0.73403 0.0
C1840 C 0.18559 0.62621 0.7205 0.0
C1841 C 0.15506 0.6512 0.72383 0.0
C1842 C 0.13932 0.64841 0.74107 0.0
C1843 C 0.11868 0.65457 0.73652 0.0
C1844 C 0.1141 0.66428 0.71401 0.0
C1845 C 0.1301 0.66773 0.69636 0.0
C1846 C 0.1507 0.66062 0.70113 0.0
H1847 H 0.30378 0.1322 0.72132 0.0
H1848 H 0.35529 0.13939 0.66967 0.0
H1849 H 0.37752 0.15376 0.7029 0.0
H1850 H 0.31158 0.17911 0.75275 0.0
H1851 H 0.30501 0.16901 0.78276 0.0
H1852 H 0.29391 0.15711 0.7557 0.0
H1853 H 0.30865 0.12087 0.76893 0.0
H1854 H 0.31969 0.13264 0.79617 0.0
H1855 H 0.33631 0.11815 0.77536 0.0
H1856 H 0.39268 0.17084 0.74036 0.0
H1857 H 0.40034 0.18806 0.78006 0.0
H1858 H 0.33924 0.16901 0.80761 0.0
C1859 C 0.31988 0.1364 0.71712 0.0
C1860 C 0.32787 0.13465 0.69297 0.0
C1861 C 0.34891 0.14052 0.68809 0.0
C1862 C 0.36165 0.14869 0.70683 0.0
C1863 C 0.35313 0.15066 0.73034 0.0
C1864 C 0.3328 0.14449 0.73561 0.0
C1865 C 0.32706 0.14934 0.76204 0.0
C1866 C 0.30828 0.16455 0.76337 0.0
C1867 C 0.32267 0.12904 0.77648 0.0
C1868 C 0.34713 0.15974 0.77063 0.0
C1869 C 0.36201 0.16024 0.7521 0.0
C1870 C 0.3813 0.17024 0.75513 0.0
C1871 C 0.38546 0.18004 0.77769 0.0
C1872 C 0.37043 0.17971 0.79688 0.0
C1873 C 0.35113 0.16922 0.79335 0.0
H1874 H 0.87654 0.30695 0.72704 0.0
H1875 H 0.84603 0.3421 0.66866 0.0
H1876 H 0.82771 0.3637 0.6996 0.0
H1877 H 0.83296 0.30463 0.76666 0.0
H1878 H 0.84774 0.30774 0.79471 0.0
H1879 H 0.85997 0.29617 0.76811 0.0
H1880 H 0.88959 0.32405 0.76988 0.0
H1881 H 0.87749 0.33568 0.79658 0.0
H1882 H 0.88285 0.35157 0.76985 0.0
H1883 H 0.81043 0.3793 0.73628 0.0
H1884 H 0.79595 0.38889 0.77681 0.0
H1885 H 0.83801 0.34439 0.81196 0.0
C1886 C 0.86628 0.31943 0.7208 0.0
C1887 C 0.86274 0.32291 0.69545 0.0
C1888 C 0.84901 0.33921 0.68798 0.0
C1889 C 0.83855 0.35158 0.70541 0.0
C1890 C 0.84209 0.34754 0.73024 0.0
C1891 C 0.85572 0.33198 0.73799 0.0
C1892 C 0.85594 0.33033 0.76583 0.0
C1893 C 0.84872 0.30842 0.77431 0.0
C1894 C 0.87777 0.33573 0.77614 0.0
C1895 C 0.83995 0.34706 0.77244 0.0
C1896 C 0.83225 0.35682 0.75159 0.0
C1897 C 0.81653 0.37199 0.75277 0.0
C1898 C 0.80836 0.37727 0.77587 0.0
C1899 C 0.81597 0.36748 0.79749 0.0
C1900 C 0.83213 0.35234 0.79574 0.0
H1901 H 0.66263 0.83969 0.69133 0.0
H1902 H 0.69157 0.89486 0.72377 0.0
H1903 H 0.67769 0.8848 0.76443 0.0
H1904 H 0.61524 0.83933 0.73029 0.0
H1905 H 0.61479 0.81107 0.73249 0.0
H1906 H 0.62543 0.82355 0.70546 0.0
H1907 H 0.66037 0.80326 0.71145 0.0
H1908 H 0.64987 0.79079 0.73851 0.0
H1909 H 0.67414 0.8053 0.74034 0.0
H1910 H 0.66281 0.86767 0.80202 0.0
H1911 H 0.64781 0.84444 0.83398 0.0
H1912 H 0.62868 0.80032 0.77738 0.0
C1913 C 0.66571 0.84982 0.70693 0.0
C1914 C 0.67809 0.8681 0.70439 0.0
C1915 C 0.68209 0.88079 0.72529 0.0
C1916 C 0.67424 0.87524 0.74847 0.0
C1917 C 0.66239 0.85695 0.75048 0.0
C1918 C 0.65807 0.84444 0.73029 0.0
C1919 C 0.64592 0.82499 0.73779 0.0
C1920 C 0.62404 0.82473 0.72579 0.0
C1921 C 0.65832 0.80491 0.73166 0.0
C1922 C 0.64441 0.8284 0.76533 0.0
C1923 C 0.65388 0.847 0.77225 0.0
C1924 C 0.65517 0.85315 0.79682 0.0
C1925 C 0.64664 0.83986 0.81484 0.0
C1926 C 0.63702 0.82065 0.80816 0.0
C1927 C 0.63578 0.815 0.78305 0.0
H1928 H 0.87231 0.70478 0.72804 0.0
H1929 H 0.86316 0.65686 0.67226 0.0
H1930 H 0.84924 0.63273 0.70381 0.0
H1931 H 0.88724 0.66835 0.77846 0.0
H1932 H 0.87355 0.68362 0.80133 0.0
H1933 H 0.88479 0.6964 0.77482 0.0
H1934 H 0.84846 0.71248 0.76434 0.0
H1935 H 0.83711 0.69971 0.7907 0.0
H1936 H 0.82611 0.69538 0.76057 0.0
H1937 H 0.83253 0.61549 0.74002 0.0
H1938 H 0.8156 0.60554 0.77922 0.0
H1939 H 0.83679 0.66389 0.81213 0.0
C1940 C 0.86776 0.68906 0.72258 0.0
C1941 C 0.86884 0.68265 0.69773 0.0
C1942 C 0.86253 0.66206 0.69121 0.0
C1943 C 0.85463 0.64823 0.709 0.0
C1944 C 0.85337 0.65516 0.73326 0.0
C1945 C 0.85995 0.675 0.74015 0.0
C1946 C 0.85587 0.67891 0.76723 0.0
C1947 C 0.8766 0.682 0.78129 0.0
C1948 C 0.841 0.69773 0.77091 0.0
C1949 C 0.84537 0.65843 0.77429 0.0
C1950 C 0.84417 0.64492 0.75442 0.0
C1951 C 0.83372 0.62573 0.75584 0.0
C1952 C 0.8241 0.62026 0.77812 0.0
C1953 C 0.82514 0.63385 0.79867 0.0
C1954 C 0.83617 0.65302 0.79681 0.0
H1955 H 0.34309 0.8456 0.81405 0.0
H1956 H 0.39028 0.80546 0.78079 0.0
H1957 H 0.38082 0.81901 0.73974 0.0
H1958 H 0.30485 0.83739 0.76909 0.0
H1959 H 0.29454 0.86376 0.76951 0.0
H1960 H 0.30688 0.85315 0.79655 0.0
H1961 H 0.3328 0.88455 0.79744 0.0
H1962 H 0.32047 0.8953 0.77037 0.0
H1963 H 0.34836 0.89036 0.77058 0.0
H1964 H 0.3642 0.83439 0.70205 0.0
H1965 H 0.34089 0.84989 0.67048 0.0
H1966 H 0.30412 0.87957 0.72803 0.0
C1967 C 0.35175 0.84008 0.79817 0.0
C1968 C 0.36752 0.82462 0.80058 0.0
C1969 C 0.37817 0.81736 0.77933 0.0
C1970 C 0.37297 0.82502 0.75595 0.0
C1971 C 0.35705 0.83993 0.75407 0.0
C1972 C 0.34659 0.84742 0.7746 0.0
C1973 C 0.32889 0.86207 0.7673 0.0
C1974 C 0.30753 0.85358 0.77613 0.0
C1975 C 0.33288 0.8844 0.777 0.0
C1976 C 0.33073 0.86121 0.73952 0.0
C1977 C 0.34725 0.84858 0.73225 0.0
C1978 C 0.35137 0.84453 0.70749 0.0
C1979 C 0.33806 0.85339 0.68969 0.0
C1980 C 0.32078 0.866 0.69679 0.0
C1981 C 0.31734 0.87017 0.72202 0.0
H1982 H 0.13935 0.30909 0.71882 0.0
H1983 H 0.14405 0.3612 0.66763 0.0
H1984 H 0.15928 0.38329 0.7005 0.0
H1985 H 0.12673 0.34066 0.7739 0.0
H1986 H 0.14221 0.3241 0.79379 0.0
H1987 H 0.12976 0.31313 0.76692 0.0
H1988 H 0.1658 0.29926 0.75181 0.0
H1989 H 0.17836 0.31025 0.77851 0.0
H1990 H 0.18737 0.31736 0.7482 0.0
H1991 H 0.17708 0.39846 0.73763 0.0
H1992 H 0.19531 0.40607 0.77672 0.0
H1993 H 0.17854 0.34422 0.80399 0.0
C1994 C 0.14321 0.32527 0.71464 0.0
C1995 C 0.14046 0.33349 0.69071 0.0
C1996 C 0.14594 0.35464 0.68588 0.0
C1997 C 0.15458 0.36729 0.70443 0.0
C1998 C 0.15749 0.35858 0.72771 0.0
C1999 C 0.15181 0.3381 0.73294 0.0
C2000 C 0.15764 0.33216 0.75905 0.0
C2001 C 0.13791 0.32723 0.77432 0.0
C2002 C 0.17322 0.31367 0.7594 0.0
C2003 C 0.16795 0.35233 0.76753 0.0
C2004 C 0.16759 0.36741 0.74922 0.0
C2005 C 0.1772 0.3869 0.75222 0.0
C2006 C 0.18756 0.39104 0.77445 0.0
C2007 C 0.1882 0.37578 0.7934 0.0
C2008 C 0.17805 0.35628 0.78994 0.0
H2009 H 0.68989 0.12919 0.72498 0.0
H2010 H 0.65553 0.16378 0.66915 0.0
H2011 H 0.63396 0.18039 0.70165 0.0
H2012 H 0.64542 0.12051 0.76677 0.0
H2013 H 0.66138 0.1239 0.79388 0.0
H2014 H 0.67286 0.11353 0.76611 0.0
H2015 H 0.70106 0.14291 0.76697 0.0
H2016 H 0.68967 0.15337 0.79467 0.0
H2017 H 0.69285 0.17001 0.76809 0.0
H2018 H 0.61821 0.1952 0.74032 0.0
H2019 H 0.60915 0.20704 0.78224 0.0
H2020 H 0.65356 0.16236 0.81278 0.0
C2021 C 0.67763 0.14004 0.71954 0.0
C2022 C 0.67431 0.14518 0.69455 0.0
C2023 C 0.65826 0.15958 0.68819 0.0
C2024 C 0.64593 0.16905 0.70651 0.0
C2025 C 0.6498 0.16382 0.73101 0.0
C2026 C 0.6652 0.14958 0.73754 0.0
C2027 C 0.66692 0.14741 0.76521 0.0
C2028 C 0.6613 0.12501 0.77347 0.0
C2029 C 0.68893 0.15381 0.77426 0.0
C2030 C 0.65039 0.16303 0.77331 0.0
C2031 C 0.6406 0.17222 0.7533 0.0
C2032 C 0.62557 0.18793 0.75612 0.0
C2033 C 0.62057 0.19457 0.77999 0.0
C2034 C 0.63057 0.18551 0.80073 0.0
C2035 C 0.64545 0.16934 0.79729 0.0
H2036 H 0.80611 0.37429 0.22658 0.0
H2037 H 0.84815 0.34974 0.17068 0.0
H2038 H 0.87049 0.33426 0.20307 0.0
H2039 H 0.84677 0.38564 0.27352 0.0
H2040 H 0.83007 0.37743 0.29853 0.0
H2041 H 0.81867 0.38865 0.27116 0.0
H2042 H 0.79523 0.35566 0.26594 0.0
H2043 H 0.80655 0.34435 0.29322 0.0
H2044 H 0.80734 0.33007 0.2646 0.0
H2045 H 0.88631 0.31878 0.24077 0.0
H2046 H 0.89449 0.3038 0.28148 0.0
H2047 H 0.84233 0.33827 0.31335 0.0
C2048 C 0.82025 0.36602 0.2212 0.0
C2049 C 0.8255 0.3633 0.19614 0.0
C2050 C 0.8439 0.35206 0.18978 0.0
C2051 C 0.85671 0.34328 0.20804 0.0
C2052 C 0.85093 0.34594 0.23256 0.0
C2053 C 0.83318 0.35707 0.23922 0.0
C2054 C 0.82968 0.35627 0.2668 0.0
C2055 C 0.83141 0.37831 0.27817 0.0
C2056 C 0.80845 0.34597 0.27299 0.0
C2057 C 0.84794 0.34248 0.27452 0.0
C2058 C 0.86011 0.33691 0.25448 0.0
C2059 C 0.87709 0.32325 0.25665 0.0
C2060 C 0.88157 0.3148 0.27984 0.0
C2061 C 0.86912 0.32 0.30056 0.0
C2062 C 0.85232 0.33431 0.2979 0.0
H2063 H 0.62813 0.80649 0.22416 0.0
H2064 H 0.64707 0.85063 0.16751 0.0
H2065 H 0.6633 0.87324 0.19932 0.0
H2066 H 0.61718 0.84575 0.2727 0.0
H2067 H 0.62738 0.82894 0.29657 0.0
H2068 H 0.61531 0.81761 0.26968 0.0
H2069 H 0.649 0.7958 0.26162 0.0
H2070 H 0.66124 0.80717 0.28831 0.0
H2071 H 0.67389 0.8091 0.25873 0.0
H2072 H 0.68068 0.88884 0.23664 0.0
H2073 H 0.6967 0.89719 0.27682 0.0
H2074 H 0.66591 0.84302 0.30921 0.0
C2075 C 0.63529 0.82114 0.21847 0.0
C2076 C 0.63628 0.82688 0.19338 0.0
C2077 C 0.64601 0.84603 0.18665 0.0
C2078 C 0.65527 0.85893 0.20458 0.0
C2079 C 0.65447 0.85252 0.22912 0.0
C2080 C 0.64453 0.83417 0.23609 0.0
C2081 C 0.64689 0.83017 0.26343 0.0
C2082 C 0.62541 0.83065 0.27636 0.0
C2083 C 0.65845 0.80933 0.26829 0.0
C2084 C 0.66021 0.84886 0.2707 0.0
C2085 C 0.66431 0.86162 0.25066 0.0
C2086 C 0.67731 0.87914 0.25251 0.0
C2087 C 0.6864 0.8837 0.27539 0.0
C2088 C 0.68244 0.87081 0.29614 0.0
C2089 C 0.66899 0.8533 0.29375 0.0
H2090 H 0.15962 0.66306 0.31456 0.0
H2091 H 0.09578 0.67422 0.28986 0.0
H2092 H 0.10409 0.65764 0.24998 0.0
H2093 H 0.18362 0.67641 0.2593 0.0
H2094 H 0.20413 0.65693 0.26089 0.0
H2095 H 0.19251 0.66684 0.28873 0.0
H2096 H 0.18299 0.62894 0.30214 0.0
H2097 H 0.19475 0.61887 0.27437 0.0
H2098 H 0.16788 0.61249 0.28175 0.0
H2099 H 0.12008 0.643 0.21162 0.0
H2100 H 0.14279 0.63135 0.17734 0.0
H2101 H 0.19643 0.63047 0.22664 0.0
C2102 C 0.14727 0.66147 0.30098 0.0
C2103 C 0.12702 0.6697 0.3053 0.0
C2104 C 0.11138 0.66789 0.28691 0.0
C2105 C 0.11593 0.65846 0.26424 0.0
C2106 C 0.1362 0.65098 0.26027 0.0
C2107 C 0.15162 0.6523 0.27814 0.0
C2108 C 0.17259 0.64469 0.26845 0.0
C2109 C 0.18918 0.66227 0.2694 0.0
C2110 C 0.17998 0.62508 0.28251 0.0
C2111 C 0.16665 0.63937 0.24221 0.0
C2112 C 0.14554 0.64286 0.23795 0.0
C2113 C 0.13659 0.63997 0.21479 0.0
C2114 C 0.1496 0.63341 0.19544 0.0
C2115 C 0.17132 0.62999 0.19937 0.0
C2116 C 0.17984 0.63284 0.22313 0.0
H2117 H 0.29823 0.12908 0.27235 0.0
H2118 H 0.34936 0.13728 0.32431 0.0
H2119 H 0.37169 0.15146 0.29113 0.0
H2120 H 0.33053 0.11478 0.21895 0.0
H2121 H 0.31434 0.12928 0.19768 0.0
H2122 H 0.30287 0.11808 0.22501 0.0
H2123 H 0.28871 0.1547 0.23762 0.0
H2124 H 0.30007 0.16599 0.21033 0.0
H2125 H 0.30672 0.17647 0.24013 0.0
H2126 H 0.38765 0.16672 0.25342 0.0
H2127 H 0.39592 0.18337 0.21362 0.0
H2128 H 0.33452 0.16554 0.18584 0.0
C2129 C 0.31422 0.13361 0.27664 0.0
C2130 C 0.32214 0.13202 0.30083 0.0
C2131 C 0.34301 0.13837 0.30587 0.0
C2132 C 0.35584 0.14634 0.28714 0.0
C2133 C 0.34754 0.14786 0.26351 0.0
C2134 C 0.32721 0.14173 0.25817 0.0
C2135 C 0.32173 0.1463 0.23158 0.0
C2136 C 0.3171 0.12589 0.21747 0.0
C2137 C 0.30322 0.16179 0.22982 0.0
C2138 C 0.34205 0.15627 0.22294 0.0
C2139 C 0.35677 0.15681 0.24162 0.0
C2140 C 0.37635 0.1662 0.23856 0.0
C2141 C 0.38089 0.17563 0.21591 0.0
C2142 C 0.3659 0.17562 0.19666 0.0
C2143 C 0.34638 0.1655 0.20012 0.0
loop_
_geom_bond_atom_site_label_1
_geom_bond_atom_site_label_2
_geom_bond_distance
_geom_bond_site_symmetry_2
_ccdc_geom_bond_type
In0 O1 2.294 . S
In0 O2 2.326 . S
In0 O6 2.266 . S
In0 O7 2.326 . S
In0 O8 2.266 . S
In0 O9 2.326 . S
In0 O11 2.294 . S
In0 O12 2.326 . S
O1 In0 2.294 . S
O1 C10 1.240 . S
O2 In0 2.326 . S
O2 C10 1.252 . S
C3 O6 1.252 . S
C3 O7 1.260 . S
C4 O11 1.240 . S
C4 O12 1.252 . S
C5 O8 1.252 . S
C5 O9 1.260 . S
O6 In0 2.266 . S
O6 C3 1.252 . S
O7 In0 2.326 . S
O7 C3 1.260 . S
O8 In0 2.266 . S
O8 C5 1.252 . S
O9 In0 2.326 . S
O9 C5 1.260 . S
C10 O1 1.240 . S
C10 O2 1.252 . S
O11 In0 2.294 . S
O11 C4 1.240 . S
O12 In0 2.326 . S
O12 C4 1.252 . S
In13 O14 2.294 . S
In13 O15 2.326 . S
In13 O19 2.266 . S
In13 O20 2.326 . S
In13 O21 2.266 . S
In13 O22 2.326 . S
In13 O24 2.294 . S
In13 O25 2.326 . S
O14 In13 2.294 . S
O14 C23 1.240 . S
O15 In13 2.326 . S
O15 C23 1.252 . S
C16 O19 1.252 . S
C16 O20 1.260 . S
C17 O24 1.240 . S
C17 O25 1.252 . S
C18 O21 1.252 . S
C18 O22 1.260 . S
O19 In13 2.266 . S
O19 C16 1.252 . S
O20 In13 2.326 . S
O20 C16 1.260 . S
O21 In13 2.266 . S
O21 C18 1.252 . S
O22 In13 2.326 . S
O22 C18 1.260 . S
C23 O14 1.240 . S
C23 O15 1.252 . S
O24 In13 2.294 . S
O24 C17 1.240 . S
O25 In13 2.326 . S
O25 C17 1.252 . S
In26 O27 2.294 . S
In26 O28 2.326 . S
In26 O32 2.266 . S
In26 O33 2.326 . S
In26 O34 2.266 . S
In26 O35 2.326 . S
In26 O37 2.294 . S
In26 O38 2.326 . S
O27 In26 2.294 . S
O27 C36 1.240 . S
O28 In26 2.326 . S
O28 C36 1.252 . S
C29 O32 1.252 . S
C29 O33 1.260 . S
C30 O37 1.240 . S
C30 O38 1.252 . S
C31 O34 1.252 . S
C31 O35 1.260 . S
O32 In26 2.266 . S
O32 C29 1.252 . S
O33 In26 2.326 . S
O33 C29 1.260 . S
O34 In26 2.266 . S
O34 C31 1.252 . S
O35 In26 2.326 . S
O35 C31 1.260 . S
C36 O27 1.240 . S
C36 O28 1.252 . S
O37 In26 2.294 . S
O37 C30 1.240 . S
O38 In26 2.326 . S
O38 C30 1.252 . S
In39 O40 2.294 . S
In39 O41 2.326 . S
In39 O45 2.266 . S
In39 O46 2.326 . S
In39 O47 2.266 . S
In39 O48 2.326 . S
In39 O50 2.294 . S
In39 O51 2.326 . S
O40 In39 2.294 . S
O40 C49 1.240 . S
O41 In39 2.326 . S
O41 C49 1.252 . S
C42 O45 1.252 . S
C42 O46 1.260 . S
C43 O50 1.240 . S
C43 O51 1.252 . S
C44 O47 1.252 . S
C44 O48 1.260 . S
O45 In39 2.266 . S
O45 C42 1.252 . S
O46 In39 2.326 . S
O46 C42 1.260 . S
O47 In39 2.266 . S
O47 C44 1.252 . S
O48 In39 2.326 . S
O48 C44 1.260 . S
C49 O40 1.240 . S
C49 O41 1.252 . S
O50 In39 2.294 . S
O50 C43 1.240 . S
O51 In39 2.326 . S
O51 C43 1.252 . S
In52 O53 2.294 . S
In52 O54 2.326 . S
In52 O58 2.266 . S
In52 O59 2.326 . S
In52 O60 2.266 . S
In52 O61 2.326 . S
In52 O63 2.294 . S
In52 O64 2.326 . S
O53 In52 2.294 . S
O53 C62 1.240 . S
O54 In52 2.326 . S
O54 C62 1.252 . S
C55 O58 1.252 . S
C55 O59 1.260 . S
C56 O63 1.240 . S
C56 O64 1.252 . S
C57 O60 1.252 . S
C57 O61 1.260 . S
O58 In52 2.266 . S
O58 C55 1.252 . S
O59 In52 2.326 . S
O59 C55 1.260 . S
O60 In52 2.266 . S
O60 C57 1.252 . S
O61 In52 2.326 . S
O61 C57 1.260 . S
C62 O53 1.240 . S
C62 O54 1.252 . S
O63 In52 2.294 . S
O63 C56 1.240 . S
O64 In52 2.326 . S
O64 C56 1.252 . S
In65 O66 2.294 . S
In65 O67 2.326 . S
In65 O71 2.266 . S
In65 O72 2.326 . S
In65 O73 2.266 . S
In65 O74 2.326 . S
In65 O76 2.294 . S
In65 O77 2.326 . S
O66 In65 2.294 . S
O66 C75 1.240 . S
O67 In65 2.326 . S
O67 C75 1.252 . S
C68 O71 1.252 . S
C68 O72 1.260 . S
C69 O76 1.240 . S
C69 O77 1.252 . S
C70 O73 1.252 . S
C70 O74 1.260 . S
O71 In65 2.266 . S
O71 C68 1.252 . S
O72 In65 2.326 . S
O72 C68 1.260 . S
O73 In65 2.266 . S
O73 C70 1.252 . S
O74 In65 2.326 . S
O74 C70 1.260 . S
C75 O66 1.240 . S
C75 O67 1.252 . S
O76 In65 2.294 . S
O76 C69 1.240 . S
O77 In65 2.326 . S
O77 C69 1.252 . S
In78 O79 2.294 . S
In78 O80 2.326 . S
In78 O84 2.266 . S
In78 O85 2.326 . S
In78 O86 2.266 . S
In78 O87 2.326 . S
In78 O89 2.294 . S
In78 O90 2.326 . S
O79 In78 2.294 . S
O79 C88 1.240 . S
O80 In78 2.326 . S
O80 C88 1.252 . S
C81 O84 1.252 . S
C81 O85 1.260 . S
C82 O89 1.240 . S
C82 O90 1.252 . S
C83 O86 1.252 . S
C83 O87 1.260 . S
O84 In78 2.266 . S
O84 C81 1.252 . S
O85 In78 2.326 . S
O85 C81 1.260 . S
O86 In78 2.266 . S
O86 C83 1.252 . S
O87 In78 2.326 . S
O87 C83 1.260 . S
C88 O79 1.240 . S
C88 O80 1.252 . S
O89 In78 2.294 . S
O89 C82 1.240 . S
O90 In78 2.326 . S
O90 C82 1.252 . S
In91 O92 2.294 . S
In91 O93 2.326 . S
In91 O97 2.266 . S
In91 O98 2.326 . S
In91 O99 2.266 . S
In91 O100 2.326 . S
In91 O102 2.294 . S
In91 O103 2.326 . S
O92 In91 2.294 . S
O92 C101 1.240 . S
O93 In91 2.326 . S
O93 C101 1.252 . S
C94 O97 1.252 . S
C94 O98 1.260 . S
C95 O102 1.240 . S
C95 O103 1.252 . S
C96 O99 1.252 . S
C96 O100 1.260 . S
O97 In91 2.266 . S
O97 C94 1.252 . S
O98 In91 2.326 . S
O98 C94 1.260 . S
O99 In91 2.266 . S
O99 C96 1.252 . S
O100 In91 2.326 . S
O100 C96 1.260 . S
C101 O92 1.240 . S
C101 O93 1.252 . S
O102 In91 2.294 . S
O102 C95 1.240 . S
O103 In91 2.326 . S
O103 C95 1.252 . S
In104 O105 2.294 . S
In104 O106 2.326 . S
In104 O110 2.266 . S
In104 O111 2.326 . S
In104 O112 2.266 . S
In104 O113 2.326 . S
In104 O115 2.294 . S
In104 O116 2.326 . S
O105 In104 2.294 . S
O105 C114 1.240 . S
O106 In104 2.326 . S
O106 C114 1.252 . S
C107 O110 1.252 . S
C107 O111 1.260 . S
C108 O115 1.240 . S
C108 O116 1.252 . S
C109 O112 1.252 . S
C109 O113 1.260 . S
O110 In104 2.266 . S
O110 C107 1.252 . S
O111 In104 2.326 . S
O111 C107 1.260 . S
O112 In104 2.266 . S
O112 C109 1.252 . S
O113 In104 2.326 . S
O113 C109 1.260 . S
C114 O105 1.240 . S
C114 O106 1.252 . S
O115 In104 2.294 . S
O115 C108 1.240 . S
O116 In104 2.326 . S
O116 C108 1.252 . S
In117 O118 2.294 . S
In117 O119 2.326 . S
In117 O123 2.266 . S
In117 O124 2.326 . S
In117 O125 2.266 . S
In117 O126 2.326 . S
In117 O128 2.294 . S
In117 O129 2.326 . S
O118 In117 2.294 . S
O118 C127 1.240 . S
O119 In117 2.326 . S
O119 C127 1.252 . S
C120 O123 1.252 . S
C120 O124 1.260 . S
C121 O128 1.240 . S
C121 O129 1.252 . S
C122 O125 1.252 . S
C122 O126 1.260 . S
O123 In117 2.266 . S
O123 C120 1.252 . S
O124 In117 2.326 . S
O124 C120 1.260 . S
O125 In117 2.266 . S
O125 C122 1.252 . S
O126 In117 2.326 . S
O126 C122 1.260 . S
C127 O118 1.240 . S
C127 O119 1.252 . S
O128 In117 2.294 . S
O128 C121 1.240 . S
O129 In117 2.326 . S
O129 C121 1.252 . S
In130 O131 2.294 . S
In130 O132 2.326 . S
In130 O136 2.266 . S
In130 O137 2.326 . S
In130 O138 2.266 . S
In130 O139 2.326 . S
In130 O141 2.294 . S
In130 O142 2.326 . S
O131 In130 2.294 . S
O131 C140 1.240 . S
O132 In130 2.326 . S
O132 C140 1.252 . S
C133 O136 1.252 . S
C133 O137 1.260 . S
C134 O141 1.240 . S
C134 O142 1.252 . S
C135 O138 1.252 . S
C135 O139 1.260 . S
O136 In130 2.266 . S
O136 C133 1.252 . S
O137 In130 2.326 . S
O137 C133 1.260 . S
O138 In130 2.266 . S
O138 C135 1.252 . S
O139 In130 2.326 . S
O139 C135 1.260 . S
C140 O131 1.240 . S
C140 O132 1.252 . S
O141 In130 2.294 . S
O141 C134 1.240 . S
O142 In130 2.326 . S
O142 C134 1.252 . S
In143 O144 2.294 . S
In143 O145 2.326 . S
In143 O149 2.266 . S
In143 O150 2.326 . S
In143 O151 2.266 . S
In143 O152 2.326 . S
In143 O154 2.294 . S
In143 O155 2.326 . S
O144 In143 2.294 . S
O144 C153 1.240 . S
O145 In143 2.326 . S
O145 C153 1.252 . S
C146 O149 1.252 . S
C146 O150 1.260 . S
C147 O154 1.240 . S
C147 O155 1.252 . S
C148 O151 1.252 . S
C148 O152 1.260 . S
O149 In143 2.266 . S
O149 C146 1.252 . S
O150 In143 2.326 . S
O150 C146 1.260 . S
O151 In143 2.266 . S
O151 C148 1.252 . S
O152 In143 2.326 . S
O152 C148 1.260 . S
C153 O144 1.240 . S
C153 O145 1.252 . S
O154 In143 2.294 . S
O154 C147 1.240 . S
O155 In143 2.326 . S
O155 C147 1.252 . S
In156 O157 2.294 . S
In156 O158 2.326 . S
In156 O162 2.266 . S
In156 O163 2.326 . S
In156 O164 2.266 . S
In156 O165 2.326 . S
In156 O167 2.294 . S
In156 O168 2.326 . S
O157 In156 2.294 . S
O157 C166 1.240 . S
O158 In156 2.326 . S
O158 C166 1.252 . S
C159 O162 1.252 . S
C159 O163 1.260 . S
C160 O167 1.240 . S
C160 O168 1.252 . S
C161 O164 1.252 . S
C161 O165 1.260 . S
O162 In156 2.266 . S
O162 C159 1.252 . S
O163 In156 2.326 . S
O163 C159 1.260 . S
O164 In156 2.266 . S
O164 C161 1.252 . S
O165 In156 2.326 . S
O165 C161 1.260 . S
C166 O157 1.240 . S
C166 O158 1.252 . S
O167 In156 2.294 . S
O167 C160 1.240 . S
O168 In156 2.326 . S
O168 C160 1.252 . S
In169 O170 2.294 . S
In169 O171 2.326 . S
In169 O175 2.266 . S
In169 O176 2.326 . S
In169 O177 2.266 . S
In169 O178 2.326 . S
In169 O180 2.294 . S
In169 O181 2.326 . S
O170 In169 2.294 . S
O170 C179 1.240 . S
O171 In169 2.326 . S
O171 C179 1.252 . S
C172 O175 1.252 . S
C172 O176 1.260 . S
C173 O180 1.240 . S
C173 O181 1.252 . S
C174 O177 1.252 . S
C174 O178 1.260 . S
O175 In169 2.266 . S
O175 C172 1.252 . S
O176 In169 2.326 . S
O176 C172 1.260 . S
O177 In169 2.266 . S
O177 C174 1.252 . S
O178 In169 2.326 . S
O178 C174 1.260 . S
C179 O170 1.240 . S
C179 O171 1.252 . S
O180 In169 2.294 . S
O180 C173 1.240 . S
O181 In169 2.326 . S
O181 C173 1.252 . S
In182 O183 2.294 . S
In182 O184 2.326 . S
In182 O188 2.266 . S
In182 O189 2.326 . S
In182 O190 2.266 . S
In182 O191 2.326 . S
In182 O193 2.294 . S
In182 O194 2.326 . S
O183 In182 2.294 . S
O183 C192 1.240 . S
O184 In182 2.326 . S
O184 C192 1.252 . S
C185 O188 1.252 . S
C185 O189 1.260 . S
C186 O193 1.240 . S
C186 O194 1.252 . S
C187 O190 1.252 . S
C187 O191 1.260 . S
O188 In182 2.266 . S
O188 C185 1.252 . S
O189 In182 2.326 . S
O189 C185 1.260 . S
O190 In182 2.266 . S
O190 C187 1.252 . S
O191 In182 2.326 . S
O191 C187 1.260 . S
C192 O183 1.240 . S
C192 O184 1.252 . S
O193 In182 2.294 . S
O193 C186 1.240 . S
O194 In182 2.326 . S
O194 C186 1.252 . S
In195 O196 2.294 . S
In195 O197 2.326 . S
In195 O201 2.266 . S
In195 O202 2.326 . S
In195 O203 2.266 . S
In195 O204 2.326 . S
In195 O206 2.294 . S
In195 O207 2.326 . S
O196 In195 2.294 . S
O196 C205 1.240 . S
O197 In195 2.326 . S
O197 C205 1.252 . S
C198 O201 1.252 . S
C198 O202 1.260 . S
C199 O206 1.240 . S
C199 O207 1.252 . S
C200 O203 1.252 . S
C200 O204 1.260 . S
O201 In195 2.266 . S
O201 C198 1.252 . S
O202 In195 2.326 . S
O202 C198 1.260 . S
O203 In195 2.266 . S
O203 C200 1.252 . S
O204 In195 2.326 . S
O204 C200 1.260 . S
C205 O196 1.240 . S
C205 O197 1.252 . S
O206 In195 2.294 . S
O206 C199 1.240 . S
O207 In195 2.326 . S
O207 C199 1.252 . S
In208 O209 2.294 . S
In208 O210 2.326 . S
In208 O214 2.266 . S
In208 O215 2.326 . S
In208 O216 2.266 . S
In208 O217 2.326 . S
In208 O219 2.294 . S
In208 O220 2.326 . S
O209 In208 2.294 . S
O209 C218 1.240 . S
O210 In208 2.326 . S
O210 C218 1.252 . S
C211 O214 1.252 . S
C211 O215 1.260 . S
C212 O219 1.240 . S
C212 O220 1.252 . S
C213 O216 1.252 . S
C213 O217 1.260 . S
O214 In208 2.266 . S
O214 C211 1.252 . S
O215 In208 2.326 . S
O215 C211 1.260 . S
O216 In208 2.266 . S
O216 C213 1.252 . S
O217 In208 2.326 . S
O217 C213 1.260 . S
C218 O209 1.240 . S
C218 O210 1.252 . S
O219 In208 2.294 . S
O219 C212 1.240 . S
O220 In208 2.326 . S
O220 C212 1.252 . S
In221 O222 2.294 . S
In221 O223 2.326 . S
In221 O227 2.266 . S
In221 O228 2.326 . S
In221 O229 2.266 . S
In221 O230 2.326 . S
In221 O232 2.294 . S
In221 O233 2.326 . S
O222 In221 2.294 . S
O222 C231 1.240 . S
O223 In221 2.326 . S
O223 C231 1.252 . S
C224 O227 1.252 . S
C224 O228 1.260 . S
C225 O232 1.240 . S
C225 O233 1.252 . S
C226 O229 1.252 . S
C226 O230 1.260 . S
O227 In221 2.266 . S
O227 C224 1.252 . S
O228 In221 2.326 . S
O228 C224 1.260 . S
O229 In221 2.266 . S
O229 C226 1.252 . S
O230 In221 2.326 . S
O230 C226 1.260 . S
C231 O222 1.240 . S
C231 O223 1.252 . S
O232 In221 2.294 . S
O232 C225 1.240 . S
O233 In221 2.326 . S
O233 C225 1.252 . S
In234 O235 2.294 . S
In234 O236 2.326 . S
In234 O240 2.266 . S
In234 O241 2.326 . S
In234 O242 2.266 . S
In234 O243 2.326 . S
In234 O245 2.294 . S
In234 O246 2.326 . S
O235 In234 2.294 . S
O235 C244 1.240 . S
O236 In234 2.326 . S
O236 C244 1.252 . S
C237 O240 1.252 . S
C237 O241 1.260 . S
C238 O245 1.240 . S
C238 O246 1.252 . S
C239 O242 1.252 . S
C239 O243 1.260 . S
O240 In234 2.266 . S
O240 C237 1.252 . S
O241 In234 2.326 . S
O241 C237 1.260 . S
O242 In234 2.266 . S
O242 C239 1.252 . S
O243 In234 2.326 . S
O243 C239 1.260 . S
C244 O235 1.240 . S
C244 O236 1.252 . S
O245 In234 2.294 . S
O245 C238 1.240 . S
O246 In234 2.326 . S
O246 C238 1.252 . S
In247 O248 2.294 . S
In247 O249 2.326 . S
In247 O253 2.266 . S
In247 O254 2.326 . S
In247 O255 2.266 . S
In247 O256 2.326 . S
In247 O258 2.294 . S
In247 O259 2.326 . S
O248 In247 2.294 . S
O248 C257 1.240 . S
O249 In247 2.326 . S
O249 C257 1.252 . S
C250 O253 1.252 . S
C250 O254 1.260 . S
C251 O258 1.240 . S
C251 O259 1.252 . S
C252 O255 1.252 . S
C252 O256 1.260 . S
O253 In247 2.266 . S
O253 C250 1.252 . S
O254 In247 2.326 . S
O254 C250 1.260 . S
O255 In247 2.266 . S
O255 C252 1.252 . S
O256 In247 2.326 . S
O256 C252 1.260 . S
C257 O248 1.240 . S
C257 O249 1.252 . S
O258 In247 2.294 . S
O258 C251 1.240 . S
O259 In247 2.326 . S
O259 C251 1.252 . S
In260 O261 2.294 . S
In260 O262 2.326 . S
In260 O266 2.266 . S
In260 O267 2.326 . S
In260 O268 2.266 . S
In260 O269 2.326 . S
In260 O271 2.294 . S
In260 O272 2.326 . S
O261 In260 2.294 . S
O261 C270 1.240 . S
O262 In260 2.326 . S
O262 C270 1.252 . S
C263 O266 1.252 . S
C263 O267 1.260 . S
C264 O271 1.240 . S
C264 O272 1.252 . S
C265 O268 1.252 . S
C265 O269 1.260 . S
O266 In260 2.266 . S
O266 C263 1.252 . S
O267 In260 2.326 . S
O267 C263 1.260 . S
O268 In260 2.266 . S
O268 C265 1.252 . S
O269 In260 2.326 . S
O269 C265 1.260 . S
C270 O261 1.240 . S
C270 O262 1.252 . S
O271 In260 2.294 . S
O271 C264 1.240 . S
O272 In260 2.326 . S
O272 C264 1.252 . S
In273 O274 2.294 . S
In273 O275 2.326 . S
In273 O279 2.266 . S
In273 O280 2.326 . S
In273 O281 2.266 . S
In273 O282 2.326 . S
In273 O284 2.294 . S
In273 O285 2.326 . S
O274 In273 2.294 . S
O274 C283 1.240 . S
O275 In273 2.326 . S
O275 C283 1.252 . S
C276 O279 1.252 . S
C276 O280 1.260 . S
C277 O284 1.240 . S
C277 O285 1.252 . S
C278 O281 1.252 . S
C278 O282 1.260 . S
O279 In273 2.266 . S
O279 C276 1.252 . S
O280 In273 2.326 . S
O280 C276 1.260 . S
O281 In273 2.266 . S
O281 C278 1.252 . S
O282 In273 2.326 . S
O282 C278 1.260 . S
C283 O274 1.240 . S
C283 O275 1.252 . S
O284 In273 2.294 . S
O284 C277 1.240 . S
O285 In273 2.326 . S
O285 C277 1.252 . S
In286 O287 2.294 . S
In286 O288 2.326 . S
In286 O292 2.266 . S
In286 O293 2.326 . S
In286 O294 2.266 . S
In286 O295 2.326 . S
In286 O297 2.294 . S
In286 O298 2.326 . S
O287 In286 2.294 . S
O287 C296 1.240 . S
O288 In286 2.326 . S
O288 C296 1.252 . S
C289 O292 1.252 . S
C289 O293 1.260 . S
C290 O297 1.240 . S
C290 O298 1.252 . S
C291 O294 1.252 . S
C291 O295 1.260 . S
O292 In286 2.266 . S
O292 C289 1.252 . S
O293 In286 2.326 . S
O293 C289 1.260 . S
O294 In286 2.266 . S
O294 C291 1.252 . S
O295 In286 2.326 . S
O295 C291 1.260 . S
C296 O287 1.240 . S
C296 O288 1.252 . S
O297 In286 2.294 . S
O297 C290 1.240 . S
O298 In286 2.326 . S
O298 C290 1.252 . S
In299 O300 2.294 . S
In299 O301 2.326 . S
In299 O305 2.266 . S
In299 O306 2.326 . S
In299 O307 2.266 . S
In299 O308 2.326 . S
In299 O310 2.294 . S
In299 O311 2.326 . S
O300 In299 2.294 . S
O300 C309 1.240 . S
O301 In299 2.326 . S
O301 C309 1.252 . S
C302 O305 1.252 . S
C302 O306 1.260 . S
C303 O310 1.240 . S
C303 O311 1.252 . S
C304 O307 1.252 . S
C304 O308 1.260 . S
O305 In299 2.266 . S
O305 C302 1.252 . S
O306 In299 2.326 . S
O306 C302 1.260 . S
O307 In299 2.266 . S
O307 C304 1.252 . S
O308 In299 2.326 . S
O308 C304 1.260 . S
C309 O300 1.240 . S
C309 O301 1.252 . S
O310 In299 2.294 . S
O310 C303 1.240 . S
O311 In299 2.326 . S
O311 C303 1.252 . S
In312 O313 2.294 . S
In312 O314 2.326 . S
In312 O318 2.266 . S
In312 O319 2.326 . S
In312 O320 2.266 . S
In312 O321 2.326 . S
In312 O323 2.294 . S
In312 O324 2.326 . S
O313 In312 2.294 . S
O313 C322 1.240 . S
O314 In312 2.326 . S
O314 C322 1.252 . S
C315 O318 1.252 . S
C315 O319 1.260 . S
C316 O323 1.240 . S
C316 O324 1.252 . S
C317 O320 1.252 . S
C317 O321 1.260 . S
O318 In312 2.266 . S
O318 C315 1.252 . S
O319 In312 2.326 . S
O319 C315 1.260 . S
O320 In312 2.266 . S
O320 C317 1.252 . S
O321 In312 2.326 . S
O321 C317 1.260 . S
C322 O313 1.240 . S
C322 O314 1.252 . S
O323 In312 2.294 . S
O323 C316 1.240 . S
O324 In312 2.326 . S
O324 C316 1.252 . S
In325 O326 2.294 . S
In325 O327 2.326 . S
In325 O331 2.266 . S
In325 O332 2.326 . S
In325 O333 2.266 . S
In325 O334 2.326 . S
In325 O336 2.294 . S
In325 O337 2.326 . S
O326 In325 2.294 . S
O326 C335 1.240 . S
O327 In325 2.326 . S
O327 C335 1.252 . S
C328 O331 1.252 . S
C328 O332 1.260 . S
C329 O336 1.240 . S
C329 O337 1.252 . S
C330 O333 1.252 . S
C330 O334 1.260 . S
O331 In325 2.266 . S
O331 C328 1.252 . S
O332 In325 2.326 . S
O332 C328 1.260 . S
O333 In325 2.266 . S
O333 C330 1.252 . S
O334 In325 2.326 . S
O334 C330 1.260 . S
C335 O326 1.240 . S
C335 O327 1.252 . S
O336 In325 2.294 . S
O336 C329 1.240 . S
O337 In325 2.326 . S
O337 C329 1.252 . S
In338 O339 2.294 . S
In338 O340 2.326 . S
In338 O344 2.266 . S
In338 O345 2.326 . S
In338 O346 2.266 . S
In338 O347 2.326 . S
In338 O349 2.294 . S
In338 O350 2.326 . S
O339 In338 2.294 . S
O339 C348 1.240 . S
O340 In338 2.326 . S
O340 C348 1.252 . S
C341 O344 1.252 . S
C341 O345 1.260 . S
C342 O349 1.240 . S
C342 O350 1.252 . S
C343 O346 1.252 . S
C343 O347 1.260 . S
O344 In338 2.266 . S
O344 C341 1.252 . S
O345 In338 2.326 . S
O345 C341 1.260 . S
O346 In338 2.266 . S
O346 C343 1.252 . S
O347 In338 2.326 . S
O347 C343 1.260 . S
C348 O339 1.240 . S
C348 O340 1.252 . S
O349 In338 2.294 . S
O349 C342 1.240 . S
O350 In338 2.326 . S
O350 C342 1.252 . S
In351 O352 2.294 . S
In351 O353 2.326 . S
In351 O357 2.266 . S
In351 O358 2.326 . S
In351 O359 2.266 . S
In351 O360 2.326 . S
In351 O362 2.294 . S
In351 O363 2.326 . S
O352 In351 2.294 . S
O352 C361 1.240 . S
O353 In351 2.326 . S
O353 C361 1.252 . S
C354 O357 1.252 . S
C354 O358 1.260 . S
C355 O362 1.240 . S
C355 O363 1.252 . S
C356 O359 1.252 . S
C356 O360 1.260 . S
O357 In351 2.266 . S
O357 C354 1.252 . S
O358 In351 2.326 . S
O358 C354 1.260 . S
O359 In351 2.266 . S
O359 C356 1.252 . S
O360 In351 2.326 . S
O360 C356 1.260 . S
C361 O352 1.240 . S
C361 O353 1.252 . S
O362 In351 2.294 . S
O362 C355 1.240 . S
O363 In351 2.326 . S
O363 C355 1.252 . S
In364 O365 2.294 . S
In364 O366 2.326 . S
In364 O370 2.266 . S
In364 O371 2.326 . S
In364 O372 2.266 . S
In364 O373 2.326 . S
In364 O375 2.294 . S
In364 O376 2.326 . S
O365 In364 2.294 . S
O365 C374 1.240 . S
O366 In364 2.326 . S
O366 C374 1.252 . S
C367 O370 1.252 . S
C367 O371 1.260 . S
C368 O375 1.240 . S
C368 O376 1.252 . S
C369 O372 1.252 . S
C369 O373 1.260 . S
O370 In364 2.266 . S
O370 C367 1.252 . S
O371 In364 2.326 . S
O371 C367 1.260 . S
O372 In364 2.266 . S
O372 C369 1.252 . S
O373 In364 2.326 . S
O373 C369 1.260 . S
C374 O365 1.240 . S
C374 O366 1.252 . S
O375 In364 2.294 . S
O375 C368 1.240 . S
O376 In364 2.326 . S
O376 C368 1.252 . S
In377 O378 2.294 . S
In377 O379 2.326 . S
In377 O383 2.266 . S
In377 O384 2.326 . S
In377 O385 2.266 . S
In377 O386 2.326 . S
In377 O388 2.294 . S
In377 O389 2.326 . S
O378 In377 2.294 . S
O378 C387 1.240 . S
O379 In377 2.326 . S
O379 C387 1.252 . S
C380 O383 1.252 . S
C380 O384 1.260 . S
C381 O388 1.240 . S
C381 O389 1.252 . S
C382 O385 1.252 . S
C382 O386 1.260 . S
O383 In377 2.266 . S
O383 C380 1.252 . S
O384 In377 2.326 . S
O384 C380 1.260 . S
O385 In377 2.266 . S
O385 C382 1.252 . S
O386 In377 2.326 . S
O386 C382 1.260 . S
C387 O378 1.240 . S
C387 O379 1.252 . S
O388 In377 2.294 . S
O388 C381 1.240 . S
O389 In377 2.326 . S
O389 C381 1.252 . S
In390 O391 2.294 . S
In390 O392 2.326 . S
In390 O396 2.266 . S
In390 O397 2.326 . S
In390 O398 2.266 . S
In390 O399 2.326 . S
In390 O401 2.294 . S
In390 O402 2.326 . S
O391 In390 2.294 . S
O391 C400 1.240 . S
O392 In390 2.326 . S
O392 C400 1.252 . S
C393 O396 1.252 . S
C393 O397 1.260 . S
C394 O401 1.240 . S
C394 O402 1.252 . S
C395 O398 1.252 . S
C395 O399 1.260 . S
O396 In390 2.266 . S
O396 C393 1.252 . S
O397 In390 2.326 . S
O397 C393 1.260 . S
O398 In390 2.266 . S
O398 C395 1.252 . S
O399 In390 2.326 . S
O399 C395 1.260 . S
C400 O391 1.240 . S
C400 O392 1.252 . S
O401 In390 2.294 . S
O401 C394 1.240 . S
O402 In390 2.326 . S
O402 C394 1.252 . S
In403 O404 2.294 . S
In403 O405 2.326 . S
In403 O409 2.266 . S
In403 O410 2.326 . S
In403 O411 2.266 . S
In403 O412 2.326 . S
In403 O414 2.294 . S
In403 O415 2.326 . S
O404 In403 2.294 . S
O404 C413 1.240 . S
O405 In403 2.326 . S
O405 C413 1.252 . S
C406 O409 1.252 . S
C406 O410 1.260 . S
C407 O414 1.240 . S
C407 O415 1.252 . S
C408 O411 1.252 . S
C408 O412 1.260 . S
O409 In403 2.266 . S
O409 C406 1.252 . S
O410 In403 2.326 . S
O410 C406 1.260 . S
O411 In403 2.266 . S
O411 C408 1.252 . S
O412 In403 2.326 . S
O412 C408 1.260 . S
C413 O404 1.240 . S
C413 O405 1.252 . S
O414 In403 2.294 . S
O414 C407 1.240 . S
O415 In403 2.326 . S
O415 C407 1.252 . S
H416 C428 0.930 . S
H417 C430 0.930 . S
H418 C431 0.930 . S
H419 C435 0.959 . S
H420 C435 0.959 . S
H421 C435 0.961 . S
H422 C436 0.960 . S
H423 C436 0.961 . S
H424 C436 0.959 . S
H425 C439 0.929 . S
H426 C440 0.931 . S
H427 C442 0.930 . S
C428 H416 0.930 . S
C428 C429 1.399 . S
C428 C433 1.399 . S
C429 C428 1.399 . S
C429 C430 1.376 . S
C430 H417 0.930 . S
C430 C429 1.376 . S
C430 C431 1.388 . S
C431 H418 0.930 . S
C431 C430 1.388 . S
C431 C432 1.390 . S
C432 C431 1.390 . S
C432 C433 1.394 . S
C432 C438 1.465 . S
C433 C428 1.399 . S
C433 C432 1.394 . S
C433 C434 1.516 . S
C434 C433 1.516 . S
C434 C435 1.502 . S
C434 C436 1.561 . S
C434 C437 1.526 . S
C435 H419 0.959 . S
C435 H420 0.959 . S
C435 H421 0.961 . S
C435 C434 1.502 . S
C436 H422 0.960 . S
C436 H423 0.961 . S
C436 H424 0.959 . S
C436 C434 1.561 . S
C437 C434 1.526 . S
C437 C438 1.396 . S
C437 C442 1.390 . S
C438 C432 1.465 . S
C438 C437 1.396 . S
C438 C439 1.399 . S
C439 H425 0.929 . S
C439 C438 1.399 . S
C439 C440 1.385 . S
C440 H426 0.931 . S
C440 C439 1.385 . S
C440 C441 1.389 . S
C441 C440 1.389 . S
C441 C442 1.387 . S
C442 H427 0.930 . S
C442 C437 1.390 . S
C442 C441 1.387 . S
H443 C455 0.930 . S
H444 C457 0.930 . S
H445 C458 0.930 . S
H446 C462 0.959 . S
H447 C462 0.959 . S
H448 C462 0.961 . S
H449 C463 0.960 . S
H450 C463 0.961 . S
H451 C463 0.959 . S
H452 C466 0.929 . S
H453 C467 0.931 . S
H454 C469 0.930 . S
C455 H443 0.930 . S
C455 C456 1.399 . S
C455 C460 1.399 . S
C456 C455 1.399 . S
C456 C457 1.376 . S
C457 H444 0.930 . S
C457 C456 1.376 . S
C457 C458 1.388 . S
C458 H445 0.930 . S
C458 C457 1.388 . S
C458 C459 1.390 . S
C459 C458 1.390 . S
C459 C460 1.394 . S
C459 C465 1.465 . S
C460 C455 1.399 . S
C460 C459 1.394 . S
C460 C461 1.516 . S
C461 C460 1.516 . S
C461 C462 1.502 . S
C461 C463 1.561 . S
C461 C464 1.526 . S
C462 H446 0.959 . S
C462 H447 0.959 . S
C462 H448 0.961 . S
C462 C461 1.502 . S
C463 H449 0.960 . S
C463 H450 0.961 . S
C463 H451 0.959 . S
C463 C461 1.561 . S
C464 C461 1.526 . S
C464 C465 1.396 . S
C464 C469 1.390 . S
C465 C459 1.465 . S
C465 C464 1.396 . S
C465 C466 1.399 . S
C466 H452 0.929 . S
C466 C465 1.399 . S
C466 C467 1.385 . S
C467 H453 0.931 . S
C467 C466 1.385 . S
C467 C468 1.389 . S
C468 C467 1.389 . S
C468 C469 1.387 . S
C469 H454 0.930 . S
C469 C464 1.390 . S
C469 C468 1.387 . S
H470 C482 0.930 . S
H471 C484 0.930 . S
H472 C485 0.930 . S
H473 C489 0.959 . S
H474 C489 0.959 . S
H475 C489 0.961 . S
H476 C490 0.960 . S
H477 C490 0.961 . S
H478 C490 0.959 . S
H479 C493 0.929 . S
H480 C494 0.931 . S
H481 C496 0.930 . S
C482 H470 0.930 . S
C482 C483 1.399 . S
C482 C487 1.399 . S
C483 C482 1.399 . S
C483 C484 1.376 . S
C484 H471 0.930 . S
C484 C483 1.376 . S
C484 C485 1.388 . S
C485 H472 0.930 . S
C485 C484 1.388 . S
C485 C486 1.390 . S
C486 C485 1.390 . S
C486 C487 1.394 . S
C486 C492 1.465 . S
C487 C482 1.399 . S
C487 C486 1.394 . S
C487 C488 1.516 . S
C488 C487 1.516 . S
C488 C489 1.502 . S
C488 C490 1.561 . S
C488 C491 1.526 . S
C489 H473 0.959 . S
C489 H474 0.959 . S
C489 H475 0.961 . S
C489 C488 1.502 . S
C490 H476 0.960 . S
C490 H477 0.961 . S
C490 H478 0.959 . S
C490 C488 1.561 . S
C491 C488 1.526 . S
C491 C492 1.396 . S
C491 C496 1.390 . S
C492 C486 1.465 . S
C492 C491 1.396 . S
C492 C493 1.399 . S
C493 H479 0.929 . S
C493 C492 1.399 . S
C493 C494 1.385 . S
C494 H480 0.931 . S
C494 C493 1.385 . S
C494 C495 1.389 . S
C495 C494 1.389 . S
C495 C496 1.387 . S
C496 H481 0.930 . S
C496 C491 1.390 . S
C496 C495 1.387 . S
H497 C509 0.930 . S
H498 C511 0.930 . S
H499 C512 0.930 . S
H500 C516 0.959 . S
H501 C516 0.959 . S
H502 C516 0.961 . S
H503 C517 0.960 . S
H504 C517 0.961 . S
H505 C517 0.959 . S
H506 C520 0.929 . S
H507 C521 0.931 . S
H508 C523 0.930 . S
C509 H497 0.930 . S
C509 C510 1.399 . S
C509 C514 1.399 . S
C510 C509 1.399 . S
C510 C511 1.376 . S
C511 H498 0.930 . S
C511 C510 1.376 . S
C511 C512 1.388 . S
C512 H499 0.930 . S
C512 C511 1.388 . S
C512 C513 1.390 . S
C513 C512 1.390 . S
C513 C514 1.394 . S
C513 C519 1.465 . S
C514 C509 1.399 . S
C514 C513 1.394 . S
C514 C515 1.516 . S
C515 C514 1.516 . S
C515 C516 1.502 . S
C515 C517 1.561 . S
C515 C518 1.526 . S
C516 H500 0.959 . S
C516 H501 0.959 . S
C516 H502 0.961 . S
C516 C515 1.502 . S
C517 H503 0.960 . S
C517 H504 0.961 . S
C517 H505 0.959 . S
C517 C515 1.561 . S
C518 C515 1.526 . S
C518 C519 1.396 . S
C518 C523 1.390 . S
C519 C513 1.465 . S
C519 C518 1.396 . S
C519 C520 1.399 . S
C520 H506 0.929 . S
C520 C519 1.399 . S
C520 C521 1.385 . S
C521 H507 0.931 . S
C521 C520 1.385 . S
C521 C522 1.389 . S
C522 C521 1.389 . S
C522 C523 1.387 . S
C523 H508 0.930 . S
C523 C518 1.390 . S
C523 C522 1.387 . S
H524 C536 0.930 . S
H525 C538 0.930 . S
H526 C539 0.930 . S
H527 C543 0.959 . S
H528 C543 0.959 . S
H529 C543 0.961 . S
H530 C544 0.960 . S
H531 C544 0.961 . S
H532 C544 0.959 . S
H533 C547 0.929 . S
H534 C548 0.931 . S
H535 C550 0.930 . S
C536 H524 0.930 . S
C536 C537 1.399 . S
C536 C541 1.399 . S
C537 C536 1.399 . S
C537 C538 1.376 . S
C538 H525 0.930 . S
C538 C537 1.376 . S
C538 C539 1.388 . S
C539 H526 0.930 . S
C539 C538 1.388 . S
C539 C540 1.390 . S
C540 C539 1.390 . S
C540 C541 1.394 . S
C540 C546 1.465 . S
C541 C536 1.399 . S
C541 C540 1.394 . S
C541 C542 1.516 . S
C542 C541 1.516 . S
C542 C543 1.502 . S
C542 C544 1.561 . S
C542 C545 1.526 . S
C543 H527 0.959 . S
C543 H528 0.959 . S
C543 H529 0.961 . S
C543 C542 1.502 . S
C544 H530 0.960 . S
C544 H531 0.961 . S
C544 H532 0.959 . S
C544 C542 1.561 . S
C545 C542 1.526 . S
C545 C546 1.396 . S
C545 C550 1.390 . S
C546 C540 1.465 . S
C546 C545 1.396 . S
C546 C547 1.399 . S
C547 H533 0.929 . S
C547 C546 1.399 . S
C547 C548 1.385 . S
C548 H534 0.931 . S
C548 C547 1.385 . S
C548 C549 1.389 . S
C549 C548 1.389 . S
C549 C550 1.387 . S
C550 H535 0.930 . S
C550 C545 1.390 . S
C550 C549 1.387 . S
H551 C563 0.930 . S
H552 C565 0.930 . S
H553 C566 0.930 . S
H554 C570 0.959 . S
H555 C570 0.959 . S
H556 C570 0.961 . S
H557 C571 0.960 . S
H558 C571 0.961 . S
H559 C571 0.959 . S
H560 C574 0.929 . S
H561 C575 0.931 . S
H562 C577 0.930 . S
C563 H551 0.930 . S
C563 C564 1.399 . S
C563 C568 1.399 . S
C564 C563 1.399 . S
C564 C565 1.376 . S
C565 H552 0.930 . S
C565 C564 1.376 . S
C565 C566 1.388 . S
C566 H553 0.930 . S
C566 C565 1.388 . S
C566 C567 1.390 . S
C567 C566 1.390 . S
C567 C568 1.394 . S
C567 C573 1.465 . S
C568 C563 1.399 . S
C568 C567 1.394 . S
C568 C569 1.516 . S
C569 C568 1.516 . S
C569 C570 1.502 . S
C569 C571 1.561 . S
C569 C572 1.526 . S
C570 H554 0.959 . S
C570 H555 0.959 . S
C570 H556 0.961 . S
C570 C569 1.502 . S
C571 H557 0.960 . S
C571 H558 0.961 . S
C571 H559 0.959 . S
C571 C569 1.561 . S
C572 C569 1.526 . S
C572 C573 1.396 . S
C572 C577 1.390 . S
C573 C567 1.465 . S
C573 C572 1.396 . S
C573 C574 1.399 . S
C574 H560 0.929 . S
C574 C573 1.399 . S
C574 C575 1.385 . S
C575 H561 0.931 . S
C575 C574 1.385 . S
C575 C576 1.389 . S
C576 C575 1.389 . S
C576 C577 1.387 . S
C577 H562 0.930 . S
C577 C572 1.390 . S
C577 C576 1.387 . S
H578 C590 0.930 . S
H579 C592 0.930 . S
H580 C593 0.930 . S
H581 C597 0.959 . S
H582 C597 0.959 . S
H583 C597 0.961 . S
H584 C598 0.960 . S
H585 C598 0.961 . S
H586 C598 0.959 . S
H587 C601 0.929 . S
H588 C602 0.931 . S
H589 C604 0.930 . S
C590 H578 0.930 . S
C590 C591 1.399 . S
C590 C595 1.399 . S
C591 C590 1.399 . S
C591 C592 1.376 . S
C592 H579 0.930 . S
C592 C591 1.376 . S
C592 C593 1.388 . S
C593 H580 0.930 . S
C593 C592 1.388 . S
C593 C594 1.390 . S
C594 C593 1.390 . S
C594 C595 1.394 . S
C594 C600 1.465 . S
C595 C590 1.399 . S
C595 C594 1.394 . S
C595 C596 1.516 . S
C596 C595 1.516 . S
C596 C597 1.502 . S
C596 C598 1.561 . S
C596 C599 1.526 . S
C597 H581 0.959 . S
C597 H582 0.959 . S
C597 H583 0.961 . S
C597 C596 1.502 . S
C598 H584 0.960 . S
C598 H585 0.961 . S
C598 H586 0.959 . S
C598 C596 1.561 . S
C599 C596 1.526 . S
C599 C600 1.396 . S
C599 C604 1.390 . S
C600 C594 1.465 . S
C600 C599 1.396 . S
C600 C601 1.399 . S
C601 H587 0.929 . S
C601 C600 1.399 . S
C601 C602 1.385 . S
C602 H588 0.931 . S
C602 C601 1.385 . S
C602 C603 1.389 . S
C603 C602 1.389 . S
C603 C604 1.387 . S
C604 H589 0.930 . S
C604 C599 1.390 . S
C604 C603 1.387 . S
H605 C617 0.930 . S
H606 C619 0.930 . S
H607 C620 0.930 . S
H608 C624 0.959 . S
H609 C624 0.959 . S
H610 C624 0.961 . S
H611 C625 0.960 . S
H612 C625 0.961 . S
H613 C625 0.959 . S
H614 C628 0.929 . S
H615 C629 0.931 . S
H616 C631 0.930 . S
C617 H605 0.930 . S
C617 C618 1.399 . S
C617 C622 1.399 . S
C618 C617 1.399 . S
C618 C619 1.376 . S
C619 H606 0.930 . S
C619 C618 1.376 . S
C619 C620 1.388 . S
C620 H607 0.930 . S
C620 C619 1.388 . S
C620 C621 1.390 . S
C621 C620 1.390 . S
C621 C622 1.394 . S
C621 C627 1.465 . S
C622 C617 1.399 . S
C622 C621 1.394 . S
C622 C623 1.516 . S
C623 C622 1.516 . S
C623 C624 1.502 . S
C623 C625 1.561 . S
C623 C626 1.526 . S
C624 H608 0.959 . S
C624 H609 0.959 . S
C624 H610 0.961 . S
C624 C623 1.502 . S
C625 H611 0.960 . S
C625 H612 0.961 . S
C625 H613 0.959 . S
C625 C623 1.561 . S
C626 C623 1.526 . S
C626 C627 1.396 . S
C626 C631 1.390 . S
C627 C621 1.465 . S
C627 C626 1.396 . S
C627 C628 1.399 . S
C628 H614 0.929 . S
C628 C627 1.399 . S
C628 C629 1.385 . S
C629 H615 0.931 . S
C629 C628 1.385 . S
C629 C630 1.389 . S
C630 C629 1.389 . S
C630 C631 1.387 . S
C631 H616 0.930 . S
C631 C626 1.390 . S
C631 C630 1.387 . S
H632 C644 0.930 . S
H633 C646 0.930 . S
H634 C647 0.930 . S
H635 C651 0.959 . S
H636 C651 0.959 . S
H637 C651 0.961 . S
H638 C652 0.960 . S
H639 C652 0.961 . S
H640 C652 0.959 . S
H641 C655 0.929 . S
H642 C656 0.931 . S
H643 C658 0.930 . S
C644 H632 0.930 . S
C644 C645 1.399 . S
C644 C649 1.399 . S
C645 C644 1.399 . S
C645 C646 1.376 . S
C646 H633 0.930 . S
C646 C645 1.376 . S
C646 C647 1.388 . S
C647 H634 0.930 . S
C647 C646 1.388 . S
C647 C648 1.390 . S
C648 C647 1.390 . S
C648 C649 1.394 . S
C648 C654 1.465 . S
C649 C644 1.399 . S
C649 C648 1.394 . S
C649 C650 1.516 . S
C650 C649 1.516 . S
C650 C651 1.502 . S
C650 C652 1.561 . S
C650 C653 1.526 . S
C651 H635 0.959 . S
C651 H636 0.959 . S
C651 H637 0.961 . S
C651 C650 1.502 . S
C652 H638 0.960 . S
C652 H639 0.961 . S
C652 H640 0.959 . S
C652 C650 1.561 . S
C653 C650 1.526 . S
C653 C654 1.396 . S
C653 C658 1.390 . S
C654 C648 1.465 . S
C654 C653 1.396 . S
C654 C655 1.399 . S
C655 H641 0.929 . S
C655 C654 1.399 . S
C655 C656 1.385 . S
C656 H642 0.931 . S
C656 C655 1.385 . S
C656 C657 1.389 . S
C657 C656 1.389 . S
C657 C658 1.387 . S
C658 H643 0.930 . S
C658 C653 1.390 . S
C658 C657 1.387 . S
H659 C671 0.930 . S
H660 C673 0.930 . S
H661 C674 0.930 . S
H662 C678 0.959 . S
H663 C678 0.959 . S
H664 C678 0.961 . S
H665 C679 0.960 . S
H666 C679 0.961 . S
H667 C679 0.959 . S
H668 C682 0.929 . S
H669 C683 0.931 . S
H670 C685 0.930 . S
C671 H659 0.930 . S
C671 C672 1.399 . S
C671 C676 1.399 . S
C672 C671 1.399 . S
C672 C673 1.376 . S
C673 H660 0.930 . S
C673 C672 1.376 . S
C673 C674 1.388 . S
C674 H661 0.930 . S
C674 C673 1.388 . S
C674 C675 1.390 . S
C675 C674 1.390 . S
C675 C676 1.394 . S
C675 C681 1.465 . S
C676 C671 1.399 . S
C676 C675 1.394 . S
C676 C677 1.516 . S
C677 C676 1.516 . S
C677 C678 1.502 . S
C677 C679 1.561 . S
C677 C680 1.526 . S
C678 H662 0.959 . S
C678 H663 0.959 . S
C678 H664 0.961 . S
C678 C677 1.502 . S
C679 H665 0.960 . S
C679 H666 0.961 . S
C679 H667 0.959 . S
C679 C677 1.561 . S
C680 C677 1.526 . S
C680 C681 1.396 . S
C680 C685 1.390 . S
C681 C675 1.465 . S
C681 C680 1.396 . S
C681 C682 1.399 . S
C682 H668 0.929 . S
C682 C681 1.399 . S
C682 C683 1.385 . S
C683 H669 0.931 . S
C683 C682 1.385 . S
C683 C684 1.389 . S
C684 C683 1.389 . S
C684 C685 1.387 . S
C685 H670 0.930 . S
C685 C680 1.390 . S
C685 C684 1.387 . S
H686 C698 0.930 . S
H687 C700 0.930 . S
H688 C701 0.930 . S
H689 C705 0.959 . S
H690 C705 0.959 . S
H691 C705 0.961 . S
H692 C706 0.960 . S
H693 C706 0.961 . S
H694 C706 0.959 . S
H695 C709 0.929 . S
H696 C710 0.931 . S
H697 C712 0.930 . S
C698 H686 0.930 . S
C698 C699 1.399 . S
C698 C703 1.399 . S
C699 C698 1.399 . S
C699 C700 1.376 . S
C700 H687 0.930 . S
C700 C699 1.376 . S
C700 C701 1.388 . S
C701 H688 0.930 . S
C701 C700 1.388 . S
C701 C702 1.390 . S
C702 C701 1.390 . S
C702 C703 1.394 . S
C702 C708 1.465 . S
C703 C698 1.399 . S
C703 C702 1.394 . S
C703 C704 1.516 . S
C704 C703 1.516 . S
C704 C705 1.502 . S
C704 C706 1.561 . S
C704 C707 1.526 . S
C705 H689 0.959 . S
C705 H690 0.959 . S
C705 H691 0.961 . S
C705 C704 1.502 . S
C706 H692 0.960 . S
C706 H693 0.961 . S
C706 H694 0.959 . S
C706 C704 1.561 . S
C707 C704 1.526 . S
C707 C708 1.396 . S
C707 C712 1.390 . S
C708 C702 1.465 . S
C708 C707 1.396 . S
C708 C709 1.399 . S
C709 H695 0.929 . S
C709 C708 1.399 . S
C709 C710 1.385 . S
C710 H696 0.931 . S
C710 C709 1.385 . S
C710 C711 1.389 . S
C711 C710 1.389 . S
C711 C712 1.387 . S
C712 H697 0.930 . S
C712 C707 1.390 . S
C712 C711 1.387 . S
H713 C725 0.930 . S
H714 C727 0.930 . S
H715 C728 0.930 . S
H716 C732 0.959 . S
H717 C732 0.959 . S
H718 C732 0.961 . S
H719 C733 0.960 . S
H720 C733 0.961 . S
H721 C733 0.959 . S
H722 C736 0.929 . S
H723 C737 0.931 . S
H724 C739 0.930 . S
C725 H713 0.930 . S
C725 C726 1.399 . S
C725 C730 1.399 . S
C726 C725 1.399 . S
C726 C727 1.376 . S
C727 H714 0.930 . S
C727 C726 1.376 . S
C727 C728 1.388 . S
C728 H715 0.930 . S
C728 C727 1.388 . S
C728 C729 1.390 . S
C729 C728 1.390 . S
C729 C730 1.394 . S
C729 C735 1.465 . S
C730 C725 1.399 . S
C730 C729 1.394 . S
C730 C731 1.516 . S
C731 C730 1.516 . S
C731 C732 1.502 . S
C731 C733 1.561 . S
C731 C734 1.526 . S
C732 H716 0.959 . S
C732 H717 0.959 . S
C732 H718 0.961 . S
C732 C731 1.502 . S
C733 H719 0.960 . S
C733 H720 0.961 . S
C733 H721 0.959 . S
C733 C731 1.561 . S
C734 C731 1.526 . S
C734 C735 1.396 . S
C734 C739 1.390 . S
C735 C729 1.465 . S
C735 C734 1.396 . S
C735 C736 1.399 . S
C736 H722 0.929 . S
C736 C735 1.399 . S
C736 C737 1.385 . S
C737 H723 0.931 . S
C737 C736 1.385 . S
C737 C738 1.389 . S
C738 C737 1.389 . S
C738 C739 1.387 . S
C739 H724 0.930 . S
C739 C734 1.390 . S
C739 C738 1.387 . S
H740 C752 0.930 . S
H741 C754 0.930 . S
H742 C755 0.930 . S
H743 C759 0.959 . S
H744 C759 0.959 . S
H745 C759 0.961 . S
H746 C760 0.960 . S
H747 C760 0.961 . S
H748 C760 0.959 . S
H749 C763 0.929 . S
H750 C764 0.931 . S
H751 C766 0.930 . S
C752 H740 0.930 . S
C752 C753 1.399 . S
C752 C757 1.399 . S
C753 C752 1.399 . S
C753 C754 1.376 . S
C754 H741 0.930 . S
C754 C753 1.376 . S
C754 C755 1.388 . S
C755 H742 0.930 . S
C755 C754 1.388 . S
C755 C756 1.390 . S
C756 C755 1.390 . S
C756 C757 1.394 . S
C756 C762 1.465 . S
C757 C752 1.399 . S
C757 C756 1.394 . S
C757 C758 1.516 . S
C758 C757 1.516 . S
C758 C759 1.502 . S
C758 C760 1.561 . S
C758 C761 1.526 . S
C759 H743 0.959 . S
C759 H744 0.959 . S
C759 H745 0.961 . S
C759 C758 1.502 . S
C760 H746 0.960 . S
C760 H747 0.961 . S
C760 H748 0.959 . S
C760 C758 1.561 . S
C761 C758 1.526 . S
C761 C762 1.396 . S
C761 C766 1.390 . S
C762 C756 1.465 . S
C762 C761 1.396 . S
C762 C763 1.399 . S
C763 H749 0.929 . S
C763 C762 1.399 . S
C763 C764 1.385 . S
C764 H750 0.931 . S
C764 C763 1.385 . S
C764 C765 1.389 . S
C765 C764 1.389 . S
C765 C766 1.387 . S
C766 H751 0.930 . S
C766 C761 1.390 . S
C766 C765 1.387 . S
H767 C779 0.930 . S
H768 C781 0.930 . S
H769 C782 0.930 . S
H770 C786 0.959 . S
H771 C786 0.959 . S
H772 C786 0.961 . S
H773 C787 0.960 . S
H774 C787 0.961 . S
H775 C787 0.959 . S
H776 C790 0.929 . S
H777 C791 0.931 . S
H778 C793 0.930 . S
C779 H767 0.930 . S
C779 C780 1.399 . S
C779 C784 1.399 . S
C780 C779 1.399 . S
C780 C781 1.376 . S
C781 H768 0.930 . S
C781 C780 1.376 . S
C781 C782 1.388 . S
C782 H769 0.930 . S
C782 C781 1.388 . S
C782 C783 1.390 . S
C783 C782 1.390 . S
C783 C784 1.394 . S
C783 C789 1.465 . S
C784 C779 1.399 . S
C784 C783 1.394 . S
C784 C785 1.516 . S
C785 C784 1.516 . S
C785 C786 1.502 . S
C785 C787 1.561 . S
C785 C788 1.526 . S
C786 H770 0.959 . S
C786 H771 0.959 . S
C786 H772 0.961 . S
C786 C785 1.502 . S
C787 H773 0.960 . S
C787 H774 0.961 . S
C787 H775 0.959 . S
C787 C785 1.561 . S
C788 C785 1.526 . S
C788 C789 1.396 . S
C788 C793 1.390 . S
C789 C783 1.465 . S
C789 C788 1.396 . S
C789 C790 1.399 . S
C790 H776 0.929 . S
C790 C789 1.399 . S
C790 C791 1.385 . S
C791 H777 0.931 . S
C791 C790 1.385 . S
C791 C792 1.389 . S
C792 C791 1.389 . S
C792 C793 1.387 . S
C793 H778 0.930 . S
C793 C788 1.390 . S
C793 C792 1.387 . S
H794 C806 0.930 . S
H795 C808 0.930 . S
H796 C809 0.930 . S
H797 C813 0.959 . S
H798 C813 0.959 . S
H799 C813 0.961 . S
H800 C814 0.960 . S
H801 C814 0.961 . S
H802 C814 0.959 . S
H803 C817 0.929 . S
H804 C818 0.931 . S
H805 C820 0.930 . S
C806 H794 0.930 . S
C806 C807 1.399 . S
C806 C811 1.399 . S
C807 C806 1.399 . S
C807 C808 1.376 . S
C808 H795 0.930 . S
C808 C807 1.376 . S
C808 C809 1.388 . S
C809 H796 0.930 . S
C809 C808 1.388 . S
C809 C810 1.390 . S
C810 C809 1.390 . S
C810 C811 1.394 . S
C810 C816 1.465 . S
C811 C806 1.399 . S
C811 C810 1.394 . S
C811 C812 1.516 . S
C812 C811 1.516 . S
C812 C813 1.502 . S
C812 C814 1.561 . S
C812 C815 1.526 . S
C813 H797 0.959 . S
C813 H798 0.959 . S
C813 H799 0.961 . S
C813 C812 1.502 . S
C814 H800 0.960 . S
C814 H801 0.961 . S
C814 H802 0.959 . S
C814 C812 1.561 . S
C815 C812 1.526 . S
C815 C816 1.396 . S
C815 C820 1.390 . S
C816 C810 1.465 . S
C816 C815 1.396 . S
C816 C817 1.399 . S
C817 H803 0.929 . S
C817 C816 1.399 . S
C817 C818 1.385 . S
C818 H804 0.931 . S
C818 C817 1.385 . S
C818 C819 1.389 . S
C819 C818 1.389 . S
C819 C820 1.387 . S
C820 H805 0.930 . S
C820 C815 1.390 . S
C820 C819 1.387 . S
H821 C833 0.930 . S
H822 C835 0.930 . S
H823 C836 0.930 . S
H824 C840 0.959 . S
H825 C840 0.959 . S
H826 C840 0.961 . S
H827 C841 0.960 . S
H828 C841 0.961 . S
H829 C841 0.959 . S
H830 C844 0.929 . S
H831 C845 0.931 . S
H832 C847 0.930 . S
C833 H821 0.930 . S
C833 C834 1.399 . S
C833 C838 1.399 . S
C834 C833 1.399 . S
C834 C835 1.376 . S
C835 H822 0.930 . S
C835 C834 1.376 . S
C835 C836 1.388 . S
C836 H823 0.930 . S
C836 C835 1.388 . S
C836 C837 1.390 . S
C837 C836 1.390 . S
C837 C838 1.394 . S
C837 C843 1.465 . S
C838 C833 1.399 . S
C838 C837 1.394 . S
C838 C839 1.516 . S
C839 C838 1.516 . S
C839 C840 1.502 . S
C839 C841 1.561 . S
C839 C842 1.526 . S
C840 H824 0.959 . S
C840 H825 0.959 . S
C840 H826 0.961 . S
C840 C839 1.502 . S
C841 H827 0.960 . S
C841 H828 0.961 . S
C841 H829 0.959 . S
C841 C839 1.561 . S
C842 C839 1.526 . S
C842 C843 1.396 . S
C842 C847 1.390 . S
C843 C837 1.465 . S
C843 C842 1.396 . S
C843 C844 1.399 . S
C844 H830 0.929 . S
C844 C843 1.399 . S
C844 C845 1.385 . S
C845 H831 0.931 . S
C845 C844 1.385 . S
C845 C846 1.389 . S
C846 C845 1.389 . S
C846 C847 1.387 . S
C847 H832 0.930 . S
C847 C842 1.390 . S
C847 C846 1.387 . S
H848 C860 0.930 . S
H849 C862 0.930 . S
H850 C863 0.930 . S
H851 C867 0.962 . S
H852 C867 0.978 . S
H853 C867 0.940 1_655 S
H854 C868 0.958 1_655 S
H855 C868 0.963 . S
H856 C868 0.959 . S
H857 C871 0.929 . S
H858 C872 0.931 . S
H859 C874 0.930 . S
C860 H848 0.930 . S
C860 C861 1.399 . S
C860 C865 1.399 . S
C861 C860 1.399 . S
C861 C862 1.376 . S
C862 H849 0.930 . S
C862 C861 1.376 . S
C862 C863 1.388 . S
C863 H850 0.930 . S
C863 C862 1.388 . S
C863 C864 1.390 . S
C864 C863 1.390 . S
C864 C865 1.394 . S
C864 C870 1.465 1_655 S
C865 C860 1.399 . S
C865 C864 1.394 . S
C865 C866 1.518 1_655 S
C866 C865 1.518 1_455 S
C866 C867 1.502 . S
C866 C868 1.561 . S
C866 C869 1.524 . S
C867 H851 0.962 . S
C867 H852 0.978 . S
C867 H853 0.940 1_455 S
C867 C866 1.502 . S
C868 H854 0.958 1_455 S
C868 H855 0.963 . S
C868 H856 0.959 . S
C868 C866 1.561 . S
C869 C866 1.524 . S
C869 C870 1.396 . S
C869 C874 1.390 . S
C870 C864 1.465 1_455 S
C870 C869 1.396 . S
C870 C871 1.399 . S
C871 H857 0.929 . S
C871 C870 1.399 . S
C871 C872 1.385 . S
C872 H858 0.931 . S
C872 C871 1.385 . S
C872 C873 1.389 . S
C873 C872 1.389 . S
C873 C874 1.387 . S
C874 H859 0.930 . S
C874 C869 1.390 . S
C874 C873 1.387 . S
H875 C887 0.930 . S
H876 C889 0.930 . S
H877 C890 0.930 . S
H878 C894 0.962 . S
H879 C894 0.978 . S
H880 C894 0.940 1_545 S
H881 C895 0.958 1_545 S
H882 C895 0.963 . S
H883 C895 0.959 . S
H884 C898 0.929 . S
H885 C899 0.931 . S
H886 C901 0.930 . S
C887 H875 0.930 . S
C887 C888 1.399 . S
C887 C892 1.399 . S
C888 C887 1.399 . S
C888 C889 1.376 . S
C889 H876 0.930 . S
C889 C888 1.376 . S
C889 C890 1.388 . S
C890 H877 0.930 . S
C890 C889 1.388 . S
C890 C891 1.390 . S
C891 C890 1.390 . S
C891 C892 1.394 . S
C891 C897 1.465 1_545 S
C892 C887 1.399 . S
C892 C891 1.394 . S
C892 C893 1.518 1_545 S
C893 C892 1.518 1_565 S
C893 C894 1.502 . S
C893 C895 1.561 . S
C893 C896 1.524 . S
C894 H878 0.962 . S
C894 H879 0.978 . S
C894 H880 0.940 1_565 S
C894 C893 1.502 . S
C895 H881 0.958 1_565 S
C895 H882 0.963 . S
C895 H883 0.959 . S
C895 C893 1.561 . S
C896 C893 1.524 . S
C896 C897 1.396 . S
C896 C901 1.390 . S
C897 C891 1.465 1_565 S
C897 C896 1.396 . S
C897 C898 1.399 . S
C898 H884 0.929 . S
C898 C897 1.399 . S
C898 C899 1.385 . S
C899 H885 0.931 . S
C899 C898 1.385 . S
C899 C900 1.389 . S
C900 C899 1.389 . S
C900 C901 1.387 . S
C901 H886 0.930 . S
C901 C896 1.390 . S
C901 C900 1.387 . S
H902 C914 0.930 . S
H903 C916 0.930 . S
H904 C917 0.930 . S
H905 C921 0.962 . S
H906 C921 0.978 . S
H907 C921 0.940 1_455 S
H908 C922 0.958 1_455 S
H909 C922 0.963 . S
H910 C922 0.959 . S
H911 C925 0.929 . S
H912 C926 0.931 . S
H913 C928 0.930 . S
C914 H902 0.930 . S
C914 C915 1.399 . S
C914 C919 1.399 . S
C915 C914 1.399 . S
C915 C916 1.376 . S
C916 H903 0.930 . S
C916 C915 1.376 . S
C916 C917 1.388 . S
C917 H904 0.930 . S
C917 C916 1.388 . S
C917 C918 1.390 . S
C918 C917 1.390 . S
C918 C919 1.394 . S
C918 C924 1.465 1_455 S
C919 C914 1.399 . S
C919 C918 1.394 . S
C919 C920 1.518 1_455 S
C920 C919 1.518 1_655 S
C920 C921 1.502 . S
C920 C922 1.561 . S
C920 C923 1.524 . S
C921 H905 0.962 . S
C921 H906 0.978 . S
C921 H907 0.940 1_655 S
C921 C920 1.502 . S
C922 H908 0.958 1_655 S
C922 H909 0.963 . S
C922 H910 0.959 . S
C922 C920 1.561 . S
C923 C920 1.524 . S
C923 C924 1.396 . S
C923 C928 1.390 . S
C924 C918 1.465 1_655 S
C924 C923 1.396 . S
C924 C925 1.399 . S
C925 H911 0.929 . S
C925 C924 1.399 . S
C925 C926 1.385 . S
C926 H912 0.931 . S
C926 C925 1.385 . S
C926 C927 1.389 . S
C927 C926 1.389 . S
C927 C928 1.387 . S
C928 H913 0.930 . S
C928 C923 1.390 . S
C928 C927 1.387 . S
H929 C941 0.930 . S
H930 C943 0.930 . S
H931 C944 0.930 . S
H932 C948 0.962 . S
H933 C948 0.978 . S
H934 C948 0.940 1_565 S
H935 C949 0.958 1_565 S
H936 C949 0.963 . S
H937 C949 0.959 . S
H938 C952 0.929 . S
H939 C953 0.931 . S
H940 C955 0.930 . S
C941 H929 0.930 . S
C941 C942 1.399 . S
C941 C946 1.399 . S
C942 C941 1.399 . S
C942 C943 1.376 . S
C943 H930 0.930 . S
C943 C942 1.376 . S
C943 C944 1.388 . S
C944 H931 0.930 . S
C944 C943 1.388 . S
C944 C945 1.390 . S
C945 C944 1.390 . S
C945 C946 1.394 . S
C945 C951 1.465 1_565 S
C946 C941 1.399 . S
C946 C945 1.394 . S
C946 C947 1.518 1_565 S
C947 C946 1.518 1_545 S
C947 C948 1.502 . S
C947 C949 1.561 . S
C947 C950 1.524 . S
C948 H932 0.962 . S
C948 H933 0.978 . S
C948 H934 0.940 1_545 S
C948 C947 1.502 . S
C949 H935 0.958 1_545 S
C949 H936 0.963 . S
C949 H937 0.959 . S
C949 C947 1.561 . S
C950 C947 1.524 . S
C950 C951 1.396 . S
C950 C955 1.390 . S
C951 C945 1.465 1_545 S
C951 C950 1.396 . S
C951 C952 1.399 . S
C952 H938 0.929 . S
C952 C951 1.399 . S
C952 C953 1.385 . S
C953 H939 0.931 . S
C953 C952 1.385 . S
C953 C954 1.389 . S
C954 C953 1.389 . S
C954 C955 1.387 . S
C955 H940 0.930 . S
C955 C950 1.390 . S
C955 C954 1.387 . S
H956 C968 0.930 . S
H957 C970 0.930 . S
H958 C971 0.930 . S
H959 C975 0.962 . S
H960 C975 0.978 . S
H961 C975 0.940 1_455 S
H962 C976 0.958 1_455 S
H963 C976 0.963 . S
H964 C976 0.959 . S
H965 C979 0.929 . S
H966 C980 0.931 . S
H967 C982 0.930 . S
C968 H956 0.930 . S
C968 C969 1.399 . S
C968 C973 1.399 . S
C969 C968 1.399 . S
C969 C970 1.376 . S
C970 H957 0.930 . S
C970 C969 1.376 . S
C970 C971 1.388 . S
C971 H958 0.930 . S
C971 C970 1.388 . S
C971 C972 1.390 . S
C972 C971 1.390 . S
C972 C973 1.394 . S
C972 C978 1.465 1_455 S
C973 C968 1.399 . S
C973 C972 1.394 . S
C973 C974 1.518 1_455 S
C974 C973 1.518 1_655 S
C974 C975 1.502 . S
C974 C976 1.561 . S
C974 C977 1.524 . S
C975 H959 0.962 . S
C975 H960 0.978 . S
C975 H961 0.940 1_655 S
C975 C974 1.502 . S
C976 H962 0.958 1_655 S
C976 H963 0.963 . S
C976 H964 0.959 . S
C976 C974 1.561 . S
C977 C974 1.524 . S
C977 C978 1.396 . S
C977 C982 1.390 . S
C978 C972 1.465 1_655 S
C978 C977 1.396 . S
C978 C979 1.399 . S
C979 H965 0.929 . S
C979 C978 1.399 . S
C979 C980 1.385 . S
C980 H966 0.931 . S
C980 C979 1.385 . S
C980 C981 1.389 . S
C981 C980 1.389 . S
C981 C982 1.387 . S
C982 H967 0.930 . S
C982 C977 1.390 . S
C982 C981 1.387 . S
H983 C995 0.930 . S
H984 C997 0.930 . S
H985 C998 0.930 . S
H986 C1002 0.962 . S
H987 C1002 0.978 . S
H988 C1002 0.940 1_565 S
H989 C1003 0.958 1_565 S
H990 C1003 0.963 . S
H991 C1003 0.959 . S
H992 C1006 0.929 . S
H993 C1007 0.931 . S
H994 C1009 0.930 . S
C995 H983 0.930 . S
C995 C996 1.399 . S
C995 C1000 1.399 . S
C996 C995 1.399 . S
C996 C997 1.376 . S
C997 H984 0.930 . S
C997 C996 1.376 . S
C997 C998 1.388 . S
C998 H985 0.930 . S
C998 C997 1.388 . S
C998 C999 1.390 . S
C999 C998 1.390 . S
C999 C1000 1.394 . S
C999 C1005 1.465 1_565 S
C1000 C995 1.399 . S
C1000 C999 1.394 . S
C1000 C1001 1.518 1_565 S
C1001 C1000 1.518 1_545 S
C1001 C1002 1.502 . S
C1001 C1003 1.561 . S
C1001 C1004 1.524 . S
C1002 H986 0.962 . S
C1002 H987 0.978 . S
C1002 H988 0.940 1_545 S
C1002 C1001 1.502 . S
C1003 H989 0.958 1_545 S
C1003 H990 0.963 . S
C1003 H991 0.959 . S
C1003 C1001 1.561 . S
C1004 C1001 1.524 . S
C1004 C1005 1.396 . S
C1004 C1009 1.390 . S
C1005 C999 1.465 1_545 S
C1005 C1004 1.396 . S
C1005 C1006 1.399 . S
C1006 H992 0.929 . S
C1006 C1005 1.399 . S
C1006 C1007 1.385 . S
C1007 H993 0.931 . S
C1007 C1006 1.385 . S
C1007 C1008 1.389 . S
C1008 C1007 1.389 . S
C1008 C1009 1.387 . S
C1009 H994 0.930 . S
C1009 C1004 1.390 . S
C1009 C1008 1.387 . S
H1010 C1022 0.930 . S
H1011 C1024 0.930 . S
H1012 C1025 0.930 . S
H1013 C1029 0.962 . S
H1014 C1029 0.978 . S
H1015 C1029 0.940 1_455 S
H1016 C1030 0.958 1_455 S
H1017 C1030 0.963 . S
H1018 C1030 0.959 . S
H1019 C1033 0.929 . S
H1020 C1034 0.931 . S
H1021 C1036 0.930 . S
C1022 H1010 0.930 . S
C1022 C1023 1.399 . S
C1022 C1027 1.399 . S
C1023 C1022 1.399 . S
C1023 C1024 1.376 . S
C1024 H1011 0.930 . S
C1024 C1023 1.376 . S
C1024 C1025 1.388 . S
C1025 H1012 0.930 . S
C1025 C1024 1.388 . S
C1025 C1026 1.390 . S
C1026 C1025 1.390 . S
C1026 C1027 1.394 . S
C1026 C1032 1.465 1_455 S
C1027 C1022 1.399 . S
C1027 C1026 1.394 . S
C1027 C1028 1.518 1_455 S
C1028 C1027 1.518 1_655 S
C1028 C1029 1.502 . S
C1028 C1030 1.561 . S
C1028 C1031 1.524 . S
C1029 H1013 0.962 . S
C1029 H1014 0.978 . S
C1029 H1015 0.940 1_655 S
C1029 C1028 1.502 . S
C1030 H1016 0.958 1_655 S
C1030 H1017 0.963 . S
C1030 H1018 0.959 . S
C1030 C1028 1.561 . S
C1031 C1028 1.524 . S
C1031 C1032 1.396 . S
C1031 C1036 1.390 . S
C1032 C1026 1.465 1_655 S
C1032 C1031 1.396 . S
C1032 C1033 1.399 . S
C1033 H1019 0.929 . S
C1033 C1032 1.399 . S
C1033 C1034 1.385 . S
C1034 H1020 0.931 . S
C1034 C1033 1.385 . S
C1034 C1035 1.389 . S
C1035 C1034 1.389 . S
C1035 C1036 1.387 . S
C1036 H1021 0.930 . S
C1036 C1031 1.390 . S
C1036 C1035 1.387 . S
H1037 C1049 0.930 . S
H1038 C1051 0.930 . S
H1039 C1052 0.930 . S
H1040 C1056 0.962 . S
H1041 C1056 0.978 . S
H1042 C1056 0.940 1_545 S
H1043 C1057 0.958 1_545 S
H1044 C1057 0.963 . S
H1045 C1057 0.959 . S
H1046 C1060 0.929 . S
H1047 C1061 0.931 . S
H1048 C1063 0.930 . S
C1049 H1037 0.930 . S
C1049 C1050 1.399 . S
C1049 C1054 1.399 . S
C1050 C1049 1.399 . S
C1050 C1051 1.376 . S
C1051 H1038 0.930 . S
C1051 C1050 1.376 . S
C1051 C1052 1.388 . S
C1052 H1039 0.930 . S
C1052 C1051 1.388 . S
C1052 C1053 1.390 . S
C1053 C1052 1.390 . S
C1053 C1054 1.394 . S
C1053 C1059 1.465 1_545 S
C1054 C1049 1.399 . S
C1054 C1053 1.394 . S
C1054 C1055 1.518 1_545 S
C1055 C1054 1.518 1_565 S
C1055 C1056 1.502 . S
C1055 C1057 1.561 . S
C1055 C1058 1.524 . S
C1056 H1040 0.962 . S
C1056 H1041 0.978 . S
C1056 H1042 0.940 1_565 S
C1056 C1055 1.502 . S
C1057 H1043 0.958 1_565 S
C1057 H1044 0.963 . S
C1057 H1045 0.959 . S
C1057 C1055 1.561 . S
C1058 C1055 1.524 . S
C1058 C1059 1.396 . S
C1058 C1063 1.390 . S
C1059 C1053 1.465 1_565 S
C1059 C1058 1.396 . S
C1059 C1060 1.399 . S
C1060 H1046 0.929 . S
C1060 C1059 1.399 . S
C1060 C1061 1.385 . S
C1061 H1047 0.931 . S
C1061 C1060 1.385 . S
C1061 C1062 1.389 . S
C1062 C1061 1.389 . S
C1062 C1063 1.387 . S
C1063 H1048 0.930 . S
C1063 C1058 1.390 . S
C1063 C1062 1.387 . S
H1064 C1076 0.930 . S
H1065 C1078 0.930 . S
H1066 C1079 0.930 . S
H1067 C1083 0.959 . S
H1068 C1083 0.959 . S
H1069 C1083 0.961 . S
H1070 C1084 0.960 . S
H1071 C1084 0.961 . S
H1072 C1084 0.959 . S
H1073 C1087 0.929 . S
H1074 C1088 0.931 . S
H1075 C1090 0.930 . S
C1076 H1064 0.930 . S
C1076 C1077 1.399 . S
C1076 C1081 1.399 . S
C1077 C1076 1.399 . S
C1077 C1078 1.376 . S
C1078 H1065 0.930 . S
C1078 C1077 1.376 . S
C1078 C1079 1.388 . S
C1079 H1066 0.930 . S
C1079 C1078 1.388 . S
C1079 C1080 1.390 . S
C1080 C1079 1.390 . S
C1080 C1081 1.394 . S
C1080 C1086 1.465 . S
C1081 C1076 1.399 . S
C1081 C1080 1.394 . S
C1081 C1082 1.516 . S
C1082 C1081 1.516 . S
C1082 C1083 1.502 . S
C1082 C1084 1.561 . S
C1082 C1085 1.526 . S
C1083 H1067 0.959 . S
C1083 H1068 0.959 . S
C1083 H1069 0.961 . S
C1083 C1082 1.502 . S
C1084 H1070 0.960 . S
C1084 H1071 0.961 . S
C1084 H1072 0.959 . S
C1084 C1082 1.561 . S
C1085 C1082 1.526 . S
C1085 C1086 1.396 . S
C1085 C1090 1.390 . S
C1086 C1080 1.465 . S
C1086 C1085 1.396 . S
C1086 C1087 1.399 . S
C1087 H1073 0.929 . S
C1087 C1086 1.399 . S
C1087 C1088 1.385 . S
C1088 H1074 0.931 . S
C1088 C1087 1.385 . S
C1088 C1089 1.389 . S
C1089 C1088 1.389 . S
C1089 C1090 1.387 . S
C1090 H1075 0.930 . S
C1090 C1085 1.390 . S
C1090 C1089 1.387 . S
H1091 C1103 0.930 . S
H1092 C1105 0.930 . S
H1093 C1106 0.930 . S
H1094 C1110 0.959 . S
H1095 C1110 0.959 . S
H1096 C1110 0.961 . S
H1097 C1111 0.960 . S
H1098 C1111 0.961 . S
H1099 C1111 0.959 . S
H1100 C1114 0.929 . S
H1101 C1115 0.931 . S
H1102 C1117 0.930 . S
C1103 H1091 0.930 . S
C1103 C1104 1.399 . S
C1103 C1108 1.399 . S
C1104 C1103 1.399 . S
C1104 C1105 1.376 . S
C1105 H1092 0.930 . S
C1105 C1104 1.376 . S
C1105 C1106 1.388 . S
C1106 H1093 0.930 . S
C1106 C1105 1.388 . S
C1106 C1107 1.390 . S
C1107 C1106 1.390 . S
C1107 C1108 1.394 . S
C1107 C1113 1.465 . S
C1108 C1103 1.399 . S
C1108 C1107 1.394 . S
C1108 C1109 1.516 . S
C1109 C1108 1.516 . S
C1109 C1110 1.502 . S
C1109 C1111 1.561 . S
C1109 C1112 1.526 . S
C1110 H1094 0.959 . S
C1110 H1095 0.959 . S
C1110 H1096 0.961 . S
C1110 C1109 1.502 . S
C1111 H1097 0.960 . S
C1111 H1098 0.961 . S
C1111 H1099 0.959 . S
C1111 C1109 1.561 . S
C1112 C1109 1.526 . S
C1112 C1113 1.396 . S
C1112 C1117 1.390 . S
C1113 C1107 1.465 . S
C1113 C1112 1.396 . S
C1113 C1114 1.399 . S
C1114 H1100 0.929 . S
C1114 C1113 1.399 . S
C1114 C1115 1.385 . S
C1115 H1101 0.931 . S
C1115 C1114 1.385 . S
C1115 C1116 1.389 . S
C1116 C1115 1.389 . S
C1116 C1117 1.387 . S
C1117 H1102 0.930 . S
C1117 C1112 1.390 . S
C1117 C1116 1.387 . S
H1118 C1130 0.930 . S
H1119 C1132 0.930 . S
H1120 C1133 0.930 . S
H1121 C1137 0.959 . S
H1122 C1137 0.959 . S
H1123 C1137 0.961 . S
H1124 C1138 0.960 . S
H1125 C1138 0.961 . S
H1126 C1138 0.959 . S
H1127 C1141 0.929 . S
H1128 C1142 0.931 . S
H1129 C1144 0.930 . S
C1130 H1118 0.930 . S
C1130 C1131 1.399 . S
C1130 C1135 1.399 . S
C1131 C1130 1.399 . S
C1131 C1132 1.376 . S
C1132 H1119 0.930 . S
C1132 C1131 1.376 . S
C1132 C1133 1.388 . S
C1133 H1120 0.930 . S
C1133 C1132 1.388 . S
C1133 C1134 1.390 . S
C1134 C1133 1.390 . S
C1134 C1135 1.394 . S
C1134 C1140 1.465 . S
C1135 C1130 1.399 . S
C1135 C1134 1.394 . S
C1135 C1136 1.516 . S
C1136 C1135 1.516 . S
C1136 C1137 1.502 . S
C1136 C1138 1.561 . S
C1136 C1139 1.526 . S
C1137 H1121 0.959 . S
C1137 H1122 0.959 . S
C1137 H1123 0.961 . S
C1137 C1136 1.502 . S
C1138 H1124 0.960 . S
C1138 H1125 0.961 . S
C1138 H1126 0.959 . S
C1138 C1136 1.561 . S
C1139 C1136 1.526 . S
C1139 C1140 1.396 . S
C1139 C1144 1.390 . S
C1140 C1134 1.465 . S
C1140 C1139 1.396 . S
C1140 C1141 1.399 . S
C1141 H1127 0.929 . S
C1141 C1140 1.399 . S
C1141 C1142 1.385 . S
C1142 H1128 0.931 . S
C1142 C1141 1.385 . S
C1142 C1143 1.389 . S
C1143 C1142 1.389 . S
C1143 C1144 1.387 . S
C1144 H1129 0.930 . S
C1144 C1139 1.390 . S
C1144 C1143 1.387 . S
H1145 C1157 0.930 . S
H1146 C1159 0.930 . S
H1147 C1160 0.930 . S
H1148 C1164 0.959 . S
H1149 C1164 0.959 . S
H1150 C1164 0.961 . S
H1151 C1165 0.960 . S
H1152 C1165 0.961 . S
H1153 C1165 0.959 . S
H1154 C1168 0.929 . S
H1155 C1169 0.931 . S
H1156 C1171 0.930 . S
C1157 H1145 0.930 . S
C1157 C1158 1.399 . S
C1157 C1162 1.399 . S
C1158 C1157 1.399 . S
C1158 C1159 1.376 . S
C1159 H1146 0.930 . S
C1159 C1158 1.376 . S
C1159 C1160 1.388 . S
C1160 H1147 0.930 . S
C1160 C1159 1.388 . S
C1160 C1161 1.390 . S
C1161 C1160 1.390 . S
C1161 C1162 1.394 . S
C1161 C1167 1.465 . S
C1162 C1157 1.399 . S
C1162 C1161 1.394 . S
C1162 C1163 1.516 . S
C1163 C1162 1.516 . S
C1163 C1164 1.502 . S
C1163 C1165 1.561 . S
C1163 C1166 1.526 . S
C1164 H1148 0.959 . S
C1164 H1149 0.959 . S
C1164 H1150 0.961 . S
C1164 C1163 1.502 . S
C1165 H1151 0.960 . S
C1165 H1152 0.961 . S
C1165 H1153 0.959 . S
C1165 C1163 1.561 . S
C1166 C1163 1.526 . S
C1166 C1167 1.396 . S
C1166 C1171 1.390 . S
C1167 C1161 1.465 . S
C1167 C1166 1.396 . S
C1167 C1168 1.399 . S
C1168 H1154 0.929 . S
C1168 C1167 1.399 . S
C1168 C1169 1.385 . S
C1169 H1155 0.931 . S
C1169 C1168 1.385 . S
C1169 C1170 1.389 . S
C1170 C1169 1.389 . S
C1170 C1171 1.387 . S
C1171 H1156 0.930 . S
C1171 C1166 1.390 . S
C1171 C1170 1.387 . S
H1172 C1184 0.930 . S
H1173 C1186 0.930 . S
H1174 C1187 0.930 . S
H1175 C1191 0.959 . S
H1176 C1191 0.959 . S
H1177 C1191 0.961 . S
H1178 C1192 0.960 . S
H1179 C1192 0.961 . S
H1180 C1192 0.959 . S
H1181 C1195 0.929 . S
H1182 C1196 0.931 . S
H1183 C1198 0.930 . S
C1184 H1172 0.930 . S
C1184 C1185 1.399 . S
C1184 C1189 1.399 . S
C1185 C1184 1.399 . S
C1185 C1186 1.376 . S
C1186 H1173 0.930 . S
C1186 C1185 1.376 . S
C1186 C1187 1.388 . S
C1187 H1174 0.930 . S
C1187 C1186 1.388 . S
C1187 C1188 1.390 . S
C1188 C1187 1.390 . S
C1188 C1189 1.394 . S
C1188 C1194 1.465 . S
C1189 C1184 1.399 . S
C1189 C1188 1.394 . S
C1189 C1190 1.516 . S
C1190 C1189 1.516 . S
C1190 C1191 1.502 . S
C1190 C1192 1.561 . S
C1190 C1193 1.526 . S
C1191 H1175 0.959 . S
C1191 H1176 0.959 . S
C1191 H1177 0.961 . S
C1191 C1190 1.502 . S
C1192 H1178 0.960 . S
C1192 H1179 0.961 . S
C1192 H1180 0.959 . S
C1192 C1190 1.561 . S
C1193 C1190 1.526 . S
C1193 C1194 1.396 . S
C1193 C1198 1.390 . S
C1194 C1188 1.465 . S
C1194 C1193 1.396 . S
C1194 C1195 1.399 . S
C1195 H1181 0.929 . S
C1195 C1194 1.399 . S
C1195 C1196 1.385 . S
C1196 H1182 0.931 . S
C1196 C1195 1.385 . S
C1196 C1197 1.389 . S
C1197 C1196 1.389 . S
C1197 C1198 1.387 . S
C1198 H1183 0.930 . S
C1198 C1193 1.390 . S
C1198 C1197 1.387 . S
H1199 C1211 0.930 . S
H1200 C1213 0.930 . S
H1201 C1214 0.930 . S
H1202 C1218 0.959 . S
H1203 C1218 0.959 . S
H1204 C1218 0.961 . S
H1205 C1219 0.960 . S
H1206 C1219 0.961 . S
H1207 C1219 0.959 . S
H1208 C1222 0.929 . S
H1209 C1223 0.931 . S
H1210 C1225 0.930 . S
C1211 H1199 0.930 . S
C1211 C1212 1.399 . S
C1211 C1216 1.399 . S
C1212 C1211 1.399 . S
C1212 C1213 1.376 . S
C1213 H1200 0.930 . S
C1213 C1212 1.376 . S
C1213 C1214 1.388 . S
C1214 H1201 0.930 . S
C1214 C1213 1.388 . S
C1214 C1215 1.390 . S
C1215 C1214 1.390 . S
C1215 C1216 1.394 . S
C1215 C1221 1.465 . S
C1216 C1211 1.399 . S
C1216 C1215 1.394 . S
C1216 C1217 1.516 . S
C1217 C1216 1.516 . S
C1217 C1218 1.502 . S
C1217 C1219 1.561 . S
C1217 C1220 1.526 . S
C1218 H1202 0.959 . S
C1218 H1203 0.959 . S
C1218 H1204 0.961 . S
C1218 C1217 1.502 . S
C1219 H1205 0.960 . S
C1219 H1206 0.961 . S
C1219 H1207 0.959 . S
C1219 C1217 1.561 . S
C1220 C1217 1.526 . S
C1220 C1221 1.396 . S
C1220 C1225 1.390 . S
C1221 C1215 1.465 . S
C1221 C1220 1.396 . S
C1221 C1222 1.399 . S
C1222 H1208 0.929 . S
C1222 C1221 1.399 . S
C1222 C1223 1.385 . S
C1223 H1209 0.931 . S
C1223 C1222 1.385 . S
C1223 C1224 1.389 . S
C1224 C1223 1.389 . S
C1224 C1225 1.387 . S
C1225 H1210 0.930 . S
C1225 C1220 1.390 . S
C1225 C1224 1.387 . S
H1226 C1238 0.930 . S
H1227 C1240 0.930 . S
H1228 C1241 0.930 . S
H1229 C1245 0.959 . S
H1230 C1245 0.959 . S
H1231 C1245 0.961 . S
H1232 C1246 0.960 . S
H1233 C1246 0.961 . S
H1234 C1246 0.959 . S
H1235 C1249 0.929 . S
H1236 C1250 0.931 . S
H1237 C1252 0.930 . S
C1238 H1226 0.930 . S
C1238 C1239 1.399 . S
C1238 C1243 1.399 . S
C1239 C1238 1.399 . S
C1239 C1240 1.376 . S
C1240 H1227 0.930 . S
C1240 C1239 1.376 . S
C1240 C1241 1.388 . S
C1241 H1228 0.930 . S
C1241 C1240 1.388 . S
C1241 C1242 1.390 . S
C1242 C1241 1.390 . S
C1242 C1243 1.394 . S
C1242 C1248 1.465 . S
C1243 C1238 1.399 . S
C1243 C1242 1.394 . S
C1243 C1244 1.516 . S
C1244 C1243 1.516 . S
C1244 C1245 1.502 . S
C1244 C1246 1.561 . S
C1244 C1247 1.526 . S
C1245 H1229 0.959 . S
C1245 H1230 0.959 . S
C1245 H1231 0.961 . S
C1245 C1244 1.502 . S
C1246 H1232 0.960 . S
C1246 H1233 0.961 . S
C1246 H1234 0.959 . S
C1246 C1244 1.561 . S
C1247 C1244 1.526 . S
C1247 C1248 1.396 . S
C1247 C1252 1.390 . S
C1248 C1242 1.465 . S
C1248 C1247 1.396 . S
C1248 C1249 1.399 . S
C1249 H1235 0.929 . S
C1249 C1248 1.399 . S
C1249 C1250 1.385 . S
C1250 H1236 0.931 . S
C1250 C1249 1.385 . S
C1250 C1251 1.389 . S
C1251 C1250 1.389 . S
C1251 C1252 1.387 . S
C1252 H1237 0.930 . S
C1252 C1247 1.390 . S
C1252 C1251 1.387 . S
H1253 C1265 0.930 . S
H1254 C1267 0.930 . S
H1255 C1268 0.930 . S
H1256 C1272 0.959 . S
H1257 C1272 0.959 . S
H1258 C1272 0.961 . S
H1259 C1273 0.960 . S
H1260 C1273 0.961 . S
H1261 C1273 0.959 . S
H1262 C1276 0.929 . S
H1263 C1277 0.931 . S
H1264 C1279 0.930 . S
C1265 H1253 0.930 . S
C1265 C1266 1.399 . S
C1265 C1270 1.399 . S
C1266 C1265 1.399 . S
C1266 C1267 1.376 . S
C1267 H1254 0.930 . S
C1267 C1266 1.376 . S
C1267 C1268 1.388 . S
C1268 H1255 0.930 . S
C1268 C1267 1.388 . S
C1268 C1269 1.390 . S
C1269 C1268 1.390 . S
C1269 C1270 1.394 . S
C1269 C1275 1.465 . S
C1270 C1265 1.399 . S
C1270 C1269 1.394 . S
C1270 C1271 1.516 . S
C1271 C1270 1.516 . S
C1271 C1272 1.502 . S
C1271 C1273 1.561 . S
C1271 C1274 1.526 . S
C1272 H1256 0.959 . S
C1272 H1257 0.959 . S
C1272 H1258 0.961 . S
C1272 C1271 1.502 . S
C1273 H1259 0.960 . S
C1273 H1260 0.961 . S
C1273 H1261 0.959 . S
C1273 C1271 1.561 . S
C1274 C1271 1.526 . S
C1274 C1275 1.396 . S
C1274 C1279 1.390 . S
C1275 C1269 1.465 . S
C1275 C1274 1.396 . S
C1275 C1276 1.399 . S
C1276 H1262 0.929 . S
C1276 C1275 1.399 . S
C1276 C1277 1.385 . S
C1277 H1263 0.931 . S
C1277 C1276 1.385 . S
C1277 C1278 1.389 . S
C1278 C1277 1.389 . S
C1278 C1279 1.387 . S
C1279 H1264 0.930 . S
C1279 C1274 1.390 . S
C1279 C1278 1.387 . S
H1280 C1292 0.930 . S
H1281 C1294 0.930 . S
H1282 C1295 0.930 . S
H1283 C1299 0.959 . S
H1284 C1299 0.959 . S
H1285 C1299 0.961 . S
H1286 C1300 0.960 . S
H1287 C1300 0.961 . S
H1288 C1300 0.959 . S
H1289 C1303 0.929 . S
H1290 C1304 0.931 . S
H1291 C1306 0.930 . S
C1292 H1280 0.930 . S
C1292 C1293 1.399 . S
C1292 C1297 1.399 . S
C1293 C1292 1.399 . S
C1293 C1294 1.376 . S
C1294 H1281 0.930 . S
C1294 C1293 1.376 . S
C1294 C1295 1.388 . S
C1295 H1282 0.930 . S
C1295 C1294 1.388 . S
C1295 C1296 1.390 . S
C1296 C1295 1.390 . S
C1296 C1297 1.394 . S
C1296 C1302 1.465 . S
C1297 C1292 1.399 . S
C1297 C1296 1.394 . S
C1297 C1298 1.516 . S
C1298 C1297 1.516 . S
C1298 C1299 1.502 . S
C1298 C1300 1.561 . S
C1298 C1301 1.526 . S
C1299 H1283 0.959 . S
C1299 H1284 0.959 . S
C1299 H1285 0.961 . S
C1299 C1298 1.502 . S
C1300 H1286 0.960 . S
C1300 H1287 0.961 . S
C1300 H1288 0.959 . S
C1300 C1298 1.561 . S
C1301 C1298 1.526 . S
C1301 C1302 1.396 . S
C1301 C1306 1.390 . S
C1302 C1296 1.465 . S
C1302 C1301 1.396 . S
C1302 C1303 1.399 . S
C1303 H1289 0.929 . S
C1303 C1302 1.399 . S
C1303 C1304 1.385 . S
C1304 H1290 0.931 . S
C1304 C1303 1.385 . S
C1304 C1305 1.389 . S
C1305 C1304 1.389 . S
C1305 C1306 1.387 . S
C1306 H1291 0.930 . S
C1306 C1301 1.390 . S
C1306 C1305 1.387 . S
H1307 C1319 0.930 . S
H1308 C1321 0.930 . S
H1309 C1322 0.930 . S
H1310 C1326 0.959 . S
H1311 C1326 0.959 . S
H1312 C1326 0.961 . S
H1313 C1327 0.960 . S
H1314 C1327 0.961 . S
H1315 C1327 0.959 . S
H1316 C1330 0.929 . S
H1317 C1331 0.931 . S
H1318 C1333 0.930 . S
C1319 H1307 0.930 . S
C1319 C1320 1.399 . S
C1319 C1324 1.399 . S
C1320 C1319 1.399 . S
C1320 C1321 1.376 . S
C1321 H1308 0.930 . S
C1321 C1320 1.376 . S
C1321 C1322 1.388 . S
C1322 H1309 0.930 . S
C1322 C1321 1.388 . S
C1322 C1323 1.390 . S
C1323 C1322 1.390 . S
C1323 C1324 1.394 . S
C1323 C1329 1.465 . S
C1324 C1319 1.399 . S
C1324 C1323 1.394 . S
C1324 C1325 1.516 . S
C1325 C1324 1.516 . S
C1325 C1326 1.502 . S
C1325 C1327 1.561 . S
C1325 C1328 1.526 . S
C1326 H1310 0.959 . S
C1326 H1311 0.959 . S
C1326 H1312 0.961 . S
C1326 C1325 1.502 . S
C1327 H1313 0.960 . S
C1327 H1314 0.961 . S
C1327 H1315 0.959 . S
C1327 C1325 1.561 . S
C1328 C1325 1.526 . S
C1328 C1329 1.396 . S
C1328 C1333 1.390 . S
C1329 C1323 1.465 . S
C1329 C1328 1.396 . S
C1329 C1330 1.399 . S
C1330 H1316 0.929 . S
C1330 C1329 1.399 . S
C1330 C1331 1.385 . S
C1331 H1317 0.931 . S
C1331 C1330 1.385 . S
C1331 C1332 1.389 . S
C1332 C1331 1.389 . S
C1332 C1333 1.387 . S
C1333 H1318 0.930 . S
C1333 C1328 1.390 . S
C1333 C1332 1.387 . S
H1334 C1346 0.930 . S
H1335 C1348 0.930 . S
H1336 C1349 0.930 . S
H1337 C1353 0.959 . S
H1338 C1353 0.959 . S
H1339 C1353 0.961 . S
H1340 C1354 0.960 . S
H1341 C1354 0.961 . S
H1342 C1354 0.959 . S
H1343 C1357 0.929 . S
H1344 C1358 0.931 . S
H1345 C1360 0.930 . S
C1346 H1334 0.930 . S
C1346 C1347 1.399 . S
C1346 C1351 1.399 . S
C1347 C1346 1.399 . S
C1347 C1348 1.376 . S
C1348 H1335 0.930 . S
C1348 C1347 1.376 . S
C1348 C1349 1.388 . S
C1349 H1336 0.930 . S
C1349 C1348 1.388 . S
C1349 C1350 1.390 . S
C1350 C1349 1.390 . S
C1350 C1351 1.394 . S
C1350 C1356 1.465 . S
C1351 C1346 1.399 . S
C1351 C1350 1.394 . S
C1351 C1352 1.516 . S
C1352 C1351 1.516 . S
C1352 C1353 1.502 . S
C1352 C1354 1.561 . S
C1352 C1355 1.526 . S
C1353 H1337 0.959 . S
C1353 H1338 0.959 . S
C1353 H1339 0.961 . S
C1353 C1352 1.502 . S
C1354 H1340 0.960 . S
C1354 H1341 0.961 . S
C1354 H1342 0.959 . S
C1354 C1352 1.561 . S
C1355 C1352 1.526 . S
C1355 C1356 1.396 . S
C1355 C1360 1.390 . S
C1356 C1350 1.465 . S
C1356 C1355 1.396 . S
C1356 C1357 1.399 . S
C1357 H1343 0.929 . S
C1357 C1356 1.399 . S
C1357 C1358 1.385 . S
C1358 H1344 0.931 . S
C1358 C1357 1.385 . S
C1358 C1359 1.389 . S
C1359 C1358 1.389 . S
C1359 C1360 1.387 . S
C1360 H1345 0.930 . S
C1360 C1355 1.390 . S
C1360 C1359 1.387 . S
H1361 C1373 0.930 . S
H1362 C1375 0.930 . S
H1363 C1376 0.930 . S
H1364 C1380 0.959 . S
H1365 C1380 0.959 . S
H1366 C1380 0.961 . S
H1367 C1381 0.960 . S
H1368 C1381 0.961 . S
H1369 C1381 0.959 . S
H1370 C1384 0.929 . S
H1371 C1385 0.931 . S
H1372 C1387 0.930 . S
C1373 H1361 0.930 . S
C1373 C1374 1.399 . S
C1373 C1378 1.399 . S
C1374 C1373 1.399 . S
C1374 C1375 1.376 . S
C1375 H1362 0.930 . S
C1375 C1374 1.376 . S
C1375 C1376 1.388 . S
C1376 H1363 0.930 . S
C1376 C1375 1.388 . S
C1376 C1377 1.390 . S
C1377 C1376 1.390 . S
C1377 C1378 1.394 . S
C1377 C1383 1.465 . S
C1378 C1373 1.399 . S
C1378 C1377 1.394 . S
C1378 C1379 1.516 . S
C1379 C1378 1.516 . S
C1379 C1380 1.502 . S
C1379 C1381 1.561 . S
C1379 C1382 1.526 . S
C1380 H1364 0.959 . S
C1380 H1365 0.959 . S
C1380 H1366 0.961 . S
C1380 C1379 1.502 . S
C1381 H1367 0.960 . S
C1381 H1368 0.961 . S
C1381 H1369 0.959 . S
C1381 C1379 1.561 . S
C1382 C1379 1.526 . S
C1382 C1383 1.396 . S
C1382 C1387 1.390 . S
C1383 C1377 1.465 . S
C1383 C1382 1.396 . S
C1383 C1384 1.399 . S
C1384 H1370 0.929 . S
C1384 C1383 1.399 . S
C1384 C1385 1.385 . S
C1385 H1371 0.931 . S
C1385 C1384 1.385 . S
C1385 C1386 1.389 . S
C1386 C1385 1.389 . S
C1386 C1387 1.387 . S
C1387 H1372 0.930 . S
C1387 C1382 1.390 . S
C1387 C1386 1.387 . S
H1388 C1400 0.930 . S
H1389 C1402 0.930 . S
H1390 C1403 0.930 . S
H1391 C1407 0.959 . S
H1392 C1407 0.959 . S
H1393 C1407 0.961 . S
H1394 C1408 0.960 . S
H1395 C1408 0.961 . S
H1396 C1408 0.959 . S
H1397 C1411 0.929 . S
H1398 C1412 0.931 . S
H1399 C1414 0.930 . S
C1400 H1388 0.930 . S
C1400 C1401 1.399 . S
C1400 C1405 1.399 . S
C1401 C1400 1.399 . S
C1401 C1402 1.376 . S
C1402 H1389 0.930 . S
C1402 C1401 1.376 . S
C1402 C1403 1.388 . S
C1403 H1390 0.930 . S
C1403 C1402 1.388 . S
C1403 C1404 1.390 . S
C1404 C1403 1.390 . S
C1404 C1405 1.394 . S
C1404 C1410 1.465 . S
C1405 C1400 1.399 . S
C1405 C1404 1.394 . S
C1405 C1406 1.516 . S
C1406 C1405 1.516 . S
C1406 C1407 1.502 . S
C1406 C1408 1.561 . S
C1406 C1409 1.526 . S
C1407 H1391 0.959 . S
C1407 H1392 0.959 . S
C1407 H1393 0.961 . S
C1407 C1406 1.502 . S
C1408 H1394 0.960 . S
C1408 H1395 0.961 . S
C1408 H1396 0.959 . S
C1408 C1406 1.561 . S
C1409 C1406 1.526 . S
C1409 C1410 1.396 . S
C1409 C1414 1.390 . S
C1410 C1404 1.465 . S
C1410 C1409 1.396 . S
C1410 C1411 1.399 . S
C1411 H1397 0.929 . S
C1411 C1410 1.399 . S
C1411 C1412 1.385 . S
C1412 H1398 0.931 . S
C1412 C1411 1.385 . S
C1412 C1413 1.389 . S
C1413 C1412 1.389 . S
C1413 C1414 1.387 . S
C1414 H1399 0.930 . S
C1414 C1409 1.390 . S
C1414 C1413 1.387 . S
H1415 C1427 0.930 . S
H1416 C1429 0.930 . S
H1417 C1430 0.930 . S
H1418 C1434 0.959 . S
H1419 C1434 0.959 . S
H1420 C1434 0.961 . S
H1421 C1435 0.960 . S
H1422 C1435 0.961 . S
H1423 C1435 0.959 . S
H1424 C1438 0.929 . S
H1425 C1439 0.931 . S
H1426 C1441 0.930 . S
C1427 H1415 0.930 . S
C1427 C1428 1.399 . S
C1427 C1432 1.399 . S
C1428 C1427 1.399 . S
C1428 C1429 1.376 . S
C1429 H1416 0.930 . S
C1429 C1428 1.376 . S
C1429 C1430 1.388 . S
C1430 H1417 0.930 . S
C1430 C1429 1.388 . S
C1430 C1431 1.390 . S
C1431 C1430 1.390 . S
C1431 C1432 1.394 . S
C1431 C1437 1.465 . S
C1432 C1427 1.399 . S
C1432 C1431 1.394 . S
C1432 C1433 1.516 . S
C1433 C1432 1.516 . S
C1433 C1434 1.502 . S
C1433 C1435 1.561 . S
C1433 C1436 1.526 . S
C1434 H1418 0.959 . S
C1434 H1419 0.959 . S
C1434 H1420 0.961 . S
C1434 C1433 1.502 . S
C1435 H1421 0.960 . S
C1435 H1422 0.961 . S
C1435 H1423 0.959 . S
C1435 C1433 1.561 . S
C1436 C1433 1.526 . S
C1436 C1437 1.396 . S
C1436 C1441 1.390 . S
C1437 C1431 1.465 . S
C1437 C1436 1.396 . S
C1437 C1438 1.399 . S
C1438 H1424 0.929 . S
C1438 C1437 1.399 . S
C1438 C1439 1.385 . S
C1439 H1425 0.931 . S
C1439 C1438 1.385 . S
C1439 C1440 1.389 . S
C1440 C1439 1.389 . S
C1440 C1441 1.387 . S
C1441 H1426 0.930 . S
C1441 C1436 1.390 . S
C1441 C1440 1.387 . S
H1442 C1454 0.930 . S
H1443 C1456 0.930 . S
H1444 C1457 0.930 . S
H1445 C1461 0.959 . S
H1446 C1461 0.959 . S
H1447 C1461 0.961 . S
H1448 C1462 0.960 . S
H1449 C1462 0.961 . S
H1450 C1462 0.959 . S
H1451 C1465 0.929 . S
H1452 C1466 0.931 . S
H1453 C1468 0.930 . S
C1454 H1442 0.930 . S
C1454 C1455 1.399 . S
C1454 C1459 1.399 . S
C1455 C1454 1.399 . S
C1455 C1456 1.376 . S
C1456 H1443 0.930 . S
C1456 C1455 1.376 . S
C1456 C1457 1.388 . S
C1457 H1444 0.930 . S
C1457 C1456 1.388 . S
C1457 C1458 1.390 . S
C1458 C1457 1.390 . S
C1458 C1459 1.394 . S
C1458 C1464 1.465 . S
C1459 C1454 1.399 . S
C1459 C1458 1.394 . S
C1459 C1460 1.516 . S
C1460 C1459 1.516 . S
C1460 C1461 1.502 . S
C1460 C1462 1.561 . S
C1460 C1463 1.526 . S
C1461 H1445 0.959 . S
C1461 H1446 0.959 . S
C1461 H1447 0.961 . S
C1461 C1460 1.502 . S
C1462 H1448 0.960 . S
C1462 H1449 0.961 . S
C1462 H1450 0.959 . S
C1462 C1460 1.561 . S
C1463 C1460 1.526 . S
C1463 C1464 1.396 . S
C1463 C1468 1.390 . S
C1464 C1458 1.465 . S
C1464 C1463 1.396 . S
C1464 C1465 1.399 . S
C1465 H1451 0.929 . S
C1465 C1464 1.399 . S
C1465 C1466 1.385 . S
C1466 H1452 0.931 . S
C1466 C1465 1.385 . S
C1466 C1467 1.389 . S
C1467 C1466 1.389 . S
C1467 C1468 1.387 . S
C1468 H1453 0.930 . S
C1468 C1463 1.390 . S
C1468 C1467 1.387 . S
H1469 C1481 0.930 . S
H1470 C1483 0.930 . S
H1471 C1484 0.930 . S
H1472 C1488 0.959 . S
H1473 C1488 0.959 . S
H1474 C1488 0.961 . S
H1475 C1489 0.960 . S
H1476 C1489 0.961 . S
H1477 C1489 0.959 . S
H1478 C1492 0.929 . S
H1479 C1493 0.931 . S
H1480 C1495 0.930 . S
C1481 H1469 0.930 . S
C1481 C1482 1.399 . S
C1481 C1486 1.399 . S
C1482 C1481 1.399 . S
C1482 C1483 1.376 . S
C1483 H1470 0.930 . S
C1483 C1482 1.376 . S
C1483 C1484 1.388 . S
C1484 H1471 0.930 . S
C1484 C1483 1.388 . S
C1484 C1485 1.390 . S
C1485 C1484 1.390 . S
C1485 C1486 1.394 . S
C1485 C1491 1.465 . S
C1486 C1481 1.399 . S
C1486 C1485 1.394 . S
C1486 C1487 1.516 . S
C1487 C1486 1.516 . S
C1487 C1488 1.502 . S
C1487 C1489 1.561 . S
C1487 C1490 1.526 . S
C1488 H1472 0.959 . S
C1488 H1473 0.959 . S
C1488 H1474 0.961 . S
C1488 C1487 1.502 . S
C1489 H1475 0.960 . S
C1489 H1476 0.961 . S
C1489 H1477 0.959 . S
C1489 C1487 1.561 . S
C1490 C1487 1.526 . S
C1490 C1491 1.396 . S
C1490 C1495 1.390 . S
C1491 C1485 1.465 . S
C1491 C1490 1.396 . S
C1491 C1492 1.399 . S
C1492 H1478 0.929 . S
C1492 C1491 1.399 . S
C1492 C1493 1.385 . S
C1493 H1479 0.931 . S
C1493 C1492 1.385 . S
C1493 C1494 1.389 . S
C1494 C1493 1.389 . S
C1494 C1495 1.387 . S
C1495 H1480 0.930 . S
C1495 C1490 1.390 . S
C1495 C1494 1.387 . S
H1496 C1508 0.930 . S
H1497 C1510 0.930 . S
H1498 C1511 0.930 . S
H1499 C1515 0.962 . S
H1500 C1515 0.979 . S
H1501 C1515 0.939 1_554 S
H1502 C1516 0.957 1_554 S
H1503 C1516 0.963 . S
H1504 C1516 0.959 . S
H1505 C1519 0.929 . S
H1506 C1520 0.931 . S
H1507 C1522 0.930 . S
C1508 H1496 0.930 . S
C1508 C1509 1.399 . S
C1508 C1513 1.399 . S
C1509 C1508 1.399 . S
C1509 C1510 1.376 . S
C1510 H1497 0.930 . S
C1510 C1509 1.376 . S
C1510 C1511 1.388 . S
C1511 H1498 0.930 . S
C1511 C1510 1.388 . S
C1511 C1512 1.390 . S
C1512 C1511 1.390 . S
C1512 C1513 1.394 . S
C1512 C1518 1.465 1_554 S
C1513 C1508 1.399 . S
C1513 C1512 1.394 . S
C1513 C1514 1.517 1_554 S
C1514 C1513 1.517 1_556 S
C1514 C1515 1.502 . S
C1514 C1516 1.561 . S
C1514 C1517 1.525 . S
C1515 H1499 0.962 . S
C1515 H1500 0.979 . S
C1515 H1501 0.939 1_556 S
C1515 C1514 1.502 . S
C1516 H1502 0.957 1_556 S
C1516 H1503 0.963 . S
C1516 H1504 0.959 . S
C1516 C1514 1.561 . S
C1517 C1514 1.525 . S
C1517 C1518 1.396 . S
C1517 C1522 1.390 . S
C1518 C1512 1.465 1_556 S
C1518 C1517 1.396 . S
C1518 C1519 1.399 . S
C1519 H1505 0.929 . S
C1519 C1518 1.399 . S
C1519 C1520 1.385 . S
C1520 H1506 0.931 . S
C1520 C1519 1.385 . S
C1520 C1521 1.389 . S
C1521 C1520 1.389 . S
C1521 C1522 1.387 . S
C1522 H1507 0.930 . S
C1522 C1517 1.390 . S
C1522 C1521 1.387 . S
H1523 C1535 0.930 . S
H1524 C1537 0.930 . S
H1525 C1538 0.930 . S
H1526 C1542 0.962 . S
H1527 C1542 0.979 . S
H1528 C1542 0.939 1_556 S
H1529 C1543 0.957 1_556 S
H1530 C1543 0.963 . S
H1531 C1543 0.959 . S
H1532 C1546 0.929 . S
H1533 C1547 0.931 . S
H1534 C1549 0.930 . S
C1535 H1523 0.930 . S
C1535 C1536 1.399 . S
C1535 C1540 1.399 . S
C1536 C1535 1.399 . S
C1536 C1537 1.376 . S
C1537 H1524 0.930 . S
C1537 C1536 1.376 . S
C1537 C1538 1.388 . S
C1538 H1525 0.930 . S
C1538 C1537 1.388 . S
C1538 C1539 1.390 . S
C1539 C1538 1.390 . S
C1539 C1540 1.394 . S
C1539 C1545 1.465 1_556 S
C1540 C1535 1.399 . S
C1540 C1539 1.394 . S
C1540 C1541 1.517 1_556 S
C1541 C1540 1.517 1_554 S
C1541 C1542 1.502 . S
C1541 C1543 1.561 . S
C1541 C1544 1.525 . S
C1542 H1526 0.962 . S
C1542 H1527 0.979 . S
C1542 H1528 0.939 1_554 S
C1542 C1541 1.502 . S
C1543 H1529 0.957 1_554 S
C1543 H1530 0.963 . S
C1543 H1531 0.959 . S
C1543 C1541 1.561 . S
C1544 C1541 1.525 . S
C1544 C1545 1.396 . S
C1544 C1549 1.390 . S
C1545 C1539 1.465 1_554 S
C1545 C1544 1.396 . S
C1545 C1546 1.399 . S
C1546 H1532 0.929 . S
C1546 C1545 1.399 . S
C1546 C1547 1.385 . S
C1547 H1533 0.931 . S
C1547 C1546 1.385 . S
C1547 C1548 1.389 . S
C1548 C1547 1.389 . S
C1548 C1549 1.387 . S
C1549 H1534 0.930 . S
C1549 C1544 1.390 . S
C1549 C1548 1.387 . S
H1550 C1562 0.930 . S
H1551 C1564 0.930 . S
H1552 C1565 0.930 . S
H1553 C1569 0.962 . S
H1554 C1569 0.979 . S
H1555 C1569 0.939 1_554 S
H1556 C1570 0.957 1_554 S
H1557 C1570 0.963 . S
H1558 C1570 0.959 . S
H1559 C1573 0.929 . S
H1560 C1574 0.931 . S
H1561 C1576 0.930 . S
C1562 H1550 0.930 . S
C1562 C1563 1.399 . S
C1562 C1567 1.399 . S
C1563 C1562 1.399 . S
C1563 C1564 1.376 . S
C1564 H1551 0.930 . S
C1564 C1563 1.376 . S
C1564 C1565 1.388 . S
C1565 H1552 0.930 . S
C1565 C1564 1.388 . S
C1565 C1566 1.390 . S
C1566 C1565 1.390 . S
C1566 C1567 1.394 . S
C1566 C1572 1.465 1_554 S
C1567 C1562 1.399 . S
C1567 C1566 1.394 . S
C1567 C1568 1.517 1_554 S
C1568 C1567 1.517 1_556 S
C1568 C1569 1.502 . S
C1568 C1570 1.561 . S
C1568 C1571 1.525 . S
C1569 H1553 0.962 . S
C1569 H1554 0.979 . S
C1569 H1555 0.939 1_556 S
C1569 C1568 1.502 . S
C1570 H1556 0.957 1_556 S
C1570 H1557 0.963 . S
C1570 H1558 0.959 . S
C1570 C1568 1.561 . S
C1571 C1568 1.525 . S
C1571 C1572 1.396 . S
C1571 C1576 1.390 . S
C1572 C1566 1.465 1_556 S
C1572 C1571 1.396 . S
C1572 C1573 1.399 . S
C1573 H1559 0.929 . S
C1573 C1572 1.399 . S
C1573 C1574 1.385 . S
C1574 H1560 0.931 . S
C1574 C1573 1.385 . S
C1574 C1575 1.389 . S
C1575 C1574 1.389 . S
C1575 C1576 1.387 . S
C1576 H1561 0.930 . S
C1576 C1571 1.390 . S
C1576 C1575 1.387 . S
H1577 C1589 0.930 . S
H1578 C1591 0.930 . S
H1579 C1592 0.930 . S
H1580 C1596 0.962 . S
H1581 C1596 0.979 . S
H1582 C1596 0.939 1_554 S
H1583 C1597 0.957 1_554 S
H1584 C1597 0.963 . S
H1585 C1597 0.959 . S
H1586 C1600 0.929 . S
H1587 C1601 0.931 . S
H1588 C1603 0.930 . S
C1589 H1577 0.930 . S
C1589 C1590 1.399 . S
C1589 C1594 1.399 . S
C1590 C1589 1.399 . S
C1590 C1591 1.376 . S
C1591 H1578 0.930 . S
C1591 C1590 1.376 . S
C1591 C1592 1.388 . S
C1592 H1579 0.930 . S
C1592 C1591 1.388 . S
C1592 C1593 1.390 . S
C1593 C1592 1.390 . S
C1593 C1594 1.394 . S
C1593 C1599 1.465 1_554 S
C1594 C1589 1.399 . S
C1594 C1593 1.394 . S
C1594 C1595 1.517 1_554 S
C1595 C1594 1.517 1_556 S
C1595 C1596 1.502 . S
C1595 C1597 1.561 . S
C1595 C1598 1.525 . S
C1596 H1580 0.962 . S
C1596 H1581 0.979 . S
C1596 H1582 0.939 1_556 S
C1596 C1595 1.502 . S
C1597 H1583 0.957 1_556 S
C1597 H1584 0.963 . S
C1597 H1585 0.959 . S
C1597 C1595 1.561 . S
C1598 C1595 1.525 . S
C1598 C1599 1.396 . S
C1598 C1603 1.390 . S
C1599 C1593 1.465 1_556 S
C1599 C1598 1.396 . S
C1599 C1600 1.399 . S
C1600 H1586 0.929 . S
C1600 C1599 1.399 . S
C1600 C1601 1.385 . S
C1601 H1587 0.931 . S
C1601 C1600 1.385 . S
C1601 C1602 1.389 . S
C1602 C1601 1.389 . S
C1602 C1603 1.387 . S
C1603 H1588 0.930 . S
C1603 C1598 1.390 . S
C1603 C1602 1.387 . S
H1604 C1616 0.930 . S
H1605 C1618 0.930 . S
H1606 C1619 0.930 . S
H1607 C1623 0.962 . S
H1608 C1623 0.979 . S
H1609 C1623 0.939 1_554 S
H1610 C1624 0.957 1_554 S
H1611 C1624 0.963 . S
H1612 C1624 0.959 . S
H1613 C1627 0.929 . S
H1614 C1628 0.931 . S
H1615 C1630 0.930 . S
C1616 H1604 0.930 . S
C1616 C1617 1.399 . S
C1616 C1621 1.399 . S
C1617 C1616 1.399 . S
C1617 C1618 1.376 . S
C1618 H1605 0.930 . S
C1618 C1617 1.376 . S
C1618 C1619 1.388 . S
C1619 H1606 0.930 . S
C1619 C1618 1.388 . S
C1619 C1620 1.390 . S
C1620 C1619 1.390 . S
C1620 C1621 1.394 . S
C1620 C1626 1.465 1_554 S
C1621 C1616 1.399 . S
C1621 C1620 1.394 . S
C1621 C1622 1.517 1_554 S
C1622 C1621 1.517 1_556 S
C1622 C1623 1.502 . S
C1622 C1624 1.561 . S
C1622 C1625 1.525 . S
C1623 H1607 0.962 . S
C1623 H1608 0.979 . S
C1623 H1609 0.939 1_556 S
C1623 C1622 1.502 . S
C1624 H1610 0.957 1_556 S
C1624 H1611 0.963 . S
C1624 H1612 0.959 . S
C1624 C1622 1.561 . S
C1625 C1622 1.525 . S
C1625 C1626 1.396 . S
C1625 C1630 1.390 . S
C1626 C1620 1.465 1_556 S
C1626 C1625 1.396 . S
C1626 C1627 1.399 . S
C1627 H1613 0.929 . S
C1627 C1626 1.399 . S
C1627 C1628 1.385 . S
C1628 H1614 0.931 . S
C1628 C1627 1.385 . S
C1628 C1629 1.389 . S
C1629 C1628 1.389 . S
C1629 C1630 1.387 . S
C1630 H1615 0.930 . S
C1630 C1625 1.390 . S
C1630 C1629 1.387 . S
H1631 C1643 0.930 . S
H1632 C1645 0.930 . S
H1633 C1646 0.930 . S
H1634 C1650 0.962 . S
H1635 C1650 0.979 . S
H1636 C1650 0.939 1_554 S
H1637 C1651 0.957 1_554 S
H1638 C1651 0.963 . S
H1639 C1651 0.959 . S
H1640 C1654 0.929 . S
H1641 C1655 0.931 . S
H1642 C1657 0.930 . S
C1643 H1631 0.930 . S
C1643 C1644 1.399 . S
C1643 C1648 1.399 . S
C1644 C1643 1.399 . S
C1644 C1645 1.376 . S
C1645 H1632 0.930 . S
C1645 C1644 1.376 . S
C1645 C1646 1.388 . S
C1646 H1633 0.930 . S
C1646 C1645 1.388 . S
C1646 C1647 1.390 . S
C1647 C1646 1.390 . S
C1647 C1648 1.394 . S
C1647 C1653 1.465 1_554 S
C1648 C1643 1.399 . S
C1648 C1647 1.394 . S
C1648 C1649 1.517 1_554 S
C1649 C1648 1.517 1_556 S
C1649 C1650 1.502 . S
C1649 C1651 1.561 . S
C1649 C1652 1.525 . S
C1650 H1634 0.962 . S
C1650 H1635 0.979 . S
C1650 H1636 0.939 1_556 S
C1650 C1649 1.502 . S
C1651 H1637 0.957 1_556 S
C1651 H1638 0.963 . S
C1651 H1639 0.959 . S
C1651 C1649 1.561 . S
C1652 C1649 1.525 . S
C1652 C1653 1.396 . S
C1652 C1657 1.390 . S
C1653 C1647 1.465 1_556 S
C1653 C1652 1.396 . S
C1653 C1654 1.399 . S
C1654 H1640 0.929 . S
C1654 C1653 1.399 . S
C1654 C1655 1.385 . S
C1655 H1641 0.931 . S
C1655 C1654 1.385 . S
C1655 C1656 1.389 . S
C1656 C1655 1.389 . S
C1656 C1657 1.387 . S
C1657 H1642 0.930 . S
C1657 C1652 1.390 . S
C1657 C1656 1.387 . S
H1658 C1670 0.930 . S
H1659 C1672 0.930 . S
H1660 C1673 0.930 . S
H1661 C1677 0.962 . S
H1662 C1677 0.979 . S
H1663 C1677 0.939 1_556 S
H1664 C1678 0.957 1_556 S
H1665 C1678 0.963 . S
H1666 C1678 0.959 . S
H1667 C1681 0.929 . S
H1668 C1682 0.931 . S
H1669 C1684 0.930 . S
C1670 H1658 0.930 . S
C1670 C1671 1.399 . S
C1670 C1675 1.399 . S
C1671 C1670 1.399 . S
C1671 C1672 1.376 . S
C1672 H1659 0.930 . S
C1672 C1671 1.376 . S
C1672 C1673 1.388 . S
C1673 H1660 0.930 . S
C1673 C1672 1.388 . S
C1673 C1674 1.390 . S
C1674 C1673 1.390 . S
C1674 C1675 1.394 . S
C1674 C1680 1.465 1_556 S
C1675 C1670 1.399 . S
C1675 C1674 1.394 . S
C1675 C1676 1.517 1_556 S
C1676 C1675 1.517 1_554 S
C1676 C1677 1.502 . S
C1676 C1678 1.561 . S
C1676 C1679 1.525 . S
C1677 H1661 0.962 . S
C1677 H1662 0.979 . S
C1677 H1663 0.939 1_554 S
C1677 C1676 1.502 . S
C1678 H1664 0.957 1_554 S
C1678 H1665 0.963 . S
C1678 H1666 0.959 . S
C1678 C1676 1.561 . S
C1679 C1676 1.525 . S
C1679 C1680 1.396 . S
C1679 C1684 1.390 . S
C1680 C1674 1.465 1_554 S
C1680 C1679 1.396 . S
C1680 C1681 1.399 . S
C1681 H1667 0.929 . S
C1681 C1680 1.399 . S
C1681 C1682 1.385 . S
C1682 H1668 0.931 . S
C1682 C1681 1.385 . S
C1682 C1683 1.389 . S
C1683 C1682 1.389 . S
C1683 C1684 1.387 . S
C1684 H1669 0.930 . S
C1684 C1679 1.390 . S
C1684 C1683 1.387 . S
H1685 C1697 0.930 . S
H1686 C1699 0.930 . S
H1687 C1700 0.930 . S
H1688 C1704 0.962 . S
H1689 C1704 0.979 . S
H1690 C1704 0.939 1_556 S
H1691 C1705 0.957 1_556 S
H1692 C1705 0.963 . S
H1693 C1705 0.959 . S
H1694 C1708 0.929 . S
H1695 C1709 0.931 . S
H1696 C1711 0.930 . S
C1697 H1685 0.930 . S
C1697 C1698 1.399 . S
C1697 C1702 1.399 . S
C1698 C1697 1.399 . S
C1698 C1699 1.376 . S
C1699 H1686 0.930 . S
C1699 C1698 1.376 . S
C1699 C1700 1.388 . S
C1700 H1687 0.930 . S
C1700 C1699 1.388 . S
C1700 C1701 1.390 . S
C1701 C1700 1.390 . S
C1701 C1702 1.394 . S
C1701 C1707 1.465 1_556 S
C1702 C1697 1.399 . S
C1702 C1701 1.394 . S
C1702 C1703 1.517 1_556 S
C1703 C1702 1.517 1_554 S
C1703 C1704 1.502 . S
C1703 C1705 1.561 . S
C1703 C1706 1.525 . S
C1704 H1688 0.962 . S
C1704 H1689 0.979 . S
C1704 H1690 0.939 1_554 S
C1704 C1703 1.502 . S
C1705 H1691 0.957 1_554 S
C1705 H1692 0.963 . S
C1705 H1693 0.959 . S
C1705 C1703 1.561 . S
C1706 C1703 1.525 . S
C1706 C1707 1.396 . S
C1706 C1711 1.390 . S
C1707 C1701 1.465 1_554 S
C1707 C1706 1.396 . S
C1707 C1708 1.399 . S
C1708 H1694 0.929 . S
C1708 C1707 1.399 . S
C1708 C1709 1.385 . S
C1709 H1695 0.931 . S
C1709 C1708 1.385 . S
C1709 C1710 1.389 . S
C1710 C1709 1.389 . S
C1710 C1711 1.387 . S
C1711 H1696 0.930 . S
C1711 C1706 1.390 . S
C1711 C1710 1.387 . S
H1712 C1724 0.930 . S
H1713 C1726 0.930 . S
H1714 C1727 0.930 . S
H1715 C1731 0.959 . S
H1716 C1731 0.959 . S
H1717 C1731 0.961 . S
H1718 C1732 0.960 . S
H1719 C1732 0.961 . S
H1720 C1732 0.959 . S
H1721 C1735 0.929 . S
H1722 C1736 0.931 . S
H1723 C1738 0.930 . S
C1724 H1712 0.930 . S
C1724 C1725 1.399 . S
C1724 C1729 1.399 . S
C1725 C1724 1.399 . S
C1725 C1726 1.376 . S
C1726 H1713 0.930 . S
C1726 C1725 1.376 . S
C1726 C1727 1.388 . S
C1727 H1714 0.930 . S
C1727 C1726 1.388 . S
C1727 C1728 1.390 . S
C1728 C1727 1.390 . S
C1728 C1729 1.394 . S
C1728 C1734 1.465 . S
C1729 C1724 1.399 . S
C1729 C1728 1.394 . S
C1729 C1730 1.516 . S
C1730 C1729 1.516 . S
C1730 C1731 1.502 . S
C1730 C1732 1.561 . S
C1730 C1733 1.526 . S
C1731 H1715 0.959 . S
C1731 H1716 0.959 . S
C1731 H1717 0.961 . S
C1731 C1730 1.502 . S
C1732 H1718 0.960 . S
C1732 H1719 0.961 . S
C1732 H1720 0.959 . S
C1732 C1730 1.561 . S
C1733 C1730 1.526 . S
C1733 C1734 1.396 . S
C1733 C1738 1.390 . S
C1734 C1728 1.465 . S
C1734 C1733 1.396 . S
C1734 C1735 1.399 . S
C1735 H1721 0.929 . S
C1735 C1734 1.399 . S
C1735 C1736 1.385 . S
C1736 H1722 0.931 . S
C1736 C1735 1.385 . S
C1736 C1737 1.389 . S
C1737 C1736 1.389 . S
C1737 C1738 1.387 . S
C1738 H1723 0.930 . S
C1738 C1733 1.390 . S
C1738 C1737 1.387 . S
H1739 C1751 0.930 . S
H1740 C1753 0.930 . S
H1741 C1754 0.930 . S
H1742 C1758 0.959 . S
H1743 C1758 0.959 . S
H1744 C1758 0.961 . S
H1745 C1759 0.960 . S
H1746 C1759 0.961 . S
H1747 C1759 0.959 . S
H1748 C1762 0.929 . S
H1749 C1763 0.931 . S
H1750 C1765 0.930 . S
C1751 H1739 0.930 . S
C1751 C1752 1.399 . S
C1751 C1756 1.399 . S
C1752 C1751 1.399 . S
C1752 C1753 1.376 . S
C1753 H1740 0.930 . S
C1753 C1752 1.376 . S
C1753 C1754 1.388 . S
C1754 H1741 0.930 . S
C1754 C1753 1.388 . S
C1754 C1755 1.390 . S
C1755 C1754 1.390 . S
C1755 C1756 1.394 . S
C1755 C1761 1.465 . S
C1756 C1751 1.399 . S
C1756 C1755 1.394 . S
C1756 C1757 1.516 . S
C1757 C1756 1.516 . S
C1757 C1758 1.502 . S
C1757 C1759 1.561 . S
C1757 C1760 1.526 . S
C1758 H1742 0.959 . S
C1758 H1743 0.959 . S
C1758 H1744 0.961 . S
C1758 C1757 1.502 . S
C1759 H1745 0.960 . S
C1759 H1746 0.961 . S
C1759 H1747 0.959 . S
C1759 C1757 1.561 . S
C1760 C1757 1.526 . S
C1760 C1761 1.396 . S
C1760 C1765 1.390 . S
C1761 C1755 1.465 . S
C1761 C1760 1.396 . S
C1761 C1762 1.399 . S
C1762 H1748 0.929 . S
C1762 C1761 1.399 . S
C1762 C1763 1.385 . S
C1763 H1749 0.931 . S
C1763 C1762 1.385 . S
C1763 C1764 1.389 . S
C1764 C1763 1.389 . S
C1764 C1765 1.387 . S
C1765 H1750 0.930 . S
C1765 C1760 1.390 . S
C1765 C1764 1.387 . S
H1766 C1778 0.930 . S
H1767 C1780 0.930 . S
H1768 C1781 0.930 . S
H1769 C1785 0.959 . S
H1770 C1785 0.959 . S
H1771 C1785 0.961 . S
H1772 C1786 0.960 . S
H1773 C1786 0.961 . S
H1774 C1786 0.959 . S
H1775 C1789 0.929 . S
H1776 C1790 0.931 . S
H1777 C1792 0.930 . S
C1778 H1766 0.930 . S
C1778 C1779 1.399 . S
C1778 C1783 1.399 . S
C1779 C1778 1.399 . S
C1779 C1780 1.376 . S
C1780 H1767 0.930 . S
C1780 C1779 1.376 . S
C1780 C1781 1.388 . S
C1781 H1768 0.930 . S
C1781 C1780 1.388 . S
C1781 C1782 1.390 . S
C1782 C1781 1.390 . S
C1782 C1783 1.394 . S
C1782 C1788 1.465 . S
C1783 C1778 1.399 . S
C1783 C1782 1.394 . S
C1783 C1784 1.516 . S
C1784 C1783 1.516 . S
C1784 C1785 1.502 . S
C1784 C1786 1.561 . S
C1784 C1787 1.526 . S
C1785 H1769 0.959 . S
C1785 H1770 0.959 . S
C1785 H1771 0.961 . S
C1785 C1784 1.502 . S
C1786 H1772 0.960 . S
C1786 H1773 0.961 . S
C1786 H1774 0.959 . S
C1786 C1784 1.561 . S
C1787 C1784 1.526 . S
C1787 C1788 1.396 . S
C1787 C1792 1.390 . S
C1788 C1782 1.465 . S
C1788 C1787 1.396 . S
C1788 C1789 1.399 . S
C1789 H1775 0.929 . S
C1789 C1788 1.399 . S
C1789 C1790 1.385 . S
C1790 H1776 0.931 . S
C1790 C1789 1.385 . S
C1790 C1791 1.389 . S
C1791 C1790 1.389 . S
C1791 C1792 1.387 . S
C1792 H1777 0.930 . S
C1792 C1787 1.390 . S
C1792 C1791 1.387 . S
H1793 C1805 0.930 . S
H1794 C1807 0.930 . S
H1795 C1808 0.930 . S
H1796 C1812 0.959 . S
H1797 C1812 0.959 . S
H1798 C1812 0.961 . S
H1799 C1813 0.960 . S
H1800 C1813 0.961 . S
H1801 C1813 0.959 . S
H1802 C1816 0.929 . S
H1803 C1817 0.931 . S
H1804 C1819 0.930 . S
C1805 H1793 0.930 . S
C1805 C1806 1.399 . S
C1805 C1810 1.399 . S
C1806 C1805 1.399 . S
C1806 C1807 1.376 . S
C1807 H1794 0.930 . S
C1807 C1806 1.376 . S
C1807 C1808 1.388 . S
C1808 H1795 0.930 . S
C1808 C1807 1.388 . S
C1808 C1809 1.390 . S
C1809 C1808 1.390 . S
C1809 C1810 1.394 . S
C1809 C1815 1.465 . S
C1810 C1805 1.399 . S
C1810 C1809 1.394 . S
C1810 C1811 1.516 . S
C1811 C1810 1.516 . S
C1811 C1812 1.502 . S
C1811 C1813 1.561 . S
C1811 C1814 1.526 . S
C1812 H1796 0.959 . S
C1812 H1797 0.959 . S
C1812 H1798 0.961 . S
C1812 C1811 1.502 . S
C1813 H1799 0.960 . S
C1813 H1800 0.961 . S
C1813 H1801 0.959 . S
C1813 C1811 1.561 . S
C1814 C1811 1.526 . S
C1814 C1815 1.396 . S
C1814 C1819 1.390 . S
C1815 C1809 1.465 . S
C1815 C1814 1.396 . S
C1815 C1816 1.399 . S
C1816 H1802 0.929 . S
C1816 C1815 1.399 . S
C1816 C1817 1.385 . S
C1817 H1803 0.931 . S
C1817 C1816 1.385 . S
C1817 C1818 1.389 . S
C1818 C1817 1.389 . S
C1818 C1819 1.387 . S
C1819 H1804 0.930 . S
C1819 C1814 1.390 . S
C1819 C1818 1.387 . S
H1820 C1832 0.930 . S
H1821 C1834 0.930 . S
H1822 C1835 0.930 . S
H1823 C1839 0.959 . S
H1824 C1839 0.959 . S
H1825 C1839 0.961 . S
H1826 C1840 0.960 . S
H1827 C1840 0.961 . S
H1828 C1840 0.959 . S
H1829 C1843 0.929 . S
H1830 C1844 0.931 . S
H1831 C1846 0.930 . S
C1832 H1820 0.930 . S
C1832 C1833 1.399 . S
C1832 C1837 1.399 . S
C1833 C1832 1.399 . S
C1833 C1834 1.376 . S
C1834 H1821 0.930 . S
C1834 C1833 1.376 . S
C1834 C1835 1.388 . S
C1835 H1822 0.930 . S
C1835 C1834 1.388 . S
C1835 C1836 1.390 . S
C1836 C1835 1.390 . S
C1836 C1837 1.394 . S
C1836 C1842 1.465 . S
C1837 C1832 1.399 . S
C1837 C1836 1.394 . S
C1837 C1838 1.516 . S
C1838 C1837 1.516 . S
C1838 C1839 1.502 . S
C1838 C1840 1.561 . S
C1838 C1841 1.526 . S
C1839 H1823 0.959 . S
C1839 H1824 0.959 . S
C1839 H1825 0.961 . S
C1839 C1838 1.502 . S
C1840 H1826 0.960 . S
C1840 H1827 0.961 . S
C1840 H1828 0.959 . S
C1840 C1838 1.561 . S
C1841 C1838 1.526 . S
C1841 C1842 1.396 . S
C1841 C1846 1.390 . S
C1842 C1836 1.465 . S
C1842 C1841 1.396 . S
C1842 C1843 1.399 . S
C1843 H1829 0.929 . S
C1843 C1842 1.399 . S
C1843 C1844 1.385 . S
C1844 H1830 0.931 . S
C1844 C1843 1.385 . S
C1844 C1845 1.389 . S
C1845 C1844 1.389 . S
C1845 C1846 1.387 . S
C1846 H1831 0.930 . S
C1846 C1841 1.390 . S
C1846 C1845 1.387 . S
H1847 C1859 0.930 . S
H1848 C1861 0.930 . S
H1849 C1862 0.930 . S
H1850 C1866 0.959 . S
H1851 C1866 0.959 . S
H1852 C1866 0.961 . S
H1853 C1867 0.960 . S
H1854 C1867 0.961 . S
H1855 C1867 0.959 . S
H1856 C1870 0.929 . S
H1857 C1871 0.931 . S
H1858 C1873 0.930 . S
C1859 H1847 0.930 . S
C1859 C1860 1.399 . S
C1859 C1864 1.399 . S
C1860 C1859 1.399 . S
C1860 C1861 1.376 . S
C1861 H1848 0.930 . S
C1861 C1860 1.376 . S
C1861 C1862 1.388 . S
C1862 H1849 0.930 . S
C1862 C1861 1.388 . S
C1862 C1863 1.390 . S
C1863 C1862 1.390 . S
C1863 C1864 1.394 . S
C1863 C1869 1.465 . S
C1864 C1859 1.399 . S
C1864 C1863 1.394 . S
C1864 C1865 1.516 . S
C1865 C1864 1.516 . S
C1865 C1866 1.502 . S
C1865 C1867 1.561 . S
C1865 C1868 1.526 . S
C1866 H1850 0.959 . S
C1866 H1851 0.959 . S
C1866 H1852 0.961 . S
C1866 C1865 1.502 . S
C1867 H1853 0.960 . S
C1867 H1854 0.961 . S
C1867 H1855 0.959 . S
C1867 C1865 1.561 . S
C1868 C1865 1.526 . S
C1868 C1869 1.396 . S
C1868 C1873 1.390 . S
C1869 C1863 1.465 . S
C1869 C1868 1.396 . S
C1869 C1870 1.399 . S
C1870 H1856 0.929 . S
C1870 C1869 1.399 . S
C1870 C1871 1.385 . S
C1871 H1857 0.931 . S
C1871 C1870 1.385 . S
C1871 C1872 1.389 . S
C1872 C1871 1.389 . S
C1872 C1873 1.387 . S
C1873 H1858 0.930 . S
C1873 C1868 1.390 . S
C1873 C1872 1.387 . S
H1874 C1886 0.930 . S
H1875 C1888 0.930 . S
H1876 C1889 0.930 . S
H1877 C1893 0.959 . S
H1878 C1893 0.959 . S
H1879 C1893 0.961 . S
H1880 C1894 0.960 . S
H1881 C1894 0.961 . S
H1882 C1894 0.959 . S
H1883 C1897 0.929 . S
H1884 C1898 0.931 . S
H1885 C1900 0.930 . S
C1886 H1874 0.930 . S
C1886 C1887 1.399 . S
C1886 C1891 1.399 . S
C1887 C1886 1.399 . S
C1887 C1888 1.376 . S
C1888 H1875 0.930 . S
C1888 C1887 1.376 . S
C1888 C1889 1.388 . S
C1889 H1876 0.930 . S
C1889 C1888 1.388 . S
C1889 C1890 1.390 . S
C1890 C1889 1.390 . S
C1890 C1891 1.394 . S
C1890 C1896 1.465 . S
C1891 C1886 1.399 . S
C1891 C1890 1.394 . S
C1891 C1892 1.516 . S
C1892 C1891 1.516 . S
C1892 C1893 1.502 . S
C1892 C1894 1.561 . S
C1892 C1895 1.526 . S
C1893 H1877 0.959 . S
C1893 H1878 0.959 . S
C1893 H1879 0.961 . S
C1893 C1892 1.502 . S
C1894 H1880 0.960 . S
C1894 H1881 0.961 . S
C1894 H1882 0.959 . S
C1894 C1892 1.561 . S
C1895 C1892 1.526 . S
C1895 C1896 1.396 . S
C1895 C1900 1.390 . S
C1896 C1890 1.465 . S
C1896 C1895 1.396 . S
C1896 C1897 1.399 . S
C1897 H1883 0.929 . S
C1897 C1896 1.399 . S
C1897 C1898 1.385 . S
C1898 H1884 0.931 . S
C1898 C1897 1.385 . S
C1898 C1899 1.389 . S
C1899 C1898 1.389 . S
C1899 C1900 1.387 . S
C1900 H1885 0.930 . S
C1900 C1895 1.390 . S
C1900 C1899 1.387 . S
H1901 C1913 0.930 . S
H1902 C1915 0.930 . S
H1903 C1916 0.930 . S
H1904 C1920 0.959 . S
H1905 C1920 0.959 . S
H1906 C1920 0.961 . S
H1907 C1921 0.960 . S
H1908 C1921 0.961 . S
H1909 C1921 0.959 . S
H1910 C1924 0.929 . S
H1911 C1925 0.931 . S
H1912 C1927 0.930 . S
C1913 H1901 0.930 . S
C1913 C1914 1.399 . S
C1913 C1918 1.399 . S
C1914 C1913 1.399 . S
C1914 C1915 1.376 . S
C1915 H1902 0.930 . S
C1915 C1914 1.376 . S
C1915 C1916 1.388 . S
C1916 H1903 0.930 . S
C1916 C1915 1.388 . S
C1916 C1917 1.390 . S
C1917 C1916 1.390 . S
C1917 C1918 1.394 . S
C1917 C1923 1.465 . S
C1918 C1913 1.399 . S
C1918 C1917 1.394 . S
C1918 C1919 1.516 . S
C1919 C1918 1.516 . S
C1919 C1920 1.502 . S
C1919 C1921 1.561 . S
C1919 C1922 1.526 . S
C1920 H1904 0.959 . S
C1920 H1905 0.959 . S
C1920 H1906 0.961 . S
C1920 C1919 1.502 . S
C1921 H1907 0.960 . S
C1921 H1908 0.961 . S
C1921 H1909 0.959 . S
C1921 C1919 1.561 . S
C1922 C1919 1.526 . S
C1922 C1923 1.396 . S
C1922 C1927 1.390 . S
C1923 C1917 1.465 . S
C1923 C1922 1.396 . S
C1923 C1924 1.399 . S
C1924 H1910 0.929 . S
C1924 C1923 1.399 . S
C1924 C1925 1.385 . S
C1925 H1911 0.931 . S
C1925 C1924 1.385 . S
C1925 C1926 1.389 . S
C1926 C1925 1.389 . S
C1926 C1927 1.387 . S
C1927 H1912 0.930 . S
C1927 C1922 1.390 . S
C1927 C1926 1.387 . S
H1928 C1940 0.930 . S
H1929 C1942 0.930 . S
H1930 C1943 0.930 . S
H1931 C1947 0.959 . S
H1932 C1947 0.959 . S
H1933 C1947 0.961 . S
H1934 C1948 0.960 . S
H1935 C1948 0.961 . S
H1936 C1948 0.959 . S
H1937 C1951 0.929 . S
H1938 C1952 0.931 . S
H1939 C1954 0.930 . S
C1940 H1928 0.930 . S
C1940 C1941 1.399 . S
C1940 C1945 1.399 . S
C1941 C1940 1.399 . S
C1941 C1942 1.376 . S
C1942 H1929 0.930 . S
C1942 C1941 1.376 . S
C1942 C1943 1.388 . S
C1943 H1930 0.930 . S
C1943 C1942 1.388 . S
C1943 C1944 1.390 . S
C1944 C1943 1.390 . S
C1944 C1945 1.394 . S
C1944 C1950 1.465 . S
C1945 C1940 1.399 . S
C1945 C1944 1.394 . S
C1945 C1946 1.516 . S
C1946 C1945 1.516 . S
C1946 C1947 1.502 . S
C1946 C1948 1.561 . S
C1946 C1949 1.526 . S
C1947 H1931 0.959 . S
C1947 H1932 0.959 . S
C1947 H1933 0.961 . S
C1947 C1946 1.502 . S
C1948 H1934 0.960 . S
C1948 H1935 0.961 . S
C1948 H1936 0.959 . S
C1948 C1946 1.561 . S
C1949 C1946 1.526 . S
C1949 C1950 1.396 . S
C1949 C1954 1.390 . S
C1950 C1944 1.465 . S
C1950 C1949 1.396 . S
C1950 C1951 1.399 . S
C1951 H1937 0.929 . S
C1951 C1950 1.399 . S
C1951 C1952 1.385 . S
C1952 H1938 0.931 . S
C1952 C1951 1.385 . S
C1952 C1953 1.389 . S
C1953 C1952 1.389 . S
C1953 C1954 1.387 . S
C1954 H1939 0.930 . S
C1954 C1949 1.390 . S
C1954 C1953 1.387 . S
H1955 C1967 0.930 . S
H1956 C1969 0.930 . S
H1957 C1970 0.930 . S
H1958 C1974 0.959 . S
H1959 C1974 0.959 . S
H1960 C1974 0.961 . S
H1961 C1975 0.960 . S
H1962 C1975 0.961 . S
H1963 C1975 0.959 . S
H1964 C1978 0.929 . S
H1965 C1979 0.931 . S
H1966 C1981 0.930 . S
C1967 H1955 0.930 . S
C1967 C1968 1.399 . S
C1967 C1972 1.399 . S
C1968 C1967 1.399 . S
C1968 C1969 1.376 . S
C1969 H1956 0.930 . S
C1969 C1968 1.376 . S
C1969 C1970 1.388 . S
C1970 H1957 0.930 . S
C1970 C1969 1.388 . S
C1970 C1971 1.390 . S
C1971 C1970 1.390 . S
C1971 C1972 1.394 . S
C1971 C1977 1.465 . S
C1972 C1967 1.399 . S
C1972 C1971 1.394 . S
C1972 C1973 1.516 . S
C1973 C1972 1.516 . S
C1973 C1974 1.502 . S
C1973 C1975 1.561 . S
C1973 C1976 1.526 . S
C1974 H1958 0.959 . S
C1974 H1959 0.959 . S
C1974 H1960 0.961 . S
C1974 C1973 1.502 . S
C1975 H1961 0.960 . S
C1975 H1962 0.961 . S
C1975 H1963 0.959 . S
C1975 C1973 1.561 . S
C1976 C1973 1.526 . S
C1976 C1977 1.396 . S
C1976 C1981 1.390 . S
C1977 C1971 1.465 . S
C1977 C1976 1.396 . S
C1977 C1978 1.399 . S
C1978 H1964 0.929 . S
C1978 C1977 1.399 . S
C1978 C1979 1.385 . S
C1979 H1965 0.931 . S
C1979 C1978 1.385 . S
C1979 C1980 1.389 . S
C1980 C1979 1.389 . S
C1980 C1981 1.387 . S
C1981 H1966 0.930 . S
C1981 C1976 1.390 . S
C1981 C1980 1.387 . S
H1982 C1994 0.930 . S
H1983 C1996 0.930 . S
H1984 C1997 0.930 . S
H1985 C2001 0.959 . S
H1986 C2001 0.959 . S
H1987 C2001 0.961 . S
H1988 C2002 0.960 . S
H1989 C2002 0.961 . S
H1990 C2002 0.959 . S
H1991 C2005 0.929 . S
H1992 C2006 0.931 . S
H1993 C2008 0.930 . S
C1994 H1982 0.930 . S
C1994 C1995 1.399 . S
C1994 C1999 1.399 . S
C1995 C1994 1.399 . S
C1995 C1996 1.376 . S
C1996 H1983 0.930 . S
C1996 C1995 1.376 . S
C1996 C1997 1.388 . S
C1997 H1984 0.930 . S
C1997 C1996 1.388 . S
C1997 C1998 1.390 . S
C1998 C1997 1.390 . S
C1998 C1999 1.394 . S
C1998 C2004 1.465 . S
C1999 C1994 1.399 . S
C1999 C1998 1.394 . S
C1999 C2000 1.516 . S
C2000 C1999 1.516 . S
C2000 C2001 1.502 . S
C2000 C2002 1.561 . S
C2000 C2003 1.526 . S
C2001 H1985 0.959 . S
C2001 H1986 0.959 . S
C2001 H1987 0.961 . S
C2001 C2000 1.502 . S
C2002 H1988 0.960 . S
C2002 H1989 0.961 . S
C2002 H1990 0.959 . S
C2002 C2000 1.561 . S
C2003 C2000 1.526 . S
C2003 C2004 1.396 . S
C2003 C2008 1.390 . S
C2004 C1998 1.465 . S
C2004 C2003 1.396 . S
C2004 C2005 1.399 . S
C2005 H1991 0.929 . S
C2005 C2004 1.399 . S
C2005 C2006 1.385 . S
C2006 H1992 0.931 . S
C2006 C2005 1.385 . S
C2006 C2007 1.389 . S
C2007 C2006 1.389 . S
C2007 C2008 1.387 . S
C2008 H1993 0.930 . S
C2008 C2003 1.390 . S
C2008 C2007 1.387 . S
H2009 C2021 0.930 . S
H2010 C2023 0.930 . S
H2011 C2024 0.930 . S
H2012 C2028 0.959 . S
H2013 C2028 0.959 . S
H2014 C2028 0.961 . S
H2015 C2029 0.960 . S
H2016 C2029 0.961 . S
H2017 C2029 0.959 . S
H2018 C2032 0.929 . S
H2019 C2033 0.931 . S
H2020 C2035 0.930 . S
C2021 H2009 0.930 . S
C2021 C2022 1.399 . S
C2021 C2026 1.399 . S
C2022 C2021 1.399 . S
C2022 C2023 1.376 . S
C2023 H2010 0.930 . S
C2023 C2022 1.376 . S
C2023 C2024 1.388 . S
C2024 H2011 0.930 . S
C2024 C2023 1.388 . S
C2024 C2025 1.390 . S
C2025 C2024 1.390 . S
C2025 C2026 1.394 . S
C2025 C2031 1.465 . S
C2026 C2021 1.399 . S
C2026 C2025 1.394 . S
C2026 C2027 1.516 . S
C2027 C2026 1.516 . S
C2027 C2028 1.502 . S
C2027 C2029 1.561 . S
C2027 C2030 1.526 . S
C2028 H2012 0.959 . S
C2028 H2013 0.959 . S
C2028 H2014 0.961 . S
C2028 C2027 1.502 . S
C2029 H2015 0.960 . S
C2029 H2016 0.961 . S
C2029 H2017 0.959 . S
C2029 C2027 1.561 . S
C2030 C2027 1.526 . S
C2030 C2031 1.396 . S
C2030 C2035 1.390 . S
C2031 C2025 1.465 . S
C2031 C2030 1.396 . S
C2031 C2032 1.399 . S
C2032 H2018 0.929 . S
C2032 C2031 1.399 . S
C2032 C2033 1.385 . S
C2033 H2019 0.931 . S
C2033 C2032 1.385 . S
C2033 C2034 1.389 . S
C2034 C2033 1.389 . S
C2034 C2035 1.387 . S
C2035 H2020 0.930 . S
C2035 C2030 1.390 . S
C2035 C2034 1.387 . S
H2036 C2048 0.930 . S
H2037 C2050 0.930 . S
H2038 C2051 0.930 . S
H2039 C2055 0.959 . S
H2040 C2055 0.959 . S
H2041 C2055 0.961 . S
H2042 C2056 0.960 . S
H2043 C2056 0.961 . S
H2044 C2056 0.959 . S
H2045 C2059 0.929 . S
H2046 C2060 0.931 . S
H2047 C2062 0.930 . S
C2048 H2036 0.930 . S
C2048 C2049 1.399 . S
C2048 C2053 1.399 . S
C2049 C2048 1.399 . S
C2049 C2050 1.376 . S
C2050 H2037 0.930 . S
C2050 C2049 1.376 . S
C2050 C2051 1.388 . S
C2051 H2038 0.930 . S
C2051 C2050 1.388 . S
C2051 C2052 1.390 . S
C2052 C2051 1.390 . S
C2052 C2053 1.394 . S
C2052 C2058 1.465 . S
C2053 C2048 1.399 . S
C2053 C2052 1.394 . S
C2053 C2054 1.516 . S
C2054 C2053 1.516 . S
C2054 C2055 1.502 . S
C2054 C2056 1.561 . S
C2054 C2057 1.526 . S
C2055 H2039 0.959 . S
C2055 H2040 0.959 . S
C2055 H2041 0.961 . S
C2055 C2054 1.502 . S
C2056 H2042 0.960 . S
C2056 H2043 0.961 . S
C2056 H2044 0.959 . S
C2056 C2054 1.561 . S
C2057 C2054 1.526 . S
C2057 C2058 1.396 . S
C2057 C2062 1.390 . S
C2058 C2052 1.465 . S
C2058 C2057 1.396 . S
C2058 C2059 1.399 . S
C2059 H2045 0.929 . S
C2059 C2058 1.399 . S
C2059 C2060 1.385 . S
C2060 H2046 0.931 . S
C2060 C2059 1.385 . S
C2060 C2061 1.389 . S
C2061 C2060 1.389 . S
C2061 C2062 1.387 . S
C2062 H2047 0.930 . S
C2062 C2057 1.390 . S
C2062 C2061 1.387 . S
H2063 C2075 0.930 . S
H2064 C2077 0.930 . S
H2065 C2078 0.930 . S
H2066 C2082 0.959 . S
H2067 C2082 0.959 . S
H2068 C2082 0.961 . S
H2069 C2083 0.960 . S
H2070 C2083 0.961 . S
H2071 C2083 0.959 . S
H2072 C2086 0.929 . S
H2073 C2087 0.931 . S
H2074 C2089 0.930 . S
C2075 H2063 0.930 . S
C2075 C2076 1.399 . S
C2075 C2080 1.399 . S
C2076 C2075 1.399 . S
C2076 C2077 1.376 . S
C2077 H2064 0.930 . S
C2077 C2076 1.376 . S
C2077 C2078 1.388 . S
C2078 H2065 0.930 . S
C2078 C2077 1.388 . S
C2078 C2079 1.390 . S
C2079 C2078 1.390 . S
C2079 C2080 1.394 . S
C2079 C2085 1.465 . S
C2080 C2075 1.399 . S
C2080 C2079 1.394 . S
C2080 C2081 1.516 . S
C2081 C2080 1.516 . S
C2081 C2082 1.502 . S
C2081 C2083 1.561 . S
C2081 C2084 1.526 . S
C2082 H2066 0.959 . S
C2082 H2067 0.959 . S
C2082 H2068 0.961 . S
C2082 C2081 1.502 . S
C2083 H2069 0.960 . S
C2083 H2070 0.961 . S
C2083 H2071 0.959 . S
C2083 C2081 1.561 . S
C2084 C2081 1.526 . S
C2084 C2085 1.396 . S
C2084 C2089 1.390 . S
C2085 C2079 1.465 . S
C2085 C2084 1.396 . S
C2085 C2086 1.399 . S
C2086 H2072 0.929 . S
C2086 C2085 1.399 . S
C2086 C2087 1.385 . S
C2087 H2073 0.931 . S
C2087 C2086 1.385 . S
C2087 C2088 1.389 . S
C2088 C2087 1.389 . S
C2088 C2089 1.387 . S
C2089 H2074 0.930 . S
C2089 C2084 1.390 . S
C2089 C2088 1.387 . S
H2090 C2102 0.930 . S
H2091 C2104 0.930 . S
H2092 C2105 0.930 . S
H2093 C2109 0.959 . S
H2094 C2109 0.959 . S
H2095 C2109 0.961 . S
H2096 C2110 0.960 . S
H2097 C2110 0.961 . S
H2098 C2110 0.959 . S
H2099 C2113 0.929 . S
H2100 C2114 0.931 . S
H2101 C2116 0.930 . S
C2102 H2090 0.930 . S
C2102 C2103 1.399 . S
C2102 C2107 1.399 . S
C2103 C2102 1.399 . S
C2103 C2104 1.376 . S
C2104 H2091 0.930 . S
C2104 C2103 1.376 . S
C2104 C2105 1.388 . S
C2105 H2092 0.930 . S
C2105 C2104 1.388 . S
C2105 C2106 1.390 . S
C2106 C2105 1.390 . S
C2106 C2107 1.394 . S
C2106 C2112 1.465 . S
C2107 C2102 1.399 . S
C2107 C2106 1.394 . S
C2107 C2108 1.516 . S
C2108 C2107 1.516 . S
C2108 C2109 1.502 . S
C2108 C2110 1.561 . S
C2108 C2111 1.526 . S
C2109 H2093 0.959 . S
C2109 H2094 0.959 . S
C2109 H2095 0.961 . S
C2109 C2108 1.502 . S
C2110 H2096 0.960 . S
C2110 H2097 0.961 . S
C2110 H2098 0.959 . S
C2110 C2108 1.561 . S
C2111 C2108 1.526 . S
C2111 C2112 1.396 . S
C2111 C2116 1.390 . S
C2112 C2106 1.465 . S
C2112 C2111 1.396 . S
C2112 C2113 1.399 . S
C2113 H2099 0.929 . S
C2113 C2112 1.399 . S
C2113 C2114 1.385 . S
C2114 H2100 0.931 . S
C2114 C2113 1.385 . S
C2114 C2115 1.389 . S
C2115 C2114 1.389 . S
C2115 C2116 1.387 . S
C2116 H2101 0.930 . S
C2116 C2111 1.390 . S
C2116 C2115 1.387 . S
H2117 C2129 0.930 . S
H2118 C2131 0.930 . S
H2119 C2132 0.930 . S
H2120 C2136 0.959 . S
H2121 C2136 0.959 . S
H2122 C2136 0.961 . S
H2123 C2137 0.960 . S
H2124 C2137 0.961 . S
H2125 C2137 0.959 . S
H2126 C2140 0.929 . S
H2127 C2141 0.931 . S
H2128 C2143 0.930 . S
C2129 H2117 0.930 . S
C2129 C2130 1.399 . S
C2129 C2134 1.399 . S
C2130 C2129 1.399 . S
C2130 C2131 1.376 . S
C2131 H2118 0.930 . S
C2131 C2130 1.376 . S
C2131 C2132 1.388 . S
C2132 H2119 0.930 . S
C2132 C2131 1.388 . S
C2132 C2133 1.390 . S
C2133 C2132 1.390 . S
C2133 C2134 1.394 . S
C2133 C2139 1.465 . S
C2134 C2129 1.399 . S
C2134 C2133 1.394 . S
C2134 C2135 1.516 . S
C2135 C2134 1.516 . S
C2135 C2136 1.502 . S
C2135 C2137 1.561 . S
C2135 C2138 1.526 . S
C2136 H2120 0.959 . S
C2136 H2121 0.959 . S
C2136 H2122 0.961 . S
C2136 C2135 1.502 . S
C2137 H2123 0.960 . S
C2137 H2124 0.961 . S
C2137 H2125 0.959 . S
C2137 C2135 1.561 . S
C2138 C2135 1.526 . S
C2138 C2139 1.396 . S
C2138 C2143 1.390 . S
C2139 C2133 1.465 . S
C2139 C2138 1.396 . S
C2139 C2140 1.399 . S
C2140 H2126 0.929 . S
C2140 C2139 1.399 . S
C2140 C2141 1.385 . S
C2141 H2127 0.931 . S
C2141 C2140 1.385 . S
C2141 C2142 1.389 . S
C2142 C2141 1.389 . S
C2142 C2143 1.387 . S
C2143 H2128 0.930 . S
C2143 C2138 1.390 . S
C2143 C2142 1.387 . S
C429 C199 1.540 . S
C441 C4 1.539 . S
C456 C23 1.546 . S
C468 C166 1.545 . S
C483 C30 1.550 . S
C495 C173 1.551 . S
C510 C192 1.546 . S
C522 C43 1.548 . S
C537 C62 1.547 . S
C549 C127 1.549 . S
C564 C69 1.537 . S
C576 C140 1.538 . S
C591 C147 1.546 . S
C603 C88 1.548 . S
C618 C114 1.547 . S
C630 C95 1.549 . S
C645 C212 1.538 . S
C657 C407 1.537 . S
C672 C225 1.540 . S
C684 C374 1.539 . S
C699 C238 1.550 . S
C711 C381 1.551 . S
C726 C394 1.541 . S
C738 C251 1.543 . S
C753 C264 1.550 . S
C765 C329 1.551 . S
C780 C283 1.544 . S
C792 C342 1.542 . S
C807 C355 1.543 . S
C819 C290 1.542 . S
C834 C303 1.550 . S
C846 C316 1.551 . S
C861 C159 1.466 . S
C873 C5 1.465 . S
C888 C16 1.467 . S
C900 C174 1.468 . S
C915 C185 1.468 . S
C927 C31 1.466 . S
C942 C44 1.469 . S
C954 C200 1.470 . S
C969 C55 1.467 . S
C981 C107 1.466 . S
C996 C120 1.466 . S
C1008 C70 1.468 . S
C1023 C133 1.460 . S
C1035 C81 1.461 . S
C1050 C148 1.461 . S
C1062 C96 1.460 . S
C1077 C213 1.461 . S
C1089 C367 1.462 . S
C1104 C382 1.460 . S
C1116 C226 1.460 . S
C1131 C239 1.465 . S
C1143 C395 1.467 . S
C1158 C252 1.468 . S
C1170 C408 1.469 . S
C1185 C317 1.461 . S
C1197 C265 1.462 . S
C1212 C276 1.464 . S
C1224 C330 1.462 . S
C1239 C291 1.467 . S
C1251 C343 1.466 . S
C1266 C304 1.462 . S
C1278 C356 1.461 . S
C1293 C3 1.446 . S
C1305 C135 1.448 . S
C1320 C146 1.421 . S
C1332 C18 1.426 . S
C1347 C29 1.440 . S
C1359 C109 1.444 . S
C1374 C122 1.425 . S
C1386 C42 1.422 . S
C1401 C187 1.418 . S
C1413 C57 1.417 . S
C1428 C198 1.448 . S
C1440 C68 1.445 . S
C1455 C161 1.445 . S
C1467 C83 1.448 . S
C1482 C94 1.421 . S
C1494 C172 1.426 . S
C1509 C341 1.419 . S
C1521 C211 1.417 . S
C1536 C224 1.416 . S
C1548 C354 1.418 . S
C1563 C315 1.418 . S
C1575 C237 1.421 . S
C1590 C328 1.446 . S
C1602 C250 1.443 . S
C1617 C263 1.436 . S
C1629 C393 1.431 . S
C1644 C278 1.446 . S
C1656 C406 1.443 . S
C1671 C369 1.446 . S
C1683 C289 1.448 . S
C1698 C380 1.431 . S
C1710 C302 1.437 . S
C1725 C309 1.331 . S
C1737 C10 1.321 . S
C1752 C270 1.322 . S
C1764 C17 1.326 . S
C1779 C277 1.329 . S
C1791 C36 1.346 . S
C1806 C296 1.320 . S
C1818 C49 1.333 . S
C1833 C231 1.343 . S
C1845 C56 1.325 . S
C1860 C75 1.344 . S
C1872 C244 1.326 . S
C1887 C82 1.345 . S
C1899 C257 1.343 . S
C1914 C101 1.326 . S
C1926 C218 1.344 . S
C1941 C108 1.344 . S
C1953 C413 1.334 . S
C1968 C368 1.328 . S
C1980 C121 1.340 . S
C1995 C134 1.325 . S
C2007 C387 1.320 . S
C2022 C153 1.322 . S
C2034 C400 1.321 . S
C2049 C335 1.333 . S
C2061 C160 1.323 . S
C2076 C348 1.339 . S
C2088 C179 1.328 . S
C2103 C186 1.324 . S
C2115 C361 1.335 . S
C2130 C205 1.347 . S
C2142 C322 1.344 . S
