# Generated by pormake.
# Topology smb, (6)-cn, num edge types: 1
# Building blocks:
#     Node 0, Type 0, BuildingBlock: OJICUG_clean_sbu_0, # of connection points: 6
#     Node 1, Type 0, BuildingBlock: OJICUG_clean_sbu_0, # of connection points: 6
#     Node 2, Type 0, BuildingBlock: OJICUG_clean_sbu_0, # of connection points: 6
#     Node 3, Type 0, BuildingBlock: OJICUG_clean_sbu_0, # of connection points: 6
#     Node 4, Type 0, BuildingBlock: OJICUG_clean_sbu_0, # of connection points: 6
#     Node 5, Type 0, BuildingBlock: OJICUG_clean_sbu_0, # of connection points: 6
#     Node 6, Type 0, BuildingBlock: OJICUG_clean_sbu_0, # of connection points: 6
#     Node 7, Type 0, BuildingBlock: OJICUG_clean_sbu_0, # of connection points: 6
#     Node 8, Type 0, BuildingBlock: OJICUG_clean_sbu_0, # of connection points: 6
#     Edge 9, Type (0, 0), BuildingBlock: MIFKUJ_clean_linker_0, # of connection points: 2
#     Edge 10, Type (0, 0), BuildingBlock: MIFKUJ_clean_linker_0, # of connection points: 2
#     Edge 11, Type (0, 0), BuildingBlock: MIFKUJ_clean_linker_0, # of connection points: 2
#     Edge 12, Type (0, 0), BuildingBlock: MIFKUJ_clean_linker_0, # of connection points: 2
#     Edge 13, Type (0, 0), BuildingBlock: MIFKUJ_clean_linker_0, # of connection points: 2
#     Edge 14, Type (0, 0), BuildingBlock: MIFKUJ_clean_linker_0, # of connection points: 2
#     Edge 15, Type (0, 0), BuildingBlock: MIFKUJ_clean_linker_0, # of connection points: 2
#     Edge 16, Type (0, 0), BuildingBlock: MIFKUJ_clean_linker_0, # of connection points: 2
#     Edge 17, Type (0, 0), BuildingBlock: MIFKUJ_clean_linker_0, # of connection points: 2
#     Edge 18, Type (0, 0), BuildingBlock: MIFKUJ_clean_linker_0, # of connection points: 2
#     Edge 19, Type (0, 0), BuildingBlock: MIFKUJ_clean_linker_0, # of connection points: 2
#     Edge 20, Type (0, 0), BuildingBlock: MIFKUJ_clean_linker_0, # of connection points: 2
#     Edge 21, Type (0, 0), BuildingBlock: MIFKUJ_clean_linker_0, # of connection points: 2
#     Edge 22, Type (0, 0), BuildingBlock: MIFKUJ_clean_linker_0, # of connection points: 2
#     Edge 23, Type (0, 0), BuildingBlock: MIFKUJ_clean_linker_0, # of connection points: 2
#     Edge 24, Type (0, 0), BuildingBlock: MIFKUJ_clean_linker_0, # of connection points: 2
#     Edge 25, Type (0, 0), BuildingBlock: MIFKUJ_clean_linker_0, # of connection points: 2
#     Edge 26, Type (0, 0), BuildingBlock: MIFKUJ_clean_linker_0, # of connection points: 2
#     Edge 27, Type (0, 0), BuildingBlock: MIFKUJ_clean_linker_0, # of connection points: 2
#     Edge 28, Type (0, 0), BuildingBlock: MIFKUJ_clean_linker_0, # of connection points: 2
#     Edge 29, Type (0, 0), BuildingBlock: MIFKUJ_clean_linker_0, # of connection points: 2
#     Edge 30, Type (0, 0), BuildingBlock: MIFKUJ_clean_linker_0, # of connection points: 2
#     Edge 31, Type (0, 0), BuildingBlock: MIFKUJ_clean_linker_0, # of connection points: 2
#     Edge 32, Type (0, 0), BuildingBlock: MIFKUJ_clean_linker_0, # of connection points: 2
#     Edge 33, Type (0, 0), BuildingBlock: MIFKUJ_clean_linker_0, # of connection points: 2
#     Edge 34, Type (0, 0), BuildingBlock: MIFKUJ_clean_linker_0, # of connection points: 2
#     Edge 35, Type (0, 0), BuildingBlock: MIFKUJ_clean_linker_0, # of connection points: 2
# Relax obj value: 0.341
# Max RMSD: 0.254
# Mean RMSD: 0.254
data_MOF--net-smb--node1-OJICUG_clean_sbu_0--edge1-MIFKUJ_clean_linker_0
_symmetry_space_group_name_H-M    P1
_symmetry_Int_Tables_number       1
_symmetry_cell_setting            triclinic
loop_
_symmetry_equiv_pos_as_xyz
'x, y, z'
_cell_length_a     50.941812
_cell_length_b     50.882876
_cell_length_c     35.831667
_cell_angle_alpha  90.023442
_cell_angle_beta   90.000862
_cell_angle_gamma 120.03431
loop_
_atom_site_label
_atom_site_type_symbol
_atom_site_fract_x
_atom_site_fract_y
_atom_site_fract_z
_atom_type_partial_charge
Sc0 Sc 0.35159 0.15774 0.00964 0.0
Sc1 Sc 0.42302 0.19124 0.96534 0.0
Sc2 Sc 0.41819 0.19781 0.06256 0.0
O3 O 0.39759 0.18224 0.01248 0.0
C4 C 0.36117 0.20755 0.06943 0.0
C5 C 0.3691 0.20071 0.93779 0.0
C6 C 0.4575 0.25412 0.00999 0.0
C7 C 0.37087 0.12244 0.95254 0.0
C8 C 0.36573 0.13149 0.08322 0.0
C9 C 0.46176 0.17755 0.02309 0.0
O10 O 0.34615 0.19012 0.04268 0.0
O11 O 0.39639 0.20654 0.93577 0.0
O12 O 0.44555 0.24316 0.04145 0.0
O13 O 0.35262 0.12334 0.97599 0.0
O14 O 0.39217 0.15414 0.08768 0.0
O15 O 0.45222 0.1771 0.99023 0.0
O16 O 0.34791 0.13008 0.0574 0.0
O17 O 0.39628 0.1455 0.94446 0.0
O18 O 0.45272 0.18608 0.05124 0.0
O19 O 0.35039 0.18259 0.96177 0.0
O20 O 0.38638 0.21108 0.08052 0.0
O21 O 0.45303 0.238 0.98096 0.0
Sc22 Sc 0.83449 0.168 0.0266 0.0
Sc23 Sc 0.79481 0.19824 0.97882 0.0
Sc24 Sc 0.80055 0.20286 0.07656 0.0
O25 O 0.80994 0.18968 0.02728 0.0
C26 C 0.79224 0.13789 0.09698 0.0
C27 C 0.78393 0.13184 0.96457 0.0
C28 C 0.73802 0.1778 0.03346 0.0
C29 C 0.86143 0.21274 0.95675 0.0
C30 C 0.86926 0.21993 0.0873 0.0
C31 C 0.81373 0.25886 0.02416 0.0
O32 O 0.80796 0.13701 0.07006 0.0
O33 O 0.77859 0.15325 0.95827 0.0
O34 O 0.7534 0.18369 0.06333 0.0
O35 O 0.86318 0.19655 0.98257 0.0
O36 O 0.84682 0.22365 0.09353 0.0
O37 O 0.80925 0.24428 0.99387 0.0
O38 O 0.86816 0.19974 0.06537 0.0
O39 O 0.83802 0.21512 0.95145 0.0
O40 O 0.81074 0.24673 0.05601 0.0
O41 O 0.80371 0.13397 0.98792 0.0
O42 O 0.78879 0.16055 0.10325 0.0
O43 O 0.74992 0.18243 0.00113 0.0
Sc44 Sc 0.81703 0.63752 0.01232 0.0
Sc45 Sc 0.77683 0.56955 0.96071 0.0
Sc46 Sc 0.77551 0.5676 0.05899 0.0
O47 O 0.78977 0.59158 0.01063 0.0
C48 C 0.8437 0.61661 0.07913 0.0
C49 C 0.84606 0.61918 0.94539 0.0
C50 C 0.79036 0.52495 0.00894 0.0
C51 C 0.77251 0.62873 0.94452 0.0
C52 C 0.77004 0.6258 0.07766 0.0
C53 C 0.71615 0.53352 0.00861 0.0
O54 O 0.84666 0.63576 0.05433 0.0
O55 O 0.82203 0.59438 0.93783 0.0
O56 O 0.78673 0.53439 0.04027 0.0
O57 O 0.79108 0.64453 0.97007 0.0
O58 O 0.76323 0.59844 0.0829 0.0
O59 O 0.73004 0.54235 0.97764 0.0
O60 O 0.78883 0.64291 0.05309 0.0
O61 O 0.76512 0.60135 0.93801 0.0
O62 O 0.72963 0.54059 0.03992 0.0
O63 O 0.84748 0.6368 0.97146 0.0
O64 O 0.81941 0.59153 0.08383 0.0
O65 O 0.78725 0.53527 0.97797 0.0
Sc66 Sc 0.01952 0.50078 0.35687 0.0
Sc67 Sc 0.08924 0.53904 0.30908 0.0
Sc68 Sc 0.08814 0.53695 0.40739 0.0
O69 O 0.06562 0.52561 0.35779 0.0
C70 C 0.03228 0.54679 0.42425 0.0
C71 C 0.03343 0.54887 0.29185 0.0
C72 C 0.12623 0.59769 0.36001 0.0
C73 C 0.03793 0.47144 0.2901 0.0
C74 C 0.03526 0.46901 0.42255 0.0
C75 C 0.12927 0.51971 0.35812 0.0
O76 O 0.01501 0.52865 0.39918 0.0
O77 O 0.06003 0.55387 0.28518 0.0
O78 O 0.11827 0.58326 0.39071 0.0
O79 O 0.01927 0.47064 0.31433 0.0
O80 O 0.06065 0.49227 0.42994 0.0
O81 O 0.12092 0.52547 0.32726 0.0
O82 O 0.01787 0.4683 0.3967 0.0
O83 O 0.06382 0.49466 0.28483 0.0
O84 O 0.11956 0.52289 0.3895 0.0
O85 O 0.01641 0.53034 0.31667 0.0
O86 O 0.05899 0.55183 0.43017 0.0
O87 O 0.11738 0.58475 0.3285 0.0
Sc88 Sc 0.49084 0.49296 0.34237 0.0
Sc89 Sc 0.45082 0.52578 0.30199 0.0
Sc90 Sc 0.45183 0.51877 0.39959 0.0
O91 O 0.46444 0.51241 0.34801 0.0
C92 C 0.44589 0.45337 0.40704 0.0
C93 C 0.44513 0.46392 0.27353 0.0
C94 C 0.39133 0.49752 0.35264 0.0
C95 C 0.5196 0.54673 0.28273 0.0
C96 C 0.51978 0.53474 0.41431 0.0
C97 C 0.46573 0.58002 0.3586 0.0
O98 O 0.46306 0.45604 0.37984 0.0
O99 O 0.43792 0.48443 0.2725 0.0
O100 O 0.40536 0.50126 0.38326 0.0
O101 O 0.52125 0.52813 0.30497 0.0
O102 O 0.49652 0.53677 0.4218 0.0
O103 O 0.46211 0.56881 0.32606 0.0
O104 O 0.52115 0.5197 0.3868 0.0
O105 O 0.4955 0.54789 0.27784 0.0
O106 O 0.46262 0.56476 0.38801 0.0
O107 O 0.46414 0.46419 0.29677 0.0
O108 O 0.44025 0.47398 0.41709 0.0
O109 O 0.4047 0.5052 0.32125 0.0
Sc110 Sc 0.49977 0.97719 0.33602 0.0
Sc111 Sc 0.46451 0.90359 0.29737 0.0
Sc112 Sc 0.46519 0.91312 0.39463 0.0
O113 O 0.47647 0.93129 0.34267 0.0
C114 C 0.53078 0.96894 0.40913 0.0
C115 C 0.53245 0.95512 0.27871 0.0
C116 C 0.48253 0.86759 0.3551 0.0
C117 C 0.45399 0.95602 0.26685 0.0
C118 C 0.45355 0.96932 0.39942 0.0
C119 C 0.40538 0.87009 0.34872 0.0
O120 O 0.52963 0.98482 0.38253 0.0
O121 O 0.50899 0.92942 0.27267 0.0
O122 O 0.47746 0.87894 0.38391 0.0
O123 O 0.47341 0.97608 0.28852 0.0
O124 O 0.45186 0.9451 0.41167 0.0
O125 O 0.41903 0.87498 0.31758 0.0
O126 O 0.46837 0.9832 0.37043 0.0
O127 O 0.44737 0.92846 0.26759 0.0
O128 O 0.41891 0.88256 0.37899 0.0
O129 O 0.53282 0.97452 0.30143 0.0
O130 O 0.50994 0.94189 0.4155 0.0
O131 O 0.47963 0.87499 0.32214 0.0
Sc132 Sc 0.68381 0.84026 0.65982 0.0
Sc133 Sc 0.75265 0.87038 0.60922 0.0
Sc134 Sc 0.75378 0.87755 0.70681 0.0
O135 O 0.73003 0.8627 0.6586 0.0
C136 C 0.69983 0.89034 0.72262 0.0
C137 C 0.70078 0.88576 0.59057 0.0
C138 C 0.79458 0.9323 0.65279 0.0
C139 C 0.69616 0.80414 0.59584 0.0
C140 C 0.69955 0.81212 0.72963 0.0
C141 C 0.79109 0.85241 0.66196 0.0
O142 O 0.68145 0.87123 0.69926 0.0
O143 O 0.7266 0.8884 0.58463 0.0
O144 O 0.78378 0.92184 0.68479 0.0
O145 O 0.6798 0.8062 0.62108 0.0
O146 O 0.72582 0.83508 0.73385 0.0
O147 O 0.78073 0.8533 0.63001 0.0
O148 O 0.68144 0.80994 0.70377 0.0
O149 O 0.72251 0.82565 0.588 0.0
O150 O 0.78413 0.86135 0.69156 0.0
O151 O 0.68274 0.86878 0.61598 0.0
O152 O 0.72649 0.89521 0.72779 0.0
O153 O 0.78664 0.91623 0.62337 0.0
Sc154 Sc 0.15971 0.83308 0.67797 0.0
Sc155 Sc 0.13302 0.87563 0.62955 0.0
Sc156 Sc 0.1277 0.8698 0.72746 0.0
O157 O 0.14028 0.85963 0.67826 0.0
C158 C 0.10492 0.7995 0.73545 0.0
C159 C 0.11505 0.8081 0.60762 0.0
C160 C 0.07371 0.86162 0.67461 0.0
C161 C 0.19802 0.8825 0.61605 0.0
C162 C 0.18931 0.87203 0.75094 0.0
C163 C 0.15775 0.93295 0.68465 0.0
O164 O 0.12501 0.79956 0.71427 0.0
O165 O 0.11293 0.83173 0.60276 0.0
O166 O 0.08561 0.86367 0.70633 0.0
O167 O 0.19552 0.86366 0.64109 0.0
O168 O 0.16781 0.87737 0.75629 0.0
O169 O 0.15215 0.92107 0.65217 0.0
O170 O 0.19018 0.85698 0.72323 0.0
O171 O 0.17709 0.88824 0.60827 0.0
O172 O 0.15075 0.91734 0.71452 0.0
O173 O 0.13174 0.80625 0.6326 0.0
O174 O 0.10313 0.82297 0.74266 0.0
O175 O 0.08786 0.86481 0.64431 0.0
Sc176 Sc 0.168 0.31393 0.69539 0.0
Sc177 Sc 0.13514 0.244 0.64748 0.0
Sc178 Sc 0.13209 0.24521 0.74571 0.0
O179 O 0.14498 0.26771 0.69619 0.0
C180 C 0.19848 0.2996 0.76409 0.0
C181 C 0.20228 0.29774 0.63277 0.0
C182 C 0.15331 0.20518 0.7003 0.0
C183 C 0.12299 0.29775 0.62614 0.0
C184 C 0.11958 0.29991 0.75967 0.0
C185 C 0.07444 0.20495 0.69445 0.0
O186 O 0.19891 0.31709 0.73852 0.0
O187 O 0.18007 0.27153 0.62584 0.0
O188 O 0.14729 0.21417 0.73049 0.0
O189 O 0.13988 0.31553 0.65169 0.0
O190 O 0.11583 0.27382 0.76685 0.0
O191 O 0.08911 0.21366 0.66399 0.0
O192 O 0.13731 0.31711 0.73433 0.0
O193 O 0.11934 0.27143 0.62095 0.0
O194 O 0.08677 0.21428 0.72624 0.0
O195 O 0.20109 0.3156 0.65663 0.0
O196 O 0.17591 0.27337 0.77006 0.0
O197 O 0.14999 0.21395 0.66836 0.0
H198 H 0.32359 0.06652 0.97044 0.0
H199 H 0.30675 0.01888 0.93765 0.0
H200 H 0.3813 0.06368 0.86043 0.0
H201 H 0.39825 0.11187 0.89296 0.0
H202 H 0.32941 0.0327 0.82437 0.0
H203 H 0.37823 0.00827 0.91821 0.0
H204 H 0.39464 0.00344 0.9813 0.0
H205 H 0.30214 0.94263 0.01242 0.0
H206 H 0.28511 0.94715 0.94954 0.0
H207 H 0.24857 0.89171 0.73391 0.0
H208 H 0.29286 0.9278 0.77023 0.0
H209 H 0.23414 0.92292 0.85995 0.0
H210 H 0.1899 0.88723 0.8238 0.0
H211 H 0.29257 0.93222 0.88406 0.0
H212 H 0.24631 0.97148 0.79535 0.0
H213 H 0.22984 0.97507 0.73174 0.0
H214 H 0.32042 0.00861 0.69115 0.0
H215 H 0.33729 0.00468 0.75451 0.0
C216 C 0.33662 0.06632 0.94666 0.0
C217 C 0.36203 0.09315 0.93401 0.0
C218 C 0.32717 0.0389 0.92822 0.0
C219 C 0.34298 0.03762 0.89684 0.0
C220 C 0.3689 0.06414 0.88474 0.0
C221 C 0.37847 0.09166 0.9033 0.0
C222 C 0.32994 0.00939 0.87439 0.0
C223 C 0.3223 0.01081 0.83711 0.0
C224 C 0.32043 0.98076 0.891 0.0
C225 C 0.33039 0.9781 0.92909 0.0
C226 C 0.36135 0.99397 0.93854 0.0
C227 C 0.37078 0.99119 0.97423 0.0
C228 C 0.34945 0.97269 0.00082 0.0
C229 C 0.31865 0.95689 0.99175 0.0
C230 C 0.3091 0.95945 0.95603 0.0
C231 C 0.2452 0.8975 0.76192 0.0
C232 C 0.21583 0.8871 0.77588 0.0
C233 C 0.27051 0.91808 0.7826 0.0
C234 C 0.26665 0.92816 0.81755 0.0
C235 C 0.23754 0.91533 0.83305 0.0
C236 C 0.21229 0.89514 0.81226 0.0
C237 C 0.29143 0.95583 0.83485 0.0
C238 C 0.30095 0.95425 0.87107 0.0
C239 C 0.30292 0.98439 0.81728 0.0
C240 C 0.29297 0.98748 0.77948 0.0
C241 C 0.26266 0.97947 0.7728 0.0
C242 C 0.25326 0.98157 0.73682 0.0
C243 C 0.27405 0.99202 0.70741 0.0
C244 C 0.30432 0.00047 0.71395 0.0
C245 C 0.31382 -0.0017 0.74987 0.0
H246 H 0.26671 0.9936 0.67957 0.0
H247 H 0.3568 0.97064 0.02847 0.0
H248 H 0.86639 0.24585 0.89372 0.0
H249 H 0.912 0.27626 0.85603 0.0
H250 H 0.96288 0.25049 0.92862 0.0
H251 H 0.9179 0.22034 0.96623 0.0
H252 H 0.99309 0.31148 0.91382 0.0
H253 H 0.93624 0.2158 0.84627 0.0
H254 H 0.89312 0.17629 0.81054 0.0
H255 H 0.90261 0.24273 0.72964 0.0
H256 H 0.94554 0.28274 0.76524 0.0
H257 H 0.10284 0.28857 0.83215 0.0
H258 H 0.06253 0.29306 0.86259 0.0
H259 H 0.05151 0.33499 0.76371 0.0
H260 H 0.09246 0.33083 0.7331 0.0
H261 H 7e-05 0.28291 0.78344 0.0
H262 H 0.06874 0.37382 0.8436 0.0
H263 H 0.114 0.41059 0.87862 0.0
H264 H 0.08434 0.3516 0.97396 0.0
H265 H 0.03926 0.31414 0.93937 0.0
C266 C 0.8873 0.24665 0.9016 0.0
C267 C 0.88843 0.23053 0.93295 0.0
C268 C 0.91329 0.26404 0.88005 0.0
C269 C 0.94076 0.26565 0.88965 0.0
C270 C 0.94192 0.24971 0.92091 0.0
C271 C 0.91607 0.23226 0.94223 0.0
C272 C 0.96853 0.28322 0.86713 0.0
C273 C 0.99475 0.30541 0.88524 0.0
C274 C 0.97021 0.27619 0.82934 0.0
C275 C 0.9437 0.25235 0.80879 0.0
C276 C 0.92883 0.22207 0.82118 0.0
C277 C 0.9045 0.19956 0.80087 0.0
C278 C 0.89503 0.20702 0.76794 0.0
C279 C 0.90988 0.23701 0.75525 0.0
C280 C 0.93417 0.25961 0.7755 0.0
C281 C 0.09249 0.29963 0.81734 0.0
C282 C 0.10052 0.30916 0.78027 0.0
C283 C 0.06961 0.30242 0.83484 0.0
C284 C 0.05411 0.31449 0.81547 0.0
C285 C 0.0634 0.32585 0.7792 0.0
C286 C 0.08677 0.32352 0.76182 0.0
C287 C 0.02513 0.30979 0.83093 0.0
C288 C -0.00151 0.29003 0.81151 0.0
C289 C 0.02317 0.31874 0.86772 0.0
C290 C 0.05055 0.34105 0.8887 0.0
C291 C 0.07197 0.36851 0.87191 0.0
C292 C 0.09761 0.38952 0.89172 0.0
C293 C 0.10206 0.38343 0.92847 0.0
C294 C 0.08087 0.3563 0.94549 0.0
C295 C 0.05524 0.33517 0.92577 0.0
H296 H 0.1219 0.39975 0.94378 0.0
H297 H 0.87629 0.18954 0.75217 0.0
H298 H 0.66838 0.75159 0.71218 0.0
H299 H 0.66963 0.71114 0.74836 0.0
H300 H 0.71549 0.77438 0.83798 0.0
H301 H 0.71434 0.81458 0.80234 0.0
H302 H 0.74774 0.74744 0.79387 0.0
H303 H 0.65534 0.72426 0.86139 0.0
H304 H 0.6008 0.7072 0.86529 0.0
H305 H 0.57926 0.62208 0.81508 0.0
H306 H 0.63376 0.63883 0.81038 0.0
H307 H 0.78647 0.68807 0.94455 0.0
H308 H 0.76538 0.71173 0.90475 0.0
H309 H 0.70729 0.62568 0.85141 0.0
H310 H 0.72809 0.60156 0.89139 0.0
H311 H 0.67711 0.65657 0.8673 0.0
H312 H 0.7673 0.67583 0.80533 0.0
H313 H 0.82124 0.69184 0.7963 0.0
H314 H 0.84674 0.78254 0.82983 0.0
H315 H 0.79296 0.76702 0.83956 0.0
C316 C 0.67751 0.75642 0.74026 0.0
C317 C 0.69164 0.78618 0.7544 0.0
C318 C 0.67827 0.73338 0.76078 0.0
C319 C 0.69285 0.74003 0.79557 0.0
C320 C 0.70418 0.76896 0.81112 0.0
C321 C 0.70354 0.79186 0.79074 0.0
C322 C 0.70177 0.71939 0.8127 0.0
C323 C 0.73239 0.72763 0.81011 0.0
C324 C 0.68131 0.69293 0.8323 0.0
C325 C 0.64862 0.68297 0.83503 0.0
C326 C 0.639 0.70206 0.85075 0.0
C327 C 0.60808 0.6924 0.85322 0.0
C328 C 0.58658 0.66362 0.8403 0.0
C329 C 0.59594 0.6444 0.82499 0.0
C330 C 0.62684 0.65395 0.82243 0.0
C331 C 0.76917 0.67407 0.92447 0.0
C332 C 0.75915 0.64294 0.92101 0.0
C333 C 0.75722 0.68767 0.90164 0.0
C334 C 0.7351 0.67049 0.87486 0.0
C335 C 0.72445 0.6393 0.87185 0.0
C336 C 0.73648 0.62563 0.89462 0.0
C337 C 0.7235 0.68551 0.84997 0.0
C338 C 0.69245 0.67614 0.85071 0.0
C339 C 0.74353 0.71088 0.82819 0.0
C340 C 0.77604 0.72017 0.82343 0.0
C341 C 0.78441 0.69911 0.81119 0.0
C342 C 0.81496 0.70813 0.80584 0.0
C343 C 0.83739 0.73818 0.8125 0.0
C344 C 0.82933 0.75927 0.82467 0.0
C345 C 0.79881 0.75038 0.83007 0.0
H346 H 0.86101 0.74516 0.80813 0.0
H347 H 0.56266 0.65618 0.84227 0.0
H348 H 0.10229 0.7609 0.79044 0.0
H349 H 0.05554 0.71904 0.81737 0.0
H350 H 0.00267 0.73245 0.73327 0.0
H351 H 0.0491 0.77423 0.70689 0.0
H352 H 0.98572 0.73776 0.80164 0.0
H353 H 0.00215 0.66696 0.7354 0.0
H354 H 0.03052 0.64281 0.71206 0.0
H355 H 0.04137 0.6199 0.82411 0.0
H356 H 0.01348 0.64436 0.84824 0.0
H357 H 0.8506 0.59447 0.87915 0.0
H358 H 0.8941 0.61556 0.83658 0.0
H359 H 0.94635 0.68665 0.91584 0.0
H360 H 0.90329 0.66606 0.95832 0.0
H361 H 0.95799 0.63334 0.84039 0.0
H362 H 0.97416 0.75281 0.86762 0.0
H363 H 0.94327 0.77483 0.88911 0.0
H364 H 0.86296 0.69759 0.84631 0.0
H365 H 0.89346 0.67562 0.82351 0.0
C366 C 0.08071 0.75409 0.77717 0.0
C367 C 0.07897 0.77048 0.74681 0.0
C368 C 0.05408 0.73026 0.79242 0.0
C369 C 0.02566 0.72275 0.77731 0.0
C370 C 0.02433 0.73792 0.74535 0.0
C371 C 0.05078 0.76166 0.7303 0.0
C372 C -0.00259 0.70254 0.79787 0.0
C373 C 0.97958 0.71484 0.80978 0.0
C374 C 0.98912 0.67249 0.80797 0.0
C375 C 0.00592 0.65773 0.79367 0.0
C376 C 0.01081 0.65701 0.75512 0.0
C377 C 0.02676 0.64322 0.74173 0.0
C378 C 0.03779 0.62988 0.76659 0.0
C379 C 0.03283 0.63026 0.80489 0.0
C380 C 0.01692 0.64406 0.81844 0.0
C381 C 0.87153 0.61427 0.88781 0.0
C382 C 0.87326 0.62896 0.92182 0.0
C383 C 0.89638 0.62614 0.86355 0.0
C384 C 0.92319 0.65281 0.87298 0.0
C385 C 0.92568 0.66618 0.90799 0.0
C386 C 0.90096 0.65446 0.93213 0.0
C387 C 0.9472 0.66908 0.84488 0.0
C388 C 0.96411 0.65613 0.83171 0.0
C389 C 0.95437 0.69838 0.83276 0.0
C390 C 0.93608 0.71238 0.8443 0.0
C391 C 0.94995 0.74067 0.86247 0.0
C392 C 0.9325 0.75314 0.8749 0.0
C393 C 0.90114 0.73754 0.86929 0.0
C394 C 0.88722 0.70961 0.85079 0.0
C395 C 0.9046 0.69717 0.83804 0.0
H396 H 0.88765 0.74717 0.87905 0.0
H397 H 0.05012 0.6192 0.75617 0.0
H398 H 0.25648 0.33346 0.73852 0.0
H399 H 0.30123 0.33412 0.76474 0.0
H400 H 0.2487 0.28391 0.86043 0.0
H401 H 0.20399 0.28293 0.83435 0.0
H402 H 0.31077 0.32563 0.87716 0.0
H403 H 0.24724 0.24439 0.78655 0.0
H404 H 0.2244 0.22902 0.72396 0.0
H405 H 0.31256 0.27879 0.67382 0.0
H406 H 0.33589 0.29476 0.73621 0.0
H407 H 0.31727 0.2035 0.9439 0.0
H408 H 0.30343 0.23582 0.90927 0.0
H409 H 0.38448 0.26961 0.84274 0.0
H410 H 0.39899 0.23732 0.87775 0.0
H411 H 0.32638 0.25224 0.80262 0.0
H412 H 0.38985 0.31733 0.8976 0.0
H413 H 0.4112 0.33149 0.96099 0.0
H414 H 0.32481 0.31347 0.00297 0.0
H415 H 0.30276 0.2987 0.93991 0.0
C416 C 0.25483 0.32365 0.76586 0.0
C417 C 0.22674 0.3078 0.78429 0.0
C418 C 0.28037 0.32398 0.7807 0.0
C419 C 0.27808 0.30875 0.81424 0.0
C420 C 0.25089 0.29581 0.83451 0.0
C421 C 0.22533 0.29512 0.81952 0.0
C422 C 0.30148 0.30124 0.82526 0.0
C423 C 0.31468 0.31001 0.86072 0.0
C424 C 0.30712 0.28146 0.80325 0.0
C425 C 0.29325 0.27101 0.76591 0.0
C426 C 0.26172 0.25211 0.76214 0.0
C427 C 0.24868 0.24331 0.72672 0.0
C428 C 0.26696 0.25305 0.69489 0.0
C429 C 0.29839 0.2714 0.69846 0.0
C430 C 0.31154 0.2803 0.73385 0.0
C431 C 0.33211 0.21747 0.92167 0.0
C432 C 0.35932 0.21785 0.9137 0.0
C433 C 0.32422 0.23608 0.90207 0.0
C434 C 0.34319 0.25532 0.87393 0.0
C435 C 0.36973 0.25498 0.86461 0.0
C436 C 0.3779 0.23653 0.8846 0.0
C437 C 0.33471 0.27576 0.85511 0.0
C438 C 0.32397 0.26913 0.81835 0.0
C439 C 0.33154 0.29767 0.87586 0.0
C440 C 0.34463 0.30685 0.91393 0.0
C441 C 0.37533 0.3162 0.92036 0.0
C442 C 0.38757 0.32436 0.95624 0.0
C443 C 0.36939 0.32342 0.98597 0.0
C444 C 0.33889 0.31427 0.97988 0.0
C445 C 0.32652 0.30605 0.94404 0.0
H446 H 0.37894 0.32983 0.0137 0.0
H447 H 0.25679 0.24624 0.6675 0.0
H448 H 0.70522 0.94418 0.70411 0.0
H449 H 0.70724 0.98176 0.74853 0.0
H450 H 0.6788 0.91555 0.83698 0.0
H451 H 0.67691 0.87798 0.79246 0.0
H452 H 0.65967 0.9592 0.84842 0.0
H453 H 0.74713 0.95192 0.82507 0.0
H454 H 0.78858 0.95011 0.792 0.0
H455 H 0.81955 0.03944 0.74821 0.0
H456 H 0.77755 0.04127 0.77978 0.0
H457 H 0.77664 0.07587 0.98031 0.0
H458 H 0.74974 0.02961 0.94255 0.0
H459 H 0.72542 0.07742 0.86315 0.0
H460 H 0.75161 0.12349 0.9007 0.0
H461 H 0.76796 0.04012 0.85233 0.0
H462 H 0.67063 0.03979 0.87987 0.0
H463 H 0.63694 0.04068 0.92877 0.0
H464 H 0.63216 0.96218 0.9802 0.0
H465 H 0.66621 0.96118 0.93187 0.0
C466 C 0.69798 0.93733 0.73265 0.0
C467 C 0.69069 0.90837 0.7451 0.0
C468 C 0.69924 0.95875 0.758 0.0
C469 C 0.69349 0.95143 0.79605 0.0
C470 C 0.68313 0.92152 0.80772 0.0
C471 C 0.68204 0.90012 0.78235 0.0
C472 C 0.70399 0.97603 0.82397 0.0
C473 C 0.68328 0.97698 0.8491 0.0
C474 C 0.73504 -0.00145 0.82593 0.0
C475 C 0.75885 0.99653 0.80433 0.0
C476 C 0.7623 0.97086 0.80762 0.0
C477 C 0.78598 0.96987 0.78925 0.0
C478 C 0.8067 0.99462 0.768 0.0
C479 C 0.80344 0.0202 0.76452 0.0
C480 C 0.77961 0.02118 0.78252 0.0
C481 C 0.76525 0.07643 0.95504 0.0
C482 C 0.76646 0.10338 0.94331 0.0
C483 C 0.74969 0.04997 0.9338 0.0
C484 C 0.73524 0.05019 0.90063 0.0
C485 C 0.73589 0.07679 0.8892 0.0
C486 C 0.75108 0.10311 0.91056 0.0
C487 C 0.72349 0.02418 0.87502 0.0
C488 C 0.74421 0.02269 0.85086 0.0
C489 C 0.69285 0.0009 0.87486 0.0
C490 C 0.67109 0.00055 0.90249 0.0
C491 C 0.66248 0.02282 0.90171 0.0
C492 C 0.64332 0.02334 0.9293 0.0
C493 C 0.63248 0.00155 0.95764 0.0
C494 C 0.64058 0.97906 0.95826 0.0
C495 C 0.65977 0.97848 0.93075 0.0
H496 H 0.61781 0.00207 0.97912 0.0
H497 H 0.82537 0.99402 0.75445 0.0
H498 H 0.89101 0.2799 0.09041 0.0
H499 H 0.93657 0.31819 0.12153 0.0
H500 H 0.95896 0.24987 0.15294 0.0
H501 H 0.91293 0.21095 0.12061 0.0
H502 H 0.95814 0.2851 0.21292 0.0
H503 H 0.00888 0.30288 0.10011 0.0
H504 H 0.01769 0.30833 0.0322 0.0
H505 H 0.00745 0.38709 0.03213 0.0
H506 H -0.00189 0.38191 0.09992 0.0
H507 H 0.07526 0.45962 0.24699 0.0
H508 H 0.06213 0.41283 0.21328 0.0
H509 H 0.96933 0.37397 0.24988 0.0
H510 H 0.98234 0.42018 0.28431 0.0
H511 H 0.02651 0.38623 0.15744 0.0
H512 H 0.93599 0.30105 0.26401 0.0
H513 H 0.93021 0.29559 0.33232 0.0
H514 H 0.0267 0.34966 0.34591 0.0
H515 H 0.03317 0.35499 0.27764 0.0
C516 C 0.90583 0.27304 0.1035 0.0
C517 C 0.89845 0.24254 0.10352 0.0
C518 C 0.93202 0.29498 0.12094 0.0
C519 C 0.95129 0.28691 0.13918 0.0
C520 C 0.94445 0.2565 0.13865 0.0
C521 C 0.9183 0.23441 0.12031 0.0
C522 C 0.97618 0.31029 0.16206 0.0
C523 C 0.97368 0.3071 0.20096 0.0
C524 C -0.00271 0.33857 0.14627 0.0
C525 C 0.00285 0.34201 0.1053 0.0
C526 C 0.00834 0.32129 0.08563 0.0
C527 C 0.01345 0.32433 0.04712 0.0
C528 C 0.01317 0.34805 0.02787 0.0
C529 C 0.00775 0.36877 0.0471 0.0
C530 C 0.00263 0.36583 0.08562 0.0
C531 C 0.05203 0.44109 0.24788 0.0
C532 C 0.02981 0.44364 0.26838 0.0
C533 C 0.04464 0.41433 0.22871 0.0
C534 C 0.01493 0.38965 0.2297 0.0
C535 C 0.99264 0.39237 0.24962 0.0
C536 C 4e-05 0.41895 0.26901 0.0
C537 C 0.00632 0.36158 0.20816 0.0
C538 C 0.012 0.36405 0.16962 0.0
C539 C 0.9888 0.33248 0.2244 0.0
C540 C 0.98506 0.32844 0.26556 0.0
C541 C 0.95603 0.3115 0.28149 0.0
C542 C 0.95262 0.3085 0.32025 0.0
C543 C 0.97807 0.32229 0.34344 0.0
C544 C 0.007 0.33901 0.32791 0.0
C545 C 0.01055 0.34204 0.28918 0.0
H546 H 0.97537 0.32002 0.37343 0.0
H547 H 0.01714 0.35037 0.99806 0.0
H548 H 0.57826 0.56457 0.29999 0.0
H549 H 0.62337 0.59646 0.263 0.0
H550 H 0.56854 0.609 0.18108 0.0
H551 H 0.52306 0.57705 0.21814 0.0
H552 H 0.60319 0.5872 0.15126 0.0
H553 H 0.62091 0.67128 0.2262 0.0
H554 H 0.62553 0.70037 0.28329 0.0
H555 H 0.69671 0.68571 0.32298 0.0
H556 H 0.69251 0.65649 0.26615 0.0
H557 H 0.74114 0.6547 0.05139 0.0
H558 H 0.70124 0.65924 0.08421 0.0
H559 H 0.72015 0.62503 0.18472 0.0
H560 H 0.75924 0.61966 0.15184 0.0
H561 H 0.70217 0.67061 0.19652 0.0
H562 H 0.67273 0.57492 0.1319 0.0
H563 H 0.66846 0.54435 0.07639 0.0
H564 H 0.61812 0.57923 0.01951 0.0
H565 H 0.62255 0.61041 0.0746 0.0
C566 C 0.57579 0.57434 0.27429 0.0
C567 C 0.54707 0.56794 0.26168 0.0
C568 C 0.60165 0.59291 0.25343 0.0
C569 C 0.5993 0.60534 0.21951 0.0
C570 C 0.5708 0.59981 0.20737 0.0
C571 C 0.54488 0.58149 0.22849 0.0
C572 C 0.62603 0.62028 0.19473 0.0
C573 C 0.6246 0.60618 0.16055 0.0
C574 C 0.65405 0.6446 0.20725 0.0
C575 C 0.65633 0.66163 0.2419 0.0
C576 C 0.63744 0.67411 0.24719 0.0
C577 C 0.6401 0.69076 0.27941 0.0
C578 C 0.66147 0.69497 0.30668 0.0
C579 C 0.68024 0.68253 0.30177 0.0
C580 C 0.67781 0.66602 0.26948 0.0
C581 C 0.73749 0.64931 0.08086 0.0
C582 C 0.75296 0.63672 0.09924 0.0
C583 C 0.71474 0.65184 0.09948 0.0
C584 C 0.70777 0.6423 0.13673 0.0
C585 C 0.72536 0.63264 0.15603 0.0
C586 C 0.74756 0.62948 0.13726 0.0
C587 C 0.67922 0.63703 0.1538 0.0
C588 C 0.68041 0.65263 0.18658 0.0
C589 C 0.65092 0.61391 0.14023 0.0
C590 C 0.64844 0.59538 0.10705 0.0
C591 C 0.66109 0.57635 0.10737 0.0
C592 C 0.6586 0.55888 0.07602 0.0
C593 C 0.64319 0.55999 0.04435 0.0
C594 C 0.63018 0.57852 0.044 0.0
C595 C 0.6327 0.59611 0.07526 0.0
H596 H 0.64113 0.54635 0.02018 0.0
H597 H 0.66339 0.70776 0.33169 0.0
H598 H 0.3915 0.129 0.14857 0.0
H599 H 0.38858 0.08397 0.17618 0.0
H600 H 0.31831 0.02723 0.09836 0.0
H601 H 0.32154 0.07248 0.06956 0.0
H602 H 0.33173 0.01499 0.19739 0.0
H603 H 0.35442 0.01866 0.06115 0.0
H604 H 0.37617 0.04971 0.00452 0.0
H605 H 0.46217 0.10058 0.05958 0.0
H606 H 0.44052 0.07074 0.11706 0.0
H607 H 0.39684 0.92058 0.23882 0.0
H608 H 0.36747 0.9374 0.20164 0.0
H609 H 0.4442 0.0284 0.19986 0.0
H610 H 0.47342 0.01199 0.23734 0.0
H611 H 0.41357 0.00853 0.1302 0.0
H612 H 0.39453 0.01448 0.26262 0.0
H613 H 0.37786 0.99261 0.32548 0.0
H614 H 0.28997 0.92879 0.28215 0.0
H615 H 0.30628 0.95018 0.21892 0.0
C616 C 0.37479 0.10696 0.13788 0.0
C617 C 0.35733 0.10434 0.10623 0.0
C618 C 0.37299 0.08123 0.15392 0.0
C619 C 0.35364 0.05252 0.13877 0.0
C620 C 0.33354 0.04937 0.11012 0.0
C621 C 0.33543 0.07524 0.09377 0.0
C622 C 0.35961 0.02783 0.14813 0.0
C623 C 0.3486 0.01237 0.18197 0.0
C624 C 0.38239 0.02541 0.12845 0.0
C625 C 0.39574 0.04268 0.0935 0.0
C626 C 0.37787 0.0367 0.06129 0.0
C627 C 0.39016 0.05414 0.02908 0.0
C628 C 0.42051 0.07722 0.0285 0.0
C629 C 0.43862 0.08286 0.06013 0.0
C630 C 0.42632 0.06574 0.09256 0.0
C631 C 0.40756 0.94406 0.22994 0.0
C632 C 0.43735 0.96506 0.24107 0.0
C633 C 0.39076 0.95358 0.20883 0.0
C634 C 0.40374 0.98408 0.19812 0.0
C635 C 0.43389 0.00472 0.20775 0.0
C636 C 0.45048 0.99537 0.22932 0.0
C637 C 0.3856 0.99551 0.17946 0.0
C638 C 0.39507 0.00918 0.14435 0.0
C639 C 0.36157 0.9964 0.1981 0.0
C640 C 0.35173 0.98361 0.23603 0.0
C641 C 0.37174 0.99561 0.26647 0.0
C642 C 0.36235 0.98335 0.30216 0.0
C643 C 0.33292 0.95923 0.30778 0.0
C644 C 0.31279 0.94742 0.27773 0.0
C645 C 0.32208 0.95961 0.24197 0.0
H646 H 0.32569 0.94977 0.33543 0.0
H647 H 0.43002 0.09065 0.00352 0.0
H648 H 0.77808 0.07972 0.07975 0.0
H649 H 0.73751 0.03308 0.10778 0.0
H650 H 0.72288 0.08611 0.19022 0.0
H651 H 0.76331 0.13271 0.16286 0.0
H652 H 0.7189 0.01778 0.2062 0.0
H653 H 0.65553 0.06865 0.1411 0.0
H654 H 0.65658 0.09736 0.08505 0.0
H655 H 0.6872 0.04747 0.01899 0.0
H656 H 0.68616 0.01837 0.07472 0.0
H657 H 0.59009 0.99647 0.29943 0.0
H658 H 0.63687 0.01113 0.26543 0.0
H659 H 0.58619 0.94572 0.17954 0.0
H660 H 0.539 0.93065 0.21365 0.0
H661 H 0.62275 0.00343 0.15253 0.0
H662 H 0.63321 0.93429 0.22824 0.0
H663 H 0.63423 0.90674 0.2842 0.0
H664 H 0.7086 0.9887 0.3283 0.0
H665 H 0.70757 0.01702 0.27312 0.0
C666 C 0.76695 0.08143 0.10463 0.0
C667 C 0.7736 0.10996 0.11879 0.0
C668 C 0.74379 0.05476 0.1205 0.0
C669 C 0.72724 0.0564 0.15071 0.0
C670 C 0.73556 0.08458 0.16685 0.0
C671 C 0.75858 0.11116 0.15107 0.0
C672 C 0.69838 0.02995 0.16221 0.0
C673 C 0.6977 0.01397 0.19433 0.0
C674 C 0.67101 0.02475 0.14578 0.0
C675 C 0.67092 0.04151 0.11202 0.0
C676 C 0.66238 0.06377 0.11457 0.0
C677 C 0.66307 0.08017 0.08291 0.0
C678 C 0.6721 0.07437 0.04851 0.0
C679 C 0.68034 0.05204 0.04568 0.0
C680 C 0.67975 0.03563 0.0773 0.0
C681 C 0.58885 0.98503 0.27343 0.0
C682 C 0.56082 0.9627 0.25894 0.0
C683 C 0.61566 0.99313 0.2543 0.0
C684 C 0.61498 0.97924 0.22023 0.0
C685 C 0.58714 0.95647 0.20601 0.0
C686 C 0.56026 0.948 0.22544 0.0
C687 C 0.64295 0.99159 0.19766 0.0
C688 C 0.64355 0.00562 0.16372 0.0
C689 C 0.67012 0.99447 0.21226 0.0
C690 C 0.67025 0.97785 0.24637 0.0
C691 C 0.64958 0.94658 0.25001 0.0
C692 C 0.65023 0.93077 0.28158 0.0
C693 C 0.67159 0.94592 0.30967 0.0
C694 C 0.69222 0.97695 0.30637 0.0
C695 C 0.69157 0.99291 0.27495 0.0
H696 H 0.67201 0.93365 0.33413 0.0
H697 H 0.67258 0.08708 0.02404 0.0
H698 H 0.98362 0.55362 0.30708 0.0
H699 H 0.96042 0.57537 0.26771 0.0
H700 H 0.03224 0.60248 0.18708 0.0
H701 H 0.05603 0.58083 0.22662 0.0
H702 H 0.00883 0.64583 0.20004 0.0
H703 H 0.97575 0.54214 0.16581 0.0
H704 H 0.9588 0.48881 0.18154 0.0
H705 H 0.87999 0.48076 0.23595 0.0
H706 H 0.89669 0.53418 0.2209 0.0
H707 H 0.90378 0.64591 0.0595 0.0
H708 H 0.94467 0.64389 0.09348 0.0
H709 H 0.88297 0.59698 0.18413 0.0
H710 H 0.84227 0.59846 0.1503 0.0
H711 H 0.90783 0.56518 0.15617 0.0
H712 H 0.94165 0.66885 0.1941 0.0
H713 H 0.95974 0.72313 0.18325 0.0
H714 H 0.0369 0.73196 0.1237 0.0
H715 H 0.01903 0.6776 0.13378 0.0
C716 C 0.99474 0.56443 0.28118 0.0
C717 C 0.02133 0.5649 0.26959 0.0
C718 C 0.98157 0.57707 0.25889 0.0
C719 C 0.99453 0.5902 0.22445 0.0
C720 C 0.02203 0.59245 0.21367 0.0
C721 C 0.0354 0.57988 0.23615 0.0
C722 C 0.977 0.59781 0.19826 0.0
C723 C 0.98699 0.62828 0.18972 0.0
C724 C 0.94855 0.5748 0.18512 0.0
C725 C 0.93758 0.5422 0.19243 0.0
C726 C 0.95485 0.52901 0.18122 0.0
C727 C 0.94531 0.49878 0.19006 0.0
C728 C 0.91843 0.48146 0.20994 0.0
C729 C 0.90087 0.49424 0.22068 0.0
C730 C 0.91031 0.52446 0.21188 0.0
C731 C 0.8993 0.636 0.08715 0.0
C732 C 0.86987 0.62203 0.10218 0.0
C733 C 0.9226 0.63479 0.10645 0.0
C734 C 0.91667 0.61996 0.14109 0.0
C735 C 0.88788 0.6082 0.15724 0.0
C736 C 0.86469 0.60913 0.13794 0.0
C737 C 0.93893 0.61345 0.15906 0.0
C738 C 0.92986 0.5829 0.16579 0.0
C739 C 0.96812 0.63646 0.17037 0.0
C740 C 0.9788 0.66908 0.16427 0.0
C741 C 0.96231 0.6823 0.17836 0.0
C742 C 0.97256 0.71309 0.17243 0.0
C743 C -0.00061 0.73096 0.15268 0.0
C744 C 0.01608 0.71808 0.13892 0.0
C745 C 0.00591 0.68729 0.14475 0.0
H746 H 0.0073 0.7548 0.14813 0.0
H747 H 0.9111 0.45807 0.2168 0.0
H748 H 0.35878 0.21878 0.14271 0.0
H749 H 0.35813 0.26285 0.16874 0.0
H750 H 0.34431 0.28794 0.05865 0.0
H751 H 0.34417 0.24324 0.03247 0.0
H752 H 0.40085 0.32967 0.0968 0.0
H753 H 0.2947 0.28034 0.11434 0.0
H754 H 0.2441 0.23932 0.13325 0.0
H755 H 0.27321 0.2503 0.24749 0.0
H756 H 0.32414 0.29108 0.22923 0.0
H757 H 0.3948 0.44801 0.23092 0.0
H758 H 0.37031 0.40582 0.18681 0.0
H759 H 0.43758 0.3804 0.21081 0.0
H760 H 0.46224 0.42244 0.25507 0.0
H761 H 0.3457 0.34407 0.20169 0.0
H762 H 0.45285 0.35545 0.12991 0.0
H763 H 0.50406 0.3956 0.11171 0.0
H764 H 0.47294 0.45978 0.10454 0.0
H765 H 0.42142 0.41995 0.12246 0.0
C766 C 0.35425 0.23297 0.12435 0.0
C767 C 0.35151 0.22778 0.08574 0.0
C768 C 0.35385 0.25807 0.13919 0.0
C769 C 0.35132 0.27862 0.11549 0.0
C770 C 0.34619 0.2722 0.07724 0.0
C771 C 0.34592 0.24663 0.06243 0.0
C772 C 0.36014 0.30907 0.12997 0.0
C773 C 0.38859 0.33307 0.11929 0.0
C774 C 0.34394 0.31329 0.15909 0.0
C775 C 0.31333 0.28874 0.17035 0.0
C776 C 0.29041 0.27387 0.14346 0.0
C777 C 0.26164 0.25068 0.15408 0.0
C778 C 0.25545 0.24219 0.19154 0.0
C779 C 0.27802 0.25691 0.21848 0.0
C780 C 0.30684 0.28012 0.20801 0.0
C781 C 0.40453 0.43356 0.22669 0.0
C782 C 0.43052 0.4386 0.24652 0.0
C783 C 0.39044 0.40946 0.20153 0.0
C784 C 0.40234 0.39028 0.19533 0.0
C785 C 0.42831 0.39527 0.2149 0.0
C786 C 0.44225 0.41917 0.24034 0.0
C787 C 0.38703 0.36416 0.16964 0.0
C788 C 0.35756 0.341 0.17846 0.0
C789 C 0.4024 0.36058 0.13893 0.0
C790 C 0.43327 0.3847 0.12774 0.0
C791 C 0.45687 0.37808 0.12425 0.0
C792 C 0.48598 0.4008 0.11401 0.0
C793 C 0.49176 0.43022 0.10692 0.0
C794 C 0.46844 0.43699 0.11011 0.0
C795 C 0.43929 0.41436 0.12041 0.0
H796 H 0.51429 0.44777 0.09896 0.0
H797 H 0.23316 0.22424 0.1997 0.0
H798 H 0.64894 0.74887 0.61593 0.0
H799 H 0.63038 0.70052 0.58366 0.0
H800 H 0.69801 0.74481 0.49804 0.0
H801 H 0.717 0.79351 0.53029 0.0
H802 H 0.63737 0.70551 0.47157 0.0
H803 H 0.7095 0.70301 0.55536 0.0
H804 H 0.73399 0.70858 0.61648 0.0
H805 H 0.65013 0.63795 0.66176 0.0
H806 H 0.62499 0.63224 0.60106 0.0
H807 H 0.57863 0.56279 0.39098 0.0
H808 H 0.62175 0.60476 0.42295 0.0
H809 H 0.56568 0.59125 0.51932 0.0
H810 H 0.52251 0.5496 0.48753 0.0
H811 H 0.63185 0.61586 0.53451 0.0
H812 H 0.55977 0.63762 0.4685 0.0
H813 H 0.52662 0.62638 0.41375 0.0
H814 H 0.60315 0.65612 0.34096 0.0
H815 H 0.63697 0.66761 0.39557 0.0
C816 C 0.65987 0.74843 0.5902 0.0
C817 C 0.68444 0.77505 0.57565 0.0
C818 C 0.64938 0.72074 0.57197 0.0
C819 C 0.66314 0.71915 0.53881 0.0
C820 C 0.68732 0.74566 0.52379 0.0
C821 C 0.69809 0.77339 0.54226 0.0
C822 C 0.65127 0.68976 0.51942 0.0
C823 C 0.63709 0.68618 0.48476 0.0
C824 C 0.65015 0.66437 0.53723 0.0
C825 C 0.66533 0.66729 0.57364 0.0
C826 C 0.69623 0.68876 0.57839 0.0
C827 C 0.71024 0.69194 0.61297 0.0
C828 C 0.69362 0.67365 0.64299 0.0
C829 C 0.66298 0.65208 0.63847 0.0
C830 C 0.64885 0.64883 0.60395 0.0
C831 C 0.57587 0.56794 0.41956 0.0
C832 C 0.5472 0.55341 0.43663 0.0
C833 C 0.60052 0.59183 0.43779 0.0
C834 C 0.59672 0.60109 0.47331 0.0
C835 C 0.56904 0.58425 0.49201 0.0
C836 C 0.54435 0.5607 0.47367 0.0
C837 C 0.61817 0.63188 0.48694 0.0
C838 C 0.63356 0.6356 0.52064 0.0
C839 C 0.62001 0.6574 0.46878 0.0
C840 C 0.60081 0.65365 0.43596 0.0
C841 C 0.56957 0.64213 0.44079 0.0
C842 C 0.55068 0.63566 0.4098 0.0
C843 C 0.56282 0.64082 0.37382 0.0
C844 C 0.59393 0.65254 0.36885 0.0
C845 C 0.613 0.6591 0.3998 0.0
H846 H 0.54811 0.63563 0.34984 0.0
H847 H 0.70449 0.67618 0.66976 0.0
H848 H 0.4062 0.97387 0.37251 0.0
H849 H 0.36543 0.97182 0.41107 0.0
H850 H 0.41887 0.98441 0.50997 0.0
H851 H 0.45908 0.98563 0.47158 0.0
H852 H 0.36704 0.92967 0.50709 0.0
H853 H 0.39579 0.03478 0.48844 0.0
H854 H 0.40859 0.07988 0.45011 0.0
H855 H 0.32122 0.03252 0.39745 0.0
H856 H 0.30801 0.987 0.43517 0.0
H857 H 0.25517 0.89988 0.64016 0.0
H858 H 0.30222 0.92617 0.60423 0.0
H859 H 0.25171 0.92658 0.50765 0.0
H860 H 0.20489 0.90176 0.54408 0.0
H861 H 0.30264 0.97724 0.50914 0.0
H862 H 0.27379 0.87278 0.5212 0.0
H863 H 0.25937 0.82455 0.55328 0.0
H864 H 0.34492 0.86649 0.61046 0.0
H865 H 0.35968 0.91512 0.57915 0.0
C866 C 0.40974 0.97777 0.40228 0.0
C867 C 0.43552 0.97989 0.41934 0.0
C868 C 0.38647 0.97652 0.4243 0.0
C869 C 0.38911 0.97771 0.46339 0.0
C870 C 0.41643 0.98338 0.47988 0.0
C871 C 0.4394 0.98422 0.458 0.0
C872 C 0.36186 0.96675 0.48708 0.0
C873 C 0.35332 0.94049 0.50823 0.0
C874 C 0.3432 0.97994 0.48683 0.0
C875 C 0.35099 0.00742 0.46447 0.0
C876 C 0.37938 0.03391 0.46852 0.0
C877 C 0.38669 0.05957 0.44694 0.0
C878 C 0.36576 0.05905 0.42132 0.0
C879 C 0.33742 0.03289 0.4173 0.0
C880 C 0.32998 0.00718 0.43883 0.0
C881 C 0.2542 0.90567 0.61129 0.0
C882 C 0.22645 0.8985 0.5947 0.0
C883 C 0.28103 0.92069 0.59079 0.0
C884 C 0.28041 0.92783 0.55301 0.0
C885 C 0.25276 0.92133 0.53673 0.0
C886 C 0.22603 0.90698 0.55748 0.0
C887 C 0.30829 0.94059 0.52999 0.0
C888 C 0.31666 0.96676 0.50852 0.0
C889 C 0.32658 0.92692 0.52912 0.0
C890 C 0.31772 0.89767 0.54805 0.0
C891 C 0.28945 0.87177 0.54077 0.0
C892 C 0.28123 0.84436 0.5588 0.0
C893 C 0.3012 0.84247 0.58391 0.0
C894 C 0.32946 0.86799 0.59102 0.0
C895 C 0.33776 0.89549 0.57315 0.0
H896 H 0.29479 0.82122 0.59782 0.0
H897 H 0.37148 0.07892 0.40461 0.0
H898 H 0.09561 0.27406 0.5589 0.0
H899 H 0.06768 0.29116 0.51958 0.0
H900 H 0.08403 0.36086 0.59997 0.0
H901 H 0.11199 0.34415 0.63926 0.0
H902 H 0.0242 0.32947 0.57467 0.0
H903 H 0.12667 0.37936 0.52596 0.0
H904 H 0.17234 0.38229 0.49823 0.0
H905 H 0.1201 0.33015 0.40404 0.0
H906 H 0.07396 0.32656 0.43153 0.0
H907 H 0.04404 0.46334 0.49591 0.0
H908 H 0.04241 0.41957 0.52616 0.0
H909 H 0.00981 0.36819 0.42406 0.0
H910 H 0.01068 0.41194 0.39382 0.0
H911 H 0.06537 0.37572 0.45111 0.0
H912 H 0.96585 0.33964 0.49544 0.0
H913 H 0.92311 0.34229 0.52361 0.0
H914 H 0.97195 0.37295 0.6269 0.0
H915 H 0.01522 0.37096 0.59923 0.0
C916 C 0.0932 0.29299 0.56822 0.0
C917 C 0.10618 0.30789 0.60209 0.0
C918 C 0.07725 0.30269 0.54574 0.0
C919 C 0.07382 0.3272 0.55698 0.0
C920 C 0.08634 0.34178 0.59097 0.0
C921 C 0.10253 0.33236 0.61321 0.0
C922 C 0.0582 0.3387 0.53301 0.0
C923 C 0.03304 0.33951 0.54757 0.0
C924 C 0.06925 0.35082 0.49717 0.0
C925 C 0.09677 0.35222 0.48112 0.0
C926 C 0.12483 0.36815 0.49959 0.0
C927 C 0.15083 0.37004 0.48385 0.0
C928 C 0.14912 0.35632 0.44945 0.0
C929 C 0.12138 0.34068 0.43074 0.0
C930 C 0.09529 0.33869 0.4464 0.0
C931 C 0.03553 0.44236 0.48035 0.0
C932 C 0.02753 0.4409 0.44265 0.0
C933 C 0.03447 0.41735 0.49764 0.0
C934 C 0.0259 0.39068 0.47733 0.0
C935 C 0.01622 0.38853 0.44022 0.0
C936 C 0.01664 0.41343 0.42308 0.0
C937 C 0.0321 0.36763 0.49342 0.0
C938 C 0.05564 0.36465 0.47751 0.0
C939 C 0.01983 0.35393 0.52821 0.0
C940 C 0.99387 0.35521 0.54515 0.0
C941 C 0.9676 0.34716 0.52408 0.0
C942 C 0.94324 0.34851 0.53999 0.0
C943 C 0.94482 0.3578 0.57702 0.0
C944 C 0.97075 0.36573 0.59823 0.0
C945 C 0.99518 0.36443 0.58246 0.0
H946 H 0.92593 0.35882 0.58928 0.0
H947 H 0.16931 0.35791 0.43724 0.0
H948 H 0.21052 0.2764 0.56643 0.0
H949 H 0.25804 0.29397 0.53261 0.0
H950 H 0.30664 0.35746 0.62124 0.0
H951 H 0.25907 0.34067 0.65464 0.0
H952 H 0.32062 0.38493 0.55767 0.0
H953 H 0.31378 0.29406 0.60371 0.0
H954 H 0.28929 0.23921 0.61647 0.0
H955 H 0.28092 0.22053 0.49892 0.0
H956 H 0.30483 0.27526 0.48535 0.0
H957 H 0.45846 0.44606 0.47782 0.0
H958 H 0.42286 0.40718 0.52067 0.0
H959 H 0.36297 0.36018 0.42862 0.0
H960 H 0.39904 0.39889 0.38549 0.0
H961 H 0.35837 0.32204 0.49796 0.0
H962 H 0.35247 0.41098 0.45566 0.0
H963 H 0.37667 0.46561 0.44196 0.0
H964 H 0.40891 0.48666 0.55483 0.0
H965 H 0.38515 0.43192 0.56903 0.0
C966 C 0.23137 0.29397 0.57881 0.0
C967 C 0.23106 0.3075 0.61289 0.0
C968 C 0.25856 0.30375 0.55964 0.0
C969 C 0.28594 0.32679 0.57459 0.0
C970 C 0.28575 0.33965 0.6092 0.0
C971 C 0.25855 0.33019 0.62811 0.0
C972 C 0.31418 0.33984 0.55234 0.0
C973 C 0.32914 0.37112 0.54545 0.0
C974 C 0.32495 0.32178 0.53551 0.0
C975 C 0.31094 0.28882 0.54352 0.0
C976 C 0.30655 0.27827 0.58056 0.0
C977 C 0.29278 0.24718 0.58795 0.0
C978 C 0.28353 0.22639 0.55855 0.0
C979 C 0.28809 0.23666 0.52167 0.0
C980 C 0.30178 0.26773 0.51411 0.0
C981 C 0.43853 0.42645 0.46656 0.0
C982 C 0.43125 0.42524 0.42865 0.0
C983 C 0.41827 0.40424 0.49097 0.0
C984 C 0.39021 0.3811 0.47778 0.0
C985 C 0.38465 0.37776 0.43921 0.0
C986 C 0.40516 0.39988 0.41463 0.0
C987 C 0.36442 0.36681 0.50392 0.0
C988 C 0.34992 0.33556 0.51108 0.0
C989 C 0.35384 0.3847 0.5213 0.0
C990 C 0.36733 0.4175 0.51326 0.0
C991 C 0.36483 0.42729 0.47748 0.0
C992 C 0.37844 0.45826 0.46964 0.0
C993 C 0.39438 0.47966 0.49745 0.0
C994 C 0.39659 0.47007 0.53328 0.0
C995 C 0.38304 0.43908 0.54126 0.0
H996 H 0.40498 0.50365 0.49126 0.0
H997 H 0.27283 0.20233 0.56434 0.0
H998 H 0.58772 0.01554 0.392 0.0
H999 H 0.63493 0.02676 0.4235 0.0
H1000 H 0.58341 0.96083 0.50842 0.0
H1001 H 0.53643 0.95 0.47791 0.0
H1002 H 0.64368 0.01378 0.53177 0.0
H1003 H 0.59868 0.91908 0.43801 0.0
H1004 H 0.57521 0.90356 0.37558 0.0
H1005 H 0.64234 0.98945 0.3306 0.0
H1006 H 0.66665 0.00502 0.39251 0.0
H1007 H 0.65148 0.89276 0.60048 0.0
H1008 H 0.63962 0.92739 0.56766 0.0
H1009 H 0.71907 0.95772 0.49881 0.0
H1010 H 0.73123 0.92288 0.53144 0.0
H1011 H 0.66699 0.94494 0.45887 0.0
H1012 H 0.72216 0.00576 0.56193 0.0
H1013 H 0.73745 0.01592 0.62801 0.0
H1014 H 0.64781 0.99609 0.65821 0.0
H1015 H 0.63178 0.98529 0.59242 0.0
C1016 C 0.58647 0.00427 0.41813 0.0
C1017 C 0.55848 0.98124 0.43198 0.0
C1018 C 0.61343 0.01076 0.43607 0.0
C1019 C 0.61251 0.99418 0.46778 0.0
C1020 C 0.58452 0.97385 0.48393 0.0
C1021 C 0.5577 0.96737 0.46615 0.0
C1022 C 0.63892 0.9916 0.47907 0.0
C1023 C 0.64982 -0.00036 0.51561 0.0
C1024 C 0.64701 0.97342 0.45758 0.0
C1025 C 0.63446 0.96312 0.41968 0.0
C1026 C 0.60868 0.93439 0.41459 0.0
C1027 C 0.59521 0.92562 0.37935 0.0
C1028 C 0.60731 0.9455 0.34911 0.0
C1029 C 0.63306 0.97404 0.35399 0.0
C1030 C 0.64684 0.98274 0.38904 0.0
C1031 C 0.66642 0.90662 0.57827 0.0
C1032 C 0.69235 0.90506 0.5687 0.0
C1033 C 0.65977 0.92663 0.55979 0.0
C1034 C 0.6789 0.94556 0.53147 0.0
C1035 C 0.7043 0.94353 0.52096 0.0
C1036 C 0.7111 0.92355 0.53958 0.0
C1037 C 0.67113 0.96637 0.51217 0.0
C1038 C 0.66318 0.96106 0.47435 0.0
C1039 C 0.66609 0.98731 0.53251 0.0
C1040 C 0.67578 0.99475 0.5721 0.0
C1041 C 0.70567 0.00351 0.58265 0.0
C1042 C 0.71447 0.00935 0.62008 0.0
C1043 C 0.69362 0.00665 0.64729 0.0
C1044 C 0.66395 -0.00178 0.63709 0.0
C1045 C 0.65502 0.99231 0.59969 0.0
H1046 H 0.70044 0.01108 0.67628 0.0
H1047 H 0.59675 0.93878 0.32191 0.0
H1048 H 0.99171 0.56431 0.40241 0.0
H1049 H 0.98649 0.60574 0.42973 0.0
H1050 H 0.04713 0.61418 0.51879 0.0
H1051 H 0.05225 0.57291 0.49216 0.0
H1052 H 0.99068 0.62405 0.53421 0.0
H1053 H 0.10054 0.6797 0.4656 0.0
H1054 H 0.12705 0.67592 0.40993 0.0
H1055 H 0.04839 0.65217 0.34286 0.0
H1056 H 0.02168 0.65638 0.39811 0.0
H1057 H 0.1034 0.75072 0.62135 0.0
H1058 H 0.07214 0.7051 0.58537 0.0
H1059 H 0.05203 0.75669 0.50665 0.0
H1060 H 0.08362 0.80315 0.54289 0.0
H1061 H 0.07153 0.71787 0.47453 0.0
H1062 H 0.99622 0.71006 0.55997 0.0
H1063 H 0.97734 0.71336 0.62216 0.0
H1064 H 0.9914 0.64175 0.66187 0.0
H1065 H 0.0109 0.63836 0.60017 0.0
C1066 C 0.00302 0.57426 0.42855 0.0
C1067 C 0.02274 0.56571 0.44491 0.0
C1068 C 9e-05 0.59795 0.444 0.0
C1069 C 0.01672 0.61309 0.47594 0.0
C1070 C 0.03411 0.60267 0.49412 0.0
C1071 C 0.03714 0.57921 0.47874 0.0
C1072 C 0.02073 0.64273 0.48724 0.0
C1073 C 0.00762 0.64472 0.52074 0.0
C1074 C 0.04295 0.66951 0.46952 0.0
C1075 C 0.05914 0.66821 0.43588 0.0
C1076 C 0.08903 0.67388 0.43889 0.0
C1077 C 0.10406 0.67161 0.40746 0.0
C1078 C 0.08938 0.66369 0.3729 0.0
C1079 C 0.05972 0.65826 0.36966 0.0
C1080 C 0.04464 0.66063 0.40099 0.0
C1081 C 0.09243 0.75259 0.5964 0.0
C1082 C 0.09616 0.78069 0.5849 0.0
C1083 C 0.07428 0.72635 0.57607 0.0
C1084 C 0.05938 0.72748 0.54378 0.0
C1085 C 0.06313 0.75541 0.5318 0.0
C1086 C 0.08119 0.78185 0.55245 0.0
C1087 C 0.04165 0.69939 0.52183 0.0
C1088 C 0.05293 0.69761 0.48682 0.0
C1089 C 0.01784 0.67286 0.53839 0.0
C1090 C 0.00502 0.67395 0.57529 0.0
C1091 C 0.99535 0.69504 0.58197 0.0
C1092 C 0.98458 0.69696 0.61718 0.0
C1093 C 0.98321 0.6778 0.64597 0.0
C1094 C 0.99247 0.65657 0.63954 0.0
C1095 C 0.00331 0.65459 0.6044 0.0
H1096 H 0.97498 0.67941 0.67324 0.0
H1097 H 0.10101 0.66182 0.34864 0.0
H1098 H 0.48722 0.17374 0.08886 0.0
H1099 H 0.52849 0.16292 0.09687 0.0
H1100 H 0.53046 0.15051 0.97801 0.0
H1101 H 0.48879 0.16054 0.96974 0.0
H1102 H 0.54117 0.11094 0.01483 0.0
H1103 H 0.57802 0.21879 0.01872 0.0
H1104 H 0.58008 0.26539 0.04209 0.0
H1105 H 0.60301 0.24875 0.15149 0.0
H1106 H 0.60067 0.20179 0.12884 0.0
H1107 H 0.69619 0.16074 0.97706 0.0
H1108 H 0.6438 0.14951 0.9821 0.0
H1109 H 0.65287 0.15882 0.10176 0.0
H1110 H 0.70531 0.17029 0.09711 0.0
H1111 H 0.63409 0.19499 0.07198 0.0
H1112 H 0.60415 0.08977 0.06358 0.0
H1113 H 0.60355 0.04467 0.03721 0.0
H1114 H 0.57006 0.05806 0.93322 0.0
H1115 H 0.57058 0.10332 0.95886 0.0
C1116 C 0.49622 0.16846 0.06442 0.0
C1117 C 0.48505 0.16861 0.02855 0.0
C1118 C 0.51979 0.16223 0.06908 0.0
C1119 C 0.53288 0.15644 0.03795 0.0
C1120 C 0.52073 0.15498 0.0024 0.0
C1121 C 0.49704 0.16098 0.99772 0.0
C1122 C 0.56087 0.15459 0.04184 0.0
C1123 C 0.56154 0.1293 0.02725 0.0
C1124 C 0.58728 0.17835 0.05859 0.0
C1125 C 0.58881 0.20662 0.07221 0.0
C1126 C 0.58327 0.22496 0.04782 0.0
C1127 C 0.58453 0.25145 0.06092 0.0
C1128 C 0.59158 0.25998 0.09828 0.0
C1129 C 0.59748 0.24208 0.12258 0.0
C1130 C 0.59621 0.21553 0.10963 0.0
C1131 C 0.68694 0.15994 0.00453 0.0
C1132 C 0.70516 0.16691 0.03662 0.0
C1133 C 0.65688 0.15325 0.00737 0.0
C1134 C 0.64445 0.15327 0.04233 0.0
C1135 C 0.66207 0.15873 0.07453 0.0
C1136 C 0.69208 0.16533 0.07175 0.0
C1137 C 0.61456 0.15143 0.04476 0.0
C1138 C 0.61359 0.17622 0.06033 0.0
C1139 C 0.5881 0.12738 0.02856 0.0
C1140 C 0.5876 0.10007 0.01308 0.0
C1141 C 0.59687 0.08323 0.035 0.0
C1142 C 0.5965 0.05761 0.0202 0.0
C1143 C 0.5869 0.0486 0.98353 0.0
C1144 C 0.57752 0.06509 0.96161 0.0
C1145 C 0.57775 0.09067 0.9763 0.0
H1146 H 0.5866 0.02876 0.97212 0.0
H1147 H 0.59255 0.28049 0.10837 0.0
H1148 H 0.79586 0.49482 0.06888 0.0
H1149 H 0.808 0.45423 0.06841 0.0
H1150 H 0.81613 0.46011 0.94845 0.0
H1151 H 0.80344 0.50051 0.94846 0.0
H1152 H 0.78147 0.40263 0.97155 0.0
H1153 H 0.87984 0.48579 0.00307 0.0
H1154 H 0.91524 0.53147 0.03872 0.0
H1155 H 0.88988 0.47946 0.13995 0.0
H1156 H 0.85441 0.43352 0.10502 0.0
H1157 H 0.82788 0.29467 0.96208 0.0
H1158 H 0.83287 0.34479 0.95752 0.0
H1159 H 0.82037 0.34549 0.07649 0.0
H1160 H 0.81578 0.29547 0.08154 0.0
H1161 H 0.86176 0.40222 0.04968 0.0
H1162 H 0.76068 0.32154 0.02089 0.0
H1163 H 0.72269 0.27569 0.98767 0.0
H1164 H 0.7507 0.32327 0.88327 0.0
H1165 H 0.78917 0.36931 0.91586 0.0
C1166 C 0.80037 0.48767 0.04234 0.0
C1167 C 0.79857 0.50089 0.00867 0.0
C1168 C 0.80754 0.46459 0.04219 0.0
C1169 C 0.81339 0.4545 0.00844 0.0
C1170 C 0.81182 0.46772 0.9748 0.0
C1171 C 0.80454 0.49077 0.97488 0.0
C1172 C 0.81924 0.42883 0.00827 0.0
C1173 C 0.79948 0.4028 0.98793 0.0
C1174 C 0.84222 0.42885 0.03049 0.0
C1175 C 0.86438 0.45623 0.05142 0.0
C1176 C 0.88183 0.48411 0.03296 0.0
C1177 C 0.90196 0.51005 0.05305 0.0
C1178 C 0.90488 0.50838 0.09162 0.0
C1179 C 0.88778 0.48073 0.11011 0.0
C1180 C 0.86772 0.4547 0.09016 0.0
C1181 C 0.8266 0.3056 0.9874 0.0
C1182 C 0.82085 0.29079 0.0221 0.0
C1183 C 0.82953 0.33428 0.98471 0.0
C1184 C 0.82645 0.34852 0.01657 0.0
C1185 C 0.82273 0.33477 0.05157 0.0
C1186 C 0.81996 0.30612 0.05435 0.0
C1187 C 0.82398 0.37613 0.01292 0.0
C1188 C 0.84419 0.40236 0.03271 0.0
C1189 C 0.80127 0.37632 0.99036 0.0
C1190 C 0.77802 0.34874 0.97075 0.0
C1191 C 0.75888 0.32215 0.99082 0.0
C1192 C 0.73725 0.29614 0.97211 0.0
C1193 C 0.73435 0.29654 0.93337 0.0
C1194 C 0.75301 0.32298 0.91327 0.0
C1195 C 0.77473 0.34903 0.93184 0.0
H1196 H 0.71758 0.27638 0.91894 0.0
H1197 H 0.92036 0.5285 0.10715 0.0
H1198 H 0.67488 0.52784 0.9555 0.0
H1199 H 0.62069 0.4902 0.95375 0.0
H1200 H 0.6297 0.45301 0.05821 0.0
H1201 H 0.68284 0.49154 0.06111 0.0
H1202 H 0.59458 0.43621 0.94405 0.0
H1203 H 0.56915 0.41389 0.1065 0.0
H1204 H 0.57656 0.44452 0.16293 0.0
H1205 H 0.58854 0.51936 0.09536 0.0
H1206 H 0.58089 0.48916 0.03843 0.0
H1207 H 0.51162 0.28369 0.97459 0.0
H1208 H 0.54616 0.33826 0.97131 0.0
H1209 H 0.48221 0.35368 0.03312 0.0
H1210 H 0.44869 0.29865 0.03896 0.0
H1211 H 0.53129 0.39107 0.05672 0.0
H1212 H 0.49834 0.37147 0.93475 0.0
H1213 H 0.48259 0.34589 0.87373 0.0
H1214 H 0.57341 0.36475 0.85303 0.0
H1215 H 0.58967 0.39002 0.91419 0.0
C1216 C 0.66501 0.51191 0.97836 0.0
C1217 C 0.68306 0.51254 0.00839 0.0
C1218 C 0.63404 0.49041 0.97739 0.0
C1219 C 0.62073 0.46878 0.00605 0.0
C1220 C 0.63883 0.46992 0.03632 0.0
C1221 C 0.66947 0.49181 0.03775 0.0
C1222 C 0.58927 0.44263 0.00251 0.0
C1223 C 0.58054 0.42664 0.9686 0.0
C1224 C 0.56964 0.43082 0.03369 0.0
C1225 C 0.57451 0.44918 0.06804 0.0
C1226 C 0.5732 0.43682 0.10358 0.0
C1227 C 0.57754 0.45416 0.1357 0.0
C1228 C 0.58314 0.48391 0.13271 0.0
C1229 C 0.58439 0.49638 0.0976 0.0
C1230 C 0.58011 0.47917 0.06539 0.0
C1231 C 0.50496 0.2988 0.98731 0.0
C1232 C 0.47764 0.28715 0.00697 0.0
C1233 C 0.52452 0.33006 0.98507 0.0
C1234 C 0.51656 0.35041 0.00099 0.0
C1235 C 0.48896 0.33864 0.02044 0.0
C1236 C 0.46981 0.30724 0.02376 0.0
C1237 C 0.53821 0.38371 0.99919 0.0
C1238 C 0.54488 0.40108 0.03197 0.0
C1239 C 0.55466 0.39773 0.96625 0.0
C1240 C 0.54522 0.38265 0.9292 0.0
C1241 C 0.51495 0.37005 0.91729 0.0
C1242 C 0.50592 0.35559 0.88265 0.0
C1243 C 0.52699 0.3537 0.85952 0.0
C1244 C 0.55713 0.36628 0.87097 0.0
C1245 C 0.56628 0.38074 0.90561 0.0
H1246 H 0.51995 0.34249 0.83271 0.0
H1247 H 0.58647 0.49728 0.1576 0.0
H1248 H 0.35708 0.49567 0.4124 0.0
H1249 H 0.30459 0.48419 0.41161 0.0
H1250 H 0.29822 0.46166 0.2946 0.0
H1251 H 0.35094 0.47336 0.29508 0.0
H1252 H 0.2855 0.50472 0.30604 0.0
H1253 H 0.25305 0.40829 0.36007 0.0
H1254 H 0.25247 0.37072 0.40395 0.0
H1255 H 0.23331 0.41368 0.49468 0.0
H1256 H 0.23416 0.45178 0.45148 0.0
H1257 H 0.14333 0.49542 0.29876 0.0
H1258 H 0.1803 0.47832 0.29653 0.0
H1259 H 0.20119 0.50117 0.41286 0.0
H1260 H 0.16357 0.51759 0.41565 0.0
H1261 H 0.2014 0.4494 0.39599 0.0
H1262 H 0.2459 0.55117 0.3444 0.0
H1263 H 0.24868 0.59041 0.30164 0.0
H1264 H 0.24619 0.53712 0.20734 0.0
H1265 H 0.24347 0.49753 0.24965 0.0
C1266 C 0.34428 0.48737 0.38675 0.0
C1267 C 0.35829 0.48574 0.35369 0.0
C1268 C 0.31415 0.48066 0.38639 0.0
C1269 C 0.29742 0.47196 0.35307 0.0
C1270 C 0.31074 0.46834 0.32062 0.0
C1271 C 0.34091 0.4752 0.3209 0.0
C1272 C 0.26838 0.47193 0.3507 0.0
C1273 C 0.26677 0.49191 0.32507 0.0
C1274 C 0.24431 0.45591 0.37624 0.0
C1275 C 0.24393 0.43311 0.40248 0.0
C1276 C 0.24899 0.40993 0.38942 0.0
C1277 C 0.24853 0.38847 0.41418 0.0
C1278 C 0.24291 0.38984 0.45209 0.0
C1279 C 0.23768 0.41265 0.46531 0.0
C1280 C 0.23808 0.43416 0.44067 0.0
C1281 C 0.15572 0.49675 0.32393 0.0
C1282 C 0.15091 0.50837 0.35724 0.0
C1283 C 0.17676 0.48686 0.32262 0.0
C1284 C 0.19381 0.48893 0.35437 0.0
C1285 C 0.18825 0.49939 0.38804 0.0
C1286 C 0.16691 0.50896 0.38951 0.0
C1287 C 0.21906 0.48249 0.3518 0.0
C1288 C 0.21994 0.46152 0.37651 0.0
C1289 C 0.24269 0.49765 0.32557 0.0
C1290 C 0.24412 0.52129 0.30013 0.0
C1291 C 0.24573 0.54774 0.31454 0.0
C1292 C 0.24734 0.57006 0.29039 0.0
C1293 C 0.24741 0.5662 0.25178 0.0
C1294 C 0.24605 0.54005 0.23725 0.0
C1295 C 0.24455 0.5177 0.26129 0.0
H1296 H 0.24865 0.58351 0.23313 0.0
H1297 H 0.24256 0.3732 0.47121 0.0
H1298 H 0.49794 0.83988 0.30096 0.0
H1299 H 0.50147 0.79406 0.30714 0.0
H1300 H 0.4865 0.79294 0.4257 0.0
H1301 H 0.48309 0.83908 0.41997 0.0
H1302 H 0.52822 0.77346 0.40607 0.0
H1303 H 0.42797 0.75189 0.37568 0.0
H1304 H 0.38923 0.75728 0.34074 0.0
H1305 H 0.41358 0.72864 0.24022 0.0
H1306 H 0.45284 0.72356 0.27447 0.0
H1307 H 0.46635 0.61083 0.42195 0.0
H1308 H 0.47601 0.66299 0.42612 0.0
H1309 H 0.49147 0.67364 0.30737 0.0
H1310 H 0.4822 0.62191 0.30287 0.0
H1311 H 0.44873 0.68811 0.33221 0.0
H1312 H 0.55104 0.71209 0.36367 0.0
H1313 H 0.58953 0.70717 0.39991 0.0
H1314 H 0.55856 0.7285 0.50071 0.0
H1315 H 0.52012 0.73398 0.46498 0.0
C1316 C 0.49587 0.83027 0.32851 0.0
C1317 C 0.48962 0.84287 0.35987 0.0
C1318 C 0.49795 0.80408 0.33196 0.0
C1319 C 0.4937 0.78988 0.36676 0.0
C1320 C 0.48972 0.80355 0.39859 0.0
C1321 C 0.48766 0.82985 0.39518 0.0
C1322 C 0.49021 0.75925 0.36889 0.0
C1323 C 0.51065 0.75467 0.39031 0.0
C1324 C 0.46729 0.73481 0.34827 0.0
C1325 C 0.44356 0.73764 0.32758 0.0
C1326 C 0.42524 0.74698 0.34606 0.0
C1327 C 0.40316 0.74995 0.32639 0.0
C1328 C 0.399 0.74337 0.28826 0.0
C1329 C 0.41686 0.73376 0.26975 0.0
C1330 C 0.43902 0.73082 0.28928 0.0
C1331 C 0.47212 0.62438 0.39678 0.0
C1332 C 0.47326 0.61207 0.36203 0.0
C1333 C 0.47778 0.65421 0.39927 0.0
C1334 C 0.48449 0.67211 0.36705 0.0
C1335 C 0.48628 0.66013 0.33254 0.0
C1336 C 0.48086 0.63049 0.33005 0.0
C1337 C 0.48724 0.70243 0.36851 0.0
C1338 C 0.46636 0.70687 0.34798 0.0
C1339 C 0.50952 0.72649 0.39022 0.0
C1340 C 0.53255 0.72317 0.41173 0.0
C1341 C 0.55233 0.71557 0.3936 0.0
C1342 C 0.5742 0.71277 0.41402 0.0
C1343 C 0.57633 0.71728 0.45262 0.0
C1344 C 0.55682 0.72493 0.47082 0.0
C1345 C 0.5351 0.72805 0.45048 0.0
H1346 H 0.59315 0.71493 0.46841 0.0
H1347 H 0.38188 0.74567 0.27308 0.0
H1348 H 0.36646 0.84553 0.28978 0.0
H1349 H 0.31331 0.80572 0.29157 0.0
H1350 H 0.31678 0.80435 0.41185 0.0
H1351 H 0.36978 0.84462 0.41041 0.0
H1352 H 0.29421 0.75064 0.31576 0.0
H1353 H 0.24458 0.77673 0.44813 0.0
H1354 H 0.2496 0.82117 0.48201 0.0
H1355 H 0.28018 0.87446 0.38188 0.0
H1356 H 0.27454 0.83013 0.3471 0.0
H1357 H 0.15828 0.6328 0.41983 0.0
H1358 H 0.19981 0.68544 0.41828 0.0
H1359 H 0.1847 0.69008 0.30068 0.0
H1360 H 0.14336 0.63756 0.30174 0.0
H1361 H 0.21041 0.74411 0.39332 0.0
H1362 H 0.25423 0.71676 0.25946 0.0
H1363 H 0.24851 0.67195 0.22551 0.0
H1364 H 0.23069 0.62303 0.32875 0.0
H1365 H 0.23714 0.66774 0.36327 0.0
C1366 C 0.35585 0.83705 0.31667 0.0
C1367 C 0.37248 0.84803 0.34994 0.0
C1368 C 0.32543 0.81436 0.31763 0.0
C1369 C 0.31105 0.80214 0.35182 0.0
C1370 C 0.32726 0.81378 0.38516 0.0
C1371 C 0.35765 0.83667 0.38425 0.0
C1372 C 0.28029 0.77508 0.35235 0.0
C1373 C 0.27575 0.74955 0.33211 0.0
C1374 C 0.25644 0.77335 0.37454 0.0
C1375 C 0.25946 0.80011 0.39509 0.0
C1376 C 0.25223 0.79787 0.43327 0.0
C1377 C 0.25521 0.82308 0.45266 0.0
C1378 C 0.26541 0.8507 0.4342 0.0
C1379 C 0.27243 0.8531 0.39621 0.0
C1380 C 0.26934 0.82792 0.37664 0.0
C1381 C 0.1634 0.64516 0.39376 0.0
C1382 C 0.14802 0.63072 0.36069 0.0
C1383 C 0.18697 0.67533 0.39304 0.0
C1384 C 0.19548 0.69139 0.35928 0.0
C1385 C 0.17856 0.67788 0.32693 0.0
C1386 C 0.1551 0.64778 0.32757 0.0
C1387 C 0.22464 0.72015 0.35657 0.0
C1388 C 0.22889 0.74568 0.37659 0.0
C1389 C 0.24841 0.72209 0.33419 0.0
C1390 C 0.24573 0.69545 0.31384 0.0
C1391 C 0.2493 0.69649 0.27488 0.0
C1392 C 0.24597 0.67112 0.25555 0.0
C1393 C 0.23915 0.64462 0.27491 0.0
C1394 C 0.23594 0.64352 0.31371 0.0
C1395 C 0.23944 0.66888 0.33318 0.0
H1396 H 0.23638 0.62495 0.25985 0.0
H1397 H 0.26777 0.87021 0.44927 0.0
H1398 H 0.03649 0.85528 0.73317 0.0
H1399 H 0.9848 0.84625 0.73042 0.0
H1400 H 0.98732 0.84435 0.61014 0.0
H1401 H 0.03924 0.8538 0.61248 0.0
H1402 H 0.96646 0.88025 0.63483 0.0
H1403 H 0.94706 0.77961 0.65984 0.0
H1404 H 0.95262 0.74052 0.69378 0.0
H1405 H 0.91717 0.75867 0.79298 0.0
H1406 H 0.91175 0.79812 0.75991 0.0
H1407 H 0.81483 0.83523 0.60476 0.0
H1408 H 0.85859 0.82795 0.60746 0.0
H1409 H 0.86336 0.84055 0.72678 0.0
H1410 H 0.81946 0.8478 0.72458 0.0
H1411 H 0.87914 0.79663 0.70148 0.0
H1412 H 0.90117 0.89888 0.67708 0.0
H1413 H 0.89467 0.9373 0.64286 0.0
H1414 H 0.92656 0.91659 0.54239 0.0
H1415 H 0.93204 0.87713 0.5756 0.0
C1416 C 0.02607 0.85281 0.70609 0.0
C1417 C 0.04208 0.85535 0.67302 0.0
C1418 C -0.00356 0.84747 0.70461 0.0
C1419 C 0.98218 0.84431 0.67009 0.0
C1420 C -0.00203 0.84666 0.63706 0.0
C1421 C 0.02763 0.85206 0.63848 0.0
C1422 C 0.95131 0.84008 0.66842 0.0
C1423 C 0.94727 0.86165 0.64885 0.0
C1424 C 0.92651 0.81621 0.68756 0.0
C1425 C 0.92926 0.79207 0.70743 0.0
C1426 C 0.94063 0.77542 0.68898 0.0
C1427 C 0.94371 0.75314 0.70807 0.0
C1428 C 0.93527 0.74711 0.74556 0.0
C1429 C 0.92366 0.76331 0.76398 0.0
C1430 C 0.92055 0.78562 0.74506 0.0
C1431 C 0.82473 0.83588 0.63173 0.0
C1432 C 0.81405 0.8428 0.66436 0.0
C1433 C 0.84968 0.83159 0.63318 0.0
C1434 C 0.86435 0.8342 0.66722 0.0
C1435 C 0.85229 0.83854 0.70025 0.0
C1436 C 0.82735 0.84291 0.69885 0.0
C1437 C 0.89443 0.83661 0.66761 0.0
C1438 C 0.89835 0.81495 0.68716 0.0
C1439 C 0.91923 0.86044 0.6485 0.0
C1440 C 0.91668 0.88476 0.62875 0.0
C1441 C 0.90653 0.9023 0.64762 0.0
C1442 C 0.90304 0.92427 0.62842 0.0
C1443 C 0.91027 0.92943 0.59054 0.0
C1444 C 0.92095 0.91256 0.57174 0.0
C1445 C 0.92415 0.89031 0.59071 0.0
H1446 H 0.90762 0.9465 0.57576 0.0
H1447 H 0.93764 0.72985 0.76027 0.0
H1448 H 0.17049 0.96623 0.74886 0.0
H1449 H 0.18247 0.01876 0.75479 0.0
H1450 H 0.1863 0.02792 0.63505 0.0
H1451 H 0.17425 0.97515 0.62856 0.0
H1452 H 0.22987 0.08341 0.67914 0.0
H1453 H 0.1228 0.00687 0.66728 0.0
H1454 H 0.07743 0.95865 0.68487 0.0
H1455 H 0.08447 0.99059 0.79741 0.0
H1456 H 0.13024 0.03883 0.78057 0.0
H1457 H 0.17611 0.18613 0.64389 0.0
H1458 H 0.18912 0.14605 0.64653 0.0
H1459 H 0.16783 0.134 0.76399 0.0
H1460 H 0.15463 0.17393 0.7617 0.0
H1461 H 0.13721 0.0817 0.72568 0.0
H1462 H 0.23959 0.15968 0.73855 0.0
H1463 H 0.28645 0.20766 0.7248 0.0
H1464 H 0.28961 0.17509 0.61528 0.0
H1465 H 0.24272 0.12676 0.62842 0.0
C1466 C 0.17448 0.97948 0.72368 0.0
C1467 C 0.17064 0.96619 0.68816 0.0
C1468 C 0.18156 0.0096 0.72721 0.0
C1469 C 0.18492 0.02697 0.69536 0.0
C1470 C 0.18382 0.01477 0.65993 0.0
C1471 C 0.17666 0.98453 0.65631 0.0
C1472 C 0.18416 0.05547 0.699 0.0
C1473 C 0.20963 0.08317 0.68901 0.0
C1474 C 0.15794 0.05502 0.71282 0.0
C1475 C 0.1301 0.02629 0.72278 0.0
C1476 C 0.1148 0.0035 0.69584 0.0
C1477 C 0.089 0.97619 0.70566 0.0
C1478 C 0.07812 0.97152 0.74226 0.0
C1479 C 0.09296 0.99422 0.76908 0.0
C1480 C 0.11882 0.02155 0.75942 0.0
C1481 C 0.17444 0.17517 0.67039 0.0
C1482 C 0.1638 0.18287 0.70244 0.0
C1483 C 0.18221 0.15248 0.67191 0.0
C1484 C 0.17947 0.13713 0.70547 0.0
C1485 C 0.17007 0.14561 0.73783 0.0
C1486 C 0.16247 0.16839 0.73641 0.0
C1487 C 0.18291 0.10995 0.70572 0.0
C1488 C 0.15772 0.08225 0.71621 0.0
C1489 C 0.20945 0.11061 0.6927 0.0
C1490 C 0.23751 0.13966 0.68438 0.0
C1491 C 0.25014 0.16281 0.71142 0.0
C1492 C 0.27676 0.19004 0.70378 0.0
C1493 C 0.29093 0.19448 0.66913 0.0
C1494 C 0.27858 0.17161 0.6421 0.0
C1495 C 0.25204 0.14424 0.64968 0.0
H1496 H 0.31151 0.21561 0.66325 0.0
H1497 H 0.05815 0.95036 0.74981 0.0
H1498 H 0.84712 0.95466 0.61361 0.0
H1499 H 0.89177 0.00545 0.61959 0.0
H1500 H 0.84196 0.03189 0.69301 0.0
H1501 H 0.79733 0.98098 0.68747 0.0
H1502 H 0.8806 0.07884 0.64817 0.0
H1503 H 0.88289 0.00646 0.73063 0.0
H1504 H 0.88062 0.95863 0.74875 0.0
H1505 H 0.95846 0.98121 0.68069 0.0
H1506 H 0.96083 0.02894 0.66154 0.0
H1507 H 0.03812 0.16867 0.75087 0.0
H1508 H 0.98608 0.12632 0.74552 0.0
H1509 H 0.98534 0.14612 0.62862 0.0
H1510 H 0.03722 0.1884 0.63361 0.0
H1511 H 0.96945 0.07694 0.70191 0.0
H1512 H 0.91282 0.12584 0.60396 0.0
H1513 H 0.91291 0.17394 0.59468 0.0
H1514 H 0.94061 0.19918 0.70845 0.0
H1515 H 0.94044 0.15116 0.71849 0.0
C1516 C 0.84554 0.97159 0.63029 0.0
C1517 C 0.81913 0.96402 0.65058 0.0
C1518 C 0.87102 0.00046 0.63382 0.0
C1519 C 0.87021 0.02212 0.65738 0.0
C1520 C 0.84302 0.01533 0.6751 0.0
C1521 C 0.8177 0.98633 0.67207 0.0
C1522 C 0.8984 0.05055 0.66666 0.0
C1523 C 0.90012 0.07851 0.6597 0.0
C1524 C 0.92333 0.04996 0.68318 0.0
C1525 C 0.92186 0.02115 0.69436 0.0
C1526 C 0.89935 0.0011 0.71923 0.0
C1527 C 0.89808 0.97403 0.72975 0.0
C1528 C 0.91941 0.96692 0.71593 0.0
C1529 C 0.94201 0.98681 0.69146 0.0
C1530 C 0.94329 0.01385 0.6807 0.0
C1531 C 0.02671 0.16434 0.72417 0.0
C1532 C 0.04191 0.18171 0.69258 0.0
C1533 C -0.00297 0.14011 0.72117 0.0
C1534 C 0.98193 0.13317 0.68671 0.0
C1535 C -0.00348 0.15129 0.65555 0.0
C1536 C 0.02625 0.17532 0.65842 0.0
C1537 C 0.9521 0.10533 0.68227 0.0
C1538 C 0.95001 0.07737 0.69024 0.0
C1539 C 0.92664 0.106 0.66774 0.0
C1540 C 0.92689 0.135 0.66183 0.0
C1541 C 0.91887 0.14163 0.627 0.0
C1542 C 0.91897 0.16889 0.62161 0.0
C1543 C 0.92686 0.18964 0.65092 0.0
C1544 C 0.93465 0.18316 0.68571 0.0
C1545 C 0.93464 0.15596 0.69123 0.0
H1546 H 0.92687 0.21071 0.6467 0.0
H1547 H 0.91841 0.94596 0.72413 0.0
loop_
_geom_bond_atom_site_label_1
_geom_bond_atom_site_label_2
_geom_bond_distance
_geom_bond_site_symmetry_2
_ccdc_geom_bond_type
Sc0 O3 2.025 . S
Sc0 O10 2.105 . S
Sc0 O13 2.105 1_554 S
Sc0 O16 2.105 . S
Sc0 O19 2.105 1_554 S
Sc1 O3 2.025 1_556 S
Sc1 O11 2.105 . S
Sc1 O15 2.105 . S
Sc1 O17 2.105 . S
Sc1 O21 2.105 . S
Sc2 O3 2.025 . S
Sc2 O12 2.105 . S
Sc2 O14 2.105 . S
Sc2 O18 2.105 . S
Sc2 O20 2.105 . S
O3 Sc0 2.025 . S
O3 Sc1 2.025 1_554 S
O3 Sc2 2.025 . S
C4 O10 1.268 . S
C4 O20 1.268 . S
C5 O11 1.268 . S
C5 O19 1.268 . S
C6 O12 1.268 1_556 S
C6 O21 1.268 . S
C7 O13 1.268 . S
C7 O17 1.268 . S
C8 O14 1.268 . S
C8 O16 1.268 . S
C9 O15 1.268 . S
C9 O18 1.268 1_556 S
O10 Sc0 2.105 . S
O10 C4 1.268 . S
O11 Sc1 2.105 . S
O11 C5 1.268 . S
O12 Sc2 2.105 . S
O12 C6 1.268 1_554 S
O13 Sc0 2.105 1_556 S
O13 C7 1.268 . S
O14 Sc2 2.105 . S
O14 C8 1.268 . S
O15 Sc1 2.105 . S
O15 C9 1.268 . S
O16 Sc0 2.105 . S
O16 C8 1.268 . S
O17 Sc1 2.105 . S
O17 C7 1.268 . S
O18 Sc2 2.105 . S
O18 C9 1.268 1_554 S
O19 Sc0 2.105 1_556 S
O19 C5 1.268 . S
O20 Sc2 2.105 . S
O20 C4 1.268 . S
O21 Sc1 2.105 . S
O21 C6 1.268 . S
Sc22 O25 2.025 . S
Sc22 O32 2.105 . S
Sc22 O35 2.105 1_554 S
Sc22 O38 2.105 . S
Sc22 O41 2.105 1_554 S
Sc23 O25 2.025 1_556 S
Sc23 O33 2.105 . S
Sc23 O37 2.105 . S
Sc23 O39 2.105 . S
Sc23 O43 2.105 . S
Sc24 O25 2.025 . S
Sc24 O34 2.105 . S
Sc24 O36 2.105 . S
Sc24 O40 2.105 . S
Sc24 O42 2.105 . S
O25 Sc22 2.025 . S
O25 Sc23 2.025 1_554 S
O25 Sc24 2.025 . S
C26 O32 1.268 . S
C26 O42 1.268 . S
C27 O33 1.268 . S
C27 O41 1.268 . S
C28 O34 1.268 1_556 S
C28 O43 1.268 . S
C29 O35 1.268 . S
C29 O39 1.268 . S
C30 O36 1.268 . S
C30 O38 1.268 . S
C31 O37 1.268 . S
C31 O40 1.268 1_556 S
O32 Sc22 2.105 . S
O32 C26 1.268 . S
O33 Sc23 2.105 . S
O33 C27 1.268 . S
O34 Sc24 2.105 . S
O34 C28 1.268 1_554 S
O35 Sc22 2.105 1_556 S
O35 C29 1.268 . S
O36 Sc24 2.105 . S
O36 C30 1.268 . S
O37 Sc23 2.105 . S
O37 C31 1.268 . S
O38 Sc22 2.105 . S
O38 C30 1.268 . S
O39 Sc23 2.105 . S
O39 C29 1.268 . S
O40 Sc24 2.105 . S
O40 C31 1.268 1_554 S
O41 Sc22 2.105 1_556 S
O41 C27 1.268 . S
O42 Sc24 2.105 . S
O42 C26 1.268 . S
O43 Sc23 2.105 . S
O43 C28 1.268 . S
Sc44 O47 2.025 . S
Sc44 O54 2.105 . S
Sc44 O57 2.105 1_554 S
Sc44 O60 2.105 . S
Sc44 O63 2.105 1_554 S
Sc45 O47 2.025 1_556 S
Sc45 O55 2.105 . S
Sc45 O59 2.105 . S
Sc45 O61 2.105 . S
Sc45 O65 2.105 . S
Sc46 O47 2.025 . S
Sc46 O56 2.105 . S
Sc46 O58 2.105 . S
Sc46 O62 2.105 . S
Sc46 O64 2.105 . S
O47 Sc44 2.025 . S
O47 Sc45 2.025 1_554 S
O47 Sc46 2.025 . S
C48 O54 1.268 . S
C48 O64 1.268 . S
C49 O55 1.268 . S
C49 O63 1.268 . S
C50 O56 1.268 1_556 S
C50 O65 1.268 . S
C51 O57 1.268 . S
C51 O61 1.268 . S
C52 O58 1.268 . S
C52 O60 1.268 . S
C53 O59 1.268 . S
C53 O62 1.268 1_556 S
O54 Sc44 2.105 . S
O54 C48 1.268 . S
O55 Sc45 2.105 . S
O55 C49 1.268 . S
O56 Sc46 2.105 . S
O56 C50 1.268 1_554 S
O57 Sc44 2.105 1_556 S
O57 C51 1.268 . S
O58 Sc46 2.105 . S
O58 C52 1.268 . S
O59 Sc45 2.105 . S
O59 C53 1.268 . S
O60 Sc44 2.105 . S
O60 C52 1.268 . S
O61 Sc45 2.105 . S
O61 C51 1.268 . S
O62 Sc46 2.105 . S
O62 C53 1.268 1_554 S
O63 Sc44 2.105 1_556 S
O63 C49 1.268 . S
O64 Sc46 2.105 . S
O64 C48 1.268 . S
O65 Sc45 2.105 . S
O65 C50 1.268 . S
Sc66 O69 2.025 . S
Sc66 O76 2.105 . S
Sc66 O79 2.105 . S
Sc66 O82 2.105 . S
Sc66 O85 2.105 . S
Sc67 O69 2.025 . S
Sc67 O77 2.105 . S
Sc67 O81 2.105 . S
Sc67 O83 2.105 . S
Sc67 O87 2.105 . S
Sc68 O69 2.025 . S
Sc68 O78 2.105 . S
Sc68 O80 2.105 . S
Sc68 O84 2.105 . S
Sc68 O86 2.105 . S
O69 Sc66 2.025 . S
O69 Sc67 2.025 . S
O69 Sc68 2.025 . S
C70 O76 1.268 . S
C70 O86 1.268 . S
C71 O77 1.268 . S
C71 O85 1.268 . S
C72 O78 1.268 . S
C72 O87 1.268 . S
C73 O79 1.268 . S
C73 O83 1.268 . S
C74 O80 1.268 . S
C74 O82 1.268 . S
C75 O81 1.268 . S
C75 O84 1.268 . S
O76 Sc66 2.105 . S
O76 C70 1.268 . S
O77 Sc67 2.105 . S
O77 C71 1.268 . S
O78 Sc68 2.105 . S
O78 C72 1.268 . S
O79 Sc66 2.105 . S
O79 C73 1.268 . S
O80 Sc68 2.105 . S
O80 C74 1.268 . S
O81 Sc67 2.105 . S
O81 C75 1.268 . S
O82 Sc66 2.105 . S
O82 C74 1.268 . S
O83 Sc67 2.105 . S
O83 C73 1.268 . S
O84 Sc68 2.105 . S
O84 C75 1.268 . S
O85 Sc66 2.105 . S
O85 C71 1.268 . S
O86 Sc68 2.105 . S
O86 C70 1.268 . S
O87 Sc67 2.105 . S
O87 C72 1.268 . S
Sc88 O91 2.025 . S
Sc88 O98 2.105 . S
Sc88 O101 2.105 . S
Sc88 O104 2.105 . S
Sc88 O107 2.105 . S
Sc89 O91 2.025 . S
Sc89 O99 2.105 . S
Sc89 O103 2.105 . S
Sc89 O105 2.105 . S
Sc89 O109 2.105 . S
Sc90 O91 2.025 . S
Sc90 O100 2.105 . S
Sc90 O102 2.105 . S
Sc90 O106 2.105 . S
Sc90 O108 2.105 . S
O91 Sc88 2.025 . S
O91 Sc89 2.025 . S
O91 Sc90 2.025 . S
C92 O98 1.268 . S
C92 O108 1.268 . S
C93 O99 1.268 . S
C93 O107 1.268 . S
C94 O100 1.268 . S
C94 O109 1.268 . S
C95 O101 1.268 . S
C95 O105 1.268 . S
C96 O102 1.268 . S
C96 O104 1.268 . S
C97 O103 1.268 . S
C97 O106 1.268 . S
O98 Sc88 2.105 . S
O98 C92 1.268 . S
O99 Sc89 2.105 . S
O99 C93 1.268 . S
O100 Sc90 2.105 . S
O100 C94 1.268 . S
O101 Sc88 2.105 . S
O101 C95 1.268 . S
O102 Sc90 2.105 . S
O102 C96 1.268 . S
O103 Sc89 2.105 . S
O103 C97 1.268 . S
O104 Sc88 2.105 . S
O104 C96 1.268 . S
O105 Sc89 2.105 . S
O105 C95 1.268 . S
O106 Sc90 2.105 . S
O106 C97 1.268 . S
O107 Sc88 2.105 . S
O107 C93 1.268 . S
O108 Sc90 2.105 . S
O108 C92 1.268 . S
O109 Sc89 2.105 . S
O109 C94 1.268 . S
Sc110 O113 2.025 . S
Sc110 O120 2.105 . S
Sc110 O123 2.105 . S
Sc110 O126 2.105 . S
Sc110 O129 2.105 . S
Sc111 O113 2.025 . S
Sc111 O121 2.105 . S
Sc111 O125 2.105 . S
Sc111 O127 2.105 . S
Sc111 O131 2.105 . S
Sc112 O113 2.025 . S
Sc112 O122 2.105 . S
Sc112 O124 2.105 . S
Sc112 O128 2.105 . S
Sc112 O130 2.105 . S
O113 Sc110 2.025 . S
O113 Sc111 2.025 . S
O113 Sc112 2.025 . S
C114 O120 1.268 . S
C114 O130 1.268 . S
C115 O121 1.268 . S
C115 O129 1.268 . S
C116 O122 1.268 . S
C116 O131 1.268 . S
C117 O123 1.268 . S
C117 O127 1.268 . S
C118 O124 1.268 . S
C118 O126 1.268 . S
C119 O125 1.268 . S
C119 O128 1.268 . S
O120 Sc110 2.105 . S
O120 C114 1.268 . S
O121 Sc111 2.105 . S
O121 C115 1.268 . S
O122 Sc112 2.105 . S
O122 C116 1.268 . S
O123 Sc110 2.105 . S
O123 C117 1.268 . S
O124 Sc112 2.105 . S
O124 C118 1.268 . S
O125 Sc111 2.105 . S
O125 C119 1.268 . S
O126 Sc110 2.105 . S
O126 C118 1.268 . S
O127 Sc111 2.105 . S
O127 C117 1.268 . S
O128 Sc112 2.105 . S
O128 C119 1.268 . S
O129 Sc110 2.105 . S
O129 C115 1.268 . S
O130 Sc112 2.105 . S
O130 C114 1.268 . S
O131 Sc111 2.105 . S
O131 C116 1.268 . S
Sc132 O135 2.025 . S
Sc132 O142 2.105 . S
Sc132 O145 2.105 . S
Sc132 O148 2.105 . S
Sc132 O151 2.105 . S
Sc133 O135 2.025 . S
Sc133 O143 2.105 . S
Sc133 O147 2.105 . S
Sc133 O149 2.105 . S
Sc133 O153 2.105 . S
Sc134 O135 2.025 . S
Sc134 O144 2.105 . S
Sc134 O146 2.105 . S
Sc134 O150 2.105 . S
Sc134 O152 2.105 . S
O135 Sc132 2.025 . S
O135 Sc133 2.025 . S
O135 Sc134 2.025 . S
C136 O142 1.268 . S
C136 O152 1.268 . S
C137 O143 1.268 . S
C137 O151 1.268 . S
C138 O144 1.268 . S
C138 O153 1.268 . S
C139 O145 1.268 . S
C139 O149 1.268 . S
C140 O146 1.268 . S
C140 O148 1.268 . S
C141 O147 1.268 . S
C141 O150 1.268 . S
O142 Sc132 2.105 . S
O142 C136 1.268 . S
O143 Sc133 2.105 . S
O143 C137 1.268 . S
O144 Sc134 2.105 . S
O144 C138 1.268 . S
O145 Sc132 2.105 . S
O145 C139 1.268 . S
O146 Sc134 2.105 . S
O146 C140 1.268 . S
O147 Sc133 2.105 . S
O147 C141 1.268 . S
O148 Sc132 2.105 . S
O148 C140 1.268 . S
O149 Sc133 2.105 . S
O149 C139 1.268 . S
O150 Sc134 2.105 . S
O150 C141 1.268 . S
O151 Sc132 2.105 . S
O151 C137 1.268 . S
O152 Sc134 2.105 . S
O152 C136 1.268 . S
O153 Sc133 2.105 . S
O153 C138 1.268 . S
Sc154 O157 2.025 . S
Sc154 O164 2.105 . S
Sc154 O167 2.105 . S
Sc154 O170 2.105 . S
Sc154 O173 2.105 . S
Sc155 O157 2.025 . S
Sc155 O165 2.105 . S
Sc155 O169 2.105 . S
Sc155 O171 2.105 . S
Sc155 O175 2.105 . S
Sc156 O157 2.025 . S
Sc156 O166 2.105 . S
Sc156 O168 2.105 . S
Sc156 O172 2.105 . S
Sc156 O174 2.105 . S
O157 Sc154 2.025 . S
O157 Sc155 2.025 . S
O157 Sc156 2.025 . S
C158 O164 1.268 . S
C158 O174 1.268 . S
C159 O165 1.268 . S
C159 O173 1.268 . S
C160 O166 1.268 . S
C160 O175 1.268 . S
C161 O167 1.268 . S
C161 O171 1.268 . S
C162 O168 1.268 . S
C162 O170 1.268 . S
C163 O169 1.268 . S
C163 O172 1.268 . S
O164 Sc154 2.105 . S
O164 C158 1.268 . S
O165 Sc155 2.105 . S
O165 C159 1.268 . S
O166 Sc156 2.105 . S
O166 C160 1.268 . S
O167 Sc154 2.105 . S
O167 C161 1.268 . S
O168 Sc156 2.105 . S
O168 C162 1.268 . S
O169 Sc155 2.105 . S
O169 C163 1.268 . S
O170 Sc154 2.105 . S
O170 C162 1.268 . S
O171 Sc155 2.105 . S
O171 C161 1.268 . S
O172 Sc156 2.105 . S
O172 C163 1.268 . S
O173 Sc154 2.105 . S
O173 C159 1.268 . S
O174 Sc156 2.105 . S
O174 C158 1.268 . S
O175 Sc155 2.105 . S
O175 C160 1.268 . S
Sc176 O179 2.025 . S
Sc176 O186 2.105 . S
Sc176 O189 2.105 . S
Sc176 O192 2.105 . S
Sc176 O195 2.105 . S
Sc177 O179 2.025 . S
Sc177 O187 2.105 . S
Sc177 O191 2.105 . S
Sc177 O193 2.105 . S
Sc177 O197 2.105 . S
Sc178 O179 2.025 . S
Sc178 O188 2.105 . S
Sc178 O190 2.105 . S
Sc178 O194 2.105 . S
Sc178 O196 2.105 . S
O179 Sc176 2.025 . S
O179 Sc177 2.025 . S
O179 Sc178 2.025 . S
C180 O186 1.268 . S
C180 O196 1.268 . S
C181 O187 1.268 . S
C181 O195 1.268 . S
C182 O188 1.268 . S
C182 O197 1.268 . S
C183 O189 1.268 . S
C183 O193 1.268 . S
C184 O190 1.268 . S
C184 O192 1.268 . S
C185 O191 1.268 . S
C185 O194 1.268 . S
O186 Sc176 2.105 . S
O186 C180 1.268 . S
O187 Sc177 2.105 . S
O187 C181 1.268 . S
O188 Sc178 2.105 . S
O188 C182 1.268 . S
O189 Sc176 2.105 . S
O189 C183 1.268 . S
O190 Sc178 2.105 . S
O190 C184 1.268 . S
O191 Sc177 2.105 . S
O191 C185 1.268 . S
O192 Sc176 2.105 . S
O192 C184 1.268 . S
O193 Sc177 2.105 . S
O193 C183 1.268 . S
O194 Sc178 2.105 . S
O194 C185 1.268 . S
O195 Sc176 2.105 . S
O195 C181 1.268 . S
O196 Sc178 2.105 . S
O196 C180 1.268 . S
O197 Sc177 2.105 . S
O197 C182 1.268 . S
H198 C216 0.951 . S
H199 C218 0.951 . S
H200 C220 0.950 . S
H201 C221 0.950 . S
H202 C223 0.950 . S
H203 C226 0.950 . S
H204 C227 0.951 . S
H205 C229 0.950 1_554 S
H206 C230 0.950 . S
H207 C231 0.951 . S
H208 C233 0.951 . S
H209 C235 0.950 . S
H210 C236 0.950 . S
H211 C238 0.950 . S
H212 C241 0.950 . S
H213 C242 0.950 . S
H214 C244 0.950 . S
H215 C245 0.950 . S
C216 H198 0.951 . S
C216 C217 1.366 . S
C216 C218 1.388 . S
C217 C216 1.366 . S
C217 C221 1.385 . S
C218 H199 0.951 . S
C218 C216 1.388 . S
C218 C219 1.366 . S
C219 C218 1.366 . S
C219 C220 1.414 . S
C219 C222 1.499 . S
C220 H200 0.950 . S
C220 C219 1.414 . S
C220 C221 1.374 . S
C221 H201 0.950 . S
C221 C217 1.385 . S
C221 C220 1.374 . S
C222 C219 1.499 . S
C222 C223 1.373 . S
C222 C224 1.389 . S
C223 H202 0.950 . S
C223 C222 1.373 . S
C223 C239 1.377 . S
C224 C222 1.389 . S
C224 C225 1.534 . S
C224 C238 1.377 1_545 S
C225 C224 1.534 . S
C225 C226 1.389 . S
C225 C230 1.359 1_545 S
C226 H203 0.950 . S
C226 C225 1.389 . S
C226 C227 1.332 . S
C227 H204 0.951 . S
C227 C226 1.332 . S
C227 C228 1.277 1_546 S
C228 C227 1.277 1_564 S
C228 C229 1.521 1_554 S
C228 H247 0.930 . S
C229 H205 0.950 1_556 S
C229 C228 1.521 1_556 S
C229 C230 1.415 . S
C230 H206 0.950 . S
C230 C225 1.359 1_565 S
C230 C229 1.415 . S
C231 H207 0.951 . S
C231 C232 1.366 . S
C231 C233 1.388 . S
C232 C231 1.366 . S
C232 C236 1.385 . S
C233 H208 0.951 . S
C233 C231 1.388 . S
C233 C234 1.366 . S
C234 C233 1.366 . S
C234 C235 1.414 . S
C234 C237 1.499 . S
C235 H209 0.950 . S
C235 C234 1.414 . S
C235 C236 1.374 . S
C236 H210 0.950 . S
C236 C232 1.385 . S
C236 C235 1.374 . S
C237 C234 1.499 . S
C237 C238 1.373 . S
C237 C239 1.389 1_565 S
C238 H211 0.950 . S
C238 C224 1.377 1_565 S
C238 C237 1.373 . S
C239 C223 1.377 . S
C239 C237 1.389 1_545 S
C239 C240 1.524 . S
C240 C239 1.524 . S
C240 C241 1.397 . S
C240 C245 1.363 . S
C241 H212 0.950 . S
C241 C240 1.397 . S
C241 C242 1.334 . S
C242 H213 0.950 . S
C242 C241 1.334 . S
C242 C243 1.287 . S
C243 C242 1.287 . S
C243 C244 1.524 . S
C243 H246 0.999 . S
C244 H214 0.950 . S
C244 C243 1.524 . S
C244 C245 1.415 . S
C245 H215 0.950 . S
C245 C240 1.363 . S
C245 C244 1.415 . S
H246 C243 0.999 . S
H247 C228 0.930 . S
H248 C266 0.951 . S
H249 C268 0.951 . S
H250 C270 0.950 . S
H251 C271 0.950 . S
H252 C273 0.950 . S
H253 C276 0.950 . S
H254 C277 0.950 . S
H255 C279 0.950 . S
H256 C280 0.950 . S
H257 C281 0.951 . S
H258 C283 0.951 . S
H259 C285 0.950 . S
H260 C286 0.950 . S
H261 C288 0.950 . S
H262 C291 0.950 . S
H263 C292 0.950 . S
H264 C294 0.950 . S
H265 C295 0.950 . S
C266 H248 0.951 . S
C266 C267 1.366 . S
C266 C268 1.388 . S
C267 C266 1.366 . S
C267 C271 1.385 . S
C268 H249 0.951 . S
C268 C266 1.388 . S
C268 C269 1.366 . S
C269 C268 1.366 . S
C269 C270 1.414 . S
C269 C272 1.499 . S
C270 H250 0.950 . S
C270 C269 1.414 . S
C270 C271 1.374 . S
C271 H251 0.950 . S
C271 C267 1.385 . S
C271 C270 1.374 . S
C272 C269 1.499 . S
C272 C273 1.373 . S
C272 C274 1.389 . S
C273 H252 0.950 . S
C273 C272 1.373 . S
C273 C289 1.377 1_655 S
C274 C272 1.389 . S
C274 C275 1.524 . S
C274 C288 1.377 . S
C275 C274 1.524 . S
C275 C276 1.397 . S
C275 C280 1.363 . S
C276 H253 0.950 . S
C276 C275 1.397 . S
C276 C277 1.334 . S
C277 H254 0.950 . S
C277 C276 1.334 . S
C277 C278 1.287 . S
C278 C277 1.287 . S
C278 C279 1.524 . S
C278 H297 0.913 . S
C279 H255 0.950 . S
C279 C278 1.524 . S
C279 C280 1.415 . S
C280 H256 0.950 . S
C280 C275 1.363 . S
C280 C279 1.415 . S
C281 H257 0.951 . S
C281 C282 1.366 . S
C281 C283 1.388 . S
C282 C281 1.366 . S
C282 C286 1.385 . S
C283 H258 0.951 . S
C283 C281 1.388 . S
C283 C284 1.366 . S
C284 C283 1.366 . S
C284 C285 1.414 . S
C284 C287 1.499 . S
C285 H259 0.950 . S
C285 C284 1.414 . S
C285 C286 1.374 . S
C286 H260 0.950 . S
C286 C282 1.385 . S
C286 C285 1.374 . S
C287 C284 1.499 . S
C287 C288 1.373 1_455 S
C287 C289 1.389 . S
C288 H261 0.950 . S
C288 C274 1.377 . S
C288 C287 1.373 1_655 S
C289 C273 1.377 1_455 S
C289 C287 1.389 . S
C289 C290 1.524 . S
C290 C289 1.524 . S
C290 C291 1.397 . S
C290 C295 1.363 . S
C291 H262 0.950 . S
C291 C290 1.397 . S
C291 C292 1.334 . S
C292 H263 0.950 . S
C292 C291 1.334 . S
C292 C293 1.287 . S
C293 C292 1.287 . S
C293 C294 1.524 . S
C293 H296 0.999 . S
C294 H264 0.950 . S
C294 C293 1.524 . S
C294 C295 1.415 . S
C295 H265 0.950 . S
C295 C290 1.363 . S
C295 C294 1.415 . S
H296 C293 0.999 . S
H297 C278 0.913 . S
H298 C316 0.951 . S
H299 C318 0.951 . S
H300 C320 0.950 . S
H301 C321 0.950 . S
H302 C323 0.950 . S
H303 C326 0.950 . S
H304 C327 0.950 . S
H305 C329 0.950 . S
H306 C330 0.950 . S
H307 C331 0.951 . S
H308 C333 0.951 . S
H309 C335 0.950 . S
H310 C336 0.950 . S
H311 C338 0.950 . S
H312 C341 0.950 . S
H313 C342 0.950 . S
H314 C344 0.950 . S
H315 C345 0.950 . S
C316 H298 0.951 . S
C316 C317 1.366 . S
C316 C318 1.388 . S
C317 C316 1.366 . S
C317 C321 1.385 . S
C318 H299 0.951 . S
C318 C316 1.388 . S
C318 C319 1.366 . S
C319 C318 1.366 . S
C319 C320 1.414 . S
C319 C322 1.499 . S
C320 H300 0.950 . S
C320 C319 1.414 . S
C320 C321 1.374 . S
C321 H301 0.950 . S
C321 C317 1.385 . S
C321 C320 1.374 . S
C322 C319 1.499 . S
C322 C323 1.373 . S
C322 C324 1.389 . S
C323 H302 0.950 . S
C323 C322 1.373 . S
C323 C339 1.377 . S
C324 C322 1.389 . S
C324 C325 1.524 . S
C324 C338 1.377 . S
C325 C324 1.524 . S
C325 C326 1.397 . S
C325 C330 1.363 . S
C326 H303 0.950 . S
C326 C325 1.397 . S
C326 C327 1.334 . S
C327 H304 0.950 . S
C327 C326 1.334 . S
C327 C328 1.287 . S
C328 C327 1.287 . S
C328 C329 1.524 . S
C328 H347 0.913 . S
C329 H305 0.950 . S
C329 C328 1.524 . S
C329 C330 1.415 . S
C330 H306 0.950 . S
C330 C325 1.363 . S
C330 C329 1.415 . S
C331 H307 0.951 . S
C331 C332 1.366 . S
C331 C333 1.388 . S
C332 C331 1.366 . S
C332 C336 1.385 . S
C333 H308 0.951 . S
C333 C331 1.388 . S
C333 C334 1.366 . S
C334 C333 1.366 . S
C334 C335 1.414 . S
C334 C337 1.499 . S
C335 H309 0.950 . S
C335 C334 1.414 . S
C335 C336 1.374 . S
C336 H310 0.950 . S
C336 C332 1.385 . S
C336 C335 1.374 . S
C337 C334 1.499 . S
C337 C338 1.373 . S
C337 C339 1.389 . S
C338 H311 0.950 . S
C338 C324 1.377 . S
C338 C337 1.373 . S
C339 C323 1.377 . S
C339 C337 1.389 . S
C339 C340 1.524 . S
C340 C339 1.524 . S
C340 C341 1.397 . S
C340 C345 1.363 . S
C341 H312 0.950 . S
C341 C340 1.397 . S
C341 C342 1.334 . S
C342 H313 0.950 . S
C342 C341 1.334 . S
C342 C343 1.287 . S
C343 C342 1.287 . S
C343 C344 1.524 . S
C343 H346 0.999 . S
C344 H314 0.950 . S
C344 C343 1.524 . S
C344 C345 1.415 . S
C345 H315 0.950 . S
C345 C340 1.363 . S
C345 C344 1.415 . S
H346 C343 0.999 . S
H347 C328 0.913 . S
H348 C366 0.951 . S
H349 C368 0.951 . S
H350 C370 0.950 . S
H351 C371 0.950 . S
H352 C373 0.950 . S
H353 C376 0.950 . S
H354 C377 0.950 . S
H355 C379 0.950 . S
H356 C380 0.950 . S
H357 C381 0.951 . S
H358 C383 0.951 . S
H359 C385 0.950 . S
H360 C386 0.950 . S
H361 C388 0.950 . S
H362 C391 0.950 . S
H363 C392 0.950 . S
H364 C394 0.950 . S
H365 C395 0.950 . S
C366 H348 0.951 . S
C366 C367 1.366 . S
C366 C368 1.388 . S
C367 C366 1.366 . S
C367 C371 1.385 . S
C368 H349 0.951 . S
C368 C366 1.388 . S
C368 C369 1.366 . S
C369 C368 1.366 . S
C369 C370 1.414 . S
C369 C372 1.499 . S
C370 H350 0.950 . S
C370 C369 1.414 . S
C370 C371 1.374 . S
C371 H351 0.950 . S
C371 C367 1.385 . S
C371 C370 1.374 . S
C372 C369 1.499 . S
C372 C373 1.373 1_455 S
C372 C374 1.389 . S
C373 H352 0.950 . S
C373 C372 1.373 1_655 S
C373 C389 1.377 . S
C374 C372 1.389 . S
C374 C375 1.524 . S
C374 C388 1.377 1_455 S
C375 C374 1.524 . S
C375 C376 1.397 . S
C375 C380 1.363 . S
C376 H353 0.950 . S
C376 C375 1.397 . S
C376 C377 1.334 . S
C377 H354 0.950 . S
C377 C376 1.334 . S
C377 C378 1.287 . S
C378 C377 1.287 . S
C378 C379 1.524 . S
C378 H397 0.913 . S
C379 H355 0.950 . S
C379 C378 1.524 . S
C379 C380 1.415 . S
C380 H356 0.950 . S
C380 C375 1.363 . S
C380 C379 1.415 . S
C381 H357 0.951 . S
C381 C382 1.366 . S
C381 C383 1.388 . S
C382 C381 1.366 . S
C382 C386 1.385 . S
C383 H358 0.951 . S
C383 C381 1.388 . S
C383 C384 1.366 . S
C384 C383 1.366 . S
C384 C385 1.414 . S
C384 C387 1.499 . S
C385 H359 0.950 . S
C385 C384 1.414 . S
C385 C386 1.374 . S
C386 H360 0.950 . S
C386 C382 1.385 . S
C386 C385 1.374 . S
C387 C384 1.499 . S
C387 C388 1.373 . S
C387 C389 1.389 . S
C388 H361 0.950 . S
C388 C374 1.377 1_655 S
C388 C387 1.373 . S
C389 C373 1.377 . S
C389 C387 1.389 . S
C389 C390 1.524 . S
C390 C389 1.524 . S
C390 C391 1.397 . S
C390 C395 1.363 . S
C391 H362 0.950 . S
C391 C390 1.397 . S
C391 C392 1.334 . S
C392 H363 0.950 . S
C392 C391 1.334 . S
C392 C393 1.287 . S
C393 C392 1.287 . S
C393 C394 1.524 . S
C393 H396 0.999 . S
C394 H364 0.950 . S
C394 C393 1.524 . S
C394 C395 1.415 . S
C395 H365 0.950 . S
C395 C390 1.363 . S
C395 C394 1.415 . S
H396 C393 0.999 . S
H397 C378 0.913 . S
H398 C416 0.951 . S
H399 C418 0.951 . S
H400 C420 0.950 . S
H401 C421 0.950 . S
H402 C423 0.950 . S
H403 C426 0.950 . S
H404 C427 0.950 . S
H405 C429 0.950 . S
H406 C430 0.950 . S
H407 C431 0.951 . S
H408 C433 0.951 . S
H409 C435 0.950 . S
H410 C436 0.950 . S
H411 C438 0.950 . S
H412 C441 0.950 . S
H413 C442 0.950 . S
H414 C444 0.950 1_554 S
H415 C445 0.950 . S
C416 H398 0.951 . S
C416 C417 1.366 . S
C416 C418 1.388 . S
C417 C416 1.366 . S
C417 C421 1.385 . S
C418 H399 0.951 . S
C418 C416 1.388 . S
C418 C419 1.366 . S
C419 C418 1.366 . S
C419 C420 1.414 . S
C419 C422 1.499 . S
C420 H400 0.950 . S
C420 C419 1.414 . S
C420 C421 1.374 . S
C421 H401 0.950 . S
C421 C417 1.385 . S
C421 C420 1.374 . S
C422 C419 1.499 . S
C422 C423 1.373 . S
C422 C424 1.389 . S
C423 H402 0.950 . S
C423 C422 1.373 . S
C423 C439 1.377 . S
C424 C422 1.389 . S
C424 C425 1.524 . S
C424 C438 1.377 . S
C425 C424 1.524 . S
C425 C426 1.397 . S
C425 C430 1.363 . S
C426 H403 0.950 . S
C426 C425 1.397 . S
C426 C427 1.334 . S
C427 H404 0.950 . S
C427 C426 1.334 . S
C427 C428 1.287 . S
C428 C427 1.287 . S
C428 C429 1.524 . S
C428 H447 0.913 . S
C429 H405 0.950 . S
C429 C428 1.524 . S
C429 C430 1.415 . S
C430 H406 0.950 . S
C430 C425 1.363 . S
C430 C429 1.415 . S
C431 H407 0.951 . S
C431 C432 1.366 . S
C431 C433 1.388 . S
C432 C431 1.366 . S
C432 C436 1.385 . S
C433 H408 0.951 . S
C433 C431 1.388 . S
C433 C434 1.366 . S
C434 C433 1.366 . S
C434 C435 1.414 . S
C434 C437 1.499 . S
C435 H409 0.950 . S
C435 C434 1.414 . S
C435 C436 1.374 . S
C436 H410 0.950 . S
C436 C432 1.385 . S
C436 C435 1.374 . S
C437 C434 1.499 . S
C437 C438 1.373 . S
C437 C439 1.389 . S
C438 H411 0.950 . S
C438 C424 1.377 . S
C438 C437 1.373 . S
C439 C423 1.377 . S
C439 C437 1.389 . S
C439 C440 1.524 . S
C440 C439 1.524 . S
C440 C441 1.397 . S
C440 C445 1.363 . S
C441 H412 0.950 . S
C441 C440 1.397 . S
C441 C442 1.334 . S
C442 H413 0.950 . S
C442 C441 1.334 . S
C442 C443 1.287 . S
C443 C442 1.287 . S
C443 C444 1.524 . S
C443 H446 0.999 1_556 S
C444 H414 0.950 1_556 S
C444 C443 1.524 . S
C444 C445 1.415 . S
C445 H415 0.950 . S
C445 C440 1.363 . S
C445 C444 1.415 . S
H446 C443 0.999 1_554 S
H447 C428 0.913 . S
H448 C466 0.951 . S
H449 C468 0.951 . S
H450 C470 0.950 . S
H451 C471 0.950 . S
H452 C473 0.950 . S
H453 C476 0.950 1_565 S
H454 C477 0.950 1_565 S
H455 C479 0.950 . S
H456 C480 0.950 . S
H457 C481 0.951 . S
H458 C483 0.951 . S
H459 C485 0.950 . S
H460 C486 0.950 . S
H461 C488 0.950 . S
H462 C491 0.950 . S
H463 C492 0.950 . S
H464 C494 0.950 . S
H465 C495 0.950 . S
C466 H448 0.951 . S
C466 C467 1.366 . S
C466 C468 1.388 . S
C467 C466 1.366 . S
C467 C471 1.385 . S
C468 H449 0.951 . S
C468 C466 1.388 . S
C468 C469 1.366 . S
C469 C468 1.366 . S
C469 C470 1.414 . S
C469 C472 1.499 . S
C470 H450 0.950 . S
C470 C469 1.414 . S
C470 C471 1.374 . S
C471 H451 0.950 . S
C471 C467 1.385 . S
C471 C470 1.374 . S
C472 C469 1.499 . S
C472 C473 1.373 . S
C472 C474 1.389 1_565 S
C473 H452 0.950 . S
C473 C472 1.373 . S
C473 C489 1.377 1_565 S
C474 C472 1.389 1_545 S
C474 C475 1.524 . S
C474 C488 1.377 . S
C475 C474 1.524 . S
C475 C476 1.397 . S
C475 C480 1.363 . S
C476 H453 0.950 1_545 S
C476 C475 1.397 . S
C476 C477 1.334 . S
C477 H454 0.950 1_545 S
C477 C476 1.334 . S
C477 C478 1.287 . S
C478 C477 1.287 . S
C478 C479 1.524 . S
C478 H497 0.913 . S
C479 H455 0.950 . S
C479 C478 1.524 . S
C479 C480 1.415 . S
C480 H456 0.950 . S
C480 C475 1.363 . S
C480 C479 1.415 . S
C481 H457 0.951 . S
C481 C482 1.366 . S
C481 C483 1.388 . S
C482 C481 1.366 . S
C482 C486 1.385 . S
C483 H458 0.951 . S
C483 C481 1.388 . S
C483 C484 1.366 . S
C484 C483 1.366 . S
C484 C485 1.414 . S
C484 C487 1.499 . S
C485 H459 0.950 . S
C485 C484 1.414 . S
C485 C486 1.374 . S
C486 H460 0.950 . S
C486 C482 1.385 . S
C486 C485 1.374 . S
C487 C484 1.499 . S
C487 C488 1.373 . S
C487 C489 1.389 . S
C488 H461 0.950 . S
C488 C474 1.377 . S
C488 C487 1.373 . S
C489 C473 1.377 1_545 S
C489 C487 1.389 . S
C489 C490 1.524 . S
C490 C489 1.524 . S
C490 C491 1.397 . S
C490 C495 1.363 1_545 S
C491 H462 0.950 . S
C491 C490 1.397 . S
C491 C492 1.334 . S
C492 H463 0.950 . S
C492 C491 1.334 . S
C492 C493 1.287 . S
C493 C492 1.287 . S
C493 C494 1.524 1_545 S
C493 H496 0.999 1_545 S
C494 H464 0.950 . S
C494 C493 1.524 1_565 S
C494 C495 1.415 . S
C495 H465 0.950 . S
C495 C490 1.363 1_565 S
C495 C494 1.415 . S
H496 C493 0.999 1_565 S
H497 C478 0.913 . S
H498 C516 0.951 . S
H499 C518 0.951 . S
H500 C520 0.950 . S
H501 C521 0.950 . S
H502 C523 0.950 . S
H503 C526 0.950 . S
H504 C527 0.950 . S
H505 C529 0.950 . S
H506 C530 0.950 . S
H507 C531 0.951 . S
H508 C533 0.948 . S
H509 C535 0.950 . S
H510 C536 0.950 . S
H511 C538 0.950 . S
H512 C541 0.950 . S
H513 C542 0.950 . S
H514 C544 0.950 . S
H515 C545 0.950 . S
C516 H498 0.951 . S
C516 C517 1.366 . S
C516 C518 1.388 . S
C517 C516 1.366 . S
C517 C521 1.385 . S
C518 H499 0.951 . S
C518 C516 1.388 . S
C518 C519 1.366 . S
C519 C518 1.366 . S
C519 C520 1.414 . S
C519 C522 1.499 . S
C520 H500 0.950 . S
C520 C519 1.414 . S
C520 C521 1.374 . S
C521 H501 0.950 . S
C521 C517 1.385 . S
C521 C520 1.374 . S
C522 C519 1.499 . S
C522 C523 1.373 . S
C522 C524 1.389 . S
C523 H502 0.950 . S
C523 C522 1.373 . S
C523 C539 1.377 . S
C524 C522 1.389 . S
C524 C525 1.524 . S
C524 C538 1.377 . S
C525 C524 1.524 . S
C525 C526 1.397 . S
C525 C530 1.363 . S
C526 H503 0.950 . S
C526 C525 1.397 . S
C526 C527 1.334 . S
C527 H504 0.950 . S
C527 C526 1.334 . S
C527 C528 1.287 . S
C528 C527 1.287 . S
C528 C529 1.524 . S
C528 H547 0.913 . S
C529 H505 0.950 . S
C529 C528 1.524 . S
C529 C530 1.415 . S
C530 H506 0.950 . S
C530 C525 1.363 . S
C530 C529 1.415 . S
C531 H507 0.951 . S
C531 C532 1.366 . S
C531 C533 1.384 1_455 S
C532 C531 1.366 . S
C532 C536 1.385 . S
C533 H508 0.948 . S
C533 C531 1.384 1_655 S
C533 C534 1.372 . S
C534 C533 1.372 . S
C534 C535 1.414 . S
C534 C537 1.499 . S
C535 H509 0.950 . S
C535 C534 1.414 . S
C535 C536 1.374 1_655 S
C536 H510 0.950 . S
C536 C532 1.385 . S
C536 C535 1.374 1_455 S
C537 C534 1.499 . S
C537 C538 1.373 . S
C537 C539 1.389 . S
C538 H511 0.950 . S
C538 C524 1.377 . S
C538 C537 1.373 . S
C539 C523 1.377 . S
C539 C537 1.389 . S
C539 C540 1.524 . S
C540 C539 1.524 . S
C540 C541 1.397 . S
C540 C545 1.363 . S
C541 H512 0.950 . S
C541 C540 1.397 . S
C541 C542 1.334 . S
C542 H513 0.950 . S
C542 C541 1.334 . S
C542 C543 1.287 . S
C543 C542 1.287 . S
C543 C544 1.524 . S
C543 H546 0.999 . S
C544 H514 0.950 . S
C544 C543 1.524 . S
C544 C545 1.415 . S
C545 H515 0.950 . S
C545 C540 1.363 . S
C545 C544 1.415 . S
H546 C543 0.999 . S
H547 C528 0.913 . S
H548 C566 0.951 . S
H549 C568 0.951 . S
H550 C570 0.950 . S
H551 C571 0.950 . S
H552 C573 0.950 . S
H553 C576 0.950 . S
H554 C577 0.950 . S
H555 C579 0.950 . S
H556 C580 0.950 . S
H557 C581 0.951 . S
H558 C583 0.951 . S
H559 C585 0.950 . S
H560 C586 0.950 . S
H561 C588 0.950 . S
H562 C591 0.950 . S
H563 C592 0.950 . S
H564 C594 0.950 . S
H565 C595 0.950 . S
C566 H548 0.951 . S
C566 C567 1.366 . S
C566 C568 1.388 . S
C567 C566 1.366 . S
C567 C571 1.385 . S
C568 H549 0.951 . S
C568 C566 1.388 . S
C568 C569 1.366 . S
C569 C568 1.366 . S
C569 C570 1.414 . S
C569 C572 1.499 . S
C570 H550 0.950 . S
C570 C569 1.414 . S
C570 C571 1.374 . S
C571 H551 0.950 . S
C571 C567 1.385 . S
C571 C570 1.374 . S
C572 C569 1.499 . S
C572 C573 1.373 . S
C572 C574 1.389 . S
C573 H552 0.950 . S
C573 C572 1.373 . S
C573 C589 1.377 . S
C574 C572 1.389 . S
C574 C575 1.524 . S
C574 C588 1.377 . S
C575 C574 1.524 . S
C575 C576 1.397 . S
C575 C580 1.363 . S
C576 H553 0.950 . S
C576 C575 1.397 . S
C576 C577 1.334 . S
C577 H554 0.950 . S
C577 C576 1.334 . S
C577 C578 1.287 . S
C578 C577 1.287 . S
C578 C579 1.524 . S
C578 H597 0.913 . S
C579 H555 0.950 . S
C579 C578 1.524 . S
C579 C580 1.415 . S
C580 H556 0.950 . S
C580 C575 1.363 . S
C580 C579 1.415 . S
C581 H557 0.951 . S
C581 C582 1.366 . S
C581 C583 1.388 . S
C582 C581 1.366 . S
C582 C586 1.385 . S
C583 H558 0.951 . S
C583 C581 1.388 . S
C583 C584 1.366 . S
C584 C583 1.366 . S
C584 C585 1.414 . S
C584 C587 1.499 . S
C585 H559 0.950 . S
C585 C584 1.414 . S
C585 C586 1.374 . S
C586 H560 0.950 . S
C586 C582 1.385 . S
C586 C585 1.374 . S
C587 C584 1.499 . S
C587 C588 1.373 . S
C587 C589 1.389 . S
C588 H561 0.950 . S
C588 C574 1.377 . S
C588 C587 1.373 . S
C589 C573 1.377 . S
C589 C587 1.389 . S
C589 C590 1.524 . S
C590 C589 1.524 . S
C590 C591 1.397 . S
C590 C595 1.363 . S
C591 H562 0.950 . S
C591 C590 1.397 . S
C591 C592 1.334 . S
C592 H563 0.950 . S
C592 C591 1.334 . S
C592 C593 1.287 . S
C593 C592 1.287 . S
C593 C594 1.524 . S
C593 H596 0.999 . S
C594 H564 0.950 . S
C594 C593 1.524 . S
C594 C595 1.415 . S
C595 H565 0.950 . S
C595 C590 1.363 . S
C595 C594 1.415 . S
H596 C593 0.999 . S
H597 C578 0.913 . S
H598 C616 0.951 . S
H599 C618 0.951 . S
H600 C620 0.950 . S
H601 C621 0.950 . S
H602 C623 0.950 . S
H603 C626 0.950 . S
H604 C627 0.950 . S
H605 C629 0.950 . S
H606 C630 0.950 . S
H607 C631 0.951 . S
H608 C633 0.951 . S
H609 C635 0.950 . S
H610 C636 0.950 . S
H611 C638 0.950 . S
H612 C641 0.950 . S
H613 C642 0.950 . S
H614 C644 0.950 . S
H615 C645 0.950 . S
C616 H598 0.951 . S
C616 C617 1.366 . S
C616 C618 1.388 . S
C617 C616 1.366 . S
C617 C621 1.385 . S
C618 H599 0.951 . S
C618 C616 1.388 . S
C618 C619 1.366 . S
C619 C618 1.366 . S
C619 C620 1.414 . S
C619 C622 1.499 . S
C620 H600 0.950 . S
C620 C619 1.414 . S
C620 C621 1.374 . S
C621 H601 0.950 . S
C621 C617 1.385 . S
C621 C620 1.374 . S
C622 C619 1.499 . S
C622 C623 1.373 . S
C622 C624 1.389 . S
C623 H602 0.950 . S
C623 C622 1.373 . S
C623 C639 1.377 . S
C624 C622 1.389 . S
C624 C625 1.524 . S
C624 C638 1.377 . S
C625 C624 1.524 . S
C625 C626 1.397 . S
C625 C630 1.363 . S
C626 H603 0.950 . S
C626 C625 1.397 . S
C626 C627 1.334 . S
C627 H604 0.950 . S
C627 C626 1.334 . S
C627 C628 1.287 . S
C628 C627 1.287 . S
C628 C629 1.524 . S
C628 H647 0.913 . S
C629 H605 0.950 . S
C629 C628 1.524 . S
C629 C630 1.415 . S
C630 H606 0.950 . S
C630 C625 1.363 . S
C630 C629 1.415 . S
C631 H607 0.951 . S
C631 C632 1.366 . S
C631 C633 1.388 . S
C632 C631 1.366 . S
C632 C636 1.385 . S
C633 H608 0.951 . S
C633 C631 1.388 . S
C633 C634 1.366 1_565 S
C634 C633 1.366 1_545 S
C634 C635 1.414 . S
C634 C637 1.499 . S
C635 H609 0.950 . S
C635 C634 1.414 . S
C635 C636 1.374 1_545 S
C636 H610 0.950 . S
C636 C632 1.385 . S
C636 C635 1.374 1_565 S
C637 C634 1.499 . S
C637 C638 1.373 . S
C637 C639 1.389 . S
C638 H611 0.950 . S
C638 C624 1.377 . S
C638 C637 1.373 . S
C639 C623 1.377 . S
C639 C637 1.389 . S
C639 C640 1.524 . S
C640 C639 1.524 . S
C640 C641 1.397 . S
C640 C645 1.363 . S
C641 H612 0.950 . S
C641 C640 1.397 . S
C641 C642 1.334 . S
C642 H613 0.950 . S
C642 C641 1.334 . S
C642 C643 1.287 . S
C643 C642 1.287 . S
C643 C644 1.524 . S
C643 H646 0.999 . S
C644 H614 0.950 . S
C644 C643 1.524 . S
C644 C645 1.415 . S
C645 H615 0.950 . S
C645 C640 1.363 . S
C645 C644 1.415 . S
H646 C643 0.999 . S
H647 C628 0.913 . S
H648 C666 0.951 . S
H649 C668 0.951 . S
H650 C670 0.950 . S
H651 C671 0.950 . S
H652 C673 0.950 . S
H653 C676 0.950 . S
H654 C677 0.950 . S
H655 C679 0.950 . S
H656 C680 0.950 . S
H657 C681 0.951 . S
H658 C683 0.951 . S
H659 C685 0.950 1_545 S
H660 C686 0.950 . S
H661 C688 0.950 . S
H662 C691 0.950 . S
H663 C692 0.950 . S
H664 C694 0.950 . S
H665 C695 0.950 . S
C666 H648 0.951 . S
C666 C667 1.366 . S
C666 C668 1.388 . S
C667 C666 1.366 . S
C667 C671 1.385 . S
C668 H649 0.951 . S
C668 C666 1.388 . S
C668 C669 1.366 . S
C669 C668 1.366 . S
C669 C670 1.414 . S
C669 C672 1.499 . S
C670 H650 0.950 . S
C670 C669 1.414 . S
C670 C671 1.374 . S
C671 H651 0.950 . S
C671 C667 1.385 . S
C671 C670 1.374 . S
C672 C669 1.499 . S
C672 C673 1.373 . S
C672 C674 1.389 . S
C673 H652 0.950 . S
C673 C672 1.373 . S
C673 C689 1.377 . S
C674 C672 1.389 . S
C674 C675 1.524 . S
C674 C688 1.377 . S
C675 C674 1.524 . S
C675 C676 1.397 . S
C675 C680 1.363 . S
C676 H653 0.950 . S
C676 C675 1.397 . S
C676 C677 1.334 . S
C677 H654 0.950 . S
C677 C676 1.334 . S
C677 C678 1.287 . S
C678 C677 1.287 . S
C678 C679 1.524 . S
C678 H697 0.913 . S
C679 H655 0.950 . S
C679 C678 1.524 . S
C679 C680 1.415 . S
C680 H656 0.950 . S
C680 C675 1.363 . S
C680 C679 1.415 . S
C681 H657 0.951 . S
C681 C682 1.366 . S
C681 C683 1.388 1_565 S
C682 C681 1.366 . S
C682 C686 1.385 . S
C683 H658 0.951 . S
C683 C681 1.388 1_545 S
C683 C684 1.366 . S
C684 C683 1.366 . S
C684 C685 1.414 1_545 S
C684 C687 1.499 . S
C685 H659 0.950 1_565 S
C685 C684 1.414 1_565 S
C685 C686 1.374 . S
C686 H660 0.950 . S
C686 C682 1.385 . S
C686 C685 1.374 . S
C687 C684 1.499 . S
C687 C688 1.373 . S
C687 C689 1.389 . S
C688 H661 0.950 . S
C688 C674 1.377 . S
C688 C687 1.373 . S
C689 C673 1.377 . S
C689 C687 1.389 . S
C689 C690 1.524 . S
C690 C689 1.524 . S
C690 C691 1.397 1_545 S
C690 C695 1.363 . S
C691 H662 0.950 . S
C691 C690 1.397 1_565 S
C691 C692 1.334 . S
C692 H663 0.950 . S
C692 C691 1.334 . S
C692 C693 1.287 . S
C693 C692 1.287 . S
C693 C694 1.524 . S
C693 H696 0.999 . S
C694 H664 0.950 . S
C694 C693 1.524 . S
C694 C695 1.415 1_565 S
C695 H665 0.950 . S
C695 C690 1.363 . S
C695 C694 1.415 1_545 S
H696 C693 0.999 . S
H697 C678 0.913 . S
H698 C716 0.955 . S
H699 C718 0.951 . S
H700 C720 0.950 . S
H701 C721 0.950 . S
H702 C723 0.950 . S
H703 C726 0.950 . S
H704 C727 0.950 . S
H705 C729 0.950 . S
H706 C730 0.950 . S
H707 C731 0.951 . S
H708 C733 0.951 . S
H709 C735 0.950 . S
H710 C736 0.950 . S
H711 C738 0.950 . S
H712 C741 0.950 . S
H713 C742 0.950 . S
H714 C744 0.950 . S
H715 C745 0.950 1_455 S
C716 H698 0.955 . S
C716 C717 1.335 1_655 S
C716 C718 1.415 . S
C717 C716 1.335 1_455 S
C717 C721 1.385 . S
C718 H699 0.951 . S
C718 C716 1.415 . S
C718 C719 1.366 . S
C719 C718 1.366 . S
C719 C720 1.414 1_655 S
C719 C722 1.499 . S
C720 H700 0.950 . S
C720 C719 1.414 1_455 S
C720 C721 1.374 . S
C721 H701 0.950 . S
C721 C717 1.385 . S
C721 C720 1.374 . S
C722 C719 1.499 . S
C722 C723 1.373 . S
C722 C724 1.389 . S
C723 H702 0.950 . S
C723 C722 1.373 . S
C723 C739 1.377 . S
C724 C722 1.389 . S
C724 C725 1.524 . S
C724 C738 1.377 . S
C725 C724 1.524 . S
C725 C726 1.397 . S
C725 C730 1.363 . S
C726 H703 0.950 . S
C726 C725 1.397 . S
C726 C727 1.334 . S
C727 H704 0.950 . S
C727 C726 1.334 . S
C727 C728 1.287 . S
C728 C727 1.287 . S
C728 C729 1.524 . S
C728 H747 0.913 . S
C729 H705 0.950 . S
C729 C728 1.524 . S
C729 C730 1.415 . S
C730 H706 0.950 . S
C730 C725 1.363 . S
C730 C729 1.415 . S
C731 H707 0.951 . S
C731 C732 1.366 . S
C731 C733 1.388 . S
C732 C731 1.366 . S
C732 C736 1.385 . S
C733 H708 0.951 . S
C733 C731 1.388 . S
C733 C734 1.366 . S
C734 C733 1.366 . S
C734 C735 1.414 . S
C734 C737 1.499 . S
C735 H709 0.950 . S
C735 C734 1.414 . S
C735 C736 1.374 . S
C736 H710 0.950 . S
C736 C732 1.385 . S
C736 C735 1.374 . S
C737 C734 1.499 . S
C737 C738 1.373 . S
C737 C739 1.389 . S
C738 H711 0.950 . S
C738 C724 1.377 . S
C738 C737 1.373 . S
C739 C723 1.377 . S
C739 C737 1.389 . S
C739 C740 1.524 . S
C740 C739 1.524 . S
C740 C741 1.397 . S
C740 C745 1.363 . S
C741 H712 0.950 . S
C741 C740 1.397 . S
C741 C742 1.334 . S
C742 H713 0.950 . S
C742 C741 1.334 . S
C742 C743 1.287 . S
C743 C742 1.287 . S
C743 C744 1.524 1_655 S
C743 H746 0.999 1_655 S
C744 H714 0.950 . S
C744 C743 1.524 1_455 S
C744 C745 1.415 1_455 S
C745 H715 0.950 1_655 S
C745 C740 1.363 . S
C745 C744 1.415 1_655 S
H746 C743 0.999 1_455 S
H747 C728 0.913 . S
H748 C766 0.951 . S
H749 C768 0.951 . S
H750 C770 0.950 . S
H751 C771 0.950 . S
H752 C773 0.950 . S
H753 C776 0.950 . S
H754 C777 0.950 . S
H755 C779 0.950 . S
H756 C780 0.950 . S
H757 C781 0.951 . S
H758 C783 0.951 . S
H759 C785 0.950 . S
H760 C786 0.950 . S
H761 C788 0.950 . S
H762 C791 0.950 . S
H763 C792 0.950 . S
H764 C794 0.950 . S
H765 C795 0.950 . S
C766 H748 0.951 . S
C766 C767 1.366 . S
C766 C768 1.388 . S
C767 C766 1.366 . S
C767 C771 1.385 . S
C768 H749 0.951 . S
C768 C766 1.388 . S
C768 C769 1.366 . S
C769 C768 1.366 . S
C769 C770 1.414 . S
C769 C772 1.499 . S
C770 H750 0.950 . S
C770 C769 1.414 . S
C770 C771 1.374 . S
C771 H751 0.950 . S
C771 C767 1.385 . S
C771 C770 1.374 . S
C772 C769 1.499 . S
C772 C773 1.373 . S
C772 C774 1.389 . S
C773 H752 0.950 . S
C773 C772 1.373 . S
C773 C789 1.377 . S
C774 C772 1.389 . S
C774 C775 1.524 . S
C774 C788 1.377 . S
C775 C774 1.524 . S
C775 C776 1.397 . S
C775 C780 1.363 . S
C776 H753 0.950 . S
C776 C775 1.397 . S
C776 C777 1.334 . S
C777 H754 0.950 . S
C777 C776 1.334 . S
C777 C778 1.287 . S
C778 C777 1.287 . S
C778 C779 1.524 . S
C778 H797 0.913 . S
C779 H755 0.950 . S
C779 C778 1.524 . S
C779 C780 1.415 . S
C780 H756 0.950 . S
C780 C775 1.363 . S
C780 C779 1.415 . S
C781 H757 0.951 . S
C781 C782 1.366 . S
C781 C783 1.388 . S
C782 C781 1.366 . S
C782 C786 1.385 . S
C783 H758 0.951 . S
C783 C781 1.388 . S
C783 C784 1.366 . S
C784 C783 1.366 . S
C784 C785 1.414 . S
C784 C787 1.499 . S
C785 H759 0.950 . S
C785 C784 1.414 . S
C785 C786 1.374 . S
C786 H760 0.950 . S
C786 C782 1.385 . S
C786 C785 1.374 . S
C787 C784 1.499 . S
C787 C788 1.373 . S
C787 C789 1.389 . S
C788 H761 0.950 . S
C788 C774 1.377 . S
C788 C787 1.373 . S
C789 C773 1.377 . S
C789 C787 1.389 . S
C789 C790 1.524 . S
C790 C789 1.524 . S
C790 C791 1.397 . S
C790 C795 1.363 . S
C791 H762 0.950 . S
C791 C790 1.397 . S
C791 C792 1.334 . S
C792 H763 0.950 . S
C792 C791 1.334 . S
C792 C793 1.287 . S
C793 C792 1.287 . S
C793 C794 1.524 . S
C793 H796 0.999 . S
C794 H764 0.950 . S
C794 C793 1.524 . S
C794 C795 1.415 . S
C795 H765 0.950 . S
C795 C790 1.363 . S
C795 C794 1.415 . S
H796 C793 0.999 . S
H797 C778 0.913 . S
H798 C816 0.951 . S
H799 C818 0.951 . S
H800 C820 0.950 . S
H801 C821 0.950 . S
H802 C823 0.950 . S
H803 C826 0.950 . S
H804 C827 0.950 . S
H805 C829 0.950 . S
H806 C830 0.950 . S
H807 C831 0.951 . S
H808 C833 0.951 . S
H809 C835 0.950 . S
H810 C836 0.950 . S
H811 C838 0.950 . S
H812 C841 0.950 . S
H813 C842 0.950 . S
H814 C844 0.950 . S
H815 C845 0.950 . S
C816 H798 0.951 . S
C816 C817 1.366 . S
C816 C818 1.388 . S
C817 C816 1.366 . S
C817 C821 1.385 . S
C818 H799 0.951 . S
C818 C816 1.388 . S
C818 C819 1.366 . S
C819 C818 1.366 . S
C819 C820 1.414 . S
C819 C822 1.499 . S
C820 H800 0.950 . S
C820 C819 1.414 . S
C820 C821 1.374 . S
C821 H801 0.950 . S
C821 C817 1.385 . S
C821 C820 1.374 . S
C822 C819 1.499 . S
C822 C823 1.373 . S
C822 C824 1.389 . S
C823 H802 0.950 . S
C823 C822 1.373 . S
C823 C839 1.377 . S
C824 C822 1.389 . S
C824 C825 1.524 . S
C824 C838 1.377 . S
C825 C824 1.524 . S
C825 C826 1.397 . S
C825 C830 1.363 . S
C826 H803 0.950 . S
C826 C825 1.397 . S
C826 C827 1.334 . S
C827 H804 0.950 . S
C827 C826 1.334 . S
C827 C828 1.287 . S
C828 C827 1.287 . S
C828 C829 1.524 . S
C828 H847 0.913 . S
C829 H805 0.950 . S
C829 C828 1.524 . S
C829 C830 1.415 . S
C830 H806 0.950 . S
C830 C825 1.363 . S
C830 C829 1.415 . S
C831 H807 0.951 . S
C831 C832 1.366 . S
C831 C833 1.388 . S
C832 C831 1.366 . S
C832 C836 1.385 . S
C833 H808 0.951 . S
C833 C831 1.388 . S
C833 C834 1.366 . S
C834 C833 1.366 . S
C834 C835 1.414 . S
C834 C837 1.499 . S
C835 H809 0.950 . S
C835 C834 1.414 . S
C835 C836 1.374 . S
C836 H810 0.950 . S
C836 C832 1.385 . S
C836 C835 1.374 . S
C837 C834 1.499 . S
C837 C838 1.373 . S
C837 C839 1.389 . S
C838 H811 0.950 . S
C838 C824 1.377 . S
C838 C837 1.373 . S
C839 C823 1.377 . S
C839 C837 1.389 . S
C839 C840 1.524 . S
C840 C839 1.524 . S
C840 C841 1.397 . S
C840 C845 1.363 . S
C841 H812 0.950 . S
C841 C840 1.397 . S
C841 C842 1.334 . S
C842 H813 0.950 . S
C842 C841 1.334 . S
C842 C843 1.287 . S
C843 C842 1.287 . S
C843 C844 1.524 . S
C843 H846 0.999 . S
C844 H814 0.950 . S
C844 C843 1.524 . S
C844 C845 1.415 . S
C845 H815 0.950 . S
C845 C840 1.363 . S
C845 C844 1.415 . S
H846 C843 0.999 . S
H847 C828 0.913 . S
H848 C866 0.951 . S
H849 C868 0.951 . S
H850 C870 0.950 . S
H851 C871 0.950 . S
H852 C873 0.950 . S
H853 C876 0.950 . S
H854 C877 0.950 . S
H855 C879 0.950 1_545 S
H856 C880 0.950 . S
H857 C881 0.951 . S
H858 C883 0.951 . S
H859 C885 0.950 . S
H860 C886 0.950 . S
H861 C888 0.950 . S
H862 C891 0.950 . S
H863 C892 0.950 . S
H864 C894 0.950 . S
H865 C895 0.950 . S
C866 H848 0.951 . S
C866 C867 1.366 . S
C866 C868 1.388 . S
C867 C866 1.366 . S
C867 C871 1.385 . S
C868 H849 0.951 . S
C868 C866 1.388 . S
C868 C869 1.366 . S
C869 C868 1.366 . S
C869 C870 1.414 . S
C869 C872 1.499 . S
C870 H850 0.950 . S
C870 C869 1.414 . S
C870 C871 1.374 . S
C871 H851 0.950 . S
C871 C867 1.385 . S
C871 C870 1.374 . S
C872 C869 1.499 . S
C872 C873 1.373 . S
C872 C874 1.389 . S
C873 H852 0.950 . S
C873 C872 1.373 . S
C873 C889 1.377 . S
C874 C872 1.389 . S
C874 C875 1.524 . S
C874 C888 1.377 . S
C875 C874 1.524 . S
C875 C876 1.397 . S
C875 C880 1.363 . S
C876 H853 0.950 . S
C876 C875 1.397 . S
C876 C877 1.334 1_565 S
C877 H854 0.950 . S
C877 C876 1.334 1_545 S
C877 C878 1.287 . S
C878 C877 1.287 . S
C878 C879 1.524 1_545 S
C878 H897 0.913 . S
C879 H855 0.950 1_565 S
C879 C878 1.524 1_565 S
C879 C880 1.415 . S
C880 H856 0.950 . S
C880 C875 1.363 . S
C880 C879 1.415 . S
C881 H857 0.951 . S
C881 C882 1.366 . S
C881 C883 1.388 . S
C882 C881 1.366 . S
C882 C886 1.385 . S
C883 H858 0.951 . S
C883 C881 1.388 . S
C883 C884 1.366 . S
C884 C883 1.366 . S
C884 C885 1.414 . S
C884 C887 1.499 . S
C885 H859 0.950 . S
C885 C884 1.414 . S
C885 C886 1.374 . S
C886 H860 0.950 . S
C886 C882 1.385 . S
C886 C885 1.374 . S
C887 C884 1.499 . S
C887 C888 1.373 . S
C887 C889 1.389 . S
C888 H861 0.950 . S
C888 C874 1.377 . S
C888 C887 1.373 . S
C889 C873 1.377 . S
C889 C887 1.389 . S
C889 C890 1.524 . S
C890 C889 1.524 . S
C890 C891 1.397 . S
C890 C895 1.363 . S
C891 H862 0.950 . S
C891 C890 1.397 . S
C891 C892 1.334 . S
C892 H863 0.950 . S
C892 C891 1.334 . S
C892 C893 1.287 . S
C893 C892 1.287 . S
C893 C894 1.524 . S
C893 H896 0.999 . S
C894 H864 0.950 . S
C894 C893 1.524 . S
C894 C895 1.415 . S
C895 H865 0.950 . S
C895 C890 1.363 . S
C895 C894 1.415 . S
H896 C893 0.999 . S
H897 C878 0.913 . S
H898 C916 0.951 . S
H899 C918 0.951 . S
H900 C920 0.950 . S
H901 C921 0.950 . S
H902 C923 0.950 . S
H903 C926 0.950 . S
H904 C927 0.950 . S
H905 C929 0.950 . S
H906 C930 0.950 . S
H907 C931 0.951 . S
H908 C933 0.951 . S
H909 C935 0.950 . S
H910 C936 0.950 . S
H911 C938 0.950 . S
H912 C941 0.950 . S
H913 C942 0.950 . S
H914 C944 0.950 . S
H915 C945 0.950 . S
C916 H898 0.951 . S
C916 C917 1.366 . S
C916 C918 1.388 . S
C917 C916 1.366 . S
C917 C921 1.385 . S
C918 H899 0.951 . S
C918 C916 1.388 . S
C918 C919 1.366 . S
C919 C918 1.366 . S
C919 C920 1.414 . S
C919 C922 1.499 . S
C920 H900 0.950 . S
C920 C919 1.414 . S
C920 C921 1.374 . S
C921 H901 0.950 . S
C921 C917 1.385 . S
C921 C920 1.374 . S
C922 C919 1.499 . S
C922 C923 1.373 . S
C922 C924 1.389 . S
C923 H902 0.950 . S
C923 C922 1.373 . S
C923 C939 1.377 . S
C924 C922 1.389 . S
C924 C925 1.524 . S
C924 C938 1.377 . S
C925 C924 1.524 . S
C925 C926 1.397 . S
C925 C930 1.363 . S
C926 H903 0.950 . S
C926 C925 1.397 . S
C926 C927 1.334 . S
C927 H904 0.950 . S
C927 C926 1.334 . S
C927 C928 1.287 . S
C928 C927 1.287 . S
C928 C929 1.524 . S
C928 H947 0.913 . S
C929 H905 0.950 . S
C929 C928 1.524 . S
C929 C930 1.415 . S
C930 H906 0.950 . S
C930 C925 1.363 . S
C930 C929 1.415 . S
C931 H907 0.951 . S
C931 C932 1.366 . S
C931 C933 1.388 . S
C932 C931 1.366 . S
C932 C936 1.385 . S
C933 H908 0.951 . S
C933 C931 1.388 . S
C933 C934 1.366 . S
C934 C933 1.366 . S
C934 C935 1.414 . S
C934 C937 1.499 . S
C935 H909 0.950 . S
C935 C934 1.414 . S
C935 C936 1.374 . S
C936 H910 0.950 . S
C936 C932 1.385 . S
C936 C935 1.374 . S
C937 C934 1.499 . S
C937 C938 1.373 . S
C937 C939 1.389 . S
C938 H911 0.950 . S
C938 C924 1.377 . S
C938 C937 1.373 . S
C939 C923 1.377 . S
C939 C937 1.389 . S
C939 C940 1.524 . S
C940 C939 1.524 . S
C940 C941 1.397 . S
C940 C945 1.363 . S
C941 H912 0.950 . S
C941 C940 1.397 . S
C941 C942 1.334 1_455 S
C942 H913 0.950 . S
C942 C941 1.334 1_655 S
C942 C943 1.287 . S
C943 C942 1.287 . S
C943 C944 1.524 . S
C943 H946 0.999 . S
C944 H914 0.950 . S
C944 C943 1.524 . S
C944 C945 1.415 1_655 S
C945 H915 0.950 . S
C945 C940 1.363 . S
C945 C944 1.415 1_455 S
H946 C943 0.999 . S
H947 C928 0.913 . S
H948 C966 0.951 . S
H949 C968 0.951 . S
H950 C970 0.950 . S
H951 C971 0.950 . S
H952 C973 0.950 . S
H953 C976 0.950 . S
H954 C977 0.950 . S
H955 C979 0.950 . S
H956 C980 0.950 . S
H957 C981 0.951 . S
H958 C983 0.951 . S
H959 C985 0.950 . S
H960 C986 0.950 . S
H961 C988 0.950 . S
H962 C991 0.950 . S
H963 C992 0.950 . S
H964 C994 0.950 . S
H965 C995 0.950 . S
C966 H948 0.951 . S
C966 C967 1.366 . S
C966 C968 1.388 . S
C967 C966 1.366 . S
C967 C971 1.385 . S
C968 H949 0.951 . S
C968 C966 1.388 . S
C968 C969 1.366 . S
C969 C968 1.366 . S
C969 C970 1.414 . S
C969 C972 1.499 . S
C970 H950 0.950 . S
C970 C969 1.414 . S
C970 C971 1.374 . S
C971 H951 0.950 . S
C971 C967 1.385 . S
C971 C970 1.374 . S
C972 C969 1.499 . S
C972 C973 1.373 . S
C972 C974 1.389 . S
C973 H952 0.950 . S
C973 C972 1.373 . S
C973 C989 1.377 . S
C974 C972 1.389 . S
C974 C975 1.524 . S
C974 C988 1.377 . S
C975 C974 1.524 . S
C975 C976 1.397 . S
C975 C980 1.363 . S
C976 H953 0.950 . S
C976 C975 1.397 . S
C976 C977 1.334 . S
C977 H954 0.950 . S
C977 C976 1.334 . S
C977 C978 1.287 . S
C978 C977 1.287 . S
C978 C979 1.524 . S
C978 H997 0.913 . S
C979 H955 0.950 . S
C979 C978 1.524 . S
C979 C980 1.415 . S
C980 H956 0.950 . S
C980 C975 1.363 . S
C980 C979 1.415 . S
C981 H957 0.951 . S
C981 C982 1.366 . S
C981 C983 1.388 . S
C982 C981 1.366 . S
C982 C986 1.385 . S
C983 H958 0.951 . S
C983 C981 1.388 . S
C983 C984 1.366 . S
C984 C983 1.366 . S
C984 C985 1.414 . S
C984 C987 1.499 . S
C985 H959 0.950 . S
C985 C984 1.414 . S
C985 C986 1.374 . S
C986 H960 0.950 . S
C986 C982 1.385 . S
C986 C985 1.374 . S
C987 C984 1.499 . S
C987 C988 1.373 . S
C987 C989 1.389 . S
C988 H961 0.950 . S
C988 C974 1.377 . S
C988 C987 1.373 . S
C989 C973 1.377 . S
C989 C987 1.389 . S
C989 C990 1.524 . S
C990 C989 1.524 . S
C990 C991 1.397 . S
C990 C995 1.363 . S
C991 H962 0.950 . S
C991 C990 1.397 . S
C991 C992 1.334 . S
C992 H963 0.950 . S
C992 C991 1.334 . S
C992 C993 1.287 . S
C993 C992 1.287 . S
C993 C994 1.524 . S
C993 H996 0.999 . S
C994 H964 0.950 . S
C994 C993 1.524 . S
C994 C995 1.415 . S
C995 H965 0.950 . S
C995 C990 1.363 . S
C995 C994 1.415 . S
H996 C993 0.999 . S
H997 C978 0.913 . S
H998 C1016 0.951 . S
H999 C1018 0.951 . S
H1000 C1020 0.950 . S
H1001 C1021 0.950 . S
H1002 C1023 0.950 . S
H1003 C1026 0.950 . S
H1004 C1027 0.950 . S
H1005 C1029 0.950 1_545 S
H1006 C1030 0.950 . S
H1007 C1031 0.951 . S
H1008 C1033 0.951 . S
H1009 C1035 0.950 . S
H1010 C1036 0.950 . S
H1011 C1038 0.950 . S
H1012 C1041 0.950 . S
H1013 C1042 0.950 . S
H1014 C1044 0.950 . S
H1015 C1045 0.950 . S
C1016 H998 0.951 . S
C1016 C1017 1.366 . S
C1016 C1018 1.388 . S
C1017 C1016 1.366 . S
C1017 C1021 1.385 . S
C1018 H999 0.951 . S
C1018 C1016 1.388 . S
C1018 C1019 1.366 . S
C1019 C1018 1.366 . S
C1019 C1020 1.414 . S
C1019 C1022 1.499 . S
C1020 H1000 0.950 . S
C1020 C1019 1.414 . S
C1020 C1021 1.374 . S
C1021 H1001 0.950 . S
C1021 C1017 1.385 . S
C1021 C1020 1.374 . S
C1022 C1019 1.499 . S
C1022 C1023 1.373 . S
C1022 C1024 1.389 . S
C1023 H1002 0.950 . S
C1023 C1022 1.373 . S
C1023 C1039 1.377 . S
C1024 C1022 1.389 . S
C1024 C1025 1.524 . S
C1024 C1038 1.377 . S
C1025 C1024 1.524 . S
C1025 C1026 1.397 . S
C1025 C1030 1.363 . S
C1026 H1003 0.950 . S
C1026 C1025 1.397 . S
C1026 C1027 1.334 . S
C1027 H1004 0.950 . S
C1027 C1026 1.334 . S
C1027 C1028 1.287 . S
C1028 C1027 1.287 . S
C1028 C1029 1.524 . S
C1028 H1047 0.913 . S
C1029 H1005 0.950 1_565 S
C1029 C1028 1.524 . S
C1029 C1030 1.415 . S
C1030 H1006 0.950 . S
C1030 C1025 1.363 . S
C1030 C1029 1.415 . S
C1031 H1007 0.951 . S
C1031 C1032 1.366 . S
C1031 C1033 1.388 . S
C1032 C1031 1.366 . S
C1032 C1036 1.385 . S
C1033 H1008 0.951 . S
C1033 C1031 1.388 . S
C1033 C1034 1.366 . S
C1034 C1033 1.366 . S
C1034 C1035 1.414 . S
C1034 C1037 1.499 . S
C1035 H1009 0.950 . S
C1035 C1034 1.414 . S
C1035 C1036 1.374 . S
C1036 H1010 0.950 . S
C1036 C1032 1.385 . S
C1036 C1035 1.374 . S
C1037 C1034 1.499 . S
C1037 C1038 1.373 . S
C1037 C1039 1.389 . S
C1038 H1011 0.950 . S
C1038 C1024 1.377 . S
C1038 C1037 1.373 . S
C1039 C1023 1.377 . S
C1039 C1037 1.389 . S
C1039 C1040 1.524 . S
C1040 C1039 1.524 . S
C1040 C1041 1.397 . S
C1040 C1045 1.363 . S
C1041 H1012 0.950 . S
C1041 C1040 1.397 . S
C1041 C1042 1.334 . S
C1042 H1013 0.950 . S
C1042 C1041 1.334 . S
C1042 C1043 1.287 . S
C1043 C1042 1.287 . S
C1043 C1044 1.524 . S
C1043 H1046 0.999 . S
C1044 H1014 0.950 . S
C1044 C1043 1.524 . S
C1044 C1045 1.415 . S
C1045 H1015 0.950 . S
C1045 C1040 1.363 . S
C1045 C1044 1.415 . S
H1046 C1043 0.999 . S
H1047 C1028 0.913 . S
H1048 C1066 0.951 . S
H1049 C1068 0.951 . S
H1050 C1070 0.950 . S
H1051 C1071 0.950 . S
H1052 C1073 0.950 . S
H1053 C1076 0.950 . S
H1054 C1077 0.950 . S
H1055 C1079 0.950 . S
H1056 C1080 0.950 . S
H1057 C1081 0.951 . S
H1058 C1083 0.951 . S
H1059 C1085 0.950 . S
H1060 C1086 0.950 . S
H1061 C1088 0.950 . S
H1062 C1091 0.950 . S
H1063 C1092 0.950 . S
H1064 C1094 0.950 . S
H1065 C1095 0.950 . S
C1066 H1048 0.951 . S
C1066 C1067 1.366 . S
C1066 C1068 1.388 . S
C1067 C1066 1.366 . S
C1067 C1071 1.385 . S
C1068 H1049 0.951 . S
C1068 C1066 1.388 . S
C1068 C1069 1.366 . S
C1069 C1068 1.366 . S
C1069 C1070 1.414 . S
C1069 C1072 1.499 . S
C1070 H1050 0.950 . S
C1070 C1069 1.414 . S
C1070 C1071 1.374 . S
C1071 H1051 0.950 . S
C1071 C1067 1.385 . S
C1071 C1070 1.374 . S
C1072 C1069 1.499 . S
C1072 C1073 1.373 . S
C1072 C1074 1.389 . S
C1073 H1052 0.950 . S
C1073 C1072 1.373 . S
C1073 C1089 1.377 . S
C1074 C1072 1.389 . S
C1074 C1075 1.524 . S
C1074 C1088 1.377 . S
C1075 C1074 1.524 . S
C1075 C1076 1.397 . S
C1075 C1080 1.363 . S
C1076 H1053 0.950 . S
C1076 C1075 1.397 . S
C1076 C1077 1.334 . S
C1077 H1054 0.950 . S
C1077 C1076 1.334 . S
C1077 C1078 1.287 . S
C1078 C1077 1.287 . S
C1078 C1079 1.524 . S
C1078 H1097 0.913 . S
C1079 H1055 0.950 . S
C1079 C1078 1.524 . S
C1079 C1080 1.415 . S
C1080 H1056 0.950 . S
C1080 C1075 1.363 . S
C1080 C1079 1.415 . S
C1081 H1057 0.951 . S
C1081 C1082 1.366 . S
C1081 C1083 1.388 . S
C1082 C1081 1.366 . S
C1082 C1086 1.385 . S
C1083 H1058 0.951 . S
C1083 C1081 1.388 . S
C1083 C1084 1.366 . S
C1084 C1083 1.366 . S
C1084 C1085 1.414 . S
C1084 C1087 1.499 . S
C1085 H1059 0.950 . S
C1085 C1084 1.414 . S
C1085 C1086 1.374 . S
C1086 H1060 0.950 . S
C1086 C1082 1.385 . S
C1086 C1085 1.374 . S
C1087 C1084 1.499 . S
C1087 C1088 1.373 . S
C1087 C1089 1.389 . S
C1088 H1061 0.950 . S
C1088 C1074 1.377 . S
C1088 C1087 1.373 . S
C1089 C1073 1.377 . S
C1089 C1087 1.389 . S
C1089 C1090 1.524 . S
C1090 C1089 1.524 . S
C1090 C1091 1.397 . S
C1090 C1095 1.363 . S
C1091 H1062 0.950 . S
C1091 C1090 1.397 . S
C1091 C1092 1.334 . S
C1092 H1063 0.950 . S
C1092 C1091 1.334 . S
C1092 C1093 1.287 1_455 S
C1093 C1092 1.287 1_655 S
C1093 C1094 1.524 . S
C1093 H1096 0.999 . S
C1094 H1064 0.950 . S
C1094 C1093 1.524 . S
C1094 C1095 1.415 1_655 S
C1095 H1065 0.950 . S
C1095 C1090 1.363 . S
C1095 C1094 1.415 1_455 S
H1096 C1093 0.999 . S
H1097 C1078 0.913 . S
H1098 C1116 0.951 . S
H1099 C1118 0.951 . S
H1100 C1120 0.950 . S
H1101 C1121 0.950 . S
H1102 C1123 0.950 . S
H1103 C1126 0.950 . S
H1104 C1127 0.950 . S
H1105 C1129 0.950 . S
H1106 C1130 0.950 . S
H1107 C1131 0.951 . S
H1108 C1133 0.951 . S
H1109 C1135 0.950 . S
H1110 C1136 0.950 . S
H1111 C1138 0.950 . S
H1112 C1141 0.950 . S
H1113 C1142 0.950 . S
H1114 C1144 0.950 . S
H1115 C1145 0.950 . S
C1116 H1098 0.951 . S
C1116 C1117 1.366 1_554 S
C1116 C1118 1.388 . S
C1117 C1116 1.366 1_556 S
C1117 C1121 1.385 . S
C1118 H1099 0.951 . S
C1118 C1116 1.388 . S
C1118 C1119 1.366 1_554 S
C1119 C1118 1.366 1_556 S
C1119 C1120 1.414 . S
C1119 C1122 1.499 . S
C1120 H1100 0.950 . S
C1120 C1119 1.414 . S
C1120 C1121 1.374 . S
C1121 H1101 0.950 . S
C1121 C1117 1.385 . S
C1121 C1120 1.374 . S
C1122 C1119 1.499 . S
C1122 C1123 1.373 . S
C1122 C1124 1.389 1_556 S
C1123 H1102 0.950 . S
C1123 C1122 1.373 . S
C1123 C1139 1.377 . S
C1124 C1122 1.389 1_554 S
C1124 C1125 1.524 . S
C1124 C1138 1.377 . S
C1125 C1124 1.524 . S
C1125 C1126 1.397 . S
C1125 C1130 1.363 . S
C1126 H1103 0.950 . S
C1126 C1125 1.397 . S
C1126 C1127 1.334 . S
C1127 H1104 0.950 . S
C1127 C1126 1.334 . S
C1127 C1128 1.287 . S
C1128 C1127 1.287 . S
C1128 C1129 1.524 . S
C1128 H1147 0.913 . S
C1129 H1105 0.950 . S
C1129 C1128 1.524 . S
C1129 C1130 1.415 . S
C1130 H1106 0.950 . S
C1130 C1125 1.363 . S
C1130 C1129 1.415 . S
C1131 H1107 0.951 . S
C1131 C1132 1.366 . S
C1131 C1133 1.388 . S
C1132 C1131 1.366 . S
C1132 C1136 1.385 1_556 S
C1133 H1108 0.951 . S
C1133 C1131 1.388 . S
C1133 C1134 1.366 . S
C1134 C1133 1.366 . S
C1134 C1135 1.414 1_556 S
C1134 C1137 1.499 . S
C1135 H1109 0.950 . S
C1135 C1134 1.414 1_554 S
C1135 C1136 1.374 . S
C1136 H1110 0.950 . S
C1136 C1132 1.385 1_554 S
C1136 C1135 1.374 . S
C1137 C1134 1.499 . S
C1137 C1138 1.373 1_556 S
C1137 C1139 1.389 . S
C1138 H1111 0.950 . S
C1138 C1124 1.377 . S
C1138 C1137 1.373 1_554 S
C1139 C1123 1.377 . S
C1139 C1137 1.389 . S
C1139 C1140 1.524 . S
C1140 C1139 1.524 . S
C1140 C1141 1.397 . S
C1140 C1145 1.363 . S
C1141 H1112 0.950 . S
C1141 C1140 1.397 . S
C1141 C1142 1.334 . S
C1142 H1113 0.950 . S
C1142 C1141 1.334 . S
C1142 C1143 1.287 . S
C1143 C1142 1.287 . S
C1143 C1144 1.524 . S
C1143 H1146 0.999 . S
C1144 H1114 0.950 . S
C1144 C1143 1.524 . S
C1144 C1145 1.415 . S
C1145 H1115 0.950 . S
C1145 C1140 1.363 . S
C1145 C1144 1.415 . S
H1146 C1143 0.999 . S
H1147 C1128 0.913 . S
H1148 C1166 0.951 . S
H1149 C1168 0.951 . S
H1150 C1170 0.950 . S
H1151 C1171 0.950 . S
H1152 C1173 0.950 . S
H1153 C1176 0.950 . S
H1154 C1177 0.950 . S
H1155 C1179 0.950 . S
H1156 C1180 0.950 . S
H1157 C1181 0.951 . S
H1158 C1183 0.951 . S
H1159 C1185 0.950 . S
H1160 C1186 0.950 . S
H1161 C1188 0.950 . S
H1162 C1191 0.950 . S
H1163 C1192 0.950 . S
H1164 C1194 0.950 . S
H1165 C1195 0.950 . S
C1166 H1148 0.951 . S
C1166 C1167 1.366 1_554 S
C1166 C1168 1.388 . S
C1167 C1166 1.366 1_556 S
C1167 C1171 1.385 . S
C1168 H1149 0.951 . S
C1168 C1166 1.388 . S
C1168 C1169 1.366 1_554 S
C1169 C1168 1.366 1_556 S
C1169 C1170 1.414 . S
C1169 C1172 1.499 . S
C1170 H1150 0.950 . S
C1170 C1169 1.414 . S
C1170 C1171 1.374 . S
C1171 H1151 0.950 . S
C1171 C1167 1.385 . S
C1171 C1170 1.374 . S
C1172 C1169 1.499 . S
C1172 C1173 1.373 . S
C1172 C1174 1.389 1_556 S
C1173 H1152 0.950 . S
C1173 C1172 1.373 . S
C1173 C1189 1.377 . S
C1174 C1172 1.389 1_554 S
C1174 C1175 1.524 . S
C1174 C1188 1.377 . S
C1175 C1174 1.524 . S
C1175 C1176 1.397 . S
C1175 C1180 1.363 . S
C1176 H1153 0.950 . S
C1176 C1175 1.397 . S
C1176 C1177 1.334 . S
C1177 H1154 0.950 . S
C1177 C1176 1.334 . S
C1177 C1178 1.287 . S
C1178 C1177 1.287 . S
C1178 C1179 1.524 . S
C1178 H1197 0.913 . S
C1179 H1155 0.950 . S
C1179 C1178 1.524 . S
C1179 C1180 1.415 . S
C1180 H1156 0.950 . S
C1180 C1175 1.363 . S
C1180 C1179 1.415 . S
C1181 H1157 0.951 . S
C1181 C1182 1.366 . S
C1181 C1183 1.388 . S
C1182 C1181 1.366 . S
C1182 C1186 1.385 1_556 S
C1183 H1158 0.951 . S
C1183 C1181 1.388 . S
C1183 C1184 1.366 . S
C1184 C1183 1.366 . S
C1184 C1185 1.414 1_556 S
C1184 C1187 1.499 . S
C1185 H1159 0.950 . S
C1185 C1184 1.414 1_554 S
C1185 C1186 1.374 . S
C1186 H1160 0.950 . S
C1186 C1182 1.385 1_554 S
C1186 C1185 1.374 . S
C1187 C1184 1.499 . S
C1187 C1188 1.373 1_556 S
C1187 C1189 1.389 . S
C1188 H1161 0.950 . S
C1188 C1174 1.377 . S
C1188 C1187 1.373 1_554 S
C1189 C1173 1.377 . S
C1189 C1187 1.389 . S
C1189 C1190 1.524 . S
C1190 C1189 1.524 . S
C1190 C1191 1.397 . S
C1190 C1195 1.363 . S
C1191 H1162 0.950 . S
C1191 C1190 1.397 . S
C1191 C1192 1.334 . S
C1192 H1163 0.950 . S
C1192 C1191 1.334 . S
C1192 C1193 1.287 . S
C1193 C1192 1.287 . S
C1193 C1194 1.524 . S
C1193 H1196 0.999 . S
C1194 H1164 0.950 . S
C1194 C1193 1.524 . S
C1194 C1195 1.415 . S
C1195 H1165 0.950 . S
C1195 C1190 1.363 . S
C1195 C1194 1.415 . S
H1196 C1193 0.999 . S
H1197 C1178 0.913 . S
H1198 C1216 0.951 . S
H1199 C1218 0.951 . S
H1200 C1220 0.950 . S
H1201 C1221 0.950 . S
H1202 C1223 0.950 . S
H1203 C1226 0.950 . S
H1204 C1227 0.950 . S
H1205 C1229 0.950 . S
H1206 C1230 0.950 . S
H1207 C1231 0.951 . S
H1208 C1233 0.951 . S
H1209 C1235 0.950 . S
H1210 C1236 0.950 . S
H1211 C1238 0.950 . S
H1212 C1241 0.950 . S
H1213 C1242 0.950 . S
H1214 C1244 0.950 . S
H1215 C1245 0.950 . S
C1216 H1198 0.951 . S
C1216 C1217 1.366 . S
C1216 C1218 1.388 . S
C1217 C1216 1.366 . S
C1217 C1221 1.385 . S
C1218 H1199 0.951 . S
C1218 C1216 1.388 . S
C1218 C1219 1.366 . S
C1219 C1218 1.366 . S
C1219 C1220 1.414 . S
C1219 C1222 1.499 . S
C1220 H1200 0.950 . S
C1220 C1219 1.414 . S
C1220 C1221 1.374 . S
C1221 H1201 0.950 . S
C1221 C1217 1.385 . S
C1221 C1220 1.374 . S
C1222 C1219 1.499 . S
C1222 C1223 1.373 . S
C1222 C1224 1.389 1_556 S
C1223 H1202 0.950 . S
C1223 C1222 1.373 . S
C1223 C1239 1.377 . S
C1224 C1222 1.389 1_554 S
C1224 C1225 1.524 . S
C1224 C1238 1.377 . S
C1225 C1224 1.524 . S
C1225 C1226 1.397 . S
C1225 C1230 1.363 . S
C1226 H1203 0.950 . S
C1226 C1225 1.397 . S
C1226 C1227 1.334 . S
C1227 H1204 0.950 . S
C1227 C1226 1.334 . S
C1227 C1228 1.287 . S
C1228 C1227 1.287 . S
C1228 C1229 1.524 . S
C1228 H1247 0.913 . S
C1229 H1205 0.950 . S
C1229 C1228 1.524 . S
C1229 C1230 1.415 . S
C1230 H1206 0.950 . S
C1230 C1225 1.363 . S
C1230 C1229 1.415 . S
C1231 H1207 0.951 . S
C1231 C1232 1.366 . S
C1231 C1233 1.388 . S
C1232 C1231 1.366 . S
C1232 C1236 1.385 . S
C1233 H1208 0.951 . S
C1233 C1231 1.388 . S
C1233 C1234 1.366 . S
C1234 C1233 1.366 . S
C1234 C1235 1.414 . S
C1234 C1237 1.499 . S
C1235 H1209 0.950 . S
C1235 C1234 1.414 . S
C1235 C1236 1.374 . S
C1236 H1210 0.950 . S
C1236 C1232 1.385 . S
C1236 C1235 1.374 . S
C1237 C1234 1.499 . S
C1237 C1238 1.373 1_556 S
C1237 C1239 1.389 . S
C1238 H1211 0.950 . S
C1238 C1224 1.377 . S
C1238 C1237 1.373 1_554 S
C1239 C1223 1.377 . S
C1239 C1237 1.389 . S
C1239 C1240 1.524 . S
C1240 C1239 1.524 . S
C1240 C1241 1.397 . S
C1240 C1245 1.363 . S
C1241 H1212 0.950 . S
C1241 C1240 1.397 . S
C1241 C1242 1.334 . S
C1242 H1213 0.950 . S
C1242 C1241 1.334 . S
C1242 C1243 1.287 . S
C1243 C1242 1.287 . S
C1243 C1244 1.524 . S
C1243 H1246 0.999 . S
C1244 H1214 0.950 . S
C1244 C1243 1.524 . S
C1244 C1245 1.415 . S
C1245 H1215 0.950 . S
C1245 C1240 1.363 . S
C1245 C1244 1.415 . S
H1246 C1243 0.999 . S
H1247 C1228 0.913 . S
H1248 C1266 0.951 . S
H1249 C1268 0.951 . S
H1250 C1270 0.950 . S
H1251 C1271 0.950 . S
H1252 C1273 0.950 . S
H1253 C1276 0.950 . S
H1254 C1277 0.950 . S
H1255 C1279 0.950 . S
H1256 C1280 0.950 . S
H1257 C1281 0.951 . S
H1258 C1283 0.951 . S
H1259 C1285 0.950 . S
H1260 C1286 0.950 . S
H1261 C1288 0.950 . S
H1262 C1291 0.950 . S
H1263 C1292 0.950 . S
H1264 C1294 0.950 . S
H1265 C1295 0.950 . S
C1266 H1248 0.951 . S
C1266 C1267 1.366 . S
C1266 C1268 1.388 . S
C1267 C1266 1.366 . S
C1267 C1271 1.385 . S
C1268 H1249 0.951 . S
C1268 C1266 1.388 . S
C1268 C1269 1.366 . S
C1269 C1268 1.366 . S
C1269 C1270 1.414 . S
C1269 C1272 1.499 . S
C1270 H1250 0.950 . S
C1270 C1269 1.414 . S
C1270 C1271 1.374 . S
C1271 H1251 0.950 . S
C1271 C1267 1.385 . S
C1271 C1270 1.374 . S
C1272 C1269 1.499 . S
C1272 C1273 1.373 . S
C1272 C1274 1.389 . S
C1273 H1252 0.950 . S
C1273 C1272 1.373 . S
C1273 C1289 1.377 . S
C1274 C1272 1.389 . S
C1274 C1275 1.524 . S
C1274 C1288 1.377 . S
C1275 C1274 1.524 . S
C1275 C1276 1.397 . S
C1275 C1280 1.363 . S
C1276 H1253 0.950 . S
C1276 C1275 1.397 . S
C1276 C1277 1.334 . S
C1277 H1254 0.950 . S
C1277 C1276 1.334 . S
C1277 C1278 1.287 . S
C1278 C1277 1.287 . S
C1278 C1279 1.524 . S
C1278 H1297 0.913 . S
C1279 H1255 0.950 . S
C1279 C1278 1.524 . S
C1279 C1280 1.415 . S
C1280 H1256 0.950 . S
C1280 C1275 1.363 . S
C1280 C1279 1.415 . S
C1281 H1257 0.951 . S
C1281 C1282 1.366 . S
C1281 C1283 1.388 . S
C1282 C1281 1.366 . S
C1282 C1286 1.385 . S
C1283 H1258 0.951 . S
C1283 C1281 1.388 . S
C1283 C1284 1.366 . S
C1284 C1283 1.366 . S
C1284 C1285 1.414 . S
C1284 C1287 1.499 . S
C1285 H1259 0.950 . S
C1285 C1284 1.414 . S
C1285 C1286 1.374 . S
C1286 H1260 0.950 . S
C1286 C1282 1.385 . S
C1286 C1285 1.374 . S
C1287 C1284 1.499 . S
C1287 C1288 1.373 . S
C1287 C1289 1.389 . S
C1288 H1261 0.950 . S
C1288 C1274 1.377 . S
C1288 C1287 1.373 . S
C1289 C1273 1.377 . S
C1289 C1287 1.389 . S
C1289 C1290 1.524 . S
C1290 C1289 1.524 . S
C1290 C1291 1.397 . S
C1290 C1295 1.363 . S
C1291 H1262 0.950 . S
C1291 C1290 1.397 . S
C1291 C1292 1.334 . S
C1292 H1263 0.950 . S
C1292 C1291 1.334 . S
C1292 C1293 1.287 . S
C1293 C1292 1.287 . S
C1293 C1294 1.524 . S
C1293 H1296 0.999 . S
C1294 H1264 0.950 . S
C1294 C1293 1.524 . S
C1294 C1295 1.415 . S
C1295 H1265 0.950 . S
C1295 C1290 1.363 . S
C1295 C1294 1.415 . S
H1296 C1293 0.999 . S
H1297 C1278 0.913 . S
H1298 C1316 0.951 . S
H1299 C1318 0.951 . S
H1300 C1320 0.950 . S
H1301 C1321 0.950 . S
H1302 C1323 0.950 . S
H1303 C1326 0.950 . S
H1304 C1327 0.950 . S
H1305 C1329 0.950 . S
H1306 C1330 0.950 . S
H1307 C1331 0.951 . S
H1308 C1333 0.951 . S
H1309 C1335 0.950 . S
H1310 C1336 0.950 . S
H1311 C1338 0.950 . S
H1312 C1341 0.950 . S
H1313 C1342 0.950 . S
H1314 C1344 0.950 . S
H1315 C1345 0.950 . S
C1316 H1298 0.951 . S
C1316 C1317 1.366 . S
C1316 C1318 1.388 . S
C1317 C1316 1.366 . S
C1317 C1321 1.385 . S
C1318 H1299 0.951 . S
C1318 C1316 1.388 . S
C1318 C1319 1.366 . S
C1319 C1318 1.366 . S
C1319 C1320 1.414 . S
C1319 C1322 1.499 . S
C1320 H1300 0.950 . S
C1320 C1319 1.414 . S
C1320 C1321 1.374 . S
C1321 H1301 0.950 . S
C1321 C1317 1.385 . S
C1321 C1320 1.374 . S
C1322 C1319 1.499 . S
C1322 C1323 1.373 . S
C1322 C1324 1.389 . S
C1323 H1302 0.950 . S
C1323 C1322 1.373 . S
C1323 C1339 1.377 . S
C1324 C1322 1.389 . S
C1324 C1325 1.524 . S
C1324 C1338 1.377 . S
C1325 C1324 1.524 . S
C1325 C1326 1.397 . S
C1325 C1330 1.363 . S
C1326 H1303 0.950 . S
C1326 C1325 1.397 . S
C1326 C1327 1.334 . S
C1327 H1304 0.950 . S
C1327 C1326 1.334 . S
C1327 C1328 1.287 . S
C1328 C1327 1.287 . S
C1328 C1329 1.524 . S
C1328 H1347 0.913 . S
C1329 H1305 0.950 . S
C1329 C1328 1.524 . S
C1329 C1330 1.415 . S
C1330 H1306 0.950 . S
C1330 C1325 1.363 . S
C1330 C1329 1.415 . S
C1331 H1307 0.951 . S
C1331 C1332 1.366 . S
C1331 C1333 1.388 . S
C1332 C1331 1.366 . S
C1332 C1336 1.385 . S
C1333 H1308 0.951 . S
C1333 C1331 1.388 . S
C1333 C1334 1.366 . S
C1334 C1333 1.366 . S
C1334 C1335 1.414 . S
C1334 C1337 1.499 . S
C1335 H1309 0.950 . S
C1335 C1334 1.414 . S
C1335 C1336 1.374 . S
C1336 H1310 0.950 . S
C1336 C1332 1.385 . S
C1336 C1335 1.374 . S
C1337 C1334 1.499 . S
C1337 C1338 1.373 . S
C1337 C1339 1.389 . S
C1338 H1311 0.950 . S
C1338 C1324 1.377 . S
C1338 C1337 1.373 . S
C1339 C1323 1.377 . S
C1339 C1337 1.389 . S
C1339 C1340 1.524 . S
C1340 C1339 1.524 . S
C1340 C1341 1.397 . S
C1340 C1345 1.363 . S
C1341 H1312 0.950 . S
C1341 C1340 1.397 . S
C1341 C1342 1.334 . S
C1342 H1313 0.950 . S
C1342 C1341 1.334 . S
C1342 C1343 1.287 . S
C1343 C1342 1.287 . S
C1343 C1344 1.524 . S
C1343 H1346 0.999 . S
C1344 H1314 0.950 . S
C1344 C1343 1.524 . S
C1344 C1345 1.415 . S
C1345 H1315 0.950 . S
C1345 C1340 1.363 . S
C1345 C1344 1.415 . S
H1346 C1343 0.999 . S
H1347 C1328 0.913 . S
H1348 C1366 0.951 . S
H1349 C1368 0.951 . S
H1350 C1370 0.950 . S
H1351 C1371 0.950 . S
H1352 C1373 0.950 . S
H1353 C1376 0.950 . S
H1354 C1377 0.950 . S
H1355 C1379 0.950 . S
H1356 C1380 0.950 . S
H1357 C1381 0.951 . S
H1358 C1383 0.951 . S
H1359 C1385 0.950 . S
H1360 C1386 0.950 . S
H1361 C1388 0.950 . S
H1362 C1391 0.950 . S
H1363 C1392 0.950 . S
H1364 C1394 0.950 . S
H1365 C1395 0.950 . S
C1366 H1348 0.951 . S
C1366 C1367 1.366 . S
C1366 C1368 1.388 . S
C1367 C1366 1.366 . S
C1367 C1371 1.385 . S
C1368 H1349 0.951 . S
C1368 C1366 1.388 . S
C1368 C1369 1.366 . S
C1369 C1368 1.366 . S
C1369 C1370 1.414 . S
C1369 C1372 1.499 . S
C1370 H1350 0.950 . S
C1370 C1369 1.414 . S
C1370 C1371 1.374 . S
C1371 H1351 0.950 . S
C1371 C1367 1.385 . S
C1371 C1370 1.374 . S
C1372 C1369 1.499 . S
C1372 C1373 1.373 . S
C1372 C1374 1.389 . S
C1373 H1352 0.950 . S
C1373 C1372 1.373 . S
C1373 C1389 1.377 . S
C1374 C1372 1.389 . S
C1374 C1375 1.524 . S
C1374 C1388 1.377 . S
C1375 C1374 1.524 . S
C1375 C1376 1.397 . S
C1375 C1380 1.363 . S
C1376 H1353 0.950 . S
C1376 C1375 1.397 . S
C1376 C1377 1.334 . S
C1377 H1354 0.950 . S
C1377 C1376 1.334 . S
C1377 C1378 1.287 . S
C1378 C1377 1.287 . S
C1378 C1379 1.524 . S
C1378 H1397 0.913 . S
C1379 H1355 0.950 . S
C1379 C1378 1.524 . S
C1379 C1380 1.415 . S
C1380 H1356 0.950 . S
C1380 C1375 1.363 . S
C1380 C1379 1.415 . S
C1381 H1357 0.951 . S
C1381 C1382 1.366 . S
C1381 C1383 1.388 . S
C1382 C1381 1.366 . S
C1382 C1386 1.385 . S
C1383 H1358 0.951 . S
C1383 C1381 1.388 . S
C1383 C1384 1.366 . S
C1384 C1383 1.366 . S
C1384 C1385 1.414 . S
C1384 C1387 1.499 . S
C1385 H1359 0.950 . S
C1385 C1384 1.414 . S
C1385 C1386 1.374 . S
C1386 H1360 0.950 . S
C1386 C1382 1.385 . S
C1386 C1385 1.374 . S
C1387 C1384 1.499 . S
C1387 C1388 1.373 . S
C1387 C1389 1.389 . S
C1388 H1361 0.950 . S
C1388 C1374 1.377 . S
C1388 C1387 1.373 . S
C1389 C1373 1.377 . S
C1389 C1387 1.389 . S
C1389 C1390 1.524 . S
C1390 C1389 1.524 . S
C1390 C1391 1.397 . S
C1390 C1395 1.363 . S
C1391 H1362 0.950 . S
C1391 C1390 1.397 . S
C1391 C1392 1.334 . S
C1392 H1363 0.950 . S
C1392 C1391 1.334 . S
C1392 C1393 1.287 . S
C1393 C1392 1.287 . S
C1393 C1394 1.524 . S
C1393 H1396 0.999 . S
C1394 H1364 0.950 . S
C1394 C1393 1.524 . S
C1394 C1395 1.415 . S
C1395 H1365 0.950 . S
C1395 C1390 1.363 . S
C1395 C1394 1.415 . S
H1396 C1393 0.999 . S
H1397 C1378 0.913 . S
H1398 C1416 0.951 . S
H1399 C1418 0.951 . S
H1400 C1420 0.950 . S
H1401 C1421 0.950 . S
H1402 C1423 0.950 . S
H1403 C1426 0.950 . S
H1404 C1427 0.950 . S
H1405 C1429 0.950 . S
H1406 C1430 0.950 . S
H1407 C1431 0.951 . S
H1408 C1433 0.951 . S
H1409 C1435 0.950 . S
H1410 C1436 0.950 . S
H1411 C1438 0.950 . S
H1412 C1441 0.950 . S
H1413 C1442 0.950 . S
H1414 C1444 0.950 . S
H1415 C1445 0.950 . S
C1416 H1398 0.951 . S
C1416 C1417 1.366 . S
C1416 C1418 1.388 . S
C1417 C1416 1.366 . S
C1417 C1421 1.385 . S
C1418 H1399 0.951 . S
C1418 C1416 1.388 . S
C1418 C1419 1.366 1_455 S
C1419 C1418 1.366 1_655 S
C1419 C1420 1.414 . S
C1419 C1422 1.499 . S
C1420 H1400 0.950 . S
C1420 C1419 1.414 . S
C1420 C1421 1.374 1_655 S
C1421 H1401 0.950 . S
C1421 C1417 1.385 . S
C1421 C1420 1.374 1_455 S
C1422 C1419 1.499 . S
C1422 C1423 1.373 . S
C1422 C1424 1.389 . S
C1423 H1402 0.950 . S
C1423 C1422 1.373 . S
C1423 C1439 1.377 . S
C1424 C1422 1.389 . S
C1424 C1425 1.524 . S
C1424 C1438 1.377 . S
C1425 C1424 1.524 . S
C1425 C1426 1.397 . S
C1425 C1430 1.363 . S
C1426 H1403 0.950 . S
C1426 C1425 1.397 . S
C1426 C1427 1.334 . S
C1427 H1404 0.950 . S
C1427 C1426 1.334 . S
C1427 C1428 1.287 . S
C1428 C1427 1.287 . S
C1428 C1429 1.524 . S
C1428 H1447 0.913 . S
C1429 H1405 0.950 . S
C1429 C1428 1.524 . S
C1429 C1430 1.415 . S
C1430 H1406 0.950 . S
C1430 C1425 1.363 . S
C1430 C1429 1.415 . S
C1431 H1407 0.951 . S
C1431 C1432 1.366 . S
C1431 C1433 1.388 . S
C1432 C1431 1.366 . S
C1432 C1436 1.385 . S
C1433 H1408 0.951 . S
C1433 C1431 1.388 . S
C1433 C1434 1.366 . S
C1434 C1433 1.366 . S
C1434 C1435 1.414 . S
C1434 C1437 1.499 . S
C1435 H1409 0.950 . S
C1435 C1434 1.414 . S
C1435 C1436 1.374 . S
C1436 H1410 0.950 . S
C1436 C1432 1.385 . S
C1436 C1435 1.374 . S
C1437 C1434 1.499 . S
C1437 C1438 1.373 . S
C1437 C1439 1.389 . S
C1438 H1411 0.950 . S
C1438 C1424 1.377 . S
C1438 C1437 1.373 . S
C1439 C1423 1.377 . S
C1439 C1437 1.389 . S
C1439 C1440 1.524 . S
C1440 C1439 1.524 . S
C1440 C1441 1.397 . S
C1440 C1445 1.363 . S
C1441 H1412 0.950 . S
C1441 C1440 1.397 . S
C1441 C1442 1.334 . S
C1442 H1413 0.950 . S
C1442 C1441 1.334 . S
C1442 C1443 1.287 . S
C1443 C1442 1.287 . S
C1443 C1444 1.524 . S
C1443 H1446 0.999 . S
C1444 H1414 0.950 . S
C1444 C1443 1.524 . S
C1444 C1445 1.415 . S
C1445 H1415 0.950 . S
C1445 C1440 1.363 . S
C1445 C1444 1.415 . S
H1446 C1443 0.999 . S
H1447 C1428 0.913 . S
H1448 C1466 0.951 . S
H1449 C1468 0.951 . S
H1450 C1470 0.950 . S
H1451 C1471 0.950 . S
H1452 C1473 0.950 . S
H1453 C1476 0.955 . S
H1454 C1477 0.950 . S
H1455 C1479 0.950 . S
H1456 C1480 0.950 . S
H1457 C1481 0.951 . S
H1458 C1483 0.951 . S
H1459 C1485 0.950 . S
H1460 C1486 0.950 . S
H1461 C1488 0.950 . S
H1462 C1491 0.950 . S
H1463 C1492 0.950 . S
H1464 C1494 0.950 . S
H1465 C1495 0.950 . S
C1466 H1448 0.951 . S
C1466 C1467 1.366 . S
C1466 C1468 1.388 1_565 S
C1467 C1466 1.366 . S
C1467 C1471 1.385 . S
C1468 H1449 0.951 . S
C1468 C1466 1.388 1_545 S
C1468 C1469 1.366 . S
C1469 C1468 1.366 . S
C1469 C1470 1.414 1_545 S
C1469 C1472 1.499 . S
C1470 H1450 0.950 . S
C1470 C1469 1.414 1_565 S
C1470 C1471 1.374 . S
C1471 H1451 0.950 . S
C1471 C1467 1.385 . S
C1471 C1470 1.374 . S
C1472 C1469 1.499 . S
C1472 C1473 1.373 . S
C1472 C1474 1.389 . S
C1473 H1452 0.950 . S
C1473 C1472 1.373 . S
C1473 C1489 1.377 . S
C1474 C1472 1.389 . S
C1474 C1475 1.524 . S
C1474 C1488 1.377 . S
C1475 C1474 1.524 . S
C1475 C1476 1.397 . S
C1475 C1480 1.363 . S
C1476 H1453 0.955 . S
C1476 C1475 1.397 . S
C1476 C1477 1.334 1_545 S
C1477 H1454 0.950 . S
C1477 C1476 1.334 1_565 S
C1477 C1478 1.287 1_565 S
C1478 C1477 1.287 1_545 S
C1478 C1479 1.524 . S
C1478 H1497 0.904 1_545 S
C1479 H1455 0.950 . S
C1479 C1478 1.524 . S
C1479 C1480 1.415 . S
C1480 H1456 0.950 . S
C1480 C1475 1.363 . S
C1480 C1479 1.415 . S
C1481 H1457 0.951 . S
C1481 C1482 1.366 . S
C1481 C1483 1.388 . S
C1482 C1481 1.366 . S
C1482 C1486 1.385 . S
C1483 H1458 0.951 . S
C1483 C1481 1.388 . S
C1483 C1484 1.366 . S
C1484 C1483 1.366 . S
C1484 C1485 1.414 . S
C1484 C1487 1.499 . S
C1485 H1459 0.950 . S
C1485 C1484 1.414 . S
C1485 C1486 1.374 . S
C1486 H1460 0.950 . S
C1486 C1482 1.385 . S
C1486 C1485 1.374 . S
C1487 C1484 1.499 . S
C1487 C1488 1.373 . S
C1487 C1489 1.389 . S
C1488 H1461 0.950 . S
C1488 C1474 1.377 . S
C1488 C1487 1.373 . S
C1489 C1473 1.377 . S
C1489 C1487 1.389 . S
C1489 C1490 1.524 . S
C1490 C1489 1.524 . S
C1490 C1491 1.397 . S
C1490 C1495 1.363 . S
C1491 H1462 0.950 . S
C1491 C1490 1.397 . S
C1491 C1492 1.334 . S
C1492 H1463 0.950 . S
C1492 C1491 1.334 . S
C1492 C1493 1.287 . S
C1493 C1492 1.287 . S
C1493 C1494 1.524 . S
C1493 H1496 0.999 . S
C1494 H1464 0.950 . S
C1494 C1493 1.524 . S
C1494 C1495 1.415 . S
C1495 H1465 0.950 . S
C1495 C1490 1.363 . S
C1495 C1494 1.415 . S
H1496 C1493 0.999 . S
H1497 C1478 0.904 1_565 S
H1498 C1516 0.951 . S
H1499 C1518 0.951 . S
H1500 C1520 0.950 . S
H1501 C1521 0.950 . S
H1502 C1523 0.950 . S
H1503 C1526 0.950 . S
H1504 C1527 0.950 1_565 S
H1505 C1529 0.950 1_565 S
H1506 C1530 0.950 . S
H1507 C1531 0.951 . S
H1508 C1533 0.951 . S
H1509 C1535 0.950 . S
H1510 C1536 0.950 . S
H1511 C1538 0.950 . S
H1512 C1541 0.950 . S
H1513 C1542 0.950 . S
H1514 C1544 0.950 . S
H1515 C1545 0.950 . S
C1516 H1498 0.951 . S
C1516 C1517 1.366 . S
C1516 C1518 1.388 . S
C1517 C1516 1.366 . S
C1517 C1521 1.385 . S
C1518 H1499 0.951 . S
C1518 C1516 1.388 . S
C1518 C1519 1.366 1_565 S
C1519 C1518 1.366 1_545 S
C1519 C1520 1.414 . S
C1519 C1522 1.499 . S
C1520 H1500 0.950 . S
C1520 C1519 1.414 . S
C1520 C1521 1.374 1_545 S
C1521 H1501 0.950 . S
C1521 C1517 1.385 . S
C1521 C1520 1.374 1_565 S
C1522 C1519 1.499 . S
C1522 C1523 1.373 . S
C1522 C1524 1.389 . S
C1523 H1502 0.950 . S
C1523 C1522 1.373 . S
C1523 C1539 1.377 . S
C1524 C1522 1.389 . S
C1524 C1525 1.524 . S
C1524 C1538 1.377 . S
C1525 C1524 1.524 . S
C1525 C1526 1.397 . S
C1525 C1530 1.363 . S
C1526 H1503 0.950 . S
C1526 C1525 1.397 . S
C1526 C1527 1.334 . S
C1527 H1504 0.950 1_545 S
C1527 C1526 1.334 . S
C1527 C1528 1.287 1_545 S
C1528 C1527 1.287 1_565 S
C1528 C1529 1.524 1_565 S
C1528 H1547 0.913 . S
C1529 H1505 0.950 1_545 S
C1529 C1528 1.524 1_545 S
C1529 C1530 1.415 . S
C1530 H1506 0.950 . S
C1530 C1525 1.363 . S
C1530 C1529 1.415 . S
C1531 H1507 0.951 . S
C1531 C1532 1.366 . S
C1531 C1533 1.388 1_455 S
C1532 C1531 1.366 . S
C1532 C1536 1.385 . S
C1533 H1508 0.951 . S
C1533 C1531 1.388 1_655 S
C1533 C1534 1.366 . S
C1534 C1533 1.366 . S
C1534 C1535 1.414 1_655 S
C1534 C1537 1.499 . S
C1535 H1509 0.950 . S
C1535 C1534 1.414 1_455 S
C1535 C1536 1.374 . S
C1536 H1510 0.950 . S
C1536 C1532 1.385 . S
C1536 C1535 1.374 . S
C1537 C1534 1.499 . S
C1537 C1538 1.373 . S
C1537 C1539 1.389 . S
C1538 H1511 0.950 . S
C1538 C1524 1.377 . S
C1538 C1537 1.373 . S
C1539 C1523 1.377 . S
C1539 C1537 1.389 . S
C1539 C1540 1.524 . S
C1540 C1539 1.524 . S
C1540 C1541 1.397 . S
C1540 C1545 1.363 . S
C1541 H1512 0.950 . S
C1541 C1540 1.397 . S
C1541 C1542 1.334 . S
C1542 H1513 0.950 . S
C1542 C1541 1.334 . S
C1542 C1543 1.287 . S
C1543 C1542 1.287 . S
C1543 C1544 1.524 . S
C1543 H1546 0.999 . S
C1544 H1514 0.950 . S
C1544 C1543 1.524 . S
C1544 C1545 1.415 . S
C1545 H1515 0.950 . S
C1545 C1540 1.363 . S
C1545 C1544 1.415 . S
H1546 C1543 0.999 . S
H1547 C1528 0.913 . S
C217 C7 1.056 . S
C232 C162 1.073 . S
C267 C29 1.057 . S
C282 C184 1.073 . S
C317 C140 1.073 . S
C332 C51 1.057 . S
C367 C158 1.073 . S
C382 C49 1.057 . S
C417 C180 1.073 . S
C432 C5 1.056 . S
C467 C136 1.073 . S
C482 C27 1.056 . S
C517 C30 1.073 . S
C532 C73 1.057 . S
C567 C95 1.056 . S
C582 C52 1.073 . S
C617 C8 1.073 . S
C632 C117 1.056 . S
C667 C26 1.074 . S
C682 C115 1.056 . S
C717 C71 1.057 . S
C732 C48 1.073 . S
C767 C4 1.072 . S
C782 C93 1.057 . S
C817 C139 1.056 . S
C832 C96 1.073 . S
C867 C118 1.072 . S
C882 C161 1.057 . S
C917 C183 1.057 . S
C932 C74 1.072 . S
C967 C181 1.056 . S
C982 C92 1.073 . S
C1017 C114 1.073 . S
C1032 C137 1.056 . S
C1067 C70 1.073 . S
C1082 C159 1.056 . S
C1117 C9 1.002 . S
C1132 C28 1.000 . S
C1167 C50 1.001 . S
C1182 C31 1.002 . S
C1217 C53 1.001 . S
C1232 C6 1.001 . S
C1267 C94 1.001 . S
C1282 C75 1.002 . S
C1317 C116 1.002 . S
C1332 C97 1.000 . S
C1367 C119 1.001 . S
C1382 C72 1.002 . S
C1417 C160 1.001 . S
C1432 C141 1.001 . S
C1467 C163 1.002 . S
C1482 C182 1.001 . S
C1517 C138 1.002 . S
C1532 C185 1.001 . S
