# Generated by pormake.
# Topology vbm, (6)-cn, num edge types: 1
# Building blocks:
#     Node 0, Type 0, BuildingBlock: FUNLAD_clean_sbu_0, # of connection points: 6
#     Node 1, Type 0, BuildingBlock: FUNLAD_clean_sbu_0, # of connection points: 6
#     Node 2, Type 0, BuildingBlock: FUNLAD_clean_sbu_0, # of connection points: 6
#     Node 3, Type 0, BuildingBlock: FUNLAD_clean_sbu_0, # of connection points: 6
#     Node 4, Type 0, BuildingBlock: FUNLAD_clean_sbu_0, # of connection points: 6
#     Node 5, Type 0, BuildingBlock: FUNLAD_clean_sbu_0, # of connection points: 6
#     Node 6, Type 0, BuildingBlock: FUNLAD_clean_sbu_0, # of connection points: 6
#     Node 7, Type 0, BuildingBlock: FUNLAD_clean_sbu_0, # of connection points: 6
#     Node 8, Type 0, BuildingBlock: FUNLAD_clean_sbu_0, # of connection points: 6
#     Node 9, Type 0, BuildingBlock: FUNLAD_clean_sbu_0, # of connection points: 6
#     Node 10, Type 0, BuildingBlock: FUNLAD_clean_sbu_0, # of connection points: 6
#     Node 11, Type 0, BuildingBlock: FUNLAD_clean_sbu_0, # of connection points: 6
#     Node 12, Type 0, BuildingBlock: FUNLAD_clean_sbu_0, # of connection points: 6
#     Node 13, Type 0, BuildingBlock: FUNLAD_clean_sbu_0, # of connection points: 6
#     Node 14, Type 0, BuildingBlock: FUNLAD_clean_sbu_0, # of connection points: 6
#     Node 15, Type 0, BuildingBlock: FUNLAD_clean_sbu_0, # of connection points: 6
#     Edge 16, Type (0, 0), BuildingBlock: OJICUG_clean_linker_0, # of connection points: 2
#     Edge 17, Type (0, 0), BuildingBlock: OJICUG_clean_linker_0, # of connection points: 2
#     Edge 18, Type (0, 0), BuildingBlock: OJICUG_clean_linker_0, # of connection points: 2
#     Edge 19, Type (0, 0), BuildingBlock: OJICUG_clean_linker_0, # of connection points: 2
#     Edge 20, Type (0, 0), BuildingBlock: OJICUG_clean_linker_0, # of connection points: 2
#     Edge 21, Type (0, 0), BuildingBlock: OJICUG_clean_linker_0, # of connection points: 2
#     Edge 22, Type (0, 0), BuildingBlock: OJICUG_clean_linker_0, # of connection points: 2
#     Edge 23, Type (0, 0), BuildingBlock: OJICUG_clean_linker_0, # of connection points: 2
#     Edge 24, Type (0, 0), BuildingBlock: OJICUG_clean_linker_0, # of connection points: 2
#     Edge 25, Type (0, 0), BuildingBlock: OJICUG_clean_linker_0, # of connection points: 2
#     Edge 26, Type (0, 0), BuildingBlock: OJICUG_clean_linker_0, # of connection points: 2
#     Edge 27, Type (0, 0), BuildingBlock: OJICUG_clean_linker_0, # of connection points: 2
#     Edge 28, Type (0, 0), BuildingBlock: OJICUG_clean_linker_0, # of connection points: 2
#     Edge 29, Type (0, 0), BuildingBlock: OJICUG_clean_linker_0, # of connection points: 2
#     Edge 30, Type (0, 0), BuildingBlock: OJICUG_clean_linker_0, # of connection points: 2
#     Edge 31, Type (0, 0), BuildingBlock: OJICUG_clean_linker_0, # of connection points: 2
#     Edge 32, Type (0, 0), BuildingBlock: OJICUG_clean_linker_0, # of connection points: 2
#     Edge 33, Type (0, 0), BuildingBlock: OJICUG_clean_linker_0, # of connection points: 2
#     Edge 34, Type (0, 0), BuildingBlock: OJICUG_clean_linker_0, # of connection points: 2
#     Edge 35, Type (0, 0), BuildingBlock: OJICUG_clean_linker_0, # of connection points: 2
#     Edge 36, Type (0, 0), BuildingBlock: OJICUG_clean_linker_0, # of connection points: 2
#     Edge 37, Type (0, 0), BuildingBlock: OJICUG_clean_linker_0, # of connection points: 2
#     Edge 38, Type (0, 0), BuildingBlock: OJICUG_clean_linker_0, # of connection points: 2
#     Edge 39, Type (0, 0), BuildingBlock: OJICUG_clean_linker_0, # of connection points: 2
#     Edge 40, Type (0, 0), BuildingBlock: OJICUG_clean_linker_0, # of connection points: 2
#     Edge 41, Type (0, 0), BuildingBlock: OJICUG_clean_linker_0, # of connection points: 2
#     Edge 42, Type (0, 0), BuildingBlock: OJICUG_clean_linker_0, # of connection points: 2
#     Edge 43, Type (0, 0), BuildingBlock: OJICUG_clean_linker_0, # of connection points: 2
#     Edge 44, Type (0, 0), BuildingBlock: OJICUG_clean_linker_0, # of connection points: 2
#     Edge 45, Type (0, 0), BuildingBlock: OJICUG_clean_linker_0, # of connection points: 2
#     Edge 46, Type (0, 0), BuildingBlock: OJICUG_clean_linker_0, # of connection points: 2
#     Edge 47, Type (0, 0), BuildingBlock: OJICUG_clean_linker_0, # of connection points: 2
#     Edge 48, Type (0, 0), BuildingBlock: OJICUG_clean_linker_0, # of connection points: 2
#     Edge 49, Type (0, 0), BuildingBlock: OJICUG_clean_linker_0, # of connection points: 2
#     Edge 50, Type (0, 0), BuildingBlock: OJICUG_clean_linker_0, # of connection points: 2
#     Edge 51, Type (0, 0), BuildingBlock: OJICUG_clean_linker_0, # of connection points: 2
#     Edge 52, Type (0, 0), BuildingBlock: OJICUG_clean_linker_0, # of connection points: 2
#     Edge 53, Type (0, 0), BuildingBlock: OJICUG_clean_linker_0, # of connection points: 2
#     Edge 54, Type (0, 0), BuildingBlock: OJICUG_clean_linker_0, # of connection points: 2
#     Edge 55, Type (0, 0), BuildingBlock: OJICUG_clean_linker_0, # of connection points: 2
#     Edge 56, Type (0, 0), BuildingBlock: OJICUG_clean_linker_0, # of connection points: 2
#     Edge 57, Type (0, 0), BuildingBlock: OJICUG_clean_linker_0, # of connection points: 2
#     Edge 58, Type (0, 0), BuildingBlock: OJICUG_clean_linker_0, # of connection points: 2
#     Edge 59, Type (0, 0), BuildingBlock: OJICUG_clean_linker_0, # of connection points: 2
#     Edge 60, Type (0, 0), BuildingBlock: OJICUG_clean_linker_0, # of connection points: 2
#     Edge 61, Type (0, 0), BuildingBlock: OJICUG_clean_linker_0, # of connection points: 2
#     Edge 62, Type (0, 0), BuildingBlock: OJICUG_clean_linker_0, # of connection points: 2
#     Edge 63, Type (0, 0), BuildingBlock: OJICUG_clean_linker_0, # of connection points: 2
# Relax obj value: 0.025
# Max RMSD: 0.079
# Mean RMSD: 0.079
data_MOF--net-vbm--node1-FUNLAD_clean_sbu_0--edge1-OJICUG_clean_linker_0
_symmetry_space_group_name_H-M    P1
_symmetry_Int_Tables_number       1
_symmetry_cell_setting            triclinic
loop_
_symmetry_equiv_pos_as_xyz
'x, y, z'
_cell_length_a     43.376096
_cell_length_b     11.238584
_cell_length_c     70.463192
_cell_angle_alpha  90.000157
_cell_angle_beta   90.001285
_cell_angle_gamma 89.997502
loop_
_atom_site_label
_atom_site_type_symbol
_atom_site_fract_x
_atom_site_fract_y
_atom_site_fract_z
_atom_type_partial_charge
C0 C 0.10812 0.31386 0.14379 0.0
N1 N 0.11312 0.07302 0.09824 0.0
C2 C 0.09137 0.13818 0.08898 0.0
C3 C 0.09055 0.14012 0.06915 0.0
C4 C 0.11228 0.07422 0.05873 0.0
C5 C 0.1345 0.00811 0.0687 0.0
C6 C 0.1345 0.00879 0.08851 0.0
Zn7 Zn 0.11387 0.06971 0.1273 0.0
C8 C 0.17648 0.11191 0.14259 0.0
N9 N 0.11544 0.06081 0.188 0.0
C10 C 0.094 0.11581 0.19904 0.0
C11 C 0.13739 -0.01056 0.1958 0.0
C12 C 0.13797 0.96877 0.2153 0.0
C13 C 0.11588 0.02254 0.22709 0.0
C14 C 0.09383 0.098 0.21871 0.0
Zn15 Zn 0.11412 0.07044 0.15895 0.0
O16 O 0.1086 0.25629 0.12825 0.0
C17 C 0.05125 0.03476 0.14364 0.0
O18 O 0.1089 0.2575 0.15946 0.0
H19 H 0.15409 0.94568 0.1868 0.0
H20 H 0.07454 0.18838 0.09698 0.0
H21 H 0.07667 0.17184 0.19255 0.0
O22 O 0.06569 0.04408 0.12801 0.0
O23 O 0.06589 0.04514 0.15917 0.0
H24 H 0.15165 0.9579 0.09615 0.0
O25 O 0.11921 0.8836 0.15791 0.0
O26 O 0.11912 0.88241 0.12682 0.0
O27 O 0.16225 0.09839 0.15821 0.0
O28 O 0.16201 0.09782 0.12707 0.0
C29 C 0.11981 0.82593 0.14243 0.0
H30 H 0.07279 0.19127 0.06207 0.0
H31 H 0.15197 0.95737 0.06128 0.0
H32 H 0.1551 0.90838 0.22097 0.0
H33 H 0.07659 0.14266 0.22724 0.0
C34 C 0.86551 0.62698 0.14379 0.0
N35 N 0.86052 0.86781 0.09824 0.0
C36 C 0.88226 0.80264 0.08898 0.0
C37 C 0.88308 0.80068 0.06915 0.0
C38 C 0.86135 0.86658 0.05873 0.0
C39 C 0.83914 0.93271 0.0687 0.0
C40 C 0.83914 0.93204 0.08851 0.0
Zn41 Zn 0.85977 0.87113 0.1273 0.0
C42 C 0.79716 0.82899 0.14259 0.0
N43 N 0.8582 0.88004 0.18801 0.0
C44 C 0.87965 0.82505 0.19904 0.0
C45 C 0.83626 0.95143 0.1958 0.0
C46 C 0.83568 -0.02788 0.2153 0.0
C47 C 0.85777 0.91835 0.22709 0.0
C48 C 0.87982 0.84287 0.21871 0.0
Zn49 Zn 0.85952 0.8704 0.15895 0.0
O50 O 0.86503 0.68455 0.12825 0.0
C51 C 0.92239 0.90606 0.14364 0.0
O52 O 0.86473 0.68334 0.15946 0.0
H53 H 0.81956 -0.00481 0.1868 0.0
H54 H 0.89909 0.75243 0.09699 0.0
H55 H 0.89696 0.76901 0.19255 0.0
O56 O 0.90795 0.89674 0.12801 0.0
O57 O 0.90775 0.89568 0.15917 0.0
H58 H 0.82199 -0.01705 0.09615 0.0
O59 O 0.85443 0.05724 0.15791 0.0
O60 O 0.85453 0.05844 0.12682 0.0
O61 O 0.81139 0.84249 0.15821 0.0
O62 O 0.81162 0.84306 0.12707 0.0
C63 C 0.85383 0.11491 0.14243 0.0
H64 H 0.90084 0.74951 0.06207 0.0
H65 H 0.82167 -0.01655 0.06127 0.0
H66 H 0.81855 0.03252 0.22097 0.0
H67 H 0.89705 0.79821 0.22724 0.0
C68 C 0.10814 0.62699 0.39125 0.0
N69 N 0.11314 0.86783 0.4368 0.0
C70 C 0.0914 0.80268 0.44606 0.0
C71 C 0.09058 0.80074 0.46589 0.0
C72 C 0.11231 0.86664 0.47631 0.0
C73 C 0.13452 0.93275 0.46634 0.0
C74 C 0.13452 0.93206 0.44652 0.0
Zn75 Zn 0.11389 0.87114 0.40774 0.0
C76 C 0.1765 0.82895 0.39245 0.0
N77 N 0.11545 0.88003 0.34704 0.0
C78 C 0.09401 0.82503 0.336 0.0
C79 C 0.1374 0.9514 0.33924 0.0
C80 C 0.13798 -0.02793 0.31974 0.0
C81 C 0.11589 0.91829 0.30795 0.0
C82 C 0.09384 0.84283 0.31633 0.0
Zn83 Zn 0.11413 0.87041 0.37609 0.0
O84 O 0.10862 0.68456 0.40679 0.0
C85 C 0.05127 0.9061 0.3914 0.0
O86 O 0.10893 0.68335 0.37558 0.0
H87 H 0.1541 -0.00484 0.34824 0.0
H88 H 0.07456 0.75247 0.43806 0.0
H89 H 0.07669 0.769 0.34249 0.0
O90 O 0.06571 0.89677 0.40703 0.0
O91 O 0.06591 0.89571 0.37587 0.0
H92 H 0.15167 -0.01704 0.43889 0.0
O93 O 0.11923 0.05725 0.37713 0.0
O94 O 0.11913 0.05844 0.40822 0.0
O95 O 0.16226 0.84246 0.37683 0.0
O96 O 0.16203 0.84304 0.40797 0.0
C97 C 0.11983 0.11492 0.39261 0.0
H98 H 0.07282 0.74958 0.47298 0.0
H99 H 0.15199 -0.01651 0.47376 0.0
H100 H 0.1551 0.03245 0.31406 0.0
H101 H 0.0766 0.79817 0.3078 0.0
C102 C 0.86554 0.314 0.39125 0.0
N103 N 0.86055 0.07315 0.4368 0.0
C104 C 0.88229 0.1383 0.44606 0.0
C105 C 0.88311 0.14023 0.46589 0.0
C106 C 0.86138 0.07432 0.47631 0.0
C107 C 0.83916 0.00822 0.46634 0.0
C108 C 0.83916 0.00892 0.44652 0.0
Zn109 Zn 0.8598 0.06985 0.40774 0.0
C110 C 0.79719 0.11205 0.39244 0.0
N111 N 0.85823 0.06095 0.34703 0.0
C112 C 0.87967 0.11593 0.336 0.0
C113 C 0.83628 -0.01041 0.33924 0.0
C114 C 0.83569 0.96891 0.31974 0.0
C115 C 0.85779 0.02266 0.30795 0.0
C116 C 0.87983 0.09812 0.31632 0.0
Zn117 Zn 0.85955 0.07058 0.37609 0.0
O118 O 0.86506 0.25643 0.40679 0.0
C119 C 0.92242 0.03489 0.3914 0.0
O120 O 0.86476 0.25764 0.37558 0.0
H121 H 0.81958 0.94583 0.34824 0.0
H122 H 0.89912 0.18851 0.43806 0.0
H123 H 0.89699 0.17195 0.34249 0.0
O124 O 0.90797 0.04422 0.40703 0.0
O125 O 0.90777 0.04528 0.37586 0.0
H126 H 0.82202 0.95803 0.43889 0.0
O127 O 0.85446 0.88374 0.37713 0.0
O128 O 0.85455 0.88255 0.40822 0.0
O129 O 0.81142 0.09853 0.37683 0.0
O130 O 0.81165 0.09795 0.40796 0.0
C131 C 0.85385 0.82607 0.39261 0.0
H132 H 0.90087 0.19138 0.47298 0.0
H133 H 0.8217 0.95747 0.47376 0.0
H134 H 0.81856 0.90852 0.31407 0.0
H135 H 0.89707 0.14277 0.30779 0.0
C136 C 0.85383 0.11476 0.89261 0.0
N137 N 0.85821 0.87987 0.84703 0.0
C138 C 0.83627 0.95125 0.83924 0.0
C139 C 0.83568 -0.02807 0.81974 0.0
C140 C 0.85778 0.91817 0.80795 0.0
C141 C 0.87983 0.8427 0.81632 0.0
C142 C 0.87966 0.82488 0.836 0.0
Zn143 Zn 0.85953 0.87025 0.87609 0.0
C144 C 0.9224 0.90593 0.8914 0.0
N145 N 0.86053 0.86768 0.9368 0.0
C146 C 0.83914 0.93192 0.94652 0.0
C147 C 0.88227 0.80252 0.94606 0.0
C148 C 0.88309 0.80059 0.96589 0.0
C149 C 0.86136 0.8665 0.97631 0.0
C150 C 0.83914 0.93261 0.96634 0.0
Zn151 Zn 0.85978 0.87098 0.90774 0.0
O152 O 0.85444 0.05709 0.87713 0.0
C153 C 0.79717 0.82881 0.89244 0.0
O154 O 0.85453 0.05828 0.90822 0.0
H155 H 0.8991 0.7523 0.93806 0.0
H156 H 0.81956 -0.00499 0.84824 0.0
H157 H 0.822 -0.01718 0.93889 0.0
O158 O 0.8114 0.84232 0.87683 0.0
O159 O 0.81163 0.8429 0.90796 0.0
H160 H 0.89698 0.76885 0.84249 0.0
O161 O 0.86504 0.6844 0.90679 0.0
O162 O 0.86474 0.68319 0.87558 0.0
O163 O 0.90796 0.8966 0.90703 0.0
O164 O 0.90775 0.89554 0.87587 0.0
C165 C 0.86552 0.62683 0.89125 0.0
H166 H 0.81856 0.03232 0.81406 0.0
H167 H 0.89707 0.79804 0.8078 0.0
H168 H 0.90084 0.74943 0.97298 0.0
H169 H 0.82167 -0.01663 0.97376 0.0
C170 C 0.11981 0.82597 0.89261 0.0
N171 N 0.11543 0.06086 0.84704 0.0
C172 C 0.13738 -0.01051 0.83924 0.0
C173 C 0.13797 0.96882 0.81974 0.0
C174 C 0.11587 0.02258 0.80795 0.0
C175 C 0.09382 0.09804 0.81632 0.0
C176 C 0.09399 0.11584 0.836 0.0
Zn177 Zn 0.11411 0.07048 0.87609 0.0
C178 C 0.05124 0.03477 0.8914 0.0
N179 N 0.11311 0.07305 0.9368 0.0
C180 C 0.1345 0.00882 0.94652 0.0
C181 C 0.09137 0.1382 0.94606 0.0
C182 C 0.09055 0.14014 0.96589 0.0
C183 C 0.11228 0.07424 0.97631 0.0
C184 C 0.1345 0.00814 0.96634 0.0
Zn185 Zn 0.11386 0.06975 0.90774 0.0
O186 O 0.11921 0.88364 0.87713 0.0
C187 C 0.17647 0.11196 0.89245 0.0
O188 O 0.11911 0.88245 0.90822 0.0
H189 H 0.07454 0.18841 0.93806 0.0
H190 H 0.15408 0.94573 0.84824 0.0
H191 H 0.15165 0.95794 0.93889 0.0
O192 O 0.16224 0.09843 0.87683 0.0
O193 O 0.16201 0.09786 0.90797 0.0
H194 H 0.07667 0.17187 0.84249 0.0
O195 O 0.10859 0.25633 0.90679 0.0
O196 O 0.1089 0.25754 0.87558 0.0
O197 O 0.06569 0.04411 0.90703 0.0
O198 O 0.06589 0.04517 0.87587 0.0
C199 C 0.10812 0.3139 0.89125 0.0
H200 H 0.15509 0.90844 0.81407 0.0
H201 H 0.07659 0.1427 0.8078 0.0
H202 H 0.07279 0.19129 0.97297 0.0
H203 H 0.15197 0.9574 0.97376 0.0
C204 C 0.85385 0.8259 0.64243 0.0
N205 N 0.85822 0.06078 0.68801 0.0
C206 C 0.83628 -0.0106 0.6958 0.0
C207 C 0.8357 0.96871 0.7153 0.0
C208 C 0.85779 0.02246 0.72709 0.0
C209 C 0.87983 0.09793 0.71872 0.0
C210 C 0.87967 0.11576 0.69904 0.0
Zn211 Zn 0.85955 0.07041 0.65895 0.0
C212 C 0.92241 0.03474 0.64364 0.0
N213 N 0.86054 0.073 0.59824 0.0
C214 C 0.83916 0.00877 0.58851 0.0
C215 C 0.88228 0.13817 0.58898 0.0
C216 C 0.88311 0.14013 0.56915 0.0
C217 C 0.86138 0.07423 0.55873 0.0
C218 C 0.83916 0.00811 0.5687 0.0
Zn219 Zn 0.85979 0.06968 0.6273 0.0
O220 O 0.85446 0.88357 0.65791 0.0
C221 C 0.79718 0.11186 0.64259 0.0
O222 O 0.85455 0.88238 0.62682 0.0
H223 H 0.89912 0.18837 0.59699 0.0
H224 H 0.81958 0.94564 0.6868 0.0
H225 H 0.82202 0.95787 0.59615 0.0
O226 O 0.81142 0.09835 0.65821 0.0
O227 O 0.81165 0.09777 0.62707 0.0
H228 H 0.89699 0.17178 0.69255 0.0
O229 O 0.86506 0.25626 0.62825 0.0
O230 O 0.86475 0.25747 0.65946 0.0
O231 O 0.90797 0.04406 0.62801 0.0
O232 O 0.90777 0.04513 0.65918 0.0
C233 C 0.86553 0.31383 0.64379 0.0
H234 H 0.81857 0.90831 0.72097 0.0
H235 H 0.89707 0.14258 0.72725 0.0
H236 H 0.90086 0.19129 0.56207 0.0
H237 H 0.8217 0.95737 0.56127 0.0
C238 C 0.11984 0.11494 0.64243 0.0
N239 N 0.11546 0.88006 0.688 0.0
C240 C 0.1374 0.95144 0.6958 0.0
C241 C 0.13798 -0.02788 0.7153 0.0
C242 C 0.11589 0.91834 0.72709 0.0
C243 C 0.09385 0.84287 0.71871 0.0
C244 C 0.09402 0.82506 0.69904 0.0
Zn245 Zn 0.11414 0.87043 0.65895 0.0
C246 C 0.05127 0.9061 0.64364 0.0
N247 N 0.11314 0.86786 0.59824 0.0
C248 C 0.13453 0.93209 0.58852 0.0
C249 C 0.0914 0.8027 0.58898 0.0
C250 C 0.09058 0.80075 0.56915 0.0
C251 C 0.11231 0.86665 0.55873 0.0
C252 C 0.13453 0.93277 0.5687 0.0
Zn253 Zn 0.11389 0.87117 0.6273 0.0
O254 O 0.11923 0.05728 0.65791 0.0
C255 C 0.17651 0.82899 0.64259 0.0
O256 O 0.11914 0.05847 0.62682 0.0
H257 H 0.07457 0.75249 0.59698 0.0
H258 H 0.15411 -0.0048 0.6868 0.0
H259 H 0.15167 -0.01701 0.59615 0.0
O260 O 0.16227 0.8425 0.65821 0.0
O261 O 0.16204 0.84308 0.62707 0.0
H262 H 0.0767 0.76903 0.69255 0.0
O263 O 0.10863 0.68458 0.62825 0.0
O264 O 0.10894 0.68337 0.65946 0.0
O265 O 0.06572 0.89678 0.62801 0.0
O266 O 0.06592 0.89572 0.65917 0.0
C267 C 0.10816 0.62701 0.64379 0.0
H268 H 0.15511 0.03251 0.72098 0.0
H269 H 0.07661 0.79821 0.72724 0.0
H270 H 0.07283 0.74959 0.56207 0.0
H271 H 0.15199 -0.01649 0.56128 0.0
C272 C 0.6081 0.81414 0.14379 0.0
N273 N 0.61309 0.57329 0.09824 0.0
C274 C 0.59135 0.63845 0.08897 0.0
C275 C 0.59053 0.64038 0.06914 0.0
C276 C 0.61226 0.57446 0.05873 0.0
C277 C 0.63448 0.50835 0.0687 0.0
C278 C 0.63448 0.50905 0.08852 0.0
Zn279 Zn 0.61384 0.56999 0.1273 0.0
C280 C 0.67645 0.61215 0.14259 0.0
N281 N 0.61541 0.56109 0.188 0.0
C282 C 0.59397 0.61608 0.19904 0.0
C283 C 0.63736 0.48972 0.1958 0.0
C284 C 0.63795 0.46905 0.2153 0.0
C285 C 0.61586 0.52281 0.22709 0.0
C286 C 0.59381 0.59827 0.21872 0.0
Zn287 Zn 0.61409 0.57072 0.15895 0.0
O288 O 0.60858 0.75657 0.12825 0.0
C289 C 0.55122 0.53505 0.14364 0.0
O290 O 0.60888 0.75778 0.15945 0.0
H291 H 0.65406 0.44596 0.1868 0.0
H292 H 0.57452 0.68867 0.09698 0.0
H293 H 0.57665 0.67211 0.19255 0.0
O294 O 0.56566 0.54438 0.12801 0.0
O295 O 0.56587 0.54544 0.15917 0.0
H296 H 0.65162 0.45815 0.09615 0.0
O297 O 0.61918 0.38388 0.15791 0.0
O298 O 0.61909 0.38269 0.12682 0.0
O299 O 0.66222 0.59865 0.15821 0.0
O300 O 0.66199 0.59807 0.12707 0.0
C301 C 0.61978 0.32621 0.14243 0.0
H302 H 0.57277 0.69154 0.06206 0.0
H303 H 0.65194 0.4576 0.06128 0.0
H304 H 0.65508 0.40866 0.22097 0.0
H305 H 0.57657 0.64293 0.22725 0.0
C306 C 0.3655 0.12714 0.14379 0.0
N307 N 0.3605 0.36799 0.09824 0.0
C308 C 0.38224 0.30283 0.08897 0.0
C309 C 0.38306 0.30089 0.06914 0.0
C310 C 0.36133 0.36679 0.05873 0.0
C311 C 0.33911 0.43289 0.0687 0.0
C312 C 0.33911 0.43221 0.08851 0.0
Zn313 Zn 0.35975 0.37129 0.12729 0.0
C314 C 0.29714 0.32908 0.14259 0.0
N315 N 0.35819 0.38018 0.188 0.0
C316 C 0.37963 0.32517 0.19904 0.0
C317 C 0.33624 0.45154 0.1958 0.0
C318 C 0.33566 0.47221 0.2153 0.0
C319 C 0.35776 0.41843 0.22709 0.0
C320 C 0.3798 0.34297 0.21871 0.0
Zn321 Zn 0.3595 0.37056 0.15894 0.0
O322 O 0.36502 0.18471 0.12825 0.0
C323 C 0.42237 0.40626 0.14363 0.0
O324 O 0.36472 0.1835 0.15945 0.0
H325 H 0.31954 0.49531 0.1868 0.0
H326 H 0.39908 0.25263 0.09698 0.0
H327 H 0.39695 0.26915 0.19254 0.0
O328 O 0.40793 0.39693 0.12801 0.0
O329 O 0.40773 0.39587 0.15917 0.0
H330 H 0.32196 0.4831 0.09615 0.0
O331 O 0.35441 0.5574 0.15791 0.0
O332 O 0.3545 0.55859 0.12682 0.0
O333 O 0.31137 0.3426 0.15821 0.0
O334 O 0.3116 0.34318 0.12707 0.0
C335 C 0.3538 0.61507 0.14243 0.0
H336 H 0.40082 0.24974 0.06206 0.0
H337 H 0.32164 0.48363 0.06128 0.0
H338 H 0.31854 0.53259 0.22098 0.0
H339 H 0.39704 0.2983 0.22724 0.0
C340 C 0.60816 0.12712 0.39125 0.0
N341 N 0.61315 0.36795 0.4368 0.0
C342 C 0.59141 0.30278 0.44606 0.0
C343 C 0.59058 0.30082 0.46589 0.0
C344 C 0.61231 0.36671 0.47631 0.0
C345 C 0.63453 0.43284 0.46634 0.0
C346 C 0.63453 0.43218 0.44652 0.0
Zn347 Zn 0.6139 0.37127 0.40774 0.0
C348 C 0.67651 0.3291 0.39244 0.0
N349 N 0.61546 0.38018 0.34703 0.0
C350 C 0.59401 0.32519 0.336 0.0
C351 C 0.6374 0.45156 0.33924 0.0
C352 C 0.63798 0.47225 0.31974 0.0
C353 C 0.61588 0.4185 0.30795 0.0
C354 C 0.59384 0.34303 0.31632 0.0
Zn355 Zn 0.61414 0.37054 0.37609 0.0
O356 O 0.60863 0.18469 0.40678 0.0
C357 C 0.55127 0.4062 0.3914 0.0
O358 O 0.60894 0.18348 0.37558 0.0
H359 H 0.65411 0.49532 0.34824 0.0
H360 H 0.57457 0.25258 0.43805 0.0
H361 H 0.5767 0.26916 0.34249 0.0
O362 O 0.56572 0.39689 0.40703 0.0
O363 O 0.56592 0.39582 0.37586 0.0
H364 H 0.65167 0.48308 0.43889 0.0
O365 O 0.61923 0.55738 0.37713 0.0
O366 O 0.61914 0.55858 0.40822 0.0
O367 O 0.66227 0.34261 0.37683 0.0
O368 O 0.66204 0.34319 0.40796 0.0
C369 C 0.61983 0.61505 0.39261 0.0
H370 H 0.57283 0.24965 0.47297 0.0
H371 H 0.652 0.48358 0.47376 0.0
H372 H 0.6551 0.53265 0.31406 0.0
H373 H 0.5766 0.29837 0.3078 0.0
C374 C 0.36553 0.81389 0.39125 0.0
N375 N 0.36054 0.57304 0.4368 0.0
C376 C 0.38228 0.6382 0.44606 0.0
C377 C 0.38311 0.64015 0.46589 0.0
C378 C 0.36138 0.57424 0.47631 0.0
C379 C 0.33916 0.50813 0.46634 0.0
C380 C 0.33916 0.50881 0.44653 0.0
Zn381 Zn 0.35979 0.56974 0.40774 0.0
C382 C 0.29718 0.61191 0.39245 0.0
N383 N 0.35822 0.56084 0.34704 0.0
C384 C 0.37966 0.61586 0.336 0.0
C385 C 0.33627 0.48948 0.33924 0.0
C386 C 0.33569 0.46882 0.31974 0.0
C387 C 0.35777 0.52261 0.30795 0.0
C388 C 0.37982 0.59807 0.31633 0.0
Zn389 Zn 0.35954 0.57047 0.37609 0.0
O390 O 0.36505 0.75632 0.40679 0.0
C391 C 0.42241 0.53481 0.3914 0.0
O392 O 0.36475 0.75753 0.37559 0.0
H393 H 0.31957 0.4457 0.34824 0.0
H394 H 0.39912 0.68841 0.43806 0.0
H395 H 0.39697 0.67189 0.34249 0.0
O396 O 0.40797 0.54412 0.40703 0.0
O397 O 0.40776 0.54519 0.37587 0.0
H398 H 0.32201 0.45791 0.43889 0.0
O399 O 0.35445 0.38363 0.37713 0.0
O400 O 0.35455 0.38244 0.40822 0.0
O401 O 0.31141 0.5984 0.37683 0.0
O402 O 0.31164 0.59783 0.40797 0.0
C403 C 0.35385 0.32596 0.39261 0.0
H404 H 0.40086 0.6913 0.47297 0.0
H405 H 0.3217 0.45739 0.47376 0.0
H406 H 0.31856 0.40843 0.31407 0.0
H407 H 0.39705 0.64275 0.3078 0.0
C408 C 0.35381 0.61505 0.89261 0.0
N409 N 0.35818 0.38016 0.84704 0.0
C410 C 0.33624 0.45154 0.83924 0.0
C411 C 0.33567 0.47221 0.81974 0.0
C412 C 0.35776 0.41843 0.80795 0.0
C413 C 0.3798 0.34296 0.81633 0.0
C414 C 0.37963 0.32516 0.836 0.0
Zn415 Zn 0.3595 0.37054 0.87609 0.0
C416 C 0.42237 0.40622 0.8914 0.0
N417 N 0.3605 0.36798 0.9368 0.0
C418 C 0.33911 0.43221 0.94652 0.0
C419 C 0.38224 0.30282 0.94606 0.0
C420 C 0.38307 0.30088 0.96589 0.0
C421 C 0.36133 0.36678 0.97631 0.0
C422 C 0.33911 0.43289 0.96634 0.0
Zn423 Zn 0.35975 0.37127 0.90774 0.0
O424 O 0.35441 0.55739 0.87713 0.0
C425 C 0.29714 0.32908 0.89244 0.0
O426 O 0.3545 0.55858 0.90822 0.0
H427 H 0.39908 0.25261 0.93806 0.0
H428 H 0.31954 0.49531 0.84824 0.0
H429 H 0.32197 0.4831 0.93889 0.0
O430 O 0.31137 0.3426 0.87683 0.0
O431 O 0.31161 0.34318 0.90796 0.0
H432 H 0.39695 0.26913 0.8425 0.0
O433 O 0.36502 0.18469 0.90679 0.0
O434 O 0.36471 0.18348 0.87559 0.0
O435 O 0.40793 0.3969 0.90703 0.0
O436 O 0.40773 0.39583 0.87587 0.0
C437 C 0.3655 0.12712 0.89125 0.0
H438 H 0.31854 0.5326 0.81406 0.0
H439 H 0.39704 0.2983 0.8078 0.0
H440 H 0.40082 0.24973 0.97298 0.0
H441 H 0.32165 0.48363 0.97376 0.0
C442 C 0.61979 0.32603 0.89261 0.0
N443 N 0.61542 0.56091 0.84703 0.0
C444 C 0.63737 0.48952 0.83924 0.0
C445 C 0.63795 0.46883 0.81974 0.0
C446 C 0.61586 0.52259 0.80795 0.0
C447 C 0.59381 0.59806 0.81632 0.0
C448 C 0.59398 0.61589 0.836 0.0
Zn449 Zn 0.6141 0.57055 0.87609 0.0
C450 C 0.55123 0.53489 0.8914 0.0
N451 N 0.6131 0.57313 0.9368 0.0
C452 C 0.63448 0.5089 0.94653 0.0
C453 C 0.59136 0.63831 0.94606 0.0
C454 C 0.59053 0.64028 0.96589 0.0
C455 C 0.61226 0.57437 0.97631 0.0
C456 C 0.63448 0.50824 0.96634 0.0
Zn457 Zn 0.61385 0.56981 0.90774 0.0
O458 O 0.61919 0.3837 0.87713 0.0
C459 C 0.67646 0.61196 0.89244 0.0
O460 O 0.61909 0.38251 0.90822 0.0
H461 H 0.57453 0.68852 0.93805 0.0
H462 H 0.65407 0.44576 0.84824 0.0
H463 H 0.65163 0.45799 0.93889 0.0
O464 O 0.66223 0.59846 0.87683 0.0
O465 O 0.662 0.59788 0.90796 0.0
H466 H 0.57666 0.67193 0.84248 0.0
O467 O 0.60859 0.7564 0.90678 0.0
O468 O 0.60889 0.75761 0.87558 0.0
O469 O 0.56567 0.54421 0.90703 0.0
O470 O 0.56587 0.54527 0.87586 0.0
C471 C 0.60811 0.81397 0.89125 0.0
H472 H 0.65508 0.40843 0.81407 0.0
H473 H 0.57658 0.64272 0.80779 0.0
H474 H 0.57278 0.69145 0.97297 0.0
H475 H 0.65194 0.4575 0.97377 0.0
C476 C 0.35386 0.32599 0.64243 0.0
N477 N 0.35823 0.56088 0.688 0.0
C478 C 0.33628 0.48951 0.6958 0.0
C479 C 0.3357 0.46885 0.7153 0.0
C480 C 0.35779 0.52263 0.72709 0.0
C481 C 0.37983 0.59808 0.71871 0.0
C482 C 0.37967 0.61588 0.69904 0.0
Zn483 Zn 0.35955 0.5705 0.65895 0.0
C484 C 0.42242 0.53481 0.64364 0.0
N485 N 0.36055 0.57307 0.59824 0.0
C486 C 0.33916 0.50884 0.58851 0.0
C487 C 0.38229 0.63822 0.58898 0.0
C488 C 0.38311 0.64016 0.56915 0.0
C489 C 0.36138 0.57426 0.55873 0.0
C490 C 0.33916 0.50815 0.5687 0.0
Zn491 Zn 0.3598 0.56977 0.6273 0.0
O492 O 0.35446 0.38366 0.65791 0.0
C493 C 0.29719 0.61196 0.64259 0.0
O494 O 0.35455 0.38246 0.62682 0.0
H495 H 0.39912 0.68843 0.59698 0.0
H496 H 0.31958 0.44574 0.6868 0.0
H497 H 0.32202 0.45794 0.59615 0.0
O498 O 0.31142 0.59844 0.65821 0.0
O499 O 0.31165 0.59787 0.62707 0.0
H500 H 0.39699 0.6719 0.69255 0.0
O501 O 0.36506 0.75635 0.62825 0.0
O502 O 0.36476 0.75756 0.65945 0.0
O503 O 0.40798 0.54414 0.62801 0.0
O504 O 0.40777 0.5452 0.65917 0.0
C505 C 0.36554 0.81392 0.64379 0.0
H506 H 0.31857 0.40847 0.72097 0.0
H507 H 0.39707 0.64275 0.72724 0.0
H508 H 0.40087 0.69131 0.56206 0.0
H509 H 0.3217 0.45741 0.56128 0.0
C510 C 0.61983 0.61486 0.64243 0.0
N511 N 0.61546 0.37997 0.688 0.0
C512 C 0.6374 0.45135 0.6958 0.0
C513 C 0.63798 0.47203 0.7153 0.0
C514 C 0.61588 0.41828 0.72709 0.0
C515 C 0.59384 0.34282 0.71871 0.0
C516 C 0.59401 0.325 0.69904 0.0
Zn517 Zn 0.61414 0.37035 0.65895 0.0
C518 C 0.55127 0.40604 0.64363 0.0
N519 N 0.61314 0.36779 0.59824 0.0
C520 C 0.63453 0.43202 0.58852 0.0
C521 C 0.5914 0.30263 0.58897 0.0
C522 C 0.59058 0.30071 0.56914 0.0
C523 C 0.61231 0.36662 0.55873 0.0
C524 C 0.63453 0.43272 0.5687 0.0
Zn525 Zn 0.61389 0.37108 0.6273 0.0
O526 O 0.61923 0.55719 0.65791 0.0
C527 C 0.6765 0.32889 0.6426 0.0
O528 O 0.61914 0.55838 0.62682 0.0
H529 H 0.57457 0.25242 0.59698 0.0
H530 H 0.6541 0.4951 0.6868 0.0
H531 H 0.65167 0.48291 0.59615 0.0
O532 O 0.66227 0.34241 0.65821 0.0
O533 O 0.66204 0.34298 0.62708 0.0
H534 H 0.57669 0.26897 0.69255 0.0
O535 O 0.60862 0.1845 0.62825 0.0
O536 O 0.60893 0.18329 0.65945 0.0
O537 O 0.56571 0.39671 0.62801 0.0
O538 O 0.56592 0.39565 0.65917 0.0
C539 C 0.60815 0.12693 0.64379 0.0
H540 H 0.6551 0.53242 0.72098 0.0
H541 H 0.5766 0.29817 0.72724 0.0
H542 H 0.57283 0.24956 0.56206 0.0
H543 H 0.652 0.48347 0.56128 0.0
C544 C 0.2226 0.19121 0.12535 0.0
C545 C 0.20808 0.16128 0.14253 0.0
H546 H 0.26176 0.27025 0.11186 0.0
C547 C 0.22262 0.19117 0.15971 0.0
H548 H 0.21185 0.17074 0.11186 0.0
C549 C 0.251 0.24982 0.15971 0.0
C550 C 0.26554 0.27971 0.14253 0.0
H551 H 0.21192 0.17069 0.17321 0.0
H552 H 0.2617 0.2703 0.17321 0.0
C553 C 0.25102 0.24979 0.12534 0.0
C554 C 0.751 0.74985 0.15971 0.0
C555 C 0.76555 0.7797 0.14253 0.0
H556 H 0.71191 0.67084 0.17321 0.0
C557 C 0.75102 0.74982 0.12534 0.0
H558 H 0.7617 0.7703 0.17321 0.0
C559 C 0.72259 0.69132 0.12535 0.0
C560 C 0.70806 0.66144 0.14253 0.0
H561 H 0.76177 0.77025 0.11186 0.0
H562 H 0.71184 0.67089 0.11186 0.0
C563 C 0.72261 0.69129 0.15971 0.0
C564 C 0.25105 0.69116 0.4097 0.0
C565 C 0.26557 0.66124 0.39251 0.0
H566 H 0.21188 0.77016 0.42318 0.0
C567 C 0.25103 0.69111 0.37533 0.0
H568 H 0.2618 0.67071 0.42318 0.0
C569 C 0.22265 0.74973 0.37533 0.0
C570 C 0.2081 0.77961 0.39251 0.0
H571 H 0.26173 0.67064 0.36183 0.0
H572 H 0.21194 0.77019 0.36183 0.0
C573 C 0.22263 0.74971 0.4097 0.0
C574 C 0.75104 0.19127 0.37533 0.0
C575 C 0.76558 0.16139 0.3925 0.0
H576 H 0.71195 0.27036 0.36182 0.0
C577 C 0.75106 0.1913 0.40969 0.0
H578 H 0.76174 0.17079 0.36182 0.0
C579 C 0.72263 0.24985 0.40969 0.0
C580 C 0.70811 0.27976 0.3925 0.0
H581 H 0.7618 0.17085 0.42318 0.0
H582 H 0.71189 0.27031 0.42318 0.0
C583 C 0.72266 0.24989 0.37532 0.0
C584 C 0.7226 0.69114 0.90969 0.0
C585 C 0.70807 0.66125 0.8925 0.0
H586 H 0.76178 0.77008 0.92318 0.0
C587 C 0.72262 0.6911 0.87533 0.0
H588 H 0.71185 0.67071 0.92318 0.0
C589 C 0.75101 0.74966 0.87533 0.0
C590 C 0.76556 0.77952 0.8925 0.0
H591 H 0.71192 0.67064 0.86183 0.0
H592 H 0.76171 0.77011 0.86182 0.0
C593 C 0.75103 0.74964 0.90969 0.0
C594 C 0.25102 0.24981 0.90969 0.0
C595 C 0.26554 0.27973 0.8925 0.0
H596 H 0.21185 0.17078 0.92318 0.0
C597 C 0.25099 0.24984 0.87533 0.0
H598 H 0.26176 0.27028 0.92318 0.0
C599 C 0.22262 0.1912 0.87533 0.0
C600 C 0.20808 0.16131 0.89251 0.0
H601 H 0.26169 0.27032 0.86183 0.0
H602 H 0.21191 0.17072 0.86183 0.0
C603 C 0.2226 0.19124 0.90969 0.0
C604 C 0.72265 0.24967 0.65971 0.0
C605 C 0.70811 0.27956 0.64253 0.0
H606 H 0.76173 0.17058 0.67321 0.0
C607 C 0.72263 0.24965 0.62535 0.0
H608 H 0.71195 0.27014 0.67321 0.0
C609 C 0.75105 0.1911 0.62535 0.0
C610 C 0.76558 0.16119 0.64253 0.0
H611 H 0.71188 0.27011 0.61186 0.0
H612 H 0.7618 0.17066 0.61186 0.0
C613 C 0.75103 0.19106 0.65971 0.0
C614 C 0.22266 0.74977 0.65971 0.0
C615 C 0.20811 0.77966 0.64253 0.0
H616 H 0.26174 0.67069 0.67321 0.0
C617 C 0.22263 0.74975 0.62534 0.0
H618 H 0.21196 0.77024 0.67321 0.0
C619 C 0.25106 0.69121 0.62534 0.0
C620 C 0.26558 0.66129 0.64253 0.0
H621 H 0.21189 0.77021 0.61186 0.0
H622 H 0.26181 0.67076 0.61186 0.0
C623 C 0.25104 0.69116 0.65971 0.0
C624 C 0.08779 0.95705 0.27722 0.0
C625 C 0.1157 0.9432 0.28717 0.0
H626 H 0.06588 -0.00802 0.25057 0.0
C627 C 0.14356 0.95672 0.27719 0.0
H628 H 0.06588 0.94885 0.28448 0.0
C629 C 0.14356 -0.01589 0.25785 0.0
C630 C 0.11569 -0.00237 0.24787 0.0
H631 H 0.16551 0.94539 0.28427 0.0
H632 H 0.16551 -0.00457 0.25076 0.0
C633 C 0.08779 -0.01622 0.25782 0.0
C634 C 0.83011 -0.01577 0.27719 0.0
C635 C 0.85797 -0.00226 0.28717 0.0
H636 H 0.80815 0.9455 0.25077 0.0
C637 C 0.88587 -0.01613 0.27722 0.0
H638 H 0.80815 -0.00443 0.28427 0.0
C639 C 0.88587 0.95713 0.25781 0.0
C640 C 0.85797 0.94328 0.24787 0.0
H641 H 0.90778 -0.00793 0.28447 0.0
H642 H 0.90778 0.94891 0.25056 0.0
C643 C 0.8301 0.95682 0.25785 0.0
C644 C 0.88588 -0.01632 0.75782 0.0
C645 C 0.85798 -0.00246 0.74787 0.0
H646 H 0.90778 0.94873 0.78448 0.0
C647 C 0.83011 -0.01599 0.75785 0.0
H648 H 0.90779 -0.00812 0.75057 0.0
C649 C 0.83011 0.95661 0.77718 0.0
C650 C 0.85797 0.94308 0.78717 0.0
H651 H 0.80816 -0.00466 0.75076 0.0
H652 H 0.80815 0.94528 0.78427 0.0
C653 C 0.88588 0.95694 0.77723 0.0
C654 C 0.08779 -0.01618 0.77722 0.0
C655 C 0.11569 -0.00232 0.78717 0.0
H656 H 0.06589 0.94889 0.75056 0.0
C657 C 0.14355 -0.01583 0.77719 0.0
H658 H 0.06588 -0.00798 0.78447 0.0
C659 C 0.14356 0.95679 0.75786 0.0
C660 C 0.1157 0.94325 0.74787 0.0
H661 H 0.16551 -0.0045 0.78428 0.0
H662 H 0.16551 0.94547 0.75077 0.0
C663 C 0.08779 0.9571 0.75781 0.0
C664 C 0.64355 0.45697 0.27718 0.0
C665 C 0.61569 0.44343 0.28717 0.0
H666 H 0.66549 0.49571 0.25076 0.0
C667 C 0.58778 0.45729 0.27723 0.0
H668 H 0.6655 0.44564 0.28427 0.0
C669 C 0.58777 0.48404 0.25782 0.0
C670 C 0.61568 0.4979 0.24787 0.0
H671 H 0.56588 0.44908 0.28448 0.0
H672 H 0.56586 0.49224 0.25057 0.0
C673 C 0.64354 0.48438 0.25785 0.0
C674 C 0.33009 0.48421 0.27719 0.0
C675 C 0.35796 0.49772 0.28717 0.0
H676 H 0.30813 0.44551 0.25077 0.0
C677 C 0.38586 0.48388 0.27722 0.0
H678 H 0.30814 0.49552 0.28428 0.0
C679 C 0.38586 0.45717 0.25781 0.0
C680 C 0.35795 0.44332 0.24787 0.0
H681 H 0.40777 0.49208 0.28447 0.0
H682 H 0.40776 0.44898 0.25056 0.0
C683 C 0.33009 0.45683 0.25785 0.0
C684 C 0.3301 0.45686 0.77718 0.0
C685 C 0.35796 0.44334 0.78717 0.0
H686 H 0.30815 0.49556 0.75076 0.0
C687 C 0.38586 0.45718 0.77723 0.0
H688 H 0.30814 0.44555 0.78427 0.0
C689 C 0.38587 0.48389 0.75782 0.0
C690 C 0.35797 0.49774 0.74787 0.0
H691 H 0.40777 0.44897 0.78448 0.0
H692 H 0.40778 0.49208 0.75057 0.0
C693 C 0.3301 0.48424 0.75785 0.0
C694 C 0.64354 0.48414 0.77719 0.0
C695 C 0.61568 0.49767 0.78717 0.0
H696 H 0.6655 0.4454 0.75077 0.0
C697 C 0.58778 0.48382 0.77722 0.0
H698 H 0.6655 0.49546 0.78428 0.0
C699 C 0.58778 0.45707 0.75781 0.0
C700 C 0.61569 0.44321 0.74787 0.0
H701 H 0.56587 0.49203 0.78447 0.0
H702 H 0.56588 0.44887 0.75056 0.0
C703 C 0.64355 0.45673 0.75786 0.0
C704 C 0.11741 0.96869 1.0076 0.0
C705 C 0.11182 0.07416 0.99743 0.0
H706 H 0.12143 0.88555 0.03481 0.0
C707 C 0.10601 0.1795 1.00759 0.0
H708 H 0.12143 0.88556 1.00023 0.0
C709 C 0.10601 0.17949 0.02745 0.0
C710 C 0.11182 0.07415 0.03761 0.0
H711 H 0.10204 0.26262 1.00021 0.0
H712 H 0.10204 0.26261 0.03483 0.0
C713 C 0.11741 0.96869 0.02744 0.0
C714 C 0.86762 0.76126 1.0076 0.0
C715 C 0.86182 0.8666 0.99743 0.0
H716 H 0.87158 0.67817 0.03483 0.0
C717 C 0.85623 -0.02792 1.0076 0.0
H718 H 0.87159 0.67814 1.00021 0.0
C719 C 0.85623 -0.02791 0.02743 0.0
C720 C 0.86181 0.86663 0.03761 0.0
H721 H 0.85221 0.05521 1.00023 0.0
H722 H 0.85221 0.05524 0.0348 0.0
C723 C 0.86762 0.76128 0.02745 0.0
C724 C 0.11743 -0.02781 0.5076 0.0
C725 C 0.11185 0.86672 0.49743 0.0
H726 H 0.12145 0.05533 0.53481 0.0
C727 C 0.10604 0.76138 0.50759 0.0
H728 H 0.12145 0.05532 0.50023 0.0
C729 C 0.10604 0.76138 0.52745 0.0
C730 C 0.11185 0.86672 0.53761 0.0
H731 H 0.10208 0.67826 0.50021 0.0
H732 H 0.10208 0.67826 0.53483 0.0
C733 C 0.11743 -0.02781 0.52744 0.0
C734 C 0.86765 0.17953 0.52745 0.0
C735 C 0.86184 0.07418 0.53761 0.0
H736 H 0.87161 0.26268 0.50022 0.0
C737 C 0.85625 0.96872 0.52743 0.0
H738 H 0.87161 0.26264 0.53483 0.0
C739 C 0.85625 0.96875 0.5076 0.0
C740 C 0.86184 0.07422 0.49743 0.0
H741 H 0.85224 0.88558 0.5348 0.0
H742 H 0.85224 0.88562 0.50023 0.0
C743 C 0.86765 0.17955 0.5076 0.0
C744 C 0.60599 0.6797 0.02744 0.0
C745 C 0.6118 0.57436 0.03761 0.0
H746 H 0.60203 0.76279 1.0002 0.0
C747 C 0.61738 0.46888 0.02744 0.0
H748 H 0.60203 0.76283 0.03482 0.0
C749 C 0.61738 0.46886 1.0076 0.0
C750 C 0.6118 0.57432 0.99743 0.0
H751 H 0.6214 0.38575 0.03481 0.0
H752 H 0.6214 0.38572 1.00024 0.0
C753 C 0.60599 0.67967 1.00759 0.0
C754 C 0.3676 0.26152 1.00759 0.0
C755 C 0.36179 0.36686 0.99743 0.0
H756 H 0.37156 0.1784 0.03483 0.0
C757 C 0.3562 0.47233 1.0076 0.0
H758 H 0.37156 0.1784 1.00021 0.0
C759 C 0.3562 0.47233 0.02744 0.0
C760 C 0.36179 0.36686 0.03761 0.0
H761 H 0.35218 0.55546 1.00023 0.0
H762 H 0.35218 0.55546 0.03481 0.0
C763 C 0.3676 0.26152 0.02745 0.0
C764 C 0.61744 0.47222 0.5076 0.0
C765 C 0.61185 0.36676 0.49743 0.0
H766 H 0.62146 0.55532 0.53481 0.0
C767 C 0.60605 0.26141 0.50759 0.0
H768 H 0.62146 0.55536 0.50024 0.0
C769 C 0.60605 0.26139 0.52744 0.0
C770 C 0.61185 0.36672 0.53761 0.0
H771 H 0.60209 0.1783 0.5002 0.0
H772 H 0.60208 0.17826 0.53482 0.0
C773 C 0.61744 0.47219 0.52744 0.0
C774 C 0.36765 0.67952 0.52745 0.0
C775 C 0.36184 0.57418 0.53761 0.0
H776 H 0.37161 0.76264 0.50021 0.0
C777 C 0.35626 0.46871 0.52744 0.0
H778 H 0.37161 0.76264 0.53483 0.0
C779 C 0.35626 0.4687 0.5076 0.0
C780 C 0.36184 0.57417 0.49743 0.0
H781 H 0.35224 0.38557 0.53481 0.0
H782 H 0.35224 0.38557 0.50023 0.0
C783 C 0.36765 0.67951 0.50759 0.0
C784 C 0.97133 0.95346 0.16089 0.0
C785 C 0.95553 0.93618 0.1437 0.0
H786 H 0.01389 -0.00065 0.17438 0.0
C787 C 0.97135 0.95345 0.12651 0.0
H788 H 0.95975 0.94145 0.17438 0.0
C789 C 0.00229 -0.01266 0.12651 0.0
C790 C 0.01811 0.00462 0.1437 0.0
H791 H 0.9598 0.94143 0.11301 0.0
H792 H 0.01384 -0.00064 0.11301 0.0
C793 C 0.00231 -0.01266 0.16089 0.0
C794 C 0.97137 -0.01255 0.40853 0.0
C795 C 0.95556 0.00474 0.39134 0.0
H796 H 0.01386 0.94151 0.42203 0.0
C797 C 0.97135 -0.01255 0.37415 0.0
H798 H 0.95983 -0.00052 0.42203 0.0
C799 C 0.00233 0.95353 0.37415 0.0
C800 C 0.01813 0.93624 0.39134 0.0
H801 H 0.95977 -0.00054 0.36066 0.0
H802 H 0.01391 0.94152 0.36066 0.0
C803 C 0.00231 0.95353 0.40853 0.0
C804 C 0.00231 -0.01269 0.87415 0.0
C805 C 0.01811 0.00461 0.89134 0.0
H806 H 0.95975 0.94136 0.86066 0.0
C807 C 0.00229 -0.01269 0.90853 0.0
H808 H 0.01389 -0.00067 0.86066 0.0
C809 C 0.97135 0.95338 0.90853 0.0
C810 C 0.95554 0.93608 0.89134 0.0
H811 H 0.01384 -0.00066 0.92203 0.0
H812 H 0.95981 0.94134 0.92203 0.0
C813 C 0.97133 0.95338 0.87415 0.0
C814 C 0.97136 -0.01264 0.66089 0.0
C815 C 0.95556 0.00463 0.6437 0.0
H816 H 0.01392 0.94148 0.67438 0.0
C817 C 0.97137 -0.01264 0.62651 0.0
H818 H 0.95977 -0.00064 0.67438 0.0
C819 C 0.00232 0.95348 0.62651 0.0
C820 C 0.01813 0.93622 0.6437 0.0
H821 H 0.95983 -0.00062 0.61301 0.0
H822 H 0.01386 0.94147 0.61301 0.0
C823 C 0.00234 0.95348 0.66089 0.0
C824 C 0.47131 0.4537 0.16089 0.0
C825 C 0.45551 0.43641 0.14369 0.0
H826 H 0.51386 0.49963 0.17438 0.0
C827 C 0.47132 0.45371 0.12651 0.0
H828 H 0.45973 0.44169 0.17437 0.0
C829 C 0.50227 0.48763 0.12651 0.0
C830 C 0.51808 0.50491 0.14369 0.0
H831 H 0.45978 0.44168 0.11301 0.0
H832 H 0.51381 0.49966 0.11301 0.0
C833 C 0.50228 0.48762 0.16089 0.0
C834 C 0.47135 0.48744 0.37415 0.0
C835 C 0.45555 0.5047 0.39134 0.0
H836 H 0.51391 0.44158 0.36066 0.0
C837 C 0.47137 0.48744 0.40853 0.0
H838 H 0.45977 0.49943 0.36066 0.0
C839 C 0.50232 0.45357 0.40853 0.0
C840 C 0.51813 0.43631 0.39134 0.0
H841 H 0.45982 0.49945 0.42203 0.0
H842 H 0.51386 0.44156 0.42203 0.0
C843 C 0.50233 0.45357 0.37415 0.0
C844 C 0.47131 0.45362 0.87415 0.0
C845 C 0.45551 0.43635 0.89134 0.0
H846 H 0.51387 0.4995 0.86066 0.0
C847 C 0.47133 0.45363 0.90853 0.0
H848 H 0.45973 0.44161 0.86066 0.0
C849 C 0.50227 0.48751 0.90853 0.0
C850 C 0.51809 0.50478 0.89134 0.0
H851 H 0.45979 0.44161 0.92203 0.0
H852 H 0.51382 0.49953 0.92203 0.0
C853 C 0.50229 0.4875 0.87415 0.0
C854 C 0.47137 0.48738 0.62651 0.0
C855 C 0.45556 0.50466 0.64369 0.0
H856 H 0.51386 0.44144 0.61301 0.0
C857 C 0.47136 0.48738 0.66089 0.0
H858 H 0.45983 0.49941 0.61301 0.0
C859 C 0.50233 0.45347 0.66089 0.0
C860 C 0.51813 0.43618 0.64369 0.0
H861 H 0.45978 0.49939 0.67438 0.0
H862 H 0.51392 0.44145 0.67438 0.0
C863 C 0.50232 0.45347 0.62651 0.0
C864 C 0.11673 0.63309 0.1601 0.0
C865 C 0.11807 0.69455 0.14272 0.0
H866 H 0.11203 0.4651 0.17409 0.0
C867 C 0.11532 0.62998 0.12574 0.0
H868 H 0.11855 0.68027 0.17346 0.0
C869 C 0.11128 0.5067 0.12612 0.0
C870 C 0.10992 0.44524 0.14349 0.0
H871 H 0.11599 0.6747 0.11213 0.0
H872 H 0.10947 0.45953 0.11276 0.0
C873 C 0.11269 0.50981 0.16048 0.0
C874 C 0.85691 0.30775 0.1601 0.0
C875 C 0.85557 0.24629 0.14272 0.0
H876 H 0.86161 0.47574 0.17409 0.0
C877 C 0.85832 0.31086 0.12574 0.0
H878 H 0.8551 0.26057 0.17346 0.0
C879 C 0.86236 0.43415 0.12612 0.0
C880 C 0.86372 0.4956 0.14349 0.0
H881 H 0.85765 0.26614 0.11213 0.0
H882 H 0.86416 0.48131 0.11276 0.0
C883 C 0.86095 0.43103 0.16048 0.0
C884 C 0.11674 0.30776 0.37494 0.0
C885 C 0.11808 0.2463 0.39232 0.0
H886 H 0.11204 0.47575 0.36095 0.0
C887 C 0.11534 0.31087 0.4093 0.0
H888 H 0.11856 0.26058 0.36158 0.0
C889 C 0.1113 0.43415 0.40892 0.0
C890 C 0.10994 0.49561 0.39155 0.0
H891 H 0.11601 0.26614 0.42291 0.0
H892 H 0.10949 0.48131 0.42228 0.0
C893 C 0.11271 0.43104 0.37456 0.0
C894 C 0.86238 0.50684 0.40892 0.0
C895 C 0.86375 0.44538 0.39155 0.0
H896 H 0.85767 0.67484 0.42291 0.0
C897 C 0.86097 0.50995 0.37456 0.0
H898 H 0.86419 0.45967 0.42228 0.0
C899 C 0.85694 0.63323 0.37494 0.0
C900 C 0.8556 0.69469 0.39231 0.0
H901 H 0.86164 0.46524 0.36095 0.0
H902 H 0.85512 0.68041 0.36158 0.0
C903 C 0.85834 0.63012 0.4093 0.0
C904 C 0.85832 0.31071 0.9093 0.0
C905 C 0.85558 0.24614 0.89231 0.0
H906 H 0.86417 0.48115 0.92228 0.0
C907 C 0.85692 0.3076 0.87494 0.0
H908 H 0.85765 0.26598 0.92291 0.0
C909 C 0.86096 0.43088 0.87456 0.0
C910 C 0.86373 0.49545 0.89155 0.0
H911 H 0.8551 0.26042 0.86158 0.0
H912 H 0.86162 0.47559 0.86095 0.0
C913 C 0.86236 0.43399 0.90892 0.0
C914 C 0.11268 0.50985 0.87456 0.0
C915 C 0.10991 0.44528 0.89155 0.0
H916 H 0.11854 0.6803 0.86158 0.0
C917 C 0.11128 0.50674 0.90892 0.0
H918 H 0.11202 0.46514 0.86095 0.0
C919 C 0.11532 0.63002 0.9093 0.0
C920 C 0.11806 0.69459 0.89232 0.0
H921 H 0.10947 0.45958 0.92228 0.0
H922 H 0.11599 0.67475 0.92291 0.0
C923 C 0.11672 0.63313 0.87494 0.0
C924 C 0.85834 0.62995 0.62574 0.0
C925 C 0.8556 0.69452 0.64272 0.0
H926 H 0.86419 0.4595 0.61276 0.0
C927 C 0.85694 0.63306 0.6601 0.0
H928 H 0.85767 0.67467 0.61213 0.0
C929 C 0.86097 0.50978 0.66048 0.0
C930 C 0.86374 0.44521 0.64349 0.0
H931 H 0.85512 0.68025 0.67346 0.0
H932 H 0.86163 0.46507 0.67409 0.0
C933 C 0.86238 0.50667 0.62612 0.0
C934 C 0.11535 0.31089 0.62574 0.0
C935 C 0.11809 0.24632 0.64272 0.0
H936 H 0.1095 0.48134 0.61276 0.0
C937 C 0.11675 0.30778 0.6601 0.0
H938 H 0.11602 0.26617 0.61213 0.0
C939 C 0.11272 0.43107 0.66048 0.0
C940 C 0.10995 0.49563 0.64349 0.0
H941 H 0.11857 0.26061 0.67346 0.0
H942 H 0.11206 0.47578 0.67409 0.0
C943 C 0.11131 0.43417 0.62612 0.0
C944 C 0.61125 0.00698 0.12612 0.0
C945 C 0.60989 0.94552 0.14349 0.0
H946 H 0.61596 0.17498 0.11213 0.0
C947 C 0.61266 0.01009 0.16048 0.0
H948 H 0.60945 0.95981 0.11276 0.0
C949 C 0.6167 0.13337 0.1601 0.0
C950 C 0.61804 0.19483 0.14272 0.0
H951 H 0.612 0.96538 0.17409 0.0
H952 H 0.61852 0.18055 0.17346 0.0
C953 C 0.61529 0.13026 0.12574 0.0
C954 C 0.35689 0.80791 0.1601 0.0
C955 C 0.35555 0.74645 0.14272 0.0
H956 H 0.3616 -0.0241 0.17409 0.0
C957 C 0.35829 0.81102 0.12574 0.0
H958 H 0.35507 0.76073 0.17346 0.0
C959 C 0.36234 0.9343 0.12612 0.0
C960 C 0.3637 -0.00425 0.14349 0.0
H961 H 0.35762 0.76629 0.11213 0.0
H962 H 0.36414 -0.01854 0.11276 0.0
C963 C 0.36093 0.93119 0.16047 0.0
C964 C 0.61272 0.93117 0.37456 0.0
C965 C 0.60995 -0.00426 0.39154 0.0
H966 H 0.61857 0.76071 0.36158 0.0
C967 C 0.61131 0.93429 0.40892 0.0
H968 H 0.61206 -0.02412 0.36095 0.0
C969 C 0.61535 0.811 0.4093 0.0
C970 C 0.61809 0.74643 0.39231 0.0
H971 H 0.6095 -0.01855 0.42228 0.0
H972 H 0.61602 0.76628 0.42291 0.0
C973 C 0.61675 0.80789 0.37494 0.0
C974 C 0.36097 0.00983 0.37456 0.0
C975 C 0.36374 0.94527 0.39155 0.0
H976 H 0.35512 0.1803 0.36158 0.0
C977 C 0.36238 0.00673 0.40892 0.0
H978 H 0.36163 0.96512 0.36095 0.0
C979 C 0.35834 0.13001 0.4093 0.0
C980 C 0.35559 0.19458 0.39232 0.0
H981 H 0.36418 0.95956 0.42228 0.0
H982 H 0.35767 0.17474 0.42291 0.0
C983 C 0.35693 0.13312 0.37494 0.0
C984 C 0.3583 0.811 0.9093 0.0
C985 C 0.35555 0.74644 0.89231 0.0
H986 H 0.36415 -0.01856 0.92228 0.0
C987 C 0.35689 0.8079 0.87494 0.0
H988 H 0.35762 0.76628 0.92291 0.0
C989 C 0.36093 0.93118 0.87456 0.0
C990 C 0.3637 -0.00426 0.89155 0.0
H991 H 0.35507 0.76072 0.86158 0.0
H992 H 0.36159 -0.02411 0.86095 0.0
C993 C 0.36234 0.93428 0.90892 0.0
C994 C 0.6153 0.13008 0.9093 0.0
C995 C 0.61805 0.19465 0.89231 0.0
H996 H 0.60946 0.95963 0.92228 0.0
C997 C 0.61671 0.1332 0.87494 0.0
H998 H 0.61597 0.17481 0.92291 0.0
C999 C 0.61267 0.00992 0.87456 0.0
C1000 C 0.6099 0.94535 0.89154 0.0
H1001 H 0.61853 0.18038 0.86158 0.0
H1002 H 0.61201 0.96521 0.86095 0.0
C1003 C 0.61126 0.0068 0.90892 0.0
C1004 C 0.36238 0.00676 0.62612 0.0
C1005 C 0.36375 0.9453 0.64349 0.0
H1006 H 0.35767 0.17476 0.61213 0.0
C1007 C 0.36098 0.00986 0.66048 0.0
H1008 H 0.36419 0.95959 0.61276 0.0
C1009 C 0.35694 0.13315 0.6601 0.0
C1010 C 0.3556 0.19461 0.64272 0.0
H1011 H 0.36164 0.96516 0.67409 0.0
H1012 H 0.35513 0.18033 0.67346 0.0
C1013 C 0.35834 0.13004 0.62574 0.0
C1014 C 0.61534 0.81081 0.62574 0.0
C1015 C 0.61809 0.74624 0.64272 0.0
H1016 H 0.6095 -0.01875 0.61276 0.0
C1017 C 0.61675 0.8077 0.6601 0.0
H1018 H 0.61602 0.76608 0.61213 0.0
C1019 C 0.61271 0.93099 0.66048 0.0
C1020 C 0.60994 -0.00445 0.64349 0.0
H1021 H 0.61857 0.76053 0.67346 0.0
H1022 H 0.61205 -0.0243 0.67409 0.0
C1023 C 0.6113 0.93409 0.62612 0.0
loop_
_geom_bond_atom_site_label_1
_geom_bond_atom_site_label_2
_geom_bond_distance
_geom_bond_site_symmetry_2
_ccdc_geom_bond_type
C0 O16 1.251 . S
C0 O18 1.254 . S
N1 C2 1.333 . S
N1 C6 1.307 . S
N1 Zn7 2.020 . S
C2 N1 1.333 . S
C2 C3 1.379 . S
C2 H20 0.952 . S
C3 C2 1.379 . S
C3 C4 1.390 . S
C3 H30 0.949 . S
C4 C3 1.390 . S
C4 C5 1.357 . S
C5 C4 1.357 . S
C5 C6 1.370 . S
C5 H31 0.950 1_545 S
C6 N1 1.307 . S
C6 C5 1.370 . S
C6 H24 0.948 1_545 S
Zn7 N1 2.020 . S
Zn7 O16 2.039 . S
Zn7 O22 2.034 . S
Zn7 O26 2.025 1_545 S
Zn7 O28 2.024 . S
C8 O27 1.246 . S
C8 O28 1.249 . S
N9 C10 1.307 . S
N9 C11 1.333 1_545 S
N9 Zn15 2.020 . S
C10 N9 1.307 . S
C10 C14 1.370 . S
C10 H21 0.948 . S
C11 N9 1.333 1_565 S
C11 C12 1.379 . S
C11 H19 0.952 . S
C12 C11 1.379 . S
C12 C13 1.390 1_565 S
C12 H32 0.949 . S
C13 C12 1.390 1_545 S
C13 C14 1.357 . S
C14 C10 1.370 . S
C14 C13 1.357 . S
C14 H33 0.950 . S
Zn15 N9 2.020 . S
Zn15 O18 2.025 . S
Zn15 O23 2.024 . S
Zn15 O25 2.039 1_545 S
Zn15 O27 2.034 . S
O16 C0 1.251 . S
O16 Zn7 2.039 . S
C17 O22 1.246 . S
C17 O23 1.249 . S
O18 C0 1.254 . S
O18 Zn15 2.025 . S
H19 C11 0.952 . S
H20 C2 0.952 . S
H21 C10 0.948 . S
O22 Zn7 2.034 . S
O22 C17 1.246 . S
O23 Zn15 2.024 . S
O23 C17 1.249 . S
H24 C6 0.948 1_565 S
O25 Zn15 2.039 1_565 S
O25 C29 1.251 . S
O26 Zn7 2.025 1_565 S
O26 C29 1.254 . S
O27 C8 1.246 . S
O27 Zn15 2.034 . S
O28 Zn7 2.024 . S
O28 C8 1.249 . S
C29 O25 1.251 . S
C29 O26 1.254 . S
H30 C3 0.949 . S
H31 C5 0.950 1_565 S
H32 C12 0.949 . S
H33 C14 0.950 . S
C34 O50 1.251 . S
C34 O52 1.254 . S
N35 C36 1.333 . S
N35 C40 1.307 . S
N35 Zn41 2.020 . S
C36 N35 1.333 . S
C36 C37 1.379 . S
C36 H54 0.952 . S
C37 C36 1.379 . S
C37 C38 1.390 . S
C37 H64 0.949 . S
C38 C37 1.390 . S
C38 C39 1.357 . S
C39 C38 1.357 . S
C39 C40 1.370 . S
C39 H65 0.950 1_565 S
C40 N35 1.307 . S
C40 C39 1.370 . S
C40 H58 0.948 1_565 S
Zn41 N35 2.020 . S
Zn41 O50 2.039 . S
Zn41 O56 2.034 . S
Zn41 O60 2.025 1_565 S
Zn41 O62 2.024 . S
C42 O61 1.246 . S
C42 O62 1.249 . S
N43 C44 1.307 . S
N43 C45 1.333 1_565 S
N43 Zn49 2.020 . S
C44 N43 1.307 . S
C44 C48 1.370 . S
C44 H55 0.948 . S
C45 N43 1.333 1_545 S
C45 C46 1.379 . S
C45 H53 0.952 . S
C46 C45 1.379 . S
C46 C47 1.390 1_545 S
C46 H66 0.949 . S
C47 C46 1.390 1_565 S
C47 C48 1.357 . S
C48 C44 1.370 . S
C48 C47 1.357 . S
C48 H67 0.950 . S
Zn49 N43 2.020 . S
Zn49 O52 2.025 . S
Zn49 O57 2.024 . S
Zn49 O59 2.039 1_565 S
Zn49 O61 2.034 . S
O50 C34 1.251 . S
O50 Zn41 2.039 . S
C51 O56 1.246 . S
C51 O57 1.249 . S
O52 C34 1.254 . S
O52 Zn49 2.025 . S
H53 C45 0.952 . S
H54 C36 0.952 . S
H55 C44 0.948 . S
O56 Zn41 2.034 . S
O56 C51 1.246 . S
O57 Zn49 2.024 . S
O57 C51 1.249 . S
H58 C40 0.948 1_545 S
O59 Zn49 2.039 1_545 S
O59 C63 1.251 . S
O60 Zn41 2.025 1_545 S
O60 C63 1.254 . S
O61 C42 1.246 . S
O61 Zn49 2.034 . S
O62 Zn41 2.024 . S
O62 C42 1.249 . S
C63 O59 1.251 . S
C63 O60 1.254 . S
H64 C37 0.949 . S
H65 C39 0.950 1_545 S
H66 C46 0.949 . S
H67 C48 0.950 . S
C68 O84 1.251 . S
C68 O86 1.254 . S
N69 C70 1.333 . S
N69 C74 1.307 . S
N69 Zn75 2.020 . S
C70 N69 1.333 . S
C70 C71 1.379 . S
C70 H88 0.952 . S
C71 C70 1.379 . S
C71 C72 1.390 . S
C71 H98 0.949 . S
C72 C71 1.390 . S
C72 C73 1.357 . S
C73 C72 1.357 . S
C73 C74 1.370 . S
C73 H99 0.950 1_565 S
C74 N69 1.307 . S
C74 C73 1.370 . S
C74 H92 0.948 1_565 S
Zn75 N69 2.020 . S
Zn75 O84 2.039 . S
Zn75 O90 2.034 . S
Zn75 O94 2.025 1_565 S
Zn75 O96 2.024 . S
C76 O95 1.246 . S
C76 O96 1.249 . S
N77 C78 1.307 . S
N77 C79 1.333 1_565 S
N77 Zn83 2.020 . S
C78 N77 1.307 . S
C78 C82 1.370 . S
C78 H89 0.948 . S
C79 N77 1.333 1_545 S
C79 C80 1.379 . S
C79 H87 0.952 . S
C80 C79 1.379 . S
C80 C81 1.390 1_545 S
C80 H100 0.949 . S
C81 C80 1.390 1_565 S
C81 C82 1.357 . S
C82 C78 1.370 . S
C82 C81 1.357 . S
C82 H101 0.950 . S
Zn83 N77 2.020 . S
Zn83 O86 2.025 . S
Zn83 O91 2.024 . S
Zn83 O93 2.039 1_565 S
Zn83 O95 2.034 . S
O84 C68 1.251 . S
O84 Zn75 2.039 . S
C85 O90 1.246 . S
C85 O91 1.249 . S
O86 C68 1.254 . S
O86 Zn83 2.025 . S
H87 C79 0.952 . S
H88 C70 0.952 . S
H89 C78 0.948 . S
O90 Zn75 2.034 . S
O90 C85 1.246 . S
O91 Zn83 2.024 . S
O91 C85 1.249 . S
H92 C74 0.948 1_545 S
O93 Zn83 2.039 1_545 S
O93 C97 1.251 . S
O94 Zn75 2.025 1_545 S
O94 C97 1.254 . S
O95 C76 1.246 . S
O95 Zn83 2.034 . S
O96 Zn75 2.024 . S
O96 C76 1.249 . S
C97 O93 1.251 . S
C97 O94 1.254 . S
H98 C71 0.949 . S
H99 C73 0.950 1_545 S
H100 C80 0.949 . S
H101 C82 0.950 . S
C102 O118 1.251 . S
C102 O120 1.254 . S
N103 C104 1.333 . S
N103 C108 1.307 . S
N103 Zn109 2.020 . S
C104 N103 1.333 . S
C104 C105 1.379 . S
C104 H122 0.952 . S
C105 C104 1.379 . S
C105 C106 1.390 . S
C105 H132 0.949 . S
C106 C105 1.390 . S
C106 C107 1.357 . S
C107 C106 1.357 . S
C107 C108 1.370 . S
C107 H133 0.950 1_545 S
C108 N103 1.307 . S
C108 C107 1.370 . S
C108 H126 0.948 1_545 S
Zn109 N103 2.020 . S
Zn109 O118 2.039 . S
Zn109 O124 2.034 . S
Zn109 O128 2.025 1_545 S
Zn109 O130 2.024 . S
C110 O129 1.246 . S
C110 O130 1.249 . S
N111 C112 1.307 . S
N111 C113 1.333 1_545 S
N111 Zn117 2.020 . S
C112 N111 1.307 . S
C112 C116 1.370 . S
C112 H123 0.948 . S
C113 N111 1.333 1_565 S
C113 C114 1.379 . S
C113 H121 0.952 . S
C114 C113 1.379 . S
C114 C115 1.390 1_565 S
C114 H134 0.949 . S
C115 C114 1.390 1_545 S
C115 C116 1.357 . S
C116 C112 1.370 . S
C116 C115 1.357 . S
C116 H135 0.950 . S
Zn117 N111 2.020 . S
Zn117 O120 2.025 . S
Zn117 O125 2.024 . S
Zn117 O127 2.039 1_545 S
Zn117 O129 2.034 . S
O118 C102 1.251 . S
O118 Zn109 2.039 . S
C119 O124 1.246 . S
C119 O125 1.249 . S
O120 C102 1.254 . S
O120 Zn117 2.025 . S
H121 C113 0.952 . S
H122 C104 0.952 . S
H123 C112 0.948 . S
O124 Zn109 2.034 . S
O124 C119 1.246 . S
O125 Zn117 2.024 . S
O125 C119 1.249 . S
H126 C108 0.948 1_565 S
O127 Zn117 2.039 1_565 S
O127 C131 1.251 . S
O128 Zn109 2.025 1_565 S
O128 C131 1.254 . S
O129 C110 1.246 . S
O129 Zn117 2.034 . S
O130 Zn109 2.024 . S
O130 C110 1.249 . S
C131 O127 1.251 . S
C131 O128 1.254 . S
H132 C105 0.949 . S
H133 C107 0.950 1_565 S
H134 C114 0.949 . S
H135 C116 0.950 . S
C136 O152 1.251 . S
C136 O154 1.254 . S
N137 C138 1.333 1_565 S
N137 C142 1.307 . S
N137 Zn143 2.020 . S
C138 N137 1.333 1_545 S
C138 C139 1.379 . S
C138 H156 0.952 . S
C139 C138 1.379 . S
C139 C140 1.390 1_545 S
C139 H166 0.949 . S
C140 C139 1.390 1_565 S
C140 C141 1.357 . S
C141 C140 1.357 . S
C141 C142 1.370 . S
C141 H167 0.950 . S
C142 N137 1.307 . S
C142 C141 1.370 . S
C142 H160 0.948 . S
Zn143 N137 2.020 . S
Zn143 O152 2.039 1_565 S
Zn143 O158 2.034 . S
Zn143 O162 2.025 . S
Zn143 O164 2.024 . S
C144 O163 1.246 . S
C144 O164 1.249 . S
N145 C146 1.307 . S
N145 C147 1.333 . S
N145 Zn151 2.020 . S
C146 N145 1.307 . S
C146 C150 1.370 . S
C146 H157 0.948 1_565 S
C147 N145 1.333 . S
C147 C148 1.379 . S
C147 H155 0.952 . S
C148 C147 1.379 . S
C148 C149 1.390 . S
C148 H168 0.949 . S
C149 C148 1.390 . S
C149 C150 1.357 . S
C150 C146 1.370 . S
C150 C149 1.357 . S
C150 H169 0.950 1_565 S
Zn151 N145 2.020 . S
Zn151 O154 2.025 1_565 S
Zn151 O159 2.024 . S
Zn151 O161 2.039 . S
Zn151 O163 2.034 . S
O152 C136 1.251 . S
O152 Zn143 2.039 1_545 S
C153 O158 1.246 . S
C153 O159 1.249 . S
O154 C136 1.254 . S
O154 Zn151 2.025 1_545 S
H155 C147 0.952 . S
H156 C138 0.952 . S
H157 C146 0.948 1_545 S
O158 Zn143 2.034 . S
O158 C153 1.246 . S
O159 Zn151 2.024 . S
O159 C153 1.249 . S
H160 C142 0.948 . S
O161 Zn151 2.039 . S
O161 C165 1.251 . S
O162 Zn143 2.025 . S
O162 C165 1.254 . S
O163 C144 1.246 . S
O163 Zn151 2.034 . S
O164 Zn143 2.024 . S
O164 C144 1.249 . S
C165 O161 1.251 . S
C165 O162 1.254 . S
H166 C139 0.949 . S
H167 C141 0.950 . S
H168 C148 0.949 . S
H169 C150 0.950 1_545 S
C170 O186 1.251 . S
C170 O188 1.254 . S
N171 C172 1.333 1_545 S
N171 C176 1.307 . S
N171 Zn177 2.020 . S
C172 N171 1.333 1_565 S
C172 C173 1.379 . S
C172 H190 0.952 . S
C173 C172 1.379 . S
C173 C174 1.390 1_565 S
C173 H200 0.949 . S
C174 C173 1.390 1_545 S
C174 C175 1.357 . S
C175 C174 1.357 . S
C175 C176 1.370 . S
C175 H201 0.950 . S
C176 N171 1.307 . S
C176 C175 1.370 . S
C176 H194 0.948 . S
Zn177 N171 2.020 . S
Zn177 O186 2.039 1_545 S
Zn177 O192 2.034 . S
Zn177 O196 2.025 . S
Zn177 O198 2.024 . S
C178 O197 1.246 . S
C178 O198 1.249 . S
N179 C180 1.307 . S
N179 C181 1.333 . S
N179 Zn185 2.020 . S
C180 N179 1.307 . S
C180 C184 1.370 . S
C180 H191 0.948 1_545 S
C181 N179 1.333 . S
C181 C182 1.379 . S
C181 H189 0.952 . S
C182 C181 1.379 . S
C182 C183 1.390 . S
C182 H202 0.949 . S
C183 C182 1.390 . S
C183 C184 1.357 . S
C184 C180 1.370 . S
C184 C183 1.357 . S
C184 H203 0.950 1_545 S
Zn185 N179 2.020 . S
Zn185 O188 2.025 1_545 S
Zn185 O193 2.024 . S
Zn185 O195 2.039 . S
Zn185 O197 2.034 . S
O186 C170 1.251 . S
O186 Zn177 2.039 1_565 S
C187 O192 1.246 . S
C187 O193 1.249 . S
O188 C170 1.254 . S
O188 Zn185 2.025 1_565 S
H189 C181 0.952 . S
H190 C172 0.952 . S
H191 C180 0.948 1_565 S
O192 Zn177 2.034 . S
O192 C187 1.246 . S
O193 Zn185 2.024 . S
O193 C187 1.249 . S
H194 C176 0.948 . S
O195 Zn185 2.039 . S
O195 C199 1.251 . S
O196 Zn177 2.025 . S
O196 C199 1.254 . S
O197 C178 1.246 . S
O197 Zn185 2.034 . S
O198 Zn177 2.024 . S
O198 C178 1.249 . S
C199 O195 1.251 . S
C199 O196 1.254 . S
H200 C173 0.949 . S
H201 C175 0.950 . S
H202 C182 0.949 . S
H203 C184 0.950 1_565 S
C204 O220 1.251 . S
C204 O222 1.254 . S
N205 C206 1.333 1_545 S
N205 C210 1.307 . S
N205 Zn211 2.020 . S
C206 N205 1.333 1_565 S
C206 C207 1.379 . S
C206 H224 0.952 . S
C207 C206 1.379 . S
C207 C208 1.390 1_565 S
C207 H234 0.949 . S
C208 C207 1.390 1_545 S
C208 C209 1.357 . S
C209 C208 1.357 . S
C209 C210 1.370 . S
C209 H235 0.950 . S
C210 N205 1.307 . S
C210 C209 1.370 . S
C210 H228 0.948 . S
Zn211 N205 2.020 . S
Zn211 O220 2.039 1_545 S
Zn211 O226 2.034 . S
Zn211 O230 2.025 . S
Zn211 O232 2.024 . S
C212 O231 1.246 . S
C212 O232 1.249 . S
N213 C214 1.307 . S
N213 C215 1.333 . S
N213 Zn219 2.020 . S
C214 N213 1.307 . S
C214 C218 1.370 . S
C214 H225 0.948 1_545 S
C215 N213 1.333 . S
C215 C216 1.379 . S
C215 H223 0.952 . S
C216 C215 1.379 . S
C216 C217 1.390 . S
C216 H236 0.949 . S
C217 C216 1.390 . S
C217 C218 1.357 . S
C218 C214 1.370 . S
C218 C217 1.357 . S
C218 H237 0.950 1_545 S
Zn219 N213 2.020 . S
Zn219 O222 2.025 1_545 S
Zn219 O227 2.024 . S
Zn219 O229 2.039 . S
Zn219 O231 2.034 . S
O220 C204 1.251 . S
O220 Zn211 2.039 1_565 S
C221 O226 1.246 . S
C221 O227 1.249 . S
O222 C204 1.254 . S
O222 Zn219 2.025 1_565 S
H223 C215 0.952 . S
H224 C206 0.952 . S
H225 C214 0.948 1_565 S
O226 Zn211 2.034 . S
O226 C221 1.246 . S
O227 Zn219 2.024 . S
O227 C221 1.249 . S
H228 C210 0.948 . S
O229 Zn219 2.039 . S
O229 C233 1.251 . S
O230 Zn211 2.025 . S
O230 C233 1.254 . S
O231 C212 1.246 . S
O231 Zn219 2.034 . S
O232 Zn211 2.024 . S
O232 C212 1.249 . S
C233 O229 1.251 . S
C233 O230 1.254 . S
H234 C207 0.949 . S
H235 C209 0.950 . S
H236 C216 0.949 . S
H237 C218 0.950 1_565 S
C238 O254 1.251 . S
C238 O256 1.254 . S
N239 C240 1.333 1_565 S
N239 C244 1.307 . S
N239 Zn245 2.020 . S
C240 N239 1.333 1_545 S
C240 C241 1.379 . S
C240 H258 0.952 . S
C241 C240 1.379 . S
C241 C242 1.390 1_545 S
C241 H268 0.949 . S
C242 C241 1.390 1_565 S
C242 C243 1.357 . S
C243 C242 1.357 . S
C243 C244 1.370 . S
C243 H269 0.950 . S
C244 N239 1.307 . S
C244 C243 1.370 . S
C244 H262 0.948 . S
Zn245 N239 2.020 . S
Zn245 O254 2.039 1_565 S
Zn245 O260 2.034 . S
Zn245 O264 2.025 . S
Zn245 O266 2.024 . S
C246 O265 1.246 . S
C246 O266 1.249 . S
N247 C248 1.307 . S
N247 C249 1.333 . S
N247 Zn253 2.020 . S
C248 N247 1.307 . S
C248 C252 1.370 . S
C248 H259 0.948 1_565 S
C249 N247 1.333 . S
C249 C250 1.379 . S
C249 H257 0.952 . S
C250 C249 1.379 . S
C250 C251 1.390 . S
C250 H270 0.949 . S
C251 C250 1.390 . S
C251 C252 1.357 . S
C252 C248 1.370 . S
C252 C251 1.357 . S
C252 H271 0.950 1_565 S
Zn253 N247 2.020 . S
Zn253 O256 2.025 1_565 S
Zn253 O261 2.024 . S
Zn253 O263 2.039 . S
Zn253 O265 2.034 . S
O254 C238 1.251 . S
O254 Zn245 2.039 1_545 S
C255 O260 1.246 . S
C255 O261 1.249 . S
O256 C238 1.254 . S
O256 Zn253 2.025 1_545 S
H257 C249 0.952 . S
H258 C240 0.952 . S
H259 C248 0.948 1_545 S
O260 Zn245 2.034 . S
O260 C255 1.246 . S
O261 Zn253 2.024 . S
O261 C255 1.249 . S
H262 C244 0.948 . S
O263 Zn253 2.039 . S
O263 C267 1.251 . S
O264 Zn245 2.025 . S
O264 C267 1.254 . S
O265 C246 1.246 . S
O265 Zn253 2.034 . S
O266 Zn245 2.024 . S
O266 C246 1.249 . S
C267 O263 1.251 . S
C267 O264 1.254 . S
H268 C241 0.949 . S
H269 C243 0.950 . S
H270 C250 0.949 . S
H271 C252 0.950 1_545 S
C272 O288 1.251 . S
C272 O290 1.254 . S
N273 C274 1.333 . S
N273 C278 1.307 . S
N273 Zn279 2.020 . S
C274 N273 1.333 . S
C274 C275 1.379 . S
C274 H292 0.952 . S
C275 C274 1.379 . S
C275 C276 1.390 . S
C275 H302 0.949 . S
C276 C275 1.390 . S
C276 C277 1.357 . S
C277 C276 1.357 . S
C277 C278 1.370 . S
C277 H303 0.950 . S
C278 N273 1.307 . S
C278 C277 1.370 . S
C278 H296 0.948 . S
Zn279 N273 2.020 . S
Zn279 O288 2.039 . S
Zn279 O294 2.034 . S
Zn279 O298 2.025 . S
Zn279 O300 2.024 . S
C280 O299 1.246 . S
C280 O300 1.249 . S
N281 C282 1.307 . S
N281 C283 1.333 . S
N281 Zn287 2.020 . S
C282 N281 1.307 . S
C282 C286 1.370 . S
C282 H293 0.948 . S
C283 N281 1.333 . S
C283 C284 1.379 . S
C283 H291 0.952 . S
C284 C283 1.379 . S
C284 C285 1.390 . S
C284 H304 0.949 . S
C285 C284 1.390 . S
C285 C286 1.357 . S
C286 C282 1.370 . S
C286 C285 1.357 . S
C286 H305 0.950 . S
Zn287 N281 2.020 . S
Zn287 O290 2.025 . S
Zn287 O295 2.024 . S
Zn287 O297 2.039 . S
Zn287 O299 2.034 . S
O288 C272 1.251 . S
O288 Zn279 2.039 . S
C289 O294 1.246 . S
C289 O295 1.249 . S
O290 C272 1.254 . S
O290 Zn287 2.025 . S
H291 C283 0.952 . S
H292 C274 0.952 . S
H293 C282 0.948 . S
O294 Zn279 2.034 . S
O294 C289 1.246 . S
O295 Zn287 2.024 . S
O295 C289 1.249 . S
H296 C278 0.948 . S
O297 Zn287 2.039 . S
O297 C301 1.251 . S
O298 Zn279 2.025 . S
O298 C301 1.254 . S
O299 C280 1.246 . S
O299 Zn287 2.034 . S
O300 Zn279 2.024 . S
O300 C280 1.249 . S
C301 O297 1.251 . S
C301 O298 1.254 . S
H302 C275 0.949 . S
H303 C277 0.950 . S
H304 C284 0.949 . S
H305 C286 0.950 . S
C306 O322 1.251 . S
C306 O324 1.254 . S
N307 C308 1.333 . S
N307 C312 1.307 . S
N307 Zn313 2.020 . S
C308 N307 1.333 . S
C308 C309 1.379 . S
C308 H326 0.952 . S
C309 C308 1.379 . S
C309 C310 1.390 . S
C309 H336 0.949 . S
C310 C309 1.390 . S
C310 C311 1.357 . S
C311 C310 1.357 . S
C311 C312 1.370 . S
C311 H337 0.950 . S
C312 N307 1.307 . S
C312 C311 1.370 . S
C312 H330 0.948 . S
Zn313 N307 2.020 . S
Zn313 O322 2.039 . S
Zn313 O328 2.034 . S
Zn313 O332 2.025 . S
Zn313 O334 2.024 . S
C314 O333 1.246 . S
C314 O334 1.249 . S
N315 C316 1.307 . S
N315 C317 1.333 . S
N315 Zn321 2.020 . S
C316 N315 1.307 . S
C316 C320 1.370 . S
C316 H327 0.948 . S
C317 N315 1.333 . S
C317 C318 1.379 . S
C317 H325 0.952 . S
C318 C317 1.379 . S
C318 C319 1.390 . S
C318 H338 0.949 . S
C319 C318 1.390 . S
C319 C320 1.357 . S
C320 C316 1.370 . S
C320 C319 1.357 . S
C320 H339 0.950 . S
Zn321 N315 2.020 . S
Zn321 O324 2.025 . S
Zn321 O329 2.024 . S
Zn321 O331 2.039 . S
Zn321 O333 2.034 . S
O322 C306 1.251 . S
O322 Zn313 2.039 . S
C323 O328 1.246 . S
C323 O329 1.249 . S
O324 C306 1.254 . S
O324 Zn321 2.025 . S
H325 C317 0.952 . S
H326 C308 0.952 . S
H327 C316 0.948 . S
O328 Zn313 2.034 . S
O328 C323 1.246 . S
O329 Zn321 2.024 . S
O329 C323 1.249 . S
H330 C312 0.948 . S
O331 Zn321 2.039 . S
O331 C335 1.251 . S
O332 Zn313 2.025 . S
O332 C335 1.254 . S
O333 C314 1.246 . S
O333 Zn321 2.034 . S
O334 Zn313 2.024 . S
O334 C314 1.249 . S
C335 O331 1.251 . S
C335 O332 1.254 . S
H336 C309 0.949 . S
H337 C311 0.950 . S
H338 C318 0.949 . S
H339 C320 0.950 . S
C340 O356 1.251 . S
C340 O358 1.254 . S
N341 C342 1.333 . S
N341 C346 1.307 . S
N341 Zn347 2.020 . S
C342 N341 1.333 . S
C342 C343 1.379 . S
C342 H360 0.952 . S
C343 C342 1.379 . S
C343 C344 1.390 . S
C343 H370 0.949 . S
C344 C343 1.390 . S
C344 C345 1.357 . S
C345 C344 1.357 . S
C345 C346 1.370 . S
C345 H371 0.950 . S
C346 N341 1.307 . S
C346 C345 1.370 . S
C346 H364 0.948 . S
Zn347 N341 2.020 . S
Zn347 O356 2.039 . S
Zn347 O362 2.034 . S
Zn347 O366 2.025 . S
Zn347 O368 2.024 . S
C348 O367 1.246 . S
C348 O368 1.249 . S
N349 C350 1.307 . S
N349 C351 1.333 . S
N349 Zn355 2.020 . S
C350 N349 1.307 . S
C350 C354 1.370 . S
C350 H361 0.948 . S
C351 N349 1.333 . S
C351 C352 1.379 . S
C351 H359 0.952 . S
C352 C351 1.379 . S
C352 C353 1.390 . S
C352 H372 0.949 . S
C353 C352 1.390 . S
C353 C354 1.357 . S
C354 C350 1.370 . S
C354 C353 1.357 . S
C354 H373 0.950 . S
Zn355 N349 2.020 . S
Zn355 O358 2.025 . S
Zn355 O363 2.024 . S
Zn355 O365 2.039 . S
Zn355 O367 2.034 . S
O356 C340 1.251 . S
O356 Zn347 2.039 . S
C357 O362 1.246 . S
C357 O363 1.249 . S
O358 C340 1.254 . S
O358 Zn355 2.025 . S
H359 C351 0.952 . S
H360 C342 0.952 . S
H361 C350 0.948 . S
O362 Zn347 2.034 . S
O362 C357 1.246 . S
O363 Zn355 2.024 . S
O363 C357 1.249 . S
H364 C346 0.948 . S
O365 Zn355 2.039 . S
O365 C369 1.251 . S
O366 Zn347 2.025 . S
O366 C369 1.254 . S
O367 C348 1.246 . S
O367 Zn355 2.034 . S
O368 Zn347 2.024 . S
O368 C348 1.249 . S
C369 O365 1.251 . S
C369 O366 1.254 . S
H370 C343 0.949 . S
H371 C345 0.950 . S
H372 C352 0.949 . S
H373 C354 0.950 . S
C374 O390 1.251 . S
C374 O392 1.254 . S
N375 C376 1.333 . S
N375 C380 1.307 . S
N375 Zn381 2.020 . S
C376 N375 1.333 . S
C376 C377 1.379 . S
C376 H394 0.952 . S
C377 C376 1.379 . S
C377 C378 1.390 . S
C377 H404 0.949 . S
C378 C377 1.390 . S
C378 C379 1.357 . S
C379 C378 1.357 . S
C379 C380 1.370 . S
C379 H405 0.950 . S
C380 N375 1.307 . S
C380 C379 1.370 . S
C380 H398 0.948 . S
Zn381 N375 2.020 . S
Zn381 O390 2.039 . S
Zn381 O396 2.034 . S
Zn381 O400 2.025 . S
Zn381 O402 2.024 . S
C382 O401 1.246 . S
C382 O402 1.249 . S
N383 C384 1.307 . S
N383 C385 1.333 . S
N383 Zn389 2.020 . S
C384 N383 1.307 . S
C384 C388 1.370 . S
C384 H395 0.948 . S
C385 N383 1.333 . S
C385 C386 1.379 . S
C385 H393 0.952 . S
C386 C385 1.379 . S
C386 C387 1.390 . S
C386 H406 0.949 . S
C387 C386 1.390 . S
C387 C388 1.357 . S
C388 C384 1.370 . S
C388 C387 1.357 . S
C388 H407 0.950 . S
Zn389 N383 2.020 . S
Zn389 O392 2.025 . S
Zn389 O397 2.024 . S
Zn389 O399 2.039 . S
Zn389 O401 2.034 . S
O390 C374 1.251 . S
O390 Zn381 2.039 . S
C391 O396 1.246 . S
C391 O397 1.249 . S
O392 C374 1.254 . S
O392 Zn389 2.025 . S
H393 C385 0.952 . S
H394 C376 0.952 . S
H395 C384 0.948 . S
O396 Zn381 2.034 . S
O396 C391 1.246 . S
O397 Zn389 2.024 . S
O397 C391 1.249 . S
H398 C380 0.948 . S
O399 Zn389 2.039 . S
O399 C403 1.251 . S
O400 Zn381 2.025 . S
O400 C403 1.254 . S
O401 C382 1.246 . S
O401 Zn389 2.034 . S
O402 Zn381 2.024 . S
O402 C382 1.249 . S
C403 O399 1.251 . S
C403 O400 1.254 . S
H404 C377 0.949 . S
H405 C379 0.950 . S
H406 C386 0.949 . S
H407 C388 0.950 . S
C408 O424 1.251 . S
C408 O426 1.254 . S
N409 C410 1.333 . S
N409 C414 1.307 . S
N409 Zn415 2.020 . S
C410 N409 1.333 . S
C410 C411 1.379 . S
C410 H428 0.952 . S
C411 C410 1.379 . S
C411 C412 1.390 . S
C411 H438 0.949 . S
C412 C411 1.390 . S
C412 C413 1.357 . S
C413 C412 1.357 . S
C413 C414 1.370 . S
C413 H439 0.950 . S
C414 N409 1.307 . S
C414 C413 1.370 . S
C414 H432 0.948 . S
Zn415 N409 2.020 . S
Zn415 O424 2.039 . S
Zn415 O430 2.034 . S
Zn415 O434 2.025 . S
Zn415 O436 2.024 . S
C416 O435 1.246 . S
C416 O436 1.249 . S
N417 C418 1.307 . S
N417 C419 1.333 . S
N417 Zn423 2.020 . S
C418 N417 1.307 . S
C418 C422 1.370 . S
C418 H429 0.948 . S
C419 N417 1.333 . S
C419 C420 1.379 . S
C419 H427 0.952 . S
C420 C419 1.379 . S
C420 C421 1.390 . S
C420 H440 0.949 . S
C421 C420 1.390 . S
C421 C422 1.357 . S
C422 C418 1.370 . S
C422 C421 1.357 . S
C422 H441 0.950 . S
Zn423 N417 2.020 . S
Zn423 O426 2.025 . S
Zn423 O431 2.024 . S
Zn423 O433 2.039 . S
Zn423 O435 2.034 . S
O424 C408 1.251 . S
O424 Zn415 2.039 . S
C425 O430 1.246 . S
C425 O431 1.249 . S
O426 C408 1.254 . S
O426 Zn423 2.025 . S
H427 C419 0.952 . S
H428 C410 0.952 . S
H429 C418 0.948 . S
O430 Zn415 2.034 . S
O430 C425 1.246 . S
O431 Zn423 2.024 . S
O431 C425 1.249 . S
H432 C414 0.948 . S
O433 Zn423 2.039 . S
O433 C437 1.251 . S
O434 Zn415 2.025 . S
O434 C437 1.254 . S
O435 C416 1.246 . S
O435 Zn423 2.034 . S
O436 Zn415 2.024 . S
O436 C416 1.249 . S
C437 O433 1.251 . S
C437 O434 1.254 . S
H438 C411 0.949 . S
H439 C413 0.950 . S
H440 C420 0.949 . S
H441 C422 0.950 . S
C442 O458 1.251 . S
C442 O460 1.254 . S
N443 C444 1.333 . S
N443 C448 1.307 . S
N443 Zn449 2.020 . S
C444 N443 1.333 . S
C444 C445 1.379 . S
C444 H462 0.952 . S
C445 C444 1.379 . S
C445 C446 1.390 . S
C445 H472 0.949 . S
C446 C445 1.390 . S
C446 C447 1.357 . S
C447 C446 1.357 . S
C447 C448 1.370 . S
C447 H473 0.950 . S
C448 N443 1.307 . S
C448 C447 1.370 . S
C448 H466 0.948 . S
Zn449 N443 2.020 . S
Zn449 O458 2.039 . S
Zn449 O464 2.034 . S
Zn449 O468 2.025 . S
Zn449 O470 2.024 . S
C450 O469 1.246 . S
C450 O470 1.249 . S
N451 C452 1.307 . S
N451 C453 1.333 . S
N451 Zn457 2.020 . S
C452 N451 1.307 . S
C452 C456 1.370 . S
C452 H463 0.948 . S
C453 N451 1.333 . S
C453 C454 1.379 . S
C453 H461 0.952 . S
C454 C453 1.379 . S
C454 C455 1.390 . S
C454 H474 0.949 . S
C455 C454 1.390 . S
C455 C456 1.357 . S
C456 C452 1.370 . S
C456 C455 1.357 . S
C456 H475 0.950 . S
Zn457 N451 2.020 . S
Zn457 O460 2.025 . S
Zn457 O465 2.024 . S
Zn457 O467 2.039 . S
Zn457 O469 2.034 . S
O458 C442 1.251 . S
O458 Zn449 2.039 . S
C459 O464 1.246 . S
C459 O465 1.249 . S
O460 C442 1.254 . S
O460 Zn457 2.025 . S
H461 C453 0.952 . S
H462 C444 0.952 . S
H463 C452 0.948 . S
O464 Zn449 2.034 . S
O464 C459 1.246 . S
O465 Zn457 2.024 . S
O465 C459 1.249 . S
H466 C448 0.948 . S
O467 Zn457 2.039 . S
O467 C471 1.251 . S
O468 Zn449 2.025 . S
O468 C471 1.254 . S
O469 C450 1.246 . S
O469 Zn457 2.034 . S
O470 Zn449 2.024 . S
O470 C450 1.249 . S
C471 O467 1.251 . S
C471 O468 1.254 . S
H472 C445 0.949 . S
H473 C447 0.950 . S
H474 C454 0.949 . S
H475 C456 0.950 . S
C476 O492 1.251 . S
C476 O494 1.254 . S
N477 C478 1.333 . S
N477 C482 1.307 . S
N477 Zn483 2.020 . S
C478 N477 1.333 . S
C478 C479 1.379 . S
C478 H496 0.952 . S
C479 C478 1.379 . S
C479 C480 1.390 . S
C479 H506 0.949 . S
C480 C479 1.390 . S
C480 C481 1.357 . S
C481 C480 1.357 . S
C481 C482 1.370 . S
C481 H507 0.950 . S
C482 N477 1.307 . S
C482 C481 1.370 . S
C482 H500 0.948 . S
Zn483 N477 2.020 . S
Zn483 O492 2.039 . S
Zn483 O498 2.034 . S
Zn483 O502 2.025 . S
Zn483 O504 2.024 . S
C484 O503 1.246 . S
C484 O504 1.249 . S
N485 C486 1.307 . S
N485 C487 1.333 . S
N485 Zn491 2.020 . S
C486 N485 1.307 . S
C486 C490 1.370 . S
C486 H497 0.948 . S
C487 N485 1.333 . S
C487 C488 1.379 . S
C487 H495 0.952 . S
C488 C487 1.379 . S
C488 C489 1.390 . S
C488 H508 0.949 . S
C489 C488 1.390 . S
C489 C490 1.357 . S
C490 C486 1.370 . S
C490 C489 1.357 . S
C490 H509 0.950 . S
Zn491 N485 2.020 . S
Zn491 O494 2.025 . S
Zn491 O499 2.024 . S
Zn491 O501 2.039 . S
Zn491 O503 2.034 . S
O492 C476 1.251 . S
O492 Zn483 2.039 . S
C493 O498 1.246 . S
C493 O499 1.249 . S
O494 C476 1.254 . S
O494 Zn491 2.025 . S
H495 C487 0.952 . S
H496 C478 0.952 . S
H497 C486 0.948 . S
O498 Zn483 2.034 . S
O498 C493 1.246 . S
O499 Zn491 2.024 . S
O499 C493 1.249 . S
H500 C482 0.948 . S
O501 Zn491 2.039 . S
O501 C505 1.251 . S
O502 Zn483 2.025 . S
O502 C505 1.254 . S
O503 C484 1.246 . S
O503 Zn491 2.034 . S
O504 Zn483 2.024 . S
O504 C484 1.249 . S
C505 O501 1.251 . S
C505 O502 1.254 . S
H506 C479 0.949 . S
H507 C481 0.950 . S
H508 C488 0.949 . S
H509 C490 0.950 . S
C510 O526 1.251 . S
C510 O528 1.254 . S
N511 C512 1.333 . S
N511 C516 1.307 . S
N511 Zn517 2.020 . S
C512 N511 1.333 . S
C512 C513 1.379 . S
C512 H530 0.952 . S
C513 C512 1.379 . S
C513 C514 1.390 . S
C513 H540 0.949 . S
C514 C513 1.390 . S
C514 C515 1.357 . S
C515 C514 1.357 . S
C515 C516 1.370 . S
C515 H541 0.950 . S
C516 N511 1.307 . S
C516 C515 1.370 . S
C516 H534 0.948 . S
Zn517 N511 2.020 . S
Zn517 O526 2.039 . S
Zn517 O532 2.034 . S
Zn517 O536 2.025 . S
Zn517 O538 2.024 . S
C518 O537 1.246 . S
C518 O538 1.249 . S
N519 C520 1.307 . S
N519 C521 1.333 . S
N519 Zn525 2.020 . S
C520 N519 1.307 . S
C520 C524 1.370 . S
C520 H531 0.948 . S
C521 N519 1.333 . S
C521 C522 1.379 . S
C521 H529 0.952 . S
C522 C521 1.379 . S
C522 C523 1.390 . S
C522 H542 0.949 . S
C523 C522 1.390 . S
C523 C524 1.357 . S
C524 C520 1.370 . S
C524 C523 1.357 . S
C524 H543 0.950 . S
Zn525 N519 2.020 . S
Zn525 O528 2.025 . S
Zn525 O533 2.024 . S
Zn525 O535 2.039 . S
Zn525 O537 2.034 . S
O526 C510 1.251 . S
O526 Zn517 2.039 . S
C527 O532 1.246 . S
C527 O533 1.249 . S
O528 C510 1.254 . S
O528 Zn525 2.025 . S
H529 C521 0.952 . S
H530 C512 0.952 . S
H531 C520 0.948 . S
O532 Zn517 2.034 . S
O532 C527 1.246 . S
O533 Zn525 2.024 . S
O533 C527 1.249 . S
H534 C516 0.948 . S
O535 Zn525 2.039 . S
O535 C539 1.251 . S
O536 Zn517 2.025 . S
O536 C539 1.254 . S
O537 C518 1.246 . S
O537 Zn525 2.034 . S
O538 Zn517 2.024 . S
O538 C518 1.249 . S
C539 O535 1.251 . S
C539 O536 1.254 . S
H540 C513 0.949 . S
H541 C515 0.950 . S
H542 C522 0.949 . S
H543 C524 0.950 . S
C544 C545 1.387 . S
C544 H548 0.950 . S
C544 C553 1.390 . S
C545 C544 1.387 . S
C545 C547 1.387 . S
H546 C553 0.950 . S
C547 C545 1.387 . S
C547 C549 1.390 . S
C547 H551 0.950 . S
H548 C544 0.950 . S
C549 C547 1.390 . S
C549 C550 1.387 . S
C549 H552 0.950 . S
C550 C549 1.387 . S
C550 C553 1.387 . S
H551 C547 0.950 . S
H552 C549 0.950 . S
C553 C544 1.390 . S
C553 H546 0.950 . S
C553 C550 1.387 . S
C554 C555 1.387 . S
C554 H558 0.950 . S
C554 C563 1.390 . S
C555 C554 1.387 . S
C555 C557 1.387 . S
H556 C563 0.950 . S
C557 C555 1.387 . S
C557 C559 1.390 . S
C557 H561 0.950 . S
H558 C554 0.950 . S
C559 C557 1.390 . S
C559 C560 1.387 . S
C559 H562 0.950 . S
C560 C559 1.387 . S
C560 C563 1.387 . S
H561 C557 0.950 . S
H562 C559 0.950 . S
C563 C554 1.390 . S
C563 H556 0.950 . S
C563 C560 1.387 . S
C564 C565 1.387 . S
C564 H568 0.950 . S
C564 C573 1.390 . S
C565 C564 1.387 . S
C565 C567 1.387 . S
H566 C573 0.950 . S
C567 C565 1.387 . S
C567 C569 1.390 . S
C567 H571 0.950 . S
H568 C564 0.950 . S
C569 C567 1.390 . S
C569 C570 1.387 . S
C569 H572 0.950 . S
C570 C569 1.387 . S
C570 C573 1.387 . S
H571 C567 0.950 . S
H572 C569 0.950 . S
C573 C564 1.390 . S
C573 H566 0.950 . S
C573 C570 1.387 . S
C574 C575 1.387 . S
C574 H578 0.950 . S
C574 C583 1.390 . S
C575 C574 1.387 . S
C575 C577 1.387 . S
H576 C583 0.950 . S
C577 C575 1.387 . S
C577 C579 1.390 . S
C577 H581 0.950 . S
H578 C574 0.950 . S
C579 C577 1.390 . S
C579 C580 1.387 . S
C579 H582 0.950 . S
C580 C579 1.387 . S
C580 C583 1.387 . S
H581 C577 0.950 . S
H582 C579 0.950 . S
C583 C574 1.390 . S
C583 H576 0.950 . S
C583 C580 1.387 . S
C584 C585 1.387 . S
C584 H588 0.950 . S
C584 C593 1.390 . S
C585 C584 1.387 . S
C585 C587 1.387 . S
H586 C593 0.950 . S
C587 C585 1.387 . S
C587 C589 1.390 . S
C587 H591 0.950 . S
H588 C584 0.950 . S
C589 C587 1.390 . S
C589 C590 1.387 . S
C589 H592 0.950 . S
C590 C589 1.387 . S
C590 C593 1.387 . S
H591 C587 0.950 . S
H592 C589 0.950 . S
C593 C584 1.390 . S
C593 H586 0.950 . S
C593 C590 1.387 . S
C594 C595 1.387 . S
C594 H598 0.950 . S
C594 C603 1.390 . S
C595 C594 1.387 . S
C595 C597 1.387 . S
H596 C603 0.950 . S
C597 C595 1.387 . S
C597 C599 1.390 . S
C597 H601 0.950 . S
H598 C594 0.950 . S
C599 C597 1.390 . S
C599 C600 1.387 . S
C599 H602 0.950 . S
C600 C599 1.387 . S
C600 C603 1.387 . S
H601 C597 0.950 . S
H602 C599 0.950 . S
C603 C594 1.390 . S
C603 H596 0.950 . S
C603 C600 1.387 . S
C604 C605 1.387 . S
C604 H608 0.950 . S
C604 C613 1.390 . S
C605 C604 1.387 . S
C605 C607 1.387 . S
H606 C613 0.950 . S
C607 C605 1.387 . S
C607 C609 1.390 . S
C607 H611 0.950 . S
H608 C604 0.950 . S
C609 C607 1.390 . S
C609 C610 1.387 . S
C609 H612 0.950 . S
C610 C609 1.387 . S
C610 C613 1.387 . S
H611 C607 0.950 . S
H612 C609 0.950 . S
C613 C604 1.390 . S
C613 H606 0.950 . S
C613 C610 1.387 . S
C614 C615 1.387 . S
C614 H618 0.950 . S
C614 C623 1.390 . S
C615 C614 1.387 . S
C615 C617 1.387 . S
H616 C623 0.950 . S
C617 C615 1.387 . S
C617 C619 1.390 . S
C617 H621 0.950 . S
H618 C614 0.950 . S
C619 C617 1.390 . S
C619 C620 1.387 . S
C619 H622 0.950 . S
C620 C619 1.387 . S
C620 C623 1.387 . S
H621 C617 0.950 . S
H622 C619 0.950 . S
C623 C614 1.390 . S
C623 H616 0.950 . S
C623 C620 1.387 . S
C624 C625 1.387 . S
C624 H628 0.950 . S
C624 C633 1.390 1_565 S
C625 C624 1.387 . S
C625 C627 1.387 . S
H626 C633 0.950 . S
C627 C625 1.387 . S
C627 C629 1.390 1_565 S
C627 H631 0.950 . S
H628 C624 0.950 . S
C629 C627 1.390 1_545 S
C629 C630 1.387 . S
C629 H632 0.950 . S
C630 C629 1.387 . S
C630 C633 1.387 . S
H631 C627 0.950 . S
H632 C629 0.950 . S
C633 C624 1.390 1_545 S
C633 H626 0.950 . S
C633 C630 1.387 . S
C634 C635 1.387 . S
C634 H638 0.950 . S
C634 C643 1.390 1_545 S
C635 C634 1.387 . S
C635 C637 1.387 . S
H636 C643 0.950 . S
C637 C635 1.387 . S
C637 C639 1.390 1_545 S
C637 H641 0.950 . S
H638 C634 0.950 . S
C639 C637 1.390 1_565 S
C639 C640 1.387 . S
C639 H642 0.950 . S
C640 C639 1.387 . S
C640 C643 1.387 . S
H641 C637 0.950 . S
H642 C639 0.950 . S
C643 C634 1.390 1_565 S
C643 H636 0.950 . S
C643 C640 1.387 . S
C644 C645 1.387 . S
C644 H648 0.950 . S
C644 C653 1.390 1_545 S
C645 C644 1.387 . S
C645 C647 1.387 . S
H646 C653 0.950 . S
C647 C645 1.387 . S
C647 C649 1.390 1_545 S
C647 H651 0.950 . S
H648 C644 0.950 . S
C649 C647 1.390 1_565 S
C649 C650 1.387 . S
C649 H652 0.950 . S
C650 C649 1.387 . S
C650 C653 1.387 . S
H651 C647 0.950 . S
H652 C649 0.950 . S
C653 C644 1.390 1_565 S
C653 H646 0.950 . S
C653 C650 1.387 . S
C654 C655 1.387 . S
C654 H658 0.950 . S
C654 C663 1.390 1_545 S
C655 C654 1.387 . S
C655 C657 1.387 . S
H656 C663 0.950 . S
C657 C655 1.387 . S
C657 C659 1.390 1_545 S
C657 H661 0.950 . S
H658 C654 0.950 . S
C659 C657 1.390 1_565 S
C659 C660 1.387 . S
C659 H662 0.950 . S
C660 C659 1.387 . S
C660 C663 1.387 . S
H661 C657 0.950 . S
H662 C659 0.950 . S
C663 C654 1.390 1_565 S
C663 H656 0.950 . S
C663 C660 1.387 . S
C664 C665 1.387 . S
C664 H668 0.950 . S
C664 C673 1.390 . S
C665 C664 1.387 . S
C665 C667 1.387 . S
H666 C673 0.950 . S
C667 C665 1.387 . S
C667 C669 1.390 . S
C667 H671 0.950 . S
H668 C664 0.950 . S
C669 C667 1.390 . S
C669 C670 1.387 . S
C669 H672 0.950 . S
C670 C669 1.387 . S
C670 C673 1.387 . S
H671 C667 0.950 . S
H672 C669 0.950 . S
C673 C664 1.390 . S
C673 H666 0.950 . S
C673 C670 1.387 . S
C674 C675 1.387 . S
C674 H678 0.950 . S
C674 C683 1.390 . S
C675 C674 1.387 . S
C675 C677 1.387 . S
H676 C683 0.950 . S
C677 C675 1.387 . S
C677 C679 1.390 . S
C677 H681 0.950 . S
H678 C674 0.950 . S
C679 C677 1.390 . S
C679 C680 1.387 . S
C679 H682 0.950 . S
C680 C679 1.387 . S
C680 C683 1.387 . S
H681 C677 0.950 . S
H682 C679 0.950 . S
C683 C674 1.390 . S
C683 H676 0.950 . S
C683 C680 1.387 . S
C684 C685 1.387 . S
C684 H688 0.950 . S
C684 C693 1.390 . S
C685 C684 1.387 . S
C685 C687 1.387 . S
H686 C693 0.950 . S
C687 C685 1.387 . S
C687 C689 1.390 . S
C687 H691 0.950 . S
H688 C684 0.950 . S
C689 C687 1.390 . S
C689 C690 1.387 . S
C689 H692 0.950 . S
C690 C689 1.387 . S
C690 C693 1.387 . S
H691 C687 0.950 . S
H692 C689 0.950 . S
C693 C684 1.390 . S
C693 H686 0.950 . S
C693 C690 1.387 . S
C694 C695 1.387 . S
C694 H698 0.950 . S
C694 C703 1.390 . S
C695 C694 1.387 . S
C695 C697 1.387 . S
H696 C703 0.950 . S
C697 C695 1.387 . S
C697 C699 1.390 . S
C697 H701 0.950 . S
H698 C694 0.950 . S
C699 C697 1.390 . S
C699 C700 1.387 . S
C699 H702 0.950 . S
C700 C699 1.387 . S
C700 C703 1.387 . S
H701 C697 0.950 . S
H702 C699 0.950 . S
C703 C694 1.390 . S
C703 H696 0.950 . S
C703 C700 1.387 . S
C704 C705 1.387 . S
C704 H708 0.950 1_545 S
C704 C713 1.390 1_556 S
C705 C704 1.387 . S
C705 C707 1.387 . S
H706 C713 0.950 1_565 S
C707 C705 1.387 . S
C707 C709 1.390 1_556 S
C707 H711 0.950 . S
H708 C704 0.950 1_565 S
C709 C707 1.390 1_554 S
C709 C710 1.387 . S
C709 H712 0.950 . S
C710 C709 1.387 . S
C710 C713 1.387 . S
H711 C707 0.950 . S
H712 C709 0.950 . S
C713 C704 1.390 1_554 S
C713 H706 0.950 1_545 S
C713 C710 1.387 . S
C714 C715 1.387 . S
C714 H718 0.950 . S
C714 C723 1.390 1_556 S
C715 C714 1.387 . S
C715 C717 1.387 . S
H716 C723 0.950 . S
C717 C715 1.387 . S
C717 C719 1.390 1_556 S
C717 H721 0.950 1_565 S
H718 C714 0.950 . S
C719 C717 1.390 1_554 S
C719 C720 1.387 . S
C719 H722 0.950 1_565 S
C720 C719 1.387 . S
C720 C723 1.387 . S
H721 C717 0.950 1_545 S
H722 C719 0.950 1_545 S
C723 C714 1.390 1_554 S
C723 H716 0.950 . S
C723 C720 1.387 . S
C724 C725 1.387 . S
C724 H728 0.950 1_565 S
C724 C733 1.390 . S
C725 C724 1.387 . S
C725 C727 1.387 . S
H726 C733 0.950 1_545 S
C727 C725 1.387 . S
C727 C729 1.390 . S
C727 H731 0.950 . S
H728 C724 0.950 1_545 S
C729 C727 1.390 . S
C729 C730 1.387 . S
C729 H732 0.950 . S
C730 C729 1.387 . S
C730 C733 1.387 . S
H731 C727 0.950 . S
H732 C729 0.950 . S
C733 C724 1.390 . S
C733 H726 0.950 1_565 S
C733 C730 1.387 . S
C734 C735 1.387 . S
C734 H738 0.950 . S
C734 C743 1.390 . S
C735 C734 1.387 . S
C735 C737 1.387 . S
H736 C743 0.950 . S
C737 C735 1.387 . S
C737 C739 1.390 . S
C737 H741 0.950 1_545 S
H738 C734 0.950 . S
C739 C737 1.390 . S
C739 C740 1.387 . S
C739 H742 0.949 1_545 S
C740 C739 1.387 . S
C740 C743 1.387 . S
H741 C737 0.950 1_565 S
H742 C739 0.949 1_565 S
C743 C734 1.390 . S
C743 H736 0.950 . S
C743 C740 1.387 . S
C744 C745 1.387 . S
C744 H748 0.950 . S
C744 C753 1.390 1_554 S
C745 C744 1.387 . S
C745 C747 1.387 . S
H746 C753 0.950 . S
C747 C745 1.387 . S
C747 C749 1.390 1_554 S
C747 H751 0.950 . S
H748 C744 0.950 . S
C749 C747 1.390 1_556 S
C749 C750 1.387 . S
C749 H752 0.950 . S
C750 C749 1.387 . S
C750 C753 1.387 . S
H751 C747 0.950 . S
H752 C749 0.950 . S
C753 C744 1.390 1_556 S
C753 H746 0.950 . S
C753 C750 1.387 . S
C754 C755 1.387 . S
C754 H758 0.950 . S
C754 C763 1.390 1_556 S
C755 C754 1.387 . S
C755 C757 1.387 . S
H756 C763 0.950 . S
C757 C755 1.387 . S
C757 C759 1.390 1_556 S
C757 H761 0.950 . S
H758 C754 0.950 . S
C759 C757 1.390 1_554 S
C759 C760 1.387 . S
C759 H762 0.950 . S
C760 C759 1.387 . S
C760 C763 1.387 . S
H761 C757 0.950 . S
H762 C759 0.950 . S
C763 C754 1.390 1_554 S
C763 H756 0.950 . S
C763 C760 1.387 . S
C764 C765 1.387 . S
C764 H768 0.950 . S
C764 C773 1.390 . S
C765 C764 1.387 . S
C765 C767 1.387 . S
H766 C773 0.950 . S
C767 C765 1.387 . S
C767 C769 1.390 . S
C767 H771 0.950 . S
H768 C764 0.950 . S
C769 C767 1.390 . S
C769 C770 1.387 . S
C769 H772 0.950 . S
C770 C769 1.387 . S
C770 C773 1.387 . S
H771 C767 0.950 . S
H772 C769 0.950 . S
C773 C764 1.390 . S
C773 H766 0.950 . S
C773 C770 1.387 . S
C774 C775 1.387 . S
C774 H778 0.950 . S
C774 C783 1.390 . S
C775 C774 1.387 . S
C775 C777 1.387 . S
H776 C783 0.950 . S
C777 C775 1.387 . S
C777 C779 1.390 . S
C777 H781 0.950 . S
H778 C774 0.950 . S
C779 C777 1.390 . S
C779 C780 1.387 . S
C779 H782 0.950 . S
C780 C779 1.387 . S
C780 C783 1.387 . S
H781 C777 0.950 . S
H782 C779 0.950 . S
C783 C774 1.390 . S
C783 H776 0.950 . S
C783 C780 1.387 . S
C784 C785 1.387 . S
C784 H788 0.950 . S
C784 C793 1.390 1_665 S
C785 C784 1.387 . S
C785 C787 1.387 . S
H786 C793 0.950 . S
C787 C785 1.387 . S
C787 C789 1.390 1_665 S
C787 H791 0.950 . S
H788 C784 0.950 . S
C789 C787 1.390 1_445 S
C789 C790 1.387 . S
C789 H792 0.950 . S
C790 C789 1.387 . S
C790 C793 1.387 . S
H791 C787 0.950 . S
H792 C789 0.950 . S
C793 C784 1.390 1_445 S
C793 H786 0.950 . S
C793 C790 1.387 . S
C794 C795 1.387 . S
C794 H798 0.950 . S
C794 C803 1.390 1_645 S
C795 C794 1.387 . S
C795 C797 1.387 . S
H796 C803 0.950 . S
C797 C795 1.387 . S
C797 C799 1.390 1_645 S
C797 H801 0.950 . S
H798 C794 0.950 . S
C799 C797 1.390 1_465 S
C799 C800 1.387 . S
C799 H802 0.950 . S
C800 C799 1.387 . S
C800 C803 1.387 . S
H801 C797 0.950 . S
H802 C799 0.950 . S
C803 C794 1.390 1_465 S
C803 H796 0.950 . S
C803 C800 1.387 . S
C804 C805 1.387 . S
C804 H808 0.950 . S
C804 C813 1.390 1_445 S
C805 C804 1.387 . S
C805 C807 1.387 . S
H806 C813 0.950 . S
C807 C805 1.387 . S
C807 C809 1.390 1_445 S
C807 H811 0.950 . S
H808 C804 0.950 . S
C809 C807 1.390 1_665 S
C809 C810 1.387 . S
C809 H812 0.950 . S
C810 C809 1.387 . S
C810 C813 1.387 . S
H811 C807 0.950 . S
H812 C809 0.950 . S
C813 C804 1.390 1_665 S
C813 H806 0.950 . S
C813 C810 1.387 . S
C814 C815 1.387 . S
C814 H818 0.950 . S
C814 C823 1.390 1_645 S
C815 C814 1.387 . S
C815 C817 1.387 . S
H816 C823 0.950 . S
C817 C815 1.387 . S
C817 C819 1.390 1_645 S
C817 H821 0.950 . S
H818 C814 0.950 . S
C819 C817 1.390 1_465 S
C819 C820 1.387 . S
C819 H822 0.950 . S
C820 C819 1.387 . S
C820 C823 1.387 . S
H821 C817 0.950 . S
H822 C819 0.950 . S
C823 C814 1.390 1_465 S
C823 H816 0.950 . S
C823 C820 1.387 . S
C824 C825 1.387 . S
C824 H828 0.950 . S
C824 C833 1.390 . S
C825 C824 1.387 . S
C825 C827 1.387 . S
H826 C833 0.950 . S
C827 C825 1.387 . S
C827 C829 1.390 . S
C827 H831 0.950 . S
H828 C824 0.950 . S
C829 C827 1.390 . S
C829 C830 1.387 . S
C829 H832 0.950 . S
C830 C829 1.387 . S
C830 C833 1.387 . S
H831 C827 0.950 . S
H832 C829 0.950 . S
C833 C824 1.390 . S
C833 H826 0.950 . S
C833 C830 1.387 . S
C834 C835 1.387 . S
C834 H838 0.950 . S
C834 C843 1.390 . S
C835 C834 1.387 . S
C835 C837 1.387 . S
H836 C843 0.950 . S
C837 C835 1.387 . S
C837 C839 1.390 . S
C837 H841 0.950 . S
H838 C834 0.950 . S
C839 C837 1.390 . S
C839 C840 1.387 . S
C839 H842 0.950 . S
C840 C839 1.387 . S
C840 C843 1.387 . S
H841 C837 0.950 . S
H842 C839 0.950 . S
C843 C834 1.390 . S
C843 H836 0.950 . S
C843 C840 1.387 . S
C844 C845 1.387 . S
C844 H848 0.950 . S
C844 C853 1.390 . S
C845 C844 1.387 . S
C845 C847 1.387 . S
H846 C853 0.950 . S
C847 C845 1.387 . S
C847 C849 1.390 . S
C847 H851 0.950 . S
H848 C844 0.950 . S
C849 C847 1.390 . S
C849 C850 1.387 . S
C849 H852 0.950 . S
C850 C849 1.387 . S
C850 C853 1.387 . S
H851 C847 0.950 . S
H852 C849 0.950 . S
C853 C844 1.390 . S
C853 H846 0.950 . S
C853 C850 1.387 . S
C854 C855 1.387 . S
C854 H858 0.950 . S
C854 C863 1.390 . S
C855 C854 1.387 . S
C855 C857 1.387 . S
H856 C863 0.950 . S
C857 C855 1.387 . S
C857 C859 1.390 . S
C857 H861 0.950 . S
H858 C854 0.950 . S
C859 C857 1.390 . S
C859 C860 1.387 . S
C859 H862 0.950 . S
C860 C859 1.387 . S
C860 C863 1.387 . S
H861 C857 0.950 . S
H862 C859 0.950 . S
C863 C854 1.390 . S
C863 H856 0.950 . S
C863 C860 1.387 . S
C864 C865 1.387 . S
C864 H868 0.950 . S
C864 C873 1.390 . S
C865 C864 1.387 . S
C865 C867 1.387 . S
H866 C873 0.950 . S
C867 C865 1.387 . S
C867 C869 1.390 . S
C867 H871 0.950 . S
H868 C864 0.950 . S
C869 C867 1.390 . S
C869 C870 1.387 . S
C869 H872 0.950 . S
C870 C869 1.387 . S
C870 C873 1.387 . S
H871 C867 0.950 . S
H872 C869 0.950 . S
C873 C864 1.390 . S
C873 H866 0.950 . S
C873 C870 1.387 . S
C874 C875 1.387 . S
C874 H878 0.950 . S
C874 C883 1.390 . S
C875 C874 1.387 . S
C875 C877 1.387 . S
H876 C883 0.950 . S
C877 C875 1.387 . S
C877 C879 1.390 . S
C877 H881 0.950 . S
H878 C874 0.950 . S
C879 C877 1.390 . S
C879 C880 1.387 . S
C879 H882 0.950 . S
C880 C879 1.387 . S
C880 C883 1.387 . S
H881 C877 0.950 . S
H882 C879 0.950 . S
C883 C874 1.390 . S
C883 H876 0.950 . S
C883 C880 1.387 . S
C884 C885 1.387 . S
C884 H888 0.950 . S
C884 C893 1.390 . S
C885 C884 1.387 . S
C885 C887 1.387 . S
H886 C893 0.950 . S
C887 C885 1.387 . S
C887 C889 1.390 . S
C887 H891 0.950 . S
H888 C884 0.950 . S
C889 C887 1.390 . S
C889 C890 1.387 . S
C889 H892 0.950 . S
C890 C889 1.387 . S
C890 C893 1.387 . S
H891 C887 0.950 . S
H892 C889 0.950 . S
C893 C884 1.390 . S
C893 H886 0.950 . S
C893 C890 1.387 . S
C894 C895 1.387 . S
C894 H898 0.950 . S
C894 C903 1.390 . S
C895 C894 1.387 . S
C895 C897 1.387 . S
H896 C903 0.950 . S
C897 C895 1.387 . S
C897 C899 1.390 . S
C897 H901 0.950 . S
H898 C894 0.950 . S
C899 C897 1.390 . S
C899 C900 1.387 . S
C899 H902 0.950 . S
C900 C899 1.387 . S
C900 C903 1.387 . S
H901 C897 0.950 . S
H902 C899 0.950 . S
C903 C894 1.390 . S
C903 H896 0.950 . S
C903 C900 1.387 . S
C904 C905 1.387 . S
C904 H908 0.950 . S
C904 C913 1.390 . S
C905 C904 1.387 . S
C905 C907 1.387 . S
H906 C913 0.950 . S
C907 C905 1.387 . S
C907 C909 1.390 . S
C907 H911 0.950 . S
H908 C904 0.950 . S
C909 C907 1.390 . S
C909 C910 1.387 . S
C909 H912 0.950 . S
C910 C909 1.387 . S
C910 C913 1.387 . S
H911 C907 0.950 . S
H912 C909 0.950 . S
C913 C904 1.390 . S
C913 H906 0.950 . S
C913 C910 1.387 . S
C914 C915 1.387 . S
C914 H918 0.950 . S
C914 C923 1.390 . S
C915 C914 1.387 . S
C915 C917 1.387 . S
H916 C923 0.950 . S
C917 C915 1.387 . S
C917 C919 1.390 . S
C917 H921 0.950 . S
H918 C914 0.950 . S
C919 C917 1.390 . S
C919 C920 1.387 . S
C919 H922 0.950 . S
C920 C919 1.387 . S
C920 C923 1.387 . S
H921 C917 0.950 . S
H922 C919 0.950 . S
C923 C914 1.390 . S
C923 H916 0.950 . S
C923 C920 1.387 . S
C924 C925 1.387 . S
C924 H928 0.950 . S
C924 C933 1.390 . S
C925 C924 1.387 . S
C925 C927 1.387 . S
H926 C933 0.950 . S
C927 C925 1.387 . S
C927 C929 1.390 . S
C927 H931 0.950 . S
H928 C924 0.950 . S
C929 C927 1.390 . S
C929 C930 1.387 . S
C929 H932 0.950 . S
C930 C929 1.387 . S
C930 C933 1.387 . S
H931 C927 0.950 . S
H932 C929 0.950 . S
C933 C924 1.390 . S
C933 H926 0.950 . S
C933 C930 1.387 . S
C934 C935 1.387 . S
C934 H938 0.950 . S
C934 C943 1.390 . S
C935 C934 1.387 . S
C935 C937 1.387 . S
H936 C943 0.950 . S
C937 C935 1.387 . S
C937 C939 1.390 . S
C937 H941 0.950 . S
H938 C934 0.950 . S
C939 C937 1.390 . S
C939 C940 1.387 . S
C939 H942 0.950 . S
C940 C939 1.387 . S
C940 C943 1.387 . S
H941 C937 0.950 . S
H942 C939 0.950 . S
C943 C934 1.390 . S
C943 H936 0.950 . S
C943 C940 1.387 . S
C944 C945 1.387 1_545 S
C944 H948 0.950 1_545 S
C944 C953 1.390 . S
C945 C944 1.387 1_565 S
C945 C947 1.387 1_565 S
H946 C953 0.950 . S
C947 C945 1.387 1_545 S
C947 C949 1.390 . S
C947 H951 0.950 1_545 S
H948 C944 0.950 1_565 S
C949 C947 1.390 . S
C949 C950 1.387 . S
C949 H952 0.950 . S
C950 C949 1.387 . S
C950 C953 1.387 . S
H951 C947 0.950 1_565 S
H952 C949 0.950 . S
C953 C944 1.390 . S
C953 H946 0.950 . S
C953 C950 1.387 . S
C954 C955 1.387 . S
C954 H958 0.950 . S
C954 C963 1.390 . S
C955 C954 1.387 . S
C955 C957 1.387 . S
H956 C963 0.950 1_545 S
C957 C955 1.387 . S
C957 C959 1.390 . S
C957 H961 0.950 . S
H958 C954 0.950 . S
C959 C957 1.390 . S
C959 C960 1.387 1_565 S
C959 H962 0.950 1_565 S
C960 C959 1.387 1_545 S
C960 C963 1.387 1_545 S
H961 C957 0.950 . S
H962 C959 0.950 1_545 S
C963 C954 1.390 . S
C963 H956 0.950 1_565 S
C963 C960 1.387 1_565 S
C964 C965 1.387 1_565 S
C964 H968 0.950 1_565 S
C964 C973 1.390 . S
C965 C964 1.387 1_545 S
C965 C967 1.387 1_545 S
H966 C973 0.950 . S
C967 C965 1.387 1_565 S
C967 C969 1.390 . S
C967 H971 0.950 1_565 S
H968 C964 0.950 1_545 S
C969 C967 1.390 . S
C969 C970 1.387 . S
C969 H972 0.950 . S
C970 C969 1.387 . S
C970 C973 1.387 . S
H971 C967 0.950 1_545 S
H972 C969 0.950 . S
C973 C964 1.390 . S
C973 H966 0.950 . S
C973 C970 1.387 . S
C974 C975 1.387 1_545 S
C974 H978 0.950 1_545 S
C974 C983 1.390 . S
C975 C974 1.387 1_565 S
C975 C977 1.387 1_565 S
H976 C983 0.950 . S
C977 C975 1.387 1_545 S
C977 C979 1.390 . S
C977 H981 0.950 1_545 S
H978 C974 0.950 1_565 S
C979 C977 1.390 . S
C979 C980 1.387 . S
C979 H982 0.950 . S
C980 C979 1.387 . S
C980 C983 1.387 . S
H981 C977 0.950 1_565 S
H982 C979 0.950 . S
C983 C974 1.390 . S
C983 H976 0.950 . S
C983 C980 1.387 . S
C984 C985 1.387 . S
C984 H988 0.950 . S
C984 C993 1.390 . S
C985 C984 1.387 . S
C985 C987 1.387 . S
H986 C993 0.950 1_545 S
C987 C985 1.387 . S
C987 C989 1.390 . S
C987 H991 0.950 . S
H988 C984 0.950 . S
C989 C987 1.390 . S
C989 C990 1.387 1_565 S
C989 H992 0.950 1_565 S
C990 C989 1.387 1_545 S
C990 C993 1.387 1_545 S
H991 C987 0.950 . S
H992 C989 0.950 1_545 S
C993 C984 1.390 . S
C993 H986 0.950 1_565 S
C993 C990 1.387 1_565 S
C994 C995 1.387 . S
C994 H998 0.950 . S
C994 C1003 1.390 . S
C995 C994 1.387 . S
C995 C997 1.387 . S
H996 C1003 0.950 1_565 S
C997 C995 1.387 . S
C997 C999 1.390 . S
C997 H1001 0.950 . S
H998 C994 0.950 . S
C999 C997 1.390 . S
C999 C1000 1.387 1_545 S
C999 H1002 0.950 1_545 S
C1000 C999 1.387 1_565 S
C1000 C1003 1.387 1_565 S
H1001 C997 0.950 . S
H1002 C999 0.950 1_565 S
C1003 C994 1.390 . S
C1003 H996 0.950 1_545 S
C1003 C1000 1.387 1_545 S
C1004 C1005 1.387 1_545 S
C1004 H1008 0.950 1_545 S
C1004 C1013 1.390 . S
C1005 C1004 1.387 1_565 S
C1005 C1007 1.387 1_565 S
H1006 C1013 0.950 . S
C1007 C1005 1.387 1_545 S
C1007 C1009 1.390 . S
C1007 H1011 0.950 1_545 S
H1008 C1004 0.950 1_565 S
C1009 C1007 1.390 . S
C1009 C1010 1.387 . S
C1009 H1012 0.950 . S
C1010 C1009 1.387 . S
C1010 C1013 1.387 . S
H1011 C1007 0.950 1_565 S
H1012 C1009 0.950 . S
C1013 C1004 1.390 . S
C1013 H1006 0.950 . S
C1013 C1010 1.387 . S
C1014 C1015 1.387 . S
C1014 H1018 0.950 . S
C1014 C1023 1.390 . S
C1015 C1014 1.387 . S
C1015 C1017 1.387 . S
H1016 C1023 0.950 1_545 S
C1017 C1015 1.387 . S
C1017 C1019 1.390 . S
C1017 H1021 0.950 . S
H1018 C1014 0.950 . S
C1019 C1017 1.390 . S
C1019 C1020 1.387 1_565 S
C1019 H1022 0.950 1_565 S
C1020 C1019 1.387 1_545 S
C1020 C1023 1.387 1_545 S
H1021 C1017 0.950 . S
H1022 C1019 0.950 1_545 S
C1023 C1014 1.390 . S
C1023 H1016 0.950 1_565 S
C1023 C1020 1.387 1_565 S
C545 C8 1.565 . S
C550 C314 1.565 . S
C555 C42 1.563 . S
C560 C280 1.563 . S
C565 C382 1.565 . S
C570 C76 1.565 . S
C575 C110 1.563 . S
C580 C348 1.563 . S
C585 C459 1.563 . S
C590 C153 1.563 . S
C595 C425 1.563 . S
C600 C187 1.563 . S
C605 C527 1.565 . S
C610 C221 1.565 . S
C615 C255 1.565 . S
C620 C493 1.565 . S
C625 C81 1.554 . S
C630 C13 1.554 . S
C635 C115 1.553 . S
C640 C47 1.553 . S
C645 C208 1.553 . S
C650 C140 1.553 . S
C655 C174 1.553 . S
C660 C242 1.553 . S
C665 C353 1.553 . S
C670 C285 1.553 . S
C675 C387 1.553 . S
C680 C319 1.553 . S
C685 C412 1.554 . S
C690 C480 1.554 . S
C695 C446 1.554 . S
C700 C514 1.554 . S
C705 C183 1.518 . S
C710 C4 1.518 . S
C715 C149 1.518 . S
C720 C38 1.518 . S
C725 C72 1.518 . S
C730 C251 1.518 . S
C735 C217 1.518 . S
C740 C106 1.518 . S
C745 C276 1.518 . S
C750 C455 1.518 . S
C755 C421 1.518 . S
C760 C310 1.518 . S
C765 C344 1.518 . S
C770 C523 1.518 . S
C775 C489 1.518 . S
C780 C378 1.518 . S
C785 C51 1.507 . S
C790 C17 1.507 . S
C795 C119 1.506 . S
C800 C85 1.506 . S
C805 C178 1.506 . S
C810 C144 1.506 . S
C815 C212 1.506 . S
C820 C246 1.506 . S
C825 C323 1.507 . S
C830 C289 1.507 . S
C835 C391 1.507 . S
C840 C357 1.507 . S
C845 C416 1.506 . S
C850 C450 1.506 . S
C855 C484 1.507 . S
C860 C518 1.507 . S
C865 C29 1.344 . S
C870 C0 1.344 . S
C875 C63 1.344 . S
C880 C34 1.344 . S
C885 C97 1.344 . S
C890 C68 1.344 . S
C895 C102 1.343 . S
C900 C131 1.343 . S
C905 C136 1.344 . S
C910 C165 1.344 . S
C915 C199 1.343 . S
C920 C170 1.343 . S
C925 C204 1.344 . S
C930 C233 1.344 . S
C935 C238 1.344 . S
C940 C267 1.344 . S
C945 C272 1.343 . S
C950 C301 1.343 . S
C955 C335 1.344 . S
C960 C306 1.344 . S
C965 C340 1.344 . S
C970 C369 1.344 . S
C975 C374 1.344 . S
C980 C403 1.344 . S
C985 C408 1.344 . S
C990 C437 1.344 . S
C995 C442 1.344 . S
C1000 C471 1.344 . S
C1005 C505 1.344 . S
C1010 C476 1.344 . S
C1015 C510 1.344 . S
C1020 C539 1.344 . S
