# Generated by pormake.
# Topology oof, (8)-cn, num edge types: 1
# Building blocks:
#     Node 0, Type 0, BuildingBlock: LIZSOE_clean_sbu_0, # of connection points: 8
#     Node 1, Type 0, BuildingBlock: LIZSOE_clean_sbu_0, # of connection points: 8
#     Node 2, Type 0, BuildingBlock: LIZSOE_clean_sbu_0, # of connection points: 8
#     Node 3, Type 0, BuildingBlock: LIZSOE_clean_sbu_0, # of connection points: 8
#     Edge 4, Type (0, 0), BuildingBlock: AJUNOK_clean_linker_0, # of connection points: 2
#     Edge 5, Type (0, 0), BuildingBlock: AJUNOK_clean_linker_0, # of connection points: 2
#     Edge 6, Type (0, 0), BuildingBlock: AJUNOK_clean_linker_0, # of connection points: 2
#     Edge 7, Type (0, 0), BuildingBlock: AJUNOK_clean_linker_0, # of connection points: 2
#     Edge 8, Type (0, 0), BuildingBlock: AJUNOK_clean_linker_0, # of connection points: 2
#     Edge 9, Type (0, 0), BuildingBlock: AJUNOK_clean_linker_0, # of connection points: 2
#     Edge 10, Type (0, 0), BuildingBlock: AJUNOK_clean_linker_0, # of connection points: 2
#     Edge 11, Type (0, 0), BuildingBlock: AJUNOK_clean_linker_0, # of connection points: 2
#     Edge 12, Type (0, 0), BuildingBlock: AJUNOK_clean_linker_0, # of connection points: 2
#     Edge 13, Type (0, 0), BuildingBlock: AJUNOK_clean_linker_0, # of connection points: 2
#     Edge 14, Type (0, 0), BuildingBlock: AJUNOK_clean_linker_0, # of connection points: 2
#     Edge 15, Type (0, 0), BuildingBlock: AJUNOK_clean_linker_0, # of connection points: 2
#     Edge 16, Type (0, 0), BuildingBlock: AJUNOK_clean_linker_0, # of connection points: 2
#     Edge 17, Type (0, 0), BuildingBlock: AJUNOK_clean_linker_0, # of connection points: 2
#     Edge 18, Type (0, 0), BuildingBlock: AJUNOK_clean_linker_0, # of connection points: 2
#     Edge 19, Type (0, 0), BuildingBlock: AJUNOK_clean_linker_0, # of connection points: 2
# Relax obj value: 0.122
# Max RMSD: 0.217
# Mean RMSD: 0.215
data_MOF--net-oof--node1-LIZSOE_clean_sbu_0--edge1-AJUNOK_clean_linker_0
_symmetry_space_group_name_H-M    P1
_symmetry_Int_Tables_number       1
_symmetry_cell_setting            triclinic
loop_
_symmetry_equiv_pos_as_xyz
'x, y, z'
_cell_length_a     11.364198
_cell_length_b     30.449974
_cell_length_c     18.34957
_cell_angle_alpha  89.332834
_cell_angle_beta   116.3562
_cell_angle_gamma 90.441014
loop_
_atom_site_label
_atom_site_type_symbol
_atom_site_fract_x
_atom_site_fract_y
_atom_site_fract_z
_atom_type_partial_charge
Co0 Co 0.10034 0.22232 0.13364 0.0
N1 N 0.17864 0.23429 0.06937 0.0
C2 C 0.30349 0.23319 0.07915 0.0
N3 N 0.17478 0.23393 0.9477 0.0
C4 C 0.10341 0.23657 0.98924 0.0
C5 C 0.30101 0.2326 1.00371 0.0
Co6 Co 0.04824 0.13706 0.43361 0.0
N7 N 0.99379 0.14974 0.5149 0.0
N8 N 0.98241 0.17426 0.6257 0.0
C9 C 0.85966 0.16611 0.56992 0.0
C10 C 0.86665 0.1511 0.50196 0.0
C11 C 0.06266 0.16306 0.59276 0.0
Co12 Co 0.07072 0.16786 0.27572 0.0
C13 C 0.14877 0.11726 0.44409 0.0
H14 H 0.78226 0.14263 0.44629 0.0
O15 O 1.01822 0.21537 0.18821 0.0
O16 O 0.14602 0.21543 0.35893 0.0
O17 O 0.25254 0.15796 0.29279 0.0
O18 O 1.0175 0.12209 0.184 0.0
O19 O 0.0746 0.16223 0.09967 0.0
O20 O 1.02172 0.19961 0.41558 0.0
O21 O 0.10548 0.12053 0.36305 0.0
O22 O 0.87798 0.12856 0.35714 0.0
O23 O 0.26351 0.21122 0.21548 0.0
O24 O 0.12114 0.27592 0.1733 0.0
O25 O 0.88362 0.17361 0.26107 0.0
O26 O 0.2195 0.1478 0.49365 0.0
C27 C 0.31813 0.18282 0.26957 0.0
C28 C 0.21034 0.16346 0.63966 0.0
H29 H 0.25169 0.19094 0.61836 0.0
H30 H 0.24447 0.16644 0.70606 0.0
H31 H 0.25228 0.13278 0.632 0.0
C32 C 0.10089 0.22566 0.40758 0.0
C33 C 0.03805 0.12591 0.11951 0.0
H34 H 0.38976 0.22917 0.13614 0.0
H35 H 0.91517 0.21233 0.97219 0.0
H36 H 0.91081 0.24219 0.88483 0.0
H37 H 0.93211 0.27094 0.97433 0.0
C38 C 0.95671 0.24037 0.95216 0.0
C39 C 1.021 0.25849 0.17909 0.0
C40 C 0.82108 0.15023 0.29141 0.0
H41 H 0.38381 0.2271 0.99106 0.0
H42 H 0.77163 0.17167 0.57735 0.0
Co43 Co 1.02984 0.92895 0.60829 0.0
N44 N 1.02201 0.89384 0.52683 0.0
C45 C 0.08036 0.85543 0.52699 0.0
N46 N 0.95036 0.87044 0.4001 0.0
C47 C 0.9428 0.90202 0.4483 0.0
C48 C 0.03724 0.84105 0.449 0.0
Co49 Co 0.96738 0.89424 0.91929 0.0
N50 N 0.86457 0.90025 0.97058 0.0
N51 N 0.7965 0.88978 0.06574 0.0
C52 C 0.73323 0.92484 1.02068 0.0
C53 C 0.7755 0.93132 0.96228 0.0
C54 C 0.87463 0.87522 0.03352 0.0
Co55 Co 0.04501 0.92635 0.78124 0.0
C56 C 0.15512 0.88636 0.95696 0.0
H57 H 0.75432 0.95981 0.92341 0.0
O58 O 0.03576 0.9673 0.68353 0.0
O59 O 0.09466 0.97964 0.85638 0.0
O60 O 0.23361 0.91694 0.80552 0.0
O61 O 0.9758 0.86976 0.71214 0.0
O62 O 0.87396 0.90465 0.59809 0.0
O63 O 0.95865 0.95681 0.90575 0.0
O64 O 0.07529 0.88541 0.87779 0.0
O65 O 0.81957 0.88373 0.82415 0.0
O66 O 0.15763 0.88692 0.68633 0.0
O67 O 0.16716 0.95361 0.61969 0.0
O68 O 0.84766 0.93715 0.75056 0.0
O69 O 0.11404 0.90378 1.00552 0.0
C70 C 0.25648 0.89777 0.75194 0.0
C71 C 0.98046 0.84142 0.07278 0.0
H72 H 0.0757 0.85812 0.10857 0.0
H73 H 0.96098 0.82017 0.11565 0.0
H74 H 0.98956 0.82136 1.02544 0.0
C75 C 1.0317 0.9865 0.89887 0.0
C76 C 0.88377 0.87088 0.6393 0.0
H77 H 0.14807 0.83832 0.57963 0.0
H78 H 0.82643 0.953 0.4639 0.0
H79 H 0.77284 0.93604 0.35948 0.0
H80 H 0.91846 0.96899 0.40928 0.0
C81 C 0.85942 0.94228 0.41848 0.0
C82 C 0.12174 0.98039 0.65519 0.0
C83 C 0.77179 0.91093 0.76616 0.0
H84 H 0.07131 0.81252 0.42927 0.0
H85 H 0.67559 0.9477 0.03627 0.0
Co86 Co 0.52129 0.70015 0.10532 0.0
N87 N 0.57456 0.69591 1.02476 0.0
C88 C 0.53313 0.6639 0.9685 0.0
N89 N 0.70681 0.69328 0.96454 0.0
C90 C 0.67743 0.71482 1.01781 0.0
C91 C 0.61502 0.66174 0.93267 0.0
Co92 Co 0.59299 0.64422 0.46368 0.0
N93 N 0.6045 0.66383 0.56365 0.0
N94 N 0.67092 0.69389 0.68604 0.0
C95 C 0.54018 0.68868 0.65355 0.0
C96 C 0.49974 0.67031 0.57855 0.0
C97 C 0.70846 0.67839 0.63166 0.0
Co98 Co 0.53914 0.66742 0.27948 0.0
C99 C 0.65848 0.61326 0.45533 0.0
H100 H 0.39962 0.66252 0.53782 0.0
O101 O 0.46837 0.70831 0.17878 0.0
O102 O 0.57412 0.726 0.33798 0.0
O103 O 0.72562 0.66852 0.29982 0.0
O104 O 0.51442 0.61233 0.20741 0.0
O105 O 0.4565 0.64369 0.08525 0.0
O106 O 0.63983 0.7 0.45836 0.0
O107 O 0.58726 0.62318 0.376 0.0
O108 O 0.40703 0.65718 0.40665 0.0
O109 O 0.69039 0.67982 0.17403 0.0
O110 O 0.58183 0.75322 0.13457 0.0
O111 O 0.35815 0.66441 0.27256 0.0
O112 O 0.7666 0.63367 0.49951 0.0
C113 C 0.76712 0.67012 0.24652 0.0
C114 C 0.84895 0.67898 0.64611 0.0
H115 H 0.85592 0.69049 0.59175 0.0
H116 H 0.90986 0.70107 0.69674 0.0
H117 H 0.89033 0.64555 0.6611 0.0
C118 C 0.63187 0.73129 0.4136 0.0
C119 C 0.48172 0.60982 0.13005 0.0
H120 H 0.44844 0.64311 0.95373 0.0
H121 H 0.67224 0.78405 0.03415 0.0
H122 H 0.82791 0.76407 0.04468 0.0
H123 H 0.78219 0.75493 0.12473 0.0
C124 C 0.7439 0.75675 0.05785 0.0
C125 C 0.49663 0.74851 0.16262 0.0
C126 C 0.32415 0.66115 0.3311 0.0
H127 H 0.60351 0.64032 0.88319 0.0
H128 H 0.47919 0.69628 0.68331 0.0
Co129 Co 0.49792 0.42695 0.60669 0.0
N130 N 0.50468 0.3932 0.52649 0.0
C131 C 0.53121 0.35002 0.52685 0.0
N132 N 0.45017 0.37214 0.39951 0.0
C133 C 0.45837 0.40598 0.44843 0.0
C134 C 0.4969 0.33692 0.44866 0.0
Co135 Co 0.42963 0.39939 0.90481 0.0
N136 N 0.31592 0.40698 0.95572 0.0
N137 N 0.26787 0.39682 0.06186 0.0
C138 C 0.17605 0.37622 0.99825 0.0
C139 C 0.20694 0.38138 0.93492 0.0
C140 C 0.35009 0.4158 0.03545 0.0
Co141 Co 0.51183 0.42219 0.78161 0.0
C142 C 0.57632 0.35381 0.93627 0.0
H143 H 0.16188 0.36109 0.88194 0.0
O144 O 0.491 0.4646 0.68256 0.0
O145 O 0.55457 0.47457 0.86279 0.0
O146 O 0.70008 0.41669 0.80356 0.0
O147 O 0.44907 0.36571 0.7112 0.0
O148 O 0.34797 0.39754 0.59292 0.0
O149 O 0.55277 0.43932 0.97165 0.0
O150 O 0.5511 0.38098 0.87471 0.0
O151 O 0.30343 0.36806 0.82208 0.0
O152 O 0.62898 0.3866 0.68448 0.0
O153 O 0.62808 0.45572 0.62052 0.0
O154 O 0.31784 0.42811 0.75726 0.0
O155 O 0.49821 0.35329 0.96925 0.0
C156 C 0.72517 0.39797 0.75058 0.0
C157 C 0.47567 0.43753 0.09346 0.0
H158 H 0.56205 0.41796 0.10048 0.0
H159 H 0.4795 0.47058 0.07071 0.0
H160 H 0.48066 0.44198 0.15464 0.0
C161 C 0.57087 0.4742 0.93829 0.0
C162 C 0.35839 0.36521 0.63781 0.0
H163 H 0.56854 0.32886 0.57979 0.0
H164 H 0.34291 0.46401 0.42946 0.0
H165 H 0.41443 0.45885 0.35894 0.0
H166 H 0.51537 0.47315 0.46243 0.0
C167 C 0.43005 0.45307 0.42229 0.0
C168 C 0.57419 0.48054 0.65401 0.0
C169 C 0.2473 0.39777 0.76827 0.0
H170 H 0.50131 0.30383 0.42903 0.0
H171 H 0.10476 0.35328 1.00103 0.0
C172 C 0.04105 0.18319 0.84001 0.0
C173 C 0.12635 0.21952 0.8662 0.0
C174 C 0.98752 0.16986 0.7594 0.0
C175 C 1.01998 0.19227 0.70394 0.0
H176 H 1.01758 0.16485 0.88269 0.0
H177 H 0.9252 0.14101 0.74088 0.0
S178 S 0.25711 0.28294 0.74701 0.0
N179 N 0.25452 0.27322 0.83486 0.0
N180 N 0.1465 0.25029 0.68034 0.0
C181 C 0.1054 0.22838 0.72965 0.0
C182 C 0.16232 0.24107 0.81208 0.0
C183 C 0.80734 0.84983 0.26039 0.0
C184 C 0.91172 0.87485 0.31598 0.0
C185 C 0.76628 0.85567 0.17712 0.0
C186 C 0.83017 0.8862 0.1495 0.0
H187 H 0.75764 0.82619 0.28169 0.0
H188 H 0.68565 0.83637 0.13418 0.0
S189 S 0.11174 0.95779 0.27251 0.0
N190 N 0.07996 0.92993 0.33958 0.0
N191 N 1.00297 0.94075 0.18232 0.0
C192 C 0.93518 0.91102 0.2049 0.0
C193 C 0.97638 0.90523 0.28883 0.0
C194 C 0.74521 0.74533 0.87862 0.0
C195 C 0.78717 0.70746 0.92756 0.0
C196 C 0.72657 0.74375 0.79858 0.0
C197 C 0.75232 0.70496 0.76841 0.0
H198 H 0.69991 0.77206 0.89526 0.0
H199 H 0.67464 0.77007 0.75764 0.0
S200 S 0.92786 0.6074 0.88786 0.0
N201 N 0.90623 0.63907 0.95336 0.0
N202 N 0.86492 0.63465 0.80056 0.0
C203 C 0.82697 0.67218 0.82325 0.0
C204 C 0.84937 0.67454 0.90525 0.0
C205 C 0.22985 0.40008 0.18265 0.0
C206 C 0.30216 0.38418 0.14386 0.0
C207 C 0.27489 0.39363 0.2662 0.0
C208 C 0.39542 0.3725 0.3128 0.0
H209 H 0.14142 0.41895 0.14873 0.0
H210 H 0.21862 0.40695 0.29535 0.0
S211 S 0.611 0.3204 0.23592 0.0
N212 N 0.48801 0.34098 0.15419 0.0
N213 N 0.57955 0.33241 0.31309 0.0
C214 C 0.46362 0.35393 0.2734 0.0
C215 C 0.41524 0.35902 0.18816 0.0
C216 C 0.65185 0.20079 0.28461 0.0
C217 C 0.6846 0.15867 0.26994 0.0
C218 C 0.53755 0.20755 0.29317 0.0
C219 C 0.4522 0.17251 0.28613 0.0
H220 H 0.71851 0.22813 0.29397 0.0
H221 H 0.51298 0.24063 0.30262 0.0
S222 S 0.49826 0.0557 0.25131 0.0
N223 N 0.62808 0.08115 0.25263 0.0
N224 N 0.40893 0.09419 0.26542 0.0
C225 C 0.48483 0.13012 0.27262 0.0
C226 C 0.60162 0.12322 0.26444 0.0
C227 C 0.57836 0.94819 0.76802 0.0
C228 C 0.62699 0.91601 0.73396 0.0
C229 C 0.46288 0.94113 0.7779 0.0
C230 C 0.38749 0.90241 0.75059 0.0
H231 H 0.63508 0.97776 0.79251 0.0
H232 H 0.43228 0.96631 0.80699 0.0
S233 S 0.45845 0.81174 0.6427 0.0
N234 N 0.58083 0.84665 0.66344 0.0
N235 N 0.3667 0.83322 0.68187 0.0
C236 C 0.43055 0.87159 0.71119 0.0
C237 C 0.548 0.87869 0.70188 0.0
C238 C 0.95785 0.67876 0.21436 0.0
C239 C 0.90845 0.66433 0.26863 0.0
C240 C 0.09173 0.67786 0.2352 0.0
C241 C 0.18227 0.66066 0.31028 0.0
H242 H 0.89335 0.69118 0.15504 0.0
H243 H 0.12412 0.69102 0.19198 0.0
S244 S 0.09962 0.60662 0.46476 0.0
N245 N 0.95812 0.62585 0.3956 0.0
N246 N 0.20934 0.62046 0.43248 0.0
C247 C 0.13317 0.64224 0.36242 0.0
C248 C 0.99654 0.64474 0.34212 0.0
C249 C 0.89148 0.37027 0.70666 0.0
C250 C 0.85843 0.40002 0.753 0.0
C251 C 1.0139 0.37218 0.7048 0.0
C252 C 0.10593 0.40533 0.74549 0.0
H253 H 0.82401 0.34418 0.67389 0.0
H254 H 0.03868 0.34642 0.67396 0.0
S255 S 0.06898 0.49168 0.87468 0.0
N256 N 0.93107 0.46313 0.84244 0.0
N257 N 0.15304 0.46992 0.83028 0.0
C258 C 0.0699 0.43743 0.7865 0.0
C259 C 0.94913 0.43369 0.79325 0.0
C260 C 0.35558 0.28768 0.59016 0.0
C261 C 0.28696 0.32529 0.59343 0.0
C262 C 0.29602 0.25635 0.52811 0.0
C263 C 0.16375 0.26029 0.4697 0.0
H264 H 0.45796 0.28372 0.63277 0.0
H265 H 0.35375 0.22866 0.52617 0.0
S266 S 0.93663 0.34959 0.45765 0.0
N267 N 0.07739 0.36329 0.53483 0.0
N268 N 0.96332 0.30248 0.42382 0.0
C269 C 0.09175 0.29594 0.47599 0.0
C270 C 0.15361 0.32873 0.53661 0.0
C271 C 0.80865 0.34993 0.03933 0.0
C272 C 0.69824 0.32796 0.98131 0.0
C273 C 0.90546 0.3276 0.10677 0.0
C274 C 0.89837 0.28183 0.11983 0.0
H275 H 0.8167 0.38527 0.03524 0.0
H276 H 0.98884 0.34641 0.14873 0.0
S277 S 0.62868 0.20876 0.98375 0.0
N278 N 0.58609 0.2579 0.94126 0.0
N279 N 0.769 0.21556 0.06592 0.0
C280 C 0.78756 0.25948 0.06203 0.0
C281 C 0.68859 0.28247 0.99338 0.0
C282 C 0.62593 0.806 0.4665 0.0
C283 C 0.69901 0.77184 0.4561 0.0
C284 C 0.68531 0.83636 0.53005 0.0
C285 C 0.81717 0.83186 0.58971 0.0
H286 H 0.52174 0.80859 0.42675 0.0
H287 H 0.62755 0.86399 0.53227 0.0
S288 S 0.05165 0.74857 0.58792 0.0
N289 N 0.91469 0.73853 0.50493 0.0
N290 N 1.01752 0.78965 0.63347 0.0
C291 C 0.88982 0.79711 0.58089 0.0
C292 C 0.83322 0.76897 0.51171 0.0
C293 C 0.42409 0.8263 0.13387 0.0
C294 C 0.39112 0.78153 0.11853 0.0
C295 C 0.35536 0.85949 0.07684 0.0
C296 C 0.24954 0.85 1.00064 0.0
H297 H 0.50786 0.8357 0.18962 0.0
H298 H 0.38321 0.89336 0.0936 0.0
S299 S 0.12246 0.73807 0.92864 0.0
N300 N 0.24564 0.72948 1.0195 0.0
N301 N 0.11358 0.79182 0.91389 0.0
C302 C 0.21469 0.80536 0.98423 0.0
C303 C 0.2852 0.77138 0.04262 0.0
C304 C 0.11695 0.05313 0.09108 0.0
C305 C 1.02614 0.08798 0.06438 0.0
C306 C 0.12653 1.02282 0.03573 0.0
C307 C 0.04729 1.0261 0.95066 0.0
H308 H 0.18269 0.04961 0.15518 0.0
H309 H 0.19435 0.99565 0.06012 0.0
S310 S 0.78235 0.10796 0.85007 0.0
N311 N 0.84931 0.12199 0.94692 0.0
N312 N 0.86513 0.06477 0.84451 0.0
C313 C 0.9536 0.06 0.92373 0.0
C314 C 0.9442 0.09096 0.97984 0.0
C315 C 1.02572 0.05607 0.47857 0.0
C316 C 0.14712 0.07401 0.48823 0.0
C317 C 1.01222 1.03318 0.54212 0.0
C318 C 0.12074 1.02398 0.61726 0.0
H319 H 0.93815 0.06069 0.42255 0.0
H320 H 0.91709 1.01957 0.5299 0.0
S321 S 0.46487 0.05667 0.6706 0.0
N322 N 0.3807 0.0762 0.57741 0.0
N323 N 0.35612 1.03276 0.69493 0.0
C324 C 0.24331 1.04014 0.62633 0.0
C325 C 0.25698 0.06333 0.56173 0.0
C326 C 0.40981 0.56092 1.00859 0.0
C327 C 0.50323 0.57017 0.08914 0.0
C328 C 0.43952 0.53458 0.95598 0.0
C329 C 0.56401 0.51526 0.98088 0.0
H330 H 0.31297 0.57546 0.98491 0.0
H331 H 0.36159 0.52731 0.8964 0.0
S332 S 0.84872 0.53138 0.18263 0.0
N333 N 0.73061 0.56042 0.18809 0.0
N334 N 0.7835 0.50868 0.09165 0.0
C335 C 0.65943 0.52474 0.06066 0.0
C336 C 0.62977 0.55235 0.11396 0.0
C337 C 0.47504 0.53956 0.54774 0.0
C338 C 0.57729 0.52631 0.62386 0.0
C339 C 0.50012 0.56381 0.48886 0.0
C340 C 0.6292 0.57508 0.50211 0.0
H341 H 0.37605 0.52787 0.53055 0.0
H342 H 0.4179 0.57336 0.43245 0.0
S343 S 0.93134 0.54743 0.69013 0.0
N344 N 0.81064 0.53018 0.70992 0.0
N345 N 0.85998 0.56766 0.59709 0.0
C346 C 0.73084 0.56168 0.57795 0.0
C347 C 0.70412 0.54094 0.63967 0.0
loop_
_geom_bond_atom_site_label_1
_geom_bond_atom_site_label_2
_geom_bond_distance
_geom_bond_site_symmetry_2
_ccdc_geom_bond_type
Co0 N1 2.034 1_554 S
Co0 O15 2.262 1_455 S
Co0 O19 1.958 1_455 S
Co0 O23 1.950 . S
Co0 O24 2.057 1_455 S
N1 Co0 2.034 1_556 S
N1 C2 1.366 . S
N1 C4 1.332 . S
C2 N1 1.366 . S
C2 C5 1.377 . S
C2 H34 0.931 1_455 S
N3 C4 1.346 . S
N3 C5 1.337 . S
C4 N1 1.332 . S
C4 N3 1.346 . S
C4 C38 1.361 1_556 S
C5 C2 1.377 . S
C5 N3 1.337 . S
C5 H41 0.930 . S
Co6 N7 2.034 . S
Co6 O20 1.950 1_655 S
Co6 O21 2.262 1_655 S
Co6 O22 1.958 . S
Co6 O26 2.057 1_655 S
N7 Co6 2.034 . S
N7 C10 1.366 . S
N7 C11 1.332 . S
N8 C9 1.337 . S
N8 C11 1.346 . S
C9 N8 1.337 . S
C9 C10 1.377 . S
C9 H42 0.930 . S
C10 N7 1.366 . S
C10 C9 1.377 . S
C10 H14 0.931 . S
C11 N7 1.332 . S
C11 N8 1.346 . S
C11 C28 1.361 1_655 S
Co12 O15 2.097 . S
Co12 O16 2.065 1_655 S
Co12 O17 2.065 1_655 S
Co12 O18 2.042 . S
Co12 O21 2.097 1_655 S
Co12 O25 2.042 . S
C13 O21 1.253 . S
C13 O26 1.263 . S
H14 C10 0.931 . S
O15 Co0 2.262 1_655 S
O15 Co12 2.097 . S
O15 C39 1.253 . S
O16 Co12 2.065 1_455 S
O16 C32 1.221 . S
O17 Co12 2.065 1_455 S
O17 C27 1.221 . S
O18 Co12 2.042 . S
O18 C33 1.237 . S
O19 Co0 1.958 1_655 S
O19 C33 1.278 . S
O20 Co6 1.950 1_455 S
O20 C32 1.277 . S
O21 Co6 2.262 1_455 S
O21 Co12 2.097 1_455 S
O21 C13 1.253 . S
O22 Co6 1.958 . S
O22 C40 1.278 . S
O23 Co0 1.950 . S
O23 C27 1.277 . S
O24 Co0 2.057 1_655 S
O24 C39 1.263 . S
O25 Co12 2.042 . S
O25 C40 1.237 . S
O26 Co6 2.057 1_455 S
O26 C13 1.263 . S
C27 O17 1.221 . S
C27 O23 1.277 . S
C28 C11 1.361 1_455 S
C28 H29 0.960 . S
C28 H30 0.961 . S
C28 H31 0.961 . S
H29 C28 0.960 . S
H30 C28 0.961 . S
H31 C28 0.961 . S
C32 O16 1.221 . S
C32 O20 1.277 . S
C33 O18 1.237 . S
C33 O19 1.278 . S
H34 C2 0.931 1_655 S
H35 C38 0.961 1_556 S
H36 C38 0.961 . S
H37 C38 0.960 . S
C38 C4 1.361 1_554 S
C38 H35 0.961 1_554 S
C38 H36 0.961 . S
C38 H37 0.960 . S
C39 O15 1.253 . S
C39 O24 1.263 . S
C40 O22 1.278 . S
C40 O25 1.237 . S
H41 C5 0.930 . S
H42 C9 0.930 . S
Co43 N44 2.034 . S
Co43 O58 2.262 1_455 S
Co43 O62 1.958 1_455 S
Co43 O66 1.950 . S
Co43 O67 2.057 1_455 S
N44 Co43 2.034 . S
N44 C45 1.366 . S
N44 C47 1.332 . S
C45 N44 1.366 . S
C45 C48 1.377 . S
C45 H77 0.931 1_455 S
N46 C47 1.346 . S
N46 C48 1.337 . S
C47 N44 1.332 . S
C47 N46 1.346 . S
C47 C81 1.361 . S
C48 C45 1.377 . S
C48 N46 1.337 . S
C48 H84 0.930 . S
Co49 N50 2.034 . S
Co49 O63 1.950 1_655 S
Co49 O64 2.262 1_655 S
Co49 O65 1.958 . S
Co49 O69 2.057 1_655 S
N50 Co49 2.034 . S
N50 C53 1.366 . S
N50 C54 1.332 1_556 S
N51 C52 1.337 . S
N51 C54 1.346 . S
C52 N51 1.337 . S
C52 C53 1.377 1_554 S
C52 H85 0.930 . S
C53 N50 1.366 . S
C53 C52 1.377 1_556 S
C53 H57 0.931 . S
C54 N50 1.332 1_554 S
C54 N51 1.346 . S
C54 C71 1.361 1_655 S
Co55 O58 2.097 . S
Co55 O59 2.065 1_655 S
Co55 O60 2.065 1_655 S
Co55 O61 2.042 . S
Co55 O64 2.097 1_655 S
Co55 O68 2.042 . S
C56 O64 1.253 . S
C56 O69 1.263 . S
H57 C53 0.931 . S
O58 Co43 2.262 1_655 S
O58 Co55 2.097 . S
O58 C82 1.253 . S
O59 Co55 2.065 1_455 S
O59 C75 1.221 . S
O60 Co55 2.065 1_455 S
O60 C70 1.221 . S
O61 Co55 2.042 . S
O61 C76 1.237 . S
O62 Co43 1.958 1_655 S
O62 C76 1.278 . S
O63 Co49 1.950 1_455 S
O63 C75 1.277 . S
O64 Co49 2.262 1_455 S
O64 Co55 2.097 1_455 S
O64 C56 1.253 . S
O65 Co49 1.958 . S
O65 C83 1.278 . S
O66 Co43 1.950 . S
O66 C70 1.277 . S
O67 Co43 2.057 1_655 S
O67 C82 1.263 . S
O68 Co55 2.042 . S
O68 C83 1.237 . S
O69 Co49 2.057 1_455 S
O69 C56 1.263 . S
C70 O60 1.221 . S
C70 O66 1.277 . S
C71 C54 1.361 1_455 S
C71 H72 0.960 . S
C71 H73 0.961 . S
C71 H74 0.961 . S
H72 C71 0.960 . S
H73 C71 0.961 . S
H74 C71 0.961 . S
C75 O59 1.221 . S
C75 O63 1.277 . S
C76 O61 1.237 . S
C76 O62 1.278 . S
H77 C45 0.931 1_655 S
H78 C81 0.961 . S
H79 C81 0.961 . S
H80 C81 0.960 . S
C81 C47 1.361 . S
C81 H78 0.961 . S
C81 H79 0.961 . S
C81 H80 0.960 . S
C82 O58 1.253 . S
C82 O67 1.263 . S
C83 O65 1.278 . S
C83 O68 1.237 . S
H84 C48 0.930 . S
H85 C52 0.930 . S
Co86 N87 2.034 1_554 S
Co86 O101 2.262 . S
Co86 O105 1.958 . S
Co86 O109 1.950 . S
Co86 O110 2.057 . S
N87 Co86 2.034 1_556 S
N87 C88 1.366 . S
N87 C90 1.332 . S
C88 N87 1.366 . S
C88 C91 1.377 . S
C88 H120 0.931 . S
N89 C90 1.346 . S
N89 C91 1.337 . S
C90 N87 1.332 . S
C90 N89 1.346 . S
C90 C124 1.361 1_556 S
C91 C88 1.377 . S
C91 N89 1.337 . S
C91 H127 0.930 . S
Co92 N93 2.034 . S
Co92 O106 1.950 . S
Co92 O107 2.262 . S
Co92 O108 1.958 . S
Co92 O112 2.057 . S
N93 Co92 2.034 . S
N93 C96 1.366 . S
N93 C97 1.332 . S
N94 C95 1.337 . S
N94 C97 1.346 . S
C95 N94 1.337 . S
C95 C96 1.377 . S
C95 H128 0.930 . S
C96 N93 1.366 . S
C96 C95 1.377 . S
C96 H100 0.931 . S
C97 N93 1.332 . S
C97 N94 1.346 . S
C97 C114 1.361 . S
Co98 O101 2.097 . S
Co98 O102 2.065 . S
Co98 O103 2.065 . S
Co98 O104 2.042 . S
Co98 O107 2.097 . S
Co98 O111 2.042 . S
C99 O107 1.253 . S
C99 O112 1.263 . S
H100 C96 0.931 . S
O101 Co86 2.262 . S
O101 Co98 2.097 . S
O101 C125 1.253 . S
O102 Co98 2.065 . S
O102 C118 1.221 . S
O103 Co98 2.065 . S
O103 C113 1.221 . S
O104 Co98 2.042 . S
O104 C119 1.237 . S
O105 Co86 1.958 . S
O105 C119 1.278 . S
O106 Co92 1.950 . S
O106 C118 1.277 . S
O107 Co92 2.262 . S
O107 Co98 2.097 . S
O107 C99 1.253 . S
O108 Co92 1.958 . S
O108 C126 1.278 . S
O109 Co86 1.950 . S
O109 C113 1.277 . S
O110 Co86 2.057 . S
O110 C125 1.263 . S
O111 Co98 2.042 . S
O111 C126 1.237 . S
O112 Co92 2.057 . S
O112 C99 1.263 . S
C113 O103 1.221 . S
C113 O109 1.277 . S
C114 C97 1.361 . S
C114 H115 0.960 . S
C114 H116 0.961 . S
C114 H117 0.961 . S
H115 C114 0.960 . S
H116 C114 0.961 . S
H117 C114 0.961 . S
C118 O102 1.221 . S
C118 O106 1.277 . S
C119 O104 1.237 . S
C119 O105 1.278 . S
H120 C88 0.931 . S
H121 C124 0.961 1_556 S
H122 C124 0.961 . S
H123 C124 0.960 . S
C124 C90 1.361 1_554 S
C124 H121 0.961 1_554 S
C124 H122 0.961 . S
C124 H123 0.960 . S
C125 O101 1.253 . S
C125 O110 1.263 . S
C126 O108 1.278 . S
C126 O111 1.237 . S
H127 C91 0.930 . S
H128 C95 0.930 . S
Co129 N130 2.034 . S
Co129 O144 2.262 . S
Co129 O148 1.958 . S
Co129 O152 1.950 . S
Co129 O153 2.057 . S
N130 Co129 2.034 . S
N130 C131 1.366 . S
N130 C133 1.332 . S
C131 N130 1.366 . S
C131 C134 1.377 . S
C131 H163 0.931 . S
N132 C133 1.346 . S
N132 C134 1.337 . S
C133 N130 1.332 . S
C133 N132 1.346 . S
C133 C167 1.361 . S
C134 C131 1.377 . S
C134 N132 1.337 . S
C134 H170 0.930 . S
Co135 N136 2.034 . S
Co135 O149 1.950 . S
Co135 O150 2.262 . S
Co135 O151 1.958 . S
Co135 O155 2.057 . S
N136 Co135 2.034 . S
N136 C139 1.366 . S
N136 C140 1.332 1_556 S
N137 C138 1.337 . S
N137 C140 1.346 . S
C138 N137 1.337 . S
C138 C139 1.377 1_554 S
C138 H171 0.930 . S
C139 N136 1.366 . S
C139 C138 1.377 1_556 S
C139 H143 0.931 . S
C140 N136 1.332 1_554 S
C140 N137 1.346 . S
C140 C157 1.361 . S
Co141 O144 2.097 . S
Co141 O145 2.065 . S
Co141 O146 2.065 . S
Co141 O147 2.042 . S
Co141 O150 2.097 . S
Co141 O154 2.042 . S
C142 O150 1.253 . S
C142 O155 1.263 . S
H143 C139 0.931 . S
O144 Co129 2.262 . S
O144 Co141 2.097 . S
O144 C168 1.253 . S
O145 Co141 2.065 . S
O145 C161 1.221 . S
O146 Co141 2.065 . S
O146 C156 1.221 . S
O147 Co141 2.042 . S
O147 C162 1.237 . S
O148 Co129 1.958 . S
O148 C162 1.278 . S
O149 Co135 1.950 . S
O149 C161 1.277 . S
O150 Co135 2.262 . S
O150 Co141 2.097 . S
O150 C142 1.253 . S
O151 Co135 1.958 . S
O151 C169 1.278 . S
O152 Co129 1.950 . S
O152 C156 1.277 . S
O153 Co129 2.057 . S
O153 C168 1.263 . S
O154 Co141 2.042 . S
O154 C169 1.237 . S
O155 Co135 2.057 . S
O155 C142 1.263 . S
C156 O146 1.221 . S
C156 O152 1.277 . S
C157 C140 1.361 . S
C157 H158 0.960 . S
C157 H159 0.961 . S
C157 H160 0.961 . S
H158 C157 0.960 . S
H159 C157 0.961 . S
H160 C157 0.961 . S
C161 O145 1.221 . S
C161 O149 1.277 . S
C162 O147 1.237 . S
C162 O148 1.278 . S
H163 C131 0.931 . S
H164 C167 0.961 . S
H165 C167 0.961 . S
H166 C167 0.960 . S
C167 C133 1.361 . S
C167 H164 0.961 . S
C167 H165 0.961 . S
C167 H166 0.960 . S
C168 O144 1.253 . S
C168 O153 1.263 . S
C169 O151 1.278 . S
C169 O154 1.237 . S
H170 C134 0.930 . S
H171 C138 0.930 . S
C172 C173 1.369 . S
C172 C174 1.419 1_455 S
C172 H176 0.930 . S
C173 C172 1.369 . S
C173 C182 1.429 . S
C174 C172 1.419 1_655 S
C174 C175 1.363 . S
C174 H177 0.929 . S
C175 C174 1.363 . S
C175 C181 1.428 1_655 S
H176 C172 0.930 . S
H177 C174 0.929 . S
S178 N179 1.613 . S
S178 N180 1.610 . S
N179 S178 1.613 . S
N179 C182 1.350 . S
N180 S178 1.610 . S
N180 C181 1.351 . S
C181 C175 1.428 1_455 S
C181 N180 1.351 . S
C181 C182 1.434 . S
C182 C173 1.429 . S
C182 N179 1.350 . S
C182 C181 1.434 . S
C183 C184 1.369 . S
C183 C185 1.419 1_455 S
C183 H187 0.930 1_455 S
C184 C183 1.369 . S
C184 C193 1.429 . S
C185 C183 1.419 1_655 S
C185 C186 1.363 . S
C185 H188 0.929 . S
C186 C185 1.363 . S
C186 C192 1.428 1_655 S
H187 C183 0.930 1_655 S
H188 C185 0.929 . S
S189 N190 1.613 . S
S189 N191 1.610 . S
N190 S189 1.613 . S
N190 C193 1.350 . S
N191 S189 1.610 . S
N191 C192 1.351 . S
C192 C186 1.428 1_455 S
C192 N191 1.351 . S
C192 C193 1.434 . S
C193 C184 1.429 . S
C193 N190 1.350 . S
C193 C192 1.434 . S
C194 C195 1.369 . S
C194 C196 1.419 . S
C194 H198 0.930 . S
C195 C194 1.369 . S
C195 C204 1.429 . S
C196 C194 1.419 . S
C196 C197 1.363 . S
C196 H199 0.929 . S
C197 C196 1.363 . S
C197 C203 1.428 . S
H198 C194 0.930 . S
H199 C196 0.929 . S
S200 N201 1.613 . S
S200 N202 1.610 . S
N201 S200 1.613 . S
N201 C204 1.350 . S
N202 S200 1.610 . S
N202 C203 1.351 . S
C203 C197 1.428 . S
C203 N202 1.351 . S
C203 C204 1.434 . S
C204 C195 1.429 . S
C204 N201 1.350 . S
C204 C203 1.434 . S
C205 C206 1.369 . S
C205 C207 1.419 . S
C205 H209 0.930 . S
C206 C205 1.369 . S
C206 C215 1.429 . S
C207 C205 1.419 . S
C207 C208 1.363 . S
C207 H210 0.929 . S
C208 C207 1.363 . S
C208 C214 1.428 . S
H209 C205 0.930 . S
H210 C207 0.929 . S
S211 N212 1.613 . S
S211 N213 1.610 . S
N212 S211 1.613 . S
N212 C215 1.350 . S
N213 S211 1.610 . S
N213 C214 1.351 . S
C214 C208 1.428 . S
C214 N213 1.351 . S
C214 C215 1.434 . S
C215 C206 1.429 . S
C215 N212 1.350 . S
C215 C214 1.434 . S
C216 C217 1.369 . S
C216 C218 1.419 . S
C216 H220 0.930 . S
C217 C216 1.369 . S
C217 C226 1.429 . S
C218 C216 1.419 . S
C218 C219 1.363 . S
C218 H221 0.929 . S
C219 C218 1.363 . S
C219 C225 1.428 . S
H220 C216 0.930 . S
H221 C218 0.929 . S
S222 N223 1.613 . S
S222 N224 1.610 . S
N223 S222 1.613 . S
N223 C226 1.350 . S
N224 S222 1.610 . S
N224 C225 1.351 . S
C225 C219 1.428 . S
C225 N224 1.351 . S
C225 C226 1.434 . S
C226 C217 1.429 . S
C226 N223 1.350 . S
C226 C225 1.434 . S
C227 C228 1.369 . S
C227 C229 1.419 . S
C227 H231 0.930 . S
C228 C227 1.369 . S
C228 C237 1.429 . S
C229 C227 1.419 . S
C229 C230 1.363 . S
C229 H232 0.929 . S
C230 C229 1.363 . S
C230 C236 1.428 . S
H231 C227 0.930 . S
H232 C229 0.929 . S
S233 N234 1.613 . S
S233 N235 1.610 . S
N234 S233 1.613 . S
N234 C237 1.350 . S
N235 S233 1.610 . S
N235 C236 1.351 . S
C236 C230 1.428 . S
C236 N235 1.351 . S
C236 C237 1.434 . S
C237 C228 1.429 . S
C237 N234 1.350 . S
C237 C236 1.434 . S
C238 C239 1.369 . S
C238 C240 1.419 . S
C238 H242 0.930 . S
C239 C238 1.369 . S
C239 C248 1.429 . S
C240 C238 1.419 . S
C240 C241 1.363 1_655 S
C240 H243 0.927 1_655 S
C241 C240 1.363 1_455 S
C241 C247 1.428 . S
H242 C238 0.930 . S
H243 C240 0.927 1_455 S
S244 N245 1.613 1_455 S
S244 N246 1.610 . S
N245 S244 1.613 1_655 S
N245 C248 1.350 . S
N246 S244 1.610 . S
N246 C247 1.351 . S
C247 C241 1.428 . S
C247 N246 1.351 . S
C247 C248 1.434 1_455 S
C248 C239 1.429 . S
C248 N245 1.350 . S
C248 C247 1.434 1_655 S
C249 C250 1.369 . S
C249 C251 1.419 1_655 S
C249 H253 0.930 . S
C250 C249 1.369 . S
C250 C259 1.429 . S
C251 C249 1.419 1_455 S
C251 C252 1.363 . S
C251 H254 0.929 . S
C252 C251 1.363 . S
C252 C258 1.428 . S
H253 C249 0.930 . S
H254 C251 0.929 . S
S255 N256 1.613 . S
S255 N257 1.610 1_655 S
N256 S255 1.613 . S
N256 C259 1.350 . S
N257 S255 1.610 1_455 S
N257 C258 1.351 . S
C258 C252 1.428 . S
C258 N257 1.351 . S
C258 C259 1.434 1_455 S
C259 C250 1.429 . S
C259 N256 1.350 . S
C259 C258 1.434 1_655 S
C260 C261 1.369 . S
C260 C262 1.419 . S
C260 H264 0.930 . S
C261 C260 1.369 . S
C261 C270 1.429 . S
C262 C260 1.419 . S
C262 C263 1.363 . S
C262 H265 0.929 . S
C263 C262 1.363 . S
C263 C269 1.428 . S
H264 C260 0.930 . S
H265 C262 0.929 . S
S266 N267 1.613 1_655 S
S266 N268 1.610 . S
N267 S266 1.613 1_455 S
N267 C270 1.350 . S
N268 S266 1.610 . S
N268 C269 1.351 1_655 S
C269 C263 1.428 . S
C269 N268 1.351 1_455 S
C269 C270 1.434 . S
C270 C261 1.429 . S
C270 N267 1.350 . S
C270 C269 1.434 . S
C271 C272 1.369 1_554 S
C271 C273 1.419 . S
C271 H275 0.930 . S
C272 C271 1.369 1_556 S
C272 C281 1.429 . S
C273 C271 1.419 . S
C273 C274 1.363 . S
C273 H276 0.929 . S
C274 C273 1.363 . S
C274 C280 1.428 1_554 S
H275 C271 0.930 . S
H276 C273 0.929 . S
S277 N278 1.613 . S
S277 N279 1.610 . S
N278 S277 1.613 . S
N278 C281 1.350 . S
N279 S277 1.610 . S
N279 C280 1.351 . S
C280 C274 1.428 1_556 S
C280 N279 1.351 . S
C280 C281 1.434 . S
C281 C272 1.429 . S
C281 N278 1.350 . S
C281 C280 1.434 . S
C282 C283 1.369 . S
C282 C284 1.419 . S
C282 H286 0.930 . S
C283 C282 1.369 . S
C283 C292 1.429 . S
C284 C282 1.419 . S
C284 C285 1.363 . S
C284 H287 0.929 . S
C285 C284 1.363 . S
C285 C291 1.428 . S
H286 C282 0.930 . S
H287 C284 0.929 . S
S288 N289 1.613 . S
S288 N290 1.610 . S
N289 S288 1.613 . S
N289 C292 1.350 . S
N290 S288 1.610 . S
N290 C291 1.351 . S
C291 C285 1.428 . S
C291 N290 1.351 . S
C291 C292 1.434 . S
C292 C283 1.429 . S
C292 N289 1.350 . S
C292 C291 1.434 . S
C293 C294 1.369 . S
C293 C295 1.419 . S
C293 H297 0.930 . S
C294 C293 1.369 . S
C294 C303 1.429 1_554 S
C295 C293 1.419 . S
C295 C296 1.363 1_554 S
C295 H298 0.929 . S
C296 C295 1.363 1_556 S
C296 C302 1.428 . S
H297 C293 0.930 . S
H298 C295 0.929 . S
S299 N300 1.613 . S
S299 N301 1.610 . S
N300 S299 1.613 . S
N300 C303 1.350 . S
N301 S299 1.610 . S
N301 C302 1.351 . S
C302 C296 1.428 . S
C302 N301 1.351 . S
C302 C303 1.434 . S
C303 C294 1.429 1_556 S
C303 N300 1.350 . S
C303 C302 1.434 . S
C304 C305 1.369 1_465 S
C304 C306 1.419 . S
C304 H308 0.930 . S
C305 C304 1.369 1_645 S
C305 C314 1.429 1_554 S
C306 C304 1.419 . S
C306 C307 1.363 1_554 S
C306 H309 0.929 . S
C307 C306 1.363 1_556 S
C307 C313 1.428 1_465 S
H308 C304 0.930 . S
H309 C306 0.929 . S
S310 N311 1.613 . S
S310 N312 1.610 . S
N311 S310 1.613 . S
N311 C314 1.350 . S
N312 S310 1.610 . S
N312 C313 1.351 . S
C313 C307 1.428 1_645 S
C313 N312 1.351 . S
C313 C314 1.434 . S
C314 C305 1.429 1_556 S
C314 N311 1.350 . S
C314 C313 1.434 . S
C315 C316 1.369 1_655 S
C315 C317 1.419 1_545 S
C315 H319 0.930 . S
C316 C315 1.369 1_455 S
C316 C325 1.429 . S
C317 C315 1.419 1_565 S
C317 C318 1.363 . S
C317 H320 0.929 . S
C318 C317 1.363 . S
C318 C324 1.428 1_655 S
H319 C315 0.930 . S
H320 C317 0.929 . S
S321 N322 1.610 1_565 S
S321 N323 1.613 . S
N322 S321 1.610 1_545 S
N322 C325 1.350 . S
N323 S321 1.613 . S
N323 C324 1.351 . S
C324 C318 1.428 1_455 S
C324 N323 1.351 . S
C324 C325 1.434 1_565 S
C325 C316 1.429 . S
C325 N322 1.350 . S
C325 C324 1.434 1_545 S
C326 C327 1.369 1_556 S
C326 C328 1.419 . S
C326 H330 0.930 . S
C327 C326 1.369 1_554 S
C327 C336 1.429 . S
C328 C326 1.419 . S
C328 C329 1.363 . S
C328 H331 0.929 . S
C329 C328 1.363 . S
C329 C335 1.428 1_556 S
H330 C326 0.930 . S
H331 C328 0.929 . S
S332 N333 1.613 . S
S332 N334 1.610 . S
N333 S332 1.613 . S
N333 C336 1.350 . S
N334 S332 1.610 . S
N334 C335 1.351 . S
C335 C329 1.428 1_554 S
C335 N334 1.351 . S
C335 C336 1.434 . S
C336 C327 1.429 . S
C336 N333 1.350 . S
C336 C335 1.434 . S
C337 C338 1.369 . S
C337 C339 1.419 . S
C337 H341 0.930 . S
C338 C337 1.369 . S
C338 C347 1.429 . S
C339 C337 1.419 . S
C339 C340 1.363 . S
C339 H342 0.929 . S
C340 C339 1.363 . S
C340 C346 1.428 . S
H341 C337 0.930 . S
H342 C339 0.929 . S
S343 N344 1.613 . S
S343 N345 1.610 . S
N344 S343 1.613 . S
N344 C347 1.350 . S
N345 S343 1.610 . S
N345 C346 1.351 . S
C346 C340 1.428 . S
C346 N345 1.351 . S
C346 C347 1.434 . S
C347 C338 1.429 . S
C347 N344 1.350 . S
C347 C346 1.434 . S
C173 N3 1.122 . S
C175 N8 1.200 . S
C184 N46 1.136 . S
C186 N51 1.217 . S
C195 N89 1.117 . S
C197 N94 1.203 . S
C206 N137 1.224 . S
C208 N132 1.122 . S
C217 C40 1.310 . S
C219 C27 1.300 . S
C228 C83 1.309 . S
C230 C70 1.301 . S
C239 C113 1.311 . S
C241 C126 1.298 . S
C250 C156 1.304 . S
C252 C169 1.304 . S
C261 C162 1.639 . S
C263 C32 1.651 . S
C272 C142 1.639 . S
C274 C39 1.618 . S
C283 C118 1.654 . S
C285 C76 1.637 . S
C294 C125 1.618 . S
C296 C56 1.636 . S
C305 C33 2.071 . S
C307 C75 2.039 . S
C316 C13 1.971 . S
C318 C82 1.998 . S
C327 C119 2.065 . S
C329 C161 2.044 . S
C338 C168 2.005 . S
C340 C99 1.963 . S
