# Generated by pormake.
# Topology unn, (4)-cn, num edge types: 1
# Building blocks:
#     Node 0, Type 0, BuildingBlock: QUQFOY_clean_sbu_1, # of connection points: 4
#     Node 1, Type 0, BuildingBlock: QUQFOY_clean_sbu_1, # of connection points: 4
#     Node 2, Type 0, BuildingBlock: QUQFOY_clean_sbu_1, # of connection points: 4
#     Node 3, Type 0, BuildingBlock: QUQFOY_clean_sbu_1, # of connection points: 4
#     Node 4, Type 0, BuildingBlock: QUQFOY_clean_sbu_1, # of connection points: 4
#     Node 5, Type 0, BuildingBlock: QUQFOY_clean_sbu_1, # of connection points: 4
#     Node 6, Type 0, BuildingBlock: QUQFOY_clean_sbu_1, # of connection points: 4
#     Node 7, Type 0, BuildingBlock: QUQFOY_clean_sbu_1, # of connection points: 4
#     Node 8, Type 0, BuildingBlock: QUQFOY_clean_sbu_1, # of connection points: 4
#     Node 9, Type 0, BuildingBlock: QUQFOY_clean_sbu_1, # of connection points: 4
#     Node 10, Type 0, BuildingBlock: QUQFOY_clean_sbu_1, # of connection points: 4
#     Node 11, Type 0, BuildingBlock: QUQFOY_clean_sbu_1, # of connection points: 4
#     Node 12, Type 0, BuildingBlock: QUQFOY_clean_sbu_1, # of connection points: 4
#     Node 13, Type 0, BuildingBlock: QUQFOY_clean_sbu_1, # of connection points: 4
#     Node 14, Type 0, BuildingBlock: QUQFOY_clean_sbu_1, # of connection points: 4
#     Node 15, Type 0, BuildingBlock: QUQFOY_clean_sbu_1, # of connection points: 4
#     Node 16, Type 0, BuildingBlock: QUQFOY_clean_sbu_1, # of connection points: 4
#     Node 17, Type 0, BuildingBlock: QUQFOY_clean_sbu_1, # of connection points: 4
#     Edge 18, Type (0, 0), BuildingBlock: CIFDUS_clean_linker_0, # of connection points: 2
#     Edge 19, Type (0, 0), BuildingBlock: CIFDUS_clean_linker_0, # of connection points: 2
#     Edge 20, Type (0, 0), BuildingBlock: CIFDUS_clean_linker_0, # of connection points: 2
#     Edge 21, Type (0, 0), BuildingBlock: CIFDUS_clean_linker_0, # of connection points: 2
#     Edge 22, Type (0, 0), BuildingBlock: CIFDUS_clean_linker_0, # of connection points: 2
#     Edge 23, Type (0, 0), BuildingBlock: CIFDUS_clean_linker_0, # of connection points: 2
#     Edge 24, Type (0, 0), BuildingBlock: CIFDUS_clean_linker_0, # of connection points: 2
#     Edge 25, Type (0, 0), BuildingBlock: CIFDUS_clean_linker_0, # of connection points: 2
#     Edge 26, Type (0, 0), BuildingBlock: CIFDUS_clean_linker_0, # of connection points: 2
#     Edge 27, Type (0, 0), BuildingBlock: CIFDUS_clean_linker_0, # of connection points: 2
#     Edge 28, Type (0, 0), BuildingBlock: CIFDUS_clean_linker_0, # of connection points: 2
#     Edge 29, Type (0, 0), BuildingBlock: CIFDUS_clean_linker_0, # of connection points: 2
#     Edge 30, Type (0, 0), BuildingBlock: CIFDUS_clean_linker_0, # of connection points: 2
#     Edge 31, Type (0, 0), BuildingBlock: CIFDUS_clean_linker_0, # of connection points: 2
#     Edge 32, Type (0, 0), BuildingBlock: CIFDUS_clean_linker_0, # of connection points: 2
#     Edge 33, Type (0, 0), BuildingBlock: CIFDUS_clean_linker_0, # of connection points: 2
#     Edge 34, Type (0, 0), BuildingBlock: CIFDUS_clean_linker_0, # of connection points: 2
#     Edge 35, Type (0, 0), BuildingBlock: CIFDUS_clean_linker_0, # of connection points: 2
#     Edge 36, Type (0, 0), BuildingBlock: CIFDUS_clean_linker_0, # of connection points: 2
#     Edge 37, Type (0, 0), BuildingBlock: CIFDUS_clean_linker_0, # of connection points: 2
#     Edge 38, Type (0, 0), BuildingBlock: CIFDUS_clean_linker_0, # of connection points: 2
#     Edge 39, Type (0, 0), BuildingBlock: CIFDUS_clean_linker_0, # of connection points: 2
#     Edge 40, Type (0, 0), BuildingBlock: CIFDUS_clean_linker_0, # of connection points: 2
#     Edge 41, Type (0, 0), BuildingBlock: CIFDUS_clean_linker_0, # of connection points: 2
#     Edge 42, Type (0, 0), BuildingBlock: CIFDUS_clean_linker_0, # of connection points: 2
#     Edge 43, Type (0, 0), BuildingBlock: CIFDUS_clean_linker_0, # of connection points: 2
#     Edge 44, Type (0, 0), BuildingBlock: CIFDUS_clean_linker_0, # of connection points: 2
#     Edge 45, Type (0, 0), BuildingBlock: CIFDUS_clean_linker_0, # of connection points: 2
#     Edge 46, Type (0, 0), BuildingBlock: CIFDUS_clean_linker_0, # of connection points: 2
#     Edge 47, Type (0, 0), BuildingBlock: CIFDUS_clean_linker_0, # of connection points: 2
#     Edge 48, Type (0, 0), BuildingBlock: CIFDUS_clean_linker_0, # of connection points: 2
#     Edge 49, Type (0, 0), BuildingBlock: CIFDUS_clean_linker_0, # of connection points: 2
#     Edge 50, Type (0, 0), BuildingBlock: CIFDUS_clean_linker_0, # of connection points: 2
#     Edge 51, Type (0, 0), BuildingBlock: CIFDUS_clean_linker_0, # of connection points: 2
#     Edge 52, Type (0, 0), BuildingBlock: CIFDUS_clean_linker_0, # of connection points: 2
#     Edge 53, Type (0, 0), BuildingBlock: CIFDUS_clean_linker_0, # of connection points: 2
# Relax obj value: 0.139
# Max RMSD: 0.244
# Mean RMSD: 0.197
data_MOF--net-unn--node1-QUQFOY_clean_sbu_1--edge1-CIFDUS_clean_linker_0
_symmetry_space_group_name_H-M    P1
_symmetry_Int_Tables_number       1
_symmetry_cell_setting            triclinic
loop_
_symmetry_equiv_pos_as_xyz
'x, y, z'
_cell_length_a     39.521472
_cell_length_b     40.707336
_cell_length_c     35.677157
_cell_angle_alpha  90.628942
_cell_angle_beta   87.840133
_cell_angle_gamma 121.7625
loop_
_atom_site_label
_atom_site_type_symbol
_atom_site_fract_x
_atom_site_fract_y
_atom_site_fract_z
_atom_type_partial_charge
O0 O 0.09932 0.76732 0.28108 0.0
Cd1 Cd 0.05064 0.7186 0.26054 0.0
Cd2 Cd 1.03182 0.77012 0.24783 0.0
O3 O 0.07269 0.80269 0.289 0.0
O4 O 0.06288 0.68008 0.27754 0.0
O5 O 1.01113 0.68257 0.29973 0.0
C6 C 1.03369 0.66851 0.30172 0.0
C7 C 0.96468 0.74974 0.24482 0.0
C8 C 0.10053 0.79665 0.29516 0.0
C9 C 0.04969 0.73776 0.18167 0.0
O10 O 0.05361 0.76868 0.19481 0.0
O11 O 1.04298 0.71059 0.20381 0.0
O12 O 0.99247 0.78558 0.23973 0.0
O13 O 0.97491 0.72615 0.25603 0.0
O14 O 0.47134 0.27202 0.20722 0.0
Cd15 Cd 0.45999 0.31515 0.21601 0.0
Cd16 Cd 0.39566 0.26092 0.24981 0.0
O17 O 0.40728 0.22795 0.21097 0.0
O18 O 0.48308 0.3521 0.17246 0.0
O19 O 0.41848 0.31047 0.18243 0.0
C20 C 0.44707 0.33647 0.16127 0.0
C21 C 0.34128 0.26827 0.2606 0.0
C22 C 0.4429 0.23785 0.20104 0.0
C23 C 0.45485 0.31871 0.29821 0.0
O24 O 0.43016 0.28262 0.29571 0.0
O25 O 0.46831 0.3398 0.26876 0.0
O26 O 0.33903 0.23651 0.26986 0.0
O27 O 0.37227 0.29349 0.24115 0.0
O28 O 0.82753 0.14183 0.22646 0.0
Cd29 Cd 0.78291 0.08509 0.23426 0.0
Cd30 Cd 0.83372 0.08668 0.27801 0.0
O31 O 0.87319 0.12814 0.23808 0.0
O32 O 0.74818 0.06508 0.18966 0.0
O33 O 0.79447 0.0518 0.20142 0.0
C34 C 0.7679 0.04906 0.17954 0.0
C35 C 0.81185 1.0222 0.29284 0.0
C36 C 0.86374 0.15114 0.22461 0.0
C37 C 0.7695 0.08778 0.31473 0.0
O38 O 0.80724 0.10612 0.31431 0.0
O39 O 0.75118 0.06914 0.28585 0.0
O40 O 0.84454 0.05009 0.30629 0.0
O41 O 0.79488 1.03105 0.26815 0.0
O42 O 0.10489 0.3595 0.77351 0.0
Cd43 Cd 0.05917 0.35937 0.74808 0.0
Cd44 Cd 1.03024 0.28627 0.74968 0.0
O45 O 0.06768 0.29996 0.79515 0.0
O46 O 0.06509 0.408 0.7669 0.0
O47 O 1.01518 0.34928 0.78377 0.0
C48 C 1.03502 0.3861 0.78924 0.0
C49 C 0.96105 0.24385 0.74786 0.0
C50 C 0.09958 0.33319 0.7961 0.0
C51 C 0.05838 0.32608 0.676 0.0
O52 O 0.05635 0.29957 0.69632 0.0
O53 O 0.05413 0.35225 0.69098 0.0
O54 O 0.98486 0.23111 0.74875 0.0
O55 O 0.97633 0.28056 0.75146 0.0
O56 O 0.85194 0.66078 0.707 0.0
Cd57 Cd 0.81133 0.67816 0.71169 0.0
Cd58 Cd 0.8626 0.7253 0.75597 0.0
O59 O 0.90168 0.71877 0.72044 0.0
O60 O 0.78246 0.66499 0.66369 0.0
O61 O 0.82617 0.72498 0.68076 0.0
C62 C 0.80263 0.70157 0.656 0.0
C63 C 0.85803 0.7783 0.77333 0.0
C64 C 0.8892 0.68513 0.70738 0.0
C65 C 0.79186 0.66534 0.79178 0.0
O66 O 0.82928 0.68078 0.79277 0.0
O67 O 0.77656 0.66607 0.76125 0.0
O68 O 0.88608 0.7743 0.78557 0.0
O69 O 0.83554 0.75464 0.74812 0.0
O70 O 0.35196 1.01514 0.74561 0.0
Cd71 Cd 0.40274 0.06269 0.72445 0.0
Cd72 Cd 0.36047 0.09153 0.73254 0.0
O73 O 0.33606 0.05199 0.77733 0.0
O74 O 0.44523 0.0537 0.73933 0.0
O75 O 0.43387 0.09655 0.76631 0.0
C76 C 0.45083 0.07675 0.76692 0.0
C77 C 0.39717 0.15902 0.73091 0.0
C78 C 0.3329 1.01936 0.77272 0.0
C79 C 0.37091 0.07222 0.65672 0.0
O80 O 0.34411 0.06908 0.67984 0.0
O81 O 0.40346 0.0777 0.66873 0.0
O82 O 0.35886 0.13991 0.73632 0.0
O83 O 0.41475 0.1398 0.73016 0.0
O84 O 0.76093 0.11835 0.62226 0.0
Cd85 Cd 0.71448 0.06827 0.60175 0.0
Cd86 Cd 0.68806 0.11241 0.59916 0.0
O87 O 0.7238 0.1397 0.6452 0.0
O88 O 0.73129 0.03265 0.61702 0.0
O89 O 0.67881 0.0319 0.64263 0.0
C90 C 0.70441 1.02132 0.64371 0.0
C91 C 0.61938 0.07732 0.592 0.0
C92 C 0.75623 0.14001 0.64486 0.0
C93 C 0.71498 0.09624 0.52832 0.0
O94 O 0.71716 0.12381 0.54738 0.0
O95 O 0.70615 0.06498 0.54472 0.0
O96 O 0.63934 0.11473 0.59256 0.0
O97 O 0.63776 0.05998 0.60031 0.0
O98 O 1.03673 0.6253 0.58828 0.0
Cd99 Cd 0.08837 0.62753 0.57429 0.0
Cd100 Cd 1.03953 0.55809 0.56502 0.0
O101 O 1.0069 0.56544 0.60872 0.0
O102 O 0.12637 0.67575 0.59983 0.0
O103 O 0.11138 0.61756 0.6186 0.0
C104 C 0.12686 0.6539 0.62555 0.0
C105 C 0.06626 0.51907 0.55685 0.0
C106 C 1.0094 0.59801 0.60826 0.0
C107 C 0.06976 0.60759 0.49822 0.0
O108 O 1.03818 0.58045 0.51423 0.0
O109 O 0.10046 0.6283 0.51736 0.0
O110 O 1.02838 0.50496 0.55503 0.0
O111 O 0.08827 0.55435 0.56796 0.0
O112 O 0.42998 0.35309 0.61212 0.0
Cd113 Cd 0.43118 0.39679 0.58376 0.0
Cd114 Cd 0.506 0.41876 0.57479 0.0
O115 O 0.49421 0.38254 0.62165 0.0
O116 O 0.38461 0.39609 0.60809 0.0
O117 O 0.44727 0.44342 0.61489 0.0
C118 C 0.41023 0.42678 0.62551 0.0
C119 C 0.55141 0.4852 0.56674 0.0
C120 C 0.45856 0.35493 0.62904 0.0
C121 C 0.45533 0.3876 0.50784 0.0
O122 O 0.48593 0.39257 0.52377 0.0
O123 O 0.4299 0.3924 0.52602 0.0
O124 O 0.56319 0.46096 0.56587 0.0
O125 O 0.51451 0.472 0.57586 0.0
O126 O 0.77577 0.67807 0.10403 0.0
Cd127 Cd 0.73211 0.68015 0.07691 0.0
Cd128 Cd 0.6995 0.60754 0.08217 0.0
O129 O 0.73395 0.62128 0.12993 0.0
O130 O 0.73985 0.73044 0.09344 0.0
O131 O 0.68937 0.67321 0.11293 0.0
C132 C 0.71019 0.71027 0.11687 0.0
C133 C 0.63058 0.57028 0.07456 0.0
C134 C 0.76771 0.65294 0.12925 0.0
C135 C 0.73225 0.64235 0.00819 0.0
O136 O 0.72964 0.61752 0.03131 0.0
O137 O 0.72703 0.66913 0.01975 0.0
O138 O 0.65084 0.55423 0.08023 0.0
O139 O 0.64882 0.6074 0.07716 0.0
O140 O 0.51841 1.00043 0.02931 0.0
Cd141 Cd 0.47918 1.01896 0.03594 0.0
Cd142 Cd 0.53246 0.06625 0.07841 0.0
O143 O 0.56916 0.05873 0.0397 0.0
O144 O 0.44919 1.00551 0.98874 0.0
O145 O 0.49438 0.06554 0.00462 0.0
C146 C 0.4703 0.04191 0.9803 0.0
C147 C 0.528 0.11946 0.09588 0.0
C148 C 0.55564 1.02482 0.0268 0.0
C149 C 0.46248 1.00681 0.11638 0.0
O150 O 0.49999 1.0222 0.11626 0.0
O151 O 0.44621 1.00737 0.08643 0.0
O152 O 0.55698 0.11622 0.10682 0.0
O153 O 0.5044 0.09491 0.07182 0.0
O154 O 1.02189 0.35434 0.09632 0.0
Cd155 Cd 0.07312 0.40566 0.08201 0.0
Cd156 Cd 1.02399 0.42666 0.07511 0.0
O157 O 0.99216 0.38444 0.11688 0.0
O158 O 0.11755 0.4059 0.107 0.0
O159 O 0.09027 0.43903 0.12698 0.0
C160 C 0.11367 0.42653 0.13261 0.0
C161 C 0.05429 0.4935 0.07069 0.0
C162 C 0.99436 0.3542 0.11611 0.0
C163 C 0.05515 0.41528 0.00633 0.0
O164 O 1.02218 0.40597 0.0226 0.0
O165 O 0.08481 0.42363 0.02604 0.0
O166 O 1.01618 0.47101 0.06757 0.0
O167 O 0.07404 0.47831 0.08119 0.0
O168 O 0.43591 0.45858 0.9347 0.0
Cd169 Cd 0.38384 0.40933 0.92124 0.0
Cd170 Cd 0.3648 0.45913 0.91286 0.0
O171 O 0.40511 0.48711 0.95585 0.0
O172 O 0.39473 0.37054 0.94021 0.0
O173 O 0.34991 0.38146 0.96686 0.0
C174 C 0.37122 0.36598 0.96848 0.0
C175 C 0.29666 0.43465 0.91169 0.0
C176 C 0.43533 0.48364 0.95566 0.0
C177 C 0.37651 0.42736 0.84457 0.0
O178 O 0.38616 0.45977 0.85886 0.0
O179 O 0.36738 0.39886 0.86603 0.0
O180 O 0.32242 0.47134 0.90853 0.0
O181 O 0.30952 0.41237 0.92017 0.0
O182 O 0.79871 0.92743 0.88687 0.0
Cd183 Cd 0.7875 0.97056 0.89443 0.0
Cd184 Cd 0.72126 0.91652 0.92524 0.0
O185 O 0.73429 0.88491 0.8858 0.0
O186 O 0.81181 1.00835 0.85138 0.0
O187 O 0.74737 0.96478 0.85855 0.0
C188 C 0.77637 0.99168 0.83849 0.0
C189 C 0.66958 0.92843 0.93274 0.0
C190 C 0.77019 0.89414 0.87819 0.0
C191 C 0.7773 0.97094 0.97668 0.0
O192 O 0.75303 0.93493 0.97289 0.0
O193 O 0.79178 0.99304 0.94792 0.0
O194 O 0.66373 0.89494 0.9412 0.0
O195 O 0.70291 0.95311 0.91602 0.0
O196 O 0.17577 0.81104 0.88627 0.0
Cd197 Cd 0.12942 0.75471 0.89023 0.0
Cd198 Cd 0.17668 0.75485 0.9359 0.0
O199 O 0.22034 0.7964 0.89892 0.0
O200 O 0.10022 0.74472 0.84299 0.0
O201 O 0.13593 0.71899 0.85558 0.0
C202 C 0.11556 0.7248 0.832 0.0
C203 C 0.15492 0.69127 0.95267 0.0
C204 C 0.21184 0.82018 0.88588 0.0
C205 C 0.11077 0.75838 0.96773 0.0
O206 O 0.14823 0.77462 0.96939 0.0
O207 O 0.09324 0.73971 0.93861 0.0
O208 O 0.18593 0.71981 0.96775 0.0
O209 O 0.13986 0.69901 0.92509 0.0
O210 O 0.44697 1.02404 0.42545 0.0
Cd211 Cd 0.39999 1.02057 0.39941 0.0
Cd212 Cd 0.37302 0.94967 0.40886 0.0
O213 O 0.40748 0.97044 0.45716 0.0
O214 O 0.40467 0.07002 0.41389 0.0
O215 O 0.35773 1.01248 0.43655 0.0
C216 C 0.37679 0.04971 0.43888 0.0
C217 C 0.30409 0.90796 0.40318 0.0
C218 C 0.44035 1.00283 0.45398 0.0
C219 C 0.40193 0.98148 0.33301 0.0
O220 O 0.40284 0.95941 0.35741 0.0
O221 O 0.39343 1.00644 0.34324 0.0
O222 O 0.32669 0.8948 0.41034 0.0
O223 O 0.32012 0.94497 0.40278 0.0
O224 O 0.18688 0.32809 0.37336 0.0
Cd225 Cd 0.14764 0.34514 0.38778 0.0
Cd226 Cd 0.20338 0.39106 0.42976 0.0
O227 O 0.2373 0.38637 0.3854 0.0
O228 O 0.10916 0.33342 0.34747 0.0
O229 O 0.16136 0.39202 0.35764 0.0
C230 C 0.13105 0.36949 0.33799 0.0
C231 C 0.18954 0.43764 0.45118 0.0
C232 C 0.22384 0.35349 0.36984 0.0
C233 C 0.13864 0.32981 0.46879 0.0
O234 O 0.17607 0.34498 0.46602 0.0
O235 O 0.12052 0.33245 0.44133 0.0
O236 O 0.22241 0.44016 0.45967 0.0
O237 O 0.16775 0.4121 0.42698 0.0
O238 O 0.67303 0.68006 0.42713 0.0
Cd239 Cd 0.72382 0.72738 0.40522 0.0
Cd240 Cd 0.67748 0.75214 0.40807 0.0
O241 O 0.65149 0.7146 0.45451 0.0
O242 O 0.76458 0.71553 0.41865 0.0
O243 O 0.75788 0.76094 0.44629 0.0
C244 C 0.7728 0.73927 0.44609 0.0
C245 C 0.71393 0.81938 0.40223 0.0
C246 C 0.6515 0.6833 0.45239 0.0
C247 C 0.69338 0.73178 0.33456 0.0
O248 O 0.66474 0.72697 0.35604 0.0
O249 O 0.72613 0.74013 0.34854 0.0
O250 O 0.67538 0.8001 0.40377 0.0
O251 O 0.73161 0.80088 0.40825 0.0
H252 H 0.06683 0.79084 0.1269 0.0
H253 H 1.03947 0.67436 0.14445 0.0
H254 H 0.04877 0.66812 0.07739 0.0
H255 H 0.07202 0.69825 0.01493 0.0
H256 H 0.10452 0.81606 -0.00174 0.0
H257 H 0.08483 0.81911 0.06356 0.0
C258 C 0.06258 0.76397 0.11605 0.0
C259 C 0.05305 0.73335 0.14076 0.0
C260 C 0.06848 0.76072 0.07751 0.0
C261 C 1.04732 0.6986 0.12615 0.0
C262 C 0.05247 0.69491 0.08776 0.0
C263 C 0.07327 0.72399 0.02544 0.0
C264 C 0.08864 0.7566 0.0021 0.0
C265 C 0.06387 0.72604 0.06333 0.0
C266 C 0.09179 0.79044 0.01587 0.0
C267 C 0.08107 0.79229 0.05322 0.0
H268 H 0.43933 0.3768 0.9933 0.0
H269 H 0.31557 0.32767 0.02562 0.0
H270 H 0.32824 0.31416 0.08883 0.0
H271 H 0.37547 0.31871 0.13519 0.0
H272 H 0.50025 0.37371 0.10314 0.0
H273 H 0.48633 0.38321 0.03949 0.0
C274 C 0.4149 0.36233 0.01392 0.0
C275 C 0.37634 0.35224 0.00465 0.0
C276 C 0.42285 0.35659 0.05039 0.0
C277 C 0.34531 0.33496 0.03202 0.0
C278 C 0.35267 0.32761 0.06816 0.0
C279 C 0.39963 0.33298 0.1143 0.0
C280 C 0.43887 0.34548 0.1239 0.0
C281 C 0.39147 0.33881 0.07778 0.0
C282 C 0.46987 0.36408 0.09661 0.0
C283 C 0.4619 0.36929 0.06012 0.0
H284 H 0.82515 0.05178 0.13384 0.0
H285 H 0.69884 1.0059 0.14269 0.0
H286 H 0.6906 0.97595 0.08098 0.0
H287 H 0.71974 0.96372 0.02428 0.0
H288 H 0.84683 1.01572 0.01234 0.0
H289 H 0.85473 0.04264 0.07566 0.0
C290 C 0.79581 0.03495 0.12229 0.0
C291 C 0.7625 1.03045 0.14278 0.0
C292 C 0.79164 1.01915 0.08637 0.0
C293 C 0.72477 1.00947 0.12734 0.0
C294 C 0.72011 0.99241 0.09216 0.0
C295 C 0.74909 0.98081 0.0358 0.0
C296 C 0.78269 0.98743 0.01435 0.0
C297 C 0.75335 0.99715 0.07144 0.0
C298 C 0.8207 1.01023 0.02875 0.0
C299 C 0.82512 1.02551 0.06482 0.0
H300 H 0.68466 0.0417 0.47409 0.0
H301 H 0.76771 0.16309 0.49206 0.0
H302 H 0.78922 0.17199 0.42597 0.0
H303 H 0.78863 0.14416 0.36463 0.0
H304 H 0.70382 1.02372 0.34497 0.0
H305 H 0.67799 1.01553 0.41002 0.0
C306 C 0.70726 0.07008 0.46334 0.0
C307 C 0.72511 0.10158 0.48783 0.0
C308 C 0.71894 0.07514 0.42512 0.0
C309 C 0.75375 0.13841 0.47366 0.0
C310 C 0.76607 0.14352 0.43594 0.0
C311 C 0.76393 0.11634 0.37448 0.0
C312 C 0.74817 0.08454 0.35044 0.0
C313 C 0.74942 0.11197 0.41164 0.0
C314 C 0.71608 0.04863 0.36312 0.0
C315 C 0.70166 0.04389 0.40033 0.0
H316 H 1.00513 0.58996 0.45929 0.0
H317 H 0.133 0.64603 0.4484 0.0
H318 H 0.13166 0.66435 0.3836 0.0
H319 H 0.0949 0.66927 0.33261 0.0
H320 H 0.9682 0.62019 0.3462 0.0
H321 H 0.96803 0.59334 0.40744 0.0
C322 C 1.03267 0.60576 0.44257 0.0
C323 C 0.06916 0.61668 0.45848 0.0
C324 C 1.03174 0.61723 0.40594 0.0
C325 C 0.10464 0.63753 0.43673 0.0
C326 C 0.10384 0.6479 0.39974 0.0
C327 C 0.06706 0.65186 0.34856 0.0
C328 C 1.03148 0.64622 0.33488 0.0
C329 C 0.06765 0.63848 0.38435 0.0
C330 C 0.99582 0.62454 0.35617 0.0
C331 C 0.99582 0.60949 0.39119 0.0
H332 H 0.5115 0.40242 0.45339 0.0
H333 H 0.38439 0.34298 0.47452 0.0
H334 H 0.37334 0.3159 0.41143 0.0
H335 H 0.39988 0.30717 0.35128 0.0
H336 H 0.52655 0.37055 0.3277 0.0
H337 H 0.538 0.39816 0.39093 0.0
C338 C 0.4814 0.38369 0.44404 0.0
C339 C 0.44876 0.37437 0.4686 0.0
C340 C 0.47532 0.36879 0.40755 0.0
C341 C 0.40993 0.35059 0.45606 0.0
C342 C 0.40362 0.33495 0.42012 0.0
C343 C 0.42997 0.32697 0.36017 0.0
C344 C 0.46246 0.33638 0.33551 0.0
C345 C 0.43608 0.34347 0.39586 0.0
C346 C 0.50126 0.36278 0.34658 0.0
C347 C 0.50772 0.37848 0.38261 0.0
H348 H 0.09558 0.43103 0.83274 0.0
H349 H 0.96753 0.36839 0.82982 0.0
H350 H 0.963 0.37488 0.89793 0.0
H351 H 0.99517 0.39054 0.9583 0.0
H352 H 0.12297 0.44597 0.96152 0.0
H353 H 0.12801 0.4493 0.89298 0.0
C354 C 0.06677 0.42013 0.8469 0.0
C355 C 1.0319 0.40003 0.82647 0.0
C356 C 0.06443 0.42146 0.88608 0.0
C357 C 0.99466 0.38466 0.84509 0.0
C358 C 0.99214 0.38786 0.88398 0.0
C359 C 1.02421 0.40361 0.94408 0.0
C360 C 0.05865 0.4177 0.96496 0.0
C361 C 1.02676 0.40483 0.90482 0.0
C362 C 0.09599 0.43453 0.94608 0.0
C363 C 0.0989 0.4367 0.90694 0.0
H364 H 0.70928 0.66315 0.94607 0.0
H365 H 0.779 0.61658 0.98171 0.0
H366 H 0.79983 0.61513 0.91685 0.0
H367 H 0.80253 0.6318 0.85077 0.0
H368 H 0.73148 0.67612 0.81361 0.0
H369 H 0.7059 0.67276 0.87806 0.0
C370 C 0.72894 0.65265 0.93947 0.0
C371 C 0.74313 0.64058 0.96856 0.0
C372 C 0.74017 0.65108 0.9019 0.0
C373 C 0.7679 0.62623 0.95975 0.0
C374 C 0.77979 0.62533 0.9227 0.0
C375 C 0.7807 0.63983 0.85672 0.0
C376 C 0.76886 0.65416 0.82772 0.0
C377 C 0.76657 0.63817 0.89366 0.0
C378 C 0.74058 0.6645 0.83554 0.0
C379 C 0.72642 0.6631 0.87243 0.0
H380 H 0.4733 1.01044 0.91457 0.0
H381 H 0.46849 0.10572 0.96202 0.0
H382 H 0.46793 0.12879 0.89891 0.0
H383 H 0.46372 0.11863 0.83065 0.0
H384 H 0.47201 1.02483 0.78349 0.0
H385 H 0.47803 1.00536 0.84602 0.0
C386 C 0.47197 0.03617 0.91094 0.0
C387 C 0.46974 0.05583 0.94259 0.0
C388 C 0.47306 0.04988 0.87472 0.0
C389 C 0.46947 0.08985 0.93785 0.0
C390 C 0.46939 0.10311 0.90186 0.0
C391 C 0.46789 0.09454 0.83391 0.0
C392 C 0.46693 0.07299 0.80236 0.0
C393 C 0.4707 0.08306 0.87009 0.0
C394 C 0.47263 0.042 0.80718 0.0
C395 C 0.47554 1.03048 0.84303 0.0
H396 H 0.42057 0.11611 0.59914 0.0
H397 H 0.30317 1.01793 0.62467 0.0
H398 H 0.29109 1.00592 0.55773 0.0
H399 H 0.31732 1.01882 0.49252 0.0
H400 H 0.43372 0.11879 0.46681 0.0
H401 H 0.44213 0.1356 0.53298 0.0
C402 C 0.39231 0.09233 0.58985 0.0
C403 C 0.36311 0.06736 0.61645 0.0
C404 C 0.3852 0.08622 0.55136 0.0
C405 C 0.32617 0.0372 0.60445 0.0
C406 C 0.31923 1.03039 0.56626 0.0
C407 C 0.34394 0.04502 0.50125 0.0
C408 C 0.375 0.06718 0.47482 0.0
C409 C 0.34891 0.05418 0.53949 0.0
C410 C 0.40923 0.10121 0.48651 0.0
C411 C 0.41439 0.11055 0.5245 0.0
H412 H 0.09143 0.29068 0.63915 0.0
H413 H 1.04403 0.36338 0.6215 0.0
H414 H 0.05975 0.36613 0.55422 0.0
H415 H 0.09098 0.35136 0.50126 0.0
H416 H 0.14513 0.28502 0.52028 0.0
H417 H 0.12186 0.27531 0.58619 0.0
C418 C 0.08419 0.30682 0.62053 0.0
C419 C 0.06664 0.32681 0.63523 0.0
C420 C 0.09422 0.30907 0.58216 0.0
C421 C 0.05779 0.34794 0.61085 0.0
C422 C 0.06661 0.3494 0.5724 0.0
C423 C 0.0968 0.33404 0.51974 0.0
C424 C 0.11902 0.3183 0.50615 0.0
C425 C 0.08524 0.33045 0.55784 0.0
C426 C 0.12757 0.29689 0.53032 0.0
C427 C 0.11456 0.29163 0.56793 0.0
H428 H 0.78834 0.78005 0.51107 0.0
H429 H 0.79393 0.68666 0.45899 0.0
H430 H 0.80309 0.66642 0.51979 0.0
H431 H 0.80233 0.67089 0.5886 0.0
H432 H 0.8006 0.76591 0.64087 0.0
H433 H 0.79651 0.78958 0.57928 0.0
C434 C 0.79261 0.75589 0.51285 0.0
C435 C 0.78999 0.73471 0.48044 0.0
C436 C 0.79744 0.74404 0.5481 0.0
C437 C 0.79574 0.70354 0.48336 0.0
C438 C 0.80053 0.6916 0.51825 0.0
C439 C 0.80099 0.69674 0.58637 0.0
C440 C 0.80072 0.71617 0.61903 0.0
C441 C 0.79998 0.71077 0.55091 0.0
C442 C 0.80025 0.75027 0.61597 0.0
C443 C 0.79809 0.76384 0.58082 0.0
H444 H 0.41446 0.48298 0.79025 0.0
H445 H 0.33344 0.36029 0.80668 0.0
H446 H 0.33076 0.35085 0.73898 0.0
H447 H 0.35617 0.37627 0.67579 0.0
H448 H 0.44345 0.4974 0.65902 0.0
H449 H 0.43804 0.509 0.72596 0.0
C450 C 0.396 0.45426 0.77893 0.0
C451 C 0.37445 0.42234 0.80344 0.0
C452 C 0.3954 0.44888 0.73989 0.0
C453 C 0.35074 0.38526 0.78843 0.0
C454 C 0.34898 0.37985 0.74972 0.0
C455 C 0.37302 0.40543 0.68655 0.0
C456 C 0.39966 0.43609 0.66249 0.0
C457 C 0.37168 0.41133 0.72524 0.0
C458 C 0.42231 0.4735 0.67701 0.0
C459 C 0.41957 0.48001 0.71531 0.0
H460 H 0.77375 0.03777 0.67121 0.0
H461 H 0.6472 0.97378 0.69621 0.0
H462 H 0.65853 0.95886 0.75929 0.0
H463 H 0.70491 0.96711 0.80801 0.0
H464 H 0.83169 0.03602 0.78381 0.0
H465 H 0.81978 0.04677 0.71972 0.0
C466 C 0.74853 1.01972 0.69012 0.0
C467 C 0.70959 1.00602 0.67886 0.0
C468 C 0.75545 1.01308 0.72669 0.0
C469 C 0.67734 0.98395 0.70411 0.0
C470 C 0.68389 0.97582 0.74022 0.0
C471 C 0.72995 0.98458 0.78875 0.0
C472 C 0.76917 1.00078 0.8007 0.0
C473 C 0.72288 0.99085 0.752 0.0
C474 C 0.80126 1.02345 0.77544 0.0
C475 C 0.79447 1.02937 0.7387 0.0
H476 H 0.14202 0.68032 0.80037 0.0
H477 H 0.08561 0.74337 0.77416 0.0
H478 H 0.08883 0.73056 0.70774 0.0
H479 H 0.10738 0.70179 0.65713 0.0
H480 H 0.15788 0.63339 0.68209 0.0
H481 H 0.15834 0.64884 0.74898 0.0
C482 C 0.13017 0.691 0.78014 0.0
C483 C 0.1136 0.71282 0.79235 0.0
C484 C 0.13192 0.68334 0.74174 0.0
C485 C 0.09833 0.72636 0.76571 0.0
C486 C 0.10047 0.71935 0.72761 0.0
C487 C 0.11942 0.691 0.67707 0.0
C488 C 0.13376 0.66748 0.66465 0.0
C489 C 0.11753 0.69824 0.71533 0.0
C490 C 0.14759 0.6523 0.69098 0.0
C491 C 0.14742 0.6608 0.72918 0.0
H492 H 0.74577 0.7758 0.27853 0.0
H493 H 0.62795 0.6766 0.29992 0.0
H494 H 0.61947 0.6647 0.23258 0.0
H495 H 0.64871 0.67837 0.16848 0.0
H496 H 0.76568 0.77908 0.14675 0.0
H497 H 0.77065 0.7955 0.21306 0.0
C498 C 0.71824 0.75175 0.26827 0.0
C499 C 0.68788 0.72653 0.29389 0.0
C500 C 0.71321 0.74567 0.2295 0.0
C501 C 0.65187 0.69607 0.28053 0.0
C502 C 0.64697 0.68933 0.24209 0.0
C503 C 0.67478 0.70456 0.17806 0.0
C504 C 0.70696 0.7271 0.15276 0.0
C505 C 0.6778 0.71345 0.21638 0.0
C506 C 0.7404 0.76115 0.16556 0.0
C507 C 0.74356 0.77029 0.20364 0.0
H508 H 0.47693 0.97653 0.17605 0.0
H509 H 0.39928 1.01304 0.13847 0.0
H510 H 0.3725 1.00758 0.20269 0.0
H511 H 0.37618 0.99843 0.27054 0.0
H512 H 0.45212 0.95928 0.307 0.0
H513 H 0.47463 0.95981 0.24225 0.0
C514 C 0.45354 0.98251 0.18186 0.0
C515 C 0.44016 0.99529 0.15275 0.0
C516 C 0.43848 0.97943 0.21872 0.0
C517 C 0.40975 1.0028 0.16045 0.0
C518 C 0.39478 1.00011 0.19721 0.0
C519 C 0.39748 0.98984 0.26417 0.0
C520 C 0.41296 0.97941 0.29346 0.0
C521 C 0.40976 0.9895 0.22673 0.0
C522 C 0.43994 0.96759 0.2849 0.0
C523 C 0.45285 0.9679 0.24791 0.0
H524 H 0.1833 0.40796 0.28079 0.0
H525 H 0.06159 0.36201 0.31875 0.0
H526 H 0.04785 0.38235 0.25972 0.0
H527 H 0.06893 0.40771 0.19563 0.0
H528 H 0.18713 0.44351 0.1535 0.0
H529 H 0.20443 0.43331 0.21598 0.0
C530 C 0.15399 0.403 0.27614 0.0
C531 C 0.12347 0.38397 0.30383 0.0
C532 C 0.14593 0.413 0.2415 0.0
C533 C 0.08535 0.37673 0.29761 0.0
C534 C 0.07759 0.38835 0.26399 0.0
C535 C 0.09881 0.41424 0.20048 0.0
C536 C 0.12715 0.4272 0.17056 0.0
C537 C 0.10746 0.40587 0.23554 0.0
C538 C 0.16523 0.43414 0.1765 0.0
C539 C 0.17491 0.42803 0.21204 0.0
H540 H 0.2522 0.92726 0.37715 0.0
H541 H 0.26276 0.82928 0.40089 0.0
H542 H 0.19969 0.78642 0.37147 0.0
H543 H 0.14476 0.77726 0.33423 0.0
H544 H 0.13256 0.874 0.31005 0.0
H545 H 0.19288 0.91679 0.34459 0.0
C546 C 0.24038 0.89644 0.37648 0.0
C547 C 0.26255 0.88165 0.39108 0.0
C548 C 0.20403 0.87179 0.35902 0.0
C549 C 0.24662 0.8416 0.38987 0.0
C550 C 0.21055 0.81702 0.37285 0.0
C551 C 0.15513 0.80771 0.33661 0.0
C552 C 0.13449 0.82253 0.31904 0.0
C553 C 0.18959 0.83192 0.3565 0.0
C554 C 0.14793 0.86188 0.32313 0.0
C555 C 0.18251 0.88634 0.3428 0.0
H556 H 0.35531 0.33962 0.27626 0.0
H557 H 0.26345 0.21877 0.28294 0.0
H558 H 0.21875 0.23482 0.31626 0.0
H559 H 0.20697 0.28284 0.34604 0.0
H560 H 0.30049 0.40334 0.34337 0.0
H561 H 0.3435 0.38777 0.30622 0.0
C562 C 0.32523 0.31684 0.28439 0.0
C563 C 0.31246 0.27803 0.27658 0.0
C564 C 0.30026 0.32622 0.30476 0.0
C565 C 0.27382 0.24882 0.28826 0.0
C566 C 0.24837 0.25801 0.30749 0.0
C567 C 0.23672 0.30581 0.33725 0.0
C568 C 0.2504 0.3443 0.34753 0.0
C569 C 0.26146 0.29655 0.31635 0.0
C570 C 0.28918 0.37351 0.33605 0.0
C571 C 0.31376 0.36461 0.31467 0.0
H572 H 0.83616 0.99176 0.34705 0.0
H573 H 0.73947 0.96207 0.27406 0.0
H574 H 0.69999 0.89877 0.30366 0.0
H575 H 0.69171 0.85155 0.35064 0.0
H576 H 0.78905 0.87722 0.42055 0.0
H577 H 0.82902 0.94218 0.3924 0.0
C578 C 0.80666 0.97126 0.33734 0.0
C579 C 0.79102 0.982 0.30825 0.0
C580 C 0.78381 0.93426 0.35444 0.0
C581 C 0.75259 0.95489 0.29619 0.0
C582 C 0.7297 0.91858 0.31332 0.0
C583 C 0.72146 0.87159 0.36015 0.0
C584 C 0.73704 0.85995 0.38829 0.0
C585 C 0.74475 0.90809 0.34271 0.0
C586 C 0.77615 0.88576 0.39936 0.0
C587 C 0.79909 0.92279 0.38306 0.0
H588 H 0.85584 0.21179 0.20824 0.0
H589 H 0.93944 0.17408 0.19889 0.0
H590 H 0.98708 0.23367 0.16476 0.0
H591 H 1.00409 0.29548 0.136 0.0
H592 H 0.9213 0.33406 0.14712 0.0
H593 H 0.87417 0.275 0.18226 0.0
C594 C 0.88452 0.21656 0.19882 0.0
C595 C 0.89389 0.18824 0.20592 0.0
C596 C 0.91181 0.25098 0.17944 0.0
C597 C 0.93141 0.19527 0.19387 0.0
C598 C 0.95861 0.22931 0.17423 0.0
C599 C 0.97569 0.29099 0.14604 0.0
C600 C 0.96607 0.31905 0.13853 0.0
C601 C 0.94897 0.25718 0.16656 0.0
C602 C 0.92944 0.31298 0.15236 0.0
C603 C 0.90247 0.27917 0.17241 0.0
H604 H 0.81709 0.72287 0.1583 0.0
H605 H 0.7855 0.6043 0.16463 0.0
H606 H 0.84154 0.62311 0.20548 0.0
H607 H 0.90399 0.6749 0.23339 0.0
H608 H 0.93381 0.79313 0.22644 0.0
H609 H 0.87363 0.7727 0.1925 0.0
C610 C 0.82225 0.70104 0.1689 0.0
C611 C 0.79767 0.66235 0.15795 0.0
C612 C 0.85426 0.71208 0.1923 0.0
C613 C 0.80414 0.63428 0.17253 0.0
C614 C 0.83627 0.64511 0.19576 0.0
C615 C 0.89682 0.69606 0.22527 0.0
C616 C 0.92378 0.73564 0.23223 0.0
C617 C 0.86217 0.68413 0.20508 0.0
C618 C 0.91392 0.76259 0.22134 0.0
C619 C 0.87954 0.75096 0.2017 0.0
H620 H 0.51551 0.2467 0.18749 0.0
H621 H 0.39064 0.16867 0.16815 0.0
H622 H 0.40641 0.12678 0.13165 0.0
H623 H 0.45577 0.11212 0.10552 0.0
H624 H 0.58002 0.18842 0.12818 0.0
H625 H 0.56446 0.23151 0.16261 0.0
C626 C 0.49163 0.22051 0.17536 0.0
C627 C 0.45185 0.21097 0.1806 0.0
C628 C 0.50091 0.19646 0.15464 0.0
C629 C 0.42143 0.17672 0.1648 0.0
C630 C 0.43049 0.15284 0.14373 0.0
C631 C 0.47952 0.1385 0.11752 0.0
C632 C 0.51916 0.1474 0.11375 0.0
C633 C 0.47014 0.1625 0.13834 0.0
C634 C 0.5494 0.18111 0.13035 0.0
C635 C 0.54046 0.20565 0.15019 0.0
H636 H 0.80023 0.11758 0.67884 0.0
H637 H 0.78445 0.21413 0.66977 0.0
H638 H 0.84497 0.25434 0.70518 0.0
H639 H 0.90641 0.26347 0.73213 0.0
H640 H 0.92068 0.16565 0.74021 0.0
H641 H 0.85636 0.12437 0.7123 0.0
C642 C 0.80979 0.14735 0.685 0.0
C643 C 0.78835 0.16314 0.67125 0.0
C644 C 0.84442 0.17004 0.70507 0.0
C645 C 0.80054 0.20143 0.68001 0.0
C646 C 0.83525 0.2244 0.70005 0.0
C647 C 0.89509 0.23295 0.7285 0.0
C648 C 0.91874 0.21786 0.73793 0.0
C649 C 0.85805 0.20928 0.71182 0.0
C650 C 0.90343 0.1782 0.73304 0.0
C651 C 0.86665 0.15453 0.7169 0.0
H652 H 1.02663 0.66701 0.63501 0.0
H653 H 0.93172 0.54728 0.63257 0.0
H654 H 0.88625 0.5637 0.66416 0.0
H655 H 0.87293 0.61302 0.68888 0.0
H656 H 0.96906 0.73245 0.69177 0.0
H657 H 1.01475 0.71511 0.66352 0.0
C658 C 0.99598 0.64439 0.64146 0.0
C659 C 0.98235 0.606 0.63097 0.0
C660 C 0.97028 0.65408 0.65948 0.0
C661 C 0.94287 0.57699 0.64028 0.0
C662 C 0.91689 0.58646 0.65814 0.0
C663 C 0.9039 0.63528 0.68341 0.0
C664 C 0.9174 0.67415 0.69208 0.0
C665 C 0.93013 0.62505 0.66727 0.0
C666 C 0.95777 0.70244 0.68527 0.0
C667 C 0.98392 0.69253 0.66906 0.0
H668 H 0.36994 0.208 0.73261 0.0
H669 H 0.47425 0.20332 0.70371 0.0
H670 H 0.50564 0.26674 0.67326 0.0
H671 H 0.49935 0.3196 0.64697 0.0
H672 H 0.39364 0.32207 0.67541 0.0
H673 H 0.36747 0.26423 0.71404 0.0
C674 C 0.39988 0.22117 0.72036 0.0
C675 C 0.4194 0.20062 0.72011 0.0
C676 C 0.4175 0.25735 0.7023 0.0
C677 C 0.45836 0.21835 0.70427 0.0
C678 C 0.47631 0.25462 0.68658 0.0
C679 C 0.4711 0.30792 0.66238 0.0
C680 C 0.44823 0.32477 0.65784 0.0
C681 C 0.45561 0.27384 0.68422 0.0
C682 C 0.41156 0.30927 0.67794 0.0
C683 C 0.39648 0.27613 0.70007 0.0
H684 H 0.34379 0.96063 0.78814 0.0
H685 H 0.2681 1.00483 0.81664 0.0
H686 H 0.22557 0.94796 0.85649 0.0
H687 H 0.20766 0.88398 0.8796 0.0
H688 H 0.28414 0.84033 0.85272 0.0
H689 H 0.32921 0.89921 0.81617 0.0
C690 C 0.31799 0.95783 0.80314 0.0
C691 C 0.30861 0.98655 0.79895 0.0
C692 C 0.29404 0.92533 0.82626 0.0
C693 C 0.27573 0.98302 0.81922 0.0
C694 C 0.25143 0.95051 0.84193 0.0
C695 C 0.2344 0.88747 0.86601 0.0
C696 C 0.24236 0.85764 0.86847 0.0
C697 C 0.25997 0.92124 0.84513 0.0
C698 C 0.2774 0.86285 0.85126 0.0
C699 C 0.30298 0.89638 0.83018 0.0
H700 H 0.14408 0.40156 0.83008 0.0
H701 H 0.12395 0.2868 0.82498 0.0
H702 H 0.1809 0.30688 0.86493 0.0
H703 H 0.24086 0.35943 0.89531 0.0
H704 H 0.25956 0.47389 0.89968 0.0
H705 H 0.19826 0.45132 0.86677 0.0
C706 C 0.15196 0.38081 0.83796 0.0
C707 C 0.13036 0.34294 0.82402 0.0
C708 C 0.18448 0.39256 0.86089 0.0
C709 C 0.14028 0.31616 0.83517 0.0
C710 C 0.17292 0.32772 0.85791 0.0
C711 C 0.23103 0.37922 0.88989 0.0
C712 C 0.25515 0.41849 0.89975 0.0
C713 C 0.19587 0.36616 0.87018 0.0
C714 C 0.24187 0.44365 0.89231 0.0
C715 C 0.20687 0.43082 0.87324 0.0
H716 H 0.78594 0.77162 0.77997 0.0
H717 H 0.90888 0.8458 0.8083 0.0
H718 H 0.89227 0.88787 0.8432 0.0
H719 H 0.84275 0.90251 0.8671 0.0
H720 H 0.71901 0.82679 0.84185 0.0
H721 H 0.73591 0.78603 0.80473 0.0
C722 C 0.80919 0.79736 0.79329 0.0
C723 C 0.84877 0.80594 0.79106 0.0
C724 C 0.79916 0.82074 0.81433 0.0
C725 C 0.87834 0.83878 0.8093 0.0
C726 C 0.86879 0.86272 0.82941 0.0
C727 C 0.81934 0.87707 0.85355 0.0
C728 C 0.77957 0.86781 0.85734 0.0
C729 C 0.82926 0.85375 0.83244 0.0
C730 C 0.74978 0.83456 0.83965 0.0
C731 C 0.75949 0.81135 0.81823 0.0
H732 H 0.53268 0.54037 0.55624 0.0
H733 H 0.62959 0.52043 0.54411 0.0
H734 H 0.6696 0.58131 0.50979 0.0
H735 H 0.67477 0.63661 0.47776 0.0
H736 H 0.57924 0.65826 0.48934 0.0
H737 H 0.541 0.60039 0.52954 0.0
C738 C 0.56282 0.54968 0.54672 0.0
C739 C 0.57789 0.5255 0.55253 0.0
C740 C 0.58568 0.58474 0.52644 0.0
C741 C 0.61707 0.53819 0.53999 0.0
C742 C 0.63996 0.57298 0.52014 0.0
C743 C 0.6456 0.6288 0.48922 0.0
C744 C 0.62945 0.65122 0.48002 0.0
C745 C 0.62412 0.59582 0.51225 0.0
C746 C 0.59215 0.64131 0.49583 0.0
C747 C 0.57031 0.60818 0.5187 0.0
H748 H 0.5785 0.10677 0.56216 0.0
H749 H 0.57016 0.99874 0.58418 0.0
H750 H 0.5111 0.96468 0.54622 0.0
H751 H 0.46612 0.9669 0.50037 0.0
H752 H 0.47876 0.07659 0.47655 0.0
H753 H 0.53119 0.1083 0.52145 0.0
C754 C 0.56336 0.07564 0.55939 0.0
C755 C 0.57902 0.0555 0.57601 0.0
C756 C 0.53024 0.05645 0.53652 0.0
C757 C 0.55887 1.01512 0.57181 0.0
C758 C 0.52517 0.99559 0.54981 0.0
C759 C 0.48007 0.99759 0.50549 0.0
C760 C 0.46894 1.01942 0.48469 0.0
C761 C 0.51125 1.01612 0.53101 0.0
C762 C 0.48728 0.05922 0.49164 0.0
C763 C 0.51724 0.07744 0.51744 0.0
H764 H 0.11249 0.4135 0.46615 0.0
H765 H 0.23139 0.50864 0.48524 0.0
H766 H 0.20402 0.54145 0.52195 0.0
H767 H 0.1456 0.54351 0.54712 0.0
H768 H 1.0273 0.44553 0.53033 0.0
H769 H 0.0552 0.41304 0.49524 0.0
C770 C 0.1325 0.44156 0.47812 0.0
C771 C 0.17396 0.459 0.47224 0.0
C772 C 0.11659 0.45948 0.50016 0.0
C773 C 0.1994 0.49486 0.48886 0.0
C774 C 0.1837 0.51349 0.51002 0.0
C775 C 0.12594 0.51479 0.53632 0.0
C776 C 0.08423 0.49718 0.54138 0.0
C777 C 0.14226 0.49609 0.51581 0.0
C778 C 0.05938 0.45994 0.527 0.0
C779 C 0.07532 0.44136 0.50662 0.0
H780 H 0.47469 0.45608 0.99031 0.0
H781 H 0.46891 0.55844 0.98068 0.0
H782 H 0.52712 0.59379 0.0201 0.0
H783 H 0.58294 0.59652 0.05277 0.0
H784 H 0.58632 0.49264 0.06276 0.0
H785 H 0.52533 0.45684 0.02828 0.0
C786 C 0.4861 0.48615 -0.00308 0.0
C787 C 0.4681 0.50492 0.98198 0.0
C788 C 0.51904 0.50592 0.01979 0.0
C789 C 0.48249 0.54351 0.9916 0.0
C790 C 0.51577 0.56366 0.01407 0.0
C791 C 0.56994 0.56588 0.04804 0.0
C792 C 0.5896 0.54747 0.06016 0.0
C793 C 0.53477 0.54533 0.02776 0.0
C794 C 0.57212 0.5077 0.05376 0.0
C795 C 0.53727 0.48716 0.03382 0.0
H796 H 0.68709 1.00127 0.94661 0.0
H797 H 0.59016 0.88226 0.95164 0.0
H798 H 0.54639 0.9019 0.9806 0.0
H799 H 0.53647 0.95251 0.00653 0.0
H800 H 0.63451 0.07118 0.00492 0.0
H801 H 0.67722 0.05196 0.97289 0.0
C802 C 0.65619 0.97966 0.95347 0.0
C803 C 0.64172 0.94033 0.94645 0.0
C804 C 0.63162 0.99107 0.97121 0.0
C805 C 0.60191 0.91267 0.95641 0.0
C806 C 0.57697 0.9239 0.97314 0.0
C807 C 0.56718 0.97429 -0.00084 0.0
C808 C 0.58219 1.01335 0.00818 0.0
C809 C 0.59164 0.96296 0.98106 0.0
C810 C 0.62215 0.04097 -0.00148 0.0
C811 C 0.64655 1.02999 0.98005 0.0
H812 H 0.17409 0.66542 0.01451 0.0
H813 H 0.08667 0.62803 0.9293 0.0
H814 H 1.04619 0.56548 0.96054 0.0
H815 H 1.0349 0.521 0.01205 0.0
H816 H 0.12371 0.55551 0.09504 0.0
H817 H 0.16378 0.61957 0.06529 0.0
C818 C 0.14644 0.64343 0.00251 0.0
C819 C 0.13368 0.65164 0.96941 0.0
C820 C 0.12304 0.60715 0.02071 0.0
C821 C 0.09754 0.6227 0.95453 0.0
C822 C 0.07409 0.58688 0.97256 0.0
C823 C 0.06265 0.54283 0.02407 0.0
C824 C 0.07585 0.53386 0.05626 0.0
C825 C 0.08628 0.57889 0.00585 0.0
C826 C 0.11257 0.56197 0.07068 0.0
C827 C 0.13564 0.59847 0.05346 0.0
loop_
_geom_bond_atom_site_label_1
_geom_bond_atom_site_label_2
_geom_bond_distance
_geom_bond_site_symmetry_2
_ccdc_geom_bond_type
O0 Cd1 2.223 . S
O0 C8 1.315 . S
Cd1 O0 2.223 . S
Cd1 O4 2.297 . S
Cd1 O5 2.439 1_455 S
Cd1 O11 2.240 . S
Cd2 O3 2.240 . S
Cd2 O10 2.223 . S
Cd2 O12 2.297 1_455 S
Cd2 O13 2.439 1_455 S
O3 Cd2 2.240 . S
O3 C8 1.279 . S
O4 Cd1 2.297 . S
O4 C6 1.247 . S
O5 Cd1 2.439 1_655 S
O5 C6 1.208 1_655 S
C6 O4 1.247 . S
C6 O5 1.208 1_455 S
C7 O12 1.247 . S
C7 O13 1.208 . S
C8 O0 1.315 . S
C8 O3 1.279 . S
C9 O10 1.315 . S
C9 O11 1.279 . S
O10 Cd2 2.223 . S
O10 C9 1.315 . S
O11 Cd1 2.240 . S
O11 C9 1.279 . S
O12 Cd2 2.297 1_655 S
O12 C7 1.247 . S
O13 Cd2 2.439 1_655 S
O13 C7 1.208 . S
O14 Cd15 2.223 . S
O14 C22 1.315 . S
Cd15 O14 2.223 . S
Cd15 O18 2.297 . S
Cd15 O19 2.439 . S
Cd15 O25 2.240 . S
Cd16 O17 2.240 . S
Cd16 O24 2.223 . S
Cd16 O26 2.297 . S
Cd16 O27 2.439 . S
O17 Cd16 2.240 . S
O17 C22 1.279 . S
O18 Cd15 2.297 . S
O18 C20 1.247 . S
O19 Cd15 2.439 . S
O19 C20 1.208 . S
C20 O18 1.247 . S
C20 O19 1.208 . S
C21 O26 1.247 . S
C21 O27 1.208 . S
C22 O14 1.315 . S
C22 O17 1.279 . S
C23 O24 1.315 . S
C23 O25 1.279 . S
O24 Cd16 2.223 . S
O24 C23 1.315 . S
O25 Cd15 2.240 . S
O25 C23 1.279 . S
O26 Cd16 2.297 . S
O26 C21 1.247 . S
O27 Cd16 2.439 . S
O27 C21 1.208 . S
O28 Cd29 2.223 . S
O28 C36 1.315 . S
Cd29 O28 2.223 . S
Cd29 O32 2.297 . S
Cd29 O33 2.439 1_545 S
Cd29 O39 2.240 . S
Cd30 O31 2.240 . S
Cd30 O38 2.223 . S
Cd30 O40 2.297 1_545 S
Cd30 O41 2.439 1_545 S
O31 Cd30 2.240 . S
O31 C36 1.279 . S
O32 Cd29 2.297 . S
O32 C34 1.247 . S
O33 Cd29 2.439 1_565 S
O33 C34 1.208 1_565 S
C34 O32 1.247 . S
C34 O33 1.208 1_545 S
C35 O40 1.247 . S
C35 O41 1.208 . S
C36 O28 1.315 . S
C36 O31 1.279 . S
C37 O38 1.315 . S
C37 O39 1.279 . S
O38 Cd30 2.223 . S
O38 C37 1.315 . S
O39 Cd29 2.240 . S
O39 C37 1.279 . S
O40 Cd30 2.297 1_565 S
O40 C35 1.247 . S
O41 Cd30 2.439 1_565 S
O41 C35 1.208 . S
O42 Cd43 2.223 . S
O42 C50 1.315 . S
Cd43 O42 2.223 . S
Cd43 O46 2.297 . S
Cd43 O47 2.439 1_455 S
Cd43 O53 2.240 . S
Cd44 O45 2.240 . S
Cd44 O52 2.223 . S
Cd44 O54 2.297 1_455 S
Cd44 O55 2.439 1_455 S
O45 Cd44 2.240 . S
O45 C50 1.279 . S
O46 Cd43 2.297 . S
O46 C48 1.245 1_455 S
O47 Cd43 2.439 1_655 S
O47 C48 1.209 . S
C48 O46 1.245 1_655 S
C48 O47 1.209 . S
C49 O54 1.247 . S
C49 O55 1.208 . S
C50 O42 1.315 . S
C50 O45 1.279 . S
C51 O52 1.315 . S
C51 O53 1.279 . S
O52 Cd44 2.223 . S
O52 C51 1.315 . S
O53 Cd43 2.240 . S
O53 C51 1.279 . S
O54 Cd44 2.297 1_655 S
O54 C49 1.247 . S
O55 Cd44 2.439 1_655 S
O55 C49 1.208 . S
O56 Cd57 2.223 . S
O56 C64 1.315 . S
Cd57 O56 2.223 . S
Cd57 O60 2.297 . S
Cd57 O61 2.439 . S
Cd57 O67 2.240 . S
Cd58 O59 2.240 . S
Cd58 O66 2.223 . S
Cd58 O68 2.297 . S
Cd58 O69 2.439 . S
O59 Cd58 2.240 . S
O59 C64 1.279 . S
O60 Cd57 2.297 . S
O60 C62 1.247 . S
O61 Cd57 2.439 . S
O61 C62 1.208 . S
C62 O60 1.247 . S
C62 O61 1.208 . S
C63 O68 1.247 . S
C63 O69 1.208 . S
C64 O56 1.315 . S
C64 O59 1.279 . S
C65 O66 1.315 . S
C65 O67 1.279 . S
O66 Cd58 2.223 . S
O66 C65 1.315 . S
O67 Cd57 2.240 . S
O67 C65 1.279 . S
O68 Cd58 2.297 . S
O68 C63 1.247 . S
O69 Cd58 2.439 . S
O69 C63 1.208 . S
O70 Cd71 2.223 . S
O70 C78 1.315 . S
Cd71 O70 2.223 . S
Cd71 O74 2.297 . S
Cd71 O75 2.439 1_565 S
Cd71 O81 2.240 1_565 S
Cd72 O73 2.240 1_545 S
Cd72 O80 2.223 1_545 S
Cd72 O82 2.297 . S
Cd72 O83 2.439 . S
O73 Cd72 2.240 1_565 S
O73 C78 1.279 . S
O74 Cd71 2.297 . S
O74 C76 1.247 1_565 S
O75 Cd71 2.439 1_545 S
O75 C76 1.208 . S
C76 O74 1.247 1_545 S
C76 O75 1.208 . S
C77 O82 1.247 . S
C77 O83 1.208 . S
C78 O70 1.315 . S
C78 O73 1.279 . S
C79 O80 1.315 . S
C79 O81 1.279 1_565 S
O80 Cd72 2.223 1_565 S
O80 C79 1.315 . S
O81 Cd71 2.240 1_545 S
O81 C79 1.279 1_545 S
O82 Cd72 2.297 . S
O82 C77 1.247 . S
O83 Cd72 2.439 . S
O83 C77 1.208 . S
O84 Cd85 2.223 . S
O84 C92 1.315 . S
Cd85 O84 2.223 . S
Cd85 O88 2.297 . S
Cd85 O89 2.439 . S
Cd85 O95 2.240 . S
Cd86 O87 2.240 . S
Cd86 O94 2.223 . S
Cd86 O96 2.297 . S
Cd86 O97 2.439 . S
O87 Cd86 2.240 . S
O87 C92 1.279 . S
O88 Cd85 2.297 . S
O88 C90 1.247 . S
O89 Cd85 2.439 . S
O89 C90 1.208 . S
C90 O88 1.247 . S
C90 O89 1.208 . S
C91 O96 1.247 . S
C91 O97 1.208 . S
C92 O84 1.315 . S
C92 O87 1.279 . S
C93 O94 1.315 . S
C93 O95 1.279 . S
O94 Cd86 2.223 . S
O94 C93 1.315 . S
O95 Cd85 2.240 . S
O95 C93 1.279 . S
O96 Cd86 2.297 . S
O96 C91 1.247 . S
O97 Cd86 2.439 . S
O97 C91 1.208 . S
O98 Cd99 2.223 . S
O98 C106 1.315 . S
Cd99 O98 2.223 . S
Cd99 O102 2.297 . S
Cd99 O103 2.439 . S
Cd99 O109 2.240 . S
Cd100 O101 2.240 . S
Cd100 O108 2.223 . S
Cd100 O110 2.297 . S
Cd100 O111 2.439 . S
O101 Cd100 2.240 . S
O101 C106 1.279 . S
O102 Cd99 2.297 . S
O102 C104 1.258 . S
O103 Cd99 2.439 . S
O103 C104 1.206 . S
C104 O102 1.258 . S
C104 O103 1.206 . S
C105 O110 1.247 . S
C105 O111 1.208 . S
C106 O98 1.315 . S
C106 O101 1.279 . S
C107 O108 1.315 . S
C107 O109 1.279 . S
O108 Cd100 2.223 . S
O108 C107 1.315 . S
O109 Cd99 2.240 . S
O109 C107 1.279 . S
O110 Cd100 2.297 . S
O110 C105 1.247 . S
O111 Cd100 2.439 . S
O111 C105 1.208 . S
O112 Cd113 2.223 . S
O112 C120 1.315 . S
Cd113 O112 2.223 . S
Cd113 O116 2.297 . S
Cd113 O117 2.439 . S
Cd113 O123 2.240 . S
Cd114 O115 2.240 . S
Cd114 O122 2.223 . S
Cd114 O124 2.297 . S
Cd114 O125 2.439 . S
O115 Cd114 2.240 . S
O115 C120 1.279 . S
O116 Cd113 2.297 . S
O116 C118 1.247 . S
O117 Cd113 2.439 . S
O117 C118 1.208 . S
C118 O116 1.247 . S
C118 O117 1.208 . S
C119 O124 1.247 . S
C119 O125 1.208 . S
C120 O112 1.315 . S
C120 O115 1.279 . S
C121 O122 1.315 . S
C121 O123 1.279 . S
O122 Cd114 2.223 . S
O122 C121 1.315 . S
O123 Cd113 2.240 . S
O123 C121 1.279 . S
O124 Cd114 2.297 . S
O124 C119 1.247 . S
O125 Cd114 2.439 . S
O125 C119 1.208 . S
O126 Cd127 2.223 . S
O126 C134 1.315 . S
Cd127 O126 2.223 . S
Cd127 O130 2.297 . S
Cd127 O131 2.439 . S
Cd127 O137 2.240 . S
Cd128 O129 2.240 . S
Cd128 O136 2.223 1_554 S
Cd128 O138 2.297 1_554 S
Cd128 O139 2.439 . S
O129 Cd128 2.240 . S
O129 C134 1.279 . S
O130 Cd127 2.297 . S
O130 C132 1.247 . S
O131 Cd127 2.439 . S
O131 C132 1.208 . S
C132 O130 1.247 . S
C132 O131 1.208 . S
C133 O138 1.247 1_554 S
C133 O139 1.208 . S
C134 O126 1.315 . S
C134 O129 1.279 . S
C135 O136 1.313 1_554 S
C135 O137 1.288 . S
O136 Cd128 2.223 1_556 S
O136 C135 1.313 1_556 S
O137 Cd127 2.240 . S
O137 C135 1.288 . S
O138 Cd128 2.297 1_556 S
O138 C133 1.247 1_556 S
O139 Cd128 2.439 . S
O139 C133 1.208 . S
O140 Cd141 2.223 . S
O140 C148 1.315 . S
Cd141 O140 2.223 . S
Cd141 O144 2.297 . S
Cd141 O145 2.439 . S
Cd141 O151 2.240 . S
Cd142 O143 2.240 . S
Cd142 O150 2.223 . S
Cd142 O152 2.297 . S
Cd142 O153 2.439 . S
O143 Cd142 2.240 . S
O143 C148 1.279 . S
O144 Cd141 2.297 . S
O144 C146 1.247 . S
O145 Cd141 2.439 . S
O145 C146 1.208 . S
C146 O144 1.247 . S
C146 O145 1.208 . S
C147 O152 1.247 . S
C147 O153 1.208 . S
C148 O140 1.315 . S
C148 O143 1.279 . S
C149 O150 1.315 . S
C149 O151 1.279 . S
O150 Cd142 2.223 . S
O150 C149 1.315 . S
O151 Cd141 2.240 . S
O151 C149 1.279 . S
O152 Cd142 2.297 . S
O152 C147 1.247 . S
O153 Cd142 2.439 . S
O153 C147 1.208 . S
O154 Cd155 2.223 . S
O154 C162 1.315 . S
Cd155 O154 2.223 . S
Cd155 O158 2.297 1_655 S
Cd155 O159 2.438 . S
Cd155 O165 2.240 . S
Cd156 O157 2.240 . S
Cd156 O164 2.223 . S
Cd156 O166 2.297 . S
Cd156 O167 2.439 . S
O157 Cd156 2.240 . S
O157 C162 1.279 . S
O158 Cd155 2.297 1_455 S
O158 C160 1.247 . S
O159 Cd155 2.438 . S
O159 C160 1.208 1_655 S
C160 O158 1.247 . S
C160 O159 1.208 1_455 S
C161 O166 1.247 . S
C161 O167 1.208 . S
C162 O154 1.315 . S
C162 O157 1.279 . S
C163 O164 1.315 . S
C163 O165 1.279 . S
O164 Cd156 2.223 . S
O164 C163 1.315 . S
O165 Cd155 2.240 . S
O165 C163 1.279 . S
O166 Cd156 2.297 . S
O166 C161 1.247 . S
O167 Cd156 2.439 . S
O167 C161 1.208 . S
O168 Cd169 2.223 . S
O168 C176 1.315 . S
Cd169 O168 2.223 . S
Cd169 O172 2.297 . S
Cd169 O173 2.439 . S
Cd169 O179 2.240 . S
Cd170 O171 2.240 . S
Cd170 O178 2.223 . S
Cd170 O180 2.297 . S
Cd170 O181 2.439 . S
O171 Cd170 2.240 . S
O171 C176 1.279 . S
O172 Cd169 2.297 . S
O172 C174 1.247 . S
O173 Cd169 2.439 . S
O173 C174 1.208 . S
C174 O172 1.247 . S
C174 O173 1.208 . S
C175 O180 1.247 . S
C175 O181 1.208 . S
C176 O168 1.315 . S
C176 O171 1.279 . S
C177 O178 1.315 . S
C177 O179 1.279 . S
O178 Cd170 2.223 . S
O178 C177 1.315 . S
O179 Cd169 2.240 . S
O179 C177 1.279 . S
O180 Cd170 2.297 . S
O180 C175 1.247 . S
O181 Cd170 2.439 . S
O181 C175 1.208 . S
O182 Cd183 2.223 . S
O182 C190 1.315 . S
Cd183 O182 2.223 . S
Cd183 O186 2.297 . S
Cd183 O187 2.439 . S
Cd183 O193 2.240 . S
Cd184 O185 2.240 . S
Cd184 O192 2.223 . S
Cd184 O194 2.297 . S
Cd184 O195 2.439 . S
O185 Cd184 2.240 . S
O185 C190 1.279 . S
O186 Cd183 2.297 . S
O186 C188 1.247 . S
O187 Cd183 2.439 . S
O187 C188 1.208 . S
C188 O186 1.247 . S
C188 O187 1.208 . S
C189 O194 1.247 . S
C189 O195 1.208 . S
C190 O182 1.315 . S
C190 O185 1.279 . S
C191 O192 1.315 . S
C191 O193 1.279 . S
O192 Cd184 2.223 . S
O192 C191 1.315 . S
O193 Cd183 2.240 . S
O193 C191 1.279 . S
O194 Cd184 2.297 . S
O194 C189 1.247 . S
O195 Cd184 2.439 . S
O195 C189 1.208 . S
O196 Cd197 2.223 . S
O196 C204 1.315 . S
Cd197 O196 2.223 . S
Cd197 O200 2.297 . S
Cd197 O201 2.439 . S
Cd197 O207 2.240 . S
Cd198 O199 2.240 . S
Cd198 O206 2.223 . S
Cd198 O208 2.297 . S
Cd198 O209 2.439 . S
O199 Cd198 2.240 . S
O199 C204 1.279 . S
O200 Cd197 2.297 . S
O200 C202 1.247 . S
O201 Cd197 2.439 . S
O201 C202 1.208 . S
C202 O200 1.247 . S
C202 O201 1.208 . S
C203 O208 1.247 . S
C203 O209 1.208 . S
C204 O196 1.315 . S
C204 O199 1.279 . S
C205 O206 1.315 . S
C205 O207 1.279 . S
O206 Cd198 2.223 . S
O206 C205 1.315 . S
O207 Cd197 2.240 . S
O207 C205 1.279 . S
O208 Cd198 2.297 . S
O208 C203 1.247 . S
O209 Cd198 2.439 . S
O209 C203 1.208 . S
O210 Cd211 2.223 . S
O210 C218 1.315 . S
Cd211 O210 2.223 . S
Cd211 O214 2.297 . S
Cd211 O215 2.439 . S
Cd211 O221 2.240 . S
Cd212 O213 2.240 . S
Cd212 O220 2.223 . S
Cd212 O222 2.297 . S
Cd212 O223 2.439 . S
O213 Cd212 2.240 . S
O213 C218 1.279 . S
O214 Cd211 2.297 . S
O214 C216 1.247 . S
O215 Cd211 2.439 . S
O215 C216 1.208 . S
C216 O214 1.247 . S
C216 O215 1.208 . S
C217 O222 1.247 . S
C217 O223 1.208 . S
C218 O210 1.315 . S
C218 O213 1.279 . S
C219 O220 1.315 . S
C219 O221 1.279 . S
O220 Cd212 2.223 . S
O220 C219 1.315 . S
O221 Cd211 2.240 . S
O221 C219 1.279 . S
O222 Cd212 2.297 . S
O222 C217 1.247 . S
O223 Cd212 2.439 . S
O223 C217 1.208 . S
O224 Cd225 2.223 . S
O224 C232 1.315 . S
Cd225 O224 2.223 . S
Cd225 O228 2.297 . S
Cd225 O229 2.439 . S
Cd225 O235 2.240 . S
Cd226 O227 2.240 . S
Cd226 O234 2.223 . S
Cd226 O236 2.297 . S
Cd226 O237 2.439 . S
O227 Cd226 2.240 . S
O227 C232 1.279 . S
O228 Cd225 2.297 . S
O228 C230 1.247 . S
O229 Cd225 2.439 . S
O229 C230 1.208 . S
C230 O228 1.247 . S
C230 O229 1.208 . S
C231 O236 1.247 . S
C231 O237 1.208 . S
C232 O224 1.315 . S
C232 O227 1.279 . S
C233 O234 1.315 . S
C233 O235 1.279 . S
O234 Cd226 2.223 . S
O234 C233 1.315 . S
O235 Cd225 2.240 . S
O235 C233 1.279 . S
O236 Cd226 2.297 . S
O236 C231 1.247 . S
O237 Cd226 2.439 . S
O237 C231 1.208 . S
O238 Cd239 2.223 . S
O238 C246 1.315 . S
Cd239 O238 2.223 . S
Cd239 O242 2.297 . S
Cd239 O243 2.439 . S
Cd239 O249 2.240 . S
Cd240 O241 2.240 . S
Cd240 O248 2.223 . S
Cd240 O250 2.297 . S
Cd240 O251 2.439 . S
O241 Cd240 2.240 . S
O241 C246 1.279 . S
O242 Cd239 2.297 . S
O242 C244 1.247 . S
O243 Cd239 2.439 . S
O243 C244 1.208 . S
C244 O242 1.247 . S
C244 O243 1.208 . S
C245 O250 1.247 . S
C245 O251 1.208 . S
C246 O238 1.315 . S
C246 O241 1.279 . S
C247 O248 1.315 . S
C247 O249 1.279 . S
O248 Cd240 2.223 . S
O248 C247 1.315 . S
O249 Cd239 2.240 . S
O249 C247 1.279 . S
O250 Cd240 2.297 . S
O250 C245 1.247 . S
O251 Cd240 2.439 . S
O251 C245 1.208 . S
H252 C258 0.930 . S
H253 C261 0.930 . S
H254 C262 0.930 . S
H255 C263 0.930 . S
H256 C266 0.930 . S
H257 C267 0.930 . S
C258 H252 0.930 . S
C258 C259 1.355 . S
C258 C260 1.415 . S
C259 C258 1.355 . S
C259 C261 1.419 . S
C260 C258 1.415 . S
C260 C265 1.425 . S
C260 C267 1.409 . S
C261 H253 0.930 . S
C261 C259 1.419 . S
C261 C262 1.362 . S
C262 H254 0.930 . S
C262 C261 1.362 . S
C262 C265 1.409 . S
C263 H255 0.930 . S
C263 C264 1.355 . S
C263 C265 1.415 . S
C264 C263 1.355 . S
C264 C266 1.419 . S
C265 C260 1.425 . S
C265 C262 1.409 . S
C265 C263 1.415 . S
C266 H256 0.930 . S
C266 C264 1.419 . S
C266 C267 1.362 . S
C267 H257 0.930 . S
C267 C260 1.409 . S
C267 C266 1.362 . S
H268 C274 0.930 . S
H269 C277 0.930 . S
H270 C278 0.930 . S
H271 C279 0.930 . S
H272 C282 0.930 . S
H273 C283 0.930 . S
C274 H268 0.930 . S
C274 C275 1.355 . S
C274 C276 1.415 . S
C275 C274 1.355 . S
C275 C277 1.419 . S
C276 C274 1.415 . S
C276 C281 1.425 . S
C276 C283 1.409 . S
C277 H269 0.930 . S
C277 C275 1.419 . S
C277 C278 1.362 . S
C278 H270 0.930 . S
C278 C277 1.362 . S
C278 C281 1.409 . S
C279 H271 0.930 . S
C279 C280 1.355 . S
C279 C281 1.415 . S
C280 C279 1.355 . S
C280 C282 1.419 . S
C281 C276 1.425 . S
C281 C278 1.409 . S
C281 C279 1.415 . S
C282 H272 0.930 . S
C282 C280 1.419 . S
C282 C283 1.362 . S
C283 H273 0.930 . S
C283 C276 1.409 . S
C283 C282 1.362 . S
H284 C290 0.930 1_545 S
H285 C293 0.930 . S
H286 C294 0.930 . S
H287 C295 0.930 . S
H288 C298 0.930 . S
H289 C299 0.930 1_556 S
C290 H284 0.930 1_565 S
C290 C291 1.355 . S
C290 C292 1.415 . S
C291 C290 1.355 . S
C291 C293 1.419 . S
C292 C290 1.415 . S
C292 C297 1.425 . S
C292 C299 1.409 . S
C293 H285 0.930 . S
C293 C291 1.419 . S
C293 C294 1.362 . S
C294 H286 0.930 . S
C294 C293 1.362 . S
C294 C297 1.409 . S
C295 H287 0.930 . S
C295 C296 1.355 1_554 S
C295 C297 1.415 . S
C296 C295 1.355 1_556 S
C296 C298 1.419 . S
C297 C292 1.425 . S
C297 C294 1.409 . S
C297 C295 1.415 . S
C298 H288 0.930 . S
C298 C296 1.419 . S
C298 C299 1.362 1_556 S
C299 H289 0.930 1_554 S
C299 C292 1.409 . S
C299 C298 1.362 1_554 S
H300 C306 0.930 . S
H301 C309 0.930 . S
H302 C310 0.930 . S
H303 C311 0.930 . S
H304 C314 0.930 1_565 S
H305 C315 0.930 1_565 S
C306 H300 0.930 . S
C306 C307 1.355 . S
C306 C308 1.415 . S
C307 C306 1.355 . S
C307 C309 1.419 . S
C308 C306 1.415 . S
C308 C313 1.425 . S
C308 C315 1.409 . S
C309 H301 0.930 . S
C309 C307 1.419 . S
C309 C310 1.362 . S
C310 H302 0.930 . S
C310 C309 1.362 . S
C310 C313 1.409 . S
C311 H303 0.930 . S
C311 C312 1.355 . S
C311 C313 1.415 . S
C312 C311 1.355 . S
C312 C314 1.419 . S
C313 C308 1.425 . S
C313 C310 1.409 . S
C313 C311 1.415 . S
C314 H304 0.930 1_545 S
C314 C312 1.419 . S
C314 C315 1.362 . S
C315 H305 0.930 1_545 S
C315 C308 1.409 . S
C315 C314 1.362 . S
H316 C322 0.930 . S
H317 C325 0.930 . S
H318 C326 0.930 . S
H319 C327 0.930 . S
H320 C330 0.930 . S
H321 C331 0.930 . S
C322 H316 0.930 . S
C322 C323 1.355 . S
C322 C324 1.415 . S
C323 C322 1.355 . S
C323 C325 1.419 . S
C324 C322 1.415 . S
C324 C329 1.425 . S
C324 C331 1.409 . S
C325 H317 0.930 . S
C325 C323 1.419 . S
C325 C326 1.362 . S
C326 H318 0.930 . S
C326 C325 1.362 . S
C326 C329 1.409 . S
C327 H319 0.930 . S
C327 C328 1.355 . S
C327 C329 1.415 . S
C328 C327 1.355 . S
C328 C330 1.419 . S
C329 C324 1.425 . S
C329 C326 1.409 . S
C329 C327 1.415 . S
C330 H320 0.930 . S
C330 C328 1.419 . S
C330 C331 1.362 . S
C331 H321 0.930 . S
C331 C324 1.409 . S
C331 C330 1.362 . S
H332 C338 0.930 . S
H333 C341 0.930 . S
H334 C342 0.930 . S
H335 C343 0.930 . S
H336 C346 0.930 . S
H337 C347 0.930 . S
C338 H332 0.930 . S
C338 C339 1.355 . S
C338 C340 1.415 . S
C339 C338 1.355 . S
C339 C341 1.419 . S
C340 C338 1.415 . S
C340 C345 1.425 . S
C340 C347 1.409 . S
C341 H333 0.930 . S
C341 C339 1.419 . S
C341 C342 1.362 . S
C342 H334 0.930 . S
C342 C341 1.362 . S
C342 C345 1.409 . S
C343 H335 0.930 . S
C343 C344 1.355 . S
C343 C345 1.415 . S
C344 C343 1.355 . S
C344 C346 1.419 . S
C345 C340 1.425 . S
C345 C342 1.409 . S
C345 C343 1.415 . S
C346 H336 0.930 . S
C346 C344 1.419 . S
C346 C347 1.362 . S
C347 H337 0.930 . S
C347 C340 1.409 . S
C347 C346 1.362 . S
H348 C354 0.930 . S
H349 C357 0.930 . S
H350 C358 0.930 . S
H351 C359 0.930 . S
H352 C362 0.957 . S
H353 C363 0.930 . S
C354 H348 0.930 . S
C354 C355 1.355 . S
C354 C356 1.415 . S
C355 C354 1.355 . S
C355 C357 1.419 . S
C356 C354 1.415 . S
C356 C361 1.425 . S
C356 C363 1.409 . S
C357 H349 0.930 . S
C357 C355 1.419 . S
C357 C358 1.362 . S
C358 H350 0.930 . S
C358 C357 1.362 . S
C358 C361 1.409 . S
C359 H351 0.930 . S
C359 C360 1.355 . S
C359 C361 1.415 . S
C360 C359 1.355 . S
C360 C362 1.416 1_556 S
C361 C356 1.425 . S
C361 C358 1.409 . S
C361 C359 1.415 . S
C362 H352 0.957 . S
C362 C360 1.416 1_554 S
C362 C363 1.339 1_554 S
C363 H353 0.930 . S
C363 C356 1.409 . S
C363 C362 1.339 1_556 S
H364 C370 0.930 . S
H365 C373 0.930 1_554 S
H366 C374 0.930 . S
H367 C375 0.930 . S
H368 C378 0.930 . S
H369 C379 0.930 . S
C370 H364 0.930 . S
C370 C371 1.355 . S
C370 C372 1.415 . S
C371 C370 1.355 . S
C371 C373 1.419 . S
C372 C370 1.415 . S
C372 C377 1.425 . S
C372 C379 1.409 . S
C373 H365 0.930 1_556 S
C373 C371 1.419 . S
C373 C374 1.362 . S
C374 H366 0.930 . S
C374 C373 1.362 . S
C374 C377 1.409 . S
C375 H367 0.930 . S
C375 C376 1.355 . S
C375 C377 1.415 . S
C376 C375 1.355 . S
C376 C378 1.419 . S
C377 C372 1.425 . S
C377 C374 1.409 . S
C377 C375 1.415 . S
C378 H368 0.930 . S
C378 C376 1.419 . S
C378 C379 1.362 . S
C379 H369 0.930 . S
C379 C372 1.409 . S
C379 C378 1.362 . S
H380 C386 0.930 . S
H381 C389 0.930 1_554 S
H382 C390 0.930 . S
H383 C391 0.930 . S
H384 C394 0.930 1_565 S
H385 C395 0.930 1_565 S
C386 H380 0.930 . S
C386 C387 1.355 . S
C386 C388 1.415 . S
C387 C386 1.355 . S
C387 C389 1.419 . S
C388 C386 1.415 . S
C388 C393 1.425 . S
C388 C395 1.409 . S
C389 H381 0.930 1_556 S
C389 C387 1.419 . S
C389 C390 1.362 . S
C390 H382 0.930 . S
C390 C389 1.362 . S
C390 C393 1.409 . S
C391 H383 0.930 . S
C391 C392 1.355 . S
C391 C393 1.415 . S
C392 C391 1.355 . S
C392 C394 1.419 . S
C393 C388 1.425 . S
C393 C390 1.409 . S
C393 C391 1.415 . S
C394 H384 0.930 1_545 S
C394 C392 1.419 . S
C394 C395 1.362 . S
C395 H385 0.930 1_545 S
C395 C388 1.409 . S
C395 C394 1.362 . S
H396 C402 0.930 1_545 S
H397 C405 0.930 . S
H398 C406 0.930 . S
H399 C407 0.930 . S
H400 C410 0.930 . S
H401 C411 0.930 1_545 S
C402 H396 0.930 1_565 S
C402 C403 1.355 . S
C402 C404 1.415 . S
C403 C402 1.355 . S
C403 C405 1.419 . S
C404 C402 1.415 . S
C404 C409 1.425 . S
C404 C411 1.409 . S
C405 H397 0.930 . S
C405 C403 1.419 . S
C405 C406 1.362 . S
C406 H398 0.930 . S
C406 C405 1.362 . S
C406 C409 1.409 . S
C407 H399 0.930 . S
C407 C408 1.355 . S
C407 C409 1.415 . S
C408 C407 1.355 . S
C408 C410 1.419 . S
C409 C404 1.425 . S
C409 C406 1.409 . S
C409 C407 1.415 . S
C410 H400 0.930 . S
C410 C408 1.419 . S
C410 C411 1.362 . S
C411 H401 0.930 1_565 S
C411 C404 1.409 . S
C411 C410 1.362 . S
H412 C418 0.930 . S
H413 C421 0.930 . S
H414 C422 0.930 . S
H415 C423 0.930 . S
H416 C426 0.930 . S
H417 C427 0.930 . S
C418 H412 0.930 . S
C418 C419 1.355 . S
C418 C420 1.415 . S
C419 C418 1.355 . S
C419 C421 1.419 . S
C420 C418 1.415 . S
C420 C425 1.425 . S
C420 C427 1.409 . S
C421 H413 0.930 . S
C421 C419 1.419 . S
C421 C422 1.362 . S
C422 H414 0.930 . S
C422 C421 1.362 . S
C422 C425 1.409 . S
C423 H415 0.930 . S
C423 C424 1.355 . S
C423 C425 1.415 . S
C424 C423 1.355 . S
C424 C426 1.419 . S
C425 C420 1.425 . S
C425 C422 1.409 . S
C425 C423 1.415 . S
C426 H416 0.930 . S
C426 C424 1.419 . S
C426 C427 1.362 . S
C427 H417 0.930 . S
C427 C420 1.409 . S
C427 C426 1.362 . S
H428 C434 0.930 . S
H429 C437 0.930 . S
H430 C438 0.930 . S
H431 C439 0.930 . S
H432 C442 0.930 . S
H433 C443 0.930 . S
C434 H428 0.930 . S
C434 C435 1.355 . S
C434 C436 1.415 . S
C435 C434 1.355 . S
C435 C437 1.419 . S
C436 C434 1.415 . S
C436 C441 1.425 . S
C436 C443 1.409 . S
C437 H429 0.930 . S
C437 C435 1.419 . S
C437 C438 1.362 . S
C438 H430 0.930 . S
C438 C437 1.362 . S
C438 C441 1.409 . S
C439 H431 0.930 . S
C439 C440 1.355 . S
C439 C441 1.415 . S
C440 C439 1.355 . S
C440 C442 1.419 . S
C441 C436 1.425 . S
C441 C438 1.409 . S
C441 C439 1.415 . S
C442 H432 0.930 . S
C442 C440 1.419 . S
C442 C443 1.362 . S
C443 H433 0.930 . S
C443 C436 1.409 . S
C443 C442 1.362 . S
H444 C450 0.930 . S
H445 C453 0.930 . S
H446 C454 0.930 . S
H447 C455 0.930 . S
H448 C458 0.930 . S
H449 C459 0.930 . S
C450 H444 0.930 . S
C450 C451 1.355 . S
C450 C452 1.415 . S
C451 C450 1.355 . S
C451 C453 1.419 . S
C452 C450 1.415 . S
C452 C457 1.425 . S
C452 C459 1.409 . S
C453 H445 0.930 . S
C453 C451 1.419 . S
C453 C454 1.362 . S
C454 H446 0.930 . S
C454 C453 1.362 . S
C454 C457 1.409 . S
C455 H447 0.930 . S
C455 C456 1.355 . S
C455 C457 1.415 . S
C456 C455 1.355 . S
C456 C458 1.419 . S
C457 C452 1.425 . S
C457 C454 1.409 . S
C457 C455 1.415 . S
C458 H448 0.930 . S
C458 C456 1.419 . S
C458 C459 1.362 . S
C459 H449 0.930 . S
C459 C452 1.409 . S
C459 C458 1.362 . S
H460 C466 0.930 . S
H461 C469 0.930 . S
H462 C470 0.930 . S
H463 C471 0.930 . S
H464 C474 0.930 . S
H465 C475 0.930 . S
C466 H460 0.930 . S
C466 C467 1.355 . S
C466 C468 1.415 . S
C467 C466 1.355 . S
C467 C469 1.419 . S
C468 C466 1.415 . S
C468 C473 1.425 . S
C468 C475 1.409 . S
C469 H461 0.930 . S
C469 C467 1.419 . S
C469 C470 1.362 1_545 S
C470 H462 0.930 . S
C470 C469 1.362 1_565 S
C470 C473 1.416 1_565 S
C471 H463 0.930 . S
C471 C472 1.355 . S
C471 C473 1.409 1_565 S
C472 C471 1.355 . S
C472 C474 1.419 1_565 S
C473 C468 1.425 . S
C473 C470 1.416 1_545 S
C473 C471 1.409 1_545 S
C474 H464 0.930 . S
C474 C472 1.419 1_545 S
C474 C475 1.362 . S
C475 H465 0.930 . S
C475 C468 1.409 . S
C475 C474 1.362 . S
H476 C482 0.930 . S
H477 C485 0.930 . S
H478 C486 0.930 . S
H479 C487 0.930 . S
H480 C490 0.930 . S
H481 C491 0.930 . S
C482 H476 0.930 . S
C482 C483 1.355 . S
C482 C484 1.415 . S
C483 C482 1.355 . S
C483 C485 1.419 . S
C484 C482 1.415 . S
C484 C489 1.425 . S
C484 C491 1.409 1_455 S
C485 H477 0.930 . S
C485 C483 1.419 . S
C485 C486 1.362 . S
C486 H478 0.930 . S
C486 C485 1.362 . S
C486 C489 1.409 . S
C487 H479 0.930 . S
C487 C488 1.355 . S
C487 C489 1.415 . S
C488 C487 1.355 . S
C488 C490 1.419 1_455 S
C489 C484 1.425 . S
C489 C486 1.409 . S
C489 C487 1.415 . S
C490 H480 0.930 . S
C490 C488 1.419 1_655 S
C490 C491 1.362 . S
C491 H481 0.930 . S
C491 C484 1.409 1_655 S
C491 C490 1.362 . S
H492 C498 0.930 . S
H493 C501 0.930 . S
H494 C502 0.930 . S
H495 C503 0.930 . S
H496 C506 0.930 . S
H497 C507 0.930 . S
C498 H492 0.930 . S
C498 C499 1.355 . S
C498 C500 1.415 . S
C499 C498 1.355 . S
C499 C501 1.419 . S
C500 C498 1.415 . S
C500 C505 1.425 . S
C500 C507 1.409 . S
C501 H493 0.930 . S
C501 C499 1.419 . S
C501 C502 1.362 . S
C502 H494 0.930 . S
C502 C501 1.362 . S
C502 C505 1.409 . S
C503 H495 0.930 . S
C503 C504 1.355 . S
C503 C505 1.415 . S
C504 C503 1.355 . S
C504 C506 1.419 . S
C505 C500 1.425 . S
C505 C502 1.409 . S
C505 C503 1.415 . S
C506 H496 0.930 . S
C506 C504 1.419 . S
C506 C507 1.362 . S
C507 H497 0.930 . S
C507 C500 1.409 . S
C507 C506 1.362 . S
H508 C514 0.930 1_565 S
H509 C517 0.930 . S
H510 C518 0.930 . S
H511 C519 0.930 . S
H512 C522 0.930 . S
H513 C523 0.930 . S
C514 H508 0.930 1_545 S
C514 C515 1.355 . S
C514 C516 1.415 1_545 S
C515 C514 1.355 . S
C515 C517 1.419 . S
C516 C514 1.415 1_565 S
C516 C521 1.425 1_565 S
C516 C523 1.409 . S
C517 H509 0.930 . S
C517 C515 1.419 . S
C517 C518 1.362 . S
C518 H510 0.930 . S
C518 C517 1.362 . S
C518 C521 1.409 . S
C519 H511 0.930 . S
C519 C520 1.355 . S
C519 C521 1.415 1_565 S
C520 C519 1.355 . S
C520 C522 1.419 . S
C521 C516 1.425 1_545 S
C521 C518 1.409 . S
C521 C519 1.415 1_545 S
C522 H512 0.930 . S
C522 C520 1.419 . S
C522 C523 1.362 . S
C523 H513 0.930 . S
C523 C516 1.409 . S
C523 C522 1.362 . S
H524 C530 0.930 . S
H525 C533 0.930 . S
H526 C534 0.930 1_655 S
H527 C535 0.930 1_655 S
H528 C538 0.930 . S
H529 C539 0.930 . S
C530 H524 0.930 . S
C530 C531 1.355 . S
C530 C532 1.415 . S
C531 C530 1.355 . S
C531 C533 1.419 . S
C532 C530 1.415 . S
C532 C537 1.425 . S
C532 C539 1.409 . S
C533 H525 0.930 . S
C533 C531 1.419 . S
C533 C534 1.362 . S
C534 H526 0.930 1_455 S
C534 C533 1.362 . S
C534 C537 1.409 . S
C535 H527 0.930 1_455 S
C535 C536 1.355 . S
C535 C537 1.415 . S
C536 C535 1.355 . S
C536 C538 1.419 . S
C537 C532 1.425 . S
C537 C534 1.409 . S
C537 C535 1.415 . S
C538 H528 0.930 . S
C538 C536 1.419 . S
C538 C539 1.362 . S
C539 H529 0.930 . S
C539 C532 1.409 . S
C539 C538 1.362 . S
H540 C546 0.930 . S
H541 C549 0.930 . S
H542 C550 0.930 . S
H543 C551 0.930 . S
H544 C554 0.930 . S
H545 C555 0.930 . S
C546 H540 0.930 . S
C546 C547 1.355 . S
C546 C548 1.415 . S
C547 C546 1.355 . S
C547 C549 1.419 . S
C548 C546 1.415 . S
C548 C553 1.425 . S
C548 C555 1.409 . S
C549 H541 0.930 . S
C549 C547 1.419 . S
C549 C550 1.362 . S
C550 H542 0.930 . S
C550 C549 1.362 . S
C550 C553 1.409 . S
C551 H543 0.930 . S
C551 C552 1.355 . S
C551 C553 1.415 . S
C552 C551 1.355 . S
C552 C554 1.419 . S
C553 C548 1.425 . S
C553 C550 1.409 . S
C553 C551 1.415 . S
C554 H544 0.930 . S
C554 C552 1.419 . S
C554 C555 1.362 . S
C555 H545 0.930 . S
C555 C548 1.409 . S
C555 C554 1.362 . S
H556 C562 0.930 . S
H557 C565 0.930 . S
H558 C566 0.930 . S
H559 C567 0.930 . S
H560 C570 0.930 . S
H561 C571 0.930 . S
C562 H556 0.930 . S
C562 C563 1.355 . S
C562 C564 1.415 . S
C563 C562 1.355 . S
C563 C565 1.419 . S
C564 C562 1.415 . S
C564 C569 1.425 . S
C564 C571 1.409 . S
C565 H557 0.930 . S
C565 C563 1.419 . S
C565 C566 1.362 . S
C566 H558 0.930 . S
C566 C565 1.362 . S
C566 C569 1.409 . S
C567 H559 0.930 . S
C567 C568 1.355 . S
C567 C569 1.415 . S
C568 C567 1.355 . S
C568 C570 1.419 . S
C569 C564 1.425 . S
C569 C566 1.409 . S
C569 C567 1.415 . S
C570 H560 0.930 . S
C570 C568 1.419 . S
C570 C571 1.362 . S
C571 H561 0.930 . S
C571 C564 1.409 . S
C571 C570 1.362 . S
H572 C578 0.930 . S
H573 C581 0.930 . S
H574 C582 0.930 . S
H575 C583 0.930 . S
H576 C586 0.930 . S
H577 C587 0.930 . S
C578 H572 0.930 . S
C578 C579 1.355 . S
C578 C580 1.415 . S
C579 C578 1.355 . S
C579 C581 1.419 . S
C580 C578 1.415 . S
C580 C585 1.425 . S
C580 C587 1.409 . S
C581 H573 0.930 . S
C581 C579 1.419 . S
C581 C582 1.362 . S
C582 H574 0.930 . S
C582 C581 1.362 . S
C582 C585 1.409 . S
C583 H575 0.930 . S
C583 C584 1.355 . S
C583 C585 1.415 . S
C584 C583 1.355 . S
C584 C586 1.419 . S
C585 C580 1.425 . S
C585 C582 1.409 . S
C585 C583 1.415 . S
C586 H576 0.930 . S
C586 C584 1.419 . S
C586 C587 1.362 . S
C587 H577 0.930 . S
C587 C580 1.409 . S
C587 C586 1.362 . S
H588 C594 0.930 . S
H589 C597 0.930 . S
H590 C598 0.930 . S
H591 C599 0.930 . S
H592 C602 0.930 . S
H593 C603 0.930 . S
C594 H588 0.930 . S
C594 C595 1.355 . S
C594 C596 1.415 . S
C595 C594 1.355 . S
C595 C597 1.419 . S
C596 C594 1.415 . S
C596 C601 1.425 . S
C596 C603 1.409 . S
C597 H589 0.930 . S
C597 C595 1.419 . S
C597 C598 1.362 . S
C598 H590 0.930 . S
C598 C597 1.362 . S
C598 C601 1.409 . S
C599 H591 0.930 . S
C599 C600 1.355 . S
C599 C601 1.415 . S
C600 C599 1.355 . S
C600 C602 1.419 . S
C601 C596 1.425 . S
C601 C598 1.409 . S
C601 C599 1.415 . S
C602 H592 0.930 . S
C602 C600 1.419 . S
C602 C603 1.362 . S
C603 H593 0.930 . S
C603 C596 1.409 . S
C603 C602 1.362 . S
H604 C610 0.930 . S
H605 C613 0.930 . S
H606 C614 0.930 . S
H607 C615 0.930 . S
H608 C618 0.930 . S
H609 C619 0.930 . S
C610 H604 0.930 . S
C610 C611 1.355 . S
C610 C612 1.415 . S
C611 C610 1.355 . S
C611 C613 1.419 . S
C612 C610 1.415 . S
C612 C617 1.425 . S
C612 C619 1.409 . S
C613 H605 0.930 . S
C613 C611 1.419 . S
C613 C614 1.362 . S
C614 H606 0.930 . S
C614 C613 1.362 . S
C614 C617 1.409 . S
C615 H607 0.930 . S
C615 C616 1.355 . S
C615 C617 1.415 . S
C616 C615 1.355 . S
C616 C618 1.419 . S
C617 C612 1.425 . S
C617 C614 1.409 . S
C617 C615 1.415 . S
C618 H608 0.930 . S
C618 C616 1.419 . S
C618 C619 1.362 . S
C619 H609 0.930 . S
C619 C612 1.409 . S
C619 C618 1.362 . S
H620 C626 0.930 . S
H621 C629 0.930 . S
H622 C630 0.930 . S
H623 C631 0.930 . S
H624 C634 0.930 . S
H625 C635 0.930 . S
C626 H620 0.930 . S
C626 C627 1.355 . S
C626 C628 1.415 . S
C627 C626 1.355 . S
C627 C629 1.419 . S
C628 C626 1.415 . S
C628 C633 1.425 . S
C628 C635 1.409 . S
C629 H621 0.930 . S
C629 C627 1.419 . S
C629 C630 1.362 . S
C630 H622 0.930 . S
C630 C629 1.362 . S
C630 C633 1.409 . S
C631 H623 0.930 . S
C631 C632 1.355 . S
C631 C633 1.415 . S
C632 C631 1.355 . S
C632 C634 1.419 . S
C633 C628 1.425 . S
C633 C630 1.409 . S
C633 C631 1.415 . S
C634 H624 0.930 . S
C634 C632 1.419 . S
C634 C635 1.362 . S
C635 H625 0.930 . S
C635 C628 1.409 . S
C635 C634 1.362 . S
H636 C642 0.930 . S
H637 C645 0.930 . S
H638 C646 0.930 . S
H639 C647 0.930 . S
H640 C650 0.930 . S
H641 C651 0.930 . S
C642 H636 0.930 . S
C642 C643 1.355 . S
C642 C644 1.415 . S
C643 C642 1.355 . S
C643 C645 1.419 . S
C644 C642 1.415 . S
C644 C649 1.425 . S
C644 C651 1.409 . S
C645 H637 0.930 . S
C645 C643 1.419 . S
C645 C646 1.362 . S
C646 H638 0.930 . S
C646 C645 1.362 . S
C646 C649 1.409 . S
C647 H639 0.930 . S
C647 C648 1.355 . S
C647 C649 1.415 . S
C648 C647 1.355 . S
C648 C650 1.419 . S
C649 C644 1.425 . S
C649 C646 1.409 . S
C649 C647 1.415 . S
C650 H640 0.930 . S
C650 C648 1.419 . S
C650 C651 1.362 . S
C651 H641 0.930 . S
C651 C644 1.409 . S
C651 C650 1.362 . S
H652 C658 0.930 . S
H653 C661 0.930 . S
H654 C662 0.930 . S
H655 C663 0.930 . S
H656 C666 0.930 . S
H657 C667 0.930 . S
C658 H652 0.930 . S
C658 C659 1.355 . S
C658 C660 1.415 . S
C659 C658 1.355 . S
C659 C661 1.419 . S
C660 C658 1.415 . S
C660 C665 1.425 . S
C660 C667 1.409 . S
C661 H653 0.930 . S
C661 C659 1.419 . S
C661 C662 1.362 . S
C662 H654 0.930 . S
C662 C661 1.362 . S
C662 C665 1.409 . S
C663 H655 0.930 . S
C663 C664 1.355 . S
C663 C665 1.415 . S
C664 C663 1.355 . S
C664 C666 1.419 . S
C665 C660 1.425 . S
C665 C662 1.409 . S
C665 C663 1.415 . S
C666 H656 0.930 . S
C666 C664 1.419 . S
C666 C667 1.362 . S
C667 H657 0.930 . S
C667 C660 1.409 . S
C667 C666 1.362 . S
H668 C674 0.930 . S
H669 C677 0.930 . S
H670 C678 0.930 . S
H671 C679 0.930 . S
H672 C682 0.930 . S
H673 C683 0.930 . S
C674 H668 0.930 . S
C674 C675 1.355 . S
C674 C676 1.415 . S
C675 C674 1.355 . S
C675 C677 1.419 . S
C676 C674 1.415 . S
C676 C681 1.425 . S
C676 C683 1.409 . S
C677 H669 0.930 . S
C677 C675 1.419 . S
C677 C678 1.362 . S
C678 H670 0.930 . S
C678 C677 1.362 . S
C678 C681 1.409 . S
C679 H671 0.930 . S
C679 C680 1.355 . S
C679 C681 1.415 . S
C680 C679 1.355 . S
C680 C682 1.419 . S
C681 C676 1.425 . S
C681 C678 1.409 . S
C681 C679 1.415 . S
C682 H672 0.930 . S
C682 C680 1.419 . S
C682 C683 1.362 . S
C683 H673 0.930 . S
C683 C676 1.409 . S
C683 C682 1.362 . S
H684 C690 0.930 . S
H685 C693 0.930 . S
H686 C694 0.930 . S
H687 C695 0.930 . S
H688 C698 0.930 . S
H689 C699 0.930 . S
C690 H684 0.930 . S
C690 C691 1.355 . S
C690 C692 1.415 . S
C691 C690 1.355 . S
C691 C693 1.419 . S
C692 C690 1.415 . S
C692 C697 1.425 . S
C692 C699 1.409 . S
C693 H685 0.930 . S
C693 C691 1.419 . S
C693 C694 1.362 . S
C694 H686 0.930 . S
C694 C693 1.362 . S
C694 C697 1.409 . S
C695 H687 0.930 . S
C695 C696 1.355 . S
C695 C697 1.415 . S
C696 C695 1.355 . S
C696 C698 1.419 . S
C697 C692 1.425 . S
C697 C694 1.409 . S
C697 C695 1.415 . S
C698 H688 0.930 . S
C698 C696 1.419 . S
C698 C699 1.362 . S
C699 H689 0.930 . S
C699 C692 1.409 . S
C699 C698 1.362 . S
H700 C706 0.930 . S
H701 C709 0.930 . S
H702 C710 0.930 . S
H703 C711 0.930 . S
H704 C714 0.930 . S
H705 C715 0.930 . S
C706 H700 0.930 . S
C706 C707 1.355 . S
C706 C708 1.415 . S
C707 C706 1.355 . S
C707 C709 1.419 . S
C708 C706 1.415 . S
C708 C713 1.425 . S
C708 C715 1.409 . S
C709 H701 0.930 . S
C709 C707 1.419 . S
C709 C710 1.362 . S
C710 H702 0.930 . S
C710 C709 1.362 . S
C710 C713 1.409 . S
C711 H703 0.930 . S
C711 C712 1.355 . S
C711 C713 1.415 . S
C712 C711 1.355 . S
C712 C714 1.419 . S
C713 C708 1.425 . S
C713 C710 1.409 . S
C713 C711 1.415 . S
C714 H704 0.930 . S
C714 C712 1.419 . S
C714 C715 1.362 . S
C715 H705 0.930 . S
C715 C708 1.409 . S
C715 C714 1.362 . S
H716 C722 0.930 . S
H717 C725 0.930 . S
H718 C726 0.930 . S
H719 C727 0.930 . S
H720 C730 0.930 . S
H721 C731 0.930 . S
C722 H716 0.930 . S
C722 C723 1.355 . S
C722 C724 1.415 . S
C723 C722 1.355 . S
C723 C725 1.419 . S
C724 C722 1.415 . S
C724 C729 1.425 . S
C724 C731 1.409 . S
C725 H717 0.930 . S
C725 C723 1.419 . S
C725 C726 1.362 . S
C726 H718 0.930 . S
C726 C725 1.362 . S
C726 C729 1.409 . S
C727 H719 0.930 . S
C727 C728 1.355 . S
C727 C729 1.415 . S
C728 C727 1.355 . S
C728 C730 1.419 . S
C729 C724 1.425 . S
C729 C726 1.409 . S
C729 C727 1.415 . S
C730 H720 0.930 . S
C730 C728 1.419 . S
C730 C731 1.362 . S
C731 H721 0.930 . S
C731 C724 1.409 . S
C731 C730 1.362 . S
H732 C738 0.930 . S
H733 C741 0.930 . S
H734 C742 0.930 . S
H735 C743 0.930 . S
H736 C746 0.930 . S
H737 C747 0.930 . S
C738 H732 0.930 . S
C738 C739 1.355 . S
C738 C740 1.415 . S
C739 C738 1.355 . S
C739 C741 1.419 . S
C740 C738 1.415 . S
C740 C745 1.425 . S
C740 C747 1.409 . S
C741 H733 0.930 . S
C741 C739 1.419 . S
C741 C742 1.362 . S
C742 H734 0.930 . S
C742 C741 1.362 . S
C742 C745 1.409 . S
C743 H735 0.930 . S
C743 C744 1.355 . S
C743 C745 1.415 . S
C744 C743 1.355 . S
C744 C746 1.419 . S
C745 C740 1.425 . S
C745 C742 1.409 . S
C745 C743 1.415 . S
C746 H736 0.930 . S
C746 C744 1.419 . S
C746 C747 1.362 . S
C747 H737 0.930 . S
C747 C740 1.409 . S
C747 C746 1.362 . S
H748 C754 0.930 . S
H749 C757 0.930 . S
H750 C758 0.930 . S
H751 C759 0.930 . S
H752 C762 0.930 . S
H753 C763 0.930 1_545 S
C754 H748 0.930 . S
C754 C755 1.355 . S
C754 C756 1.415 . S
C755 C754 1.355 . S
C755 C757 1.419 . S
C756 C754 1.415 . S
C756 C761 1.425 1_545 S
C756 C763 1.409 1_545 S
C757 H749 0.930 . S
C757 C755 1.419 . S
C757 C758 1.362 1_545 S
C758 H750 0.930 . S
C758 C757 1.362 1_565 S
C758 C761 1.409 . S
C759 H751 0.930 . S
C759 C760 1.355 . S
C759 C761 1.415 . S
C760 C759 1.355 . S
C760 C762 1.419 . S
C761 C756 1.425 1_565 S
C761 C758 1.409 . S
C761 C759 1.415 . S
C762 H752 0.930 . S
C762 C760 1.419 . S
C762 C763 1.362 . S
C763 H753 0.930 1_565 S
C763 C756 1.409 1_565 S
C763 C762 1.362 . S
H764 C770 0.930 . S
H765 C773 0.930 . S
H766 C774 0.930 . S
H767 C775 0.930 . S
H768 C778 0.930 . S
H769 C779 0.930 . S
C770 H764 0.930 . S
C770 C771 1.355 . S
C770 C772 1.415 . S
C771 C770 1.355 . S
C771 C773 1.419 . S
C772 C770 1.415 . S
C772 C777 1.425 . S
C772 C779 1.409 1_455 S
C773 H765 0.930 . S
C773 C771 1.419 . S
C773 C774 1.362 . S
C774 H766 0.930 . S
C774 C773 1.362 . S
C774 C777 1.409 . S
C775 H767 0.930 . S
C775 C776 1.355 1_455 S
C775 C777 1.415 . S
C776 C775 1.355 1_655 S
C776 C778 1.419 . S
C777 C772 1.425 . S
C777 C774 1.409 . S
C777 C775 1.415 . S
C778 H768 0.930 . S
C778 C776 1.419 . S
C778 C779 1.362 . S
C779 H769 0.930 . S
C779 C772 1.409 1_655 S
C779 C778 1.362 . S
H780 C786 0.930 . S
H781 C789 0.930 . S
H782 C790 0.930 1_554 S
H783 C791 0.930 . S
H784 C794 0.930 . S
H785 C795 0.930 . S
C786 H780 0.930 . S
C786 C787 1.355 . S
C786 C788 1.415 . S
C787 C786 1.355 . S
C787 C789 1.419 . S
C788 C786 1.415 . S
C788 C793 1.425 . S
C788 C795 1.409 . S
C789 H781 0.930 . S
C789 C787 1.419 . S
C789 C790 1.362 . S
C790 H782 0.930 1_556 S
C790 C789 1.362 . S
C790 C793 1.409 . S
C791 H783 0.930 . S
C791 C792 1.355 1_554 S
C791 C793 1.415 1_554 S
C792 C791 1.355 1_556 S
C792 C794 1.419 . S
C793 C788 1.425 . S
C793 C790 1.409 . S
C793 C791 1.415 1_556 S
C794 H784 0.930 . S
C794 C792 1.419 . S
C794 C795 1.362 . S
C795 H785 0.930 . S
C795 C788 1.409 . S
C795 C794 1.362 . S
H796 C802 0.930 . S
H797 C805 0.930 . S
H798 C806 0.930 . S
H799 C807 0.930 . S
H800 C810 0.930 . S
H801 C811 0.930 1_556 S
C802 H796 0.930 . S
C802 C803 1.355 . S
C802 C804 1.415 1_566 S
C803 C802 1.355 . S
C803 C805 1.419 1_556 S
C804 C802 1.415 1_544 S
C804 C809 1.425 . S
C804 C811 1.409 . S
C805 H797 0.930 . S
C805 C803 1.419 1_554 S
C805 C806 1.362 . S
C806 H798 0.930 . S
C806 C805 1.362 . S
C806 C809 1.409 1_565 S
C807 H799 0.930 . S
C807 C808 1.355 . S
C807 C809 1.415 . S
C808 C807 1.355 . S
C808 C810 1.419 . S
C809 C804 1.425 . S
C809 C806 1.409 1_545 S
C809 C807 1.415 . S
C810 H800 0.930 . S
C810 C808 1.419 . S
C810 C811 1.362 . S
C811 H801 0.930 1_554 S
C811 C804 1.409 . S
C811 C810 1.362 . S
H812 C818 0.930 . S
H813 C821 0.930 . S
H814 C822 0.930 . S
H815 C823 0.934 1_556 S
H816 C826 0.930 . S
H817 C827 0.930 . S
C818 H812 0.930 . S
C818 C819 1.355 1_554 S
C818 C820 1.415 . S
C819 C818 1.355 1_556 S
C819 C821 1.419 . S
C820 C818 1.415 . S
C820 C825 1.425 1_554 S
C820 C827 1.409 . S
C821 H813 0.930 . S
C821 C819 1.419 . S
C821 C822 1.362 . S
C822 H814 0.930 . S
C822 C821 1.362 . S
C822 C825 1.409 . S
C823 H815 0.934 1_554 S
C823 C824 1.353 . S
C823 C825 1.412 1_654 S
C824 C823 1.353 . S
C824 C826 1.419 1_655 S
C825 C820 1.425 1_556 S
C825 C822 1.409 . S
C825 C823 1.412 1_456 S
C826 H816 0.930 . S
C826 C824 1.419 1_455 S
C826 C827 1.362 . S
C827 H817 0.930 . S
C827 C820 1.409 . S
C827 C826 1.362 . S
C259 C9 1.464 . S
C264 C205 1.473 1_554 S
C275 C174 1.287 1_554 S
C280 C20 1.228 . S
C291 C34 1.065 1_565 S
C296 C191 1.158 . S
C307 C93 1.616 . S
C312 C37 1.608 . S
C323 C107 1.486 . S
C328 C6 1.522 1_655 S
C339 C121 1.485 . S
C344 C23 1.491 . S
C355 C48 1.387 . S
C360 C163 1.449 1_556 S
C371 C135 1.551 1_556 S
C376 C65 1.553 . S
C387 C146 1.191 1_556 S
C392 C76 1.137 . S
C403 C79 1.497 . S
C408 C216 1.430 . S
C419 C51 1.245 . S
C424 C233 1.263 . S
C435 C244 1.078 . S
C440 C62 1.006 . S
C451 C177 1.191 . S
C456 C118 1.163 . S
C467 C90 1.176 . S
C472 C188 1.126 . S
C483 C202 0.857 . S
C488 C104 0.797 1_455 S
C499 C247 1.188 . S
C504 C132 1.183 . S
C515 C149 1.325 . S
C520 C219 1.326 . S
C531 C230 0.996 . S
C536 C160 0.980 . S
C547 C217 1.969 . S
C552 C8 1.654 . S
C563 C21 1.771 . S
C568 C232 1.523 . S
C579 C35 1.676 . S
C584 C245 1.687 . S
C595 C36 1.587 . S
C600 C162 1.584 . S
C611 C134 1.713 . S
C616 C7 1.976 . S
C627 C22 1.601 . S
C632 C147 1.862 . S
C643 C92 1.563 . S
C648 C49 1.848 . S
C659 C106 1.613 . S
C664 C64 1.592 . S
C675 C77 1.853 . S
C680 C120 1.581 . S
C691 C78 1.728 . S
C696 C204 1.742 . S
C707 C50 1.565 . S
C712 C175 1.762 . S
C723 C63 1.924 . S
C728 C190 1.700 . S
C739 C119 1.817 . S
C744 C246 1.632 . S
C755 C91 1.883 . S
C760 C218 1.586 . S
C771 C231 1.850 . S
C776 C105 1.855 . S
C787 C176 1.568 . S
C792 C133 1.795 1_556 S
C803 C189 1.811 . S
C808 C148 1.551 . S
C819 C203 1.819 . S
C824 C161 1.820 . S
