# Generated by pormake.
# Topology uob, (4)-cn, num edge types: 1
# Building blocks:
#     Node 0, Type 0, BuildingBlock: QUQFOY_clean_sbu_1, # of connection points: 4
#     Node 1, Type 0, BuildingBlock: QUQFOY_clean_sbu_1, # of connection points: 4
#     Node 2, Type 0, BuildingBlock: QUQFOY_clean_sbu_1, # of connection points: 4
#     Node 3, Type 0, BuildingBlock: QUQFOY_clean_sbu_1, # of connection points: 4
#     Node 4, Type 0, BuildingBlock: QUQFOY_clean_sbu_1, # of connection points: 4
#     Node 5, Type 0, BuildingBlock: QUQFOY_clean_sbu_1, # of connection points: 4
#     Node 6, Type 0, BuildingBlock: QUQFOY_clean_sbu_1, # of connection points: 4
#     Node 7, Type 0, BuildingBlock: QUQFOY_clean_sbu_1, # of connection points: 4
#     Node 8, Type 0, BuildingBlock: QUQFOY_clean_sbu_1, # of connection points: 4
#     Node 9, Type 0, BuildingBlock: QUQFOY_clean_sbu_1, # of connection points: 4
#     Node 10, Type 0, BuildingBlock: QUQFOY_clean_sbu_1, # of connection points: 4
#     Node 11, Type 0, BuildingBlock: QUQFOY_clean_sbu_1, # of connection points: 4
#     Node 12, Type 0, BuildingBlock: QUQFOY_clean_sbu_1, # of connection points: 4
#     Node 13, Type 0, BuildingBlock: QUQFOY_clean_sbu_1, # of connection points: 4
#     Node 14, Type 0, BuildingBlock: QUQFOY_clean_sbu_1, # of connection points: 4
#     Node 15, Type 0, BuildingBlock: QUQFOY_clean_sbu_1, # of connection points: 4
#     Edge 16, Type (0, 0), BuildingBlock: KIFKEQ_clean_linker_1, # of connection points: 2
#     Edge 17, Type (0, 0), BuildingBlock: KIFKEQ_clean_linker_1, # of connection points: 2
#     Edge 18, Type (0, 0), BuildingBlock: KIFKEQ_clean_linker_1, # of connection points: 2
#     Edge 19, Type (0, 0), BuildingBlock: KIFKEQ_clean_linker_1, # of connection points: 2
#     Edge 20, Type (0, 0), BuildingBlock: KIFKEQ_clean_linker_1, # of connection points: 2
#     Edge 21, Type (0, 0), BuildingBlock: KIFKEQ_clean_linker_1, # of connection points: 2
#     Edge 22, Type (0, 0), BuildingBlock: KIFKEQ_clean_linker_1, # of connection points: 2
#     Edge 23, Type (0, 0), BuildingBlock: KIFKEQ_clean_linker_1, # of connection points: 2
#     Edge 24, Type (0, 0), BuildingBlock: KIFKEQ_clean_linker_1, # of connection points: 2
#     Edge 25, Type (0, 0), BuildingBlock: KIFKEQ_clean_linker_1, # of connection points: 2
#     Edge 26, Type (0, 0), BuildingBlock: KIFKEQ_clean_linker_1, # of connection points: 2
#     Edge 27, Type (0, 0), BuildingBlock: KIFKEQ_clean_linker_1, # of connection points: 2
#     Edge 28, Type (0, 0), BuildingBlock: KIFKEQ_clean_linker_1, # of connection points: 2
#     Edge 29, Type (0, 0), BuildingBlock: KIFKEQ_clean_linker_1, # of connection points: 2
#     Edge 30, Type (0, 0), BuildingBlock: KIFKEQ_clean_linker_1, # of connection points: 2
#     Edge 31, Type (0, 0), BuildingBlock: KIFKEQ_clean_linker_1, # of connection points: 2
#     Edge 32, Type (0, 0), BuildingBlock: KIFKEQ_clean_linker_1, # of connection points: 2
#     Edge 33, Type (0, 0), BuildingBlock: KIFKEQ_clean_linker_1, # of connection points: 2
#     Edge 34, Type (0, 0), BuildingBlock: KIFKEQ_clean_linker_1, # of connection points: 2
#     Edge 35, Type (0, 0), BuildingBlock: KIFKEQ_clean_linker_1, # of connection points: 2
#     Edge 36, Type (0, 0), BuildingBlock: KIFKEQ_clean_linker_1, # of connection points: 2
#     Edge 37, Type (0, 0), BuildingBlock: KIFKEQ_clean_linker_1, # of connection points: 2
#     Edge 38, Type (0, 0), BuildingBlock: KIFKEQ_clean_linker_1, # of connection points: 2
#     Edge 39, Type (0, 0), BuildingBlock: KIFKEQ_clean_linker_1, # of connection points: 2
#     Edge 40, Type (0, 0), BuildingBlock: KIFKEQ_clean_linker_1, # of connection points: 2
#     Edge 41, Type (0, 0), BuildingBlock: KIFKEQ_clean_linker_1, # of connection points: 2
#     Edge 42, Type (0, 0), BuildingBlock: KIFKEQ_clean_linker_1, # of connection points: 2
#     Edge 43, Type (0, 0), BuildingBlock: KIFKEQ_clean_linker_1, # of connection points: 2
#     Edge 44, Type (0, 0), BuildingBlock: KIFKEQ_clean_linker_1, # of connection points: 2
#     Edge 45, Type (0, 0), BuildingBlock: KIFKEQ_clean_linker_1, # of connection points: 2
#     Edge 46, Type (0, 0), BuildingBlock: KIFKEQ_clean_linker_1, # of connection points: 2
#     Edge 47, Type (0, 0), BuildingBlock: KIFKEQ_clean_linker_1, # of connection points: 2
# Relax obj value: 0.047
# Max RMSD: 0.119
# Mean RMSD: 0.119
data_MOF--net-uob--node1-QUQFOY_clean_sbu_1--edge1-KIFKEQ_clean_linker_1
_symmetry_space_group_name_H-M    P1
_symmetry_Int_Tables_number       1
_symmetry_cell_setting            triclinic
loop_
_symmetry_equiv_pos_as_xyz
'x, y, z'
_cell_length_a     56.764083
_cell_length_b     56.713482
_cell_length_c     28.770464
_cell_angle_alpha  90.031397
_cell_angle_beta   89.970778
_cell_angle_gamma 89.960239
loop_
_atom_site_label
_atom_site_type_symbol
_atom_site_fract_x
_atom_site_fract_y
_atom_site_fract_z
_atom_type_partial_charge
O0 O 0.14212 0.07833 0.39577 0.0
Cd1 Cd 0.14161 0.04968 0.35219 0.0
Cd2 Cd 0.12168 0.08861 0.29631 0.0
O3 O 0.13142 0.10888 0.35284 0.0
O4 O 0.15903 0.0267 0.39248 0.0
O5 O 0.17376 0.04069 0.32717 0.0
C6 C 0.17683 0.02882 0.36503 0.0
C7 C 0.12544 0.10288 0.22002 0.0
C8 C 0.13878 0.10032 0.39099 0.0
C9 C 0.09108 0.0456 0.32029 0.0
O10 O 0.09323 0.06659 0.30538 0.0
O11 O 0.10879 0.03459 0.33697 0.0
O12 O 0.10981 0.1111 0.24819 0.0
O13 O 0.13987 0.0872 0.23584 0.0
O14 O 0.9437 0.6413 0.64842 0.0
Cd15 Cd 0.97096 0.64122 0.60147 0.0
Cd16 Cd 0.93161 0.62225 0.54882 0.0
O17 O 0.91239 0.63154 0.60694 0.0
O18 O 0.99477 0.65966 0.63771 0.0
O19 O 0.97797 0.67326 0.57397 0.0
C20 C 0.99109 0.67709 0.60991 0.0
C21 C 0.91619 0.6271 0.47386 0.0
C22 C 0.92162 0.63827 0.64491 0.0
C23 C 0.97473 0.5911 0.56753 0.0
O24 O 0.95343 0.59343 0.5547 0.0
O25 O 0.98607 0.60866 0.58397 0.0
O26 O 0.90822 0.61125 0.50178 0.0
O27 O 0.93226 0.64119 0.48935 0.0
O28 O 0.38267 0.44869 0.90238 0.0
Cd29 Cd 0.37932 0.47017 0.84563 0.0
Cd30 Cd 0.39532 0.43054 0.80639 0.0
O31 O 0.38111 0.41481 0.8652 0.0
O32 O 0.3582 0.49555 0.87027 0.0
O33 O 0.34669 0.46902 0.81864 0.0
C34 C 0.34129 0.48573 0.84738 0.0
C35 C 0.38916 0.41731 0.73026 0.0
C36 C 0.37988 0.42648 0.9029 0.0
C37 C 0.42863 0.47135 0.81554 0.0
O38 O 0.4264 0.44904 0.81522 0.0
O39 O 0.41048 0.48446 0.81966 0.0
O40 O 0.40234 0.40575 0.75882 0.0
O41 O 0.37827 0.43573 0.74586 0.0
O42 O 0.57697 0.87737 0.13949 0.0
Cd43 Cd 0.54829 0.87736 0.09612 0.0
Cd44 Cd 0.58666 0.89721 0.03889 0.0
O45 O 0.60707 0.8885 0.09579 0.0
O46 O 0.52557 0.85942 0.13607 0.0
O47 O 0.53993 0.84514 0.07062 0.0
C48 C 0.52801 0.84175 0.10832 0.0
C49 C 0.60161 0.89331 0.96311 0.0
C50 C 0.59884 0.88119 0.13425 0.0
C51 C 0.54336 0.92761 0.06265 0.0
O52 O 0.56414 0.9254 0.04669 0.0
O53 O 0.53278 0.91004 0.08095 0.0
O54 O 0.60917 0.90933 0.9911 0.0
O55 O 0.58617 0.8786 0.97883 0.0
O56 O 0.13699 0.4506 0.9339 0.0
Cd57 Cd 0.14093 0.47292 0.98909 0.0
Cd58 Cd 0.12477 0.43315 0.03216 0.0
O59 O 0.13662 0.41683 0.97176 0.0
O60 O 0.16239 0.49749 0.96258 0.0
O61 O 0.17361 0.47171 0.01588 0.0
C62 C 0.1792 0.48783 0.98603 0.0
C63 C 0.13009 0.41738 0.10681 0.0
C64 C 0.13838 0.42826 0.93384 0.0
C65 C 0.09218 0.4755 0.0232 0.0
O66 O 0.09449 0.45328 0.02724 0.0
O67 O 0.11007 0.48826 0.01398 0.0
O68 O 0.11547 0.40819 0.0777 0.0
O69 O 0.14299 0.43469 0.09244 0.0
O70 O 0.57657 0.64075 0.20223 0.0
Cd71 Cd 0.5477 0.64146 0.24527 0.0
Cd72 Cd 0.58567 0.6212 0.30341 0.0
O73 O 0.60632 0.62923 0.24649 0.0
O74 O 0.52534 0.65955 0.20477 0.0
O75 O 0.53965 0.6739 0.27016 0.0
C76 C 0.52785 0.67728 0.23233 0.0
C77 C 0.60078 0.62487 0.37908 0.0
C78 C 0.59835 0.63652 0.20781 0.0
C79 C 0.5419 0.59151 0.27986 0.0
O80 O 0.56267 0.59345 0.29593 0.0
O81 O 0.53164 0.60914 0.26109 0.0
O82 O 0.60796 0.60865 0.35113 0.0
O83 O 0.58564 0.6399 0.36339 0.0
O84 O 0.37691 0.07609 0.45491 0.0
Cd85 Cd 0.37622 0.04917 0.50218 0.0
Cd86 Cd 0.39562 0.08898 0.5534 0.0
O87 O 0.38482 0.10811 0.49565 0.0
O88 O 0.35833 0.02541 0.46453 0.0
O89 O 0.34375 0.04188 0.52774 0.0
C90 C 0.3405 0.02889 0.49138 0.0
C91 C 0.39218 0.10388 0.62948 0.0
C92 C 0.37904 0.09832 0.45751 0.0
C93 C 0.42659 0.04571 0.53238 0.0
O94 O 0.42449 0.0672 0.54444 0.0
O95 O 0.40868 0.03403 0.51863 0.0
O96 O 0.40738 0.11219 0.60052 0.0
O97 O 0.37791 0.08784 0.61453 0.0
O98 O 0.94094 0.87752 0.68964 0.0
Cd99 Cd 0.96896 0.87834 0.73473 0.0
Cd100 Cd 0.93 0.89825 0.78843 0.0
O101 O 0.9101 0.88825 0.73166 0.0
O102 O 0.99243 0.86027 0.69679 0.0
O103 O 0.97733 0.84652 0.762 0.0
C104 C 0.98981 0.84287 0.72509 0.0
C105 C 0.91569 0.8941 0.86452 0.0
C106 C 0.91893 0.8808 0.6938 0.0
C107 C 0.97281 0.92906 0.76552 0.0
O108 O 0.9517 0.92697 0.77971 0.0
O109 O 0.98397 0.91124 0.74963 0.0
O110 O 0.90729 0.9097 0.83652 0.0
O111 O 0.93158 0.8799 0.8486 0.0
O112 O 0.6419 0.57508 0.8955 0.0
Cd113 Cd 0.64267 0.54797 0.84791 0.0
Cd114 Cd 0.622 0.58701 0.79755 0.0
O115 O 0.63185 0.60654 0.85469 0.0
O116 O 0.66099 0.52434 0.88494 0.0
O117 O 0.67513 0.54127 0.82183 0.0
C118 C 0.67867 0.52816 0.85789 0.0
C119 C 0.62571 0.60178 0.72178 0.0
C120 C 0.63863 0.59717 0.89248 0.0
C121 C 0.5923 0.54333 0.81741 0.0
O122 O 0.59358 0.56503 0.80671 0.0
O123 O 0.61063 0.53198 0.83005 0.0
O124 O 0.61016 0.60989 0.75024 0.0
O125 O 0.6401 0.58591 0.73707 0.0
O126 O 0.4461 0.14147 0.14736 0.0
Cd127 Cd 0.47184 0.1429 0.0977 0.0
Cd128 Cd 0.43167 0.12484 0.04881 0.0
O129 O 0.41338 0.1361 0.10739 0.0
O130 O 0.49607 0.16122 0.13323 0.0
O131 O 0.47754 0.17568 0.0722 0.0
C132 C 0.49129 0.17913 0.10737 0.0
C133 C 0.41661 0.12889 0.97307 0.0
C134 C 0.42379 0.14055 0.14556 0.0
C135 C 0.47448 0.0929 0.06603 0.0
O136 O 0.45274 0.09534 0.05645 0.0
O137 O 0.48675 0.11066 0.07853 0.0
O138 O 0.4079 0.11395 1.00209 0.0
O139 O 0.43311 0.14267 0.9879 0.0
O140 O 0.87614 0.93936 0.38486 0.0
Cd141 Cd 0.87661 0.96868 0.34308 0.0
Cd142 Cd 0.89742 0.93083 0.28514 0.0
O143 O 0.88833 0.90976 0.34084 0.0
O144 O 0.85888 0.99099 0.38441 0.0
O145 O 0.8446 0.97806 0.3179 0.0
C146 C 0.8413 0.9894 0.35633 0.0
C147 C 0.8939 0.91684 0.20858 0.0
C148 C 0.88032 0.91757 0.37912 0.0
C149 C 0.92729 0.97393 0.31218 0.0
O150 O 0.92542 0.95332 0.29515 0.0
O151 O 0.90943 0.98425 0.32998 0.0
O152 O 0.90984 0.90897 0.23639 0.0
O153 O 0.87911 0.93209 0.22482 0.0
O154 O 0.07833 0.37734 0.62514 0.0
Cd155 Cd 0.05036 0.37659 0.58032 0.0
Cd156 Cd 0.08938 0.39692 0.52592 0.0
O157 O 0.10937 0.38711 0.58302 0.0
O158 O 0.0274 0.35907 0.62052 0.0
O159 O 0.04214 0.34403 0.55614 0.0
C160 C 0.02998 0.34109 0.59367 0.0
C161 C 0.10433 0.39376 0.44984 0.0
C162 C 0.10037 0.38053 0.62139 0.0
C163 C 0.04576 0.42703 0.54966 0.0
O164 O 0.0669 0.42519 0.53532 0.0
O165 O 0.03479 0.40905 0.56522 0.0
O166 O 0.112 0.40941 0.47852 0.0
O167 O 0.08879 0.37899 0.46498 0.0
O168 O 0.64093 0.94254 0.44452 0.0
Cd169 Cd 0.64105 0.97062 0.48958 0.0
Cd170 Cd 0.62153 0.93172 0.5448 0.0
O171 O 0.6305 0.91184 0.48725 0.0
O172 O 0.65925 0.99383 0.45124 0.0
O173 O 0.67324 0.97823 0.5158 0.0
C174 C 0.67682 0.99073 0.4789 0.0
C175 C 0.62563 0.91652 0.62026 0.0
C176 C 0.63749 0.92055 0.44896 0.0
C177 C 0.59097 0.97514 0.52351 0.0
O178 O 0.59317 0.95406 0.53789 0.0
O179 O 0.60854 0.98607 0.50609 0.0
O180 O 0.60975 0.90881 0.59215 0.0
O181 O 0.64015 0.9322 0.60475 0.0
O182 O 0.07974 0.14358 0.69959 0.0
Cd183 Cd 0.05027 0.14335 0.74091 0.0
Cd184 Cd 0.08823 0.1224 0.7995 0.0
O185 O 0.1093 0.13142 0.74366 0.0
O186 O 0.02818 0.16056 0.6984 0.0
O187 O 0.04066 0.17564 0.76456 0.0
C188 C 0.02957 0.17848 0.72574 0.0
C189 C 0.10231 0.12563 0.87609 0.0
C190 C 0.1015 0.13938 0.70534 0.0
C191 C 0.0449 0.09276 0.77259 0.0
O192 O 0.0655 0.09457 0.78955 0.0
O193 O 0.03466 0.11061 0.75459 0.0
O194 O 0.11004 0.1097 0.84803 0.0
O195 O 0.08718 0.14059 0.86006 0.0
O196 O 0.87766 0.57942 0.95488 0.0
Cd197 Cd 0.87754 0.55041 0.99747 0.0
Cd198 Cd 0.89754 0.58863 0.05572 0.0
O199 O 0.88944 0.60923 0.99876 0.0
O200 O 0.86025 0.52787 0.95609 0.0
O201 O 0.84527 0.54136 0.02165 0.0
C202 C 0.84237 0.52973 0.98344 0.0
C203 C 0.89345 0.60378 0.13124 0.0
C204 C 0.88189 0.60122 0.96031 0.0
C205 C 0.92754 0.54503 0.0321 0.0
O206 O 0.92543 0.56572 0.04862 0.0
O207 O 0.91006 0.53479 0.01284 0.0
O208 O 0.90973 0.61104 0.10356 0.0
O209 O 0.87862 0.58851 0.11535 0.0
O210 O 0.43844 0.37734 0.21062 0.0
Cd211 Cd 0.46665 0.37701 0.25483 0.0
Cd212 Cd 0.42768 0.39643 0.31018 0.0
O213 O 0.40745 0.38566 0.25408 0.0
O214 O 0.4897 0.36029 0.21338 0.0
O215 O 0.47583 0.34443 0.27769 0.0
C216 C 0.48771 0.34202 0.23964 0.0
C217 C 0.41434 0.39223 0.38715 0.0
C218 C 0.41633 0.37965 0.21525 0.0
C219 C 0.47003 0.42767 0.28573 0.0
O220 O 0.44885 0.42554 0.29964 0.0
O221 O 0.48145 0.40979 0.27078 0.0
O222 O 0.40474 0.40701 0.35891 0.0
O223 O 0.43097 0.37894 0.37113 0.0
H224 H 0.29847 0.03572 0.53677 0.0
H225 H 0.32804 1.00595 0.41143 0.0
H226 H 0.25892 0.03052 0.50508 0.0
H227 H 0.28852 1.0007 0.3799 0.0
H228 H 0.18894 1.00772 0.44709 0.0
H229 H 0.22838 1.00255 0.47906 0.0
H230 H 0.2584 0.02845 0.351 0.0
H231 H 0.21893 0.03355 0.31888 0.0
C232 C 0.29654 0.02753 0.50297 0.0
C233 C 0.3165 0.02137 0.47667 0.0
C234 C 0.27383 0.02452 0.48474 0.0
C235 C 0.27051 0.01541 0.43965 0.0
C236 C 0.29042 1.00809 0.41441 0.0
C237 C 0.31311 0.01093 0.43275 0.0
C238 C 0.20393 0.01184 0.42528 0.0
C239 C 0.20069 0.02117 0.38038 0.0
C240 C 0.22658 1.00905 0.44384 0.0
C241 C 0.2466 0.01533 0.41789 0.0
C242 C 0.24341 0.02328 0.37193 0.0
C243 C 0.22073 0.02623 0.35345 0.0
H244 H 0.01178 0.82943 0.64472 0.0
H245 H 0.9847 0.80156 0.77379 0.0
H246 H 0.01738 0.78944 0.61554 0.0
H247 H 0.99027 0.76153 0.74447 0.0
H248 H 0.98443 0.71829 0.56163 0.0
H249 H 0.98939 0.75841 0.5908 0.0
H250 H 0.01865 0.73106 0.71833 0.0
H251 H 0.01368 0.69096 0.68929 0.0
C252 C 1.00749 0.81479 0.66733 0.0
C253 C 0.99767 0.81878 0.71161 0.0
C254 C 0.01053 0.79184 0.65037 0.0
C255 C 1.00404 0.77225 0.67738 0.0
C256 C 0.99561 0.77619 0.72279 0.0
C257 C 0.99239 0.79918 0.73965 0.0
C258 C 0.99245 0.72083 0.59541 0.0
C259 C 0.99854 0.70134 0.62311 0.0
C260 C 0.99532 0.74387 0.61218 0.0
C261 C 1.00419 0.74798 0.65718 0.0
C262 C 0.01146 0.72853 0.68382 0.0
C263 C 1.00877 0.70552 0.66693 0.0
H264 H 0.30328 0.45725 0.83333 0.0
H265 H 0.32327 0.52399 0.89392 0.0
H266 H 0.26463 0.46032 0.87027 0.0
H267 H 0.28416 0.52728 0.92983 0.0
H268 H 0.19762 0.5251 0.93725 0.0
H269 H 0.23676 0.52735 0.90116 0.0
H270 H 0.25556 0.4611 0.96456 0.0
H271 H 0.21688 0.45908 1.00167 0.0
C272 C 0.29922 0.47292 0.85334 0.0
C273 C 0.3164 0.4904 0.86058 0.0
C274 C 0.27716 0.47453 0.87491 0.0
C275 C 0.27157 0.49388 0.90336 0.0
C276 C 0.28809 0.51215 0.90818 0.0
C277 C 0.3104 0.51029 0.88743 0.0
C278 C 0.21034 0.51135 0.94452 0.0
C279 C 0.20413 0.49195 0.9725 0.0
C280 C 0.23267 0.51261 0.92368 0.0
C281 C 0.24899 0.49422 0.92955 0.0
C282 C 0.24318 0.47539 0.9591 0.0
C283 C 0.22111 0.47438 0.98075 0.0
H284 H 0.53377 0.79986 0.06175 0.0
H285 H 0.50627 0.82906 0.18942 0.0
H286 H 0.52875 0.76017 0.09295 0.0
H287 H 0.50112 0.78939 0.22043 0.0
H288 H 0.53353 0.71921 0.27875 0.0
H289 H 0.52855 0.75888 0.24742 0.0
H290 H 0.50135 0.7296 0.11972 0.0
H291 H 0.50647 0.68995 0.15087 0.0
C292 C 0.5261 0.79783 0.096 0.0
C293 C 0.52055 0.81772 0.12307 0.0
C294 C 0.52319 0.77503 0.11395 0.0
C295 C 0.51476 0.77154 0.15949 0.0
C296 C 0.50801 0.79141 0.18555 0.0
C297 C 0.51079 0.81418 0.16753 0.0
C298 C 0.52598 0.72122 0.24441 0.0
C299 C 0.52052 0.70132 0.21734 0.0
C300 C 0.52309 0.74402 0.22639 0.0
C301 C 0.51477 0.74748 0.18077 0.0
C302 C 0.50814 0.7276 0.15467 0.0
C303 C 0.5109 0.70483 0.17276 0.0
H304 H 0.69164 0.50467 0.93683 0.0
H305 H 0.72046 0.53601 0.81239 0.0
H306 H 0.7313 0.4998 0.96793 0.0
H307 H 0.76015 0.5312 0.84366 0.0
H308 H 0.80023 0.53356 0.02972 0.0
H309 H 0.76083 0.528 0.99753 0.0
H310 H 0.79124 0.50352 0.86866 0.0
H311 H 0.8306 0.50914 0.90068 0.0
C312 C 0.70645 0.51008 0.91561 0.0
C313 C 0.7028 0.52085 0.87211 0.0
C314 C 0.7292 0.50745 0.93369 0.0
C315 C 0.74893 0.51534 0.9086 0.0
C316 C 0.74538 0.52477 0.86385 0.0
C317 C 0.72259 0.52755 0.84588 0.0
C318 C 0.79853 0.52646 0.99493 0.0
C319 C 0.81864 0.52193 0.9678 0.0
C320 C 0.77591 0.52324 0.97642 0.0
C321 C 0.77284 0.51554 0.93026 0.0
C322 C 0.79295 0.5098 0.90405 0.0
C323 C 0.81554 0.51286 0.92264 0.0
H324 H 0.50783 0.3312 0.1559 0.0
H325 H 0.48447 0.29929 0.28414 0.0
H326 H 0.51368 0.29218 0.12212 0.0
H327 H 0.49031 0.26022 0.25023 0.0
H328 H 0.515 0.19192 0.1862 0.0
H329 H 0.51908 0.2314 0.21882 0.0
H330 H 0.48624 0.26077 0.09655 0.0
H331 H 0.48214 0.22125 0.0638 0.0
C332 C 0.5044 0.31588 0.17731 0.0
C333 C 0.49558 0.31845 0.22281 0.0
C334 C 0.50758 0.29347 0.1577 0.0
C335 C 0.50225 0.27302 0.1832 0.0
C336 C 0.49475 0.27557 0.22963 0.0
C337 C 0.49138 0.298 0.24914 0.0
C338 C 0.5091 0.20681 0.16571 0.0
C339 C 0.49814 0.20332 0.12234 0.0
C340 C 0.51127 0.22946 0.18469 0.0
C341 C 0.50276 0.24928 0.16063 0.0
C342 C 0.49313 0.24594 0.11598 0.0
C343 C 0.49077 0.22324 0.09714 0.0
H344 H 0.79947 0.98516 0.30916 0.0
H345 H 0.82884 0.01033 0.43843 0.0
H346 H 0.75984 0.99062 0.34034 0.0
H347 H 0.78925 0.01593 0.46942 0.0
H348 H 0.71847 0.98386 0.52544 0.0
H349 H 0.75825 0.98867 0.49471 0.0
H350 H 0.72973 0.01829 0.36846 0.0
H351 H 0.68996 0.01334 0.39901 0.0
C352 C 0.7975 0.99242 0.34378 0.0
C353 C 0.8174 0.99717 0.37128 0.0
C354 C 0.77473 0.99558 0.36172 0.0
C355 C 0.7713 1.00348 0.40767 0.0
C356 C 0.79121 1.00947 0.4342 0.0
C357 C 0.81395 1.00643 0.41621 0.0
C358 C 0.72068 0.99192 0.4916 0.0
C359 C 0.70095 0.99809 0.4647 0.0
C360 C 0.74354 0.99471 0.47392 0.0
C361 C 0.74723 1.00364 0.42881 0.0
C362 C 0.72754 0.01101 0.40299 0.0
C363 C 0.70471 1.00835 0.42076 0.0
H364 H 0.03625 0.29861 0.54954 0.0
H365 H 1.00738 0.32947 0.67448 0.0
H366 H 0.03096 0.25936 0.5826 0.0
H367 H 1.00193 0.29023 0.70734 0.0
H368 H 1.00872 0.18987 0.64304 0.0
H369 H 1.00352 0.22906 0.6098 0.0
H370 H 0.02903 0.2602 0.73715 0.0
H371 H 0.03407 0.22099 0.77059 0.0
C372 C 0.02822 0.29703 0.58355 0.0
C373 C 0.02237 0.31726 0.60934 0.0
C374 C 0.02516 0.27447 0.60257 0.0
C375 C 0.01625 0.27159 0.64794 0.0
C376 C 1.00919 0.29179 0.67266 0.0
C377 C 0.01214 0.31431 0.65356 0.0
C378 C 0.01275 0.20507 0.6644 0.0
C379 C 0.02194 0.20221 0.70951 0.0
C380 C 0.00994 0.22757 0.64511 0.0
C381 C 0.01612 0.24783 0.67048 0.0
C382 C 0.02393 0.24503 0.71663 0.0
C383 C 0.02685 0.2225 0.73587 0.0
H384 H 0.04963 0.06643 0.29515 0.0
H385 H 0.07818 1.00016 0.34347 0.0
H386 H 0.01036 0.0495 0.29415 0.0
H387 H 0.0385 0.98321 0.34271 0.0
H388 H 0.96885 0.9548 0.28266 0.0
H389 H 1.00808 0.97177 0.28588 0.0
H390 H 0.97948 0.03512 0.34723 0.0
H391 H 0.93987 0.01814 0.34379 0.0
C392 C 0.04759 0.0482 0.3056 0.0
C393 C 0.06723 0.03465 0.31927 0.0
C394 C 0.02494 0.03857 0.30537 0.0
C395 C 0.0212 0.01503 0.31851 0.0
C396 C 0.04079 1.00137 0.33203 0.0
C397 C 0.06353 0.01109 0.33259 0.0
C398 C 0.97078 0.9724 0.29678 0.0
C399 C 0.95104 0.98511 0.31289 0.0
C400 C 0.99341 0.98204 0.29897 0.0
C401 C 0.99701 1.00474 0.31705 0.0
C402 C 0.9773 0.01761 0.33279 0.0
C403 C 0.95459 1.00788 0.33089 0.0
H404 H 0.9539 0.55029 0.53864 0.0
H405 H 0.0202 0.57763 0.58907 0.0
H406 H 0.97074 0.51102 0.53422 0.0
H407 H 0.03706 0.53791 0.58499 0.0
H408 H 0.06538 0.4688 0.52237 0.0
H409 H 0.04863 0.50818 0.52713 0.0
H410 H 0.98463 0.47923 0.58468 0.0
H411 H 1.00133 0.43955 0.57956 0.0
C412 C 0.97212 0.54798 0.54886 0.0
C413 C 0.98569 0.56728 0.56419 0.0
C414 C 0.98171 0.52532 0.54662 0.0
C415 C 1.00521 0.52121 0.55944 0.0
C416 C 0.01893 0.54048 0.57448 0.0
C417 C 1.00925 0.56325 0.57697 0.0
C418 C 0.04767 0.4707 0.53589 0.0
C419 C 0.0347 0.45086 0.5505 0.0
C420 C 0.03816 0.4934 0.53898 0.0
C421 C 0.01534 0.49695 0.55653 0.0
C422 C 1.00221 0.47712 0.57063 0.0
C423 C 0.01179 0.45435 0.56775 0.0
H424 H 0.44167 0.51576 0.78766 0.0
H425 H 0.46995 0.45018 0.83933 0.0
H426 H 0.48128 0.53228 0.78509 0.0
H427 H 0.50925 0.46697 0.83986 0.0
H428 H 0.58123 0.49657 0.80324 0.0
H429 H 0.54194 0.47907 0.79923 0.0
H430 H 0.51113 0.5472 0.82945 0.0
H431 H 0.55004 0.56461 0.83029 0.0
C432 C 0.45635 0.50496 0.79887 0.0
C433 C 0.45264 0.48168 0.81361 0.0
C434 C 0.47914 0.51446 0.7978 0.0
C435 C 0.49878 0.50111 0.81258 0.0
C436 C 0.49489 0.47777 0.8273 0.0
C437 C 0.47221 0.46814 0.82735 0.0
C438 C 0.56598 0.50771 0.80888 0.0
C439 C 0.56875 0.53197 0.81675 0.0
C440 C 0.54338 0.4977 0.80686 0.0
C441 C 0.52303 0.51164 0.81375 0.0
C442 C 0.52607 0.53586 0.82256 0.0
C443 C 0.54853 0.54588 0.82351 0.0
H444 H 0.5621 0.9681 0.02714 0.0
H445 H 0.49983 0.9415 0.09585 0.0
H446 H 0.54566 1.0076 0.02797 0.0
H447 H 0.48339 0.98143 0.097 0.0
H448 H 0.45206 0.05159 0.0453 0.0
H449 H 0.46814 0.01186 0.04441 0.0
H450 H 0.53638 0.03925 0.08271 0.0
H451 H 0.52032 0.07929 0.08319 0.0
C452 C 0.54484 0.97061 0.04243 0.0
C453 C 0.53231 0.95145 0.06147 0.0
C454 C 0.5355 0.99341 0.04321 0.0
C455 C 0.51329 0.99781 0.06285 0.0
C456 C 0.50051 0.97866 0.08129 0.0
C457 C 0.50994 0.95575 0.08072 0.0
C458 C 0.47054 0.04926 0.05344 0.0
C459 C 0.4849 0.06879 0.06422 0.0
C460 C 0.4797 0.02636 0.05328 0.0
C461 C 0.50352 0.02227 0.06365 0.0
C462 C 0.51798 0.04177 0.07413 0.0
C463 C 0.50877 0.06474 0.07452 0.0
H464 H 0.07884 0.52197 0.01374 0.0
H465 H 0.05089 0.45248 0.04105 0.0
H466 H 0.03891 0.53814 0.01649 0.0
H467 H 0.01126 0.46864 0.04433 0.0
H468 H 0.94147 0.50235 0.99503 0.0
H469 H 0.98126 0.48572 0.99357 0.0
H470 H 1.00695 0.54562 0.07113 0.0
H471 H 0.96756 0.5623 0.07217 0.0
C472 C 0.06426 0.51017 0.02067 0.0
C473 C 0.06818 0.48592 0.02715 0.0
C474 C 0.04135 0.51943 0.02237 0.0
C475 C 0.02181 0.50466 0.03046 0.0
C476 C 0.0258 0.48048 0.03732 0.0
C477 C 0.04863 0.47125 0.03578 0.0
C478 C 0.95557 0.51187 0.01203 0.0
C479 C 0.95121 0.5337 0.03359 0.0
C480 C 0.9784 0.50234 0.01128 0.0
C481 C 0.99739 0.51443 0.03196 0.0
C482 C 0.99289 0.53602 0.05414 0.0
C483 C 0.97016 0.54549 0.05501 0.0
H484 H 0.51536 0.44034 0.26225 0.0
H485 H 0.44891 0.46954 0.30792 0.0
H486 H 0.53211 0.48005 0.2599 0.0
H487 H 0.46568 0.50897 0.30586 0.0
H488 H 0.49748 0.57852 0.25 0.0
H489 H 0.48021 0.53893 0.25055 0.0
H490 H 0.5434 0.51148 0.31414 0.0
H491 H 0.56063 0.5506 0.31339 0.0
C492 C 0.50435 0.45515 0.27197 0.0
C493 C 0.4808 0.45162 0.28542 0.0
C494 C 0.51396 0.47793 0.27073 0.0
C495 C 0.50021 0.49774 0.2826 0.0
C496 C 0.47668 0.49419 0.29591 0.0
C497 C 0.46714 0.47147 0.29745 0.0
C498 C 0.50763 0.56405 0.26425 0.0
C499 C 0.53046 0.56787 0.28162 0.0
C500 C 0.49773 0.54136 0.26465 0.0
C501 C 0.5105 0.52196 0.28212 0.0
C502 C 0.53321 0.52588 0.29973 0.0
C503 C 0.54301 0.54846 0.2996 0.0
H504 H 0.43953 1.00046 0.50831 0.0
H505 H 0.4682 0.06676 0.55605 0.0
H506 H 0.47932 0.98395 0.50547 0.0
H507 H 0.5077 0.05022 0.55362 0.0
H508 H 0.5774 0.01985 0.49631 0.0
H509 H 0.53766 0.03669 0.49806 0.0
H510 H 0.51103 0.97219 0.55793 0.0
H511 H 0.55032 0.95537 0.55584 0.0
C512 C 0.45423 0.01147 0.51848 0.0
C513 C 0.45054 0.03494 0.53248 0.0
C514 C 0.47707 1.002 0.51694 0.0
C515 C 0.49677 0.01579 0.52916 0.0
C516 C 0.49302 0.0392 0.54331 0.0
C517 C 0.47026 0.04861 0.54506 0.0
C518 C 0.56308 1.00932 0.50998 0.0
C519 C 0.56719 0.98624 0.5259 0.0
C520 C 0.54029 0.01897 0.5111 0.0
C521 C 0.52108 1.00573 0.52791 0.0
C522 C 0.52528 0.98276 0.54405 0.0
C523 C 0.54796 0.97319 0.54315 0.0
H524 H 1.00084 0.08021 0.74038 0.0
H525 H 0.0636 0.05126 0.80348 0.0
H526 H 0.98373 0.04062 0.73731 0.0
H527 H 0.04649 0.01206 0.80065 0.0
H528 H 0.01839 0.94177 0.74342 0.0
H529 H 0.0354 0.98144 0.74406 0.0
H530 H 0.96886 0.00997 0.79032 0.0
H531 H 0.95187 0.97069 0.78941 0.0
C532 C 0.01094 0.0655 0.7538 0.0
C533 C 0.0336 0.06905 0.77221 0.0
C534 C 1.00112 0.0428 0.75212 0.0
C535 C 0.01381 0.02311 0.7685 0.0
C536 C 0.03638 0.02672 0.78705 0.0
C537 C 0.0461 0.04933 0.78901 0.0
C538 C 1.00741 0.9565 0.75377 0.0
C539 C 0.98377 0.95292 0.76647 0.0
C540 C 0.01717 0.97924 0.75427 0.0
C541 C 1.00346 0.99893 0.76712 0.0
C542 C 0.97984 0.99531 0.77963 0.0
C543 C 0.97016 0.97265 0.77945 0.0
H544 H 0.10159 0.17439 0.64128 0.0
H545 H 0.13503 0.10849 0.67637 0.0
H546 H 0.11855 0.17257 0.56354 0.0
H547 H 0.15069 0.10558 0.59804 0.0
H548 H 0.17343 0.09794 0.45555 0.0
H549 H 0.17265 0.11489 0.53336 0.0
H550 H 0.10776 0.15108 0.49907 0.0
H551 H 0.10971 0.13535 0.42064 0.0
C552 C 0.11307 0.15977 0.63251 0.0
C553 C 0.1169 0.14147 0.66443 0.0
C554 C 0.12257 0.15855 0.5878 0.0
C555 C 0.13546 0.1386 0.57367 0.0
C556 C 0.14103 0.12135 0.60729 0.0
C557 C 0.13201 0.12292 0.65242 0.0
C558 C 0.15951 0.11023 0.46442 0.0
C559 C 0.1415 0.11523 0.43249 0.0
C560 C 0.15889 0.11976 0.50915 0.0
C561 C 0.1398 0.13388 0.52333 0.0
C562 C 0.12289 0.14046 0.48977 0.0
C563 C 0.12389 0.1314 0.44461 0.0
H564 H 0.92539 0.67224 0.71076 0.0
H565 H 0.88644 0.60959 0.67486 0.0
H566 H 0.90855 0.67154 0.78864 0.0
H567 H 0.87089 0.60761 0.75338 0.0
H568 H 0.84729 0.6016 0.89544 0.0
H569 H 0.84967 0.61851 0.81775 0.0
H570 H 0.91698 0.64953 0.85331 0.0
H571 H 0.91345 0.63404 0.93161 0.0
C572 C 0.91286 0.65853 0.7195 0.0
C573 C 0.90732 0.64082 0.68723 0.0
C574 C 0.90338 0.65795 0.76426 0.0
C575 C 0.8888 0.63917 0.77815 0.0
C576 C 0.88184 0.62252 0.74434 0.0
C577 C 0.89082 0.62352 0.69915 0.0
C578 C 0.86211 0.61283 0.88687 0.0
C579 C 0.8803 0.61643 0.9191 0.0
C580 C 0.86366 0.62229 0.84219 0.0
C581 C 0.88385 0.63485 0.82838 0.0
C582 C 0.90103 0.64014 0.86228 0.0
C583 C 0.89912 0.63121 0.90738 0.0
H584 H 0.37286 0.39921 0.19823 0.0
H585 H 0.42715 0.35609 0.13609 0.0
H586 H 0.35508 0.40488 0.12161 0.0
H587 H 0.41011 0.36234 0.06007 0.0
H588 H 0.38148 0.37902 0.92302 0.0
H589 H 0.38109 0.36102 1.00034 0.0
H590 H 0.37008 0.42975 0.0618 0.0
H591 H 0.36975 0.44736 0.98543 0.0
C592 C 0.38057 0.39038 0.1685 0.0
C593 C 0.40173 0.37775 0.17291 0.0
C594 C 0.37052 0.39375 0.12454 0.0
C595 C 0.38152 0.38459 0.08444 0.0
C596 C 0.40109 0.36969 0.08992 0.0
C597 C 0.41105 0.3663 0.13364 0.0
C598 C 0.37846 0.39013 0.95308 0.0
C599 C 0.37623 0.41467 0.94819 0.0
C600 C 0.37826 0.37985 0.99737 0.0
C601 C 0.37582 0.39394 0.03745 0.0
C602 C 0.37176 0.41822 0.03196 0.0
C603 C 0.37194 0.42842 0.98796 0.0
H604 H 0.67161 0.92275 0.38322 0.0
H605 H 0.60778 0.88604 0.41988 0.0
H606 H 0.6702 0.90575 0.3055 0.0
H607 H 0.60515 0.87034 0.34153 0.0
H608 H 0.5981 0.84674 0.19949 0.0
H609 H 0.61516 0.84868 0.27708 0.0
H610 H 0.64828 0.91496 0.24104 0.0
H611 H 0.63258 0.91184 0.16283 0.0
C612 C 0.65751 0.91063 0.37471 0.0
C613 C 0.63967 0.90581 0.40713 0.0
C614 C 0.65652 0.90108 0.33003 0.0
C615 C 0.63722 0.88714 0.31638 0.0
C616 C 0.62044 0.88079 0.35039 0.0
C617 C 0.62182 0.88985 0.39549 0.0
C618 C 0.60978 0.86123 0.20794 0.0
C619 C 0.61393 0.87926 0.17558 0.0
C620 C 0.61935 0.86253 0.25256 0.0
C621 C 0.63259 0.88232 0.2662 0.0
C622 C 0.63836 0.89931 0.2322 0.0
C623 C 0.6293 0.89764 0.18715 0.0
H624 H 0.08875 0.35794 0.70124 0.0
H625 H 0.1441 0.39948 0.63879 0.0
H626 H 0.10569 0.36424 0.77724 0.0
H627 H 0.16185 0.40507 0.71543 0.0
H628 H 0.14905 0.44831 0.85088 0.0
H629 H 0.14789 0.43045 0.77485 0.0
H630 H 0.13425 0.36247 0.83731 0.0
H631 H 0.13462 0.3808 0.91438 0.0
C632 C 0.10502 0.36784 0.70361 0.0
C633 C 0.11468 0.37886 0.6642 0.0
C634 C 0.11494 0.37124 0.74737 0.0
C635 C 0.13485 0.38566 0.75276 0.0
C636 C 0.14612 0.39437 0.71259 0.0
C637 C 0.13608 0.39104 0.66861 0.0
C638 C 0.14607 0.42948 0.84867 0.0
C639 C 0.14128 0.41609 0.88868 0.0
C640 C 0.14578 0.41911 0.80482 0.0
C641 C 0.14078 0.395 0.79968 0.0
C642 C 0.13779 0.38119 0.83999 0.0
C643 C 0.13802 0.39165 0.88414 0.0
H644 H 0.63116 0.60473 0.17977 0.0
H645 H 0.59896 0.67092 0.14247 0.0
H646 H 0.64725 0.60111 0.10192 0.0
H647 H 0.6165 0.66849 0.06531 0.0
H648 H 0.60963 0.6323 0.92167 0.0
H649 H 0.60656 0.64751 1.00029 0.0
H650 H 0.66989 0.60949 0.03821 0.0
H651 H 0.67165 0.59297 0.9601 0.0
C652 C 0.62848 0.61904 0.15539 0.0
C653 C 0.61364 0.63791 0.16666 0.0
C654 C 0.63777 0.61708 0.11055 0.0
C655 C 0.63279 0.63428 0.07647 0.0
C656 C 0.62006 0.65448 0.08985 0.0
C657 C 0.61023 0.65606 0.13424 0.0
C658 C 0.6232 0.62775 0.94658 0.0
C659 C 0.64064 0.61125 0.93524 0.0
C660 C 0.62158 0.63654 0.99185 0.0
C661 C 0.63773 0.62939 0.0264 0.0
C662 C 0.65665 0.6148 0.01324 0.0
C663 C 0.65785 0.60551 0.96835 0.0
H664 H 0.39283 0.14404 0.43973 0.0
H665 H 0.35971 0.08346 0.3764 0.0
H666 H 0.39633 0.16243 0.36318 0.0
H667 H 0.36417 0.10102 0.30062 0.0
H668 H 0.37714 0.13046 0.16378 0.0
H669 H 0.35859 0.12827 0.24044 0.0
H670 H 0.42291 0.15381 0.30328 0.0
H671 H 0.44073 0.15699 0.22754 0.0
C672 C 0.38588 0.13487 0.40969 0.0
C673 C 0.37663 0.11203 0.41398 0.0
C674 C 0.38801 0.14531 0.36574 0.0
C675 C 0.38109 0.133 0.32536 0.0
C676 C 0.36967 0.11119 0.33055 0.0
C677 C 0.3674 0.10091 0.37426 0.0
C678 C 0.387 0.13619 0.19395 0.0
C679 C 0.4106 0.14327 0.18968 0.0
C680 C 0.37645 0.13483 0.23795 0.0
C681 C 0.38937 0.14039 0.27839 0.0
C682 C 0.41223 0.14949 0.2733 0.0
C683 C 0.42265 0.15098 0.2296 0.0
H684 H 0.88371 0.90946 0.66377 0.0
H685 H 0.92206 0.84621 0.62902 0.0
H686 H 0.86815 0.91119 0.58528 0.0
H687 H 0.90524 0.84672 0.55114 0.0
H688 H 0.91132 0.88424 0.40813 0.0
H689 H 0.91424 0.86861 0.48641 0.0
H690 H 0.847 0.90027 0.52071 0.0
H691 H 0.84521 0.91727 0.44302 0.0
C692 C 0.88792 0.89533 0.63979 0.0
C693 C 0.9043 0.87794 0.652 0.0
C694 C 0.87894 0.89619 0.5946 0.0
C695 C 0.88581 0.87934 0.56106 0.0
C696 C 0.90016 0.86045 0.5753 0.0
C697 C 0.90961 0.85998 0.62008 0.0
C698 C 0.89685 0.88716 0.43203 0.0
C699 C 0.87824 0.90216 0.41999 0.0
C700 C 0.89842 0.87815 0.47714 0.0
C701 C 0.8811 0.88361 0.51071 0.0
C702 C 0.86109 0.89636 0.49651 0.0
C703 C 0.85987 0.90587 0.45184 0.0
H704 H 0.0933 0.15901 0.94301 0.0
H705 H 0.12706 0.09162 0.92178 0.0
H706 H 0.1022 0.15672 0.0259 0.0
H707 H 0.13496 0.08872 1.00442 0.0
H708 H 0.15822 0.09261 0.15273 0.0
H709 H 0.15586 0.10131 0.06977 0.0
H710 H 0.08925 0.13662 0.09199 0.0
H711 H 0.09226 0.1289 0.17468 0.0
C712 C 0.1027 0.14376 0.95601 0.0
C713 C 0.10939 0.12549 0.92576 0.0
C714 C 0.10766 0.14232 1.00366 0.0
C715 C 0.11917 0.12242 0.02233 0.0
C716 C 0.12643 0.10451 0.99161 0.0
C717 C 0.12173 0.10609 0.94402 0.0
C718 C 0.14328 0.10254 0.13988 0.0
C719 C 0.12541 0.10997 0.17035 0.0
C720 C 0.14179 0.10738 0.09219 0.0
C721 C 0.12223 0.11952 0.0737 0.0
C722 C 0.10477 0.12757 0.10464 0.0
C723 C 0.10641 0.12298 0.15227 0.0
H724 H 0.88933 0.59457 0.42873 0.0
H725 H 0.926 0.66036 0.40729 0.0
H726 H 0.88119 0.59199 0.34619 0.0
H727 H 0.91685 0.65845 0.32449 0.0
H728 H 0.85947 0.59566 0.19731 0.0
H729 H 0.86129 0.60512 0.28003 0.0
H730 H 0.92952 0.63737 0.25938 0.0
H731 H 0.92708 0.62895 0.17693 0.0
C732 C 0.89521 0.60881 0.40649 0.0
C733 C 0.90852 0.62758 0.4246 0.0
C734 C 0.89037 0.60741 0.35895 0.0
C735 C 0.89846 0.62491 0.32819 0.0
C736 C 0.91075 0.64434 0.34679 0.0
C737 C 0.91586 0.64557 0.39438 0.0
C738 C 0.87466 0.60511 0.21044 0.0
C739 C 0.89316 0.61144 0.18054 0.0
C740 C 0.87582 0.61039 0.25798 0.0
C741 C 0.89567 0.62186 0.27685 0.0
C742 C 0.91376 0.62888 0.2464 0.0
C743 C 0.91245 0.62387 0.19892 0.0
H744 H 0.37344 0.44394 0.65736 0.0
H745 H 0.40383 0.37615 0.68989 0.0
H746 H 0.37755 0.43562 0.57481 0.0
H747 H 0.40698 0.36723 0.60727 0.0
H748 H 0.43854 0.37309 0.46028 0.0
H749 H 0.42992 0.3773 0.5428 0.0
H750 H 0.36565 0.41456 0.50927 0.0
H751 H 0.37496 0.41126 0.4269 0.0
C752 C 0.38048 0.427 0.64686 0.0
C753 C 0.38841 0.41078 0.68027 0.0
C754 C 0.38278 0.42213 0.59934 0.0
C755 C 0.39279 0.40075 0.58389 0.0
C756 C 0.3997 0.3841 0.61754 0.0
C757 C 0.39768 0.38911 0.66505 0.0
C758 C 0.42243 0.38193 0.47057 0.0
C759 C 0.40753 0.39196 0.437 0.0
C760 C 0.41738 0.38428 0.51804 0.0
C761 C 0.39711 0.39647 0.53318 0.0
C762 C 0.3817 0.40555 0.49928 0.0
C763 C 0.38693 0.40348 0.45189 0.0
H764 H 0.65876 0.92585 0.68733 0.0
H765 H 0.5924 0.89043 0.66516 0.0
H766 H 0.65644 0.91671 0.77011 0.0
H767 H 0.58944 0.88229 0.74767 0.0
H768 H 0.59277 0.85983 0.89634 0.0
H769 H 0.60213 0.86191 0.81361 0.0
H770 H 0.63558 0.9295 0.83543 0.0
H771 H 0.62723 0.9268 0.91789 0.0
C772 C 0.64375 0.916 0.70008 0.0
C773 C 0.62573 0.90897 0.66964 0.0
C774 C 0.64229 0.9109 0.74766 0.0
C775 C 0.62262 0.89893 0.76605 0.0
C776 C 0.60505 0.89121 0.73509 0.0
C777 C 0.60666 0.89604 0.68756 0.0
C778 C 0.60244 0.87493 0.88346 0.0
C779 C 0.60915 0.89317 0.91372 0.0
C780 C 0.60768 0.87625 0.83591 0.0
C781 C 0.61947 0.896 0.81737 0.0
C782 C 0.62683 0.91383 0.84814 0.0
C783 C 0.62186 0.91236 0.89563 0.0
H784 H 0.09696 0.36008 0.38271 0.0
H785 H 0.12857 0.42836 0.40489 0.0
H786 H 0.1068 0.36243 0.30025 0.0
H787 H 0.13727 0.43139 0.32261 0.0
H788 H 0.16176 0.42889 0.17532 0.0
H789 H 0.15896 0.41997 0.25811 0.0
H790 H 0.09456 0.38131 0.23299 0.0
H791 H 0.09816 0.38916 0.15047 0.0
C792 C 0.10607 0.37556 0.36999 0.0
C793 C 0.11191 0.39403 0.40041 0.0
C794 C 0.11157 0.37704 0.32255 0.0
C795 C 0.12273 0.39721 0.30416 0.0
C796 C 0.12909 0.41537 0.3351 0.0
C797 C 0.12391 0.41372 0.38252 0.0
C798 C 0.14726 0.41813 0.1875 0.0
C799 C 0.13018 0.4098 0.15624 0.0
C800 C 0.14548 0.41318 0.23513 0.0
C801 C 0.12634 0.4001 0.25284 0.0
C802 C 0.10976 0.39111 0.22108 0.0
C803 C 0.11175 0.39575 0.17349 0.0
H804 H 0.65837 0.59182 0.65413 0.0
H805 H 0.59255 0.62819 0.6773 0.0
H806 H 0.65581 0.60083 0.57134 0.0
H807 H 0.58935 0.63621 0.59477 0.0
H808 H 0.59257 0.65853 0.44586 0.0
H809 H 0.60211 0.65637 0.5285 0.0
H810 H 0.63448 0.58821 0.50651 0.0
H811 H 0.62595 0.59098 0.42415 0.0
C812 C 0.64343 0.60184 0.64159 0.0
C813 C 0.62564 0.60918 0.67232 0.0
C814 C 0.64183 0.60687 0.59401 0.0
C815 C 0.62223 0.61909 0.57591 0.0
C816 C 0.60489 0.6271 0.60713 0.0
C817 C 0.60664 0.62233 0.65466 0.0
C818 C 0.60205 0.64328 0.45868 0.0
C819 C 0.60841 0.62491 0.42841 0.0
C820 C 0.60738 0.64192 0.50617 0.0
C821 C 0.61894 0.622 0.52464 0.0
C822 C 0.62593 0.60402 0.49385 0.0
C823 C 0.62086 0.60552 0.44641 0.0
H824 H 0.35942 0.09483 0.69751 0.0
H825 H 0.42613 0.12929 0.67394 0.0
H826 H 0.36215 0.10414 0.78016 0.0
H827 H 0.42957 0.13751 0.75638 0.0
H828 H 0.42695 0.16109 0.9047 0.0
H829 H 0.41791 0.15826 0.82197 0.0
H830 H 0.38206 0.09215 0.84643 0.0
H831 H 0.39003 0.09573 0.92893 0.0
C832 C 0.37463 0.10446 0.70995 0.0
C833 C 0.39256 0.11126 0.67907 0.0
C834 C 0.37634 0.10966 0.75752 0.0
C835 C 0.39621 0.12145 0.77556 0.0
C836 C 0.41379 0.12878 0.74418 0.0
C837 C 0.4119 0.1239 0.69665 0.0
C838 C 0.41682 0.14617 0.89239 0.0
C839 C 0.40927 0.12863 0.92349 0.0
C840 C 0.41179 0.14439 0.84478 0.0
C841 C 0.3994 0.12482 0.8269 0.0
C842 C 0.39129 0.10769 0.85848 0.0
C843 C 0.39601 0.10966 0.90605 0.0
H844 H 0.86022 0.92574 0.14235 0.0
H845 H 0.92774 0.89214 0.16224 0.0
H846 H 0.86216 0.9168 0.05941 0.0
H847 H 0.93031 0.88424 0.07957 0.0
H848 H 0.92616 0.86116 0.93134 0.0
H849 H 0.91759 0.86332 0.01438 0.0
H850 H 0.8819 0.92983 0.99305 0.0
H851 H 0.88947 0.92701 0.91028 0.0
C852 C 0.87543 0.91637 0.12905 0.0
C853 C 0.89384 0.90974 0.15892 0.0
C854 C 0.87666 0.91138 0.08138 0.0
C855 C 0.8965 0.89992 0.06231 0.0
C856 C 0.91455 0.89271 0.09268 0.0
C857 C 0.91317 0.89743 0.14029 0.0
C858 C 0.91617 0.87604 0.9444 0.0
C859 C 0.9086 0.89394 0.91418 0.0
C860 C 0.91139 0.87741 0.99214 0.0
C861 C 0.89922 0.8969 0.01091 0.0
C862 C 0.89099 0.91437 0.98019 0.0
C863 C 0.89549 0.91283 0.93252 0.0
loop_
_geom_bond_atom_site_label_1
_geom_bond_atom_site_label_2
_geom_bond_distance
_geom_bond_site_symmetry_2
_ccdc_geom_bond_type
O0 Cd1 2.223 . S
O0 C8 1.315 . S
Cd1 O0 2.223 . S
Cd1 O4 2.297 . S
Cd1 O5 2.439 . S
Cd1 O11 2.240 . S
Cd2 O3 2.240 . S
Cd2 O10 2.223 . S
Cd2 O12 2.297 . S
Cd2 O13 2.439 . S
O3 Cd2 2.240 . S
O3 C8 1.279 . S
O4 Cd1 2.297 . S
O4 C6 1.247 . S
O5 Cd1 2.439 . S
O5 C6 1.208 . S
C6 O4 1.247 . S
C6 O5 1.208 . S
C7 O12 1.247 . S
C7 O13 1.208 . S
C8 O0 1.315 . S
C8 O3 1.279 . S
C9 O10 1.315 . S
C9 O11 1.279 . S
O10 Cd2 2.223 . S
O10 C9 1.315 . S
O11 Cd1 2.240 . S
O11 C9 1.279 . S
O12 Cd2 2.297 . S
O12 C7 1.247 . S
O13 Cd2 2.439 . S
O13 C7 1.208 . S
O14 Cd15 2.223 . S
O14 C22 1.315 . S
Cd15 O14 2.223 . S
Cd15 O18 2.297 . S
Cd15 O19 2.439 . S
Cd15 O25 2.240 . S
Cd16 O17 2.240 . S
Cd16 O24 2.223 . S
Cd16 O26 2.297 . S
Cd16 O27 2.439 . S
O17 Cd16 2.240 . S
O17 C22 1.279 . S
O18 Cd15 2.297 . S
O18 C20 1.247 . S
O19 Cd15 2.439 . S
O19 C20 1.208 . S
C20 O18 1.247 . S
C20 O19 1.208 . S
C21 O26 1.247 . S
C21 O27 1.208 . S
C22 O14 1.315 . S
C22 O17 1.279 . S
C23 O24 1.315 . S
C23 O25 1.279 . S
O24 Cd16 2.223 . S
O24 C23 1.315 . S
O25 Cd15 2.240 . S
O25 C23 1.279 . S
O26 Cd16 2.297 . S
O26 C21 1.247 . S
O27 Cd16 2.439 . S
O27 C21 1.208 . S
O28 Cd29 2.223 . S
O28 C36 1.315 . S
Cd29 O28 2.223 . S
Cd29 O32 2.297 . S
Cd29 O33 2.439 . S
Cd29 O39 2.240 . S
Cd30 O31 2.240 . S
Cd30 O38 2.223 . S
Cd30 O40 2.297 . S
Cd30 O41 2.439 . S
O31 Cd30 2.240 . S
O31 C36 1.279 . S
O32 Cd29 2.297 . S
O32 C34 1.247 . S
O33 Cd29 2.439 . S
O33 C34 1.208 . S
C34 O32 1.247 . S
C34 O33 1.208 . S
C35 O40 1.247 . S
C35 O41 1.208 . S
C36 O28 1.315 . S
C36 O31 1.279 . S
C37 O38 1.315 . S
C37 O39 1.279 . S
O38 Cd30 2.223 . S
O38 C37 1.315 . S
O39 Cd29 2.240 . S
O39 C37 1.279 . S
O40 Cd30 2.297 . S
O40 C35 1.247 . S
O41 Cd30 2.439 . S
O41 C35 1.208 . S
O42 Cd43 2.223 . S
O42 C50 1.315 . S
Cd43 O42 2.223 . S
Cd43 O46 2.297 . S
Cd43 O47 2.439 . S
Cd43 O53 2.240 . S
Cd44 O45 2.240 . S
Cd44 O52 2.223 . S
Cd44 O54 2.297 1_554 S
Cd44 O55 2.439 1_554 S
O45 Cd44 2.240 . S
O45 C50 1.279 . S
O46 Cd43 2.297 . S
O46 C48 1.247 . S
O47 Cd43 2.439 . S
O47 C48 1.208 . S
C48 O46 1.247 . S
C48 O47 1.208 . S
C49 O54 1.247 . S
C49 O55 1.208 . S
C50 O42 1.315 . S
C50 O45 1.279 . S
C51 O52 1.315 . S
C51 O53 1.279 . S
O52 Cd44 2.223 . S
O52 C51 1.315 . S
O53 Cd43 2.240 . S
O53 C51 1.279 . S
O54 Cd44 2.297 1_556 S
O54 C49 1.247 . S
O55 Cd44 2.439 1_556 S
O55 C49 1.208 . S
O56 Cd57 2.223 . S
O56 C64 1.315 . S
Cd57 O56 2.223 . S
Cd57 O60 2.297 . S
Cd57 O61 2.439 1_556 S
Cd57 O67 2.240 1_556 S
Cd58 O59 2.240 1_554 S
Cd58 O66 2.223 . S
Cd58 O68 2.297 . S
Cd58 O69 2.439 . S
O59 Cd58 2.240 1_556 S
O59 C64 1.279 . S
O60 Cd57 2.297 . S
O60 C62 1.247 . S
O61 Cd57 2.439 1_554 S
O61 C62 1.208 1_554 S
C62 O60 1.247 . S
C62 O61 1.208 1_556 S
C63 O68 1.247 . S
C63 O69 1.208 . S
C64 O56 1.315 . S
C64 O59 1.279 . S
C65 O66 1.315 . S
C65 O67 1.279 . S
O66 Cd58 2.223 . S
O66 C65 1.315 . S
O67 Cd57 2.240 1_554 S
O67 C65 1.279 . S
O68 Cd58 2.297 . S
O68 C63 1.247 . S
O69 Cd58 2.439 . S
O69 C63 1.208 . S
O70 Cd71 2.223 . S
O70 C78 1.315 . S
Cd71 O70 2.223 . S
Cd71 O74 2.297 . S
Cd71 O75 2.439 . S
Cd71 O81 2.240 . S
Cd72 O73 2.240 . S
Cd72 O80 2.223 . S
Cd72 O82 2.297 . S
Cd72 O83 2.439 . S
O73 Cd72 2.240 . S
O73 C78 1.279 . S
O74 Cd71 2.297 . S
O74 C76 1.247 . S
O75 Cd71 2.439 . S
O75 C76 1.208 . S
C76 O74 1.247 . S
C76 O75 1.208 . S
C77 O82 1.247 . S
C77 O83 1.208 . S
C78 O70 1.315 . S
C78 O73 1.279 . S
C79 O80 1.315 . S
C79 O81 1.279 . S
O80 Cd72 2.223 . S
O80 C79 1.315 . S
O81 Cd71 2.240 . S
O81 C79 1.279 . S
O82 Cd72 2.297 . S
O82 C77 1.247 . S
O83 Cd72 2.439 . S
O83 C77 1.208 . S
O84 Cd85 2.223 . S
O84 C92 1.315 . S
Cd85 O84 2.223 . S
Cd85 O88 2.297 . S
Cd85 O89 2.439 . S
Cd85 O95 2.240 . S
Cd86 O87 2.240 . S
Cd86 O94 2.223 . S
Cd86 O96 2.297 . S
Cd86 O97 2.439 . S
O87 Cd86 2.240 . S
O87 C92 1.279 . S
O88 Cd85 2.297 . S
O88 C90 1.247 . S
O89 Cd85 2.439 . S
O89 C90 1.208 . S
C90 O88 1.247 . S
C90 O89 1.208 . S
C91 O96 1.247 . S
C91 O97 1.208 . S
C92 O84 1.315 . S
C92 O87 1.279 . S
C93 O94 1.315 . S
C93 O95 1.279 . S
O94 Cd86 2.223 . S
O94 C93 1.315 . S
O95 Cd85 2.240 . S
O95 C93 1.279 . S
O96 Cd86 2.297 . S
O96 C91 1.247 . S
O97 Cd86 2.439 . S
O97 C91 1.208 . S
O98 Cd99 2.223 . S
O98 C106 1.315 . S
Cd99 O98 2.223 . S
Cd99 O102 2.297 . S
Cd99 O103 2.439 . S
Cd99 O109 2.240 . S
Cd100 O101 2.240 . S
Cd100 O108 2.223 . S
Cd100 O110 2.297 . S
Cd100 O111 2.439 . S
O101 Cd100 2.240 . S
O101 C106 1.279 . S
O102 Cd99 2.297 . S
O102 C104 1.247 . S
O103 Cd99 2.439 . S
O103 C104 1.208 . S
C104 O102 1.247 . S
C104 O103 1.208 . S
C105 O110 1.247 . S
C105 O111 1.208 . S
C106 O98 1.315 . S
C106 O101 1.279 . S
C107 O108 1.315 . S
C107 O109 1.279 . S
O108 Cd100 2.223 . S
O108 C107 1.315 . S
O109 Cd99 2.240 . S
O109 C107 1.279 . S
O110 Cd100 2.297 . S
O110 C105 1.247 . S
O111 Cd100 2.439 . S
O111 C105 1.208 . S
O112 Cd113 2.223 . S
O112 C120 1.315 . S
Cd113 O112 2.223 . S
Cd113 O116 2.297 . S
Cd113 O117 2.439 . S
Cd113 O123 2.240 . S
Cd114 O115 2.240 . S
Cd114 O122 2.223 . S
Cd114 O124 2.297 . S
Cd114 O125 2.439 . S
O115 Cd114 2.240 . S
O115 C120 1.279 . S
O116 Cd113 2.297 . S
O116 C118 1.247 . S
O117 Cd113 2.439 . S
O117 C118 1.208 . S
C118 O116 1.247 . S
C118 O117 1.208 . S
C119 O124 1.247 . S
C119 O125 1.208 . S
C120 O112 1.315 . S
C120 O115 1.279 . S
C121 O122 1.315 . S
C121 O123 1.279 . S
O122 Cd114 2.223 . S
O122 C121 1.315 . S
O123 Cd113 2.240 . S
O123 C121 1.279 . S
O124 Cd114 2.297 . S
O124 C119 1.247 . S
O125 Cd114 2.439 . S
O125 C119 1.208 . S
O126 Cd127 2.223 . S
O126 C134 1.315 . S
Cd127 O126 2.223 . S
Cd127 O130 2.297 . S
Cd127 O131 2.439 . S
Cd127 O137 2.240 . S
Cd128 O129 2.240 . S
Cd128 O136 2.223 . S
Cd128 O138 2.297 1_554 S
Cd128 O139 2.439 1_554 S
O129 Cd128 2.240 . S
O129 C134 1.279 . S
O130 Cd127 2.297 . S
O130 C132 1.247 . S
O131 Cd127 2.439 . S
O131 C132 1.208 . S
C132 O130 1.247 . S
C132 O131 1.208 . S
C133 O138 1.247 . S
C133 O139 1.208 . S
C134 O126 1.315 . S
C134 O129 1.279 . S
C135 O136 1.315 . S
C135 O137 1.279 . S
O136 Cd128 2.223 . S
O136 C135 1.315 . S
O137 Cd127 2.240 . S
O137 C135 1.279 . S
O138 Cd128 2.297 1_556 S
O138 C133 1.247 . S
O139 Cd128 2.439 1_556 S
O139 C133 1.208 . S
O140 Cd141 2.223 . S
O140 C148 1.315 . S
Cd141 O140 2.223 . S
Cd141 O144 2.297 . S
Cd141 O145 2.439 . S
Cd141 O151 2.240 . S
Cd142 O143 2.240 . S
Cd142 O150 2.223 . S
Cd142 O152 2.297 . S
Cd142 O153 2.439 . S
O143 Cd142 2.240 . S
O143 C148 1.279 . S
O144 Cd141 2.297 . S
O144 C146 1.247 . S
O145 Cd141 2.439 . S
O145 C146 1.208 . S
C146 O144 1.247 . S
C146 O145 1.208 . S
C147 O152 1.247 . S
C147 O153 1.208 . S
C148 O140 1.315 . S
C148 O143 1.279 . S
C149 O150 1.315 . S
C149 O151 1.279 . S
O150 Cd142 2.223 . S
O150 C149 1.315 . S
O151 Cd141 2.240 . S
O151 C149 1.279 . S
O152 Cd142 2.297 . S
O152 C147 1.247 . S
O153 Cd142 2.439 . S
O153 C147 1.208 . S
O154 Cd155 2.223 . S
O154 C162 1.315 . S
Cd155 O154 2.223 . S
Cd155 O158 2.297 . S
Cd155 O159 2.439 . S
Cd155 O165 2.240 . S
Cd156 O157 2.240 . S
Cd156 O164 2.223 . S
Cd156 O166 2.297 . S
Cd156 O167 2.439 . S
O157 Cd156 2.240 . S
O157 C162 1.279 . S
O158 Cd155 2.297 . S
O158 C160 1.247 . S
O159 Cd155 2.439 . S
O159 C160 1.208 . S
C160 O158 1.247 . S
C160 O159 1.208 . S
C161 O166 1.247 . S
C161 O167 1.208 . S
C162 O154 1.315 . S
C162 O157 1.279 . S
C163 O164 1.315 . S
C163 O165 1.279 . S
O164 Cd156 2.223 . S
O164 C163 1.315 . S
O165 Cd155 2.240 . S
O165 C163 1.279 . S
O166 Cd156 2.297 . S
O166 C161 1.247 . S
O167 Cd156 2.439 . S
O167 C161 1.208 . S
O168 Cd169 2.223 . S
O168 C176 1.315 . S
Cd169 O168 2.223 . S
Cd169 O172 2.297 . S
Cd169 O173 2.439 . S
Cd169 O179 2.240 . S
Cd170 O171 2.240 . S
Cd170 O178 2.223 . S
Cd170 O180 2.297 . S
Cd170 O181 2.439 . S
O171 Cd170 2.240 . S
O171 C176 1.279 . S
O172 Cd169 2.297 . S
O172 C174 1.247 . S
O173 Cd169 2.439 . S
O173 C174 1.208 . S
C174 O172 1.247 . S
C174 O173 1.208 . S
C175 O180 1.247 . S
C175 O181 1.208 . S
C176 O168 1.315 . S
C176 O171 1.279 . S
C177 O178 1.315 . S
C177 O179 1.279 . S
O178 Cd170 2.223 . S
O178 C177 1.315 . S
O179 Cd169 2.240 . S
O179 C177 1.279 . S
O180 Cd170 2.297 . S
O180 C175 1.247 . S
O181 Cd170 2.439 . S
O181 C175 1.208 . S
O182 Cd183 2.223 . S
O182 C190 1.315 . S
Cd183 O182 2.223 . S
Cd183 O186 2.297 . S
Cd183 O187 2.439 . S
Cd183 O193 2.240 . S
Cd184 O185 2.240 . S
Cd184 O192 2.223 . S
Cd184 O194 2.297 . S
Cd184 O195 2.439 . S
O185 Cd184 2.240 . S
O185 C190 1.279 . S
O186 Cd183 2.297 . S
O186 C188 1.247 . S
O187 Cd183 2.439 . S
O187 C188 1.208 . S
C188 O186 1.247 . S
C188 O187 1.208 . S
C189 O194 1.247 . S
C189 O195 1.208 . S
C190 O182 1.315 . S
C190 O185 1.279 . S
C191 O192 1.315 . S
C191 O193 1.279 . S
O192 Cd184 2.223 . S
O192 C191 1.315 . S
O193 Cd183 2.240 . S
O193 C191 1.279 . S
O194 Cd184 2.297 . S
O194 C189 1.247 . S
O195 Cd184 2.439 . S
O195 C189 1.208 . S
O196 Cd197 2.223 . S
O196 C204 1.315 . S
Cd197 O196 2.223 . S
Cd197 O200 2.297 . S
Cd197 O201 2.439 1_556 S
Cd197 O207 2.240 1_556 S
Cd198 O199 2.240 1_554 S
Cd198 O206 2.223 . S
Cd198 O208 2.297 . S
Cd198 O209 2.439 . S
O199 Cd198 2.240 1_556 S
O199 C204 1.279 . S
O200 Cd197 2.297 . S
O200 C202 1.247 . S
O201 Cd197 2.439 1_554 S
O201 C202 1.208 1_554 S
C202 O200 1.247 . S
C202 O201 1.208 1_556 S
C203 O208 1.247 . S
C203 O209 1.208 . S
C204 O196 1.315 . S
C204 O199 1.279 . S
C205 O206 1.315 . S
C205 O207 1.279 . S
O206 Cd198 2.223 . S
O206 C205 1.315 . S
O207 Cd197 2.240 1_554 S
O207 C205 1.279 . S
O208 Cd198 2.297 . S
O208 C203 1.247 . S
O209 Cd198 2.439 . S
O209 C203 1.208 . S
O210 Cd211 2.223 . S
O210 C218 1.315 . S
Cd211 O210 2.223 . S
Cd211 O214 2.297 . S
Cd211 O215 2.439 . S
Cd211 O221 2.240 . S
Cd212 O213 2.240 . S
Cd212 O220 2.223 . S
Cd212 O222 2.297 . S
Cd212 O223 2.439 . S
O213 Cd212 2.240 . S
O213 C218 1.279 . S
O214 Cd211 2.297 . S
O214 C216 1.247 . S
O215 Cd211 2.439 . S
O215 C216 1.208 . S
C216 O214 1.247 . S
C216 O215 1.208 . S
C217 O222 1.247 . S
C217 O223 1.208 . S
C218 O210 1.315 . S
C218 O213 1.279 . S
C219 O220 1.315 . S
C219 O221 1.279 . S
O220 Cd212 2.223 . S
O220 C219 1.315 . S
O221 Cd211 2.240 . S
O221 C219 1.279 . S
O222 Cd212 2.297 . S
O222 C217 1.247 . S
O223 Cd212 2.439 . S
O223 C217 1.208 . S
H224 C232 0.950 . S
H225 C237 0.950 . S
H226 C234 0.950 . S
H227 C236 0.950 . S
H228 C238 0.950 . S
H229 C240 0.950 . S
H230 C242 0.950 . S
H231 C243 0.950 . S
C232 H224 0.950 . S
C232 C233 1.386 . S
C232 C234 1.391 . S
C233 C232 1.386 . S
C233 C237 1.393 . S
C234 H226 0.950 . S
C234 C232 1.391 . S
C234 C235 1.400 . S
C235 C234 1.400 . S
C235 C236 1.398 . S
C235 C241 1.491 . S
C236 H227 0.950 . S
C236 C235 1.398 . S
C236 C237 1.391 . S
C237 H225 0.950 . S
C237 C233 1.393 . S
C237 C236 1.391 . S
C238 H228 0.950 . S
C238 C239 1.386 . S
C238 C240 1.391 . S
C239 C238 1.386 . S
C239 C243 1.393 . S
C240 H229 0.950 . S
C240 C238 1.391 . S
C240 C241 1.400 . S
C241 C235 1.491 . S
C241 C240 1.400 . S
C241 C242 1.398 . S
C242 H230 0.950 . S
C242 C241 1.398 . S
C242 C243 1.391 . S
C243 H231 0.950 . S
C243 C239 1.393 . S
C243 C242 1.391 . S
H244 C252 0.950 . S
H245 C257 0.950 . S
H246 C254 0.950 . S
H247 C256 0.950 . S
H248 C258 0.950 . S
H249 C260 0.950 . S
H250 C262 0.950 . S
H251 C263 0.950 . S
C252 H244 0.950 . S
C252 C253 1.386 . S
C252 C254 1.391 . S
C253 C252 1.386 . S
C253 C257 1.393 . S
C254 H246 0.950 . S
C254 C252 1.391 . S
C254 C255 1.400 . S
C255 C254 1.400 . S
C255 C256 1.398 . S
C255 C261 1.491 . S
C256 H247 0.950 . S
C256 C255 1.398 . S
C256 C257 1.391 . S
C257 H245 0.950 . S
C257 C253 1.393 . S
C257 C256 1.391 . S
C258 H248 0.950 . S
C258 C259 1.386 . S
C258 C260 1.391 . S
C259 C258 1.386 . S
C259 C263 1.393 . S
C260 H249 0.950 . S
C260 C258 1.391 . S
C260 C261 1.400 . S
C261 C255 1.491 . S
C261 C260 1.400 . S
C261 C262 1.398 . S
C262 H250 0.950 . S
C262 C261 1.398 . S
C262 C263 1.391 . S
C263 H251 0.950 . S
C263 C259 1.393 . S
C263 C262 1.391 . S
H264 C272 0.950 . S
H265 C277 0.950 . S
H266 C274 0.950 . S
H267 C276 0.950 . S
H268 C278 0.950 . S
H269 C280 0.950 . S
H270 C282 0.950 . S
H271 C283 0.950 . S
C272 H264 0.950 . S
C272 C273 1.386 . S
C272 C274 1.391 . S
C273 C272 1.386 . S
C273 C277 1.393 . S
C274 H266 0.950 . S
C274 C272 1.391 . S
C274 C275 1.400 . S
C275 C274 1.400 . S
C275 C276 1.398 . S
C275 C281 1.491 . S
C276 H267 0.950 . S
C276 C275 1.398 . S
C276 C277 1.391 . S
C277 H265 0.950 . S
C277 C273 1.393 . S
C277 C276 1.391 . S
C278 H268 0.950 . S
C278 C279 1.386 . S
C278 C280 1.391 . S
C279 C278 1.386 . S
C279 C283 1.393 . S
C280 H269 0.950 . S
C280 C278 1.391 . S
C280 C281 1.400 . S
C281 C275 1.491 . S
C281 C280 1.400 . S
C281 C282 1.398 . S
C282 H270 0.950 . S
C282 C281 1.398 . S
C282 C283 1.391 . S
C283 H271 0.950 . S
C283 C279 1.393 . S
C283 C282 1.391 . S
H284 C292 0.950 . S
H285 C297 0.950 . S
H286 C294 0.950 . S
H287 C296 0.950 . S
H288 C298 0.950 . S
H289 C300 0.950 . S
H290 C302 0.950 . S
H291 C303 0.950 . S
C292 H284 0.950 . S
C292 C293 1.386 . S
C292 C294 1.391 . S
C293 C292 1.386 . S
C293 C297 1.393 . S
C294 H286 0.950 . S
C294 C292 1.391 . S
C294 C295 1.400 . S
C295 C294 1.400 . S
C295 C296 1.398 . S
C295 C301 1.491 . S
C296 H287 0.950 . S
C296 C295 1.398 . S
C296 C297 1.391 . S
C297 H285 0.950 . S
C297 C293 1.393 . S
C297 C296 1.391 . S
C298 H288 0.950 . S
C298 C299 1.386 . S
C298 C300 1.391 . S
C299 C298 1.386 . S
C299 C303 1.393 . S
C300 H289 0.950 . S
C300 C298 1.391 . S
C300 C301 1.400 . S
C301 C295 1.491 . S
C301 C300 1.400 . S
C301 C302 1.398 . S
C302 H290 0.950 . S
C302 C301 1.398 . S
C302 C303 1.391 . S
C303 H291 0.950 . S
C303 C299 1.393 . S
C303 C302 1.391 . S
H304 C312 0.950 . S
H305 C317 0.950 . S
H306 C314 0.950 . S
H307 C316 0.950 . S
H308 C318 0.950 . S
H309 C320 0.950 . S
H310 C322 0.950 . S
H311 C323 0.950 . S
C312 H304 0.950 . S
C312 C313 1.386 . S
C312 C314 1.391 . S
C313 C312 1.386 . S
C313 C317 1.393 . S
C314 H306 0.950 . S
C314 C312 1.391 . S
C314 C315 1.400 . S
C315 C314 1.400 . S
C315 C316 1.398 . S
C315 C321 1.491 . S
C316 H307 0.950 . S
C316 C315 1.398 . S
C316 C317 1.391 . S
C317 H305 0.950 . S
C317 C313 1.393 . S
C317 C316 1.391 . S
C318 H308 0.950 . S
C318 C319 1.386 . S
C318 C320 1.391 . S
C319 C318 1.386 . S
C319 C323 1.393 . S
C320 H309 0.950 . S
C320 C318 1.391 . S
C320 C321 1.400 . S
C321 C315 1.491 . S
C321 C320 1.400 . S
C321 C322 1.398 . S
C322 H310 0.950 . S
C322 C321 1.398 . S
C322 C323 1.391 . S
C323 H311 0.950 . S
C323 C319 1.393 . S
C323 C322 1.391 . S
H324 C332 0.950 . S
H325 C337 0.950 . S
H326 C334 0.950 . S
H327 C336 0.950 . S
H328 C338 0.950 . S
H329 C340 0.950 . S
H330 C342 0.950 . S
H331 C343 0.950 . S
C332 H324 0.950 . S
C332 C333 1.386 . S
C332 C334 1.391 . S
C333 C332 1.386 . S
C333 C337 1.393 . S
C334 H326 0.950 . S
C334 C332 1.391 . S
C334 C335 1.400 . S
C335 C334 1.400 . S
C335 C336 1.398 . S
C335 C341 1.491 . S
C336 H327 0.950 . S
C336 C335 1.398 . S
C336 C337 1.391 . S
C337 H325 0.950 . S
C337 C333 1.393 . S
C337 C336 1.391 . S
C338 H328 0.950 . S
C338 C339 1.386 . S
C338 C340 1.391 . S
C339 C338 1.386 . S
C339 C343 1.393 . S
C340 H329 0.950 . S
C340 C338 1.391 . S
C340 C341 1.400 . S
C341 C335 1.491 . S
C341 C340 1.400 . S
C341 C342 1.398 . S
C342 H330 0.950 . S
C342 C341 1.398 . S
C342 C343 1.391 . S
C343 H331 0.950 . S
C343 C339 1.393 . S
C343 C342 1.391 . S
H344 C352 0.950 . S
H345 C357 0.950 . S
H346 C354 0.950 . S
H347 C356 0.950 . S
H348 C358 0.950 . S
H349 C360 0.950 . S
H350 C362 0.950 . S
H351 C363 0.950 . S
C352 H344 0.950 . S
C352 C353 1.386 . S
C352 C354 1.391 . S
C353 C352 1.386 . S
C353 C357 1.393 . S
C354 H346 0.950 . S
C354 C352 1.391 . S
C354 C355 1.400 . S
C355 C354 1.400 . S
C355 C356 1.398 . S
C355 C361 1.491 . S
C356 H347 0.950 . S
C356 C355 1.398 . S
C356 C357 1.391 . S
C357 H345 0.950 . S
C357 C353 1.393 . S
C357 C356 1.391 . S
C358 H348 0.950 . S
C358 C359 1.386 . S
C358 C360 1.391 . S
C359 C358 1.386 . S
C359 C363 1.393 . S
C360 H349 0.950 . S
C360 C358 1.391 . S
C360 C361 1.400 . S
C361 C355 1.491 . S
C361 C360 1.400 . S
C361 C362 1.398 . S
C362 H350 0.950 . S
C362 C361 1.398 . S
C362 C363 1.391 . S
C363 H351 0.950 . S
C363 C359 1.393 . S
C363 C362 1.391 . S
H364 C372 0.950 . S
H365 C377 0.950 . S
H366 C374 0.950 . S
H367 C376 0.950 . S
H368 C378 0.950 . S
H369 C380 0.950 . S
H370 C382 0.950 . S
H371 C383 0.950 . S
C372 H364 0.950 . S
C372 C373 1.386 . S
C372 C374 1.391 . S
C373 C372 1.386 . S
C373 C377 1.393 . S
C374 H366 0.950 . S
C374 C372 1.391 . S
C374 C375 1.400 . S
C375 C374 1.400 . S
C375 C376 1.398 . S
C375 C381 1.491 . S
C376 H367 0.950 . S
C376 C375 1.398 . S
C376 C377 1.391 . S
C377 H365 0.950 . S
C377 C373 1.393 . S
C377 C376 1.391 . S
C378 H368 0.950 . S
C378 C379 1.386 . S
C378 C380 1.391 . S
C379 C378 1.386 . S
C379 C383 1.393 . S
C380 H369 0.950 . S
C380 C378 1.391 . S
C380 C381 1.400 . S
C381 C375 1.491 . S
C381 C380 1.400 . S
C381 C382 1.398 . S
C382 H370 0.950 . S
C382 C381 1.398 . S
C382 C383 1.391 . S
C383 H371 0.950 . S
C383 C379 1.393 . S
C383 C382 1.391 . S
H384 C392 0.950 . S
H385 C397 0.950 1_565 S
H386 C394 0.950 . S
H387 C396 0.950 . S
H388 C398 0.950 . S
H389 C400 0.950 . S
H390 C402 0.950 . S
H391 C403 0.950 1_545 S
C392 H384 0.950 . S
C392 C393 1.386 . S
C392 C394 1.391 . S
C393 C392 1.386 . S
C393 C397 1.393 . S
C394 H386 0.950 . S
C394 C392 1.391 . S
C394 C395 1.400 . S
C395 C394 1.400 . S
C395 C396 1.398 1_545 S
C395 C401 1.491 1_445 S
C396 H387 0.950 . S
C396 C395 1.398 1_565 S
C396 C397 1.391 1_565 S
C397 H385 0.950 1_545 S
C397 C393 1.393 . S
C397 C396 1.391 1_545 S
C398 H388 0.950 . S
C398 C399 1.386 . S
C398 C400 1.391 . S
C399 C398 1.386 . S
C399 C403 1.393 . S
C400 H389 0.950 . S
C400 C398 1.391 . S
C400 C401 1.400 . S
C401 C395 1.491 1_665 S
C401 C400 1.400 . S
C401 C402 1.398 1_565 S
C402 H390 0.950 . S
C402 C401 1.398 1_545 S
C402 C403 1.391 1_545 S
C403 H391 0.950 1_565 S
C403 C399 1.393 . S
C403 C402 1.391 1_565 S
H404 C412 0.950 . S
H405 C417 0.950 . S
H406 C414 0.950 . S
H407 C416 0.950 . S
H408 C418 0.950 . S
H409 C420 0.950 . S
H410 C422 0.950 . S
H411 C423 0.950 . S
C412 H404 0.950 . S
C412 C413 1.386 . S
C412 C414 1.391 . S
C413 C412 1.386 . S
C413 C417 1.393 . S
C414 H406 0.950 . S
C414 C412 1.391 . S
C414 C415 1.400 . S
C415 C414 1.400 . S
C415 C416 1.398 1_655 S
C415 C421 1.491 1_655 S
C416 H407 0.950 . S
C416 C415 1.398 1_455 S
C416 C417 1.391 1_455 S
C417 H405 0.950 . S
C417 C413 1.393 . S
C417 C416 1.391 1_655 S
C418 H408 0.950 . S
C418 C419 1.386 . S
C418 C420 1.391 . S
C419 C418 1.386 . S
C419 C423 1.393 . S
C420 H409 0.950 . S
C420 C418 1.391 . S
C420 C421 1.400 . S
C421 C415 1.491 1_455 S
C421 C420 1.400 . S
C421 C422 1.398 1_455 S
C422 H410 0.950 . S
C422 C421 1.398 1_655 S
C422 C423 1.391 1_655 S
C423 H411 0.950 . S
C423 C419 1.393 . S
C423 C422 1.391 1_455 S
H424 C432 0.950 . S
H425 C437 0.950 . S
H426 C434 0.950 . S
H427 C436 0.950 . S
H428 C438 0.950 . S
H429 C440 0.950 . S
H430 C442 0.950 . S
H431 C443 0.950 . S
C432 H424 0.950 . S
C432 C433 1.386 . S
C432 C434 1.391 . S
C433 C432 1.386 . S
C433 C437 1.393 . S
C434 H426 0.950 . S
C434 C432 1.391 . S
C434 C435 1.400 . S
C435 C434 1.400 . S
C435 C436 1.398 . S
C435 C441 1.491 . S
C436 H427 0.950 . S
C436 C435 1.398 . S
C436 C437 1.391 . S
C437 H425 0.950 . S
C437 C433 1.393 . S
C437 C436 1.391 . S
C438 H428 0.950 . S
C438 C439 1.386 . S
C438 C440 1.391 . S
C439 C438 1.386 . S
C439 C443 1.393 . S
C440 H429 0.950 . S
C440 C438 1.391 . S
C440 C441 1.400 . S
C441 C435 1.491 . S
C441 C440 1.400 . S
C441 C442 1.398 . S
C442 H430 0.950 . S
C442 C441 1.398 . S
C442 C443 1.391 . S
C443 H431 0.950 . S
C443 C439 1.393 . S
C443 C442 1.391 . S
H444 C452 0.950 . S
H445 C457 0.950 . S
H446 C454 0.950 . S
H447 C456 0.950 . S
H448 C458 0.950 . S
H449 C460 0.950 . S
H450 C462 0.950 . S
H451 C463 0.950 . S
C452 H444 0.950 . S
C452 C453 1.386 . S
C452 C454 1.391 . S
C453 C452 1.386 . S
C453 C457 1.393 . S
C454 H446 0.950 . S
C454 C452 1.391 . S
C454 C455 1.400 . S
C455 C454 1.400 . S
C455 C456 1.398 . S
C455 C461 1.491 1_565 S
C456 H447 0.950 . S
C456 C455 1.398 . S
C456 C457 1.391 . S
C457 H445 0.950 . S
C457 C453 1.393 . S
C457 C456 1.391 . S
C458 H448 0.950 . S
C458 C459 1.386 . S
C458 C460 1.391 . S
C459 C458 1.386 . S
C459 C463 1.393 . S
C460 H449 0.950 . S
C460 C458 1.391 . S
C460 C461 1.400 . S
C461 C455 1.491 1_545 S
C461 C460 1.400 . S
C461 C462 1.398 . S
C462 H450 0.950 . S
C462 C461 1.398 . S
C462 C463 1.391 . S
C463 H451 0.950 . S
C463 C459 1.393 . S
C463 C462 1.391 . S
H464 C472 0.950 . S
H465 C477 0.950 . S
H466 C474 0.950 . S
H467 C476 0.950 . S
H468 C478 0.950 . S
H469 C480 0.950 . S
H470 C482 0.950 . S
H471 C483 0.950 . S
C472 H464 0.950 . S
C472 C473 1.386 1_556 S
C472 C474 1.391 . S
C473 C472 1.386 1_554 S
C473 C477 1.393 . S
C474 H466 0.950 . S
C474 C472 1.391 . S
C474 C475 1.400 1_556 S
C475 C474 1.400 1_554 S
C475 C476 1.398 . S
C475 C481 1.491 1_455 S
C476 H467 0.950 . S
C476 C475 1.398 . S
C476 C477 1.391 . S
C477 H465 0.950 . S
C477 C473 1.393 . S
C477 C476 1.391 . S
C478 H468 0.950 . S
C478 C479 1.386 . S
C478 C480 1.391 . S
C479 C478 1.386 . S
C479 C483 1.393 1_554 S
C480 H469 0.950 . S
C480 C478 1.391 . S
C480 C481 1.400 . S
C481 C475 1.491 1_655 S
C481 C480 1.400 . S
C481 C482 1.398 1_554 S
C482 H470 0.950 . S
C482 C481 1.398 1_556 S
C482 C483 1.391 . S
C483 H471 0.950 . S
C483 C479 1.393 1_556 S
C483 C482 1.391 . S
H484 C492 0.950 . S
H485 C497 0.950 . S
H486 C494 0.950 . S
H487 C496 0.950 . S
H488 C498 0.950 . S
H489 C500 0.950 . S
H490 C502 0.950 . S
H491 C503 0.950 . S
C492 H484 0.950 . S
C492 C493 1.386 . S
C492 C494 1.391 . S
C493 C492 1.386 . S
C493 C497 1.393 . S
C494 H486 0.950 . S
C494 C492 1.391 . S
C494 C495 1.400 . S
C495 C494 1.400 . S
C495 C496 1.398 . S
C495 C501 1.491 . S
C496 H487 0.950 . S
C496 C495 1.398 . S
C496 C497 1.391 . S
C497 H485 0.950 . S
C497 C493 1.393 . S
C497 C496 1.391 . S
C498 H488 0.950 . S
C498 C499 1.386 . S
C498 C500 1.391 . S
C499 C498 1.386 . S
C499 C503 1.393 . S
C500 H489 0.950 . S
C500 C498 1.391 . S
C500 C501 1.400 . S
C501 C495 1.491 . S
C501 C500 1.400 . S
C501 C502 1.398 . S
C502 H490 0.950 . S
C502 C501 1.398 . S
C502 C503 1.391 . S
C503 H491 0.950 . S
C503 C499 1.393 . S
C503 C502 1.391 . S
H504 C512 0.950 1_565 S
H505 C517 0.950 . S
H506 C514 0.950 . S
H507 C516 0.950 . S
H508 C518 0.950 1_545 S
H509 C520 0.950 . S
H510 C522 0.950 . S
H511 C523 0.950 . S
C512 H504 0.950 1_545 S
C512 C513 1.386 . S
C512 C514 1.391 1_545 S
C513 C512 1.386 . S
C513 C517 1.393 . S
C514 H506 0.950 . S
C514 C512 1.391 1_565 S
C514 C515 1.400 1_565 S
C515 C514 1.400 1_545 S
C515 C516 1.398 . S
C515 C521 1.491 1_545 S
C516 H507 0.950 . S
C516 C515 1.398 . S
C516 C517 1.391 . S
C517 H505 0.950 . S
C517 C513 1.393 . S
C517 C516 1.391 . S
C518 H508 0.950 1_565 S
C518 C519 1.386 . S
C518 C520 1.391 1_565 S
C519 C518 1.386 . S
C519 C523 1.393 . S
C520 H509 0.950 . S
C520 C518 1.391 1_545 S
C520 C521 1.400 1_545 S
C521 C515 1.491 1_565 S
C521 C520 1.400 1_565 S
C521 C522 1.398 . S
C522 H510 0.950 . S
C522 C521 1.398 . S
C522 C523 1.391 . S
C523 H511 0.950 . S
C523 C519 1.393 . S
C523 C522 1.391 . S
H524 C532 0.950 . S
H525 C537 0.950 . S
H526 C534 0.950 . S
H527 C536 0.950 . S
H528 C538 0.950 . S
H529 C540 0.950 . S
H530 C542 0.950 . S
H531 C543 0.950 . S
C532 H524 0.950 . S
C532 C533 1.386 . S
C532 C534 1.391 1_455 S
C533 C532 1.386 . S
C533 C537 1.393 . S
C534 H526 0.950 . S
C534 C532 1.391 1_655 S
C534 C535 1.400 1_655 S
C535 C534 1.400 1_455 S
C535 C536 1.398 . S
C535 C541 1.491 1_445 S
C536 H527 0.950 . S
C536 C535 1.398 . S
C536 C537 1.391 . S
C537 H525 0.950 . S
C537 C533 1.393 . S
C537 C536 1.391 . S
C538 H528 0.950 . S
C538 C539 1.386 . S
C538 C540 1.391 1_655 S
C539 C538 1.386 . S
C539 C543 1.393 . S
C540 H529 0.950 . S
C540 C538 1.391 1_455 S
C540 C541 1.400 1_455 S
C541 C535 1.491 1_665 S
C541 C540 1.400 1_655 S
C541 C542 1.398 . S
C542 H530 0.950 . S
C542 C541 1.398 . S
C542 C543 1.391 . S
C543 H531 0.950 . S
C543 C539 1.393 . S
C543 C542 1.391 . S
H544 C552 0.950 . S
H545 C557 0.950 . S
H546 C554 0.950 . S
H547 C556 0.950 . S
H548 C558 0.950 . S
H549 C560 0.950 . S
H550 C562 0.950 . S
H551 C563 0.950 . S
C552 H544 0.950 . S
C552 C553 1.386 . S
C552 C554 1.391 . S
C553 C552 1.386 . S
C553 C557 1.393 . S
C554 H546 0.950 . S
C554 C552 1.391 . S
C554 C555 1.400 . S
C555 C554 1.400 . S
C555 C556 1.398 . S
C555 C561 1.491 . S
C556 H547 0.950 . S
C556 C555 1.398 . S
C556 C557 1.391 . S
C557 H545 0.950 . S
C557 C553 1.393 . S
C557 C556 1.391 . S
C558 H548 0.950 . S
C558 C559 1.386 . S
C558 C560 1.391 . S
C559 C558 1.386 . S
C559 C563 1.393 . S
C560 H549 0.950 . S
C560 C558 1.391 . S
C560 C561 1.400 . S
C561 C555 1.491 . S
C561 C560 1.400 . S
C561 C562 1.398 . S
C562 H550 0.950 . S
C562 C561 1.398 . S
C562 C563 1.391 . S
C563 H551 0.950 . S
C563 C559 1.393 . S
C563 C562 1.391 . S
H564 C572 0.950 . S
H565 C577 0.950 . S
H566 C574 0.950 . S
H567 C576 0.950 . S
H568 C578 0.950 . S
H569 C580 0.950 . S
H570 C582 0.950 . S
H571 C583 0.950 . S
C572 H564 0.950 . S
C572 C573 1.386 . S
C572 C574 1.391 . S
C573 C572 1.386 . S
C573 C577 1.393 . S
C574 H566 0.950 . S
C574 C572 1.391 . S
C574 C575 1.400 . S
C575 C574 1.400 . S
C575 C576 1.398 . S
C575 C581 1.491 . S
C576 H567 0.950 . S
C576 C575 1.398 . S
C576 C577 1.391 . S
C577 H565 0.950 . S
C577 C573 1.393 . S
C577 C576 1.391 . S
C578 H568 0.950 . S
C578 C579 1.386 . S
C578 C580 1.391 . S
C579 C578 1.386 . S
C579 C583 1.393 . S
C580 H569 0.950 . S
C580 C578 1.391 . S
C580 C581 1.400 . S
C581 C575 1.491 . S
C581 C580 1.400 . S
C581 C582 1.398 . S
C582 H570 0.950 . S
C582 C581 1.398 . S
C582 C583 1.391 . S
C583 H571 0.950 . S
C583 C579 1.393 . S
C583 C582 1.391 . S
H584 C592 0.950 . S
H585 C597 0.950 . S
H586 C594 0.950 . S
H587 C596 0.950 . S
H588 C598 0.950 . S
H589 C600 0.950 . S
H590 C602 0.950 1_554 S
H591 C603 0.950 . S
C592 H584 0.950 . S
C592 C593 1.386 . S
C592 C594 1.391 . S
C593 C592 1.386 . S
C593 C597 1.393 . S
C594 H586 0.950 . S
C594 C592 1.391 . S
C594 C595 1.400 . S
C595 C594 1.400 . S
C595 C596 1.398 . S
C595 C601 1.491 . S
C596 H587 0.950 . S
C596 C595 1.398 . S
C596 C597 1.391 . S
C597 H585 0.950 . S
C597 C593 1.393 . S
C597 C596 1.391 . S
C598 H588 0.950 . S
C598 C599 1.386 . S
C598 C600 1.391 . S
C599 C598 1.386 . S
C599 C603 1.393 . S
C600 H589 0.950 . S
C600 C598 1.391 . S
C600 C601 1.400 1_556 S
C601 C595 1.491 . S
C601 C600 1.400 1_554 S
C601 C602 1.398 1_554 S
C602 H590 0.950 1_556 S
C602 C601 1.398 1_556 S
C602 C603 1.391 . S
C603 H591 0.950 . S
C603 C599 1.393 . S
C603 C602 1.391 . S
H604 C612 0.950 . S
H605 C617 0.950 . S
H606 C614 0.950 . S
H607 C616 0.950 . S
H608 C618 0.950 . S
H609 C620 0.950 . S
H610 C622 0.950 . S
H611 C623 0.950 . S
C612 H604 0.950 . S
C612 C613 1.386 . S
C612 C614 1.391 . S
C613 C612 1.386 . S
C613 C617 1.393 . S
C614 H606 0.950 . S
C614 C612 1.391 . S
C614 C615 1.400 . S
C615 C614 1.400 . S
C615 C616 1.398 . S
C615 C621 1.491 . S
C616 H607 0.950 . S
C616 C615 1.398 . S
C616 C617 1.391 . S
C617 H605 0.950 . S
C617 C613 1.393 . S
C617 C616 1.391 . S
C618 H608 0.950 . S
C618 C619 1.386 . S
C618 C620 1.391 . S
C619 C618 1.386 . S
C619 C623 1.393 . S
C620 H609 0.950 . S
C620 C618 1.391 . S
C620 C621 1.400 . S
C621 C615 1.491 . S
C621 C620 1.400 . S
C621 C622 1.398 . S
C622 H610 0.950 . S
C622 C621 1.398 . S
C622 C623 1.391 . S
C623 H611 0.950 . S
C623 C619 1.393 . S
C623 C622 1.391 . S
H624 C632 0.950 . S
H625 C637 0.950 . S
H626 C634 0.950 . S
H627 C636 0.950 . S
H628 C638 0.950 . S
H629 C640 0.950 . S
H630 C642 0.950 . S
H631 C643 0.950 . S
C632 H624 0.950 . S
C632 C633 1.386 . S
C632 C634 1.391 . S
C633 C632 1.386 . S
C633 C637 1.393 . S
C634 H626 0.950 . S
C634 C632 1.391 . S
C634 C635 1.400 . S
C635 C634 1.400 . S
C635 C636 1.398 . S
C635 C641 1.491 . S
C636 H627 0.950 . S
C636 C635 1.398 . S
C636 C637 1.391 . S
C637 H625 0.950 . S
C637 C633 1.393 . S
C637 C636 1.391 . S
C638 H628 0.950 . S
C638 C639 1.386 . S
C638 C640 1.391 . S
C639 C638 1.386 . S
C639 C643 1.393 . S
C640 H629 0.950 . S
C640 C638 1.391 . S
C640 C641 1.400 . S
C641 C635 1.491 . S
C641 C640 1.400 . S
C641 C642 1.398 . S
C642 H630 0.950 . S
C642 C641 1.398 . S
C642 C643 1.391 . S
C643 H631 0.950 . S
C643 C639 1.393 . S
C643 C642 1.391 . S
H644 C652 0.950 . S
H645 C657 0.950 . S
H646 C654 0.950 . S
H647 C656 0.950 . S
H648 C658 0.950 . S
H649 C660 0.950 . S
H650 C662 0.950 1_554 S
H651 C663 0.950 . S
C652 H644 0.950 . S
C652 C653 1.386 . S
C652 C654 1.391 . S
C653 C652 1.386 . S
C653 C657 1.393 . S
C654 H646 0.950 . S
C654 C652 1.391 . S
C654 C655 1.400 . S
C655 C654 1.400 . S
C655 C656 1.398 . S
C655 C661 1.491 . S
C656 H647 0.950 . S
C656 C655 1.398 . S
C656 C657 1.391 . S
C657 H645 0.950 . S
C657 C653 1.393 . S
C657 C656 1.391 . S
C658 H648 0.950 . S
C658 C659 1.386 . S
C658 C660 1.391 . S
C659 C658 1.386 . S
C659 C663 1.393 . S
C660 H649 0.950 . S
C660 C658 1.391 . S
C660 C661 1.400 1_556 S
C661 C655 1.491 . S
C661 C660 1.400 1_554 S
C661 C662 1.398 1_554 S
C662 H650 0.950 1_556 S
C662 C661 1.398 1_556 S
C662 C663 1.391 . S
C663 H651 0.950 . S
C663 C659 1.393 . S
C663 C662 1.391 . S
H664 C672 0.950 . S
H665 C677 0.950 . S
H666 C674 0.950 . S
H667 C676 0.950 . S
H668 C678 0.950 . S
H669 C680 0.950 . S
H670 C682 0.950 . S
H671 C683 0.950 . S
C672 H664 0.950 . S
C672 C673 1.386 . S
C672 C674 1.391 . S
C673 C672 1.386 . S
C673 C677 1.393 . S
C674 H666 0.950 . S
C674 C672 1.391 . S
C674 C675 1.400 . S
C675 C674 1.400 . S
C675 C676 1.398 . S
C675 C681 1.491 . S
C676 H667 0.950 . S
C676 C675 1.398 . S
C676 C677 1.391 . S
C677 H665 0.950 . S
C677 C673 1.393 . S
C677 C676 1.391 . S
C678 H668 0.950 . S
C678 C679 1.386 . S
C678 C680 1.391 . S
C679 C678 1.386 . S
C679 C683 1.393 . S
C680 H669 0.950 . S
C680 C678 1.391 . S
C680 C681 1.400 . S
C681 C675 1.491 . S
C681 C680 1.400 . S
C681 C682 1.398 . S
C682 H670 0.950 . S
C682 C681 1.398 . S
C682 C683 1.391 . S
C683 H671 0.950 . S
C683 C679 1.393 . S
C683 C682 1.391 . S
H684 C692 0.950 . S
H685 C697 0.950 . S
H686 C694 0.950 . S
H687 C696 0.950 . S
H688 C698 0.950 . S
H689 C700 0.950 . S
H690 C702 0.950 . S
H691 C703 0.950 . S
C692 H684 0.950 . S
C692 C693 1.386 . S
C692 C694 1.391 . S
C693 C692 1.386 . S
C693 C697 1.393 . S
C694 H686 0.950 . S
C694 C692 1.391 . S
C694 C695 1.400 . S
C695 C694 1.400 . S
C695 C696 1.398 . S
C695 C701 1.491 . S
C696 H687 0.950 . S
C696 C695 1.398 . S
C696 C697 1.391 . S
C697 H685 0.950 . S
C697 C693 1.393 . S
C697 C696 1.391 . S
C698 H688 0.950 . S
C698 C699 1.386 . S
C698 C700 1.391 . S
C699 C698 1.386 . S
C699 C703 1.393 . S
C700 H689 0.950 . S
C700 C698 1.391 . S
C700 C701 1.400 . S
C701 C695 1.491 . S
C701 C700 1.400 . S
C701 C702 1.398 . S
C702 H690 0.950 . S
C702 C701 1.398 . S
C702 C703 1.391 . S
C703 H691 0.950 . S
C703 C699 1.393 . S
C703 C702 1.391 . S
H704 C712 0.950 . S
H705 C717 0.950 . S
H706 C714 0.950 1_554 S
H707 C716 0.950 . S
H708 C718 0.950 . S
H709 C720 0.950 . S
H710 C722 0.950 . S
H711 C723 0.950 . S
C712 H704 0.950 . S
C712 C713 1.386 . S
C712 C714 1.391 . S
C713 C712 1.386 . S
C713 C717 1.393 . S
C714 H706 0.950 1_556 S
C714 C712 1.391 . S
C714 C715 1.400 1_556 S
C715 C714 1.400 1_554 S
C715 C716 1.398 1_554 S
C715 C721 1.491 . S
C716 H707 0.950 . S
C716 C715 1.398 1_556 S
C716 C717 1.391 . S
C717 H705 0.950 . S
C717 C713 1.393 . S
C717 C716 1.391 . S
C718 H708 0.950 . S
C718 C719 1.386 . S
C718 C720 1.391 . S
C719 C718 1.386 . S
C719 C723 1.393 . S
C720 H709 0.950 . S
C720 C718 1.391 . S
C720 C721 1.400 . S
C721 C715 1.491 . S
C721 C720 1.400 . S
C721 C722 1.398 . S
C722 H710 0.950 . S
C722 C721 1.398 . S
C722 C723 1.391 . S
C723 H711 0.950 . S
C723 C719 1.393 . S
C723 C722 1.391 . S
H724 C732 0.950 . S
H725 C737 0.950 . S
H726 C734 0.950 . S
H727 C736 0.950 . S
H728 C738 0.950 . S
H729 C740 0.950 . S
H730 C742 0.950 . S
H731 C743 0.950 . S
C732 H724 0.950 . S
C732 C733 1.386 . S
C732 C734 1.391 . S
C733 C732 1.386 . S
C733 C737 1.393 . S
C734 H726 0.950 . S
C734 C732 1.391 . S
C734 C735 1.400 . S
C735 C734 1.400 . S
C735 C736 1.398 . S
C735 C741 1.491 . S
C736 H727 0.950 . S
C736 C735 1.398 . S
C736 C737 1.391 . S
C737 H725 0.950 . S
C737 C733 1.393 . S
C737 C736 1.391 . S
C738 H728 0.950 . S
C738 C739 1.386 . S
C738 C740 1.391 . S
C739 C738 1.386 . S
C739 C743 1.393 . S
C740 H729 0.950 . S
C740 C738 1.391 . S
C740 C741 1.400 . S
C741 C735 1.491 . S
C741 C740 1.400 . S
C741 C742 1.398 . S
C742 H730 0.950 . S
C742 C741 1.398 . S
C742 C743 1.391 . S
C743 H731 0.950 . S
C743 C739 1.393 . S
C743 C742 1.391 . S
H744 C752 0.950 . S
H745 C757 0.950 . S
H746 C754 0.950 . S
H747 C756 0.950 . S
H748 C758 0.950 . S
H749 C760 0.950 . S
H750 C762 0.950 . S
H751 C763 0.950 . S
C752 H744 0.950 . S
C752 C753 1.386 . S
C752 C754 1.391 . S
C753 C752 1.386 . S
C753 C757 1.393 . S
C754 H746 0.950 . S
C754 C752 1.391 . S
C754 C755 1.400 . S
C755 C754 1.400 . S
C755 C756 1.398 . S
C755 C761 1.491 . S
C756 H747 0.950 . S
C756 C755 1.398 . S
C756 C757 1.391 . S
C757 H745 0.950 . S
C757 C753 1.393 . S
C757 C756 1.391 . S
C758 H748 0.950 . S
C758 C759 1.386 . S
C758 C760 1.391 . S
C759 C758 1.386 . S
C759 C763 1.393 . S
C760 H749 0.950 . S
C760 C758 1.391 . S
C760 C761 1.400 . S
C761 C755 1.491 . S
C761 C760 1.400 . S
C761 C762 1.398 . S
C762 H750 0.950 . S
C762 C761 1.398 . S
C762 C763 1.391 . S
C763 H751 0.950 . S
C763 C759 1.393 . S
C763 C762 1.391 . S
H764 C772 0.950 . S
H765 C777 0.950 . S
H766 C774 0.950 . S
H767 C776 0.950 . S
H768 C778 0.950 . S
H769 C780 0.950 . S
H770 C782 0.950 . S
H771 C783 0.950 . S
C772 H764 0.950 . S
C772 C773 1.386 . S
C772 C774 1.391 . S
C773 C772 1.386 . S
C773 C777 1.393 . S
C774 H766 0.950 . S
C774 C772 1.391 . S
C774 C775 1.400 . S
C775 C774 1.400 . S
C775 C776 1.398 . S
C775 C781 1.491 . S
C776 H767 0.950 . S
C776 C775 1.398 . S
C776 C777 1.391 . S
C777 H765 0.950 . S
C777 C773 1.393 . S
C777 C776 1.391 . S
C778 H768 0.950 . S
C778 C779 1.386 . S
C778 C780 1.391 . S
C779 C778 1.386 . S
C779 C783 1.393 . S
C780 H769 0.950 . S
C780 C778 1.391 . S
C780 C781 1.400 . S
C781 C775 1.491 . S
C781 C780 1.400 . S
C781 C782 1.398 . S
C782 H770 0.950 . S
C782 C781 1.398 . S
C782 C783 1.391 . S
C783 H771 0.950 . S
C783 C779 1.393 . S
C783 C782 1.391 . S
H784 C792 0.950 . S
H785 C797 0.950 . S
H786 C794 0.950 . S
H787 C796 0.950 . S
H788 C798 0.950 . S
H789 C800 0.950 . S
H790 C802 0.950 . S
H791 C803 0.950 . S
C792 H784 0.950 . S
C792 C793 1.386 . S
C792 C794 1.391 . S
C793 C792 1.386 . S
C793 C797 1.393 . S
C794 H786 0.950 . S
C794 C792 1.391 . S
C794 C795 1.400 . S
C795 C794 1.400 . S
C795 C796 1.398 . S
C795 C801 1.491 . S
C796 H787 0.950 . S
C796 C795 1.398 . S
C796 C797 1.391 . S
C797 H785 0.950 . S
C797 C793 1.393 . S
C797 C796 1.391 . S
C798 H788 0.950 . S
C798 C799 1.386 . S
C798 C800 1.391 . S
C799 C798 1.386 . S
C799 C803 1.393 . S
C800 H789 0.950 . S
C800 C798 1.391 . S
C800 C801 1.400 . S
C801 C795 1.491 . S
C801 C800 1.400 . S
C801 C802 1.398 . S
C802 H790 0.950 . S
C802 C801 1.398 . S
C802 C803 1.391 . S
C803 H791 0.950 . S
C803 C799 1.393 . S
C803 C802 1.391 . S
H804 C812 0.950 . S
H805 C817 0.950 . S
H806 C814 0.950 . S
H807 C816 0.950 . S
H808 C818 0.950 . S
H809 C820 0.950 . S
H810 C822 0.950 . S
H811 C823 0.950 . S
C812 H804 0.950 . S
C812 C813 1.386 . S
C812 C814 1.391 . S
C813 C812 1.386 . S
C813 C817 1.393 . S
C814 H806 0.950 . S
C814 C812 1.391 . S
C814 C815 1.400 . S
C815 C814 1.400 . S
C815 C816 1.398 . S
C815 C821 1.491 . S
C816 H807 0.950 . S
C816 C815 1.398 . S
C816 C817 1.391 . S
C817 H805 0.950 . S
C817 C813 1.393 . S
C817 C816 1.391 . S
C818 H808 0.950 . S
C818 C819 1.386 . S
C818 C820 1.391 . S
C819 C818 1.386 . S
C819 C823 1.393 . S
C820 H809 0.950 . S
C820 C818 1.391 . S
C820 C821 1.400 . S
C821 C815 1.491 . S
C821 C820 1.400 . S
C821 C822 1.398 . S
C822 H810 0.950 . S
C822 C821 1.398 . S
C822 C823 1.391 . S
C823 H811 0.950 . S
C823 C819 1.393 . S
C823 C822 1.391 . S
H824 C832 0.950 . S
H825 C837 0.950 . S
H826 C834 0.950 . S
H827 C836 0.950 . S
H828 C838 0.950 . S
H829 C840 0.950 . S
H830 C842 0.950 . S
H831 C843 0.950 . S
C832 H824 0.950 . S
C832 C833 1.386 . S
C832 C834 1.391 . S
C833 C832 1.386 . S
C833 C837 1.393 . S
C834 H826 0.950 . S
C834 C832 1.391 . S
C834 C835 1.400 . S
C835 C834 1.400 . S
C835 C836 1.398 . S
C835 C841 1.491 . S
C836 H827 0.950 . S
C836 C835 1.398 . S
C836 C837 1.391 . S
C837 H825 0.950 . S
C837 C833 1.393 . S
C837 C836 1.391 . S
C838 H828 0.950 . S
C838 C839 1.386 . S
C838 C840 1.391 . S
C839 C838 1.386 . S
C839 C843 1.393 . S
C840 H829 0.950 . S
C840 C838 1.391 . S
C840 C841 1.400 . S
C841 C835 1.491 . S
C841 C840 1.400 . S
C841 C842 1.398 . S
C842 H830 0.950 . S
C842 C841 1.398 . S
C842 C843 1.391 . S
C843 H831 0.950 . S
C843 C839 1.393 . S
C843 C842 1.391 . S
H844 C852 0.950 . S
H845 C857 0.950 . S
H846 C854 0.950 . S
H847 C856 0.950 . S
H848 C858 0.950 . S
H849 C860 0.950 1_554 S
H850 C862 0.950 . S
H851 C863 0.950 . S
C852 H844 0.950 . S
C852 C853 1.386 . S
C852 C854 1.391 . S
C853 C852 1.386 . S
C853 C857 1.393 . S
C854 H846 0.950 . S
C854 C852 1.391 . S
C854 C855 1.400 . S
C855 C854 1.400 . S
C855 C856 1.398 . S
C855 C861 1.491 . S
C856 H847 0.950 . S
C856 C855 1.398 . S
C856 C857 1.391 . S
C857 H845 0.950 . S
C857 C853 1.393 . S
C857 C856 1.391 . S
C858 H848 0.950 . S
C858 C859 1.386 . S
C858 C860 1.391 . S
C859 C858 1.386 . S
C859 C863 1.393 . S
C860 H849 0.950 1_556 S
C860 C858 1.391 . S
C860 C861 1.400 1_556 S
C861 C855 1.491 . S
C861 C860 1.400 1_554 S
C861 C862 1.398 1_554 S
C862 H850 0.950 . S
C862 C861 1.398 1_556 S
C862 C863 1.391 . S
C863 H851 0.950 . S
C863 C859 1.393 . S
C863 C862 1.391 . S
C233 C90 1.399 . S
C239 C6 1.403 . S
C253 C104 1.422 . S
C259 C20 1.420 . S
C273 C34 1.404 . S
C279 C62 1.399 . S
C293 C48 1.413 . S
C299 C76 1.403 . S
C313 C118 1.421 . S
C319 C202 1.422 . S
C333 C216 1.419 . S
C339 C132 1.422 . S
C353 C146 1.413 . S
C359 C174 1.402 . S
C373 C160 1.400 . S
C379 C188 1.401 . S
C393 C9 1.356 . S
C399 C149 1.363 . S
C413 C23 1.337 . S
C419 C163 1.344 . S
C433 C37 1.348 . S
C439 C121 1.339 . S
C453 C51 1.356 . S
C459 C135 1.363 . S
C473 C65 1.346 . S
C479 C205 1.337 . S
C493 C219 1.361 . S
C499 C79 1.352 . S
C513 C93 1.344 . S
C519 C177 1.336 . S
C533 C191 1.341 . S
C539 C107 1.335 . S
C553 C190 0.836 . S
C559 C8 0.831 . S
C573 C22 0.809 . S
C579 C204 0.803 . S
C593 C218 0.798 . S
C599 C36 0.803 . S
C613 C176 0.824 . S
C619 C50 0.817 . S
C633 C162 0.841 . S
C639 C64 0.838 . S
C653 C78 0.812 . S
C659 C120 0.819 . S
C673 C92 0.794 . S
C679 C134 0.796 . S
C693 C106 0.839 . S
C699 C148 0.842 . S
C713 C189 1.498 . S
C719 C7 1.505 . S
C733 C21 1.497 . S
C739 C203 1.497 . S
C753 C35 1.497 . S
C759 C217 1.498 . S
C773 C175 1.498 . S
C779 C49 1.504 . S
C793 C161 1.496 . S
C799 C63 1.501 . S
C813 C119 1.507 . S
C819 C77 1.512 . S
C833 C91 1.498 . S
C839 C133 1.505 . S
C853 C147 1.496 . S
C859 C105 1.500 . S
