# Generated by pormake.
# Topology sml, (6)-cn, num edge types: 1
# Building blocks:
#     Node 0, Type 0, BuildingBlock: BETDEL_clean_sbu_0, # of connection points: 6
#     Node 1, Type 0, BuildingBlock: BETDEL_clean_sbu_0, # of connection points: 6
#     Node 2, Type 0, BuildingBlock: BETDEL_clean_sbu_0, # of connection points: 6
#     Node 3, Type 0, BuildingBlock: BETDEL_clean_sbu_0, # of connection points: 6
#     Node 4, Type 0, BuildingBlock: BETDEL_clean_sbu_0, # of connection points: 6
#     Node 5, Type 0, BuildingBlock: BETDEL_clean_sbu_0, # of connection points: 6
#     Edge 6, Type (0, 0), BuildingBlock: OJICUG_clean_linker_0, # of connection points: 2
#     Edge 7, Type (0, 0), BuildingBlock: OJICUG_clean_linker_0, # of connection points: 2
#     Edge 8, Type (0, 0), BuildingBlock: OJICUG_clean_linker_0, # of connection points: 2
#     Edge 9, Type (0, 0), BuildingBlock: OJICUG_clean_linker_0, # of connection points: 2
#     Edge 10, Type (0, 0), BuildingBlock: OJICUG_clean_linker_0, # of connection points: 2
#     Edge 11, Type (0, 0), BuildingBlock: OJICUG_clean_linker_0, # of connection points: 2
#     Edge 12, Type (0, 0), BuildingBlock: OJICUG_clean_linker_0, # of connection points: 2
#     Edge 13, Type (0, 0), BuildingBlock: OJICUG_clean_linker_0, # of connection points: 2
#     Edge 14, Type (0, 0), BuildingBlock: OJICUG_clean_linker_0, # of connection points: 2
#     Edge 15, Type (0, 0), BuildingBlock: OJICUG_clean_linker_0, # of connection points: 2
#     Edge 16, Type (0, 0), BuildingBlock: OJICUG_clean_linker_0, # of connection points: 2
#     Edge 17, Type (0, 0), BuildingBlock: OJICUG_clean_linker_0, # of connection points: 2
#     Edge 18, Type (0, 0), BuildingBlock: OJICUG_clean_linker_0, # of connection points: 2
#     Edge 19, Type (0, 0), BuildingBlock: OJICUG_clean_linker_0, # of connection points: 2
#     Edge 20, Type (0, 0), BuildingBlock: OJICUG_clean_linker_0, # of connection points: 2
#     Edge 21, Type (0, 0), BuildingBlock: OJICUG_clean_linker_0, # of connection points: 2
#     Edge 22, Type (0, 0), BuildingBlock: OJICUG_clean_linker_0, # of connection points: 2
#     Edge 23, Type (0, 0), BuildingBlock: OJICUG_clean_linker_0, # of connection points: 2
# Relax obj value: 0.146
# Max RMSD: 0.181
# Mean RMSD: 0.181
data_MOF--net-sml--node1-BETDEL_clean_sbu_0--edge1-OJICUG_clean_linker_0
_symmetry_space_group_name_H-M    P1
_symmetry_Int_Tables_number       1
_symmetry_cell_setting            triclinic
loop_
_symmetry_equiv_pos_as_xyz
'x, y, z'
_cell_length_a     25.561532
_cell_length_b     25.563189
_cell_length_c     13.74599
_cell_angle_alpha  90.300701
_cell_angle_beta   89.878464
_cell_angle_gamma 120.17912
loop_
_atom_site_label
_atom_site_type_symbol
_atom_site_fract_x
_atom_site_fract_y
_atom_site_fract_z
_atom_type_partial_charge
Dy0 Dy 0.15722 0.4283 0.04479 0.0
C1 C 0.19379 0.40169 0.44517 0.0
C2 C 0.15297 0.43391 0.84723 0.0
Dy3 Dy 0.19855 0.41262 0.24811 0.0
O4 O 0.19455 0.47495 0.90256 0.0
O5 O 0.11136 0.39159 0.90057 0.0
O6 O 0.06432 0.39612 0.10616 0.0
O7 O 0.11802 0.36205 0.16028 0.0
C8 C 0.06868 0.3614 0.17083 0.0
C9 C 0.28848 0.48045 0.12501 0.0
O10 O 0.2013 0.33556 0.17729 0.0
O11 O 0.19619 0.36714 0.02098 0.0
O12 O 0.24038 0.44143 0.39627 0.0
O13 O 0.15151 0.3652 0.38579 0.0
O14 O 0.294 0.44931 0.19511 0.0
O15 O 0.23835 0.47877 0.13209 0.0
O16 O 0.16501 0.51183 0.1139 0.0
O17 O 0.16847 0.48062 0.27138 0.0
C18 C 0.20565 0.33237 0.08145 0.0
C19 C 0.16356 0.51758 0.20987 0.0
Dy20 Dy 0.8449 0.26869 0.65727 0.0
C21 C 0.80085 0.20453 0.25539 0.0
C22 C 0.84722 0.27773 0.85482 0.0
Dy23 Dy 0.79902 0.21182 0.45262 0.0
O24 O 0.80664 0.27806 0.79875 0.0
O25 O 0.88901 0.2766 0.80234 0.0
O26 O 0.93798 0.3278 0.59667 0.0
O27 O 0.88089 0.24112 0.53718 0.0
C28 C 0.93096 0.2896 0.52756 0.0
C29 C 0.71358 0.19545 0.5822 0.0
O30 O 0.79374 0.13029 0.51929 0.0
O31 O 0.80476 0.16767 0.67733 0.0
O32 O 0.75715 0.20334 0.30576 0.0
O33 O 0.84126 0.20525 0.31334 0.0
O34 O 0.70366 0.15675 0.51232 0.0
O35 O 0.76486 0.24167 0.5714 0.0
O36 O 0.83905 0.3457 0.58983 0.0
O37 O 0.83462 0.31137 0.43105 0.0
C38 C 0.79205 0.12287 0.6149 0.0
C39 C 0.84077 0.35352 0.49399 0.0
Dy40 Dy 0.58087 0.73516 0.73214 0.0
C41 C 0.60489 0.79788 0.13395 0.0
C42 C 0.57518 0.72555 0.53468 0.0
Dy43 Dy 0.59413 0.79146 0.93714 0.0
O44 O 0.61787 0.72696 0.58775 0.0
O45 O 0.534 0.7254 0.5901 0.0
O46 O 0.61268 0.67448 0.7923 0.0
O47 O 0.64568 0.76199 0.85027 0.0
C48 C 0.64612 0.71307 0.85937 0.0
C49 C 0.52619 0.81093 0.81098 0.0
O50 O 0.67053 0.87301 0.86939 0.0
O51 O 0.64175 0.83613 0.71164 0.0
O52 O 0.56429 0.80319 0.08513 0.0
O53 O 0.64207 0.79335 0.07471 0.0
O54 O 0.55592 0.8487 0.88148 0.0
O55 O 0.52958 0.76375 0.81965 0.0
O56 O 0.49608 0.65943 0.79852 0.0
O57 O 0.52613 0.69246 0.95765 0.0
C58 C 0.67487 0.88079 0.77375 0.0
C59 C 0.48916 0.65123 0.8942 0.0
Dy60 Dy 0.74019 0.57602 0.33355 0.0
C61 C 0.80651 0.60227 0.93257 0.0
C62 C 0.73092 0.57015 0.53148 0.0
Dy63 Dy 0.79963 0.59373 0.13019 0.0
O64 O 0.73296 0.61309 0.47862 0.0
O65 O 0.7295 0.52839 0.47547 0.0
O66 O 0.68059 0.6099 0.27638 0.0
O67 O 0.76799 0.64285 0.21883 0.0
C68 C 0.71912 0.64354 0.20982 0.0
C69 C 0.81817 0.52362 0.25317 0.0
O70 O 0.87877 0.67092 0.20157 0.0
O71 O 0.84092 0.63779 0.35718 0.0
O72 O 0.80832 0.56036 0.98303 0.0
O73 O 0.80573 0.64212 0.99075 0.0
O74 O 0.85652 0.55536 0.18499 0.0
O75 O 0.77044 0.52629 0.24441 0.0
O76 O 0.66256 0.4953 0.25912 0.0
O77 O 0.70086 0.53139 0.10487 0.0
C78 C 0.88562 0.67351 0.29741 0.0
C79 C 0.65678 0.4933 0.16264 0.0
Dy80 Dy 0.26818 0.83346 0.40672 0.0
C81 C 0.20897 0.78211 0.812 0.0
C82 C 0.27863 0.82129 0.21314 0.0
Dy83 Dy 0.21259 0.78348 0.61495 0.0
O84 O 0.30973 0.87238 0.26055 0.0
O85 O 0.24456 0.77814 0.27208 0.0
O86 O 0.26714 0.92047 0.43418 0.0
O87 O 0.27044 0.87023 0.54911 0.0
C88 C 0.26272 0.91365 0.52832 0.0
C89 C 0.18918 0.7011 0.47561 0.0
O90 O 0.13688 0.79206 0.5511 0.0
O91 O 0.16852 0.7977 0.39068 0.0
O92 O 0.20765 0.73938 0.75827 0.0
O93 O 0.20746 0.82269 0.75775 0.0
O94 O 0.15207 0.69105 0.54784 0.0
O95 O 0.23713 0.75089 0.48812 0.0
O96 O 0.35063 0.83782 0.47381 0.0
O97 O 0.30916 0.80642 0.62999 0.0
C98 C 0.12701 0.78994 0.45599 0.0
C99 C 0.35451 0.82576 0.56697 0.0
Dy100 Dy 0.42455 0.16808 0.97629 0.0
C101 C 0.41917 0.22295 0.56884 0.0
C102 C 0.43178 0.15731 0.17187 0.0
Dy103 Dy 0.42788 0.22659 0.76558 0.0
O104 O 0.38301 0.12737 0.12003 0.0
O105 O 0.47782 0.18927 0.11516 0.0
O106 O 0.34549 0.07828 0.92443 0.0
O107 O 0.40655 0.14026 0.82611 0.0
C108 C 0.35714 0.0918 0.83271 0.0
C109 C 0.4849 0.3122 0.90393 0.0
O110 O 0.34286 0.21792 0.82921 0.0
O111 O 0.36618 0.2101 0.99071 0.0
O112 O 0.46677 0.26107 0.61814 0.0
O113 O 0.37451 0.19016 0.62764 0.0
O114 O 0.48008 0.32503 0.81352 0.0
O115 O 0.45856 0.25552 0.9111 0.0
O116 O 0.50874 0.17239 0.91472 0.0
O117 O 0.50452 0.20793 0.75881 0.0
C118 C 0.33359 0.2188 0.92445 0.0
C119 C 0.52949 0.18914 0.82427 0.0
C120 C 0.26882 0.26608 0.89955 0.0
C121 C 0.29138 0.23837 0.96114 0.0
H122 H 0.22355 0.31702 0.889 0.0
C123 C 0.2787 0.23541 0.06148 0.0
H124 H 0.27758 0.26911 0.82206 0.0
C125 C 0.24789 0.26302 0.10014 0.0
C126 C 0.22889 0.29428 0.03946 0.0
H127 H 0.29476 0.21382 0.11122 0.0
H128 H 0.2414 0.26206 0.17814 0.0
C129 C 0.23795 0.29376 0.93828 0.0
C130 C 0.0105 0.28314 0.29793 0.0
C131 C 0.03235 0.3416 0.26082 0.0
H132 H 0.95909 0.21989 0.41103 0.0
C133 C 0.02154 0.38251 0.31273 0.0
H134 H 0.01856 0.25087 0.25912 0.0
C135 C 0.99092 0.36614 0.40155 0.0
C136 C 0.96723 0.30725 0.43736 0.0
H137 H 0.03801 0.42761 0.28546 0.0
H138 H 0.98465 0.3992 0.44139 0.0
C139 C 0.97688 0.2656 0.38462 0.0
C140 C 0.74606 0.01035 0.59342 0.0
C141 C 0.76966 0.06123 0.65503 0.0
H142 H 0.69835 0.91379 0.58225 0.0
C143 C 0.76713 0.05216 0.75635 0.0
H144 H 0.74727 0.01544 0.51514 0.0
C145 C 0.73907 0.99367 0.79509 0.0
C146 C 0.71266 0.94272 0.73352 0.0
H147 H 0.78509 0.09022 0.80627 0.0
H148 H 0.73604 0.98851 0.8734 0.0
C149 C 0.71787 0.95187 0.63215 0.0
C150 C 0.72307 0.73474 0.9899 0.0
C151 C 0.66626 0.69594 0.94799 0.0
H152 H 0.78555 0.74735 0.10489 0.0
C153 C 0.6274 0.64065 0.99298 0.0
H154 H 0.75379 0.77768 0.9562 0.0
C155 C 0.64385 0.62518 0.08037 0.0
C156 C 0.70122 0.66285 0.121 0.0
H157 H 0.58379 0.60989 0.96128 0.0
H158 H 0.61223 0.58286 0.11486 0.0
C159 C 0.74107 0.71757 0.07468 0.0
C160 C 0.0559 0.77279 0.31847 0.0
C161 C 0.06526 0.77022 0.41889 0.0
H162 H 0.99225 0.74502 0.20143 0.0
C163 C 0.01457 0.74191 0.48021 0.0
H164 H 0.09387 0.7947 0.26896 0.0
C165 C 0.956 0.71322 0.44114 0.0
C166 C 0.94681 0.71234 0.3399 0.0
H167 H 0.02003 0.73904 0.55777 0.0
H168 H 0.91805 0.68948 0.49018 0.0
C169 C 0.99745 0.74427 0.27949 0.0
C170 C 0.27186 0.99637 0.76129 0.0
C171 C 0.3278 0.04974 0.75002 0.0
H172 H 0.20516 0.91267 0.69587 0.0
C173 C 0.3578 0.06112 0.65993 0.0
H174 H 0.2475 0.98672 0.82951 0.0
C175 C 0.33385 0.01867 0.58432 0.0
C176 C 0.2797 0.96385 0.59766 0.0
H177 H 0.40136 0.10153 0.6493 0.0
H178 H 0.35959 0.02709 0.51772 0.0
C179 C 0.24789 0.95391 0.68535 0.0
C180 C 0.21679 0.46719 0.6983 0.0
C181 C 0.16118 0.4276 0.74261 0.0
H182 H 0.27132 0.48878 0.5701 0.0
C183 C 0.11688 0.37815 0.68928 0.0
H184 H 0.25206 0.50523 0.73818 0.0
C185 C 0.12813 0.36846 0.59311 0.0
C186 C 0.18405 0.40777 0.54927 0.0
H187 H 0.07386 0.34663 0.72217 0.0
H188 H 0.0929 0.33058 0.55289 0.0
C189 C 0.22819 0.45724 0.60264 0.0
C190 C 0.86599 0.23212 0.10743 0.0
C191 C 0.81143 0.22011 0.15152 0.0
H192 H 0.92086 0.26127 0.97885 0.0
C193 C 0.7703 0.23007 0.09882 0.0
H194 H 0.89895 0.22578 0.14711 0.0
C195 C 0.78334 0.25142 1.00348 0.0
C196 C 0.83767 0.26304 0.95909 0.0
H197 H 0.72835 0.22208 0.13162 0.0
H198 H 0.75034 0.25781 0.96398 0.0
C199 C 0.87896 0.25331 0.01183 0.0
C200 C 0.54026 0.75429 0.38646 0.0
C201 C 0.58096 0.7399 0.43037 0.0
H202 H 0.51713 0.78582 0.25877 0.0
C203 C 0.63084 0.74657 0.37706 0.0
H204 H 0.50183 0.75031 0.42641 0.0
C205 C 0.63986 0.7674 0.28121 0.0
C206 C 0.59941 0.78235 0.23775 0.0
H207 H 0.66319 0.73635 0.40972 0.0
H208 H 0.67811 0.77125 0.24091 0.0
C209 C 0.54952 0.77552 0.2911 0.0
C210 C 0.77695 0.6373 0.78398 0.0
C211 C 0.79015 0.59595 0.82859 0.0
H212 H 0.74645 0.66081 0.65499 0.0
C213 C 0.78073 0.54457 0.77627 0.0
H214 H 0.78274 0.67672 0.82329 0.0
C215 C 0.75884 0.53485 0.68091 0.0
C216 C 0.74611 0.57641 0.63595 0.0
H217 H 0.78962 0.51145 0.8094 0.0
H218 H 0.75296 0.49533 0.64179 0.0
C219 C 0.75529 0.62771 0.68832 0.0
C220 C 0.22403 0.74504 0.97069 0.0
C221 C 0.22689 0.79209 0.91489 0.0
H222 H 0.23953 0.71817 0.10988 0.0
C223 C 0.25261 0.85056 0.95528 0.0
H224 H 0.20534 0.69988 0.94055 0.0
C225 C 0.27417 0.86155 0.05088 0.0
C226 C 0.26925 0.81394 0.10767 0.0
H227 H 0.25643 0.88793 0.91285 0.0
H228 H 0.29203 0.90647 0.08159 0.0
C229 C 0.24444 0.75575 0.06675 0.0
C230 C 0.47594 0.23838 0.41382 0.0
C231 C 0.42149 0.20733 0.4661 0.0
H232 H 0.52249 0.24563 0.28034 0.0
C233 C 0.37181 0.15691 0.4232 0.0
H234 H 0.51529 0.27682 0.44576 0.0
C235 C 0.37622 0.13853 0.32901 0.0
C236 C 0.43047 0.17003 0.27632 0.0
H237 H 0.32969 0.1314 0.46262 0.0
H238 H 0.33677 0.10039 0.29671 0.0
C239 C 0.48043 0.21985 0.31985 0.0
C240 C 0.11568 0.56624 0.30392 0.0
C241 C 0.1663 0.57128 0.25479 0.0
H242 H 0.08312 0.60356 0.41288 0.0
C243 C 0.2235 0.62149 0.27378 0.0
H244 H 0.07116 0.52765 0.29162 0.0
C245 C 0.2305 0.66429 0.34403 0.0
C246 C 0.18032 0.65797 0.39635 0.0
H247 H 0.26345 0.62533 0.2393 0.0
H248 H 0.27567 0.70108 0.36019 0.0
C249 C 0.1226 0.60931 0.37409 0.0
C250 C 0.68045 0.2414 0.71183 0.0
C251 C 0.66944 0.19019 0.65717 0.0
H252 H 0.64478 0.28018 0.81198 0.0
C253 C 0.6151 0.13552 0.67206 0.0
H254 H 0.72135 0.28447 0.70074 0.0
C255 C 0.57132 0.13313 0.73664 0.0
C256 C 0.58151 0.18517 0.78788 0.0
H257 H 0.60539 0.09538 0.63086 0.0
H258 H 0.52788 0.0918 0.7414 0.0
C259 C 0.63693 0.2389 0.77641 0.0
C260 C 0.39302 0.52013 0.05917 0.0
C261 C 0.33747 0.51885 0.05592 0.0
H262 H 0.4847 0.56292 1.00952 0.0
C263 C 0.33051 0.55652 0.98932 0.0
H264 H 0.3999 0.4918 0.10978 0.0
C265 C 0.3786 0.59563 0.92887 0.0
C266 C 0.43492 0.59881 0.93564 0.0
H267 H 0.2889 0.55782 0.98693 0.0
H268 H 0.37305 0.62638 0.88181 0.0
C269 C 0.44147 0.56035 1.00078 0.0
C270 C 0.88825 0.4452 0.38925 0.0
C271 C 0.84099 0.40645 0.45146 0.0
H272 H 0.91863 0.51367 0.27937 0.0
C273 C 0.78737 0.40889 0.452 0.0
H274 H 0.92928 0.44289 0.38503 0.0
C275 C 0.78019 0.44753 0.38843 0.0
C276 C 0.82707 0.48559 0.32488 0.0
H277 H 0.74937 0.37772 0.49637 0.0
H278 H 0.73689 0.44543 0.38585 0.0
C279 C 0.88174 0.48508 0.32767 0.0
C280 C 0.41079 0.77471 0.61185 0.0
C281 C 0.40942 0.8287 0.60563 0.0
H282 H 0.44708 0.72622 0.68444 0.0
C283 C 0.44985 0.87864 0.66245 0.0
H284 H 0.37827 0.7349 0.57182 0.0
C285 C 0.48981 0.87392 0.72684 0.0
C286 C 0.48899 0.81881 0.73652 0.0
H287 H 0.44788 0.91999 0.66152 0.0
H288 H 0.51936 0.91245 0.77198 0.0
C289 C 0.44992 0.76971 0.67696 0.0
C290 C 0.58855 0.4632 0.01992 0.0
C291 C 0.60151 0.44744 0.11107 0.0
H292 H 0.54185 0.43318 0.88456 0.0
C293 C 0.569 0.38652 0.13972 0.0
H294 H 0.61268 0.50959 0.99504 0.0
C295 C 0.528 0.342 0.07461 0.0
C296 C 0.51939 0.35784 0.98043 0.0
H297 H 0.57816 0.37284 0.20909 0.0
H298 H 0.50517 0.29526 0.09634 0.0
C299 C 0.54811 0.41917 0.95578 0.0
loop_
_geom_bond_atom_site_label_1
_geom_bond_atom_site_label_2
_geom_bond_distance
_geom_bond_site_symmetry_2
_ccdc_geom_bond_type
Dy0 O4 2.398 . S
Dy0 O5 2.491 . S
Dy0 O6 2.403 . S
Dy0 O7 2.664 . S
Dy0 O11 2.326 . S
Dy0 O15 2.310 . S
Dy0 O16 2.351 . S
C1 O12 1.185 . S
C1 O13 1.355 . S
C2 O4 1.185 1_556 S
C2 O5 1.355 1_556 S
Dy3 O7 2.310 . S
Dy3 O10 2.351 . S
Dy3 O12 2.398 . S
Dy3 O13 2.491 . S
Dy3 O14 2.403 . S
Dy3 O15 2.664 . S
Dy3 O17 2.326 . S
O4 Dy0 2.398 . S
O4 C2 1.185 1_554 S
O5 Dy0 2.491 . S
O5 C2 1.355 1_554 S
O6 Dy0 2.403 . S
O6 C8 1.254 . S
O7 Dy0 2.664 . S
O7 Dy3 2.310 . S
O7 C8 1.268 . S
C8 O6 1.254 . S
C8 O7 1.268 . S
C9 O14 1.254 . S
C9 O15 1.268 . S
O10 Dy3 2.351 . S
O10 C18 1.249 . S
O11 Dy0 2.326 . S
O11 C18 1.267 . S
O12 C1 1.185 . S
O12 Dy3 2.398 . S
O13 C1 1.355 . S
O13 Dy3 2.491 . S
O14 Dy3 2.403 . S
O14 C9 1.254 . S
O15 Dy0 2.310 . S
O15 Dy3 2.664 . S
O15 C9 1.268 . S
O16 Dy0 2.351 . S
O16 C19 1.249 . S
O17 Dy3 2.326 . S
O17 C19 1.267 . S
C18 O10 1.249 . S
C18 O11 1.267 . S
C19 O16 1.249 . S
C19 O17 1.267 . S
Dy20 O24 2.398 . S
Dy20 O25 2.491 . S
Dy20 O26 2.403 . S
Dy20 O27 2.664 . S
Dy20 O31 2.326 . S
Dy20 O35 2.310 . S
Dy20 O36 2.351 . S
C21 O32 1.185 . S
C21 O33 1.355 . S
C22 O24 1.185 . S
C22 O25 1.355 . S
Dy23 O27 2.310 . S
Dy23 O30 2.351 . S
Dy23 O32 2.398 . S
Dy23 O33 2.491 . S
Dy23 O34 2.403 . S
Dy23 O35 2.664 . S
Dy23 O37 2.326 . S
O24 Dy20 2.398 . S
O24 C22 1.185 . S
O25 Dy20 2.491 . S
O25 C22 1.355 . S
O26 Dy20 2.403 . S
O26 C28 1.254 . S
O27 Dy20 2.664 . S
O27 Dy23 2.310 . S
O27 C28 1.268 . S
C28 O26 1.254 . S
C28 O27 1.268 . S
C29 O34 1.254 . S
C29 O35 1.268 . S
O30 Dy23 2.351 . S
O30 C38 1.249 . S
O31 Dy20 2.326 . S
O31 C38 1.267 . S
O32 C21 1.185 . S
O32 Dy23 2.398 . S
O33 C21 1.355 . S
O33 Dy23 2.491 . S
O34 Dy23 2.403 . S
O34 C29 1.254 . S
O35 Dy20 2.310 . S
O35 Dy23 2.664 . S
O35 C29 1.268 . S
O36 Dy20 2.351 . S
O36 C39 1.249 . S
O37 Dy23 2.326 . S
O37 C39 1.267 . S
C38 O30 1.249 . S
C38 O31 1.267 . S
C39 O36 1.249 . S
C39 O37 1.267 . S
Dy40 O44 2.398 . S
Dy40 O45 2.491 . S
Dy40 O46 2.403 . S
Dy40 O47 2.664 . S
Dy40 O51 2.326 . S
Dy40 O55 2.310 . S
Dy40 O56 2.351 . S
C41 O52 1.185 . S
C41 O53 1.355 . S
C42 O44 1.185 . S
C42 O45 1.355 . S
Dy43 O47 2.310 1_554 S
Dy43 O50 2.351 1_554 S
Dy43 O52 2.398 . S
Dy43 O53 2.491 . S
Dy43 O54 2.403 . S
Dy43 O55 2.664 1_554 S
Dy43 O57 2.326 . S
O44 Dy40 2.398 . S
O44 C42 1.185 . S
O45 Dy40 2.491 . S
O45 C42 1.355 . S
O46 Dy40 2.403 . S
O46 C48 1.254 . S
O47 Dy40 2.664 . S
O47 Dy43 2.310 1_556 S
O47 C48 1.268 . S
C48 O46 1.254 . S
C48 O47 1.268 . S
C49 O54 1.254 1_556 S
C49 O55 1.268 . S
O50 Dy43 2.351 1_556 S
O50 C58 1.249 . S
O51 Dy40 2.326 . S
O51 C58 1.267 . S
O52 C41 1.185 . S
O52 Dy43 2.398 . S
O53 C41 1.355 . S
O53 Dy43 2.491 . S
O54 Dy43 2.403 . S
O54 C49 1.254 1_554 S
O55 Dy40 2.310 . S
O55 Dy43 2.664 1_556 S
O55 C49 1.268 . S
O56 Dy40 2.351 . S
O56 C59 1.249 1_556 S
O57 Dy43 2.326 . S
O57 C59 1.267 . S
C58 O50 1.249 . S
C58 O51 1.267 . S
C59 O56 1.249 1_554 S
C59 O57 1.267 . S
Dy60 O64 2.398 . S
Dy60 O65 2.491 . S
Dy60 O66 2.403 . S
Dy60 O67 2.664 . S
Dy60 O71 2.326 . S
Dy60 O75 2.310 . S
Dy60 O76 2.351 . S
C61 O72 1.185 . S
C61 O73 1.355 . S
C62 O64 1.185 . S
C62 O65 1.355 . S
Dy63 O67 2.310 1_556 S
Dy63 O70 2.351 1_556 S
Dy63 O72 2.398 . S
Dy63 O73 2.491 . S
Dy63 O74 2.403 1_556 S
Dy63 O75 2.664 1_556 S
Dy63 O77 2.326 . S
O64 Dy60 2.398 . S
O64 C62 1.185 . S
O65 Dy60 2.491 . S
O65 C62 1.355 . S
O66 Dy60 2.403 . S
O66 C68 1.254 . S
O67 Dy60 2.664 . S
O67 Dy63 2.310 1_554 S
O67 C68 1.268 . S
C68 O66 1.254 . S
C68 O67 1.268 . S
C69 O74 1.254 . S
C69 O75 1.268 . S
O70 Dy63 2.351 1_554 S
O70 C78 1.249 . S
O71 Dy60 2.326 . S
O71 C78 1.267 . S
O72 C61 1.185 . S
O72 Dy63 2.398 . S
O73 C61 1.355 . S
O73 Dy63 2.491 . S
O74 Dy63 2.403 1_554 S
O74 C69 1.254 . S
O75 Dy60 2.310 . S
O75 Dy63 2.664 1_554 S
O75 C69 1.268 . S
O76 Dy60 2.351 . S
O76 C79 1.249 1_554 S
O77 Dy63 2.326 . S
O77 C79 1.267 . S
C78 O70 1.249 . S
C78 O71 1.267 . S
C79 O76 1.249 1_556 S
C79 O77 1.267 . S
Dy80 O84 2.398 . S
Dy80 O85 2.491 . S
Dy80 O86 2.403 . S
Dy80 O87 2.664 . S
Dy80 O91 2.326 . S
Dy80 O95 2.310 . S
Dy80 O96 2.351 . S
C81 O92 1.185 . S
C81 O93 1.355 . S
C82 O84 1.185 . S
C82 O85 1.355 . S
Dy83 O87 2.310 . S
Dy83 O90 2.351 . S
Dy83 O92 2.398 . S
Dy83 O93 2.491 . S
Dy83 O94 2.403 . S
Dy83 O95 2.664 . S
Dy83 O97 2.326 . S
O84 Dy80 2.398 . S
O84 C82 1.185 . S
O85 Dy80 2.491 . S
O85 C82 1.355 . S
O86 Dy80 2.403 . S
O86 C88 1.254 . S
O87 Dy80 2.664 . S
O87 Dy83 2.310 . S
O87 C88 1.268 . S
C88 O86 1.254 . S
C88 O87 1.268 . S
C89 O94 1.254 . S
C89 O95 1.268 . S
O90 Dy83 2.351 . S
O90 C98 1.249 . S
O91 Dy80 2.326 . S
O91 C98 1.267 . S
O92 C81 1.185 . S
O92 Dy83 2.398 . S
O93 C81 1.355 . S
O93 Dy83 2.491 . S
O94 Dy83 2.403 . S
O94 C89 1.254 . S
O95 Dy80 2.310 . S
O95 Dy83 2.664 . S
O95 C89 1.268 . S
O96 Dy80 2.351 . S
O96 C99 1.249 . S
O97 Dy83 2.326 . S
O97 C99 1.267 . S
C98 O90 1.249 . S
C98 O91 1.267 . S
C99 O96 1.249 . S
C99 O97 1.267 . S
Dy100 O104 2.398 1_556 S
Dy100 O105 2.491 1_556 S
Dy100 O106 2.403 . S
Dy100 O107 2.664 . S
Dy100 O111 2.326 . S
Dy100 O115 2.310 . S
Dy100 O116 2.351 . S
C101 O112 1.185 . S
C101 O113 1.355 . S
C102 O104 1.185 . S
C102 O105 1.355 . S
Dy103 O107 2.310 . S
Dy103 O110 2.351 . S
Dy103 O112 2.398 . S
Dy103 O113 2.491 . S
Dy103 O114 2.403 . S
Dy103 O115 2.664 . S
Dy103 O117 2.326 . S
O104 Dy100 2.398 1_554 S
O104 C102 1.185 . S
O105 Dy100 2.491 1_554 S
O105 C102 1.355 . S
O106 Dy100 2.403 . S
O106 C108 1.254 . S
O107 Dy100 2.664 . S
O107 Dy103 2.310 . S
O107 C108 1.268 . S
C108 O106 1.254 . S
C108 O107 1.268 . S
C109 O114 1.254 . S
C109 O115 1.268 . S
O110 Dy103 2.351 . S
O110 C118 1.249 . S
O111 Dy100 2.326 . S
O111 C118 1.267 . S
O112 C101 1.185 . S
O112 Dy103 2.398 . S
O113 C101 1.355 . S
O113 Dy103 2.491 . S
O114 Dy103 2.403 . S
O114 C109 1.254 . S
O115 Dy100 2.310 . S
O115 Dy103 2.664 . S
O115 C109 1.268 . S
O116 Dy100 2.351 . S
O116 C119 1.249 . S
O117 Dy103 2.326 . S
O117 C119 1.267 . S
C118 O110 1.249 . S
C118 O111 1.267 . S
C119 O116 1.249 . S
C119 O117 1.267 . S
C120 C121 1.387 . S
C120 H124 0.950 . S
C120 C129 1.390 1_556 S
C121 C120 1.387 . S
C121 C123 1.387 . S
H122 C129 0.950 . S
C123 C121 1.387 . S
C123 C125 1.390 1_556 S
C123 H127 0.950 . S
H124 C120 0.950 . S
C125 C123 1.390 1_554 S
C125 C126 1.387 . S
C125 H128 0.950 . S
C126 C125 1.387 . S
C126 C129 1.387 . S
H127 C123 0.950 . S
H128 C125 0.950 . S
C129 C120 1.390 1_554 S
C129 H122 0.950 . S
C129 C126 1.387 . S
C130 C131 1.387 . S
C130 H134 0.950 . S
C130 C139 1.390 1_455 S
C131 C130 1.387 . S
C131 C133 1.387 . S
H132 C139 0.950 . S
C133 C131 1.387 . S
C133 C135 1.390 1_455 S
C133 H137 0.950 . S
H134 C130 0.950 . S
C135 C133 1.390 1_655 S
C135 C136 1.387 . S
C135 H138 0.950 . S
C136 C135 1.387 . S
C136 C139 1.387 . S
H137 C133 0.950 . S
H138 C135 0.950 . S
C139 C130 1.390 1_655 S
C139 H132 0.950 . S
C139 C136 1.387 . S
C140 C141 1.387 . S
C140 H144 0.950 . S
C140 C149 1.390 1_545 S
C141 C140 1.387 . S
C141 C143 1.387 . S
H142 C149 0.950 . S
C143 C141 1.387 . S
C143 C145 1.390 1_545 S
C143 H147 0.950 . S
H144 C140 0.950 . S
C145 C143 1.390 1_565 S
C145 C146 1.387 . S
C145 H148 0.950 . S
C146 C145 1.387 . S
C146 C149 1.387 . S
H147 C143 0.950 . S
H148 C145 0.950 . S
C149 C140 1.390 1_565 S
C149 H142 0.950 . S
C149 C146 1.387 . S
C150 C151 1.388 1_556 S
C150 H154 0.950 . S
C150 C159 1.390 . S
C151 C150 1.388 1_554 S
C151 C153 1.387 . S
H152 C159 0.950 . S
C153 C151 1.387 . S
C153 C155 1.390 . S
C153 H157 0.950 . S
H154 C150 0.950 . S
C155 C153 1.390 . S
C155 C156 1.387 . S
C155 H158 0.950 . S
C156 C155 1.387 . S
C156 C159 1.387 1_554 S
H157 C153 0.950 . S
H158 C155 0.950 . S
C159 C150 1.390 . S
C159 H152 0.950 . S
C159 C156 1.387 1_556 S
C160 C161 1.387 . S
C160 H164 0.950 . S
C160 C169 1.390 . S
C161 C160 1.387 . S
C161 C163 1.387 1_455 S
H162 C169 0.950 . S
C163 C161 1.387 1_655 S
C163 C165 1.390 . S
C163 H167 0.950 . S
H164 C160 0.950 . S
C165 C163 1.390 . S
C165 C166 1.387 . S
C165 H168 0.950 . S
C166 C165 1.387 . S
C166 C169 1.387 1_655 S
H167 C163 0.950 . S
H168 C165 0.950 . S
C169 C160 1.390 . S
C169 H162 0.950 . S
C169 C166 1.387 1_455 S
C170 C171 1.387 . S
C170 H174 0.950 . S
C170 C179 1.390 1_545 S
C171 C170 1.387 . S
C171 C173 1.387 . S
H172 C179 0.950 . S
C173 C171 1.387 . S
C173 C175 1.390 1_545 S
C173 H177 0.950 . S
H174 C170 0.950 . S
C175 C173 1.390 1_565 S
C175 C176 1.387 . S
C175 H178 0.950 . S
C176 C175 1.387 . S
C176 C179 1.387 . S
H177 C173 0.950 . S
H178 C175 0.950 . S
C179 C170 1.390 1_565 S
C179 H172 0.950 . S
C179 C176 1.387 . S
C180 C181 1.387 . S
C180 H184 0.950 . S
C180 C189 1.390 . S
C181 C180 1.387 . S
C181 C183 1.387 . S
H182 C189 0.950 . S
C183 C181 1.387 . S
C183 C185 1.390 . S
C183 H187 0.950 . S
H184 C180 0.950 . S
C185 C183 1.390 . S
C185 C186 1.387 . S
C185 H188 0.950 . S
C186 C185 1.387 . S
C186 C189 1.387 . S
H187 C183 0.950 . S
H188 C185 0.950 . S
C189 C180 1.390 . S
C189 H182 0.950 . S
C189 C186 1.387 . S
C190 C191 1.387 1_556 S
C190 H194 0.950 . S
C190 C199 1.390 . S
C191 C190 1.387 1_554 S
C191 C193 1.387 1_554 S
H192 C199 0.950 . S
C193 C191 1.387 1_556 S
C193 C195 1.390 . S
C193 H197 0.950 1_556 S
H194 C190 0.950 . S
C195 C193 1.390 . S
C195 C196 1.387 . S
C195 H198 0.950 . S
C196 C195 1.387 . S
C196 C199 1.387 . S
H197 C193 0.950 1_554 S
H198 C195 0.950 . S
C199 C190 1.390 . S
C199 H192 0.950 . S
C199 C196 1.387 . S
C200 C201 1.387 . S
C200 H204 0.950 . S
C200 C209 1.390 . S
C201 C200 1.387 . S
C201 C203 1.387 . S
H202 C209 0.950 . S
C203 C201 1.387 . S
C203 C205 1.390 . S
C203 H207 0.950 . S
H204 C200 0.950 . S
C205 C203 1.390 . S
C205 C206 1.387 . S
C205 H208 0.950 . S
C206 C205 1.387 . S
C206 C209 1.387 . S
H207 C203 0.950 . S
H208 C205 0.950 . S
C209 C200 1.390 . S
C209 H202 0.950 . S
C209 C206 1.387 . S
C210 C211 1.387 . S
C210 H214 0.950 . S
C210 C219 1.390 . S
C211 C210 1.387 . S
C211 C213 1.387 . S
H212 C219 0.950 . S
C213 C211 1.387 . S
C213 C215 1.390 . S
C213 H217 0.950 . S
H214 C210 0.950 . S
C215 C213 1.390 . S
C215 C216 1.387 . S
C215 H218 0.950 . S
C216 C215 1.387 . S
C216 C219 1.387 . S
H217 C213 0.950 . S
H218 C215 0.950 . S
C219 C210 1.390 . S
C219 H212 0.950 . S
C219 C216 1.387 . S
C220 C221 1.387 . S
C220 H224 0.950 . S
C220 C229 1.390 . S
C221 C220 1.387 . S
C221 C223 1.387 . S
H222 C229 0.950 . S
C223 C221 1.387 . S
C223 C225 1.390 . S
C223 H227 0.950 . S
H224 C220 0.950 . S
C225 C223 1.390 . S
C225 C226 1.387 . S
C225 H228 0.950 . S
C226 C225 1.387 . S
C226 C229 1.387 . S
H227 C223 0.950 . S
H228 C225 0.950 . S
C229 C220 1.390 . S
C229 H222 0.950 . S
C229 C226 1.387 . S
C230 C231 1.387 . S
C230 H234 0.950 . S
C230 C239 1.390 . S
C231 C230 1.387 . S
C231 C233 1.387 . S
H232 C239 0.950 . S
C233 C231 1.387 . S
C233 C235 1.390 . S
C233 H237 0.950 . S
H234 C230 0.950 . S
C235 C233 1.390 . S
C235 C236 1.387 . S
C235 H238 0.950 . S
C236 C235 1.387 . S
C236 C239 1.387 . S
H237 C233 0.950 . S
H238 C235 0.950 . S
C239 C230 1.390 . S
C239 H232 0.950 . S
C239 C236 1.387 . S
C240 C241 1.387 . S
C240 H244 0.950 . S
C240 C249 1.390 . S
C241 C240 1.387 . S
C241 C243 1.387 . S
H242 C249 0.950 . S
C243 C241 1.387 . S
C243 C245 1.390 . S
C243 H247 0.950 . S
H244 C240 0.950 . S
C245 C243 1.390 . S
C245 C246 1.387 . S
C245 H248 0.950 . S
C246 C245 1.387 . S
C246 C249 1.387 . S
H247 C243 0.950 . S
H248 C245 0.950 . S
C249 C240 1.390 . S
C249 H242 0.950 . S
C249 C246 1.387 . S
C250 C251 1.387 . S
C250 H254 0.950 . S
C250 C259 1.390 . S
C251 C250 1.387 . S
C251 C253 1.387 . S
H252 C259 0.950 . S
C253 C251 1.387 . S
C253 C255 1.390 . S
C253 H257 0.950 . S
H254 C250 0.950 . S
C255 C253 1.390 . S
C255 C256 1.387 . S
C255 H258 0.950 . S
C256 C255 1.387 . S
C256 C259 1.387 . S
H257 C253 0.950 . S
H258 C255 0.950 . S
C259 C250 1.390 . S
C259 H252 0.950 . S
C259 C256 1.387 . S
C260 C261 1.387 . S
C260 H264 0.950 . S
C260 C269 1.390 . S
C261 C260 1.387 . S
C261 C263 1.387 . S
H262 C269 0.950 . S
C263 C261 1.387 . S
C263 C265 1.390 . S
C263 H267 0.950 . S
H264 C260 0.950 . S
C265 C263 1.390 . S
C265 C266 1.387 . S
C265 H268 0.950 1_554 S
C266 C265 1.387 . S
C266 C269 1.387 . S
H267 C263 0.950 . S
H268 C265 0.950 1_556 S
C269 C260 1.390 . S
C269 H262 0.950 . S
C269 C266 1.387 . S
C270 C271 1.387 . S
C270 H274 0.950 . S
C270 C279 1.390 . S
C271 C270 1.387 . S
C271 C273 1.387 . S
H272 C279 0.950 . S
C273 C271 1.387 . S
C273 C275 1.390 . S
C273 H277 0.950 . S
H274 C270 0.950 . S
C275 C273 1.390 . S
C275 C276 1.387 . S
C275 H278 0.950 . S
C276 C275 1.387 . S
C276 C279 1.387 . S
H277 C273 0.950 . S
H278 C275 0.950 . S
C279 C270 1.390 . S
C279 H272 0.950 . S
C279 C276 1.387 . S
C280 C281 1.387 . S
C280 H284 0.950 . S
C280 C289 1.390 . S
C281 C280 1.387 . S
C281 C283 1.387 . S
H282 C289 0.950 . S
C283 C281 1.387 . S
C283 C285 1.390 . S
C283 H287 0.950 . S
H284 C280 0.950 . S
C285 C283 1.390 . S
C285 C286 1.387 . S
C285 H288 0.950 . S
C286 C285 1.387 . S
C286 C289 1.387 . S
H287 C283 0.950 . S
H288 C285 0.950 . S
C289 C280 1.390 . S
C289 H282 0.950 . S
C289 C286 1.387 . S
C290 C291 1.387 . S
C290 H294 0.950 . S
C290 C299 1.390 . S
C291 C290 1.387 . S
C291 C293 1.387 . S
H292 C299 0.950 . S
C293 C291 1.387 . S
C293 C295 1.390 . S
C293 H297 0.950 1_556 S
H294 C290 0.950 . S
C295 C293 1.390 . S
C295 C296 1.387 . S
C295 H298 0.950 . S
C296 C295 1.387 . S
C296 C299 1.387 . S
H297 C293 0.950 1_554 S
H298 C295 0.950 . S
C299 C290 1.390 . S
C299 H292 0.950 . S
C299 C296 1.387 . S
C121 C118 1.604 . S
C126 C18 1.604 . S
C131 C8 1.483 . S
C136 C28 1.486 . S
C141 C38 1.604 . S
C146 C58 1.604 . S
C151 C48 1.484 1_554 S
C156 C68 1.486 . S
C161 C98 1.605 . S
C166 C78 1.605 . S
C171 C108 1.484 . S
C176 C88 1.484 . S
C181 C2 1.321 . S
C186 C1 1.321 . S
C191 C21 1.319 . S
C196 C22 1.319 . S
C201 C42 1.321 . S
C206 C41 1.321 . S
C211 C61 1.320 . S
C216 C62 1.320 . S
C221 C81 1.321 1_554 S
C226 C82 1.321 . S
C231 C101 1.320 . S
C236 C102 1.320 . S
C241 C19 1.646 . S
C246 C89 1.658 . S
C251 C29 1.659 . S
C256 C119 1.647 . S
C261 C9 1.658 . S
C266 C59 1.646 . S
C271 C39 1.646 . S
C276 C69 1.658 . S
C281 C99 1.647 . S
C286 C49 1.659 . S
C291 C79 1.646 . S
C296 C109 1.658 . S
