# Generated by pormake.
# Topology zfo, (5)-cn, num edge types: 1
# Building blocks:
#     Node 0, Type 0, BuildingBlock: XOMCOT_clean_sbu_1, # of connection points: 5
#     Node 1, Type 0, BuildingBlock: XOMCOT_clean_sbu_1, # of connection points: 5
#     Node 2, Type 0, BuildingBlock: XOMCOT_clean_sbu_1, # of connection points: 5
#     Node 3, Type 0, BuildingBlock: XOMCOT_clean_sbu_1, # of connection points: 5
#     Node 4, Type 0, BuildingBlock: XOMCOT_clean_sbu_1, # of connection points: 5
#     Node 5, Type 0, BuildingBlock: XOMCOT_clean_sbu_1, # of connection points: 5
#     Node 6, Type 0, BuildingBlock: XOMCOT_clean_sbu_1, # of connection points: 5
#     Node 7, Type 0, BuildingBlock: XOMCOT_clean_sbu_1, # of connection points: 5
#     Node 8, Type 0, BuildingBlock: XOMCOT_clean_sbu_1, # of connection points: 5
#     Node 9, Type 0, BuildingBlock: XOMCOT_clean_sbu_1, # of connection points: 5
#     Node 10, Type 0, BuildingBlock: XOMCOT_clean_sbu_1, # of connection points: 5
#     Node 11, Type 0, BuildingBlock: XOMCOT_clean_sbu_1, # of connection points: 5
#     Node 12, Type 0, BuildingBlock: XOMCOT_clean_sbu_1, # of connection points: 5
#     Node 13, Type 0, BuildingBlock: XOMCOT_clean_sbu_1, # of connection points: 5
#     Node 14, Type 0, BuildingBlock: XOMCOT_clean_sbu_1, # of connection points: 5
#     Node 15, Type 0, BuildingBlock: XOMCOT_clean_sbu_1, # of connection points: 5
#     Edge 16, Type (0, 0), BuildingBlock: ZUJKAS_clean_linker_0, # of connection points: 2
#     Edge 17, Type (0, 0), BuildingBlock: ZUJKAS_clean_linker_0, # of connection points: 2
#     Edge 18, Type (0, 0), BuildingBlock: ZUJKAS_clean_linker_0, # of connection points: 2
#     Edge 19, Type (0, 0), BuildingBlock: ZUJKAS_clean_linker_0, # of connection points: 2
#     Edge 20, Type (0, 0), BuildingBlock: ZUJKAS_clean_linker_0, # of connection points: 2
#     Edge 21, Type (0, 0), BuildingBlock: ZUJKAS_clean_linker_0, # of connection points: 2
#     Edge 22, Type (0, 0), BuildingBlock: ZUJKAS_clean_linker_0, # of connection points: 2
#     Edge 23, Type (0, 0), BuildingBlock: ZUJKAS_clean_linker_0, # of connection points: 2
#     Edge 24, Type (0, 0), BuildingBlock: ZUJKAS_clean_linker_0, # of connection points: 2
#     Edge 25, Type (0, 0), BuildingBlock: ZUJKAS_clean_linker_0, # of connection points: 2
#     Edge 26, Type (0, 0), BuildingBlock: ZUJKAS_clean_linker_0, # of connection points: 2
#     Edge 27, Type (0, 0), BuildingBlock: ZUJKAS_clean_linker_0, # of connection points: 2
#     Edge 28, Type (0, 0), BuildingBlock: ZUJKAS_clean_linker_0, # of connection points: 2
#     Edge 29, Type (0, 0), BuildingBlock: ZUJKAS_clean_linker_0, # of connection points: 2
#     Edge 30, Type (0, 0), BuildingBlock: ZUJKAS_clean_linker_0, # of connection points: 2
#     Edge 31, Type (0, 0), BuildingBlock: ZUJKAS_clean_linker_0, # of connection points: 2
#     Edge 32, Type (0, 0), BuildingBlock: ZUJKAS_clean_linker_0, # of connection points: 2
#     Edge 33, Type (0, 0), BuildingBlock: ZUJKAS_clean_linker_0, # of connection points: 2
#     Edge 34, Type (0, 0), BuildingBlock: ZUJKAS_clean_linker_0, # of connection points: 2
#     Edge 35, Type (0, 0), BuildingBlock: ZUJKAS_clean_linker_0, # of connection points: 2
#     Edge 36, Type (0, 0), BuildingBlock: ZUJKAS_clean_linker_0, # of connection points: 2
#     Edge 37, Type (0, 0), BuildingBlock: ZUJKAS_clean_linker_0, # of connection points: 2
#     Edge 38, Type (0, 0), BuildingBlock: ZUJKAS_clean_linker_0, # of connection points: 2
#     Edge 39, Type (0, 0), BuildingBlock: ZUJKAS_clean_linker_0, # of connection points: 2
#     Edge 40, Type (0, 0), BuildingBlock: ZUJKAS_clean_linker_0, # of connection points: 2
#     Edge 41, Type (0, 0), BuildingBlock: ZUJKAS_clean_linker_0, # of connection points: 2
#     Edge 42, Type (0, 0), BuildingBlock: ZUJKAS_clean_linker_0, # of connection points: 2
#     Edge 43, Type (0, 0), BuildingBlock: ZUJKAS_clean_linker_0, # of connection points: 2
#     Edge 44, Type (0, 0), BuildingBlock: ZUJKAS_clean_linker_0, # of connection points: 2
#     Edge 45, Type (0, 0), BuildingBlock: ZUJKAS_clean_linker_0, # of connection points: 2
#     Edge 46, Type (0, 0), BuildingBlock: ZUJKAS_clean_linker_0, # of connection points: 2
#     Edge 47, Type (0, 0), BuildingBlock: ZUJKAS_clean_linker_0, # of connection points: 2
#     Edge 48, Type (0, 0), BuildingBlock: ZUJKAS_clean_linker_0, # of connection points: 2
#     Edge 49, Type (0, 0), BuildingBlock: ZUJKAS_clean_linker_0, # of connection points: 2
#     Edge 50, Type (0, 0), BuildingBlock: ZUJKAS_clean_linker_0, # of connection points: 2
#     Edge 51, Type (0, 0), BuildingBlock: ZUJKAS_clean_linker_0, # of connection points: 2
#     Edge 52, Type (0, 0), BuildingBlock: ZUJKAS_clean_linker_0, # of connection points: 2
#     Edge 53, Type (0, 0), BuildingBlock: ZUJKAS_clean_linker_0, # of connection points: 2
#     Edge 54, Type (0, 0), BuildingBlock: ZUJKAS_clean_linker_0, # of connection points: 2
#     Edge 55, Type (0, 0), BuildingBlock: ZUJKAS_clean_linker_0, # of connection points: 2
# Relax obj value: 0.173
# Max RMSD: 0.150
# Mean RMSD: 0.150
data_MOF--net-zfo--node1-XOMCOT_clean_sbu_1--edge1-ZUJKAS_clean_linker_0
_symmetry_space_group_name_H-M    P1
_symmetry_Int_Tables_number       1
_symmetry_cell_setting            triclinic
loop_
_symmetry_equiv_pos_as_xyz
'x, y, z'
_cell_length_a     44.025359
_cell_length_b     43.988279
_cell_length_c     66.768317
_cell_angle_alpha  90.078624
_cell_angle_beta   90.068061
_cell_angle_gamma 90.00288
loop_
_atom_site_label
_atom_site_type_symbol
_atom_site_fract_x
_atom_site_fract_y
_atom_site_fract_z
_atom_type_partial_charge
C0 C 0.00971 0.25396 0.18117 0.0
C1 C 0.97893 0.25411 0.18461 0.0
N2 N 0.96467 0.26223 0.16754 0.0
N3 N 0.01499 0.26191 0.16205 0.0
C4 C 0.98718 0.26706 0.15412 0.0
H5 H 0.02723 0.24819 0.19188 0.0
Co6 Co 0.05373 0.26364 0.15118 0.0
C7 C 0.04576 0.27055 0.1079 0.0
O8 O 0.06624 0.24894 0.10621 0.0
N9 N 0.09393 0.26648 0.14075 0.0
C10 C 0.13384 0.28841 0.12614 0.0
C11 C 0.10342 0.29088 0.13014 0.0
C12 C 0.11967 0.25008 0.14369 0.0
N13 N 0.1441 0.26278 0.13472 0.0
O14 O 0.05812 0.30382 0.16204 0.0
H15 H 0.08923 0.30996 0.12606 0.0
H16 H 0.1211 0.2299 0.15277 0.0
O17 O 0.03767 0.27971 0.12537 0.0
C18 C 0.07504 0.30294 0.17754 0.0
O19 O 0.08729 0.27688 0.18276 0.0
N20 N 0.04903 0.22273 0.1428 0.0
C21 C 0.03894 0.16052 0.13716 0.0
C22 C 0.02126 0.18208 0.12706 0.0
C23 C 0.02622 0.213 0.13039 0.0
C24 C 0.06521 0.20198 0.15358 0.0
C25 C 0.06118 0.17078 0.15058 0.0
H26 H 0.01086 0.22892 0.12347 0.0
H27 H 0.0801 0.20957 0.16542 0.0
H28 H 0.98345 0.27332 0.13866 0.0
H29 H 0.968 0.24867 0.19866 0.0
H30 H 0.14769 0.30502 0.11844 0.0
H31 H 0.00327 0.17512 0.11696 0.0
H32 H 0.07427 0.15486 0.15945 0.0
C33 C 0.76944 0.00528 0.67297 0.0
C34 C 0.77292 0.97434 0.67348 0.0
N35 N 0.75574 0.962 0.65884 0.0
N36 N 0.75008 0.01274 0.65815 0.0
C37 C 0.74196 0.98589 0.64979 0.0
H38 H 0.78044 0.02147 0.68279 0.0
Co39 Co 0.74021 0.05306 0.65286 0.0
C40 C 0.7215 0.05683 0.61067 0.0
O41 O 0.73691 0.08238 0.60982 0.0
N42 N 0.72983 0.09449 0.64849 0.0
C43 C 0.70018 0.13469 0.64297 0.0
C44 C 0.70117 0.1036 0.64435 0.0
C45 C 0.74573 0.12085 0.64988 0.0
N46 N 0.72824 0.14561 0.64644 0.0
O47 O 0.70269 0.04809 0.66712 0.0
H48 H 0.682 0.08848 0.64249 0.0
H49 H 0.7696 0.12224 0.65331 0.0
O50 O 0.72086 0.04158 0.62704 0.0
C51 C 0.70756 0.05392 0.68556 0.0
O52 O 0.73533 0.06117 0.69101 0.0
N53 N 0.7786 0.05741 0.64093 0.0
C54 C 0.84068 0.05315 0.63272 0.0
C55 C 0.81926 0.03957 0.61998 0.0
C56 C 0.78835 0.04143 0.62456 0.0
C57 C 0.79919 0.07072 0.65341 0.0
C58 C 0.8302 0.06951 0.64937 0.0
H59 H 0.77282 0.02782 0.61585 0.0
H60 H 0.79162 0.08062 0.66737 0.0
H61 H 0.72663 0.98396 0.63718 0.0
H62 H 0.78677 0.96196 0.68408 0.0
H63 H 0.68009 0.14821 0.64014 0.0
H64 H 0.82638 0.02568 0.60743 0.0
H65 H 0.84591 0.08004 0.65977 0.0
C66 C 0.98762 0.74575 0.17584 0.0
C67 C 0.0182 0.74443 0.1801 0.0
N68 N 0.03312 0.73701 0.16317 0.0
N69 N 0.98327 0.73915 0.15635 0.0
C70 C 0.01137 0.73374 0.14904 0.0
H71 H 0.96967 0.75158 0.1862 0.0
Co72 Co 0.94554 0.73889 0.14394 0.0
C73 C 0.95785 0.73229 0.10097 0.0
O74 O 0.93874 0.75489 0.09831 0.0
N75 N 0.90639 0.73759 0.13175 0.0
C76 C 0.86754 0.718 0.11456 0.0
C77 C 0.89728 0.71411 0.12008 0.0
C78 C 0.88096 0.75476 0.13385 0.0
N79 N 0.85728 0.74352 0.12327 0.0
O80 O 0.93895 0.69876 0.15431 0.0
H81 H 0.9112 0.69471 0.11624 0.0
H82 H 0.87912 0.77443 0.14342 0.0
O83 O 0.96346 0.72264 0.11873 0.0
C84 C 0.921 0.70028 0.16926 0.0
O85 O 0.90877 0.72667 0.17376 0.0
N86 N 0.95224 0.77975 0.13626 0.0
C87 C 0.96508 0.84195 0.13297 0.0
C88 C 0.98264 0.8203 0.12277 0.0
C89 C 0.97628 0.78939 0.12494 0.0
C90 C 0.93593 0.80041 0.14701 0.0
C91 C 0.94133 0.83156 0.14518 0.0
H92 H 0.9917 0.77334 0.11819 0.0
H93 H 0.91975 0.79266 0.15801 0.0
H94 H 0.01591 0.72774 0.13362 0.0
H95 H 0.02869 0.74952 0.19439 0.0
H96 H 0.85398 0.70241 0.10573 0.0
H97 H 0.00216 0.82701 0.11397 0.0
H98 H 0.92749 0.84723 0.15372 0.0
C99 C 0.25493 0.98588 0.67007 0.0
C100 C 0.25575 0.01615 0.67503 0.0
N101 N 0.25943 0.03255 0.65813 0.0
N102 N 0.25824 0.98289 0.65015 0.0
C103 C 0.2612 0.01163 0.64325 0.0
H104 H 0.25178 0.96714 0.68032 0.0
Co105 Co 0.25719 0.94525 0.6376 0.0
C106 C 0.26233 0.9568 0.5945 0.0
O107 O 0.23969 0.93749 0.59265 0.0
N108 N 0.25709 0.90599 0.62558 0.0
C109 C 0.27529 0.86578 0.60912 0.0
C110 C 0.27951 0.89597 0.61338 0.0
C111 C 0.24034 0.88073 0.62926 0.0
N112 N 0.25073 0.85618 0.61919 0.0
O113 O 0.29752 0.93748 0.6473 0.0
H114 H 0.2987 0.90945 0.60858 0.0
H115 H 0.22199 0.87959 0.63992 0.0
O116 O 0.2728 0.96295 0.61203 0.0
C117 C 0.29562 0.91959 0.66228 0.0
O118 O 0.26877 0.90921 0.66744 0.0
N119 N 0.21623 0.95288 0.63049 0.0
C120 C 0.15429 0.96607 0.62694 0.0
C121 C 0.17592 0.98289 0.61632 0.0
C122 C 0.20673 0.97651 0.61871 0.0
C123 C 0.19553 0.93733 0.64167 0.0
C124 C 0.16445 0.94309 0.63985 0.0
H125 H 0.22277 0.99145 0.61156 0.0
H126 H 0.20322 0.92146 0.65289 0.0
H127 H 0.26377 0.01705 0.62757 0.0
H128 H 0.25361 0.02514 0.69004 0.0
H129 H 0.29033 0.85145 0.60043 0.0
H130 H 0.16922 1.00185 0.60697 0.0
H131 H 0.1486 0.93012 0.64882 0.0
C132 C 0.51305 0.25242 0.83799 0.0
C133 C 0.4822 0.25391 0.83502 0.0
N134 N 0.46821 0.24672 0.85234 0.0
N135 N 0.51865 0.24425 0.85705 0.0
C136 C 0.49093 0.24081 0.86544 0.0
H137 H 0.53039 0.25725 0.82698 0.0
Co138 Co 0.55759 0.24051 0.86742 0.0
C139 C 0.55057 0.23283 0.91075 0.0
O140 O 0.57226 0.2532 0.91256 0.0
N141 N 0.5978 0.2358 0.87738 0.0
C142 C 0.63737 0.2125 0.8915 0.0
C143 C 0.6069 0.21067 0.8874 0.0
C144 C 0.62372 0.25203 0.87493 0.0
N145 N 0.64793 0.23849 0.8836 0.0
O146 O 0.56015 0.20038 0.85613 0.0
H147 H 0.59232 0.19173 0.89115 0.0
H148 H 0.62538 0.27292 0.86658 0.0
O149 O 0.54152 0.22474 0.89325 0.0
C150 C 0.57527 0.20313 0.83993 0.0
O151 O 0.58559 0.23024 0.8352 0.0
N152 N 0.55516 0.28137 0.87596 0.0
C153 C 0.55018 0.34427 0.88127 0.0
C154 C 0.53233 0.32421 0.89256 0.0
C155 C 0.53455 0.29289 0.8893 0.0
C156 C 0.57126 0.30067 0.86408 0.0
C157 C 0.56976 0.33206 0.86679 0.0
H158 H 0.51884 0.27819 0.897 0.0
H159 H 0.58446 0.29168 0.8518 0.0
H160 H 0.48747 0.23497 0.881 0.0
H161 H 0.47105 0.2598 0.82111 0.0
H162 H 0.65099 0.19538 0.89892 0.0
H163 H 0.51577 0.33267 0.90318 0.0
H164 H 0.58341 0.34663 0.85734 0.0
C165 C 0.76078 0.51422 0.33663 0.0
C166 C 0.76545 0.48398 0.33233 0.0
N167 N 0.7806 0.47129 0.34775 0.0
N168 N 0.77294 0.52069 0.35467 0.0
C169 C 0.78539 0.4942 0.3609 0.0
H170 H 0.74791 0.53013 0.32766 0.0
Co171 Co 0.76844 0.55813 0.36777 0.0
C172 C 0.77886 0.53082 0.40908 0.0
O173 O 0.74983 0.52868 0.41308 0.0
N174 N 0.76456 0.59651 0.38076 0.0
C175 C 0.75416 0.63245 0.4033 0.0
C176 C 0.75673 0.60177 0.40004 0.0
C177 C 0.76663 0.62472 0.37268 0.0
N178 N 0.76028 0.64695 0.38607 0.0
O179 O 0.80753 0.56976 0.35764 0.0
H180 H 0.75183 0.58466 0.41104 0.0
H181 H 0.7714 0.62903 0.35709 0.0
O182 O 0.78803 0.54203 0.39245 0.0
C183 C 0.80399 0.58137 0.3403 0.0
O184 O 0.77626 0.58456 0.33329 0.0
N185 N 0.72797 0.54712 0.37529 0.0
C186 C 0.66629 0.53314 0.37996 0.0
C187 C 0.68851 0.51065 0.38222 0.0
C188 C 0.71907 0.51796 0.37949 0.0
C189 C 0.70627 0.56883 0.37207 0.0
C190 C 0.67549 0.56255 0.3748 0.0
H191 H 0.73552 0.50002 0.3812 0.0
H192 H 0.71249 0.59108 0.36666 0.0
H193 H 0.79621 0.49124 0.37531 0.0
H194 H 0.75654 0.47184 0.31949 0.0
H195 H 0.74791 0.64321 0.41729 0.0
H196 H 0.68236 0.48753 0.38603 0.0
H197 H 0.65895 0.58031 0.37208 0.0
C198 C 0.50627 0.78437 0.83308 0.0
C199 C 0.53654 0.79183 0.83383 0.0
N200 N 0.54725 0.78496 0.85219 0.0
N201 N 0.49762 0.77302 0.85093 0.0
C202 C 0.52309 0.77373 0.8623 0.0
H203 H 0.49196 0.78582 0.81997 0.0
Co204 Co 0.45967 0.75586 0.8565 0.0
C205 C 0.4471 0.7985 0.89078 0.0
O206 O 0.42769 0.81554 0.88093 0.0
N207 N 0.4213 0.73816 0.86166 0.0
C208 C 0.38455 0.70346 0.86148 0.0
C209 C 0.41513 0.70828 0.85941 0.0
C210 C 0.39375 0.7511 0.86488 0.0
N211 N 0.37093 0.73042 0.8647 0.0
O212 O 0.44028 0.78953 0.84322 0.0
H213 H 0.43158 0.69102 0.85556 0.0
H214 H 0.39021 0.77536 0.86593 0.0
O215 O 0.45974 0.77596 0.88219 0.0
C216 C 0.43073 0.78145 0.82597 0.0
O217 O 0.4339 0.75281 0.82071 0.0
N218 N 0.47886 0.72203 0.86792 0.0
C219 C 0.50152 0.66567 0.87977 0.0
C220 C 0.48652 0.6846 0.89353 0.0
C221 C 0.47523 0.71274 0.88729 0.0
C222 C 0.49438 0.70452 0.85457 0.0
C223 C 0.50601 0.67632 0.86019 0.0
H224 H 0.46216 0.72616 0.89774 0.0
H225 H 0.49647 0.71191 0.83919 0.0
H226 H 0.52409 0.7651 0.87746 0.0
H227 H 0.54999 0.79998 0.82139 0.0
H228 H 0.37318 0.68175 0.86009 0.0
H229 H 0.48266 0.67733 0.9088 0.0
H230 H 0.51691 0.66232 0.84895 0.0
C231 C 0.2511 0.49137 0.33533 0.0
C232 C 0.24717 0.52141 0.33028 0.0
N233 N 0.23238 0.53547 0.34535 0.0
N234 N 0.23896 0.48637 0.35352 0.0
C235 C 0.22717 0.51351 0.35911 0.0
H236 H 0.26344 0.47456 0.32675 0.0
Co237 Co 0.24259 0.44953 0.36726 0.0
C238 C 0.23649 0.47965 0.40823 0.0
O239 O 0.26584 0.4811 0.41129 0.0
N240 N 0.24553 0.41168 0.38076 0.0
C241 C 0.25518 0.37572 0.40337 0.0
C242 C 0.25327 0.40647 0.40006 0.0
C243 C 0.24277 0.38349 0.37273 0.0
N244 N 0.24866 0.36124 0.38614 0.0
O245 O 0.20222 0.43949 0.35871 0.0
H246 H 0.25853 0.42366 0.411 0.0
H247 H 0.23803 0.37921 0.35712 0.0
O248 O 0.22579 0.46773 0.39217 0.0
C249 C 0.20306 0.42715 0.34144 0.0
O250 O 0.22958 0.42239 0.333 0.0
N251 N 0.28409 0.45887 0.37341 0.0
C252 C 0.34656 0.47017 0.37714 0.0
C253 C 0.32543 0.49384 0.37886 0.0
C254 C 0.2945 0.48783 0.37659 0.0
C255 C 0.30464 0.43596 0.37057 0.0
C256 C 0.33576 0.44092 0.37283 0.0
H257 H 0.27896 0.50666 0.37789 0.0
H258 H 0.29725 0.41362 0.366 0.0
H259 H 0.21638 0.51747 0.37341 0.0
H260 H 0.25629 0.53239 0.3171 0.0
H261 H 0.26132 0.3649 0.41735 0.0
H262 H 0.33271 0.51701 0.38151 0.0
H263 H 0.35119 0.42195 0.37105 0.0
C264 C 0.00411 0.77346 0.83748 0.0
C265 C 0.03509 0.77517 0.83536 0.0
N266 N 0.04812 0.75947 0.85041 0.0
N267 N 0.99743 0.75666 0.85373 0.0
C268 C 0.02472 0.74842 0.86135 0.0
H269 H 0.98743 0.78437 0.82801 0.0
Co270 Co 0.95764 0.75034 0.86232 0.0
C271 C 0.96138 0.73274 0.90443 0.0
O272 O 0.93911 0.75216 0.90729 0.0
N273 N 0.91669 0.74318 0.87031 0.0
C274 C 0.87687 0.71546 0.87985 0.0
C275 C 0.90752 0.71534 0.87638 0.0
C276 C 0.89061 0.75966 0.86972 0.0
N277 N 0.86613 0.74335 0.87566 0.0
O278 O 0.95593 0.71344 0.84684 0.0
H279 H 0.92225 0.69579 0.87786 0.0
H280 H 0.88913 0.78291 0.86476 0.0
O281 O 0.97205 0.7287 0.88674 0.0
C282 C 0.94415 0.72082 0.83006 0.0
O283 O 0.9367 0.74947 0.82736 0.0
N284 N 0.9595 0.78851 0.87525 0.0
C285 C 0.96899 0.84923 0.8859 0.0
C286 C 0.9857 0.82599 0.89505 0.0
C287 C 0.98103 0.79586 0.88926 0.0
C288 C 0.9438 0.81103 0.86579 0.0
C289 C 0.94753 0.84145 0.87127 0.0
H290 H 0.99619 0.77884 0.89519 0.0
H291 H 0.92994 0.80565 0.85291 0.0
H292 H 0.02745 0.73481 0.87472 0.0
H293 H 0.04709 0.7878 0.82394 0.0
H294 H 0.86335 0.69609 0.88435 0.0
H295 H 0.00314 0.83116 0.90599 0.0
H296 H 0.93524 0.85887 0.86315 0.0
C297 C 0.23122 0.99679 0.3359 0.0
C298 C 0.22772 0.02774 0.33547 0.0
N299 N 0.24409 0.03995 0.35056 0.0
N300 N 0.24987 0.9892 0.35107 0.0
C301 C 0.2575 0.01597 0.35975 0.0
H302 H 0.22043 0.98068 0.32593 0.0
Co303 Co 0.25858 0.94871 0.35678 0.0
C304 C 0.27802 0.94559 0.39868 0.0
O305 O 0.2607 0.92132 0.39993 0.0
N306 N 0.26787 0.90703 0.36156 0.0
C307 C 0.29709 0.86659 0.36742 0.0
C308 C 0.29644 0.89763 0.36571 0.0
C309 C 0.25166 0.8808 0.3605 0.0
N310 N 0.26888 0.85591 0.36416 0.0
O311 O 0.29565 0.9519 0.34189 0.0
H312 H 0.31584 0.91253 0.36731 0.0
H313 H 0.22777 0.87957 0.35711 0.0
O314 O 0.27954 0.96015 0.38207 0.0
C315 C 0.29102 0.94597 0.32345 0.0
O316 O 0.26316 0.93977 0.31766 0.0
N317 N 0.22057 0.94621 0.36959 0.0
C318 C 0.15929 0.95239 0.38013 0.0
C319 C 0.18212 0.96745 0.39099 0.0
C320 C 0.21248 0.96438 0.38535 0.0
C321 C 0.19868 0.9319 0.35867 0.0
C322 C 0.16813 0.93377 0.36405 0.0
H323 H 0.22898 0.97869 0.39271 0.0
H324 H 0.20471 0.92053 0.34487 0.0
H325 H 0.27187 0.01775 0.37285 0.0
H326 H 0.21417 0.04019 0.32474 0.0
H327 H 0.31705 0.85292 0.3703 0.0
H328 H 0.17659 0.98324 0.40289 0.0
H329 H 0.15154 0.92178 0.35504 0.0
C330 C 0.01127 0.24844 0.84093 0.0
C331 C 0.98035 0.24694 0.83848 0.0
N332 N 0.96701 0.26014 0.85446 0.0
N333 N 0.01762 0.26268 0.85829 0.0
C334 C 0.99023 0.26967 0.8662 0.0
H335 H 0.02811 0.23919 0.83085 0.0
Co336 Co 0.05701 0.26809 0.86769 0.0
C337 C 0.05171 0.27836 0.91089 0.0
O338 O 0.07403 0.25874 0.91286 0.0
N339 N 0.09754 0.27446 0.87648 0.0
C340 C 0.13708 0.30004 0.88886 0.0
C341 C 0.10634 0.30049 0.8856 0.0
C342 C 0.12389 0.25903 0.87368 0.0
N343 N 0.14814 0.27396 0.88132 0.0
O344 O 0.05792 0.30752 0.85561 0.0
H345 H 0.09134 0.31914 0.88928 0.0
H346 H 0.12579 0.23771 0.86583 0.0
O347 O 0.0418 0.28509 0.89338 0.0
C348 C 0.06708 0.30444 0.83763 0.0
O349 O 0.07467 0.27711 0.83142 0.0
N350 N 0.05568 0.22781 0.87753 0.0
C351 C 0.04765 0.16545 0.88429 0.0
C352 C 0.03025 0.18703 0.89466 0.0
C353 C 0.03415 0.21793 0.89079 0.0
C354 C 0.07185 0.20711 0.86672 0.0
C355 C 0.06891 0.17595 0.87025 0.0
H356 H 0.01842 0.23362 0.89761 0.0
H357 H 0.08564 0.21459 0.85432 0.0
H358 H 0.9874 0.28054 0.88061 0.0
H359 H 0.96875 0.2367 0.82588 0.0
H360 H 0.15045 0.31812 0.89546 0.0
H361 H 0.0124 0.18015 0.90484 0.0
H362 H 0.08244 0.16028 0.8615 0.0
C363 C 0.77166 0.01427 0.34433 0.0
C364 C 0.77456 0.98338 0.34242 0.0
N365 N 0.76171 0.97006 0.35849 0.0
N366 N 0.75691 0.0207 0.36145 0.0
C367 C 0.75095 0.99331 0.36979 0.0
H368 H 0.78017 0.03112 0.33399 0.0
Co369 Co 0.75061 0.0608 0.36919 0.0
C370 C 0.73078 0.06067 0.4111 0.0
O371 O 0.74929 0.08381 0.4136 0.0
N372 N 0.74386 0.10238 0.37585 0.0
C373 C 0.71749 0.1443 0.38298 0.0
C374 C 0.71641 0.11321 0.38147 0.0
C375 C 0.761 0.12777 0.37345 0.0
N376 N 0.74555 0.15352 0.37786 0.0
O377 O 0.71367 0.06142 0.35387 0.0
H378 H 0.69644 0.09933 0.38379 0.0
H379 H 0.78402 0.12781 0.36801 0.0
O380 O 0.7287 0.04787 0.39385 0.0
C381 C 0.71936 0.07325 0.33685 0.0
O382 O 0.74722 0.0826 0.33338 0.0
N383 N 0.78855 0.05961 0.38231 0.0
C384 C 0.84894 0.04851 0.39279 0.0
C385 C 0.82527 0.03431 0.40314 0.0
C386 C 0.79525 0.03983 0.39751 0.0
C387 C 0.81148 0.07313 0.37191 0.0
C388 C 0.84181 0.06861 0.37725 0.0
H389 H 0.77782 0.02619 0.4044 0.0
H390 H 0.80644 0.0855 0.35834 0.0
H391 H 0.73981 0.99051 0.3841 0.0
H392 H 0.78528 0.97171 0.33002 0.0
H393 H 0.6986 0.15905 0.3866 0.0
H394 H 0.82999 0.01784 0.41478 0.0
H395 H 0.85958 0.07885 0.36829 0.0
C396 C 0.49621 0.73622 0.16322 0.0
C397 C 0.52723 0.7345 0.16332 0.0
N398 N 0.53806 0.75135 0.14806 0.0
N399 N 0.48713 0.75429 0.14811 0.0
C400 C 0.51312 0.76331 0.13908 0.0
H401 H 0.48107 0.72485 0.17352 0.0
Co402 Co 0.44602 0.76131 0.14357 0.0
C403 C 0.43782 0.77338 0.10075 0.0
O404 O 0.41423 0.75514 0.10182 0.0
N405 N 0.40397 0.76904 0.13997 0.0
C406 C 0.36262 0.79617 0.13275 0.0
C407 C 0.39369 0.79645 0.13376 0.0
C408 C 0.37826 0.75274 0.14323 0.0
N409 N 0.35292 0.76868 0.1387 0.0
O410 O 0.44964 0.80091 0.15551 0.0
H411 H 0.40801 0.81558 0.13 0.0
H412 H 0.37774 0.72968 0.14867 0.0
O413 O 0.45425 0.77799 0.11638 0.0
C414 C 0.44917 0.79959 0.17457 0.0
O415 O 0.44764 0.77284 0.1832 0.0
N416 N 0.4432 0.72117 0.13371 0.0
C417 C 0.45108 0.65874 0.12764 0.0
C418 C 0.46357 0.67987 0.1143 0.0
C419 C 0.45991 0.71093 0.11781 0.0
C420 C 0.431 0.70088 0.14686 0.0
C421 C 0.43408 0.66958 0.14389 0.0
H422 H 0.47263 0.72645 0.10856 0.0
H423 H 0.42089 0.70898 0.16061 0.0
H424 H 0.51367 0.77783 0.12602 0.0
H425 H 0.54066 0.7219 0.17405 0.0
H426 H 0.34821 0.81496 0.12835 0.0
H427 H 0.47736 0.6725 0.10177 0.0
H428 H 0.42509 0.65411 0.15501 0.0
C429 C 0.26914 0.49523 0.66808 0.0
C430 C 0.27197 0.52624 0.66794 0.0
N431 N 0.25161 0.53782 0.65488 0.0
N432 N 0.247 0.48694 0.65528 0.0
C433 C 0.23665 0.51332 0.64745 0.0
H434 H 0.28224 0.47961 0.67712 0.0
Co435 Co 0.23541 0.44666 0.65136 0.0
C436 C 0.21597 0.44116 0.60931 0.0
O437 O 0.2298 0.4147 0.60881 0.0
N438 N 0.22309 0.40557 0.6481 0.0
C439 C 0.19162 0.3667 0.64261 0.0
C440 C 0.19392 0.39768 0.64436 0.0
C441 C 0.23795 0.37857 0.64895 0.0
N442 N 0.21934 0.35469 0.64548 0.0
O443 O 0.19806 0.45429 0.66531 0.0
H444 H 0.17537 0.41359 0.64263 0.0
H445 H 0.26194 0.37605 0.65167 0.0
O446 O 0.21656 0.45716 0.62537 0.0
C447 C 0.20164 0.45602 0.68422 0.0
O448 O 0.22921 0.454 0.69163 0.0
N449 N 0.27356 0.4397 0.63952 0.0
C450 C 0.33582 0.44094 0.6312 0.0
C451 C 0.3149 0.45501 0.61831 0.0
C452 C 0.28393 0.45454 0.62289 0.0
C453 C 0.29358 0.42585 0.65212 0.0
C454 C 0.3246 0.42546 0.64799 0.0
H455 H 0.26893 0.46841 0.61397 0.0
H456 H 0.28563 0.41674 0.66621 0.0
H457 H 0.21863 0.5144 0.63646 0.0
H458 H 0.28765 0.53909 0.6771 0.0
H459 H 0.17104 0.35398 0.63966 0.0
H460 H 0.32251 0.46826 0.60561 0.0
H461 H 0.33977 0.41437 0.65846 0.0
C462 C 0.50797 0.25667 0.17872 0.0
C463 C 0.47708 0.25694 0.1815 0.0
N464 N 0.46371 0.24522 0.16502 0.0
N465 N 0.51428 0.24473 0.16063 0.0
C466 C 0.48688 0.23778 0.15264 0.0
H467 H 0.52482 0.26519 0.1891 0.0
Co468 Co 0.55359 0.24199 0.15059 0.0
C469 C 0.54731 0.23022 0.10761 0.0
O470 O 0.56804 0.25141 0.10519 0.0
N471 N 0.59419 0.23831 0.14115 0.0
C472 C 0.63484 0.21483 0.12861 0.0
C473 C 0.6042 0.21286 0.13186 0.0
C474 C 0.61982 0.25489 0.14413 0.0
N475 N 0.64473 0.24123 0.13637 0.0
O476 O 0.55808 0.20322 0.16343 0.0
H477 H 0.59018 0.19341 0.12826 0.0
H478 H 0.62074 0.27592 0.15241 0.0
O479 O 0.53856 0.22307 0.12532 0.0
C480 C 0.57085 0.20871 0.18022 0.0
O481 O 0.57834 0.23701 0.18423 0.0
N482 N 0.54891 0.2818 0.14027 0.0
C483 C 0.53579 0.34321 0.1335 0.0
C484 C 0.51994 0.32034 0.12327 0.0
C485 C 0.52632 0.28987 0.1272 0.0
C486 C 0.56394 0.30381 0.15072 0.0
C487 C 0.55829 0.33462 0.14724 0.0
H488 H 0.51174 0.27299 0.12049 0.0
H489 H 0.57875 0.29753 0.16291 0.0
H490 H 0.48393 0.22856 0.13775 0.0
H491 H 0.46546 0.26536 0.19465 0.0
H492 H 0.64904 0.19739 0.12204 0.0
H493 H 0.50192 0.3259 0.11284 0.0
H494 H 0.57008 0.3515 0.15617 0.0
C495 C 0.7401 0.50804 0.67915 0.0
C496 C 0.74476 0.47804 0.68398 0.0
N497 N 0.76223 0.4653 0.66969 0.0
N498 N 0.75455 0.51437 0.66189 0.0
C499 C 0.76834 0.48802 0.65665 0.0
H500 H 0.72556 0.52378 0.68708 0.0
Co501 Co 0.75037 0.55139 0.64838 0.0
C502 C 0.76492 0.5242 0.60757 0.0
O503 O 0.73632 0.52155 0.60244 0.0
N504 N 0.74667 0.58936 0.63513 0.0
C505 C 0.73727 0.6253 0.61247 0.0
C506 C 0.73956 0.59459 0.61573 0.0
C507 C 0.74863 0.61754 0.64329 0.0
N508 N 0.74294 0.63976 0.62982 0.0
O509 O 0.78838 0.56426 0.65989 0.0
H510 H 0.73508 0.57742 0.60464 0.0
H511 H 0.753 0.62181 0.65896 0.0
O512 O 0.77243 0.53545 0.62459 0.0
C513 C 0.78364 0.57497 0.67738 0.0
O514 O 0.75544 0.57663 0.68373 0.0
N515 N 0.71087 0.53912 0.6393 0.0
C516 C 0.65013 0.52288 0.63212 0.0
C517 C 0.67339 0.50124 0.63085 0.0
C518 C 0.70337 0.50965 0.63483 0.0
C519 C 0.68819 0.5601 0.64147 0.0
C520 C 0.65792 0.55269 0.63753 0.0
H521 H 0.72056 0.49227 0.63392 0.0
H522 H 0.6932 0.58271 0.64686 0.0
H523 H 0.781 0.48503 0.64292 0.0
H524 H 0.73417 0.46605 0.69627 0.0
H525 H 0.73164 0.63613 0.59839 0.0
H526 H 0.66846 0.4777 0.62736 0.0
H527 H 0.64075 0.57017 0.63899 0.0
H528 H 0.07993 0.1145 0.13179 0.0
H529 H 0.06933 0.06 0.12838 0.0
H530 H 0.97345 0.0778 0.13476 0.0
H531 H 0.98386 0.13215 0.13769 0.0
H532 H 0.04445 0.02154 0.15402 0.0
H533 H 0.97292 0.02474 0.08596 0.0
H534 H 0.9949 0.05704 0.0942 0.0
H535 H 0.95832 0.04925 0.10513 0.0
C536 C 0.0566 0.10672 0.13233 0.0
C537 C 0.0327 0.12757 0.13479 0.0
C538 C 0.05056 0.07564 0.13034 0.0
C539 C 0.02053 0.06484 0.13087 0.0
C540 C 0.9967 0.08563 0.13363 0.0
H541 H 0.96273 0.88423 0.16324 0.0
H542 H 0.97664 0.93776 0.16181 0.0
C543 C 0.00269 0.11669 0.13539 0.0
C544 C 0.01416 0.03173 0.12957 0.0
H545 H 0.97024 0.97908 0.10552 0.0
C546 C 0.02845 0.01222 0.14328 0.0
C547 C 0.99371 0.01943 0.11532 0.0
C548 C 0.97935 0.03868 0.09919 0.0
C549 C 0.02212 0.98095 0.14356 0.0
C550 C 1.00018 0.969 0.13017 0.0
C551 C 0.98668 0.98831 0.11601 0.0
C552 C 0.99069 0.93662 0.13077 0.0
C553 C 0.03927 0.96105 0.15809 0.0
C554 C 0.99262 0.91841 0.11353 0.0
C555 C 0.98385 0.88787 0.11413 0.0
C556 C 0.97299 0.87487 0.132 0.0
C557 C 0.9706 0.8934 0.14914 0.0
C558 C 0.97908 0.92398 0.14846 0.0
H559 H 0.06139 0.97139 0.16236 0.0
H560 H 0.02568 0.95835 0.17196 0.0
H561 H 0.0436 0.93816 0.15168 0.0
H562 H 1.00119 0.92777 0.09964 0.0
H563 H 0.98554 0.87446 0.10056 0.0
H564 H 0.12132 0.98027 0.59345 0.0
H565 H 0.06836 0.99734 0.59184 0.0
H566 H 0.06057 0.98712 0.65584 0.0
H567 H 0.11355 0.97072 0.65767 0.0
H568 H 0.01411 0.96702 0.60536 0.0
H569 H 0.03458 0.07617 0.64493 0.0
H570 H 0.06489 0.05382 0.63418 0.0
H571 H 0.0487 0.04329 0.65787 0.0
C572 C 0.10832 0.98173 0.60718 0.0
C573 C 0.12164 0.97424 0.62569 0.0
C574 C 0.07809 0.99136 0.60621 0.0
C575 C 0.0608 0.99391 0.62375 0.0
C576 C 0.07374 0.98572 0.64218 0.0
H577 H 0.88224 0.03964 0.66171 0.0
H578 H 0.93574 0.02704 0.65751 0.0
C579 C 0.1039 0.97602 0.64316 0.0
C580 C 0.02919 0.00522 0.62291 0.0
H581 H 0.98296 0.06147 0.64048 0.0
C582 C 0.00726 0.98783 0.61282 0.0
C583 C 0.02051 0.03246 0.63259 0.0
C584 C 0.04341 0.05271 0.64286 0.0
C585 C 0.97649 0.99629 0.61295 0.0
C586 C 0.96769 0.02309 0.62314 0.0
C587 C 0.98981 0.04092 0.63271 0.0
C588 C 0.93543 0.03195 0.62529 0.0
C589 C 0.95351 0.97583 0.60293 0.0
C590 C 0.91762 0.03941 0.60854 0.0
C591 C 0.88692 0.04687 0.6109 0.0
C592 C 0.87365 0.0472 0.63006 0.0
C593 C 0.89182 0.04022 0.64678 0.0
C594 C 0.92238 0.03278 0.64441 0.0
H595 H 0.96319 0.95319 0.59923 0.0
H596 H 0.93336 0.97257 0.61268 0.0
H597 H 0.94573 0.98655 0.58879 0.0
H598 H 0.92745 0.03942 0.59368 0.0
H599 H 0.87358 0.05238 0.59776 0.0
H600 H 0.55274 0.63401 0.86916 0.0
H601 H 0.56205 0.57953 0.87332 0.0
H602 H 0.4787 0.57099 0.90667 0.0
H603 H 0.46863 0.62513 0.902 0.0
H604 H 0.56621 0.54017 0.9071 0.0
H605 H 0.4671 0.51369 0.8584 0.0
H606 H 0.48298 0.55139 0.86032 0.0
H607 H 0.45881 0.53703 0.87981 0.0
C608 C 0.53647 0.62057 0.87747 0.0
C609 C 0.50976 0.63388 0.88503 0.0
C610 C 0.54193 0.5895 0.87995 0.0
C611 C 0.52079 0.57119 0.89 0.0
C612 C 0.49506 0.58469 0.89861 0.0
H613 H 0.54404 0.37711 0.91601 0.0
H614 H 0.53714 0.43218 0.91944 0.0
C615 C 0.48952 0.61573 0.8961 0.0
C616 C 0.52464 0.53775 0.89018 0.0
H617 H 0.49328 0.47207 0.87237 0.0
C618 C 0.55023 0.52521 0.89961 0.0
C619 C 0.50392 0.5184 0.88014 0.0
C620 C 0.47678 0.53072 0.86893 0.0
C621 C 0.55567 0.49372 0.89926 0.0
C622 C 0.53476 0.47439 0.88939 0.0
C623 C 0.50914 0.48697 0.88004 0.0
C624 C 0.53969 0.44118 0.88763 0.0
C625 C 0.58415 0.48149 0.9089 0.0
C626 C 0.54282 0.42798 0.86861 0.0
C627 C 0.54643 0.39662 0.86659 0.0
C628 C 0.5469 0.37772 0.88357 0.0
C629 C 0.54367 0.39102 0.90264 0.0
C630 C 0.54005 0.42249 0.90464 0.0
H631 H 0.60093 0.49977 0.91201 0.0
H632 H 0.57819 0.47053 0.92333 0.0
H633 H 0.59498 0.46407 0.8992 0.0
H634 H 0.54234 0.442 0.85528 0.0
H635 H 0.54824 0.38712 0.85167 0.0
H636 H 0.62254 0.56585 0.39942 0.0
H637 H 0.5682 0.55439 0.40168 0.0
H638 H 0.58191 0.47288 0.36684 0.0
H639 H 0.63619 0.48399 0.36475 0.0
H640 H 0.52751 0.54947 0.37155 0.0
H641 H 0.53262 0.44065 0.41308 0.0
H642 H 0.56486 0.4658 0.41105 0.0
H643 H 0.5555 0.44026 0.39087 0.0
C644 C 0.61394 0.54541 0.39234 0.0
C645 C 0.63361 0.52571 0.38201 0.0
C646 C 0.58296 0.53885 0.39369 0.0
C647 C 0.5711 0.5125 0.38474 0.0
C648 C 0.59069 0.49286 0.37436 0.0
H649 H 0.39313 0.4456 0.3552 0.0
H650 H 0.44746 0.4561 0.35832 0.0
C651 C 0.62169 0.49928 0.37313 0.0
C652 C 0.53801 0.50642 0.38527 0.0
H653 H 0.48521 0.45256 0.3973 0.0
C654 C 0.51824 0.52844 0.3774 0.0
C655 C 0.52596 0.47896 0.39293 0.0
C656 C 0.54581 0.4552 0.40264 0.0
C657 C 0.48682 0.52334 0.37645 0.0
C658 C 0.47497 0.4956 0.38361 0.0
C659 C 0.49456 0.47375 0.39174 0.0
C660 C 0.44223 0.48867 0.38234 0.0
C661 C 0.46651 0.54726 0.36735 0.0
C662 C 0.42152 0.50329 0.39503 0.0
C663 C 0.39048 0.49709 0.39348 0.0
C664 C 0.37965 0.47621 0.37915 0.0
C665 C 0.40066 0.46143 0.36659 0.0
C666 C 0.43169 0.46752 0.36826 0.0
H667 H 0.47967 0.56581 0.36015 0.0
H668 H 0.45123 0.53685 0.356 0.0
H669 H 0.45203 0.55734 0.37922 0.0
H670 H 0.42939 0.51949 0.40611 0.0
H671 H 0.375 0.5085 0.40359 0.0
H672 H 0.04844 0.12091 0.85542 0.0
H673 H 0.03506 0.06753 0.85904 0.0
H674 H 0.01699 0.08162 0.92183 0.0
H675 H 0.03237 0.13478 0.91869 0.0
H676 H 0.04537 0.02899 0.91611 0.0
H677 H 0.94955 0.03691 0.86276 0.0
H678 H 0.98465 0.04814 0.85139 0.0
H679 H 0.9694 0.07003 0.87187 0.0
C680 C 0.04229 0.11267 0.87013 0.0
C681 C 0.04139 0.13237 0.88675 0.0
C682 C 0.03408 0.08216 0.87208 0.0
C683 C 0.02415 0.07077 0.89057 0.0
C684 C 0.02419 0.09001 0.90735 0.0
H685 H 0.92958 0.8959 0.89345 0.0
H686 H 0.94191 0.94993 0.89752 0.0
C687 C 0.03278 0.12048 0.90548 0.0
C688 C 0.01374 0.03879 0.89234 0.0
H689 H 0.96582 0.98669 0.8714 0.0
C690 C 0.02777 0.01979 0.90647 0.0
C691 C 0.99022 0.02696 0.88013 0.0
C692 C 0.97236 0.04668 0.86585 0.0
C693 C 0.01975 0.98901 0.90818 0.0
C694 C 0.99775 0.97669 0.89497 0.0
C695 C 0.98295 0.99598 0.88137 0.0
C696 C 0.99049 0.94372 0.89439 0.0
C697 C 0.03476 0.97016 0.92426 0.0
C698 C 0.01362 0.92226 0.89132 0.0
C699 C 0.00664 0.89145 0.88928 0.0
C700 C 0.97631 0.88155 0.88986 0.0
C701 C 0.95313 0.90297 0.89297 0.0
C702 C 0.96017 0.93378 0.8953 0.0
H703 H 0.04211 0.98454 0.93707 0.0
H704 H 0.01931 0.9522 0.92994 0.0
H705 H 0.05533 0.95914 0.91798 0.0
H706 H 0.03705 0.9294 0.88986 0.0
H707 H 0.02491 0.87551 0.88647 0.0
H708 H 0.13154 0.96489 0.41626 0.0
H709 H 0.07944 0.98177 0.42174 0.0
H710 H 0.06015 0.96992 0.35886 0.0
H711 H 0.11259 0.9558 0.3529 0.0
H712 H 0.04006 0.02202 0.37054 0.0
H713 H 1.0018 0.93614 0.42565 0.0
H714 H 0.03457 0.95683 0.43397 0.0
H715 H 0.03718 0.93261 0.41227 0.0
C716 C 0.1163 0.96595 0.40355 0.0
C717 C 0.12657 0.95889 0.38411 0.0
C718 C 0.08628 0.97515 0.4068 0.0
C719 C 0.06565 0.97671 0.39078 0.0
C720 C 0.07557 0.9688 0.3715 0.0
H721 H 0.87116 0.99103 0.39258 0.0
H722 H 0.92434 0.97526 0.39385 0.0
C723 C 0.10565 0.96024 0.36817 0.0
C724 C 0.03428 0.98837 0.39364 0.0
H725 H 0.96866 0.97789 0.41995 0.0
C726 C 0.02442 0.01228 0.38132 0.0
C727 C 0.01381 0.97559 0.40763 0.0
C728 C 0.02225 0.94868 0.42049 0.0
C729 C 0.9946 0.02334 0.38224 0.0
C730 C 0.97433 0.01111 0.39657 0.0
C731 C 0.9843 0.98752 0.40915 0.0
C732 C 0.94207 0.02084 0.39769 0.0
C733 C 0.98488 0.04707 0.36721 0.0
C734 C 0.9342 0.05162 0.4 0.0
C735 C 0.9038 0.06072 0.39888 0.0
C736 C 0.88077 0.03906 0.39609 0.0
C737 C 0.88852 0.00814 0.39492 0.0
C738 C 0.91889 0.99913 0.39562 0.0
H739 H 1.00019 0.04756 0.35399 0.0
H740 H 0.96136 0.04287 0.36186 0.0
H741 H 0.9857 0.06984 0.37434 0.0
H742 H 0.9516 0.06869 0.40224 0.0
H743 H 0.89828 0.08467 0.39996 0.0
H744 H 0.57297 0.39296 0.13028 0.0
H745 H 0.55778 0.44656 0.12804 0.0
H746 H 0.46353 0.4201 0.12951 0.0
H747 H 0.47841 0.36671 0.13201 0.0
H748 H 0.51661 0.47476 0.0978 0.0
H749 H 0.47492 0.4832 0.17623 0.0
H750 H 0.50067 0.4537 0.1681 0.0
H751 H 0.46106 0.45148 0.16185 0.0
C752 C 0.54903 0.39861 0.13016 0.0
C753 C 0.5269 0.37561 0.13127 0.0
C754 C 0.5404 0.42916 0.1288 0.0
C755 C 0.50956 0.4372 0.12879 0.0
C756 C 0.48745 0.41432 0.12966 0.0
H757 H 0.41311 0.60987 0.13248 0.0
H758 H 0.42666 0.55581 0.13144 0.0
C759 C 0.49601 0.38382 0.1309 0.0
C760 C 0.50038 0.46952 0.12797 0.0
H761 H 0.46654 0.52564 0.15533 0.0
C762 C 0.50573 0.48598 0.11036 0.0
C763 C 0.48603 0.4839 0.14437 0.0
C764 C 0.48046 0.46734 0.1638 0.0
C765 C 0.49671 0.51649 0.1086 0.0
C766 C 0.48263 0.53104 0.12509 0.0
C767 C 0.47723 0.51446 0.14269 0.0
C768 C 0.47409 0.56367 0.12467 0.0
C769 C 0.50177 0.53261 0.08895 0.0
C770 C 0.49626 0.586 0.12134 0.0
C771 C 0.48856 0.61678 0.12183 0.0
C772 C 0.45857 0.62592 0.1259 0.0
C773 C 0.43639 0.60352 0.12931 0.0
C774 C 0.44409 0.57267 0.12869 0.0
H775 H 0.50389 0.51625 0.07633 0.0
H776 H 0.48292 0.54859 0.08559 0.0
H777 H 0.52321 0.54581 0.0898 0.0
H778 H 0.51972 0.57967 0.11883 0.0
H779 H 0.50634 0.63347 0.11965 0.0
H780 H 0.37864 0.45053 0.66027 0.0
H781 H 0.43253 0.46112 0.65601 0.0
H782 H 0.42262 0.45425 0.59195 0.0
H783 H 0.36847 0.44254 0.59602 0.0
H784 H 0.47918 0.42429 0.63317 0.0
H785 H 0.45914 0.5422 0.60561 0.0
H786 H 0.43092 0.52173 0.61985 0.0
H787 H 0.43807 0.51153 0.59429 0.0
C788 C 0.38788 0.45047 0.64525 0.0
C789 C 0.3691 0.44544 0.62848 0.0
C790 C 0.41871 0.4568 0.64287 0.0
C791 C 0.43141 0.45861 0.62369 0.0
C792 C 0.41307 0.45315 0.60687 0.0
H793 H 0.62722 0.48331 0.60406 0.0
H794 H 0.57445 0.46674 0.6 0.0
C795 C 0.38216 0.44657 0.60924 0.0
C796 C 0.4637 0.46718 0.62155 0.0
H797 H 0.50987 0.52729 0.61069 0.0
C798 C 0.48601 0.44662 0.62799 0.0
C799 C 0.47232 0.49646 0.61498 0.0
C800 C 0.44898 0.51946 0.60835 0.0
C801 C 0.51682 0.45482 0.62836 0.0
C802 C 0.52539 0.4843 0.62213 0.0
C803 C 0.50313 0.50466 0.61535 0.0
C804 C 0.55711 0.49504 0.62389 0.0
C805 C 0.53992 0.43242 0.63616 0.0
C806 C 0.56462 0.51674 0.63846 0.0
C807 C 0.59472 0.52604 0.64097 0.0
C808 C 0.61789 0.51398 0.62882 0.0
C809 C 0.61007 0.49269 0.6139 0.0
C810 C 0.57993 0.48329 0.61148 0.0
H811 H 0.52908 0.41205 0.6429 0.0
H812 H 0.55467 0.42483 0.62365 0.0
H813 H 0.55468 0.44337 0.64758 0.0
H814 H 0.54726 0.52598 0.64822 0.0
H815 H 0.5999 0.54209 0.65281 0.0
H816 H 0.03434 0.23809 0.07462 0.0
H817 H 0.0188 0.25668 0.04191 0.0
H818 H 0.00983 0.34735 0.06587 0.0
H819 H 0.02557 0.32852 0.09917 0.0
H820 H 0.96585 0.29055 0.02789 0.0
H821 H 0.07552 0.35316 0.02036 0.0
H822 H 0.07076 0.32452 0.03942 0.0
H823 H 0.0513 0.36017 0.0416 0.0
C824 C 0.02864 0.26194 0.07306 0.0
C825 C 0.03146 0.28195 0.08936 0.0
C826 C 0.0196 0.27251 0.05436 0.0
C827 C 0.01344 0.30342 0.05139 0.0
C828 C 0.0147 0.32341 0.06784 0.0
H829 H 0.0341 0.33608 0.92183 0.0
H830 H 0.01587 0.35187 0.95527 0.0
C831 C 0.02349 0.31266 0.08682 0.0
C832 C 0.00861 0.314 0.03053 0.0
H833 H 0.05038 0.3392 0.99083 0.0
C834 C 0.98378 0.30221 0.01983 0.0
C835 C 0.03188 0.3294 0.02002 0.0
C836 C 0.05898 0.3426 0.0308 0.0
C837 C 0.98317 0.30266 0.99881 0.0
C838 C 0.00819 0.31482 0.98826 0.0
C839 C 0.03128 0.32975 0.99895 0.0
C840 C 0.01431 0.30613 0.96716 0.0
C841 C 0.95681 0.28807 0.98804 0.0
C842 C 0.01927 0.27534 0.96279 0.0
C843 C 0.03002 0.26651 0.94406 0.0
C844 C 0.0358 0.28821 0.92918 0.0
C845 C 0.02946 0.31896 0.93306 0.0
C846 C 0.01915 0.32795 0.9521 0.0
H847 H 0.9356 0.2901 0.99694 0.0
H848 H 0.95314 0.29849 0.97309 0.0
H849 H 0.96158 0.2635 0.98594 0.0
H850 H 0.01637 0.25817 0.97424 0.0
H851 H 0.03479 0.24266 0.94142 0.0
H852 H 0.70773 0.09349 0.44147 0.0
H853 H 0.69292 0.07542 0.47452 0.0
H854 H 0.70555 0.9827 0.45515 0.0
H855 H 0.72057 1.00095 0.42166 0.0
H856 H 0.64826 0.03341 0.48971 0.0
H857 H 0.76769 0.99482 0.50156 0.0
H858 H 0.75768 0.01929 0.48091 0.0
H859 H 0.74669 0.98002 0.48055 0.0
C860 C 0.70664 0.06919 0.44407 0.0
C861 C 0.7154 0.04862 0.42906 0.0
C862 C 0.69813 0.05888 0.46297 0.0
C863 C 0.69851 0.02775 0.46742 0.0
C864 C 0.70538 0.00686 0.45208 0.0
H865 H 0.71817 0.9976 0.59738 0.0
H866 H 0.70581 0.98097 0.56304 0.0
C867 C 0.71366 0.01725 0.43294 0.0
C868 C 0.69479 0.0184 0.48866 0.0
H869 H 0.73762 1.00198 0.52995 0.0
C870 C 0.66752 0.02565 0.49847 0.0
C871 C 0.71984 0.00809 0.50011 0.0
C872 C 0.74974 1.00014 0.49039 0.0
C873 C 0.66542 0.02517 0.51947 0.0
C874 C 0.69141 0.0178 0.53097 0.0
C875 C 0.71774 0.00775 0.52113 0.0
C876 C 0.69373 0.02594 0.55256 0.0
C877 C 0.63582 0.0341 0.52916 0.0
C878 C 0.69069 0.05655 0.55814 0.0
C879 C 0.69793 0.066 0.5775 0.0
C880 C 0.70828 0.04508 0.59183 0.0
C881 C 0.70982 0.01411 0.58669 0.0
C882 C 0.70291 0.00465 0.56708 0.0
H883 H 0.61622 0.02765 0.51956 0.0
H884 H 0.63313 0.02328 0.54407 0.0
H885 H 0.63524 0.05915 0.53112 0.0
H886 H 0.6844 0.07355 0.54717 0.0
H887 H 0.69666 0.09002 0.58103 0.0
H888 H 0.97425 0.67328 0.91415 0.0
H889 H 0.98918 0.65466 0.94765 0.0
H890 H 0.99634 0.74729 0.96846 0.0
H891 H 0.9816 0.76561 0.93544 0.0
H892 H 0.04239 0.70737 0.98402 0.0
H893 H 0.92477 0.66199 0.9929 0.0
H894 H 0.94766 0.64892 0.9723 0.0
H895 H 0.93422 0.68741 0.97266 0.0
C896 C 0.97997 0.68948 0.92579 0.0
C897 C 0.97677 0.72081 0.92236 0.0
C898 C 0.98822 0.67889 0.94491 0.0
C899 C 0.99352 0.69962 0.96062 0.0
C900 C 0.99241 0.73087 0.95661 0.0
H901 H 0.98278 0.76516 0.07143 0.0
H902 H 0.99943 0.7473 0.03871 0.0
C903 C 0.98394 0.74134 0.93775 0.0
C904 C 0.99681 0.6899 0.98182 0.0
H905 H 0.95247 0.67181 0.02201 0.0
C906 C 0.0231 0.69862 0.99229 0.0
C907 C 0.97173 0.67828 0.99264 0.0
C908 C 0.94288 0.66862 0.98219 0.0
C909 C 0.0239 0.69867 0.01333 0.0
C910 C 0.99763 0.69023 0.02414 0.0
C911 C 0.97257 0.67841 0.0137 0.0
C912 C 0.99317 0.69955 0.04535 0.0
C913 C 0.05225 0.7096 0.02379 0.0
C914 C 0.98432 0.67864 0.06018 0.0
C915 C 0.97499 0.68894 0.07915 0.0
C916 C 0.97369 0.72025 0.08322 0.0
C917 C 0.98372 0.74089 0.06866 0.0
C918 C 0.99346 0.73066 0.04998 0.0
H919 H 0.07281 0.70402 0.01488 0.0
H920 H 0.05126 0.73469 0.0254 0.0
H921 H 0.05451 0.69939 0.03892 0.0
H922 H 0.98351 0.65456 0.05683 0.0
H923 H 0.96692 0.67267 0.09009 0.0
H924 H 0.29804 0.00363 0.40777 0.0
H925 H 0.31421 0.02224 0.44093 0.0
H926 H 0.30488 0.93152 0.46466 0.0
H927 H 0.28987 0.913 0.43199 0.0
H928 H 0.28103 0.02385 0.47314 0.0
H929 H 0.38002 0.95518 0.49306 0.0
H930 H 0.36699 0.95806 0.46746 0.0
H931 H 0.35174 0.9294 0.48401 0.0
C932 C 0.30042 0.98761 0.41997 0.0
C933 C 0.29255 0.95688 0.41729 0.0
C934 C 0.30958 0.99825 0.43892 0.0
C935 C 0.3114 0.97822 0.45533 0.0
C936 C 0.30474 0.94737 0.45226 0.0
H937 H 0.23099 0.96559 0.56038 0.0
H938 H 0.24991 0.9818 0.52816 0.0
C939 C 0.29567 0.93683 0.43352 0.0
C940 C 0.31557 0.98938 0.47624 0.0
H941 H 0.34305 0.96406 0.52103 0.0
C942 C 0.29542 0.01153 0.48353 0.0
C943 C 0.33505 0.97439 0.48996 0.0
C944 C 0.35989 0.95323 0.48309 0.0
C945 C 0.29134 0.01589 0.5042 0.0
C946 C 0.30705 0.99695 0.51788 0.0
C947 C 0.33022 0.97799 0.51063 0.0
C948 C 0.29549 0.99171 0.53854 0.0
C949 C 0.26879 0.03946 0.51111 0.0
C950 C 0.31481 0.99141 0.55539 0.0
C951 C 0.30391 0.98169 0.57413 0.0
C952 C 0.27376 0.97161 0.5761 0.0
C953 C 0.2544 0.97305 0.55939 0.0
C954 C 0.26513 0.98279 0.5409 0.0
H955 H 0.26965 0.05978 0.50126 0.0
H956 H 0.24548 0.02997 0.51006 0.0
H957 H 0.27314 0.04668 0.5268 0.0
H958 H 0.33845 0.99781 0.55389 0.0
H959 H 0.31936 0.98064 0.58675 0.0
H960 H 0.52562 0.2643 0.07763 0.0
H961 H 0.50924 0.24745 0.04465 0.0
H962 H 0.51887 0.15392 0.06301 0.0
H963 H 0.53536 0.17109 0.09655 0.0
H964 H 0.55139 0.16805 0.02877 0.0
H965 H 0.43456 0.20989 0.01937 0.0
H966 H 0.4577 0.2392 0.03009 0.0
H967 H 0.45151 0.20443 0.04378 0.0
C968 C 0.52337 0.24012 0.07484 0.0
C969 C 0.53163 0.21896 0.08957 0.0
C970 C 0.51375 0.23047 0.05601 0.0
C971 C 0.5123 0.19939 0.05137 0.0
C972 C 0.5194 0.17802 0.06635 0.0
H973 H 0.52875 0.17551 0.91946 0.0
H974 H 0.51208 0.15726 0.95269 0.0
C975 C 0.52868 0.18778 0.08547 0.0
C976 C 0.50793 0.19039 0.03009 0.0
H977 H 0.46699 0.21232 0.98914 0.0
C978 C 0.53233 0.1765 0.02011 0.0
C979 C 0.48299 0.20119 0.01876 0.0
C980 C 0.45509 0.2142 0.02864 0.0
C981 C 0.53414 0.17662 0.99908 0.0
C982 C 0.51088 0.19083 0.98786 0.0
C983 C 0.48492 0.2016 0.99777 0.0
C984 C 0.51652 0.20118 0.96707 0.0
C985 C 0.56234 0.16446 0.98907 0.0
C986 C 0.52366 0.23188 0.96412 0.0
C987 C 0.53334 0.2421 0.94547 0.0
C988 C 0.53577 0.22195 0.92923 0.0
C989 C 0.52692 0.19148 0.93176 0.0
C990 C 0.51756 0.18106 0.95069 0.0
H991 H 0.5782 0.15372 0.99991 0.0
H992 H 0.55596 0.14734 0.97759 0.0
H993 H 0.57441 0.18323 0.98132 0.0
H994 H 0.52305 0.24776 0.97653 0.0
H995 H 0.53978 0.26576 0.9439 0.0
H996 H 0.77383 0.47238 0.58693 0.0
H997 H 0.79559 0.4688 0.55336 0.0
H998 H 0.82474 0.56222 0.55735 0.0
H999 H 0.80372 0.56546 0.59131 0.0
H1000 H 0.76731 0.50696 0.52685 0.0
H1001 H 0.89213 0.52391 0.52262 0.0
H1002 H 0.87331 0.51114 0.54515 0.0
H1003 H 0.87207 0.55054 0.53819 0.0
C1004 C 0.7864 0.49158 0.58105 0.0
C1005 C 0.78742 0.51907 0.59168 0.0
C1006 C 0.79871 0.48959 0.56184 0.0
C1007 C 0.8118 0.51523 0.55278 0.0
C1008 C 0.81533 0.54196 0.56413 0.0
H1009 H 0.8106 0.57328 0.42983 0.0
H1010 H 0.82634 0.56782 0.46493 0.0
C1011 C 0.80335 0.5438 0.58356 0.0
C1012 C 0.81506 0.51586 0.53063 0.0
H1013 H 0.86445 0.52776 0.49186 0.0
C1014 C 0.78867 0.51111 0.51925 0.0
C1015 C 0.84278 0.52197 0.52071 0.0
C1016 C 0.87179 0.52698 0.53225 0.0
C1017 C 0.78907 0.51243 0.49832 0.0
C1018 C 0.81682 0.51798 0.4883 0.0
C1019 C 0.84331 0.52308 0.49959 0.0
C1020 C 0.81767 0.51945 0.4661 0.0
C1021 C 0.75945 0.50861 0.48711 0.0
C1022 C 0.80956 0.49375 0.45481 0.0
C1023 C 0.80025 0.49692 0.43491 0.0
C1024 C 0.79977 0.52568 0.42588 0.0
C1025 C 0.81143 0.55077 0.43639 0.0
C1026 C 0.82029 0.54769 0.45646 0.0
H1027 H 0.73946 0.51144 0.49708 0.0
H1028 H 0.75764 0.52529 0.4747 0.0
H1029 H 0.75846 0.48543 0.48056 0.0
H1030 H 0.80752 0.47174 0.46195 0.0
H1031 H 0.79088 0.47738 0.42716 0.0
H1032 H 0.39825 0.78893 0.07172 0.0
H1033 H 0.40937 0.80129 0.03688 0.0
H1034 H 0.50533 0.79803 0.04952 0.0
H1035 H 0.49427 0.78583 0.08486 0.0
H1036 H 0.46152 0.85167 0.01885 0.0
H1037 H 0.46997 0.72691 1.00502 0.0
H1038 H 0.44474 0.74098 0.02419 0.0
H1039 H 0.485 0.74391 0.02758 0.0
C1040 C 0.42176 0.79149 0.06722 0.0
C1041 C 0.44543 0.78629 0.08095 0.0
C1042 C 0.42803 0.79865 0.04733 0.0
C1043 C 0.4581 0.8005 0.04066 0.0
C1044 C 0.48195 0.79685 0.05448 0.0
H1045 H 0.49416 0.77654 0.91309 0.0
H1046 H 0.50163 0.78078 0.94921 0.0
C1047 C 0.47564 0.78998 0.07461 0.0
C1048 C 0.46379 0.80283 0.01886 0.0
H1049 H 0.4665 0.75865 0.97689 0.0
C1050 C 0.46321 0.83144 0.00962 0.0
C1051 C 0.46591 0.77639 0.00694 0.0
C1052 C 0.46652 0.74519 0.01629 0.0
C1053 C 0.46397 0.83421 0.98861 0.0
C1054 C 0.46437 0.80761 0.97659 0.0
C1055 C 0.4661 0.77908 0.98599 0.0
C1056 C 0.4617 0.80842 0.95433 0.0
C1057 C 0.46429 0.86561 0.97957 0.0
C1058 C 0.43693 0.82283 0.94499 0.0
C1059 C 0.43278 0.82074 0.92421 0.0
C1060 C 0.45298 0.80366 0.91241 0.0
C1061 C 0.47807 0.78977 0.92174 0.0
C1062 C 0.4824 0.79219 0.94242 0.0
H1063 H 0.47451 0.88242 0.99003 0.0
H1064 H 0.47716 0.86605 0.96529 0.0
H1065 H 0.44059 0.87288 0.97654 0.0
H1066 H 0.42011 0.83475 0.95383 0.0
H1067 H 0.41308 0.83145 0.91753 0.0
H1068 H 0.21286 0.50062 0.59697 0.0
H1069 H 0.20186 0.51845 0.56282 0.0
H1070 H 0.18126 0.42655 0.54479 0.0
H1071 H 0.19236 0.40873 0.57858 0.0
H1072 H 0.23732 0.4948 0.53082 0.0
H1073 H 0.11492 0.47661 0.51606 0.0
H1074 H 0.1303 0.48038 0.54107 0.0
H1075 H 0.13313 0.44481 0.5279 0.0
C1076 C 0.20502 0.48445 0.58586 0.0
C1077 C 0.20357 0.45329 0.59036 0.0
C1078 C 0.1988 0.49462 0.56637 0.0
C1079 C 0.19038 0.47387 0.55131 0.0
C1080 C 0.18709 0.44307 0.55622 0.0
H1081 H 0.1993 0.43976 0.42715 0.0
H1082 H 0.1826 0.44405 0.46207 0.0
C1083 C 0.1937 0.43287 0.57551 0.0
C1084 C 0.18998 0.48298 0.52992 0.0
H1085 H 0.14753 0.47866 0.48712 0.0
C1086 C 0.21753 0.49204 0.5213 0.0
C1087 C 0.16423 0.47884 0.51753 0.0
C1088 C 0.13388 0.46988 0.52612 0.0
C1089 C 0.22061 0.49524 0.50049 0.0
C1090 C 0.19503 0.49036 0.48794 0.0
C1091 C 0.16707 0.48255 0.49668 0.0
C1092 C 0.19789 0.49054 0.46573 0.0
C1093 C 0.25185 0.50173 0.49216 0.0
C1094 C 0.21008 0.51585 0.45577 0.0
C1095 C 0.2201 0.51319 0.43599 0.0
C1096 C 0.21696 0.48559 0.42563 0.0
C1097 C 0.2015 0.46142 0.43477 0.0
C1098 C 0.19213 0.46383 0.45475 0.0
H1099 H 0.27003 0.49745 0.50336 0.0
H1100 H 0.25649 0.48752 0.47875 0.0
H1101 H 0.25324 0.52599 0.48773 0.0
H1102 H 0.21392 0.53696 0.46374 0.0
H1103 H 0.23215 0.53204 0.42923 0.0
H1104 H 0.03225 0.34058 0.19389 0.0
H1105 H 0.04013 0.37484 0.2227 0.0
H1106 H 0.13641 0.35714 0.22025 0.0
H1107 H 0.12852 0.3227 0.19201 0.0
H1108 H 0.06793 0.35059 0.25902 0.0
H1109 H 0.13076 0.45041 0.23041 0.0
H1110 H 0.10675 0.42711 0.21463 0.0
H1111 H 0.14473 0.41503 0.22061 0.0
C1112 C 0.05515 0.34505 0.19908 0.0
C1113 C 0.07987 0.32938 0.19069 0.0
C1114 C 0.05961 0.36439 0.21558 0.0
C1115 C 0.0889 0.36876 0.22348 0.0
C1116 C 0.11371 0.35457 0.2142 0.0
H1117 H 0.19045 0.37299 0.32472 0.0
H1118 H 0.15295 0.36268 0.29859 0.0
C1119 C 0.10921 0.33489 0.19807 0.0
C1120 C 0.09374 0.38428 0.24297 0.0
H1121 H 0.13991 0.43687 0.26508 0.0
C1122 C 0.0829 0.37007 0.26038 0.0
C1123 C 0.11309 0.40978 0.24477 0.0
C1124 C 0.12429 0.42668 0.22659 0.0
C1125 C 0.09318 0.37897 0.27944 0.0
C1126 C 0.11482 0.40258 0.28108 0.0
C1127 C 0.12342 0.41863 0.26382 0.0
C1128 C 0.13263 0.40745 0.29969 0.0
C1129 C 0.08211 0.36194 0.2976 0.0
C1130 C 0.13322 0.43586 0.30937 0.0
C1131 C 0.15438 0.44158 0.32467 0.0
C1132 C 0.17557 0.41916 0.33006 0.0
C1133 C 0.17398 0.39042 0.32101 0.0
C1134 C 0.15257 0.38454 0.30608 0.0
H1135 H 0.0594 0.35169 0.2949 0.0
H1136 H 0.09822 0.34325 0.30103 0.0
H1137 H 0.08082 0.37711 0.31088 0.0
H1138 H 0.11828 0.45395 0.30447 0.0
H1139 H 0.15573 0.46414 0.33114 0.0
H1140 H 0.71432 0.05329 0.72577 0.0
H1141 H 0.67662 0.06472 0.75104 0.0
H1142 H 0.60718 0.06942 0.70548 0.0
H1143 H 0.64561 0.05866 0.67967 0.0
H1144 H 0.60622 0.11849 0.72727 0.0
H1145 H 0.61021 0.02396 0.7806 0.0
H1146 H 0.64845 0.0358 0.77602 0.0
H1147 H 0.62591 0.02063 0.7557 0.0
C1148 C 0.69093 0.05609 0.72107 0.0
C1149 C 0.68301 0.0553 0.70068 0.0
C1150 C 0.66919 0.06221 0.73566 0.0
C1151 C 0.63879 0.06737 0.73034 0.0
C1152 C 0.63042 0.06516 0.71001 0.0
H1153 H 0.54291 0.14962 0.83486 0.0
H1154 H 0.5501 0.11195 0.80775 0.0
C1155 C 0.65235 0.05898 0.69528 0.0
C1156 C 0.61767 0.0799 0.74569 0.0
H1157 H 0.6028 0.07527 0.79584 0.0
C1158 C 0.60456 0.10847 0.74206 0.0
C1159 C 0.61471 0.0668 0.76498 0.0
C1160 C 0.62532 0.03492 0.76942 0.0
C1161 C 0.59187 0.12562 0.75767 0.0
C1162 C 0.59288 0.11423 0.77747 0.0
C1163 C 0.6027 0.08432 0.78074 0.0
C1164 C 0.58894 0.13487 0.79487 0.0
C1165 C 0.57926 0.15671 0.75303 0.0
C1166 C 0.60913 0.15925 0.79707 0.0
C1167 C 0.60516 0.18043 0.81232 0.0
C1168 C 0.58103 0.17766 0.82595 0.0
C1169 C 0.5617 0.15227 0.82456 0.0
C1170 C 0.56567 0.13091 0.80906 0.0
H1171 H 0.57045 0.15779 0.73745 0.0
H1172 H 0.56072 0.16294 0.76353 0.0
H1173 H 0.59767 0.17383 0.75446 0.0
H1174 H 0.62773 0.16229 0.78664 0.0
H1175 H 0.62075 0.19945 0.81314 0.0
H1176 H 0.80854 0.63271 0.31877 0.0
H1177 H 0.84309 0.64249 0.29092 0.0
H1178 H 0.89011 0.55856 0.30319 0.0
H1179 H 0.85549 0.54885 0.33154 0.0
H1180 H 0.91212 0.64223 0.28724 0.0
H1181 H 0.84962 0.55274 0.24461 0.0
H1182 H 0.83312 0.5703 0.26649 0.0
H1183 H 0.86433 0.54447 0.26922 0.0
C1184 C 0.82687 0.61683 0.31594 0.0
C1185 C 0.82953 0.59014 0.32729 0.0
C1186 C 0.84655 0.6224 0.30002 0.0
C1187 C 0.86896 0.60114 0.2949 0.0
C1188 C 0.8729 0.57522 0.30693 0.0
H1189 H 0.96338 0.66055 0.18415 0.0
H1190 H 0.95714 0.62844 0.21411 0.0
C1191 C 0.85336 0.56983 0.32317 0.0
C1192 C 0.88543 0.60519 0.27572 0.0
H1193 H 0.8789 0.58725 0.22609 0.0
C1194 C 0.90576 0.62958 0.27392 0.0
C1195 C 0.87675 0.58881 0.25838 0.0
C1196 C 0.85472 0.5626 0.25956 0.0
C1197 C 0.91612 0.63926 0.25506 0.0
C1198 C 0.90576 0.62417 0.23761 0.0
C1199 C 0.88699 0.59857 0.23952 0.0
C1200 C 0.90926 0.63826 0.21756 0.0
C1201 C 0.93607 0.66708 0.25377 0.0
C1202 C 0.8842 0.65324 0.20917 0.0
C1203 C 0.88775 0.67153 0.19229 0.0
C1204 C 0.91632 0.67481 0.18325 0.0
C1205 C 0.94101 0.65796 0.19067 0.0
C1206 C 0.93753 0.63989 0.20785 0.0
H1207 H 0.94115 0.67691 0.26874 0.0
H1208 H 0.95784 0.66105 0.24641 0.0
H1209 H 0.92484 0.68473 0.24447 0.0
H1210 H 0.86222 0.65233 0.21644 0.0
H1211 H 0.86843 0.68446 0.18693 0.0
H1212 H 0.40027 0.76849 0.79182 0.0
H1213 H 0.38776 0.80257 0.76439 0.0
H1214 H 0.4238 0.87844 0.79774 0.0
H1215 H 0.43658 0.84404 0.82567 0.0
H1216 H 0.36569 0.88878 0.77673 0.0
H1217 H 0.4535 0.83984 0.72709 0.0
H1218 H 0.43056 0.8112 0.73878 0.0
H1219 H 0.45429 0.83529 0.75399 0.0
C1220 C 0.40544 0.79244 0.79348 0.0
C1221 C 0.41972 0.8035 0.81086 0.0
C1222 C 0.3984 0.81188 0.7777 0.0
C1223 C 0.40559 0.84286 0.77881 0.0
C1224 C 0.41845 0.85448 0.79652 0.0
H1225 H 0.33876 0.95755 0.67826 0.0
H1226 H 0.37296 0.94516 0.70642 0.0
C1227 C 0.42556 0.83487 0.81247 0.0
C1228 C 0.39939 0.86241 0.76117 0.0
H1229 H 0.41086 0.86406 0.7106 0.0
C1230 C 0.37618 0.88418 0.76235 0.0
C1231 C 0.41328 0.85648 0.74246 0.0
C1232 C 0.43952 0.83464 0.7405 0.0
C1233 C 0.36465 0.89811 0.74497 0.0
C1234 C 0.3768 0.8901 0.72606 0.0
C1235 C 0.40157 0.87014 0.7251 0.0
C1236 C 0.36053 0.89757 0.70725 0.0
C1237 C 0.33795 0.91944 0.7467 0.0
C1238 C 0.34333 0.87471 0.69798 0.0
C1239 C 0.32394 0.88173 0.68214 0.0
C1240 C 0.32174 0.91163 0.67501 0.0
C1241 C 0.34054 0.93422 0.68329 0.0
C1242 C 0.35976 0.92724 0.69946 0.0
H1243 H 0.33059 0.92267 0.76247 0.0
H1244 H 0.34409 0.94193 0.74038 0.0
H1245 H 0.31849 0.91048 0.73789 0.0
H1246 H 0.34361 0.8517 0.70377 0.0
H1247 H 0.30946 0.86401 0.6761 0.0
H1248 H 0.91863 0.73304 0.79409 0.0
H1249 H 0.90347 0.69796 0.76801 0.0
H1250 H 0.93899 0.62294 0.80237 0.0
H1251 H 0.9537 0.65844 0.82929 0.0
H1252 H 0.93422 0.65876 0.74435 0.0
H1253 H 0.85217 0.59618 0.79263 0.0
H1254 H 0.86986 0.63105 0.80075 0.0
H1255 H 0.89129 0.59631 0.80034 0.0
C1256 C 0.92341 0.70912 0.79625 0.0
C1257 C 0.93715 0.69856 0.81396 0.0
C1258 C 0.91482 0.68902 0.78116 0.0
C1259 C 0.91978 0.65772 0.78321 0.0
C1260 C 0.93445 0.64696 0.80057 0.0
H1261 H 0.84493 0.56104 0.67611 0.0
H1262 H 0.88369 0.57515 0.70115 0.0
C1263 C 0.94297 0.66725 0.8159 0.0
C1264 C 0.90773 0.63712 0.76736 0.0
H1265 H 0.8495 0.58772 0.75819 0.0
C1266 C 0.91613 0.64268 0.74736 0.0
C1267 C 0.88412 0.61614 0.77131 0.0
C1268 C 0.87358 0.60956 0.79237 0.0
C1269 C 0.89999 0.62983 0.73124 0.0
C1270 C 0.8752 0.61033 0.73523 0.0
C1271 C 0.86847 0.60277 0.75519 0.0
C1272 C 0.8529 0.60167 0.71946 0.0
C1273 C 0.90805 0.63908 0.71016 0.0
C1274 C 0.82288 0.61186 0.72138 0.0
C1275 C 0.80094 0.60375 0.70732 0.0
C1276 C 0.80837 0.58525 0.69086 0.0
C1277 C 0.83861 0.57552 0.68856 0.0
C1278 C 0.86073 0.58355 0.70285 0.0
H1279 H 0.92524 0.65757 0.70981 0.0
H1280 H 0.91744 0.61919 0.70202 0.0
H1281 H 0.88748 0.64684 0.70199 0.0
H1282 H 0.81632 0.62609 0.73391 0.0
H1283 H 0.77794 0.61184 0.70952 0.0
H1284 H 0.28654 0.94759 0.28301 0.0
H1285 H 0.32516 0.93363 0.25854 0.0
H1286 H 0.39078 0.92282 0.306 0.0
H1287 H 0.35186 0.93668 0.3308 0.0
H1288 H 0.38611 0.95448 0.24879 0.0
H1289 H 0.38151 0.83715 0.28006 0.0
H1290 H 0.35334 0.86549 0.28609 0.0
H1291 H 0.39043 0.86742 0.29721 0.0
C1292 C 0.30932 0.94275 0.28827 0.0
C1293 C 0.31608 0.94283 0.30886 0.0
C1294 C 0.33142 0.93495 0.27423 0.0
C1295 C 0.3607 0.92684 0.28046 0.0
C1296 C 0.36818 0.92877 0.30091 0.0
H1297 H 0.4778 0.81056 0.20957 0.0
H1298 H 0.46311 0.84764 0.23506 0.0
C1299 C 0.34601 0.93679 0.31504 0.0
C1300 C 0.38177 0.91307 0.2657 0.0
H1301 H 0.40973 0.84435 0.25096 0.0
C1302 C 0.39178 0.9305 0.24937 0.0
C1303 C 0.38891 0.88176 0.26645 0.0
C1304 C 0.37791 0.86168 0.28328 0.0
C1305 C 0.40839 0.9173 0.2336 0.0
C1306 C 0.41448 0.8857 0.23397 0.0
C1307 C 0.40525 0.86859 0.25065 0.0
C1308 C 0.42848 0.86907 0.21687 0.0
C1309 C 0.41911 0.93733 0.21672 0.0
C1310 C 0.41503 0.86968 0.19772 0.0
C1311 C 0.42402 0.84891 0.18292 0.0
C1312 C 0.44606 0.82682 0.18725 0.0
C1313 C 0.46084 0.82751 0.20588 0.0
C1314 C 0.45235 0.84861 0.22047 0.0
H1315 H 0.42248 0.96112 0.22188 0.0
H1316 H 0.44072 0.92889 0.2102 0.0
H1317 H 0.40158 0.93765 0.20476 0.0
H1318 H 0.39607 0.88464 0.19466 0.0
H1319 H 0.4119 0.84839 0.16879 0.0
H1320 H 0.06509 0.30163 0.79727 0.0
H1321 H 0.077 0.34168 0.7734 0.0
H1322 H 0.08772 0.40561 0.82191 0.0
H1323 H 0.07561 0.36518 0.84618 0.0
H1324 H 0.05298 0.40373 0.76605 0.0
H1325 H 0.1727 0.39854 0.79332 0.0
H1326 H 0.14563 0.36903 0.79906 0.0
H1327 H 0.14302 0.40525 0.81131 0.0
C1328 C 0.06952 0.32431 0.80291 0.0
C1329 C 0.06984 0.33023 0.8236 0.0
C1330 C 0.0761 0.34722 0.78921 0.0
C1331 C 0.08344 0.3765 0.79589 0.0
C1332 C 0.08219 0.38306 0.8165 0.0
H1333 H 0.1966 0.48737 0.71886 0.0
H1334 H 0.16167 0.47662 0.74637 0.0
C1335 C 0.07524 0.36004 0.83031 0.0
C1336 C 0.09583 0.39848 0.78123 0.0
H1337 H 0.16352 0.4248 0.7637 0.0
C1338 C 0.07704 0.409 0.7657 0.0
C1339 C 0.1272 0.40519 0.78081 0.0
C1340 C 0.1485 0.3939 0.79691 0.0
C1341 C 0.08904 0.42523 0.74938 0.0
C1342 C 0.12076 0.43029 0.74834 0.0
C1343 C 0.1392 0.42104 0.76443 0.0
C1344 C 0.13609 0.44248 0.73017 0.0
C1345 C 0.06763 0.4364 0.73336 0.0
C1346 C 0.13243 0.42805 0.71148 0.0
C1347 C 0.15195 0.43481 0.69553 0.0
C1348 C 0.17585 0.45551 0.69824 0.0
C1349 C 0.17823 0.47137 0.71643 0.0
C1350 C 0.15835 0.46515 0.73217 0.0
H1351 H 0.04485 0.4414 0.73971 0.0
H1352 H 0.0764 0.4572 0.72594 0.0
H1353 H 0.06473 0.41837 0.72188 0.0
H1354 H 0.11605 0.40991 0.70962 0.0
H1355 H 0.15004 0.42189 0.68176 0.0
H1356 H 0.72567 0.1042 0.30214 0.0
H1357 H 0.68863 0.11196 0.2758 0.0
H1358 H 0.62294 0.059 0.30859 0.0
H1359 H 0.6603 0.05156 0.33568 0.0
H1360 H 0.65869 0.07079 0.25169 0.0
H1361 H 0.57718 0.13808 0.29777 0.0
H1362 H 0.615 0.12973 0.30659 0.0
H1363 H 0.58676 0.10032 0.30591 0.0
C1364 C 0.7034 0.09409 0.30389 0.0
C1365 C 0.69594 0.07733 0.32111 0.0
C1366 C 0.68222 0.09845 0.28869 0.0
C1367 C 0.65295 0.08615 0.29016 0.0
C1368 C 0.6453 0.06902 0.30722 0.0
H1369 H 0.55872 0.1468 0.17881 0.0
H1370 H 0.57073 0.10893 0.2049 0.0
C1371 C 0.66664 0.06475 0.32266 0.0
C1372 C 0.63091 0.09286 0.27387 0.0
H1373 H 0.57206 0.14058 0.26303 0.0
C1374 C 0.63916 0.08536 0.25413 0.0
C1375 C 0.60535 0.1117 0.27712 0.0
C1376 C 0.59544 0.12065 0.29794 0.0
C1377 C 0.62461 0.09872 0.23759 0.0
C1378 C 0.60077 0.11964 0.24091 0.0
C1379 C 0.59042 0.12457 0.26056 0.0
C1380 C 0.59124 0.14151 0.22517 0.0
C1381 C 0.63675 0.0926 0.21684 0.0
C1382 C 0.59836 0.17224 0.228 0.0
C1383 C 0.59155 0.19361 0.21336 0.0
C1384 C 0.57737 0.18493 0.19535 0.0
C1385 C 0.5698 0.15414 0.19248 0.0
C1386 C 0.57668 0.13253 0.20733 0.0
H1387 H 0.65703 0.07757 0.21704 0.0
H1388 H 0.61888 0.0815 0.20766 0.0
H1389 H 0.64296 0.1143 0.20942 0.0
H1390 H 0.60978 0.17972 0.24153 0.0
H1391 H 0.59771 0.21706 0.21621 0.0
H1392 H 0.43495 0.20795 0.13842 0.0
H1393 H 0.38042 0.20639 0.13105 0.0
H1394 H 0.36459 0.27552 0.17564 0.0
H1395 H 0.41875 0.27813 0.18255 0.0
H1396 H 0.33024 0.19398 0.15582 0.0
H1397 H 0.32493 0.31112 0.12566 0.0
H1398 H 0.36036 0.29137 0.12959 0.0
H1399 H 0.34132 0.30945 0.15025 0.0
C1400 C 0.41994 0.22303 0.14654 0.0
C1401 C 0.43147 0.24328 0.16103 0.0
C1402 C 0.38873 0.22192 0.1424 0.0
C1403 C 0.36852 0.24116 0.15259 0.0
C1404 C 0.37983 0.26084 0.16735 0.0
H1405 H 0.17306 0.23698 0.16627 0.0
H1406 H 0.22781 0.22799 0.16939 0.0
C1407 C 0.4109 0.26203 0.17145 0.0
C1408 C 0.33558 0.24107 0.14779 0.0
H1409 H 0.2776 0.28769 0.13346 0.0
C1410 C 0.31871 0.21436 0.15075 0.0
C1411 C 0.32067 0.26754 0.14088 0.0
C1412 C 0.33778 0.29641 0.13621 0.0
C1413 C 0.2871 0.21372 0.1476 0.0
C1414 C 0.27197 0.24067 0.14169 0.0
C1415 C 0.28908 0.26708 0.13816 0.0
C1416 C 0.23844 0.24243 0.13919 0.0
C1417 C 0.27032 0.18416 0.15046 0.0
C1418 C 0.22611 0.25358 0.12125 0.0
C1419 C 0.19497 0.25909 0.11958 0.0
C1420 C 0.17543 0.25347 0.13577 0.0
C1421 C 0.18753 0.24111 0.15347 0.0
C1422 C 0.21882 0.23589 0.15522 0.0
H1423 H 0.28573 0.16431 0.14879 0.0
H1424 H 0.2607 0.1835 0.16581 0.0
H1425 H 0.25138 0.18184 0.13957 0.0
H1426 H 0.24073 0.25881 0.10867 0.0
H1427 H 0.18619 0.26837 0.10572 0.0
H1428 H 0.70176 0.19244 0.62673 0.0
H1429 H 0.71376 0.2464 0.62983 0.0
H1430 H 0.78661 0.22514 0.67067 0.0
H1431 H 0.77452 0.17095 0.66781 0.0
H1432 H 0.71184 0.27927 0.66566 0.0
H1433 H 0.82627 0.28504 0.63081 0.0
H1434 H 0.80081 0.25334 0.62698 0.0
H1435 H 0.8218 0.25668 0.64996 0.0
C1436 C 0.72036 0.19915 0.63637 0.0
C1437 C 0.73701 0.17727 0.64713 0.0
C1438 C 0.72732 0.23003 0.63802 0.0
C1439 C 0.75123 0.23981 0.65035 0.0
C1440 C 0.76842 0.21807 0.66078 0.0
H1441 H 0.76688 0.42273 0.69877 0.0
H1442 H 0.76718 0.36752 0.69425 0.0
C1443 C 0.76145 0.18707 0.65914 0.0
C1444 C 0.75653 0.27286 0.65331 0.0
H1445 H 0.80825 0.32996 0.64661 0.0
C1446 C 0.73293 0.29033 0.6615 0.0
C1447 C 0.78398 0.28728 0.64773 0.0
C1448 C 0.80964 0.26975 0.63822 0.0
C1449 C 0.73605 0.32177 0.66438 0.0
C1450 C 0.76367 0.33614 0.65915 0.0
C1451 C 0.78723 0.31879 0.65078 0.0
C1452 C 0.76784 0.36935 0.66189 0.0
C1453 C 0.70953 0.33952 0.67266 0.0
C1454 C 0.76938 0.38865 0.64521 0.0
C1455 C 0.76912 0.42026 0.64774 0.0
C1456 C 0.76738 0.43311 0.66704 0.0
C1457 C 0.76769 0.41359 0.68372 0.0
C1458 C 0.76793 0.38205 0.68117 0.0
H1459 H 0.68804 0.32631 0.67203 0.0
H1460 H 0.71411 0.34536 0.68856 0.0
H1461 H 0.70634 0.36107 0.66428 0.0
H1462 H 0.76934 0.37927 0.6302 0.0
H1463 H 0.76864 0.43452 0.63455 0.0
H1464 H 0.58454 0.71372 0.15792 0.0
H1465 H 0.63796 0.72039 0.15082 0.0
H1466 H 0.61806 0.80193 0.1175 0.0
H1467 H 0.564 0.79638 0.12563 0.0
H1468 H 0.66653 0.72015 0.11618 0.0
H1469 H 0.68571 0.83131 0.1538 0.0
H1470 H 0.65135 0.80958 0.15721 0.0
H1471 H 0.65689 0.8313 0.13473 0.0
C1472 C 0.59127 0.73349 0.14941 0.0
C1473 C 0.56971 0.75481 0.14269 0.0
C1474 C 0.62201 0.73709 0.14517 0.0
C1475 C 0.63222 0.7619 0.13389 0.0
C1476 C 0.61084 0.78295 0.12664 0.0
H1477 H 0.81996 0.74622 0.09143 0.0
H1478 H 0.76514 0.75588 0.09188 0.0
C1479 C 0.57985 0.77952 0.13108 0.0
C1480 C 0.66524 0.76466 0.12956 0.0
H1481 H 0.72799 0.80872 0.13797 0.0
C1482 C 0.67993 0.73963 0.12081 0.0
C1483 C 0.68276 0.78996 0.1358 0.0
C1484 C 0.66852 0.81699 0.14607 0.0
C1485 C 0.7116 0.73865 0.11874 0.0
C1486 C 0.72918 0.76401 0.12485 0.0
C1487 C 0.71448 0.78943 0.13314 0.0
C1488 C 0.76293 0.76353 0.12388 0.0
C1489 C 0.72592 0.70973 0.11099 0.0
C1490 C 0.78028 0.76677 0.14146 0.0
C1491 C 0.81173 0.76201 0.14109 0.0
C1492 C 0.82622 0.75365 0.12319 0.0
C1493 C 0.80914 0.75225 0.10544 0.0
C1494 C 0.77786 0.75758 0.10572 0.0
H1495 H 0.71021 0.69003 0.11218 0.0
H1496 H 0.73175 0.71262 0.09495 0.0
H1497 H 0.74703 0.70423 0.11935 0.0
H1498 H 0.7693 0.77152 0.15563 0.0
H1499 H 0.82443 0.76308 0.15497 0.0
H1500 H 0.28955 0.58495 0.66366 0.0
H1501 H 0.28203 0.63826 0.65648 0.0
H1502 H 0.19764 0.61761 0.62661 0.0
H1503 H 0.20401 0.56388 0.63476 0.0
H1504 H 0.27926 0.66566 0.62151 0.0
H1505 H 0.1717 0.68667 0.6626 0.0
H1506 H 0.19358 0.65232 0.66574 0.0
H1507 H 0.16948 0.65694 0.64421 0.0
C1508 C 0.269 0.59142 0.65592 0.0
C1509 C 0.24724 0.56964 0.65008 0.0
C1510 C 0.26488 0.62215 0.65166 0.0
C1511 C 0.23907 0.63212 0.64126 0.0
C1512 C 0.21742 0.6106 0.63507 0.0
H1513 H 0.24624 0.8147 0.58974 0.0
H1514 H 0.23866 0.75984 0.59371 0.0
C1515 C 0.22135 0.5797 0.63954 0.0
C1516 C 0.23591 0.66494 0.63639 0.0
H1517 H 0.19131 0.72762 0.64359 0.0
C1518 C 0.25995 0.67917 0.62628 0.0
C1519 C 0.21087 0.68263 0.64282 0.0
C1520 C 0.18505 0.66899 0.65461 0.0
C1521 C 0.26003 0.71058 0.62277 0.0
C1522 C 0.23476 0.72825 0.62885 0.0
C1523 C 0.21048 0.71401 0.63874 0.0
C1524 C 0.2341 0.76173 0.62597 0.0
C1525 C 0.28786 0.72463 0.61334 0.0
C1526 C 0.23193 0.78125 0.6426 0.0
C1527 C 0.23553 0.81267 0.64025 0.0
C1528 C 0.2416 0.82496 0.62127 0.0
C1529 C 0.24193 0.80562 0.60453 0.0
C1530 C 0.2378 0.77433 0.60682 0.0
H1531 H 0.30804 0.70961 0.61469 0.0
H1532 H 0.28356 0.72839 0.59715 0.0
H1533 H 0.29337 0.74686 0.62036 0.0
H1534 H 0.22893 0.77206 0.65751 0.0
H1535 H 0.23539 0.82713 0.65339 0.0
H1536 H 0.93798 0.2983 0.88039 0.0
H1537 H 0.88366 0.29909 0.88816 0.0
H1538 H 0.8683 0.22755 0.84515 0.0
H1539 H 0.92228 0.22553 0.83796 0.0
H1540 H 0.83319 0.30971 0.86435 0.0
H1541 H 0.82977 0.19315 0.89533 0.0
H1542 H 0.86494 0.21299 0.89071 0.0
H1543 H 0.84539 0.19405 0.87054 0.0
C1544 C 0.92316 0.28248 0.87273 0.0
C1545 C 0.93481 0.26169 0.85862 0.0
C1546 C 0.89205 0.28315 0.87709 0.0
C1547 C 0.87203 0.26301 0.86749 0.0
C1548 C 0.88342 0.24287 0.85305 0.0
H1549 H 0.67733 0.26541 0.85278 0.0
H1550 H 0.732 0.2751 0.85042 0.0
C1551 C 0.91441 0.24204 0.84877 0.0
C1552 C 0.8392 0.26273 0.87248 0.0
H1553 H 0.78194 0.21534 0.88681 0.0
C1554 C 0.82197 0.2892 0.86948 0.0
C1555 C 0.8247 0.23612 0.87953 0.0
C1556 C 0.84221 0.20757 0.88443 0.0
C1557 C 0.79039 0.28942 0.87261 0.0
C1558 C 0.77563 0.26224 0.87846 0.0
C1559 C 0.79312 0.23612 0.88213 0.0
C1560 C 0.7421 0.25985 0.88055 0.0
C1561 C 0.77325 0.31879 0.86975 0.0
C1562 C 0.72951 0.24784 0.89816 0.0
C1563 C 0.69844 0.24179 0.89935 0.0
C1564 C 0.67924 0.24784 0.88302 0.0
C1565 C 0.69157 0.26097 0.86568 0.0
C1566 C 0.7228 0.26663 0.86437 0.0
H1567 H 0.78832 0.3388 0.87191 0.0
H1568 H 0.76426 0.3197 0.85423 0.0
H1569 H 0.75387 0.3206 0.88031 0.0
H1570 H 0.74389 0.2424 0.91084 0.0
H1571 H 0.68941 0.23189 0.91294 0.0
H1572 H 0.72401 0.68748 0.40506 0.0
H1573 H 0.72243 0.74244 0.40024 0.0
H1574 H 0.79157 0.73525 0.35478 0.0
H1575 H 0.79304 0.68 0.35943 0.0
H1576 H 0.76671 0.78406 0.40578 0.0
H1577 H 0.72862 0.78664 0.32664 0.0
H1578 H 0.72734 0.75252 0.34159 0.0
H1579 H 0.76244 0.76458 0.33033 0.0
C1580 C 0.73894 0.69755 0.39405 0.0
C1581 C 0.75873 0.67932 0.38265 0.0
C1582 C 0.7379 0.729 0.39125 0.0
C1583 C 0.75658 0.74302 0.37698 0.0
C1584 C 0.7764 0.72492 0.36555 0.0
H1585 H 0.80001 0.92683 0.34422 0.0
H1586 H 0.79713 0.87219 0.3495 0.0
C1587 C 0.77729 0.69334 0.36824 0.0
C1588 C 0.75599 0.77665 0.37466 0.0
H1589 H 0.74575 0.83355 0.34051 0.0
C1590 C 0.76188 0.79488 0.39154 0.0
C1591 C 0.74955 0.7908 0.3561 0.0
C1592 C 0.74133 0.77266 0.33768 0.0
C1593 C 0.76233 0.82677 0.39024 0.0
C1594 C 0.75648 0.84082 0.37161 0.0
C1595 C 0.75026 0.82268 0.35478 0.0
C1596 C 0.75806 0.87429 0.36901 0.0
C1597 C 0.7699 0.8452 0.40865 0.0
C1598 C 0.73701 0.89373 0.37828 0.0
C1599 C 0.73838 0.92523 0.37514 0.0
C1600 C 0.76078 0.93779 0.36259 0.0
C1601 C 0.78204 0.9181 0.35362 0.0
C1602 C 0.78057 0.88676 0.35671 0.0
H1603 H 0.7792 0.83087 0.4209 0.0
H1604 H 0.78668 0.86322 0.40501 0.0
H1605 H 0.749 0.85649 0.4142 0.0
H1606 H 0.71921 0.8845 0.38767 0.0
H1607 H 0.7215 0.93961 0.38214 0.0
H1608 H 0.09313 0.75968 0.82288 0.0
H1609 H 0.14771 0.75712 0.82902 0.0
H1610 H 0.13127 0.75058 0.89253 0.0
H1611 H 0.07636 0.75299 0.88642 0.0
H1612 H 0.1842 0.79564 0.8506 0.0
H1613 H 0.18798 0.67915 0.88266 0.0
H1614 H 0.15497 0.69377 0.86985 0.0
H1615 H 0.16287 0.7051 0.8952 0.0
C1616 C 0.10107 0.75774 0.83817 0.0
C1617 C 0.08032 0.75651 0.85415 0.0
C1618 C 0.13232 0.75624 0.84166 0.0
C1619 C 0.14368 0.75343 0.86122 0.0
C1620 C 0.12308 0.75217 0.87727 0.0
H1621 H 0.34107 0.77657 0.8835 0.0
H1622 H 0.28581 0.78451 0.8848 0.0
C1623 C 0.09168 0.75351 0.87376 0.0
C1624 C 0.17711 0.75211 0.86454 0.0
H1625 H 0.23425 0.70594 0.8811 0.0
C1626 C 0.19516 0.77613 0.85741 0.0
C1627 C 0.1914 0.72657 0.87332 0.0
C1628 C 0.17341 0.69953 0.88056 0.0
C1629 C 0.22706 0.77499 0.85837 0.0
C1630 C 0.24135 0.74936 0.86702 0.0
C1631 C 0.22327 0.72569 0.8746 0.0
C1632 C 0.2749 0.74518 0.86662 0.0
C1633 C 0.24521 0.80062 0.84931 0.0
C1634 C 0.28714 0.72033 0.85624 0.0
C1635 C 0.31847 0.71573 0.85555 0.0
C1636 C 0.33853 0.73581 0.86532 0.0
C1637 C 0.3263 0.76085 0.87569 0.0
C1638 C 0.29473 0.7654 0.87642 0.0
H1639 H 0.23097 0.81554 0.83971 0.0
H1640 H 0.25499 0.81475 0.86149 0.0
H1641 H 0.26425 0.7916 0.84018 0.0
H1642 H 0.27237 0.70453 0.84845 0.0
H1643 H 0.32695 0.69656 0.84708 0.0
H1644 H 0.28462 0.32003 0.40479 0.0
H1645 H 0.28633 0.26522 0.39898 0.0
H1646 H 0.21658 0.27387 0.35393 0.0
H1647 H 0.21512 0.32891 0.35949 0.0
H1648 H 0.24355 0.22253 0.40364 0.0
H1649 H 0.27904 0.22492 0.3241 0.0
H1650 H 0.28002 0.25829 0.33982 0.0
H1651 H 0.24492 0.24617 0.32847 0.0
C1652 C 0.26959 0.31029 0.39367 0.0
C1653 C 0.24975 0.32888 0.38257 0.0
C1654 C 0.27068 0.27893 0.39031 0.0
C1655 C 0.25197 0.26539 0.37579 0.0
C1656 C 0.23187 0.28384 0.36483 0.0
H1657 H 0.20367 0.08428 0.34088 0.0
H1658 H 0.20781 0.13841 0.34778 0.0
C1659 C 0.23096 0.31529 0.36806 0.0
C1660 C 0.25291 0.23191 0.37258 0.0
H1661 H 0.26164 0.17716 0.33666 0.0
C1662 C 0.24783 0.21263 0.38903 0.0
C1663 C 0.25869 0.21891 0.35354 0.0
C1664 C 0.26629 0.23813 0.33552 0.0
C1665 C 0.2474 0.18084 0.38681 0.0
C1666 C 0.25227 0.168 0.36768 0.0
C1667 C 0.25784 0.18715 0.3513 0.0
C1668 C 0.25004 0.1348 0.3641 0.0
C1669 C 0.24086 0.16113 0.40476 0.0
C1670 C 0.27248 0.11472 0.37106 0.0
C1671 C 0.27044 0.08351 0.36689 0.0
C1672 C 0.24591 0.07188 0.35569 0.0
C1673 C 0.22327 0.09223 0.34913 0.0
C1674 C 0.22544 0.12329 0.35317 0.0
H1675 H 0.23395 0.17471 0.41804 0.0
H1676 H 0.22256 0.1446 0.40119 0.0
H1677 H 0.26152 0.14797 0.40869 0.0
H1678 H 0.29179 0.12326 0.37941 0.0
H1679 H 0.2884 0.06868 0.37207 0.0
H1680 H 0.57491 0.74864 0.87967 0.0
H1681 H 0.62927 0.74625 0.88712 0.0
H1682 H 0.64578 0.81894 0.84526 0.0
H1683 H 0.59146 0.82222 0.8383 0.0
H1684 H 0.67309 0.73204 0.8599 0.0
H1685 H 0.69747 0.84551 0.89226 0.0
H1686 H 0.65934 0.83087 0.88975 0.0
H1687 H 0.67837 0.84734 0.86854 0.0
C1688 C 0.58995 0.76468 0.87245 0.0
C1689 C 0.57874 0.78559 0.85833 0.0
C1690 C 0.6211 0.76315 0.87663 0.0
C1691 C 0.64164 0.78261 0.86691 0.0
C1692 C 0.6304 0.80407 0.85326 0.0
H1693 H 0.83817 0.78568 0.85231 0.0
H1694 H 0.78355 0.79675 0.85106 0.0
C1695 C 0.59931 0.80565 0.8491 0.0
C1696 C 0.67493 0.77867 0.86966 0.0
H1697 H 0.74045 0.81603 0.88212 0.0
C1698 C 0.68775 0.75033 0.86496 0.0
C1699 C 0.69413 0.80263 0.87608 0.0
C1700 C 0.68162 0.83322 0.88213 0.0
C1701 C 0.7192 0.74542 0.86615 0.0
C1702 C 0.7384 0.76937 0.87249 0.0
C1703 C 0.72568 0.79774 0.87722 0.0
C1704 C 0.7717 0.765 0.8745 0.0
C1705 C 0.73173 0.71478 0.86018 0.0
C1706 C 0.78319 0.74427 0.88852 0.0
C1707 C 0.81426 0.738 0.8893 0.0
C1708 C 0.8346 0.7524 0.87612 0.0
C1709 C 0.8232 0.77429 0.86272 0.0
C1710 C 0.79198 0.78055 0.86194 0.0
H1711 H 0.71512 0.70141 0.85125 0.0
H1712 H 0.75291 0.71735 0.85133 0.0
H1713 H 0.73724 0.70161 0.87388 0.0
H1714 H 0.768 0.73248 0.89863 0.0
H1715 H 0.82233 0.72155 0.9001 0.0
H1716 H 0.22653 0.57711 0.31568 0.0
H1717 H 0.22699 0.63245 0.31927 0.0
H1718 H 0.22927 0.62323 0.3835 0.0
H1719 H 0.22936 0.56786 0.38009 0.0
H1720 H 0.18865 0.6717 0.36702 0.0
H1721 H 0.30749 0.6749 0.33884 0.0
H1722 H 0.28056 0.65481 0.32347 0.0
H1723 H 0.28996 0.64044 0.34786 0.0
C1724 C 0.22697 0.58679 0.33059 0.0
C1725 C 0.22827 0.56791 0.34757 0.0
C1726 C 0.22712 0.61844 0.3326 0.0
C1727 C 0.22853 0.63189 0.35163 0.0
C1728 C 0.22817 0.61326 0.36867 0.0
H1729 H 0.29522 0.80933 0.38421 0.0
H1730 H 0.28298 0.75539 0.38157 0.0
C1731 C 0.22809 0.58156 0.36668 0.0
C1732 C 0.23267 0.66522 0.35371 0.0
H1733 H 0.28401 0.722 0.34542 0.0
C1734 C 0.20943 0.68279 0.36227 0.0
C1735 C 0.25996 0.67949 0.34769 0.0
C1736 C 0.28609 0.66152 0.33908 0.0
C1737 C 0.21271 0.7144 0.3648 0.0
C1738 C 0.23988 0.72869 0.35854 0.0
C1739 C 0.26313 0.71102 0.3501 0.0
C1740 C 0.24534 0.76178 0.36117 0.0
C1741 C 0.18744 0.7322 0.37454 0.0
C1742 C 0.2281 0.78339 0.35067 0.0
C1743 C 0.23522 0.8144 0.35202 0.0
C1744 C 0.25984 0.82431 0.36383 0.0
C1745 C 0.27649 0.80255 0.37469 0.0
C1746 C 0.2694 0.77167 0.37331 0.0
H1747 H 0.17082 0.71713 0.38214 0.0
H1748 H 0.19672 0.74856 0.38566 0.0
H1749 H 0.17517 0.74539 0.36291 0.0
H1750 H 0.20973 0.77621 0.34095 0.0
H1751 H 0.22212 0.83042 0.34328 0.0
H1752 H 0.42465 0.27707 0.83155 0.0
H1753 H 0.37028 0.27751 0.838 0.0
H1754 H 0.38326 0.2181 0.88858 0.0
H1755 H 0.43787 0.2165 0.88177 0.0
H1756 H 0.33367 0.20163 0.86479 0.0
H1757 H 0.33012 0.32436 0.88344 0.0
H1758 H 0.34671 0.31684 0.8594 0.0
H1759 H 0.36523 0.30336 0.88173 0.0
C1760 C 0.4161 0.26376 0.84392 0.0
C1761 C 0.43589 0.2468 0.85616 0.0
C1762 C 0.38493 0.26435 0.84773 0.0
C1763 C 0.37277 0.24829 0.86397 0.0
C1764 C 0.39222 0.23087 0.87604 0.0
H1765 H 0.19146 0.2863 0.90874 0.0
H1766 H 0.24597 0.27677 0.90575 0.0
C1767 C 0.42349 0.23018 0.87221 0.0
C1768 C 0.33975 0.24991 0.86832 0.0
H1769 H 0.28249 0.30006 0.87803 0.0
C1770 C 0.32245 0.22309 0.86784 0.0
C1771 C 0.32524 0.27787 0.87259 0.0
C1772 C 0.34281 0.3072 0.87453 0.0
C1773 C 0.29086 0.22362 0.87098 0.0
C1774 C 0.27618 0.2518 0.87432 0.0
C1775 C 0.29366 0.27848 0.87529 0.0
C1776 C 0.24275 0.25447 0.87691 0.0
C1777 C 0.27363 0.19398 0.87092 0.0
C1778 C 0.22266 0.24478 0.86182 0.0
C1779 C 0.19139 0.25005 0.86358 0.0
C1780 C 0.17975 0.26557 0.88032 0.0
C1781 C 0.19984 0.2746 0.89558 0.0
C1782 C 0.23096 0.26909 0.89391 0.0
H1783 H 0.28882 0.17442 0.87418 0.0
H1784 H 0.25499 0.19425 0.8821 0.0
H1785 H 0.26353 0.19031 0.85588 0.0
H1786 H 0.23123 0.23412 0.84833 0.0
H1787 H 0.17653 0.24321 0.85147 0.0
H1788 H 0.7261 0.20214 0.39913 0.0
H1789 H 0.73911 0.25557 0.39354 0.0
H1790 H 0.80038 0.2294 0.34631 0.0
H1791 H 0.78723 0.17578 0.35162 0.0
H1792 H 0.81304 0.28192 0.38634 0.0
H1793 H 0.72174 0.2943 0.32897 0.0
H1794 H 0.71643 0.26933 0.35012 0.0
H1795 H 0.74333 0.25953 0.33107 0.0
C1796 C 0.74242 0.2077 0.38759 0.0
C1797 C 0.75547 0.18466 0.37574 0.0
C1798 C 0.74996 0.2382 0.38452 0.0
C1799 C 0.77065 0.24632 0.36953 0.0
C1800 C 0.78445 0.22347 0.35802 0.0
H1801 H 0.79143 0.42835 0.31959 0.0
H1802 H 0.79327 0.37322 0.32458 0.0
C1803 C 0.777 0.19286 0.36114 0.0
C1804 C 0.77628 0.27884 0.3652 0.0
H1805 H 0.7483 0.33843 0.33824 0.0
C1806 C 0.79911 0.29433 0.37573 0.0
C1807 C 0.75816 0.29477 0.35128 0.0
C1808 C 0.73347 0.27884 0.3396 0.0
C1809 C 0.80404 0.32564 0.37285 0.0
C1810 C 0.78516 0.3419 0.35939 0.0
C1811 C 0.76277 0.32607 0.34856 0.0
C1812 C 0.78735 0.37545 0.35672 0.0
C1813 C 0.82958 0.34087 0.38411 0.0
C1814 C 0.7837 0.39516 0.37312 0.0
C1815 C 0.78285 0.42668 0.3703 0.0
C1816 C 0.78516 0.43916 0.35097 0.0
C1817 C 0.78943 0.41942 0.33463 0.0
C1818 C 0.79052 0.38792 0.33748 0.0
H1819 H 0.84745 0.32428 0.38842 0.0
H1820 H 0.84016 0.35919 0.37507 0.0
H1821 H 0.82048 0.35108 0.39807 0.0
H1822 H 0.78032 0.38617 0.38804 0.0
H1823 H 0.77891 0.44116 0.38316 0.0
H1824 H 0.07534 0.72121 0.19087 0.0
H1825 H 0.1307 0.72189 0.18677 0.0
H1826 H 0.11988 0.74965 0.1253 0.0
H1827 H 0.06466 0.74938 0.1293 0.0
H1828 H 0.16941 0.69025 0.15423 0.0
H1829 H 0.17339 0.8167 0.15552 0.0
H1830 H 0.14207 0.79542 0.16591 0.0
H1831 H 0.1456 0.79951 0.13928 0.0
C1832 C 0.08476 0.72742 0.17648 0.0
C1833 C 0.06558 0.73538 0.16044 0.0
C1834 C 0.11634 0.72758 0.17413 0.0
C1835 C 0.12926 0.73596 0.15577 0.0
C1836 C 0.11025 0.74318 0.1396 0.0
H1837 H 0.30736 0.78349 0.11365 0.0
H1838 H 0.2534 0.77224 0.11783 0.0
C1839 C 0.0787 0.74284 0.14188 0.0
C1840 C 0.16262 0.73867 0.15373 0.0
H1841 H 0.21908 0.79107 0.14834 0.0
C1842 C 0.18041 0.71223 0.153 0.0
C1843 C 0.17672 0.7674 0.15218 0.0
C1844 C 0.15861 0.79648 0.15339 0.0
C1845 C 0.21204 0.71379 0.15016 0.0
C1846 C 0.22617 0.7426 0.14847 0.0
C1847 C 0.20827 0.76899 0.14955 0.0
C1848 C 0.25933 0.74627 0.14507 0.0
C1849 C 0.22983 0.68461 0.14836 0.0
C1850 C 0.28078 0.73499 0.1588 0.0
C1851 C 0.31178 0.74119 0.15629 0.0
C1852 C 0.32169 0.75925 0.14023 0.0
C1853 C 0.30027 0.76983 0.12628 0.0
C1854 C 0.26947 0.76335 0.12864 0.0
H1855 H 0.21492 0.66507 0.1445 0.0
H1856 H 0.24782 0.68655 0.13679 0.0
H1857 H 0.2409 0.67958 0.16292 0.0
H1858 H 0.27349 0.72234 0.17184 0.0
H1859 H 0.32781 0.73307 0.16736 0.0
H1860 H 0.19385 0.31126 0.62228 0.0
H1861 H 0.20424 0.2567 0.62306 0.0
H1862 H 0.27252 0.27115 0.66846 0.0
H1863 H 0.26246 0.326 0.66751 0.0
H1864 H 0.29035 0.22891 0.64013 0.0
H1865 H 0.17479 0.20252 0.6681 0.0
H1866 H 0.17464 0.22319 0.64495 0.0
H1867 H 0.18953 0.24075 0.66726 0.0
C1868 C 0.21104 0.30281 0.63245 0.0
C1869 C 0.22705 0.32285 0.64504 0.0
C1870 C 0.21695 0.27163 0.63289 0.0
C1871 C 0.23866 0.25976 0.64615 0.0
C1872 C 0.25554 0.27981 0.65819 0.0
H1873 H 0.24208 0.07384 0.68642 0.0
H1874 H 0.24009 0.12861 0.6832 0.0
C1875 C 0.24983 0.31112 0.65761 0.0
C1876 C 0.24297 0.22639 0.64788 0.0
H1877 H 0.2052 0.16057 0.65842 0.0
C1878 C 0.27179 0.21393 0.64418 0.0
C1879 C 0.21882 0.20693 0.65345 0.0
C1880 C 0.18778 0.21901 0.65887 0.0
C1881 C 0.27702 0.18246 0.64566 0.0
C1882 C 0.25259 0.16293 0.6506 0.0
C1883 C 0.22387 0.17549 0.65445 0.0
C1884 C 0.25628 0.1295 0.65264 0.0
C1885 C 0.30876 0.17054 0.64239 0.0
C1886 C 0.26625 0.11153 0.63655 0.0
C1887 C 0.26791 0.07985 0.63841 0.0
C1888 C 0.25922 0.06539 0.65635 0.0
C1889 C 0.2494 0.0837 0.67243 0.0
C1890 C 0.24801 0.11526 0.6706 0.0
H1891 H 0.32606 0.18874 0.64416 0.0
H1892 H 0.3141 0.15189 0.65302 0.0
H1893 H 0.3106 0.16144 0.62693 0.0
H1894 H 0.27217 0.12193 0.62239 0.0
H1895 H 0.2758 0.06684 0.6257 0.0
H1896 H 0.67192 0.27091 0.16725 0.0
H1897 H 0.72657 0.27983 0.17145 0.0
H1898 H 0.74308 0.24087 0.11314 0.0
H1899 H 0.68868 0.2316 0.10907 0.0
H1900 H 0.77783 0.21494 0.14133 0.0
H1901 H 0.78634 0.34029 0.14801 0.0
H1902 H 0.75988 0.32361 0.16524 0.0
H1903 H 0.75266 0.3215 0.13876 0.0
C1904 C 0.68717 0.26496 0.15516 0.0
C1905 C 0.67608 0.25044 0.13787 0.0
C1906 C 0.7184 0.2701 0.15755 0.0
C1907 C 0.73898 0.26123 0.14254 0.0
C1908 C 0.7277 0.24788 0.12494 0.0
H1909 H 0.93476 0.29419 0.13867 0.0
H1910 H 0.87999 0.29455 0.13225 0.0
C1911 C 0.69663 0.24254 0.12263 0.0
C1912 C 0.77235 0.26314 0.1458 0.0
H1913 H 0.83061 0.31182 0.15674 0.0
C1914 C 0.78935 0.23618 0.14459 0.0
C1915 C 0.78747 0.29087 0.14986 0.0
C1916 C 0.77073 0.32077 0.15036 0.0
C1917 C 0.82089 0.23607 0.1476 0.0
C1918 C 0.83586 0.26359 0.15241 0.0
C1919 C 0.81904 0.29069 0.15326 0.0
C1920 C 0.86894 0.26443 0.15676 0.0
C1921 C 0.83794 0.20649 0.14535 0.0
C1922 C 0.88086 0.2478 0.17286 0.0
C1923 C 0.91212 0.24728 0.17645 0.0
C1924 C 0.93225 0.26364 0.16412 0.0
C1925 C 0.9201 0.28093 0.14828 0.0
C1926 C 0.88875 0.28138 0.14468 0.0
H1927 H 0.82489 0.18969 0.13635 0.0
H1928 H 0.86034 0.21014 0.1381 0.0
H1929 H 0.84191 0.19653 0.16038 0.0
H1930 H 0.86595 0.23494 0.18257 0.0
H1931 H 0.92046 0.2335 0.18867 0.0
H1932 H 0.79609 0.91738 0.66792 0.0
H1933 H 0.79028 0.86301 0.66237 0.0
H1934 H 0.7043 0.87851 0.63326 0.0
H1935 H 0.70939 0.93333 0.63928 0.0
H1936 H 0.7345 0.82647 0.67604 0.0
H1937 H 0.76014 0.82351 0.59434 0.0
H1938 H 0.77382 0.85368 0.61038 0.0
H1939 H 0.73444 0.85212 0.60365 0.0
C1940 C 0.77574 0.90944 0.6605 0.0
C1941 C 0.75302 0.92995 0.65428 0.0
C1942 C 0.77259 0.87826 0.65723 0.0
C1943 C 0.7469 0.8668 0.64744 0.0
C1944 C 0.7244 0.88702 0.64077 0.0
H1945 H 0.70717 0.68078 0.61095 0.0
H1946 H 0.70644 0.73582 0.61591 0.0
C1947 C 0.72742 0.91836 0.64416 0.0
C1948 C 0.74361 0.83354 0.64474 0.0
H1949 H 0.75016 0.77681 0.61011 0.0
C1950 C 0.73775 0.81553 0.66162 0.0
C1951 C 0.74778 0.8195 0.62592 0.0
C1952 C 0.75453 0.83801 0.60746 0.0
C1953 C 0.73591 0.78371 0.66019 0.0
C1954 C 0.74099 0.76949 0.64144 0.0
C1955 C 0.7464 0.78765 0.62449 0.0
C1956 C 0.74093 0.73585 0.63903 0.0
C1957 C 0.72804 0.76576 0.67871 0.0
C1958 C 0.76065 0.71742 0.6503 0.0
C1959 C 0.76095 0.68585 0.64758 0.0
C1960 C 0.74194 0.67214 0.63325 0.0
C1961 C 0.72234 0.69066 0.62193 0.0
C1962 C 0.72183 0.72213 0.62481 0.0
H1963 H 0.71579 0.77998 0.68985 0.0
H1964 H 0.71374 0.74574 0.675 0.0
H1965 H 0.74929 0.75759 0.68586 0.0
H1966 H 0.77622 0.72749 0.66098 0.0
H1967 H 0.7766 0.67225 0.65629 0.0
loop_
_geom_bond_atom_site_label_1
_geom_bond_atom_site_label_2
_geom_bond_distance
_geom_bond_site_symmetry_2
_ccdc_geom_bond_type
C0 C1 1.351 . S
C0 N3 1.368 . S
C0 H5 0.931 . S
C1 C0 1.351 . S
C1 N2 1.373 . S
C1 H29 0.930 . S
N2 C1 1.373 . S
N2 C4 1.340 . S
N3 C0 1.368 . S
N3 C4 1.321 . S
N3 Co6 2.135 1_655 S
C4 N2 1.340 . S
C4 N3 1.321 . S
C4 H28 0.930 . S
H5 C0 0.931 . S
Co6 N3 2.135 1_455 S
Co6 N9 2.121 . S
Co6 O14 2.055 . S
Co6 O17 2.039 . S
Co6 N20 2.140 . S
C7 O8 1.227 . S
C7 O17 1.265 . S
O8 C7 1.227 . S
N9 Co6 2.121 . S
N9 C11 1.375 . S
N9 C12 1.313 . S
C10 C11 1.338 . S
C10 N13 1.377 . S
C10 H30 0.930 . S
C11 N9 1.375 . S
C11 C10 1.338 . S
C11 H15 0.931 . S
C12 N9 1.313 . S
C12 N13 1.344 . S
C12 H16 0.930 . S
N13 C10 1.377 . S
N13 C12 1.344 . S
O14 Co6 2.055 . S
O14 C18 1.253 . S
H15 C11 0.931 . S
H16 C12 0.930 . S
O17 Co6 2.039 . S
O17 C7 1.265 . S
C18 O14 1.253 . S
C18 O19 1.227 . S
O19 C18 1.227 . S
N20 Co6 2.140 . S
N20 C23 1.346 . S
N20 C24 1.345 . S
C21 C22 1.387 . S
C21 C25 1.391 . S
C22 C21 1.387 . S
C22 C23 1.369 . S
C22 H31 0.929 1_455 S
C23 N20 1.346 . S
C23 C22 1.369 . S
C23 H26 0.928 1_455 S
C24 N20 1.345 . S
C24 C25 1.371 . S
C24 H27 0.931 . S
C25 C21 1.391 . S
C25 C24 1.371 . S
C25 H32 0.930 . S
H26 C23 0.928 1_655 S
H27 C24 0.931 . S
H28 C4 0.930 . S
H29 C1 0.930 . S
H30 C10 0.930 . S
H31 C22 0.929 1_655 S
H32 C25 0.930 . S
C33 C34 1.351 . S
C33 N36 1.368 . S
C33 H38 0.931 . S
C34 C33 1.351 . S
C34 N35 1.373 . S
C34 H62 0.930 . S
N35 C34 1.373 . S
N35 C37 1.340 . S
N36 C33 1.368 . S
N36 C37 1.321 . S
N36 Co39 2.135 1_565 S
C37 N35 1.340 . S
C37 N36 1.321 . S
C37 H61 0.930 . S
H38 C33 0.931 . S
Co39 N36 2.135 1_545 S
Co39 N42 2.121 . S
Co39 O47 2.055 . S
Co39 O50 2.039 . S
Co39 N53 2.140 . S
C40 O41 1.227 . S
C40 O50 1.265 . S
O41 C40 1.227 . S
N42 Co39 2.121 . S
N42 C44 1.375 . S
N42 C45 1.313 . S
C43 C44 1.338 . S
C43 N46 1.377 . S
C43 H63 0.930 . S
C44 N42 1.375 . S
C44 C43 1.338 . S
C44 H48 0.931 . S
C45 N42 1.313 . S
C45 N46 1.344 . S
C45 H49 0.930 . S
N46 C43 1.377 . S
N46 C45 1.344 . S
O47 Co39 2.055 . S
O47 C51 1.253 . S
H48 C44 0.931 . S
H49 C45 0.930 . S
O50 Co39 2.039 . S
O50 C40 1.265 . S
C51 O47 1.253 . S
C51 O52 1.227 . S
O52 C51 1.227 . S
N53 Co39 2.140 . S
N53 C56 1.346 . S
N53 C57 1.345 . S
C54 C55 1.387 . S
C54 C58 1.391 . S
C55 C54 1.387 . S
C55 C56 1.369 . S
C55 H64 0.929 1_545 S
C56 N53 1.346 . S
C56 C55 1.369 . S
C56 H59 0.928 1_545 S
C57 N53 1.345 . S
C57 C58 1.371 . S
C57 H60 0.931 . S
C58 C54 1.391 . S
C58 C57 1.371 . S
C58 H65 0.930 . S
H59 C56 0.928 1_565 S
H60 C57 0.931 . S
H61 C37 0.930 . S
H62 C34 0.930 . S
H63 C43 0.930 . S
H64 C55 0.929 1_565 S
H65 C58 0.930 . S
C66 C67 1.351 . S
C66 N69 1.368 . S
C66 H71 0.931 . S
C67 C66 1.351 . S
C67 N68 1.373 . S
C67 H95 0.930 . S
N68 C67 1.373 . S
N68 C70 1.340 . S
N69 C66 1.368 . S
N69 C70 1.321 . S
N69 Co72 2.135 1_455 S
C70 N68 1.340 . S
C70 N69 1.321 . S
C70 H94 0.930 . S
H71 C66 0.931 . S
Co72 N69 2.135 1_655 S
Co72 N75 2.121 . S
Co72 O80 2.055 . S
Co72 O83 2.039 . S
Co72 N86 2.140 . S
C73 O74 1.227 . S
C73 O83 1.265 . S
O74 C73 1.227 . S
N75 Co72 2.121 . S
N75 C77 1.375 . S
N75 C78 1.313 . S
C76 C77 1.338 . S
C76 N79 1.377 . S
C76 H96 0.930 . S
C77 N75 1.375 . S
C77 C76 1.338 . S
C77 H81 0.931 . S
C78 N75 1.313 . S
C78 N79 1.344 . S
C78 H82 0.930 . S
N79 C76 1.377 . S
N79 C78 1.344 . S
O80 Co72 2.055 . S
O80 C84 1.253 . S
H81 C77 0.931 . S
H82 C78 0.930 . S
O83 Co72 2.039 . S
O83 C73 1.265 . S
C84 O80 1.253 . S
C84 O85 1.227 . S
O85 C84 1.227 . S
N86 Co72 2.140 . S
N86 C89 1.346 . S
N86 C90 1.345 . S
C87 C88 1.387 . S
C87 C91 1.391 . S
C88 C87 1.387 . S
C88 C89 1.369 . S
C88 H97 0.929 1_655 S
C89 N86 1.346 . S
C89 C88 1.369 . S
C89 H92 0.928 1_655 S
C90 N86 1.345 . S
C90 C91 1.371 . S
C90 H93 0.931 . S
C91 C87 1.391 . S
C91 C90 1.371 . S
C91 H98 0.930 . S
H92 C89 0.928 1_455 S
H93 C90 0.931 . S
H94 C70 0.930 . S
H95 C67 0.930 . S
H96 C76 0.930 . S
H97 C88 0.929 1_455 S
H98 C91 0.930 . S
C99 C100 1.351 . S
C99 N102 1.368 . S
C99 H104 0.931 . S
C100 C99 1.351 . S
C100 N101 1.373 . S
C100 H128 0.930 . S
N101 C100 1.373 . S
N101 C103 1.340 . S
N102 C99 1.368 . S
N102 C103 1.321 . S
N102 Co105 2.135 1_545 S
C103 N101 1.340 . S
C103 N102 1.321 . S
C103 H127 0.930 . S
H104 C99 0.931 . S
Co105 N102 2.135 1_565 S
Co105 N108 2.121 . S
Co105 O113 2.055 . S
Co105 O116 2.039 . S
Co105 N119 2.140 . S
C106 O107 1.227 . S
C106 O116 1.265 . S
O107 C106 1.227 . S
N108 Co105 2.121 . S
N108 C110 1.375 . S
N108 C111 1.313 . S
C109 C110 1.338 . S
C109 N112 1.377 . S
C109 H129 0.930 . S
C110 N108 1.375 . S
C110 C109 1.338 . S
C110 H114 0.931 . S
C111 N108 1.313 . S
C111 N112 1.344 . S
C111 H115 0.930 . S
N112 C109 1.377 . S
N112 C111 1.344 . S
O113 Co105 2.055 . S
O113 C117 1.253 . S
H114 C110 0.931 . S
H115 C111 0.930 . S
O116 Co105 2.039 . S
O116 C106 1.265 . S
C117 O113 1.253 . S
C117 O118 1.227 . S
O118 C117 1.227 . S
N119 Co105 2.140 . S
N119 C122 1.346 . S
N119 C123 1.345 . S
C120 C121 1.387 . S
C120 C124 1.391 . S
C121 C120 1.387 . S
C121 C122 1.369 . S
C121 H130 0.929 1_565 S
C122 N119 1.346 . S
C122 C121 1.369 . S
C122 H125 0.928 1_565 S
C123 N119 1.345 . S
C123 C124 1.371 . S
C123 H126 0.931 . S
C124 C120 1.391 . S
C124 C123 1.371 . S
C124 H131 0.930 . S
H125 C122 0.928 1_545 S
H126 C123 0.931 . S
H127 C103 0.930 . S
H128 C100 0.930 . S
H129 C109 0.930 . S
H130 C121 0.929 1_545 S
H131 C124 0.930 . S
C132 C133 1.351 . S
C132 N135 1.368 . S
C132 H137 0.931 . S
C133 C132 1.351 . S
C133 N134 1.373 . S
C133 H161 0.930 . S
N134 C133 1.373 . S
N134 C136 1.340 . S
N135 C132 1.368 . S
N135 C136 1.321 . S
N135 Co138 2.135 . S
C136 N134 1.340 . S
C136 N135 1.321 . S
C136 H160 0.930 . S
H137 C132 0.931 . S
Co138 N135 2.135 . S
Co138 N141 2.121 . S
Co138 O146 2.055 . S
Co138 O149 2.039 . S
Co138 N152 2.140 . S
C139 O140 1.227 . S
C139 O149 1.265 . S
O140 C139 1.227 . S
N141 Co138 2.121 . S
N141 C143 1.375 . S
N141 C144 1.313 . S
C142 C143 1.338 . S
C142 N145 1.377 . S
C142 H162 0.930 . S
C143 N141 1.375 . S
C143 C142 1.338 . S
C143 H147 0.931 . S
C144 N141 1.313 . S
C144 N145 1.344 . S
C144 H148 0.930 . S
N145 C142 1.377 . S
N145 C144 1.344 . S
O146 Co138 2.055 . S
O146 C150 1.253 . S
H147 C143 0.931 . S
H148 C144 0.930 . S
O149 Co138 2.039 . S
O149 C139 1.265 . S
C150 O146 1.253 . S
C150 O151 1.227 . S
O151 C150 1.227 . S
N152 Co138 2.140 . S
N152 C155 1.346 . S
N152 C156 1.345 . S
C153 C154 1.387 . S
C153 C157 1.391 . S
C154 C153 1.387 . S
C154 C155 1.369 . S
C154 H163 0.929 . S
C155 N152 1.346 . S
C155 C154 1.369 . S
C155 H158 0.928 . S
C156 N152 1.345 . S
C156 C157 1.371 . S
C156 H159 0.931 . S
C157 C153 1.391 . S
C157 C156 1.371 . S
C157 H164 0.930 . S
H158 C155 0.928 . S
H159 C156 0.931 . S
H160 C136 0.930 . S
H161 C133 0.930 . S
H162 C142 0.930 . S
H163 C154 0.929 . S
H164 C157 0.930 . S
C165 C166 1.351 . S
C165 N168 1.368 . S
C165 H170 0.931 . S
C166 C165 1.351 . S
C166 N167 1.373 . S
C166 H194 0.930 . S
N167 C166 1.373 . S
N167 C169 1.340 . S
N168 C165 1.368 . S
N168 C169 1.321 . S
N168 Co171 2.135 . S
C169 N167 1.340 . S
C169 N168 1.321 . S
C169 H193 0.930 . S
H170 C165 0.931 . S
Co171 N168 2.135 . S
Co171 N174 2.121 . S
Co171 O179 2.055 . S
Co171 O182 2.039 . S
Co171 N185 2.140 . S
C172 O173 1.227 . S
C172 O182 1.265 . S
O173 C172 1.227 . S
N174 Co171 2.121 . S
N174 C176 1.375 . S
N174 C177 1.313 . S
C175 C176 1.338 . S
C175 N178 1.377 . S
C175 H195 0.930 . S
C176 N174 1.375 . S
C176 C175 1.338 . S
C176 H180 0.931 . S
C177 N174 1.313 . S
C177 N178 1.344 . S
C177 H181 0.930 . S
N178 C175 1.377 . S
N178 C177 1.344 . S
O179 Co171 2.055 . S
O179 C183 1.253 . S
H180 C176 0.931 . S
H181 C177 0.930 . S
O182 Co171 2.039 . S
O182 C172 1.265 . S
C183 O179 1.253 . S
C183 O184 1.227 . S
O184 C183 1.227 . S
N185 Co171 2.140 . S
N185 C188 1.346 . S
N185 C189 1.345 . S
C186 C187 1.387 . S
C186 C190 1.391 . S
C187 C186 1.387 . S
C187 C188 1.369 . S
C187 H196 0.929 . S
C188 N185 1.346 . S
C188 C187 1.369 . S
C188 H191 0.928 . S
C189 N185 1.345 . S
C189 C190 1.371 . S
C189 H192 0.931 . S
C190 C186 1.391 . S
C190 C189 1.371 . S
C190 H197 0.930 . S
H191 C188 0.928 . S
H192 C189 0.931 . S
H193 C169 0.930 . S
H194 C166 0.930 . S
H195 C175 0.930 . S
H196 C187 0.929 . S
H197 C190 0.930 . S
C198 C199 1.351 . S
C198 N201 1.368 . S
C198 H203 0.931 . S
C199 C198 1.351 . S
C199 N200 1.373 . S
C199 H227 0.930 . S
N200 C199 1.373 . S
N200 C202 1.340 . S
N201 C198 1.368 . S
N201 C202 1.321 . S
N201 Co204 2.135 . S
C202 N200 1.340 . S
C202 N201 1.321 . S
C202 H226 0.930 . S
H203 C198 0.931 . S
Co204 N201 2.135 . S
Co204 N207 2.121 . S
Co204 O212 2.055 . S
Co204 O215 2.039 . S
Co204 N218 2.140 . S
C205 O206 1.227 . S
C205 O215 1.265 . S
O206 C205 1.227 . S
N207 Co204 2.121 . S
N207 C209 1.375 . S
N207 C210 1.313 . S
C208 C209 1.338 . S
C208 N211 1.377 . S
C208 H228 0.930 . S
C209 N207 1.375 . S
C209 C208 1.338 . S
C209 H213 0.931 . S
C210 N207 1.313 . S
C210 N211 1.344 . S
C210 H214 0.930 . S
N211 C208 1.377 . S
N211 C210 1.344 . S
O212 Co204 2.055 . S
O212 C216 1.253 . S
H213 C209 0.931 . S
H214 C210 0.930 . S
O215 Co204 2.039 . S
O215 C205 1.265 . S
C216 O212 1.253 . S
C216 O217 1.227 . S
O217 C216 1.227 . S
N218 Co204 2.140 . S
N218 C221 1.346 . S
N218 C222 1.345 . S
C219 C220 1.387 . S
C219 C223 1.391 . S
C220 C219 1.387 . S
C220 C221 1.369 . S
C220 H229 0.929 . S
C221 N218 1.346 . S
C221 C220 1.369 . S
C221 H224 0.928 . S
C222 N218 1.345 . S
C222 C223 1.371 . S
C222 H225 0.931 . S
C223 C219 1.391 . S
C223 C222 1.371 . S
C223 H230 0.930 . S
H224 C221 0.928 . S
H225 C222 0.931 . S
H226 C202 0.930 . S
H227 C199 0.930 . S
H228 C208 0.930 . S
H229 C220 0.929 . S
H230 C223 0.930 . S
C231 C232 1.351 . S
C231 N234 1.368 . S
C231 H236 0.931 . S
C232 C231 1.351 . S
C232 N233 1.373 . S
C232 H260 0.930 . S
N233 C232 1.373 . S
N233 C235 1.340 . S
N234 C231 1.368 . S
N234 C235 1.321 . S
N234 Co237 2.135 . S
C235 N233 1.340 . S
C235 N234 1.321 . S
C235 H259 0.930 . S
H236 C231 0.931 . S
Co237 N234 2.135 . S
Co237 N240 2.121 . S
Co237 O245 2.055 . S
Co237 O248 2.039 . S
Co237 N251 2.140 . S
C238 O239 1.227 . S
C238 O248 1.265 . S
O239 C238 1.227 . S
N240 Co237 2.121 . S
N240 C242 1.375 . S
N240 C243 1.313 . S
C241 C242 1.338 . S
C241 N244 1.377 . S
C241 H261 0.930 . S
C242 N240 1.375 . S
C242 C241 1.338 . S
C242 H246 0.931 . S
C243 N240 1.313 . S
C243 N244 1.344 . S
C243 H247 0.930 . S
N244 C241 1.377 . S
N244 C243 1.344 . S
O245 Co237 2.055 . S
O245 C249 1.253 . S
H246 C242 0.931 . S
H247 C243 0.930 . S
O248 Co237 2.039 . S
O248 C238 1.265 . S
C249 O245 1.253 . S
C249 O250 1.227 . S
O250 C249 1.227 . S
N251 Co237 2.140 . S
N251 C254 1.346 . S
N251 C255 1.345 . S
C252 C253 1.387 . S
C252 C256 1.391 . S
C253 C252 1.387 . S
C253 C254 1.369 . S
C253 H262 0.929 . S
C254 N251 1.346 . S
C254 C253 1.369 . S
C254 H257 0.928 . S
C255 N251 1.345 . S
C255 C256 1.371 . S
C255 H258 0.931 . S
C256 C252 1.391 . S
C256 C255 1.371 . S
C256 H263 0.930 . S
H257 C254 0.928 . S
H258 C255 0.931 . S
H259 C235 0.930 . S
H260 C232 0.930 . S
H261 C241 0.930 . S
H262 C253 0.929 . S
H263 C256 0.930 . S
C264 C265 1.351 . S
C264 N267 1.368 . S
C264 H269 0.931 . S
C265 C264 1.351 . S
C265 N266 1.373 . S
C265 H293 0.930 . S
N266 C265 1.373 . S
N266 C268 1.340 . S
N267 C264 1.368 . S
N267 C268 1.321 . S
N267 Co270 2.135 1_455 S
C268 N266 1.340 . S
C268 N267 1.321 . S
C268 H292 0.930 . S
H269 C264 0.931 . S
Co270 N267 2.135 1_655 S
Co270 N273 2.121 . S
Co270 O278 2.055 . S
Co270 O281 2.039 . S
Co270 N284 2.140 . S
C271 O272 1.227 . S
C271 O281 1.265 . S
O272 C271 1.227 . S
N273 Co270 2.121 . S
N273 C275 1.375 . S
N273 C276 1.313 . S
C274 C275 1.338 . S
C274 N277 1.377 . S
C274 H294 0.930 . S
C275 N273 1.375 . S
C275 C274 1.338 . S
C275 H279 0.931 . S
C276 N273 1.313 . S
C276 N277 1.344 . S
C276 H280 0.930 . S
N277 C274 1.377 . S
N277 C276 1.344 . S
O278 Co270 2.055 . S
O278 C282 1.253 . S
H279 C275 0.931 . S
H280 C276 0.930 . S
O281 Co270 2.039 . S
O281 C271 1.265 . S
C282 O278 1.253 . S
C282 O283 1.227 . S
O283 C282 1.227 . S
N284 Co270 2.140 . S
N284 C287 1.346 . S
N284 C288 1.345 . S
C285 C286 1.387 . S
C285 C289 1.391 . S
C286 C285 1.387 . S
C286 C287 1.369 . S
C286 H295 0.929 1_655 S
C287 N284 1.346 . S
C287 C286 1.369 . S
C287 H290 0.928 1_655 S
C288 N284 1.345 . S
C288 C289 1.371 . S
C288 H291 0.931 . S
C289 C285 1.391 . S
C289 C288 1.371 . S
C289 H296 0.930 . S
H290 C287 0.928 1_455 S
H291 C288 0.931 . S
H292 C268 0.930 . S
H293 C265 0.930 . S
H294 C274 0.930 . S
H295 C286 0.929 1_455 S
H296 C289 0.930 . S
C297 C298 1.351 . S
C297 N300 1.368 . S
C297 H302 0.931 . S
C298 C297 1.351 . S
C298 N299 1.373 . S
C298 H326 0.930 . S
N299 C298 1.373 . S
N299 C301 1.340 . S
N300 C297 1.368 . S
N300 C301 1.321 . S
N300 Co303 2.135 1_545 S
C301 N299 1.340 . S
C301 N300 1.321 . S
C301 H325 0.930 . S
H302 C297 0.931 . S
Co303 N300 2.135 1_565 S
Co303 N306 2.121 . S
Co303 O311 2.055 . S
Co303 O314 2.039 . S
Co303 N317 2.140 . S
C304 O305 1.227 . S
C304 O314 1.265 . S
O305 C304 1.227 . S
N306 Co303 2.121 . S
N306 C308 1.375 . S
N306 C309 1.313 . S
C307 C308 1.338 . S
C307 N310 1.377 . S
C307 H327 0.930 . S
C308 N306 1.375 . S
C308 C307 1.338 . S
C308 H312 0.931 . S
C309 N306 1.313 . S
C309 N310 1.344 . S
C309 H313 0.930 . S
N310 C307 1.377 . S
N310 C309 1.344 . S
O311 Co303 2.055 . S
O311 C315 1.253 . S
H312 C308 0.931 . S
H313 C309 0.930 . S
O314 Co303 2.039 . S
O314 C304 1.265 . S
C315 O311 1.253 . S
C315 O316 1.227 . S
O316 C315 1.227 . S
N317 Co303 2.140 . S
N317 C320 1.346 . S
N317 C321 1.345 . S
C318 C319 1.387 . S
C318 C322 1.391 . S
C319 C318 1.387 . S
C319 C320 1.369 . S
C319 H328 0.929 1_565 S
C320 N317 1.346 . S
C320 C319 1.369 . S
C320 H323 0.928 1_565 S
C321 N317 1.345 . S
C321 C322 1.371 . S
C321 H324 0.931 . S
C322 C318 1.391 . S
C322 C321 1.371 . S
C322 H329 0.930 . S
H323 C320 0.928 1_545 S
H324 C321 0.931 . S
H325 C301 0.930 . S
H326 C298 0.930 . S
H327 C307 0.930 . S
H328 C319 0.929 1_545 S
H329 C322 0.930 . S
C330 C331 1.351 . S
C330 N333 1.368 . S
C330 H335 0.931 . S
C331 C330 1.351 . S
C331 N332 1.373 . S
C331 H359 0.930 . S
N332 C331 1.373 . S
N332 C334 1.340 . S
N333 C330 1.368 . S
N333 C334 1.321 . S
N333 Co336 2.135 1_655 S
C334 N332 1.340 . S
C334 N333 1.321 . S
C334 H358 0.930 . S
H335 C330 0.931 . S
Co336 N333 2.135 1_455 S
Co336 N339 2.121 . S
Co336 O344 2.055 . S
Co336 O347 2.039 . S
Co336 N350 2.140 . S
C337 O338 1.227 . S
C337 O347 1.265 . S
O338 C337 1.227 . S
N339 Co336 2.121 . S
N339 C341 1.375 . S
N339 C342 1.313 . S
C340 C341 1.338 . S
C340 N343 1.377 . S
C340 H360 0.930 . S
C341 N339 1.375 . S
C341 C340 1.338 . S
C341 H345 0.931 . S
C342 N339 1.313 . S
C342 N343 1.344 . S
C342 H346 0.930 . S
N343 C340 1.377 . S
N343 C342 1.344 . S
O344 Co336 2.055 . S
O344 C348 1.253 . S
H345 C341 0.931 . S
H346 C342 0.930 . S
O347 Co336 2.039 . S
O347 C337 1.265 . S
C348 O344 1.253 . S
C348 O349 1.227 . S
O349 C348 1.227 . S
N350 Co336 2.140 . S
N350 C353 1.346 . S
N350 C354 1.345 . S
C351 C352 1.387 . S
C351 C355 1.391 . S
C352 C351 1.387 . S
C352 C353 1.369 . S
C352 H361 0.929 1_455 S
C353 N350 1.346 . S
C353 C352 1.369 . S
C353 H356 0.928 1_455 S
C354 N350 1.345 . S
C354 C355 1.371 . S
C354 H357 0.931 . S
C355 C351 1.391 . S
C355 C354 1.371 . S
C355 H362 0.930 . S
H356 C353 0.928 1_655 S
H357 C354 0.931 . S
H358 C334 0.930 . S
H359 C331 0.930 . S
H360 C340 0.930 . S
H361 C352 0.929 1_655 S
H362 C355 0.930 . S
C363 C364 1.351 . S
C363 N366 1.368 . S
C363 H368 0.931 . S
C364 C363 1.351 . S
C364 N365 1.373 . S
C364 H392 0.930 . S
N365 C364 1.373 . S
N365 C367 1.340 . S
N366 C363 1.368 . S
N366 C367 1.321 . S
N366 Co369 2.135 1_565 S
C367 N365 1.340 . S
C367 N366 1.321 . S
C367 H391 0.930 . S
H368 C363 0.931 . S
Co369 N366 2.135 1_545 S
Co369 N372 2.121 . S
Co369 O377 2.055 . S
Co369 O380 2.039 . S
Co369 N383 2.140 . S
C370 O371 1.227 . S
C370 O380 1.265 . S
O371 C370 1.227 . S
N372 Co369 2.121 . S
N372 C374 1.375 . S
N372 C375 1.313 . S
C373 C374 1.338 . S
C373 N376 1.377 . S
C373 H393 0.930 . S
C374 N372 1.375 . S
C374 C373 1.338 . S
C374 H378 0.931 . S
C375 N372 1.313 . S
C375 N376 1.344 . S
C375 H379 0.930 . S
N376 C373 1.377 . S
N376 C375 1.344 . S
O377 Co369 2.055 . S
O377 C381 1.253 . S
H378 C374 0.931 . S
H379 C375 0.930 . S
O380 Co369 2.039 . S
O380 C370 1.265 . S
C381 O377 1.253 . S
C381 O382 1.227 . S
O382 C381 1.227 . S
N383 Co369 2.140 . S
N383 C386 1.346 . S
N383 C387 1.345 . S
C384 C385 1.387 . S
C384 C388 1.391 . S
C385 C384 1.387 . S
C385 C386 1.369 . S
C385 H394 0.929 1_545 S
C386 N383 1.346 . S
C386 C385 1.369 . S
C386 H389 0.928 1_545 S
C387 N383 1.345 . S
C387 C388 1.371 . S
C387 H390 0.931 . S
C388 C384 1.391 . S
C388 C387 1.371 . S
C388 H395 0.930 . S
H389 C386 0.928 1_565 S
H390 C387 0.931 . S
H391 C367 0.930 . S
H392 C364 0.930 . S
H393 C373 0.930 . S
H394 C385 0.929 1_565 S
H395 C388 0.930 . S
C396 C397 1.351 . S
C396 N399 1.368 . S
C396 H401 0.931 . S
C397 C396 1.351 . S
C397 N398 1.373 . S
C397 H425 0.930 . S
N398 C397 1.373 . S
N398 C400 1.340 . S
N399 C396 1.368 . S
N399 C400 1.321 . S
N399 Co402 2.135 . S
C400 N398 1.340 . S
C400 N399 1.321 . S
C400 H424 0.930 . S
H401 C396 0.931 . S
Co402 N399 2.135 . S
Co402 N405 2.121 . S
Co402 O410 2.055 . S
Co402 O413 2.039 . S
Co402 N416 2.140 . S
C403 O404 1.227 . S
C403 O413 1.265 . S
O404 C403 1.227 . S
N405 Co402 2.121 . S
N405 C407 1.375 . S
N405 C408 1.313 . S
C406 C407 1.338 . S
C406 N409 1.377 . S
C406 H426 0.930 . S
C407 N405 1.375 . S
C407 C406 1.338 . S
C407 H411 0.931 . S
C408 N405 1.313 . S
C408 N409 1.344 . S
C408 H412 0.930 . S
N409 C406 1.377 . S
N409 C408 1.344 . S
O410 Co402 2.055 . S
O410 C414 1.253 . S
H411 C407 0.931 . S
H412 C408 0.930 . S
O413 Co402 2.039 . S
O413 C403 1.265 . S
C414 O410 1.253 . S
C414 O415 1.227 . S
O415 C414 1.227 . S
N416 Co402 2.140 . S
N416 C419 1.346 . S
N416 C420 1.345 . S
C417 C418 1.387 . S
C417 C421 1.391 . S
C418 C417 1.387 . S
C418 C419 1.369 . S
C418 H427 0.929 . S
C419 N416 1.346 . S
C419 C418 1.369 . S
C419 H422 0.928 . S
C420 N416 1.345 . S
C420 C421 1.371 . S
C420 H423 0.931 . S
C421 C417 1.391 . S
C421 C420 1.371 . S
C421 H428 0.930 . S
H422 C419 0.928 . S
H423 C420 0.931 . S
H424 C400 0.930 . S
H425 C397 0.930 . S
H426 C406 0.930 . S
H427 C418 0.929 . S
H428 C421 0.930 . S
C429 C430 1.351 . S
C429 N432 1.368 . S
C429 H434 0.931 . S
C430 C429 1.351 . S
C430 N431 1.373 . S
C430 H458 0.930 . S
N431 C430 1.373 . S
N431 C433 1.340 . S
N432 C429 1.368 . S
N432 C433 1.321 . S
N432 Co435 2.135 . S
C433 N431 1.340 . S
C433 N432 1.321 . S
C433 H457 0.930 . S
H434 C429 0.931 . S
Co435 N432 2.135 . S
Co435 N438 2.121 . S
Co435 O443 2.055 . S
Co435 O446 2.039 . S
Co435 N449 2.140 . S
C436 O437 1.227 . S
C436 O446 1.265 . S
O437 C436 1.227 . S
N438 Co435 2.121 . S
N438 C440 1.375 . S
N438 C441 1.313 . S
C439 C440 1.338 . S
C439 N442 1.377 . S
C439 H459 0.930 . S
C440 N438 1.375 . S
C440 C439 1.338 . S
C440 H444 0.931 . S
C441 N438 1.313 . S
C441 N442 1.344 . S
C441 H445 0.930 . S
N442 C439 1.377 . S
N442 C441 1.344 . S
O443 Co435 2.055 . S
O443 C447 1.253 . S
H444 C440 0.931 . S
H445 C441 0.930 . S
O446 Co435 2.039 . S
O446 C436 1.265 . S
C447 O443 1.253 . S
C447 O448 1.227 . S
O448 C447 1.227 . S
N449 Co435 2.140 . S
N449 C452 1.346 . S
N449 C453 1.345 . S
C450 C451 1.387 . S
C450 C454 1.391 . S
C451 C450 1.387 . S
C451 C452 1.369 . S
C451 H460 0.929 . S
C452 N449 1.346 . S
C452 C451 1.369 . S
C452 H455 0.928 . S
C453 N449 1.345 . S
C453 C454 1.371 . S
C453 H456 0.931 . S
C454 C450 1.391 . S
C454 C453 1.371 . S
C454 H461 0.930 . S
H455 C452 0.928 . S
H456 C453 0.931 . S
H457 C433 0.930 . S
H458 C430 0.930 . S
H459 C439 0.930 . S
H460 C451 0.929 . S
H461 C454 0.930 . S
C462 C463 1.351 . S
C462 N465 1.368 . S
C462 H467 0.931 . S
C463 C462 1.351 . S
C463 N464 1.373 . S
C463 H491 0.930 . S
N464 C463 1.373 . S
N464 C466 1.340 . S
N465 C462 1.368 . S
N465 C466 1.321 . S
N465 Co468 2.135 . S
C466 N464 1.340 . S
C466 N465 1.321 . S
C466 H490 0.930 . S
H467 C462 0.931 . S
Co468 N465 2.135 . S
Co468 N471 2.121 . S
Co468 O476 2.055 . S
Co468 O479 2.039 . S
Co468 N482 2.140 . S
C469 O470 1.227 . S
C469 O479 1.265 . S
O470 C469 1.227 . S
N471 Co468 2.121 . S
N471 C473 1.375 . S
N471 C474 1.313 . S
C472 C473 1.338 . S
C472 N475 1.377 . S
C472 H492 0.930 . S
C473 N471 1.375 . S
C473 C472 1.338 . S
C473 H477 0.931 . S
C474 N471 1.313 . S
C474 N475 1.344 . S
C474 H478 0.930 . S
N475 C472 1.377 . S
N475 C474 1.344 . S
O476 Co468 2.055 . S
O476 C480 1.253 . S
H477 C473 0.931 . S
H478 C474 0.930 . S
O479 Co468 2.039 . S
O479 C469 1.265 . S
C480 O476 1.253 . S
C480 O481 1.227 . S
O481 C480 1.227 . S
N482 Co468 2.140 . S
N482 C485 1.346 . S
N482 C486 1.345 . S
C483 C484 1.387 . S
C483 C487 1.391 . S
C484 C483 1.387 . S
C484 C485 1.369 . S
C484 H493 0.929 . S
C485 N482 1.346 . S
C485 C484 1.369 . S
C485 H488 0.928 . S
C486 N482 1.345 . S
C486 C487 1.371 . S
C486 H489 0.931 . S
C487 C483 1.391 . S
C487 C486 1.371 . S
C487 H494 0.930 . S
H488 C485 0.928 . S
H489 C486 0.931 . S
H490 C466 0.930 . S
H491 C463 0.930 . S
H492 C472 0.930 . S
H493 C484 0.929 . S
H494 C487 0.930 . S
C495 C496 1.351 . S
C495 N498 1.368 . S
C495 H500 0.931 . S
C496 C495 1.351 . S
C496 N497 1.373 . S
C496 H524 0.930 . S
N497 C496 1.373 . S
N497 C499 1.340 . S
N498 C495 1.368 . S
N498 C499 1.321 . S
N498 Co501 2.135 . S
C499 N497 1.340 . S
C499 N498 1.321 . S
C499 H523 0.930 . S
H500 C495 0.931 . S
Co501 N498 2.135 . S
Co501 N504 2.121 . S
Co501 O509 2.055 . S
Co501 O512 2.039 . S
Co501 N515 2.140 . S
C502 O503 1.227 . S
C502 O512 1.265 . S
O503 C502 1.227 . S
N504 Co501 2.121 . S
N504 C506 1.375 . S
N504 C507 1.313 . S
C505 C506 1.338 . S
C505 N508 1.377 . S
C505 H525 0.930 . S
C506 N504 1.375 . S
C506 C505 1.338 . S
C506 H510 0.931 . S
C507 N504 1.313 . S
C507 N508 1.344 . S
C507 H511 0.930 . S
N508 C505 1.377 . S
N508 C507 1.344 . S
O509 Co501 2.055 . S
O509 C513 1.253 . S
H510 C506 0.931 . S
H511 C507 0.930 . S
O512 Co501 2.039 . S
O512 C502 1.265 . S
C513 O509 1.253 . S
C513 O514 1.227 . S
O514 C513 1.227 . S
N515 Co501 2.140 . S
N515 C518 1.346 . S
N515 C519 1.345 . S
C516 C517 1.387 . S
C516 C520 1.391 . S
C517 C516 1.387 . S
C517 C518 1.369 . S
C517 H526 0.929 . S
C518 N515 1.346 . S
C518 C517 1.369 . S
C518 H521 0.928 . S
C519 N515 1.345 . S
C519 C520 1.371 . S
C519 H522 0.931 . S
C520 C516 1.391 . S
C520 C519 1.371 . S
C520 H527 0.930 . S
H521 C518 0.928 . S
H522 C519 0.931 . S
H523 C499 0.930 . S
H524 C496 0.930 . S
H525 C505 0.930 . S
H526 C517 0.929 . S
H527 C520 0.930 . S
H528 C536 0.929 . S
H529 C538 0.930 . S
H530 C540 0.930 . S
H531 C543 0.929 . S
H532 C546 0.930 . S
H533 C548 0.960 . S
H534 C548 0.960 . S
H535 C548 0.960 . S
C536 H528 0.929 . S
C536 C537 1.377 . S
C536 C538 1.384 . S
C537 C536 1.377 . S
C537 C543 1.390 1_455 S
C538 H529 0.930 . S
C538 C536 1.384 . S
C538 C539 1.372 . S
C539 C538 1.372 . S
C539 C540 1.400 1_455 S
C539 C544 1.490 . S
C540 H530 0.930 . S
C540 C539 1.400 1_655 S
C540 C543 1.386 . S
H541 C557 0.930 . S
H542 C558 0.931 . S
C543 H531 0.929 . S
C543 C537 1.390 1_655 S
C543 C540 1.386 . S
C544 C539 1.490 . S
C544 C546 1.395 . S
C544 C547 1.403 1_455 S
H545 C551 0.930 . S
C546 H532 0.930 . S
C546 C544 1.395 . S
C546 C549 1.403 1_545 S
C547 C544 1.403 1_655 S
C547 C548 1.524 . S
C547 C551 1.400 1_545 S
C548 H533 0.960 . S
C548 H534 0.960 . S
C548 H535 0.960 . S
C548 C547 1.524 . S
C549 C546 1.403 1_565 S
C549 C550 1.414 . S
C549 C553 1.495 . S
C550 C549 1.414 . S
C550 C551 1.367 1_455 S
C550 C552 1.474 1_455 S
C551 H545 0.930 . S
C551 C547 1.400 1_565 S
C551 C550 1.367 1_655 S
C552 C550 1.474 1_655 S
C552 C554 1.381 1_655 S
C552 C558 1.383 . S
C553 C549 1.495 . S
C553 H559 0.959 . S
C553 H560 0.961 . S
C553 H561 0.960 . S
C554 C552 1.381 1_455 S
C554 C555 1.394 . S
C554 H562 0.930 . S
C555 C554 1.394 . S
C555 C556 1.383 1_455 S
C555 H563 0.929 . S
C556 C555 1.383 1_655 S
C556 C557 1.377 . S
C557 H541 0.930 . S
C557 C556 1.377 . S
C557 C558 1.379 . S
C558 H542 0.931 . S
C558 C552 1.383 . S
C558 C557 1.379 . S
H559 C553 0.959 . S
H560 C553 0.961 . S
H561 C553 0.960 . S
H562 C554 0.930 . S
H563 C555 0.929 . S
H564 C572 0.929 . S
H565 C574 0.930 . S
H566 C576 0.930 . S
H567 C579 0.929 . S
H568 C582 0.930 . S
H569 C584 0.960 . S
H570 C584 0.960 . S
H571 C584 0.960 . S
C572 H564 0.929 . S
C572 C573 1.377 . S
C572 C574 1.384 . S
C573 C572 1.377 . S
C573 C579 1.390 . S
C574 H565 0.930 . S
C574 C572 1.384 . S
C574 C575 1.372 . S
C575 C574 1.372 . S
C575 C576 1.400 . S
C575 C580 1.490 . S
C576 H566 0.930 . S
C576 C575 1.400 . S
C576 C579 1.386 . S
H577 C593 0.930 . S
H578 C594 0.931 . S
C579 H567 0.929 . S
C579 C573 1.390 . S
C579 C576 1.386 . S
C580 C575 1.490 . S
C580 C582 1.395 . S
C580 C583 1.403 1_565 S
H581 C587 0.930 . S
C582 H568 0.930 . S
C582 C580 1.395 . S
C582 C585 1.403 1_455 S
C583 C580 1.403 1_545 S
C583 C584 1.524 . S
C583 C587 1.400 1_455 S
C584 H569 0.960 . S
C584 H570 0.960 . S
C584 H571 0.960 . S
C584 C583 1.524 . S
C585 C582 1.403 1_655 S
C585 C586 1.401 . S
C585 C589 1.495 . S
C586 C585 1.401 . S
C586 C587 1.378 1_565 S
C586 C588 1.476 1_565 S
C587 H581 0.930 . S
C587 C583 1.400 1_655 S
C587 C586 1.378 1_545 S
C588 C586 1.476 1_545 S
C588 C590 1.381 . S
C588 C594 1.383 . S
C589 C585 1.495 . S
C589 H595 0.959 . S
C589 H596 0.961 . S
C589 H597 0.960 . S
C590 C588 1.381 . S
C590 C591 1.394 . S
C590 H598 0.930 . S
C591 C590 1.394 . S
C591 C592 1.383 . S
C591 H599 0.929 . S
C592 C591 1.383 . S
C592 C593 1.377 . S
C593 H577 0.930 . S
C593 C592 1.377 . S
C593 C594 1.379 . S
C594 H578 0.931 . S
C594 C588 1.383 . S
C594 C593 1.379 . S
H595 C589 0.959 . S
H596 C589 0.961 . S
H597 C589 0.960 . S
H598 C590 0.930 . S
H599 C591 0.929 . S
H600 C608 0.929 . S
H601 C610 0.930 . S
H602 C612 0.930 . S
H603 C615 0.929 . S
H604 C618 0.930 . S
H605 C620 0.960 . S
H606 C620 0.960 . S
H607 C620 0.960 . S
C608 H600 0.929 . S
C608 C609 1.377 . S
C608 C610 1.384 . S
C609 C608 1.377 . S
C609 C615 1.390 . S
C610 H601 0.930 . S
C610 C608 1.384 . S
C610 C611 1.372 . S
C611 C610 1.372 . S
C611 C612 1.400 . S
C611 C616 1.490 . S
C612 H602 0.930 . S
C612 C611 1.400 . S
C612 C615 1.386 . S
H613 C629 0.930 . S
H614 C630 0.931 . S
C615 H603 0.929 . S
C615 C609 1.390 . S
C615 C612 1.386 . S
C616 C611 1.490 . S
C616 C618 1.395 . S
C616 C619 1.403 . S
H617 C623 0.930 . S
C618 H604 0.930 . S
C618 C616 1.395 . S
C618 C621 1.403 . S
C619 C616 1.403 . S
C619 C620 1.524 . S
C619 C623 1.400 . S
C620 H605 0.960 . S
C620 H606 0.960 . S
C620 H607 0.960 . S
C620 C619 1.524 . S
C621 C618 1.403 . S
C621 C622 1.392 . S
C621 C625 1.495 . S
C622 C621 1.392 . S
C622 C623 1.385 . S
C622 C624 1.478 . S
C623 H617 0.930 . S
C623 C619 1.400 . S
C623 C622 1.385 . S
C624 C622 1.478 . S
C624 C626 1.381 . S
C624 C630 1.383 . S
C625 C621 1.495 . S
C625 H631 0.959 . S
C625 H632 0.961 . S
C625 H633 0.960 . S
C626 C624 1.381 . S
C626 C627 1.394 . S
C626 H634 0.930 . S
C627 C626 1.394 . S
C627 C628 1.383 . S
C627 H635 0.929 . S
C628 C627 1.383 . S
C628 C629 1.377 . S
C629 H613 0.930 . S
C629 C628 1.377 . S
C629 C630 1.379 . S
C630 H614 0.931 . S
C630 C624 1.383 . S
C630 C629 1.379 . S
H631 C625 0.959 . S
H632 C625 0.961 . S
H633 C625 0.960 . S
H634 C626 0.930 . S
H635 C627 0.929 . S
H636 C644 0.929 . S
H637 C646 0.930 . S
H638 C648 0.930 . S
H639 C651 0.929 . S
H640 C654 0.930 . S
H641 C656 0.960 . S
H642 C656 0.960 . S
H643 C656 0.960 . S
C644 H636 0.929 . S
C644 C645 1.377 . S
C644 C646 1.384 . S
C645 C644 1.377 . S
C645 C651 1.390 . S
C646 H637 0.930 . S
C646 C644 1.384 . S
C646 C647 1.372 . S
C647 C646 1.372 . S
C647 C648 1.400 . S
C647 C652 1.490 . S
C648 H638 0.930 . S
C648 C647 1.400 . S
C648 C651 1.386 . S
H649 C665 0.930 . S
H650 C666 0.931 . S
C651 H639 0.929 . S
C651 C645 1.390 . S
C651 C648 1.386 . S
C652 C647 1.490 . S
C652 C654 1.395 . S
C652 C655 1.403 . S
H653 C659 0.930 . S
C654 H640 0.930 . S
C654 C652 1.395 . S
C654 C657 1.403 . S
C655 C652 1.403 . S
C655 C656 1.524 . S
C655 C659 1.400 . S
C656 H641 0.960 . S
C656 H642 0.960 . S
C656 H643 0.960 . S
C656 C655 1.524 . S
C657 C654 1.403 . S
C657 C658 1.392 . S
C657 C661 1.495 . S
C658 C657 1.392 . S
C658 C659 1.385 . S
C658 C660 1.478 . S
C659 H653 0.930 . S
C659 C655 1.400 . S
C659 C658 1.385 . S
C660 C658 1.478 . S
C660 C662 1.381 . S
C660 C666 1.383 . S
C661 C657 1.495 . S
C661 H667 0.959 . S
C661 H668 0.961 . S
C661 H669 0.960 . S
C662 C660 1.381 . S
C662 C663 1.394 . S
C662 H670 0.930 . S
C663 C662 1.394 . S
C663 C664 1.383 . S
C663 H671 0.929 . S
C664 C663 1.383 . S
C664 C665 1.377 . S
C665 H649 0.930 . S
C665 C664 1.377 . S
C665 C666 1.379 . S
C666 H650 0.931 . S
C666 C660 1.383 . S
C666 C665 1.379 . S
H667 C661 0.959 . S
H668 C661 0.961 . S
H669 C661 0.960 . S
H670 C662 0.930 . S
H671 C663 0.929 . S
H672 C680 0.929 . S
H673 C682 0.930 . S
H674 C684 0.930 . S
H675 C687 0.929 . S
H676 C690 0.930 . S
H677 C692 0.960 . S
H678 C692 0.960 . S
H679 C692 0.960 . S
C680 H672 0.929 . S
C680 C681 1.377 . S
C680 C682 1.384 . S
C681 C680 1.377 . S
C681 C687 1.390 1_455 S
C682 H673 0.930 . S
C682 C680 1.384 . S
C682 C683 1.372 . S
C683 C682 1.372 . S
C683 C684 1.400 1_455 S
C683 C688 1.490 . S
C684 H674 0.930 . S
C684 C683 1.400 1_655 S
C684 C687 1.386 . S
H685 C701 0.930 . S
H686 C702 0.931 . S
C687 H675 0.929 . S
C687 C681 1.390 1_655 S
C687 C684 1.386 . S
C688 C683 1.490 . S
C688 C690 1.395 . S
C688 C691 1.403 1_455 S
H689 C695 0.930 . S
C690 H676 0.930 . S
C690 C688 1.395 . S
C690 C693 1.403 1_545 S
C691 C688 1.403 1_655 S
C691 C692 1.524 . S
C691 C695 1.400 1_545 S
C692 H677 0.960 . S
C692 H678 0.960 . S
C692 H679 0.960 . S
C692 C691 1.524 . S
C693 C690 1.403 1_565 S
C693 C694 1.412 . S
C693 C697 1.495 . S
C694 C693 1.412 . S
C694 C695 1.369 1_455 S
C694 C696 1.474 1_455 S
C695 H689 0.930 . S
C695 C691 1.400 1_565 S
C695 C694 1.369 1_655 S
C696 C694 1.474 1_655 S
C696 C698 1.381 1_655 S
C696 C702 1.383 . S
C697 C693 1.495 . S
C697 H703 0.959 . S
C697 H704 0.961 . S
C697 H705 0.960 . S
C698 C696 1.381 1_455 S
C698 C699 1.394 . S
C698 H706 0.930 . S
C699 C698 1.394 . S
C699 C700 1.383 1_455 S
C699 H707 0.929 . S
C700 C699 1.383 1_655 S
C700 C701 1.377 . S
C701 H685 0.930 . S
C701 C700 1.377 . S
C701 C702 1.379 . S
C702 H686 0.931 . S
C702 C696 1.383 . S
C702 C701 1.379 . S
H703 C697 0.959 . S
H704 C697 0.961 . S
H705 C697 0.960 . S
H706 C698 0.930 . S
H707 C699 0.929 . S
H708 C716 0.914 1_545 S
H709 C718 0.930 . S
H710 C720 0.930 . S
H711 C723 0.929 . S
H712 C726 0.930 . S
H713 C728 0.982 . S
H714 C728 0.960 . S
H715 C728 0.960 . S
C716 H708 0.914 1_565 S
C716 C717 1.399 . S
C716 C718 1.378 1_565 S
C717 C716 1.399 . S
C717 C723 1.390 . S
C718 H709 0.930 . S
C718 C716 1.378 1_545 S
C718 C719 1.372 1_545 S
C719 C718 1.372 1_565 S
C719 C720 1.400 . S
C719 C724 1.490 . S
C720 H710 0.930 . S
C720 C719 1.400 . S
C720 C723 1.386 . S
H721 C737 0.930 1_565 S
H722 C738 0.931 1_565 S
C723 H711 0.929 . S
C723 C717 1.390 . S
C723 C720 1.386 . S
C724 C719 1.490 . S
C724 C726 1.395 1_565 S
C724 C727 1.403 . S
H725 C731 0.930 . S
C726 H712 0.930 . S
C726 C724 1.395 1_545 S
C726 C729 1.403 1_455 S
C727 C724 1.403 . S
C727 C728 1.524 . S
C727 C731 1.400 1_455 S
C728 H713 0.982 . S
C728 H714 0.960 . S
C728 H715 0.960 . S
C728 C727 1.524 . S
C729 C726 1.403 1_655 S
C729 C730 1.392 . S
C729 C733 1.495 . S
C730 C729 1.392 . S
C730 C731 1.385 1_545 S
C730 C732 1.478 . S
C731 H725 0.930 . S
C731 C727 1.400 1_655 S
C731 C730 1.385 1_565 S
C732 C730 1.478 . S
C732 C734 1.381 . S
C732 C738 1.383 . S
C733 C729 1.495 . S
C733 H739 0.986 . S
C733 H740 0.961 . S
C733 H741 0.960 . S
C734 C732 1.381 . S
C734 C735 1.394 . S
C734 H742 0.930 . S
C735 C734 1.394 . S
C735 C736 1.383 . S
C735 H743 0.929 . S
C736 C735 1.383 . S
C736 C737 1.377 . S
C737 H721 0.930 1_545 S
C737 C736 1.377 . S
C737 C738 1.379 . S
C738 H722 0.931 1_545 S
C738 C732 1.383 . S
C738 C737 1.379 . S
H739 C733 0.986 . S
H740 C733 0.961 . S
H741 C733 0.960 . S
H742 C734 0.930 . S
H743 C735 0.929 . S
H744 C752 0.929 . S
H745 C754 0.930 . S
H746 C756 0.930 . S
H747 C759 0.929 . S
H748 C762 0.930 . S
H749 C764 0.960 . S
H750 C764 0.960 . S
H751 C764 0.960 . S
C752 H744 0.929 . S
C752 C753 1.377 . S
C752 C754 1.384 . S
C753 C752 1.377 . S
C753 C759 1.390 . S
C754 H745 0.930 . S
C754 C752 1.384 . S
C754 C755 1.372 . S
C755 C754 1.372 . S
C755 C756 1.400 . S
C755 C760 1.490 . S
C756 H746 0.930 . S
C756 C755 1.400 . S
C756 C759 1.386 . S
H757 C773 0.930 . S
H758 C774 0.931 . S
C759 H747 0.929 . S
C759 C753 1.390 . S
C759 C756 1.386 . S
C760 C755 1.490 . S
C760 C762 1.395 . S
C760 C763 1.403 . S
H761 C767 0.930 . S
C762 H748 0.930 . S
C762 C760 1.395 . S
C762 C765 1.403 . S
C763 C760 1.403 . S
C763 C764 1.524 . S
C763 C767 1.400 . S
C764 H749 0.960 . S
C764 H750 0.960 . S
C764 H751 0.960 . S
C764 C763 1.524 . S
C765 C762 1.403 . S
C765 C766 1.392 . S
C765 C769 1.495 . S
C766 C765 1.392 . S
C766 C767 1.385 . S
C766 C768 1.478 . S
C767 H761 0.930 . S
C767 C763 1.400 . S
C767 C766 1.385 . S
C768 C766 1.478 . S
C768 C770 1.381 . S
C768 C774 1.383 . S
C769 C765 1.495 . S
C769 H775 0.959 . S
C769 H776 0.961 . S
C769 H777 0.960 . S
C770 C768 1.381 . S
C770 C771 1.394 . S
C770 H778 0.930 . S
C771 C770 1.394 . S
C771 C772 1.383 . S
C771 H779 0.929 . S
C772 C771 1.383 . S
C772 C773 1.377 . S
C773 H757 0.930 . S
C773 C772 1.377 . S
C773 C774 1.379 . S
C774 H758 0.931 . S
C774 C768 1.383 . S
C774 C773 1.379 . S
H775 C769 0.959 . S
H776 C769 0.961 . S
H777 C769 0.960 . S
H778 C770 0.930 . S
H779 C771 0.929 . S
H780 C788 0.929 . S
H781 C790 0.930 . S
H782 C792 0.930 . S
H783 C795 0.929 . S
H784 C798 0.930 . S
H785 C800 0.960 . S
H786 C800 0.960 . S
H787 C800 0.960 . S
C788 H780 0.929 . S
C788 C789 1.377 . S
C788 C790 1.384 . S
C789 C788 1.377 . S
C789 C795 1.390 . S
C790 H781 0.930 . S
C790 C788 1.384 . S
C790 C791 1.372 . S
C791 C790 1.372 . S
C791 C792 1.400 . S
C791 C796 1.490 . S
C792 H782 0.930 . S
C792 C791 1.400 . S
C792 C795 1.386 . S
H793 C809 0.930 . S
H794 C810 0.931 . S
C795 H783 0.929 . S
C795 C789 1.390 . S
C795 C792 1.386 . S
C796 C791 1.490 . S
C796 C798 1.395 . S
C796 C799 1.403 . S
H797 C803 0.930 . S
C798 H784 0.930 . S
C798 C796 1.395 . S
C798 C801 1.403 . S
C799 C796 1.403 . S
C799 C800 1.524 . S
C799 C803 1.400 . S
C800 H785 0.960 . S
C800 H786 0.960 . S
C800 H787 0.960 . S
C800 C799 1.524 . S
C801 C798 1.403 . S
C801 C802 1.392 . S
C801 C805 1.495 . S
C802 C801 1.392 . S
C802 C803 1.385 . S
C802 C804 1.478 . S
C803 H797 0.930 . S
C803 C799 1.400 . S
C803 C802 1.385 . S
C804 C802 1.478 . S
C804 C806 1.381 . S
C804 C810 1.383 . S
C805 C801 1.495 . S
C805 H811 0.959 . S
C805 H812 0.961 . S
C805 H813 0.960 . S
C806 C804 1.381 . S
C806 C807 1.394 . S
C806 H814 0.930 . S
C807 C806 1.394 . S
C807 C808 1.383 . S
C807 H815 0.929 . S
C808 C807 1.383 . S
C808 C809 1.377 . S
C809 H793 0.930 . S
C809 C808 1.377 . S
C809 C810 1.379 . S
C810 H794 0.931 . S
C810 C804 1.383 . S
C810 C809 1.379 . S
H811 C805 0.959 . S
H812 C805 0.961 . S
H813 C805 0.960 . S
H814 C806 0.930 . S
H815 C807 0.929 . S
H816 C824 0.929 1_655 S
H817 C826 0.930 1_655 S
H818 C828 0.930 . S
H819 C831 0.929 . S
H820 C834 0.930 . S
H821 C836 0.960 . S
H822 C836 0.960 . S
H823 C836 0.960 . S
C824 H816 0.929 1_455 S
C824 C825 1.377 . S
C824 C826 1.384 . S
C825 C824 1.377 . S
C825 C831 1.390 . S
C826 H817 0.930 1_455 S
C826 C824 1.384 . S
C826 C827 1.372 . S
C827 C826 1.372 . S
C827 C828 1.400 . S
C827 C832 1.490 . S
C828 H818 0.930 . S
C828 C827 1.400 . S
C828 C831 1.386 . S
H829 C845 0.930 . S
H830 C846 0.931 . S
C831 H819 0.929 . S
C831 C825 1.390 . S
C831 C828 1.386 . S
C832 C827 1.490 . S
C832 C834 1.395 1_455 S
C832 C835 1.403 . S
H833 C839 0.930 . S
C834 H820 0.930 . S
C834 C832 1.395 1_655 S
C834 C837 1.403 1_554 S
C835 C832 1.403 . S
C835 C836 1.524 . S
C835 C839 1.400 1_554 S
C836 H821 0.960 . S
C836 H822 0.960 . S
C836 H823 0.960 . S
C836 C835 1.524 . S
C837 C834 1.403 1_556 S
C837 C838 1.392 1_655 S
C837 C841 1.495 . S
C838 C837 1.392 1_455 S
C838 C839 1.385 . S
C838 C840 1.478 . S
C839 H833 0.930 . S
C839 C835 1.400 1_556 S
C839 C838 1.385 . S
C840 C838 1.478 . S
C840 C842 1.381 . S
C840 C846 1.383 . S
C841 C837 1.495 . S
C841 H847 0.959 . S
C841 H848 0.961 . S
C841 H849 0.960 . S
C842 C840 1.381 . S
C842 C843 1.394 . S
C842 H850 0.930 1_455 S
C843 C842 1.394 . S
C843 C844 1.383 . S
C843 H851 0.929 1_455 S
C844 C843 1.383 . S
C844 C845 1.377 . S
C845 H829 0.930 . S
C845 C844 1.377 . S
C845 C846 1.379 . S
C846 H830 0.931 . S
C846 C840 1.383 . S
C846 C845 1.379 . S
H847 C841 0.959 . S
H848 C841 0.961 . S
H849 C841 0.960 . S
H850 C842 0.930 1_655 S
H851 C843 0.929 1_655 S
H852 C860 0.929 . S
H853 C862 0.930 . S
H854 C864 0.930 1_565 S
H855 C867 0.929 1_565 S
H856 C870 0.930 . S
H857 C872 0.960 . S
H858 C872 0.960 . S
H859 C872 0.960 . S
C860 H852 0.929 . S
C860 C861 1.377 . S
C860 C862 1.384 . S
C861 C860 1.377 . S
C861 C867 1.390 . S
C862 H853 0.930 . S
C862 C860 1.384 . S
C862 C863 1.372 . S
C863 C862 1.372 . S
C863 C864 1.400 . S
C863 C868 1.490 . S
C864 H854 0.930 1_545 S
C864 C863 1.400 . S
C864 C867 1.386 . S
H865 C881 0.911 1_565 S
H866 C882 0.931 1_565 S
C867 H855 0.929 1_545 S
C867 C861 1.390 . S
C867 C864 1.386 . S
C868 C863 1.490 . S
C868 C870 1.395 . S
C868 C871 1.403 . S
H869 C875 0.930 . S
C870 H856 0.930 . S
C870 C868 1.395 . S
C870 C873 1.403 . S
C871 C868 1.403 . S
C871 C872 1.524 . S
C871 C875 1.400 . S
C872 H857 0.960 . S
C872 H858 0.960 . S
C872 H859 0.960 . S
C872 C871 1.524 . S
C873 C870 1.403 . S
C873 C874 1.392 . S
C873 C877 1.495 . S
C874 C873 1.392 . S
C874 C875 1.385 . S
C874 C876 1.478 . S
C875 H869 0.930 . S
C875 C871 1.400 . S
C875 C874 1.385 . S
C876 C874 1.478 . S
C876 C878 1.381 . S
C876 C882 1.383 . S
C877 C873 1.495 . S
C877 H883 0.959 . S
C877 H884 0.961 . S
C877 H885 0.960 . S
C878 C876 1.381 . S
C878 C879 1.394 . S
C878 H886 0.930 . S
C879 C878 1.394 . S
C879 C880 1.383 . S
C879 H887 0.929 . S
C880 C879 1.383 . S
C880 C881 1.394 . S
C881 H865 0.911 1_545 S
C881 C880 1.394 . S
C881 C882 1.380 . S
C882 H866 0.931 1_545 S
C882 C876 1.383 . S
C882 C881 1.380 . S
H883 C877 0.959 . S
H884 C877 0.961 . S
H885 C877 0.960 . S
H886 C878 0.930 . S
H887 C879 0.929 . S
H888 C896 0.929 . S
H889 C898 0.930 . S
H890 C900 0.930 . S
H891 C903 0.929 . S
H892 C906 0.930 . S
H893 C908 0.960 . S
H894 C908 0.960 . S
H895 C908 0.960 . S
C896 H888 0.929 . S
C896 C897 1.377 . S
C896 C898 1.384 . S
C897 C896 1.377 . S
C897 C903 1.390 . S
C898 H889 0.930 . S
C898 C896 1.384 . S
C898 C899 1.372 . S
C899 C898 1.372 . S
C899 C900 1.400 . S
C899 C904 1.490 . S
C900 H890 0.930 . S
C900 C899 1.400 . S
C900 C903 1.386 . S
H901 C917 0.930 1_455 S
H902 C918 0.931 1_455 S
C903 H891 0.929 . S
C903 C897 1.390 . S
C903 C900 1.386 . S
C904 C899 1.490 . S
C904 C906 1.395 . S
C904 C907 1.403 . S
H905 C911 0.930 . S
C906 H892 0.930 . S
C906 C904 1.395 . S
C906 C909 1.403 1_556 S
C907 C904 1.403 . S
C907 C908 1.524 . S
C907 C911 1.400 1_556 S
C908 H893 0.960 . S
C908 H894 0.960 . S
C908 H895 0.960 . S
C908 C907 1.524 . S
C909 C906 1.403 1_554 S
C909 C910 1.392 . S
C909 C913 1.495 1_655 S
C910 C909 1.392 . S
C910 C911 1.385 . S
C910 C912 1.478 . S
C911 H905 0.930 . S
C911 C907 1.400 1_554 S
C911 C910 1.385 . S
C912 C910 1.478 . S
C912 C914 1.381 . S
C912 C918 1.383 . S
C913 C909 1.495 1_455 S
C913 H919 0.959 . S
C913 H920 0.961 . S
C913 H921 0.960 1_455 S
C914 C912 1.381 . S
C914 C915 1.394 . S
C914 H922 0.930 . S
C915 C914 1.394 . S
C915 C916 1.383 . S
C915 H923 0.929 . S
C916 C915 1.383 . S
C916 C917 1.377 . S
C917 H901 0.930 1_655 S
C917 C916 1.377 . S
C917 C918 1.379 . S
C918 H902 0.931 1_655 S
C918 C912 1.383 . S
C918 C917 1.379 . S
H919 C913 0.959 . S
H920 C913 0.961 . S
H921 C913 0.960 1_655 S
H922 C914 0.930 . S
H923 C915 0.929 . S
H924 C932 0.929 . S
H925 C934 0.930 . S
H926 C936 0.930 . S
H927 C939 0.929 . S
H928 C942 0.930 1_545 S
H929 C944 0.960 . S
H930 C944 0.960 . S
H931 C944 0.960 . S
C932 H924 0.929 . S
C932 C933 1.377 . S
C932 C934 1.384 . S
C933 C932 1.377 . S
C933 C939 1.390 . S
C934 H925 0.930 . S
C934 C932 1.384 . S
C934 C935 1.372 . S
C935 C934 1.372 . S
C935 C936 1.400 . S
C935 C940 1.490 . S
C936 H926 0.930 . S
C936 C935 1.400 . S
C936 C939 1.386 . S
H937 C953 0.930 . S
H938 C954 0.931 . S
C939 H927 0.929 . S
C939 C933 1.390 . S
C939 C936 1.386 . S
C940 C935 1.490 . S
C940 C942 1.395 . S
C940 C943 1.403 . S
H941 C947 0.930 . S
C942 H928 0.930 1_565 S
C942 C940 1.395 . S
C942 C945 1.403 . S
C943 C940 1.403 . S
C943 C944 1.524 . S
C943 C947 1.400 . S
C944 H929 0.960 . S
C944 H930 0.960 . S
C944 H931 0.960 . S
C944 C943 1.524 . S
C945 C942 1.403 . S
C945 C946 1.392 . S
C945 C949 1.495 1_565 S
C946 C945 1.392 . S
C946 C947 1.385 . S
C946 C948 1.478 . S
C947 H941 0.930 . S
C947 C943 1.400 . S
C947 C946 1.385 . S
C948 C946 1.478 . S
C948 C950 1.381 . S
C948 C954 1.383 . S
C949 C945 1.495 1_545 S
C949 H955 0.959 . S
C949 H956 0.961 . S
C949 H957 0.960 . S
C950 C948 1.381 . S
C950 C951 1.394 . S
C950 H958 0.930 . S
C951 C950 1.394 . S
C951 C952 1.383 . S
C951 H959 0.929 . S
C952 C951 1.383 . S
C952 C953 1.377 . S
C953 H937 0.930 . S
C953 C952 1.377 . S
C953 C954 1.379 . S
C954 H938 0.931 . S
C954 C948 1.383 . S
C954 C953 1.379 . S
H955 C949 0.959 . S
H956 C949 0.961 . S
H957 C949 0.960 . S
H958 C950 0.930 . S
H959 C951 0.929 . S
H960 C968 0.929 . S
H961 C970 0.930 . S
H962 C972 0.930 . S
H963 C975 0.929 . S
H964 C978 0.930 . S
H965 C980 0.960 . S
H966 C980 0.960 . S
H967 C980 0.960 . S
C968 H960 0.929 . S
C968 C969 1.377 . S
C968 C970 1.384 . S
C969 C968 1.377 . S
C969 C975 1.390 . S
C970 H961 0.930 . S
C970 C968 1.384 . S
C970 C971 1.372 . S
C971 C970 1.372 . S
C971 C972 1.400 . S
C971 C976 1.490 . S
C972 H962 0.930 . S
C972 C971 1.400 . S
C972 C975 1.386 . S
H973 C989 0.930 . S
H974 C990 0.931 . S
C975 H963 0.929 . S
C975 C969 1.390 . S
C975 C972 1.386 . S
C976 C971 1.490 . S
C976 C978 1.395 . S
C976 C979 1.403 . S
H977 C983 0.930 . S
C978 H964 0.930 . S
C978 C976 1.395 . S
C978 C981 1.403 1_554 S
C979 C976 1.403 . S
C979 C980 1.524 . S
C979 C983 1.400 1_554 S
C980 H965 0.960 . S
C980 H966 0.960 . S
C980 H967 0.960 . S
C980 C979 1.524 . S
C981 C978 1.403 1_556 S
C981 C982 1.392 . S
C981 C985 1.495 . S
C982 C981 1.392 . S
C982 C983 1.385 . S
C982 C984 1.478 . S
C983 H977 0.930 . S
C983 C979 1.400 1_556 S
C983 C982 1.385 . S
C984 C982 1.478 . S
C984 C986 1.381 . S
C984 C990 1.383 . S
C985 C981 1.495 . S
C985 H991 0.959 . S
C985 H992 0.961 . S
C985 H993 0.960 . S
C986 C984 1.381 . S
C986 C987 1.394 . S
C986 H994 0.930 . S
C987 C986 1.394 . S
C987 C988 1.383 . S
C987 H995 0.929 . S
C988 C987 1.383 . S
C988 C989 1.377 . S
C989 H973 0.930 . S
C989 C988 1.377 . S
C989 C990 1.379 . S
C990 H974 0.931 . S
C990 C984 1.383 . S
C990 C989 1.379 . S
H991 C985 0.959 . S
H992 C985 0.961 . S
H993 C985 0.960 . S
H994 C986 0.930 . S
H995 C987 0.929 . S
H996 C1004 0.929 . S
H997 C1006 0.930 . S
H998 C1008 0.930 . S
H999 C1011 0.929 . S
H1000 C1014 0.930 . S
H1001 C1016 0.960 . S
H1002 C1016 0.960 . S
H1003 C1016 0.960 . S
C1004 H996 0.929 . S
C1004 C1005 1.377 . S
C1004 C1006 1.384 . S
C1005 C1004 1.377 . S
C1005 C1011 1.390 . S
C1006 H997 0.930 . S
C1006 C1004 1.384 . S
C1006 C1007 1.372 . S
C1007 C1006 1.372 . S
C1007 C1008 1.400 . S
C1007 C1012 1.490 . S
C1008 H998 0.930 . S
C1008 C1007 1.400 . S
C1008 C1011 1.386 . S
H1009 C1025 0.930 . S
H1010 C1026 0.931 . S
C1011 H999 0.929 . S
C1011 C1005 1.390 . S
C1011 C1008 1.386 . S
C1012 C1007 1.490 . S
C1012 C1014 1.395 . S
C1012 C1015 1.403 . S
H1013 C1019 0.930 . S
C1014 H1000 0.930 . S
C1014 C1012 1.395 . S
C1014 C1017 1.403 . S
C1015 C1012 1.403 . S
C1015 C1016 1.524 . S
C1015 C1019 1.400 . S
C1016 H1001 0.960 . S
C1016 H1002 0.960 . S
C1016 H1003 0.960 . S
C1016 C1015 1.524 . S
C1017 C1014 1.403 . S
C1017 C1018 1.392 . S
C1017 C1021 1.495 . S
C1018 C1017 1.392 . S
C1018 C1019 1.385 . S
C1018 C1020 1.478 . S
C1019 H1013 0.930 . S
C1019 C1015 1.400 . S
C1019 C1018 1.385 . S
C1020 C1018 1.478 . S
C1020 C1022 1.381 . S
C1020 C1026 1.383 . S
C1021 C1017 1.495 . S
C1021 H1027 0.959 . S
C1021 H1028 0.961 . S
C1021 H1029 0.960 . S
C1022 C1020 1.381 . S
C1022 C1023 1.394 . S
C1022 H1030 0.930 . S
C1023 C1022 1.394 . S
C1023 C1024 1.383 . S
C1023 H1031 0.929 . S
C1024 C1023 1.383 . S
C1024 C1025 1.377 . S
C1025 H1009 0.930 . S
C1025 C1024 1.377 . S
C1025 C1026 1.379 . S
C1026 H1010 0.931 . S
C1026 C1020 1.383 . S
C1026 C1025 1.379 . S
H1027 C1021 0.959 . S
H1028 C1021 0.961 . S
H1029 C1021 0.960 . S
H1030 C1022 0.930 . S
H1031 C1023 0.929 . S
H1032 C1040 0.929 . S
H1033 C1042 0.930 . S
H1034 C1044 0.930 . S
H1035 C1047 0.929 . S
H1036 C1050 0.930 . S
H1037 C1052 0.960 . S
H1038 C1052 0.960 . S
H1039 C1052 0.960 . S
C1040 H1032 0.929 . S
C1040 C1041 1.377 . S
C1040 C1042 1.384 . S
C1041 C1040 1.377 . S
C1041 C1047 1.390 . S
C1042 H1033 0.930 . S
C1042 C1040 1.384 . S
C1042 C1043 1.372 . S
C1043 C1042 1.372 . S
C1043 C1044 1.400 . S
C1043 C1048 1.490 . S
C1044 H1034 0.930 . S
C1044 C1043 1.400 . S
C1044 C1047 1.386 . S
H1045 C1061 0.930 . S
H1046 C1062 0.931 . S
C1047 H1035 0.929 . S
C1047 C1041 1.390 . S
C1047 C1044 1.386 . S
C1048 C1043 1.490 . S
C1048 C1050 1.395 . S
C1048 C1051 1.403 . S
H1049 C1055 0.930 . S
C1050 H1036 0.930 . S
C1050 C1048 1.395 . S
C1050 C1053 1.403 1_554 S
C1051 C1048 1.403 . S
C1051 C1052 1.524 . S
C1051 C1055 1.400 1_554 S
C1052 H1037 0.960 . S
C1052 H1038 0.960 . S
C1052 H1039 0.960 . S
C1052 C1051 1.524 . S
C1053 C1050 1.403 1_556 S
C1053 C1054 1.392 . S
C1053 C1057 1.495 . S
C1054 C1053 1.392 . S
C1054 C1055 1.385 . S
C1054 C1056 1.478 . S
C1055 H1049 0.930 . S
C1055 C1051 1.400 1_556 S
C1055 C1054 1.385 . S
C1056 C1054 1.478 . S
C1056 C1058 1.381 . S
C1056 C1062 1.383 . S
C1057 C1053 1.495 . S
C1057 H1063 0.959 . S
C1057 H1064 0.961 . S
C1057 H1065 0.960 . S
C1058 C1056 1.381 . S
C1058 C1059 1.394 . S
C1058 H1066 0.930 . S
C1059 C1058 1.394 . S
C1059 C1060 1.383 . S
C1059 H1067 0.929 . S
C1060 C1059 1.383 . S
C1060 C1061 1.377 . S
C1061 H1045 0.930 . S
C1061 C1060 1.377 . S
C1061 C1062 1.379 . S
C1062 H1046 0.931 . S
C1062 C1056 1.383 . S
C1062 C1061 1.379 . S
H1063 C1057 0.959 . S
H1064 C1057 0.961 . S
H1065 C1057 0.960 . S
H1066 C1058 0.930 . S
H1067 C1059 0.929 . S
H1068 C1076 0.929 . S
H1069 C1078 0.930 . S
H1070 C1080 0.930 . S
H1071 C1083 0.929 . S
H1072 C1086 0.930 . S
H1073 C1088 0.960 . S
H1074 C1088 0.960 . S
H1075 C1088 0.960 . S
C1076 H1068 0.929 . S
C1076 C1077 1.377 . S
C1076 C1078 1.384 . S
C1077 C1076 1.377 . S
C1077 C1083 1.390 . S
C1078 H1069 0.930 . S
C1078 C1076 1.384 . S
C1078 C1079 1.372 . S
C1079 C1078 1.372 . S
C1079 C1080 1.400 . S
C1079 C1084 1.490 . S
C1080 H1070 0.930 . S
C1080 C1079 1.400 . S
C1080 C1083 1.386 . S
H1081 C1097 0.930 . S
H1082 C1098 0.931 . S
C1083 H1071 0.929 . S
C1083 C1077 1.390 . S
C1083 C1080 1.386 . S
C1084 C1079 1.490 . S
C1084 C1086 1.395 . S
C1084 C1087 1.403 . S
H1085 C1091 0.930 . S
C1086 H1072 0.930 . S
C1086 C1084 1.395 . S
C1086 C1089 1.403 . S
C1087 C1084 1.403 . S
C1087 C1088 1.524 . S
C1087 C1091 1.400 . S
C1088 H1073 0.960 . S
C1088 H1074 0.960 . S
C1088 H1075 0.960 . S
C1088 C1087 1.524 . S
C1089 C1086 1.403 . S
C1089 C1090 1.392 . S
C1089 C1093 1.495 . S
C1090 C1089 1.392 . S
C1090 C1091 1.385 . S
C1090 C1092 1.478 . S
C1091 H1085 0.930 . S
C1091 C1087 1.400 . S
C1091 C1090 1.385 . S
C1092 C1090 1.478 . S
C1092 C1094 1.381 . S
C1092 C1098 1.383 . S
C1093 C1089 1.495 . S
C1093 H1099 0.959 . S
C1093 H1100 0.961 . S
C1093 H1101 0.960 . S
C1094 C1092 1.381 . S
C1094 C1095 1.394 . S
C1094 H1102 0.930 . S
C1095 C1094 1.394 . S
C1095 C1096 1.383 . S
C1095 H1103 0.929 . S
C1096 C1095 1.383 . S
C1096 C1097 1.377 . S
C1097 H1081 0.930 . S
C1097 C1096 1.377 . S
C1097 C1098 1.379 . S
C1098 H1082 0.931 . S
C1098 C1092 1.383 . S
C1098 C1097 1.379 . S
H1099 C1093 0.959 . S
H1100 C1093 0.961 . S
H1101 C1093 0.960 . S
H1102 C1094 0.930 . S
H1103 C1095 0.929 . S
H1104 C1112 0.929 . S
H1105 C1114 0.930 . S
H1106 C1116 0.930 . S
H1107 C1119 0.929 . S
H1108 C1122 0.930 . S
H1109 C1124 0.960 . S
H1110 C1124 0.960 . S
H1111 C1124 0.960 . S
C1112 H1104 0.929 . S
C1112 C1113 1.377 . S
C1112 C1114 1.384 . S
C1113 C1112 1.377 . S
C1113 C1119 1.390 . S
C1114 H1105 0.930 . S
C1114 C1112 1.384 . S
C1114 C1115 1.372 . S
C1115 C1114 1.372 . S
C1115 C1116 1.400 . S
C1115 C1120 1.490 . S
C1116 H1106 0.930 . S
C1116 C1115 1.400 . S
C1116 C1119 1.386 . S
H1117 C1133 0.930 . S
H1118 C1134 0.931 . S
C1119 H1107 0.929 . S
C1119 C1113 1.390 . S
C1119 C1116 1.386 . S
C1120 C1115 1.490 . S
C1120 C1122 1.395 . S
C1120 C1123 1.403 . S
H1121 C1127 0.930 . S
C1122 H1108 0.930 . S
C1122 C1120 1.395 . S
C1122 C1125 1.403 . S
C1123 C1120 1.403 . S
C1123 C1124 1.524 . S
C1123 C1127 1.400 . S
C1124 H1109 0.960 . S
C1124 H1110 0.960 . S
C1124 H1111 0.960 . S
C1124 C1123 1.524 . S
C1125 C1122 1.403 . S
C1125 C1126 1.392 . S
C1125 C1129 1.495 . S
C1126 C1125 1.392 . S
C1126 C1127 1.385 . S
C1126 C1128 1.478 . S
C1127 H1121 0.930 . S
C1127 C1123 1.400 . S
C1127 C1126 1.385 . S
C1128 C1126 1.478 . S
C1128 C1130 1.381 . S
C1128 C1134 1.383 . S
C1129 C1125 1.495 . S
C1129 H1135 0.959 . S
C1129 H1136 0.961 . S
C1129 H1137 0.960 . S
C1130 C1128 1.381 . S
C1130 C1131 1.394 . S
C1130 H1138 0.930 . S
C1131 C1130 1.394 . S
C1131 C1132 1.383 . S
C1131 H1139 0.929 . S
C1132 C1131 1.383 . S
C1132 C1133 1.377 . S
C1133 H1117 0.930 . S
C1133 C1132 1.377 . S
C1133 C1134 1.379 . S
C1134 H1118 0.931 . S
C1134 C1128 1.383 . S
C1134 C1133 1.379 . S
H1135 C1129 0.959 . S
H1136 C1129 0.961 . S
H1137 C1129 0.960 . S
H1138 C1130 0.930 . S
H1139 C1131 0.929 . S
H1140 C1148 0.929 . S
H1141 C1150 0.930 . S
H1142 C1152 0.930 . S
H1143 C1155 0.929 . S
H1144 C1158 0.930 . S
H1145 C1160 0.960 . S
H1146 C1160 0.960 . S
H1147 C1160 0.960 . S
C1148 H1140 0.929 . S
C1148 C1149 1.377 . S
C1148 C1150 1.384 . S
C1149 C1148 1.377 . S
C1149 C1155 1.390 . S
C1150 H1141 0.930 . S
C1150 C1148 1.384 . S
C1150 C1151 1.372 . S
C1151 C1150 1.372 . S
C1151 C1152 1.400 . S
C1151 C1156 1.490 . S
C1152 H1142 0.930 . S
C1152 C1151 1.400 . S
C1152 C1155 1.386 . S
H1153 C1169 0.930 . S
H1154 C1170 0.931 . S
C1155 H1143 0.929 . S
C1155 C1149 1.390 . S
C1155 C1152 1.386 . S
C1156 C1151 1.490 . S
C1156 C1158 1.395 . S
C1156 C1159 1.403 . S
H1157 C1163 0.930 . S
C1158 H1144 0.930 . S
C1158 C1156 1.395 . S
C1158 C1161 1.403 . S
C1159 C1156 1.403 . S
C1159 C1160 1.524 . S
C1159 C1163 1.400 . S
C1160 H1145 0.960 . S
C1160 H1146 0.960 . S
C1160 H1147 0.960 . S
C1160 C1159 1.524 . S
C1161 C1158 1.403 . S
C1161 C1162 1.392 . S
C1161 C1165 1.495 . S
C1162 C1161 1.392 . S
C1162 C1163 1.385 . S
C1162 C1164 1.478 . S
C1163 H1157 0.930 . S
C1163 C1159 1.400 . S
C1163 C1162 1.385 . S
C1164 C1162 1.478 . S
C1164 C1166 1.381 . S
C1164 C1170 1.383 . S
C1165 C1161 1.495 . S
C1165 H1171 0.959 . S
C1165 H1172 0.961 . S
C1165 H1173 0.960 . S
C1166 C1164 1.381 . S
C1166 C1167 1.394 . S
C1166 H1174 0.930 . S
C1167 C1166 1.394 . S
C1167 C1168 1.383 . S
C1167 H1175 0.929 . S
C1168 C1167 1.383 . S
C1168 C1169 1.377 . S
C1169 H1153 0.930 . S
C1169 C1168 1.377 . S
C1169 C1170 1.379 . S
C1170 H1154 0.931 . S
C1170 C1164 1.383 . S
C1170 C1169 1.379 . S
H1171 C1165 0.959 . S
H1172 C1165 0.961 . S
H1173 C1165 0.960 . S
H1174 C1166 0.930 . S
H1175 C1167 0.929 . S
H1176 C1184 0.929 . S
H1177 C1186 0.930 . S
H1178 C1188 0.930 . S
H1179 C1191 0.929 . S
H1180 C1194 0.930 . S
H1181 C1196 0.960 . S
H1182 C1196 0.960 . S
H1183 C1196 0.960 . S
C1184 H1176 0.929 . S
C1184 C1185 1.377 . S
C1184 C1186 1.384 . S
C1185 C1184 1.377 . S
C1185 C1191 1.390 . S
C1186 H1177 0.930 . S
C1186 C1184 1.384 . S
C1186 C1187 1.372 . S
C1187 C1186 1.372 . S
C1187 C1188 1.400 . S
C1187 C1192 1.490 . S
C1188 H1178 0.930 . S
C1188 C1187 1.400 . S
C1188 C1191 1.386 . S
H1189 C1205 0.930 . S
H1190 C1206 0.931 . S
C1191 H1179 0.929 . S
C1191 C1185 1.390 . S
C1191 C1188 1.386 . S
C1192 C1187 1.490 . S
C1192 C1194 1.395 . S
C1192 C1195 1.403 . S
H1193 C1199 0.930 . S
C1194 H1180 0.930 . S
C1194 C1192 1.395 . S
C1194 C1197 1.403 . S
C1195 C1192 1.403 . S
C1195 C1196 1.524 . S
C1195 C1199 1.400 . S
C1196 H1181 0.960 . S
C1196 H1182 0.960 . S
C1196 H1183 0.960 . S
C1196 C1195 1.524 . S
C1197 C1194 1.403 . S
C1197 C1198 1.392 . S
C1197 C1201 1.495 . S
C1198 C1197 1.392 . S
C1198 C1199 1.385 . S
C1198 C1200 1.478 . S
C1199 H1193 0.930 . S
C1199 C1195 1.400 . S
C1199 C1198 1.385 . S
C1200 C1198 1.478 . S
C1200 C1202 1.381 . S
C1200 C1206 1.383 . S
C1201 C1197 1.495 . S
C1201 H1207 0.959 . S
C1201 H1208 0.961 . S
C1201 H1209 0.960 . S
C1202 C1200 1.381 . S
C1202 C1203 1.394 . S
C1202 H1210 0.930 . S
C1203 C1202 1.394 . S
C1203 C1204 1.383 . S
C1203 H1211 0.929 . S
C1204 C1203 1.383 . S
C1204 C1205 1.377 . S
C1205 H1189 0.930 . S
C1205 C1204 1.377 . S
C1205 C1206 1.379 . S
C1206 H1190 0.931 . S
C1206 C1200 1.383 . S
C1206 C1205 1.379 . S
H1207 C1201 0.959 . S
H1208 C1201 0.961 . S
H1209 C1201 0.960 . S
H1210 C1202 0.930 . S
H1211 C1203 0.929 . S
H1212 C1220 0.929 . S
H1213 C1222 0.930 . S
H1214 C1224 0.930 . S
H1215 C1227 0.929 . S
H1216 C1230 0.930 . S
H1217 C1232 0.960 . S
H1218 C1232 0.960 . S
H1219 C1232 0.960 . S
C1220 H1212 0.929 . S
C1220 C1221 1.377 . S
C1220 C1222 1.384 . S
C1221 C1220 1.377 . S
C1221 C1227 1.390 . S
C1222 H1213 0.930 . S
C1222 C1220 1.384 . S
C1222 C1223 1.372 . S
C1223 C1222 1.372 . S
C1223 C1224 1.400 . S
C1223 C1228 1.490 . S
C1224 H1214 0.930 . S
C1224 C1223 1.400 . S
C1224 C1227 1.386 . S
H1225 C1241 0.930 . S
H1226 C1242 0.931 . S
C1227 H1215 0.929 . S
C1227 C1221 1.390 . S
C1227 C1224 1.386 . S
C1228 C1223 1.490 . S
C1228 C1230 1.395 . S
C1228 C1231 1.403 . S
H1229 C1235 0.930 . S
C1230 H1216 0.930 . S
C1230 C1228 1.395 . S
C1230 C1233 1.403 . S
C1231 C1228 1.403 . S
C1231 C1232 1.524 . S
C1231 C1235 1.400 . S
C1232 H1217 0.960 . S
C1232 H1218 0.960 . S
C1232 H1219 0.960 . S
C1232 C1231 1.524 . S
C1233 C1230 1.403 . S
C1233 C1234 1.392 . S
C1233 C1237 1.495 . S
C1234 C1233 1.392 . S
C1234 C1235 1.385 . S
C1234 C1236 1.478 . S
C1235 H1229 0.930 . S
C1235 C1231 1.400 . S
C1235 C1234 1.385 . S
C1236 C1234 1.478 . S
C1236 C1238 1.381 . S
C1236 C1242 1.383 . S
C1237 C1233 1.495 . S
C1237 H1243 0.959 . S
C1237 H1244 0.961 . S
C1237 H1245 0.960 . S
C1238 C1236 1.381 . S
C1238 C1239 1.394 . S
C1238 H1246 0.930 . S
C1239 C1238 1.394 . S
C1239 C1240 1.383 . S
C1239 H1247 0.929 . S
C1240 C1239 1.383 . S
C1240 C1241 1.377 . S
C1241 H1225 0.930 . S
C1241 C1240 1.377 . S
C1241 C1242 1.379 . S
C1242 H1226 0.931 . S
C1242 C1236 1.383 . S
C1242 C1241 1.379 . S
H1243 C1237 0.959 . S
H1244 C1237 0.961 . S
H1245 C1237 0.960 . S
H1246 C1238 0.930 . S
H1247 C1239 0.929 . S
H1248 C1256 0.929 . S
H1249 C1258 0.930 . S
H1250 C1260 0.930 . S
H1251 C1263 0.929 . S
H1252 C1266 0.930 . S
H1253 C1268 0.960 . S
H1254 C1268 0.960 . S
H1255 C1268 0.960 . S
C1256 H1248 0.929 . S
C1256 C1257 1.377 . S
C1256 C1258 1.384 . S
C1257 C1256 1.377 . S
C1257 C1263 1.390 . S
C1258 H1249 0.930 . S
C1258 C1256 1.384 . S
C1258 C1259 1.372 . S
C1259 C1258 1.372 . S
C1259 C1260 1.400 . S
C1259 C1264 1.490 . S
C1260 H1250 0.930 . S
C1260 C1259 1.400 . S
C1260 C1263 1.386 . S
H1261 C1277 0.930 . S
H1262 C1278 0.931 . S
C1263 H1251 0.929 . S
C1263 C1257 1.390 . S
C1263 C1260 1.386 . S
C1264 C1259 1.490 . S
C1264 C1266 1.395 . S
C1264 C1267 1.403 . S
H1265 C1271 0.930 . S
C1266 H1252 0.930 . S
C1266 C1264 1.395 . S
C1266 C1269 1.403 . S
C1267 C1264 1.403 . S
C1267 C1268 1.524 . S
C1267 C1271 1.400 . S
C1268 H1253 0.960 . S
C1268 H1254 0.960 . S
C1268 H1255 0.960 . S
C1268 C1267 1.524 . S
C1269 C1266 1.403 . S
C1269 C1270 1.392 . S
C1269 C1273 1.495 . S
C1270 C1269 1.392 . S
C1270 C1271 1.385 . S
C1270 C1272 1.478 . S
C1271 H1265 0.930 . S
C1271 C1267 1.400 . S
C1271 C1270 1.385 . S
C1272 C1270 1.478 . S
C1272 C1274 1.381 . S
C1272 C1278 1.383 . S
C1273 C1269 1.495 . S
C1273 H1279 0.959 . S
C1273 H1280 0.961 . S
C1273 H1281 0.960 . S
C1274 C1272 1.381 . S
C1274 C1275 1.394 . S
C1274 H1282 0.930 . S
C1275 C1274 1.394 . S
C1275 C1276 1.383 . S
C1275 H1283 0.929 . S
C1276 C1275 1.383 . S
C1276 C1277 1.377 . S
C1277 H1261 0.930 . S
C1277 C1276 1.377 . S
C1277 C1278 1.379 . S
C1278 H1262 0.931 . S
C1278 C1272 1.383 . S
C1278 C1277 1.379 . S
H1279 C1273 0.959 . S
H1280 C1273 0.961 . S
H1281 C1273 0.960 . S
H1282 C1274 0.930 . S
H1283 C1275 0.929 . S
H1284 C1292 0.929 . S
H1285 C1294 0.930 . S
H1286 C1296 0.930 . S
H1287 C1299 0.929 . S
H1288 C1302 0.930 . S
H1289 C1304 0.960 . S
H1290 C1304 0.960 . S
H1291 C1304 0.960 . S
C1292 H1284 0.929 . S
C1292 C1293 1.377 . S
C1292 C1294 1.384 . S
C1293 C1292 1.377 . S
C1293 C1299 1.390 . S
C1294 H1285 0.930 . S
C1294 C1292 1.384 . S
C1294 C1295 1.372 . S
C1295 C1294 1.372 . S
C1295 C1296 1.400 . S
C1295 C1300 1.490 . S
C1296 H1286 0.930 . S
C1296 C1295 1.400 . S
C1296 C1299 1.386 . S
H1297 C1313 0.930 . S
H1298 C1314 0.931 . S
C1299 H1287 0.929 . S
C1299 C1293 1.390 . S
C1299 C1296 1.386 . S
C1300 C1295 1.490 . S
C1300 C1302 1.395 . S
C1300 C1303 1.403 . S
H1301 C1307 0.930 . S
C1302 H1288 0.930 . S
C1302 C1300 1.395 . S
C1302 C1305 1.403 . S
C1303 C1300 1.403 . S
C1303 C1304 1.524 . S
C1303 C1307 1.400 . S
C1304 H1289 0.960 . S
C1304 H1290 0.960 . S
C1304 H1291 0.960 . S
C1304 C1303 1.524 . S
C1305 C1302 1.403 . S
C1305 C1306 1.392 . S
C1305 C1309 1.495 . S
C1306 C1305 1.392 . S
C1306 C1307 1.385 . S
C1306 C1308 1.478 . S
C1307 H1301 0.930 . S
C1307 C1303 1.400 . S
C1307 C1306 1.385 . S
C1308 C1306 1.478 . S
C1308 C1310 1.381 . S
C1308 C1314 1.383 . S
C1309 C1305 1.495 . S
C1309 H1315 0.959 . S
C1309 H1316 0.961 . S
C1309 H1317 0.960 . S
C1310 C1308 1.381 . S
C1310 C1311 1.394 . S
C1310 H1318 0.930 . S
C1311 C1310 1.394 . S
C1311 C1312 1.383 . S
C1311 H1319 0.929 . S
C1312 C1311 1.383 . S
C1312 C1313 1.377 . S
C1313 H1297 0.930 . S
C1313 C1312 1.377 . S
C1313 C1314 1.379 . S
C1314 H1298 0.931 . S
C1314 C1308 1.383 . S
C1314 C1313 1.379 . S
H1315 C1309 0.959 . S
H1316 C1309 0.961 . S
H1317 C1309 0.960 . S
H1318 C1310 0.930 . S
H1319 C1311 0.929 . S
H1320 C1328 0.929 . S
H1321 C1330 0.930 . S
H1322 C1332 0.930 . S
H1323 C1335 0.929 . S
H1324 C1338 0.930 . S
H1325 C1340 0.960 . S
H1326 C1340 0.960 . S
H1327 C1340 0.960 . S
C1328 H1320 0.929 . S
C1328 C1329 1.377 . S
C1328 C1330 1.384 . S
C1329 C1328 1.377 . S
C1329 C1335 1.390 . S
C1330 H1321 0.930 . S
C1330 C1328 1.384 . S
C1330 C1331 1.372 . S
C1331 C1330 1.372 . S
C1331 C1332 1.400 . S
C1331 C1336 1.490 . S
C1332 H1322 0.930 . S
C1332 C1331 1.400 . S
C1332 C1335 1.386 . S
H1333 C1349 0.930 . S
H1334 C1350 0.931 . S
C1335 H1323 0.929 . S
C1335 C1329 1.390 . S
C1335 C1332 1.386 . S
C1336 C1331 1.490 . S
C1336 C1338 1.395 . S
C1336 C1339 1.403 . S
H1337 C1343 0.930 . S
C1338 H1324 0.930 . S
C1338 C1336 1.395 . S
C1338 C1341 1.403 . S
C1339 C1336 1.403 . S
C1339 C1340 1.524 . S
C1339 C1343 1.400 . S
C1340 H1325 0.960 . S
C1340 H1326 0.960 . S
C1340 H1327 0.960 . S
C1340 C1339 1.524 . S
C1341 C1338 1.403 . S
C1341 C1342 1.392 . S
C1341 C1345 1.495 . S
C1342 C1341 1.392 . S
C1342 C1343 1.385 . S
C1342 C1344 1.478 . S
C1343 H1337 0.930 . S
C1343 C1339 1.400 . S
C1343 C1342 1.385 . S
C1344 C1342 1.478 . S
C1344 C1346 1.381 . S
C1344 C1350 1.383 . S
C1345 C1341 1.495 . S
C1345 H1351 0.959 . S
C1345 H1352 0.961 . S
C1345 H1353 0.960 . S
C1346 C1344 1.381 . S
C1346 C1347 1.394 . S
C1346 H1354 0.930 . S
C1347 C1346 1.394 . S
C1347 C1348 1.383 . S
C1347 H1355 0.929 . S
C1348 C1347 1.383 . S
C1348 C1349 1.377 . S
C1349 H1333 0.930 . S
C1349 C1348 1.377 . S
C1349 C1350 1.379 . S
C1350 H1334 0.931 . S
C1350 C1344 1.383 . S
C1350 C1349 1.379 . S
H1351 C1345 0.959 . S
H1352 C1345 0.961 . S
H1353 C1345 0.960 . S
H1354 C1346 0.930 . S
H1355 C1347 0.929 . S
H1356 C1364 0.929 . S
H1357 C1366 0.930 . S
H1358 C1368 0.930 . S
H1359 C1371 0.929 . S
H1360 C1374 0.930 . S
H1361 C1376 0.960 . S
H1362 C1376 0.960 . S
H1363 C1376 0.960 . S
C1364 H1356 0.929 . S
C1364 C1365 1.377 . S
C1364 C1366 1.384 . S
C1365 C1364 1.377 . S
C1365 C1371 1.390 . S
C1366 H1357 0.930 . S
C1366 C1364 1.384 . S
C1366 C1367 1.372 . S
C1367 C1366 1.372 . S
C1367 C1368 1.400 . S
C1367 C1372 1.490 . S
C1368 H1358 0.930 . S
C1368 C1367 1.400 . S
C1368 C1371 1.386 . S
H1369 C1385 0.930 . S
H1370 C1386 0.931 . S
C1371 H1359 0.929 . S
C1371 C1365 1.390 . S
C1371 C1368 1.386 . S
C1372 C1367 1.490 . S
C1372 C1374 1.395 . S
C1372 C1375 1.403 . S
H1373 C1379 0.930 . S
C1374 H1360 0.930 . S
C1374 C1372 1.395 . S
C1374 C1377 1.403 . S
C1375 C1372 1.403 . S
C1375 C1376 1.524 . S
C1375 C1379 1.400 . S
C1376 H1361 0.960 . S
C1376 H1362 0.960 . S
C1376 H1363 0.960 . S
C1376 C1375 1.524 . S
C1377 C1374 1.403 . S
C1377 C1378 1.392 . S
C1377 C1381 1.495 . S
C1378 C1377 1.392 . S
C1378 C1379 1.385 . S
C1378 C1380 1.478 . S
C1379 H1373 0.930 . S
C1379 C1375 1.400 . S
C1379 C1378 1.385 . S
C1380 C1378 1.478 . S
C1380 C1382 1.381 . S
C1380 C1386 1.383 . S
C1381 C1377 1.495 . S
C1381 H1387 0.959 . S
C1381 H1388 0.961 . S
C1381 H1389 0.960 . S
C1382 C1380 1.381 . S
C1382 C1383 1.394 . S
C1382 H1390 0.930 . S
C1383 C1382 1.394 . S
C1383 C1384 1.383 . S
C1383 H1391 0.929 . S
C1384 C1383 1.383 . S
C1384 C1385 1.377 . S
C1385 H1369 0.930 . S
C1385 C1384 1.377 . S
C1385 C1386 1.379 . S
C1386 H1370 0.931 . S
C1386 C1380 1.383 . S
C1386 C1385 1.379 . S
H1387 C1381 0.959 . S
H1388 C1381 0.961 . S
H1389 C1381 0.960 . S
H1390 C1382 0.930 . S
H1391 C1383 0.929 . S
H1392 C1400 0.929 . S
H1393 C1402 0.930 . S
H1394 C1404 0.930 . S
H1395 C1407 0.929 . S
H1396 C1410 0.930 . S
H1397 C1412 0.960 . S
H1398 C1412 0.960 . S
H1399 C1412 0.960 . S
C1400 H1392 0.929 . S
C1400 C1401 1.377 . S
C1400 C1402 1.384 . S
C1401 C1400 1.377 . S
C1401 C1407 1.390 . S
C1402 H1393 0.930 . S
C1402 C1400 1.384 . S
C1402 C1403 1.372 . S
C1403 C1402 1.372 . S
C1403 C1404 1.400 . S
C1403 C1408 1.490 . S
C1404 H1394 0.930 . S
C1404 C1403 1.400 . S
C1404 C1407 1.386 . S
H1405 C1421 0.930 . S
H1406 C1422 0.931 . S
C1407 H1395 0.929 . S
C1407 C1401 1.390 . S
C1407 C1404 1.386 . S
C1408 C1403 1.490 . S
C1408 C1410 1.395 . S
C1408 C1411 1.403 . S
H1409 C1415 0.930 . S
C1410 H1396 0.930 . S
C1410 C1408 1.395 . S
C1410 C1413 1.403 . S
C1411 C1408 1.403 . S
C1411 C1412 1.524 . S
C1411 C1415 1.400 . S
C1412 H1397 0.960 . S
C1412 H1398 0.960 . S
C1412 H1399 0.960 . S
C1412 C1411 1.524 . S
C1413 C1410 1.403 . S
C1413 C1414 1.392 . S
C1413 C1417 1.495 . S
C1414 C1413 1.392 . S
C1414 C1415 1.385 . S
C1414 C1416 1.478 . S
C1415 H1409 0.930 . S
C1415 C1411 1.400 . S
C1415 C1414 1.385 . S
C1416 C1414 1.478 . S
C1416 C1418 1.381 . S
C1416 C1422 1.383 . S
C1417 C1413 1.495 . S
C1417 H1423 0.959 . S
C1417 H1424 0.961 . S
C1417 H1425 0.960 . S
C1418 C1416 1.381 . S
C1418 C1419 1.394 . S
C1418 H1426 0.930 . S
C1419 C1418 1.394 . S
C1419 C1420 1.383 . S
C1419 H1427 0.929 . S
C1420 C1419 1.383 . S
C1420 C1421 1.377 . S
C1421 H1405 0.930 . S
C1421 C1420 1.377 . S
C1421 C1422 1.379 . S
C1422 H1406 0.931 . S
C1422 C1416 1.383 . S
C1422 C1421 1.379 . S
H1423 C1417 0.959 . S
H1424 C1417 0.961 . S
H1425 C1417 0.960 . S
H1426 C1418 0.930 . S
H1427 C1419 0.929 . S
H1428 C1436 0.929 . S
H1429 C1438 0.930 . S
H1430 C1440 0.930 . S
H1431 C1443 0.929 . S
H1432 C1446 0.930 . S
H1433 C1448 0.960 . S
H1434 C1448 0.960 . S
H1435 C1448 0.960 . S
C1436 H1428 0.929 . S
C1436 C1437 1.377 . S
C1436 C1438 1.384 . S
C1437 C1436 1.377 . S
C1437 C1443 1.390 . S
C1438 H1429 0.930 . S
C1438 C1436 1.384 . S
C1438 C1439 1.372 . S
C1439 C1438 1.372 . S
C1439 C1440 1.400 . S
C1439 C1444 1.490 . S
C1440 H1430 0.930 . S
C1440 C1439 1.400 . S
C1440 C1443 1.386 . S
H1441 C1457 0.930 . S
H1442 C1458 0.931 . S
C1443 H1431 0.929 . S
C1443 C1437 1.390 . S
C1443 C1440 1.386 . S
C1444 C1439 1.490 . S
C1444 C1446 1.395 . S
C1444 C1447 1.403 . S
H1445 C1451 0.930 . S
C1446 H1432 0.930 . S
C1446 C1444 1.395 . S
C1446 C1449 1.403 . S
C1447 C1444 1.403 . S
C1447 C1448 1.524 . S
C1447 C1451 1.400 . S
C1448 H1433 0.960 . S
C1448 H1434 0.960 . S
C1448 H1435 0.960 . S
C1448 C1447 1.524 . S
C1449 C1446 1.403 . S
C1449 C1450 1.392 . S
C1449 C1453 1.495 . S
C1450 C1449 1.392 . S
C1450 C1451 1.385 . S
C1450 C1452 1.478 . S
C1451 H1445 0.930 . S
C1451 C1447 1.400 . S
C1451 C1450 1.385 . S
C1452 C1450 1.478 . S
C1452 C1454 1.381 . S
C1452 C1458 1.383 . S
C1453 C1449 1.495 . S
C1453 H1459 0.959 . S
C1453 H1460 0.961 . S
C1453 H1461 0.960 . S
C1454 C1452 1.381 . S
C1454 C1455 1.394 . S
C1454 H1462 0.930 . S
C1455 C1454 1.394 . S
C1455 C1456 1.383 . S
C1455 H1463 0.929 . S
C1456 C1455 1.383 . S
C1456 C1457 1.377 . S
C1457 H1441 0.930 . S
C1457 C1456 1.377 . S
C1457 C1458 1.379 . S
C1458 H1442 0.931 . S
C1458 C1452 1.383 . S
C1458 C1457 1.379 . S
H1459 C1453 0.959 . S
H1460 C1453 0.961 . S
H1461 C1453 0.960 . S
H1462 C1454 0.930 . S
H1463 C1455 0.929 . S
H1464 C1472 0.929 . S
H1465 C1474 0.930 . S
H1466 C1476 0.930 . S
H1467 C1479 0.929 . S
H1468 C1482 0.930 . S
H1469 C1484 0.960 . S
H1470 C1484 0.960 . S
H1471 C1484 0.960 . S
C1472 H1464 0.929 . S
C1472 C1473 1.377 . S
C1472 C1474 1.384 . S
C1473 C1472 1.377 . S
C1473 C1479 1.390 . S
C1474 H1465 0.930 . S
C1474 C1472 1.384 . S
C1474 C1475 1.372 . S
C1475 C1474 1.372 . S
C1475 C1476 1.400 . S
C1475 C1480 1.490 . S
C1476 H1466 0.930 . S
C1476 C1475 1.400 . S
C1476 C1479 1.386 . S
H1477 C1493 0.930 . S
H1478 C1494 0.931 . S
C1479 H1467 0.929 . S
C1479 C1473 1.390 . S
C1479 C1476 1.386 . S
C1480 C1475 1.490 . S
C1480 C1482 1.395 . S
C1480 C1483 1.403 . S
H1481 C1487 0.930 . S
C1482 H1468 0.930 . S
C1482 C1480 1.395 . S
C1482 C1485 1.403 . S
C1483 C1480 1.403 . S
C1483 C1484 1.524 . S
C1483 C1487 1.400 . S
C1484 H1469 0.960 . S
C1484 H1470 0.960 . S
C1484 H1471 0.960 . S
C1484 C1483 1.524 . S
C1485 C1482 1.403 . S
C1485 C1486 1.392 . S
C1485 C1489 1.495 . S
C1486 C1485 1.392 . S
C1486 C1487 1.385 . S
C1486 C1488 1.478 . S
C1487 H1481 0.930 . S
C1487 C1483 1.400 . S
C1487 C1486 1.385 . S
C1488 C1486 1.478 . S
C1488 C1490 1.381 . S
C1488 C1494 1.383 . S
C1489 C1485 1.495 . S
C1489 H1495 0.959 . S
C1489 H1496 0.961 . S
C1489 H1497 0.960 . S
C1490 C1488 1.381 . S
C1490 C1491 1.394 . S
C1490 H1498 0.930 . S
C1491 C1490 1.394 . S
C1491 C1492 1.383 . S
C1491 H1499 0.929 . S
C1492 C1491 1.383 . S
C1492 C1493 1.377 . S
C1493 H1477 0.930 . S
C1493 C1492 1.377 . S
C1493 C1494 1.379 . S
C1494 H1478 0.931 . S
C1494 C1488 1.383 . S
C1494 C1493 1.379 . S
H1495 C1489 0.959 . S
H1496 C1489 0.961 . S
H1497 C1489 0.960 . S
H1498 C1490 0.930 . S
H1499 C1491 0.929 . S
H1500 C1508 0.929 . S
H1501 C1510 0.930 . S
H1502 C1512 0.930 . S
H1503 C1515 0.929 . S
H1504 C1518 0.930 . S
H1505 C1520 0.960 . S
H1506 C1520 0.960 . S
H1507 C1520 0.960 . S
C1508 H1500 0.929 . S
C1508 C1509 1.377 . S
C1508 C1510 1.384 . S
C1509 C1508 1.377 . S
C1509 C1515 1.390 . S
C1510 H1501 0.930 . S
C1510 C1508 1.384 . S
C1510 C1511 1.372 . S
C1511 C1510 1.372 . S
C1511 C1512 1.400 . S
C1511 C1516 1.490 . S
C1512 H1502 0.930 . S
C1512 C1511 1.400 . S
C1512 C1515 1.386 . S
H1513 C1529 0.930 . S
H1514 C1530 0.931 . S
C1515 H1503 0.929 . S
C1515 C1509 1.390 . S
C1515 C1512 1.386 . S
C1516 C1511 1.490 . S
C1516 C1518 1.395 . S
C1516 C1519 1.403 . S
H1517 C1523 0.930 . S
C1518 H1504 0.930 . S
C1518 C1516 1.395 . S
C1518 C1521 1.403 . S
C1519 C1516 1.403 . S
C1519 C1520 1.524 . S
C1519 C1523 1.400 . S
C1520 H1505 0.960 . S
C1520 H1506 0.960 . S
C1520 H1507 0.960 . S
C1520 C1519 1.524 . S
C1521 C1518 1.403 . S
C1521 C1522 1.392 . S
C1521 C1525 1.495 . S
C1522 C1521 1.392 . S
C1522 C1523 1.385 . S
C1522 C1524 1.478 . S
C1523 H1517 0.930 . S
C1523 C1519 1.400 . S
C1523 C1522 1.385 . S
C1524 C1522 1.478 . S
C1524 C1526 1.381 . S
C1524 C1530 1.383 . S
C1525 C1521 1.495 . S
C1525 H1531 0.959 . S
C1525 H1532 0.961 . S
C1525 H1533 0.960 . S
C1526 C1524 1.381 . S
C1526 C1527 1.394 . S
C1526 H1534 0.930 . S
C1527 C1526 1.394 . S
C1527 C1528 1.383 . S
C1527 H1535 0.929 . S
C1528 C1527 1.383 . S
C1528 C1529 1.377 . S
C1529 H1513 0.930 . S
C1529 C1528 1.377 . S
C1529 C1530 1.379 . S
C1530 H1514 0.931 . S
C1530 C1524 1.383 . S
C1530 C1529 1.379 . S
H1531 C1525 0.959 . S
H1532 C1525 0.961 . S
H1533 C1525 0.960 . S
H1534 C1526 0.930 . S
H1535 C1527 0.929 . S
H1536 C1544 0.929 . S
H1537 C1546 0.930 . S
H1538 C1548 0.930 . S
H1539 C1551 0.929 . S
H1540 C1554 0.930 . S
H1541 C1556 0.960 . S
H1542 C1556 0.960 . S
H1543 C1556 0.960 . S
C1544 H1536 0.929 . S
C1544 C1545 1.377 . S
C1544 C1546 1.384 . S
C1545 C1544 1.377 . S
C1545 C1551 1.390 . S
C1546 H1537 0.930 . S
C1546 C1544 1.384 . S
C1546 C1547 1.372 . S
C1547 C1546 1.372 . S
C1547 C1548 1.400 . S
C1547 C1552 1.490 . S
C1548 H1538 0.930 . S
C1548 C1547 1.400 . S
C1548 C1551 1.386 . S
H1549 C1565 0.930 . S
H1550 C1566 0.931 . S
C1551 H1539 0.929 . S
C1551 C1545 1.390 . S
C1551 C1548 1.386 . S
C1552 C1547 1.490 . S
C1552 C1554 1.395 . S
C1552 C1555 1.403 . S
H1553 C1559 0.930 . S
C1554 H1540 0.930 . S
C1554 C1552 1.395 . S
C1554 C1557 1.403 . S
C1555 C1552 1.403 . S
C1555 C1556 1.524 . S
C1555 C1559 1.400 . S
C1556 H1541 0.960 . S
C1556 H1542 0.960 . S
C1556 H1543 0.960 . S
C1556 C1555 1.524 . S
C1557 C1554 1.403 . S
C1557 C1558 1.392 . S
C1557 C1561 1.495 . S
C1558 C1557 1.392 . S
C1558 C1559 1.385 . S
C1558 C1560 1.478 . S
C1559 H1553 0.930 . S
C1559 C1555 1.400 . S
C1559 C1558 1.385 . S
C1560 C1558 1.478 . S
C1560 C1562 1.381 . S
C1560 C1566 1.383 . S
C1561 C1557 1.495 . S
C1561 H1567 0.959 . S
C1561 H1568 0.961 . S
C1561 H1569 0.960 . S
C1562 C1560 1.381 . S
C1562 C1563 1.394 . S
C1562 H1570 0.930 . S
C1563 C1562 1.394 . S
C1563 C1564 1.383 . S
C1563 H1571 0.929 . S
C1564 C1563 1.383 . S
C1564 C1565 1.377 . S
C1565 H1549 0.930 . S
C1565 C1564 1.377 . S
C1565 C1566 1.379 . S
C1566 H1550 0.931 . S
C1566 C1560 1.383 . S
C1566 C1565 1.379 . S
H1567 C1561 0.959 . S
H1568 C1561 0.961 . S
H1569 C1561 0.960 . S
H1570 C1562 0.930 . S
H1571 C1563 0.929 . S
H1572 C1580 0.929 . S
H1573 C1582 0.930 . S
H1574 C1584 0.930 . S
H1575 C1587 0.929 . S
H1576 C1590 0.930 . S
H1577 C1592 0.960 . S
H1578 C1592 0.960 . S
H1579 C1592 0.960 . S
C1580 H1572 0.929 . S
C1580 C1581 1.377 . S
C1580 C1582 1.384 . S
C1581 C1580 1.377 . S
C1581 C1587 1.390 . S
C1582 H1573 0.930 . S
C1582 C1580 1.384 . S
C1582 C1583 1.372 . S
C1583 C1582 1.372 . S
C1583 C1584 1.400 . S
C1583 C1588 1.490 . S
C1584 H1574 0.930 . S
C1584 C1583 1.400 . S
C1584 C1587 1.386 . S
H1585 C1601 0.930 . S
H1586 C1602 0.931 . S
C1587 H1575 0.929 . S
C1587 C1581 1.390 . S
C1587 C1584 1.386 . S
C1588 C1583 1.490 . S
C1588 C1590 1.395 . S
C1588 C1591 1.403 . S
H1589 C1595 0.930 . S
C1590 H1576 0.930 . S
C1590 C1588 1.395 . S
C1590 C1593 1.403 . S
C1591 C1588 1.403 . S
C1591 C1592 1.524 . S
C1591 C1595 1.400 . S
C1592 H1577 0.960 . S
C1592 H1578 0.960 . S
C1592 H1579 0.960 . S
C1592 C1591 1.524 . S
C1593 C1590 1.403 . S
C1593 C1594 1.392 . S
C1593 C1597 1.495 . S
C1594 C1593 1.392 . S
C1594 C1595 1.385 . S
C1594 C1596 1.478 . S
C1595 H1589 0.930 . S
C1595 C1591 1.400 . S
C1595 C1594 1.385 . S
C1596 C1594 1.478 . S
C1596 C1598 1.381 . S
C1596 C1602 1.383 . S
C1597 C1593 1.495 . S
C1597 H1603 0.959 . S
C1597 H1604 0.961 . S
C1597 H1605 0.960 . S
C1598 C1596 1.381 . S
C1598 C1599 1.394 . S
C1598 H1606 0.930 . S
C1599 C1598 1.394 . S
C1599 C1600 1.383 . S
C1599 H1607 0.929 . S
C1600 C1599 1.383 . S
C1600 C1601 1.377 . S
C1601 H1585 0.930 . S
C1601 C1600 1.377 . S
C1601 C1602 1.379 . S
C1602 H1586 0.931 . S
C1602 C1596 1.383 . S
C1602 C1601 1.379 . S
H1603 C1597 0.959 . S
H1604 C1597 0.961 . S
H1605 C1597 0.960 . S
H1606 C1598 0.930 . S
H1607 C1599 0.929 . S
H1608 C1616 0.929 . S
H1609 C1618 0.930 . S
H1610 C1620 0.930 . S
H1611 C1623 0.929 . S
H1612 C1626 0.930 . S
H1613 C1628 0.960 . S
H1614 C1628 0.960 . S
H1615 C1628 0.960 . S
C1616 H1608 0.929 . S
C1616 C1617 1.377 . S
C1616 C1618 1.384 . S
C1617 C1616 1.377 . S
C1617 C1623 1.390 . S
C1618 H1609 0.930 . S
C1618 C1616 1.384 . S
C1618 C1619 1.372 . S
C1619 C1618 1.372 . S
C1619 C1620 1.400 . S
C1619 C1624 1.490 . S
C1620 H1610 0.930 . S
C1620 C1619 1.400 . S
C1620 C1623 1.386 . S
H1621 C1637 0.930 . S
H1622 C1638 0.931 . S
C1623 H1611 0.929 . S
C1623 C1617 1.390 . S
C1623 C1620 1.386 . S
C1624 C1619 1.490 . S
C1624 C1626 1.395 . S
C1624 C1627 1.403 . S
H1625 C1631 0.930 . S
C1626 H1612 0.930 . S
C1626 C1624 1.395 . S
C1626 C1629 1.403 . S
C1627 C1624 1.403 . S
C1627 C1628 1.524 . S
C1627 C1631 1.400 . S
C1628 H1613 0.960 . S
C1628 H1614 0.960 . S
C1628 H1615 0.960 . S
C1628 C1627 1.524 . S
C1629 C1626 1.403 . S
C1629 C1630 1.392 . S
C1629 C1633 1.495 . S
C1630 C1629 1.392 . S
C1630 C1631 1.385 . S
C1630 C1632 1.478 . S
C1631 H1625 0.930 . S
C1631 C1627 1.400 . S
C1631 C1630 1.385 . S
C1632 C1630 1.478 . S
C1632 C1634 1.381 . S
C1632 C1638 1.383 . S
C1633 C1629 1.495 . S
C1633 H1639 0.959 . S
C1633 H1640 0.961 . S
C1633 H1641 0.960 . S
C1634 C1632 1.381 . S
C1634 C1635 1.394 . S
C1634 H1642 0.930 . S
C1635 C1634 1.394 . S
C1635 C1636 1.383 . S
C1635 H1643 0.929 . S
C1636 C1635 1.383 . S
C1636 C1637 1.377 . S
C1637 H1621 0.930 . S
C1637 C1636 1.377 . S
C1637 C1638 1.379 . S
C1638 H1622 0.931 . S
C1638 C1632 1.383 . S
C1638 C1637 1.379 . S
H1639 C1633 0.959 . S
H1640 C1633 0.961 . S
H1641 C1633 0.960 . S
H1642 C1634 0.930 . S
H1643 C1635 0.929 . S
H1644 C1652 0.929 . S
H1645 C1654 0.930 . S
H1646 C1656 0.930 . S
H1647 C1659 0.929 . S
H1648 C1662 0.930 . S
H1649 C1664 0.960 . S
H1650 C1664 0.960 . S
H1651 C1664 0.960 . S
C1652 H1644 0.929 . S
C1652 C1653 1.377 . S
C1652 C1654 1.384 . S
C1653 C1652 1.377 . S
C1653 C1659 1.390 . S
C1654 H1645 0.930 . S
C1654 C1652 1.384 . S
C1654 C1655 1.372 . S
C1655 C1654 1.372 . S
C1655 C1656 1.400 . S
C1655 C1660 1.490 . S
C1656 H1646 0.930 . S
C1656 C1655 1.400 . S
C1656 C1659 1.386 . S
H1657 C1673 0.930 . S
H1658 C1674 0.931 . S
C1659 H1647 0.929 . S
C1659 C1653 1.390 . S
C1659 C1656 1.386 . S
C1660 C1655 1.490 . S
C1660 C1662 1.395 . S
C1660 C1663 1.403 . S
H1661 C1667 0.930 . S
C1662 H1648 0.930 . S
C1662 C1660 1.395 . S
C1662 C1665 1.403 . S
C1663 C1660 1.403 . S
C1663 C1664 1.524 . S
C1663 C1667 1.400 . S
C1664 H1649 0.960 . S
C1664 H1650 0.960 . S
C1664 H1651 0.960 . S
C1664 C1663 1.524 . S
C1665 C1662 1.403 . S
C1665 C1666 1.392 . S
C1665 C1669 1.495 . S
C1666 C1665 1.392 . S
C1666 C1667 1.385 . S
C1666 C1668 1.478 . S
C1667 H1661 0.930 . S
C1667 C1663 1.400 . S
C1667 C1666 1.385 . S
C1668 C1666 1.478 . S
C1668 C1670 1.381 . S
C1668 C1674 1.383 . S
C1669 C1665 1.495 . S
C1669 H1675 0.959 . S
C1669 H1676 0.961 . S
C1669 H1677 0.960 . S
C1670 C1668 1.381 . S
C1670 C1671 1.394 . S
C1670 H1678 0.930 . S
C1671 C1670 1.394 . S
C1671 C1672 1.383 . S
C1671 H1679 0.929 . S
C1672 C1671 1.383 . S
C1672 C1673 1.377 . S
C1673 H1657 0.930 . S
C1673 C1672 1.377 . S
C1673 C1674 1.379 . S
C1674 H1658 0.931 . S
C1674 C1668 1.383 . S
C1674 C1673 1.379 . S
H1675 C1669 0.959 . S
H1676 C1669 0.961 . S
H1677 C1669 0.960 . S
H1678 C1670 0.930 . S
H1679 C1671 0.929 . S
H1680 C1688 0.929 . S
H1681 C1690 0.930 . S
H1682 C1692 0.930 . S
H1683 C1695 0.929 . S
H1684 C1698 0.930 . S
H1685 C1700 0.960 . S
H1686 C1700 0.960 . S
H1687 C1700 0.960 . S
C1688 H1680 0.929 . S
C1688 C1689 1.377 . S
C1688 C1690 1.384 . S
C1689 C1688 1.377 . S
C1689 C1695 1.390 . S
C1690 H1681 0.930 . S
C1690 C1688 1.384 . S
C1690 C1691 1.372 . S
C1691 C1690 1.372 . S
C1691 C1692 1.400 . S
C1691 C1696 1.490 . S
C1692 H1682 0.930 . S
C1692 C1691 1.400 . S
C1692 C1695 1.386 . S
H1693 C1709 0.930 . S
H1694 C1710 0.931 . S
C1695 H1683 0.929 . S
C1695 C1689 1.390 . S
C1695 C1692 1.386 . S
C1696 C1691 1.490 . S
C1696 C1698 1.395 . S
C1696 C1699 1.403 . S
H1697 C1703 0.930 . S
C1698 H1684 0.930 . S
C1698 C1696 1.395 . S
C1698 C1701 1.403 . S
C1699 C1696 1.403 . S
C1699 C1700 1.524 . S
C1699 C1703 1.400 . S
C1700 H1685 0.960 . S
C1700 H1686 0.960 . S
C1700 H1687 0.960 . S
C1700 C1699 1.524 . S
C1701 C1698 1.403 . S
C1701 C1702 1.392 . S
C1701 C1705 1.495 . S
C1702 C1701 1.392 . S
C1702 C1703 1.385 . S
C1702 C1704 1.478 . S
C1703 H1697 0.930 . S
C1703 C1699 1.400 . S
C1703 C1702 1.385 . S
C1704 C1702 1.478 . S
C1704 C1706 1.381 . S
C1704 C1710 1.383 . S
C1705 C1701 1.495 . S
C1705 H1711 0.959 . S
C1705 H1712 0.961 . S
C1705 H1713 0.960 . S
C1706 C1704 1.381 . S
C1706 C1707 1.394 . S
C1706 H1714 0.930 . S
C1707 C1706 1.394 . S
C1707 C1708 1.383 . S
C1707 H1715 0.929 . S
C1708 C1707 1.383 . S
C1708 C1709 1.377 . S
C1709 H1693 0.930 . S
C1709 C1708 1.377 . S
C1709 C1710 1.379 . S
C1710 H1694 0.931 . S
C1710 C1704 1.383 . S
C1710 C1709 1.379 . S
H1711 C1705 0.959 . S
H1712 C1705 0.961 . S
H1713 C1705 0.960 . S
H1714 C1706 0.930 . S
H1715 C1707 0.929 . S
H1716 C1724 0.929 . S
H1717 C1726 0.930 . S
H1718 C1728 0.930 . S
H1719 C1731 0.929 . S
H1720 C1734 0.930 . S
H1721 C1736 0.960 . S
H1722 C1736 0.960 . S
H1723 C1736 0.960 . S
C1724 H1716 0.929 . S
C1724 C1725 1.377 . S
C1724 C1726 1.384 . S
C1725 C1724 1.377 . S
C1725 C1731 1.390 . S
C1726 H1717 0.930 . S
C1726 C1724 1.384 . S
C1726 C1727 1.372 . S
C1727 C1726 1.372 . S
C1727 C1728 1.400 . S
C1727 C1732 1.490 . S
C1728 H1718 0.930 . S
C1728 C1727 1.400 . S
C1728 C1731 1.386 . S
H1729 C1745 0.930 . S
H1730 C1746 0.931 . S
C1731 H1719 0.929 . S
C1731 C1725 1.390 . S
C1731 C1728 1.386 . S
C1732 C1727 1.490 . S
C1732 C1734 1.395 . S
C1732 C1735 1.403 . S
H1733 C1739 0.930 . S
C1734 H1720 0.930 . S
C1734 C1732 1.395 . S
C1734 C1737 1.403 . S
C1735 C1732 1.403 . S
C1735 C1736 1.524 . S
C1735 C1739 1.400 . S
C1736 H1721 0.960 . S
C1736 H1722 0.960 . S
C1736 H1723 0.960 . S
C1736 C1735 1.524 . S
C1737 C1734 1.403 . S
C1737 C1738 1.392 . S
C1737 C1741 1.495 . S
C1738 C1737 1.392 . S
C1738 C1739 1.385 . S
C1738 C1740 1.478 . S
C1739 H1733 0.930 . S
C1739 C1735 1.400 . S
C1739 C1738 1.385 . S
C1740 C1738 1.478 . S
C1740 C1742 1.381 . S
C1740 C1746 1.383 . S
C1741 C1737 1.495 . S
C1741 H1747 0.959 . S
C1741 H1748 0.961 . S
C1741 H1749 0.960 . S
C1742 C1740 1.381 . S
C1742 C1743 1.394 . S
C1742 H1750 0.930 . S
C1743 C1742 1.394 . S
C1743 C1744 1.383 . S
C1743 H1751 0.929 . S
C1744 C1743 1.383 . S
C1744 C1745 1.377 . S
C1745 H1729 0.930 . S
C1745 C1744 1.377 . S
C1745 C1746 1.379 . S
C1746 H1730 0.931 . S
C1746 C1740 1.383 . S
C1746 C1745 1.379 . S
H1747 C1741 0.959 . S
H1748 C1741 0.961 . S
H1749 C1741 0.960 . S
H1750 C1742 0.930 . S
H1751 C1743 0.929 . S
H1752 C1760 0.929 . S
H1753 C1762 0.930 . S
H1754 C1764 0.930 . S
H1755 C1767 0.929 . S
H1756 C1770 0.930 . S
H1757 C1772 0.960 . S
H1758 C1772 0.960 . S
H1759 C1772 0.960 . S
C1760 H1752 0.929 . S
C1760 C1761 1.377 . S
C1760 C1762 1.384 . S
C1761 C1760 1.377 . S
C1761 C1767 1.390 . S
C1762 H1753 0.930 . S
C1762 C1760 1.384 . S
C1762 C1763 1.372 . S
C1763 C1762 1.372 . S
C1763 C1764 1.400 . S
C1763 C1768 1.490 . S
C1764 H1754 0.930 . S
C1764 C1763 1.400 . S
C1764 C1767 1.386 . S
H1765 C1781 0.930 . S
H1766 C1782 0.931 . S
C1767 H1755 0.929 . S
C1767 C1761 1.390 . S
C1767 C1764 1.386 . S
C1768 C1763 1.490 . S
C1768 C1770 1.395 . S
C1768 C1771 1.403 . S
H1769 C1775 0.930 . S
C1770 H1756 0.930 . S
C1770 C1768 1.395 . S
C1770 C1773 1.403 . S
C1771 C1768 1.403 . S
C1771 C1772 1.524 . S
C1771 C1775 1.400 . S
C1772 H1757 0.960 . S
C1772 H1758 0.960 . S
C1772 H1759 0.960 . S
C1772 C1771 1.524 . S
C1773 C1770 1.403 . S
C1773 C1774 1.392 . S
C1773 C1777 1.495 . S
C1774 C1773 1.392 . S
C1774 C1775 1.385 . S
C1774 C1776 1.478 . S
C1775 H1769 0.930 . S
C1775 C1771 1.400 . S
C1775 C1774 1.385 . S
C1776 C1774 1.478 . S
C1776 C1778 1.381 . S
C1776 C1782 1.383 . S
C1777 C1773 1.495 . S
C1777 H1783 0.959 . S
C1777 H1784 0.961 . S
C1777 H1785 0.960 . S
C1778 C1776 1.381 . S
C1778 C1779 1.394 . S
C1778 H1786 0.930 . S
C1779 C1778 1.394 . S
C1779 C1780 1.383 . S
C1779 H1787 0.929 . S
C1780 C1779 1.383 . S
C1780 C1781 1.377 . S
C1781 H1765 0.930 . S
C1781 C1780 1.377 . S
C1781 C1782 1.379 . S
C1782 H1766 0.931 . S
C1782 C1776 1.383 . S
C1782 C1781 1.379 . S
H1783 C1777 0.959 . S
H1784 C1777 0.961 . S
H1785 C1777 0.960 . S
H1786 C1778 0.930 . S
H1787 C1779 0.929 . S
H1788 C1796 0.929 . S
H1789 C1798 0.930 . S
H1790 C1800 0.930 . S
H1791 C1803 0.929 . S
H1792 C1806 0.930 . S
H1793 C1808 0.960 . S
H1794 C1808 0.960 . S
H1795 C1808 0.960 . S
C1796 H1788 0.929 . S
C1796 C1797 1.377 . S
C1796 C1798 1.384 . S
C1797 C1796 1.377 . S
C1797 C1803 1.390 . S
C1798 H1789 0.930 . S
C1798 C1796 1.384 . S
C1798 C1799 1.372 . S
C1799 C1798 1.372 . S
C1799 C1800 1.400 . S
C1799 C1804 1.490 . S
C1800 H1790 0.930 . S
C1800 C1799 1.400 . S
C1800 C1803 1.386 . S
H1801 C1817 0.930 . S
H1802 C1818 0.931 . S
C1803 H1791 0.929 . S
C1803 C1797 1.390 . S
C1803 C1800 1.386 . S
C1804 C1799 1.490 . S
C1804 C1806 1.395 . S
C1804 C1807 1.403 . S
H1805 C1811 0.930 . S
C1806 H1792 0.930 . S
C1806 C1804 1.395 . S
C1806 C1809 1.403 . S
C1807 C1804 1.403 . S
C1807 C1808 1.524 . S
C1807 C1811 1.400 . S
C1808 H1793 0.960 . S
C1808 H1794 0.960 . S
C1808 H1795 0.960 . S
C1808 C1807 1.524 . S
C1809 C1806 1.403 . S
C1809 C1810 1.392 . S
C1809 C1813 1.495 . S
C1810 C1809 1.392 . S
C1810 C1811 1.385 . S
C1810 C1812 1.478 . S
C1811 H1805 0.930 . S
C1811 C1807 1.400 . S
C1811 C1810 1.385 . S
C1812 C1810 1.478 . S
C1812 C1814 1.381 . S
C1812 C1818 1.383 . S
C1813 C1809 1.495 . S
C1813 H1819 0.959 . S
C1813 H1820 0.961 . S
C1813 H1821 0.960 . S
C1814 C1812 1.381 . S
C1814 C1815 1.394 . S
C1814 H1822 0.930 . S
C1815 C1814 1.394 . S
C1815 C1816 1.383 . S
C1815 H1823 0.929 . S
C1816 C1815 1.383 . S
C1816 C1817 1.377 . S
C1817 H1801 0.930 . S
C1817 C1816 1.377 . S
C1817 C1818 1.379 . S
C1818 H1802 0.931 . S
C1818 C1812 1.383 . S
C1818 C1817 1.379 . S
H1819 C1813 0.959 . S
H1820 C1813 0.961 . S
H1821 C1813 0.960 . S
H1822 C1814 0.930 . S
H1823 C1815 0.929 . S
H1824 C1832 0.929 . S
H1825 C1834 0.930 . S
H1826 C1836 0.930 . S
H1827 C1839 0.929 . S
H1828 C1842 0.930 . S
H1829 C1844 0.960 . S
H1830 C1844 0.960 . S
H1831 C1844 0.960 . S
C1832 H1824 0.929 . S
C1832 C1833 1.377 . S
C1832 C1834 1.384 . S
C1833 C1832 1.377 . S
C1833 C1839 1.390 . S
C1834 H1825 0.930 . S
C1834 C1832 1.384 . S
C1834 C1835 1.372 . S
C1835 C1834 1.372 . S
C1835 C1836 1.400 . S
C1835 C1840 1.490 . S
C1836 H1826 0.930 . S
C1836 C1835 1.400 . S
C1836 C1839 1.386 . S
H1837 C1853 0.930 . S
H1838 C1854 0.931 . S
C1839 H1827 0.929 . S
C1839 C1833 1.390 . S
C1839 C1836 1.386 . S
C1840 C1835 1.490 . S
C1840 C1842 1.395 . S
C1840 C1843 1.403 . S
H1841 C1847 0.930 . S
C1842 H1828 0.930 . S
C1842 C1840 1.395 . S
C1842 C1845 1.403 . S
C1843 C1840 1.403 . S
C1843 C1844 1.524 . S
C1843 C1847 1.400 . S
C1844 H1829 0.960 . S
C1844 H1830 0.960 . S
C1844 H1831 0.960 . S
C1844 C1843 1.524 . S
C1845 C1842 1.403 . S
C1845 C1846 1.392 . S
C1845 C1849 1.495 . S
C1846 C1845 1.392 . S
C1846 C1847 1.385 . S
C1846 C1848 1.478 . S
C1847 H1841 0.930 . S
C1847 C1843 1.400 . S
C1847 C1846 1.385 . S
C1848 C1846 1.478 . S
C1848 C1850 1.381 . S
C1848 C1854 1.383 . S
C1849 C1845 1.495 . S
C1849 H1855 0.959 . S
C1849 H1856 0.961 . S
C1849 H1857 0.960 . S
C1850 C1848 1.381 . S
C1850 C1851 1.394 . S
C1850 H1858 0.930 . S
C1851 C1850 1.394 . S
C1851 C1852 1.383 . S
C1851 H1859 0.929 . S
C1852 C1851 1.383 . S
C1852 C1853 1.377 . S
C1853 H1837 0.930 . S
C1853 C1852 1.377 . S
C1853 C1854 1.379 . S
C1854 H1838 0.931 . S
C1854 C1848 1.383 . S
C1854 C1853 1.379 . S
H1855 C1849 0.959 . S
H1856 C1849 0.961 . S
H1857 C1849 0.960 . S
H1858 C1850 0.930 . S
H1859 C1851 0.929 . S
H1860 C1868 0.929 . S
H1861 C1870 0.930 . S
H1862 C1872 0.930 . S
H1863 C1875 0.929 . S
H1864 C1878 0.930 . S
H1865 C1880 0.960 . S
H1866 C1880 0.960 . S
H1867 C1880 0.960 . S
C1868 H1860 0.929 . S
C1868 C1869 1.377 . S
C1868 C1870 1.384 . S
C1869 C1868 1.377 . S
C1869 C1875 1.390 . S
C1870 H1861 0.930 . S
C1870 C1868 1.384 . S
C1870 C1871 1.372 . S
C1871 C1870 1.372 . S
C1871 C1872 1.400 . S
C1871 C1876 1.490 . S
C1872 H1862 0.930 . S
C1872 C1871 1.400 . S
C1872 C1875 1.386 . S
H1873 C1889 0.930 . S
H1874 C1890 0.931 . S
C1875 H1863 0.929 . S
C1875 C1869 1.390 . S
C1875 C1872 1.386 . S
C1876 C1871 1.490 . S
C1876 C1878 1.395 . S
C1876 C1879 1.403 . S
H1877 C1883 0.930 . S
C1878 H1864 0.930 . S
C1878 C1876 1.395 . S
C1878 C1881 1.403 . S
C1879 C1876 1.403 . S
C1879 C1880 1.524 . S
C1879 C1883 1.400 . S
C1880 H1865 0.960 . S
C1880 H1866 0.960 . S
C1880 H1867 0.960 . S
C1880 C1879 1.524 . S
C1881 C1878 1.403 . S
C1881 C1882 1.392 . S
C1881 C1885 1.495 . S
C1882 C1881 1.392 . S
C1882 C1883 1.385 . S
C1882 C1884 1.478 . S
C1883 H1877 0.930 . S
C1883 C1879 1.400 . S
C1883 C1882 1.385 . S
C1884 C1882 1.478 . S
C1884 C1886 1.381 . S
C1884 C1890 1.383 . S
C1885 C1881 1.495 . S
C1885 H1891 0.959 . S
C1885 H1892 0.961 . S
C1885 H1893 0.960 . S
C1886 C1884 1.381 . S
C1886 C1887 1.394 . S
C1886 H1894 0.930 . S
C1887 C1886 1.394 . S
C1887 C1888 1.383 . S
C1887 H1895 0.929 . S
C1888 C1887 1.383 . S
C1888 C1889 1.377 . S
C1889 H1873 0.930 . S
C1889 C1888 1.377 . S
C1889 C1890 1.379 . S
C1890 H1874 0.931 . S
C1890 C1884 1.383 . S
C1890 C1889 1.379 . S
H1891 C1885 0.959 . S
H1892 C1885 0.961 . S
H1893 C1885 0.960 . S
H1894 C1886 0.930 . S
H1895 C1887 0.929 . S
H1896 C1904 0.929 . S
H1897 C1906 0.930 . S
H1898 C1908 0.930 . S
H1899 C1911 0.929 . S
H1900 C1914 0.930 . S
H1901 C1916 0.960 . S
H1902 C1916 0.960 . S
H1903 C1916 0.960 . S
C1904 H1896 0.929 . S
C1904 C1905 1.377 . S
C1904 C1906 1.384 . S
C1905 C1904 1.377 . S
C1905 C1911 1.390 . S
C1906 H1897 0.930 . S
C1906 C1904 1.384 . S
C1906 C1907 1.372 . S
C1907 C1906 1.372 . S
C1907 C1908 1.400 . S
C1907 C1912 1.490 . S
C1908 H1898 0.930 . S
C1908 C1907 1.400 . S
C1908 C1911 1.386 . S
H1909 C1925 0.930 . S
H1910 C1926 0.931 . S
C1911 H1899 0.929 . S
C1911 C1905 1.390 . S
C1911 C1908 1.386 . S
C1912 C1907 1.490 . S
C1912 C1914 1.395 . S
C1912 C1915 1.403 . S
H1913 C1919 0.930 . S
C1914 H1900 0.930 . S
C1914 C1912 1.395 . S
C1914 C1917 1.403 . S
C1915 C1912 1.403 . S
C1915 C1916 1.524 . S
C1915 C1919 1.400 . S
C1916 H1901 0.960 . S
C1916 H1902 0.960 . S
C1916 H1903 0.960 . S
C1916 C1915 1.524 . S
C1917 C1914 1.403 . S
C1917 C1918 1.392 . S
C1917 C1921 1.495 . S
C1918 C1917 1.392 . S
C1918 C1919 1.385 . S
C1918 C1920 1.478 . S
C1919 H1913 0.930 . S
C1919 C1915 1.400 . S
C1919 C1918 1.385 . S
C1920 C1918 1.478 . S
C1920 C1922 1.381 . S
C1920 C1926 1.383 . S
C1921 C1917 1.495 . S
C1921 H1927 0.959 . S
C1921 H1928 0.961 . S
C1921 H1929 0.960 . S
C1922 C1920 1.381 . S
C1922 C1923 1.394 . S
C1922 H1930 0.930 . S
C1923 C1922 1.394 . S
C1923 C1924 1.383 . S
C1923 H1931 0.929 . S
C1924 C1923 1.383 . S
C1924 C1925 1.377 . S
C1925 H1909 0.930 . S
C1925 C1924 1.377 . S
C1925 C1926 1.379 . S
C1926 H1910 0.931 . S
C1926 C1920 1.383 . S
C1926 C1925 1.379 . S
H1927 C1921 0.959 . S
H1928 C1921 0.961 . S
H1929 C1921 0.960 . S
H1930 C1922 0.930 . S
H1931 C1923 0.929 . S
H1932 C1940 0.929 . S
H1933 C1942 0.930 . S
H1934 C1944 0.930 . S
H1935 C1947 0.929 . S
H1936 C1950 0.930 . S
H1937 C1952 0.960 . S
H1938 C1952 0.960 . S
H1939 C1952 0.960 . S
C1940 H1932 0.929 . S
C1940 C1941 1.377 . S
C1940 C1942 1.384 . S
C1941 C1940 1.377 . S
C1941 C1947 1.390 . S
C1942 H1933 0.930 . S
C1942 C1940 1.384 . S
C1942 C1943 1.372 . S
C1943 C1942 1.372 . S
C1943 C1944 1.400 . S
C1943 C1948 1.490 . S
C1944 H1934 0.930 . S
C1944 C1943 1.400 . S
C1944 C1947 1.386 . S
H1945 C1961 0.930 . S
H1946 C1962 0.931 . S
C1947 H1935 0.929 . S
C1947 C1941 1.390 . S
C1947 C1944 1.386 . S
C1948 C1943 1.490 . S
C1948 C1950 1.395 . S
C1948 C1951 1.403 . S
H1949 C1955 0.930 . S
C1950 H1936 0.930 . S
C1950 C1948 1.395 . S
C1950 C1953 1.403 . S
C1951 C1948 1.403 . S
C1951 C1952 1.524 . S
C1951 C1955 1.400 . S
C1952 H1937 0.960 . S
C1952 H1938 0.960 . S
C1952 H1939 0.960 . S
C1952 C1951 1.524 . S
C1953 C1950 1.403 . S
C1953 C1954 1.392 . S
C1953 C1957 1.495 . S
C1954 C1953 1.392 . S
C1954 C1955 1.385 . S
C1954 C1956 1.478 . S
C1955 H1949 0.930 . S
C1955 C1951 1.400 . S
C1955 C1954 1.385 . S
C1956 C1954 1.478 . S
C1956 C1958 1.381 . S
C1956 C1962 1.383 . S
C1957 C1953 1.495 . S
C1957 H1963 0.959 . S
C1957 H1964 0.961 . S
C1957 H1965 0.960 . S
C1958 C1956 1.381 . S
C1958 C1959 1.394 . S
C1958 H1966 0.930 . S
C1959 C1958 1.394 . S
C1959 C1960 1.383 . S
C1959 H1967 0.929 . S
C1960 C1959 1.383 . S
C1960 C1961 1.377 . S
C1961 H1945 0.930 . S
C1961 C1960 1.377 . S
C1961 C1962 1.379 . S
C1962 H1946 0.931 . S
C1962 C1956 1.383 . S
C1962 C1961 1.379 . S
H1963 C1957 0.959 . S
H1964 C1957 0.961 . S
H1965 C1957 0.960 . S
H1966 C1958 0.930 . S
H1967 C1959 0.929 . S
C537 C21 1.248 . S
C556 C87 1.252 . S
C573 C120 1.248 . S
C592 C54 1.243 . S
C609 C219 1.252 . S
C628 C153 1.251 . S
C645 C186 1.248 . S
C664 C252 1.248 . S
C681 C351 1.252 . S
C700 C285 1.240 . S
C717 C318 1.248 . S
C736 C384 1.253 . S
C753 C483 1.252 . S
C772 C417 1.236 . S
C789 C450 1.250 . S
C808 C516 1.253 . S
C825 C7 1.422 . S
C844 C337 1.428 . S
C861 C370 1.424 . S
C880 C40 1.441 . S
C897 C271 1.427 . S
C916 C73 1.436 . S
C933 C304 1.427 . S
C952 C106 1.434 . S
C969 C469 1.425 . S
C988 C139 1.408 . S
C1005 C502 1.429 . S
C1024 C172 1.410 . S
C1041 C403 1.422 . S
C1060 C205 1.422 . S
C1077 C436 1.428 . S
C1096 C238 1.405 . S
C1113 C18 1.168 . S
C1132 C249 1.161 . S
C1149 C51 1.168 . S
C1168 C150 1.147 . S
C1185 C183 1.167 . S
C1204 C84 1.152 . S
C1221 C216 1.166 . S
C1240 C117 1.155 . S
C1257 C282 1.165 . S
C1276 C513 1.141 . S
C1293 C315 1.161 . S
C1312 C414 1.164 . S
C1329 C348 1.162 . S
C1348 C447 1.169 . S
C1365 C381 1.165 . S
C1384 C480 1.141 . S
C1401 N464 1.199 . S
C1420 N13 1.204 . S
C1437 N46 1.188 . S
C1456 N497 1.183 . S
C1473 N398 1.190 . S
C1492 N79 1.174 . S
C1509 N431 1.190 . S
C1528 N112 1.175 . S
C1545 N332 1.199 . S
C1564 N145 1.185 . S
C1581 N178 1.195 . S
C1600 N365 1.214 . S
C1617 N266 1.196 . S
C1636 N211 1.214 . S
C1653 N244 1.195 . S
C1672 N299 1.215 . S
C1689 N200 1.199 . S
C1708 N277 1.203 . S
C1725 N233 1.189 . S
C1744 N310 1.169 . S
C1761 N134 1.196 . S
C1780 N343 1.213 . S
C1797 N376 1.190 . S
C1816 N167 1.199 . S
C1833 N68 1.189 . S
C1852 N409 1.181 . S
C1869 N442 1.188 . S
C1888 N101 1.178 . S
C1905 N475 1.198 . S
C1924 N2 1.207 . S
C1941 N35 1.194 . S
C1960 N508 1.207 . S
