# Generated by pormake.
# Topology xbj, (5)-cn, num edge types: 1
# Building blocks:
#     Node 0, Type 0, BuildingBlock: XOMCOT_clean_sbu_1, # of connection points: 5
#     Node 1, Type 0, BuildingBlock: XOMCOT_clean_sbu_1, # of connection points: 5
#     Node 2, Type 0, BuildingBlock: XOMCOT_clean_sbu_1, # of connection points: 5
#     Node 3, Type 0, BuildingBlock: XOMCOT_clean_sbu_1, # of connection points: 5
#     Node 4, Type 0, BuildingBlock: XOMCOT_clean_sbu_1, # of connection points: 5
#     Node 5, Type 0, BuildingBlock: XOMCOT_clean_sbu_1, # of connection points: 5
#     Node 6, Type 0, BuildingBlock: XOMCOT_clean_sbu_1, # of connection points: 5
#     Node 7, Type 0, BuildingBlock: XOMCOT_clean_sbu_1, # of connection points: 5
#     Edge 8, Type (0, 0), BuildingBlock: EYOCIG_clean_linker_4, # of connection points: 2
#     Edge 9, Type (0, 0), BuildingBlock: EYOCIG_clean_linker_4, # of connection points: 2
#     Edge 10, Type (0, 0), BuildingBlock: EYOCIG_clean_linker_4, # of connection points: 2
#     Edge 11, Type (0, 0), BuildingBlock: EYOCIG_clean_linker_4, # of connection points: 2
#     Edge 12, Type (0, 0), BuildingBlock: EYOCIG_clean_linker_4, # of connection points: 2
#     Edge 13, Type (0, 0), BuildingBlock: EYOCIG_clean_linker_4, # of connection points: 2
#     Edge 14, Type (0, 0), BuildingBlock: EYOCIG_clean_linker_4, # of connection points: 2
#     Edge 15, Type (0, 0), BuildingBlock: EYOCIG_clean_linker_4, # of connection points: 2
#     Edge 16, Type (0, 0), BuildingBlock: EYOCIG_clean_linker_4, # of connection points: 2
#     Edge 17, Type (0, 0), BuildingBlock: EYOCIG_clean_linker_4, # of connection points: 2
#     Edge 18, Type (0, 0), BuildingBlock: EYOCIG_clean_linker_4, # of connection points: 2
#     Edge 19, Type (0, 0), BuildingBlock: EYOCIG_clean_linker_4, # of connection points: 2
#     Edge 20, Type (0, 0), BuildingBlock: EYOCIG_clean_linker_4, # of connection points: 2
#     Edge 21, Type (0, 0), BuildingBlock: EYOCIG_clean_linker_4, # of connection points: 2
#     Edge 22, Type (0, 0), BuildingBlock: EYOCIG_clean_linker_4, # of connection points: 2
#     Edge 23, Type (0, 0), BuildingBlock: EYOCIG_clean_linker_4, # of connection points: 2
#     Edge 24, Type (0, 0), BuildingBlock: EYOCIG_clean_linker_4, # of connection points: 2
#     Edge 25, Type (0, 0), BuildingBlock: EYOCIG_clean_linker_4, # of connection points: 2
#     Edge 26, Type (0, 0), BuildingBlock: EYOCIG_clean_linker_4, # of connection points: 2
#     Edge 27, Type (0, 0), BuildingBlock: EYOCIG_clean_linker_4, # of connection points: 2
# Relax obj value: 0.179
# Max RMSD: 0.163
# Mean RMSD: 0.156
data_MOF--net-xbj--node1-XOMCOT_clean_sbu_1--edge1-EYOCIG_clean_linker_4
_symmetry_space_group_name_H-M    P1
_symmetry_Int_Tables_number       1
_symmetry_cell_setting            triclinic
loop_
_symmetry_equiv_pos_as_xyz
'x, y, z'
_cell_length_a     14.620684
_cell_length_b     14.621695
_cell_length_c     90.755869
_cell_angle_alpha  95.861944
_cell_angle_beta   95.804581
_cell_angle_gamma 89.994874
loop_
_atom_site_label
_atom_site_type_symbol
_atom_site_fract_x
_atom_site_fract_y
_atom_site_fract_z
_atom_type_partial_charge
C0 C 0.22326 0.98249 0.02894 0.0
C1 C 0.31764 0.98747 0.02927 0.0
N2 N 0.34991 0.90131 0.02805 0.0
N3 N 0.19632 0.89349 0.02746 0.0
C4 C 0.27553 0.84539 0.02703 0.0
H5 H 0.1769 0.04004 0.02971 0.0
Co6 Co 0.07353 0.85391 0.02664 0.0
C7 C 0.06017 0.68812 0.00569 0.0
O8 O 0.97904 0.71459 0.00022 0.0
N9 N 0.94813 0.81378 0.02667 0.0
C10 C 0.83226 0.72176 0.03061 0.0
C11 C 0.92572 0.72911 0.03016 0.0
C12 C 0.86588 0.85764 0.02569 0.0
N13 N 0.79515 0.80262 0.02778 0.0
O14 O 0.10005 0.80593 0.04487 0.0
H15 H 0.97482 0.67588 0.03252 0.0
H16 H 0.85692 0.92922 0.02416 0.0
O17 O 0.10505 0.73591 0.01659 0.0
C18 C 0.09912 0.8594 0.0567 0.0
O19 O 0.08557 0.94763 0.05601 0.0
N20 N 0.04927 0.90385 0.00827 0.0
C21 C 1.01044 0.97061 -0.01914 0.0
C22 C 0.07946 0.90622 -0.01715 0.0
C23 C 0.09952 0.87546 -0.00325 0.0
C24 C 0.98964 0.97498 0.00691 0.0
C25 C 0.96664 1.00774 -0.00694 0.0
H26 H 0.15599 0.82859 -0.00181 0.0
H27 H 0.9619 1.00834 0.0166 0.0
H28 H 0.27875 0.77108 0.026 0.0
H29 H 0.35935 0.04943 0.03032 0.0
H30 H 0.79474 0.66244 0.03314 0.0
H31 H 0.11846 0.8806 -0.02622 0.0
H32 H 0.91745 0.06269 -0.00799 0.0
C33 C 0.45136 0.84668 0.28393 0.0
C34 C 0.44626 0.94143 0.28507 0.0
N35 N 0.5242 0.97448 0.28086 0.0
N36 N 0.53209 0.82003 0.27895 0.0
C37 C 0.5756 0.9001 0.27735 0.0
H38 H 0.39876 0.79987 0.28629 0.0
Co39 Co 0.5667 0.69563 0.27496 0.0
C40 C 0.68902 0.70481 0.25171 0.0
O41 O 0.64967 0.62972 0.24471 0.0
N42 N 0.60321 0.56852 0.27188 0.0
C43 C 0.69545 0.44591 0.27147 0.0
C44 C 0.6908 0.53957 0.27098 0.0
C45 C 0.55736 0.49021 0.27387 0.0
N46 N 0.6115 0.41521 0.2733 0.0
O47 O 0.64261 0.70514 0.29283 0.0
H48 H 0.74959 0.58418 0.27088 0.0
H49 H 0.48782 0.48849 0.27687 0.0
O50 O 0.66705 0.73607 0.26449 0.0
C51 C 0.59916 0.67376 0.30262 0.0
O52 O 0.51337 0.64655 0.29928 0.0
N53 N 0.48615 0.68676 0.25721 0.0
C54 C 0.37584 0.66733 0.2304 0.0
C55 C 0.43672 0.74142 0.2337 0.0
C56 C 0.49005 0.75105 0.24732 0.0
C57 C 0.41953 0.62009 0.25471 0.0
C58 C 0.36471 0.60753 0.24113 0.0
H59 H 0.53661 0.80911 0.24966 0.0
H60 H 0.40735 0.57719 0.26324 0.0
H61 H 0.64246 0.90403 0.2733 0.0
H62 H 0.38901 0.98272 0.28844 0.0
H63 H 0.75665 0.40428 0.27124 0.0
H64 H 0.4436 0.79111 0.22578 0.0
H65 H 0.31403 0.55245 0.23911 0.0
C66 C 0.72942 0.48232 0.53011 0.0
C67 C 0.82384 0.48719 0.53048 0.0
N68 N 0.85581 0.40101 0.52888 0.0
N69 N 0.70219 0.39337 0.52822 0.0
C70 C 0.78123 0.34517 0.52759 0.0
H71 H 0.68326 0.53991 0.53113 0.0
Co72 Co 0.57931 0.35386 0.52725 0.0
C73 C 0.56502 0.19185 0.50553 0.0
O74 O 0.4841 0.21982 0.50023 0.0
N75 N 0.45377 0.31357 0.52714 0.0
C76 C 0.3377 0.22035 0.53057 0.0
C77 C 0.43117 0.2279 0.53014 0.0
C78 C 0.37165 0.35773 0.52644 0.0
N79 N 0.3008 0.30204 0.52823 0.0
O80 O 0.60592 0.30233 0.54517 0.0
H81 H 0.48012 0.17402 0.53217 0.0
H82 H 0.36286 0.42987 0.52535 0.0
O83 O 0.6103 0.23744 0.51663 0.0
C84 C 0.60355 0.35386 0.55716 0.0
O85 O 0.58861 0.44212 0.55681 0.0
N86 N 0.55496 0.40732 0.50919 0.0
C87 C 0.51395 0.47663 0.48204 0.0
C88 C 0.58404 0.4131 0.48379 0.0
C89 C 0.60518 0.38105 0.49757 0.0
C90 C 0.49472 0.47815 0.50811 0.0
C91 C 0.47057 0.51213 0.49439 0.0
H92 H 0.66198 0.33437 0.49882 0.0
H93 H 0.46709 0.51008 0.51791 0.0
H94 H 0.7842 0.27085 0.52624 0.0
H95 H 0.86576 0.54909 0.53182 0.0
H96 H 0.30005 0.16026 0.53276 0.0
H97 H 0.62269 0.38875 0.47461 0.0
H98 H 0.42053 0.56647 0.49353 0.0
C99 C 0.95076 0.34927 0.78452 0.0
C100 C 0.94591 0.44404 0.7857 0.0
N101 N 0.02321 0.47688 0.78123 0.0
N102 N 0.03067 0.32239 0.77927 0.0
C103 C 0.07398 0.40234 0.77754 0.0
H104 H 0.89852 0.30261 0.78706 0.0
Co105 Co 0.06464 0.1979 0.77514 0.0
C106 C 0.18201 0.20676 0.75121 0.0
O107 O 0.14153 0.13179 0.74438 0.0
N108 N 0.10068 0.07072 0.77193 0.0
C109 C 0.19243 0.94776 0.771 0.0
C110 C 0.18769 0.04143 0.77051 0.0
C111 C 0.05551 0.99263 0.77422 0.0
N112 N 0.10927 0.9174 0.77334 0.0
O113 O 0.14367 0.20766 0.79268 0.0
H114 H 0.24619 0.08579 0.77004 0.0
H115 H 0.98691 0.99124 0.77764 0.0
O116 O 0.16256 0.23805 0.76414 0.0
C117 C 0.10234 0.1769 0.80276 0.0
O118 O 0.01632 0.14961 0.79987 0.0
N119 N 0.98114 0.18889 0.75771 0.0
C120 C 0.86849 0.16843 0.73116 0.0
C121 C 0.92849 0.2433 0.73432 0.0
C122 C 0.98303 0.2534 0.74782 0.0
C123 C 0.91511 0.12158 0.75539 0.0
C124 C 0.85914 0.10851 0.74193 0.0
H125 H 0.0293 0.31174 0.75002 0.0
H126 H 0.90453 0.07832 0.76395 0.0
H127 H 0.1402 0.40607 0.77327 0.0
H128 H 0.88924 0.48549 0.78926 0.0
H129 H 0.2533 0.90588 0.7704 0.0
H130 H 0.93406 0.293 0.72636 0.0
H131 H 0.8092 0.05273 0.74001 0.0
C132 C 0.98081 0.37346 0.8931 0.0
C133 C 0.88609 0.3792 0.89198 0.0
N134 N 0.8523 0.29992 0.89558 0.0
N135 N 1.00675 0.29099 0.89745 0.0
C136 C 0.92624 0.24712 0.89869 0.0
H137 H 0.02809 0.42684 0.89118 0.0
Co138 Co 0.13098 0.25518 0.90132 0.0
C139 C 0.11846 0.12184 0.92284 0.0
O140 O 0.19307 0.15843 0.93043 0.0
N141 N 0.25792 0.21793 0.90425 0.0
C142 C 0.3804 0.12571 0.90376 0.0
C143 C 0.28673 0.12975 0.90428 0.0
C144 C 0.33638 0.26513 0.90278 0.0
N145 N 0.41131 0.21085 0.9028 0.0
O146 O 0.12337 0.1868 0.88275 0.0
H147 H 0.24203 0.0704 0.90372 0.0
H148 H 0.3382 0.33614 0.9005 0.0
O149 O 0.08904 0.14941 0.91036 0.0
C150 C 0.15691 0.23372 0.87358 0.0
O151 O 0.18427 0.31871 0.87776 0.0
N152 N 0.13816 0.32831 0.91984 0.0
C153 C 0.15304 0.43066 0.94742 0.0
C154 C 0.07996 0.3693 0.94338 0.0
C155 C 0.07266 0.31999 0.9294 0.0
C156 C 0.20461 0.39479 0.92317 0.0
C157 C 0.21476 0.44567 0.93713 0.0
H158 H 0.01499 0.27347 0.92647 0.0
H159 H 0.24892 0.41025 0.91501 0.0
H160 H 0.92165 0.17901 0.90225 0.0
H161 H 0.84534 0.43778 0.88908 0.0
H162 H 0.42185 0.06429 0.90333 0.0
H163 H 0.02885 0.35946 0.95095 0.0
H164 H 0.26918 0.49679 0.93976 0.0
C165 C 0.83995 0.59005 0.14306 0.0
C166 C 0.83471 0.49555 0.14251 0.0
N167 N 0.92029 0.46374 0.14523 0.0
N168 N 0.92848 0.61752 0.14618 0.0
C169 C 0.97614 0.5385 0.14735 0.0
H170 H 0.78283 0.63615 0.14138 0.0
Co171 Co 0.96803 0.74083 0.14809 0.0
C172 C 0.1212 0.75179 0.17141 0.0
O173 O 0.09012 0.8311 0.17685 0.0
N174 N 1.00866 0.867 0.14911 0.0
C175 C 0.10381 0.98488 0.14738 0.0
C176 C 0.09677 0.89136 0.14778 0.0
C177 C 0.96289 0.94799 0.14867 0.0
N178 N 0.01957 0.02001 0.14797 0.0
O179 O 0.02642 0.71765 0.13073 0.0
H180 H 0.15276 0.84356 0.14675 0.0
H181 H 0.88932 0.9548 0.148 0.0
O182 O 0.08081 0.70858 0.15963 0.0
C183 C 0.97994 0.73413 0.11881 0.0
O184 O 0.89379 0.75887 0.11905 0.0
N185 N 0.90768 0.76203 0.16558 0.0
C186 C 0.83416 0.80159 0.19242 0.0
C187 C 0.8943 0.72853 0.19057 0.0
C188 C 0.92855 0.70831 0.17693 0.0
C189 C 0.83928 0.82512 0.16664 0.0
C190 C 0.8033 0.84846 0.18023 0.0
H191 H 0.97396 0.65044 0.17567 0.0
H192 H 0.81109 0.85616 0.15696 0.0
H193 H 0.05005 0.53571 0.14977 0.0
H194 H 0.77292 0.4535 0.14035 0.0
H195 H 0.16546 0.0237 0.14632 0.0
H196 H 0.91519 0.68762 0.19962 0.0
H197 H 0.75155 0.90122 0.18113 0.0
C198 C 0.47469 0.8715 0.39269 0.0
C199 C 0.37997 0.87699 0.39157 0.0
N200 N 0.34647 0.79818 0.3954 0.0
N201 N 0.50091 0.78966 0.39727 0.0
C202 C 0.42058 0.74591 0.39865 0.0
H203 H 0.52179 0.9246 0.3906 0.0
Co204 Co 0.62518 0.75429 0.40116 0.0
C205 C 0.61422 0.62523 0.42337 0.0
O206 O 0.68914 0.66292 0.4307 0.0
N207 N 0.75217 0.71727 0.40412 0.0
C208 C 0.87462 0.62489 0.40394 0.0
C209 C 0.78095 0.62923 0.40445 0.0
C210 C 0.83063 0.76395 0.40247 0.0
N211 N 0.90553 0.70963 0.40268 0.0
O212 O 0.61673 0.68289 0.38285 0.0
H213 H 0.73621 0.57009 0.40412 0.0
H214 H 0.83251 0.83446 0.39994 0.0
O215 O 0.58386 0.6506 0.41078 0.0
C216 C 0.64949 0.72859 0.37346 0.0
O217 O 0.67658 0.81398 0.37733 0.0
N218 N 0.63315 0.83039 0.41939 0.0
C219 C 0.65059 0.93548 0.44671 0.0
C220 C 0.57695 0.87442 0.44299 0.0
C221 C 0.56834 0.82375 0.42912 0.0
C222 C 0.6997 0.89697 0.42237 0.0
C223 C 0.7112 0.94918 0.4362 0.0
H224 H 0.51044 0.77725 0.42644 0.0
H225 H 0.74318 0.91129 0.41402 0.0
H226 H 0.41626 0.67824 0.40239 0.0
H227 H 0.339 0.93507 0.38849 0.0
H228 H 0.91608 0.56349 0.40374 0.0
H229 H 0.52664 0.86563 0.45074 0.0
H230 H 0.76596 1.0001 0.43858 0.0
C231 C 0.33799 0.08692 0.64304 0.0
C232 C 0.33303 0.99243 0.64254 0.0
N233 N 0.41869 0.96091 0.64531 0.0
N234 N 0.42643 0.11467 0.6462 0.0
C235 C 0.4743 0.03584 0.64743 0.0
H236 H 0.28077 0.1328 0.6413 0.0
Co237 Co 0.46583 0.23797 0.64801 0.0
C238 C 0.61706 0.25065 0.67166 0.0
O239 O 0.58573 0.33044 0.67685 0.0
N240 N 0.50649 0.36409 0.64894 0.0
C241 C 0.60213 0.48162 0.64724 0.0
C242 C 0.59469 0.38811 0.64762 0.0
C243 C 0.4611 0.44533 0.64858 0.0
N244 N 0.51807 0.51712 0.64788 0.0
O245 O 0.52614 0.2137 0.63087 0.0
H246 H 0.65051 0.34007 0.64661 0.0
H247 H 0.38762 0.45261 0.64802 0.0
O248 O 0.57755 0.20657 0.65989 0.0
C249 C 0.48031 0.22718 0.61875 0.0
O250 O 0.3935 0.25009 0.61864 0.0
N251 N 0.40353 0.26016 0.66527 0.0
C252 C 0.32677 0.3014 0.69177 0.0
C253 C 0.38772 0.22876 0.69028 0.0
C254 C 0.42357 0.20763 0.67679 0.0
C255 C 0.33432 0.32255 0.66596 0.0
C256 C 0.2967 0.34682 0.67938 0.0
H257 H 0.46941 0.14994 0.67579 0.0
H258 H 0.30681 0.35231 0.65611 0.0
H259 H 0.54822 0.03331 0.64987 0.0
H260 H 0.27139 0.95016 0.64034 0.0
H261 H 0.66395 0.52022 0.6462 0.0
H262 H 0.40798 0.18887 0.69948 0.0
H263 H 0.24436 0.39913 0.68 0.0
C264 C 0.08434 0.78879 0.08172 0.0
C265 C 0.09116 0.82047 0.07023 0.0
C266 C 0.05874 0.75934 0.09491 0.0
C267 C 0.02645 0.74648 0.10614 0.0
C268 C 0.6641 0.66964 0.34577 0.0
C269 C 0.65495 0.68988 0.35862 0.0
C270 C 0.66066 0.66456 0.33031 0.0
C271 C 0.64016 0.67144 0.31739 0.0
C272 C 0.58784 0.27986 0.58186 0.0
C273 C 0.59521 0.31246 0.57046 0.0
C274 C 0.56122 0.25051 0.59498 0.0
C275 C 0.52787 0.23866 0.60616 0.0
C276 C 0.17205 0.17668 0.84581 0.0
C277 C 0.16284 0.19673 0.85867 0.0
C278 C 0.16774 0.17063 0.83034 0.0
C279 C 0.1457 0.17623 0.81743 0.0
C280 C 0.13693 0.57005 -0.0127 0.0
C281 C 0.10862 0.62393 -0.00342 0.0
C282 C 0.15682 0.51902 -0.02588 0.0
C283 C 0.15995 0.48144 0.9618 0.0
C284 C 0.76239 0.801 0.23325 0.0
C285 C 0.73202 0.76499 0.24303 0.0
C286 C 0.78481 0.82373 0.2194 0.0
C287 C 0.80147 0.82221 0.2067 0.0
C288 C 0.51614 0.54883 0.44125 0.0
C289 C 0.55286 0.58068 0.43167 0.0
C290 C 0.49288 0.52563 0.45503 0.0
C291 C 0.49443 0.50935 0.46774 0.0
C292 C 0.7765 0.15744 0.70473 0.0
C293 C 0.81532 0.15655 0.71699 0.0
C294 C 0.72764 0.17545 0.69127 0.0
C295 C 0.67775 0.20304 0.68143 0.0
C296 C 0.25316 0.30252 0.73245 0.0
C297 C 0.22387 0.26656 0.74234 0.0
C298 C 0.27526 0.32505 0.71858 0.0
C299 C 0.29263 0.32307 0.70591 0.0
C300 C 0.23426 0.67589 0.19058 0.0
C301 C 0.18323 0.70367 0.18089 0.0
C302 C 0.28405 0.6577 0.20395 0.0
C303 C 0.3229 0.65657 0.21621 0.0
C304 C 0.65803 0.02461 0.47338 0.0
C305 C 0.65961 0.98672 0.46106 0.0
C306 C 0.63984 0.07522 0.4867 0.0
C307 C 0.61256 0.12827 0.49619 0.0
C308 C 0.99313 0.01942 0.95381 0.0
C309 C 0.99317 1.00318 -0.03349 0.0
C310 C 0.01813 0.04339 0.94018 0.0
C311 C 0.056 0.07635 0.93082 0.0
C312 C 0.61983 0.84121 0.02764 0.0
C313 C 0.70123 0.82502 0.02765 0.0
C314 C 0.52408 0.85894 0.02772 0.0
C315 C 0.44301 0.87638 0.02784 0.0
C316 C 0.57323 0.24356 0.27681 0.0
C317 C 0.58838 0.32359 0.27523 0.0
C318 C 0.55813 0.14859 0.27835 0.0
C319 C 0.54384 0.0677 0.27943 0.0
C320 C 0.12557 0.34065 0.52827 0.0
C321 C 0.20692 0.32442 0.52821 0.0
C322 C 0.02987 0.35846 0.52841 0.0
C323 C 0.94884 0.37598 0.52859 0.0
C324 C 0.07175 0.74587 0.77703 0.0
C325 C 0.08659 0.82586 0.77539 0.0
C326 C 0.05688 0.65091 0.77862 0.0
C327 C 0.04271 0.57005 0.77974 0.0
C328 C 0.67797 0.266 0.89797 0.0
C329 C 0.75894 0.28031 0.89693 0.0
C330 C 0.58295 0.25065 0.89948 0.0
C331 C 0.50289 0.23496 0.90099 0.0
C332 C 0.97968 0.19436 0.14691 0.0
C333 C 0.99628 0.11335 0.14741 0.0
C334 C 0.9619 0.28985 0.14638 0.0
C335 C 0.94469 0.37078 0.14592 0.0
C336 C 0.07722 0.74886 0.39933 0.0
C337 C 0.99716 0.73335 0.40085 0.0
C338 C 0.17223 0.76416 0.39782 0.0
C339 C 0.25317 0.77851 0.39677 0.0
C340 C 0.46077 0.78715 0.64645 0.0
C341 C 0.44338 0.86804 0.64599 0.0
C342 C 0.47864 0.69165 0.64693 0.0
C343 C 0.49513 0.61058 0.64739 0.0
loop_
_geom_bond_atom_site_label_1
_geom_bond_atom_site_label_2
_geom_bond_distance
_geom_bond_site_symmetry_2
_ccdc_geom_bond_type
C0 C1 1.351 . S
C0 N3 1.368 . S
C0 H5 0.931 . S
C1 C0 1.351 . S
C1 N2 1.373 . S
C1 H29 0.930 . S
N2 C1 1.373 . S
N2 C4 1.340 . S
N3 C0 1.368 . S
N3 C4 1.321 . S
N3 Co6 2.135 . S
C4 N2 1.340 . S
C4 N3 1.321 . S
C4 H28 0.930 . S
H5 C0 0.931 . S
Co6 N3 2.135 . S
Co6 N9 2.121 1_455 S
Co6 O14 2.055 . S
Co6 O17 2.039 . S
Co6 N20 2.140 . S
C7 O8 1.227 . S
C7 O17 1.265 . S
O8 C7 1.227 . S
N9 Co6 2.121 1_655 S
N9 C11 1.375 . S
N9 C12 1.313 . S
C10 C11 1.338 . S
C10 N13 1.377 . S
C10 H30 0.930 . S
C11 N9 1.375 . S
C11 C10 1.338 . S
C11 H15 0.931 . S
C12 N9 1.313 . S
C12 N13 1.344 . S
C12 H16 0.930 . S
N13 C10 1.377 . S
N13 C12 1.344 . S
O14 Co6 2.055 . S
O14 C18 1.253 . S
H15 C11 0.931 . S
H16 C12 0.930 . S
O17 Co6 2.039 . S
O17 C7 1.265 . S
C18 O14 1.253 . S
C18 O19 1.227 . S
O19 C18 1.227 . S
N20 Co6 2.140 . S
N20 C23 1.346 . S
N20 C24 1.345 1_455 S
C21 C22 1.387 . S
C21 C25 1.391 1_455 S
C22 C21 1.387 . S
C22 C23 1.369 . S
C22 H31 0.929 . S
C23 N20 1.346 . S
C23 C22 1.369 . S
C23 H26 0.928 . S
C24 N20 1.345 1_655 S
C24 C25 1.371 . S
C24 H27 0.931 . S
C25 C21 1.391 1_655 S
C25 C24 1.371 . S
C25 H32 0.930 1_565 S
H26 C23 0.928 . S
H27 C24 0.931 . S
H28 C4 0.930 . S
H29 C1 0.930 . S
H30 C10 0.930 . S
H31 C22 0.929 . S
H32 C25 0.930 1_545 S
C33 C34 1.351 1_565 S
C33 N36 1.368 . S
C33 H38 0.931 . S
C34 C33 1.351 1_545 S
C34 N35 1.373 . S
C34 H62 0.930 . S
N35 C34 1.373 . S
N35 C37 1.340 1_545 S
N36 C33 1.368 . S
N36 C37 1.321 . S
N36 Co39 2.135 . S
C37 N35 1.340 1_565 S
C37 N36 1.321 . S
C37 H61 0.930 . S
H38 C33 0.931 . S
Co39 N36 2.135 . S
Co39 N42 2.121 . S
Co39 O47 2.055 . S
Co39 O50 2.039 . S
Co39 N53 2.140 . S
C40 O41 1.227 . S
C40 O50 1.265 . S
O41 C40 1.227 . S
N42 Co39 2.121 . S
N42 C44 1.375 . S
N42 C45 1.313 . S
C43 C44 1.338 . S
C43 N46 1.377 . S
C43 H63 0.930 . S
C44 N42 1.375 . S
C44 C43 1.338 . S
C44 H48 0.931 . S
C45 N42 1.313 . S
C45 N46 1.344 . S
C45 H49 0.930 . S
N46 C43 1.377 . S
N46 C45 1.344 . S
O47 Co39 2.055 . S
O47 C51 1.253 . S
H48 C44 0.931 . S
H49 C45 0.930 . S
O50 Co39 2.039 . S
O50 C40 1.265 . S
C51 O47 1.253 . S
C51 O52 1.227 . S
O52 C51 1.227 . S
N53 Co39 2.140 . S
N53 C56 1.346 . S
N53 C57 1.345 . S
C54 C55 1.387 . S
C54 C58 1.391 . S
C55 C54 1.387 . S
C55 C56 1.369 . S
C55 H64 0.929 . S
C56 N53 1.346 . S
C56 C55 1.369 . S
C56 H59 0.928 . S
C57 N53 1.345 . S
C57 C58 1.371 . S
C57 H60 0.931 . S
C58 C54 1.391 . S
C58 C57 1.371 . S
C58 H65 0.930 . S
H59 C56 0.928 . S
H60 C57 0.931 . S
H61 C37 0.930 . S
H62 C34 0.930 . S
H63 C43 0.930 . S
H64 C55 0.929 . S
H65 C58 0.930 . S
C66 C67 1.351 . S
C66 N69 1.368 . S
C66 H71 0.931 . S
C67 C66 1.351 . S
C67 N68 1.373 . S
C67 H95 0.930 . S
N68 C67 1.373 . S
N68 C70 1.340 . S
N69 C66 1.368 . S
N69 C70 1.321 . S
N69 Co72 2.135 . S
C70 N68 1.340 . S
C70 N69 1.321 . S
C70 H94 0.930 . S
H71 C66 0.931 . S
Co72 N69 2.135 . S
Co72 N75 2.121 . S
Co72 O80 2.055 . S
Co72 O83 2.039 . S
Co72 N86 2.140 . S
C73 O74 1.227 . S
C73 O83 1.265 . S
O74 C73 1.227 . S
N75 Co72 2.121 . S
N75 C77 1.375 . S
N75 C78 1.313 . S
C76 C77 1.338 . S
C76 N79 1.377 . S
C76 H96 0.930 . S
C77 N75 1.375 . S
C77 C76 1.338 . S
C77 H81 0.931 . S
C78 N75 1.313 . S
C78 N79 1.344 . S
C78 H82 0.930 . S
N79 C76 1.377 . S
N79 C78 1.344 . S
O80 Co72 2.055 . S
O80 C84 1.253 . S
H81 C77 0.931 . S
H82 C78 0.930 . S
O83 Co72 2.039 . S
O83 C73 1.265 . S
C84 O80 1.253 . S
C84 O85 1.227 . S
O85 C84 1.227 . S
N86 Co72 2.140 . S
N86 C89 1.346 . S
N86 C90 1.345 . S
C87 C88 1.387 . S
C87 C91 1.391 . S
C88 C87 1.387 . S
C88 C89 1.369 . S
C88 H97 0.929 . S
C89 N86 1.346 . S
C89 C88 1.369 . S
C89 H92 0.928 . S
C90 N86 1.345 . S
C90 C91 1.371 . S
C90 H93 0.931 . S
C91 C87 1.391 . S
C91 C90 1.371 . S
C91 H98 0.930 . S
H92 C89 0.928 . S
H93 C90 0.931 . S
H94 C70 0.930 . S
H95 C67 0.930 . S
H96 C76 0.930 . S
H97 C88 0.929 . S
H98 C91 0.930 . S
C99 C100 1.351 . S
C99 N102 1.368 . S
C99 H104 0.931 . S
C100 C99 1.351 . S
C100 N101 1.373 . S
C100 H128 0.930 . S
N101 C100 1.373 . S
N101 C103 1.340 . S
N102 C99 1.368 . S
N102 C103 1.321 . S
N102 Co105 2.135 . S
C103 N101 1.340 . S
C103 N102 1.321 . S
C103 H127 0.930 . S
H104 C99 0.931 . S
Co105 N102 2.135 . S
Co105 N108 2.121 . S
Co105 O113 2.055 . S
Co105 O116 2.039 . S
Co105 N119 2.140 1_455 S
C106 O107 1.227 . S
C106 O116 1.265 . S
O107 C106 1.227 . S
N108 Co105 2.121 . S
N108 C110 1.375 . S
N108 C111 1.313 . S
C109 C110 1.338 1_565 S
C109 N112 1.377 . S
C109 H129 0.930 . S
C110 N108 1.375 . S
C110 C109 1.338 1_545 S
C110 H114 0.931 . S
C111 N108 1.313 . S
C111 N112 1.344 1_545 S
C111 H115 0.930 . S
N112 C109 1.377 . S
N112 C111 1.344 1_565 S
O113 Co105 2.055 . S
O113 C117 1.253 . S
H114 C110 0.931 . S
H115 C111 0.930 . S
O116 Co105 2.039 . S
O116 C106 1.265 . S
C117 O113 1.253 . S
C117 O118 1.227 . S
O118 C117 1.227 . S
N119 Co105 2.140 1_655 S
N119 C122 1.346 . S
N119 C123 1.345 . S
C120 C121 1.387 . S
C120 C124 1.391 . S
C121 C120 1.387 . S
C121 C122 1.369 . S
C121 H130 0.929 . S
C122 N119 1.346 . S
C122 C121 1.369 . S
C122 H125 0.928 1_655 S
C123 N119 1.345 . S
C123 C124 1.371 . S
C123 H126 0.931 . S
C124 C120 1.391 . S
C124 C123 1.371 . S
C124 H131 0.930 . S
H125 C122 0.928 1_455 S
H126 C123 0.931 . S
H127 C103 0.930 . S
H128 C100 0.930 . S
H129 C109 0.930 . S
H130 C121 0.929 . S
H131 C124 0.930 . S
C132 C133 1.351 . S
C132 N135 1.368 . S
C132 H137 0.931 . S
C133 C132 1.351 . S
C133 N134 1.373 . S
C133 H161 0.930 . S
N134 C133 1.373 . S
N134 C136 1.340 . S
N135 C132 1.368 . S
N135 C136 1.321 . S
N135 Co138 2.135 1_655 S
C136 N134 1.340 . S
C136 N135 1.321 . S
C136 H160 0.930 . S
H137 C132 0.931 . S
Co138 N135 2.135 1_455 S
Co138 N141 2.121 . S
Co138 O146 2.055 . S
Co138 O149 2.039 . S
Co138 N152 2.140 . S
C139 O140 1.227 . S
C139 O149 1.265 . S
O140 C139 1.227 . S
N141 Co138 2.121 . S
N141 C143 1.375 . S
N141 C144 1.313 . S
C142 C143 1.338 . S
C142 N145 1.377 . S
C142 H162 0.930 . S
C143 N141 1.375 . S
C143 C142 1.338 . S
C143 H147 0.931 . S
C144 N141 1.313 . S
C144 N145 1.344 . S
C144 H148 0.930 . S
N145 C142 1.377 . S
N145 C144 1.344 . S
O146 Co138 2.055 . S
O146 C150 1.253 . S
H147 C143 0.931 . S
H148 C144 0.930 . S
O149 Co138 2.039 . S
O149 C139 1.265 . S
C150 O146 1.253 . S
C150 O151 1.227 . S
O151 C150 1.227 . S
N152 Co138 2.140 . S
N152 C155 1.346 1_455 S
N152 C156 1.345 . S
C153 C154 1.387 1_455 S
C153 C157 1.391 . S
C154 C153 1.387 1_655 S
C154 C155 1.369 . S
C154 H163 0.929 . S
C155 N152 1.346 1_655 S
C155 C154 1.369 . S
C155 H158 0.928 . S
C156 N152 1.345 . S
C156 C157 1.371 . S
C156 H159 0.931 . S
C157 C153 1.391 . S
C157 C156 1.371 . S
C157 H164 0.930 . S
H158 C155 0.928 . S
H159 C156 0.931 . S
H160 C136 0.930 . S
H161 C133 0.930 . S
H162 C142 0.930 . S
H163 C154 0.929 . S
H164 C157 0.930 . S
C165 C166 1.351 . S
C165 N168 1.368 1_655 S
C165 H170 0.931 . S
C166 C165 1.351 . S
C166 N167 1.373 1_655 S
C166 H194 0.930 . S
N167 C166 1.373 1_455 S
N167 C169 1.340 . S
N168 C165 1.368 1_455 S
N168 C169 1.321 . S
N168 Co171 2.135 . S
C169 N167 1.340 . S
C169 N168 1.321 . S
C169 H193 0.930 . S
H170 C165 0.931 . S
Co171 N168 2.135 . S
Co171 N174 2.121 . S
Co171 O179 2.055 . S
Co171 O182 2.039 . S
Co171 N185 2.140 1_455 S
C172 O173 1.227 . S
C172 O182 1.265 . S
O173 C172 1.227 . S
N174 Co171 2.121 . S
N174 C176 1.375 . S
N174 C177 1.313 . S
C175 C176 1.338 1_545 S
C175 N178 1.377 . S
C175 H195 0.930 . S
C176 N174 1.375 . S
C176 C175 1.338 1_565 S
C176 H180 0.931 . S
C177 N174 1.313 . S
C177 N178 1.344 1_565 S
C177 H181 0.930 . S
N178 C175 1.377 . S
N178 C177 1.344 1_545 S
O179 Co171 2.055 . S
O179 C183 1.253 1_455 S
H180 C176 0.931 . S
H181 C177 0.930 . S
O182 Co171 2.039 . S
O182 C172 1.265 . S
C183 O179 1.253 1_655 S
C183 O184 1.227 . S
O184 C183 1.227 . S
N185 Co171 2.140 1_655 S
N185 C188 1.346 . S
N185 C189 1.345 . S
C186 C187 1.387 . S
C186 C190 1.391 . S
C187 C186 1.387 . S
C187 C188 1.369 . S
C187 H196 0.929 . S
C188 N185 1.346 . S
C188 C187 1.369 . S
C188 H191 0.928 . S
C189 N185 1.345 . S
C189 C190 1.371 . S
C189 H192 0.931 . S
C190 C186 1.391 . S
C190 C189 1.371 . S
C190 H197 0.930 . S
H191 C188 0.928 . S
H192 C189 0.931 . S
H193 C169 0.930 . S
H194 C166 0.930 . S
H195 C175 0.930 . S
H196 C187 0.929 . S
H197 C190 0.930 . S
C198 C199 1.351 . S
C198 N201 1.368 . S
C198 H203 0.931 . S
C199 C198 1.351 . S
C199 N200 1.373 . S
C199 H227 0.930 . S
N200 C199 1.373 . S
N200 C202 1.340 . S
N201 C198 1.368 . S
N201 C202 1.321 . S
N201 Co204 2.135 . S
C202 N200 1.340 . S
C202 N201 1.321 . S
C202 H226 0.930 . S
H203 C198 0.931 . S
Co204 N201 2.135 . S
Co204 N207 2.121 . S
Co204 O212 2.055 . S
Co204 O215 2.039 . S
Co204 N218 2.140 . S
C205 O206 1.227 . S
C205 O215 1.265 . S
O206 C205 1.227 . S
N207 Co204 2.121 . S
N207 C209 1.375 . S
N207 C210 1.313 . S
C208 C209 1.338 . S
C208 N211 1.377 . S
C208 H228 0.930 . S
C209 N207 1.375 . S
C209 C208 1.338 . S
C209 H213 0.931 . S
C210 N207 1.313 . S
C210 N211 1.344 . S
C210 H214 0.930 . S
N211 C208 1.377 . S
N211 C210 1.344 . S
O212 Co204 2.055 . S
O212 C216 1.253 . S
H213 C209 0.931 . S
H214 C210 0.930 . S
O215 Co204 2.039 . S
O215 C205 1.265 . S
C216 O212 1.253 . S
C216 O217 1.227 . S
O217 C216 1.227 . S
N218 Co204 2.140 . S
N218 C221 1.346 . S
N218 C222 1.345 . S
C219 C220 1.387 . S
C219 C223 1.391 . S
C220 C219 1.387 . S
C220 C221 1.369 . S
C220 H229 0.929 . S
C221 N218 1.346 . S
C221 C220 1.369 . S
C221 H224 0.928 . S
C222 N218 1.345 . S
C222 C223 1.371 . S
C222 H225 0.931 . S
C223 C219 1.391 . S
C223 C222 1.371 . S
C223 H230 0.930 . S
H224 C221 0.928 . S
H225 C222 0.931 . S
H226 C202 0.930 . S
H227 C199 0.930 . S
H228 C208 0.930 . S
H229 C220 0.929 . S
H230 C223 0.930 . S
C231 C232 1.351 1_545 S
C231 N234 1.368 . S
C231 H236 0.931 . S
C232 C231 1.351 1_565 S
C232 N233 1.373 . S
C232 H260 0.930 . S
N233 C232 1.373 . S
N233 C235 1.340 1_565 S
N234 C231 1.368 . S
N234 C235 1.321 . S
N234 Co237 2.135 . S
C235 N233 1.340 1_545 S
C235 N234 1.321 . S
C235 H259 0.930 . S
H236 C231 0.931 . S
Co237 N234 2.135 . S
Co237 N240 2.121 . S
Co237 O245 2.055 . S
Co237 O248 2.039 . S
Co237 N251 2.140 . S
C238 O239 1.227 . S
C238 O248 1.265 . S
O239 C238 1.227 . S
N240 Co237 2.121 . S
N240 C242 1.375 . S
N240 C243 1.313 . S
C241 C242 1.338 . S
C241 N244 1.377 . S
C241 H261 0.930 . S
C242 N240 1.375 . S
C242 C241 1.338 . S
C242 H246 0.931 . S
C243 N240 1.313 . S
C243 N244 1.344 . S
C243 H247 0.930 . S
N244 C241 1.377 . S
N244 C243 1.344 . S
O245 Co237 2.055 . S
O245 C249 1.253 . S
H246 C242 0.931 . S
H247 C243 0.930 . S
O248 Co237 2.039 . S
O248 C238 1.265 . S
C249 O245 1.253 . S
C249 O250 1.227 . S
O250 C249 1.227 . S
N251 Co237 2.140 . S
N251 C254 1.346 . S
N251 C255 1.345 . S
C252 C253 1.387 . S
C252 C256 1.391 . S
C253 C252 1.387 . S
C253 C254 1.369 . S
C253 H262 0.929 . S
C254 N251 1.346 . S
C254 C253 1.369 . S
C254 H257 0.928 . S
C255 N251 1.345 . S
C255 C256 1.371 . S
C255 H258 0.931 . S
C256 C252 1.391 . S
C256 C255 1.371 . S
C256 H263 0.930 . S
H257 C254 0.928 . S
H258 C255 0.931 . S
H259 C235 0.930 . S
H260 C232 0.930 . S
H261 C241 0.930 . S
H262 C253 0.929 . S
H263 C256 0.930 . S
C264 C265 1.170 . S
C264 C266 1.380 . S
C265 C264 1.170 . S
C266 C264 1.380 . S
C266 C267 1.170 . S
C267 C266 1.170 . S
C268 C269 1.170 . S
C268 C270 1.380 . S
C269 C268 1.170 . S
C270 C268 1.380 . S
C270 C271 1.170 . S
C271 C270 1.170 . S
C272 C273 1.170 . S
C272 C274 1.380 . S
C273 C272 1.170 . S
C274 C272 1.380 . S
C274 C275 1.170 . S
C275 C274 1.170 . S
C276 C277 1.170 . S
C276 C278 1.380 . S
C277 C276 1.170 . S
C278 C276 1.380 . S
C278 C279 1.170 . S
C279 C278 1.170 . S
C280 C281 1.170 . S
C280 C282 1.380 1_554 S
C281 C280 1.170 . S
C282 C280 1.380 1_556 S
C282 C283 1.170 . S
C283 C282 1.170 . S
C284 C285 1.170 . S
C284 C286 1.380 . S
C285 C284 1.170 . S
C286 C284 1.380 . S
C286 C287 1.170 . S
C287 C286 1.170 . S
C288 C289 1.170 . S
C288 C290 1.380 . S
C289 C288 1.170 . S
C290 C288 1.380 . S
C290 C291 1.170 . S
C291 C290 1.170 . S
C292 C293 1.170 . S
C292 C294 1.380 . S
C293 C292 1.170 . S
C294 C292 1.380 . S
C294 C295 1.170 . S
C295 C294 1.170 . S
C296 C297 1.170 . S
C296 C298 1.380 . S
C297 C296 1.170 . S
C298 C296 1.380 . S
C298 C299 1.170 . S
C299 C298 1.170 . S
C300 C301 1.170 . S
C300 C302 1.380 . S
C301 C300 1.170 . S
C302 C300 1.380 . S
C302 C303 1.170 . S
C303 C302 1.170 . S
C304 C305 1.170 1_545 S
C304 C306 1.380 . S
C305 C304 1.170 1_565 S
C306 C304 1.380 . S
C306 C307 1.170 . S
C307 C306 1.170 . S
C308 C309 1.170 . S
C308 C310 1.380 1_554 S
C309 C308 1.170 . S
C310 C308 1.380 1_556 S
C310 C311 1.170 . S
C311 C310 1.170 . S
C312 C313 1.170 . S
C312 C314 1.380 . S
C313 C312 1.170 . S
C314 C312 1.380 . S
C314 C315 1.170 . S
C315 C314 1.170 . S
C316 C317 1.170 . S
C316 C318 1.380 . S
C317 C316 1.170 . S
C318 C316 1.380 . S
C318 C319 1.170 . S
C319 C318 1.170 . S
C320 C321 1.170 . S
C320 C322 1.380 1_455 S
C321 C320 1.170 . S
C322 C320 1.380 1_655 S
C322 C323 1.170 . S
C323 C322 1.170 . S
C324 C325 1.170 . S
C324 C326 1.380 . S
C325 C324 1.170 . S
C326 C324 1.380 . S
C326 C327 1.170 . S
C327 C326 1.170 . S
C328 C329 1.170 . S
C328 C330 1.380 . S
C329 C328 1.170 . S
C330 C328 1.380 . S
C330 C331 1.170 . S
C331 C330 1.170 . S
C332 C333 1.170 . S
C332 C334 1.380 . S
C333 C332 1.170 . S
C334 C332 1.380 . S
C334 C335 1.170 . S
C335 C334 1.170 . S
C336 C337 1.170 1_455 S
C336 C338 1.380 . S
C337 C336 1.170 1_655 S
C338 C336 1.380 . S
C338 C339 1.170 . S
C339 C338 1.170 . S
C340 C341 1.170 . S
C340 C342 1.380 . S
C341 C340 1.170 . S
C342 C340 1.380 . S
C342 C343 1.170 . S
C343 C342 1.170 . S
C265 C18 1.366 . S
C267 C183 1.351 1_455 S
C269 C216 1.350 . S
C271 C51 1.352 . S
C273 C84 1.351 . S
C275 C249 1.366 . S
C277 C150 1.360 . S
C279 C117 1.358 . S
C281 C7 0.768 . S
C283 C153 0.756 . S
C285 C40 0.960 . S
C287 C186 0.966 . S
C289 C205 0.893 . S
C291 C87 1.008 . S
C293 C120 0.814 . S
C295 C238 0.717 . S
C297 C106 0.891 . S
C299 C252 1.008 . S
C301 C172 0.770 . S
C303 C54 0.800 . S
C305 C219 0.724 . S
C307 C73 0.821 . S
C309 C21 0.999 1_545 S
C311 C139 0.918 . S
C313 N13 1.745 . S
C315 N2 1.715 . S
C317 N46 1.738 . S
C319 N35 1.719 . S
C321 N79 1.739 . S
C323 N68 1.718 . S
C325 N112 1.721 . S
C327 N101 1.739 . S
C329 N134 1.719 . S
C331 N145 1.738 . S
C333 N178 1.735 . S
C335 N167 1.738 . S
C337 N211 1.741 . S
C339 N200 1.717 . S
C341 N233 1.727 . S
C343 N244 1.745 . S
