# Generated by pormake.
# Topology wme, (6)-cn, num edge types: 1
# Building blocks:
#     Node 0, Type 0, BuildingBlock: BETDAH_clean_sbu_0, # of connection points: 6
#     Node 1, Type 0, BuildingBlock: BETDAH_clean_sbu_0, # of connection points: 6
#     Node 2, Type 0, BuildingBlock: BETDAH_clean_sbu_0, # of connection points: 6
#     Node 3, Type 0, BuildingBlock: BETDAH_clean_sbu_0, # of connection points: 6
#     Node 4, Type 0, BuildingBlock: BETDAH_clean_sbu_0, # of connection points: 6
#     Node 5, Type 0, BuildingBlock: BETDAH_clean_sbu_0, # of connection points: 6
#     Node 6, Type 0, BuildingBlock: BETDAH_clean_sbu_0, # of connection points: 6
#     Node 7, Type 0, BuildingBlock: BETDAH_clean_sbu_0, # of connection points: 6
#     Node 8, Type 0, BuildingBlock: BETDAH_clean_sbu_0, # of connection points: 6
#     Node 9, Type 0, BuildingBlock: BETDAH_clean_sbu_0, # of connection points: 6
#     Node 10, Type 0, BuildingBlock: BETDAH_clean_sbu_0, # of connection points: 6
#     Node 11, Type 0, BuildingBlock: BETDAH_clean_sbu_0, # of connection points: 6
#     Edge 12, Type (0, 0), BuildingBlock: OJICUG_clean_linker_0, # of connection points: 2
#     Edge 13, Type (0, 0), BuildingBlock: OJICUG_clean_linker_0, # of connection points: 2
#     Edge 14, Type (0, 0), BuildingBlock: OJICUG_clean_linker_0, # of connection points: 2
#     Edge 15, Type (0, 0), BuildingBlock: OJICUG_clean_linker_0, # of connection points: 2
#     Edge 16, Type (0, 0), BuildingBlock: OJICUG_clean_linker_0, # of connection points: 2
#     Edge 17, Type (0, 0), BuildingBlock: OJICUG_clean_linker_0, # of connection points: 2
#     Edge 18, Type (0, 0), BuildingBlock: OJICUG_clean_linker_0, # of connection points: 2
#     Edge 19, Type (0, 0), BuildingBlock: OJICUG_clean_linker_0, # of connection points: 2
#     Edge 20, Type (0, 0), BuildingBlock: OJICUG_clean_linker_0, # of connection points: 2
#     Edge 21, Type (0, 0), BuildingBlock: OJICUG_clean_linker_0, # of connection points: 2
#     Edge 22, Type (0, 0), BuildingBlock: OJICUG_clean_linker_0, # of connection points: 2
#     Edge 23, Type (0, 0), BuildingBlock: OJICUG_clean_linker_0, # of connection points: 2
#     Edge 24, Type (0, 0), BuildingBlock: OJICUG_clean_linker_0, # of connection points: 2
#     Edge 25, Type (0, 0), BuildingBlock: OJICUG_clean_linker_0, # of connection points: 2
#     Edge 26, Type (0, 0), BuildingBlock: OJICUG_clean_linker_0, # of connection points: 2
#     Edge 27, Type (0, 0), BuildingBlock: OJICUG_clean_linker_0, # of connection points: 2
#     Edge 28, Type (0, 0), BuildingBlock: OJICUG_clean_linker_0, # of connection points: 2
#     Edge 29, Type (0, 0), BuildingBlock: OJICUG_clean_linker_0, # of connection points: 2
#     Edge 30, Type (0, 0), BuildingBlock: OJICUG_clean_linker_0, # of connection points: 2
#     Edge 31, Type (0, 0), BuildingBlock: OJICUG_clean_linker_0, # of connection points: 2
#     Edge 32, Type (0, 0), BuildingBlock: OJICUG_clean_linker_0, # of connection points: 2
#     Edge 33, Type (0, 0), BuildingBlock: OJICUG_clean_linker_0, # of connection points: 2
#     Edge 34, Type (0, 0), BuildingBlock: OJICUG_clean_linker_0, # of connection points: 2
#     Edge 35, Type (0, 0), BuildingBlock: OJICUG_clean_linker_0, # of connection points: 2
#     Edge 36, Type (0, 0), BuildingBlock: OJICUG_clean_linker_0, # of connection points: 2
#     Edge 37, Type (0, 0), BuildingBlock: OJICUG_clean_linker_0, # of connection points: 2
#     Edge 38, Type (0, 0), BuildingBlock: OJICUG_clean_linker_0, # of connection points: 2
#     Edge 39, Type (0, 0), BuildingBlock: OJICUG_clean_linker_0, # of connection points: 2
#     Edge 40, Type (0, 0), BuildingBlock: OJICUG_clean_linker_0, # of connection points: 2
#     Edge 41, Type (0, 0), BuildingBlock: OJICUG_clean_linker_0, # of connection points: 2
#     Edge 42, Type (0, 0), BuildingBlock: OJICUG_clean_linker_0, # of connection points: 2
#     Edge 43, Type (0, 0), BuildingBlock: OJICUG_clean_linker_0, # of connection points: 2
#     Edge 44, Type (0, 0), BuildingBlock: OJICUG_clean_linker_0, # of connection points: 2
#     Edge 45, Type (0, 0), BuildingBlock: OJICUG_clean_linker_0, # of connection points: 2
#     Edge 46, Type (0, 0), BuildingBlock: OJICUG_clean_linker_0, # of connection points: 2
#     Edge 47, Type (0, 0), BuildingBlock: OJICUG_clean_linker_0, # of connection points: 2
# Relax obj value: 0.113
# Max RMSD: 0.231
# Mean RMSD: 0.231
data_MOF--net-wme--node1-BETDAH_clean_sbu_0--edge1-OJICUG_clean_linker_0
_symmetry_space_group_name_H-M    P1
_symmetry_Int_Tables_number       1
_symmetry_cell_setting            triclinic
loop_
_symmetry_equiv_pos_as_xyz
'x, y, z'
_cell_length_a     32.20875
_cell_length_b     32.16201
_cell_length_c     36.812276
_cell_angle_alpha  89.957398
_cell_angle_beta   90.112577
_cell_angle_gamma 120.02531
loop_
_atom_site_label
_atom_site_type_symbol
_atom_site_fract_x
_atom_site_fract_y
_atom_site_fract_z
_atom_type_partial_charge
Ho0 Ho 0.23607 0.38497 0.10536 0.0
Ho1 Ho 0.27246 0.32499 0.13816 0.0
C2 C 0.34389 0.43842 0.1342 0.0
C3 C 0.21222 0.44837 0.08558 0.0
C4 C 0.19681 0.4822 0.09984 0.0
C5 C 0.14789 0.46819 0.10295 0.0
C6 C 0.13362 0.50169 0.1122 0.0
C7 C 0.16784 0.5503 0.1185 0.0
C8 C 0.21675 0.56398 0.1157 0.0
C9 C 0.23094 0.53059 0.1065 0.0
C10 C 0.2662 0.33945 0.05683 0.0
C11 C 0.15756 0.28021 0.12313 0.0
C12 C 0.29138 0.25616 0.14812 0.0
C13 C 0.26694 0.20324 0.14204 0.0
C14 C 0.28215 0.18507 0.1135 0.0
C15 C 0.26223 0.13554 0.1086 0.0
C16 C 0.22668 0.10252 0.13227 0.0
C17 C 0.21026 0.12058 0.16018 0.0
C18 C 0.23025 0.17036 0.16509 0.0
C19 C 0.25261 0.37167 0.18998 0.0
O20 O 0.30397 0.44022 0.13207 0.0
O21 O 0.34265 0.39644 0.13256 0.0
O22 O 0.25624 0.45844 0.09175 0.0
O23 O 0.18207 0.40229 0.0874 0.0
O24 O 0.22928 0.34463 0.05178 0.0
O25 O 0.28543 0.36032 0.08586 0.0
O26 O 0.19371 0.27141 0.12351 0.0
O27 O 0.16626 0.32465 0.12308 0.0
O28 O 0.27499 0.27229 0.17366 0.0
O29 O 0.30379 0.28312 0.11913 0.0
O30 O 0.28832 0.3636 0.19085 0.0
O31 O 0.22769 0.35354 0.16122 0.0
H32 H 0.12045 0.43144 0.09747 0.0
H33 H 0.0957 0.48946 0.11426 0.0
H34 H 0.24442 0.60106 0.11942 0.0
H35 H 0.26887 0.54315 0.10361 0.0
H36 H 0.31024 0.20928 0.09521 0.0
H37 H 0.27528 0.1231 0.08643 0.0
H38 H 0.18324 0.09632 0.17909 0.0
H39 H 0.21761 0.18298 0.18741 0.0
Ho40 Ho 0.87473 0.22568 0.60641 0.0
Ho41 Ho 0.97116 0.26199 0.63862 0.0
C42 C 0.92998 0.33414 0.63435 0.0
C43 C 0.78762 0.20222 0.5866 0.0
C44 C 0.7385 0.1876 0.60065 0.0
C45 C 0.70358 0.13889 0.60559 0.0
C46 C 0.65591 0.12523 0.61461 0.0
C47 C 0.64163 0.15986 0.61882 0.0
C48 C 0.67686 0.20856 0.61414 0.0
C49 C 0.72432 0.22213 0.60519 0.0
C50 C 0.94979 0.25431 0.55756 0.0
C51 C 0.89967 0.14668 0.62562 0.0
C52 C 0.0586 0.27982 0.6479 0.0
C53 C 0.08596 0.25424 0.64177 0.0
C54 C 0.11338 0.26306 0.61004 0.0
C55 C 0.14212 0.24224 0.60504 0.0
C56 C 0.14466 0.21216 0.6317 0.0
C57 C 0.11607 0.20202 0.66297 0.0
C58 C 0.08724 0.22296 0.66802 0.0
C59 C 0.9057 0.24324 0.69101 0.0
O60 O 0.88814 0.29424 0.6324 0.0
O61 O 0.97052 0.33259 0.63287 0.0
O62 O 0.82194 0.24628 0.59234 0.0
O63 O 0.80305 0.17172 0.58896 0.0
O64 O 0.90766 0.21712 0.55313 0.0
O65 O 0.94851 0.27433 0.58623 0.0
O66 O 0.94482 0.18256 0.62487 0.0
O67 O 0.8645 0.15614 0.62577 0.0
O68 O 1.02657 0.26425 0.67377 0.0
O69 O 0.04396 0.29241 0.61902 0.0
O70 O 0.94958 0.27886 0.69135 0.0
O71 O 0.89819 0.21795 0.66237 0.0
H72 H 0.71279 0.11109 0.60178 0.0
H73 H 0.63022 0.08745 0.61816 0.0
H74 H 0.66755 0.23648 0.6162 0.0
H75 H 0.74968 0.25986 0.60081 0.0
H76 H 0.11343 0.28694 0.58923 0.0
H77 H 0.16308 0.25039 0.58038 0.0
H78 H 0.11742 0.17944 0.68423 0.0
H79 H 0.06682 0.21548 0.6929 0.0
Ho80 Ho 0.67376 0.86549 0.10491 0.0
Ho81 Ho 0.73188 0.96214 0.13827 0.0
C82 C 0.61852 0.91834 0.13372 0.0
C83 C 0.61154 0.77774 0.08502 0.0
C84 C 0.57592 0.72895 0.09924 0.0
C85 C 0.5889 0.69363 0.10532 0.0
C86 C 0.55426 0.6462 0.11458 0.0
C87 C 0.50545 0.63249 0.11793 0.0
C88 C 0.49274 0.6681 0.11212 0.0
C89 C 0.52729 0.71538 0.10291 0.0
C90 C 0.71997 0.94156 0.05688 0.0
C91 C 0.77916 0.8942 0.12226 0.0
C92 C 0.80043 0.05004 0.14826 0.0
C93 C 0.85342 0.07777 0.14223 0.0
C94 C 0.87209 0.10584 0.11074 0.0
C95 C 0.92168 0.13452 0.1057 0.0
C96 C 0.9543 0.13637 0.1321 0.0
C97 C 0.93574 0.1072 0.16314 0.0
C98 C 0.88595 0.07842 0.16822 0.0
C99 C 0.68689 0.89388 0.18972 0.0
O100 O 0.61782 0.87704 0.13166 0.0
O101 O 0.65999 0.95962 0.13254 0.0
O102 O 0.60161 0.81233 0.08791 0.0
O103 O 0.65707 0.79325 0.09016 0.0
O104 O 0.71547 0.89965 0.05203 0.0
O105 O 0.698 0.93948 0.08539 0.0
O106 O 0.78674 0.93875 0.12364 0.0
O107 O 0.73529 0.85754 0.12157 0.0
O108 O 0.78405 1.01761 0.17394 0.0
O109 O 0.77327 0.03556 0.11931 0.0
O110 O 0.69337 0.93715 0.19119 0.0
O111 O 0.70543 0.88891 0.16061 0.0
H112 H 0.62583 0.70235 0.10219 0.0
H113 H 0.56581 0.62025 0.11902 0.0
H114 H 0.45562 0.65921 0.11354 0.0
H115 H 0.51554 0.74104 0.0977 0.0
H116 H 0.8483 0.10635 0.09011 0.0
H117 H 0.9345 0.15588 0.0812 0.0
H118 H 0.95963 0.10798 0.18421 0.0
H119 H 0.873 0.05747 0.1929 0.0
Ho120 Ho 0.83007 0.66136 0.6058 0.0
Ho121 Ho 0.79387 0.72163 0.63987 0.0
C122 C 0.72075 0.6087 0.63239 0.0
C123 C 0.85367 0.59769 0.5863 0.0
C124 C 0.874 0.5676 0.59953 0.0
C125 C 0.86146 0.54413 0.63334 0.0
C126 C 0.87634 0.51118 0.64294 0.0
C127 C 0.90405 0.50055 0.61898 0.0
C128 C 0.91809 0.52574 0.5858 0.0
C129 C 0.90323 0.55866 0.57625 0.0
C130 C 0.80294 0.71043 0.55817 0.0
C131 C 0.90842 0.76554 0.62556 0.0
C132 C 0.77472 0.78967 0.6535 0.0
C133 C 0.79843 0.84268 0.65048 0.0
C134 C 0.84073 0.86983 0.63032 0.0
C135 C 0.86076 0.91986 0.6266 0.0
C136 C 0.83867 0.94353 0.64281 0.0
C137 C 0.79721 0.91612 0.66388 0.0
C138 C 0.7774 0.86645 0.66759 0.0
C139 C 0.81228 0.67172 0.69023 0.0
O140 O 0.75988 0.60569 0.62911 0.0
O141 O 0.72299 0.6512 0.63257 0.0
O142 O 0.81118 0.58713 0.59783 0.0
O143 O 0.88233 0.64399 0.58345 0.0
O144 O 0.83668 0.70077 0.5518 0.0
O145 O 0.78275 0.68903 0.58677 0.0
O146 O 0.87257 0.77478 0.62559 0.0
O147 O 0.89935 0.72092 0.62557 0.0
O148 O 0.79197 0.77253 0.67761 0.0
O149 O 0.76346 0.76539 0.62314 0.0
O150 O 0.7766 0.67977 0.69119 0.0
O151 O 0.83772 0.6914 0.66207 0.0
H152 H 0.83911 0.55028 0.652 0.0
H153 H 0.86535 0.49338 0.66902 0.0
H154 H 0.93881 0.51849 0.56631 0.0
H155 H 0.91324 0.57595 0.54992 0.0
H156 H 0.8578 0.85232 0.61698 0.0
H157 H 0.89257 0.93969 0.61011 0.0
H158 H 0.77966 0.93309 0.67734 0.0
H159 H 0.74505 0.8464 0.68351 0.0
Ho160 Ho 0.19192 0.81981 0.10453 0.0
Ho161 Ho 0.09585 0.78464 0.13763 0.0
C162 C 0.13469 0.71092 0.13261 0.0
C163 C 0.27875 0.84224 0.08494 0.0
C164 C 0.32898 0.86198 0.09844 0.0
C165 C 0.33939 0.8472 0.13153 0.0
C166 C 0.38704 0.86158 0.1412 0.0
C167 C 0.42574 0.89106 0.11805 0.0
C168 C 0.41513 0.90733 0.08567 0.0
C169 C 0.36752 0.89293 0.07604 0.0
C170 C 0.11578 0.79052 0.05627 0.0
C171 C 0.16771 0.89916 0.12347 0.0
C172 C 1.00936 0.76868 0.14833 0.0
C173 C 0.98262 0.79486 0.1419 0.0
C174 C 0.9589 0.78996 0.10867 0.0
C175 C 0.93062 0.81128 0.10345 0.0
C176 C 0.92491 0.83798 0.13133 0.0
C177 C 0.94989 0.84428 0.16415 0.0
C178 C 0.97819 0.8228 0.16943 0.0
C179 C 0.1627 0.8029 0.18898 0.0
O180 O 0.17698 0.75 0.12923 0.0
O181 O 0.0946 0.71329 0.13207 0.0
O182 O 0.24632 0.79983 0.09639 0.0
O183 O 0.26175 0.8714 0.08195 0.0
O184 O 0.1582 0.82691 0.05097 0.0
O185 O 0.11748 0.77126 0.08525 0.0
O186 O 0.12254 0.86348 0.12241 0.0
O187 O 0.20275 0.88949 0.12434 0.0
O188 O 0.04256 0.78524 0.17344 0.0
O189 O 1.02228 0.75403 0.11967 0.0
O190 O 0.1186 0.76777 0.18992 0.0
O191 O 0.16959 0.82829 0.1605 0.0
H192 H 0.31063 0.82348 0.14953 0.0
H193 H 0.39344 0.84883 0.16666 0.0
H194 H 0.44343 0.92951 0.06683 0.0
H195 H 0.36067 0.90469 0.05027 0.0
H196 H 0.9613 0.76874 0.0868 0.0
H197 H 0.91244 0.80611 0.07765 0.0
H198 H 0.94596 0.86413 0.18634 0.0
H199 H 0.99565 0.82713 0.19545 0.0
Ho200 Ho 0.39378 0.18056 0.60449 0.0
Ho201 Ho 0.3343 0.08417 0.63756 0.0
C202 C 0.44733 0.12601 0.6332 0.0
C203 C 0.45689 0.26796 0.58463 0.0
C204 C 0.49123 0.31727 0.59875 0.0
C205 C 0.47748 0.35236 0.60264 0.0
C206 C 0.51131 0.40018 0.61176 0.0
C207 C 0.56001 0.41447 0.61716 0.0
C208 C 0.57345 0.37909 0.61353 0.0
C209 C 0.53974 0.33147 0.60446 0.0
C210 C 0.34728 0.10454 0.55614 0.0
C211 C 0.28927 0.1541 0.62272 0.0
C212 C 0.26531 0.99664 0.64798 0.0
C213 C 0.2123 0.96891 0.64231 0.0
C214 C 0.19317 0.93992 0.61128 0.0
C215 C 0.14354 0.91098 0.60672 0.0
C216 C 0.11141 0.90983 0.63314 0.0
C217 C 0.1304 0.93995 0.66366 0.0
C218 C 0.18024 0.96899 0.66828 0.0
C219 C 0.38147 0.15113 0.68917 0.0
O220 O 0.44915 0.16779 0.63089 0.0
O221 O 0.40545 0.08521 0.63173 0.0
O222 O 0.46691 0.2338 0.59012 0.0
O223 O 0.41096 0.25217 0.5872 0.0
O224 O 0.35254 0.14675 0.55118 0.0
O225 O 0.36868 0.10632 0.58494 0.0
O226 O 0.28062 0.10915 0.62312 0.0
O227 O 0.33358 0.18999 0.62249 0.0
O228 O 0.28213 0.02932 0.67347 0.0
O229 O 0.29196 1.01076 0.61884 0.0
O230 O 0.3734 0.1073 0.69007 0.0
O231 O 0.36303 0.15773 0.6605 0.0
H232 H 0.44065 0.34314 0.59791 0.0
H233 H 0.49924 0.42596 0.61447 0.0
H234 H 0.61056 0.38841 0.61654 0.0
H235 H 0.55211 0.306 0.60093 0.0
H236 H 0.21663 0.93884 0.59072 0.0
H237 H 0.13029 0.88881 0.58261 0.0
H238 H 0.10683 0.93969 0.68472 0.0
H239 H 0.19359 0.99066 0.69262 0.0
Ho240 Ho 0.67189 0.82254 0.41255 0.0
Ho241 Ho 0.73323 0.78102 0.38301 0.0
C242 C 0.61802 0.71283 0.38492 0.0
C243 C 0.61125 0.84999 0.43166 0.0
C244 C 0.57943 0.86801 0.41836 0.0
C245 C 0.55567 0.85423 0.38472 0.0
C246 C 0.52238 0.86848 0.37479 0.0
C247 C 0.51182 0.89671 0.39831 0.0
C248 C 0.53717 0.91175 0.43138 0.0
C249 C 0.57042 0.89758 0.4412 0.0
C250 C 0.71515 0.79137 0.4623 0.0
C251 C 0.77534 0.89717 0.38631 0.0
C252 C 0.79916 0.75787 0.38976 0.0
C253 C 0.85069 0.77799 0.38182 0.0
C254 C 0.87176 0.7499 0.38894 0.0
C255 C 0.92151 0.76981 0.38697 0.0
C256 C 0.95166 0.8185 0.37775 0.0
C257 C 0.93028 0.84654 0.37008 0.0
C258 C 0.88025 0.82646 0.3721 0.0
C259 C 0.70631 0.8122 0.32444 0.0
O260 O 0.61613 0.75283 0.3882 0.0
O261 O 0.65955 0.71298 0.38637 0.0
O262 O 0.59907 0.80549 0.42454 0.0
O263 O 0.65754 0.87891 0.42963 0.0
O264 O 0.71248 0.82992 0.46633 0.0
O265 O 0.69456 0.77254 0.43313 0.0
O266 O 0.78546 0.86202 0.3898 0.0
O267 O 0.73079 0.88802 0.38756 0.0
O268 O 0.76859 0.74305 0.36254 0.0
O269 O 0.78993 0.78162 0.41418 0.0
O270 O 0.73128 0.79064 0.32332 0.0
O271 O 0.695 0.81498 0.35724 0.0
H272 H 0.56207 0.83165 0.36644 0.0
H273 H 0.50438 0.85671 0.34883 0.0
H274 H 0.52989 0.93281 0.45055 0.0
H275 H 0.58813 0.90862 0.46736 0.0
H276 H 0.84981 0.71279 0.39728 0.0
H277 H 0.93643 0.7472 0.39383 0.0
H278 H 0.95217 0.88397 0.36265 0.0
H279 H 0.86478 0.84904 0.367 0.0
Ho280 Ho 0.8721 0.66126 0.91161 0.0
Ho281 Ho 0.96825 0.72195 0.87782 0.0
C282 C 0.92941 0.60893 0.88557 0.0
C283 C 0.78504 0.59768 0.93124 0.0
C284 C 0.73467 0.56834 0.91792 0.0
C285 C 0.72371 0.54708 0.88326 0.0
C286 C 0.67591 0.51464 0.87334 0.0
C287 C 0.63771 0.50241 0.89779 0.0
C288 C 0.64888 0.5255 0.93187 0.0
C289 C 0.69661 0.55788 0.94174 0.0
C290 C 0.94788 0.71158 0.95949 0.0
C291 C 0.89585 0.7642 0.88999 0.0
C292 C 0.05498 0.79145 0.8657 0.0
C293 C 0.08381 0.84416 0.87285 0.0
C294 C 0.11696 0.86146 0.90165 0.0
C295 C 0.14694 0.91086 0.90713 0.0
C296 C 0.14515 0.94461 0.88371 0.0
C297 C 0.11098 0.92738 0.8555 0.0
C298 C 0.0808 0.87781 0.85006 0.0
C299 C 0.90092 0.67117 0.82708 0.0
O300 O 0.88713 0.60539 0.88952 0.0
O301 O 0.9693 0.65171 0.88462 0.0
O302 O 0.81665 0.58704 0.91901 0.0
O303 O 0.80296 0.64396 0.9348 0.0
O304 O 0.90428 0.7015 0.96551 0.0
O305 O 0.94704 0.69 0.93108 0.0
O306 O 0.94123 0.77434 0.89165 0.0
O307 O 0.86123 0.71918 0.88968 0.0
O308 O 1.02034 0.77651 0.84183 0.0
O309 O 0.04301 0.76289 0.8938 0.0
O310 O 0.94498 0.68016 0.82639 0.0
O311 O 0.89441 0.69053 0.85513 0.0
H312 H 0.75216 0.55451 0.86418 0.0
H313 H 0.66903 0.49844 0.84662 0.0
H314 H 0.62097 0.5169 0.95172 0.0
H315 H 0.70396 0.57351 0.9687 0.0
H316 H 0.12044 0.83672 0.91966 0.0
H317 H 0.17215 0.9226 0.92953 0.0
H318 H 0.10879 0.95213 0.8367 0.0
H319 H 0.05591 0.86592 0.82746 0.0
Ho320 Ho 0.23433 0.86224 0.41007 0.0
Ho321 Ho 0.27068 0.95863 0.37604 0.0
C322 C 0.34423 0.91959 0.38428 0.0
C323 C 0.2106 0.77506 0.43008 0.0
C324 C 0.18986 0.72444 0.41721 0.0
C325 C 0.20142 0.71311 0.3832 0.0
C326 C 0.18648 0.66516 0.37391 0.0
C327 C 0.15968 0.62711 0.3984 0.0
C328 C 0.14652 0.63861 0.43179 0.0
C329 C 0.16146 0.68652 0.44103 0.0
C330 C 0.2598 0.93811 0.4578 0.0
C331 C 0.1561 0.88647 0.38648 0.0
C332 C 0.28965 0.04578 0.36236 0.0
C333 C 0.26599 0.07504 0.36531 0.0
C334 C 0.22375 0.05987 0.38551 0.0
C335 C 0.20379 0.08988 0.38916 0.0
C336 C 0.22591 0.13565 0.37284 0.0
C337 C 0.2673 0.1497 0.35172 0.0
C338 C 0.28704 0.11983 0.34807 0.0
C339 C 0.25363 0.89066 0.3256 0.0
O340 O 0.30529 0.87735 0.38831 0.0
O341 O 0.34171 0.95967 0.38329 0.0
O342 O 0.25293 0.80676 0.41801 0.0
O343 O 0.18216 0.7929 0.43315 0.0
O344 O 0.22572 0.89457 0.46354 0.0
O345 O 0.28092 0.9373 0.42959 0.0
O346 O 0.19126 0.93181 0.38896 0.0
O347 O 0.16623 0.85165 0.38676 0.0
O348 O 0.27236 1.01135 0.33829 0.0
O349 O 0.30091 0.0328 0.39274 0.0
O350 O 0.28908 0.93461 0.32486 0.0
O351 O 0.2279 0.88465 0.35355 0.0
H352 H 0.22313 0.74141 0.36414 0.0
H353 H 0.19676 0.65804 0.34768 0.0
H354 H 0.12652 0.61085 0.45166 0.0
H355 H 0.15224 0.69412 0.46753 0.0
H356 H 0.2067 0.02529 0.39894 0.0
H357 H 0.17205 0.07795 0.4057 0.0
H358 H 0.28486 0.18425 0.3382 0.0
H359 H 0.31935 0.13213 0.33212 0.0
Ho360 Ho 0.39551 0.22756 0.91038 0.0
Ho361 Ho 0.33413 0.26167 0.87563 0.0
C362 C 0.44661 0.33562 0.88172 0.0
C363 C 0.46033 0.20579 0.93049 0.0
C364 C 0.49724 0.19394 0.91726 0.0
C365 C 0.48497 0.14688 0.90702 0.0
C366 C 0.52067 0.13513 0.89901 0.0
C367 C 0.56979 0.17 0.90114 0.0
C368 C 0.58176 0.2171 0.91108 0.0
C369 C 0.54619 0.22879 0.91902 0.0
C370 C 0.34563 0.2535 0.95795 0.0
C371 C 0.29093 0.14754 0.89255 0.0
C372 C 0.26429 0.27751 0.86052 0.0
C373 C 0.21132 0.25048 0.86447 0.0
C374 C 0.18862 0.21448 0.89095 0.0
C375 C 0.13878 0.19156 0.89584 0.0
C376 C 0.11044 0.20297 0.8735 0.0
C377 C 0.1329 0.23738 0.84594 0.0
C378 C 0.18289 0.26117 0.84168 0.0
C379 C 0.38364 0.2427 0.82543 0.0
O380 O 0.44959 0.29631 0.8841 0.0
O381 O 0.40406 0.33311 0.88252 0.0
O382 O 0.46876 0.24971 0.92647 0.0
O383 O 0.41502 0.17428 0.9259 0.0
O384 O 0.35626 0.22036 0.96433 0.0
O385 O 0.36643 0.27386 0.92914 0.0
O386 O 0.2816 0.18331 0.8912 0.0
O387 O 0.33548 0.15671 0.89361 0.0
O388 O 0.28242 0.26059 0.83708 0.0
O389 O 0.28952 0.29179 0.89044 0.0
O390 O 0.37547 0.27833 0.82415 0.0
O391 O 0.3648 0.21798 0.85407 0.0
H392 H 0.44773 0.11877 0.90587 0.0
H393 H 0.50968 0.0986 0.89122 0.0
H394 H 0.6189 0.24497 0.91392 0.0
H395 H 0.55722 0.26508 0.9276 0.0
H396 H 0.20937 0.20432 0.90809 0.0
H397 H 0.12232 0.16496 0.91713 0.0
H398 H 0.11193 0.24703 0.82849 0.0
H399 H 0.19944 0.28843 0.82085 0.0
Ho400 Ho 0.19069 0.38219 0.41112 0.0
Ho401 Ho 0.09476 0.32218 0.37678 0.0
C402 C 0.13494 0.43517 0.38388 0.0
C403 C 0.27783 0.44598 0.43091 0.0
C404 C 0.32679 0.48121 0.41686 0.0
C405 C 0.36182 0.46789 0.41093 0.0
C406 C 0.40938 0.50244 0.40198 0.0
C407 C 0.42348 0.55147 0.39882 0.0
C408 C 0.38812 0.56448 0.40444 0.0
C409 C 0.34076 0.53005 0.41333 0.0
C410 C 0.11498 0.33214 0.45872 0.0
C411 C 0.16545 0.27789 0.39055 0.0
C412 C 1.00763 0.25442 0.36275 0.0
C413 C 0.97914 0.20119 0.36355 0.0
C414 C 0.9903 0.17361 0.38705 0.0
C415 C 0.96029 0.12345 0.38899 0.0
C416 C 0.91859 0.0999 0.3674 0.0
C417 C 0.90909 0.1277 0.34275 0.0
C418 C 0.93883 0.1776 0.34099 0.0
C419 C 0.16293 0.3719 0.32639 0.0
O420 O 0.17694 0.43761 0.38609 0.0
O421 O 0.09461 0.39277 0.38454 0.0
O422 O 0.24323 0.45548 0.426 0.0
O423 O 0.26267 0.40014 0.42774 0.0
O424 O 0.15848 0.34173 0.4647 0.0
O425 O 0.11574 0.35392 0.43035 0.0
O426 O 0.12029 0.26844 0.38962 0.0
O427 O 0.20075 0.32255 0.3922 0.0
O428 O 0.04115 0.27389 0.33817 0.0
O429 O 1.02125 0.2765 0.39398 0.0
O430 O 0.11926 0.36401 0.32537 0.0
O431 O 0.16873 0.35245 0.35472 0.0
H432 H 0.35279 0.43079 0.41393 0.0
H433 H 0.43513 0.49065 0.39767 0.0
H434 H 0.39727 0.60174 0.40319 0.0
H435 H 0.31531 0.54204 0.41846 0.0
H436 H 1.02162 0.19088 0.40442 0.0
H437 H 0.96882 0.10342 0.40832 0.0
H438 H 0.87807 0.11094 0.32504 0.0
H439 H 0.92976 0.19796 0.32235 0.0
Ho440 Ho 0.84137 0.18455 0.91192 0.0
Ho441 Ho 0.79443 0.08481 0.87909 0.0
C442 C 0.73074 0.1351 0.88735 0.0
C443 C 0.87813 0.27515 0.92883 0.0
C444 C 0.88414 0.32293 0.91953 0.0
C445 C 0.87355 0.33365 0.8849 0.0
C446 C 0.88408 0.38069 0.87634 0.0
C447 C 0.90596 0.41826 0.90206 0.0
C448 C 0.91625 0.407 0.93668 0.0
C449 C 0.90542 0.36008 0.94525 0.0
C450 C 0.81125 0.10918 0.96021 0.0
C451 C 0.9113 0.14493 0.89489 0.0
C452 C 0.76809 0.99483 0.8701 0.0
C453 C 0.79223 0.96575 0.87014 0.0
C454 C 0.83488 0.97997 0.88972 0.0
C455 C 0.85499 0.94999 0.89161 0.0
C456 C 0.83286 0.90509 0.87398 0.0
C457 C 0.79124 0.89208 0.85322 0.0
C458 C 0.77119 0.92194 0.85143 0.0
C459 C 0.81793 0.15314 0.82813 0.0
O460 O 0.77245 0.17548 0.8892 0.0
O461 O 0.7285 0.09259 0.88771 0.0
O462 O 0.83695 0.24128 0.94137 0.0
O463 O 0.89836 0.25833 0.90725 0.0
O464 O 0.84841 0.15127 0.96535 0.0
O465 O 0.79034 0.11146 0.9322 0.0
O466 O 0.8728 0.10397 0.88535 0.0
O467 O 0.9086 0.18261 0.90494 0.0
O468 O 0.77775 0.02474 0.84313 0.0
O469 O 0.76636 1.01343 0.90122 0.0
O470 O 0.77977 0.1107 0.82735 0.0
O471 O 0.84313 0.15716 0.8562 0.0
H472 H 0.8578 0.30587 0.86435 0.0
H473 H 0.87579 0.38778 0.84932 0.0
H474 H 0.9322 0.4344 0.95748 0.0
H475 H 0.91441 0.35294 0.97204 0.0
H476 H 0.85213 1.01377 0.90423 0.0
H477 H 0.88687 0.96123 0.90794 0.0
H478 H 0.77366 0.85834 0.83859 0.0
H479 H 0.73859 0.91031 0.83591 0.0
C480 C 0.14684 0.96519 0.13156 0.0
C481 C 0.18067 0.95066 0.1246 0.0
H482 H 0.1346 0.02454 0.13957 0.0
C483 C 0.22892 0.9864 0.11971 0.0
H484 H 0.10943 0.93867 0.13557 0.0
C485 C 0.2432 0.03506 0.12196 0.0
C486 C 0.20983 0.04996 0.12922 0.0
H487 H 0.25618 0.97691 0.1143 0.0
H488 H 0.2809 0.06111 0.11871 0.0
C489 C 0.16134 1.01437 0.13408 0.0
C490 C 0.26084 0.21261 0.613 0.0
C491 C 0.25014 0.1661 0.62321 0.0
H492 H 0.23679 0.26329 0.60792 0.0
C493 C 0.20343 0.13365 0.63528 0.0
H494 H 0.29631 0.23867 0.60346 0.0
C495 C 0.16879 0.14811 0.63794 0.0
C496 C 0.17999 0.19501 0.62803 0.0
H497 H 0.19403 0.09764 0.64347 0.0
H498 H 0.13327 0.12262 0.64772 0.0
C499 C 0.22643 0.22675 0.61529 0.0
C500 C 1.02208 0.21813 0.11575 0.0
C501 C 1.00692 0.17147 0.12838 0.0
H502 H 0.08047 0.28796 0.104 0.0
C503 C 0.04233 0.15982 0.13813 0.0
H504 H 0.99619 0.22888 0.1085 0.0
C505 C 0.09155 0.19425 0.13546 0.0
C506 C 0.10627 0.24119 0.12352 0.0
H507 H 1.03199 0.12413 0.14781 0.0
H508 H 0.1179 0.1845 0.14357 0.0
C509 C 0.07075 0.25231 0.11343 0.0
C510 C 0.82305 1.01092 0.62957 0.0
C511 C 0.85637 0.99583 0.63643 0.0
H512 H 0.8104 0.06897 0.6205 0.0
C513 C 0.90549 0.03103 0.63772 0.0
H514 H 0.78513 0.98501 0.62744 0.0
C515 C 0.92044 0.08024 0.63358 0.0
C516 C 0.88654 0.09507 0.62785 0.0
H517 H 0.93218 1.02068 0.64291 0.0
H518 H 0.95824 0.10657 0.63557 0.0
C519 C 0.83779 0.05947 0.62538 0.0
C520 C 0.89937 0.90063 0.13981 0.0
C521 C 0.88972 0.85521 0.12713 0.0
H522 H 0.87252 0.94946 0.14759 0.0
C523 C 0.84473 0.82477 0.11136 0.0
H524 H 0.93376 0.92509 0.15195 0.0
C525 C 0.81004 0.83854 0.10904 0.0
C526 C 0.81906 0.88338 0.1222 0.0
H527 H 0.83558 0.78936 0.10176 0.0
H528 H 0.77556 0.8134 0.09729 0.0
C529 C 0.86449 0.91477 0.13707 0.0
C530 C 0.9952 0.79289 0.61687 0.0
C531 C 0.9597 0.80436 0.62606 0.0
H532 H 0.06976 0.81639 0.61213 0.0
C533 C 0.97436 0.85174 0.63676 0.0
H534 H 0.9855 0.7569 0.60836 0.0
C535 C 1.02352 0.88636 0.63903 0.0
C536 C 0.05888 0.87442 0.63004 0.0
H537 H 0.94799 0.86177 0.64409 0.0
H538 H 0.03387 0.92244 0.64769 0.0
C539 C 0.04382 0.82726 0.61874 0.0
C540 C 0.08667 0.9024 0.39239 0.0
C541 C 0.10501 0.87295 0.38122 0.0
H542 H 1.02365 0.90824 0.40059 0.0
C543 C 0.07313 0.8277 0.36624 0.0
H544 H 0.11028 0.93748 0.40396 0.0
C545 C 1.0241 0.81128 0.36388 0.0
C546 C 1.00496 0.83927 0.37679 0.0
H547 H 0.08598 0.80433 0.3566 0.0
H548 H 1.00101 0.77609 0.3523 0.0
C549 C 0.03703 0.88564 0.39032 0.0
C550 C 0.16895 0.03303 0.88161 0.0
C551 C 0.1812 0.99705 0.88724 0.0
H552 H 0.19355 0.10885 0.87931 0.0
C553 C 0.22918 1.01149 0.8954 0.0
H554 H 0.13229 0.02329 0.87547 0.0
C555 C 0.26391 0.06006 0.8976 0.0
C556 C 0.25207 0.09615 0.89173 0.0
H557 H 0.24039 0.98517 0.89926 0.0
H558 H 0.30045 0.06918 0.90362 0.0
C559 C 0.20398 0.08208 0.88402 0.0
C560 C 0.22722 0.25254 0.39052 0.0
C561 C 0.17854 0.23946 0.38793 0.0
H562 H 0.2797 0.23061 0.38847 0.0
C563 C 0.14454 0.19076 0.38193 0.0
H564 H 0.25469 0.28941 0.39556 0.0
C565 C 0.15933 0.15645 0.37774 0.0
C566 C 0.20839 0.1703 0.3792 0.0
H567 H 0.10676 0.17932 0.37989 0.0
H568 H 0.13258 0.11941 0.37241 0.0
C569 C 0.24182 0.21868 0.38625 0.0
C570 C 1.024 0.15621 0.85325 0.0
C571 C 0.05818 0.18177 0.88045 0.0
H572 H 0.94984 0.12251 0.83713 0.0
C573 C 0.04247 0.19013 0.91377 0.0
H574 H 0.03525 0.14938 0.8273 0.0
C575 C 0.99406 0.17575 0.91906 0.0
C576 C 0.96002 0.15134 0.89159 0.0
H577 H 0.06806 0.20998 0.93508 0.0
H578 H 0.9834 0.18502 0.9443 0.0
C579 C 0.97519 0.14049 0.85898 0.0
C580 C 0.8973 1.01286 0.37776 0.0
C581 C 0.88313 0.04741 0.37199 0.0
H582 H 0.87478 0.93814 0.38641 0.0
C583 C 0.83383 0.03161 0.371 0.0
H584 H 0.93497 0.02364 0.37857 0.0
C585 C 0.79976 0.98318 0.37529 0.0
C586 C 0.81349 0.94839 0.38095 0.0
H587 H 0.82124 0.05691 0.36748 0.0
H588 H 0.7623 0.97322 0.37436 0.0
C589 C 0.86282 0.9638 0.38205 0.0
C590 C 0.83282 0.78783 0.88728 0.0
C591 C 0.8819 0.80199 0.88703 0.0
H592 H 0.77946 0.80846 0.88409 0.0
C593 C 0.91551 0.85122 0.88324 0.0
H594 H 0.80558 0.75047 0.8905 0.0
C595 C 0.90008 0.88508 0.87928 0.0
C596 C 0.85074 0.87035 0.87882 0.0
H597 H 0.95355 0.86348 0.88293 0.0
H598 H 0.92671 0.9226 0.87589 0.0
C599 C 0.8176 0.82128 0.8833 0.0
C600 C 0.1728 0.66424 0.15391 0.0
C601 C 0.13493 0.66476 0.13522 0.0
H602 H 0.21177 0.62781 0.16448 0.0
C603 C 0.10428 0.62456 0.11402 0.0
H604 H 0.19709 0.69461 0.17053 0.0
C605 C 0.11346 0.58626 0.10974 0.0
C606 C 0.15338 0.58725 0.12673 0.0
H607 H 0.0753 0.62419 0.09877 0.0
H608 H 0.09084 0.55726 0.09148 0.0
C609 C 0.18164 0.62606 0.15 0.0
C610 C 0.58024 0.17592 0.64852 0.0
C611 C 0.59034 0.14595 0.62693 0.0
H612 H 0.52753 0.19245 0.66786 0.0
C613 C 0.55107 0.10463 0.61159 0.0
H614 H 0.60889 0.20723 0.66176 0.0
C615 C 0.50363 0.09547 0.61587 0.0
C616 C 0.49441 0.12755 0.6354 0.0
H617 H 0.55708 0.08064 0.59467 0.0
H618 H 0.47469 0.06508 0.60198 0.0
C619 C 0.53326 0.16707 0.65243 0.0
C620 C 0.46945 0.54155 0.11217 0.0
C621 C 0.46752 0.58139 0.1264 0.0
H622 H 0.4324 0.46481 0.10388 0.0
C623 C 0.42723 0.57201 0.14737 0.0
H624 H 0.4996 0.54698 0.09574 0.0
C625 C 0.38891 0.52512 0.15181 0.0
C626 C 0.38953 0.48564 0.1359 0.0
H627 H 0.42462 0.60113 0.15976 0.0
H628 H 0.35774 0.51995 0.16678 0.0
C629 C 0.43096 0.49422 0.11694 0.0
C630 C 0.95768 0.4628 0.61579 0.0
C631 C 0.91472 0.46075 0.62711 0.0
H632 H 0.99712 0.42519 0.60984 0.0
C633 C 0.88008 0.41844 0.64433 0.0
H634 H 0.98559 0.49481 0.60279 0.0
C635 C 0.88693 0.37898 0.64854 0.0
C636 C 0.92874 0.38011 0.63585 0.0
H637 H 0.84629 0.41468 0.65308 0.0
H638 H 0.85828 0.34661 0.66067 0.0
C639 C 0.96469 0.42306 0.62024 0.0
C640 C 0.56378 0.95274 0.12105 0.0
C641 C 0.57079 0.9159 0.13489 0.0
H642 H 0.51299 0.97427 0.10499 0.0
C643 C 0.52998 0.87278 0.14573 0.0
H644 H 0.59418 0.98624 0.11212 0.0
C645 C 0.48363 0.86573 0.14151 0.0
C646 C 0.47608 0.90148 0.12611 0.0
H647 H 0.53365 0.84341 0.15648 0.0
H648 H 0.45356 0.83111 0.14883 0.0
C649 C 0.51703 0.94554 0.11656 0.0
C650 C 0.67455 0.5232 0.65237 0.0
C651 C 0.67472 0.56199 0.6345 0.0
H652 H 0.63848 0.44754 0.66205 0.0
C653 C 0.63421 0.55268 0.61382 0.0
H654 H 0.70511 0.52902 0.66861 0.0
C655 C 0.59592 0.50516 0.60929 0.0
C656 C 0.59722 0.46591 0.62548 0.0
H657 H 0.6335 0.58156 0.59921 0.0
H658 H 0.56659 0.49904 0.5915 0.0
C659 C 0.63643 0.47615 0.64818 0.0
C660 C 0.38964 0.87757 0.36952 0.0
C661 C 0.39046 0.91933 0.38212 0.0
H662 H 0.42596 0.8376 0.36484 0.0
C663 C 0.43348 0.95614 0.39697 0.0
H664 H 0.3572 0.84838 0.35785 0.0
C665 C 0.47364 0.94988 0.40101 0.0
C666 C 0.47183 0.90683 0.39003 0.0
H667 H 0.43533 0.98859 0.4072 0.0
H668 H 0.50574 0.97836 0.41354 0.0
C669 C 0.42948 0.87144 0.37333 0.0
C670 C 0.54642 0.46402 0.90161 0.0
C671 C 0.58739 0.46287 0.88921 0.0
H672 H 0.46951 0.42543 0.90828 0.0
C673 C 0.57999 0.42151 0.87059 0.0
H674 H 0.55037 0.49533 0.9157 0.0
C675 C 0.53386 0.3819 0.86621 0.0
C676 C 0.49318 0.38202 0.88007 0.0
H677 H 0.61011 0.41849 0.86096 0.0
H678 H 0.5303 0.35011 0.8531 0.0
C679 C 0.49986 0.42417 0.89694 0.0
C680 C 0.18373 0.56917 0.37308 0.0
C681 C 0.1492 0.57664 0.39058 0.0
H682 H 0.20572 0.51936 0.35674 0.0
C683 C 0.10664 0.53561 0.40247 0.0
H684 H 0.21722 0.59931 0.3639 0.0
C685 C 0.0999 0.48893 0.39824 0.0
C686 C 0.13576 0.48215 0.38234 0.0
H687 H 0.07886 0.53959 0.41573 0.0
H688 H 0.06778 0.45853 0.40903 0.0
C689 C 0.17717 0.52294 0.36912 0.0
C690 C 0.64244 0.10436 0.90057 0.0
C691 C 0.6867 0.13974 0.88631 0.0
H692 H 0.57125 0.08607 0.91708 0.0
C693 C 0.69049 0.18312 0.87434 0.0
H694 H 0.63825 0.0707 0.91034 0.0
C695 C 0.65221 0.19185 0.87787 0.0
C696 C 0.60865 0.15778 0.89393 0.0
H697 H 0.72373 0.21113 0.86281 0.0
H698 H 0.6572 0.22592 0.86837 0.0
C699 C 0.60396 0.11331 0.90444 0.0
C700 C 0.51415 0.58689 0.40529 0.0
C701 C 0.47472 0.58937 0.39085 0.0
H702 H 0.59062 0.62343 0.41433 0.0
C703 C 0.48464 0.63025 0.37028 0.0
H704 H 0.50831 0.55629 0.42144 0.0
C705 C 0.53162 0.6686 0.36647 0.0
C706 C 0.57067 0.66739 0.3826 0.0
H707 H 0.45588 0.63333 0.35772 0.0
H708 H 0.53721 0.70022 0.35181 0.0
C709 C 0.56156 0.62538 0.40113 0.0
C710 C 0.88921 0.5217 0.86947 0.0
C711 C 0.9295 0.56251 0.88403 0.0
H712 H 0.85024 0.4452 0.86359 0.0
C713 C 0.96446 0.55601 0.90187 0.0
H714 H 0.8614 0.52524 0.85565 0.0
C715 C 0.95773 0.50949 0.90679 0.0
C716 C 0.91617 0.46839 0.89361 0.0
H717 H 0.99558 0.58645 0.9138 0.0
H718 H 0.98466 0.50563 0.92164 0.0
C719 C 0.88278 0.47555 0.87398 0.0
C720 C 0.16916 0.38094 0.2584 0.0
C721 C 0.18974 0.37899 0.29183 0.0
H722 H 0.17245 0.37981 0.20006 0.0
C723 C 0.23349 0.37943 0.29122 0.0
H724 H 0.13549 0.38084 0.25778 0.0
C725 C 0.25503 0.37971 0.25803 0.0
C726 C 0.23293 0.37868 0.2246 0.0
H727 H 0.25035 0.37809 0.31635 0.0
H728 H 0.28812 0.37869 0.25866 0.0
C729 C 0.19026 0.38036 0.2252 0.0
C730 C 0.90251 0.24478 0.75932 0.0
C731 C 0.88004 0.22352 0.72602 0.0
H732 H 0.90098 0.23928 0.81764 0.0
C733 C 0.83514 0.18145 0.72699 0.0
H734 H 0.93715 0.27737 0.75968 0.0
C735 C 0.81411 0.16021 0.76032 0.0
C736 C 0.83785 0.17997 0.79355 0.0
H737 H 0.81683 0.16424 0.70197 0.0
H738 H 0.77994 0.12709 0.75991 0.0
C739 C 0.8819 0.22305 0.79266 0.0
C740 C 0.67419 0.88262 0.25761 0.0
C741 C 0.68328 0.86747 0.22398 0.0
H742 H 0.67386 0.87701 0.31607 0.0
C743 C 0.69451 0.83063 0.22412 0.0
H744 H 0.66534 0.91095 0.25847 0.0
C745 C 0.69957 0.81161 0.25695 0.0
C746 C 0.69322 0.82852 0.29065 0.0
H747 H 0.70164 0.81798 0.19892 0.0
H748 H 0.71015 0.78452 0.25587 0.0
C749 C 0.679 0.86324 0.29066 0.0
C750 C 0.87482 0.66342 0.7257 0.0
C751 C 0.83152 0.66386 0.7248 0.0
H752 H 0.92995 0.66407 0.75869 0.0
C753 C 0.80847 0.66124 0.75803 0.0
H754 H 0.89333 0.66517 0.70071 0.0
C755 C 0.82979 0.6615 0.79137 0.0
C756 C 0.87427 0.6635 0.79231 0.0
H757 H 0.77483 0.66119 0.75841 0.0
H758 H 0.81223 0.66174 0.81638 0.0
C759 C 0.89572 0.66281 0.75905 0.0
C760 C 0.23449 0.86441 0.22428 0.0
C761 C 0.18999 0.82182 0.22351 0.0
H762 H 0.29008 0.9188 0.25712 0.0
C763 C 0.16923 0.79917 0.25681 0.0
H764 H 0.25154 0.8826 0.19923 0.0
C765 C 0.19081 0.82023 0.29007 0.0
C766 C 0.23413 0.86406 0.29089 0.0
H767 H 0.13504 0.76607 0.2573 0.0
H768 H 0.17276 0.80304 0.31513 0.0
C769 C 0.25649 0.88507 0.25757 0.0
C770 C 0.39025 0.17885 0.79039 0.0
C771 C 0.39024 0.22244 0.79092 0.0
H772 H 0.38868 0.12287 0.75791 0.0
C773 C 0.39211 0.24481 0.75743 0.0
H774 H 0.38895 0.16076 0.81555 0.0
C775 C 0.39102 0.22274 0.72428 0.0
C776 C 0.38892 0.17813 0.72375 0.0
H777 H 0.39236 0.2786 0.75673 0.0
H778 H 0.39044 0.23992 0.69911 0.0
C779 C 0.39003 0.15719 0.75722 0.0
C780 C 0.34888 0.29753 0.01598 0.0
C781 C 0.32427 0.27326 0.9843 0.0
H782 H 0.35084 0.33845 0.06278 0.0
C783 C 0.28005 0.27053 0.97688 0.0
H784 H 0.38323 0.30081 0.02242 0.0
C785 C 0.261 0.29163 1.0002 0.0
C786 C 0.28583 0.31645 0.0317 0.0
H787 H 0.25996 0.25172 0.95305 0.0
H788 H 0.22681 0.28856 0.99349 0.0
C789 C 0.33016 0.31911 0.03914 0.0
C790 C 0.07356 0.337 0.5156 0.0
C791 C 0.07405 0.31086 0.48519 0.0
H792 H 0.03415 0.34029 0.56151 0.0
C793 C 1.03342 0.2654 0.47896 0.0
H794 H 0.10396 0.37225 0.52107 0.0
C795 C 0.99314 0.24682 0.50218 0.0
C796 C 0.99237 0.27322 0.53243 0.0
H797 H 1.0328 0.24406 0.45606 0.0
H798 H 0.96259 0.21178 0.49643 0.0
C799 C 1.03334 0.31857 0.53875 0.0
C800 C 0.73711 0.0242 0.03707 0.0
C801 C 0.74463 0.98489 0.03245 0.0
H802 H 0.75203 0.09384 0.0182 0.0
C803 C 0.77605 0.98802 1.00463 0.0
H804 H 0.71315 0.02325 0.05808 0.0
C805 C 0.79896 0.02905 0.98211 0.0
C806 C 0.79065 0.06783 0.9864 0.0
H807 H 0.78307 0.95879 1.0003 0.0
H808 H 0.82286 0.03024 0.96101 0.0
C809 C 0.75956 0.06489 0.0143 0.0
C810 C 0.75526 0.7068 0.50238 0.0
C811 C 0.78322 0.73256 0.53245 0.0
H812 H 0.71169 0.7047 0.45733 0.0
C813 C 0.78904 0.77833 0.53928 0.0
H814 H 0.74961 0.67134 0.4965 0.0
C815 C 0.76712 0.79764 0.51687 0.0
C816 C 0.73875 0.77166 0.4869 0.0
H817 H 0.81067 0.79932 0.56204 0.0
H818 H 0.77245 0.83291 0.523 0.0
C819 C 0.73326 0.72595 0.48006 0.0
C820 C 1.03065 0.77802 0.978 0.0
C821 C 0.98936 0.73355 0.98561 0.0
H822 H 0.1026 0.83102 0.9939 0.0
C823 C 0.98994 0.70864 0.01681 0.0
H824 H 1.03128 0.79841 0.9544 0.0
C825 C 1.03087 0.72718 0.03936 0.0
C826 C 0.07246 0.77152 0.03171 0.0
H827 H 0.95911 0.67411 0.0233 0.0
H828 H 1.03011 0.70626 0.06266 0.0
C829 C 0.07159 0.79678 1.0007 0.0
C830 C 0.3052 0.97975 0.51512 0.0
C831 C 0.27928 0.97928 0.48421 0.0
H832 H 0.34755 1.01946 0.56123 0.0
C833 C 0.27525 1.02026 0.47734 0.0
H834 H 0.3095 0.94913 0.52108 0.0
C835 C 0.29699 0.06079 0.50046 0.0
C836 C 0.32349 0.06156 0.5312 0.0
H837 H 0.25516 1.02097 0.45399 0.0
H838 H 0.2931 0.09158 0.4942 0.0
C839 C 0.32711 1.02028 0.53813 0.0
loop_
_geom_bond_atom_site_label_1
_geom_bond_atom_site_label_2
_geom_bond_distance
_geom_bond_site_symmetry_2
_ccdc_geom_bond_type
Ho0 C3 2.811 . S
Ho0 O20 2.322 . S
Ho0 O22 2.378 . S
Ho0 O23 2.524 . S
Ho0 O24 2.381 . S
Ho0 O25 2.669 . S
Ho0 O27 2.346 . S
Ho0 O31 2.305 . S
Ho1 C12 2.811 . S
Ho1 O21 2.346 . S
Ho1 O25 2.305 . S
Ho1 O26 2.322 . S
Ho1 O28 2.378 . S
Ho1 O29 2.524 . S
Ho1 O30 2.381 . S
Ho1 O31 2.669 . S
C2 O20 1.259 . S
C2 O21 1.268 . S
C3 Ho0 2.811 . S
C3 C4 1.488 . S
C3 O22 1.215 . S
C3 O23 1.289 . S
C4 C3 1.488 . S
C4 C5 1.348 . S
C4 C9 1.413 . S
C5 C4 1.348 . S
C5 C6 1.442 . S
C5 H32 0.930 . S
C6 C5 1.442 . S
C6 C7 1.381 . S
C6 H33 0.931 . S
C7 C6 1.381 . S
C7 C8 1.321 . S
C8 C7 1.321 . S
C8 C9 1.403 . S
C8 H34 0.934 . S
C9 C4 1.413 . S
C9 C8 1.403 . S
C9 H35 0.930 . S
C10 O24 1.275 . S
C10 O25 1.256 . S
C11 O26 1.259 . S
C11 O27 1.268 . S
C12 Ho1 2.811 . S
C12 C13 1.488 . S
C12 O28 1.215 . S
C12 O29 1.289 . S
C13 C12 1.488 . S
C13 C14 1.348 . S
C13 C18 1.413 . S
C14 C13 1.348 . S
C14 C15 1.442 . S
C14 H36 0.930 . S
C15 C14 1.442 . S
C15 C16 1.381 . S
C15 H37 0.931 . S
C16 C15 1.381 . S
C16 C17 1.321 . S
C17 C16 1.321 . S
C17 C18 1.403 . S
C17 H38 0.934 . S
C18 C13 1.413 . S
C18 C17 1.403 . S
C18 H39 0.930 . S
C19 O30 1.275 . S
C19 O31 1.256 . S
O20 Ho0 2.322 . S
O20 C2 1.259 . S
O21 Ho1 2.346 . S
O21 C2 1.268 . S
O22 Ho0 2.378 . S
O22 C3 1.215 . S
O23 Ho0 2.524 . S
O23 C3 1.289 . S
O24 Ho0 2.381 . S
O24 C10 1.275 . S
O25 Ho0 2.669 . S
O25 Ho1 2.305 . S
O25 C10 1.256 . S
O26 Ho1 2.322 . S
O26 C11 1.259 . S
O27 Ho0 2.346 . S
O27 C11 1.268 . S
O28 Ho1 2.378 . S
O28 C12 1.215 . S
O29 Ho1 2.524 . S
O29 C12 1.289 . S
O30 Ho1 2.381 . S
O30 C19 1.275 . S
O31 Ho0 2.305 . S
O31 Ho1 2.669 . S
O31 C19 1.256 . S
H32 C5 0.930 . S
H33 C6 0.931 . S
H34 C8 0.934 . S
H35 C9 0.930 . S
H36 C14 0.930 . S
H37 C15 0.931 . S
H38 C17 0.934 . S
H39 C18 0.930 . S
Ho40 C43 2.811 . S
Ho40 O60 2.322 . S
Ho40 O62 2.378 . S
Ho40 O63 2.524 . S
Ho40 O64 2.381 . S
Ho40 O65 2.669 . S
Ho40 O67 2.346 . S
Ho40 O71 2.305 . S
Ho41 C52 2.811 . S
Ho41 O61 2.346 . S
Ho41 O65 2.305 . S
Ho41 O66 2.322 . S
Ho41 O68 2.378 . S
Ho41 O69 2.524 . S
Ho41 O70 2.381 . S
Ho41 O71 2.669 . S
C42 O60 1.259 . S
C42 O61 1.268 . S
C43 Ho40 2.811 . S
C43 C44 1.488 . S
C43 O62 1.215 . S
C43 O63 1.289 . S
C44 C43 1.488 . S
C44 C45 1.348 . S
C44 C49 1.413 . S
C45 C44 1.348 . S
C45 C46 1.442 . S
C45 H72 0.930 . S
C46 C45 1.442 . S
C46 C47 1.381 . S
C46 H73 0.931 . S
C47 C46 1.381 . S
C47 C48 1.321 . S
C48 C47 1.321 . S
C48 C49 1.403 . S
C48 H74 0.934 . S
C49 C44 1.413 . S
C49 C48 1.403 . S
C49 H75 0.930 . S
C50 O64 1.275 . S
C50 O65 1.256 . S
C51 O66 1.259 . S
C51 O67 1.268 . S
C52 Ho41 2.811 . S
C52 C53 1.488 1_655 S
C52 O68 1.215 . S
C52 O69 1.289 . S
C53 C52 1.488 1_455 S
C53 C54 1.348 . S
C53 C58 1.413 . S
C54 C53 1.348 . S
C54 C55 1.442 . S
C54 H76 0.930 . S
C55 C54 1.442 . S
C55 C56 1.381 . S
C55 H77 0.931 . S
C56 C55 1.381 . S
C56 C57 1.321 . S
C57 C56 1.321 . S
C57 C58 1.403 . S
C57 H78 0.934 . S
C58 C53 1.413 . S
C58 C57 1.403 . S
C58 H79 0.930 . S
C59 O70 1.275 . S
C59 O71 1.256 . S
O60 Ho40 2.322 . S
O60 C42 1.259 . S
O61 Ho41 2.346 . S
O61 C42 1.268 . S
O62 Ho40 2.378 . S
O62 C43 1.215 . S
O63 Ho40 2.524 . S
O63 C43 1.289 . S
O64 Ho40 2.381 . S
O64 C50 1.275 . S
O65 Ho40 2.669 . S
O65 Ho41 2.305 . S
O65 C50 1.256 . S
O66 Ho41 2.322 . S
O66 C51 1.259 . S
O67 Ho40 2.346 . S
O67 C51 1.268 . S
O68 Ho41 2.378 . S
O68 C52 1.215 . S
O69 Ho41 2.524 . S
O69 C52 1.289 . S
O70 Ho41 2.381 . S
O70 C59 1.275 . S
O71 Ho40 2.305 . S
O71 Ho41 2.669 . S
O71 C59 1.256 . S
H72 C45 0.930 . S
H73 C46 0.931 . S
H74 C48 0.934 . S
H75 C49 0.930 . S
H76 C54 0.930 . S
H77 C55 0.931 . S
H78 C57 0.934 . S
H79 C58 0.930 . S
Ho80 C83 2.811 . S
Ho80 O100 2.322 . S
Ho80 O102 2.378 . S
Ho80 O103 2.524 . S
Ho80 O104 2.381 . S
Ho80 O105 2.669 . S
Ho80 O107 2.346 . S
Ho80 O111 2.305 . S
Ho81 C92 2.811 . S
Ho81 O101 2.346 . S
Ho81 O105 2.305 . S
Ho81 O106 2.322 . S
Ho81 O108 2.378 . S
Ho81 O109 2.524 . S
Ho81 O110 2.381 . S
Ho81 O111 2.669 . S
C82 O100 1.259 . S
C82 O101 1.268 . S
C83 Ho80 2.811 . S
C83 C84 1.488 . S
C83 O102 1.215 . S
C83 O103 1.289 . S
C84 C83 1.488 . S
C84 C85 1.348 . S
C84 C89 1.413 . S
C85 C84 1.348 . S
C85 C86 1.442 . S
C85 H112 0.930 . S
C86 C85 1.442 . S
C86 C87 1.381 . S
C86 H113 0.931 . S
C87 C86 1.381 . S
C87 C88 1.321 . S
C88 C87 1.321 . S
C88 C89 1.403 . S
C88 H114 0.934 . S
C89 C84 1.413 . S
C89 C88 1.403 . S
C89 H115 0.930 . S
C90 O104 1.275 . S
C90 O105 1.256 . S
C91 O106 1.259 . S
C91 O107 1.268 . S
C92 Ho81 2.811 . S
C92 C93 1.488 1_565 S
C92 O108 1.215 . S
C92 O109 1.289 . S
C93 C92 1.488 1_545 S
C93 C94 1.348 . S
C93 C98 1.413 . S
C94 C93 1.348 . S
C94 C95 1.442 . S
C94 H116 0.930 . S
C95 C94 1.442 . S
C95 C96 1.381 . S
C95 H117 0.931 . S
C96 C95 1.381 . S
C96 C97 1.321 . S
C97 C96 1.321 . S
C97 C98 1.403 . S
C97 H118 0.934 . S
C98 C93 1.413 . S
C98 C97 1.403 . S
C98 H119 0.930 . S
C99 O110 1.275 . S
C99 O111 1.256 . S
O100 Ho80 2.322 . S
O100 C82 1.259 . S
O101 Ho81 2.346 . S
O101 C82 1.268 . S
O102 Ho80 2.378 . S
O102 C83 1.215 . S
O103 Ho80 2.524 . S
O103 C83 1.289 . S
O104 Ho80 2.381 . S
O104 C90 1.275 . S
O105 Ho80 2.669 . S
O105 Ho81 2.305 . S
O105 C90 1.256 . S
O106 Ho81 2.322 . S
O106 C91 1.259 . S
O107 Ho80 2.346 . S
O107 C91 1.268 . S
O108 Ho81 2.378 . S
O108 C92 1.215 . S
O109 Ho81 2.524 . S
O109 C92 1.289 . S
O110 Ho81 2.381 . S
O110 C99 1.275 . S
O111 Ho80 2.305 . S
O111 Ho81 2.669 . S
O111 C99 1.256 . S
H112 C85 0.930 . S
H113 C86 0.931 . S
H114 C88 0.934 . S
H115 C89 0.930 . S
H116 C94 0.930 . S
H117 C95 0.931 . S
H118 C97 0.934 . S
H119 C98 0.930 . S
Ho120 C123 2.811 . S
Ho120 O140 2.322 . S
Ho120 O142 2.378 . S
Ho120 O143 2.524 . S
Ho120 O144 2.381 . S
Ho120 O145 2.669 . S
Ho120 O147 2.346 . S
Ho120 O151 2.305 . S
Ho121 C132 2.811 . S
Ho121 O141 2.346 . S
Ho121 O145 2.305 . S
Ho121 O146 2.322 . S
Ho121 O148 2.378 . S
Ho121 O149 2.524 . S
Ho121 O150 2.381 . S
Ho121 O151 2.669 . S
C122 O140 1.259 . S
C122 O141 1.268 . S
C123 Ho120 2.811 . S
C123 C124 1.488 . S
C123 O142 1.215 . S
C123 O143 1.289 . S
C124 C123 1.488 . S
C124 C125 1.348 . S
C124 C129 1.413 . S
C125 C124 1.348 . S
C125 C126 1.442 . S
C125 H152 0.930 . S
C126 C125 1.442 . S
C126 C127 1.381 . S
C126 H153 0.931 . S
C127 C126 1.381 . S
C127 C128 1.321 . S
C128 C127 1.321 . S
C128 C129 1.403 . S
C128 H154 0.934 . S
C129 C124 1.413 . S
C129 C128 1.403 . S
C129 H155 0.930 . S
C130 O144 1.275 . S
C130 O145 1.256 . S
C131 O146 1.259 . S
C131 O147 1.268 . S
C132 Ho121 2.811 . S
C132 C133 1.488 . S
C132 O148 1.215 . S
C132 O149 1.289 . S
C133 C132 1.488 . S
C133 C134 1.348 . S
C133 C138 1.413 . S
C134 C133 1.348 . S
C134 C135 1.442 . S
C134 H156 0.930 . S
C135 C134 1.442 . S
C135 C136 1.381 . S
C135 H157 0.931 . S
C136 C135 1.381 . S
C136 C137 1.321 . S
C137 C136 1.321 . S
C137 C138 1.403 . S
C137 H158 0.934 . S
C138 C133 1.413 . S
C138 C137 1.403 . S
C138 H159 0.930 . S
C139 O150 1.275 . S
C139 O151 1.256 . S
O140 Ho120 2.322 . S
O140 C122 1.259 . S
O141 Ho121 2.346 . S
O141 C122 1.268 . S
O142 Ho120 2.378 . S
O142 C123 1.215 . S
O143 Ho120 2.524 . S
O143 C123 1.289 . S
O144 Ho120 2.381 . S
O144 C130 1.275 . S
O145 Ho120 2.669 . S
O145 Ho121 2.305 . S
O145 C130 1.256 . S
O146 Ho121 2.322 . S
O146 C131 1.259 . S
O147 Ho120 2.346 . S
O147 C131 1.268 . S
O148 Ho121 2.378 . S
O148 C132 1.215 . S
O149 Ho121 2.524 . S
O149 C132 1.289 . S
O150 Ho121 2.381 . S
O150 C139 1.275 . S
O151 Ho120 2.305 . S
O151 Ho121 2.669 . S
O151 C139 1.256 . S
H152 C125 0.930 . S
H153 C126 0.931 . S
H154 C128 0.934 . S
H155 C129 0.930 . S
H156 C134 0.930 . S
H157 C135 0.931 . S
H158 C137 0.934 . S
H159 C138 0.930 . S
Ho160 C163 2.811 . S
Ho160 O180 2.322 . S
Ho160 O182 2.378 . S
Ho160 O183 2.524 . S
Ho160 O184 2.381 . S
Ho160 O185 2.669 . S
Ho160 O187 2.346 . S
Ho160 O191 2.305 . S
Ho161 C172 2.811 . S
Ho161 O181 2.346 . S
Ho161 O185 2.305 . S
Ho161 O186 2.322 . S
Ho161 O188 2.378 . S
Ho161 O189 2.524 . S
Ho161 O190 2.381 . S
Ho161 O191 2.669 . S
C162 O180 1.259 . S
C162 O181 1.268 . S
C163 Ho160 2.811 . S
C163 C164 1.488 . S
C163 O182 1.215 . S
C163 O183 1.289 . S
C164 C163 1.488 . S
C164 C165 1.348 . S
C164 C169 1.413 . S
C165 C164 1.348 . S
C165 C166 1.442 . S
C165 H192 0.930 . S
C166 C165 1.442 . S
C166 C167 1.381 . S
C166 H193 0.931 . S
C167 C166 1.381 . S
C167 C168 1.321 . S
C168 C167 1.321 . S
C168 C169 1.403 . S
C168 H194 0.934 . S
C169 C164 1.413 . S
C169 C168 1.403 . S
C169 H195 0.930 . S
C170 O184 1.275 . S
C170 O185 1.256 . S
C171 O186 1.259 . S
C171 O187 1.268 . S
C172 Ho161 2.811 . S
C172 C173 1.488 1_455 S
C172 O188 1.215 . S
C172 O189 1.289 . S
C173 C172 1.488 1_655 S
C173 C174 1.348 . S
C173 C178 1.413 . S
C174 C173 1.348 . S
C174 C175 1.442 . S
C174 H196 0.930 . S
C175 C174 1.442 . S
C175 C176 1.381 . S
C175 H197 0.931 . S
C176 C175 1.381 . S
C176 C177 1.321 . S
C177 C176 1.321 . S
C177 C178 1.403 . S
C177 H198 0.934 . S
C178 C173 1.413 . S
C178 C177 1.403 . S
C178 H199 0.930 . S
C179 O190 1.275 . S
C179 O191 1.256 . S
O180 Ho160 2.322 . S
O180 C162 1.259 . S
O181 Ho161 2.346 . S
O181 C162 1.268 . S
O182 Ho160 2.378 . S
O182 C163 1.215 . S
O183 Ho160 2.524 . S
O183 C163 1.289 . S
O184 Ho160 2.381 . S
O184 C170 1.275 . S
O185 Ho160 2.669 . S
O185 Ho161 2.305 . S
O185 C170 1.256 . S
O186 Ho161 2.322 . S
O186 C171 1.259 . S
O187 Ho160 2.346 . S
O187 C171 1.268 . S
O188 Ho161 2.378 . S
O188 C172 1.215 . S
O189 Ho161 2.524 . S
O189 C172 1.289 . S
O190 Ho161 2.381 . S
O190 C179 1.275 . S
O191 Ho160 2.305 . S
O191 Ho161 2.669 . S
O191 C179 1.256 . S
H192 C165 0.930 . S
H193 C166 0.931 . S
H194 C168 0.934 . S
H195 C169 0.930 . S
H196 C174 0.930 . S
H197 C175 0.931 . S
H198 C177 0.934 . S
H199 C178 0.930 . S
Ho200 C203 2.811 . S
Ho200 O220 2.322 . S
Ho200 O222 2.378 . S
Ho200 O223 2.524 . S
Ho200 O224 2.381 . S
Ho200 O225 2.669 . S
Ho200 O227 2.346 . S
Ho200 O231 2.305 . S
Ho201 C212 2.811 . S
Ho201 O221 2.346 . S
Ho201 O225 2.305 . S
Ho201 O226 2.322 . S
Ho201 O228 2.378 . S
Ho201 O229 2.524 . S
Ho201 O230 2.381 . S
Ho201 O231 2.669 . S
C202 O220 1.259 . S
C202 O221 1.268 . S
C203 Ho200 2.811 . S
C203 C204 1.488 . S
C203 O222 1.215 . S
C203 O223 1.289 . S
C204 C203 1.488 . S
C204 C205 1.348 . S
C204 C209 1.413 . S
C205 C204 1.348 . S
C205 C206 1.442 . S
C205 H232 0.930 . S
C206 C205 1.442 . S
C206 C207 1.381 . S
C206 H233 0.931 . S
C207 C206 1.381 . S
C207 C208 1.321 . S
C208 C207 1.321 . S
C208 C209 1.403 . S
C208 H234 0.934 . S
C209 C204 1.413 . S
C209 C208 1.403 . S
C209 H235 0.930 . S
C210 O224 1.275 . S
C210 O225 1.256 . S
C211 O226 1.259 . S
C211 O227 1.268 . S
C212 Ho201 2.811 . S
C212 C213 1.488 1_545 S
C212 O228 1.215 . S
C212 O229 1.289 . S
C213 C212 1.488 1_565 S
C213 C214 1.348 . S
C213 C218 1.413 . S
C214 C213 1.348 . S
C214 C215 1.442 . S
C214 H236 0.930 . S
C215 C214 1.442 . S
C215 C216 1.381 . S
C215 H237 0.931 . S
C216 C215 1.381 . S
C216 C217 1.321 . S
C217 C216 1.321 . S
C217 C218 1.403 . S
C217 H238 0.934 . S
C218 C213 1.413 . S
C218 C217 1.403 . S
C218 H239 0.930 . S
C219 O230 1.275 . S
C219 O231 1.256 . S
O220 Ho200 2.322 . S
O220 C202 1.259 . S
O221 Ho201 2.346 . S
O221 C202 1.268 . S
O222 Ho200 2.378 . S
O222 C203 1.215 . S
O223 Ho200 2.524 . S
O223 C203 1.289 . S
O224 Ho200 2.381 . S
O224 C210 1.275 . S
O225 Ho200 2.669 . S
O225 Ho201 2.305 . S
O225 C210 1.256 . S
O226 Ho201 2.322 . S
O226 C211 1.259 . S
O227 Ho200 2.346 . S
O227 C211 1.268 . S
O228 Ho201 2.378 . S
O228 C212 1.215 . S
O229 Ho201 2.524 . S
O229 C212 1.289 . S
O230 Ho201 2.381 . S
O230 C219 1.275 . S
O231 Ho200 2.305 . S
O231 Ho201 2.669 . S
O231 C219 1.256 . S
H232 C205 0.930 . S
H233 C206 0.931 . S
H234 C208 0.934 . S
H235 C209 0.930 . S
H236 C214 0.930 . S
H237 C215 0.931 . S
H238 C217 0.934 . S
H239 C218 0.930 . S
Ho240 C243 2.811 . S
Ho240 O260 2.322 . S
Ho240 O262 2.378 . S
Ho240 O263 2.524 . S
Ho240 O264 2.381 . S
Ho240 O265 2.669 . S
Ho240 O267 2.346 . S
Ho240 O271 2.305 . S
Ho241 C252 2.811 . S
Ho241 O261 2.346 . S
Ho241 O265 2.305 . S
Ho241 O266 2.322 . S
Ho241 O268 2.378 . S
Ho241 O269 2.524 . S
Ho241 O270 2.381 . S
Ho241 O271 2.669 . S
C242 O260 1.259 . S
C242 O261 1.268 . S
C243 Ho240 2.811 . S
C243 C244 1.488 . S
C243 O262 1.215 . S
C243 O263 1.289 . S
C244 C243 1.488 . S
C244 C245 1.348 . S
C244 C249 1.413 . S
C245 C244 1.348 . S
C245 C246 1.442 . S
C245 H272 0.930 . S
C246 C245 1.442 . S
C246 C247 1.381 . S
C246 H273 0.931 . S
C247 C246 1.381 . S
C247 C248 1.321 . S
C248 C247 1.321 . S
C248 C249 1.403 . S
C248 H274 0.934 . S
C249 C244 1.413 . S
C249 C248 1.403 . S
C249 H275 0.930 . S
C250 O264 1.275 . S
C250 O265 1.256 . S
C251 O266 1.259 . S
C251 O267 1.268 . S
C252 Ho241 2.811 . S
C252 C253 1.488 . S
C252 O268 1.215 . S
C252 O269 1.289 . S
C253 C252 1.488 . S
C253 C254 1.348 . S
C253 C258 1.413 . S
C254 C253 1.348 . S
C254 C255 1.442 . S
C254 H276 0.930 . S
C255 C254 1.442 . S
C255 C256 1.381 . S
C255 H277 0.931 . S
C256 C255 1.381 . S
C256 C257 1.321 . S
C257 C256 1.321 . S
C257 C258 1.403 . S
C257 H278 0.934 . S
C258 C253 1.413 . S
C258 C257 1.403 . S
C258 H279 0.930 . S
C259 O270 1.275 . S
C259 O271 1.256 . S
O260 Ho240 2.322 . S
O260 C242 1.259 . S
O261 Ho241 2.346 . S
O261 C242 1.268 . S
O262 Ho240 2.378 . S
O262 C243 1.215 . S
O263 Ho240 2.524 . S
O263 C243 1.289 . S
O264 Ho240 2.381 . S
O264 C250 1.275 . S
O265 Ho240 2.669 . S
O265 Ho241 2.305 . S
O265 C250 1.256 . S
O266 Ho241 2.322 . S
O266 C251 1.259 . S
O267 Ho240 2.346 . S
O267 C251 1.268 . S
O268 Ho241 2.378 . S
O268 C252 1.215 . S
O269 Ho241 2.524 . S
O269 C252 1.289 . S
O270 Ho241 2.381 . S
O270 C259 1.275 . S
O271 Ho240 2.305 . S
O271 Ho241 2.669 . S
O271 C259 1.256 . S
H272 C245 0.930 . S
H273 C246 0.931 . S
H274 C248 0.934 . S
H275 C249 0.930 . S
H276 C254 0.930 . S
H277 C255 0.931 . S
H278 C257 0.934 . S
H279 C258 0.930 . S
Ho280 C283 2.811 . S
Ho280 O300 2.322 . S
Ho280 O302 2.378 . S
Ho280 O303 2.524 . S
Ho280 O304 2.381 . S
Ho280 O305 2.669 . S
Ho280 O307 2.346 . S
Ho280 O311 2.305 . S
Ho281 C292 2.811 . S
Ho281 O301 2.346 . S
Ho281 O305 2.305 . S
Ho281 O306 2.322 . S
Ho281 O308 2.378 . S
Ho281 O309 2.524 . S
Ho281 O310 2.381 . S
Ho281 O311 2.669 . S
C282 O300 1.259 . S
C282 O301 1.268 . S
C283 Ho280 2.811 . S
C283 C284 1.488 . S
C283 O302 1.215 . S
C283 O303 1.289 . S
C284 C283 1.488 . S
C284 C285 1.348 . S
C284 C289 1.413 . S
C285 C284 1.348 . S
C285 C286 1.442 . S
C285 H312 0.930 . S
C286 C285 1.442 . S
C286 C287 1.381 . S
C286 H313 0.931 . S
C287 C286 1.381 . S
C287 C288 1.321 . S
C288 C287 1.321 . S
C288 C289 1.403 . S
C288 H314 0.934 . S
C289 C284 1.413 . S
C289 C288 1.403 . S
C289 H315 0.930 . S
C290 O304 1.275 . S
C290 O305 1.256 . S
C291 O306 1.259 . S
C291 O307 1.268 . S
C292 Ho281 2.811 . S
C292 C293 1.488 1_655 S
C292 O308 1.215 . S
C292 O309 1.289 . S
C293 C292 1.488 1_455 S
C293 C294 1.348 . S
C293 C298 1.413 . S
C294 C293 1.348 . S
C294 C295 1.442 . S
C294 H316 0.930 . S
C295 C294 1.442 . S
C295 C296 1.381 . S
C295 H317 0.931 . S
C296 C295 1.381 . S
C296 C297 1.321 . S
C297 C296 1.321 . S
C297 C298 1.403 . S
C297 H318 0.934 . S
C298 C293 1.413 . S
C298 C297 1.403 . S
C298 H319 0.930 . S
C299 O310 1.275 . S
C299 O311 1.256 . S
O300 Ho280 2.322 . S
O300 C282 1.259 . S
O301 Ho281 2.346 . S
O301 C282 1.268 . S
O302 Ho280 2.378 . S
O302 C283 1.215 . S
O303 Ho280 2.524 . S
O303 C283 1.289 . S
O304 Ho280 2.381 . S
O304 C290 1.275 . S
O305 Ho280 2.669 . S
O305 Ho281 2.305 . S
O305 C290 1.256 . S
O306 Ho281 2.322 . S
O306 C291 1.259 . S
O307 Ho280 2.346 . S
O307 C291 1.268 . S
O308 Ho281 2.378 . S
O308 C292 1.215 . S
O309 Ho281 2.524 . S
O309 C292 1.289 . S
O310 Ho281 2.381 . S
O310 C299 1.275 . S
O311 Ho280 2.305 . S
O311 Ho281 2.669 . S
O311 C299 1.256 . S
H312 C285 0.930 . S
H313 C286 0.931 . S
H314 C288 0.934 . S
H315 C289 0.930 . S
H316 C294 0.930 . S
H317 C295 0.931 . S
H318 C297 0.934 . S
H319 C298 0.930 . S
Ho320 C323 2.811 . S
Ho320 O340 2.322 . S
Ho320 O342 2.378 . S
Ho320 O343 2.524 . S
Ho320 O344 2.381 . S
Ho320 O345 2.669 . S
Ho320 O347 2.346 . S
Ho320 O351 2.305 . S
Ho321 C332 2.811 . S
Ho321 O341 2.346 . S
Ho321 O345 2.305 . S
Ho321 O346 2.322 . S
Ho321 O348 2.378 . S
Ho321 O349 2.524 . S
Ho321 O350 2.381 . S
Ho321 O351 2.669 . S
C322 O340 1.259 . S
C322 O341 1.268 . S
C323 Ho320 2.811 . S
C323 C324 1.488 . S
C323 O342 1.215 . S
C323 O343 1.289 . S
C324 C323 1.488 . S
C324 C325 1.348 . S
C324 C329 1.413 . S
C325 C324 1.348 . S
C325 C326 1.442 . S
C325 H352 0.930 . S
C326 C325 1.442 . S
C326 C327 1.381 . S
C326 H353 0.931 . S
C327 C326 1.381 . S
C327 C328 1.321 . S
C328 C327 1.321 . S
C328 C329 1.403 . S
C328 H354 0.934 . S
C329 C324 1.413 . S
C329 C328 1.403 . S
C329 H355 0.930 . S
C330 O344 1.275 . S
C330 O345 1.256 . S
C331 O346 1.259 . S
C331 O347 1.268 . S
C332 Ho321 2.811 . S
C332 C333 1.488 1_565 S
C332 O348 1.215 . S
C332 O349 1.289 . S
C333 C332 1.488 1_545 S
C333 C334 1.348 . S
C333 C338 1.413 . S
C334 C333 1.348 . S
C334 C335 1.442 . S
C334 H356 0.930 . S
C335 C334 1.442 . S
C335 C336 1.381 . S
C335 H357 0.931 . S
C336 C335 1.381 . S
C336 C337 1.321 . S
C337 C336 1.321 . S
C337 C338 1.403 . S
C337 H358 0.934 . S
C338 C333 1.413 . S
C338 C337 1.403 . S
C338 H359 0.930 . S
C339 O350 1.275 . S
C339 O351 1.256 . S
O340 Ho320 2.322 . S
O340 C322 1.259 . S
O341 Ho321 2.346 . S
O341 C322 1.268 . S
O342 Ho320 2.378 . S
O342 C323 1.215 . S
O343 Ho320 2.524 . S
O343 C323 1.289 . S
O344 Ho320 2.381 . S
O344 C330 1.275 . S
O345 Ho320 2.669 . S
O345 Ho321 2.305 . S
O345 C330 1.256 . S
O346 Ho321 2.322 . S
O346 C331 1.259 . S
O347 Ho320 2.346 . S
O347 C331 1.268 . S
O348 Ho321 2.378 . S
O348 C332 1.215 . S
O349 Ho321 2.524 . S
O349 C332 1.289 . S
O350 Ho321 2.381 . S
O350 C339 1.275 . S
O351 Ho320 2.305 . S
O351 Ho321 2.669 . S
O351 C339 1.256 . S
H352 C325 0.930 . S
H353 C326 0.931 . S
H354 C328 0.934 . S
H355 C329 0.930 . S
H356 C334 0.930 . S
H357 C335 0.931 . S
H358 C337 0.934 . S
H359 C338 0.930 . S
Ho360 C363 2.811 . S
Ho360 O380 2.322 . S
Ho360 O382 2.378 . S
Ho360 O383 2.524 . S
Ho360 O384 2.381 . S
Ho360 O385 2.669 . S
Ho360 O387 2.346 . S
Ho360 O391 2.305 . S
Ho361 C372 2.811 . S
Ho361 O381 2.346 . S
Ho361 O385 2.305 . S
Ho361 O386 2.322 . S
Ho361 O388 2.378 . S
Ho361 O389 2.524 . S
Ho361 O390 2.381 . S
Ho361 O391 2.669 . S
C362 O380 1.259 . S
C362 O381 1.268 . S
C363 Ho360 2.811 . S
C363 C364 1.488 . S
C363 O382 1.215 . S
C363 O383 1.289 . S
C364 C363 1.488 . S
C364 C365 1.348 . S
C364 C369 1.413 . S
C365 C364 1.348 . S
C365 C366 1.442 . S
C365 H392 0.930 . S
C366 C365 1.442 . S
C366 C367 1.381 . S
C366 H393 0.931 . S
C367 C366 1.381 . S
C367 C368 1.321 . S
C368 C367 1.321 . S
C368 C369 1.403 . S
C368 H394 0.934 . S
C369 C364 1.413 . S
C369 C368 1.403 . S
C369 H395 0.930 . S
C370 O384 1.275 . S
C370 O385 1.256 . S
C371 O386 1.259 . S
C371 O387 1.268 . S
C372 Ho361 2.811 . S
C372 C373 1.488 . S
C372 O388 1.215 . S
C372 O389 1.289 . S
C373 C372 1.488 . S
C373 C374 1.348 . S
C373 C378 1.413 . S
C374 C373 1.348 . S
C374 C375 1.442 . S
C374 H396 0.930 . S
C375 C374 1.442 . S
C375 C376 1.381 . S
C375 H397 0.931 . S
C376 C375 1.381 . S
C376 C377 1.321 . S
C377 C376 1.321 . S
C377 C378 1.403 . S
C377 H398 0.934 . S
C378 C373 1.413 . S
C378 C377 1.403 . S
C378 H399 0.930 . S
C379 O390 1.275 . S
C379 O391 1.256 . S
O380 Ho360 2.322 . S
O380 C362 1.259 . S
O381 Ho361 2.346 . S
O381 C362 1.268 . S
O382 Ho360 2.378 . S
O382 C363 1.215 . S
O383 Ho360 2.524 . S
O383 C363 1.289 . S
O384 Ho360 2.381 . S
O384 C370 1.275 . S
O385 Ho360 2.669 . S
O385 Ho361 2.305 . S
O385 C370 1.256 . S
O386 Ho361 2.322 . S
O386 C371 1.259 . S
O387 Ho360 2.346 . S
O387 C371 1.268 . S
O388 Ho361 2.378 . S
O388 C372 1.215 . S
O389 Ho361 2.524 . S
O389 C372 1.289 . S
O390 Ho361 2.381 . S
O390 C379 1.275 . S
O391 Ho360 2.305 . S
O391 Ho361 2.669 . S
O391 C379 1.256 . S
H392 C365 0.930 . S
H393 C366 0.931 . S
H394 C368 0.934 . S
H395 C369 0.930 . S
H396 C374 0.930 . S
H397 C375 0.931 . S
H398 C377 0.934 . S
H399 C378 0.930 . S
Ho400 C403 2.811 . S
Ho400 O420 2.322 . S
Ho400 O422 2.378 . S
Ho400 O423 2.524 . S
Ho400 O424 2.381 . S
Ho400 O425 2.669 . S
Ho400 O427 2.346 . S
Ho400 O431 2.305 . S
Ho401 C412 2.811 . S
Ho401 O421 2.346 . S
Ho401 O425 2.305 . S
Ho401 O426 2.322 . S
Ho401 O428 2.378 . S
Ho401 O429 2.524 . S
Ho401 O430 2.381 . S
Ho401 O431 2.669 . S
C402 O420 1.259 . S
C402 O421 1.268 . S
C403 Ho400 2.811 . S
C403 C404 1.488 . S
C403 O422 1.215 . S
C403 O423 1.289 . S
C404 C403 1.488 . S
C404 C405 1.348 . S
C404 C409 1.413 . S
C405 C404 1.348 . S
C405 C406 1.442 . S
C405 H432 0.930 . S
C406 C405 1.442 . S
C406 C407 1.381 . S
C406 H433 0.931 . S
C407 C406 1.381 . S
C407 C408 1.321 . S
C408 C407 1.321 . S
C408 C409 1.403 . S
C408 H434 0.934 . S
C409 C404 1.413 . S
C409 C408 1.403 . S
C409 H435 0.930 . S
C410 O424 1.275 . S
C410 O425 1.256 . S
C411 O426 1.259 . S
C411 O427 1.268 . S
C412 Ho401 2.811 . S
C412 C413 1.488 1_455 S
C412 O428 1.215 . S
C412 O429 1.289 . S
C413 C412 1.488 1_655 S
C413 C414 1.348 . S
C413 C418 1.413 . S
C414 C413 1.348 . S
C414 C415 1.442 . S
C414 H436 0.930 . S
C415 C414 1.442 . S
C415 C416 1.381 . S
C415 H437 0.931 . S
C416 C415 1.381 . S
C416 C417 1.321 . S
C417 C416 1.321 . S
C417 C418 1.403 . S
C417 H438 0.934 . S
C418 C413 1.413 . S
C418 C417 1.403 . S
C418 H439 0.930 . S
C419 O430 1.275 . S
C419 O431 1.256 . S
O420 Ho400 2.322 . S
O420 C402 1.259 . S
O421 Ho401 2.346 . S
O421 C402 1.268 . S
O422 Ho400 2.378 . S
O422 C403 1.215 . S
O423 Ho400 2.524 . S
O423 C403 1.289 . S
O424 Ho400 2.381 . S
O424 C410 1.275 . S
O425 Ho400 2.669 . S
O425 Ho401 2.305 . S
O425 C410 1.256 . S
O426 Ho401 2.322 . S
O426 C411 1.259 . S
O427 Ho400 2.346 . S
O427 C411 1.268 . S
O428 Ho401 2.378 . S
O428 C412 1.215 . S
O429 Ho401 2.524 . S
O429 C412 1.289 . S
O430 Ho401 2.381 . S
O430 C419 1.275 . S
O431 Ho400 2.305 . S
O431 Ho401 2.669 . S
O431 C419 1.256 . S
H432 C405 0.930 . S
H433 C406 0.931 . S
H434 C408 0.934 . S
H435 C409 0.930 . S
H436 C414 0.930 . S
H437 C415 0.931 . S
H438 C417 0.934 . S
H439 C418 0.930 . S
Ho440 C443 2.811 . S
Ho440 O460 2.322 . S
Ho440 O462 2.378 . S
Ho440 O463 2.524 . S
Ho440 O464 2.381 . S
Ho440 O465 2.669 . S
Ho440 O467 2.346 . S
Ho440 O471 2.305 . S
Ho441 C452 2.811 . S
Ho441 O461 2.346 . S
Ho441 O465 2.305 . S
Ho441 O466 2.322 . S
Ho441 O468 2.378 . S
Ho441 O469 2.524 . S
Ho441 O470 2.381 . S
Ho441 O471 2.669 . S
C442 O460 1.259 . S
C442 O461 1.268 . S
C443 Ho440 2.811 . S
C443 C444 1.488 . S
C443 O462 1.215 . S
C443 O463 1.289 . S
C444 C443 1.488 . S
C444 C445 1.348 . S
C444 C449 1.413 . S
C445 C444 1.348 . S
C445 C446 1.442 . S
C445 H472 0.930 . S
C446 C445 1.442 . S
C446 C447 1.381 . S
C446 H473 0.931 . S
C447 C446 1.381 . S
C447 C448 1.321 . S
C448 C447 1.321 . S
C448 C449 1.403 . S
C448 H474 0.934 . S
C449 C444 1.413 . S
C449 C448 1.403 . S
C449 H475 0.930 . S
C450 O464 1.275 . S
C450 O465 1.256 . S
C451 O466 1.259 . S
C451 O467 1.268 . S
C452 Ho441 2.811 . S
C452 C453 1.488 1_545 S
C452 O468 1.215 . S
C452 O469 1.289 . S
C453 C452 1.488 1_565 S
C453 C454 1.348 . S
C453 C458 1.413 . S
C454 C453 1.348 . S
C454 C455 1.442 . S
C454 H476 0.930 . S
C455 C454 1.442 . S
C455 C456 1.381 . S
C455 H477 0.931 . S
C456 C455 1.381 . S
C456 C457 1.321 . S
C457 C456 1.321 . S
C457 C458 1.403 . S
C457 H478 0.934 . S
C458 C453 1.413 . S
C458 C457 1.403 . S
C458 H479 0.930 . S
C459 O470 1.275 . S
C459 O471 1.256 . S
O460 Ho440 2.322 . S
O460 C442 1.259 . S
O461 Ho441 2.346 . S
O461 C442 1.268 . S
O462 Ho440 2.378 . S
O462 C443 1.215 . S
O463 Ho440 2.524 . S
O463 C443 1.289 . S
O464 Ho440 2.381 . S
O464 C450 1.275 . S
O465 Ho440 2.669 . S
O465 Ho441 2.305 . S
O465 C450 1.256 . S
O466 Ho441 2.322 . S
O466 C451 1.259 . S
O467 Ho440 2.346 . S
O467 C451 1.268 . S
O468 Ho441 2.378 . S
O468 C452 1.215 . S
O469 Ho441 2.524 . S
O469 C452 1.289 . S
O470 Ho441 2.381 . S
O470 C459 1.275 . S
O471 Ho440 2.305 . S
O471 Ho441 2.669 . S
O471 C459 1.256 . S
H472 C445 0.930 . S
H473 C446 0.931 . S
H474 C448 0.934 . S
H475 C449 0.930 . S
H476 C454 0.930 . S
H477 C455 0.931 . S
H478 C457 0.934 . S
H479 C458 0.930 . S
C480 C481 1.387 . S
C480 H484 0.950 . S
C480 C489 1.390 . S
C481 C480 1.387 . S
C481 C483 1.387 . S
H482 C489 0.950 . S
C483 C481 1.387 . S
C483 C485 1.390 1_565 S
C483 H487 0.950 . S
H484 C480 0.950 . S
C485 C483 1.390 1_545 S
C485 C486 1.387 . S
C485 H488 0.950 . S
C486 C485 1.387 . S
C486 C489 1.387 1_545 S
H487 C483 0.950 . S
H488 C485 0.950 . S
C489 C480 1.390 . S
C489 H482 0.950 . S
C489 C486 1.387 1_565 S
C490 C491 1.387 . S
C490 H494 0.950 . S
C490 C499 1.390 . S
C491 C490 1.387 . S
C491 C493 1.387 . S
H492 C499 0.950 . S
C493 C491 1.387 . S
C493 C495 1.390 . S
C493 H497 0.950 . S
H494 C490 0.950 . S
C495 C493 1.390 . S
C495 C496 1.387 . S
C495 H498 0.950 . S
C496 C495 1.387 . S
C496 C499 1.387 . S
H497 C493 0.950 . S
H498 C495 0.950 . S
C499 C490 1.390 . S
C499 H492 0.950 . S
C499 C496 1.387 . S
C500 C501 1.387 . S
C500 H504 0.950 . S
C500 C509 1.390 1_655 S
C501 C500 1.387 . S
C501 C503 1.387 1_655 S
H502 C509 0.950 . S
C503 C501 1.387 1_455 S
C503 C505 1.390 . S
C503 H507 0.950 . S
H504 C500 0.950 . S
C505 C503 1.390 . S
C505 C506 1.387 . S
C505 H508 0.950 . S
C506 C505 1.387 . S
C506 C509 1.387 . S
H507 C503 0.950 . S
H508 C505 0.950 . S
C509 C500 1.390 1_455 S
C509 H502 0.950 . S
C509 C506 1.387 . S
C510 C511 1.387 1_545 S
C510 H514 0.950 . S
C510 C519 1.390 . S
C511 C510 1.387 1_565 S
C511 C513 1.387 . S
H512 C519 0.950 . S
C513 C511 1.387 . S
C513 C515 1.390 1_565 S
C513 H517 0.950 . S
H514 C510 0.950 . S
C515 C513 1.390 1_545 S
C515 C516 1.387 . S
C515 H518 0.950 . S
C516 C515 1.387 . S
C516 C519 1.387 . S
H517 C513 0.950 . S
H518 C515 0.950 . S
C519 C510 1.390 . S
C519 H512 0.950 . S
C519 C516 1.387 . S
C520 C521 1.387 . S
C520 H524 0.950 . S
C520 C529 1.390 . S
C521 C520 1.387 . S
C521 C523 1.387 . S
H522 C529 0.950 . S
C523 C521 1.387 . S
C523 C525 1.390 . S
C523 H527 0.950 . S
H524 C520 0.950 . S
C525 C523 1.390 . S
C525 C526 1.387 . S
C525 H528 0.950 . S
C526 C525 1.387 . S
C526 C529 1.387 . S
H527 C523 0.950 . S
H528 C525 0.950 . S
C529 C520 1.390 . S
C529 H522 0.950 . S
C529 C526 1.387 . S
C530 C531 1.387 . S
C530 H534 0.950 . S
C530 C539 1.390 1_655 S
C531 C530 1.387 . S
C531 C533 1.387 . S
H532 C539 0.950 . S
C533 C531 1.387 . S
C533 C535 1.390 . S
C533 H537 0.950 . S
H534 C530 0.950 . S
C535 C533 1.390 . S
C535 C536 1.387 1_655 S
C535 H538 0.950 . S
C536 C535 1.387 1_455 S
C536 C539 1.387 . S
H537 C533 0.950 . S
H538 C535 0.950 . S
C539 C530 1.390 1_455 S
C539 H532 0.950 . S
C539 C536 1.387 . S
C540 C541 1.387 . S
C540 H544 0.950 . S
C540 C549 1.390 . S
C541 C540 1.387 . S
C541 C543 1.387 . S
H542 C549 0.950 . S
C543 C541 1.387 . S
C543 C545 1.390 1_455 S
C543 H547 0.950 . S
H544 C540 0.950 . S
C545 C543 1.390 1_655 S
C545 C546 1.387 . S
C545 H548 0.950 . S
C546 C545 1.387 . S
C546 C549 1.387 1_655 S
H547 C543 0.950 . S
H548 C545 0.950 . S
C549 C540 1.390 . S
C549 H542 0.950 . S
C549 C546 1.387 1_455 S
C550 C551 1.387 1_545 S
C550 H554 0.950 . S
C550 C559 1.390 . S
C551 C550 1.387 1_565 S
C551 C553 1.387 . S
H552 C559 0.950 . S
C553 C551 1.387 . S
C553 C555 1.390 1_565 S
C553 H557 0.950 . S
H554 C550 0.950 . S
C555 C553 1.390 1_545 S
C555 C556 1.387 . S
C555 H558 0.950 . S
C556 C555 1.387 . S
C556 C559 1.387 . S
H557 C553 0.950 . S
H558 C555 0.950 . S
C559 C550 1.390 . S
C559 H552 0.950 . S
C559 C556 1.387 . S
C560 C561 1.387 . S
C560 H564 0.950 . S
C560 C569 1.390 . S
C561 C560 1.387 . S
C561 C563 1.387 . S
H562 C569 0.950 . S
C563 C561 1.387 . S
C563 C565 1.390 . S
C563 H567 0.950 . S
H564 C560 0.950 . S
C565 C563 1.390 . S
C565 C566 1.387 . S
C565 H568 0.950 . S
C566 C565 1.387 . S
C566 C569 1.387 . S
H567 C563 0.950 . S
H568 C565 0.950 . S
C569 C560 1.390 . S
C569 H562 0.950 . S
C569 C566 1.387 . S
C570 C571 1.387 1_655 S
C570 H574 0.950 . S
C570 C579 1.390 . S
C571 C570 1.387 1_455 S
C571 C573 1.387 . S
H572 C579 0.950 . S
C573 C571 1.387 . S
C573 C575 1.390 1_455 S
C573 H577 0.950 . S
H574 C570 0.950 . S
C575 C573 1.390 1_655 S
C575 C576 1.387 . S
C575 H578 0.950 . S
C576 C575 1.387 . S
C576 C579 1.387 . S
H577 C573 0.950 . S
H578 C575 0.950 . S
C579 C570 1.390 . S
C579 H572 0.950 . S
C579 C576 1.387 . S
C580 C581 1.387 1_565 S
C580 H584 0.950 . S
C580 C589 1.390 . S
C581 C580 1.387 1_545 S
C581 C583 1.387 . S
H582 C589 0.950 . S
C583 C581 1.387 . S
C583 C585 1.390 1_545 S
C583 H587 0.950 . S
H584 C580 0.950 . S
C585 C583 1.390 1_565 S
C585 C586 1.387 . S
C585 H588 0.950 . S
C586 C585 1.387 . S
C586 C589 1.387 . S
H587 C583 0.950 . S
H588 C585 0.950 . S
C589 C580 1.390 . S
C589 H582 0.950 . S
C589 C586 1.387 . S
C590 C591 1.387 . S
C590 H594 0.950 . S
C590 C599 1.390 . S
C591 C590 1.387 . S
C591 C593 1.387 . S
H592 C599 0.950 . S
C593 C591 1.387 . S
C593 C595 1.390 . S
C593 H597 0.950 . S
H594 C590 0.950 . S
C595 C593 1.390 . S
C595 C596 1.387 . S
C595 H598 0.950 . S
C596 C595 1.387 . S
C596 C599 1.387 . S
H597 C593 0.950 . S
H598 C595 0.950 . S
C599 C590 1.390 . S
C599 H592 0.950 . S
C599 C596 1.387 . S
C600 C601 1.387 . S
C600 H604 0.950 . S
C600 C609 1.390 . S
C601 C600 1.387 . S
C601 C603 1.387 . S
H602 C609 0.950 . S
C603 C601 1.387 . S
C603 C605 1.390 . S
C603 H607 0.950 . S
H604 C600 0.950 . S
C605 C603 1.390 . S
C605 C606 1.387 . S
C605 H608 0.950 . S
C606 C605 1.387 . S
C606 C609 1.387 . S
H607 C603 0.950 . S
H608 C605 0.950 . S
C609 C600 1.390 . S
C609 H602 0.950 . S
C609 C606 1.387 . S
C610 C611 1.387 . S
C610 H614 0.950 . S
C610 C619 1.390 . S
C611 C610 1.387 . S
C611 C613 1.387 . S
H612 C619 0.950 . S
C613 C611 1.387 . S
C613 C615 1.390 . S
C613 H617 0.950 . S
H614 C610 0.950 . S
C615 C613 1.390 . S
C615 C616 1.387 . S
C615 H618 0.950 . S
C616 C615 1.387 . S
C616 C619 1.387 . S
H617 C613 0.950 . S
H618 C615 0.950 . S
C619 C610 1.390 . S
C619 H612 0.950 . S
C619 C616 1.387 . S
C620 C621 1.387 . S
C620 H624 0.950 . S
C620 C629 1.390 . S
C621 C620 1.387 . S
C621 C623 1.387 . S
H622 C629 0.950 . S
C623 C621 1.387 . S
C623 C625 1.390 . S
C623 H627 0.950 . S
H624 C620 0.950 . S
C625 C623 1.390 . S
C625 C626 1.387 . S
C625 H628 0.950 . S
C626 C625 1.387 . S
C626 C629 1.387 . S
H627 C623 0.950 . S
H628 C625 0.950 . S
C629 C620 1.390 . S
C629 H622 0.950 . S
C629 C626 1.387 . S
C630 C631 1.387 . S
C630 H634 0.950 . S
C630 C639 1.390 . S
C631 C630 1.387 . S
C631 C633 1.387 . S
H632 C639 0.950 . S
C633 C631 1.387 . S
C633 C635 1.390 . S
C633 H637 0.950 . S
H634 C630 0.950 . S
C635 C633 1.390 . S
C635 C636 1.387 . S
C635 H638 0.950 . S
C636 C635 1.387 . S
C636 C639 1.387 . S
H637 C633 0.950 . S
H638 C635 0.950 . S
C639 C630 1.390 . S
C639 H632 0.950 . S
C639 C636 1.387 . S
C640 C641 1.387 . S
C640 H644 0.950 . S
C640 C649 1.390 . S
C641 C640 1.387 . S
C641 C643 1.387 . S
H642 C649 0.950 . S
C643 C641 1.387 . S
C643 C645 1.390 . S
C643 H647 0.950 . S
H644 C640 0.950 . S
C645 C643 1.390 . S
C645 C646 1.387 . S
C645 H648 0.950 . S
C646 C645 1.387 . S
C646 C649 1.387 . S
H647 C643 0.950 . S
H648 C645 0.950 . S
C649 C640 1.390 . S
C649 H642 0.950 . S
C649 C646 1.387 . S
C650 C651 1.387 . S
C650 H654 0.950 . S
C650 C659 1.390 . S
C651 C650 1.387 . S
C651 C653 1.387 . S
H652 C659 0.950 . S
C653 C651 1.387 . S
C653 C655 1.390 . S
C653 H657 0.950 . S
H654 C650 0.950 . S
C655 C653 1.390 . S
C655 C656 1.387 . S
C655 H658 0.950 . S
C656 C655 1.387 . S
C656 C659 1.387 . S
H657 C653 0.950 . S
H658 C655 0.950 . S
C659 C650 1.390 . S
C659 H652 0.950 . S
C659 C656 1.387 . S
C660 C661 1.387 . S
C660 H664 0.950 . S
C660 C669 1.390 . S
C661 C660 1.387 . S
C661 C663 1.387 . S
H662 C669 0.950 . S
C663 C661 1.387 . S
C663 C665 1.390 . S
C663 H667 0.950 . S
H664 C660 0.950 . S
C665 C663 1.390 . S
C665 C666 1.387 . S
C665 H668 0.950 . S
C666 C665 1.387 . S
C666 C669 1.387 . S
H667 C663 0.950 . S
H668 C665 0.950 . S
C669 C660 1.390 . S
C669 H662 0.950 . S
C669 C666 1.387 . S
C670 C671 1.387 . S
C670 H674 0.950 . S
C670 C679 1.390 . S
C671 C670 1.387 . S
C671 C673 1.387 . S
H672 C679 0.950 . S
C673 C671 1.387 . S
C673 C675 1.390 . S
C673 H677 0.950 . S
H674 C670 0.950 . S
C675 C673 1.390 . S
C675 C676 1.387 . S
C675 H678 0.950 . S
C676 C675 1.387 . S
C676 C679 1.387 . S
H677 C673 0.950 . S
H678 C675 0.950 . S
C679 C670 1.390 . S
C679 H672 0.950 . S
C679 C676 1.387 . S
C680 C681 1.387 . S
C680 H684 0.950 . S
C680 C689 1.390 . S
C681 C680 1.387 . S
C681 C683 1.387 . S
H682 C689 0.950 . S
C683 C681 1.387 . S
C683 C685 1.390 . S
C683 H687 0.950 . S
H684 C680 0.950 . S
C685 C683 1.390 . S
C685 C686 1.387 . S
C685 H688 0.950 . S
C686 C685 1.387 . S
C686 C689 1.387 . S
H687 C683 0.950 . S
H688 C685 0.950 . S
C689 C680 1.390 . S
C689 H682 0.950 . S
C689 C686 1.387 . S
C690 C691 1.387 . S
C690 H694 0.950 . S
C690 C699 1.390 . S
C691 C690 1.387 . S
C691 C693 1.387 . S
H692 C699 0.950 . S
C693 C691 1.387 . S
C693 C695 1.390 . S
C693 H697 0.950 . S
H694 C690 0.950 . S
C695 C693 1.390 . S
C695 C696 1.387 . S
C695 H698 0.950 . S
C696 C695 1.387 . S
C696 C699 1.387 . S
H697 C693 0.950 . S
H698 C695 0.950 . S
C699 C690 1.390 . S
C699 H692 0.950 . S
C699 C696 1.387 . S
C700 C701 1.387 . S
C700 H704 0.950 . S
C700 C709 1.390 . S
C701 C700 1.387 . S
C701 C703 1.387 . S
H702 C709 0.950 . S
C703 C701 1.387 . S
C703 C705 1.390 . S
C703 H707 0.950 . S
H704 C700 0.950 . S
C705 C703 1.390 . S
C705 C706 1.387 . S
C705 H708 0.950 . S
C706 C705 1.387 . S
C706 C709 1.387 . S
H707 C703 0.950 . S
H708 C705 0.950 . S
C709 C700 1.390 . S
C709 H702 0.950 . S
C709 C706 1.387 . S
C710 C711 1.387 . S
C710 H714 0.950 . S
C710 C719 1.390 . S
C711 C710 1.387 . S
C711 C713 1.387 . S
H712 C719 0.950 . S
C713 C711 1.387 . S
C713 C715 1.390 . S
C713 H717 0.950 . S
H714 C710 0.950 . S
C715 C713 1.390 . S
C715 C716 1.387 . S
C715 H718 0.950 . S
C716 C715 1.387 . S
C716 C719 1.387 . S
H717 C713 0.950 . S
H718 C715 0.950 . S
C719 C710 1.390 . S
C719 H712 0.950 . S
C719 C716 1.387 . S
C720 C721 1.387 . S
C720 H724 0.950 . S
C720 C729 1.390 . S
C721 C720 1.387 . S
C721 C723 1.387 . S
H722 C729 0.950 . S
C723 C721 1.387 . S
C723 C725 1.390 . S
C723 H727 0.950 . S
H724 C720 0.950 . S
C725 C723 1.390 . S
C725 C726 1.387 . S
C725 H728 0.950 . S
C726 C725 1.387 . S
C726 C729 1.387 . S
H727 C723 0.950 . S
H728 C725 0.950 . S
C729 C720 1.390 . S
C729 H722 0.950 . S
C729 C726 1.387 . S
C730 C731 1.387 . S
C730 H734 0.950 . S
C730 C739 1.390 . S
C731 C730 1.387 . S
C731 C733 1.387 . S
H732 C739 0.950 . S
C733 C731 1.387 . S
C733 C735 1.390 . S
C733 H737 0.950 . S
H734 C730 0.950 . S
C735 C733 1.390 . S
C735 C736 1.387 . S
C735 H738 0.950 . S
C736 C735 1.387 . S
C736 C739 1.387 . S
H737 C733 0.950 . S
H738 C735 0.950 . S
C739 C730 1.390 . S
C739 H732 0.950 . S
C739 C736 1.387 . S
C740 C741 1.387 . S
C740 H744 0.950 . S
C740 C749 1.390 . S
C741 C740 1.387 . S
C741 C743 1.387 . S
H742 C749 0.950 . S
C743 C741 1.387 . S
C743 C745 1.390 . S
C743 H747 0.950 . S
H744 C740 0.950 . S
C745 C743 1.390 . S
C745 C746 1.387 . S
C745 H748 0.950 . S
C746 C745 1.387 . S
C746 C749 1.387 . S
H747 C743 0.950 . S
H748 C745 0.950 . S
C749 C740 1.390 . S
C749 H742 0.950 . S
C749 C746 1.387 . S
C750 C751 1.387 . S
C750 H754 0.950 . S
C750 C759 1.390 . S
C751 C750 1.387 . S
C751 C753 1.387 . S
H752 C759 0.950 . S
C753 C751 1.387 . S
C753 C755 1.390 . S
C753 H757 0.950 . S
H754 C750 0.950 . S
C755 C753 1.390 . S
C755 C756 1.387 . S
C755 H758 0.950 . S
C756 C755 1.387 . S
C756 C759 1.387 . S
H757 C753 0.950 . S
H758 C755 0.950 . S
C759 C750 1.390 . S
C759 H752 0.950 . S
C759 C756 1.387 . S
C760 C761 1.387 . S
C760 H764 0.950 . S
C760 C769 1.390 . S
C761 C760 1.387 . S
C761 C763 1.387 . S
H762 C769 0.950 . S
C763 C761 1.387 . S
C763 C765 1.390 . S
C763 H767 0.950 . S
H764 C760 0.950 . S
C765 C763 1.390 . S
C765 C766 1.387 . S
C765 H768 0.950 . S
C766 C765 1.387 . S
C766 C769 1.387 . S
H767 C763 0.950 . S
H768 C765 0.950 . S
C769 C760 1.390 . S
C769 H762 0.950 . S
C769 C766 1.387 . S
C770 C771 1.387 . S
C770 H774 0.950 . S
C770 C779 1.390 . S
C771 C770 1.387 . S
C771 C773 1.387 . S
H772 C779 0.950 . S
C773 C771 1.387 . S
C773 C775 1.390 . S
C773 H777 0.950 . S
H774 C770 0.950 . S
C775 C773 1.390 . S
C775 C776 1.387 . S
C775 H778 0.950 . S
C776 C775 1.387 . S
C776 C779 1.387 . S
H777 C773 0.950 . S
H778 C775 0.950 . S
C779 C770 1.390 . S
C779 H772 0.950 . S
C779 C776 1.387 . S
C780 C781 1.387 1_554 S
C780 H784 0.950 . S
C780 C789 1.390 . S
C781 C780 1.387 1_556 S
C781 C783 1.387 . S
H782 C789 0.950 . S
C783 C781 1.387 . S
C783 C785 1.390 . S
C783 H787 0.950 . S
H784 C780 0.950 . S
C785 C783 1.390 . S
C785 C786 1.387 1_556 S
C785 H788 0.950 . S
C786 C785 1.387 1_554 S
C786 C789 1.387 . S
H787 C783 0.950 . S
H788 C785 0.950 . S
C789 C780 1.390 . S
C789 H782 0.950 . S
C789 C786 1.387 . S
C790 C791 1.387 . S
C790 H794 0.950 . S
C790 C799 1.390 1_455 S
C791 C790 1.387 . S
C791 C793 1.387 . S
H792 C799 0.950 . S
C793 C791 1.387 . S
C793 C795 1.390 1_455 S
C793 H797 0.950 . S
H794 C790 0.950 . S
C795 C793 1.390 1_655 S
C795 C796 1.387 . S
C795 H798 0.950 . S
C796 C795 1.387 . S
C796 C799 1.387 . S
H797 C793 0.950 . S
H798 C795 0.950 . S
C799 C790 1.390 1_655 S
C799 H792 0.950 . S
C799 C796 1.387 . S
C800 C801 1.387 . S
C800 H804 0.950 . S
C800 C809 1.390 1_564 S
C801 C800 1.387 . S
C801 C803 1.387 . S
H802 C809 0.950 . S
C803 C801 1.387 . S
C803 C805 1.390 1_564 S
C803 H807 0.950 . S
H804 C800 0.950 . S
C805 C803 1.390 1_546 S
C805 C806 1.387 . S
C805 H808 0.950 . S
C806 C805 1.387 . S
C806 C809 1.387 . S
H807 C803 0.950 . S
H808 C805 0.950 . S
C809 C800 1.390 1_546 S
C809 H802 0.950 . S
C809 C806 1.387 . S
C810 C811 1.387 . S
C810 H814 0.950 . S
C810 C819 1.390 . S
C811 C810 1.387 . S
C811 C813 1.387 . S
H812 C819 0.950 . S
C813 C811 1.387 . S
C813 C815 1.390 . S
C813 H817 0.950 . S
H814 C810 0.950 . S
C815 C813 1.390 . S
C815 C816 1.387 . S
C815 H818 0.950 . S
C816 C815 1.387 . S
C816 C819 1.387 . S
H817 C813 0.950 . S
H818 C815 0.950 . S
C819 C810 1.390 . S
C819 H812 0.950 . S
C819 C816 1.387 . S
C820 C821 1.387 . S
C820 H824 0.950 . S
C820 C829 1.390 1_655 S
C821 C820 1.387 . S
C821 C823 1.387 1_556 S
H822 C829 0.950 . S
C823 C821 1.387 1_554 S
C823 C825 1.390 1_655 S
C823 H827 0.950 . S
H824 C820 0.950 . S
C825 C823 1.390 1_455 S
C825 C826 1.387 . S
C825 H828 0.950 . S
C826 C825 1.387 . S
C826 C829 1.387 1_554 S
H827 C823 0.950 . S
H828 C825 0.950 . S
C829 C820 1.390 1_455 S
C829 H822 0.950 . S
C829 C826 1.387 1_556 S
C830 C831 1.387 . S
C830 H834 0.950 . S
C830 C839 1.390 1_565 S
C831 C830 1.387 . S
C831 C833 1.387 . S
H832 C839 0.950 . S
C833 C831 1.387 . S
C833 C835 1.390 1_565 S
C833 H837 0.950 . S
H834 C830 0.950 . S
C835 C833 1.390 1_545 S
C835 C836 1.387 . S
C835 H838 0.950 . S
C836 C835 1.387 . S
C836 C839 1.387 . S
H837 C833 0.950 . S
H838 C835 0.950 . S
C839 C830 1.390 1_545 S
C839 H832 0.950 . S
C839 C836 1.387 . S
C481 C171 1.417 . S
C486 C16 1.483 . S
C491 C211 1.412 . S
C496 C56 1.480 . S
C501 C96 1.480 . S
C506 C11 1.413 . S
C511 C136 1.481 . S
C516 C51 1.415 . S
C521 C176 1.483 . S
C526 C91 1.417 . S
C531 C131 1.414 . S
C536 C216 1.481 . S
C541 C331 1.417 . S
C546 C256 1.483 . S
C551 C296 1.483 . S
C556 C371 1.417 . S
C561 C411 1.415 . S
C566 C336 1.481 . S
C571 C376 1.483 . S
C576 C451 1.417 . S
C581 C416 1.483 . S
C586 C251 1.417 . S
C591 C291 1.415 . S
C596 C456 1.481 . S
C601 C162 1.878 . S
C606 C7 1.859 . S
C611 C47 1.859 . S
C616 C202 1.878 . S
C621 C87 1.859 . S
C626 C2 1.879 . S
C631 C127 1.860 . S
C636 C42 1.880 . S
C641 C82 1.880 . S
C646 C167 1.860 . S
C651 C122 1.878 . S
C656 C207 1.859 . S
C661 C322 1.877 . S
C666 C247 1.857 . S
C671 C287 1.860 . S
C676 C362 1.880 . S
C681 C327 1.857 . S
C686 C402 1.877 . S
C691 C442 1.878 . S
C696 C367 1.857 . S
C701 C407 1.859 . S
C706 C242 1.880 . S
C711 C282 1.877 . S
C716 C447 1.858 . S
C721 C419 1.608 . S
C726 C19 1.608 . S
C731 C59 1.611 . S
C736 C459 1.611 . S
C741 C99 1.610 . S
C746 C259 1.611 . S
C751 C139 1.611 . S
C756 C299 1.611 . S
C761 C179 1.610 . S
C766 C339 1.608 . S
C771 C379 1.611 . S
C776 C219 1.611 . S
C781 C370 2.434 . S
C786 C10 2.434 . S
C791 C410 2.435 . S
C796 C50 2.435 . S
C801 C90 2.435 . S
C806 C450 2.435 . S
C811 C130 2.435 . S
C816 C250 2.435 . S
C821 C290 2.434 . S
C826 C170 2.434 . S
C831 C330 2.435 . S
C836 C210 2.435 . S
