# Generated by pormake.
# Topology soe, (5)-cn, num edge types: 1
# Building blocks:
#     Node 0, Type 0, BuildingBlock: XOMCOT_clean_sbu_1, # of connection points: 5
#     Node 1, Type 0, BuildingBlock: XOMCOT_clean_sbu_1, # of connection points: 5
#     Node 2, Type 0, BuildingBlock: XOMCOT_clean_sbu_1, # of connection points: 5
#     Node 3, Type 0, BuildingBlock: XOMCOT_clean_sbu_1, # of connection points: 5
#     Node 4, Type 0, BuildingBlock: XOMCOT_clean_sbu_1, # of connection points: 5
#     Node 5, Type 0, BuildingBlock: XOMCOT_clean_sbu_1, # of connection points: 5
#     Node 6, Type 0, BuildingBlock: XOMCOT_clean_sbu_1, # of connection points: 5
#     Node 7, Type 0, BuildingBlock: XOMCOT_clean_sbu_1, # of connection points: 5
#     Edge 8, Type (0, 0), BuildingBlock: MIFKUJ_clean_linker_0, # of connection points: 2
#     Edge 9, Type (0, 0), BuildingBlock: MIFKUJ_clean_linker_0, # of connection points: 2
#     Edge 10, Type (0, 0), BuildingBlock: MIFKUJ_clean_linker_0, # of connection points: 2
#     Edge 11, Type (0, 0), BuildingBlock: MIFKUJ_clean_linker_0, # of connection points: 2
#     Edge 12, Type (0, 0), BuildingBlock: MIFKUJ_clean_linker_0, # of connection points: 2
#     Edge 13, Type (0, 0), BuildingBlock: MIFKUJ_clean_linker_0, # of connection points: 2
#     Edge 14, Type (0, 0), BuildingBlock: MIFKUJ_clean_linker_0, # of connection points: 2
#     Edge 15, Type (0, 0), BuildingBlock: MIFKUJ_clean_linker_0, # of connection points: 2
#     Edge 16, Type (0, 0), BuildingBlock: MIFKUJ_clean_linker_0, # of connection points: 2
#     Edge 17, Type (0, 0), BuildingBlock: MIFKUJ_clean_linker_0, # of connection points: 2
#     Edge 18, Type (0, 0), BuildingBlock: MIFKUJ_clean_linker_0, # of connection points: 2
#     Edge 19, Type (0, 0), BuildingBlock: MIFKUJ_clean_linker_0, # of connection points: 2
#     Edge 20, Type (0, 0), BuildingBlock: MIFKUJ_clean_linker_0, # of connection points: 2
#     Edge 21, Type (0, 0), BuildingBlock: MIFKUJ_clean_linker_0, # of connection points: 2
#     Edge 22, Type (0, 0), BuildingBlock: MIFKUJ_clean_linker_0, # of connection points: 2
#     Edge 23, Type (0, 0), BuildingBlock: MIFKUJ_clean_linker_0, # of connection points: 2
#     Edge 24, Type (0, 0), BuildingBlock: MIFKUJ_clean_linker_0, # of connection points: 2
#     Edge 25, Type (0, 0), BuildingBlock: MIFKUJ_clean_linker_0, # of connection points: 2
#     Edge 26, Type (0, 0), BuildingBlock: MIFKUJ_clean_linker_0, # of connection points: 2
#     Edge 27, Type (0, 0), BuildingBlock: MIFKUJ_clean_linker_0, # of connection points: 2
# Relax obj value: 0.045
# Max RMSD: 0.083
# Mean RMSD: 0.083
data_MOF--net-soe--node1-XOMCOT_clean_sbu_1--edge1-MIFKUJ_clean_linker_0
_symmetry_space_group_name_H-M    P1
_symmetry_Int_Tables_number       1
_symmetry_cell_setting            triclinic
loop_
_symmetry_equiv_pos_as_xyz
'x, y, z'
_cell_length_a     71.109608
_cell_length_b     60.446026
_cell_length_c     22.053989
_cell_angle_alpha  90.032254
_cell_angle_beta   89.814501
_cell_angle_gamma 90.046546
loop_
_atom_site_label
_atom_site_type_symbol
_atom_site_fract_x
_atom_site_fract_y
_atom_site_fract_z
_atom_type_partial_charge
C0 C 0.13365 0.12346 0.07088 0.0
C1 C 0.13409 0.12791 0.00973 0.0
N2 N 0.11799 0.1205 0.98473 0.0
N3 N 0.11737 0.11322 0.08482 0.0
C4 C 0.10803 0.11182 0.03149 0.0
H5 H 0.14479 0.12677 0.10292 0.0
Co6 Co 0.11108 0.10256 0.1624 0.0
C7 C 0.08874 0.06321 0.11429 0.0
O8 O 0.10267 0.0496 0.12537 0.0
N9 N 0.10438 0.09244 0.24177 0.0
C10 C 0.09548 0.07176 0.32046 0.0
C11 C 0.09839 0.07216 0.259 0.0
C12 C 0.10511 0.104 0.29462 0.0
N13 N 0.09965 0.09182 0.34316 0.0
O14 O 0.0941 0.12746 0.17281 0.0
H15 H 0.09671 0.05807 0.22999 0.0
H16 H 0.10972 0.12098 0.29775 0.0
O17 O 0.09048 0.08389 0.12676 0.0
C18 C 0.10436 0.14338 0.19209 0.0
O19 O 0.12247 0.13965 0.19813 0.0
N20 N 0.13028 0.08025 0.15493 0.0
C21 C 0.16487 0.05753 0.14602 0.0
C22 C 0.15284 0.05938 0.09578 0.0
C23 C 0.13574 0.07087 0.10104 0.0
C24 C 0.14184 0.07839 0.20408 0.0
C25 C 0.15873 0.06671 0.20109 0.0
H26 H 0.12722 0.07287 0.06094 0.0
H27 H 0.13869 0.08705 0.24565 0.0
H28 H 0.09432 0.10426 0.02679 0.0
H29 H 0.14577 0.13521 0.9853 0.0
H30 H 0.09122 0.05745 0.34659 0.0
H31 H 0.15694 0.05297 0.05185 0.0
H32 H 0.16721 0.06561 0.24165 0.0
C33 C 0.38025 0.8906 0.08608 0.0
C34 C 0.37842 0.88676 0.0248 0.0
N35 N 0.3927 0.89697 0.99571 0.0
N36 N 0.39559 0.90316 0.09578 0.0
C37 C 0.40301 0.90658 0.03994 0.0
H38 H 0.3707 0.88514 0.12129 0.0
Co39 Co 0.40281 0.91392 0.17171 0.0
C40 C 0.42537 0.9536 0.13399 0.0
O41 O 0.41421 0.96613 0.16688 0.0
N42 N 0.41041 0.92388 0.25032 0.0
C43 C 0.4281 0.93564 0.32743 0.0
C44 C 0.4268 0.93384 0.26557 0.0
C45 C 0.40261 0.91869 0.30484 0.0
N46 N 0.41287 0.92607 0.35227 0.0
O47 O 0.41987 0.88913 0.18003 0.0
H48 H 0.438 0.93813 0.23472 0.0
H49 H 0.39005 0.90879 0.31004 0.0
O50 O 0.42274 0.93257 0.13283 0.0
C51 C 0.4116 0.87373 0.20966 0.0
O52 O 0.39425 0.87712 0.22801 0.0
N53 N 0.38402 0.93656 0.16463 0.0
C54 C 0.35117 0.96185 0.15022 0.0
C55 C 0.36496 0.96134 0.10465 0.0
C56 C 0.38127 0.9486 0.11269 0.0
C57 C 0.37039 0.9366 0.20837 0.0
C58 C 0.35421 0.94951 0.2029 0.0
H59 H 0.39133 0.94782 0.076 0.0
H60 H 0.37122 0.92548 0.24613 0.0
H61 H 0.41551 0.91631 0.03158 0.0
H62 H 0.36703 0.87789 1.00325 0.0
H63 H 0.43997 0.9422 0.35228 0.0
H64 H 0.36299 0.97036 0.06274 0.0
H65 H 0.34358 0.94878 0.23818 0.0
C66 C 0.13841 0.39066 0.45356 0.0
C67 C 0.14058 0.38809 0.51504 0.0
N68 N 0.12534 0.39662 0.54302 0.0
N69 N 0.12189 0.40075 0.44258 0.0
C70 C 0.11419 0.40415 0.49792 0.0
H71 H 0.1484 0.38582 0.41894 0.0
Co72 Co 0.11352 0.40818 0.36543 0.0
C73 C 0.09013 0.44848 0.38599 0.0
O74 O 0.0996 0.45824 0.34223 0.0
N75 N 0.10483 0.4149 0.28653 0.0
C76 C 0.08451 0.42018 0.21107 0.0
C77 C 0.08654 0.41834 0.27269 0.0
C78 C 0.11347 0.41368 0.23172 0.0
N79 N 0.10146 0.41716 0.18532 0.0
O80 O 0.09625 0.38338 0.36701 0.0
H81 H 0.07512 0.41846 0.30514 0.0
H82 H 0.12805 0.40946 0.22509 0.0
O83 O 0.0942 0.42849 0.40069 0.0
C84 C 0.10528 0.36618 0.34994 0.0
O85 O 0.12311 0.36839 0.33535 0.0
N86 N 0.13245 0.4304 0.36279 0.0
C87 C 0.16647 0.4541 0.36749 0.0
C88 C 0.15119 0.45995 0.40478 0.0
C89 C 0.13448 0.44754 0.40288 0.0
C90 C 0.14736 0.42423 0.32771 0.0
C91 C 0.16423 0.43605 0.32822 0.0
H92 H 0.12372 0.45095 0.43623 0.0
H93 H 0.14678 0.40895 0.30253 0.0
H94 H 0.10068 0.41195 0.50506 0.0
H95 H 0.1527 0.38103 0.53736 0.0
H96 H 0.07142 0.42232 0.18687 0.0
H97 H 0.15249 0.47318 0.43764 0.0
H98 H 0.17566 0.43055 0.29938 0.0
C99 C 0.38257 0.62962 0.43814 0.0
C100 C 0.37966 0.63121 0.49971 0.0
N101 N 0.39027 0.61576 0.52745 0.0
N102 N 0.39494 0.61327 0.42692 0.0
C103 C 0.39941 0.60513 0.48212 0.0
H104 H 0.37608 0.6397 0.40357 0.0
Co105 Co 0.40259 0.60504 0.34959 0.0
C106 C 0.42652 0.5651 0.36725 0.0
O107 O 0.41732 0.5557 0.32248 0.0
N108 N 0.41061 0.59742 0.27017 0.0
C109 C 0.43055 0.59336 0.1929 0.0
C110 C 0.42895 0.59637 0.2543 0.0
C111 C 0.40133 0.59548 0.21677 0.0
N112 N 0.41316 0.59286 0.16905 0.0
O113 O 0.42017 0.6296 0.3488 0.0
H114 H 0.44056 0.5986 0.28526 0.0
H115 H 0.38627 0.59674 0.2122 0.0
O116 O 0.42198 0.58475 0.38393 0.0
C117 C 0.41407 0.64552 0.31616 0.0
O118 O 0.39805 0.64302 0.28749 0.0
N119 N 0.38343 0.58328 0.34973 0.0
C120 C 0.34902 0.56058 0.35771 0.0
C121 C 0.3648 0.5534 0.39053 0.0
C122 C 0.38177 0.56529 0.38704 0.0
C123 C 0.36812 0.59062 0.31868 0.0
C124 C 0.35099 0.57937 0.321 0.0
H125 H 0.39306 0.56069 0.41705 0.0
H126 H 0.36891 0.60611 0.29434 0.0
H127 H 0.40889 0.59138 0.48895 0.0
H128 H 0.37062 0.64305 0.5222 0.0
H129 H 0.44358 0.59285 0.16749 0.0
H130 H 0.36376 0.53946 0.42118 0.0
H131 H 0.33923 0.58576 0.29534 0.0
C132 C 0.87719 0.89573 0.92634 0.0
C133 C 0.87478 0.89355 0.98794 0.0
N134 N 0.89072 0.90009 0.01558 0.0
N135 N 0.89455 0.90371 0.91502 0.0
C136 C 0.90255 0.90599 0.97024 0.0
H137 H 0.86681 0.89223 0.89189 0.0
Co138 Co 0.90352 0.91105 0.83803 0.0
C139 C 0.92677 0.95107 0.86271 0.0
O140 O 0.91738 0.9612 0.81967 0.0
N141 N 0.91297 0.91753 0.7592 0.0
C142 C 0.93399 0.92263 0.68507 0.0
C143 C 0.93113 0.9225 0.74657 0.0
C144 C 0.90541 0.91353 0.70379 0.0
N145 N 0.91779 0.91695 0.658 0.0
O146 O 0.92017 0.88571 0.83984 0.0
H147 H 0.94212 0.92456 0.77978 0.0
H148 H 0.8917 0.90637 0.69674 0.0
O149 O 0.92292 0.93079 0.875 0.0
C150 C 0.91076 0.86861 0.82412 0.0
O151 O 0.89288 0.87111 0.81104 0.0
N152 N 0.88517 0.93419 0.83529 0.0
C153 C 0.85146 0.95869 0.84289 0.0
C154 C 0.86591 0.96161 0.88562 0.0
C155 C 0.88254 0.94913 0.8813 0.0
C156 C 0.87123 0.93117 0.79384 0.0
C157 C 0.85473 0.94366 0.79545 0.0
H158 H 0.89264 0.95036 0.91764 0.0
H159 H 0.87194 0.91769 0.76229 0.0
H160 H 0.91652 0.91258 0.97726 0.0
H161 H 0.86219 0.88771 0.01057 0.0
H162 H 0.94718 0.926 0.66227 0.0
H163 H 0.86403 0.9724 0.92432 0.0
H164 H 0.84425 0.94064 0.76093 0.0
C165 C 0.63611 0.12441 0.94581 0.0
C166 C 0.63677 0.12884 0.00694 0.0
N167 N 0.62065 0.12168 0.03275 0.0
N168 N 0.61968 0.11441 0.93264 0.0
C169 C 0.61046 0.11317 0.98642 0.0
H170 H 0.64719 0.12756 0.91322 0.0
Co171 Co 0.61317 0.10384 0.85519 0.0
C172 C 0.59137 0.06419 0.90501 0.0
O173 O 0.60519 0.05057 0.89242 0.0
N174 N 0.60637 0.09397 0.77642 0.0
C175 C 0.59714 0.07379 0.69746 0.0
C176 C 0.6 0.07391 0.7589 0.0
C177 C 0.60733 0.10571 0.72401 0.0
N178 N 0.6017 0.09381 0.67521 0.0
O179 O 0.5957 0.12831 0.84683 0.0
H180 H 0.59796 0.05983 0.7878 0.0
H181 H 0.6122 0.12264 0.72165 0.0
O182 O 0.59292 0.08482 0.89177 0.0
C183 C 0.6049 0.14581 0.8331 0.0
O184 O 0.62321 0.14426 0.82613 0.0
N185 N 0.63257 0.08164 0.86119 0.0
C186 C 0.66644 0.05776 0.86888 0.0
C187 C 0.65482 0.06036 0.91983 0.0
C188 C 0.63799 0.07232 0.91509 0.0
C189 C 0.64401 0.07939 0.81153 0.0
C190 C 0.66066 0.06712 0.81402 0.0
H191 H 0.62954 0.07448 0.95545 0.0
H192 H 0.64093 0.08807 0.77003 0.0
H193 H 0.59669 0.10582 0.99168 0.0
H194 H 0.6486 0.13595 0.03074 0.0
H195 H 0.59261 0.05968 0.67098 0.0
H196 H 0.65886 0.05351 0.96324 0.0
H197 H 0.66948 0.06602 0.77399 0.0
C198 C 0.8795 0.6242 0.56382 0.0
C199 C 0.87841 0.62883 0.50292 0.0
N200 N 0.89425 0.62157 0.47562 0.0
N201 N 0.89592 0.61397 0.5754 0.0
C202 C 0.90472 0.61281 0.5209 0.0
H203 H 0.86866 0.62726 0.5973 0.0
Co204 Co 0.90245 0.60276 0.65195 0.0
C205 C 0.9246 0.56356 0.60259 0.0
O206 O 0.91103 0.54997 0.61829 0.0
N207 N 0.90919 0.59229 0.73084 0.0
C208 C 0.91983 0.57286 0.80948 0.0
C209 C 0.91777 0.57333 0.7477 0.0
C210 C 0.90626 0.60305 0.78419 0.0
N211 N 0.91263 0.5916 0.83281 0.0
O212 O 0.91949 0.62765 0.6628 0.0
H213 H 0.92236 0.5603 0.71823 0.0
H214 H 0.89951 0.619 0.78739 0.0
O215 O 0.92299 0.58434 0.61415 0.0
C216 C 0.90969 0.64374 0.6835 0.0
O217 O 0.89154 0.64055 0.69086 0.0
N218 N 0.8834 0.58029 0.64367 0.0
C219 C 0.84988 0.55584 0.63238 0.0
C220 C 0.86193 0.55878 0.58258 0.0
C221 C 0.87853 0.57109 0.58904 0.0
C222 C 0.87163 0.57764 0.69229 0.0
C223 C 0.85511 0.56515 0.68799 0.0
H224 H 0.8873 0.57352 0.54953 0.0
H225 H 0.8743 0.5862 0.73429 0.0
H226 H 0.91832 0.60518 0.51432 0.0
H227 H 0.86643 0.63606 0.48028 0.0
H228 H 0.9259 0.5594 0.83509 0.0
H229 H 0.85841 0.55193 0.53866 0.0
H230 H 0.84598 0.56386 0.72723 0.0
C231 C 0.63457 0.38965 0.56329 0.0
C232 C 0.63566 0.38513 0.50227 0.0
N233 N 0.61978 0.39234 0.47551 0.0
N234 N 0.61811 0.39977 0.57541 0.0
C235 C 0.6093 0.401 0.52114 0.0
H236 H 0.6454 0.3865 0.59651 0.0
Co237 Co 0.61126 0.41047 0.65234 0.0
C238 C 0.58931 0.44999 0.60437 0.0
O239 O 0.60298 0.46346 0.61967 0.0
N240 N 0.60412 0.42049 0.73153 0.0
C241 C 0.59388 0.44012 0.81062 0.0
C242 C 0.59624 0.43982 0.74894 0.0
C243 C 0.60635 0.40932 0.78453 0.0
N244 N 0.60021 0.42089 0.83343 0.0
O245 O 0.59419 0.3855 0.66147 0.0
H246 H 0.59254 0.45335 0.71998 0.0
H247 H 0.61255 0.39306 0.78733 0.0
O248 O 0.59089 0.42915 0.61497 0.0
C249 C 0.60405 0.36938 0.6815 0.0
O250 O 0.62214 0.37273 0.68938 0.0
N251 N 0.63041 0.43292 0.6459 0.0
C252 C 0.66465 0.4564 0.63741 0.0
C253 C 0.65271 0.45426 0.58704 0.0
C254 C 0.6358 0.44239 0.59209 0.0
C255 C 0.64184 0.43507 0.69525 0.0
C256 C 0.65861 0.44709 0.69241 0.0
H257 H 0.62732 0.44028 0.55193 0.0
H258 H 0.6387 0.42645 0.73684 0.0
H259 H 0.59562 0.40845 0.51501 0.0
H260 H 0.64762 0.37791 0.47917 0.0
H261 H 0.58836 0.45385 0.83658 0.0
H262 H 0.65674 0.46075 0.54315 0.0
H263 H 0.66706 0.44838 0.733 0.0
H264 H 0.33504 0.99217 0.22572 0.0
H265 H 0.30374 0.00868 0.21801 0.0
H266 H 0.29441 0.97342 0.0505 0.0
H267 H 0.32619 0.95781 0.05676 0.0
H268 H 0.27832 0.01108 0.04083 0.0
H269 H 0.27631 0.95555 0.19351 0.0
H270 H 0.28609 0.93562 0.28568 0.0
H271 H 0.27478 0.99335 0.3933 0.0
H272 H 0.26518 0.01374 0.30161 0.0
H273 H 0.17672 0.02272 0.07341 0.0
H274 H 0.20832 1.00665 0.06645 0.0
H275 H 0.22814 0.05276 0.20086 0.0
H276 H 0.19717 0.06966 0.20596 0.0
H277 H 0.23755 1.00703 0.22347 0.0
H278 H 0.23989 0.06193 0.06312 0.0
H279 H 0.22886 0.07929 0.96854 0.0
H280 H 0.2376 0.0183 0.87259 0.0
H281 H 0.24843 1.00049 0.96688 0.0
C282 C 0.32637 0.9882 0.18688 0.0
C283 C 0.33301 0.97367 0.14195 0.0
C284 C 0.30839 0.99747 0.1827 0.0
C285 C 0.29635 0.99185 0.13455 0.0
C286 C 0.30328 0.97799 0.08833 0.0
C287 C 0.32147 0.96908 0.09184 0.0
C288 C 0.27644 0.99995 0.13355 0.0
C289 C 0.26937 0.00986 0.0806 0.0
C290 C 0.26455 0.99847 0.18523 0.0
C291 C 0.27018 0.98623 0.24059 0.0
C292 C 0.27602 0.96404 0.23678 0.0
C293 C 0.28152 0.95266 0.28894 0.0
C294 C 0.28109 0.96323 0.34529 0.0
C295 C 0.27512 0.98519 0.34961 0.0
C296 C 0.26963 0.99666 0.29756 0.0
C297 C 0.18781 0.02968 0.10097 0.0
C298 C 0.1841 0.04741 0.14087 0.0
C299 C 0.20588 0.02037 0.0971 0.0
C300 C 0.22058 0.02844 0.13338 0.0
C301 C 0.21698 0.04611 0.17288 0.0
C302 C 0.1991 0.05563 0.1761 0.0
C303 C 0.2397 0.01842 0.13137 0.0
C304 C 0.24655 0.00808 0.18375 0.0
C305 C 0.25118 0.01907 0.07886 0.0
C306 C 0.24476 0.02981 0.02219 0.0
C307 C 0.23929 0.05216 0.02198 0.0
C308 C 0.23311 0.0621 0.9684 0.0
C309 C 0.23248 0.04989 0.91463 0.0
C310 C 0.23807 0.02773 0.9143 0.0
C311 C 0.24424 0.01771 0.96778 0.0
H312 H 0.22769 0.05761 0.87319 0.0
H313 H 0.28536 0.95438 0.38562 0.0
H314 H 0.1736 0.49868 0.37984 0.0
H315 H 0.20428 0.51718 0.38416 0.0
H316 H 0.23207 0.45402 0.36928 0.0
H317 H 0.2016 0.43545 0.36671 0.0
H318 H 0.24942 0.47948 0.45154 0.0
H319 H 0.22755 0.48855 0.24633 0.0
H320 H 0.2051 0.49993 0.16728 0.0
H321 H 0.2083 0.5672 0.22915 0.0
H322 H 0.2306 0.55615 0.30913 0.0
H323 H 0.34104 0.51602 0.36222 0.0
H324 H 0.31007 0.49834 0.36918 0.0
H325 H 0.28367 0.56252 0.37551 0.0
H326 H 0.31445 0.58021 0.3683 0.0
H327 H 0.26526 0.53719 0.29994 0.0
H328 H 0.28766 0.52888 0.50307 0.0
H329 H 0.30992 0.51794 0.58313 0.0
H330 H 0.30557 0.45006 0.52739 0.0
H331 H 0.28347 0.46064 0.44643 0.0
C332 C 0.18624 0.48872 0.37803 0.0
C333 C 0.18506 0.46558 0.37208 0.0
C334 C 0.2038 0.49933 0.38006 0.0
C335 C 0.22056 0.48705 0.37617 0.0
C336 C 0.2194 0.46392 0.37204 0.0
C337 C 0.2019 0.45333 0.36991 0.0
C338 C 0.23934 0.49817 0.37518 0.0
C339 C 0.25295 0.49194 0.41798 0.0
C340 C 0.24389 0.5148 0.33234 0.0
C341 C 0.23058 0.52148 0.28408 0.0
C342 C 0.22336 0.50574 0.24335 0.0
C343 C 0.21068 0.51213 0.19833 0.0
C344 C 0.20524 0.53426 0.1933 0.0
C345 C 0.21251 0.55006 0.23317 0.0
C346 C 0.22517 0.54374 0.27831 0.0
C347 C 0.32865 0.52636 0.36565 0.0
C348 C 0.33028 0.54955 0.3642 0.0
C349 C 0.31091 0.51622 0.36969 0.0
C350 C 0.29443 0.52906 0.37324 0.0
C351 C 0.29609 0.5522 0.37245 0.0
C352 C 0.31375 0.56231 0.36811 0.0
C353 C 0.27542 0.5185 0.37627 0.0
C354 C 0.26176 0.52481 0.33373 0.0
C355 C 0.27081 0.50202 0.41954 0.0
C356 C 0.28405 0.49559 0.4683 0.0
C357 C 0.29156 0.51164 0.50758 0.0
C358 C 0.30413 0.5055 0.55318 0.0
C359 C 0.30919 0.48333 0.56024 0.0
C360 C 0.30165 0.46723 0.52181 0.0
C361 C 0.28909 0.47329 0.4761 0.0
H362 H 0.31893 0.4786 0.59556 0.0
H363 H 0.19542 0.53918 0.15842 0.0
H364 H 0.69481 0.0665 0.94877 0.0
H365 H 0.72649 0.05023 0.95069 0.0
H366 H 0.71178 0.00775 0.80115 0.0
H367 H 0.68028 0.0244 0.79792 0.0
H368 H 0.73178 0.98735 0.9115 0.0
H369 H 0.73535 0.04678 0.76211 0.0
H370 H 0.73164 0.08559 0.73001 0.0
H371 H 0.76961 0.10651 0.86982 0.0
H372 H 0.77331 0.06781 0.90336 0.0
H373 H 0.81662 0.94249 0.81056 0.0
H374 H 0.78622 0.96004 0.81996 0.0
H375 H 0.81189 0.01633 0.90699 0.0
H376 H 0.84292 0.99967 0.89257 0.0
H377 H 0.78635 0.03117 0.83838 0.0
H378 H 0.78549 0.97445 0.98634 0.0
H379 H 0.7892 0.93703 0.02901 0.0
H380 H 0.74658 0.91242 0.90906 0.0
H381 H 0.74279 0.94965 0.86504 0.0
C382 C 0.6983 0.05353 0.91674 0.0
C383 C 0.68508 0.04666 0.87327 0.0
C384 C 0.7164 0.04433 0.91772 0.0
C385 C 0.72149 0.02781 0.87601 0.0
C386 C 0.70813 0.02046 0.83376 0.0
C387 C 0.69018 0.03 0.83188 0.0
C388 C 0.74088 0.01857 0.87526 0.0
C389 C 0.74372 0.99679 0.89497 0.0
C390 C 0.75654 0.03124 0.85617 0.0
C391 C 0.75443 0.05445 0.83568 0.0
C392 C 0.74276 0.05968 0.78639 0.0
C393 C 0.74069 0.08165 0.76785 0.0
C394 C 0.75033 0.09852 0.79798 0.0
C395 C 0.76212 0.09343 0.8466 0.0
C396 C 0.76422 0.07149 0.86536 0.0
C397 C 0.81609 0.95883 0.83048 0.0
C398 C 0.83258 0.96962 0.85013 0.0
C399 C 0.79843 0.96871 0.8371 0.0
C400 C 0.79649 0.98937 0.86559 0.0
C401 C 0.81287 1.00031 0.8852 0.0
C402 C 0.83067 0.9906 0.87745 0.0
C403 C 0.77742 0.99955 0.87356 0.0
C404 C 0.77456 0.0216 0.85537 0.0
C405 C 0.76179 0.98727 0.89564 0.0
C406 C 0.76397 0.96483 0.92204 0.0
C407 C 0.777 0.96103 0.96876 0.0
C408 C 0.77911 0.93985 0.99323 0.0
C409 C 0.76816 0.92235 0.97167 0.0
C410 C 0.75506 0.92599 0.92568 0.0
C411 C 0.75291 0.94714 0.901 0.0
H412 H 0.76982 0.90596 0.99068 0.0
H413 H 0.74871 0.11552 0.78356 0.0
H414 H 0.83439 0.52453 0.70711 0.0
H415 H 0.80316 0.5075 0.70007 0.0
H416 H 0.79206 0.54477 0.53748 0.0
H417 H 0.82336 0.56173 0.54403 0.0
H418 H 0.76255 0.54653 0.62538 0.0
H419 H 0.80023 0.49243 0.52203 0.0
H420 H 0.8269 0.46676 0.50994 0.0
H421 H 0.80868 0.43042 0.66674 0.0
H422 H 0.78204 0.45608 0.68031 0.0
H423 H 0.6758 0.4915 0.56501 0.0
H424 H 0.70712 0.50782 0.55585 0.0
H425 H 0.72793 0.46249 0.69084 0.0
H426 H 0.69721 0.44506 0.69686 0.0
H427 H 0.75283 0.4655 0.60884 0.0
H428 H 0.71709 0.51987 0.71896 0.0
H429 H 0.69089 0.54579 0.73707 0.0
H430 H 0.70571 0.58179 0.57604 0.0
H431 H 0.73187 0.55591 0.55656 0.0
C432 C 0.82533 0.529 0.66967 0.0
C433 C 0.83139 0.54442 0.626 0.0
C434 C 0.80751 0.51921 0.66559 0.0
C435 C 0.79527 0.52481 0.61815 0.0
C436 C 0.80127 0.54018 0.57442 0.0
C437 C 0.81921 0.54972 0.57796 0.0
C438 C 0.77608 0.51493 0.61512 0.0
C439 C 0.76038 0.52884 0.6208 0.0
C440 C 0.77326 0.49181 0.61068 0.0
C441 C 0.78923 0.47631 0.6025 0.0
C442 C 0.802 0.47908 0.55425 0.0
C443 C 0.8171 0.46451 0.54706 0.0
C444 C 0.81951 0.447 0.58763 0.0
C445 C 0.80681 0.444 0.63539 0.0
C446 C 0.79169 0.45854 0.64281 0.0
C447 C 0.68705 0.4848 0.59233 0.0
C448 C 0.68369 0.46701 0.63225 0.0
C449 C 0.70498 0.49439 0.58761 0.0
C450 C 0.71997 0.48674 0.62347 0.0
C451 C 0.71669 0.46887 0.66279 0.0
C452 C 0.6989 0.45909 0.66687 0.0
C453 C 0.73911 0.49705 0.62013 0.0
C454 C 0.75488 0.48321 0.61317 0.0
C455 C 0.74199 0.52023 0.62432 0.0
C456 C 0.72629 0.53581 0.63595 0.0
C457 C 0.71467 0.53322 0.68717 0.0
C458 C 0.69984 0.54792 0.69772 0.0
C459 C 0.6966 0.56538 0.65763 0.0
C460 C 0.70821 0.56823 0.60699 0.0
C461 C 0.72305 0.55356 0.59619 0.0
H462 H 0.68512 0.57675 0.66588 0.0
H463 H 0.83121 0.43573 0.58199 0.0
H464 H 0.9548 0.93438 0.93592 0.0
H465 H 0.98103 0.95474 0.98166 0.0
H466 H 0.95963 0.01564 0.90695 0.0
H467 H 0.93391 0.99537 0.85979 0.0
H468 H 0.9953 0.01544 0.89094 0.0
H469 H 0.95587 1.00125 0.06245 0.0
H470 H 0.93704 0.97836 0.13252 0.0
H471 H 0.98636 0.9416 0.18121 0.0
H472 H 1.00545 0.96405 0.1107 0.0
H473 H 0.05778 0.08462 0.06567 0.0
H474 H 0.02873 0.06747 0.02709 0.0
H475 H 0.05004 1.00301 0.07424 0.0
H476 H 0.07875 0.01977 0.11237 0.0
H477 H 0.0132 1.0072 0.10686 0.0
H478 H 0.05196 0.02156 0.93006 0.0
H479 H 0.07008 0.04543 0.86044 0.0
H480 H 0.02054 0.08367 0.82385 0.0
H481 H 1.00219 0.06025 0.89409 0.0
C482 C 0.95564 0.95212 0.92956 0.0
C483 C 0.94222 0.96318 0.89405 0.0
C484 C 0.97063 0.96381 0.95597 0.0
C485 C 0.97234 0.9869 0.94844 0.0
C486 C 0.9588 0.9979 0.91346 0.0
C487 C 0.94399 0.98623 0.88659 0.0
C488 C 0.98835 0.99961 0.97574 0.0
C489 C 0.99897 0.01385 0.93844 0.0
C490 C 0.99344 0.99753 0.0376 0.0
C491 C 0.98206 0.98422 0.08084 0.0
C492 C 0.96268 0.9882 0.08783 0.0
C493 C 0.95196 0.97531 0.12765 0.0
C494 C 0.96048 0.9585 0.16118 0.0
C495 C 0.97977 0.95461 0.15514 0.0
C496 C 0.99056 0.96743 0.11529 0.0
C497 C 0.05621 0.06682 0.06799 0.0
C498 C 0.0707 0.05363 0.09188 0.0
C499 C 0.03962 0.05701 0.0458 0.0
C500 C 0.03718 0.03386 0.04748 0.0
C501 C 0.05149 0.02084 0.07248 0.0
C502 C 0.06802 0.03054 0.09399 0.0
C503 C 0.0201 0.02285 0.02195 0.0
C504 C 0.00934 0.0089 0.05954 0.0
C505 C 0.01475 0.02538 0.96056 0.0
C506 C 0.02575 0.0393 0.91785 0.0
C507 C 0.04496 0.03516 0.90754 0.0
C508 C 0.05527 0.0486 0.86793 0.0
C509 C 0.04648 0.06608 0.83787 0.0
C510 C 0.02735 0.07014 0.84726 0.0
C511 C 0.01698 0.05679 0.88695 0.0
H512 H 0.05446 0.07645 0.80715 0.0
H513 H 0.95215 0.94851 0.19191 0.0
H514 H 0.42818 0.99594 0.09359 0.0
H515 H 0.45581 0.01479 0.05202 0.0
H516 H 0.48779 0.9545 0.06658 0.0
H517 H 0.45989 0.93529 0.10712 0.0
H518 H 0.50534 0.99414 0.11892 0.0
H519 H 0.47713 0.96905 0.93394 0.0
H520 H 0.45134 0.96415 0.8607 0.0
H521 H 0.44634 0.03461 0.84245 0.0
H522 H 0.4719 0.03996 0.91643 0.0
H523 H 0.58678 0.02347 0.95525 0.0
H524 H 0.55812 1.00624 0.99273 0.0
H525 H 0.52693 0.06546 0.95158 0.0
H526 H 0.55591 0.08303 0.91325 0.0
H527 H 0.5083 0.02758 0.91364 0.0
H528 H 0.53646 0.0533 0.09555 0.0
H529 H 0.56179 0.05912 0.16996 0.0
H530 H 0.5662 0.98896 0.19663 0.0
H531 H 0.54112 0.98268 0.12151 0.0
C532 C 0.44103 0.98658 0.08735 0.0
C533 C 0.44183 0.96409 0.10363 0.0
C534 C 0.45682 0.99741 0.06352 0.0
C535 C 0.47391 0.98611 0.05624 0.0
C536 C 0.47475 0.96356 0.07185 0.0
C537 C 0.45879 0.95256 0.09461 0.0
C538 C 0.49093 0.99816 0.03405 0.0
C539 C 0.50612 1.00115 0.07372 0.0
C540 C 0.49166 0.00806 0.97587 0.0
C541 C 0.4763 1.00491 0.93127 0.0
C542 C 0.47041 0.98351 0.9148 0.0
C543 C 0.45585 0.98065 0.87304 0.0
C544 C 0.44717 0.99906 0.84706 0.0
C545 C 0.45306 0.02037 0.86269 0.0
C546 C 0.46759 0.02333 0.90451 0.0
C547 C 0.57389 0.033 0.95424 0.0
C548 C 0.57373 0.05472 0.93109 0.0
C549 C 0.55746 0.02307 0.97602 0.0
C550 C 0.54031 0.03452 0.9755 0.0
C551 C 0.53999 0.05626 0.95254 0.0
C552 C 0.55658 0.06634 0.93098 0.0
C553 C 0.52286 0.0234 0.99831 0.0
C554 C 0.50754 0.02061 0.95889 0.0
C555 C 0.52194 0.01384 0.05698 0.0
C556 C 0.53701 0.01751 0.10242 0.0
C557 C 0.54294 0.03909 0.11687 0.0
C558 C 0.55724 0.04248 0.15925 0.0
C559 C 0.56562 0.02442 0.18793 0.0
C560 C 0.5597 1.00294 0.17433 0.0
C561 C 0.54544 0.99945 0.13187 0.0
H562 H 0.57668 0.02708 0.22078 0.0
H563 H 0.43591 0.9968 0.81471 0.0
H564 H 0.05848 0.4317 0.44174 0.0
H565 H 0.03124 0.45262 0.48002 0.0
H566 H 0.05915 0.51383 0.43539 0.0
H567 H 0.08611 0.49311 0.39601 0.0
H568 H 0.04014 0.51394 0.55219 0.0
H569 H 0.02882 0.49752 0.34159 0.0
H570 H 0.02615 0.47295 0.25277 0.0
H571 H 0.98197 0.43664 0.34115 0.0
H572 H 0.9846 0.4608 0.43099 0.0
H573 H 0.95858 0.58404 0.57519 0.0
H574 H 0.98765 0.56625 0.53892 0.0
H575 H 0.95961 0.50295 0.53928 0.0
H576 H 0.93081 0.52043 0.57356 0.0
H577 H 0.97977 0.50534 0.44257 0.0
H578 H 0.99095 0.51987 0.65353 0.0
H579 H 0.99368 0.54284 0.74553 0.0
H580 H 0.03766 0.58083 0.66158 0.0
H581 H 0.035 0.55826 0.56869 0.0
C582 C 0.05889 0.44961 0.44083 0.0
C583 C 0.07442 0.46072 0.41555 0.0
C584 C 0.04331 0.46156 0.46252 0.0
C585 C 0.04311 0.48484 0.46035 0.0
C586 C 0.05896 0.49593 0.43763 0.0
C587 C 0.07434 0.48402 0.4149 0.0
C588 C 0.02602 0.49762 0.47848 0.0
C589 C 0.02697 0.51226 0.52789 0.0
C590 C 0.00877 0.49525 0.44737 0.0
C591 C 0.00705 0.48081 0.39326 0.0
C592 C 0.01865 0.48417 0.34231 0.0
C593 C 0.01713 0.47034 0.29174 0.0
C594 C 1.00393 0.4532 0.29138 0.0
C595 C 0.9922 0.4499 0.34154 0.0
C596 C 0.9937 0.46366 0.39228 0.0
C597 C 0.95862 0.56637 0.56712 0.0
C598 C 0.94229 0.55374 0.5777 0.0
C599 C 0.97529 0.55615 0.54675 0.0
C600 C 0.976 0.5331 0.5369 0.0
C601 C 0.95958 0.52069 0.54632 0.0
C602 C 0.94303 0.53081 0.56631 0.0
C603 C 0.99366 0.52155 0.51718 0.0
C604 C 0.99288 0.50713 0.4671 0.0
C605 C 0.01099 0.52397 0.54821 0.0
C606 C 0.01262 0.53756 0.60392 0.0
C607 C 1.00109 0.53324 0.65451 0.0
C608 C 1.00265 0.54617 0.70684 0.0
C609 C 0.01579 0.56333 0.70933 0.0
C610 C 0.02745 0.56757 0.65953 0.0
C611 C 0.02593 0.55471 0.60703 0.0
H612 H 0.01698 0.57331 0.7499 0.0
H613 H 1.00276 0.44252 0.25218 0.0
H614 H 0.45283 0.58024 0.44935 0.0
H615 H 0.47947 0.55965 0.49203 0.0
H616 H 0.46219 0.50132 0.39432 0.0
H617 H 0.4357 0.52162 0.35185 0.0
H618 H 0.47313 0.49084 0.50913 0.0
H619 H 0.49773 0.53299 0.34133 0.0
H620 H 0.50377 0.56701 0.28272 0.0
H621 H 0.53402 0.59459 0.4331 0.0
H622 H 0.52792 0.56083 0.49294 0.0
H623 H 0.55979 0.43008 0.54285 0.0
H624 H 0.53134 0.44817 0.50329 0.0
H625 H 0.5501 0.51047 0.57721 0.0
H626 H 0.57844 0.49288 0.61438 0.0
H627 H 0.5379 0.51813 0.47163 0.0
H628 H 0.51317 0.47706 0.64111 0.0
H629 H 0.50681 0.44369 0.70215 0.0
H630 H 0.47673 0.41483 0.55322 0.0
H631 H 0.48312 0.44793 0.49102 0.0
C632 C 0.45464 0.563 0.43728 0.0
C633 C 0.44215 0.55269 0.39674 0.0
C634 C 0.46992 0.55124 0.46156 0.0
C635 C 0.47301 0.52892 0.44599 0.0
C636 C 0.46019 0.51847 0.4071 0.0
C637 C 0.44505 0.5302 0.38258 0.0
C638 C 0.48986 0.51657 0.46831 0.0
C639 C 0.48731 0.4967 0.50048 0.0
C640 C 0.5084 0.52426 0.45788 0.0
C641 C 0.51221 0.54448 0.4218 0.0
C642 C 0.50555 0.54638 0.36205 0.0
C643 C 0.509 0.5656 0.32859 0.0
C644 C 0.51923 0.58298 0.35423 0.0
C645 C 0.52608 0.58113 0.41333 0.0
C646 C 0.52264 0.56195 0.44702 0.0
C647 C 0.55775 0.4476 0.55072 0.0
C648 C 0.57149 0.45997 0.58161 0.0
C649 C 0.54144 0.45796 0.52831 0.0
C650 C 0.53836 0.4808 0.53742 0.0
C651 C 0.55204 0.49295 0.56891 0.0
C652 C 0.56832 0.48276 0.59038 0.0
C653 C 0.52128 0.49248 0.51362 0.0
C654 C 0.52376 0.51222 0.48069 0.0
C655 C 0.5027 0.48474 0.52388 0.0
C656 C 0.4988 0.46486 0.56122 0.0
C657 C 0.50532 0.46353 0.62124 0.0
C658 C 0.50169 0.44467 0.65607 0.0
C659 C 0.49142 0.42712 0.63152 0.0
C660 C 0.48471 0.42842 0.57214 0.0
C661 C 0.48832 0.44723 0.5371 0.0
H662 H 0.48863 0.41254 0.65855 0.0
H663 H 0.52189 0.59785 0.32826 0.0
H664 H 0.13119 0.14813 0.89728 0.0
H665 H 0.12586 0.14559 0.78833 0.0
H666 H 0.08877 0.09006 0.81691 0.0
H667 H 0.09455 0.09201 0.92594 0.0
H668 H 0.11245 0.08105 0.72923 0.0
H669 H 0.07264 0.14241 0.77488 0.0
H670 H 0.06397 0.17894 0.81608 0.0
H671 H 0.10464 0.21011 0.69981 0.0
H672 H 0.11378 0.17373 0.65856 0.0
H673 H 0.07798 0.07383 0.4317 0.0
H674 H 0.07938 0.08133 0.54009 0.0
H675 H 0.12115 0.13178 0.5086 0.0
H676 H 0.12005 0.12412 0.3994 0.0
H677 H 0.0947 0.14395 0.5968 0.0
H678 H 0.13503 0.0821 0.55439 0.0
H679 H 0.14301 0.04551 0.51216 0.0
H680 H 0.10035 0.0153 0.6228 0.0
H681 H 0.09192 0.05179 0.66506 0.0
C682 C 0.12188 0.13536 0.88057 0.0
C683 C 0.11341 0.12021 0.92077 0.0
C684 C 0.11866 0.13409 0.81808 0.0
C685 C 0.10675 0.11777 0.7941 0.0
C686 C 0.09796 0.10288 0.83417 0.0
C687 C 0.10118 0.10412 0.89675 0.0
C688 C 0.10438 0.11539 0.72713 0.0
C689 C 0.10825 0.09476 0.70058 0.0
C690 C 0.09942 0.13338 0.6891 0.0
C691 C 0.09405 0.15529 0.71414 0.0
C692 C 0.07988 0.15702 0.75853 0.0
C693 C 0.07485 0.17771 0.78181 0.0
C694 C 0.08379 0.19682 0.76073 0.0
C695 C 0.09775 0.19529 0.7162 0.0
C696 C 0.10286 0.17463 0.69284 0.0
C697 C 0.08755 0.08648 0.44754 0.0
C698 C 0.09918 0.09804 0.40658 0.0
C699 C 0.08826 0.09082 0.5097 0.0
C700 C 0.10063 0.10682 0.53271 0.0
C701 C 0.11156 0.11926 0.4919 0.0
C702 C 0.11089 0.11489 0.4294 0.0
C703 C 0.10268 0.10965 0.59948 0.0
C704 C 0.09883 0.13031 0.62579 0.0
C705 C 0.1076 0.0917 0.63748 0.0
C706 C 0.11273 0.06971 0.61244 0.0
C707 C 0.12725 0.06768 0.56937 0.0
C708 C 0.13187 0.04695 0.54548 0.0
C709 C 0.12216 0.0281 0.56467 0.0
C710 C 0.10784 0.02993 0.60792 0.0
C711 C 0.10315 0.05063 0.63188 0.0
H712 H 0.12576 0.01206 0.54612 0.0
H713 H 0.07987 0.21283 0.77877 0.0
H714 H 0.42295 0.95357 0.44302 0.0
H715 H 0.4191 0.94758 0.55182 0.0
H716 H 0.39141 0.8854 0.51635 0.0
H717 H 0.39508 0.89151 0.40697 0.0
H718 H 0.374 0.90691 0.60612 0.0
H719 H 0.43798 0.88783 0.56162 0.0
H720 H 0.46985 0.89359 0.52016 0.0
H721 H 0.47736 0.94981 0.63674 0.0
H722 H 0.44542 0.94458 0.6783 0.0
H723 H 0.38153 0.86781 0.90938 0.0
H724 H 0.38463 0.87181 0.79949 0.0
H725 H 0.41274 0.93441 0.82444 0.0
H726 H 0.40973 0.93047 0.93427 0.0
H727 H 0.43001 0.91106 0.73927 0.0
H728 H 0.36581 0.93088 0.78155 0.0
H729 H 0.33389 0.92536 0.8229 0.0
H730 H 0.32682 0.86788 0.71075 0.0
H731 H 0.35882 0.87288 0.66933 0.0
C732 C 0.41608 0.9386 0.45837 0.0
C733 C 0.40947 0.92294 0.41631 0.0
C734 C 0.4139 0.93516 0.52064 0.0
C735 C 0.40531 0.91581 0.54254 0.0
C736 C 0.39816 0.90042 0.50065 0.0
C737 C 0.40021 0.90396 0.43811 0.0
C738 C 0.404 0.91164 0.60909 0.0
C739 C 0.38629 0.90748 0.63508 0.0
C740 C 0.41996 0.91282 0.6473 0.0
C741 C 0.43923 0.91592 0.62268 0.0
C742 C 0.44637 0.90151 0.57811 0.0
C743 C 0.46446 0.90467 0.55464 0.0
C744 C 0.47561 0.92209 0.5757 0.0
C745 C 0.4687 0.93634 0.62041 0.0
C746 C 0.45062 0.93327 0.64399 0.0
C747 C 0.3883 0.88247 0.89151 0.0
C748 C 0.39531 0.89884 0.93085 0.0
C749 C 0.39006 0.88475 0.82858 0.0
C750 C 0.39866 0.90358 0.80343 0.0
C751 C 0.40603 0.91973 0.84261 0.0
C752 C 0.40436 0.9174 0.90556 0.0
C753 C 0.39999 0.90651 0.7364 0.0
C754 C 0.41772 0.91042 0.7103 0.0
C755 C 0.38405 0.9051 0.69815 0.0
C756 C 0.36478 0.90213 0.72281 0.0
C757 C 0.3575 0.91696 0.76605 0.0
C758 C 0.33939 0.91395 0.78944 0.0
C759 C 0.32835 0.89625 0.76959 0.0
C760 C 0.33539 0.88156 0.72616 0.0
C761 C 0.35351 0.88449 0.70267 0.0
H762 H 0.31433 0.89394 0.78775 0.0
H763 H 0.48961 0.92451 0.55746 0.0
H764 H 0.1395 0.36972 0.62995 0.0
H765 H 0.13566 0.37337 0.73943 0.0
H766 H 0.0999 0.43014 0.71302 0.0
H767 H 0.1042 0.42702 0.60322 0.0
H768 H 0.12517 0.43789 0.8003 0.0
H769 H 0.08163 0.38002 0.75383 0.0
H770 H 0.07103 0.34454 0.71056 0.0
H771 H 0.11054 0.30962 0.8219 0.0
H772 H 0.12158 0.34494 0.86523 0.0
H773 H 0.08551 0.44161 0.09729 0.0
H774 H 0.09048 0.43812 0.98776 0.0
H775 H 0.13069 0.38598 0.01857 0.0
H776 H 0.12575 0.38947 0.12842 0.0
H777 H 0.10359 0.37573 0.92993 0.0
H778 H 0.14671 0.4341 0.97702 0.0
H779 H 0.1566 0.46976 0.02093 0.0
H780 H 0.11685 0.50391 0.90868 0.0
H781 H 0.10652 0.46839 0.86471 0.0
C782 C 0.13088 0.38306 0.6473 0.0
C783 C 0.12219 0.39811 0.60762 0.0
C784 C 0.12855 0.38499 0.71 0.0
C785 C 0.11735 0.4019 0.73452 0.0
C786 C 0.10857 0.41691 0.69512 0.0
C787 C 0.1109 0.41499 0.6323 0.0
C788 C 0.1152 0.40422 0.80129 0.0
C789 C 0.12019 0.42439 0.8285 0.0
C790 C 0.10915 0.38643 0.83836 0.0
C791 C 0.10258 0.36516 0.8123 0.0
C792 C 0.08818 0.3648 0.76869 0.0
C793 C 0.08207 0.34471 0.74423 0.0
C794 C 0.09014 0.32484 0.76334 0.0
C795 C 0.10432 0.32502 0.80707 0.0
C796 C 0.1105 0.34507 0.83162 0.0
C797 C 0.09546 0.42948 0.08063 0.0
C798 C 0.10528 0.41586 0.12126 0.0
C799 C 0.09835 0.42757 0.01817 0.0
C800 C 0.11102 0.41187 0.99511 0.0
C801 C 0.12089 0.39825 0.03553 0.0
C802 C 0.11818 0.40036 0.09817 0.0
C803 C 0.11352 0.40937 0.92866 0.0
C804 C 0.10859 0.38918 0.90159 0.0
C805 C 0.11952 0.42716 0.8917 0.0
C806 C 0.12571 0.44855 0.91802 0.0
C807 C 0.13995 0.44919 0.96209 0.0
C808 C 0.14566 0.46938 0.98691 0.0
C809 C 0.13732 0.48908 0.96773 0.0
C810 C 0.12328 0.48863 0.92356 0.0
C811 C 0.1175 0.46847 0.89864 0.0
H812 H 0.14177 0.5047 0.98698 0.0
H813 H 0.08538 0.30931 0.74437 0.0
H814 H 0.43399 0.57438 0.07939 0.0
H815 H 0.42847 0.57675 0.97051 0.0
H816 H 0.37661 0.61168 1.00354 0.0
H817 H 0.3822 0.60976 0.11298 0.0
H818 H 0.37392 0.57988 0.90986 0.0
H819 H 0.41356 0.64075 0.96644 0.0
H820 H 0.44099 0.65833 0.01479 0.0
H821 H 0.47815 0.62055 0.90115 0.0
H822 H 0.45092 0.60248 0.85274 0.0
H823 H 0.36414 0.62529 0.61378 0.0
H824 H 0.36681 0.6196 0.72291 0.0
H825 H 0.42165 0.59058 0.69731 0.0
H826 H 0.41937 0.59692 0.58818 0.0
H827 H 0.42218 0.61947 0.78822 0.0
H828 H 0.38282 0.55873 0.7306 0.0
H829 H 0.35556 0.54063 0.6827 0.0
H830 H 0.31806 0.57744 0.79754 0.0
H831 H 0.3451 0.59601 0.84557 0.0
C832 C 0.4214 0.5826 0.0637 0.0
C833 C 0.4087 0.59216 0.10516 0.0
C834 C 0.41823 0.58385 1.00136 0.0
C835 C 0.40227 0.59467 0.97888 0.0
C836 C 0.38904 0.60328 0.01997 0.0
C837 C 0.39224 0.60211 0.08258 0.0
C838 C 0.40001 0.59791 0.91251 0.0
C839 C 0.38432 0.58878 0.88327 0.0
C840 C 0.4138 0.60913 0.87773 0.0
C841 C 0.4302 0.62011 0.90637 0.0
C842 C 0.42758 0.63606 0.95208 0.0
C843 C 0.44309 0.64613 0.97945 0.0
C844 C 0.4613 0.64052 0.96115 0.0
C845 C 0.46403 0.62486 0.91533 0.0
C846 C 0.44857 0.61471 0.88788 0.0
C847 C 0.37683 0.61781 0.63122 0.0
C848 C 0.39156 0.61162 0.59189 0.0
C849 C 0.37825 0.61434 0.69373 0.0
C850 C 0.39435 0.60443 0.71841 0.0
C851 C 0.40905 0.59818 0.67935 0.0
C852 C 0.40766 0.60166 0.61679 0.0
C853 C 0.39613 0.60129 0.7851 0.0
C854 C 0.41175 0.61052 0.81457 0.0
C855 C 0.38228 0.59012 0.81993 0.0
C856 C 0.36599 0.57893 0.79126 0.0
C857 C 0.36876 0.56311 0.7453 0.0
C858 C 0.35335 0.55273 0.71819 0.0
C859 C 0.33509 0.55792 0.73694 0.0
C860 C 0.33221 0.57346 0.78299 0.0
C861 C 0.34758 0.5839 0.81021 0.0
H862 H 0.32318 0.54987 0.71589 0.0
H863 H 0.47329 0.64833 0.98239 0.0
H864 H 0.86463 0.90727 0.10315 0.0
H865 H 0.86987 0.90973 0.21227 0.0
H866 H 0.92927 0.89947 0.1843 0.0
H867 H 0.92407 0.89666 0.07461 0.0
H868 H 0.91426 0.87373 0.27883 0.0
H869 H 0.91469 0.94956 0.21583 0.0
H870 H 0.90247 0.98273 0.16426 0.0
H871 H 0.85289 0.98093 0.27573 0.0
H872 H 0.86467 0.94753 0.32738 0.0
H873 H 0.94384 0.90571 0.57316 0.0
H874 H 0.93918 0.90238 0.46409 0.0
H875 H 0.88028 0.91731 0.48704 0.0
H876 H 0.88499 0.92127 0.59661 0.0
H877 H 0.89545 0.94066 0.39439 0.0
H878 H 0.8947 0.86488 0.45709 0.0
H879 H 0.90646 0.83139 0.50819 0.0
H880 H 0.95621 0.83268 0.39737 0.0
H881 H 0.94486 0.86639 0.34617 0.0
C882 C 0.8788 0.90533 0.1201 0.0
C883 C 0.89393 0.90168 0.08006 0.0
C884 C 0.88179 0.90693 0.18252 0.0
C885 C 0.89997 0.9049 0.20641 0.0
C886 C 0.91512 0.90109 0.16678 0.0
C887 C 0.91215 0.89965 0.10412 0.0
C888 C 0.90302 0.9067 0.27285 0.0
C889 C 0.91043 0.88847 0.30405 0.0
C890 C 0.89756 0.92574 0.30586 0.0
C891 C 0.89049 0.94591 0.27509 0.0
C892 C 0.90112 0.95612 0.22902 0.0
C893 C 0.89429 0.97498 0.19984 0.0
C894 C 0.87691 0.9839 0.21662 0.0
C895 C 0.86634 0.97399 0.26274 0.0
C896 C 0.87309 0.9551 0.29202 0.0
C897 C 0.9299 0.90841 0.55517 0.0
C898 C 0.91479 0.91386 0.59378 0.0
C899 C 0.92722 0.90628 0.49271 0.0
C900 C 0.90935 0.90941 0.46731 0.0
C901 C 0.8942 0.91477 0.50564 0.0
C902 C 0.89686 0.91685 0.56829 0.0
C903 C 0.90664 0.90764 0.40061 0.0
C904 C 0.89931 0.92589 0.36929 0.0
C905 C 0.91215 0.88859 0.36754 0.0
C906 C 0.91901 0.8683 0.3982 0.0
C907 C 0.90822 0.85814 0.44396 0.0
C908 C 0.9148 0.83909 0.47288 0.0
C909 C 0.93209 0.82995 0.45615 0.0
C910 C 0.94282 0.8398 0.41034 0.0
C911 C 0.93632 0.85887 0.38132 0.0
H912 H 0.93716 0.81519 0.47857 0.0
H913 H 0.87165 0.99851 0.19397 0.0
H914 H 0.57935 0.07707 0.58713 0.0
H915 H 0.5811 0.08442 0.47869 0.0
H916 H 0.62479 0.13259 0.50954 0.0
H917 H 0.62326 0.12509 0.61887 0.0
H918 H 0.5992 0.14618 0.42174 0.0
H919 H 0.63638 0.08168 0.46349 0.0
H920 H 0.64258 0.04456 0.50512 0.0
H921 H 0.59878 0.0173 0.39419 0.0
H922 H 0.5921 0.05434 0.35257 0.0
H923 H 0.63506 0.1485 0.12007 0.0
H924 H 0.62996 0.14604 0.22913 0.0
H925 H 0.59072 0.09253 0.20168 0.0
H926 H 0.59639 0.09425 0.09246 0.0
H927 H 0.61386 0.08221 0.28869 0.0
H928 H 0.57676 0.14603 0.245 0.0
H929 H 0.56981 0.18303 0.20382 0.0
H930 H 0.61238 0.21151 0.3174 0.0
H931 H 0.61979 0.17462 0.35865 0.0
C932 C 0.5894 0.08919 0.57111 0.0
C933 C 0.60144 0.10014 0.6119 0.0
C934 C 0.59033 0.09344 0.50893 0.0
C935 C 0.60335 0.10872 0.48569 0.0
C936 C 0.61471 0.12061 0.52638 0.0
C937 C 0.61379 0.11634 0.58893 0.0
C938 C 0.60554 0.1114 0.41883 0.0
C939 C 0.60266 0.13228 0.39263 0.0
C940 C 0.60957 0.09314 0.38061 0.0
C941 C 0.61362 0.07083 0.40538 0.0
C942 C 0.62796 0.0678 0.44834 0.0
C943 C 0.63158 0.04677 0.47188 0.0
C944 C 0.62105 0.02859 0.45244 0.0
C945 C 0.6069 0.0314 0.40929 0.0
C946 C 0.6032 0.05241 0.38568 0.0
C947 C 0.62536 0.13616 0.13699 0.0
C948 C 0.61625 0.1215 0.09698 0.0
C949 C 0.62227 0.13495 0.19961 0.0
C950 C 0.6098 0.11925 0.224 0.0
C951 C 0.60039 0.10486 0.18416 0.0
C952 C 0.60353 0.10599 0.12144 0.0
C953 C 0.60742 0.11701 0.29108 0.0
C954 C 0.61034 0.09617 0.31749 0.0
C955 C 0.60334 0.1353 0.32931 0.0
C956 C 0.59896 0.15751 0.30445 0.0
C957 C 0.58476 0.16015 0.2608 0.0
C958 C 0.58071 0.18111 0.23752 0.0
C959 C 0.59068 0.1996 0.25785 0.0
C960 C 0.60469 0.19717 0.30162 0.0
C961 C 0.60881 0.17623 0.325 0.0
H962 H 0.58752 0.21582 0.23979 0.0
H963 H 0.62387 0.01232 0.4707 0.0
H964 H 0.87902 0.64833 0.38974 0.0
H965 H 0.88306 0.64576 0.2801 0.0
H966 H 0.92229 0.59216 0.30354 0.0
H967 H 0.91805 0.59425 0.41349 0.0
H968 H 0.93397 0.62259 0.21584 0.0
H969 H 0.87817 0.58086 0.26501 0.0
H970 H 0.84679 0.5753 0.31046 0.0
H971 H 0.82453 0.62764 0.20047 0.0
H972 H 0.85586 0.63372 0.15498 0.0
H973 H 0.93429 0.57543 0.92402 0.0
H974 H 0.93175 0.5834 0.03154 0.0
H975 H 0.88737 0.63016 0.9958 0.0
H976 H 0.88917 0.62138 0.88756 0.0
H977 H 0.87814 0.60576 0.08947 0.0
H978 H 0.933 0.64673 0.03599 0.0
H979 H 0.96424 0.6532 0.99055 0.0
H980 H 0.98825 0.60413 0.10773 0.0
H981 H 0.95709 0.59713 0.15333 0.0
C982 C 0.88846 0.6359 0.37187 0.0
C983 C 0.89802 0.62133 0.41097 0.0
C984 C 0.8908 0.63452 0.30897 0.0
C985 C 0.90278 0.61858 0.28345 0.0
C986 C 0.91294 0.60458 0.3222 0.0
C987 C 0.91054 0.60587 0.38524 0.0
C988 C 0.90423 0.61606 0.21636 0.0
C989 C 0.92182 0.61868 0.18822 0.0
C990 C 0.88827 0.61163 0.18004 0.0
C991 C 0.8694 0.6079 0.20707 0.0
C992 C 0.86662 0.5913 0.25087 0.0
C993 C 0.84884 0.58804 0.27658 0.0
C994 C 0.83369 0.60115 0.25848 0.0
C995 C 0.83628 0.61752 0.21451 0.0
C996 C 0.85405 0.62087 0.18873 0.0
C997 C 0.92385 0.5873 0.93858 0.0
C998 C 0.91183 0.59759 0.89646 0.0
C999 C 0.9226 0.5921 1.00045 0.0
C1000 C 0.90955 0.60764 0.02213 0.0
C1001 C 0.89763 0.61816 0.98033 0.0
C1002 C 0.89878 0.61324 0.9182 0.0
C1003 C 0.90796 0.61214 0.08858 0.0
C1004 C 0.89032 0.60986 0.11678 0.0
C1005 C 0.92387 0.61706 0.12486 0.0
C1006 C 0.94266 0.62128 0.09775 0.0
C1007 C 0.94491 0.6372 0.05178 0.0
C1008 C 0.96261 0.64098 0.02604 0.0
C1009 C 0.97821 0.62905 0.04615 0.0
C1010 C 0.97615 0.61335 0.09217 0.0
C1011 C 0.95847 0.60949 0.11804 0.0
H1012 H 0.99191 0.632 0.02615 0.0
H1013 H 0.81993 0.5986 0.27843 0.0
H1014 H 0.63434 0.36494 0.3897 0.0
H1015 H 0.62989 0.36705 0.28021 0.0
H1016 H 0.59175 0.42177 0.30427 0.0
H1017 H 0.59632 0.42 0.41404 0.0
H1018 H 0.57901 0.39231 0.21874 0.0
H1019 H 0.63656 0.43107 0.26184 0.0
H1020 H 0.66837 0.43539 0.30444 0.0
H1021 H 0.68815 0.38139 0.19497 0.0
H1022 H 0.65637 0.37654 0.15234 0.0
H1023 H 0.57945 0.43841 0.92547 0.0
H1024 H 0.58201 0.43058 0.03292 0.0
H1025 H 0.62393 0.38084 0.9955 0.0
H1026 H 0.62221 0.38949 0.88727 0.0
H1027 H 0.63476 0.40512 0.08748 0.0
H1028 H 0.57756 0.36833 0.03782 0.0
H1029 H 0.54571 0.36428 0.99504 0.0
H1030 H 0.52504 0.41422 0.11653 0.0
H1031 H 0.55681 0.41887 0.15926 0.0
C1032 C 0.62505 0.37751 0.37193 0.0
C1033 C 0.61587 0.39246 0.41108 0.0
C1034 C 0.62248 0.37864 0.30914 0.0
C1035 C 0.61069 0.39477 0.2838 0.0
C1036 C 0.60093 0.40919 0.32272 0.0
C1037 C 0.60353 0.40811 0.38565 0.0
C1038 C 0.60899 0.397 0.21672 0.0
C1039 C 0.59115 0.39534 0.19003 0.0
C1040 C 0.62491 0.40034 0.17901 0.0
C1041 C 0.64404 0.40329 0.2044 0.0
C1042 C 0.64766 0.42 0.24722 0.0
C1043 C 0.66569 0.42256 0.27131 0.0
C1044 C 0.68026 0.40863 0.25256 0.0
C1045 C 0.67684 0.39214 0.20953 0.0
C1046 C 0.65882 0.38948 0.18537 0.0
C1047 C 0.58936 0.4259 0.93961 0.0
C1048 C 0.60076 0.41479 0.89701 0.0
C1049 C 0.5906 0.42119 1.00147 0.0
C1050 C 0.60298 0.40489 0.02268 0.0
C1051 C 0.6142 0.39346 0.98039 0.0
C1052 C 0.61309 0.39832 0.91826 0.0
C1053 C 0.60471 0.40057 0.08913 0.0
C1054 C 0.62258 0.40188 0.11587 0.0
C1055 C 0.58879 0.39689 0.12682 0.0
C1056 C 0.56962 0.39404 0.10146 0.0
C1057 C 0.56624 0.37854 0.05514 0.0
C1058 C 0.54821 0.37613 0.03093 0.0
C1059 C 0.53338 0.38899 0.05304 0.0
C1060 C 0.53655 0.40427 0.09944 0.0
C1061 C 0.55456 0.40679 0.12369 0.0
H1062 H 0.51943 0.38709 0.03425 0.0
H1063 H 0.69421 0.41064 0.27125 0.0
H1064 H 0.1214 0.17169 0.26877 0.0
H1065 H 0.1118 0.20841 0.29954 0.0
H1066 H 0.06101 0.20217 0.19459 0.0
H1067 H 0.0708 0.16463 0.16255 0.0
H1068 H 0.07992 0.24317 0.17735 0.0
H1069 H 0.05714 0.20163 0.34463 0.0
H1070 H 0.05827 0.17298 0.42404 0.0
H1071 H 0.10496 0.20601 0.50762 0.0
H1072 H 0.10435 0.23466 0.42813 0.0
H1073 H 0.07085 0.3532 0.30404 0.0
H1074 H 0.06089 0.31484 0.28241 0.0
H1075 H 0.11159 0.29053 0.36594 0.0
H1076 H 0.12151 0.32837 0.38666 0.0
H1077 H 0.08147 0.26446 0.39459 0.0
H1078 H 0.10928 0.29851 0.21481 0.0
H1079 H 0.11057 0.32644 0.13338 0.0
H1080 H 0.05557 0.30697 0.07363 0.0
H1081 H 0.05386 0.27912 0.15537 0.0
C1082 C 0.1081 0.1779 0.25212 0.0
C1083 C 0.09689 0.16513 0.21292 0.0
C1084 C 0.10256 0.19899 0.27026 0.0
C1085 C 0.08557 0.20809 0.25012 0.0
C1086 C 0.07415 0.19545 0.21105 0.0
C1087 C 0.07968 0.17399 0.19302 0.0
C1088 C 0.08065 0.23111 0.26916 0.0
C1089 C 0.07961 0.24777 0.22489 0.0
C1090 C 0.08053 0.23726 0.33125 0.0
C1091 C 0.08071 0.22033 0.38019 0.0
C1092 C 0.06771 0.20276 0.37978 0.0
C1093 C 0.06826 0.1865 0.42482 0.0
C1094 C 0.08169 0.18766 0.47082 0.0
C1095 C 0.09455 0.20514 0.47198 0.0
C1096 C 0.09408 0.22143 0.42698 0.0
C1097 C 0.07954 0.33958 0.31912 0.0
C1098 C 0.09692 0.34372 0.34716 0.0
C1099 C 0.07394 0.31769 0.30635 0.0
C1100 C 0.08556 0.29971 0.32216 0.0
C1101 C 0.10234 0.30399 0.35336 0.0
C1102 C 0.10801 0.32567 0.36515 0.0
C1103 C 0.08144 0.2765 0.3028 0.0
C1104 C 0.08095 0.25981 0.34712 0.0
C1105 C 0.08026 0.27035 0.24087 0.0
C1106 C 0.08133 0.28698 0.19165 0.0
C1107 C 0.0974 0.30032 0.18461 0.0
C1108 C 0.09822 0.31611 0.13837 0.0
C1109 C 0.08313 0.31854 0.09849 0.0
C1110 C 0.06722 0.30512 0.10467 0.0
C1111 C 0.06632 0.28934 0.15094 0.0
H1112 H 0.08379 0.33076 0.06271 0.0
H1113 H 0.08212 0.17503 0.50558 0.0
H1114 H 0.43505 0.84828 0.13796 0.0
H1115 H 0.44366 0.80929 0.15554 0.0
H1116 H 0.4158 0.8113 0.32944 0.0
H1117 H 0.40712 0.84981 0.31187 0.0
H1118 H 0.44854 0.78636 0.33345 0.0
H1119 H 0.39262 0.79322 0.20805 0.0
H1120 H 0.37539 0.8058 0.11752 0.0
H1121 H 0.41394 0.77043 1.00285 0.0
H1122 H 0.43157 0.7579 0.09277 0.0
H1123 H 0.41569 0.67798 0.40123 0.0
H1124 H 0.42291 0.71703 0.38296 0.0
H1125 H 0.44007 0.7012 0.20003 0.0
H1126 H 0.43184 0.66236 0.21781 0.0
H1127 H 0.41807 0.7333 0.19312 0.0
H1128 H 0.47151 0.72155 0.31814 0.0
H1129 H 0.48932 0.70914 0.40762 0.0
H1130 H 0.45746 0.75318 0.52098 0.0
H1131 H 0.43928 0.76565 0.43233 0.0
C1132 C 0.43125 0.84052 0.18053 0.0
C1133 C 0.42038 0.85205 0.22346 0.0
C1134 C 0.43605 0.81821 0.19042 0.0
C1135 C 0.43022 0.80723 0.24368 0.0
C1136 C 0.42048 0.8193 0.2881 0.0
C1137 C 0.41548 0.84134 0.27788 0.0
C1138 C 0.4325 0.78281 0.2515 0.0
C1139 C 0.44191 0.7747 0.30281 0.0
C1140 C 0.42423 0.76751 0.21093 0.0
C1141 C 0.41354 0.77487 0.15701 0.0
C1142 C 0.3975 0.78827 0.16349 0.0
C1143 C 0.38765 0.79537 0.11231 0.0
C1144 C 0.3936 0.78898 0.05445 0.0
C1145 C 0.40938 0.77541 0.04768 0.0
C1146 C 0.4193 0.76831 0.09872 0.0
C1147 C 0.42171 0.68278 0.35799 0.0
C1148 C 0.42367 0.66712 0.31139 0.0
C1149 C 0.42582 0.70517 0.34735 0.0
C1150 C 0.43227 0.71233 0.29008 0.0
C1151 C 0.43514 0.69633 0.24458 0.0
C1152 C 0.43068 0.67404 0.25493 0.0
C1153 C 0.43405 0.73654 0.27571 0.0
C1154 C 0.4252 0.74471 0.22328 0.0
C1155 C 0.44301 0.75183 0.31508 0.0
C1156 C 0.45394 0.74442 0.36858 0.0
C1157 C 0.46821 0.72848 0.36221 0.0
C1158 C 0.47839 0.72145 0.41278 0.0
C1159 C 0.4745 0.73033 0.46996 0.0
C1160 C 0.46045 0.74631 0.47666 0.0
C1161 C 0.45022 0.75338 0.42624 0.0
H1162 H 0.48239 0.72487 0.50906 0.0
H1163 H 0.38596 0.79449 0.01488 0.0
H1164 H 0.89432 0.83113 0.86307 0.0
H1165 H 0.90388 0.79306 0.84356 0.0
H1166 H 0.95414 0.81635 0.75416 0.0
H1167 H 0.94461 0.85496 0.77479 0.0
H1168 H 0.93302 0.78475 0.68536 0.0
H1169 H 0.95988 0.78964 0.88168 0.0
H1170 H 0.96123 0.79923 0.99025 0.0
H1171 H 0.91485 0.75565 0.02663 0.0
H1172 H 0.91301 0.74604 0.91816 0.0
H1173 H 0.94163 0.66582 0.64193 0.0
H1174 H 0.95138 0.70385 0.66881 0.0
H1175 H 0.90496 0.70824 0.79465 0.0
H1176 H 0.89546 0.6709 0.7688 0.0
H1177 H 0.93499 0.72647 0.84339 0.0
H1178 H 0.90339 0.72927 0.64756 0.0
H1179 H 0.89991 0.72074 0.53878 0.0
H1180 H 0.95362 0.75043 0.50195 0.0
H1181 H 0.95753 0.75885 0.61075 0.0
C1182 C 0.90765 0.82817 0.84051 0.0
C1183 C 0.91881 0.84601 0.821 0.0
C1184 C 0.9131 0.80636 0.82932 0.0
C1185 C 0.92978 0.80173 0.79757 0.0
C1186 C 0.94126 0.8195 0.779 0.0
C1187 C 0.93592 0.84152 0.79128 0.0
C1188 C 0.93415 0.77828 0.78125 0.0
C1189 C 0.93402 0.77202 0.71987 0.0
C1190 C 0.93519 0.76158 0.82613 0.0
C1191 C 0.93629 0.76717 0.89162 0.0
C1192 C 0.94989 0.7822 0.91275 0.0
C1193 C 0.95075 0.78763 0.97431 0.0
C1194 C 0.93813 0.77807 0.0153 0.0
C1195 C 0.92463 0.76303 0.99483 0.0
C1196 C 0.9237 0.75756 0.93331 0.0
C1197 C 0.93376 0.67486 0.676 0.0
C1198 C 0.91769 0.66538 0.70285 0.0
C1199 C 0.93924 0.69663 0.69106 0.0
C1200 C 0.92881 0.70911 0.73353 0.0
C1201 C 0.9133 0.69913 0.76191 0.0
C1202 C 0.90781 0.6777 0.74671 0.0
C1203 C 0.93301 0.73286 0.74758 0.0
C1204 C 0.93466 0.73919 0.80871 0.0
C1205 C 0.93319 0.74958 0.70249 0.0
C1206 C 0.93089 0.74436 0.63732 0.0
C1207 C 0.91454 0.73377 0.61633 0.0
C1208 C 0.91247 0.729 0.55468 0.0
C1209 C 0.92657 0.73495 0.51351 0.0
C1210 C 0.94275 0.74575 0.53391 0.0
C1211 C 0.9449 0.75052 0.59556 0.0
H1212 H 0.92494 0.73127 0.46579 0.0
H1213 H 0.93881 0.78229 0.06294 0.0
H1214 H 0.57258 0.15762 0.77157 0.0
H1215 H 0.56269 0.19568 0.74602 0.0
H1216 H 0.60855 0.22157 0.85223 0.0
H1217 H 0.61839 0.18407 0.87695 0.0
H1218 H 0.57684 0.24591 0.86861 0.0
H1219 H 0.61253 0.21423 0.70035 0.0
H1220 H 0.61763 0.18688 0.61888 0.0
H1221 H 0.56524 0.20543 0.53711 0.0
H1222 H 0.5597 0.23266 0.61876 0.0
H1223 H 0.61827 0.34199 0.76587 0.0
H1224 H 0.60874 0.30462 0.79134 0.0
H1225 H 0.56273 0.30892 0.665 0.0
H1226 H 0.57248 0.34705 0.63854 0.0
H1227 H 0.58352 0.26917 0.65392 0.0
H1228 H 0.55267 0.30788 0.81355 0.0
H1229 H 0.54921 0.33513 0.89612 0.0
H1230 H 0.59353 0.30345 0.99516 0.0
H1231 H 0.59748 0.27622 0.9129 0.0
C1232 C 0.58016 0.17152 0.7906 0.0
C1233 C 0.59619 0.16794 0.82645 0.0
C1234 C 0.57464 0.19323 0.77558 0.0
C1235 C 0.58496 0.21158 0.79683 0.0
C1236 C 0.60031 0.20782 0.83529 0.0
C1237 C 0.60594 0.18633 0.84942 0.0
C1238 C 0.58097 0.23475 0.77694 0.0
C1239 C 0.57815 0.25098 0.82161 0.0
C1240 C 0.58214 0.24141 0.7154 0.0
C1241 C 0.58558 0.22525 0.66606 0.0
C1242 C 0.60203 0.21234 0.66526 0.0
C1243 C 0.60501 0.19688 0.61903 0.0
C1244 C 0.59173 0.19436 0.57296 0.0
C1245 C 0.57548 0.20736 0.57292 0.0
C1246 C 0.57242 0.2228 0.61917 0.0
C1247 C 0.60599 0.33519 0.74362 0.0
C1248 C 0.59615 0.34757 0.70003 0.0
C1249 C 0.60048 0.31375 0.75859 0.0
C1250 C 0.5849 0.30388 0.73067 0.0
C1251 C 0.57477 0.3162 0.68744 0.0
C1252 C 0.58024 0.33801 0.67265 0.0
C1253 C 0.58016 0.28041 0.74604 0.0
C1254 C 0.58146 0.26412 0.70066 0.0
C1255 C 0.57772 0.27364 0.80711 0.0
C1256 C 0.57537 0.28999 0.85691 0.0
C1257 C 0.56175 0.30679 0.85277 0.0
C1258 C 0.5597 0.32223 0.89955 0.0
C1259 C 0.57113 0.32099 0.95084 0.0
C1260 C 0.58466 0.30435 0.95544 0.0
C1261 C 0.58679 0.28888 0.9088 0.0
H1262 H 0.56949 0.33287 0.98711 0.0
H1263 H 0.59406 0.18237 0.53722 0.0
loop_
_geom_bond_atom_site_label_1
_geom_bond_atom_site_label_2
_geom_bond_distance
_geom_bond_site_symmetry_2
_ccdc_geom_bond_type
C0 C1 1.351 1_554 S
C0 N3 1.368 . S
C0 H5 0.931 . S
C1 C0 1.351 1_556 S
C1 N2 1.373 . S
C1 H29 0.930 . S
N2 C1 1.373 . S
N2 C4 1.340 . S
N3 C0 1.368 . S
N3 C4 1.321 1_554 S
N3 Co6 2.135 . S
C4 N2 1.340 . S
C4 N3 1.321 1_556 S
C4 H28 0.930 . S
H5 C0 0.931 . S
Co6 N3 2.135 . S
Co6 N9 2.121 . S
Co6 O14 2.055 . S
Co6 O17 2.039 . S
Co6 N20 2.140 . S
C7 O8 1.227 . S
C7 O17 1.265 . S
O8 C7 1.227 . S
N9 Co6 2.121 . S
N9 C11 1.375 . S
N9 C12 1.313 . S
C10 C11 1.338 . S
C10 N13 1.377 . S
C10 H30 0.930 . S
C11 N9 1.375 . S
C11 C10 1.338 . S
C11 H15 0.931 . S
C12 N9 1.313 . S
C12 N13 1.344 . S
C12 H16 0.930 . S
N13 C10 1.377 . S
N13 C12 1.344 . S
O14 Co6 2.055 . S
O14 C18 1.253 . S
H15 C11 0.931 . S
H16 C12 0.930 . S
O17 Co6 2.039 . S
O17 C7 1.265 . S
C18 O14 1.253 . S
C18 O19 1.227 . S
O19 C18 1.227 . S
N20 Co6 2.140 . S
N20 C23 1.346 . S
N20 C24 1.345 . S
C21 C22 1.387 . S
C21 C25 1.391 . S
C22 C21 1.387 . S
C22 C23 1.369 . S
C22 H31 0.929 . S
C23 N20 1.346 . S
C23 C22 1.369 . S
C23 H26 0.928 . S
C24 N20 1.345 . S
C24 C25 1.371 . S
C24 H27 0.931 . S
C25 C21 1.391 . S
C25 C24 1.371 . S
C25 H32 0.930 . S
H26 C23 0.928 . S
H27 C24 0.931 . S
H28 C4 0.930 . S
H29 C1 0.930 . S
H30 C10 0.930 . S
H31 C22 0.929 . S
H32 C25 0.930 . S
C33 C34 1.351 1_554 S
C33 N36 1.368 . S
C33 H38 0.931 . S
C34 C33 1.351 1_556 S
C34 N35 1.373 . S
C34 H62 0.930 . S
N35 C34 1.373 . S
N35 C37 1.340 . S
N36 C33 1.368 . S
N36 C37 1.321 1_554 S
N36 Co39 2.135 . S
C37 N35 1.340 . S
C37 N36 1.321 1_556 S
C37 H61 0.930 . S
H38 C33 0.931 . S
Co39 N36 2.135 . S
Co39 N42 2.121 . S
Co39 O47 2.055 . S
Co39 O50 2.039 . S
Co39 N53 2.140 . S
C40 O41 1.227 . S
C40 O50 1.265 . S
O41 C40 1.227 . S
N42 Co39 2.121 . S
N42 C44 1.375 . S
N42 C45 1.313 . S
C43 C44 1.338 . S
C43 N46 1.377 . S
C43 H63 0.930 . S
C44 N42 1.375 . S
C44 C43 1.338 . S
C44 H48 0.931 . S
C45 N42 1.313 . S
C45 N46 1.344 . S
C45 H49 0.930 . S
N46 C43 1.377 . S
N46 C45 1.344 . S
O47 Co39 2.055 . S
O47 C51 1.253 . S
H48 C44 0.931 . S
H49 C45 0.930 . S
O50 Co39 2.039 . S
O50 C40 1.265 . S
C51 O47 1.253 . S
C51 O52 1.227 . S
O52 C51 1.227 . S
N53 Co39 2.140 . S
N53 C56 1.346 . S
N53 C57 1.345 . S
C54 C55 1.387 . S
C54 C58 1.391 . S
C55 C54 1.387 . S
C55 C56 1.369 . S
C55 H64 0.929 . S
C56 N53 1.346 . S
C56 C55 1.369 . S
C56 H59 0.928 . S
C57 N53 1.345 . S
C57 C58 1.371 . S
C57 H60 0.931 . S
C58 C54 1.391 . S
C58 C57 1.371 . S
C58 H65 0.930 . S
H59 C56 0.928 . S
H60 C57 0.931 . S
H61 C37 0.930 . S
H62 C34 0.930 . S
H63 C43 0.930 . S
H64 C55 0.929 . S
H65 C58 0.930 . S
C66 C67 1.351 . S
C66 N69 1.368 . S
C66 H71 0.931 . S
C67 C66 1.351 . S
C67 N68 1.373 . S
C67 H95 0.930 . S
N68 C67 1.373 . S
N68 C70 1.340 . S
N69 C66 1.368 . S
N69 C70 1.321 . S
N69 Co72 2.135 . S
C70 N68 1.340 . S
C70 N69 1.321 . S
C70 H94 0.930 . S
H71 C66 0.931 . S
Co72 N69 2.135 . S
Co72 N75 2.121 . S
Co72 O80 2.055 . S
Co72 O83 2.039 . S
Co72 N86 2.140 . S
C73 O74 1.227 . S
C73 O83 1.265 . S
O74 C73 1.227 . S
N75 Co72 2.121 . S
N75 C77 1.375 . S
N75 C78 1.313 . S
C76 C77 1.338 . S
C76 N79 1.377 . S
C76 H96 0.930 . S
C77 N75 1.375 . S
C77 C76 1.338 . S
C77 H81 0.931 . S
C78 N75 1.313 . S
C78 N79 1.344 . S
C78 H82 0.930 . S
N79 C76 1.377 . S
N79 C78 1.344 . S
O80 Co72 2.055 . S
O80 C84 1.253 . S
H81 C77 0.931 . S
H82 C78 0.930 . S
O83 Co72 2.039 . S
O83 C73 1.265 . S
C84 O80 1.253 . S
C84 O85 1.227 . S
O85 C84 1.227 . S
N86 Co72 2.140 . S
N86 C89 1.346 . S
N86 C90 1.345 . S
C87 C88 1.387 . S
C87 C91 1.391 . S
C88 C87 1.387 . S
C88 C89 1.369 . S
C88 H97 0.929 . S
C89 N86 1.346 . S
C89 C88 1.369 . S
C89 H92 0.928 . S
C90 N86 1.345 . S
C90 C91 1.371 . S
C90 H93 0.931 . S
C91 C87 1.391 . S
C91 C90 1.371 . S
C91 H98 0.930 . S
H92 C89 0.928 . S
H93 C90 0.931 . S
H94 C70 0.930 . S
H95 C67 0.930 . S
H96 C76 0.930 . S
H97 C88 0.929 . S
H98 C91 0.930 . S
C99 C100 1.351 . S
C99 N102 1.368 . S
C99 H104 0.931 . S
C100 C99 1.351 . S
C100 N101 1.373 . S
C100 H128 0.930 . S
N101 C100 1.373 . S
N101 C103 1.340 . S
N102 C99 1.368 . S
N102 C103 1.321 . S
N102 Co105 2.135 . S
C103 N101 1.340 . S
C103 N102 1.321 . S
C103 H127 0.930 . S
H104 C99 0.931 . S
Co105 N102 2.135 . S
Co105 N108 2.121 . S
Co105 O113 2.055 . S
Co105 O116 2.039 . S
Co105 N119 2.140 . S
C106 O107 1.227 . S
C106 O116 1.265 . S
O107 C106 1.227 . S
N108 Co105 2.121 . S
N108 C110 1.375 . S
N108 C111 1.313 . S
C109 C110 1.338 . S
C109 N112 1.377 . S
C109 H129 0.930 . S
C110 N108 1.375 . S
C110 C109 1.338 . S
C110 H114 0.931 . S
C111 N108 1.313 . S
C111 N112 1.344 . S
C111 H115 0.930 . S
N112 C109 1.377 . S
N112 C111 1.344 . S
O113 Co105 2.055 . S
O113 C117 1.253 . S
H114 C110 0.931 . S
H115 C111 0.930 . S
O116 Co105 2.039 . S
O116 C106 1.265 . S
C117 O113 1.253 . S
C117 O118 1.227 . S
O118 C117 1.227 . S
N119 Co105 2.140 . S
N119 C122 1.346 . S
N119 C123 1.345 . S
C120 C121 1.387 . S
C120 C124 1.391 . S
C121 C120 1.387 . S
C121 C122 1.369 . S
C121 H130 0.929 . S
C122 N119 1.346 . S
C122 C121 1.369 . S
C122 H125 0.928 . S
C123 N119 1.345 . S
C123 C124 1.371 . S
C123 H126 0.931 . S
C124 C120 1.391 . S
C124 C123 1.371 . S
C124 H131 0.930 . S
H125 C122 0.928 . S
H126 C123 0.931 . S
H127 C103 0.930 . S
H128 C100 0.930 . S
H129 C109 0.930 . S
H130 C121 0.929 . S
H131 C124 0.930 . S
C132 C133 1.351 1_556 S
C132 N135 1.368 . S
C132 H137 0.931 . S
C133 C132 1.351 1_554 S
C133 N134 1.373 . S
C133 H161 0.930 . S
N134 C133 1.373 . S
N134 C136 1.340 . S
N135 C132 1.368 . S
N135 C136 1.321 1_556 S
N135 Co138 2.135 . S
C136 N134 1.340 . S
C136 N135 1.321 1_554 S
C136 H160 0.930 . S
H137 C132 0.931 . S
Co138 N135 2.135 . S
Co138 N141 2.121 . S
Co138 O146 2.055 . S
Co138 O149 2.039 . S
Co138 N152 2.140 . S
C139 O140 1.227 . S
C139 O149 1.265 . S
O140 C139 1.227 . S
N141 Co138 2.121 . S
N141 C143 1.375 . S
N141 C144 1.313 . S
C142 C143 1.338 . S
C142 N145 1.377 . S
C142 H162 0.930 . S
C143 N141 1.375 . S
C143 C142 1.338 . S
C143 H147 0.931 . S
C144 N141 1.313 . S
C144 N145 1.344 . S
C144 H148 0.930 . S
N145 C142 1.377 . S
N145 C144 1.344 . S
O146 Co138 2.055 . S
O146 C150 1.253 . S
H147 C143 0.931 . S
H148 C144 0.930 . S
O149 Co138 2.039 . S
O149 C139 1.265 . S
C150 O146 1.253 . S
C150 O151 1.227 . S
O151 C150 1.227 . S
N152 Co138 2.140 . S
N152 C155 1.346 . S
N152 C156 1.345 . S
C153 C154 1.387 . S
C153 C157 1.391 . S
C154 C153 1.387 . S
C154 C155 1.369 . S
C154 H163 0.929 . S
C155 N152 1.346 . S
C155 C154 1.369 . S
C155 H158 0.928 . S
C156 N152 1.345 . S
C156 C157 1.371 . S
C156 H159 0.931 . S
C157 C153 1.391 . S
C157 C156 1.371 . S
C157 H164 0.930 . S
H158 C155 0.928 . S
H159 C156 0.931 . S
H160 C136 0.930 . S
H161 C133 0.930 . S
H162 C142 0.930 . S
H163 C154 0.929 . S
H164 C157 0.930 . S
C165 C166 1.351 1_556 S
C165 N168 1.368 . S
C165 H170 0.931 . S
C166 C165 1.351 1_554 S
C166 N167 1.373 . S
C166 H194 0.930 . S
N167 C166 1.373 . S
N167 C169 1.340 . S
N168 C165 1.368 . S
N168 C169 1.321 1_556 S
N168 Co171 2.135 . S
C169 N167 1.340 . S
C169 N168 1.321 1_554 S
C169 H193 0.930 . S
H170 C165 0.931 . S
Co171 N168 2.135 . S
Co171 N174 2.121 . S
Co171 O179 2.055 . S
Co171 O182 2.039 . S
Co171 N185 2.140 . S
C172 O173 1.227 . S
C172 O182 1.265 . S
O173 C172 1.227 . S
N174 Co171 2.121 . S
N174 C176 1.375 . S
N174 C177 1.313 . S
C175 C176 1.338 . S
C175 N178 1.377 . S
C175 H195 0.930 . S
C176 N174 1.375 . S
C176 C175 1.338 . S
C176 H180 0.931 . S
C177 N174 1.313 . S
C177 N178 1.344 . S
C177 H181 0.930 . S
N178 C175 1.377 . S
N178 C177 1.344 . S
O179 Co171 2.055 . S
O179 C183 1.253 . S
H180 C176 0.931 . S
H181 C177 0.930 . S
O182 Co171 2.039 . S
O182 C172 1.265 . S
C183 O179 1.253 . S
C183 O184 1.227 . S
O184 C183 1.227 . S
N185 Co171 2.140 . S
N185 C188 1.346 . S
N185 C189 1.345 . S
C186 C187 1.387 . S
C186 C190 1.391 . S
C187 C186 1.387 . S
C187 C188 1.369 . S
C187 H196 0.929 . S
C188 N185 1.346 . S
C188 C187 1.369 . S
C188 H191 0.928 . S
C189 N185 1.345 . S
C189 C190 1.371 . S
C189 H192 0.931 . S
C190 C186 1.391 . S
C190 C189 1.371 . S
C190 H197 0.930 . S
H191 C188 0.928 . S
H192 C189 0.931 . S
H193 C169 0.930 . S
H194 C166 0.930 . S
H195 C175 0.930 . S
H196 C187 0.929 . S
H197 C190 0.930 . S
C198 C199 1.351 . S
C198 N201 1.368 . S
C198 H203 0.931 . S
C199 C198 1.351 . S
C199 N200 1.373 . S
C199 H227 0.930 . S
N200 C199 1.373 . S
N200 C202 1.340 . S
N201 C198 1.368 . S
N201 C202 1.321 . S
N201 Co204 2.135 . S
C202 N200 1.340 . S
C202 N201 1.321 . S
C202 H226 0.930 . S
H203 C198 0.931 . S
Co204 N201 2.135 . S
Co204 N207 2.121 . S
Co204 O212 2.055 . S
Co204 O215 2.039 . S
Co204 N218 2.140 . S
C205 O206 1.227 . S
C205 O215 1.265 . S
O206 C205 1.227 . S
N207 Co204 2.121 . S
N207 C209 1.375 . S
N207 C210 1.313 . S
C208 C209 1.338 . S
C208 N211 1.377 . S
C208 H228 0.930 . S
C209 N207 1.375 . S
C209 C208 1.338 . S
C209 H213 0.931 . S
C210 N207 1.313 . S
C210 N211 1.344 . S
C210 H214 0.930 . S
N211 C208 1.377 . S
N211 C210 1.344 . S
O212 Co204 2.055 . S
O212 C216 1.253 . S
H213 C209 0.931 . S
H214 C210 0.930 . S
O215 Co204 2.039 . S
O215 C205 1.265 . S
C216 O212 1.253 . S
C216 O217 1.227 . S
O217 C216 1.227 . S
N218 Co204 2.140 . S
N218 C221 1.346 . S
N218 C222 1.345 . S
C219 C220 1.387 . S
C219 C223 1.391 . S
C220 C219 1.387 . S
C220 C221 1.369 . S
C220 H229 0.929 . S
C221 N218 1.346 . S
C221 C220 1.369 . S
C221 H224 0.928 . S
C222 N218 1.345 . S
C222 C223 1.371 . S
C222 H225 0.931 . S
C223 C219 1.391 . S
C223 C222 1.371 . S
C223 H230 0.930 . S
H224 C221 0.928 . S
H225 C222 0.931 . S
H226 C202 0.930 . S
H227 C199 0.930 . S
H228 C208 0.930 . S
H229 C220 0.929 . S
H230 C223 0.930 . S
C231 C232 1.351 . S
C231 N234 1.368 . S
C231 H236 0.931 . S
C232 C231 1.351 . S
C232 N233 1.373 . S
C232 H260 0.930 . S
N233 C232 1.373 . S
N233 C235 1.340 . S
N234 C231 1.368 . S
N234 C235 1.321 . S
N234 Co237 2.135 . S
C235 N233 1.340 . S
C235 N234 1.321 . S
C235 H259 0.930 . S
H236 C231 0.931 . S
Co237 N234 2.135 . S
Co237 N240 2.121 . S
Co237 O245 2.055 . S
Co237 O248 2.039 . S
Co237 N251 2.140 . S
C238 O239 1.227 . S
C238 O248 1.265 . S
O239 C238 1.227 . S
N240 Co237 2.121 . S
N240 C242 1.375 . S
N240 C243 1.313 . S
C241 C242 1.338 . S
C241 N244 1.377 . S
C241 H261 0.930 . S
C242 N240 1.375 . S
C242 C241 1.338 . S
C242 H246 0.931 . S
C243 N240 1.313 . S
C243 N244 1.344 . S
C243 H247 0.930 . S
N244 C241 1.377 . S
N244 C243 1.344 . S
O245 Co237 2.055 . S
O245 C249 1.253 . S
H246 C242 0.931 . S
H247 C243 0.930 . S
O248 Co237 2.039 . S
O248 C238 1.265 . S
C249 O245 1.253 . S
C249 O250 1.227 . S
O250 C249 1.227 . S
N251 Co237 2.140 . S
N251 C254 1.346 . S
N251 C255 1.345 . S
C252 C253 1.387 . S
C252 C256 1.391 . S
C253 C252 1.387 . S
C253 C254 1.369 . S
C253 H262 0.929 . S
C254 N251 1.346 . S
C254 C253 1.369 . S
C254 H257 0.928 . S
C255 N251 1.345 . S
C255 C256 1.371 . S
C255 H258 0.931 . S
C256 C252 1.391 . S
C256 C255 1.371 . S
C256 H263 0.930 . S
H257 C254 0.928 . S
H258 C255 0.931 . S
H259 C235 0.930 . S
H260 C232 0.930 . S
H261 C241 0.930 . S
H262 C253 0.929 . S
H263 C256 0.930 . S
H264 C282 0.951 . S
H265 C284 0.951 1_545 S
H266 C286 0.950 . S
H267 C287 0.950 . S
H268 C289 0.950 . S
H269 C292 0.950 . S
H270 C293 0.950 . S
H271 C295 0.950 . S
H272 C296 0.950 . S
H273 C297 0.951 . S
H274 C299 0.951 1_565 S
H275 C301 0.950 . S
H276 C302 0.950 . S
H277 C304 0.950 . S
H278 C307 0.950 . S
H279 C308 0.950 . S
H280 C310 0.950 . S
H281 C311 0.950 . S
C282 H264 0.951 . S
C282 C283 1.366 . S
C282 C284 1.388 . S
C283 C282 1.366 . S
C283 C287 1.385 . S
C284 H265 0.951 1_565 S
C284 C282 1.388 . S
C284 C285 1.366 . S
C285 C284 1.366 . S
C285 C286 1.414 . S
C285 C288 1.499 . S
C286 H266 0.950 . S
C286 C285 1.414 . S
C286 C287 1.374 . S
C287 H267 0.950 . S
C287 C283 1.385 . S
C287 C286 1.374 . S
C288 C285 1.499 . S
C288 C289 1.373 . S
C288 C290 1.361 1_565 S
C289 H268 0.950 . S
C289 C288 1.373 . S
C289 C305 1.404 . S
C290 C288 1.361 1_545 S
C290 C291 1.527 . S
C290 C304 1.404 . S
C291 C290 1.527 . S
C291 C292 1.397 1_545 S
C291 C296 1.363 . S
C292 H269 0.950 . S
C292 C291 1.397 1_565 S
C292 C293 1.334 . S
C293 H270 0.950 . S
C293 C292 1.334 . S
C293 C294 1.287 . S
C294 C293 1.287 . S
C294 C295 1.524 1_565 S
C294 H313 0.913 . S
C295 H271 0.950 . S
C295 C294 1.524 1_545 S
C295 C296 1.415 . S
C296 H272 0.950 . S
C296 C291 1.363 . S
C296 C295 1.415 . S
C297 H273 0.951 . S
C297 C298 1.366 . S
C297 C299 1.388 . S
C298 C297 1.366 . S
C298 C302 1.385 . S
C299 H274 0.951 1_545 S
C299 C297 1.388 . S
C299 C300 1.366 . S
C300 C299 1.366 . S
C300 C301 1.414 . S
C300 C303 1.499 . S
C301 H275 0.950 . S
C301 C300 1.414 . S
C301 C302 1.374 . S
C302 H276 0.950 . S
C302 C298 1.385 . S
C302 C301 1.374 . S
C303 C300 1.499 . S
C303 C304 1.373 . S
C303 C305 1.361 1_545 S
C304 H277 0.950 . S
C304 C290 1.404 . S
C304 C303 1.373 . S
C305 C289 1.404 . S
C305 C303 1.361 1_565 S
C305 C306 1.527 1_554 S
C306 C305 1.527 1_556 S
C306 C307 1.397 1_565 S
C306 C311 1.363 . S
C307 H278 0.950 . S
C307 C306 1.397 1_545 S
C307 C308 1.334 . S
C308 H279 0.950 . S
C308 C307 1.334 . S
C308 C309 1.287 . S
C309 C308 1.287 . S
C309 C310 1.524 1_545 S
C309 H312 0.999 . S
C310 H280 0.950 . S
C310 C309 1.524 1_565 S
C310 C311 1.415 . S
C311 H281 0.950 . S
C311 C306 1.363 . S
C311 C310 1.415 . S
H312 C309 0.999 . S
H313 C294 0.913 . S
H314 C332 0.951 . S
H315 C334 0.951 . S
H316 C336 0.950 . S
H317 C337 0.950 . S
H318 C339 0.950 . S
H319 C342 0.950 . S
H320 C343 0.950 . S
H321 C345 0.950 . S
H322 C346 0.950 . S
H323 C347 0.951 . S
H324 C349 0.951 . S
H325 C351 0.950 . S
H326 C352 0.950 . S
H327 C354 0.950 . S
H328 C357 0.950 . S
H329 C358 0.950 . S
H330 C360 0.950 . S
H331 C361 0.950 . S
C332 H314 0.951 . S
C332 C333 1.366 . S
C332 C334 1.388 . S
C333 C332 1.366 . S
C333 C337 1.385 . S
C334 H315 0.951 . S
C334 C332 1.388 . S
C334 C335 1.366 . S
C335 C334 1.366 . S
C335 C336 1.414 . S
C335 C338 1.499 . S
C336 H316 0.950 . S
C336 C335 1.414 . S
C336 C337 1.374 . S
C337 H317 0.950 . S
C337 C333 1.385 . S
C337 C336 1.374 . S
C338 C335 1.499 . S
C338 C339 1.373 . S
C338 C340 1.389 . S
C339 H318 0.950 . S
C339 C338 1.373 . S
C339 C355 1.377 . S
C340 C338 1.389 . S
C340 C341 1.524 . S
C340 C354 1.377 . S
C341 C340 1.524 . S
C341 C342 1.397 . S
C341 C346 1.363 . S
C342 H319 0.950 . S
C342 C341 1.397 . S
C342 C343 1.334 . S
C343 H320 0.950 . S
C343 C342 1.334 . S
C343 C344 1.287 . S
C344 C343 1.287 . S
C344 C345 1.524 . S
C344 H363 0.913 . S
C345 H321 0.950 . S
C345 C344 1.524 . S
C345 C346 1.415 . S
C346 H322 0.950 . S
C346 C341 1.363 . S
C346 C345 1.415 . S
C347 H323 0.951 . S
C347 C348 1.366 . S
C347 C349 1.388 . S
C348 C347 1.366 . S
C348 C352 1.385 . S
C349 H324 0.951 . S
C349 C347 1.388 . S
C349 C350 1.366 . S
C350 C349 1.366 . S
C350 C351 1.414 . S
C350 C353 1.499 . S
C351 H325 0.950 . S
C351 C350 1.414 . S
C351 C352 1.374 . S
C352 H326 0.950 . S
C352 C348 1.385 . S
C352 C351 1.374 . S
C353 C350 1.499 . S
C353 C354 1.373 . S
C353 C355 1.389 . S
C354 H327 0.950 . S
C354 C340 1.377 . S
C354 C353 1.373 . S
C355 C339 1.377 . S
C355 C353 1.389 . S
C355 C356 1.524 . S
C356 C355 1.524 . S
C356 C357 1.397 . S
C356 C361 1.363 . S
C357 H328 0.950 . S
C357 C356 1.397 . S
C357 C358 1.334 . S
C358 H329 0.950 . S
C358 C357 1.334 . S
C358 C359 1.287 . S
C359 C358 1.287 . S
C359 C360 1.524 . S
C359 H362 0.999 . S
C360 H330 0.950 . S
C360 C359 1.524 . S
C360 C361 1.415 . S
C361 H331 0.950 . S
C361 C356 1.363 . S
C361 C360 1.415 . S
H362 C359 0.999 . S
H363 C344 0.913 . S
H364 C382 0.951 . S
H365 C384 0.951 . S
H366 C386 0.950 1_565 S
H367 C387 0.950 . S
H368 C389 0.950 . S
H369 C392 0.950 . S
H370 C393 0.950 . S
H371 C395 0.950 . S
H372 C396 0.950 . S
H373 C397 0.951 . S
H374 C399 0.951 . S
H375 C401 0.950 1_545 S
H376 C402 0.950 . S
H377 C404 0.950 . S
H378 C407 0.950 . S
H379 C408 0.950 . S
H380 C410 0.950 . S
H381 C411 0.950 . S
C382 H364 0.951 . S
C382 C383 1.366 . S
C382 C384 1.388 . S
C383 C382 1.366 . S
C383 C387 1.385 . S
C384 H365 0.951 . S
C384 C382 1.388 . S
C384 C385 1.366 . S
C385 C384 1.366 . S
C385 C386 1.414 . S
C385 C388 1.499 . S
C386 H366 0.950 1_545 S
C386 C385 1.414 . S
C386 C387 1.374 . S
C387 H367 0.950 . S
C387 C383 1.385 . S
C387 C386 1.374 . S
C388 C385 1.499 . S
C388 C389 1.373 1_545 S
C388 C390 1.389 . S
C389 H368 0.950 . S
C389 C388 1.373 1_565 S
C389 C405 1.377 . S
C390 C388 1.389 . S
C390 C391 1.524 . S
C390 C404 1.377 . S
C391 C390 1.524 . S
C391 C392 1.397 . S
C391 C396 1.363 . S
C392 H369 0.950 . S
C392 C391 1.397 . S
C392 C393 1.334 . S
C393 H370 0.950 . S
C393 C392 1.334 . S
C393 C394 1.287 . S
C394 C393 1.287 . S
C394 C395 1.524 . S
C394 H413 0.913 . S
C395 H371 0.950 . S
C395 C394 1.524 . S
C395 C396 1.415 . S
C396 H372 0.950 . S
C396 C391 1.363 . S
C396 C395 1.415 . S
C397 H373 0.951 . S
C397 C398 1.366 . S
C397 C399 1.388 . S
C398 C397 1.366 . S
C398 C402 1.385 . S
C399 H374 0.951 . S
C399 C397 1.388 . S
C399 C400 1.366 . S
C400 C399 1.366 . S
C400 C401 1.414 . S
C400 C403 1.499 . S
C401 H375 0.950 1_565 S
C401 C400 1.414 . S
C401 C402 1.374 . S
C402 H376 0.950 . S
C402 C398 1.385 . S
C402 C401 1.374 . S
C403 C400 1.499 . S
C403 C404 1.373 1_565 S
C403 C405 1.389 . S
C404 H377 0.950 . S
C404 C390 1.377 . S
C404 C403 1.373 1_545 S
C405 C389 1.377 . S
C405 C403 1.389 . S
C405 C406 1.524 . S
C406 C405 1.524 . S
C406 C407 1.397 1_556 S
C406 C411 1.363 . S
C407 H378 0.950 . S
C407 C406 1.397 1_554 S
C407 C408 1.334 . S
C408 H379 0.950 . S
C408 C407 1.334 . S
C408 C409 1.287 . S
C409 C408 1.287 . S
C409 C410 1.524 1_554 S
C409 H412 0.999 . S
C410 H380 0.950 . S
C410 C409 1.524 1_556 S
C410 C411 1.415 . S
C411 H381 0.950 . S
C411 C406 1.363 . S
C411 C410 1.415 . S
H412 C409 0.999 . S
H413 C394 0.913 . S
H414 C432 0.951 . S
H415 C434 0.951 . S
H416 C436 0.950 . S
H417 C437 0.950 . S
H418 C439 0.950 . S
H419 C442 0.950 . S
H420 C443 0.950 . S
H421 C445 0.950 . S
H422 C446 0.950 . S
H423 C447 0.951 . S
H424 C449 0.951 . S
H425 C451 0.950 . S
H426 C452 0.950 . S
H427 C454 0.950 . S
H428 C457 0.950 . S
H429 C458 0.950 . S
H430 C460 0.950 . S
H431 C461 0.950 . S
C432 H414 0.951 . S
C432 C433 1.366 . S
C432 C434 1.388 . S
C433 C432 1.366 . S
C433 C437 1.385 . S
C434 H415 0.951 . S
C434 C432 1.388 . S
C434 C435 1.366 . S
C435 C434 1.366 . S
C435 C436 1.414 . S
C435 C438 1.499 . S
C436 H416 0.950 . S
C436 C435 1.414 . S
C436 C437 1.374 . S
C437 H417 0.950 . S
C437 C433 1.385 . S
C437 C436 1.374 . S
C438 C435 1.499 . S
C438 C439 1.373 . S
C438 C440 1.389 . S
C439 H418 0.950 . S
C439 C438 1.373 . S
C439 C455 1.377 . S
C440 C438 1.389 . S
C440 C441 1.524 . S
C440 C454 1.377 . S
C441 C440 1.524 . S
C441 C442 1.397 . S
C441 C446 1.363 . S
C442 H419 0.950 . S
C442 C441 1.397 . S
C442 C443 1.334 . S
C443 H420 0.950 . S
C443 C442 1.334 . S
C443 C444 1.287 . S
C444 C443 1.287 . S
C444 C445 1.524 . S
C444 H463 0.913 . S
C445 H421 0.950 . S
C445 C444 1.524 . S
C445 C446 1.415 . S
C446 H422 0.950 . S
C446 C441 1.363 . S
C446 C445 1.415 . S
C447 H423 0.951 . S
C447 C448 1.366 . S
C447 C449 1.388 . S
C448 C447 1.366 . S
C448 C452 1.385 . S
C449 H424 0.951 . S
C449 C447 1.388 . S
C449 C450 1.366 . S
C450 C449 1.366 . S
C450 C451 1.414 . S
C450 C453 1.499 . S
C451 H425 0.950 . S
C451 C450 1.414 . S
C451 C452 1.374 . S
C452 H426 0.950 . S
C452 C448 1.385 . S
C452 C451 1.374 . S
C453 C450 1.499 . S
C453 C454 1.373 . S
C453 C455 1.389 . S
C454 H427 0.950 . S
C454 C440 1.377 . S
C454 C453 1.373 . S
C455 C439 1.377 . S
C455 C453 1.389 . S
C455 C456 1.524 . S
C456 C455 1.524 . S
C456 C457 1.397 . S
C456 C461 1.363 . S
C457 H428 0.950 . S
C457 C456 1.397 . S
C457 C458 1.334 . S
C458 H429 0.950 . S
C458 C457 1.334 . S
C458 C459 1.287 . S
C459 C458 1.287 . S
C459 C460 1.524 . S
C459 H462 0.999 . S
C460 H430 0.950 . S
C460 C459 1.524 . S
C460 C461 1.415 . S
C461 H431 0.950 . S
C461 C456 1.363 . S
C461 C460 1.415 . S
H462 C459 0.999 . S
H463 C444 0.913 . S
H464 C482 0.951 . S
H465 C484 0.951 . S
H466 C486 0.950 . S
H467 C487 0.950 . S
H468 C489 0.950 . S
H469 C492 0.950 . S
H470 C493 0.950 . S
H471 C495 0.950 . S
H472 C496 0.950 . S
H473 C497 0.951 . S
H474 C499 0.951 . S
H475 C501 0.950 . S
H476 C502 0.950 . S
H477 C504 0.950 . S
H478 C507 0.950 . S
H479 C508 0.950 . S
H480 C510 0.950 . S
H481 C511 0.950 . S
C482 H464 0.951 . S
C482 C483 1.366 . S
C482 C484 1.388 . S
C483 C482 1.366 . S
C483 C487 1.385 . S
C484 H465 0.951 . S
C484 C482 1.388 . S
C484 C485 1.366 . S
C485 C484 1.366 . S
C485 C486 1.414 . S
C485 C488 1.499 . S
C486 H466 0.950 . S
C486 C485 1.414 . S
C486 C487 1.374 . S
C487 H467 0.950 . S
C487 C483 1.385 . S
C487 C486 1.374 . S
C488 C485 1.499 . S
C488 C489 1.373 1_565 S
C488 C490 1.412 1_556 S
C489 H468 0.950 . S
C489 C488 1.373 1_545 S
C489 C505 1.353 1_655 S
C490 C488 1.412 1_554 S
C490 C491 1.524 . S
C490 C504 1.353 1_655 S
C491 C490 1.524 . S
C491 C492 1.415 . S
C491 C496 1.344 1_655 S
C492 H469 0.950 . S
C492 C491 1.415 . S
C492 C493 1.334 . S
C493 H470 0.950 . S
C493 C492 1.334 . S
C493 C494 1.287 . S
C494 C493 1.287 . S
C494 C495 1.524 1_655 S
C494 H513 0.913 . S
C495 H471 0.950 . S
C495 C494 1.524 1_455 S
C495 C496 1.415 . S
C496 H472 0.950 . S
C496 C491 1.344 1_455 S
C496 C495 1.415 . S
C497 H473 0.951 . S
C497 C498 1.366 . S
C497 C499 1.388 . S
C498 C497 1.366 . S
C498 C502 1.385 . S
C499 H474 0.951 . S
C499 C497 1.388 . S
C499 C500 1.366 . S
C500 C499 1.366 . S
C500 C501 1.414 . S
C500 C503 1.499 . S
C501 H475 0.950 . S
C501 C500 1.414 . S
C501 C502 1.374 . S
C502 H476 0.950 . S
C502 C498 1.385 . S
C502 C501 1.374 . S
C503 C500 1.499 . S
C503 C504 1.373 1_545 S
C503 C505 1.412 1_554 S
C504 H477 0.950 . S
C504 C490 1.353 1_455 S
C504 C503 1.373 1_565 S
C505 C489 1.353 1_455 S
C505 C503 1.412 1_556 S
C505 C506 1.524 . S
C506 C505 1.524 . S
C506 C507 1.415 . S
C506 C511 1.344 1_455 S
C507 H478 0.950 . S
C507 C506 1.415 . S
C507 C508 1.334 . S
C508 H479 0.950 . S
C508 C507 1.334 . S
C508 C509 1.287 . S
C509 C508 1.287 . S
C509 C510 1.524 1_455 S
C509 H512 0.999 . S
C510 H480 0.950 . S
C510 C509 1.524 1_655 S
C510 C511 1.415 . S
C511 H481 0.950 . S
C511 C506 1.344 1_655 S
C511 C510 1.415 . S
H512 C509 0.999 . S
H513 C494 0.913 . S
H514 C532 0.951 . S
H515 C534 0.951 1_556 S
H516 C536 0.950 . S
H517 C537 0.950 . S
H518 C539 0.950 . S
H519 C542 0.950 . S
H520 C543 0.950 . S
H521 C545 0.950 1_545 S
H522 C546 0.972 . S
H523 C547 0.951 . S
H524 C549 0.951 1_554 S
H525 C551 0.950 . S
H526 C552 0.950 . S
H527 C554 0.950 . S
H528 C557 0.950 . S
H529 C558 0.950 . S
H530 C560 0.950 1_565 S
H531 C561 0.972 . S
C532 H514 0.951 . S
C532 C533 1.366 . S
C532 C534 1.388 . S
C533 C532 1.366 . S
C533 C537 1.385 . S
C534 H515 0.951 1_554 S
C534 C532 1.388 . S
C534 C535 1.366 . S
C535 C534 1.366 . S
C535 C536 1.414 . S
C535 C538 1.499 . S
C536 H516 0.950 . S
C536 C535 1.414 . S
C536 C537 1.374 . S
C537 H517 0.950 . S
C537 C533 1.385 . S
C537 C536 1.374 . S
C538 C535 1.499 . S
C538 C539 1.373 . S
C538 C540 1.389 1_554 S
C539 H518 0.950 . S
C539 C538 1.373 . S
C539 C555 1.377 1_565 S
C540 C538 1.389 1_556 S
C540 C541 1.524 . S
C540 C554 1.377 1_565 S
C541 C540 1.524 . S
C541 C542 1.397 . S
C541 C546 1.348 1_565 S
C542 H519 0.950 . S
C542 C541 1.397 . S
C542 C543 1.334 . S
C543 H520 0.950 . S
C543 C542 1.334 . S
C543 C544 1.287 . S
C544 C543 1.287 . S
C544 C545 1.524 . S
C544 H563 0.913 . S
C545 H521 0.950 1_565 S
C545 C544 1.524 . S
C545 C546 1.408 1_565 S
C546 H522 0.972 . S
C546 C541 1.348 1_545 S
C546 C545 1.408 1_545 S
C547 H523 0.951 . S
C547 C548 1.366 . S
C547 C549 1.388 . S
C548 C547 1.366 . S
C548 C552 1.385 . S
C549 H524 0.951 1_556 S
C549 C547 1.388 . S
C549 C550 1.366 . S
C550 C549 1.366 . S
C550 C551 1.414 . S
C550 C553 1.499 . S
C551 H525 0.950 . S
C551 C550 1.414 . S
C551 C552 1.374 . S
C552 H526 0.950 . S
C552 C548 1.385 . S
C552 C551 1.374 . S
C553 C550 1.499 . S
C553 C554 1.373 . S
C553 C555 1.389 1_556 S
C554 H527 0.950 . S
C554 C540 1.377 1_545 S
C554 C553 1.373 . S
C555 C539 1.377 1_545 S
C555 C553 1.389 1_554 S
C555 C556 1.524 . S
C556 C555 1.524 . S
C556 C557 1.397 . S
C556 C561 1.348 1_545 S
C557 H528 0.950 . S
C557 C556 1.397 . S
C557 C558 1.334 . S
C558 H529 0.950 . S
C558 C557 1.334 . S
C558 C559 1.287 . S
C559 C558 1.287 . S
C559 C560 1.524 . S
C559 H562 0.999 . S
C560 H530 0.950 1_545 S
C560 C559 1.524 . S
C560 C561 1.408 1_545 S
C561 H531 0.972 . S
C561 C556 1.348 1_565 S
C561 C560 1.408 1_565 S
H562 C559 0.999 . S
H563 C544 0.913 . S
H564 C582 0.951 . S
H565 C584 0.951 . S
H566 C586 0.950 . S
H567 C587 0.950 . S
H568 C589 0.950 . S
H569 C592 0.950 . S
H570 C593 0.950 . S
H571 C595 0.950 . S
H572 C596 0.950 . S
H573 C597 0.951 . S
H574 C599 0.951 . S
H575 C601 0.950 . S
H576 C602 0.950 . S
H577 C604 0.950 . S
H578 C607 0.950 . S
H579 C608 0.950 . S
H580 C610 0.950 . S
H581 C611 0.950 . S
C582 H564 0.951 . S
C582 C583 1.366 . S
C582 C584 1.388 . S
C583 C582 1.366 . S
C583 C587 1.385 . S
C584 H565 0.951 . S
C584 C582 1.388 . S
C584 C585 1.366 . S
C585 C584 1.366 . S
C585 C586 1.414 . S
C585 C588 1.499 . S
C586 H566 0.950 . S
C586 C585 1.414 . S
C586 C587 1.374 . S
C587 H567 0.950 . S
C587 C583 1.385 . S
C587 C586 1.374 . S
C588 C585 1.499 . S
C588 C589 1.373 . S
C588 C590 1.389 . S
C589 H568 0.950 . S
C589 C588 1.373 . S
C589 C605 1.377 1_455 S
C590 C588 1.389 . S
C590 C591 1.524 . S
C590 C604 1.377 1_455 S
C591 C590 1.524 . S
C591 C592 1.397 . S
C591 C596 1.363 . S
C592 H569 0.950 . S
C592 C591 1.397 . S
C592 C593 1.334 . S
C593 H570 0.950 . S
C593 C592 1.334 . S
C593 C594 1.287 . S
C594 C593 1.287 . S
C594 C595 1.524 . S
C594 H613 0.913 . S
C595 H571 0.950 . S
C595 C594 1.524 . S
C595 C596 1.415 . S
C596 H572 0.950 . S
C596 C591 1.363 . S
C596 C595 1.415 . S
C597 H573 0.951 . S
C597 C598 1.366 . S
C597 C599 1.388 . S
C598 C597 1.366 . S
C598 C602 1.385 . S
C599 H574 0.951 . S
C599 C597 1.388 . S
C599 C600 1.366 . S
C600 C599 1.366 . S
C600 C601 1.414 . S
C600 C603 1.499 . S
C601 H575 0.950 . S
C601 C600 1.414 . S
C601 C602 1.374 . S
C602 H576 0.950 . S
C602 C598 1.385 . S
C602 C601 1.374 . S
C603 C600 1.499 . S
C603 C604 1.373 . S
C603 C605 1.389 . S
C604 H577 0.950 . S
C604 C590 1.377 1_655 S
C604 C603 1.373 . S
C605 C589 1.377 1_655 S
C605 C603 1.389 . S
C605 C606 1.524 . S
C606 C605 1.524 . S
C606 C607 1.397 . S
C606 C611 1.363 . S
C607 H578 0.950 . S
C607 C606 1.397 . S
C607 C608 1.334 . S
C608 H579 0.950 . S
C608 C607 1.334 . S
C608 C609 1.287 . S
C609 C608 1.287 . S
C609 C610 1.524 . S
C609 H612 0.999 . S
C610 H580 0.950 . S
C610 C609 1.524 . S
C610 C611 1.415 . S
C611 H581 0.950 . S
C611 C606 1.363 . S
C611 C610 1.415 . S
H612 C609 0.999 . S
H613 C594 0.913 . S
H614 C632 0.951 . S
H615 C634 0.951 . S
H616 C636 0.950 . S
H617 C637 0.950 . S
H618 C639 0.950 . S
H619 C642 0.950 . S
H620 C643 0.950 . S
H621 C645 0.950 . S
H622 C646 0.950 . S
H623 C647 0.951 . S
H624 C649 0.951 . S
H625 C651 0.950 . S
H626 C652 0.950 . S
H627 C654 0.950 . S
H628 C657 0.950 . S
H629 C658 0.950 . S
H630 C660 0.950 . S
H631 C661 0.950 . S
C632 H614 0.951 . S
C632 C633 1.366 . S
C632 C634 1.388 . S
C633 C632 1.366 . S
C633 C637 1.385 . S
C634 H615 0.951 . S
C634 C632 1.388 . S
C634 C635 1.366 . S
C635 C634 1.366 . S
C635 C636 1.414 . S
C635 C638 1.499 . S
C636 H616 0.950 . S
C636 C635 1.414 . S
C636 C637 1.374 . S
C637 H617 0.950 . S
C637 C633 1.385 . S
C637 C636 1.374 . S
C638 C635 1.499 . S
C638 C639 1.373 . S
C638 C640 1.389 . S
C639 H618 0.950 . S
C639 C638 1.373 . S
C639 C655 1.377 . S
C640 C638 1.389 . S
C640 C641 1.524 . S
C640 C654 1.377 . S
C641 C640 1.524 . S
C641 C642 1.397 . S
C641 C646 1.363 . S
C642 H619 0.950 . S
C642 C641 1.397 . S
C642 C643 1.334 . S
C643 H620 0.950 . S
C643 C642 1.334 . S
C643 C644 1.287 . S
C644 C643 1.287 . S
C644 C645 1.524 . S
C644 H663 0.913 . S
C645 H621 0.950 . S
C645 C644 1.524 . S
C645 C646 1.415 . S
C646 H622 0.950 . S
C646 C641 1.363 . S
C646 C645 1.415 . S
C647 H623 0.951 . S
C647 C648 1.366 . S
C647 C649 1.388 . S
C648 C647 1.366 . S
C648 C652 1.385 . S
C649 H624 0.951 . S
C649 C647 1.388 . S
C649 C650 1.366 . S
C650 C649 1.366 . S
C650 C651 1.414 . S
C650 C653 1.499 . S
C651 H625 0.950 . S
C651 C650 1.414 . S
C651 C652 1.374 . S
C652 H626 0.950 . S
C652 C648 1.385 . S
C652 C651 1.374 . S
C653 C650 1.499 . S
C653 C654 1.373 . S
C653 C655 1.389 . S
C654 H627 0.950 . S
C654 C640 1.377 . S
C654 C653 1.373 . S
C655 C639 1.377 . S
C655 C653 1.389 . S
C655 C656 1.524 . S
C656 C655 1.524 . S
C656 C657 1.397 . S
C656 C661 1.363 . S
C657 H628 0.950 . S
C657 C656 1.397 . S
C657 C658 1.334 . S
C658 H629 0.950 . S
C658 C657 1.334 . S
C658 C659 1.287 . S
C659 C658 1.287 . S
C659 C660 1.524 . S
C659 H662 0.999 . S
C660 H630 0.950 . S
C660 C659 1.524 . S
C660 C661 1.415 . S
C661 H631 0.950 . S
C661 C656 1.363 . S
C661 C660 1.415 . S
H662 C659 0.999 . S
H663 C644 0.913 . S
H664 C682 0.951 . S
H665 C684 0.951 . S
H666 C686 0.950 . S
H667 C687 0.950 . S
H668 C689 0.950 . S
H669 C692 0.950 . S
H670 C693 0.950 . S
H671 C695 0.950 . S
H672 C696 0.950 . S
H673 C697 0.951 . S
H674 C699 0.951 . S
H675 C701 0.950 . S
H676 C702 0.950 . S
H677 C704 0.950 . S
H678 C707 0.950 . S
H679 C708 0.950 . S
H680 C710 0.950 . S
H681 C711 0.950 . S
C682 H664 0.951 . S
C682 C683 1.366 . S
C682 C684 1.388 . S
C683 C682 1.366 . S
C683 C687 1.385 . S
C684 H665 0.951 . S
C684 C682 1.388 . S
C684 C685 1.366 . S
C685 C684 1.366 . S
C685 C686 1.414 . S
C685 C688 1.499 . S
C686 H666 0.950 . S
C686 C685 1.414 . S
C686 C687 1.374 . S
C687 H667 0.950 . S
C687 C683 1.385 . S
C687 C686 1.374 . S
C688 C685 1.499 . S
C688 C689 1.373 . S
C688 C690 1.389 . S
C689 H668 0.950 . S
C689 C688 1.373 . S
C689 C705 1.377 . S
C690 C688 1.389 . S
C690 C691 1.524 . S
C690 C704 1.377 . S
C691 C690 1.524 . S
C691 C692 1.397 . S
C691 C696 1.363 . S
C692 H669 0.950 . S
C692 C691 1.397 . S
C692 C693 1.334 . S
C693 H670 0.950 . S
C693 C692 1.334 . S
C693 C694 1.287 . S
C694 C693 1.287 . S
C694 C695 1.524 . S
C694 H713 0.913 . S
C695 H671 0.950 . S
C695 C694 1.524 . S
C695 C696 1.415 . S
C696 H672 0.950 . S
C696 C691 1.363 . S
C696 C695 1.415 . S
C697 H673 0.951 . S
C697 C698 1.366 . S
C697 C699 1.388 . S
C698 C697 1.366 . S
C698 C702 1.385 . S
C699 H674 0.951 . S
C699 C697 1.388 . S
C699 C700 1.366 . S
C700 C699 1.366 . S
C700 C701 1.414 . S
C700 C703 1.499 . S
C701 H675 0.950 . S
C701 C700 1.414 . S
C701 C702 1.374 . S
C702 H676 0.950 . S
C702 C698 1.385 . S
C702 C701 1.374 . S
C703 C700 1.499 . S
C703 C704 1.373 . S
C703 C705 1.389 . S
C704 H677 0.950 . S
C704 C690 1.377 . S
C704 C703 1.373 . S
C705 C689 1.377 . S
C705 C703 1.389 . S
C705 C706 1.524 . S
C706 C705 1.524 . S
C706 C707 1.397 . S
C706 C711 1.363 . S
C707 H678 0.950 . S
C707 C706 1.397 . S
C707 C708 1.334 . S
C708 H679 0.950 . S
C708 C707 1.334 . S
C708 C709 1.287 . S
C709 C708 1.287 . S
C709 C710 1.524 . S
C709 H712 0.999 . S
C710 H680 0.950 . S
C710 C709 1.524 . S
C710 C711 1.415 . S
C711 H681 0.950 . S
C711 C706 1.363 . S
C711 C710 1.415 . S
H712 C709 0.999 . S
H713 C694 0.913 . S
H714 C732 0.951 . S
H715 C734 0.951 . S
H716 C736 0.950 . S
H717 C737 0.950 . S
H718 C739 0.950 . S
H719 C742 0.950 . S
H720 C743 0.950 . S
H721 C745 0.950 . S
H722 C746 0.950 . S
H723 C747 0.951 . S
H724 C749 0.951 . S
H725 C751 0.950 . S
H726 C752 0.950 . S
H727 C754 0.950 . S
H728 C757 0.950 . S
H729 C758 0.950 . S
H730 C760 0.950 . S
H731 C761 0.950 . S
C732 H714 0.951 . S
C732 C733 1.366 . S
C732 C734 1.388 . S
C733 C732 1.366 . S
C733 C737 1.385 . S
C734 H715 0.951 . S
C734 C732 1.388 . S
C734 C735 1.366 . S
C735 C734 1.366 . S
C735 C736 1.414 . S
C735 C738 1.499 . S
C736 H716 0.950 . S
C736 C735 1.414 . S
C736 C737 1.374 . S
C737 H717 0.950 . S
C737 C733 1.385 . S
C737 C736 1.374 . S
C738 C735 1.499 . S
C738 C739 1.373 . S
C738 C740 1.389 . S
C739 H718 0.950 . S
C739 C738 1.373 . S
C739 C755 1.377 . S
C740 C738 1.389 . S
C740 C741 1.524 . S
C740 C754 1.377 . S
C741 C740 1.524 . S
C741 C742 1.397 . S
C741 C746 1.363 . S
C742 H719 0.950 . S
C742 C741 1.397 . S
C742 C743 1.334 . S
C743 H720 0.950 . S
C743 C742 1.334 . S
C743 C744 1.287 . S
C744 C743 1.287 . S
C744 C745 1.524 . S
C744 H763 0.913 . S
C745 H721 0.950 . S
C745 C744 1.524 . S
C745 C746 1.415 . S
C746 H722 0.950 . S
C746 C741 1.363 . S
C746 C745 1.415 . S
C747 H723 0.951 . S
C747 C748 1.366 . S
C747 C749 1.388 . S
C748 C747 1.366 . S
C748 C752 1.385 . S
C749 H724 0.951 . S
C749 C747 1.388 . S
C749 C750 1.366 . S
C750 C749 1.366 . S
C750 C751 1.414 . S
C750 C753 1.499 . S
C751 H725 0.950 . S
C751 C750 1.414 . S
C751 C752 1.374 . S
C752 H726 0.950 . S
C752 C748 1.385 . S
C752 C751 1.374 . S
C753 C750 1.499 . S
C753 C754 1.373 . S
C753 C755 1.389 . S
C754 H727 0.950 . S
C754 C740 1.377 . S
C754 C753 1.373 . S
C755 C739 1.377 . S
C755 C753 1.389 . S
C755 C756 1.524 . S
C756 C755 1.524 . S
C756 C757 1.397 . S
C756 C761 1.363 . S
C757 H728 0.950 . S
C757 C756 1.397 . S
C757 C758 1.334 . S
C758 H729 0.950 . S
C758 C757 1.334 . S
C758 C759 1.287 . S
C759 C758 1.287 . S
C759 C760 1.524 . S
C759 H762 0.999 . S
C760 H730 0.950 . S
C760 C759 1.524 . S
C760 C761 1.415 . S
C761 H731 0.950 . S
C761 C756 1.363 . S
C761 C760 1.415 . S
H762 C759 0.999 . S
H763 C744 0.913 . S
H764 C782 0.951 . S
H765 C784 0.951 . S
H766 C786 0.950 . S
H767 C787 0.950 . S
H768 C789 0.950 . S
H769 C792 0.950 . S
H770 C793 0.950 . S
H771 C795 0.950 . S
H772 C796 0.950 . S
H773 C797 0.951 . S
H774 C799 0.951 . S
H775 C801 0.950 . S
H776 C802 0.950 . S
H777 C804 0.950 . S
H778 C807 0.950 . S
H779 C808 0.950 . S
H780 C810 0.950 . S
H781 C811 0.950 . S
C782 H764 0.951 . S
C782 C783 1.366 . S
C782 C784 1.388 . S
C783 C782 1.366 . S
C783 C787 1.385 . S
C784 H765 0.951 . S
C784 C782 1.388 . S
C784 C785 1.366 . S
C785 C784 1.366 . S
C785 C786 1.414 . S
C785 C788 1.499 . S
C786 H766 0.950 . S
C786 C785 1.414 . S
C786 C787 1.374 . S
C787 H767 0.950 . S
C787 C783 1.385 . S
C787 C786 1.374 . S
C788 C785 1.499 . S
C788 C789 1.373 . S
C788 C790 1.389 . S
C789 H768 0.950 . S
C789 C788 1.373 . S
C789 C805 1.377 . S
C790 C788 1.389 . S
C790 C791 1.524 . S
C790 C804 1.377 . S
C791 C790 1.524 . S
C791 C792 1.397 . S
C791 C796 1.363 . S
C792 H769 0.950 . S
C792 C791 1.397 . S
C792 C793 1.334 . S
C793 H770 0.950 . S
C793 C792 1.334 . S
C793 C794 1.287 . S
C794 C793 1.287 . S
C794 C795 1.524 . S
C794 H813 0.913 . S
C795 H771 0.950 . S
C795 C794 1.524 . S
C795 C796 1.415 . S
C796 H772 0.950 . S
C796 C791 1.363 . S
C796 C795 1.415 . S
C797 H773 0.951 . S
C797 C798 1.366 . S
C797 C799 1.388 . S
C798 C797 1.366 . S
C798 C802 1.385 . S
C799 H774 0.951 . S
C799 C797 1.388 . S
C799 C800 1.366 . S
C800 C799 1.366 . S
C800 C801 1.414 . S
C800 C803 1.499 1_554 S
C801 H775 0.950 . S
C801 C800 1.414 . S
C801 C802 1.374 . S
C802 H776 0.950 . S
C802 C798 1.385 . S
C802 C801 1.374 . S
C803 C800 1.499 1_556 S
C803 C804 1.373 . S
C803 C805 1.389 . S
C804 H777 0.950 . S
C804 C790 1.377 . S
C804 C803 1.373 . S
C805 C789 1.377 . S
C805 C803 1.389 . S
C805 C806 1.524 . S
C806 C805 1.524 . S
C806 C807 1.397 . S
C806 C811 1.363 . S
C807 H778 0.950 . S
C807 C806 1.397 . S
C807 C808 1.334 1_556 S
C808 H779 0.950 . S
C808 C807 1.334 1_554 S
C808 C809 1.287 1_554 S
C809 C808 1.287 1_556 S
C809 C810 1.524 . S
C809 H812 0.999 1_556 S
C810 H780 0.950 . S
C810 C809 1.524 . S
C810 C811 1.415 . S
C811 H781 0.950 . S
C811 C806 1.363 . S
C811 C810 1.415 . S
H812 C809 0.999 1_554 S
H813 C794 0.913 . S
H814 C832 0.951 . S
H815 C834 0.951 . S
H816 C836 0.950 . S
H817 C837 0.950 . S
H818 C839 0.950 . S
H819 C842 0.950 . S
H820 C843 0.950 . S
H821 C845 0.950 . S
H822 C846 0.950 . S
H823 C847 0.951 . S
H824 C849 0.951 . S
H825 C851 0.950 . S
H826 C852 0.950 . S
H827 C854 0.950 . S
H828 C857 0.950 . S
H829 C858 0.950 . S
H830 C860 0.950 . S
H831 C861 0.950 . S
C832 H814 0.951 . S
C832 C833 1.366 . S
C832 C834 1.388 . S
C833 C832 1.366 . S
C833 C837 1.385 . S
C834 H815 0.951 . S
C834 C832 1.388 . S
C834 C835 1.366 . S
C835 C834 1.366 . S
C835 C836 1.414 . S
C835 C838 1.499 1_554 S
C836 H816 0.950 . S
C836 C835 1.414 . S
C836 C837 1.374 . S
C837 H817 0.950 . S
C837 C833 1.385 . S
C837 C836 1.374 . S
C838 C835 1.499 1_556 S
C838 C839 1.373 . S
C838 C840 1.389 . S
C839 H818 0.950 . S
C839 C838 1.373 . S
C839 C855 1.377 . S
C840 C838 1.389 . S
C840 C841 1.524 . S
C840 C854 1.377 . S
C841 C840 1.524 . S
C841 C842 1.397 . S
C841 C846 1.363 . S
C842 H819 0.950 . S
C842 C841 1.397 . S
C842 C843 1.334 1_556 S
C843 H820 0.950 . S
C843 C842 1.334 1_554 S
C843 C844 1.287 1_554 S
C844 C843 1.287 1_556 S
C844 C845 1.524 . S
C844 H863 0.913 1_556 S
C845 H821 0.950 . S
C845 C844 1.524 . S
C845 C846 1.415 . S
C846 H822 0.950 . S
C846 C841 1.363 . S
C846 C845 1.415 . S
C847 H823 0.951 . S
C847 C848 1.366 . S
C847 C849 1.388 . S
C848 C847 1.366 . S
C848 C852 1.385 . S
C849 H824 0.951 . S
C849 C847 1.388 . S
C849 C850 1.366 . S
C850 C849 1.366 . S
C850 C851 1.414 . S
C850 C853 1.499 . S
C851 H825 0.950 . S
C851 C850 1.414 . S
C851 C852 1.374 . S
C852 H826 0.950 . S
C852 C848 1.385 . S
C852 C851 1.374 . S
C853 C850 1.499 . S
C853 C854 1.373 . S
C853 C855 1.389 . S
C854 H827 0.950 . S
C854 C840 1.377 . S
C854 C853 1.373 . S
C855 C839 1.377 . S
C855 C853 1.389 . S
C855 C856 1.524 . S
C856 C855 1.524 . S
C856 C857 1.397 . S
C856 C861 1.363 . S
C857 H828 0.950 . S
C857 C856 1.397 . S
C857 C858 1.334 . S
C858 H829 0.950 . S
C858 C857 1.334 . S
C858 C859 1.287 . S
C859 C858 1.287 . S
C859 C860 1.524 . S
C859 H862 0.999 . S
C860 H830 0.950 . S
C860 C859 1.524 . S
C860 C861 1.415 . S
C861 H831 0.950 . S
C861 C856 1.363 . S
C861 C860 1.415 . S
H862 C859 0.999 . S
H863 C844 0.913 1_554 S
H864 C882 0.951 . S
H865 C884 0.951 . S
H866 C886 0.950 . S
H867 C887 0.950 . S
H868 C889 0.950 . S
H869 C892 0.950 . S
H870 C893 0.950 . S
H871 C895 0.950 . S
H872 C896 0.950 . S
H873 C897 0.951 . S
H874 C899 0.951 . S
H875 C901 0.950 . S
H876 C902 0.950 . S
H877 C904 0.950 . S
H878 C907 0.950 . S
H879 C908 0.950 . S
H880 C910 0.950 . S
H881 C911 0.950 . S
C882 H864 0.951 . S
C882 C883 1.366 . S
C882 C884 1.388 . S
C883 C882 1.366 . S
C883 C887 1.385 . S
C884 H865 0.951 . S
C884 C882 1.388 . S
C884 C885 1.366 . S
C885 C884 1.366 . S
C885 C886 1.414 . S
C885 C888 1.499 . S
C886 H866 0.950 . S
C886 C885 1.414 . S
C886 C887 1.374 . S
C887 H867 0.950 . S
C887 C883 1.385 . S
C887 C886 1.374 . S
C888 C885 1.499 . S
C888 C889 1.373 . S
C888 C890 1.389 . S
C889 H868 0.950 . S
C889 C888 1.373 . S
C889 C905 1.377 . S
C890 C888 1.389 . S
C890 C891 1.524 . S
C890 C904 1.377 . S
C891 C890 1.524 . S
C891 C892 1.397 . S
C891 C896 1.363 . S
C892 H869 0.950 . S
C892 C891 1.397 . S
C892 C893 1.334 . S
C893 H870 0.950 . S
C893 C892 1.334 . S
C893 C894 1.287 . S
C894 C893 1.287 . S
C894 C895 1.524 . S
C894 H913 0.913 . S
C895 H871 0.950 . S
C895 C894 1.524 . S
C895 C896 1.415 . S
C896 H872 0.950 . S
C896 C891 1.363 . S
C896 C895 1.415 . S
C897 H873 0.951 . S
C897 C898 1.366 . S
C897 C899 1.388 . S
C898 C897 1.366 . S
C898 C902 1.385 . S
C899 H874 0.951 . S
C899 C897 1.388 . S
C899 C900 1.366 . S
C900 C899 1.366 . S
C900 C901 1.414 . S
C900 C903 1.499 . S
C901 H875 0.950 . S
C901 C900 1.414 . S
C901 C902 1.374 . S
C902 H876 0.950 . S
C902 C898 1.385 . S
C902 C901 1.374 . S
C903 C900 1.499 . S
C903 C904 1.373 . S
C903 C905 1.389 . S
C904 H877 0.950 . S
C904 C890 1.377 . S
C904 C903 1.373 . S
C905 C889 1.377 . S
C905 C903 1.389 . S
C905 C906 1.524 . S
C906 C905 1.524 . S
C906 C907 1.397 . S
C906 C911 1.363 . S
C907 H878 0.950 . S
C907 C906 1.397 . S
C907 C908 1.334 . S
C908 H879 0.950 . S
C908 C907 1.334 . S
C908 C909 1.287 . S
C909 C908 1.287 . S
C909 C910 1.524 . S
C909 H912 0.999 . S
C910 H880 0.950 . S
C910 C909 1.524 . S
C910 C911 1.415 . S
C911 H881 0.950 . S
C911 C906 1.363 . S
C911 C910 1.415 . S
H912 C909 0.999 . S
H913 C894 0.913 . S
H914 C932 0.951 . S
H915 C934 0.951 . S
H916 C936 0.950 . S
H917 C937 0.950 . S
H918 C939 0.950 . S
H919 C942 0.950 . S
H920 C943 0.950 . S
H921 C945 0.950 . S
H922 C946 0.950 . S
H923 C947 0.951 . S
H924 C949 0.951 . S
H925 C951 0.950 . S
H926 C952 0.950 . S
H927 C954 0.950 . S
H928 C957 0.950 . S
H929 C958 0.950 . S
H930 C960 0.950 . S
H931 C961 0.950 . S
C932 H914 0.951 . S
C932 C933 1.366 . S
C932 C934 1.388 . S
C933 C932 1.366 . S
C933 C937 1.385 . S
C934 H915 0.951 . S
C934 C932 1.388 . S
C934 C935 1.366 . S
C935 C934 1.366 . S
C935 C936 1.414 . S
C935 C938 1.499 . S
C936 H916 0.950 . S
C936 C935 1.414 . S
C936 C937 1.374 . S
C937 H917 0.950 . S
C937 C933 1.385 . S
C937 C936 1.374 . S
C938 C935 1.499 . S
C938 C939 1.373 . S
C938 C940 1.389 . S
C939 H918 0.950 . S
C939 C938 1.373 . S
C939 C955 1.377 . S
C940 C938 1.389 . S
C940 C941 1.524 . S
C940 C954 1.377 . S
C941 C940 1.524 . S
C941 C942 1.397 . S
C941 C946 1.363 . S
C942 H919 0.950 . S
C942 C941 1.397 . S
C942 C943 1.334 . S
C943 H920 0.950 . S
C943 C942 1.334 . S
C943 C944 1.287 . S
C944 C943 1.287 . S
C944 C945 1.524 . S
C944 H963 0.913 . S
C945 H921 0.950 . S
C945 C944 1.524 . S
C945 C946 1.415 . S
C946 H922 0.950 . S
C946 C941 1.363 . S
C946 C945 1.415 . S
C947 H923 0.951 . S
C947 C948 1.366 . S
C947 C949 1.388 . S
C948 C947 1.366 . S
C948 C952 1.385 . S
C949 H924 0.951 . S
C949 C947 1.388 . S
C949 C950 1.366 . S
C950 C949 1.366 . S
C950 C951 1.414 . S
C950 C953 1.499 . S
C951 H925 0.950 . S
C951 C950 1.414 . S
C951 C952 1.374 . S
C952 H926 0.950 . S
C952 C948 1.385 . S
C952 C951 1.374 . S
C953 C950 1.499 . S
C953 C954 1.373 . S
C953 C955 1.389 . S
C954 H927 0.950 . S
C954 C940 1.377 . S
C954 C953 1.373 . S
C955 C939 1.377 . S
C955 C953 1.389 . S
C955 C956 1.524 . S
C956 C955 1.524 . S
C956 C957 1.397 . S
C956 C961 1.363 . S
C957 H928 0.950 . S
C957 C956 1.397 . S
C957 C958 1.334 . S
C958 H929 0.950 . S
C958 C957 1.334 . S
C958 C959 1.287 . S
C959 C958 1.287 . S
C959 C960 1.524 . S
C959 H962 0.999 . S
C960 H930 0.950 . S
C960 C959 1.524 . S
C960 C961 1.415 . S
C961 H931 0.950 . S
C961 C956 1.363 . S
C961 C960 1.415 . S
H962 C959 0.999 . S
H963 C944 0.913 . S
H964 C982 0.951 . S
H965 C984 0.951 . S
H966 C986 0.950 . S
H967 C987 0.950 . S
H968 C989 0.950 . S
H969 C992 0.950 . S
H970 C993 0.950 . S
H971 C995 0.950 . S
H972 C996 0.950 . S
H973 C997 0.951 . S
H974 C999 0.951 . S
H975 C1001 0.950 . S
H976 C1002 0.950 . S
H977 C1004 0.950 . S
H978 C1007 0.950 . S
H979 C1008 0.950 . S
H980 C1010 0.950 . S
H981 C1011 0.950 . S
C982 H964 0.951 . S
C982 C983 1.366 . S
C982 C984 1.388 . S
C983 C982 1.366 . S
C983 C987 1.385 . S
C984 H965 0.951 . S
C984 C982 1.388 . S
C984 C985 1.366 . S
C985 C984 1.366 . S
C985 C986 1.414 . S
C985 C988 1.499 . S
C986 H966 0.950 . S
C986 C985 1.414 . S
C986 C987 1.374 . S
C987 H967 0.950 . S
C987 C983 1.385 . S
C987 C986 1.374 . S
C988 C985 1.499 . S
C988 C989 1.373 . S
C988 C990 1.389 . S
C989 H968 0.950 . S
C989 C988 1.373 . S
C989 C1005 1.377 . S
C990 C988 1.389 . S
C990 C991 1.524 . S
C990 C1004 1.377 . S
C991 C990 1.524 . S
C991 C992 1.397 . S
C991 C996 1.363 . S
C992 H969 0.950 . S
C992 C991 1.397 . S
C992 C993 1.334 . S
C993 H970 0.950 . S
C993 C992 1.334 . S
C993 C994 1.287 . S
C994 C993 1.287 . S
C994 C995 1.524 . S
C994 H1013 0.913 . S
C995 H971 0.950 . S
C995 C994 1.524 . S
C995 C996 1.415 . S
C996 H972 0.950 . S
C996 C991 1.363 . S
C996 C995 1.415 . S
C997 H973 0.951 . S
C997 C998 1.366 . S
C997 C999 1.388 . S
C998 C997 1.366 . S
C998 C1002 1.385 . S
C999 H974 0.951 . S
C999 C997 1.388 . S
C999 C1000 1.366 . S
C1000 C999 1.366 . S
C1000 C1001 1.414 . S
C1000 C1003 1.499 1_556 S
C1001 H975 0.950 . S
C1001 C1000 1.414 . S
C1001 C1002 1.374 . S
C1002 H976 0.950 . S
C1002 C998 1.385 . S
C1002 C1001 1.374 . S
C1003 C1000 1.499 1_554 S
C1003 C1004 1.373 . S
C1003 C1005 1.389 . S
C1004 H977 0.950 . S
C1004 C990 1.377 . S
C1004 C1003 1.373 . S
C1005 C989 1.377 . S
C1005 C1003 1.389 . S
C1005 C1006 1.524 . S
C1006 C1005 1.524 . S
C1006 C1007 1.397 . S
C1006 C1011 1.363 . S
C1007 H978 0.950 . S
C1007 C1006 1.397 . S
C1007 C1008 1.334 1_554 S
C1008 H979 0.950 . S
C1008 C1007 1.334 1_556 S
C1008 C1009 1.287 1_556 S
C1009 C1008 1.287 1_554 S
C1009 C1010 1.524 . S
C1009 H1012 0.999 1_554 S
C1010 H980 0.950 . S
C1010 C1009 1.524 . S
C1010 C1011 1.415 . S
C1011 H981 0.950 . S
C1011 C1006 1.363 . S
C1011 C1010 1.415 . S
H1012 C1009 0.999 1_556 S
H1013 C994 0.913 . S
H1014 C1032 0.951 . S
H1015 C1034 0.951 . S
H1016 C1036 0.950 . S
H1017 C1037 0.950 . S
H1018 C1039 0.950 . S
H1019 C1042 0.950 . S
H1020 C1043 0.950 . S
H1021 C1045 0.950 . S
H1022 C1046 0.950 . S
H1023 C1047 0.951 . S
H1024 C1049 0.951 . S
H1025 C1051 0.950 . S
H1026 C1052 0.950 . S
H1027 C1054 0.950 . S
H1028 C1057 0.950 . S
H1029 C1058 0.950 1_556 S
H1030 C1060 0.950 . S
H1031 C1061 0.950 . S
C1032 H1014 0.951 . S
C1032 C1033 1.366 . S
C1032 C1034 1.388 . S
C1033 C1032 1.366 . S
C1033 C1037 1.385 . S
C1034 H1015 0.951 . S
C1034 C1032 1.388 . S
C1034 C1035 1.366 . S
C1035 C1034 1.366 . S
C1035 C1036 1.414 . S
C1035 C1038 1.499 . S
C1036 H1016 0.950 . S
C1036 C1035 1.414 . S
C1036 C1037 1.374 . S
C1037 H1017 0.950 . S
C1037 C1033 1.385 . S
C1037 C1036 1.374 . S
C1038 C1035 1.499 . S
C1038 C1039 1.373 . S
C1038 C1040 1.389 . S
C1039 H1018 0.950 . S
C1039 C1038 1.373 . S
C1039 C1055 1.377 . S
C1040 C1038 1.389 . S
C1040 C1041 1.524 . S
C1040 C1054 1.377 . S
C1041 C1040 1.524 . S
C1041 C1042 1.397 . S
C1041 C1046 1.363 . S
C1042 H1019 0.950 . S
C1042 C1041 1.397 . S
C1042 C1043 1.334 . S
C1043 H1020 0.950 . S
C1043 C1042 1.334 . S
C1043 C1044 1.287 . S
C1044 C1043 1.287 . S
C1044 C1045 1.524 . S
C1044 H1063 0.913 . S
C1045 H1021 0.950 . S
C1045 C1044 1.524 . S
C1045 C1046 1.415 . S
C1046 H1022 0.950 . S
C1046 C1041 1.363 . S
C1046 C1045 1.415 . S
C1047 H1023 0.951 . S
C1047 C1048 1.366 . S
C1047 C1049 1.388 . S
C1048 C1047 1.366 . S
C1048 C1052 1.385 . S
C1049 H1024 0.951 . S
C1049 C1047 1.388 . S
C1049 C1050 1.366 . S
C1050 C1049 1.366 . S
C1050 C1051 1.414 . S
C1050 C1053 1.499 1_556 S
C1051 H1025 0.950 . S
C1051 C1050 1.414 . S
C1051 C1052 1.374 . S
C1052 H1026 0.950 . S
C1052 C1048 1.385 . S
C1052 C1051 1.374 . S
C1053 C1050 1.499 1_554 S
C1053 C1054 1.373 . S
C1053 C1055 1.389 . S
C1054 H1027 0.950 . S
C1054 C1040 1.377 . S
C1054 C1053 1.373 . S
C1055 C1039 1.377 . S
C1055 C1053 1.389 . S
C1055 C1056 1.524 . S
C1056 C1055 1.524 . S
C1056 C1057 1.397 . S
C1056 C1061 1.363 . S
C1057 H1028 0.950 . S
C1057 C1056 1.397 . S
C1057 C1058 1.334 . S
C1058 H1029 0.950 1_554 S
C1058 C1057 1.334 . S
C1058 C1059 1.287 . S
C1059 C1058 1.287 . S
C1059 C1060 1.524 . S
C1059 H1062 0.999 . S
C1060 H1030 0.950 . S
C1060 C1059 1.524 . S
C1060 C1061 1.415 . S
C1061 H1031 0.950 . S
C1061 C1056 1.363 . S
C1061 C1060 1.415 . S
H1062 C1059 0.999 . S
H1063 C1044 0.913 . S
H1064 C1082 0.951 . S
H1065 C1084 0.951 . S
H1066 C1086 0.950 . S
H1067 C1087 0.950 . S
H1068 C1089 0.950 . S
H1069 C1092 0.950 . S
H1070 C1093 0.950 . S
H1071 C1095 0.950 . S
H1072 C1096 0.950 . S
H1073 C1097 0.951 . S
H1074 C1099 0.951 . S
H1075 C1101 0.950 . S
H1076 C1102 0.950 . S
H1077 C1104 0.950 . S
H1078 C1107 0.950 . S
H1079 C1108 0.950 . S
H1080 C1110 0.950 . S
H1081 C1111 0.950 . S
C1082 H1064 0.951 . S
C1082 C1083 1.366 . S
C1082 C1084 1.388 . S
C1083 C1082 1.366 . S
C1083 C1087 1.385 . S
C1084 H1065 0.951 . S
C1084 C1082 1.388 . S
C1084 C1085 1.366 . S
C1085 C1084 1.366 . S
C1085 C1086 1.414 . S
C1085 C1088 1.499 . S
C1086 H1066 0.950 . S
C1086 C1085 1.414 . S
C1086 C1087 1.374 . S
C1087 H1067 0.950 . S
C1087 C1083 1.385 . S
C1087 C1086 1.374 . S
C1088 C1085 1.499 . S
C1088 C1089 1.373 . S
C1088 C1090 1.389 . S
C1089 H1068 0.950 . S
C1089 C1088 1.373 . S
C1089 C1105 1.377 . S
C1090 C1088 1.389 . S
C1090 C1091 1.524 . S
C1090 C1104 1.377 . S
C1091 C1090 1.524 . S
C1091 C1092 1.397 . S
C1091 C1096 1.363 . S
C1092 H1069 0.950 . S
C1092 C1091 1.397 . S
C1092 C1093 1.334 . S
C1093 H1070 0.950 . S
C1093 C1092 1.334 . S
C1093 C1094 1.287 . S
C1094 C1093 1.287 . S
C1094 C1095 1.524 . S
C1094 H1113 0.913 . S
C1095 H1071 0.950 . S
C1095 C1094 1.524 . S
C1095 C1096 1.415 . S
C1096 H1072 0.950 . S
C1096 C1091 1.363 . S
C1096 C1095 1.415 . S
C1097 H1073 0.951 . S
C1097 C1098 1.366 . S
C1097 C1099 1.388 . S
C1098 C1097 1.366 . S
C1098 C1102 1.385 . S
C1099 H1074 0.951 . S
C1099 C1097 1.388 . S
C1099 C1100 1.366 . S
C1100 C1099 1.366 . S
C1100 C1101 1.414 . S
C1100 C1103 1.499 . S
C1101 H1075 0.950 . S
C1101 C1100 1.414 . S
C1101 C1102 1.374 . S
C1102 H1076 0.950 . S
C1102 C1098 1.385 . S
C1102 C1101 1.374 . S
C1103 C1100 1.499 . S
C1103 C1104 1.373 . S
C1103 C1105 1.389 . S
C1104 H1077 0.950 . S
C1104 C1090 1.377 . S
C1104 C1103 1.373 . S
C1105 C1089 1.377 . S
C1105 C1103 1.389 . S
C1105 C1106 1.524 . S
C1106 C1105 1.524 . S
C1106 C1107 1.397 . S
C1106 C1111 1.363 . S
C1107 H1078 0.950 . S
C1107 C1106 1.397 . S
C1107 C1108 1.334 . S
C1108 H1079 0.950 . S
C1108 C1107 1.334 . S
C1108 C1109 1.287 . S
C1109 C1108 1.287 . S
C1109 C1110 1.524 . S
C1109 H1112 0.999 . S
C1110 H1080 0.950 . S
C1110 C1109 1.524 . S
C1110 C1111 1.415 . S
C1111 H1081 0.950 . S
C1111 C1106 1.363 . S
C1111 C1110 1.415 . S
H1112 C1109 0.999 . S
H1113 C1094 0.913 . S
H1114 C1132 0.951 . S
H1115 C1134 0.951 . S
H1116 C1136 0.950 . S
H1117 C1137 0.950 . S
H1118 C1139 0.950 . S
H1119 C1142 0.950 . S
H1120 C1143 0.950 . S
H1121 C1145 0.950 . S
H1122 C1146 0.950 . S
H1123 C1147 0.951 . S
H1124 C1149 0.951 . S
H1125 C1151 0.950 . S
H1126 C1152 0.950 . S
H1127 C1154 0.950 . S
H1128 C1157 0.950 . S
H1129 C1158 0.950 . S
H1130 C1160 0.950 . S
H1131 C1161 0.950 . S
C1132 H1114 0.951 . S
C1132 C1133 1.366 . S
C1132 C1134 1.388 . S
C1133 C1132 1.366 . S
C1133 C1137 1.385 . S
C1134 H1115 0.951 . S
C1134 C1132 1.388 . S
C1134 C1135 1.366 . S
C1135 C1134 1.366 . S
C1135 C1136 1.414 . S
C1135 C1138 1.499 . S
C1136 H1116 0.950 . S
C1136 C1135 1.414 . S
C1136 C1137 1.374 . S
C1137 H1117 0.950 . S
C1137 C1133 1.385 . S
C1137 C1136 1.374 . S
C1138 C1135 1.499 . S
C1138 C1139 1.373 . S
C1138 C1140 1.389 . S
C1139 H1118 0.950 . S
C1139 C1138 1.373 . S
C1139 C1155 1.377 . S
C1140 C1138 1.389 . S
C1140 C1141 1.524 . S
C1140 C1154 1.377 . S
C1141 C1140 1.524 . S
C1141 C1142 1.397 . S
C1141 C1146 1.363 . S
C1142 H1119 0.950 . S
C1142 C1141 1.397 . S
C1142 C1143 1.334 . S
C1143 H1120 0.950 . S
C1143 C1142 1.334 . S
C1143 C1144 1.287 . S
C1144 C1143 1.287 . S
C1144 C1145 1.524 . S
C1144 H1163 0.913 . S
C1145 H1121 0.950 . S
C1145 C1144 1.524 . S
C1145 C1146 1.415 . S
C1146 H1122 0.950 . S
C1146 C1141 1.363 . S
C1146 C1145 1.415 . S
C1147 H1123 0.951 . S
C1147 C1148 1.366 . S
C1147 C1149 1.388 . S
C1148 C1147 1.366 . S
C1148 C1152 1.385 . S
C1149 H1124 0.951 . S
C1149 C1147 1.388 . S
C1149 C1150 1.366 . S
C1150 C1149 1.366 . S
C1150 C1151 1.414 . S
C1150 C1153 1.499 . S
C1151 H1125 0.950 . S
C1151 C1150 1.414 . S
C1151 C1152 1.374 . S
C1152 H1126 0.950 . S
C1152 C1148 1.385 . S
C1152 C1151 1.374 . S
C1153 C1150 1.499 . S
C1153 C1154 1.373 . S
C1153 C1155 1.389 . S
C1154 H1127 0.950 . S
C1154 C1140 1.377 . S
C1154 C1153 1.373 . S
C1155 C1139 1.377 . S
C1155 C1153 1.389 . S
C1155 C1156 1.524 . S
C1156 C1155 1.524 . S
C1156 C1157 1.397 . S
C1156 C1161 1.363 . S
C1157 H1128 0.950 . S
C1157 C1156 1.397 . S
C1157 C1158 1.334 . S
C1158 H1129 0.950 . S
C1158 C1157 1.334 . S
C1158 C1159 1.287 . S
C1159 C1158 1.287 . S
C1159 C1160 1.524 . S
C1159 H1162 0.999 . S
C1160 H1130 0.950 . S
C1160 C1159 1.524 . S
C1160 C1161 1.415 . S
C1161 H1131 0.950 . S
C1161 C1156 1.363 . S
C1161 C1160 1.415 . S
H1162 C1159 0.999 . S
H1163 C1144 0.913 . S
H1164 C1182 0.951 . S
H1165 C1184 0.951 . S
H1166 C1186 0.950 . S
H1167 C1187 0.950 . S
H1168 C1189 0.950 . S
H1169 C1192 0.950 . S
H1170 C1193 0.950 . S
H1171 C1195 0.950 . S
H1172 C1196 0.950 . S
H1173 C1197 0.951 . S
H1174 C1199 0.951 . S
H1175 C1201 0.950 . S
H1176 C1202 0.950 . S
H1177 C1204 0.950 . S
H1178 C1207 0.950 . S
H1179 C1208 0.950 . S
H1180 C1210 0.950 . S
H1181 C1211 0.950 . S
C1182 H1164 0.951 . S
C1182 C1183 1.366 . S
C1182 C1184 1.388 . S
C1183 C1182 1.366 . S
C1183 C1187 1.385 . S
C1184 H1165 0.951 . S
C1184 C1182 1.388 . S
C1184 C1185 1.366 . S
C1185 C1184 1.366 . S
C1185 C1186 1.414 . S
C1185 C1188 1.499 . S
C1186 H1166 0.950 . S
C1186 C1185 1.414 . S
C1186 C1187 1.374 . S
C1187 H1167 0.950 . S
C1187 C1183 1.385 . S
C1187 C1186 1.374 . S
C1188 C1185 1.499 . S
C1188 C1189 1.373 . S
C1188 C1190 1.389 . S
C1189 H1168 0.950 . S
C1189 C1188 1.373 . S
C1189 C1205 1.377 . S
C1190 C1188 1.389 . S
C1190 C1191 1.524 . S
C1190 C1204 1.377 . S
C1191 C1190 1.524 . S
C1191 C1192 1.397 . S
C1191 C1196 1.363 . S
C1192 H1169 0.950 . S
C1192 C1191 1.397 . S
C1192 C1193 1.334 . S
C1193 H1170 0.950 . S
C1193 C1192 1.334 . S
C1193 C1194 1.287 . S
C1194 C1193 1.287 . S
C1194 C1195 1.524 . S
C1194 H1213 0.913 1_556 S
C1195 H1171 0.950 . S
C1195 C1194 1.524 . S
C1195 C1196 1.415 . S
C1196 H1172 0.950 . S
C1196 C1191 1.363 . S
C1196 C1195 1.415 . S
C1197 H1173 0.951 . S
C1197 C1198 1.366 . S
C1197 C1199 1.388 . S
C1198 C1197 1.366 . S
C1198 C1202 1.385 . S
C1199 H1174 0.951 . S
C1199 C1197 1.388 . S
C1199 C1200 1.366 . S
C1200 C1199 1.366 . S
C1200 C1201 1.414 . S
C1200 C1203 1.499 . S
C1201 H1175 0.950 . S
C1201 C1200 1.414 . S
C1201 C1202 1.374 . S
C1202 H1176 0.950 . S
C1202 C1198 1.385 . S
C1202 C1201 1.374 . S
C1203 C1200 1.499 . S
C1203 C1204 1.373 . S
C1203 C1205 1.389 . S
C1204 H1177 0.950 . S
C1204 C1190 1.377 . S
C1204 C1203 1.373 . S
C1205 C1189 1.377 . S
C1205 C1203 1.389 . S
C1205 C1206 1.524 . S
C1206 C1205 1.524 . S
C1206 C1207 1.397 . S
C1206 C1211 1.363 . S
C1207 H1178 0.950 . S
C1207 C1206 1.397 . S
C1207 C1208 1.334 . S
C1208 H1179 0.950 . S
C1208 C1207 1.334 . S
C1208 C1209 1.287 . S
C1209 C1208 1.287 . S
C1209 C1210 1.524 . S
C1209 H1212 0.999 . S
C1210 H1180 0.950 . S
C1210 C1209 1.524 . S
C1210 C1211 1.415 . S
C1211 H1181 0.950 . S
C1211 C1206 1.363 . S
C1211 C1210 1.415 . S
H1212 C1209 0.999 . S
H1213 C1194 0.913 1_554 S
H1214 C1232 0.951 . S
H1215 C1234 0.951 . S
H1216 C1236 0.950 . S
H1217 C1237 0.950 . S
H1218 C1239 0.950 . S
H1219 C1242 0.950 . S
H1220 C1243 0.950 . S
H1221 C1245 0.950 . S
H1222 C1246 0.950 . S
H1223 C1247 0.951 . S
H1224 C1249 0.951 . S
H1225 C1251 0.950 . S
H1226 C1252 0.950 . S
H1227 C1254 0.950 . S
H1228 C1257 0.950 . S
H1229 C1258 0.950 . S
H1230 C1260 0.950 . S
H1231 C1261 0.950 . S
C1232 H1214 0.951 . S
C1232 C1233 1.366 . S
C1232 C1234 1.388 . S
C1233 C1232 1.366 . S
C1233 C1237 1.385 . S
C1234 H1215 0.951 . S
C1234 C1232 1.388 . S
C1234 C1235 1.366 . S
C1235 C1234 1.366 . S
C1235 C1236 1.414 . S
C1235 C1238 1.499 . S
C1236 H1216 0.950 . S
C1236 C1235 1.414 . S
C1236 C1237 1.374 . S
C1237 H1217 0.950 . S
C1237 C1233 1.385 . S
C1237 C1236 1.374 . S
C1238 C1235 1.499 . S
C1238 C1239 1.373 . S
C1238 C1240 1.389 . S
C1239 H1218 0.950 . S
C1239 C1238 1.373 . S
C1239 C1255 1.377 . S
C1240 C1238 1.389 . S
C1240 C1241 1.524 . S
C1240 C1254 1.377 . S
C1241 C1240 1.524 . S
C1241 C1242 1.397 . S
C1241 C1246 1.363 . S
C1242 H1219 0.950 . S
C1242 C1241 1.397 . S
C1242 C1243 1.334 . S
C1243 H1220 0.950 . S
C1243 C1242 1.334 . S
C1243 C1244 1.287 . S
C1244 C1243 1.287 . S
C1244 C1245 1.524 . S
C1244 H1263 0.913 . S
C1245 H1221 0.950 . S
C1245 C1244 1.524 . S
C1245 C1246 1.415 . S
C1246 H1222 0.950 . S
C1246 C1241 1.363 . S
C1246 C1245 1.415 . S
C1247 H1223 0.951 . S
C1247 C1248 1.366 . S
C1247 C1249 1.388 . S
C1248 C1247 1.366 . S
C1248 C1252 1.385 . S
C1249 H1224 0.951 . S
C1249 C1247 1.388 . S
C1249 C1250 1.366 . S
C1250 C1249 1.366 . S
C1250 C1251 1.414 . S
C1250 C1253 1.499 . S
C1251 H1225 0.950 . S
C1251 C1250 1.414 . S
C1251 C1252 1.374 . S
C1252 H1226 0.950 . S
C1252 C1248 1.385 . S
C1252 C1251 1.374 . S
C1253 C1250 1.499 . S
C1253 C1254 1.373 . S
C1253 C1255 1.389 . S
C1254 H1227 0.950 . S
C1254 C1240 1.377 . S
C1254 C1253 1.373 . S
C1255 C1239 1.377 . S
C1255 C1253 1.389 . S
C1255 C1256 1.524 . S
C1256 C1255 1.524 . S
C1256 C1257 1.397 . S
C1256 C1261 1.363 . S
C1257 H1228 0.950 . S
C1257 C1256 1.397 . S
C1257 C1258 1.334 . S
C1258 H1229 0.950 . S
C1258 C1257 1.334 . S
C1258 C1259 1.287 . S
C1259 C1258 1.287 . S
C1259 C1260 1.524 . S
C1259 H1262 0.999 . S
C1260 H1230 0.950 . S
C1260 C1259 1.524 . S
C1260 C1261 1.415 . S
C1261 H1231 0.950 . S
C1261 C1256 1.363 . S
C1261 C1260 1.415 . S
H1262 C1259 0.999 . S
H1263 C1244 0.913 . S
C283 C54 1.508 . S
C298 C21 1.508 . S
C333 C87 1.508 . S
C348 C120 1.508 . S
C383 C186 1.508 . S
C398 C153 1.508 . S
C433 C219 1.508 . S
C448 C252 1.508 . S
C483 C139 1.508 . S
C498 C7 1.508 . S
C533 C40 1.508 . S
C548 C172 1.508 . S
C583 C73 1.508 . S
C598 C205 1.508 . S
C633 C106 1.508 . S
C648 C238 1.508 . S
C683 N2 1.271 . S
C698 N13 1.272 . S
C733 N46 1.272 . S
C748 N35 1.271 . S
C783 N68 1.270 . S
C798 N79 1.272 . S
C833 N112 1.272 . S
C848 N101 1.270 . S
C883 N134 1.270 . S
C898 N145 1.272 . S
C933 N178 1.272 . S
C948 N167 1.271 . S
C983 N200 1.270 . S
C998 N211 1.272 . S
C1033 N233 1.271 . S
C1048 N244 1.272 . S
C1083 C18 1.524 . S
C1098 C84 1.524 . S
C1133 C51 1.524 . S
C1148 C117 1.524 . S
C1183 C150 1.524 . S
C1198 C216 1.524 . S
C1233 C183 1.524 . S
C1248 C249 1.524 . S
