# Generated by pormake.
# Topology vmh, (6)-cn, num edge types: 1
# Building blocks:
#     Node 0, Type 0, BuildingBlock: IZENUY_clean_sbu_0, # of connection points: 6
#     Node 1, Type 0, BuildingBlock: IZENUY_clean_sbu_0, # of connection points: 6
#     Node 2, Type 0, BuildingBlock: IZENUY_clean_sbu_0, # of connection points: 6
#     Node 3, Type 0, BuildingBlock: IZENUY_clean_sbu_0, # of connection points: 6
#     Node 4, Type 0, BuildingBlock: IZENUY_clean_sbu_0, # of connection points: 6
#     Node 5, Type 0, BuildingBlock: IZENUY_clean_sbu_0, # of connection points: 6
#     Node 6, Type 0, BuildingBlock: IZENUY_clean_sbu_0, # of connection points: 6
#     Node 7, Type 0, BuildingBlock: IZENUY_clean_sbu_0, # of connection points: 6
#     Edge 8, Type (0, 0), BuildingBlock: ZUJKAS_clean_linker_0, # of connection points: 2
#     Edge 9, Type (0, 0), BuildingBlock: ZUJKAS_clean_linker_0, # of connection points: 2
#     Edge 10, Type (0, 0), BuildingBlock: ZUJKAS_clean_linker_0, # of connection points: 2
#     Edge 11, Type (0, 0), BuildingBlock: ZUJKAS_clean_linker_0, # of connection points: 2
#     Edge 12, Type (0, 0), BuildingBlock: ZUJKAS_clean_linker_0, # of connection points: 2
#     Edge 13, Type (0, 0), BuildingBlock: ZUJKAS_clean_linker_0, # of connection points: 2
#     Edge 14, Type (0, 0), BuildingBlock: ZUJKAS_clean_linker_0, # of connection points: 2
#     Edge 15, Type (0, 0), BuildingBlock: ZUJKAS_clean_linker_0, # of connection points: 2
#     Edge 16, Type (0, 0), BuildingBlock: ZUJKAS_clean_linker_0, # of connection points: 2
#     Edge 17, Type (0, 0), BuildingBlock: ZUJKAS_clean_linker_0, # of connection points: 2
#     Edge 18, Type (0, 0), BuildingBlock: ZUJKAS_clean_linker_0, # of connection points: 2
#     Edge 19, Type (0, 0), BuildingBlock: ZUJKAS_clean_linker_0, # of connection points: 2
#     Edge 20, Type (0, 0), BuildingBlock: ZUJKAS_clean_linker_0, # of connection points: 2
#     Edge 21, Type (0, 0), BuildingBlock: ZUJKAS_clean_linker_0, # of connection points: 2
#     Edge 22, Type (0, 0), BuildingBlock: ZUJKAS_clean_linker_0, # of connection points: 2
#     Edge 23, Type (0, 0), BuildingBlock: ZUJKAS_clean_linker_0, # of connection points: 2
#     Edge 24, Type (0, 0), BuildingBlock: ZUJKAS_clean_linker_0, # of connection points: 2
#     Edge 25, Type (0, 0), BuildingBlock: ZUJKAS_clean_linker_0, # of connection points: 2
#     Edge 26, Type (0, 0), BuildingBlock: ZUJKAS_clean_linker_0, # of connection points: 2
#     Edge 27, Type (0, 0), BuildingBlock: ZUJKAS_clean_linker_0, # of connection points: 2
#     Edge 28, Type (0, 0), BuildingBlock: ZUJKAS_clean_linker_0, # of connection points: 2
#     Edge 29, Type (0, 0), BuildingBlock: ZUJKAS_clean_linker_0, # of connection points: 2
#     Edge 30, Type (0, 0), BuildingBlock: ZUJKAS_clean_linker_0, # of connection points: 2
#     Edge 31, Type (0, 0), BuildingBlock: ZUJKAS_clean_linker_0, # of connection points: 2
# Relax obj value: 0.247
# Max RMSD: 0.263
# Mean RMSD: 0.263
data_MOF--net-vmh--node1-IZENUY_clean_sbu_0--edge1-ZUJKAS_clean_linker_0
_symmetry_space_group_name_H-M    P1
_symmetry_Int_Tables_number       1
_symmetry_cell_setting            triclinic
loop_
_symmetry_equiv_pos_as_xyz
'x, y, z'
_cell_length_a     35.97631
_cell_length_b     55.223291
_cell_length_c     37.003369
_cell_angle_alpha  89.924518
_cell_angle_beta   104.23706
_cell_angle_gamma 90.078545
loop_
_atom_site_label
_atom_site_type_symbol
_atom_site_fract_x
_atom_site_fract_y
_atom_site_fract_z
_atom_type_partial_charge
Fe0 Fe 0.26016 0.09416 0.08853 0.0
Fe1 Fe 0.26531 0.04751 0.04376 0.0
O2 O 0.27922 0.07793 0.05574 0.0
Fe3 Fe 0.31313 0.09184 0.03485 0.0
O4 O 0.34661 0.09513 0.07937 0.0
O5 O 0.30634 0.1098 0.11015 0.0
O6 O 0.27575 0.07136 0.12395 0.0
C7 C 0.26829 0.04911 0.12123 0.0
C8 C 0.26425 0.13114 0.03994 0.0
O9 O 0.25759 0.03912 0.0896 0.0
C10 C 0.26958 0.0687 0.97468 0.0
O11 O 0.2113 0.08022 0.0729 0.0
O12 O 0.21595 0.05626 0.02647 0.0
O13 O 0.29568 0.12256 0.03669 0.0
O14 O 0.24315 0.11918 0.05619 0.0
C15 C 0.34182 0.04483 0.04858 0.0
O16 O 0.26982 0.05031 0.99539 0.0
O17 O 0.28139 0.08896 0.98874 0.0
C18 C 0.19578 0.06715 0.0447 0.0
O19 O 0.31432 0.03655 0.06033 0.0
O20 O 0.33807 0.06396 0.02945 0.0
C21 C 0.34049 0.10507 0.10797 0.0
Fe22 Fe 0.76932 0.09448 0.41759 0.0
Fe23 Fe 0.7544 0.04896 0.45979 0.0
O24 O 0.74542 0.07983 0.44818 0.0
Fe25 Fe 0.71169 0.09601 0.46631 0.0
O26 O 0.69514 0.11512 0.42488 0.0
O27 O 0.72345 0.1 0.38394 0.0
O28 O 0.77351 0.06721 0.3907 0.0
C29 C 0.75425 0.04776 0.386 0.0
C30 C 0.76447 0.13147 0.47036 0.0
O31 O 0.73933 0.03985 0.4112 0.0
C32 C 0.74982 0.06666 0.52742 0.0
O33 O 0.8166 0.08886 0.44916 0.0
O34 O 0.80465 0.0504 0.45842 0.0
O35 O 0.74754 0.1178 0.48844 0.0
O36 O 0.76907 0.12481 0.43888 0.0
C37 C 0.6742 0.05301 0.45133 0.0
O38 O 0.77013 0.05585 0.50917 0.0
O39 O 0.72171 0.07962 0.51093 0.0
C40 C 0.82793 0.0679 0.46122 0.0
O41 O 0.70566 0.0421 0.46361 0.0
O42 O 0.67356 0.07542 0.44521 0.0
C43 C 0.69476 0.11017 0.39143 0.0
Fe44 Fe 0.75548 0.97022 0.96434 0.0
Fe45 Fe 0.76054 0.92394 0.91891 0.0
O46 O 0.74171 0.93981 0.95216 0.0
Fe47 Fe 0.70821 0.92564 0.97326 0.0
O48 O 0.68296 0.9534 0.97867 0.0
O49 O 0.70635 0.98102 0.94777 0.0
O50 O 0.76337 0.97879 0.91865 0.0
C51 C 0.75183 0.9691 0.88692 0.0
C52 C 0.75168 0.94891 0.03333 0.0
O53 O 0.74411 0.9469 0.88387 0.0
C54 C 0.75763 0.88676 0.96759 0.0
O55 O 0.80485 0.96147 0.98155 0.0
O56 O 0.80928 0.93814 0.93435 0.0
O57 O 0.74014 0.92862 0.01927 0.0
O58 O 0.75093 0.96735 0.01263 0.0
C59 C 0.68048 0.91247 0.9001 0.0
O60 O 0.77819 0.89882 0.95085 0.0
O61 O 0.72622 0.89509 0.97133 0.0
C62 C 0.82494 0.95091 0.96289 0.0
O63 O 0.71457 0.90808 0.8975 0.0
O64 O 0.67446 0.92216 0.92891 0.0
C65 C 0.6789 0.97248 0.95939 0.0
Fe66 Fe 0.25121 0.92392 0.58947 0.0
Fe67 Fe 0.30901 0.92181 0.54096 0.0
O68 O 0.27547 0.93832 0.55891 0.0
Fe69 Fe 0.26703 0.96926 0.54731 0.0
O70 O 0.28203 0.97831 0.59598 0.0
O71 O 0.24703 0.95131 0.61607 0.0
O72 O 0.29688 0.91839 0.62333 0.0
C73 C 0.32569 0.90819 0.61612 0.0
C74 C 0.19313 0.95066 0.54548 0.0
O75 O 0.32548 0.903 0.58277 0.0
C76 C 0.27127 0.95121 0.47961 0.0
O77 O 0.25136 0.89343 0.56868 0.0
O78 O 0.27297 0.90005 0.51914 0.0
O79 O 0.21665 0.96805 0.5484 0.0
O80 O 0.20415 0.92964 0.55761 0.0
C81 C 0.34713 0.9647 0.55563 0.0
O82 O 0.2989 0.93786 0.49607 0.0
O83 O 0.2515 0.96254 0.49787 0.0
C84 C 0.25604 0.88653 0.53736 0.0
O85 O 0.34744 0.94229 0.56165 0.0
O86 O 0.31585 0.97585 0.54366 0.0
C87 C 0.26675 0.97056 0.62101 0.0
Fe88 Fe 0.76163 0.59333 0.08543 0.0
Fe89 Fe 0.76359 0.54772 0.03789 0.0
O90 O 0.77965 0.57752 0.05157 0.0
Fe91 Fe 0.81452 0.59114 0.0316 0.0
O92 O 0.84802 0.59345 0.07651 0.0
O93 O 0.80803 0.60834 0.10728 0.0
O94 O 0.77712 0.56959 0.11954 0.0
C95 C 0.76797 0.54761 0.11528 0.0
C96 C 0.76668 0.63082 0.038 0.0
O97 O 0.75497 0.53884 0.08311 0.0
C98 C 0.76973 0.56966 0.97017 0.0
O99 O 0.71231 0.58011 0.06984 0.0
O100 O 0.715 0.55809 0.02092 0.0
O101 O 0.79792 0.62201 0.03442 0.0
O102 O 0.74532 0.619 0.05421 0.0
C103 C 0.84008 0.54329 0.0434 0.0
O104 O 0.76857 0.55104 0.98993 0.0
O105 O 0.7833 0.58937 0.985 0.0
C106 C 0.69569 0.56833 0.04062 0.0
O107 O 0.81171 0.53535 0.0541 0.0
O108 O 0.83811 0.56287 0.02549 0.0
C109 C 0.84201 0.60326 0.10526 0.0
Fe110 Fe 0.26282 0.59377 0.42268 0.0
Fe111 Fe 0.25809 0.54853 0.47025 0.0
O112 O 0.24448 0.57884 0.45717 0.0
Fe113 Fe 0.21178 0.59367 0.47847 0.0
O114 O 0.17754 0.59747 0.4343 0.0
O115 O 0.2174 0.60989 0.4014 0.0
O116 O 0.24501 0.57028 0.3888 0.0
C117 C 0.25298 0.54816 0.39288 0.0
C118 C 0.2623 0.6317 0.47067 0.0
O119 O 0.26592 0.53929 0.42496 0.0
C120 C 0.25484 0.57022 0.53888 0.0
O121 O 0.31116 0.57932 0.43797 0.0
O122 O 0.30747 0.55745 0.48699 0.0
O123 O 0.23118 0.62388 0.47612 0.0
O124 O 0.2816 0.61921 0.45325 0.0
C125 C 0.18148 0.54696 0.46507 0.0
O126 O 0.25355 0.55174 0.51834 0.0
O127 O 0.24383 0.59055 0.5246 0.0
C128 C 0.3272 0.56745 0.46734 0.0
O129 O 0.20892 0.53789 0.45406 0.0
O130 O 0.18577 0.56619 0.48404 0.0
C131 C 0.18344 0.60635 0.40484 0.0
Fe132 Fe 0.25891 0.47077 0.97013 0.0
Fe133 Fe 0.26212 0.42501 0.9231 0.0
O134 O 0.24342 0.44086 0.95652 0.0
Fe135 Fe 0.20841 0.42712 0.97623 0.0
O136 O 0.18448 0.45528 0.98221 0.0
O137 O 0.21065 0.48285 0.95359 0.0
O138 O 0.26757 0.47973 0.92502 0.0
C139 C 0.25597 0.47072 0.8928 0.0
C140 C 0.25262 0.44875 0.0378 0.0
O141 O 0.24737 0.44864 0.88868 0.0
C142 C 0.2564 0.38745 0.97026 0.0
O143 O 0.30769 0.46081 0.98743 0.0
O144 O 0.3113 0.43823 0.9393 0.0
O145 O 0.23931 0.42897 0.02296 0.0
O146 O 0.25372 0.46738 0.01802 0.0
C147 C 0.18166 0.41503 0.90249 0.0
O148 O 0.27805 0.39936 0.95451 0.0
O149 O 0.22509 0.39626 0.97352 0.0
C150 C 0.32741 0.45038 0.96829 0.0
O151 O 0.21577 0.41003 0.9007 0.0
O152 O 0.17532 0.42475 0.93115 0.0
C153 C 0.1823 0.47481 0.96419 0.0
Fe154 Fe 0.75924 0.42434 0.58624 0.0
Fe155 Fe 0.81034 0.4247 0.53054 0.0
O156 O 0.77704 0.43929 0.55139 0.0
Fe157 Fe 0.76226 0.4693 0.53759 0.0
O158 O 0.75464 0.47876 0.58289 0.0
O159 O 0.77661 0.44817 0.61962 0.0
O160 O 0.80507 0.40866 0.60761 0.0
C161 C 0.83896 0.41265 0.60429 0.0
C162 C 0.69393 0.44976 0.54151 0.0
O163 O 0.84462 0.42171 0.57486 0.0
C164 C 0.76607 0.44698 0.46958 0.0
O165 O 0.74101 0.39867 0.55599 0.0
O166 O 0.79189 0.39428 0.5337 0.0
O167 O 0.71319 0.45968 0.52139 0.0
O168 O 0.71051 0.43829 0.57109 0.0
C169 C 0.83877 0.47197 0.54224 0.0
O170 O 0.77844 0.42701 0.4843 0.0
O171 O 0.76641 0.46568 0.48945 0.0
C172 C 0.76076 0.38626 0.53891 0.0
O173 O 0.83535 0.4524 0.52415 0.0
O174 O 0.81104 0.48074 0.55308 0.0
C175 C 0.76809 0.4702 0.61512 0.0
H176 H 0.29018 0.09857 0.92349 0.0
H177 H 0.2868 0.08944 0.85793 0.0
H178 H 0.2315 0.02142 0.86865 0.0
H179 H 0.23474 0.0303 0.93394 0.0
H180 H 0.32211 0.04733 0.83516 0.0
H181 H 0.16605 0.05044 0.77033 0.0
H182 H 0.18762 0.06512 0.81411 0.0
H183 H 0.17819 0.0331 0.8127 0.0
C184 C 0.27658 0.0819 0.91168 0.0
C185 C 0.26283 0.0651 0.93396 0.0
C186 C 0.27481 0.0767 0.87428 0.0
C187 C 0.25864 0.05487 0.85844 0.0
C188 C 0.24357 0.03854 0.8802 0.0
H189 H 0.23863 0.95812 0.68037 0.0
H190 H 0.23829 0.98215 0.73535 0.0
C191 C 0.24563 0.04359 0.91758 0.0
C192 C 0.26039 0.04789 0.82029 0.0
H193 H 0.20449 0.02809 0.73733 0.0
C194 C 0.29648 0.04359 0.81339 0.0
C195 C 0.22687 0.04307 0.79209 0.0
C196 C 0.18747 0.04838 0.79747 0.0
C197 C 0.29987 0.03305 0.77982 0.0
C198 C 0.26625 0.02708 0.75235 0.0
C199 C 0.23023 0.0326 0.75853 0.0
C200 C 0.26754 0.01289 0.71875 0.0
C201 C 0.33924 0.02704 0.7749 0.0
C202 C 0.2843 0.0222 0.69114 0.0
C203 C 0.28469 1.0084 0.65947 0.0
C204 C 0.26808 0.98515 0.65489 0.0
C205 C 0.25157 0.97596 0.68282 0.0
C206 C 0.25126 0.98969 0.71431 0.0
H207 H 0.36185 0.0292 0.80121 0.0
H208 H 0.34003 1.00815 0.76486 0.0
H209 H 0.34612 0.03929 0.75366 0.0
H210 H 0.29663 0.0402 0.69386 0.0
H211 H 0.29753 0.01604 0.63843 0.0
H212 H 0.7934 0.00963 0.87925 0.0
H213 H 0.79683 0.02962 0.82096 0.0
H214 H 0.71175 0.98015 0.75908 0.0
H215 H 0.70932 0.95962 0.81688 0.0
H216 H 0.77033 0.98286 0.72874 0.0
H217 H 0.72625 0.07619 0.75434 0.0
H218 H 0.76683 0.06556 0.78927 0.0
H219 H 0.72099 0.05101 0.7838 0.0
C220 C 0.77503 1.00329 0.85323 0.0
C221 C 0.75112 0.98306 0.8526 0.0
C222 C 0.77689 0.01479 0.81993 0.0
C223 C 0.75425 1.00658 0.78557 0.0
C224 C 0.72957 0.98681 0.78517 0.0
H225 H 0.69856 0.07406 0.56976 0.0
H226 H 0.70338 0.06056 0.6335 0.0
C227 C 0.72815 0.97511 0.81825 0.0
C228 C 0.7576 0.01743 0.7497 0.0
H229 H 0.74907 0.07021 0.70005 0.0
C230 C 0.76567 1.00197 0.72249 0.0
C231 C 0.75129 0.04235 0.74142 0.0
C232 C 0.74049 0.05972 0.76859 0.0
C233 C 0.76689 0.01055 0.68709 0.0
C234 C 0.76132 0.03555 0.67902 0.0
C235 C 0.75379 0.05111 0.70639 0.0
C236 C 0.76037 0.04554 0.64146 0.0
C237 C 0.77251 0.9925 0.65828 0.0
C238 C 0.79126 0.04225 0.62494 0.0
C239 C 0.78835 0.04963 0.58814 0.0
C240 C 0.7548 0.06093 0.56747 0.0
C241 C 0.72481 0.06541 0.58483 0.0
C242 C 0.72753 0.0577 0.62135 0.0
H243 H 0.76598 0.97372 0.66562 0.0
H244 H 0.75401 0.99686 0.63032 0.0
H245 H 0.80287 0.99297 0.65659 0.0
H246 H 0.81735 0.03355 0.64026 0.0
H247 H 0.81213 0.04619 0.57571 0.0
H248 H 0.7814 0.06037 0.3261 0.0
H249 H 0.78221 0.0361 0.27145 0.0
H250 H 0.72634 0.97749 0.31448 0.0
H251 H 0.72496 1.00188 0.36954 0.0
H252 H 0.81753 0.99052 0.27015 0.0
H253 H 0.66005 0.98716 0.20729 0.0
H254 H 0.68137 1.00865 0.24316 0.0
H255 H 0.67643 0.97749 0.25499 0.0
C256 C 0.7691 0.04236 0.32404 0.0
C257 C 0.75313 0.03307 0.35228 0.0
C258 C 0.76968 0.02849 0.29276 0.0
C259 C 0.75422 1.00506 0.28886 0.0
C260 C 0.73801 0.99566 0.31679 0.0
H261 H 0.73213 0.91878 0.08481 0.0
H262 H 0.73596 0.92785 0.15049 0.0
C263 C 0.73734 0.0096 0.34823 0.0
C264 C 0.75575 0.99072 0.25549 0.0
H265 H 0.70007 0.96935 0.17336 0.0
C266 C 0.79185 0.98559 0.24918 0.0
C267 C 0.7222 0.98418 0.22835 0.0
C268 C 0.68274 0.98973 0.23345 0.0
C269 C 0.7953 0.97497 0.21576 0.0
C270 C 0.7618 0.96962 0.18784 0.0
C271 C 0.72569 0.9735 0.19492 0.0
C272 C 0.76349 0.96262 0.14969 0.0
C273 C 0.83478 0.97009 0.21023 0.0
C274 C 0.77806 0.97908 0.12773 0.0
C275 C 0.77575 0.97405 0.09032 0.0
C276 C 0.75876 0.95246 0.07407 0.0
C277 C 0.74555 0.93553 0.09653 0.0
C278 C 0.74759 0.94069 0.13399 0.0
H279 H 0.85632 0.96821 0.23733 0.0
H280 H 0.83501 0.95339 0.1936 0.0
H281 H 0.84361 0.98551 0.19496 0.0
H282 H 0.78988 0.99628 0.13917 0.0
H283 H 0.78624 0.98745 0.07381 0.0
H284 H 0.29151 0.06513 0.19299 0.0
H285 H 0.29065 0.04335 0.24999 0.0
H286 H 0.24663 0.97987 0.18584 0.0
H287 H 0.24677 1.00176 0.12807 0.0
H288 H 0.20736 0.99107 0.24005 0.0
H289 H 0.36405 0.99077 0.30136 0.0
H290 H 0.34589 0.02056 0.28801 0.0
H291 H 0.3434 0.99769 0.25288 0.0
C292 C 0.28181 0.04648 0.1908 0.0
C293 C 0.26927 0.03519 0.15582 0.0
C294 C 0.28157 0.03401 0.22355 0.0
C295 C 0.26917 0.00987 0.22224 0.0
C296 C 0.25656 0.99846 0.18747 0.0
H297 H 0.30663 0.92905 0.43105 0.0
H298 H 0.3031 0.94009 0.36638 0.0
C299 C 0.25677 0.01097 0.15451 0.0
C300 C 0.26833 0.99706 0.25733 0.0
H301 H 0.32429 0.98288 0.34336 0.0
C302 C 0.23297 0.98897 0.2625 0.0
C303 C 0.30183 0.99402 0.28641 0.0
C304 C 0.34099 1.00099 0.28181 0.0
C305 C 0.23001 0.97887 0.2966 0.0
C306 C 0.26319 0.97722 0.32643 0.0
C307 C 0.29876 0.98437 0.32065 0.0
C308 C 0.26179 0.96883 0.36426 0.0
C309 C 0.1914 0.9701 0.3003 0.0
C310 C 0.23939 0.98111 0.38454 0.0
C311 C 0.24119 0.97476 0.42157 0.0
C312 C 0.26584 0.95619 0.43921 0.0
C313 C 0.28744 0.9435 0.41845 0.0
C314 C 0.28547 0.94979 0.38143 0.0
H315 H 0.17225 0.96557 0.27269 0.0
H316 H 0.19427 0.95388 0.31855 0.0
H317 H 0.17741 0.98466 0.31282 0.0
H318 H 0.22155 0.99622 0.37222 0.0
H319 H 0.22428 0.985 0.43672 0.0
H320 H 0.72026 0.50714 0.62299 0.0
H321 H 0.719 0.52869 0.68046 0.0
H322 H 0.81931 0.48924 0.73919 0.0
H323 H 0.8192 0.46673 0.68237 0.0
H324 H 0.76914 0.48746 0.7769 0.0
H325 H 0.77835 0.58321 0.73597 0.0
H326 H 0.73834 0.56807 0.70606 0.0
H327 H 0.78644 0.55847 0.70708 0.0
C328 C 0.74235 0.50339 0.64809 0.0
C329 C 0.7698 0.48528 0.64836 0.0
C330 C 0.7418 0.51585 0.68088 0.0
C331 C 0.76941 0.51092 0.71418 0.0
C332 C 0.79766 0.4934 0.71394 0.0
H333 H 0.81061 0.58894 0.92398 0.0
H334 H 0.80799 0.57619 0.85998 0.0
C335 C 0.79764 0.48056 0.68148 0.0
C336 C 0.76709 0.52224 0.75003 0.0
H337 H 0.75979 0.57618 0.79298 0.0
C338 C 0.7674 0.50689 0.78038 0.0
C339 C 0.76515 0.54762 0.75486 0.0
C340 C 0.76747 0.56529 0.72436 0.0
C341 C 0.76594 0.51606 0.81527 0.0
C342 C 0.76206 0.54134 0.81965 0.0
C343 C 0.762 0.55679 0.78943 0.0
C344 C 0.75974 0.55195 0.85591 0.0
C345 C 0.76989 0.49849 0.84733 0.0
C346 C 0.7323 0.54356 0.87419 0.0
C347 C 0.73435 0.55037 0.91095 0.0
C348 C 0.76297 0.56642 0.92956 0.0
C349 C 0.78817 0.57661 0.91014 0.0
C350 C 0.78673 0.56928 0.87363 0.0
H351 H 0.78421 0.48146 0.84223 0.0
H352 H 0.78666 0.5065 0.87387 0.0
H353 H 0.74097 0.49363 0.85062 0.0
H354 H 0.71034 0.53086 0.86062 0.0
H355 H 0.71436 0.54249 0.92528 0.0
H356 H 0.28949 0.53166 0.57909 0.0
H357 H 0.29222 0.52209 0.64407 0.0
H358 H 0.23877 0.59041 0.65629 0.0
H359 H 0.23567 0.60018 0.59086 0.0
H360 H 0.32405 0.54698 0.71325 0.0
H361 H 0.16503 0.53757 0.68008 0.0
H362 H 0.1912 0.53849 0.64428 0.0
H363 H 0.18395 0.56577 0.66793 0.0
C364 C 0.27875 0.54485 0.59567 0.0
C365 C 0.26193 0.56656 0.57967 0.0
C366 C 0.28045 0.53936 0.63285 0.0
C367 C 0.26518 0.55538 0.65477 0.0
C368 C 0.25026 0.57768 0.63962 0.0
H369 H 0.28138 0.51747 0.89007 0.0
H370 H 0.28309 0.54117 0.83446 0.0
C371 C 0.24874 0.58329 0.60233 0.0
C372 C 0.26272 0.54765 0.69247 0.0
H373 H 0.19921 0.52721 0.74066 0.0
C374 C 0.29679 0.54301 0.71957 0.0
C375 C 0.22705 0.5422 0.70028 0.0
C376 C 0.18963 0.54606 0.67166 0.0
C377 C 0.2962 0.53243 0.75398 0.0
C378 C 0.26055 0.52659 0.76153 0.0
C379 C 0.22646 0.53186 0.73483 0.0
C380 C 0.25809 0.51298 0.79544 0.0
C381 C 0.33372 0.5265 0.78125 0.0
C382 C 0.24254 0.48955 0.79187 0.0
C383 C 0.24139 0.47601 0.82346 0.0
C384 C 0.25564 0.48567 0.85938 0.0
C385 C 0.27034 0.50943 0.86286 0.0
C386 C 0.27153 0.52297 0.83113 0.0
H387 H 0.3585 0.52823 0.76846 0.0
H388 H 0.33829 0.53913 0.80524 0.0
H389 H 0.33317 0.50779 0.79215 0.0
H390 H 0.2319 0.48155 0.76455 0.0
H391 H 0.22963 0.45785 0.81967 0.0
H392 H 0.20256 0.55244 0.3253 0.0
H393 H 0.20237 0.5301 0.2683 0.0
H394 H 0.30139 0.48955 0.32722 0.0
H395 H 0.30014 0.51092 0.38482 0.0
H396 H 0.25259 0.53131 0.23079 0.0
H397 H 0.24113 0.43567 0.27115 0.0
H398 H 0.23351 0.46047 0.30014 0.0
H399 H 0.28142 0.45038 0.30132 0.0
C400 C 0.22382 0.53842 0.32618 0.0
C401 C 0.25127 0.53331 0.35941 0.0
C402 C 0.22375 0.52567 0.29361 0.0
C403 C 0.25159 0.50787 0.29338 0.0
C404 C 0.27887 0.50261 0.32677 0.0
H405 H 0.30788 0.47584 0.08299 0.0
H406 H 0.31136 0.4876 0.14749 0.0
C407 C 0.27834 0.51496 0.35964 0.0
C408 C 0.25386 0.49652 0.25752 0.0
H409 H 0.26057 0.44251 0.21452 0.0
C410 C 0.25402 0.51186 0.22727 0.0
C411 C 0.25536 0.47113 0.2526 0.0
C412 C 0.25243 0.45347 0.28293 0.0
C413 C 0.25559 0.50267 0.19241 0.0
C414 C 0.25911 0.47736 0.18799 0.0
C415 C 0.25865 0.46193 0.2181 0.0
C416 C 0.26164 0.4667 0.15181 0.0
C417 C 0.25215 0.52025 0.16044 0.0
C418 C 0.23463 0.44942 0.13394 0.0
C419 C 0.23351 0.442 0.09753 0.0
C420 C 0.25905 0.45204 0.07836 0.0
C421 C 0.28765 0.46805 0.09713 0.0
C422 C 0.28938 0.47495 0.13379 0.0
H423 H 0.23793 0.53734 0.16544 0.0
H424 H 0.28122 0.52498 0.15745 0.0
H425 H 0.23551 0.51232 0.13379 0.0
H426 H 0.21314 0.44262 0.14738 0.0
H427 H 0.21106 0.42972 0.08356 0.0
H428 H 0.81847 0.55101 0.18294 0.0
H429 H 0.81784 0.5285 0.23966 0.0
H430 H 0.717 0.48966 0.18044 0.0
H431 H 0.71902 0.51119 0.12306 0.0
H432 H 0.7681 0.53018 0.27759 0.0
H433 H 0.77515 0.43463 0.23531 0.0
H434 H 0.78365 0.45948 0.20669 0.0
H435 H 0.73538 0.4501 0.20563 0.0
C436 C 0.79659 0.53735 0.18193 0.0
C437 C 0.76888 0.53275 0.14867 0.0
C438 C 0.7962 0.5245 0.21435 0.0
C439 C 0.76764 0.5071 0.21442 0.0
C440 C 0.74005 0.50238 0.18101 0.0
H441 H 0.71154 0.4748 0.42493 0.0
H442 H 0.70813 0.48683 0.36051 0.0
C443 C 0.74102 0.51483 0.14827 0.0
C444 C 0.76513 0.49558 0.25015 0.0
H445 H 0.75657 0.44143 0.29233 0.0
C446 C 0.76587 0.51074 0.28076 0.0
C447 C 0.76263 0.47018 0.25464 0.0
C448 C 0.76458 0.45266 0.22391 0.0
C449 C 0.76422 0.50136 0.31554 0.0
C450 C 0.75968 0.47609 0.31954 0.0
C451 C 0.75925 0.46083 0.28909 0.0
C452 C 0.75691 0.46528 0.35561 0.0
C453 C 0.76869 0.51871 0.34788 0.0
C454 C 0.78329 0.44757 0.37313 0.0
C455 C 0.78434 0.44001 0.40949 0.0
C456 C 0.75935 0.45033 0.42897 0.0
C457 C 0.73131 0.46677 0.41053 0.0
C458 C 0.72964 0.47383 0.37392 0.0
H459 H 0.78356 0.53562 0.34307 0.0
H460 H 0.73991 0.52384 0.35121 0.0
H461 H 0.78517 0.51039 0.37429 0.0
H462 H 0.80441 0.44055 0.35946 0.0
H463 H 0.80638 0.42741 0.42322 0.0
H464 H 0.34981 1.00079 0.01855 0.0
H465 H 0.4092 0.98614 0.00441 0.0
H466 H 0.47161 0.04542 0.06746 0.0
H467 H 0.41272 0.05978 0.08165 0.0
H468 H 0.445 0.01649 0.96328 0.0
H469 H 0.54765 0.99011 0.09512 0.0
H470 H 0.49663 0.99206 0.09077 0.0
H471 H 0.52573 0.01898 0.09793 0.0
C472 C 0.37668 0.0098 0.03096 0.0
C473 C 0.37716 0.03112 0.05158 0.0
C474 C 0.41041 1.00165 0.02256 0.0
C475 C 0.44479 0.01466 0.03504 0.0
C476 C 0.44565 0.03483 0.05818 0.0
H477 H 0.6693 0.01649 0.98874 0.0
H478 H 0.60927 0.0304 1.00233 0.0
C479 C 0.41204 0.04301 0.06634 0.0
C480 C 0.47808 0.00977 0.01938 0.0
H481 H 0.57432 0.99907 0.04345 0.0
C482 C 0.47322 0.0124 0.98073 0.0
C483 C 0.5149 1.00487 0.04229 0.0
C484 C 0.52154 1.00112 0.08379 0.0
C485 C 0.50441 0.01063 0.96442 0.0
C486 C 0.54126 1.00586 0.98737 0.0
C487 C 0.54608 1.00314 0.02599 0.0
C488 C 0.57475 1.00141 0.97183 0.0
C489 C 0.49779 0.01429 0.9229 0.0
C490 C 0.57467 0.98122 0.94889 0.0
C491 C 0.60864 0.97346 0.94104 0.0
C492 C 0.64311 0.98578 0.95591 0.0
C493 C 0.64277 1.00713 0.97625 0.0
C494 C 0.60867 0.01486 0.98434 0.0
H495 H 0.47129 0.0249 0.91136 0.0
H496 H 0.52243 0.02373 0.91599 0.0
H497 H 0.4944 0.99637 0.90892 0.0
H498 H 0.54906 0.97031 0.93957 0.0
H499 H 0.6086 0.95665 0.92594 0.0
H500 H 0.41942 0.94579 0.57604 0.0
H501 H 0.47636 0.96179 0.55969 0.0
H502 H 0.41406 0.02624 0.51508 0.0
H503 H 0.3567 0.01034 0.53084 0.0
H504 H 0.44566 1.00018 0.46413 0.0
H505 H 0.55327 0.01666 0.5978 0.0
H506 H 0.53041 0.98752 0.59437 0.0
H507 H 0.50249 0.01443 0.59476 0.0
C508 C 0.41804 0.96364 0.5636 0.0
C509 C 0.38338 0.97663 0.55413 0.0
C510 C 0.45067 0.97279 0.55446 0.0
C511 C 0.4492 0.99512 0.53616 0.0
C512 C 0.41554 1.00893 0.52917 0.0
H513 H 0.60164 0.07148 0.43066 0.0
H514 H 0.54488 0.05518 0.44695 0.0
C515 C 0.38288 0.99982 0.53829 0.0
C516 C 0.48106 1.00259 0.52022 0.0
H517 H 0.57606 0.01681 0.54272 0.0
C518 C 0.47416 1.004 0.48125 0.0
C519 C 0.51809 1.00724 0.54276 0.0
C520 C 0.52657 1.00661 0.58477 0.0
C521 C 0.50364 0.00973 0.46408 0.0
C522 C 0.54066 0.0144 0.48663 0.0
C523 C 0.54757 0.01297 0.5256 0.0
C524 C 0.57247 0.02202 0.4707 0.0
C525 C 0.49513 0.01035 0.42208 0.0
C526 C 0.60634 1.00841 0.47786 0.0
C527 C 0.63892 0.0177 0.46879 0.0
C528 C 0.63811 0.04088 0.45282 0.0
C529 C 0.60326 0.05365 0.44319 0.0
C530 C 0.57072 0.04433 0.45229 0.0
H531 H 0.46861 1.00012 0.40908 0.0
H532 H 0.49094 0.02942 0.41245 0.0
H533 H 0.51934 1.00272 0.41206 0.0
H534 H 0.60805 0.99112 0.49206 0.0
H535 H 0.66525 1.00735 0.47637 0.0
H536 H 0.84777 0.50206 0.00623 0.0
H537 H 0.90827 0.48819 0.99376 0.0
H538 H 0.97023 0.54079 0.07203 0.0
H539 H 0.9101 0.55443 0.0845 0.0
H540 H 0.94902 0.52228 0.96297 0.0
H541 H 0.0422 0.48265 0.09133 0.0
H542 H 0.99081 0.48508 0.08408 0.0
H543 H 0.021 0.51098 0.09905 0.0
C544 C 0.87461 0.5096 0.02222 0.0
C545 C 0.87474 0.52892 0.04676 0.0
C546 C 0.90901 0.50192 0.01481 0.0
C547 C 0.94367 0.51343 0.03209 0.0
C548 C 0.94396 0.53134 0.05896 0.0
H549 H 0.17428 0.51609 1.00112 0.0
H550 H 0.11367 0.52982 0.0135 0.0
C551 C 0.90967 0.53907 0.06618 0.0
C552 C 0.97817 0.50982 0.01785 0.0
H553 H 0.0731 0.4955 0.04442 0.0
C554 C 0.9761 0.51617 0.98063 0.0
C555 C 0.01349 0.50231 0.04118 0.0
C556 C 0.01704 0.49466 0.08105 0.0
C557 C 1.00863 0.51546 0.9662 0.0
C558 C 0.04395 0.50796 0.98954 0.0
C559 C 0.04602 0.5016 0.02675 0.0
C560 C 0.07847 0.50441 0.97533 0.0
C561 C 1.00509 0.5231 0.92633 0.0
C562 C 0.07832 0.48644 0.94857 0.0
C563 C 0.11267 0.47878 0.94141 0.0
C564 C 0.14752 0.48907 0.96077 0.0
C565 C 0.1475 0.50844 0.98518 0.0
C566 C 0.11304 0.51604 0.99254 0.0
H567 H 0.97983 0.535 0.91596 0.0
H568 H 0.03125 0.53278 0.92335 0.0
H569 H 1.00135 0.50676 0.90837 0.0
H570 H 0.05212 0.4769 0.93556 0.0
H571 H 0.11236 0.46339 0.92319 0.0
H572 H 0.11185 0.56438 0.43309 0.0
H573 H 0.05162 0.55044 0.44526 0.0
H574 H 0.10947 0.48791 0.5029 0.0
H575 H 0.17016 0.50199 0.49073 0.0
H576 H 1.00667 0.5068 0.43565 0.0
H577 H 0.07552 0.52916 0.58367 0.0
H578 H 0.09585 0.53816 0.54571 0.0
H579 H 0.10028 0.50741 0.56204 0.0
C580 C 0.11127 0.54714 0.44699 0.0
C581 C 0.14523 0.53414 0.461 0.0
C582 C 0.077 0.53928 0.45407 0.0
C583 C 0.0765 0.51849 0.47564 0.0
C584 C 0.10965 0.50419 0.48659 0.0
H585 H 0.90928 0.45558 0.57327 0.0
H586 H 0.96863 0.4707 0.56066 0.0
C587 C 0.14405 0.51201 0.47926 0.0
C588 C 0.04265 0.51376 0.49029 0.0
H589 H 0.01177 0.51484 0.57042 0.0
C590 C 1.00767 0.5085 0.46508 0.0
C591 C 0.04423 0.51648 0.52867 0.0
C592 C 0.08085 0.52331 0.55667 0.0
C593 C 0.97417 0.50522 0.47739 0.0
C594 C 0.97578 0.50781 0.51579 0.0
C595 C 0.01073 0.5132 0.54098 0.0
C596 C 0.94224 0.50239 0.5306 0.0
C597 C 0.93757 0.49833 0.4494 0.0
C598 C 0.90846 0.51614 0.51993 0.0
C599 C 0.87453 0.50763 0.52751 0.0
C600 C 0.87445 0.48536 0.54571 0.0
C601 C 0.909 0.47291 0.55939 0.0
C602 C 0.94277 0.48145 0.55207 0.0
H603 H 0.94283 0.49284 0.42221 0.0
H604 H 0.92297 0.48319 0.46016 0.0
H605 H 0.91782 0.51407 0.44447 0.0
H606 H 0.90783 0.53254 0.5037 0.0
H607 H 0.84796 0.51725 0.51632 0.0
H608 H 0.15131 0.05344 0.97735 0.0
H609 H 0.08826 0.03431 0.96393 0.0
H610 H 0.08355 0.04472 0.07816 0.0
H611 H 0.14689 0.06431 0.0917 0.0
H612 H 0.071 0.99243 0.99428 0.0
H613 H 0.97652 0.06543 0.02291 0.0
H614 H 0.02425 0.07131 0.01755 0.0
H615 H 0.01743 0.05953 0.0608 0.0
C616 C 0.13651 0.05224 0.9995 0.0
C617 C 0.15422 0.06058 0.03562 0.0
C618 C 0.10043 0.04111 0.99179 0.0
C619 C 0.08081 0.03798 0.01989 0.0
C620 C 0.09762 0.04721 0.05571 0.0
H621 H 0.86966 0.96463 0.03014 0.0
H622 H 0.93254 0.98396 0.04332 0.0
C623 C 0.13387 0.05853 0.06346 0.0
C624 C 0.04424 0.02363 0.01194 0.0
H625 H 0.94941 0.02609 0.01275 0.0
C626 C 0.04438 0.99987 0.99819 0.0
C627 C 1.00935 0.03318 0.01698 0.0
C628 C 1.00661 0.05883 0.03003 0.0
C629 C 0.01105 0.98536 0.99002 0.0
C630 C 0.97617 0.9949 0.99508 0.0
C631 C 0.97602 0.01866 0.00882 0.0
C632 C 0.93963 0.98053 0.9872 0.0
C633 C 0.01377 0.95971 0.97694 0.0
C634 C 0.92269 0.97137 0.95136 0.0
C635 C 0.88653 0.95996 0.94374 0.0
C636 C 0.8664 0.9577 0.97174 0.0
C637 C 0.88426 0.96599 0.00786 0.0
C638 C 0.92024 0.97723 0.01544 0.0
H639 H 0.04386 0.95314 0.98388 0.0
H640 H 0.99627 0.94722 0.98958 0.0
H641 H 1.00273 0.959 0.9462 0.0
H642 H 0.93661 0.97399 0.92883 0.0
H643 H 0.8734 0.95423 0.9155 0.0
H644 H 0.88862 0.08 0.43136 0.0
H645 H 0.95173 0.05985 0.44568 0.0
H646 H 0.92167 0.02064 0.53527 0.0
H647 H 0.85903 0.04035 0.5209 0.0
H648 H 0.01351 0.05403 0.51267 0.0
H649 H 0.94123 0.96684 0.46485 0.0
H650 H 0.91726 0.99568 0.45507 0.0
H651 H 0.92346 0.98188 0.50019 0.0
C652 C 0.89609 0.06768 0.45483 0.0
C653 C 0.869 0.06172 0.47503 0.0
C654 C 0.93193 0.05598 0.46276 0.0
C655 C 0.94097 0.03822 0.49091 0.0
C656 C 0.91502 0.03379 0.51287 0.0
H657 H 0.13215 0.9385 0.57489 0.0
H658 H 0.06917 0.95881 0.56062 0.0
C659 C 0.87939 0.04528 0.50487 0.0
C660 C 0.97642 0.02332 0.49641 0.0
H661 H 1.00776 0.96493 0.49408 0.0
C662 C 0.01228 0.03459 0.50838 0.0
C663 C 0.9748 0.99787 0.491 0.0
C664 C 0.93717 0.98482 0.47675 0.0
C665 C 0.04648 0.02109 0.51577 0.0
C666 C 0.04486 0.99564 0.51033 0.0
C667 C 1.009 0.98437 0.49837 0.0
C668 C 0.08031 0.98072 0.51584 0.0
C669 C 0.0841 0.03414 0.53009 0.0
C670 C 0.10644 0.98527 0.49411 0.0
C671 C 0.142 0.9737 0.50209 0.0
C672 C 0.15214 0.95705 0.53167 0.0
C673 C 0.12487 0.95099 0.55163 0.0
C674 C 0.08911 0.96278 0.54372 0.0
H675 H 0.08 0.05207 0.54216 0.0
H676 H 0.10405 0.02324 0.55167 0.0
H677 H 0.09776 0.03721 0.50666 0.0
H678 H 0.09996 0.99855 0.47188 0.0
H679 H 0.16248 0.9787 0.48623 0.0
H680 H 0.37289 0.46488 0.03487 0.0
H681 H 0.4353 0.48475 0.04628 0.0
H682 H 0.4384 0.47213 0.93213 0.0
H683 H 0.3752 0.45245 0.92026 0.0
H684 H 0.50732 0.47176 0.0405 0.0
H685 H 0.44945 0.54564 0.94065 0.0
H686 H 0.41889 0.52392 0.95574 0.0
H687 H 0.44375 0.51576 0.92093 0.0
C688 C 0.38708 0.46591 0.01226 0.0
C689 C 0.36881 0.45713 0.97654 0.0
C690 C 0.42283 0.47737 0.01885 0.0
C691 C 0.44129 0.48055 0.9899 0.0
C692 C 0.42437 0.47044 0.95475 0.0
H693 H 0.64939 0.55433 0.97419 0.0
H694 H 0.58709 0.53441 0.96323 0.0
C695 C 0.38846 0.45883 0.94811 0.0
C696 C 0.47732 0.49527 0.99656 0.0
H697 H 0.51578 0.54695 0.96949 0.0
C698 C 0.50914 0.48821 0.02498 0.0
C699 C 0.47974 0.5169 0.97659 0.0
C700 C 0.44609 0.5262 0.94699 0.0
C701 C 0.5434 0.50179 0.03338 0.0
C702 C 0.54583 0.52343 0.01341 0.0
C703 C 0.51398 0.53049 0.98501 0.0
C704 C 0.58189 0.53812 0.01994 0.0
C705 C 0.57708 0.49242 0.06289 0.0
C706 C 0.59925 0.548 0.05517 0.0
C707 C 0.63514 0.5596 0.06157 0.0
C708 C 0.65431 0.56159 0.03281 0.0
C709 C 0.63559 0.55308 0.99706 0.0
C710 C 0.59988 0.54159 0.99072 0.0
H711 H 0.57376 0.47295 0.06903 0.0
H712 H 0.60428 0.4948 0.05418 0.0
H713 H 0.57937 0.50274 0.08906 0.0
H714 H 0.58556 0.54613 0.07801 0.0
H715 H 0.64876 0.56578 0.08946 0.0
H716 H 0.64754 0.45378 0.59049 0.0
H717 H 0.58405 0.47305 0.57802 0.0
H718 H 0.58497 0.48171 0.46243 0.0
H719 H 0.64755 0.46227 0.47446 0.0
H720 H 0.56882 0.52013 0.55276 0.0
H721 H 0.47723 0.45704 0.45297 0.0
H722 H 0.52373 0.44844 0.48125 0.0
H723 H 0.51981 0.4657 0.43919 0.0
C724 C 0.63359 0.45905 0.5622 0.0
C725 C 0.65258 0.45634 0.53346 0.0
C726 C 0.59746 0.4703 0.55516 0.0
C727 C 0.57944 0.47872 0.51918 0.0
C728 C 0.59771 0.47501 0.49023 0.0
H729 H 0.37415 0.56362 0.41889 0.0
H730 H 0.43754 0.54418 0.43162 0.0
C731 C 0.63368 0.46392 0.49723 0.0
C732 C 0.54329 0.49317 0.51222 0.0
H733 H 0.45205 0.49667 0.45678 0.0
C734 C 0.54318 0.51487 0.53201 0.0
C735 C 0.50988 0.48654 0.48481 0.0
C736 C 0.50744 0.46305 0.46358 0.0
C737 C 0.51098 0.53024 0.52475 0.0
C738 C 0.4776 0.52362 0.49731 0.0
C739 C 0.47769 0.50192 0.47753 0.0
C740 C 0.44149 0.53811 0.49026 0.0
C741 C 0.51334 0.55371 0.54604 0.0
C742 C 0.4229 0.54164 0.51901 0.0
C743 C 0.38696 0.55279 0.51186 0.0
C744 C 0.36846 0.56065 0.47568 0.0
C745 C 0.38779 0.55813 0.44715 0.0
C746 C 0.42386 0.54679 0.45434 0.0
H747 H 0.54354 0.55963 0.55701 0.0
H748 H 0.49732 0.56836 0.52826 0.0
H749 H 0.50056 0.55108 0.57017 0.0
H750 H 0.43539 0.53476 0.54676 0.0
H751 H 0.37284 0.5543 0.53446 0.0
H752 H 0.41526 0.10404 0.10493 0.0
H753 H 0.47229 0.10916 0.15516 0.0
H754 H 0.40218 0.12562 0.23114 0.0
H755 H 0.344 0.11961 0.18057 0.0
H756 H 0.50188 0.14633 0.19837 0.0
H757 H 0.46855 0.07196 0.28679 0.0
H758 H 0.4414 0.07664 0.2394 0.0
H759 H 0.43318 0.09552 0.27622 0.0
C760 C 0.4116 0.10876 0.13224 0.0
C761 C 0.37472 0.11115 0.13862 0.0
C762 C 0.44452 0.11178 0.16105 0.0
C763 C 0.44182 0.11736 0.19725 0.0
C764 C 0.40513 0.12075 0.20366 0.0
H765 H 0.62722 0.12902 0.40002 0.0
H766 H 0.56637 0.13264 0.35339 0.0
C767 C 0.37184 0.11759 0.17463 0.0
C768 C 0.47779 0.11912 0.22771 0.0
H769 H 0.52631 0.09326 0.30989 0.0
C770 C 0.50708 0.13478 0.22283 0.0
C771 C 0.48488 0.10399 0.25965 0.0
C772 C 0.45555 0.08591 0.26583 0.0
C773 C 0.54308 0.13557 0.2486 0.0
C774 C 0.55028 0.12021 0.28015 0.0
C775 C 0.52079 0.105 0.28562 0.0
C776 C 0.58827 0.11947 0.3077 0.0
C777 C 0.57318 0.15288 0.24197 0.0
C778 C 0.62115 0.111 0.29755 0.0
C779 C 0.65626 0.10883 0.32429 0.0
C780 C 0.65921 0.11514 0.36174 0.0
C781 C 0.62632 0.12415 0.37148 0.0
C782 C 0.59131 0.12614 0.34485 0.0
H783 H 0.56062 0.16713 0.22137 0.0
H784 H 0.58848 0.16171 0.26841 0.0
H785 H 0.5946 0.14268 0.23099 0.0
H786 H 0.6194 0.10541 0.26914 0.0
H787 H 0.68077 0.10158 0.31582 0.0
H788 H 0.60631 0.91011 0.90482 0.0
H789 H 0.54867 0.90601 0.85469 0.0
H790 H 0.61755 0.89766 0.7753 0.0
H791 H 0.67627 0.90197 0.8259 0.0
H792 H 0.5308 0.9386 0.79081 0.0
H793 H 0.53487 0.84159 0.75117 0.0
H794 H 0.56086 0.85279 0.79619 0.0
H795 H 0.5778 0.85934 0.75555 0.0
C796 C 0.60955 0.90713 0.87683 0.0
C797 C 0.64619 0.90646 0.86951 0.0
C798 C 0.57635 0.90479 0.84813 0.0
C799 C 0.57865 0.9015 0.81123 0.0
C800 C 0.61508 0.89993 0.80368 0.0
H801 H 0.39467 0.8914 0.60798 0.0
H802 H 0.45549 0.88946 0.65487 0.0
C803 C 0.64863 0.90236 0.83261 0.0
C804 C 0.5426 0.90134 0.78097 0.0
H805 H 0.48242 0.86475 0.71822 0.0
C806 C 0.52026 0.92248 0.77482 0.0
C807 C 0.52896 0.88035 0.76005 0.0
C808 C 0.5516 0.85711 0.76599 0.0
C809 C 0.48472 0.92323 0.74839 0.0
C810 C 0.47034 0.902 0.72821 0.0
C811 C 0.49308 0.88095 0.7339 0.0
C812 C 0.43231 0.90153 0.70043 0.0
C813 C 0.46338 0.94698 0.74184 0.0
C814 C 0.39843 0.90823 0.71042 0.0
C815 C 0.36337 0.90954 0.68347 0.0
C816 C 0.3613 0.90377 0.64599 0.0
C817 C 0.39495 0.89591 0.63652 0.0
C818 C 0.42995 0.89482 0.66337 0.0
H819 H 0.48289 0.96262 0.75095 0.0
H820 H 0.44874 0.94943 0.71194 0.0
H821 H 0.44138 0.94727 0.75825 0.0
H822 H 0.39917 0.91286 0.73901 0.0
H823 H 0.33812 0.91561 0.69184 0.0
H824 H 0.84426 0.61393 0.17867 0.0
H825 H 0.90165 0.61923 0.23029 0.0
H826 H 0.97364 0.60987 0.15389 0.0
H827 H 0.91707 0.60468 0.1026 0.0
H828 H 0.96164 0.5843 0.25286 0.0
H829 H 0.01882 0.67078 0.2124 0.0
H830 H 0.96979 0.66126 0.19372 0.0
H831 H 1.00767 0.64867 0.17576 0.0
C832 C 0.8723 0.61346 0.1728 0.0
C833 C 0.87591 0.60898 0.13638 0.0
C834 C 0.90508 0.61638 0.20234 0.0
C835 C 0.94202 0.61528 0.19592 0.0
C836 C 0.94556 0.61129 0.15951 0.0
H837 H 0.17881 0.61061 0.32955 0.0
H838 H 0.1201 0.61389 0.27897 0.0
C839 C 0.91301 0.60818 0.13017 0.0
C840 C 0.97706 0.61657 0.22735 0.0
H841 H 0.06108 0.64764 0.25954 0.0
C842 C 0.98317 0.59831 0.25457 0.0
C843 C 1.00547 0.63464 0.22929 0.0
C844 C 1.00009 0.65509 0.20143 0.0
C845 C 0.01718 0.59728 0.28312 0.0
C846 C 0.04562 0.6154 0.28519 0.0
C847 C 0.03942 0.63375 0.25803 0.0
C848 C 0.08165 0.61563 0.31564 0.0
C849 C 0.02282 0.57627 0.31008 0.0
C850 C 0.07982 0.61649 0.35305 0.0
C851 C 0.11313 0.61453 0.38182 0.0
C852 C 0.14934 0.61206 0.37401 0.0
C853 C 0.15146 0.61262 0.33655 0.0
C854 C 0.11788 0.61438 0.30762 0.0
H855 H 1.00427 0.56064 0.2984 0.0
H856 H 0.05314 0.57014 0.3175 0.0
H857 H 0.01507 0.58201 0.336 0.0
H858 H 0.05244 0.61816 0.36007 0.0
H859 H 0.11036 0.61441 0.41032 0.0
H860 H 0.91237 0.40626 0.59868 0.0
H861 H 0.97026 0.4018 0.64871 0.0
H862 H 0.90229 0.4031 0.7298 0.0
H863 H 0.8437 0.40702 0.67941 0.0
H864 H 0.99857 0.43361 0.70222 0.0
H865 H 0.97279 0.3471 0.76819 0.0
H866 H 0.9441 0.35658 0.72327 0.0
H867 H 0.93513 0.36882 0.76535 0.0
C868 C 0.90951 0.40518 0.6271 0.0
C869 C 0.87322 0.4069 0.63495 0.0
C870 C 0.94279 0.40267 0.65577 0.0
C871 C 0.94089 0.40189 0.69317 0.0
C872 C 0.90462 0.40308 0.70119 0.0
H873 H 0.10644 0.41389 0.90455 0.0
H874 H 0.05011 0.40906 0.8529 0.0
C875 C 0.87107 0.40538 0.67234 0.0
C876 C 0.97714 0.40153 0.72343 0.0
H877 H 0.02559 0.37092 0.80124 0.0
C878 C 1.00457 0.41974 0.72364 0.0
C879 C 0.98515 0.38347 0.7515 0.0
C880 C 0.95793 0.36275 0.75198 0.0
C881 C 0.03917 0.42073 0.75143 0.0
C882 C 0.04699 0.40285 0.77969 0.0
C883 C 0.01972 0.38455 0.77945 0.0
C884 C 0.08206 0.40386 0.81112 0.0
C885 C 0.06655 0.44141 0.75101 0.0
C886 C 0.11912 0.40196 0.80512 0.0
C887 C 0.15178 0.40466 0.83488 0.0
C888 C 0.14792 0.40936 0.87115 0.0
C889 C 0.1107 0.41041 0.87705 0.0
C890 C 0.07828 0.4076 0.84749 0.0
H891 H 0.05295 0.4562 0.73192 0.0
H892 H 0.07735 0.44901 0.77943 0.0
H893 H 0.09154 0.43464 0.74144 0.0
H894 H 0.12277 0.39875 0.77734 0.0
H895 H 0.17992 0.4038 0.82929 0.0
H896 H 0.29153 0.15614 0.98893 0.0
H897 H 0.28911 0.19961 0.97772 0.0
H898 H 0.21672 0.20834 0.05397 0.0
H899 H 0.21966 0.16444 0.06601 0.0
H900 H 0.23133 0.23212 0.95175 0.0
H901 H 0.30713 0.25306 0.0982 0.0
H902 H 0.30356 0.2227 0.0797 0.0
H903 H 0.26337 0.2362 0.09278 0.0
C904 C 0.2747 0.16721 1.00311 0.0
C905 C 0.25613 0.15681 0.02873 0.0
C906 C 0.27334 0.19212 0.9966 0.0
C907 C 0.25351 0.20737 0.01561 0.0
C908 C 0.23297 0.19698 0.03961 0.0
H909 H 0.22798 0.36234 0.02041 0.0
H910 H 0.22999 0.31885 0.03136 0.0
C911 C 0.23425 0.17186 0.04614 0.0
C912 C 0.25585 0.23409 0.01091 0.0
H913 H 0.28815 0.28634 0.05775 0.0
C914 C 0.24374 0.24399 0.97493 0.0
C915 C 0.27244 0.24954 0.04109 0.0
C916 C 0.28772 0.2399 0.08009 0.0
C917 C 0.24707 0.26891 0.96841 0.0
C918 C 0.26364 0.28436 0.9986 0.0
C919 C 0.27574 0.27447 0.03458 0.0
C920 C 0.26603 0.31108 0.9939 0.0
C921 C 0.23187 0.27857 0.92941 0.0
C922 C 0.2869 0.32145 0.97017 0.0
C923 C 0.28589 0.34658 0.96381 0.0
C924 C 0.26392 0.36166 0.98108 0.0
C925 C 0.2449 0.35125 0.00634 0.0
C926 C 0.24601 0.32633 0.0127 0.0
H927 H 0.21258 0.26538 0.91123 0.0
H928 H 0.21593 0.29573 0.92979 0.0
H929 H 0.25627 0.28235 0.91683 0.0
H930 H 0.30326 0.31007 0.95596 0.0
H931 H 0.30082 0.35401 0.94422 0.0
H932 H 0.78904 0.16906 0.43331 0.0
H933 H 0.78709 0.21233 0.44699 0.0
H934 H 0.74775 0.19583 0.54532 0.0
H935 H 0.75054 0.15271 0.53252 0.0
H936 H 0.72272 0.23757 0.44925 0.0
H937 H 0.82875 0.24591 0.58554 0.0
H938 H 0.82608 0.21951 0.55633 0.0
H939 H 0.79304 0.22318 0.58536 0.0
C940 C 0.78091 0.17459 0.45836 0.0
C941 C 0.76991 0.15731 0.48174 0.0
C942 C 0.77958 0.19936 0.46603 0.0
C943 C 0.76748 0.20738 0.49731 0.0
C944 C 0.7579 0.19016 0.52143 0.0
H945 H 0.72426 0.35301 0.57377 0.0
H946 H 0.72043 0.30899 0.56276 0.0
C947 C 0.75937 0.16542 0.51391 0.0
C948 C 0.76208 0.23367 0.50317 0.0
H949 H 0.78806 0.2798 0.56585 0.0
C950 C 0.73714 0.2468 0.47471 0.0
C951 C 0.78056 0.2457 0.53655 0.0
C952 C 0.80888 0.23292 0.56755 0.0
C953 C 0.73023 0.27157 0.47868 0.0
C954 C 0.74895 0.28362 0.51187 0.0
C955 C 0.7734 0.27046 0.54059 0.0
C956 C 0.74651 0.31027 0.51595 0.0
C957 C 0.70285 0.28467 0.44734 0.0
C958 C 0.76179 0.32551 0.49294 0.0
C959 C 0.7641 0.35042 0.49922 0.0
C960 C 0.75111 0.36071 0.52864 0.0
C961 C 0.73406 0.34562 0.55064 0.0
C962 C 0.73213 0.3205 0.54455 0.0
H963 H 0.68296 0.27191 0.42888 0.0
H964 H 0.68573 0.29826 0.45833 0.0
H965 H 0.71948 0.29432 0.43016 0.0
H966 H 0.77355 0.31801 0.47108 0.0
H967 H 0.77745 0.36159 0.48184 0.0
H968 H 0.79816 0.85284 0.93788 0.0
H969 H 0.80014 0.80889 0.94984 0.0
H970 H 0.73786 0.81924 0.03435 0.0
H971 H 0.73559 0.86271 0.02257 0.0
H972 H 0.82622 0.77992 0.01725 0.0
H973 H 0.66895 0.77287 0.95884 0.0
H974 H 0.69635 0.79904 0.95149 0.0
H975 H 0.68318 0.79514 0.99496 0.0
C976 C 0.78568 0.84575 0.95955 0.0
C977 C 0.76637 0.86121 0.97899 0.0
C978 C 0.78657 0.82065 0.96618 0.0
C979 C 0.76819 0.81075 0.99229 0.0
C980 C 0.75133 0.82639 0.01342 0.0
H981 H 0.72594 0.66499 0.067 0.0
H982 H 0.72486 0.70897 0.05541 0.0
C983 C 0.7503 0.85127 0.00677 0.0
C984 C 0.76523 0.78412 0.99687 0.0
H985 H 0.70026 0.7379 0.98916 0.0
C986 C 0.79874 0.7707 0.01088 0.0
C987 C 0.72927 0.77212 0.98878 0.0
C988 C 0.69237 0.78545 0.97237 0.0
C989 C 0.79722 0.74569 0.01766 0.0
C990 C 0.76125 0.73368 0.00954 0.0
C991 C 0.72775 0.74712 0.99553 0.0
C992 C 0.75822 0.70704 0.01413 0.0
C993 C 0.83413 0.73241 0.03422 0.0
C994 C 0.77566 0.69136 0.99354 0.0
C995 C 0.77621 0.66646 1.0 0.0
C996 C 0.75904 0.65654 0.02702 0.0
C997 C 0.7393 0.67206 0.04595 0.0
C998 C 0.73891 0.69717 0.03952 0.0
H999 H 0.85736 0.745 0.04812 0.0
H1000 H 0.83005 0.71866 0.05484 0.0
H1001 H 0.84367 0.72294 0.01166 0.0
H1002 H 0.78979 0.69847 0.97308 0.0
H1003 H 0.79125 0.65499 0.98458 0.0
H1004 H 0.29726 0.66507 0.4346 0.0
H1005 H 0.30076 0.7091 0.44542 0.0
H1006 H 0.25139 0.69975 0.53956 0.0
H1007 H 0.24783 0.65614 0.52897 0.0
H1008 H 0.23311 0.73762 0.444 0.0
H1009 H 0.34111 0.74689 0.57892 0.0
H1010 H 0.33812 0.7204 0.54973 0.0
H1011 H 0.30534 0.72418 0.57895 0.0
C1012 C 0.2883 0.67239 0.45825 0.0
C1013 C 0.27235 0.65719 0.48099 0.0
C1014 C 0.29001 0.69752 0.46423 0.0
C1015 C 0.27652 0.70768 0.49344 0.0
C1016 C 0.26247 0.69233 0.51722 0.0
H1017 H 0.23317 0.84896 0.57572 0.0
H1018 H 0.23565 0.80563 0.56256 0.0
C1019 C 0.26036 0.66739 0.51105 0.0
C1020 C 0.27353 0.73432 0.49734 0.0
H1021 H 0.30021 0.78081 0.55907 0.0
C1022 C 0.24814 0.74718 0.46892 0.0
C1023 C 0.29275 0.74664 0.53009 0.0
C1024 C 0.32113 0.7339 0.56107 0.0
C1025 C 0.24057 0.77188 0.47285 0.0
C1026 C 0.25956 0.78419 0.50579 0.0
C1027 C 0.28541 0.77137 0.53395 0.0
C1028 C 0.25381 0.81047 0.51143 0.0
C1029 C 0.21131 0.78432 0.44223 0.0
C1030 C 0.26238 0.82765 0.4867 0.0
C1031 C 0.26061 0.85241 0.49393 0.0
C1032 C 0.25075 0.86061 0.52639 0.0
C1033 C 0.24073 0.84337 0.55041 0.0
C1034 C 0.24238 0.81856 0.54305 0.0
H1035 H 0.19138 0.7711 0.42481 0.0
H1036 H 0.19422 0.79763 0.4538 0.0
H1037 H 0.22633 0.79413 0.42377 0.0
H1038 H 0.27198 0.82193 0.46252 0.0
H1039 H 0.26868 0.86509 0.47483 0.0
loop_
_geom_bond_atom_site_label_1
_geom_bond_atom_site_label_2
_geom_bond_distance
_geom_bond_site_symmetry_2
_ccdc_geom_bond_type
Fe0 O2 1.918 . S
Fe0 O5 1.997 . S
Fe0 O6 2.002 . S
Fe0 O11 1.976 . S
Fe0 O14 1.996 . S
Fe1 O2 1.918 . S
Fe1 O9 1.997 . S
Fe1 O12 1.996 . S
Fe1 O16 1.976 1_554 S
Fe1 O19 2.002 . S
O2 Fe0 1.918 . S
O2 Fe1 1.918 . S
O2 Fe3 1.918 . S
Fe3 O2 1.918 . S
Fe3 O4 2.002 . S
Fe3 O13 1.976 . S
Fe3 O17 1.996 1_554 S
Fe3 O20 1.997 . S
O4 Fe3 2.002 . S
O4 C21 1.295 . S
O5 Fe0 1.997 . S
O5 C21 1.235 . S
O6 Fe0 2.002 . S
O6 C7 1.295 . S
C7 O6 1.295 . S
C7 O9 1.235 . S
C8 O13 1.287 . S
C8 O14 1.255 . S
O9 Fe1 1.997 . S
O9 C7 1.235 . S
C10 O16 1.287 . S
C10 O17 1.255 . S
O11 Fe0 1.976 . S
O11 C18 1.287 . S
O12 Fe1 1.996 . S
O12 C18 1.255 . S
O13 Fe3 1.976 . S
O13 C8 1.287 . S
O14 Fe0 1.996 . S
O14 C8 1.255 . S
C15 O19 1.295 . S
C15 O20 1.235 . S
O16 Fe1 1.976 1_556 S
O16 C10 1.287 . S
O17 Fe3 1.996 1_556 S
O17 C10 1.255 . S
C18 O11 1.287 . S
C18 O12 1.255 . S
O19 Fe1 2.002 . S
O19 C15 1.295 . S
O20 Fe3 1.997 . S
O20 C15 1.235 . S
C21 O4 1.295 . S
C21 O5 1.235 . S
Fe22 O24 1.918 . S
Fe22 O27 1.997 . S
Fe22 O28 2.002 . S
Fe22 O33 1.976 . S
Fe22 O36 1.996 . S
Fe23 O24 1.918 . S
Fe23 O31 1.997 . S
Fe23 O34 1.996 . S
Fe23 O38 1.976 . S
Fe23 O41 2.002 . S
O24 Fe22 1.918 . S
O24 Fe23 1.918 . S
O24 Fe25 1.918 . S
Fe25 O24 1.918 . S
Fe25 O26 2.002 . S
Fe25 O35 1.976 . S
Fe25 O39 1.996 . S
Fe25 O42 1.997 . S
O26 Fe25 2.002 . S
O26 C43 1.295 . S
O27 Fe22 1.997 . S
O27 C43 1.235 . S
O28 Fe22 2.002 . S
O28 C29 1.295 . S
C29 O28 1.295 . S
C29 O31 1.235 . S
C30 O35 1.287 . S
C30 O36 1.255 . S
O31 Fe23 1.997 . S
O31 C29 1.235 . S
C32 O38 1.287 . S
C32 O39 1.255 . S
O33 Fe22 1.976 . S
O33 C40 1.287 . S
O34 Fe23 1.996 . S
O34 C40 1.255 . S
O35 Fe25 1.976 . S
O35 C30 1.287 . S
O36 Fe22 1.996 . S
O36 C30 1.255 . S
C37 O41 1.295 . S
C37 O42 1.235 . S
O38 Fe23 1.976 . S
O38 C32 1.287 . S
O39 Fe25 1.996 . S
O39 C32 1.255 . S
C40 O33 1.287 . S
C40 O34 1.255 . S
O41 Fe23 2.002 . S
O41 C37 1.295 . S
O42 Fe25 1.997 . S
O42 C37 1.235 . S
C43 O26 1.295 . S
C43 O27 1.235 . S
Fe44 O46 1.918 . S
Fe44 O49 1.997 . S
Fe44 O50 2.002 . S
Fe44 O55 1.976 . S
Fe44 O58 1.996 1_556 S
Fe45 O46 1.918 . S
Fe45 O53 1.997 . S
Fe45 O56 1.996 . S
Fe45 O60 1.976 . S
Fe45 O63 2.002 . S
O46 Fe44 1.918 . S
O46 Fe45 1.918 . S
O46 Fe47 1.918 . S
Fe47 O46 1.918 . S
Fe47 O48 2.002 . S
Fe47 O57 1.976 1_556 S
Fe47 O61 1.996 . S
Fe47 O64 1.997 . S
O48 Fe47 2.002 . S
O48 C65 1.295 . S
O49 Fe44 1.997 . S
O49 C65 1.235 . S
O50 Fe44 2.002 . S
O50 C51 1.295 . S
C51 O50 1.295 . S
C51 O53 1.235 . S
C52 O57 1.287 . S
C52 O58 1.255 . S
O53 Fe45 1.997 . S
O53 C51 1.235 . S
C54 O60 1.287 . S
C54 O61 1.255 . S
O55 Fe44 1.976 . S
O55 C62 1.287 . S
O56 Fe45 1.996 . S
O56 C62 1.255 . S
O57 Fe47 1.976 1_554 S
O57 C52 1.287 . S
O58 Fe44 1.996 1_554 S
O58 C52 1.255 . S
C59 O63 1.295 . S
C59 O64 1.235 . S
O60 Fe45 1.976 . S
O60 C54 1.287 . S
O61 Fe47 1.996 . S
O61 C54 1.255 . S
C62 O55 1.287 . S
C62 O56 1.255 . S
O63 Fe45 2.002 . S
O63 C59 1.295 . S
O64 Fe47 1.997 . S
O64 C59 1.235 . S
C65 O48 1.295 . S
C65 O49 1.235 . S
Fe66 O68 1.918 . S
Fe66 O71 1.997 . S
Fe66 O72 2.002 . S
Fe66 O77 1.976 . S
Fe66 O80 1.996 . S
Fe67 O68 1.918 . S
Fe67 O75 1.997 . S
Fe67 O78 1.996 . S
Fe67 O82 1.976 . S
Fe67 O85 2.002 . S
O68 Fe66 1.918 . S
O68 Fe67 1.918 . S
O68 Fe69 1.918 . S
Fe69 O68 1.918 . S
Fe69 O70 2.002 . S
Fe69 O79 1.976 . S
Fe69 O83 1.996 . S
Fe69 O86 1.997 . S
O70 Fe69 2.002 . S
O70 C87 1.295 . S
O71 Fe66 1.997 . S
O71 C87 1.235 . S
O72 Fe66 2.002 . S
O72 C73 1.295 . S
C73 O72 1.295 . S
C73 O75 1.235 . S
C74 O79 1.287 . S
C74 O80 1.255 . S
O75 Fe67 1.997 . S
O75 C73 1.235 . S
C76 O82 1.287 . S
C76 O83 1.255 . S
O77 Fe66 1.976 . S
O77 C84 1.287 . S
O78 Fe67 1.996 . S
O78 C84 1.255 . S
O79 Fe69 1.976 . S
O79 C74 1.287 . S
O80 Fe66 1.996 . S
O80 C74 1.255 . S
C81 O85 1.295 . S
C81 O86 1.235 . S
O82 Fe67 1.976 . S
O82 C76 1.287 . S
O83 Fe69 1.996 . S
O83 C76 1.255 . S
C84 O77 1.287 . S
C84 O78 1.255 . S
O85 Fe67 2.002 . S
O85 C81 1.295 . S
O86 Fe69 1.997 . S
O86 C81 1.235 . S
C87 O70 1.295 . S
C87 O71 1.235 . S
Fe88 O90 1.918 . S
Fe88 O93 1.997 . S
Fe88 O94 2.002 . S
Fe88 O99 1.976 . S
Fe88 O102 1.996 . S
Fe89 O90 1.918 . S
Fe89 O97 1.997 . S
Fe89 O100 1.996 . S
Fe89 O104 1.976 1_554 S
Fe89 O107 2.002 . S
O90 Fe88 1.918 . S
O90 Fe89 1.918 . S
O90 Fe91 1.918 . S
Fe91 O90 1.918 . S
Fe91 O92 2.002 . S
Fe91 O101 1.976 . S
Fe91 O105 1.996 1_554 S
Fe91 O108 1.997 . S
O92 Fe91 2.002 . S
O92 C109 1.295 . S
O93 Fe88 1.997 . S
O93 C109 1.235 . S
O94 Fe88 2.002 . S
O94 C95 1.295 . S
C95 O94 1.295 . S
C95 O97 1.235 . S
C96 O101 1.287 . S
C96 O102 1.255 . S
O97 Fe89 1.997 . S
O97 C95 1.235 . S
C98 O104 1.287 . S
C98 O105 1.255 . S
O99 Fe88 1.976 . S
O99 C106 1.287 . S
O100 Fe89 1.996 . S
O100 C106 1.255 . S
O101 Fe91 1.976 . S
O101 C96 1.287 . S
O102 Fe88 1.996 . S
O102 C96 1.255 . S
C103 O107 1.295 . S
C103 O108 1.235 . S
O104 Fe89 1.976 1_556 S
O104 C98 1.287 . S
O105 Fe91 1.996 1_556 S
O105 C98 1.255 . S
C106 O99 1.287 . S
C106 O100 1.255 . S
O107 Fe89 2.002 . S
O107 C103 1.295 . S
O108 Fe91 1.997 . S
O108 C103 1.235 . S
C109 O92 1.295 . S
C109 O93 1.235 . S
Fe110 O112 1.918 . S
Fe110 O115 1.997 . S
Fe110 O116 2.002 . S
Fe110 O121 1.976 . S
Fe110 O124 1.996 . S
Fe111 O112 1.918 . S
Fe111 O119 1.997 . S
Fe111 O122 1.996 . S
Fe111 O126 1.976 . S
Fe111 O129 2.002 . S
O112 Fe110 1.918 . S
O112 Fe111 1.918 . S
O112 Fe113 1.918 . S
Fe113 O112 1.918 . S
Fe113 O114 2.002 . S
Fe113 O123 1.976 . S
Fe113 O127 1.996 . S
Fe113 O130 1.997 . S
O114 Fe113 2.002 . S
O114 C131 1.295 . S
O115 Fe110 1.997 . S
O115 C131 1.235 . S
O116 Fe110 2.002 . S
O116 C117 1.295 . S
C117 O116 1.295 . S
C117 O119 1.235 . S
C118 O123 1.287 . S
C118 O124 1.255 . S
O119 Fe111 1.997 . S
O119 C117 1.235 . S
C120 O126 1.287 . S
C120 O127 1.255 . S
O121 Fe110 1.976 . S
O121 C128 1.287 . S
O122 Fe111 1.996 . S
O122 C128 1.255 . S
O123 Fe113 1.976 . S
O123 C118 1.287 . S
O124 Fe110 1.996 . S
O124 C118 1.255 . S
C125 O129 1.295 . S
C125 O130 1.235 . S
O126 Fe111 1.976 . S
O126 C120 1.287 . S
O127 Fe113 1.996 . S
O127 C120 1.255 . S
C128 O121 1.287 . S
C128 O122 1.255 . S
O129 Fe111 2.002 . S
O129 C125 1.295 . S
O130 Fe113 1.997 . S
O130 C125 1.235 . S
C131 O114 1.295 . S
C131 O115 1.235 . S
Fe132 O134 1.918 . S
Fe132 O137 1.997 . S
Fe132 O138 2.002 . S
Fe132 O143 1.976 . S
Fe132 O146 1.996 1_556 S
Fe133 O134 1.918 . S
Fe133 O141 1.997 . S
Fe133 O144 1.996 . S
Fe133 O148 1.976 . S
Fe133 O151 2.002 . S
O134 Fe132 1.918 . S
O134 Fe133 1.918 . S
O134 Fe135 1.918 . S
Fe135 O134 1.918 . S
Fe135 O136 2.002 . S
Fe135 O145 1.976 1_556 S
Fe135 O149 1.996 . S
Fe135 O152 1.997 . S
O136 Fe135 2.002 . S
O136 C153 1.295 . S
O137 Fe132 1.997 . S
O137 C153 1.235 . S
O138 Fe132 2.002 . S
O138 C139 1.295 . S
C139 O138 1.295 . S
C139 O141 1.235 . S
C140 O145 1.287 . S
C140 O146 1.255 . S
O141 Fe133 1.997 . S
O141 C139 1.235 . S
C142 O148 1.287 . S
C142 O149 1.255 . S
O143 Fe132 1.976 . S
O143 C150 1.287 . S
O144 Fe133 1.996 . S
O144 C150 1.255 . S
O145 Fe135 1.976 1_554 S
O145 C140 1.287 . S
O146 Fe132 1.996 1_554 S
O146 C140 1.255 . S
C147 O151 1.295 . S
C147 O152 1.235 . S
O148 Fe133 1.976 . S
O148 C142 1.287 . S
O149 Fe135 1.996 . S
O149 C142 1.255 . S
C150 O143 1.287 . S
C150 O144 1.255 . S
O151 Fe133 2.002 . S
O151 C147 1.295 . S
O152 Fe135 1.997 . S
O152 C147 1.235 . S
C153 O136 1.295 . S
C153 O137 1.235 . S
Fe154 O156 1.918 . S
Fe154 O159 1.997 . S
Fe154 O160 2.002 . S
Fe154 O165 1.976 . S
Fe154 O168 1.996 . S
Fe155 O156 1.918 . S
Fe155 O163 1.997 . S
Fe155 O166 1.996 . S
Fe155 O170 1.976 . S
Fe155 O173 2.002 . S
O156 Fe154 1.918 . S
O156 Fe155 1.918 . S
O156 Fe157 1.918 . S
Fe157 O156 1.918 . S
Fe157 O158 2.002 . S
Fe157 O167 1.976 . S
Fe157 O171 1.996 . S
Fe157 O174 1.997 . S
O158 Fe157 2.002 . S
O158 C175 1.295 . S
O159 Fe154 1.997 . S
O159 C175 1.235 . S
O160 Fe154 2.002 . S
O160 C161 1.295 . S
C161 O160 1.295 . S
C161 O163 1.235 . S
C162 O167 1.287 . S
C162 O168 1.255 . S
O163 Fe155 1.997 . S
O163 C161 1.235 . S
C164 O170 1.287 . S
C164 O171 1.255 . S
O165 Fe154 1.976 . S
O165 C172 1.287 . S
O166 Fe155 1.996 . S
O166 C172 1.255 . S
O167 Fe157 1.976 . S
O167 C162 1.287 . S
O168 Fe154 1.996 . S
O168 C162 1.255 . S
C169 O173 1.295 . S
C169 O174 1.235 . S
O170 Fe155 1.976 . S
O170 C164 1.287 . S
O171 Fe157 1.996 . S
O171 C164 1.255 . S
C172 O165 1.287 . S
C172 O166 1.255 . S
O173 Fe155 2.002 . S
O173 C169 1.295 . S
O174 Fe157 1.997 . S
O174 C169 1.235 . S
C175 O158 1.295 . S
C175 O159 1.235 . S
H176 C184 0.929 . S
H177 C186 0.930 . S
H178 C188 0.930 . S
H179 C191 0.929 . S
H180 C194 0.933 . S
H181 C196 0.960 . S
H182 C196 0.960 . S
H183 C196 0.960 . S
C184 H176 0.929 . S
C184 C185 1.377 . S
C184 C186 1.384 . S
C185 C184 1.377 . S
C185 C191 1.390 . S
C186 H177 0.930 . S
C186 C184 1.384 . S
C186 C187 1.372 . S
C187 C186 1.372 . S
C187 C188 1.400 . S
C187 C192 1.490 . S
C188 H178 0.930 . S
C188 C187 1.400 . S
C188 C191 1.386 . S
H189 C205 0.930 . S
H190 C206 0.931 . S
C191 H179 0.929 . S
C191 C185 1.390 . S
C191 C188 1.386 . S
C192 C187 1.490 . S
C192 C194 1.395 . S
C192 C195 1.403 . S
H193 C199 0.930 . S
C194 H180 0.933 . S
C194 C192 1.395 . S
C194 C197 1.403 1_545 S
C195 C192 1.403 . S
C195 C196 1.524 . S
C195 C199 1.400 . S
C196 H181 0.960 . S
C196 H182 0.960 . S
C196 H183 0.960 . S
C196 C195 1.524 . S
C197 C194 1.403 1_565 S
C197 C198 1.392 1_565 S
C197 C201 1.495 . S
C198 C197 1.392 1_545 S
C198 C199 1.385 . S
C198 C200 1.478 1_545 S
C199 H193 0.930 . S
C199 C195 1.400 . S
C199 C198 1.385 . S
C200 C198 1.478 1_565 S
C200 C202 1.381 . S
C200 C206 1.383 . S
C201 C197 1.495 . S
C201 H207 0.959 . S
C201 H208 0.961 . S
C201 H209 0.960 . S
C202 C200 1.381 . S
C202 C203 1.394 . S
C202 H210 0.913 1_565 S
C203 C202 1.394 . S
C203 C204 1.383 . S
C203 H211 0.929 . S
C204 C203 1.383 . S
C204 C205 1.377 . S
C205 H189 0.930 . S
C205 C204 1.377 . S
C205 C206 1.379 . S
C206 H190 0.931 . S
C206 C200 1.383 . S
C206 C205 1.379 . S
H207 C201 0.959 . S
H208 C201 0.961 . S
H209 C201 0.960 . S
H210 C202 0.913 1_545 S
H211 C203 0.929 . S
H212 C220 0.929 . S
H213 C222 0.930 . S
H214 C224 0.930 . S
H215 C227 0.929 . S
H216 C230 0.930 . S
H217 C232 0.960 . S
H218 C232 0.960 . S
H219 C232 0.960 . S
C220 H212 0.929 . S
C220 C221 1.377 . S
C220 C222 1.384 . S
C221 C220 1.377 . S
C221 C227 1.390 . S
C222 H213 0.930 . S
C222 C220 1.384 . S
C222 C223 1.372 . S
C223 C222 1.372 . S
C223 C224 1.400 . S
C223 C228 1.490 1_565 S
C224 H214 0.930 . S
C224 C223 1.400 . S
C224 C227 1.386 . S
H225 C241 0.930 . S
H226 C242 0.931 . S
C227 H215 0.929 . S
C227 C221 1.390 . S
C227 C224 1.386 . S
C228 C223 1.490 1_545 S
C228 C230 1.395 1_545 S
C228 C231 1.403 . S
H229 C235 0.930 . S
C230 H216 0.930 . S
C230 C228 1.395 1_565 S
C230 C233 1.419 . S
C231 C228 1.403 . S
C231 C232 1.524 . S
C231 C235 1.400 . S
C232 H217 0.960 . S
C232 H218 0.960 . S
C232 H219 0.960 . S
C232 C231 1.524 . S
C233 C230 1.419 . S
C233 C234 1.350 1_565 S
C233 C237 1.524 . S
C234 C233 1.350 1_545 S
C234 C235 1.385 . S
C234 C236 1.478 . S
C235 H229 0.930 . S
C235 C231 1.400 . S
C235 C234 1.385 . S
C236 C234 1.478 . S
C236 C238 1.381 . S
C236 C242 1.383 . S
C237 C233 1.524 . S
C237 H243 0.959 . S
C237 H244 0.961 . S
C237 H245 0.960 . S
C238 C236 1.381 . S
C238 C239 1.394 . S
C238 H246 0.930 . S
C239 C238 1.394 . S
C239 C240 1.383 . S
C239 H247 0.929 . S
C240 C239 1.383 . S
C240 C241 1.377 . S
C241 H225 0.930 . S
C241 C240 1.377 . S
C241 C242 1.379 . S
C242 H226 0.931 . S
C242 C236 1.383 . S
C242 C241 1.379 . S
H243 C237 0.959 . S
H244 C237 0.961 . S
H245 C237 0.960 . S
H246 C238 0.930 . S
H247 C239 0.929 . S
H248 C256 0.929 . S
H249 C258 0.930 . S
H250 C260 0.930 . S
H251 C263 0.929 1_565 S
H252 C266 0.930 . S
H253 C268 0.960 . S
H254 C268 0.960 . S
H255 C268 0.960 . S
C256 H248 0.929 . S
C256 C257 1.377 . S
C256 C258 1.384 . S
C257 C256 1.377 . S
C257 C263 1.390 . S
C258 H249 0.930 . S
C258 C256 1.384 . S
C258 C259 1.372 . S
C259 C258 1.372 . S
C259 C260 1.400 1_545 S
C259 C264 1.490 1_545 S
C260 H250 0.930 . S
C260 C259 1.400 1_565 S
C260 C263 1.386 1_565 S
H261 C277 0.930 . S
H262 C278 0.931 . S
C263 H251 0.929 1_545 S
C263 C257 1.390 . S
C263 C260 1.386 1_545 S
C264 C259 1.490 1_565 S
C264 C266 1.395 1_565 S
C264 C267 1.403 . S
H265 C271 0.930 . S
C266 H252 0.930 . S
C266 C264 1.395 1_545 S
C266 C269 1.403 1_545 S
C267 C264 1.403 . S
C267 C268 1.524 . S
C267 C271 1.400 . S
C268 H253 0.960 . S
C268 H254 0.960 . S
C268 H255 0.960 . S
C268 C267 1.524 . S
C269 C266 1.403 1_565 S
C269 C270 1.392 . S
C269 C273 1.495 1_565 S
C270 C269 1.392 . S
C270 C271 1.385 . S
C270 C272 1.478 . S
C271 H265 0.930 . S
C271 C267 1.400 . S
C271 C270 1.385 . S
C272 C270 1.478 . S
C272 C274 1.381 . S
C272 C278 1.383 . S
C273 C269 1.495 1_545 S
C273 H279 0.959 . S
C273 H280 0.961 1_545 S
C273 H281 0.960 . S
C274 C272 1.381 . S
C274 C275 1.394 . S
C274 H282 0.930 . S
C275 C274 1.394 . S
C275 C276 1.383 . S
C275 H283 0.929 . S
C276 C275 1.383 . S
C276 C277 1.377 . S
C277 H261 0.930 . S
C277 C276 1.377 . S
C277 C278 1.379 . S
C278 H262 0.931 . S
C278 C272 1.383 . S
C278 C277 1.379 . S
H279 C273 0.959 . S
H280 C273 0.961 1_565 S
H281 C273 0.960 . S
H282 C274 0.930 . S
H283 C275 0.929 . S
H284 C292 0.929 . S
H285 C294 0.930 . S
H286 C296 0.945 . S
H287 C299 0.929 . S
H288 C302 0.930 . S
H289 C304 0.960 . S
H290 C304 0.960 . S
H291 C304 0.960 . S
C292 H284 0.929 . S
C292 C293 1.377 . S
C292 C294 1.384 . S
C293 C292 1.377 . S
C293 C299 1.390 . S
C294 H285 0.930 . S
C294 C292 1.384 . S
C294 C295 1.372 . S
C295 C294 1.372 . S
C295 C296 1.400 . S
C295 C300 1.490 1_545 S
C296 H286 0.945 . S
C296 C295 1.400 . S
C296 C299 1.386 . S
H297 C313 0.930 . S
H298 C314 0.931 . S
C299 H287 0.929 . S
C299 C293 1.390 . S
C299 C296 1.386 . S
C300 C295 1.490 1_565 S
C300 C302 1.395 . S
C300 C303 1.403 1_565 S
H301 C307 0.930 . S
C302 H288 0.930 . S
C302 C300 1.395 . S
C302 C305 1.403 . S
C303 C300 1.403 1_545 S
C303 C304 1.524 . S
C303 C307 1.400 1_545 S
C304 H289 0.960 . S
C304 H290 0.960 . S
C304 H291 0.960 . S
C304 C303 1.524 . S
C305 C302 1.403 . S
C305 C306 1.392 . S
C305 C309 1.495 . S
C306 C305 1.392 . S
C306 C307 1.385 . S
C306 C308 1.478 . S
C307 H301 0.930 . S
C307 C303 1.400 1_565 S
C307 C306 1.385 . S
C308 C306 1.478 . S
C308 C310 1.381 . S
C308 C314 1.383 . S
C309 C305 1.495 . S
C309 H315 0.959 . S
C309 H316 0.961 . S
C309 H317 0.960 . S
C310 C308 1.381 . S
C310 C311 1.394 . S
C310 H318 0.930 . S
C311 C310 1.394 . S
C311 C312 1.383 . S
C311 H319 0.929 . S
C312 C311 1.383 . S
C312 C313 1.377 . S
C313 H297 0.930 . S
C313 C312 1.377 . S
C313 C314 1.379 . S
C314 H298 0.931 . S
C314 C308 1.383 . S
C314 C313 1.379 . S
H315 C309 0.959 . S
H316 C309 0.961 . S
H317 C309 0.960 . S
H318 C310 0.930 . S
H319 C311 0.929 . S
H320 C328 0.929 . S
H321 C330 0.930 . S
H322 C332 0.930 . S
H323 C335 0.929 . S
H324 C338 0.930 . S
H325 C340 0.960 . S
H326 C340 0.960 . S
H327 C340 0.960 . S
C328 H320 0.929 . S
C328 C329 1.377 . S
C328 C330 1.384 . S
C329 C328 1.377 . S
C329 C335 1.390 . S
C330 H321 0.930 . S
C330 C328 1.384 . S
C330 C331 1.372 . S
C331 C330 1.372 . S
C331 C332 1.400 . S
C331 C336 1.490 . S
C332 H322 0.930 . S
C332 C331 1.400 . S
C332 C335 1.386 . S
H333 C349 0.930 . S
H334 C350 0.931 . S
C335 H323 0.929 . S
C335 C329 1.390 . S
C335 C332 1.386 . S
C336 C331 1.490 . S
C336 C338 1.395 . S
C336 C339 1.403 . S
H337 C343 0.930 . S
C338 H324 0.930 . S
C338 C336 1.395 . S
C338 C341 1.403 . S
C339 C336 1.403 . S
C339 C340 1.524 . S
C339 C343 1.400 . S
C340 H325 0.960 . S
C340 H326 0.960 . S
C340 H327 0.960 . S
C340 C339 1.524 . S
C341 C338 1.403 . S
C341 C342 1.392 . S
C341 C345 1.495 . S
C342 C341 1.392 . S
C342 C343 1.385 . S
C342 C344 1.478 . S
C343 H337 0.930 . S
C343 C339 1.400 . S
C343 C342 1.385 . S
C344 C342 1.478 . S
C344 C346 1.381 . S
C344 C350 1.383 . S
C345 C341 1.495 . S
C345 H351 0.959 . S
C345 H352 0.961 . S
C345 H353 0.960 . S
C346 C344 1.381 . S
C346 C347 1.394 . S
C346 H354 0.930 . S
C347 C346 1.394 . S
C347 C348 1.383 . S
C347 H355 0.929 . S
C348 C347 1.383 . S
C348 C349 1.377 . S
C349 H333 0.930 . S
C349 C348 1.377 . S
C349 C350 1.379 . S
C350 H334 0.931 . S
C350 C344 1.383 . S
C350 C349 1.379 . S
H351 C345 0.959 . S
H352 C345 0.961 . S
H353 C345 0.960 . S
H354 C346 0.930 . S
H355 C347 0.929 . S
H356 C364 0.929 . S
H357 C366 0.930 . S
H358 C368 0.930 . S
H359 C371 0.929 . S
H360 C374 0.930 . S
H361 C376 0.960 . S
H362 C376 0.960 . S
H363 C376 0.960 . S
C364 H356 0.929 . S
C364 C365 1.377 . S
C364 C366 1.384 . S
C365 C364 1.377 . S
C365 C371 1.390 . S
C366 H357 0.930 . S
C366 C364 1.384 . S
C366 C367 1.372 . S
C367 C366 1.372 . S
C367 C368 1.400 . S
C367 C372 1.490 . S
C368 H358 0.930 . S
C368 C367 1.400 . S
C368 C371 1.386 . S
H369 C385 0.930 . S
H370 C386 0.931 . S
C371 H359 0.929 . S
C371 C365 1.390 . S
C371 C368 1.386 . S
C372 C367 1.490 . S
C372 C374 1.395 . S
C372 C375 1.403 . S
H373 C379 0.930 . S
C374 H360 0.930 . S
C374 C372 1.395 . S
C374 C377 1.403 . S
C375 C372 1.403 . S
C375 C376 1.524 . S
C375 C379 1.400 . S
C376 H361 0.960 . S
C376 H362 0.960 . S
C376 H363 0.960 . S
C376 C375 1.524 . S
C377 C374 1.403 . S
C377 C378 1.392 . S
C377 C381 1.495 . S
C378 C377 1.392 . S
C378 C379 1.385 . S
C378 C380 1.478 . S
C379 H373 0.930 . S
C379 C375 1.400 . S
C379 C378 1.385 . S
C380 C378 1.478 . S
C380 C382 1.381 . S
C380 C386 1.383 . S
C381 C377 1.495 . S
C381 H387 0.959 . S
C381 H388 0.961 . S
C381 H389 0.960 . S
C382 C380 1.381 . S
C382 C383 1.394 . S
C382 H390 0.930 . S
C383 C382 1.394 . S
C383 C384 1.383 . S
C383 H391 0.929 . S
C384 C383 1.383 . S
C384 C385 1.377 . S
C385 H369 0.930 . S
C385 C384 1.377 . S
C385 C386 1.379 . S
C386 H370 0.931 . S
C386 C380 1.383 . S
C386 C385 1.379 . S
H387 C381 0.959 . S
H388 C381 0.961 . S
H389 C381 0.960 . S
H390 C382 0.930 . S
H391 C383 0.929 . S
H392 C400 0.929 . S
H393 C402 0.930 . S
H394 C404 0.930 . S
H395 C407 0.929 . S
H396 C410 0.930 . S
H397 C412 0.960 . S
H398 C412 0.960 . S
H399 C412 0.960 . S
C400 H392 0.929 . S
C400 C401 1.377 . S
C400 C402 1.384 . S
C401 C400 1.377 . S
C401 C407 1.390 . S
C402 H393 0.930 . S
C402 C400 1.384 . S
C402 C403 1.372 . S
C403 C402 1.372 . S
C403 C404 1.400 . S
C403 C408 1.490 . S
C404 H394 0.930 . S
C404 C403 1.400 . S
C404 C407 1.386 . S
H405 C421 0.930 . S
H406 C422 0.931 . S
C407 H395 0.929 . S
C407 C401 1.390 . S
C407 C404 1.386 . S
C408 C403 1.490 . S
C408 C410 1.395 . S
C408 C411 1.403 . S
H409 C415 0.930 . S
C410 H396 0.930 . S
C410 C408 1.395 . S
C410 C413 1.403 . S
C411 C408 1.403 . S
C411 C412 1.524 . S
C411 C415 1.400 . S
C412 H397 0.960 . S
C412 H398 0.960 . S
C412 H399 0.960 . S
C412 C411 1.524 . S
C413 C410 1.403 . S
C413 C414 1.392 . S
C413 C417 1.495 . S
C414 C413 1.392 . S
C414 C415 1.385 . S
C414 C416 1.478 . S
C415 H409 0.930 . S
C415 C411 1.400 . S
C415 C414 1.385 . S
C416 C414 1.478 . S
C416 C418 1.381 . S
C416 C422 1.383 . S
C417 C413 1.495 . S
C417 H423 0.959 . S
C417 H424 0.961 . S
C417 H425 0.960 . S
C418 C416 1.381 . S
C418 C419 1.394 . S
C418 H426 0.930 . S
C419 C418 1.394 . S
C419 C420 1.383 . S
C419 H427 0.929 . S
C420 C419 1.383 . S
C420 C421 1.377 . S
C421 H405 0.930 . S
C421 C420 1.377 . S
C421 C422 1.379 . S
C422 H406 0.931 . S
C422 C416 1.383 . S
C422 C421 1.379 . S
H423 C417 0.959 . S
H424 C417 0.961 . S
H425 C417 0.960 . S
H426 C418 0.930 . S
H427 C419 0.929 . S
H428 C436 0.929 . S
H429 C438 0.930 . S
H430 C440 0.930 . S
H431 C443 0.929 . S
H432 C446 0.930 . S
H433 C448 0.960 . S
H434 C448 0.960 . S
H435 C448 0.960 . S
C436 H428 0.929 . S
C436 C437 1.377 . S
C436 C438 1.384 . S
C437 C436 1.377 . S
C437 C443 1.390 . S
C438 H429 0.930 . S
C438 C436 1.384 . S
C438 C439 1.372 . S
C439 C438 1.372 . S
C439 C440 1.400 . S
C439 C444 1.490 . S
C440 H430 0.930 . S
C440 C439 1.400 . S
C440 C443 1.386 . S
H441 C457 0.930 . S
H442 C458 0.931 . S
C443 H431 0.929 . S
C443 C437 1.390 . S
C443 C440 1.386 . S
C444 C439 1.490 . S
C444 C446 1.395 . S
C444 C447 1.403 . S
H445 C451 0.930 . S
C446 H432 0.930 . S
C446 C444 1.395 . S
C446 C449 1.403 . S
C447 C444 1.403 . S
C447 C448 1.524 . S
C447 C451 1.400 . S
C448 H433 0.960 . S
C448 H434 0.960 . S
C448 H435 0.960 . S
C448 C447 1.524 . S
C449 C446 1.403 . S
C449 C450 1.392 . S
C449 C453 1.495 . S
C450 C449 1.392 . S
C450 C451 1.385 . S
C450 C452 1.478 . S
C451 H445 0.930 . S
C451 C447 1.400 . S
C451 C450 1.385 . S
C452 C450 1.478 . S
C452 C454 1.381 . S
C452 C458 1.383 . S
C453 C449 1.495 . S
C453 H459 0.959 . S
C453 H460 0.961 . S
C453 H461 0.960 . S
C454 C452 1.381 . S
C454 C455 1.394 . S
C454 H462 0.930 . S
C455 C454 1.394 . S
C455 C456 1.383 . S
C455 H463 0.929 . S
C456 C455 1.383 . S
C456 C457 1.377 . S
C457 H441 0.930 . S
C457 C456 1.377 . S
C457 C458 1.379 . S
C458 H442 0.931 . S
C458 C452 1.383 . S
C458 C457 1.379 . S
H459 C453 0.959 . S
H460 C453 0.961 . S
H461 C453 0.960 . S
H462 C454 0.930 . S
H463 C455 0.929 . S
H464 C472 0.929 1_565 S
H465 C474 0.930 . S
H466 C476 0.930 . S
H467 C479 0.929 . S
H468 C482 0.930 . S
H469 C484 0.960 . S
H470 C484 0.960 . S
H471 C484 0.960 . S
C472 H464 0.929 1_545 S
C472 C473 1.377 . S
C472 C474 1.384 1_545 S
C473 C472 1.377 . S
C473 C479 1.390 . S
C474 H465 0.930 . S
C474 C472 1.384 1_565 S
C474 C475 1.372 1_565 S
C475 C474 1.372 1_545 S
C475 C476 1.400 . S
C475 C480 1.490 . S
C476 H466 0.930 . S
C476 C475 1.400 . S
C476 C479 1.386 . S
H477 C493 0.930 1_545 S
H478 C494 0.949 . S
C479 H467 0.929 . S
C479 C473 1.390 . S
C479 C476 1.386 . S
C480 C475 1.490 . S
C480 C482 1.395 1_544 S
C480 C483 1.403 . S
H481 C487 0.930 . S
C482 H468 0.930 . S
C482 C480 1.395 1_566 S
C482 C485 1.403 . S
C483 C480 1.403 . S
C483 C484 1.524 . S
C483 C487 1.400 1_545 S
C484 H469 0.960 . S
C484 H470 0.960 . S
C484 H471 0.960 . S
C484 C483 1.524 . S
C485 C482 1.403 . S
C485 C486 1.392 . S
C485 C489 1.495 . S
C486 C485 1.392 . S
C486 C487 1.385 1_556 S
C486 C488 1.478 . S
C487 H481 0.930 . S
C487 C483 1.400 1_565 S
C487 C486 1.385 1_554 S
C488 C486 1.478 . S
C488 C490 1.381 . S
C488 C494 1.370 1_565 S
C489 C485 1.495 . S
C489 H495 0.959 . S
C489 H496 0.961 . S
C489 H497 0.960 . S
C490 C488 1.381 . S
C490 C491 1.394 . S
C490 H498 0.930 . S
C491 C490 1.394 . S
C491 C492 1.383 . S
C491 H499 0.929 . S
C492 C491 1.383 . S
C492 C493 1.377 . S
C493 H477 0.930 1_565 S
C493 C492 1.377 . S
C493 C494 1.375 1_565 S
C494 H478 0.949 . S
C494 C488 1.370 1_545 S
C494 C493 1.375 1_545 S
H495 C489 0.959 . S
H496 C489 0.961 . S
H497 C489 0.960 . S
H498 C490 0.930 . S
H499 C491 0.929 . S
H500 C508 0.929 . S
H501 C510 0.930 . S
H502 C512 0.930 1_545 S
H503 C515 0.929 1_545 S
H504 C518 0.930 . S
H505 C520 0.960 . S
H506 C520 0.960 . S
H507 C520 0.964 . S
C508 H500 0.929 . S
C508 C509 1.377 . S
C508 C510 1.384 . S
C509 C508 1.377 . S
C509 C515 1.390 . S
C510 H501 0.930 . S
C510 C508 1.384 . S
C510 C511 1.372 . S
C511 C510 1.372 . S
C511 C512 1.400 . S
C511 C516 1.490 . S
C512 H502 0.930 1_565 S
C512 C511 1.400 . S
C512 C515 1.386 . S
H513 C529 0.930 . S
H514 C530 0.931 . S
C515 H503 0.929 1_565 S
C515 C509 1.390 . S
C515 C512 1.386 . S
C516 C511 1.490 . S
C516 C518 1.395 . S
C516 C519 1.403 . S
H517 C523 0.930 . S
C518 H504 0.930 . S
C518 C516 1.395 . S
C518 C521 1.403 1_565 S
C519 C516 1.403 . S
C519 C520 1.524 . S
C519 C523 1.400 1_565 S
C520 H505 0.960 . S
C520 H506 0.960 . S
C520 H507 0.964 . S
C520 C519 1.524 . S
C521 C518 1.403 1_545 S
C521 C522 1.392 . S
C521 C525 1.495 . S
C522 C521 1.392 . S
C522 C523 1.385 . S
C522 C524 1.478 . S
C523 H517 0.930 . S
C523 C519 1.400 1_545 S
C523 C522 1.385 . S
C524 C522 1.478 . S
C524 C526 1.382 . S
C524 C530 1.383 . S
C525 C521 1.495 . S
C525 H531 0.959 . S
C525 H532 0.961 . S
C525 H533 0.960 1_545 S
C526 C524 1.382 . S
C526 C527 1.395 . S
C526 H534 0.928 1_545 S
C527 C526 1.395 . S
C527 C528 1.383 . S
C527 H535 0.929 1_545 S
C528 C527 1.383 . S
C528 C529 1.377 . S
C529 H513 0.930 . S
C529 C528 1.377 . S
C529 C530 1.379 . S
C530 H514 0.931 . S
C530 C524 1.383 . S
C530 C529 1.379 . S
H531 C525 0.959 . S
H532 C525 0.961 . S
H533 C525 0.960 1_565 S
H534 C526 0.928 1_565 S
H535 C527 0.929 1_565 S
H536 C544 0.929 1_556 S
H537 C546 0.930 . S
H538 C548 0.930 . S
H539 C551 0.929 . S
H540 C554 0.930 . S
H541 C556 0.973 . S
H542 C556 0.960 . S
H543 C556 0.960 . S
C544 H536 0.929 1_554 S
C544 C545 1.377 . S
C544 C546 1.384 1_554 S
C545 C544 1.377 . S
C545 C551 1.390 . S
C546 H537 0.930 . S
C546 C544 1.384 1_556 S
C546 C547 1.372 1_556 S
C547 C546 1.372 1_554 S
C547 C548 1.400 . S
C547 C552 1.490 . S
C548 H538 0.930 . S
C548 C547 1.400 . S
C548 C551 1.386 . S
H549 C565 0.930 1_554 S
H550 C566 0.954 . S
C551 H539 0.929 . S
C551 C545 1.390 . S
C551 C548 1.386 . S
C552 C547 1.490 . S
C552 C554 1.395 1_554 S
C552 C555 1.403 . S
H553 C559 0.930 . S
C554 H540 0.930 . S
C554 C552 1.395 1_556 S
C554 C557 1.403 1_655 S
C555 C552 1.403 . S
C555 C556 1.524 . S
C555 C559 1.400 1_655 S
C556 H541 0.973 . S
C556 H542 0.960 . S
C556 H543 0.960 . S
C556 C555 1.524 . S
C557 C554 1.403 1_455 S
C557 C558 1.392 . S
C557 C561 1.495 . S
C558 C557 1.392 . S
C558 C559 1.385 1_556 S
C558 C560 1.478 . S
C559 H553 0.930 . S
C559 C555 1.400 1_455 S
C559 C558 1.385 1_554 S
C560 C558 1.478 . S
C560 C562 1.381 . S
C560 C566 1.370 1_556 S
C561 C557 1.495 . S
C561 H567 0.959 1_455 S
C561 H568 0.961 . S
C561 H569 0.960 . S
C562 C560 1.381 . S
C562 C563 1.394 . S
C562 H570 0.930 . S
C563 C562 1.394 . S
C563 C564 1.383 . S
C563 H571 0.929 . S
C564 C563 1.383 . S
C564 C565 1.377 . S
C565 H549 0.930 1_556 S
C565 C564 1.377 . S
C565 C566 1.370 1_556 S
C566 H550 0.954 . S
C566 C560 1.370 1_554 S
C566 C565 1.370 1_554 S
H567 C561 0.959 1_655 S
H568 C561 0.961 . S
H569 C561 0.960 . S
H570 C562 0.930 . S
H571 C563 0.929 . S
H572 C580 0.929 . S
H573 C582 0.930 . S
H574 C584 0.930 . S
H575 C587 0.929 . S
H576 C590 0.930 . S
H577 C592 0.960 . S
H578 C592 0.960 . S
H579 C592 0.960 . S
C580 H572 0.929 . S
C580 C581 1.377 . S
C580 C582 1.384 . S
C581 C580 1.377 . S
C581 C587 1.390 . S
C582 H573 0.930 . S
C582 C580 1.384 . S
C582 C583 1.372 . S
C583 C582 1.372 . S
C583 C584 1.400 . S
C583 C588 1.490 . S
C584 H574 0.930 . S
C584 C583 1.400 . S
C584 C587 1.386 . S
H585 C601 0.930 . S
H586 C602 0.931 . S
C587 H575 0.929 . S
C587 C581 1.390 . S
C587 C584 1.386 . S
C588 C583 1.490 . S
C588 C590 1.395 . S
C588 C591 1.403 . S
H589 C595 0.930 . S
C590 H576 0.930 . S
C590 C588 1.395 . S
C590 C593 1.403 1_455 S
C591 C588 1.403 . S
C591 C592 1.524 . S
C591 C595 1.400 1_455 S
C592 H577 0.960 . S
C592 H578 0.960 . S
C592 H579 0.960 . S
C592 C591 1.524 . S
C593 C590 1.403 1_655 S
C593 C594 1.392 . S
C593 C597 1.495 . S
C594 C593 1.392 . S
C594 C595 1.385 . S
C594 C596 1.478 . S
C595 H589 0.930 . S
C595 C591 1.400 1_655 S
C595 C594 1.385 . S
C596 C594 1.478 . S
C596 C598 1.381 . S
C596 C602 1.383 . S
C597 C593 1.495 . S
C597 H603 0.959 . S
C597 H604 0.961 . S
C597 H605 0.960 . S
C598 C596 1.381 . S
C598 C599 1.394 . S
C598 H606 0.930 . S
C599 C598 1.394 . S
C599 C600 1.383 . S
C599 H607 0.929 . S
C600 C599 1.383 . S
C600 C601 1.377 . S
C601 H585 0.930 . S
C601 C600 1.377 . S
C601 C602 1.379 . S
C602 H586 0.931 . S
C602 C596 1.383 . S
C602 C601 1.379 . S
H603 C597 0.959 . S
H604 C597 0.961 . S
H605 C597 0.960 . S
H606 C598 0.930 . S
H607 C599 0.929 . S
H608 C616 0.929 . S
H609 C618 0.930 . S
H610 C620 0.930 . S
H611 C623 0.929 . S
H612 C626 0.930 . S
H613 C628 0.960 . S
H614 C628 0.960 1_455 S
H615 C628 0.960 1_454 S
C616 H608 0.929 . S
C616 C617 1.377 1_556 S
C616 C618 1.384 . S
C617 C616 1.377 1_554 S
C617 C623 1.390 . S
C618 H609 0.930 . S
C618 C616 1.384 . S
C618 C619 1.372 1_556 S
C619 C618 1.372 1_554 S
C619 C620 1.400 . S
C619 C624 1.490 . S
C620 H610 0.930 . S
C620 C619 1.400 . S
C620 C623 1.386 . S
H621 C637 0.930 . S
H622 C638 0.931 . S
C623 H611 0.929 . S
C623 C617 1.390 . S
C623 C620 1.386 . S
C624 C619 1.490 . S
C624 C626 1.395 1_545 S
C624 C627 1.410 1_554 S
H625 C631 0.930 . S
C626 H612 0.930 . S
C626 C624 1.395 1_565 S
C626 C629 1.403 1_554 S
C627 C624 1.410 1_556 S
C627 C628 1.523 1_455 S
C627 C631 1.393 1_455 S
C628 H613 0.960 . S
C628 H614 0.960 1_655 S
C628 H615 0.960 1_656 S
C628 C627 1.523 1_655 S
C629 C626 1.403 1_556 S
C629 C630 1.392 1_455 S
C629 C633 1.495 1_556 S
C630 C629 1.392 1_655 S
C630 C631 1.385 1_565 S
C630 C632 1.478 . S
C631 H625 0.930 . S
C631 C627 1.393 1_655 S
C631 C630 1.385 1_545 S
C632 C630 1.478 . S
C632 C634 1.381 . S
C632 C638 1.383 1_556 S
C633 C629 1.495 1_554 S
C633 H639 0.959 . S
C633 H640 0.965 1_455 S
C633 H641 0.956 1_454 S
C634 C632 1.381 . S
C634 C635 1.394 . S
C634 H642 0.930 . S
C635 C634 1.394 . S
C635 C636 1.383 . S
C635 H643 0.929 . S
C636 C635 1.383 . S
C636 C637 1.377 1_556 S
C637 H621 0.930 . S
C637 C636 1.377 1_554 S
C637 C638 1.379 . S
C638 H622 0.931 . S
C638 C632 1.383 1_554 S
C638 C637 1.379 . S
H639 C633 0.959 . S
H640 C633 0.965 1_655 S
H641 C633 0.956 1_656 S
H642 C634 0.930 . S
H643 C635 0.929 . S
H644 C652 0.929 . S
H645 C654 0.930 . S
H646 C656 0.899 1_565 S
H647 C659 0.929 . S
H648 C662 0.930 . S
H649 C664 0.960 . S
H650 C664 0.960 . S
H651 C664 0.960 . S
C652 H644 0.929 . S
C652 C653 1.377 . S
C652 C654 1.384 . S
C653 C652 1.377 . S
C653 C659 1.390 . S
C654 H645 0.930 . S
C654 C652 1.384 . S
C654 C655 1.372 . S
C655 C654 1.372 . S
C655 C656 1.400 . S
C655 C660 1.490 . S
C656 H646 0.899 1_545 S
C656 C655 1.400 . S
C656 C659 1.386 . S
H657 C673 0.930 . S
H658 C674 0.931 . S
C659 H647 0.929 . S
C659 C653 1.390 . S
C659 C656 1.386 . S
C660 C655 1.490 . S
C660 C662 1.395 . S
C660 C663 1.403 1_545 S
H661 C667 0.930 . S
C662 H648 0.930 . S
C662 C660 1.395 . S
C662 C665 1.403 1_655 S
C663 C660 1.403 1_565 S
C663 C664 1.524 . S
C663 C667 1.400 1_655 S
C664 H649 0.960 . S
C664 H650 0.960 . S
C664 H651 0.960 . S
C664 C663 1.524 . S
C665 C662 1.403 1_455 S
C665 C666 1.392 1_545 S
C665 C669 1.495 . S
C666 C665 1.392 1_565 S
C666 C667 1.385 . S
C666 C668 1.478 . S
C667 H661 0.930 . S
C667 C663 1.400 1_455 S
C667 C666 1.385 . S
C668 C666 1.478 . S
C668 C670 1.381 . S
C668 C674 1.383 . S
C669 C665 1.495 . S
C669 H675 0.959 . S
C669 H676 0.961 . S
C669 H677 0.960 . S
C670 C668 1.381 . S
C670 C671 1.394 . S
C670 H678 0.930 1_565 S
C671 C670 1.394 . S
C671 C672 1.383 . S
C671 H679 0.929 . S
C672 C671 1.383 . S
C672 C673 1.377 . S
C673 H657 0.930 . S
C673 C672 1.377 . S
C673 C674 1.379 . S
C674 H658 0.931 . S
C674 C668 1.383 . S
C674 C673 1.379 . S
H675 C669 0.959 . S
H676 C669 0.961 . S
H677 C669 0.960 . S
H678 C670 0.930 1_545 S
H679 C671 0.929 . S
H680 C688 0.929 . S
H681 C690 0.930 . S
H682 C692 0.930 . S
H683 C695 0.929 . S
H684 C698 0.930 . S
H685 C700 0.960 . S
H686 C700 0.960 . S
H687 C700 0.960 . S
C688 H680 0.929 . S
C688 C689 1.377 1_554 S
C688 C690 1.384 . S
C689 C688 1.377 1_556 S
C689 C695 1.390 . S
C690 H681 0.930 . S
C690 C688 1.384 . S
C690 C691 1.372 1_554 S
C691 C690 1.372 1_556 S
C691 C692 1.400 . S
C691 C696 1.490 . S
C692 H682 0.930 . S
C692 C691 1.400 . S
C692 C695 1.386 . S
H693 C709 0.930 . S
H694 C710 0.931 . S
C695 H683 0.929 . S
C695 C689 1.390 . S
C695 C692 1.386 . S
C696 C691 1.490 . S
C696 C698 1.395 1_556 S
C696 C699 1.403 . S
H697 C703 0.930 . S
C698 H684 0.930 . S
C698 C696 1.395 1_554 S
C698 C701 1.403 . S
C699 C696 1.403 . S
C699 C700 1.524 . S
C699 C703 1.400 . S
C700 H685 0.960 . S
C700 H686 0.960 . S
C700 H687 0.960 . S
C700 C699 1.524 . S
C701 C698 1.403 . S
C701 C702 1.392 . S
C701 C705 1.495 . S
C702 C701 1.392 . S
C702 C703 1.385 1_554 S
C702 C704 1.478 . S
C703 H697 0.930 . S
C703 C699 1.400 . S
C703 C702 1.385 1_556 S
C704 C702 1.478 . S
C704 C706 1.381 . S
C704 C710 1.383 1_554 S
C705 C701 1.495 . S
C705 H711 0.959 . S
C705 H712 0.961 . S
C705 H713 0.960 . S
C706 C704 1.381 . S
C706 C707 1.394 . S
C706 H714 0.930 . S
C707 C706 1.394 . S
C707 C708 1.383 . S
C707 H715 0.929 . S
C708 C707 1.383 . S
C708 C709 1.377 1_554 S
C709 H693 0.930 . S
C709 C708 1.377 1_556 S
C709 C710 1.379 . S
C710 H694 0.931 . S
C710 C704 1.383 1_556 S
C710 C709 1.379 . S
H711 C705 0.959 . S
H712 C705 0.961 . S
H713 C705 0.960 . S
H714 C706 0.930 . S
H715 C707 0.929 . S
H716 C724 0.929 . S
H717 C726 0.930 . S
H718 C728 0.930 . S
H719 C731 0.929 . S
H720 C734 0.930 . S
H721 C736 0.960 . S
H722 C736 0.960 . S
H723 C736 0.960 . S
C724 H716 0.929 . S
C724 C725 1.377 . S
C724 C726 1.384 . S
C725 C724 1.377 . S
C725 C731 1.390 . S
C726 H717 0.930 . S
C726 C724 1.384 . S
C726 C727 1.372 . S
C727 C726 1.372 . S
C727 C728 1.400 . S
C727 C732 1.490 . S
C728 H718 0.930 . S
C728 C727 1.400 . S
C728 C731 1.386 . S
H729 C745 0.930 . S
H730 C746 0.931 . S
C731 H719 0.929 . S
C731 C725 1.390 . S
C731 C728 1.386 . S
C732 C727 1.490 . S
C732 C734 1.395 . S
C732 C735 1.403 . S
H733 C739 0.930 . S
C734 H720 0.930 . S
C734 C732 1.395 . S
C734 C737 1.403 . S
C735 C732 1.403 . S
C735 C736 1.524 . S
C735 C739 1.400 . S
C736 H721 0.960 . S
C736 H722 0.960 . S
C736 H723 0.960 . S
C736 C735 1.524 . S
C737 C734 1.403 . S
C737 C738 1.392 . S
C737 C741 1.495 . S
C738 C737 1.392 . S
C738 C739 1.385 . S
C738 C740 1.478 . S
C739 H733 0.930 . S
C739 C735 1.400 . S
C739 C738 1.385 . S
C740 C738 1.478 . S
C740 C742 1.381 . S
C740 C746 1.383 . S
C741 C737 1.495 . S
C741 H747 0.959 . S
C741 H748 0.961 . S
C741 H749 0.960 . S
C742 C740 1.381 . S
C742 C743 1.394 . S
C742 H750 0.930 . S
C743 C742 1.394 . S
C743 C744 1.383 . S
C743 H751 0.929 . S
C744 C743 1.383 . S
C744 C745 1.377 . S
C745 H729 0.930 . S
C745 C744 1.377 . S
C745 C746 1.379 . S
C746 H730 0.931 . S
C746 C740 1.383 . S
C746 C745 1.379 . S
H747 C741 0.959 . S
H748 C741 0.961 . S
H749 C741 0.960 . S
H750 C742 0.930 . S
H751 C743 0.929 . S
H752 C760 0.929 . S
H753 C762 0.930 . S
H754 C764 0.930 . S
H755 C767 0.929 . S
H756 C770 0.930 . S
H757 C772 0.960 . S
H758 C772 0.960 . S
H759 C772 0.960 . S
C760 H752 0.929 . S
C760 C761 1.377 . S
C760 C762 1.384 . S
C761 C760 1.377 . S
C761 C767 1.390 . S
C762 H753 0.930 . S
C762 C760 1.384 . S
C762 C763 1.372 . S
C763 C762 1.372 . S
C763 C764 1.400 . S
C763 C768 1.490 . S
C764 H754 0.930 . S
C764 C763 1.400 . S
C764 C767 1.386 . S
H765 C781 0.930 . S
H766 C782 0.931 . S
C767 H755 0.929 . S
C767 C761 1.390 . S
C767 C764 1.386 . S
C768 C763 1.490 . S
C768 C770 1.395 . S
C768 C771 1.403 . S
H769 C775 0.930 . S
C770 H756 0.930 . S
C770 C768 1.395 . S
C770 C773 1.403 . S
C771 C768 1.403 . S
C771 C772 1.524 . S
C771 C775 1.400 . S
C772 H757 0.960 . S
C772 H758 0.960 . S
C772 H759 0.960 . S
C772 C771 1.524 . S
C773 C770 1.403 . S
C773 C774 1.392 . S
C773 C777 1.495 . S
C774 C773 1.392 . S
C774 C775 1.385 . S
C774 C776 1.478 . S
C775 H769 0.930 . S
C775 C771 1.400 . S
C775 C774 1.385 . S
C776 C774 1.478 . S
C776 C778 1.381 . S
C776 C782 1.383 . S
C777 C773 1.495 . S
C777 H783 0.959 . S
C777 H784 0.961 . S
C777 H785 0.960 . S
C778 C776 1.381 . S
C778 C779 1.394 . S
C778 H786 0.930 . S
C779 C778 1.394 . S
C779 C780 1.383 . S
C779 H787 0.929 . S
C780 C779 1.383 . S
C780 C781 1.377 . S
C781 H765 0.930 . S
C781 C780 1.377 . S
C781 C782 1.379 . S
C782 H766 0.931 . S
C782 C776 1.383 . S
C782 C781 1.379 . S
H783 C777 0.959 . S
H784 C777 0.961 . S
H785 C777 0.960 . S
H786 C778 0.930 . S
H787 C779 0.929 . S
H788 C796 0.929 . S
H789 C798 0.930 . S
H790 C800 0.930 . S
H791 C803 0.929 . S
H792 C806 0.930 . S
H793 C808 0.960 . S
H794 C808 0.960 . S
H795 C808 0.960 . S
C796 H788 0.929 . S
C796 C797 1.377 . S
C796 C798 1.384 . S
C797 C796 1.377 . S
C797 C803 1.390 . S
C798 H789 0.930 . S
C798 C796 1.384 . S
C798 C799 1.372 . S
C799 C798 1.372 . S
C799 C800 1.400 . S
C799 C804 1.490 . S
C800 H790 0.930 . S
C800 C799 1.400 . S
C800 C803 1.386 . S
H801 C817 0.930 . S
H802 C818 0.931 . S
C803 H791 0.929 . S
C803 C797 1.390 . S
C803 C800 1.386 . S
C804 C799 1.490 . S
C804 C806 1.395 . S
C804 C807 1.403 . S
H805 C811 0.930 . S
C806 H792 0.930 . S
C806 C804 1.395 . S
C806 C809 1.403 . S
C807 C804 1.403 . S
C807 C808 1.524 . S
C807 C811 1.400 . S
C808 H793 0.960 . S
C808 H794 0.960 . S
C808 H795 0.960 . S
C808 C807 1.524 . S
C809 C806 1.403 . S
C809 C810 1.392 . S
C809 C813 1.495 . S
C810 C809 1.392 . S
C810 C811 1.385 . S
C810 C812 1.478 . S
C811 H805 0.930 . S
C811 C807 1.400 . S
C811 C810 1.385 . S
C812 C810 1.478 . S
C812 C814 1.381 . S
C812 C818 1.383 . S
C813 C809 1.495 . S
C813 H819 0.959 . S
C813 H820 0.961 . S
C813 H821 0.960 . S
C814 C812 1.381 . S
C814 C815 1.394 . S
C814 H822 0.930 . S
C815 C814 1.394 . S
C815 C816 1.383 . S
C815 H823 0.929 . S
C816 C815 1.383 . S
C816 C817 1.377 . S
C817 H801 0.930 . S
C817 C816 1.377 . S
C817 C818 1.379 . S
C818 H802 0.931 . S
C818 C812 1.383 . S
C818 C817 1.379 . S
H819 C813 0.959 . S
H820 C813 0.961 . S
H821 C813 0.960 . S
H822 C814 0.930 . S
H823 C815 0.929 . S
H824 C832 0.929 . S
H825 C834 0.930 . S
H826 C836 0.930 . S
H827 C839 0.929 . S
H828 C842 0.930 . S
H829 C844 0.960 . S
H830 C844 0.960 1_655 S
H831 C844 0.960 . S
C832 H824 0.929 . S
C832 C833 1.377 . S
C832 C834 1.384 . S
C833 C832 1.377 . S
C833 C839 1.390 . S
C834 H825 0.930 . S
C834 C832 1.384 . S
C834 C835 1.372 . S
C835 C834 1.372 . S
C835 C836 1.400 . S
C835 C840 1.490 . S
C836 H826 0.930 . S
C836 C835 1.400 . S
C836 C839 1.386 . S
H837 C853 0.930 . S
H838 C854 0.931 . S
C839 H827 0.929 . S
C839 C833 1.390 . S
C839 C836 1.386 . S
C840 C835 1.490 . S
C840 C842 1.395 . S
C840 C843 1.403 1_655 S
H841 C847 0.930 . S
C842 H828 0.930 . S
C842 C840 1.395 . S
C842 C845 1.403 . S
C843 C840 1.403 1_455 S
C843 C844 1.524 . S
C843 C847 1.400 . S
C844 H829 0.960 . S
C844 H830 0.960 1_455 S
C844 H831 0.960 . S
C844 C843 1.524 . S
C845 C842 1.403 . S
C845 C846 1.392 1_655 S
C845 C849 1.495 . S
C846 C845 1.392 1_455 S
C846 C847 1.385 . S
C846 C848 1.478 . S
C847 H841 0.930 . S
C847 C843 1.400 . S
C847 C846 1.385 . S
C848 C846 1.478 . S
C848 C850 1.381 . S
C848 C854 1.383 . S
C849 C845 1.495 . S
C849 H855 0.959 . S
C849 H856 0.961 1_655 S
C849 H857 0.960 . S
C850 C848 1.381 . S
C850 C851 1.394 . S
C850 H858 0.930 . S
C851 C850 1.394 . S
C851 C852 1.383 . S
C851 H859 0.929 . S
C852 C851 1.383 . S
C852 C853 1.377 . S
C853 H837 0.930 . S
C853 C852 1.377 . S
C853 C854 1.379 . S
C854 H838 0.931 . S
C854 C848 1.383 . S
C854 C853 1.379 . S
H855 C849 0.959 . S
H856 C849 0.961 1_455 S
H857 C849 0.960 . S
H858 C850 0.930 . S
H859 C851 0.929 . S
H860 C868 0.929 . S
H861 C870 0.930 . S
H862 C872 0.930 . S
H863 C875 0.929 . S
H864 C878 0.930 . S
H865 C880 0.960 . S
H866 C880 0.960 . S
H867 C880 0.960 . S
C868 H860 0.929 . S
C868 C869 1.377 . S
C868 C870 1.384 . S
C869 C868 1.377 . S
C869 C875 1.390 . S
C870 H861 0.930 . S
C870 C868 1.384 . S
C870 C871 1.372 . S
C871 C870 1.372 . S
C871 C872 1.400 . S
C871 C876 1.490 . S
C872 H862 0.930 . S
C872 C871 1.400 . S
C872 C875 1.386 . S
H873 C889 0.930 . S
H874 C890 0.931 . S
C875 H863 0.929 . S
C875 C869 1.390 . S
C875 C872 1.386 . S
C876 C871 1.490 . S
C876 C878 1.395 1_655 S
C876 C879 1.403 . S
H877 C883 0.930 . S
C878 H864 0.930 . S
C878 C876 1.395 1_455 S
C878 C881 1.403 . S
C879 C876 1.403 . S
C879 C880 1.524 . S
C879 C883 1.400 1_655 S
C880 H865 0.960 . S
C880 H866 0.960 . S
C880 H867 0.960 . S
C880 C879 1.524 . S
C881 C878 1.403 . S
C881 C882 1.392 . S
C881 C885 1.495 . S
C882 C881 1.392 . S
C882 C883 1.385 . S
C882 C884 1.478 . S
C883 H877 0.930 . S
C883 C879 1.400 1_455 S
C883 C882 1.385 . S
C884 C882 1.478 . S
C884 C886 1.381 . S
C884 C890 1.383 . S
C885 C881 1.495 . S
C885 H891 0.959 . S
C885 H892 0.961 . S
C885 H893 0.960 . S
C886 C884 1.381 . S
C886 C887 1.394 . S
C886 H894 0.930 . S
C887 C886 1.394 . S
C887 C888 1.383 . S
C887 H895 0.929 . S
C888 C887 1.383 . S
C888 C889 1.377 . S
C889 H873 0.930 . S
C889 C888 1.377 . S
C889 C890 1.379 . S
C890 H874 0.931 . S
C890 C884 1.383 . S
C890 C889 1.379 . S
H891 C885 0.959 . S
H892 C885 0.961 . S
H893 C885 0.960 . S
H894 C886 0.930 . S
H895 C887 0.929 . S
H896 C904 0.929 . S
H897 C906 0.930 . S
H898 C908 0.930 1_556 S
H899 C911 0.930 . S
H900 C914 0.930 . S
H901 C916 0.960 . S
H902 C916 0.960 . S
H903 C916 0.960 . S
C904 H896 0.929 . S
C904 C905 1.377 . S
C904 C906 1.384 . S
C905 C904 1.377 . S
C905 C911 1.390 . S
C906 H897 0.930 . S
C906 C904 1.384 . S
C906 C907 1.372 . S
C907 C906 1.372 . S
C907 C908 1.400 . S
C907 C912 1.490 . S
C908 H898 0.930 1_554 S
C908 C907 1.400 . S
C908 C911 1.386 . S
H909 C925 0.930 . S
H910 C926 0.931 . S
C911 H899 0.930 . S
C911 C905 1.390 . S
C911 C908 1.386 . S
C912 C907 1.490 . S
C912 C914 1.395 1_554 S
C912 C915 1.403 . S
H913 C919 0.930 . S
C914 H900 0.930 . S
C914 C912 1.395 1_556 S
C914 C917 1.403 . S
C915 C912 1.403 . S
C915 C916 1.524 . S
C915 C919 1.400 . S
C916 H901 0.960 . S
C916 H902 0.960 . S
C916 H903 0.960 . S
C916 C915 1.524 . S
C917 C914 1.403 . S
C917 C918 1.392 . S
C917 C921 1.495 . S
C918 C917 1.392 . S
C918 C919 1.385 1_556 S
C918 C920 1.478 . S
C919 H913 0.930 . S
C919 C915 1.400 . S
C919 C918 1.385 1_554 S
C920 C918 1.478 . S
C920 C922 1.381 . S
C920 C926 1.383 . S
C921 C917 1.495 . S
C921 H927 0.959 . S
C921 H928 0.961 . S
C921 H929 0.960 . S
C922 C920 1.381 . S
C922 C923 1.394 . S
C922 H930 0.930 1_556 S
C923 C922 1.394 . S
C923 C924 1.383 . S
C923 H931 0.929 1_556 S
C924 C923 1.383 . S
C924 C925 1.377 . S
C925 H909 0.930 . S
C925 C924 1.377 . S
C925 C926 1.379 . S
C926 H910 0.931 . S
C926 C920 1.383 . S
C926 C925 1.379 . S
H927 C921 0.959 . S
H928 C921 0.961 . S
H929 C921 0.960 . S
H930 C922 0.930 1_554 S
H931 C923 0.929 1_554 S
H932 C940 0.929 . S
H933 C942 0.930 . S
H934 C944 0.930 . S
H935 C947 0.929 . S
H936 C950 0.930 . S
H937 C952 0.960 . S
H938 C952 0.960 . S
H939 C952 0.960 . S
C940 H932 0.929 . S
C940 C941 1.377 . S
C940 C942 1.384 . S
C941 C940 1.377 . S
C941 C947 1.390 . S
C942 H933 0.930 . S
C942 C940 1.384 . S
C942 C943 1.372 . S
C943 C942 1.372 . S
C943 C944 1.400 . S
C943 C948 1.490 . S
C944 H934 0.930 . S
C944 C943 1.400 . S
C944 C947 1.386 . S
H945 C961 0.930 . S
H946 C962 0.931 . S
C947 H935 0.929 . S
C947 C941 1.390 . S
C947 C944 1.386 . S
C948 C943 1.490 . S
C948 C950 1.395 . S
C948 C951 1.403 . S
H949 C955 0.930 . S
C950 H936 0.930 . S
C950 C948 1.395 . S
C950 C953 1.403 . S
C951 C948 1.403 . S
C951 C952 1.524 . S
C951 C955 1.400 . S
C952 H937 0.960 . S
C952 H938 0.960 . S
C952 H939 0.960 . S
C952 C951 1.524 . S
C953 C950 1.403 . S
C953 C954 1.392 . S
C953 C957 1.495 . S
C954 C953 1.392 . S
C954 C955 1.385 . S
C954 C956 1.478 . S
C955 H949 0.930 . S
C955 C951 1.400 . S
C955 C954 1.385 . S
C956 C954 1.478 . S
C956 C958 1.381 . S
C956 C962 1.383 . S
C957 C953 1.495 . S
C957 H963 0.959 . S
C957 H964 0.961 . S
C957 H965 0.960 . S
C958 C956 1.381 . S
C958 C959 1.394 . S
C958 H966 0.930 . S
C959 C958 1.394 . S
C959 C960 1.383 . S
C959 H967 0.929 . S
C960 C959 1.383 . S
C960 C961 1.377 . S
C961 H945 0.930 . S
C961 C960 1.377 . S
C961 C962 1.379 . S
C962 H946 0.931 . S
C962 C956 1.383 . S
C962 C961 1.379 . S
H963 C957 0.959 . S
H964 C957 0.961 . S
H965 C957 0.960 . S
H966 C958 0.930 . S
H967 C959 0.929 . S
H968 C976 0.929 . S
H969 C978 0.930 . S
H970 C980 0.930 . S
H971 C983 0.929 . S
H972 C986 0.930 . S
H973 C988 0.960 . S
H974 C988 0.960 . S
H975 C988 0.960 1_554 S
C976 H968 0.929 . S
C976 C977 1.377 . S
C976 C978 1.384 . S
C977 C976 1.377 . S
C977 C983 1.390 1_556 S
C978 H969 0.930 . S
C978 C976 1.384 . S
C978 C979 1.372 . S
C979 C978 1.372 . S
C979 C980 1.400 1_556 S
C979 C984 1.490 . S
C980 H970 0.930 . S
C980 C979 1.400 1_554 S
C980 C983 1.386 . S
H981 C997 0.930 . S
H982 C998 0.931 . S
C983 H971 0.929 . S
C983 C977 1.390 1_554 S
C983 C980 1.386 . S
C984 C979 1.490 . S
C984 C986 1.395 . S
C984 C987 1.403 . S
H985 C991 0.930 . S
C986 H972 0.930 . S
C986 C984 1.395 . S
C986 C989 1.403 1_556 S
C987 C984 1.403 . S
C987 C988 1.524 . S
C987 C991 1.400 1_556 S
C988 H973 0.960 . S
C988 H974 0.960 . S
C988 H975 0.960 1_556 S
C988 C987 1.524 . S
C989 C986 1.403 1_554 S
C989 C990 1.392 . S
C989 C993 1.495 . S
C990 C989 1.392 . S
C990 C991 1.385 . S
C990 C992 1.478 . S
C991 H985 0.930 . S
C991 C987 1.400 1_554 S
C991 C990 1.385 . S
C992 C990 1.478 . S
C992 C994 1.381 1_554 S
C992 C998 1.383 . S
C993 C989 1.495 . S
C993 H999 0.959 . S
C993 H1000 0.961 . S
C993 H1001 0.960 1_554 S
C994 C992 1.381 1_556 S
C994 C995 1.394 . S
C994 H1002 0.930 . S
C995 C994 1.394 . S
C995 C996 1.383 1_556 S
C995 H1003 0.929 . S
C996 C995 1.383 1_554 S
C996 C997 1.377 . S
C997 H981 0.930 . S
C997 C996 1.377 . S
C997 C998 1.379 . S
C998 H982 0.931 . S
C998 C992 1.383 . S
C998 C997 1.379 . S
H999 C993 0.959 . S
H1000 C993 0.961 . S
H1001 C993 0.960 1_556 S
H1002 C994 0.930 . S
H1003 C995 0.929 . S
H1004 C1012 0.929 . S
H1005 C1014 0.930 . S
H1006 C1016 0.930 . S
H1007 C1019 0.929 . S
H1008 C1022 0.930 . S
H1009 C1024 0.960 . S
H1010 C1024 0.960 . S
H1011 C1024 0.960 . S
C1012 H1004 0.929 . S
C1012 C1013 1.377 . S
C1012 C1014 1.384 . S
C1013 C1012 1.377 . S
C1013 C1019 1.390 . S
C1014 H1005 0.930 . S
C1014 C1012 1.384 . S
C1014 C1015 1.372 . S
C1015 C1014 1.372 . S
C1015 C1016 1.400 . S
C1015 C1020 1.490 . S
C1016 H1006 0.930 . S
C1016 C1015 1.400 . S
C1016 C1019 1.386 . S
H1017 C1033 0.930 . S
H1018 C1034 0.931 . S
C1019 H1007 0.929 . S
C1019 C1013 1.390 . S
C1019 C1016 1.386 . S
C1020 C1015 1.490 . S
C1020 C1022 1.395 . S
C1020 C1023 1.403 . S
H1021 C1027 0.930 . S
C1022 H1008 0.930 . S
C1022 C1020 1.395 . S
C1022 C1025 1.403 . S
C1023 C1020 1.403 . S
C1023 C1024 1.524 . S
C1023 C1027 1.400 . S
C1024 H1009 0.960 . S
C1024 H1010 0.960 . S
C1024 H1011 0.960 . S
C1024 C1023 1.524 . S
C1025 C1022 1.403 . S
C1025 C1026 1.392 . S
C1025 C1029 1.495 . S
C1026 C1025 1.392 . S
C1026 C1027 1.385 . S
C1026 C1028 1.478 . S
C1027 H1021 0.930 . S
C1027 C1023 1.400 . S
C1027 C1026 1.385 . S
C1028 C1026 1.478 . S
C1028 C1030 1.381 . S
C1028 C1034 1.383 . S
C1029 C1025 1.495 . S
C1029 H1035 0.959 . S
C1029 H1036 0.961 . S
C1029 H1037 0.960 . S
C1030 C1028 1.381 . S
C1030 C1031 1.394 . S
C1030 H1038 0.930 . S
C1031 C1030 1.394 . S
C1031 C1032 1.383 . S
C1031 H1039 0.929 . S
C1032 C1031 1.383 . S
C1032 C1033 1.377 . S
C1033 H1017 0.930 . S
C1033 C1032 1.377 . S
C1033 C1034 1.379 . S
C1034 H1018 0.931 . S
C1034 C1028 1.383 . S
C1034 C1033 1.379 . S
H1035 C1029 0.959 . S
H1036 C1029 0.961 . S
H1037 C1029 0.960 . S
H1038 C1030 0.930 . S
H1039 C1031 0.929 . S
C185 C10 1.318 . S
C204 C87 1.324 . S
C221 C51 1.330 . S
C240 C32 1.304 . S
C257 C29 1.314 . S
C276 C52 1.295 . S
C293 C7 1.310 . S
C312 C76 1.322 . S
C329 C175 1.330 . S
C348 C98 1.302 . S
C365 C120 1.312 . S
C384 C139 1.317 . S
C401 C117 1.317 . S
C420 C140 1.277 . S
C437 C95 1.317 . S
C456 C164 1.276 . S
C473 C15 0.625 . S
C492 C65 0.654 . S
C509 C81 0.612 . S
C528 C37 0.651 . S
C545 C103 0.618 . S
C564 C153 0.677 . S
C581 C125 0.603 . S
C600 C169 0.571 . S
C617 C18 2.104 . S
C636 C62 2.122 . S
C653 C40 2.103 . S
C672 C74 2.097 . S
C689 C150 2.111 . S
C708 C106 2.086 . S
C725 C162 2.116 . S
C744 C128 2.110 . S
C761 C21 1.362 . S
C780 C43 1.357 . S
C797 C59 1.357 . S
C816 C73 1.339 . S
C833 C109 1.367 . S
C852 C131 1.349 . S
C869 C161 1.357 . S
C888 C147 1.348 . S
C905 C8 1.392 . S
C924 C142 1.393 . S
C941 C30 1.396 . S
C960 C172 1.385 . S
C977 C54 1.391 . S
C996 C96 1.381 . S
C1013 C118 1.394 . S
C1032 C84 1.403 . S
