# Generated by pormake.
# Topology bcg, (8)-cn, num edge types: 1
# Building blocks:
#     Node 0, Type 0, BuildingBlock: HISSIN_clean_sbu_1, # of connection points: 8
#     Node 1, Type 0, BuildingBlock: HISSIN_clean_sbu_1, # of connection points: 8
#     Node 2, Type 0, BuildingBlock: HISSIN_clean_sbu_1, # of connection points: 8
#     Node 3, Type 0, BuildingBlock: HISSIN_clean_sbu_1, # of connection points: 8
#     Edge 4, Type (0, 0), BuildingBlock: EZIPEK_clean_linker_0, # of connection points: 2
#     Edge 5, Type (0, 0), BuildingBlock: EZIPEK_clean_linker_0, # of connection points: 2
#     Edge 6, Type (0, 0), BuildingBlock: EZIPEK_clean_linker_0, # of connection points: 2
#     Edge 7, Type (0, 0), BuildingBlock: EZIPEK_clean_linker_0, # of connection points: 2
#     Edge 8, Type (0, 0), BuildingBlock: EZIPEK_clean_linker_0, # of connection points: 2
#     Edge 9, Type (0, 0), BuildingBlock: EZIPEK_clean_linker_0, # of connection points: 2
#     Edge 10, Type (0, 0), BuildingBlock: EZIPEK_clean_linker_0, # of connection points: 2
#     Edge 11, Type (0, 0), BuildingBlock: EZIPEK_clean_linker_0, # of connection points: 2
#     Edge 12, Type (0, 0), BuildingBlock: EZIPEK_clean_linker_0, # of connection points: 2
#     Edge 13, Type (0, 0), BuildingBlock: EZIPEK_clean_linker_0, # of connection points: 2
#     Edge 14, Type (0, 0), BuildingBlock: EZIPEK_clean_linker_0, # of connection points: 2
#     Edge 15, Type (0, 0), BuildingBlock: EZIPEK_clean_linker_0, # of connection points: 2
#     Edge 16, Type (0, 0), BuildingBlock: EZIPEK_clean_linker_0, # of connection points: 2
#     Edge 17, Type (0, 0), BuildingBlock: EZIPEK_clean_linker_0, # of connection points: 2
#     Edge 18, Type (0, 0), BuildingBlock: EZIPEK_clean_linker_0, # of connection points: 2
#     Edge 19, Type (0, 0), BuildingBlock: EZIPEK_clean_linker_0, # of connection points: 2
# Relax obj value: 0.198
# Max RMSD: 0.290
# Mean RMSD: 0.290
data_MOF--net-bcg--node1-HISSIN_clean_sbu_1--edge1-EZIPEK_clean_linker_0
_symmetry_space_group_name_H-M    P1
_symmetry_Int_Tables_number       1
_symmetry_cell_setting            triclinic
loop_
_symmetry_equiv_pos_as_xyz
'x, y, z'
_cell_length_a     17.14821
_cell_length_b     12.408324
_cell_length_c     26.002599
_cell_angle_alpha  76.674339
_cell_angle_beta   89.764211
_cell_angle_gamma 88.53738
loop_
_atom_site_label
_atom_site_type_symbol
_atom_site_fract_x
_atom_site_fract_y
_atom_site_fract_z
_atom_type_partial_charge
Eu0 Eu 0.35252 0.02905 0.07704 0.0
C1 C 0.37393 0.28006 0.03572 0.0
O2 O 0.43029 0.03027 0.14723 0.0
C3 C 1.04824 0.21484 0.0788 0.0
C4 C 0.91171 0.13583 0.12945 0.0
C5 C 0.98731 0.18376 0.04997 0.0
C6 C 0.91381 0.15679 0.07366 0.0
C7 C 1.03854 0.21246 0.13233 0.0
C8 C 0.9699 0.17299 0.15792 0.0
Eu9 Eu 0.22349 0.21238 0.98741 0.0
O10 O 0.23301 -0.04846 0.08118 0.0
O11 O 0.17525 0.20267 0.90851 0.0
O12 O 0.33566 0.30208 0.9905 0.0
O13 O 0.23128 0.02896 0.99562 0.0
C14 C 0.18485 0.27583 0.86396 0.0
O15 O 0.22231 0.36697 0.86355 0.0
O16 O 0.18257 0.185 0.06813 0.0
C17 C 0.12229 0.25276 0.05406 0.0
C18 C 0.4045 0.00823 0.19612 0.0
O19 O 0.33541 -0.03532 0.20578 0.0
O20 O 0.12143 0.30526 1.00368 0.0
O21 O 0.34245 0.20915 0.07481 0.0
C22 C 0.42919 0.00205 0.99466 0.0
O23 O 0.37883 0.08382 0.99297 0.0
C24 C 0.50223 0.02868 0.96539 0.0
C25 C 0.64184 0.07523 0.91112 0.0
C26 C 0.57136 0.03466 0.99282 0.0
C27 C 0.64421 0.04647 0.96681 0.0
C28 C 0.50351 0.04311 0.9102 0.0
C29 C 0.57365 0.06857 0.88292 0.0
C30 C 0.19788 -0.03799 0.03522 0.0
O31 O 0.43379 -0.06787 0.04128 0.0
H32 H 0.86386 0.0944 0.15211 0.0
H33 H 0.99977 0.17866 1.00999 0.0
H34 H 0.08524 0.23853 0.15414 0.0
H35 H 0.69255 0.10404 0.88792 0.0
H36 H 0.56582 0.03222 0.03429 0.0
H37 H 0.45074 0.0349 0.88876 0.0
Eu38 Eu 0.8435 0.55223 0.05856 0.0
C39 C 0.88494 0.795 1.01221 0.0
O40 O 0.92274 0.53194 0.12744 0.0
C41 C 0.5562 0.70803 0.05645 0.0
C42 C 0.41252 0.69305 0.10827 0.0
C43 C 0.4889 0.68798 0.03016 0.0
C44 C 0.41606 0.68162 0.05536 0.0
C45 C 0.55294 0.6988 0.11147 0.0
C46 C 0.48082 0.69324 0.139 0.0
Eu47 Eu 0.73874 0.67983 0.97297 0.0
O48 O 0.72344 0.48363 0.07809 0.0
O49 O 0.71655 0.69621 0.88613 0.0
O50 O 0.8493 0.78203 0.96933 0.0
O51 O 0.72032 0.49499 0.99221 0.0
C52 C 0.73854 0.61741 0.86233 0.0
O53 O 0.77631 0.52858 0.8886 0.0
O54 O 0.69532 0.70574 0.04798 0.0
C55 C 0.62858 0.74785 0.02688 0.0
C56 C 0.89504 0.56547 0.16804 0.0
O57 O 0.82022 0.59065 0.16903 0.0
O58 O 0.62794 0.7697 0.97479 0.0
O59 O 0.86512 0.72944 0.05695 0.0
C60 C 0.91739 0.49837 0.98122 0.0
O61 O 0.86251 0.57528 0.97409 0.0
C62 C 0.99084 0.53231 0.95406 0.0
C63 C 0.13657 0.55935 0.90705 0.0
C64 C 0.05227 0.5689 0.98049 0.0
C65 C 0.12747 0.57664 0.95871 0.0
C66 C 0.99844 0.5316 0.9006 0.0
C67 C 0.07148 0.54739 0.87554 0.0
C68 C 0.68822 0.45726 0.03837 0.0
O69 O 0.92252 0.43918 0.03029 0.0
H70 H 0.35551 0.69589 0.12604 0.0
H71 H 0.49267 0.68114 0.9895 0.0
H72 H 0.60804 0.69561 0.13136 0.0
H73 H 0.19446 0.56379 0.88997 0.0
H74 H 1.04131 0.58876 0.01837 0.0
H75 H 0.94623 0.52183 0.87931 0.0
Eu76 Eu 0.38955 0.76126 0.47014 0.0
C77 C 0.399 0.50299 0.52343 0.0
O78 O 0.44487 0.74356 0.39277 0.0
C79 C 0.09784 0.53958 0.44423 0.0
C80 C 0.95253 0.53361 0.40001 0.0
C81 C 1.0326 0.5745 0.46862 0.0
C82 C 0.95844 0.56398 0.4486 0.0
C83 C 0.0928 0.52406 0.39312 0.0
C84 C 1.01966 0.52738 0.36983 0.0
Eu85 Eu 0.23558 0.53881 0.55772 0.0
O86 O 0.27246 0.84994 0.47455 0.0
O87 O 0.15594 0.53696 0.6264 0.0
O88 O 0.35353 0.45541 0.56254 0.0
O89 O 0.26885 0.7147 0.54619 0.0
C90 C 0.18138 0.49394 0.67433 0.0
O91 O 0.25064 0.44501 0.68066 0.0
O92 O 0.21153 0.60076 0.47434 0.0
C93 C 0.17033 0.5148 0.47247 0.0
C94 C 0.4105 0.77702 0.34639 0.0
O95 O 0.34597 0.83761 0.34316 0.0
O96 O 0.16729 0.44041 0.51763 0.0
O97 O 0.3649 0.57983 0.48643 0.0
C98 C 0.48283 0.78647 0.54411 0.0
O99 O 0.42442 0.71897 0.5527 0.0
C100 C 0.55619 0.73961 0.56823 0.0
C101 C 0.69954 0.65787 0.6112 0.0
C102 C 0.6074 0.68719 0.53945 0.0
C103 C 0.68212 0.65609 0.55894 0.0
C104 C 0.57507 0.74564 0.62015 0.0
C105 C 0.64564 0.6975 0.64303 0.0
C106 C 0.23096 0.79718 0.51489 0.0
O107 O 0.48601 0.84636 0.49517 0.0
H108 H 0.8956 0.52842 0.38281 0.0
H109 H 1.03969 0.60321 0.50464 0.0
H110 H 0.1452 0.51238 0.3713 0.0
H111 H 0.75631 0.62844 0.6275 0.0
H112 H 0.59181 0.67987 0.50003 0.0
H113 H 0.53398 0.78265 0.64324 0.0
Eu114 Eu 0.86096 0.19707 0.48483 0.0
C115 C 0.91232 -0.04947 0.53055 0.0
O116 O 0.9079 0.23601 0.40242 0.0
C117 C 0.59963 0.05802 0.47312 0.0
C118 C 0.45287 0.08361 0.42614 0.0
C119 C 0.53545 0.08816 0.50054 0.0
C120 C 0.4608 0.09515 0.47843 0.0
C121 C 0.5924 0.06253 0.41859 0.0
C122 C 0.5182 0.0783 0.39344 0.0
Eu123 Eu 0.76468 0.0611 0.57203 0.0
O124 O 0.74172 0.28355 0.47693 0.0
O125 O 0.71115 0.0347 0.65402 0.0
O126 O 0.88139 -0.03464 0.57519 0.0
O127 O 0.74093 0.24343 0.56497 0.0
C128 C 0.723 0.10475 0.68451 0.0
O129 O 0.77843 0.1773 0.67227 0.0
O130 O 0.73487 0.07288 0.48926 0.0
C131 C 0.67243 0.01435 0.5018 0.0
C132 C 0.88118 0.17684 0.37084 0.0
O133 O 0.82526 0.10686 0.38712 0.0
O134 O 0.66736 -0.03159 0.55272 0.0
O135 O 0.8895 0.01892 0.48668 0.0
C136 C 0.95207 0.24833 0.55386 0.0
O137 O 0.89399 0.18098 0.56738 0.0
C138 C 1.02774 0.21405 0.57989 0.0
C139 C 0.17704 0.20191 0.6211 0.0
C140 C 0.08967 0.17955 0.5519 0.0
C141 C 0.16573 0.18039 0.5709 0.0
C142 C 1.03954 0.22321 0.63228 0.0
C143 C 0.11434 0.20361 0.65641 0.0
C144 C 0.70947 0.2987 0.5206 0.0
O145 O 0.9535 0.29719 0.50313 0.0
H146 H 0.39451 0.08472 0.41014 0.0
H147 H 0.54326 0.10069 0.53989 0.0
H148 H 0.64534 0.05443 0.39723 0.0
H149 H 0.23636 0.21179 0.63257 0.0
H150 H 0.07886 0.15829 0.51446 0.0
H151 H 0.99024 0.25131 0.65187 0.0
C152 C 0.72048 0.04068 0.05103 0.0
C153 C 0.7206 0.04267 0.99659 0.0
C154 C 0.84473 0.13728 0.98848 0.0
C155 C 0.84174 0.14056 0.0427 0.0
N156 N 0.74497 0.15817 0.10855 0.0
N157 N 0.812 0.02728 0.92744 0.0
C158 C 0.77074 0.10978 0.06963 0.0
C159 C 0.79158 0.07107 0.96913 0.0
N160 N 0.6788 -0.034 0.08637 0.0
N161 N 0.88691 0.2116 0.9532 0.0
H162 H 0.77887 -0.03353 0.91666 0.0
H163 H 0.86549 0.04295 0.90823 0.0
H164 H 0.91097 0.28019 0.96337 0.0
H165 H 0.88563 0.21551 0.91268 0.0
H166 H 0.68325 -0.0411 0.12706 0.0
H167 H 0.64804 -0.09595 0.07523 0.0
H168 H 0.69195 0.13794 0.12775 0.0
H169 H 0.77221 0.22681 0.11609 0.0
C170 C 0.22193 0.55011 0.03745 0.0
C171 C 0.19652 0.61116 0.98673 0.0
C172 C 0.3152 0.72315 0.98009 0.0
C173 C 0.34332 0.65518 0.02857 0.0
N174 N 0.33192 0.48523 0.09448 0.0
N175 N 0.21634 0.76274 0.91205 0.0
C176 C 0.29863 0.5641 0.05479 0.0
C177 C 0.24277 0.69959 0.95899 0.0
N178 N 0.1737 0.47942 0.07012 0.0
N179 N 0.35595 0.81274 0.95459 0.0
H180 H 0.15728 0.76781 0.90272 0.0
H181 H 0.25146 0.81145 0.8836 0.0
H182 H 0.41309 0.82571 0.96351 0.0
H183 H 0.33315 -0.12382 0.92467 0.0
H184 H 0.11857 0.45979 0.05992 0.0
H185 H 0.18579 0.44704 0.11002 0.0
H186 H 0.30489 0.41208 0.11258 0.0
H187 H 0.39049 0.48649 0.1045 0.0
C188 C 0.79523 0.53545 0.54853 0.0
C189 C 0.74489 0.62528 0.52549 0.0
C190 C 0.83107 0.66928 0.44902 0.0
C191 C 0.88707 0.58982 0.47634 0.0
N192 N 0.92802 0.47456 0.56187 0.0
N193 N 0.72605 0.79517 0.45745 0.0
C194 C 0.87137 0.53123 0.52902 0.0
C195 C 0.7649 0.69643 0.47635 0.0
N196 N 0.7706 0.45446 0.58993 0.0
N197 N 0.84227 0.72408 0.39777 0.0
H198 H 0.67864 0.82326 0.47581 0.0
H199 H 0.7457 0.85559 0.42558 0.0
H200 H 0.89586 0.7267 0.37907 0.0
H201 H 0.79746 0.76691 0.37393 0.0
H202 H 0.80508 0.3854 0.60731 0.0
H203 H 0.713 0.45118 0.60314 0.0
H204 H 0.91945 0.44719 0.60249 0.0
H205 H 0.98439 0.45873 0.55071 0.0
C206 C 0.26145 0.21623 0.4946 0.0
C207 C 0.23557 0.1483 0.54278 0.0
C208 C 0.36292 0.04962 0.55449 0.0
C209 C 0.38926 0.12106 0.50695 0.0
N210 N 0.37292 0.29671 0.44498 0.0
N211 N 0.25344 -0.01702 0.61129 0.0
C212 C 0.34099 0.21127 0.48086 0.0
C213 C 0.28431 0.06 0.57061 0.0
N214 N 0.21031 0.28125 0.46017 0.0
N215 N 0.41329 -0.02356 0.58597 0.0
H216 H 0.19477 -0.01485 0.62187 0.0
H217 H 0.28313 -0.08773 0.63194 0.0
H218 H 0.40028 -0.06771 0.62396 0.0
H219 H 0.47144 -0.03366 0.57717 0.0
H220 H 0.15095 0.28711 0.46729 0.0
H221 H 0.2259 0.32147 0.42188 0.0
H222 H 0.34207 0.36967 0.42808 0.0
H223 H 0.43276 0.29998 0.43761 0.0
C224 C 0.56031 0.43185 0.99525 0.0
C225 C 0.60672 0.41281 0.04178 0.0
C226 C 0.49391 0.31691 0.08936 0.0
C227 C 0.456 0.31854 0.03991 0.0
N228 N 0.4807 0.33695 0.94611 0.0
N229 N 0.61615 0.32001 0.13497 0.0
C230 C 0.49752 0.36287 0.99299 0.0
C231 C 0.57344 0.34988 0.08945 0.0
N232 N 0.5705 0.52079 0.9542 0.0
N233 N 0.45489 0.28966 0.13637 0.0
H234 H 0.6735 0.34155 0.13872 0.0
H235 H 0.59694 0.26282 0.16824 0.0
H236 H 0.39669 0.26918 0.14052 0.0
H237 H 0.47796 0.30122 0.17167 0.0
H238 H 0.53111 0.54004 0.92269 0.0
H239 H 0.60845 0.58391 0.9555 0.0
H240 H 0.51338 0.36724 0.91216 0.0
H241 H 0.44427 0.27293 0.943 0.0
C242 C 0.60676 0.44351 0.4763 0.0
C243 C 0.63293 0.36112 0.52083 0.0
C244 C 0.51939 0.40926 0.56884 0.0
C245 C 0.48334 0.46793 0.52148 0.0
N246 N 0.49229 0.51398 0.42518 0.0
N247 N 0.58881 0.23897 0.60235 0.0
C248 C 0.52676 0.4788 0.47351 0.0
C249 C 0.58272 0.33656 0.56558 0.0
N250 N 0.6571 0.48999 0.43717 0.0
N251 N 0.49353 0.42102 0.61696 0.0
H252 H 0.62283 0.17264 0.59628 0.0
H253 H 0.5495 0.21804 0.63362 0.0
H254 H 0.45317 0.48283 0.62105 0.0
H255 H 0.52018 0.37919 0.65211 0.0
H256 H 0.64016 0.55563 0.40604 0.0
H257 H 0.71706 0.47387 0.43963 0.0
H258 H 0.52225 0.51468 0.3901 0.0
H259 H 0.43263 0.52814 0.41977 0.0
C260 C 0.08783 -0.07931 0.97511 0.0
C261 C 0.11818 -0.08447 0.02733 0.0
C262 C 0.98515 -0.12267 0.06097 0.0
C263 C 0.95833 0.86135 1.01177 0.0
N264 N 0.98898 0.87016 0.91966 0.0
N265 N 0.09339 0.84674 0.12124 0.0
C266 C 1.01054 -0.11501 0.96806 0.0
C267 C 0.06638 -0.11836 0.07067 0.0
N268 N 0.13185 -0.04085 0.93112 0.0
N269 N 0.93274 -0.11015 0.09882 0.0
H270 H 0.15189 0.82908 0.13055 0.0
H271 H 0.0566 0.81631 0.15305 0.0
H272 H 0.87271 -0.10467 0.09178 0.0
H273 H 0.94963 -0.0905 0.13398 0.0
H274 H 0.10748 -0.01153 0.89368 0.0
H275 H 0.19236 -0.04349 0.93059 0.0
H276 H 1.02902 0.86337 0.89024 0.0
H277 H 0.93178 0.86634 0.90765 0.0
C278 C 1.01407 0.86645 0.47844 0.0
C279 C 0.98331 -0.1239 0.52818 0.0
C280 C 0.10785 0.8053 0.57034 0.0
C281 C 0.14355 0.81408 0.51957 0.0
N282 N 0.1254 0.83197 0.42571 0.0
N283 N 0.98752 0.78969 0.62069 0.0
C284 C 0.09496 0.83834 0.47366 0.0
C285 C 1.02603 0.82592 0.57409 0.0
N286 N 0.96388 0.87465 0.43697 0.0
N287 N 0.15183 0.78314 0.61537 0.0
H288 H 0.92684 0.79086 0.62281 0.0
H289 H 1.01415 0.74269 0.65479 0.0
H290 H 0.21145 0.76665 0.61641 0.0
H291 H 0.13005 0.79089 0.65184 0.0
H292 H 0.9797 0.86591 0.39955 0.0
H293 H 0.90359 -0.1213 0.44165 0.0
H294 H 0.09701 0.86018 0.38977 0.0
H295 H 0.17982 0.79652 0.42113 0.0
C296 C 0.55127 0.03353 0.30258 0.0
C297 C 0.504 0.08747 0.33452 0.0
C298 C 0.40218 0.11977 0.26613 0.0
C299 C 0.44462 0.05202 0.23808 0.0
N300 N 0.5758 0.00916 0.2138 0.0
N301 N 0.41377 0.24265 0.32538 0.0
C302 C 0.52469 0.02891 0.25098 0.0
C303 C 0.43792 0.1495 0.30984 0.0
N304 N 0.62021 -0.01433 0.32233 0.0
N305 N 0.3292 0.15985 0.25009 0.0
H306 H 0.44586 0.27339 0.35259 0.0
H307 H 0.36964 0.29625 0.3063 0.0
H308 H 0.30457 0.15276 0.21445 0.0
H309 H 0.29292 0.19858 0.27303 0.0
H310 H 0.65808 -0.0581 0.30261 0.0
H311 H 0.65808 -0.0581 0.30261 0.0
H312 H 0.63605 0.00994 0.21858 0.0
H313 H 0.55898 0.00507 0.17596 0.0
C314 C 0.40748 0.64304 0.22734 0.0
C315 C 0.47372 0.69077 0.19844 0.0
C316 C 0.51458 0.74303 0.28064 0.0
C317 C 0.4367 0.73309 0.29959 0.0
N318 N 0.31047 0.65383 0.29368 0.0
N319 N 0.59752 0.7737 0.20295 0.0
C320 C 0.38321 0.67815 0.27343 0.0
C321 C 0.53015 0.73581 0.2273 0.0
N322 N 0.3733 0.55477 0.21446 0.0
N323 N 0.57388 0.75528 0.31344 0.0
H324 H 0.64193 0.80954 0.22003 0.0
H325 H 0.64193 0.80954 0.22003 0.0
H326 H 0.56543 0.76526 0.35168 0.0
H327 H 0.63234 0.74335 0.30466 0.0
H328 H 0.32866 0.51079 0.23654 0.0
H329 H 0.39823 0.51605 0.18664 0.0
H330 H 0.26695 0.62528 0.27263 0.0
H331 H 0.29315 0.66441 0.33072 0.0
C332 C 0.61796 0.61693 0.73993 0.0
C333 C 0.6655 0.68274 0.70017 0.0
C334 C 0.76737 0.68281 0.7662 0.0
C335 C 0.71773 0.62699 0.80634 0.0
N336 N 0.60496 0.51778 0.83192 0.0
N337 N 0.78534 0.78611 0.67891 0.0
C338 C 0.64496 0.58846 0.79339 0.0
C339 C 0.73973 0.7167 0.71417 0.0
N340 N 0.54903 0.57758 0.72636 0.0
N341 N 0.84143 0.70939 0.77651 0.0
H342 H 0.7682 0.82483 0.6405 0.0
H343 H 0.7682 0.82483 0.6405 0.0
H344 H 0.86736 0.68776 0.81386 0.0
H345 H 0.86736 0.68776 0.81386 0.0
H346 H 0.50674 0.54188 0.75319 0.0
H347 H 0.53285 0.57989 0.68762 0.0
H348 H 0.55017 0.48759 0.82736 0.0
H349 H 0.62981 0.48316 0.8687 0.0
C350 C 0.61378 -0.018 0.8107 0.0
C351 C 0.58253 0.07627 0.82535 0.0
C352 C 0.63541 0.19385 0.74394 0.0
C353 C 0.67535 0.09882 0.73338 0.0
N354 N 0.71975 -0.08905 0.76964 0.0
N355 N 0.54709 0.26854 0.80205 0.0
C356 C 0.66786 -0.00482 0.76926 0.0
C357 C 0.58843 0.18168 0.79058 0.0
N358 N 0.59622 -0.12127 0.83889 0.0
N359 N 0.64535 0.29559 0.71111 0.0
H360 H 0.51211 0.25892 0.8357 0.0
H361 H 0.54189 0.34639 0.77676 0.0
H362 H 0.67531 0.30692 0.67552 0.0
H363 H 0.62596 0.36982 0.71936 0.0
H364 H 0.61504 0.808 0.82672 0.0
H365 H 0.55726 0.86571 0.87055 0.0
H366 H 0.76959 -0.08048 0.74605 0.0
H367 H 0.76959 -0.08048 0.74605 0.0
C368 C 1.02856 0.46629 0.28417 0.0
C369 C 1.01183 0.54867 0.31219 0.0
C370 C 0.93726 0.65899 0.23881 0.0
C371 C 0.94579 0.5707 0.21288 0.0
N372 N 1.02924 0.42505 0.19713 0.0
N373 N 0.99192 0.74414 0.3048 0.0
C374 C 1.00197 0.48516 0.23118 0.0
C375 C 0.97953 0.65232 0.28575 0.0
N376 N 0.06579 0.36957 0.30857 0.0
N377 N 0.88937 0.74849 0.21914 0.0
H378 H 1.02612 0.74069 0.33829 0.0
H379 H 0.9749 0.82394 0.28475 0.0
H380 H 0.86244 0.76202 0.18234 0.0
H381 H 0.87471 0.8078 0.24039 0.0
H382 H 0.07587 0.30383 0.29066 0.0
H383 H 0.08394 0.35303 0.34788 0.0
H384 H 0.07577 0.36813 0.20573 0.0
H385 H 0.07577 0.36813 0.20573 0.0
C386 C 0.97923 0.12771 0.30824 0.0
C387 C 0.91148 0.18878 0.31704 0.0
C388 C 0.89103 0.2525 0.22242 0.0
C389 C 0.95356 0.1819 0.21294 0.0
N390 N 0.05187 0.04145 0.24754 0.0
N391 N 0.80604 0.31815 0.28096 0.0
C392 C 0.997 0.11727 0.25604 0.0
C393 C 0.86849 0.25273 0.2741 0.0
N394 N 1.0281 0.08353 0.34945 0.0
N395 N 0.8514 0.32284 0.18269 0.0
H396 H 0.78574 0.32658 0.31778 0.0
H397 H 0.78574 0.32658 0.31778 0.0
H398 H 0.86591 0.33546 0.1428 0.0
H399 H 0.86591 0.33546 0.1428 0.0
H400 H 0.08344 0.05106 0.34442 0.0
H401 H 1.01671 0.09008 0.38808 0.0
H402 H 0.07947 -0.01614 0.27793 0.0
H403 H 0.06528 0.02968 0.21003 0.0
C404 C 0.08821 0.21054 0.80491 0.0
C405 C 0.16484 0.24442 0.81391 0.0
C406 C 0.20701 0.18301 0.73577 0.0
C407 C 0.12966 0.19451 0.71562 0.0
N408 N 0.99621 0.16771 0.74121 0.0
N409 N 0.30144 0.2474 0.78877 0.0
C410 C 0.06956 0.19148 0.75394 0.0
C411 C 0.22541 0.22844 0.77903 0.0
N412 N 1.03442 0.19561 0.84477 0.0
N413 N 0.25837 0.10945 0.72154 0.0
H414 H 0.3202 0.27046 0.82266 0.0
H415 H 0.34541 0.24338 0.76132 0.0
H416 H 0.24062 0.05532 0.69886 0.0
H417 H 0.31344 0.0911 0.73874 0.0
H418 H 0.98216 0.15522 0.84429 0.0
H419 H 1.04286 0.22016 0.87999 0.0
H420 H 0.94682 0.16939 0.76451 0.0
H421 H 0.94682 0.16939 0.76451 0.0
C422 C 0.06759 0.48207 0.73698 0.0
C423 C 0.14183 0.52402 0.71987 0.0
C424 C 0.13934 0.62557 0.78939 0.0
C425 C 0.08257 0.55387 0.81702 0.0
N426 N 0.98029 0.42906 0.81242 0.0
N427 N 0.24631 0.64687 0.72797 0.0
C428 C 1.0417 0.48763 0.78871 0.0
C429 C 0.17747 0.59884 0.74565 0.0
N430 N 1.02266 0.43817 0.70409 0.0
N431 N 0.15072 0.72471 0.80181 0.0
H432 H 0.27413 0.63586 0.69375 0.0
H433 H 0.27721 0.69385 0.74911 0.0
H434 H 0.11241 0.75306 0.82729 0.0
H435 H 0.18809 0.78406 0.78079 0.0
H436 H 0.96466 0.41727 0.71153 0.0
H437 H 1.04137 0.43194 0.6667 0.0
H438 H 0.9475 0.3761 0.79582 0.0
H439 H 0.9475 0.3761 0.79582 0.0
loop_
_geom_bond_atom_site_label_1
_geom_bond_atom_site_label_2
_geom_bond_distance
_geom_bond_site_symmetry_2
_ccdc_geom_bond_type
Eu0 O2 2.323 . S
Eu0 O10 2.328 1_545 S
Eu0 O21 2.316 . S
Eu0 C22 2.837 1_554 S
Eu0 O23 2.488 1_554 S
Eu0 O31 2.461 . S
C1 O12 1.255 . S
C1 O21 1.235 1_556 S
O2 Eu0 2.323 . S
O2 C18 1.279 . S
C3 C5 1.383 1_455 S
C3 C7 1.388 . S
C3 C17 1.491 . S
C4 C6 1.403 . S
C4 C8 1.385 . S
C4 H32 0.931 . S
C5 C3 1.383 1_655 S
C5 C6 1.393 . S
C5 H33 0.930 . S
C6 C4 1.403 . S
C6 C5 1.393 . S
C7 C3 1.388 . S
C7 C8 1.394 1_455 S
C7 H34 0.930 . S
C8 C4 1.385 . S
C8 C7 1.394 1_655 S
Eu9 O11 2.323 . S
Eu9 O12 2.328 . S
Eu9 O13 2.316 . S
Eu9 O16 2.488 1_556 S
Eu9 C17 2.837 1_556 S
Eu9 O20 2.461 . S
O10 Eu0 2.328 1_565 S
O10 C30 1.257 1_565 S
O11 Eu9 2.323 . S
O11 C14 1.279 . S
O12 C1 1.255 . S
O12 Eu9 2.328 . S
O13 Eu9 2.316 . S
O13 C30 1.234 1_556 S
C14 O11 1.279 . S
C14 O15 1.244 . S
O15 C14 1.244 . S
O16 Eu9 2.488 1_554 S
O16 C17 1.271 . S
C17 C3 1.491 . S
C17 Eu9 2.837 1_554 S
C17 O16 1.271 . S
C17 O20 1.261 1_554 S
C18 O2 1.279 . S
C18 O19 1.244 . S
O19 C18 1.244 . S
O20 Eu9 2.461 . S
O20 C17 1.261 1_556 S
O21 Eu0 2.316 . S
O21 C1 1.235 1_554 S
C22 Eu0 2.837 1_556 S
C22 O23 1.271 . S
C22 C24 1.491 . S
C22 O31 1.261 1_556 S
O23 Eu0 2.488 1_556 S
O23 C22 1.271 . S
C24 C22 1.491 . S
C24 C26 1.383 . S
C24 C28 1.388 . S
C25 C27 1.403 . S
C25 C29 1.385 . S
C25 H35 0.931 . S
C26 C24 1.383 . S
C26 C27 1.393 . S
C26 H36 0.930 . S
C27 C25 1.403 . S
C27 C26 1.393 . S
C28 C24 1.388 . S
C28 C29 1.394 . S
C28 H37 0.930 . S
C29 C25 1.385 . S
C29 C28 1.394 . S
C30 O10 1.257 1_545 S
C30 O13 1.234 1_554 S
O31 Eu0 2.461 . S
O31 C22 1.261 1_554 S
H32 C4 0.931 . S
H33 C5 0.930 . S
H34 C7 0.930 . S
H35 C25 0.931 . S
H36 C26 0.930 . S
H37 C28 0.930 . S
Eu38 O40 2.323 . S
Eu38 O48 2.328 . S
Eu38 O59 2.316 . S
Eu38 C60 2.837 1_554 S
Eu38 O61 2.488 1_554 S
Eu38 O69 2.461 . S
C39 O50 1.255 1_565 S
C39 O59 1.235 1_556 S
O40 Eu38 2.323 . S
O40 C56 1.279 . S
C41 C43 1.383 . S
C41 C45 1.388 . S
C41 C55 1.491 . S
C42 C44 1.403 . S
C42 C46 1.385 . S
C42 H70 0.931 . S
C43 C41 1.383 . S
C43 C44 1.393 . S
C43 H71 0.930 . S
C44 C42 1.403 . S
C44 C43 1.393 . S
C45 C41 1.388 . S
C45 C46 1.394 . S
C45 H72 0.930 . S
C46 C42 1.385 . S
C46 C45 1.394 . S
Eu47 O49 2.323 . S
Eu47 O50 2.328 1_565 S
Eu47 O51 2.316 . S
Eu47 O54 2.488 1_556 S
Eu47 C55 2.837 1_556 S
Eu47 O58 2.461 . S
O48 Eu38 2.328 . S
O48 C68 1.257 . S
O49 Eu47 2.323 . S
O49 C52 1.279 . S
O50 C39 1.255 1_545 S
O50 Eu47 2.328 1_545 S
O51 Eu47 2.316 . S
O51 C68 1.234 1_556 S
C52 O49 1.279 . S
C52 O53 1.244 . S
O53 C52 1.244 . S
O54 Eu47 2.488 1_554 S
O54 C55 1.271 . S
C55 C41 1.491 . S
C55 Eu47 2.837 1_554 S
C55 O54 1.271 . S
C55 O58 1.261 1_554 S
C56 O40 1.279 . S
C56 O57 1.244 . S
O57 C56 1.244 . S
O58 Eu47 2.461 . S
O58 C55 1.261 1_556 S
O59 Eu38 2.316 . S
O59 C39 1.235 1_554 S
C60 Eu38 2.837 1_556 S
C60 O61 1.271 . S
C60 C62 1.491 . S
C60 O69 1.261 1_556 S
O61 Eu38 2.488 1_556 S
O61 C60 1.271 . S
C62 C60 1.491 . S
C62 C64 1.383 1_655 S
C62 C66 1.388 . S
C63 C65 1.403 . S
C63 C67 1.385 . S
C63 H73 0.931 . S
C64 C62 1.383 1_455 S
C64 C65 1.393 . S
C64 H74 0.930 . S
C65 C63 1.403 . S
C65 C64 1.393 . S
C66 C62 1.388 . S
C66 C67 1.394 1_655 S
C66 H75 0.930 . S
C67 C63 1.385 . S
C67 C66 1.394 1_455 S
C68 O48 1.257 . S
C68 O51 1.234 1_554 S
O69 Eu38 2.461 . S
O69 C60 1.261 1_554 S
H70 C42 0.931 . S
H71 C43 0.930 . S
H72 C45 0.930 . S
H73 C63 0.931 . S
H74 C64 0.930 . S
H75 C66 0.930 . S
Eu76 O78 2.323 . S
Eu76 O86 2.328 1_565 S
Eu76 O97 2.316 . S
Eu76 C98 2.837 . S
Eu76 O99 2.488 . S
Eu76 O107 2.461 . S
C77 O88 1.251 . S
C77 O97 1.237 . S
O78 Eu76 2.323 . S
O78 C94 1.279 . S
C79 C81 1.383 1_455 S
C79 C83 1.388 . S
C79 C93 1.491 . S
C80 C82 1.403 . S
C80 C84 1.385 . S
C80 H108 0.931 . S
C81 C79 1.383 1_655 S
C81 C82 1.393 . S
C81 H109 0.930 . S
C82 C80 1.403 . S
C82 C81 1.393 . S
C83 C79 1.388 . S
C83 C84 1.394 1_455 S
C83 H110 0.930 . S
C84 C80 1.385 . S
C84 C83 1.394 1_655 S
Eu85 O87 2.323 . S
Eu85 O88 2.328 . S
Eu85 O89 2.316 . S
Eu85 O92 2.488 . S
Eu85 C93 2.837 . S
Eu85 O96 2.461 . S
O86 Eu76 2.328 1_545 S
O86 C106 1.251 1_545 S
O87 Eu85 2.323 . S
O87 C90 1.279 . S
O88 C77 1.251 . S
O88 Eu85 2.328 . S
O89 Eu85 2.316 . S
O89 C106 1.237 . S
C90 O87 1.279 . S
C90 O91 1.244 . S
O91 C90 1.244 . S
O92 Eu85 2.488 . S
O92 C93 1.271 . S
C93 C79 1.491 . S
C93 Eu85 2.837 . S
C93 O92 1.271 . S
C93 O96 1.261 . S
C94 O78 1.279 . S
C94 O95 1.244 . S
O95 C94 1.244 . S
O96 Eu85 2.461 . S
O96 C93 1.261 . S
O97 Eu76 2.316 . S
O97 C77 1.237 . S
C98 Eu76 2.837 . S
C98 O99 1.271 . S
C98 C100 1.491 . S
C98 O107 1.261 . S
O99 Eu76 2.488 . S
O99 C98 1.271 . S
C100 C98 1.491 . S
C100 C102 1.383 . S
C100 C104 1.388 . S
C101 C103 1.403 . S
C101 C105 1.385 . S
C101 H111 0.931 . S
C102 C100 1.383 . S
C102 C103 1.393 . S
C102 H112 0.930 . S
C103 C101 1.403 . S
C103 C102 1.393 . S
C104 C100 1.388 . S
C104 C105 1.394 . S
C104 H113 0.930 . S
C105 C101 1.385 . S
C105 C104 1.394 . S
C106 O86 1.251 1_565 S
C106 O89 1.237 . S
O107 Eu76 2.461 . S
O107 C98 1.261 . S
H108 C80 0.931 . S
H109 C81 0.930 . S
H110 C83 0.930 . S
H111 C101 0.931 . S
H112 C102 0.930 . S
H113 C104 0.930 . S
Eu114 O116 2.323 . S
Eu114 O124 2.328 . S
Eu114 O135 2.316 . S
Eu114 C136 2.837 . S
Eu114 O137 2.488 . S
Eu114 O145 2.461 . S
C115 O126 1.251 1_545 S
C115 O135 1.237 . S
O116 Eu114 2.323 . S
O116 C132 1.279 . S
C117 C119 1.383 . S
C117 C121 1.388 . S
C117 C131 1.491 . S
C118 C120 1.403 . S
C118 C122 1.385 . S
C118 H146 0.931 . S
C119 C117 1.383 . S
C119 C120 1.393 . S
C119 H147 0.930 . S
C120 C118 1.403 . S
C120 C119 1.393 . S
C121 C117 1.388 . S
C121 C122 1.394 . S
C121 H148 0.930 . S
C122 C118 1.385 . S
C122 C121 1.394 . S
Eu123 O125 2.323 . S
Eu123 O126 2.328 1_545 S
Eu123 O127 2.316 . S
Eu123 O130 2.488 . S
Eu123 C131 2.837 . S
Eu123 O134 2.461 . S
O124 Eu114 2.328 . S
O124 C144 1.251 . S
O125 Eu123 2.323 . S
O125 C128 1.279 . S
O126 C115 1.251 1_565 S
O126 Eu123 2.328 1_565 S
O127 Eu123 2.316 . S
O127 C144 1.237 . S
C128 O125 1.279 . S
C128 O129 1.244 . S
O129 C128 1.244 . S
O130 Eu123 2.488 . S
O130 C131 1.271 . S
C131 C117 1.491 . S
C131 Eu123 2.837 . S
C131 O130 1.271 . S
C131 O134 1.261 . S
C132 O116 1.279 . S
C132 O133 1.244 . S
O133 C132 1.244 . S
O134 Eu123 2.461 . S
O134 C131 1.261 . S
O135 Eu114 2.316 . S
O135 C115 1.237 . S
C136 Eu114 2.837 . S
C136 O137 1.271 . S
C136 C138 1.491 . S
C136 O145 1.261 . S
O137 Eu114 2.488 . S
O137 C136 1.271 . S
C138 C136 1.491 . S
C138 C140 1.383 1_655 S
C138 C142 1.388 . S
C139 C141 1.403 . S
C139 C143 1.385 . S
C139 H149 0.931 . S
C140 C138 1.383 1_455 S
C140 C141 1.393 . S
C140 H150 0.930 . S
C141 C139 1.403 . S
C141 C140 1.393 . S
C142 C138 1.388 . S
C142 C143 1.394 1_655 S
C142 H151 0.930 . S
C143 C139 1.385 . S
C143 C142 1.394 1_455 S
C144 O124 1.251 . S
C144 O127 1.237 . S
O145 Eu114 2.461 . S
O145 C136 1.261 . S
H146 C118 0.931 . S
H147 C119 0.930 . S
H148 C121 0.930 . S
H149 C139 0.931 . S
H150 C140 0.930 . S
H151 C142 0.930 . S
C152 C153 1.363 1_554 S
C152 C158 1.379 . S
C152 N160 1.356 . S
C153 C152 1.363 1_556 S
C153 C159 1.363 . S
C154 C155 1.363 1_556 S
C154 C159 1.379 . S
C154 N161 1.356 . S
C155 C154 1.363 1_554 S
C155 C158 1.363 . S
N156 C158 1.356 . S
N156 H168 0.984 . S
N156 H169 0.985 . S
N157 C159 1.356 . S
N157 H162 0.984 . S
N157 H163 0.985 . S
C158 C152 1.379 . S
C158 C155 1.363 . S
C158 N156 1.356 . S
C159 C153 1.363 . S
C159 C154 1.379 . S
C159 N157 1.356 . S
N160 C152 1.356 . S
N160 H166 0.984 . S
N160 H167 0.984 1_554 S
N161 C154 1.356 . S
N161 H164 0.984 1_556 S
N161 H165 0.985 . S
H162 N157 0.984 . S
H163 N157 0.985 . S
H164 N161 0.984 1_554 S
H165 N161 0.985 . S
H166 N160 0.984 . S
H167 N160 0.984 1_556 S
H168 N156 0.984 . S
H169 N156 0.985 . S
C170 C171 1.363 1_554 S
C170 C176 1.379 . S
C170 N178 1.356 . S
C171 C170 1.363 1_556 S
C171 C177 1.363 . S
C172 C173 1.363 1_556 S
C172 C177 1.379 . S
C172 N179 1.356 1_565 S
C173 C172 1.363 1_554 S
C173 C176 1.363 . S
N174 C176 1.356 . S
N174 H186 0.984 . S
N174 H187 0.985 . S
N175 C177 1.356 . S
N175 H180 0.984 . S
N175 H181 0.985 . S
C176 C170 1.379 . S
C176 C173 1.363 . S
C176 N174 1.356 . S
C177 C171 1.363 . S
C177 C172 1.379 . S
C177 N175 1.356 . S
N178 C170 1.356 . S
N178 H184 0.984 . S
N178 H185 0.984 1_554 S
N179 C172 1.356 1_545 S
N179 H182 0.984 1_556 S
N179 H183 0.985 . S
H180 N175 0.984 . S
H181 N175 0.985 . S
H182 N179 0.984 1_554 S
H183 N179 0.985 . S
H184 N178 0.984 . S
H185 N178 0.984 1_556 S
H186 N174 0.984 . S
H187 N174 0.985 . S
C188 C189 1.363 . S
C188 C194 1.379 . S
C188 N196 1.356 . S
C189 C188 1.363 . S
C189 C195 1.363 . S
C190 C191 1.363 . S
C190 C195 1.379 . S
C190 N197 1.356 . S
C191 C190 1.363 . S
C191 C194 1.363 . S
N192 C194 1.356 . S
N192 H204 0.984 . S
N192 H205 0.985 . S
N193 C195 1.356 . S
N193 H198 0.984 . S
N193 H199 0.985 1_565 S
C194 C188 1.379 . S
C194 C191 1.363 . S
C194 N192 1.356 . S
C195 C189 1.363 . S
C195 C190 1.379 . S
C195 N193 1.356 . S
N196 C188 1.356 . S
N196 H202 0.984 . S
N196 H203 0.984 . S
N197 C190 1.356 . S
N197 H200 0.984 . S
N197 H201 0.985 . S
H198 N193 0.984 . S
H199 N193 0.985 1_545 S
H200 N197 0.984 . S
H201 N197 0.985 . S
H202 N196 0.984 . S
H203 N196 0.984 . S
H204 N192 0.984 . S
H205 N192 0.985 . S
C206 C207 1.363 . S
C206 C212 1.379 . S
C206 N214 1.356 . S
C207 C206 1.363 . S
C207 C213 1.363 . S
C208 C209 1.363 . S
C208 C213 1.379 . S
C208 N215 1.356 1_545 S
C209 C208 1.363 . S
C209 C212 1.363 . S
N210 C212 1.356 . S
N210 H222 0.984 . S
N210 H223 0.985 . S
N211 C213 1.356 . S
N211 H216 0.984 . S
N211 H217 0.985 . S
C212 C206 1.379 . S
C212 C209 1.363 . S
C212 N210 1.356 . S
C213 C207 1.363 . S
C213 C208 1.379 . S
C213 N211 1.356 . S
N214 C206 1.356 . S
N214 H220 0.984 . S
N214 H221 0.984 . S
N215 C208 1.356 1_565 S
N215 H218 0.984 . S
N215 H219 0.985 . S
H216 N211 0.984 . S
H217 N211 0.985 . S
H218 N215 0.984 . S
H219 N215 0.985 . S
H220 N214 0.984 . S
H221 N214 0.984 . S
H222 N210 0.984 . S
H223 N210 0.985 . S
C224 C225 1.364 1_556 S
C224 C230 1.379 . S
C224 N232 1.356 . S
C225 C224 1.364 1_554 S
C225 C231 1.362 . S
C226 C227 1.364 . S
C226 C231 1.379 . S
C226 N233 1.356 . S
C227 C226 1.364 . S
C227 C230 1.362 1_554 S
N228 C230 1.356 . S
N228 H240 0.984 . S
N228 H241 0.985 . S
N229 C231 1.356 . S
N229 H234 0.984 . S
N229 H235 0.985 . S
C230 C224 1.379 . S
C230 C227 1.362 1_556 S
C230 N228 1.356 . S
C231 C225 1.362 . S
C231 C226 1.379 . S
C231 N229 1.356 . S
N232 C224 1.356 . S
N232 H238 0.984 . S
N232 H239 0.984 . S
N233 C226 1.356 . S
N233 H236 0.984 . S
N233 H237 0.985 . S
H234 N229 0.984 . S
H235 N229 0.985 . S
H236 N233 0.984 . S
H237 N233 0.985 . S
H238 N232 0.984 . S
H239 N232 0.984 . S
H240 N228 0.984 . S
H241 N228 0.985 . S
C242 C243 1.363 . S
C242 C248 1.379 . S
C242 N250 1.356 . S
C243 C242 1.363 . S
C243 C249 1.363 . S
C244 C245 1.363 . S
C244 C249 1.379 . S
C244 N251 1.356 . S
C245 C244 1.363 . S
C245 C248 1.363 . S
N246 C248 1.356 . S
N246 H258 0.984 . S
N246 H259 0.985 . S
N247 C249 1.356 . S
N247 H252 0.984 . S
N247 H253 0.985 . S
C248 C242 1.379 . S
C248 C245 1.363 . S
C248 N246 1.356 . S
C249 C243 1.363 . S
C249 C244 1.379 . S
C249 N247 1.356 . S
N250 C242 1.356 . S
N250 H256 0.984 . S
N250 H257 0.984 . S
N251 C244 1.356 . S
N251 H254 0.984 . S
N251 H255 0.985 . S
H252 N247 0.984 . S
H253 N247 0.985 . S
H254 N251 0.984 . S
H255 N251 0.985 . S
H256 N250 0.984 . S
H257 N250 0.984 . S
H258 N246 0.984 . S
H259 N246 0.985 . S
C260 C261 1.364 1_556 S
C260 C266 1.379 1_455 S
C260 N268 1.356 . S
C261 C260 1.364 1_554 S
C261 C267 1.362 1_545 S
C262 C263 1.364 . S
C262 C267 1.379 1_655 S
C262 N269 1.356 . S
C263 C262 1.364 . S
C263 C266 1.362 1_564 S
N264 C266 1.356 . S
N264 H276 0.984 . S
N264 H277 0.985 . S
N265 C267 1.356 . S
N265 H270 0.984 . S
N265 H271 0.985 . S
C266 C260 1.379 1_655 S
C266 C263 1.362 1_546 S
C266 N264 1.356 . S
C267 C261 1.362 1_565 S
C267 C262 1.379 1_455 S
C267 N265 1.356 . S
N268 C260 1.356 . S
N268 H274 0.984 . S
N268 H275 0.984 . S
N269 C262 1.356 . S
N269 H272 0.984 . S
N269 H273 0.985 . S
H270 N265 0.984 . S
H271 N265 0.985 . S
H272 N269 0.984 . S
H273 N269 0.985 . S
H274 N268 0.984 . S
H275 N268 0.984 . S
H276 N264 0.984 . S
H277 N264 0.985 . S
C278 C279 1.363 1_565 S
C278 C284 1.379 1_655 S
C278 N286 1.356 . S
C279 C278 1.363 1_545 S
C279 C285 1.363 . S
C280 C281 1.363 1_545 S
C280 C285 1.379 1_455 S
C280 N287 1.356 . S
C281 C280 1.363 1_565 S
C281 C284 1.363 . S
N282 C284 1.356 . S
N282 H294 0.984 . S
N282 H295 0.985 . S
N283 C285 1.356 . S
N283 H288 0.984 . S
N283 H289 0.985 . S
C284 C278 1.379 1_455 S
C284 C281 1.363 . S
C284 N282 1.356 . S
C285 C279 1.363 . S
C285 C280 1.379 1_655 S
C285 N283 1.356 . S
N286 C278 1.356 . S
N286 H292 0.984 . S
N286 H293 0.984 . S
N287 C280 1.356 . S
N287 H290 0.984 . S
N287 H291 0.985 . S
H288 N283 0.984 . S
H289 N283 0.985 . S
H290 N287 0.984 . S
H291 N287 0.985 . S
H292 N286 0.984 . S
H293 N286 0.984 . S
H294 N282 0.984 . S
H295 N282 0.985 . S
C296 C297 1.363 . S
C296 C302 1.379 . S
C296 N304 1.356 1_545 S
C297 C296 1.363 . S
C297 C303 1.363 . S
C298 C299 1.363 . S
C298 C303 1.379 . S
C298 N305 1.356 . S
C299 C298 1.363 . S
C299 C302 1.363 . S
N300 C302 1.356 1_565 S
N300 H312 0.984 . S
N300 H313 0.985 . S
N301 C303 1.356 . S
N301 H306 0.984 . S
N301 H307 0.985 . S
C302 C296 1.379 . S
C302 C299 1.363 . S
C302 N300 1.356 1_545 S
C303 C297 1.363 . S
C303 C298 1.379 . S
C303 N301 1.356 . S
N304 C296 1.356 1_565 S
N304 H310 0.984 . S
N304 H311 0.984 . S
N305 C298 1.356 . S
N305 H308 0.984 . S
N305 H309 0.985 . S
H306 N301 0.984 . S
H307 N301 0.985 . S
H308 N305 0.984 . S
H309 N305 0.985 . S
H310 N304 0.984 . S
H311 N304 0.984 . S
H312 N300 0.984 . S
H313 N300 0.985 . S
C314 C315 1.363 . S
C314 C320 1.379 . S
C314 N322 1.356 . S
C315 C314 1.363 . S
C315 C321 1.363 . S
C316 C317 1.363 . S
C316 C321 1.379 . S
C316 N323 1.356 1_565 S
C317 C316 1.363 . S
C317 C320 1.363 . S
N318 C320 1.356 . S
N318 H330 0.984 . S
N318 H331 0.985 . S
N319 C321 1.356 1_545 S
N319 H324 0.984 . S
N319 H325 0.985 . S
C320 C314 1.379 . S
C320 C317 1.363 . S
C320 N318 1.356 . S
C321 C315 1.363 . S
C321 C316 1.379 . S
C321 N319 1.356 1_565 S
N322 C314 1.356 . S
N322 H328 0.984 . S
N322 H329 0.984 . S
N323 C316 1.356 1_545 S
N323 H326 0.984 . S
N323 H327 0.985 . S
H324 N319 0.984 . S
H325 N319 0.985 . S
H326 N323 0.984 . S
H327 N323 0.985 . S
H328 N322 0.984 . S
H329 N322 0.984 . S
H330 N318 0.984 . S
H331 N318 0.985 . S
C332 C333 1.363 . S
C332 C338 1.379 . S
C332 N340 1.356 . S
C333 C332 1.363 . S
C333 C339 1.363 . S
C334 C335 1.363 . S
C334 C339 1.379 . S
C334 N341 1.356 1_565 S
C335 C334 1.363 . S
C335 C338 1.363 . S
N336 C338 1.356 . S
N336 H348 0.984 . S
N336 H349 0.985 . S
N337 C339 1.356 1_545 S
N337 H342 0.984 . S
N337 H343 0.985 . S
C338 C332 1.379 . S
C338 C335 1.363 . S
C338 N336 1.356 . S
C339 C333 1.363 . S
C339 C334 1.379 . S
C339 N337 1.356 1_565 S
N340 C332 1.356 . S
N340 H346 0.984 . S
N340 H347 0.984 . S
N341 C334 1.356 1_545 S
N341 H344 0.984 . S
N341 H345 0.985 . S
H342 N337 0.984 . S
H343 N337 0.985 . S
H344 N341 0.984 . S
H345 N341 0.985 . S
H346 N340 0.984 . S
H347 N340 0.984 . S
H348 N336 0.984 . S
H349 N336 0.985 . S
C350 C351 1.363 . S
C350 C356 1.379 . S
C350 N358 1.356 1_545 S
C351 C350 1.363 . S
C351 C357 1.363 . S
C352 C353 1.363 . S
C352 C357 1.379 . S
C352 N359 1.356 . S
C353 C352 1.363 . S
C353 C356 1.363 . S
N354 C356 1.356 1_565 S
N354 H366 0.984 . S
N354 H367 0.985 . S
N355 C357 1.356 . S
N355 H360 0.984 . S
N355 H361 0.985 . S
C356 C350 1.379 . S
C356 C353 1.363 . S
C356 N354 1.356 1_545 S
C357 C351 1.363 . S
C357 C352 1.379 . S
C357 N355 1.356 . S
N358 C350 1.356 1_565 S
N358 H364 0.984 . S
N358 H365 0.984 . S
N359 C352 1.356 . S
N359 H362 0.984 . S
N359 H363 0.985 . S
H360 N355 0.984 . S
H361 N355 0.985 . S
H362 N359 0.984 . S
H363 N359 0.985 . S
H364 N358 0.984 . S
H365 N358 0.984 . S
H366 N354 0.984 . S
H367 N354 0.985 . S
C368 C369 1.363 1_455 S
C368 C374 1.379 1_455 S
C368 N376 1.356 . S
C369 C368 1.363 1_655 S
C369 C375 1.363 . S
C370 C371 1.363 . S
C370 C375 1.379 . S
C370 N377 1.356 . S
C371 C370 1.363 . S
C371 C374 1.363 . S
N372 C374 1.356 . S
N372 H384 0.984 1_655 S
N372 H385 0.985 . S
N373 C375 1.356 . S
N373 H378 0.984 . S
N373 H379 0.985 . S
C374 C368 1.379 1_655 S
C374 C371 1.363 . S
C374 N372 1.356 . S
C375 C369 1.363 . S
C375 C370 1.379 . S
C375 N373 1.356 . S
N376 C368 1.356 . S
N376 H382 0.984 . S
N376 H383 0.984 . S
N377 C370 1.356 . S
N377 H380 0.984 . S
N377 H381 0.985 . S
H378 N373 0.984 . S
H379 N373 0.985 . S
H380 N377 0.984 . S
H381 N377 0.985 . S
H382 N376 0.984 . S
H383 N376 0.984 . S
H384 N372 0.984 1_455 S
H385 N372 0.985 . S
C386 C387 1.363 . S
C386 C392 1.379 1_655 S
C386 N394 1.356 . S
C387 C386 1.363 . S
C387 C393 1.363 . S
C388 C389 1.363 . S
C388 C393 1.379 . S
C388 N395 1.356 . S
C389 C388 1.363 . S
C389 C392 1.363 1_655 S
N390 C392 1.356 . S
N390 H402 0.984 . S
N390 H403 0.985 . S
N391 C393 1.356 . S
N391 H396 0.984 . S
N391 H397 0.985 . S
C392 C386 1.379 1_455 S
C392 C389 1.363 1_455 S
C392 N390 1.356 . S
C393 C387 1.363 . S
C393 C388 1.379 . S
C393 N391 1.356 . S
N394 C386 1.356 . S
N394 H400 0.984 1_655 S
N394 H401 0.984 . S
N395 C388 1.356 . S
N395 H398 0.984 . S
N395 H399 0.985 . S
H396 N391 0.984 . S
H397 N391 0.985 . S
H398 N395 0.984 . S
H399 N395 0.985 . S
H400 N394 0.984 1_455 S
H401 N394 0.984 . S
H402 N390 0.984 . S
H403 N390 0.985 . S
C404 C405 1.363 . S
C404 C410 1.379 1_455 S
C404 N412 1.356 . S
C405 C404 1.363 . S
C405 C411 1.363 . S
C406 C407 1.363 . S
C406 C411 1.379 . S
C406 N413 1.356 . S
C407 C406 1.363 . S
C407 C410 1.363 1_455 S
N408 C410 1.356 . S
N408 H420 0.984 . S
N408 H421 0.985 . S
N409 C411 1.356 . S
N409 H414 0.984 . S
N409 H415 0.985 . S
C410 C404 1.379 1_655 S
C410 C407 1.363 1_655 S
C410 N408 1.356 . S
C411 C405 1.363 . S
C411 C406 1.379 . S
C411 N409 1.356 . S
N412 C404 1.356 . S
N412 H418 0.984 1_455 S
N412 H419 0.984 . S
N413 C406 1.356 . S
N413 H416 0.984 . S
N413 H417 0.985 . S
H414 N409 0.984 . S
H415 N409 0.985 . S
H416 N413 0.984 . S
H417 N413 0.985 . S
H418 N412 0.984 1_655 S
H419 N412 0.984 . S
H420 N408 0.984 . S
H421 N408 0.985 . S
C422 C423 1.363 . S
C422 C428 1.379 1_455 S
C422 N430 1.356 . S
C423 C422 1.363 . S
C423 C429 1.363 . S
C424 C425 1.363 . S
C424 C429 1.379 . S
C424 N431 1.356 . S
C425 C424 1.363 . S
C425 C428 1.363 1_455 S
N426 C428 1.356 . S
N426 H438 0.984 . S
N426 H439 0.985 . S
N427 C429 1.356 . S
N427 H432 0.984 . S
N427 H433 0.985 . S
C428 C422 1.379 1_655 S
C428 C425 1.363 1_655 S
C428 N426 1.356 . S
C429 C423 1.363 . S
C429 C424 1.379 . S
C429 N427 1.356 . S
N430 C422 1.356 . S
N430 H436 0.984 1_455 S
N430 H437 0.984 . S
N431 C424 1.356 . S
N431 H434 0.984 . S
N431 H435 0.985 . S
H432 N427 0.984 . S
H433 N427 0.985 . S
H434 N431 0.984 . S
H435 N431 0.985 . S
H436 N430 0.984 1_655 S
H437 N430 0.984 . S
H438 N426 0.984 . S
H439 N426 0.985 . S
C153 C27 2.604 . S
C155 C6 2.604 . S
C171 C65 2.604 . S
C173 C44 2.604 . S
C189 C103 2.604 . S
C191 C82 2.604 . S
C207 C141 2.604 . S
C209 C120 2.604 . S
C225 C68 1.885 . S
C227 C1 1.885 1_554 S
C243 C144 1.886 . S
C245 C77 1.886 . S
C261 C30 1.885 . S
C263 C39 1.885 1_554 S
C279 C115 1.886 . S
C281 C106 1.886 . S
C297 C122 1.306 . S
C299 C18 1.335 . S
C315 C46 1.306 . S
C317 C94 1.335 . S
C333 C105 1.306 . S
C335 C52 1.339 . S
C351 C29 1.306 . S
C353 C128 1.339 . S
C369 C84 1.306 . S
C371 C56 1.335 . S
C387 C132 1.337 . S
C389 C8 1.303 . S
C405 C14 1.337 . S
C407 C143 1.308 . S
C423 C90 1.337 . S
C425 C67 1.308 . S
