# Generated by pormake.
# Topology smu, (6)-cn, num edge types: 1
# Building blocks:
#     Node 0, Type 0, BuildingBlock: CUKXOW_clean_sbu_0, # of connection points: 6
#     Node 1, Type 0, BuildingBlock: CUKXOW_clean_sbu_0, # of connection points: 6
#     Node 2, Type 0, BuildingBlock: CUKXOW_clean_sbu_0, # of connection points: 6
#     Node 3, Type 0, BuildingBlock: CUKXOW_clean_sbu_0, # of connection points: 6
#     Node 4, Type 0, BuildingBlock: CUKXOW_clean_sbu_0, # of connection points: 6
#     Node 5, Type 0, BuildingBlock: CUKXOW_clean_sbu_0, # of connection points: 6
#     Edge 6, Type (0, 0), BuildingBlock: UVAHIK_clean_linker_0, # of connection points: 2
#     Edge 7, Type (0, 0), BuildingBlock: UVAHIK_clean_linker_0, # of connection points: 2
#     Edge 8, Type (0, 0), BuildingBlock: UVAHIK_clean_linker_0, # of connection points: 2
#     Edge 9, Type (0, 0), BuildingBlock: UVAHIK_clean_linker_0, # of connection points: 2
#     Edge 10, Type (0, 0), BuildingBlock: UVAHIK_clean_linker_0, # of connection points: 2
#     Edge 11, Type (0, 0), BuildingBlock: UVAHIK_clean_linker_0, # of connection points: 2
#     Edge 12, Type (0, 0), BuildingBlock: UVAHIK_clean_linker_0, # of connection points: 2
#     Edge 13, Type (0, 0), BuildingBlock: UVAHIK_clean_linker_0, # of connection points: 2
#     Edge 14, Type (0, 0), BuildingBlock: UVAHIK_clean_linker_0, # of connection points: 2
#     Edge 15, Type (0, 0), BuildingBlock: UVAHIK_clean_linker_0, # of connection points: 2
#     Edge 16, Type (0, 0), BuildingBlock: UVAHIK_clean_linker_0, # of connection points: 2
#     Edge 17, Type (0, 0), BuildingBlock: UVAHIK_clean_linker_0, # of connection points: 2
#     Edge 18, Type (0, 0), BuildingBlock: UVAHIK_clean_linker_0, # of connection points: 2
#     Edge 19, Type (0, 0), BuildingBlock: UVAHIK_clean_linker_0, # of connection points: 2
#     Edge 20, Type (0, 0), BuildingBlock: UVAHIK_clean_linker_0, # of connection points: 2
#     Edge 21, Type (0, 0), BuildingBlock: UVAHIK_clean_linker_0, # of connection points: 2
#     Edge 22, Type (0, 0), BuildingBlock: UVAHIK_clean_linker_0, # of connection points: 2
#     Edge 23, Type (0, 0), BuildingBlock: UVAHIK_clean_linker_0, # of connection points: 2
# Relax obj value: 0.191
# Max RMSD: 0.295
# Mean RMSD: 0.274
data_MOF--net-smu--node1-CUKXOW_clean_sbu_0--edge1-UVAHIK_clean_linker_0
_symmetry_space_group_name_H-M    P1
_symmetry_Int_Tables_number       1
_symmetry_cell_setting            triclinic
loop_
_symmetry_equiv_pos_as_xyz
'x, y, z'
_cell_length_a     39.081029
_cell_length_b     38.990264
_cell_length_c     37.037871
_cell_angle_alpha  93.50097
_cell_angle_beta   91.154992
_cell_angle_gamma 119.95827
loop_
_atom_site_label
_atom_site_type_symbol
_atom_site_fract_x
_atom_site_fract_y
_atom_site_fract_z
_atom_type_partial_charge
Tb0 Tb 0.38059 0.13894 0.27725 0.0
C1 C 0.35517 0.10288 0.35291 0.0
Tb2 Tb 0.31917 0.05204 0.28233 0.0
O3 O 0.33626 0.14736 0.24954 0.0
O4 O 0.31965 0.10699 0.28899 0.0
O5 O 0.38588 0.12673 0.33436 0.0
C6 C 0.24782 0.987 0.27541 0.0
O7 O 0.32097 0.077 0.33613 0.0
C8 C 0.39356 0.06921 0.28851 0.0
C9 C 0.35026 0.08243 0.20484 0.0
O10 O 0.2754 0.99397 0.29985 0.0
O11 O 0.26091 0.01607 0.25469 0.0
O12 O 0.36504 0.03825 0.302 0.0
O13 O 0.37843 0.08438 0.27001 0.0
O14 O 0.32374 0.05405 0.22376 0.0
O15 O 0.37802 0.11779 0.22015 0.0
C16 C 0.43721 0.21531 0.2877 0.0
O17 O 0.44021 0.1881 0.26821 0.0
O18 O 0.4028 0.19931 0.30123 0.0
C19 C 0.30676 0.12058 0.26557 0.0
Tb20 Tb 0.75439 0.71001 0.28273 0.0
C21 C 0.76821 0.67625 0.3488 0.0
Tb22 Tb 0.77517 0.64573 0.26996 0.0
O23 O 0.6947 0.66764 0.3004 0.0
O24 O 0.72361 0.64944 0.26461 0.0
O25 O 0.77893 0.71044 0.33529 0.0
C26 C 0.79436 0.58939 0.2765 0.0
O27 O 0.75842 0.64391 0.32701 0.0
C28 C 0.83318 0.71844 0.26412 0.0
C29 C 0.75385 0.67633 0.2016 0.0
O30 O 0.81281 0.62496 0.29231 0.0
O31 O 0.76427 0.58493 0.25665 0.0
O32 O 0.8281 0.68747 0.24452 0.0
O33 O 0.80744 0.70757 0.28739 0.0
O34 O 0.75626 0.64595 0.21359 0.0
O35 O 0.75577 0.7052 0.224 0.0
C36 C 0.76159 0.78148 0.27979 0.0
O37 O 0.77185 0.76369 0.25547 0.0
O38 O 0.74653 0.75879 0.30614 0.0
C39 C 0.69419 0.63713 0.28342 0.0
Tb40 Tb 0.88726 0.24908 0.25713 0.0
C41 C 0.93251 0.26726 0.33334 0.0
Tb42 Tb 0.97416 0.27303 0.26366 0.0
O43 O 0.87438 0.19232 0.23052 0.0
O44 O 0.91977 0.22065 0.27076 0.0
O45 O 0.90728 0.27347 0.31414 0.0
C46 C 0.03847 0.26586 0.2601 0.0
O47 O 0.95547 0.25604 0.31714 0.0
C48 C 0.95972 0.33237 0.26806 0.0
C49 C 0.93237 0.26241 0.18547 0.0
O50 O 0.03342 0.28799 0.28461 0.0
O51 O 1.00791 0.2489 0.23733 0.0
O52 O 0.99202 0.33553 0.28228 0.0
O53 O 0.9414 0.29983 0.24973 0.0
O54 O 0.96188 0.26341 0.20489 0.0
O55 O 0.90121 0.26163 0.20048 0.0
C56 C 0.81256 0.22965 0.26854 0.0
O57 O 0.83617 0.25812 0.24916 0.0
O58 O 0.83117 0.21288 0.28109 0.0
C59 C 0.90261 0.1909 0.24801 0.0
Tb60 Tb 0.05653 0.31399 0.75957 0.0
C61 C 0.097 0.35535 0.69214 0.0
Tb62 Tb 0.14219 0.38118 0.77029 0.0
O63 O 0.03698 0.35564 0.74306 0.0
O64 O 0.08626 0.37438 0.77813 0.0
O65 O 0.07043 0.32129 0.70379 0.0
C66 C 0.21625 0.43842 0.7619 0.0
O67 O 0.12398 0.38535 0.71437 0.0
C68 C 0.13073 0.30937 0.77398 0.0
C69 C 0.09657 0.34595 0.83909 0.0
O70 O 0.19759 0.40402 0.74388 0.0
O71 O 0.19298 0.44126 0.7852 0.0
O72 O 0.15821 0.34047 0.79272 0.0
O73 O 0.11292 0.31985 0.75252 0.0
O74 O 0.12509 0.37914 0.82663 0.0
O75 O 0.07097 0.31486 0.81714 0.0
C76 C 0.99481 0.24034 0.75495 0.0
O77 O 0.99658 0.27049 0.77386 0.0
O78 O 0.02726 0.25198 0.73854 0.0
C79 C 0.06714 0.38628 0.7605 0.0
Tb80 Tb 0.27386 0.96867 0.75089 0.0
C81 C 0.26214 0.91945 0.6809 0.0
Tb82 Tb 0.25206 0.88319 0.75643 0.0
O83 O 0.33466 0.98524 0.73505 0.0
O84 O 0.30314 0.93877 0.76668 0.0
O85 O 0.25073 0.94286 0.69685 0.0
C86 C 0.23471 0.80751 0.74658 0.0
O87 O 0.27115 0.89716 0.7004 0.0
C88 C 0.19411 0.89812 0.76417 0.0
C89 C 0.2707 0.93736 0.82907 0.0
O90 O 0.21626 0.82298 0.73104 0.0
O91 O 0.26377 0.83495 0.76772 0.0
O92 O 0.19784 0.87198 0.78101 0.0
O93 O 0.22081 0.91274 0.74195 0.0
O94 O 0.26852 0.90418 0.81418 0.0
O95 O 0.2699 0.96415 0.80913 0.0
C96 C 0.26737 0.03368 0.75588 0.0
O97 O 0.25415 1.00622 0.77827 0.0
O98 O 0.2852 0.02508 0.73069 0.0
C99 C 0.33377 0.95533 0.74973 0.0
Tb100 Tb 0.71127 0.74935 0.7639 0.0
C101 C 0.6775 0.76503 0.69677 0.0
Tb102 Tb 0.65 0.77484 0.77432 0.0
O103 O 0.66562 0.68951 0.73881 0.0
O104 O 0.65164 0.72227 0.77507 0.0
O105 O 0.71124 0.7736 0.71339 0.0
C106 C 0.59557 0.7965 0.76548 0.0
O107 O 0.64611 0.75728 0.71552 0.0
C108 C 0.72373 0.83059 0.79011 0.0
C109 C 0.67755 0.74749 0.84221 0.0
O110 O 0.63111 0.81447 0.75446 0.0
O111 O 0.59015 0.76567 0.7819 0.0
O112 O 0.69367 0.82723 0.80706 0.0
O113 O 0.71129 0.80405 0.76406 0.0
O114 O 0.65022 0.75511 0.82882 0.0
O115 O 0.70498 0.74636 0.82228 0.0
C116 C 0.78209 0.755 0.76692 0.0
O117 O 0.76949 0.77135 0.79059 0.0
O118 O 0.75423 0.73427 0.74182 0.0
C119 C 0.63683 0.69195 0.75359 0.0
C120 C 0.27837 0.98266 0.88303 0.0
C121 C 0.27793 0.94808 0.8688 0.0
C122 C 0.28908 0.99625 0.91938 0.0
C123 C 0.2949 0.96743 1.00963 0.0
H124 H 0.37101 0.07951 0.03093 0.0
C125 C 0.34563 0.03311 0.15672 0.0
C126 C 0.35091 0.07092 0.16628 0.0
C127 C 0.34105 0.01886 0.12048 0.0
C128 C 0.34939 0.04828 0.02558 0.0
H129 H 0.28693 0.89977 0.88247 0.0
H130 H 0.30496 0.92336 0.94695 0.0
H131 H 0.35346 0.05147 0.96815 0.0
H132 H 0.35668 0.1241 0.14559 0.0
H133 H 0.34719 0.09875 0.08173 0.0
H134 H 0.28934 0.96427 0.06672 0.0
C135 C 0.29736 0.94 0.92931 0.0
C136 C 0.33954 0.03215 0.98957 0.0
C137 C 0.28696 0.92647 0.89249 0.0
C138 C 0.35294 0.09495 0.13881 0.0
C139 C 0.34754 0.08033 0.10228 0.0
C140 C 0.30435 0.98363 0.04565 0.0
C141 C 0.2993 0.97554 0.94285 0.0
C142 C 0.31195 0.99164 0.9812 0.0
C143 C 0.3407 0.04167 0.09267 0.0
C144 C 0.33161 0.02437 0.05418 0.0
H145 H 0.27112 0.99999 0.86594 0.0
H146 H 0.28941 0.02319 0.92916 0.0
H147 H 0.27318 0.93624 1.00397 0.0
H148 H 0.34447 0.01418 0.17747 0.0
H149 H 0.33719 0.98958 0.11436 0.0
C150 C 0.70772 0.78213 0.63787 0.0
C151 C 0.6749 0.7573 0.65706 0.0
C152 C 0.71331 0.76917 0.60374 0.0
C153 C 0.66987 0.69413 0.52578 0.0
H154 H 0.77741 0.71399 0.52235 0.0
C155 C 0.72482 0.64364 0.39947 0.0
C156 C 0.7603 0.67426 0.38764 0.0
C157 C 0.71238 0.64769 0.434 0.0
C158 C 0.74729 0.70825 0.52275 0.0
H159 H 0.62068 0.70049 0.65465 0.0
H160 H 0.6302 0.67775 0.59428 0.0
H161 H 0.75693 0.73541 0.57666 0.0
H162 H 0.81154 0.73183 0.40304 0.0
H163 H 0.79062 0.73857 0.46307 0.0
H164 H 0.66071 0.66777 0.47126 0.0
C165 C 0.65153 0.70737 0.60573 0.0
C166 C 0.73557 0.72068 0.55386 0.0
C167 C 0.64584 0.72052 0.64008 0.0
C168 C 0.78429 0.70759 0.41166 0.0
C169 C 0.77219 0.71142 0.4461 0.0
C170 C 0.68172 0.6818 0.49438 0.0
C171 C 0.68638 0.73087 0.58808 0.0
C172 C 0.69707 0.71472 0.55547 0.0
C173 C 0.73553 0.68216 0.45737 0.0
C174 C 0.72091 0.68961 0.49222 0.0
H175 H 0.73065 0.81053 0.65045 0.0
H176 H 0.73995 0.78837 0.59044 0.0
H177 H 0.63996 0.68894 0.5263 0.0
H178 H 0.70542 0.61797 0.38118 0.0
H179 H 0.68415 0.62446 0.44198 0.0
C180 C 0.95111 0.24384 0.12706 0.0
C181 C 0.93804 0.26679 0.14643 0.0
C182 C 0.96536 0.25313 0.09264 0.0
C183 C 0.0182 0.3376 0.03954 0.0
H184 H 0.99003 0.25781 0.95946 0.0
C185 C 0.08593 0.37356 0.89794 0.0
C186 C 0.08898 0.3435 0.87801 0.0
C187 C 0.06837 0.36645 0.93146 0.0
C188 C 0.99886 0.28046 0.98168 0.0
H189 H 0.92914 0.3172 0.14507 0.0
H190 H 0.95485 0.33407 0.08463 0.0
H191 H 0.9541 0.23985 1.01443 0.0
H192 H 0.07899 0.28373 0.87841 0.0
H193 H 0.0508 0.27208 0.93742 0.0
H194 H 0.06398 0.37794 1.00737 0.0
C195 C 0.95344 0.30848 0.09601 0.0
C196 C 0.97786 0.27015 1.01308 0.0
C197 C 0.93826 0.29855 0.13027 0.0
C198 C 0.07692 0.3074 0.89326 0.0
C199 C 0.06012 0.30054 0.92686 0.0
C200 C 0.03966 0.34787 1.00821 0.0
C201 C 0.9678 0.28624 0.07715 0.0
C202 C 0.98752 0.29844 0.04251 0.0
C203 C 0.05395 0.32925 0.94577 0.0
C204 C 0.03067 0.31925 0.979 0.0
H205 H 0.95181 0.2196 0.13924 0.0
H206 H 0.97646 0.23563 0.07894 0.0
H207 H 0.02659 0.35994 0.062 0.0
H208 H 0.09439 0.40143 0.88646 0.0
H209 H 0.06414 0.38931 0.94506 0.0
C210 C 0.32698 0.09134 0.41312 0.0
C211 C 0.35902 0.09892 0.39196 0.0
C212 C 0.32349 0.07547 0.44651 0.0
C213 C 0.35123 0.01167 0.49367 0.0
H214 H 0.2985 0.03341 0.57179 0.0
C215 C 0.30939 0.93459 0.63147 0.0
C216 C 0.27191 0.92591 0.64267 0.0
C217 C 0.32387 0.95444 0.59994 0.0
C218 C 0.31311 0.02684 0.55013 0.0
H219 H 0.41346 0.09726 0.38969 0.0
H220 H 0.40781 0.0699 0.44877 0.0
H221 H 0.32092 0.07649 0.52233 0.0
H222 H 0.21902 0.92791 0.6283 0.0
H223 H 0.24371 0.96144 0.57333 0.0
H224 H 0.34306 0.96172 0.52199 0.0
C225 C 0.38525 0.07618 0.43937 0.0
C226 C 0.32603 0.05161 0.52176 0.0
C227 C 0.38892 0.09255 0.40588 0.0
C228 C 0.24794 0.9341 0.62022 0.0
C229 C 0.26229 0.95379 0.589 0.0
C230 C 0.33853 0.98697 0.52242 0.0
C231 C 0.35182 0.06634 0.45959 0.0
C232 C 0.34421 0.04375 0.49254 0.0
C233 C 0.30109 0.96594 0.57944 0.0
C234 C 0.31824 0.99364 0.55039 0.0
H235 H 0.30318 0.09533 0.40272 0.0
H236 H 0.29709 0.06792 0.46088 0.0
H237 H 0.36485 1.0045 0.47154 0.0
H238 H 0.32879 0.92933 0.64866 0.0
H239 H 0.35385 0.96332 0.59315 0.0
C240 C 0.67706 0.69906 0.88259 0.0
C241 C 0.67484 0.7335 0.8787 0.0
C242 C 0.68025 0.68759 0.91684 0.0
C243 C 0.67365 0.70773 1.01559 0.0
H244 H 0.7453 0.66654 0.02564 0.0
C245 C 0.74796 0.71341 0.15172 0.0
C246 C 0.7459 0.67844 0.1626 0.0
C247 C 0.73641 0.7155 0.11655 0.0
C248 C 0.72476 0.6774 0.02313 0.0
H249 H 0.673 0.78246 0.90734 0.0
H250 H 0.67997 0.76334 0.96776 0.0
H251 H 0.72955 0.67982 0.9659 0.0
H252 H 0.73181 0.61879 0.14402 0.0
H253 H 0.71236 0.62294 0.08137 0.0
H254 H 0.67061 0.70705 0.07325 0.0
C255 C 0.67828 0.7445 0.94429 0.0
C256 C 0.71558 0.68501 0.98887 0.0
C257 C 0.67433 0.7556 0.90975 0.0
C258 C 0.73371 0.64609 0.13659 0.0
C259 C 0.72247 0.64842 0.10085 0.0
C260 C 0.68324 0.70058 0.04984 0.0
C261 C 0.68219 0.71076 0.94825 0.0
C262 C 0.69021 0.70071 0.98463 0.0
C263 C 0.72286 0.68292 0.09087 0.0
C264 C 0.70931 0.68587 0.05403 0.0
H265 H 0.6771 0.68128 0.85893 0.0
H266 H 0.68191 0.66084 0.91859 0.0
H267 H 0.65342 0.71899 1.01347 0.0
H268 H 0.75782 0.73933 0.17061 0.0
H269 H 0.73798 0.74278 0.10945 0.0
C270 C 0.95167 0.25516 0.39317 0.0
C271 C 0.93994 0.27715 0.37286 0.0
C272 C 0.9696 0.26959 0.42786 0.0
C273 C 0.99057 0.34093 0.50617 0.0
H274 H 0.08489 0.33232 0.51742 0.0
C275 C 0.08748 0.39008 0.64152 0.0
C276 C 0.09312 0.3596 0.6533 0.0
C277 C 0.07346 0.38776 0.6057 0.0
C278 C 0.05872 0.33507 0.51473 0.0
H279 H 0.93531 0.33026 0.3737 0.0
H280 H 0.96665 0.35563 0.43518 0.0
H281 H 0.04671 0.31097 0.45957 0.0
H282 H 0.09056 0.3041 0.63704 0.0
H283 H 0.06753 0.30058 0.57473 0.0
H284 H 1.00218 0.36396 0.56199 0.0
C285 C 0.96184 0.32713 0.42403 0.0
C286 C 0.03673 0.32268 0.48164 0.0
C287 C 0.94363 0.31249 0.38904 0.0
C288 C 0.08695 0.32822 0.62839 0.0
C289 C 0.07369 0.32624 0.5927 0.0
C290 C 1.01265 0.35331 0.53953 0.0
C291 C 0.97656 0.30657 0.44306 0.0
C292 C 1.00172 0.32423 0.47728 0.0
C293 C 0.06563 0.3553 0.58114 0.0
C294 C 0.04631 0.34935 0.54444 0.0
H295 H 0.94903 0.22774 0.38138 0.0
H296 H 0.97964 0.25254 0.44222 0.0
H297 H 0.96382 0.34264 0.50353 0.0
H298 H 0.09135 0.41417 0.66051 0.0
H299 H 0.06768 0.41067 0.59751 0.0
C300 C 0.46051 0.11365 0.26836 0.0
C301 C 0.4365 0.08369 0.29054 0.0
C302 C 0.5013 0.12966 0.26997 0.0
C303 C 0.58041 0.1097 0.29361 0.0
H304 H 0.64664 0.22375 0.29034 0.0
C305 C 0.7506 0.18594 0.29798 0.0
C306 C 0.77062 0.21611 0.27466 0.0
C307 C 0.71042 0.17078 0.30292 0.0
C308 C 0.62859 0.19185 0.29089 0.0
H309 H 0.43634 0.04625 0.33139 0.0
H310 H 0.5087 0.07419 0.33402 0.0
H311 H 0.57547 0.19461 0.29501 0.0
H312 H 0.76456 0.25462 0.23861 0.0
H313 H 0.69379 0.22776 0.24683 0.0
H314 H 0.63339 0.1068 0.28871 0.0
C315 C 0.49548 0.08532 0.31549 0.0
C316 C 0.58781 0.17514 0.29376 0.0
C317 C 0.45421 0.06934 0.31403 0.0
C318 C 0.74982 0.23143 0.25681 0.0
C319 C 0.70937 0.21612 0.26168 0.0
C320 C 0.62125 0.12642 0.29064 0.0
C321 C 0.51944 0.11603 0.29369 0.0
C322 C 0.56316 0.13382 0.29461 0.0
C323 C 0.6891 0.18527 0.28455 0.0
C324 C 0.64581 0.16768 0.28884 0.0
H325 H 0.44777 0.12484 0.24941 0.0
H326 H 0.51865 0.15249 0.25216 0.0
H327 H 0.56218 0.07776 0.29375 0.0
H328 H 0.76594 0.17368 0.31231 0.0
H329 H 0.69608 0.14766 0.32126 0.0
C330 C 0.63744 0.58145 0.31244 0.0
C331 C 0.66612 0.59456 0.28652 0.0
C332 C 0.61283 0.54061 0.31572 0.0
C333 C 0.60831 0.44428 0.29488 0.0
H334 H 0.49509 0.39805 0.30107 0.0
C335 C 0.49976 0.27489 0.2713 0.0
C336 C 0.46623 0.25829 0.29182 0.0
C337 C 0.52516 0.31615 0.27348 0.0
C338 C 0.52674 0.41048 0.29993 0.0
H339 H 0.69084 0.57553 0.24312 0.0
H340 H 0.64848 0.50499 0.24891 0.0
H341 H 0.53689 0.4699 0.30064 0.0
H342 H 0.43358 0.27142 0.33161 0.0
H343 H 0.47815 0.34299 0.3361 0.0
H344 H 0.59836 0.38505 0.29409 0.0
C345 C 0.64518 0.52585 0.26711 0.0
C346 C 0.55066 0.45171 0.29968 0.0
C347 C 0.66937 0.56633 0.2637 0.0
C348 C 0.45914 0.28346 0.31529 0.0
C349 C 0.48453 0.32454 0.31764 0.0
C350 C 0.58446 0.40312 0.29532 0.0
C351 C 0.61684 0.51241 0.29332 0.0
C352 C 0.59165 0.46902 0.29663 0.0
C353 C 0.51757 0.34155 0.29638 0.0
C354 C 0.54328 0.38559 0.29744 0.0
H355 H 0.63447 0.60265 0.33045 0.0
H356 H 0.59127 0.53111 0.33624 0.0
H357 H 0.63992 0.45679 0.29307 0.0
H358 H 0.5058 0.25613 0.25289 0.0
H359 H 0.55007 0.32817 0.25642 0.0
C360 C 0.91236 0.35352 0.24946 0.0
C361 C 0.94529 0.36085 0.27161 0.0
C362 C 0.89614 0.37812 0.25304 0.0
C363 C 0.91775 0.47801 0.28537 0.0
H364 H 0.80331 0.42876 0.27942 0.0
C365 C 0.84065 0.57046 0.30342 0.0
C366 C 0.80822 0.56066 0.27939 0.0
C367 C 0.85647 0.54545 0.30501 0.0
C368 C 0.83527 0.44299 0.28077 0.0
H369 H 0.98765 0.40016 0.31457 0.0
H370 H 0.9592 0.444 0.32085 0.0
H371 H 0.8337 0.38726 0.27864 0.0
H372 H 0.76624 0.5166 0.23871 0.0
H373 H 0.79416 0.47263 0.24113 0.0
H374 H 0.91934 0.53374 0.28698 0.0
C375 C 0.94603 0.41894 0.30064 0.0
C376 C 0.85273 0.41923 0.28045 0.0
C377 C 0.96232 0.39398 0.2971 0.0
C378 C 0.79119 0.52476 0.25753 0.0
C379 C 0.80714 0.49962 0.25905 0.0
C380 C 0.90028 0.5018 0.28566 0.0
C381 C 0.91242 0.4109 0.27886 0.0
C382 C 0.89417 0.43644 0.28229 0.0
C383 C 0.84035 0.50998 0.2825 0.0
C384 C 0.85881 0.48457 0.28305 0.0
H385 H 0.8989 0.32854 0.22919 0.0
H386 H 0.87091 0.37158 0.23524 0.0
H387 H 0.94971 0.49217 0.28637 0.0
H388 H 0.85426 0.59787 0.3208 0.0
H389 H 0.88147 0.554 0.32388 0.0
C390 C 0.06544 0.44168 0.73021 0.0
C391 C 0.08142 0.42878 0.7569 0.0
C392 C 0.08206 0.48244 0.72605 0.0
C393 C 0.17522 0.57831 0.74685 0.0
H394 H 0.10966 0.62586 0.73461 0.0
C395 C 0.23752 0.74831 0.76598 0.0
C396 C 0.22118 0.76462 0.74328 0.0
C397 C 0.22146 0.70705 0.7648 0.0
C398 C 0.12846 0.61302 0.73748 0.0
H399 H 0.12623 0.44815 0.80087 0.0
H400 H 0.15478 0.51851 0.79383 0.0
H401 H 0.0786 0.55411 0.7371 0.0
H402 H 0.17638 0.75092 0.70062 0.0
H403 H 0.14897 0.67933 0.69803 0.0
H404 H 0.22506 0.63713 0.74749 0.0
C405 C 0.1301 0.49756 0.77559 0.0
C406 C 0.11059 0.57185 0.7389 0.0
C407 C 0.11354 0.45716 0.77976 0.0
C408 C 0.18945 0.73914 0.7186 0.0
C409 C 0.17352 0.69806 0.71733 0.0
C410 C 0.19308 0.61943 0.74535 0.0
C411 C 0.11496 0.51078 0.74845 0.0
C412 C 0.13375 0.55408 0.74409 0.0
C413 C 0.18882 0.68137 0.74082 0.0
C414 C 0.16994 0.63739 0.74102 0.0
H415 H 0.04081 0.42034 0.71212 0.0
H416 H 0.06978 0.49173 0.70482 0.0
H417 H 0.19395 0.56546 0.75025 0.0
H418 H 0.26189 0.76732 0.78535 0.0
H419 H 0.2338 0.69523 0.78351 0.0
C420 C 0.35795 0.91161 0.77034 0.0
C421 C 0.36292 0.94175 0.7484 0.0
C422 C 0.38315 0.89607 0.76882 0.0
C423 C 0.48182 0.9173 0.74613 0.0
H424 H 0.43498 0.80292 0.74536 0.0
C425 C 0.57709 0.84245 0.73899 0.0
C426 C 0.5672 0.81061 0.7604 0.0
C427 C 0.55182 0.85773 0.73485 0.0
C428 C 0.44859 0.83491 0.74599 0.0
H429 H 0.39884 0.98003 0.70817 0.0
H430 H 0.44401 0.95301 0.7058 0.0
H431 H 0.39242 0.83188 0.74196 0.0
H432 H 0.52292 0.76936 0.79399 0.0
H433 H 0.4787 0.79654 0.78741 0.0
H434 H 0.53799 0.92051 0.7511 0.0
C435 C 0.42014 0.94137 0.72405 0.0
C436 C 0.4242 0.85151 0.74383 0.0
C437 C 0.39444 0.95684 0.72538 0.0
C438 C 0.53116 0.79386 0.77726 0.0
C439 C 0.50583 0.80936 0.7733 0.0
C440 C 0.50627 0.90071 0.7485 0.0
C441 C 0.41432 0.9104 0.74548 0.0
C442 C 0.44051 0.89291 0.74432 0.0
C443 C 0.51604 0.84175 0.75225 0.0
C444 C 0.48997 0.8593 0.74879 0.0
H445 H 0.33438 0.89982 0.78886 0.0
H446 H 0.37839 0.87295 0.78627 0.0
H447 H 0.49524 0.94929 0.74702 0.0
H448 H 0.60461 0.8558 0.72543 0.0
H449 H 0.56034 0.88205 0.71785 0.0
C450 C 0.28023 0.50013 0.78276 0.0
C451 C 0.25842 0.46703 0.75788 0.0
C452 C 0.32119 0.52418 0.78027 0.0
C453 C 0.40282 0.54905 0.71831 0.0
H454 H 0.46761 0.58027 0.80798 0.0
C455 C 0.57611 0.63009 0.72525 0.0
C456 C 0.59405 0.6627 0.7513 0.0
C457 C 0.53497 0.60388 0.72428 0.0
C458 C 0.44992 0.5719 0.78268 0.0
H459 H 0.26177 0.43387 0.7102 0.0
H460 H 0.33272 0.47546 0.70599 0.0
H461 H 0.39589 0.54213 0.80953 0.0
H462 H 0.58315 0.6933 0.79665 0.0
H463 H 0.51274 0.6486 0.79474 0.0
H464 H 0.45719 0.57924 0.69158 0.0
C465 C 0.31856 0.48321 0.72724 0.0
C466 C 0.4088 0.55028 0.78362 0.0
C467 C 0.27787 0.45924 0.72981 0.0
C468 C 0.57039 0.66852 0.77619 0.0
C469 C 0.52987 0.64259 0.77535 0.0
C470 C 0.4441 0.5708 0.71738 0.0
C471 C 0.34088 0.51557 0.75277 0.0
C472 C 0.38469 0.53896 0.75152 0.0
C473 C 0.51156 0.60985 0.7496 0.0
C474 C 0.46807 0.58295 0.74964 0.0
H475 H 0.26591 0.50675 0.80463 0.0
H476 H 0.33752 0.54926 0.80009 0.0
H477 H 0.38507 0.54089 0.69308 0.0
H478 H 0.59369 0.62509 0.70567 0.0
H479 H 0.52155 0.57881 0.70409 0.0
C480 C 0.2545 0.1238 0.3008 0.0
C481 C 0.26969 0.12142 0.2673 0.0
C482 C 0.2253 0.13455 0.30284 0.0
C483 C 0.14936 0.14279 0.25089 0.0
H484 H 0.18442 0.24158 0.30973 0.0
C485 C 0.07426 0.23481 0.2312 0.0
C486 C 0.06897 0.2543 0.26179 0.0
C487 C 0.09822 0.21784 0.23378 0.0
C488 C 0.17369 0.21364 0.29366 0.0
H489 H 0.26489 0.12552 0.20962 0.0
H490 H 0.21264 0.14251 0.21293 0.0
H491 H 0.22265 0.20779 0.31246 0.0
H492 H 0.08517 0.27238 0.31887 0.0
H493 H 0.12621 0.24172 0.32384 0.0
H494 H 0.10022 0.14798 0.23229 0.0
C495 C 0.22354 0.13667 0.23759 0.0
C496 C 0.19563 0.1943 0.29528 0.0
C497 C 0.25332 0.12693 0.23567 0.0
C498 C 0.08917 0.25784 0.29478 0.0
C499 C 0.11266 0.24021 0.29757 0.0
C500 C 0.12705 0.16171 0.2497 0.0
C501 C 0.21031 0.142 0.27129 0.0
C502 C 0.18405 0.15914 0.27338 0.0
C503 C 0.11678 0.2192 0.26724 0.0
C504 C 0.1394 0.19791 0.27041 0.0
H505 H 0.2671 0.12014 0.32559 0.0
H506 H 0.2154 0.13839 0.3291 0.0
H507 H 0.13976 0.11559 0.23389 0.0
H508 H 0.05905 0.23183 0.2054 0.0
H509 H 0.10163 0.20309 0.20955 0.0
C510 C 0.89387 0.76845 0.23747 0.0
C511 C 0.87203 0.75485 0.26819 0.0
C512 C 0.93365 0.79797 0.24115 0.0
C513 C 0.01941 0.83017 0.30036 0.0
H514 H 0.06856 0.92147 0.24366 0.0
C515 C 0.18935 0.93811 0.3069 0.0
C516 C 0.20593 0.956 0.27517 0.0
C517 C 0.14827 0.91433 0.30814 0.0
C518 C 0.05544 0.89577 0.25929 0.0
H519 H 0.87373 0.76207 0.32677 0.0
H520 H 0.94411 0.8133 0.33333 0.0
H521 H 0.99667 0.88173 0.24277 0.0
H522 H 0.19332 0.96138 0.21929 0.0
H523 H 0.12212 0.91829 0.22064 0.0
H524 H 0.07788 0.84269 0.31549 0.0
C525 C 0.93017 0.80141 0.30644 0.0
C526 C 1.01425 0.87336 0.25906 0.0
C527 C 0.88999 0.77246 0.30268 0.0
C528 C 0.18115 0.94802 0.24415 0.0
C529 C 0.14028 0.92377 0.24515 0.0
C530 C 0.06067 0.85219 0.30014 0.0
C531 C 0.95247 0.81373 0.2757 0.0
C532 C 0.99588 0.84015 0.27928 0.0
C533 C 0.12313 0.90763 0.27746 0.0
C534 C 0.07925 0.88496 0.27916 0.0
H535 H 0.88056 0.75505 0.21064 0.0
H536 H 0.95028 0.80682 0.21706 0.0
H537 H 1.00584 0.8043 0.31579 0.0
H538 H 0.20791 0.94422 0.33129 0.0
H539 H 0.13623 0.90265 0.33356 0.0
C540 C 0.90898 0.14367 0.28629 0.0
C541 C 0.90083 0.15286 0.25224 0.0
C542 C 0.89907 0.1047 0.29189 0.0
C543 C 0.87529 1.00863 0.24689 0.0
H544 H 0.79885 0.9618 0.31993 0.0
C545 C 0.77981 0.84046 0.24612 0.0
C546 C 0.77222 0.82327 0.27928 0.0
C547 C 0.79657 0.88137 0.24516 0.0
C548 C 0.82065 0.97445 0.29987 0.0
H549 H 0.8788 0.12987 0.19688 0.0
H550 H 0.86285 0.06206 0.20629 0.0
H551 H 0.83178 0.03335 0.31456 0.0
H552 H 0.77471 0.8347 0.33747 0.0
H553 H 0.80513 0.9068 0.33606 0.0
H554 H 0.86474 0.95025 0.23218 0.0
C555 C 0.8763 0.0847 0.22871 0.0
C556 C 0.8395 0.01541 0.29684 0.0
C557 C 0.88538 0.12337 0.22331 0.0
C558 C 0.78001 0.84739 0.31154 0.0
C559 C 0.79749 0.88863 0.31066 0.0
C560 C 0.85694 0.96787 0.25023 0.0
C561 C 0.88182 0.07476 0.2633 0.0
C562 C 0.86631 0.03264 0.2698 0.0
C563 C 0.80694 0.90617 0.27745 0.0
C564 C 0.82859 0.95007 0.27611 0.0
H565 H 0.92066 0.16594 0.30908 0.0
H566 H 0.90375 0.09767 0.31875 0.0
H567 H 0.89612 0.02136 0.22604 0.0
H568 H 0.77379 0.82234 0.22085 0.0
H569 H 0.80214 0.8936 0.21903 0.0
C570 C 0.12634 0.25247 0.73521 0.0
C571 C 0.13166 0.27222 0.76963 0.0
C572 C 0.13563 0.22221 0.73047 0.0
C573 C 0.1514 0.15067 0.77656 0.0
H574 H 0.238 0.17623 0.71398 0.0
C575 C 0.24359 0.07488 0.78763 0.0
C576 C 0.25649 0.06471 0.75586 0.0
C577 C 0.22707 0.09932 0.78695 0.0
C578 C 0.21336 0.16812 0.73105 0.0
H579 H 0.1479 0.27452 0.8263 0.0
H580 H 0.16251 0.22054 0.81831 0.0
H581 H 0.20571 0.2161 0.71554 0.0
H582 H 0.26346 0.07272 0.69863 0.0
H583 H 0.23346 0.11468 0.697 0.0
H584 H 0.1584 0.10259 0.79198 0.0
C585 C 0.15185 0.22874 0.79498 0.0
C586 C 0.19488 0.19097 0.73188 0.0
C587 C 0.14355 0.25954 0.79955 0.0
C588 C 0.25404 0.08055 0.72356 0.0
C589 C 0.2368 0.10453 0.72269 0.0
C590 C 0.16935 0.12743 0.77531 0.0
C591 C 0.14925 0.21075 0.76026 0.0
C592 C 0.16436 0.18292 0.75524 0.0
C593 C 0.22226 0.11345 0.75426 0.0
C594 C 0.2013 0.13649 0.75327 0.0
H595 H 0.11747 0.26207 0.71173 0.0
H596 H 0.13335 0.20859 0.70348 0.0
H597 H 0.12775 0.14384 0.79464 0.0
H598 H 0.24539 0.06312 0.81292 0.0
H599 H 0.21748 0.10657 0.81205 0.0
C600 C 0.13817 0.8954 0.72782 0.0
C601 C 0.15617 0.89721 0.76161 0.0
C602 C 0.09832 0.88511 0.7251 0.0
C603 C 0.01562 0.87733 0.77599 0.0
H604 H 0.94998 0.7791 0.7164 0.0
C605 C 0.84984 0.78496 0.79568 0.0
C606 C 0.82392 0.76624 0.765 0.0
C607 C 0.89058 0.8019 0.79296 0.0
C608 C 0.96775 0.80689 0.73268 0.0
H609 H 0.14827 0.8926 0.81911 0.0
H610 H 0.07925 0.87635 0.81461 0.0
H611 H 0.02184 0.8126 0.7141 0.0
H612 H 0.81978 0.74933 0.70761 0.0
H613 H 0.89116 0.77983 0.70246 0.0
H614 H 0.96201 0.87216 0.79451 0.0
C615 C 0.09551 0.88227 0.79024 0.0
C616 C 1.00891 0.82608 0.73128 0.0
C617 C 0.1349 0.89155 0.79283 0.0
C618 C 0.83923 0.76329 0.73175 0.0
C619 C 0.88014 0.78084 0.72886 0.0
C620 C 0.97453 0.85855 0.77699 0.0
C621 C 0.07648 0.87758 0.75625 0.0
C622 C 0.03317 0.86098 0.75351 0.0
C623 C 0.90639 0.8012 0.7593 0.0
C624 C 0.95005 0.82251 0.75607 0.0
H625 H 0.15402 0.89925 0.70335 0.0
H626 H 0.08419 0.88172 0.69862 0.0
H627 H 0.03378 0.90435 0.79324 0.0
H628 H 0.83868 0.78747 0.82166 0.0
H629 H 0.90969 0.81616 0.81723 0.0
C630 C 0.93759 0.18605 0.78355 0.0
C631 C 0.96426 0.19838 0.75595 0.0
C632 C 0.91259 0.14555 0.7872 0.0
C633 C 0.90375 0.04768 0.76137 0.0
H634 H 0.79797 1.00688 0.79462 0.0
C635 C 0.78346 0.88021 0.76013 0.0
C636 C 0.76011 0.8695 0.79029 0.0
C637 C 0.81211 0.92 0.75722 0.0
C638 C 0.82764 0.01795 0.78566 0.0
H639 H 0.98461 0.17861 0.70948 0.0
H640 H 0.93999 0.10814 0.71484 0.0
H641 H 0.83776 0.07706 0.78504 0.0
H642 H 0.75076 0.89081 0.8425 0.0
H643 H 0.80072 0.95997 0.83747 0.0
H644 H 0.89288 0.98799 0.76123 0.0
C645 C 0.93912 0.1294 0.73447 0.0
C646 C 0.85047 0.05819 0.78021 0.0
C647 C 0.96436 0.16978 0.73113 0.0
C648 C 0.76807 0.89841 0.81875 0.0
C649 C 0.79644 0.93799 0.8158 0.0
C650 C 0.88067 1.00727 0.76645 0.0
C651 C 0.91355 0.11671 0.76304 0.0
C652 C 0.88889 0.07365 0.76815 0.0
C653 C 0.8176 0.94942 0.7844 0.0
C654 C 0.84252 0.99212 0.77891 0.0
H655 H 0.93727 0.20761 0.80322 0.0
H656 H 0.89358 0.13691 0.80974 0.0
H657 H 0.93347 0.05863 0.75267 0.0
H658 H 0.7779 0.85843 0.73783 0.0
H659 H 0.82817 0.92807 0.73277 0.0
loop_
_geom_bond_atom_site_label_1
_geom_bond_atom_site_label_2
_geom_bond_distance
_geom_bond_site_symmetry_2
_ccdc_geom_bond_type
Tb0 O3 2.453 . S
Tb0 O4 2.596 . S
Tb0 O5 2.374 . S
Tb0 O13 2.343 . S
Tb0 O15 2.353 . S
Tb0 O17 2.427 . S
Tb0 O18 2.513 . S
C1 O5 1.251 . S
C1 O7 1.263 . S
Tb2 O4 2.343 . S
Tb2 O7 2.353 . S
Tb2 O10 2.427 . S
Tb2 O11 2.513 . S
Tb2 O12 2.453 . S
Tb2 O13 2.596 . S
Tb2 O14 2.374 . S
O3 Tb0 2.453 . S
O3 C19 1.245 . S
O4 Tb0 2.596 . S
O4 Tb2 2.343 . S
O4 C19 1.259 . S
O5 Tb0 2.374 . S
O5 C1 1.251 . S
C6 O10 1.275 1_565 S
C6 O11 1.246 1_565 S
O7 C1 1.263 . S
O7 Tb2 2.353 . S
C8 O12 1.245 . S
C8 O13 1.259 . S
C9 O14 1.250 . S
C9 O15 1.263 . S
O10 Tb2 2.427 . S
O10 C6 1.275 1_545 S
O11 Tb2 2.513 . S
O11 C6 1.246 1_545 S
O12 Tb2 2.453 . S
O12 C8 1.245 . S
O13 Tb0 2.343 . S
O13 Tb2 2.596 . S
O13 C8 1.259 . S
O14 Tb2 2.374 . S
O14 C9 1.250 . S
O15 Tb0 2.353 . S
O15 C9 1.263 . S
C16 O17 1.275 . S
C16 O18 1.246 . S
O17 Tb0 2.427 . S
O17 C16 1.275 . S
O18 Tb0 2.513 . S
O18 C16 1.246 . S
C19 O3 1.245 . S
C19 O4 1.259 . S
Tb20 O23 2.453 . S
Tb20 O24 2.596 . S
Tb20 O25 2.374 . S
Tb20 O33 2.343 . S
Tb20 O35 2.353 . S
Tb20 O37 2.427 . S
Tb20 O38 2.513 . S
C21 O25 1.251 . S
C21 O27 1.263 . S
Tb22 O24 2.343 . S
Tb22 O27 2.353 . S
Tb22 O30 2.427 . S
Tb22 O31 2.513 . S
Tb22 O32 2.453 . S
Tb22 O33 2.596 . S
Tb22 O34 2.374 . S
O23 Tb20 2.453 . S
O23 C39 1.245 . S
O24 Tb20 2.596 . S
O24 Tb22 2.343 . S
O24 C39 1.259 . S
O25 Tb20 2.374 . S
O25 C21 1.251 . S
C26 O30 1.275 . S
C26 O31 1.246 . S
O27 C21 1.263 . S
O27 Tb22 2.353 . S
C28 O32 1.245 . S
C28 O33 1.259 . S
C29 O34 1.250 . S
C29 O35 1.263 . S
O30 Tb22 2.427 . S
O30 C26 1.275 . S
O31 Tb22 2.513 . S
O31 C26 1.246 . S
O32 Tb22 2.453 . S
O32 C28 1.245 . S
O33 Tb20 2.343 . S
O33 Tb22 2.596 . S
O33 C28 1.259 . S
O34 Tb22 2.374 . S
O34 C29 1.250 . S
O35 Tb20 2.353 . S
O35 C29 1.263 . S
C36 O37 1.275 . S
C36 O38 1.246 . S
O37 Tb20 2.427 . S
O37 C36 1.275 . S
O38 Tb20 2.513 . S
O38 C36 1.246 . S
C39 O23 1.245 . S
C39 O24 1.259 . S
Tb40 O43 2.453 . S
Tb40 O44 2.596 . S
Tb40 O45 2.374 . S
Tb40 O53 2.343 . S
Tb40 O55 2.353 . S
Tb40 O57 2.427 . S
Tb40 O58 2.513 . S
C41 O45 1.251 . S
C41 O47 1.263 . S
Tb42 O44 2.343 . S
Tb42 O47 2.353 . S
Tb42 O50 2.427 . S
Tb42 O51 2.513 . S
Tb42 O52 2.453 . S
Tb42 O53 2.596 . S
Tb42 O54 2.374 . S
O43 Tb40 2.453 . S
O43 C59 1.245 . S
O44 Tb40 2.596 . S
O44 Tb42 2.343 . S
O44 C59 1.259 . S
O45 Tb40 2.374 . S
O45 C41 1.251 . S
C46 O50 1.275 1_455 S
C46 O51 1.246 1_455 S
O47 C41 1.263 . S
O47 Tb42 2.353 . S
C48 O52 1.245 . S
C48 O53 1.259 . S
C49 O54 1.250 . S
C49 O55 1.263 . S
O50 Tb42 2.427 . S
O50 C46 1.275 1_655 S
O51 Tb42 2.513 . S
O51 C46 1.246 1_655 S
O52 Tb42 2.453 . S
O52 C48 1.245 . S
O53 Tb40 2.343 . S
O53 Tb42 2.596 . S
O53 C48 1.259 . S
O54 Tb42 2.374 . S
O54 C49 1.250 . S
O55 Tb40 2.353 . S
O55 C49 1.263 . S
C56 O57 1.275 . S
C56 O58 1.246 . S
O57 Tb40 2.427 . S
O57 C56 1.275 . S
O58 Tb40 2.513 . S
O58 C56 1.246 . S
C59 O43 1.245 . S
C59 O44 1.259 . S
Tb60 O63 2.453 . S
Tb60 O64 2.596 . S
Tb60 O65 2.374 . S
Tb60 O73 2.343 . S
Tb60 O75 2.353 . S
Tb60 O77 2.427 . S
Tb60 O78 2.513 . S
C61 O65 1.251 . S
C61 O67 1.263 . S
Tb62 O64 2.343 . S
Tb62 O67 2.353 . S
Tb62 O70 2.427 . S
Tb62 O71 2.513 . S
Tb62 O72 2.453 . S
Tb62 O73 2.596 . S
Tb62 O74 2.374 . S
O63 Tb60 2.453 . S
O63 C79 1.245 . S
O64 Tb60 2.596 . S
O64 Tb62 2.343 . S
O64 C79 1.259 . S
O65 Tb60 2.374 . S
O65 C61 1.251 . S
C66 O70 1.275 . S
C66 O71 1.246 . S
O67 C61 1.263 . S
O67 Tb62 2.353 . S
C68 O72 1.245 . S
C68 O73 1.259 . S
C69 O74 1.250 . S
C69 O75 1.263 . S
O70 Tb62 2.427 . S
O70 C66 1.275 . S
O71 Tb62 2.513 . S
O71 C66 1.246 . S
O72 Tb62 2.453 . S
O72 C68 1.245 . S
O73 Tb60 2.343 . S
O73 Tb62 2.596 . S
O73 C68 1.259 . S
O74 Tb62 2.374 . S
O74 C69 1.250 . S
O75 Tb60 2.353 . S
O75 C69 1.263 . S
C76 O77 1.275 1_655 S
C76 O78 1.246 1_655 S
O77 Tb60 2.427 . S
O77 C76 1.275 1_455 S
O78 Tb60 2.513 . S
O78 C76 1.246 1_455 S
C79 O63 1.245 . S
C79 O64 1.259 . S
Tb80 O83 2.453 . S
Tb80 O84 2.596 . S
Tb80 O85 2.374 . S
Tb80 O93 2.343 . S
Tb80 O95 2.353 . S
Tb80 O97 2.427 . S
Tb80 O98 2.513 . S
C81 O85 1.251 . S
C81 O87 1.263 . S
Tb82 O84 2.343 . S
Tb82 O87 2.353 . S
Tb82 O90 2.427 . S
Tb82 O91 2.513 . S
Tb82 O92 2.453 . S
Tb82 O93 2.596 . S
Tb82 O94 2.374 . S
O83 Tb80 2.453 . S
O83 C99 1.245 . S
O84 Tb80 2.596 . S
O84 Tb82 2.343 . S
O84 C99 1.259 . S
O85 Tb80 2.374 . S
O85 C81 1.251 . S
C86 O90 1.275 . S
C86 O91 1.246 . S
O87 C81 1.263 . S
O87 Tb82 2.353 . S
C88 O92 1.245 . S
C88 O93 1.259 . S
C89 O94 1.250 . S
C89 O95 1.263 . S
O90 Tb82 2.427 . S
O90 C86 1.275 . S
O91 Tb82 2.513 . S
O91 C86 1.246 . S
O92 Tb82 2.453 . S
O92 C88 1.245 . S
O93 Tb80 2.343 . S
O93 Tb82 2.596 . S
O93 C88 1.259 . S
O94 Tb82 2.374 . S
O94 C89 1.250 . S
O95 Tb80 2.353 . S
O95 C89 1.263 . S
C96 O97 1.275 1_545 S
C96 O98 1.246 1_545 S
O97 Tb80 2.427 . S
O97 C96 1.275 1_565 S
O98 Tb80 2.513 . S
O98 C96 1.246 1_565 S
C99 O83 1.245 . S
C99 O84 1.259 . S
Tb100 O103 2.453 . S
Tb100 O104 2.596 . S
Tb100 O105 2.374 . S
Tb100 O113 2.343 . S
Tb100 O115 2.353 . S
Tb100 O117 2.427 . S
Tb100 O118 2.513 . S
C101 O105 1.251 . S
C101 O107 1.263 . S
Tb102 O104 2.343 . S
Tb102 O107 2.353 . S
Tb102 O110 2.427 . S
Tb102 O111 2.513 . S
Tb102 O112 2.453 . S
Tb102 O113 2.596 . S
Tb102 O114 2.374 . S
O103 Tb100 2.453 . S
O103 C119 1.245 . S
O104 Tb100 2.596 . S
O104 Tb102 2.343 . S
O104 C119 1.259 . S
O105 Tb100 2.374 . S
O105 C101 1.251 . S
C106 O110 1.275 . S
C106 O111 1.246 . S
O107 C101 1.263 . S
O107 Tb102 2.353 . S
C108 O112 1.245 . S
C108 O113 1.259 . S
C109 O114 1.250 . S
C109 O115 1.263 . S
O110 Tb102 2.427 . S
O110 C106 1.275 . S
O111 Tb102 2.513 . S
O111 C106 1.246 . S
O112 Tb102 2.453 . S
O112 C108 1.245 . S
O113 Tb100 2.343 . S
O113 Tb102 2.596 . S
O113 C108 1.259 . S
O114 Tb102 2.374 . S
O114 C109 1.250 . S
O115 Tb100 2.353 . S
O115 C109 1.263 . S
C116 O117 1.275 . S
C116 O118 1.246 . S
O117 Tb100 2.427 . S
O117 C116 1.275 . S
O118 Tb100 2.513 . S
O118 C116 1.246 . S
C119 O103 1.245 . S
C119 O104 1.259 . S
C120 C121 1.349 . S
C120 C122 1.327 . S
C120 H145 0.950 . S
C121 C120 1.349 . S
C121 C137 1.349 . S
C122 C120 1.327 . S
C122 C141 1.429 . S
C122 H146 0.950 1_565 S
C123 C140 1.574 1_556 S
C123 C142 1.368 . S
C123 H147 0.949 . S
H124 C128 0.949 . S
C125 C126 1.349 . S
C125 C127 1.327 . S
C125 H148 0.950 . S
C126 C125 1.349 . S
C126 C138 1.349 . S
C127 C125 1.327 . S
C127 C143 1.429 . S
C127 H149 0.937 1_545 S
C128 H124 0.949 . S
C128 C136 1.574 1_554 S
C128 C144 1.368 . S
H129 C137 0.950 . S
H130 C135 0.950 . S
H131 C136 0.949 . S
H132 C138 0.950 . S
H133 C139 0.950 . S
H134 C140 0.949 . S
C135 H130 0.950 . S
C135 C137 1.327 . S
C135 C141 1.429 . S
C136 C128 1.574 1_556 S
C136 H131 0.949 . S
C136 C142 1.368 1_545 S
C137 C121 1.349 . S
C137 H129 0.950 . S
C137 C135 1.327 . S
C138 C126 1.349 . S
C138 H132 0.950 . S
C138 C139 1.327 . S
C139 H133 0.950 . S
C139 C138 1.327 . S
C139 C143 1.429 . S
C140 C123 1.574 1_554 S
C140 H134 0.949 . S
C140 C144 1.368 1_565 S
C141 C122 1.429 . S
C141 C135 1.429 . S
C141 C142 1.523 . S
C142 C123 1.368 . S
C142 C136 1.368 1_565 S
C142 C141 1.523 . S
C143 C127 1.429 . S
C143 C139 1.429 . S
C143 C144 1.523 . S
C144 C128 1.368 . S
C144 C140 1.368 1_545 S
C144 C143 1.523 . S
H145 C120 0.950 . S
H146 C122 0.950 1_545 S
H147 C123 0.949 . S
H148 C125 0.950 . S
H149 C127 0.937 1_565 S
C150 C151 1.349 . S
C150 C152 1.327 . S
C150 H175 0.950 . S
C151 C150 1.349 . S
C151 C167 1.349 . S
C152 C150 1.327 . S
C152 C171 1.429 . S
C152 H176 0.950 . S
C153 C170 1.574 . S
C153 C172 1.368 . S
C153 H177 0.949 . S
H154 C158 0.949 . S
C155 C156 1.349 . S
C155 C157 1.327 . S
C155 H178 0.950 . S
C156 C155 1.349 . S
C156 C168 1.349 . S
C157 C155 1.327 . S
C157 C173 1.429 . S
C157 H179 0.950 . S
C158 H154 0.949 . S
C158 C166 1.574 . S
C158 C174 1.368 . S
H159 C167 0.950 . S
H160 C165 0.950 . S
H161 C166 0.949 . S
H162 C168 0.950 . S
H163 C169 0.950 . S
H164 C170 0.949 . S
C165 H160 0.950 . S
C165 C167 1.327 . S
C165 C171 1.429 . S
C166 C158 1.574 . S
C166 H161 0.949 . S
C166 C172 1.368 . S
C167 C151 1.349 . S
C167 H159 0.950 . S
C167 C165 1.327 . S
C168 C156 1.349 . S
C168 H162 0.950 . S
C168 C169 1.327 . S
C169 H163 0.950 . S
C169 C168 1.327 . S
C169 C173 1.429 . S
C170 C153 1.574 . S
C170 H164 0.949 . S
C170 C174 1.368 . S
C171 C152 1.429 . S
C171 C165 1.429 . S
C171 C172 1.523 . S
C172 C153 1.368 . S
C172 C166 1.368 . S
C172 C171 1.523 . S
C173 C157 1.429 . S
C173 C169 1.429 . S
C173 C174 1.523 . S
C174 C158 1.368 . S
C174 C170 1.368 . S
C174 C173 1.523 . S
H175 C150 0.950 . S
H176 C152 0.950 . S
H177 C153 0.949 . S
H178 C155 0.950 . S
H179 C157 0.950 . S
C180 C181 1.349 . S
C180 C182 1.327 . S
C180 H205 0.950 . S
C181 C180 1.349 . S
C181 C197 1.349 . S
C182 C180 1.327 . S
C182 C201 1.429 . S
C182 H206 0.950 . S
C183 C200 1.566 1_554 S
C183 C202 1.368 1_455 S
C183 H207 0.949 . S
H184 C188 0.949 . S
C185 C186 1.349 . S
C185 C187 1.327 . S
C185 H208 0.950 . S
C186 C185 1.349 . S
C186 C198 1.349 . S
C187 C185 1.327 . S
C187 C203 1.429 . S
C187 H209 0.950 . S
C188 H184 0.949 . S
C188 C196 1.574 1_556 S
C188 C204 1.368 1_655 S
H189 C197 0.950 . S
H190 C195 0.950 . S
H191 C196 0.949 . S
H192 C198 0.950 . S
H193 C199 0.950 . S
H194 C200 0.951 . S
C195 H190 0.950 . S
C195 C197 1.327 . S
C195 C201 1.429 . S
C196 C188 1.574 1_554 S
C196 H191 0.949 . S
C196 C202 1.368 . S
C197 C181 1.349 . S
C197 H189 0.950 . S
C197 C195 1.327 . S
C198 C186 1.349 . S
C198 H192 0.950 . S
C198 C199 1.327 . S
C199 H193 0.950 . S
C199 C198 1.327 . S
C199 C203 1.429 . S
C200 C183 1.566 1_556 S
C200 H194 0.951 . S
C200 C204 1.374 . S
C201 C182 1.429 . S
C201 C195 1.429 . S
C201 C202 1.523 . S
C202 C183 1.368 1_655 S
C202 C196 1.368 . S
C202 C201 1.523 . S
C203 C187 1.429 . S
C203 C199 1.429 . S
C203 C204 1.523 . S
C204 C188 1.368 1_455 S
C204 C200 1.374 . S
C204 C203 1.523 . S
H205 C180 0.950 . S
H206 C182 0.950 . S
H207 C183 0.949 . S
H208 C185 0.950 . S
H209 C187 0.950 . S
C210 C211 1.349 . S
C210 C212 1.327 . S
C210 H235 0.950 . S
C211 C210 1.349 . S
C211 C227 1.349 . S
C212 C210 1.327 . S
C212 C231 1.429 . S
C212 H236 0.950 . S
C213 C230 1.574 . S
C213 C232 1.368 1_565 S
C213 H237 0.949 . S
H214 C218 0.949 . S
C215 C216 1.349 . S
C215 C217 1.327 . S
C215 H238 0.950 . S
C216 C215 1.349 . S
C216 C228 1.349 . S
C217 C215 1.327 . S
C217 C233 1.429 . S
C217 H239 0.950 . S
C218 H214 0.949 . S
C218 C226 1.574 . S
C218 C234 1.368 1_545 S
H219 C227 0.950 . S
H220 C225 0.950 . S
H221 C226 0.949 . S
H222 C228 0.950 . S
H223 C229 0.950 . S
H224 C230 0.949 . S
C225 H220 0.950 . S
C225 C227 1.327 . S
C225 C231 1.429 . S
C226 C218 1.574 . S
C226 H221 0.949 . S
C226 C232 1.368 . S
C227 C211 1.349 . S
C227 H219 0.950 . S
C227 C225 1.327 . S
C228 C216 1.349 . S
C228 H222 0.950 . S
C228 C229 1.327 . S
C229 H223 0.950 . S
C229 C228 1.327 . S
C229 C233 1.429 . S
C230 C213 1.574 . S
C230 H224 0.949 . S
C230 C234 1.368 . S
C231 C212 1.429 . S
C231 C225 1.429 . S
C231 C232 1.523 . S
C232 C213 1.368 1_545 S
C232 C226 1.368 . S
C232 C231 1.523 . S
C233 C217 1.429 . S
C233 C229 1.429 . S
C233 C234 1.523 . S
C234 C218 1.368 1_565 S
C234 C230 1.368 . S
C234 C233 1.523 . S
H235 C210 0.950 . S
H236 C212 0.950 . S
H237 C213 0.949 . S
H238 C215 0.950 . S
H239 C217 0.950 . S
C240 C241 1.349 . S
C240 C242 1.327 . S
C240 H265 0.950 . S
C241 C240 1.349 . S
C241 C257 1.349 . S
C242 C240 1.327 . S
C242 C261 1.429 . S
C242 H266 0.950 . S
C243 C260 1.574 1_556 S
C243 C262 1.368 . S
C243 H267 0.949 . S
H244 C248 0.950 . S
C245 C246 1.349 . S
C245 C247 1.327 . S
C245 H268 0.950 . S
C246 C245 1.349 . S
C246 C258 1.349 . S
C247 C245 1.327 . S
C247 C263 1.429 . S
C247 H269 0.950 . S
C248 H244 0.950 . S
C248 C256 1.574 . S
C248 C264 1.368 1_556 S
H249 C257 0.950 . S
H250 C255 0.950 . S
H251 C256 0.949 . S
H252 C258 0.950 . S
H253 C259 0.950 . S
H254 C260 0.949 . S
C255 H250 0.950 . S
C255 C257 1.327 . S
C255 C261 1.429 . S
C256 C248 1.574 . S
C256 H251 0.949 . S
C256 C262 1.368 . S
C257 C241 1.349 . S
C257 H249 0.950 . S
C257 C255 1.327 . S
C258 C246 1.349 . S
C258 H252 0.950 . S
C258 C259 1.327 . S
C259 H253 0.950 . S
C259 C258 1.327 . S
C259 C263 1.429 . S
C260 C243 1.574 1_554 S
C260 H254 0.949 . S
C260 C264 1.368 . S
C261 C242 1.429 . S
C261 C255 1.429 . S
C261 C262 1.523 . S
C262 C243 1.368 . S
C262 C256 1.368 . S
C262 C261 1.523 . S
C263 C247 1.429 . S
C263 C259 1.429 . S
C263 C264 1.523 . S
C264 C248 1.368 1_554 S
C264 C260 1.368 . S
C264 C263 1.523 . S
H265 C240 0.950 . S
H266 C242 0.950 . S
H267 C243 0.949 . S
H268 C245 0.950 . S
H269 C247 0.950 . S
C270 C271 1.349 . S
C270 C272 1.327 . S
C270 H295 0.950 . S
C271 C270 1.349 . S
C271 C287 1.349 . S
C272 C270 1.327 . S
C272 C291 1.429 . S
C272 H296 0.950 . S
C273 C290 1.574 1_655 S
C273 C292 1.368 . S
C273 H297 0.949 . S
H274 C278 0.949 . S
C275 C276 1.349 . S
C275 C277 1.327 . S
C275 H298 0.950 . S
C276 C275 1.349 . S
C276 C288 1.349 . S
C277 C275 1.327 . S
C277 C293 1.429 . S
C277 H299 0.950 . S
C278 H274 0.949 . S
C278 C286 1.574 1_455 S
C278 C294 1.368 . S
H279 C287 0.950 . S
H280 C285 0.950 . S
H281 C286 0.949 . S
H282 C288 0.950 . S
H283 C289 0.950 . S
H284 C290 0.949 . S
C285 H280 0.950 . S
C285 C287 1.327 . S
C285 C291 1.429 . S
C286 C278 1.574 1_655 S
C286 H281 0.949 . S
C286 C292 1.368 . S
C287 C271 1.349 . S
C287 H279 0.950 . S
C287 C285 1.327 . S
C288 C276 1.349 . S
C288 H282 0.950 . S
C288 C289 1.327 . S
C289 H283 0.950 . S
C289 C288 1.327 . S
C289 C293 1.429 . S
C290 C273 1.574 1_455 S
C290 H284 0.949 . S
C290 C294 1.368 . S
C291 C272 1.429 . S
C291 C285 1.429 . S
C291 C292 1.523 . S
C292 C273 1.368 . S
C292 C286 1.368 . S
C292 C291 1.523 . S
C293 C277 1.429 . S
C293 C289 1.429 . S
C293 C294 1.523 . S
C294 C278 1.368 . S
C294 C290 1.368 . S
C294 C293 1.523 . S
H295 C270 0.950 . S
H296 C272 0.950 . S
H297 C273 0.949 . S
H298 C275 0.950 . S
H299 C277 0.950 . S
C300 C301 1.349 . S
C300 C302 1.327 . S
C300 H325 0.950 . S
C301 C300 1.349 . S
C301 C317 1.349 . S
C302 C300 1.327 . S
C302 C321 1.429 . S
C302 H326 0.950 . S
C303 C320 1.574 . S
C303 C322 1.368 . S
C303 H327 0.949 . S
H304 C308 0.949 . S
C305 C306 1.349 . S
C305 C307 1.327 . S
C305 H328 0.950 . S
C306 C305 1.349 . S
C306 C318 1.349 . S
C307 C305 1.327 . S
C307 C323 1.429 . S
C307 H329 0.950 . S
C308 H304 0.949 . S
C308 C316 1.574 . S
C308 C324 1.368 . S
H309 C317 0.950 . S
H310 C315 0.950 . S
H311 C316 0.949 . S
H312 C318 0.950 . S
H313 C319 0.950 . S
H314 C320 0.949 . S
C315 H310 0.950 . S
C315 C317 1.327 . S
C315 C321 1.429 . S
C316 C308 1.574 . S
C316 H311 0.949 . S
C316 C322 1.368 . S
C317 C301 1.349 . S
C317 H309 0.950 . S
C317 C315 1.327 . S
C318 C306 1.349 . S
C318 H312 0.950 . S
C318 C319 1.327 . S
C319 H313 0.950 . S
C319 C318 1.327 . S
C319 C323 1.429 . S
C320 C303 1.574 . S
C320 H314 0.949 . S
C320 C324 1.368 . S
C321 C302 1.429 . S
C321 C315 1.429 . S
C321 C322 1.523 . S
C322 C303 1.368 . S
C322 C316 1.368 . S
C322 C321 1.523 . S
C323 C307 1.429 . S
C323 C319 1.429 . S
C323 C324 1.523 . S
C324 C308 1.368 . S
C324 C320 1.368 . S
C324 C323 1.523 . S
H325 C300 0.950 . S
H326 C302 0.950 . S
H327 C303 0.949 . S
H328 C305 0.950 . S
H329 C307 0.950 . S
C330 C331 1.349 . S
C330 C332 1.327 . S
C330 H355 0.950 . S
C331 C330 1.349 . S
C331 C347 1.349 . S
C332 C330 1.327 . S
C332 C351 1.429 . S
C332 H356 0.950 . S
C333 C350 1.574 . S
C333 C352 1.368 . S
C333 H357 0.949 . S
H334 C338 0.949 . S
C335 C336 1.349 . S
C335 C337 1.327 . S
C335 H358 0.950 . S
C336 C335 1.349 . S
C336 C348 1.349 . S
C337 C335 1.327 . S
C337 C353 1.429 . S
C337 H359 0.950 . S
C338 H334 0.949 . S
C338 C346 1.574 . S
C338 C354 1.368 . S
H339 C347 0.950 . S
H340 C345 0.950 . S
H341 C346 0.949 . S
H342 C348 0.950 . S
H343 C349 0.950 . S
H344 C350 0.949 . S
C345 H340 0.950 . S
C345 C347 1.327 . S
C345 C351 1.429 . S
C346 C338 1.574 . S
C346 H341 0.949 . S
C346 C352 1.368 . S
C347 C331 1.349 . S
C347 H339 0.950 . S
C347 C345 1.327 . S
C348 C336 1.349 . S
C348 H342 0.950 . S
C348 C349 1.327 . S
C349 H343 0.950 . S
C349 C348 1.327 . S
C349 C353 1.429 . S
C350 C333 1.574 . S
C350 H344 0.949 . S
C350 C354 1.368 . S
C351 C332 1.429 . S
C351 C345 1.429 . S
C351 C352 1.523 . S
C352 C333 1.368 . S
C352 C346 1.368 . S
C352 C351 1.523 . S
C353 C337 1.429 . S
C353 C349 1.429 . S
C353 C354 1.523 . S
C354 C338 1.368 . S
C354 C350 1.368 . S
C354 C353 1.523 . S
H355 C330 0.950 . S
H356 C332 0.950 . S
H357 C333 0.949 . S
H358 C335 0.950 . S
H359 C337 0.950 . S
C360 C361 1.349 . S
C360 C362 1.327 . S
C360 H385 0.950 . S
C361 C360 1.349 . S
C361 C377 1.349 . S
C362 C360 1.327 . S
C362 C381 1.429 . S
C362 H386 0.950 . S
C363 C380 1.574 . S
C363 C382 1.368 . S
C363 H387 0.949 . S
H364 C368 0.949 . S
C365 C366 1.349 . S
C365 C367 1.327 . S
C365 H388 0.950 . S
C366 C365 1.349 . S
C366 C378 1.349 . S
C367 C365 1.327 . S
C367 C383 1.429 . S
C367 H389 0.950 . S
C368 H364 0.949 . S
C368 C376 1.574 . S
C368 C384 1.368 . S
H369 C377 0.950 . S
H370 C375 0.950 . S
H371 C376 0.949 . S
H372 C378 0.950 . S
H373 C379 0.950 . S
H374 C380 0.949 . S
C375 H370 0.950 . S
C375 C377 1.327 . S
C375 C381 1.429 . S
C376 C368 1.574 . S
C376 H371 0.949 . S
C376 C382 1.368 . S
C377 C361 1.349 . S
C377 H369 0.950 . S
C377 C375 1.327 . S
C378 C366 1.349 . S
C378 H372 0.950 . S
C378 C379 1.327 . S
C379 H373 0.950 . S
C379 C378 1.327 . S
C379 C383 1.429 . S
C380 C363 1.574 . S
C380 H374 0.949 . S
C380 C384 1.368 . S
C381 C362 1.429 . S
C381 C375 1.429 . S
C381 C382 1.523 . S
C382 C363 1.368 . S
C382 C376 1.368 . S
C382 C381 1.523 . S
C383 C367 1.429 . S
C383 C379 1.429 . S
C383 C384 1.523 . S
C384 C368 1.368 . S
C384 C380 1.368 . S
C384 C383 1.523 . S
H385 C360 0.950 . S
H386 C362 0.950 . S
H387 C363 0.949 . S
H388 C365 0.950 . S
H389 C367 0.950 . S
C390 C391 1.349 . S
C390 C392 1.327 . S
C390 H415 0.950 . S
C391 C390 1.349 . S
C391 C407 1.349 . S
C392 C390 1.327 . S
C392 C411 1.429 . S
C392 H416 0.950 . S
C393 C410 1.574 . S
C393 C412 1.368 . S
C393 H417 0.949 . S
H394 C398 0.949 . S
C395 C396 1.349 . S
C395 C397 1.327 . S
C395 H418 0.950 . S
C396 C395 1.349 . S
C396 C408 1.349 . S
C397 C395 1.327 . S
C397 C413 1.429 . S
C397 H419 0.950 . S
C398 H394 0.949 . S
C398 C406 1.574 . S
C398 C414 1.368 . S
H399 C407 0.950 . S
H400 C405 0.950 . S
H401 C406 0.949 . S
H402 C408 0.950 . S
H403 C409 0.950 . S
H404 C410 0.949 . S
C405 H400 0.950 . S
C405 C407 1.327 . S
C405 C411 1.429 . S
C406 C398 1.574 . S
C406 H401 0.949 . S
C406 C412 1.368 . S
C407 C391 1.349 . S
C407 H399 0.950 . S
C407 C405 1.327 . S
C408 C396 1.349 . S
C408 H402 0.950 . S
C408 C409 1.327 . S
C409 H403 0.950 . S
C409 C408 1.327 . S
C409 C413 1.429 . S
C410 C393 1.574 . S
C410 H404 0.949 . S
C410 C414 1.368 . S
C411 C392 1.429 . S
C411 C405 1.429 . S
C411 C412 1.523 . S
C412 C393 1.368 . S
C412 C406 1.368 . S
C412 C411 1.523 . S
C413 C397 1.429 . S
C413 C409 1.429 . S
C413 C414 1.523 . S
C414 C398 1.368 . S
C414 C410 1.368 . S
C414 C413 1.523 . S
H415 C390 0.950 . S
H416 C392 0.950 . S
H417 C393 0.949 . S
H418 C395 0.950 . S
H419 C397 0.950 . S
C420 C421 1.349 . S
C420 C422 1.327 . S
C420 H445 0.950 . S
C421 C420 1.349 . S
C421 C437 1.349 . S
C422 C420 1.327 . S
C422 C441 1.429 . S
C422 H446 0.950 . S
C423 C440 1.574 . S
C423 C442 1.368 . S
C423 H447 0.949 . S
H424 C428 0.949 . S
C425 C426 1.349 . S
C425 C427 1.327 . S
C425 H448 0.950 . S
C426 C425 1.349 . S
C426 C438 1.349 . S
C427 C425 1.327 . S
C427 C443 1.429 . S
C427 H449 0.950 . S
C428 H424 0.949 . S
C428 C436 1.574 . S
C428 C444 1.368 . S
H429 C437 0.950 . S
H430 C435 0.950 . S
H431 C436 0.949 . S
H432 C438 0.950 . S
H433 C439 0.950 . S
H434 C440 0.949 . S
C435 H430 0.950 . S
C435 C437 1.327 . S
C435 C441 1.429 . S
C436 C428 1.574 . S
C436 H431 0.949 . S
C436 C442 1.368 . S
C437 C421 1.349 . S
C437 H429 0.950 . S
C437 C435 1.327 . S
C438 C426 1.349 . S
C438 H432 0.950 . S
C438 C439 1.327 . S
C439 H433 0.950 . S
C439 C438 1.327 . S
C439 C443 1.429 . S
C440 C423 1.574 . S
C440 H434 0.949 . S
C440 C444 1.368 . S
C441 C422 1.429 . S
C441 C435 1.429 . S
C441 C442 1.523 . S
C442 C423 1.368 . S
C442 C436 1.368 . S
C442 C441 1.523 . S
C443 C427 1.429 . S
C443 C439 1.429 . S
C443 C444 1.523 . S
C444 C428 1.368 . S
C444 C440 1.368 . S
C444 C443 1.523 . S
H445 C420 0.950 . S
H446 C422 0.950 . S
H447 C423 0.949 . S
H448 C425 0.950 . S
H449 C427 0.950 . S
C450 C451 1.349 . S
C450 C452 1.327 . S
C450 H475 0.950 . S
C451 C450 1.349 . S
C451 C467 1.349 . S
C452 C450 1.327 . S
C452 C471 1.429 . S
C452 H476 0.950 . S
C453 C470 1.574 . S
C453 C472 1.368 . S
C453 H477 0.949 . S
H454 C458 0.949 . S
C455 C456 1.349 . S
C455 C457 1.327 . S
C455 H478 0.950 . S
C456 C455 1.349 . S
C456 C468 1.349 . S
C457 C455 1.327 . S
C457 C473 1.429 . S
C457 H479 0.950 . S
C458 H454 0.949 . S
C458 C466 1.574 . S
C458 C474 1.368 . S
H459 C467 0.950 . S
H460 C465 0.950 . S
H461 C466 0.949 . S
H462 C468 0.950 . S
H463 C469 0.950 . S
H464 C470 0.949 . S
C465 H460 0.950 . S
C465 C467 1.327 . S
C465 C471 1.429 . S
C466 C458 1.574 . S
C466 H461 0.949 . S
C466 C472 1.368 . S
C467 C451 1.349 . S
C467 H459 0.950 . S
C467 C465 1.327 . S
C468 C456 1.349 . S
C468 H462 0.950 . S
C468 C469 1.327 . S
C469 H463 0.950 . S
C469 C468 1.327 . S
C469 C473 1.429 . S
C470 C453 1.574 . S
C470 H464 0.949 . S
C470 C474 1.368 . S
C471 C452 1.429 . S
C471 C465 1.429 . S
C471 C472 1.523 . S
C472 C453 1.368 . S
C472 C466 1.368 . S
C472 C471 1.523 . S
C473 C457 1.429 . S
C473 C469 1.429 . S
C473 C474 1.523 . S
C474 C458 1.368 . S
C474 C470 1.368 . S
C474 C473 1.523 . S
H475 C450 0.950 . S
H476 C452 0.950 . S
H477 C453 0.949 . S
H478 C455 0.950 . S
H479 C457 0.950 . S
C480 C481 1.349 . S
C480 C482 1.327 . S
C480 H505 0.950 . S
C481 C480 1.349 . S
C481 C497 1.349 . S
C482 C480 1.327 . S
C482 C501 1.429 . S
C482 H506 0.950 . S
C483 C500 1.574 . S
C483 C502 1.368 . S
C483 H507 0.949 . S
H484 C488 0.949 . S
C485 C486 1.349 . S
C485 C487 1.327 . S
C485 H508 0.950 1_455 S
C486 C485 1.349 . S
C486 C498 1.349 . S
C487 C485 1.327 . S
C487 C503 1.429 . S
C487 H509 0.950 . S
C488 H484 0.949 . S
C488 C496 1.574 . S
C488 C504 1.368 . S
H489 C497 0.950 . S
H490 C495 0.950 . S
H491 C496 0.949 . S
H492 C498 0.950 . S
H493 C499 0.950 . S
H494 C500 0.949 . S
C495 H490 0.950 . S
C495 C497 1.327 . S
C495 C501 1.429 . S
C496 C488 1.574 . S
C496 H491 0.949 . S
C496 C502 1.368 . S
C497 C481 1.349 . S
C497 H489 0.950 . S
C497 C495 1.327 . S
C498 C486 1.349 . S
C498 H492 0.950 . S
C498 C499 1.327 . S
C499 H493 0.950 . S
C499 C498 1.327 . S
C499 C503 1.429 . S
C500 C483 1.574 . S
C500 H494 0.949 . S
C500 C504 1.368 . S
C501 C482 1.429 . S
C501 C495 1.429 . S
C501 C502 1.523 . S
C502 C483 1.368 . S
C502 C496 1.368 . S
C502 C501 1.523 . S
C503 C487 1.429 . S
C503 C499 1.429 . S
C503 C504 1.523 . S
C504 C488 1.368 . S
C504 C500 1.368 . S
C504 C503 1.523 . S
H505 C480 0.950 . S
H506 C482 0.950 . S
H507 C483 0.949 . S
H508 C485 0.950 1_655 S
H509 C487 0.950 . S
C510 C511 1.349 . S
C510 C512 1.327 . S
C510 H535 0.950 . S
C511 C510 1.349 . S
C511 C527 1.349 . S
C512 C510 1.327 . S
C512 C531 1.429 . S
C512 H536 0.950 . S
C513 C530 1.574 . S
C513 C532 1.368 1_455 S
C513 H537 0.949 1_455 S
H514 C518 0.949 . S
C515 C516 1.349 . S
C515 C517 1.327 . S
C515 H538 0.950 . S
C516 C515 1.349 . S
C516 C528 1.349 . S
C517 C515 1.327 . S
C517 C533 1.429 . S
C517 H539 0.950 . S
C518 H514 0.949 . S
C518 C526 1.574 1_455 S
C518 C534 1.368 . S
H519 C527 0.950 . S
H520 C525 0.950 . S
H521 C526 0.949 . S
H522 C528 0.950 . S
H523 C529 0.950 . S
H524 C530 0.949 . S
C525 H520 0.950 . S
C525 C527 1.327 . S
C525 C531 1.429 . S
C526 C518 1.574 1_655 S
C526 H521 0.949 . S
C526 C532 1.368 . S
C527 C511 1.349 . S
C527 H519 0.950 . S
C527 C525 1.327 . S
C528 C516 1.349 . S
C528 H522 0.950 . S
C528 C529 1.327 . S
C529 H523 0.950 . S
C529 C528 1.327 . S
C529 C533 1.429 . S
C530 C513 1.574 . S
C530 H524 0.949 . S
C530 C534 1.368 . S
C531 C512 1.429 . S
C531 C525 1.429 . S
C531 C532 1.523 . S
C532 C513 1.368 1_655 S
C532 C526 1.368 . S
C532 C531 1.523 . S
C533 C517 1.429 . S
C533 C529 1.429 . S
C533 C534 1.523 . S
C534 C518 1.368 . S
C534 C530 1.368 . S
C534 C533 1.523 . S
H535 C510 0.950 . S
H536 C512 0.950 . S
H537 C513 0.949 1_655 S
H538 C515 0.950 . S
H539 C517 0.950 . S
C540 C541 1.349 . S
C540 C542 1.327 . S
C540 H565 0.950 . S
C541 C540 1.349 . S
C541 C557 1.349 . S
C542 C540 1.327 . S
C542 C561 1.429 . S
C542 H566 0.950 . S
C543 C560 1.574 . S
C543 C562 1.368 1_565 S
C543 H567 0.949 1_565 S
H544 C548 0.949 . S
C545 C546 1.349 . S
C545 C547 1.327 . S
C545 H568 0.950 . S
C546 C545 1.349 . S
C546 C558 1.349 . S
C547 C545 1.327 . S
C547 C563 1.429 . S
C547 H569 0.950 . S
C548 H544 0.949 . S
C548 C556 1.574 . S
C548 C564 1.368 . S
H549 C557 0.950 . S
H550 C555 0.950 . S
H551 C556 0.949 1_545 S
H552 C558 0.950 . S
H553 C559 0.950 . S
H554 C560 0.949 . S
C555 H550 0.950 . S
C555 C557 1.327 . S
C555 C561 1.429 . S
C556 C548 1.574 . S
C556 H551 0.949 1_565 S
C556 C562 1.368 1_565 S
C557 C541 1.349 . S
C557 H549 0.950 . S
C557 C555 1.327 . S
C558 C546 1.349 . S
C558 H552 0.950 . S
C558 C559 1.327 . S
C559 H553 0.950 . S
C559 C558 1.327 . S
C559 C563 1.429 . S
C560 C543 1.574 . S
C560 H554 0.949 . S
C560 C564 1.368 . S
C561 C542 1.429 . S
C561 C555 1.429 . S
C561 C562 1.523 . S
C562 C543 1.368 1_545 S
C562 C556 1.368 1_545 S
C562 C561 1.523 . S
C563 C547 1.429 . S
C563 C559 1.429 . S
C563 C564 1.523 . S
C564 C548 1.368 . S
C564 C560 1.368 . S
C564 C563 1.523 . S
H565 C540 0.950 . S
H566 C542 0.950 . S
H567 C543 0.949 1_545 S
H568 C545 0.950 . S
H569 C547 0.950 . S
C570 C571 1.349 . S
C570 C572 1.327 . S
C570 H595 0.950 . S
C571 C570 1.349 . S
C571 C587 1.349 . S
C572 C570 1.327 . S
C572 C591 1.429 . S
C572 H596 0.950 . S
C573 C590 1.574 . S
C573 C592 1.368 . S
C573 H597 0.949 . S
H574 C578 0.949 . S
C575 C576 1.349 . S
C575 C577 1.327 . S
C575 H598 0.970 . S
C576 C575 1.349 . S
C576 C588 1.349 . S
C577 C575 1.327 . S
C577 C593 1.429 . S
C577 H599 0.950 . S
C578 H574 0.949 . S
C578 C586 1.574 . S
C578 C594 1.368 . S
H579 C587 0.950 . S
H580 C585 0.950 . S
H581 C586 0.949 . S
H582 C588 0.950 . S
H583 C589 0.950 . S
H584 C590 0.949 . S
C585 H580 0.950 . S
C585 C587 1.327 . S
C585 C591 1.429 . S
C586 C578 1.574 . S
C586 H581 0.949 . S
C586 C592 1.368 . S
C587 C571 1.349 . S
C587 H579 0.950 . S
C587 C585 1.327 . S
C588 C576 1.349 . S
C588 H582 0.950 . S
C588 C589 1.327 . S
C589 H583 0.950 . S
C589 C588 1.327 . S
C589 C593 1.429 . S
C590 C573 1.574 . S
C590 H584 0.949 . S
C590 C594 1.368 . S
C591 C572 1.429 . S
C591 C585 1.429 . S
C591 C592 1.523 . S
C592 C573 1.368 . S
C592 C586 1.368 . S
C592 C591 1.523 . S
C593 C577 1.429 . S
C593 C589 1.429 . S
C593 C594 1.523 . S
C594 C578 1.368 . S
C594 C590 1.368 . S
C594 C593 1.523 . S
H595 C570 0.950 . S
H596 C572 0.950 . S
H597 C573 0.949 . S
H598 C575 0.970 . S
H599 C577 0.950 . S
C600 C601 1.349 . S
C600 C602 1.327 . S
C600 H625 0.950 . S
C601 C600 1.349 . S
C601 C617 1.349 . S
C602 C600 1.327 . S
C602 C621 1.429 . S
C602 H626 0.950 . S
C603 C620 1.574 1_455 S
C603 C622 1.368 . S
C603 H627 0.949 . S
H604 C608 0.949 . S
C605 C606 1.349 . S
C605 C607 1.327 . S
C605 H628 0.950 . S
C606 C605 1.349 . S
C606 C618 1.349 . S
C607 C605 1.327 . S
C607 C623 1.429 . S
C607 H629 0.950 . S
C608 H604 0.949 . S
C608 C616 1.574 . S
C608 C624 1.368 . S
H609 C617 0.950 . S
H610 C615 0.950 . S
H611 C616 0.949 1_455 S
H612 C618 0.950 . S
H613 C619 0.950 . S
H614 C620 0.949 . S
C615 H610 0.950 . S
C615 C617 1.327 . S
C615 C621 1.429 . S
C616 C608 1.574 . S
C616 H611 0.949 1_655 S
C616 C622 1.368 1_655 S
C617 C601 1.349 . S
C617 H609 0.950 . S
C617 C615 1.327 . S
C618 C606 1.349 . S
C618 H612 0.950 . S
C618 C619 1.327 . S
C619 H613 0.950 . S
C619 C618 1.327 . S
C619 C623 1.429 . S
C620 C603 1.574 1_655 S
C620 H614 0.949 . S
C620 C624 1.368 . S
C621 C602 1.429 . S
C621 C615 1.429 . S
C621 C622 1.523 . S
C622 C603 1.368 . S
C622 C616 1.368 1_455 S
C622 C621 1.523 . S
C623 C607 1.429 . S
C623 C619 1.429 . S
C623 C624 1.523 . S
C624 C608 1.368 . S
C624 C620 1.368 . S
C624 C623 1.523 . S
H625 C600 0.950 . S
H626 C602 0.950 . S
H627 C603 0.949 . S
H628 C605 0.950 . S
H629 C607 0.950 . S
C630 C631 1.349 . S
C630 C632 1.327 . S
C630 H655 0.950 . S
C631 C630 1.349 . S
C631 C647 1.349 . S
C632 C630 1.327 . S
C632 C651 1.429 . S
C632 H656 0.950 . S
C633 C650 1.574 1_545 S
C633 C652 1.368 . S
C633 H657 0.949 . S
H634 C638 0.949 . S
C635 C636 1.349 . S
C635 C637 1.327 . S
C635 H658 0.950 . S
C636 C635 1.349 . S
C636 C648 1.349 . S
C637 C635 1.327 . S
C637 C653 1.429 . S
C637 H659 0.950 . S
C638 H634 0.949 . S
C638 C646 1.574 . S
C638 C654 1.368 1_545 S
H639 C647 0.950 . S
H640 C645 0.950 . S
H641 C646 0.949 . S
H642 C648 0.950 . S
H643 C649 0.950 . S
H644 C650 0.949 . S
C645 H640 0.950 . S
C645 C647 1.327 . S
C645 C651 1.429 . S
C646 C638 1.574 . S
C646 H641 0.949 . S
C646 C652 1.368 . S
C647 C631 1.349 . S
C647 H639 0.950 . S
C647 C645 1.327 . S
C648 C636 1.349 . S
C648 H642 0.950 . S
C648 C649 1.327 . S
C649 H643 0.950 . S
C649 C648 1.327 . S
C649 C653 1.429 . S
C650 C633 1.574 1_565 S
C650 H644 0.949 . S
C650 C654 1.368 . S
C651 C632 1.429 . S
C651 C645 1.429 . S
C651 C652 1.523 . S
C652 C633 1.368 . S
C652 C646 1.368 . S
C652 C651 1.523 . S
C653 C637 1.429 . S
C653 C649 1.429 . S
C653 C654 1.523 . S
C654 C638 1.368 1_565 S
C654 C650 1.368 . S
C654 C653 1.523 . S
H655 C630 0.950 . S
H656 C632 0.950 . S
H657 C633 0.949 . S
H658 C635 0.950 . S
H659 C637 0.950 . S
C121 C89 1.886 . S
C126 C9 1.864 . S
C151 C101 2.064 . S
C156 C21 2.100 . S
C181 C49 2.326 . S
C186 C69 2.359 . S
C211 C1 2.440 . S
C216 C81 2.402 . S
C241 C109 2.218 . S
C246 C29 2.242 . S
C271 C41 1.952 . S
C276 C61 1.931 . S
C301 C8 1.775 . S
C306 C56 1.692 . S
C331 C39 1.773 . S
C336 C16 1.688 . S
C361 C48 1.773 . S
C366 C26 1.689 . S
C391 C79 1.780 . S
C396 C86 1.690 . S
C421 C99 1.774 . S
C426 C106 1.696 . S
C451 C66 1.717 . S
C456 C119 1.781 . S
C481 C19 0.914 . S
C486 C46 0.993 . S
C511 C28 0.911 . S
C516 C6 0.985 . S
C541 C59 0.908 . S
C546 C36 0.979 . S
C571 C68 0.911 . S
C576 C96 0.986 . S
C601 C88 0.908 . S
C606 C116 0.979 . S
C631 C76 1.007 . S
C636 C108 0.921 . S
