# Generated by pormake.
# Topology fch, (5)-cn, num edge types: 1
# Building blocks:
#     Node 0, Type 0, BuildingBlock: BEQFEK_clean_sbu_0, # of connection points: 5
#     Node 1, Type 0, BuildingBlock: BEQFEK_clean_sbu_0, # of connection points: 5
#     Node 2, Type 0, BuildingBlock: BEQFEK_clean_sbu_0, # of connection points: 5
#     Node 3, Type 0, BuildingBlock: BEQFEK_clean_sbu_0, # of connection points: 5
#     Node 4, Type 0, BuildingBlock: BEQFEK_clean_sbu_0, # of connection points: 5
#     Node 5, Type 0, BuildingBlock: BEQFEK_clean_sbu_0, # of connection points: 5
#     Node 6, Type 0, BuildingBlock: BEQFEK_clean_sbu_0, # of connection points: 5
#     Node 7, Type 0, BuildingBlock: BEQFEK_clean_sbu_0, # of connection points: 5
#     Node 8, Type 0, BuildingBlock: BEQFEK_clean_sbu_0, # of connection points: 5
#     Node 9, Type 0, BuildingBlock: BEQFEK_clean_sbu_0, # of connection points: 5
#     Node 10, Type 0, BuildingBlock: BEQFEK_clean_sbu_0, # of connection points: 5
#     Node 11, Type 0, BuildingBlock: BEQFEK_clean_sbu_0, # of connection points: 5
#     Node 12, Type 0, BuildingBlock: BEQFEK_clean_sbu_0, # of connection points: 5
#     Node 13, Type 0, BuildingBlock: BEQFEK_clean_sbu_0, # of connection points: 5
#     Node 14, Type 0, BuildingBlock: BEQFEK_clean_sbu_0, # of connection points: 5
#     Node 15, Type 0, BuildingBlock: BEQFEK_clean_sbu_0, # of connection points: 5
#     Node 16, Type 0, BuildingBlock: BEQFEK_clean_sbu_0, # of connection points: 5
#     Node 17, Type 0, BuildingBlock: BEQFEK_clean_sbu_0, # of connection points: 5
#     Node 18, Type 0, BuildingBlock: BEQFEK_clean_sbu_0, # of connection points: 5
#     Node 19, Type 0, BuildingBlock: BEQFEK_clean_sbu_0, # of connection points: 5
#     Node 20, Type 0, BuildingBlock: BEQFEK_clean_sbu_0, # of connection points: 5
#     Node 21, Type 0, BuildingBlock: BEQFEK_clean_sbu_0, # of connection points: 5
#     Node 22, Type 0, BuildingBlock: BEQFEK_clean_sbu_0, # of connection points: 5
#     Node 23, Type 0, BuildingBlock: BEQFEK_clean_sbu_0, # of connection points: 5
#     Node 24, Type 0, BuildingBlock: BEQFEK_clean_sbu_0, # of connection points: 5
#     Node 25, Type 0, BuildingBlock: BEQFEK_clean_sbu_0, # of connection points: 5
#     Node 26, Type 0, BuildingBlock: BEQFEK_clean_sbu_0, # of connection points: 5
#     Node 27, Type 0, BuildingBlock: BEQFEK_clean_sbu_0, # of connection points: 5
#     Node 28, Type 0, BuildingBlock: BEQFEK_clean_sbu_0, # of connection points: 5
#     Node 29, Type 0, BuildingBlock: BEQFEK_clean_sbu_0, # of connection points: 5
#     Node 30, Type 0, BuildingBlock: BEQFEK_clean_sbu_0, # of connection points: 5
#     Node 31, Type 0, BuildingBlock: BEQFEK_clean_sbu_0, # of connection points: 5
#     Node 32, Type 0, BuildingBlock: BEQFEK_clean_sbu_0, # of connection points: 5
#     Node 33, Type 0, BuildingBlock: BEQFEK_clean_sbu_0, # of connection points: 5
#     Node 34, Type 0, BuildingBlock: BEQFEK_clean_sbu_0, # of connection points: 5
#     Node 35, Type 0, BuildingBlock: BEQFEK_clean_sbu_0, # of connection points: 5
#     Node 36, Type 0, BuildingBlock: BEQFEK_clean_sbu_0, # of connection points: 5
#     Node 37, Type 0, BuildingBlock: BEQFEK_clean_sbu_0, # of connection points: 5
#     Node 38, Type 0, BuildingBlock: BEQFEK_clean_sbu_0, # of connection points: 5
#     Node 39, Type 0, BuildingBlock: BEQFEK_clean_sbu_0, # of connection points: 5
#     Node 40, Type 0, BuildingBlock: BEQFEK_clean_sbu_0, # of connection points: 5
#     Node 41, Type 0, BuildingBlock: BEQFEK_clean_sbu_0, # of connection points: 5
#     Node 42, Type 0, BuildingBlock: BEQFEK_clean_sbu_0, # of connection points: 5
#     Node 43, Type 0, BuildingBlock: BEQFEK_clean_sbu_0, # of connection points: 5
#     Node 44, Type 0, BuildingBlock: BEQFEK_clean_sbu_0, # of connection points: 5
#     Node 45, Type 0, BuildingBlock: BEQFEK_clean_sbu_0, # of connection points: 5
#     Node 46, Type 0, BuildingBlock: BEQFEK_clean_sbu_0, # of connection points: 5
#     Node 47, Type 0, BuildingBlock: BEQFEK_clean_sbu_0, # of connection points: 5
#     Edge 48, Type (0, 0), BuildingBlock: OJICUG_clean_linker_0, # of connection points: 2
#     Edge 49, Type (0, 0), BuildingBlock: OJICUG_clean_linker_0, # of connection points: 2
#     Edge 50, Type (0, 0), BuildingBlock: OJICUG_clean_linker_0, # of connection points: 2
#     Edge 51, Type (0, 0), BuildingBlock: OJICUG_clean_linker_0, # of connection points: 2
#     Edge 52, Type (0, 0), BuildingBlock: OJICUG_clean_linker_0, # of connection points: 2
#     Edge 53, Type (0, 0), BuildingBlock: OJICUG_clean_linker_0, # of connection points: 2
#     Edge 54, Type (0, 0), BuildingBlock: OJICUG_clean_linker_0, # of connection points: 2
#     Edge 55, Type (0, 0), BuildingBlock: OJICUG_clean_linker_0, # of connection points: 2
#     Edge 56, Type (0, 0), BuildingBlock: OJICUG_clean_linker_0, # of connection points: 2
#     Edge 57, Type (0, 0), BuildingBlock: OJICUG_clean_linker_0, # of connection points: 2
#     Edge 58, Type (0, 0), BuildingBlock: OJICUG_clean_linker_0, # of connection points: 2
#     Edge 59, Type (0, 0), BuildingBlock: OJICUG_clean_linker_0, # of connection points: 2
#     Edge 60, Type (0, 0), BuildingBlock: OJICUG_clean_linker_0, # of connection points: 2
#     Edge 61, Type (0, 0), BuildingBlock: OJICUG_clean_linker_0, # of connection points: 2
#     Edge 62, Type (0, 0), BuildingBlock: OJICUG_clean_linker_0, # of connection points: 2
#     Edge 63, Type (0, 0), BuildingBlock: OJICUG_clean_linker_0, # of connection points: 2
#     Edge 64, Type (0, 0), BuildingBlock: OJICUG_clean_linker_0, # of connection points: 2
#     Edge 65, Type (0, 0), BuildingBlock: OJICUG_clean_linker_0, # of connection points: 2
#     Edge 66, Type (0, 0), BuildingBlock: OJICUG_clean_linker_0, # of connection points: 2
#     Edge 67, Type (0, 0), BuildingBlock: OJICUG_clean_linker_0, # of connection points: 2
#     Edge 68, Type (0, 0), BuildingBlock: OJICUG_clean_linker_0, # of connection points: 2
#     Edge 69, Type (0, 0), BuildingBlock: OJICUG_clean_linker_0, # of connection points: 2
#     Edge 70, Type (0, 0), BuildingBlock: OJICUG_clean_linker_0, # of connection points: 2
#     Edge 71, Type (0, 0), BuildingBlock: OJICUG_clean_linker_0, # of connection points: 2
#     Edge 72, Type (0, 0), BuildingBlock: OJICUG_clean_linker_0, # of connection points: 2
#     Edge 73, Type (0, 0), BuildingBlock: OJICUG_clean_linker_0, # of connection points: 2
#     Edge 74, Type (0, 0), BuildingBlock: OJICUG_clean_linker_0, # of connection points: 2
#     Edge 75, Type (0, 0), BuildingBlock: OJICUG_clean_linker_0, # of connection points: 2
#     Edge 76, Type (0, 0), BuildingBlock: OJICUG_clean_linker_0, # of connection points: 2
#     Edge 77, Type (0, 0), BuildingBlock: OJICUG_clean_linker_0, # of connection points: 2
#     Edge 78, Type (0, 0), BuildingBlock: OJICUG_clean_linker_0, # of connection points: 2
#     Edge 79, Type (0, 0), BuildingBlock: OJICUG_clean_linker_0, # of connection points: 2
#     Edge 80, Type (0, 0), BuildingBlock: OJICUG_clean_linker_0, # of connection points: 2
#     Edge 81, Type (0, 0), BuildingBlock: OJICUG_clean_linker_0, # of connection points: 2
#     Edge 82, Type (0, 0), BuildingBlock: OJICUG_clean_linker_0, # of connection points: 2
#     Edge 83, Type (0, 0), BuildingBlock: OJICUG_clean_linker_0, # of connection points: 2
#     Edge 84, Type (0, 0), BuildingBlock: OJICUG_clean_linker_0, # of connection points: 2
#     Edge 85, Type (0, 0), BuildingBlock: OJICUG_clean_linker_0, # of connection points: 2
#     Edge 86, Type (0, 0), BuildingBlock: OJICUG_clean_linker_0, # of connection points: 2
#     Edge 87, Type (0, 0), BuildingBlock: OJICUG_clean_linker_0, # of connection points: 2
#     Edge 88, Type (0, 0), BuildingBlock: OJICUG_clean_linker_0, # of connection points: 2
#     Edge 89, Type (0, 0), BuildingBlock: OJICUG_clean_linker_0, # of connection points: 2
#     Edge 90, Type (0, 0), BuildingBlock: OJICUG_clean_linker_0, # of connection points: 2
#     Edge 91, Type (0, 0), BuildingBlock: OJICUG_clean_linker_0, # of connection points: 2
#     Edge 92, Type (0, 0), BuildingBlock: OJICUG_clean_linker_0, # of connection points: 2
#     Edge 93, Type (0, 0), BuildingBlock: OJICUG_clean_linker_0, # of connection points: 2
#     Edge 94, Type (0, 0), BuildingBlock: OJICUG_clean_linker_0, # of connection points: 2
#     Edge 95, Type (0, 0), BuildingBlock: OJICUG_clean_linker_0, # of connection points: 2
#     Edge 96, Type (0, 0), BuildingBlock: OJICUG_clean_linker_0, # of connection points: 2
#     Edge 97, Type (0, 0), BuildingBlock: OJICUG_clean_linker_0, # of connection points: 2
#     Edge 98, Type (0, 0), BuildingBlock: OJICUG_clean_linker_0, # of connection points: 2
#     Edge 99, Type (0, 0), BuildingBlock: OJICUG_clean_linker_0, # of connection points: 2
#     Edge 100, Type (0, 0), BuildingBlock: OJICUG_clean_linker_0, # of connection points: 2
#     Edge 101, Type (0, 0), BuildingBlock: OJICUG_clean_linker_0, # of connection points: 2
#     Edge 102, Type (0, 0), BuildingBlock: OJICUG_clean_linker_0, # of connection points: 2
#     Edge 103, Type (0, 0), BuildingBlock: OJICUG_clean_linker_0, # of connection points: 2
#     Edge 104, Type (0, 0), BuildingBlock: OJICUG_clean_linker_0, # of connection points: 2
#     Edge 105, Type (0, 0), BuildingBlock: OJICUG_clean_linker_0, # of connection points: 2
#     Edge 106, Type (0, 0), BuildingBlock: OJICUG_clean_linker_0, # of connection points: 2
#     Edge 107, Type (0, 0), BuildingBlock: OJICUG_clean_linker_0, # of connection points: 2
#     Edge 108, Type (0, 0), BuildingBlock: OJICUG_clean_linker_0, # of connection points: 2
#     Edge 109, Type (0, 0), BuildingBlock: OJICUG_clean_linker_0, # of connection points: 2
#     Edge 110, Type (0, 0), BuildingBlock: OJICUG_clean_linker_0, # of connection points: 2
#     Edge 111, Type (0, 0), BuildingBlock: OJICUG_clean_linker_0, # of connection points: 2
#     Edge 112, Type (0, 0), BuildingBlock: OJICUG_clean_linker_0, # of connection points: 2
#     Edge 113, Type (0, 0), BuildingBlock: OJICUG_clean_linker_0, # of connection points: 2
#     Edge 114, Type (0, 0), BuildingBlock: OJICUG_clean_linker_0, # of connection points: 2
#     Edge 115, Type (0, 0), BuildingBlock: OJICUG_clean_linker_0, # of connection points: 2
#     Edge 116, Type (0, 0), BuildingBlock: OJICUG_clean_linker_0, # of connection points: 2
#     Edge 117, Type (0, 0), BuildingBlock: OJICUG_clean_linker_0, # of connection points: 2
#     Edge 118, Type (0, 0), BuildingBlock: OJICUG_clean_linker_0, # of connection points: 2
#     Edge 119, Type (0, 0), BuildingBlock: OJICUG_clean_linker_0, # of connection points: 2
#     Edge 120, Type (0, 0), BuildingBlock: OJICUG_clean_linker_0, # of connection points: 2
#     Edge 121, Type (0, 0), BuildingBlock: OJICUG_clean_linker_0, # of connection points: 2
#     Edge 122, Type (0, 0), BuildingBlock: OJICUG_clean_linker_0, # of connection points: 2
#     Edge 123, Type (0, 0), BuildingBlock: OJICUG_clean_linker_0, # of connection points: 2
#     Edge 124, Type (0, 0), BuildingBlock: OJICUG_clean_linker_0, # of connection points: 2
#     Edge 125, Type (0, 0), BuildingBlock: OJICUG_clean_linker_0, # of connection points: 2
#     Edge 126, Type (0, 0), BuildingBlock: OJICUG_clean_linker_0, # of connection points: 2
#     Edge 127, Type (0, 0), BuildingBlock: OJICUG_clean_linker_0, # of connection points: 2
#     Edge 128, Type (0, 0), BuildingBlock: OJICUG_clean_linker_0, # of connection points: 2
#     Edge 129, Type (0, 0), BuildingBlock: OJICUG_clean_linker_0, # of connection points: 2
#     Edge 130, Type (0, 0), BuildingBlock: OJICUG_clean_linker_0, # of connection points: 2
#     Edge 131, Type (0, 0), BuildingBlock: OJICUG_clean_linker_0, # of connection points: 2
#     Edge 132, Type (0, 0), BuildingBlock: OJICUG_clean_linker_0, # of connection points: 2
#     Edge 133, Type (0, 0), BuildingBlock: OJICUG_clean_linker_0, # of connection points: 2
#     Edge 134, Type (0, 0), BuildingBlock: OJICUG_clean_linker_0, # of connection points: 2
#     Edge 135, Type (0, 0), BuildingBlock: OJICUG_clean_linker_0, # of connection points: 2
#     Edge 136, Type (0, 0), BuildingBlock: OJICUG_clean_linker_0, # of connection points: 2
#     Edge 137, Type (0, 0), BuildingBlock: OJICUG_clean_linker_0, # of connection points: 2
#     Edge 138, Type (0, 0), BuildingBlock: OJICUG_clean_linker_0, # of connection points: 2
#     Edge 139, Type (0, 0), BuildingBlock: OJICUG_clean_linker_0, # of connection points: 2
#     Edge 140, Type (0, 0), BuildingBlock: OJICUG_clean_linker_0, # of connection points: 2
#     Edge 141, Type (0, 0), BuildingBlock: OJICUG_clean_linker_0, # of connection points: 2
#     Edge 142, Type (0, 0), BuildingBlock: OJICUG_clean_linker_0, # of connection points: 2
#     Edge 143, Type (0, 0), BuildingBlock: OJICUG_clean_linker_0, # of connection points: 2
#     Edge 144, Type (0, 0), BuildingBlock: OJICUG_clean_linker_0, # of connection points: 2
#     Edge 145, Type (0, 0), BuildingBlock: OJICUG_clean_linker_0, # of connection points: 2
#     Edge 146, Type (0, 0), BuildingBlock: OJICUG_clean_linker_0, # of connection points: 2
#     Edge 147, Type (0, 0), BuildingBlock: OJICUG_clean_linker_0, # of connection points: 2
#     Edge 148, Type (0, 0), BuildingBlock: OJICUG_clean_linker_0, # of connection points: 2
#     Edge 149, Type (0, 0), BuildingBlock: OJICUG_clean_linker_0, # of connection points: 2
#     Edge 150, Type (0, 0), BuildingBlock: OJICUG_clean_linker_0, # of connection points: 2
#     Edge 151, Type (0, 0), BuildingBlock: OJICUG_clean_linker_0, # of connection points: 2
#     Edge 152, Type (0, 0), BuildingBlock: OJICUG_clean_linker_0, # of connection points: 2
#     Edge 153, Type (0, 0), BuildingBlock: OJICUG_clean_linker_0, # of connection points: 2
#     Edge 154, Type (0, 0), BuildingBlock: OJICUG_clean_linker_0, # of connection points: 2
#     Edge 155, Type (0, 0), BuildingBlock: OJICUG_clean_linker_0, # of connection points: 2
#     Edge 156, Type (0, 0), BuildingBlock: OJICUG_clean_linker_0, # of connection points: 2
#     Edge 157, Type (0, 0), BuildingBlock: OJICUG_clean_linker_0, # of connection points: 2
#     Edge 158, Type (0, 0), BuildingBlock: OJICUG_clean_linker_0, # of connection points: 2
#     Edge 159, Type (0, 0), BuildingBlock: OJICUG_clean_linker_0, # of connection points: 2
#     Edge 160, Type (0, 0), BuildingBlock: OJICUG_clean_linker_0, # of connection points: 2
#     Edge 161, Type (0, 0), BuildingBlock: OJICUG_clean_linker_0, # of connection points: 2
#     Edge 162, Type (0, 0), BuildingBlock: OJICUG_clean_linker_0, # of connection points: 2
#     Edge 163, Type (0, 0), BuildingBlock: OJICUG_clean_linker_0, # of connection points: 2
#     Edge 164, Type (0, 0), BuildingBlock: OJICUG_clean_linker_0, # of connection points: 2
#     Edge 165, Type (0, 0), BuildingBlock: OJICUG_clean_linker_0, # of connection points: 2
#     Edge 166, Type (0, 0), BuildingBlock: OJICUG_clean_linker_0, # of connection points: 2
#     Edge 167, Type (0, 0), BuildingBlock: OJICUG_clean_linker_0, # of connection points: 2
# Relax obj value: 0.884
# Max RMSD: 0.202
# Mean RMSD: 0.202
data_MOF--net-fch--node1-BEQFEK_clean_sbu_0--edge1-OJICUG_clean_linker_0
_symmetry_space_group_name_H-M    P1
_symmetry_Int_Tables_number       1
_symmetry_cell_setting            triclinic
loop_
_symmetry_equiv_pos_as_xyz
'x, y, z'
_cell_length_a     56.70329
_cell_length_b     56.451885
_cell_length_c     56.452184
_cell_angle_alpha  90.148405
_cell_angle_beta   89.97336
_cell_angle_gamma 90.157948
loop_
_atom_site_label
_atom_site_type_symbol
_atom_site_fract_x
_atom_site_fract_y
_atom_site_fract_z
_atom_type_partial_charge
Co0 Co 0.08344 0.43703 0.15443 0.0
Co1 Co 0.04079 0.40253 0.15564 0.0
C2 C 0.03684 0.45661 0.14865 0.0
O3 O 0.05884 0.46093 0.14807 0.0
O4 O 0.0293 0.43561 0.15184 0.0
C5 C 0.12151 0.46424 0.17156 0.0
O6 O 0.10755 0.46796 0.18975 0.0
C7 C -0.00053 0.39037 0.12915 0.0
C8 C 0.97913 0.36685 0.15269 0.0
C9 C 0.97752 0.37958 0.13171 0.0
N10 N 0.01299 0.38482 0.14788 0.0
N11 N 0.00089 0.37043 0.16177 0.0
C12 C 0.00763 0.4062 0.10947 0.0
H13 H 0.02702 0.40537 0.10749 0.0
H14 H -0.0009 0.40115 0.0925 0.0
H15 H 0.00316 0.42483 0.11366 0.0
C16 C 0.0978 0.4063 0.11522 0.0
N17 N 0.08286 0.4118 0.13283 0.0
N18 N 0.06572 0.39611 0.13366 0.0
C19 C 0.06946 0.37975 0.11655 0.0
C20 C 0.09001 0.38565 0.10434 0.0
C21 C 0.11778 0.42197 0.10763 0.0
H22 H 0.13342 0.41819 0.1188 0.0
H23 H 0.11294 0.44084 0.11014 0.0
H24 H 0.12249 0.41906 0.08878 0.0
O25 O 0.08013 0.42582 0.18649 0.0
O26 O 0.05138 0.39941 0.1897 0.0
H27 H 0.04458 0.35351 0.12834 0.0
H28 H 0.06391 0.34398 0.10446 0.0
C29 C 0.05366 0.35902 0.11182 0.0
H30 H 0.04013 0.3641 0.09861 0.0
H31 H 0.00686 0.36432 0.17812 0.0
O32 O 0.11426 0.45183 0.15424 0.0
C33 C 0.06811 0.41161 0.1989 0.0
Co34 Co 0.56192 0.07374 0.15277 0.0
Co35 Co 0.59544 0.03103 0.15501 0.0
C36 C 0.54283 0.02547 0.14619 0.0
O37 O 0.53963 0.04771 0.14525 0.0
O38 O 0.56324 0.01711 0.15027 0.0
C39 C 0.53473 0.10757 0.13147 0.0
O40 O 0.5372 0.09321 0.11329 0.0
C41 C 0.61411 0.9903 0.1308 0.0
C42 C 0.64007 0.97527 0.15559 0.0
C43 C 0.62917 0.97125 0.13392 0.0
N44 N 0.61615 0.00494 0.14949 0.0
N45 N 0.63201 0.99609 0.16413 0.0
C46 C 0.59557 0.99296 0.11208 0.0
H47 H 0.58198 0.97895 0.11431 0.0
H48 H 0.58718 0.01063 0.11311 0.0
H49 H 0.60336 0.99094 0.09421 0.0
C50 C 0.59788 0.0915 0.11884 0.0
N51 N 0.58921 0.07491 0.13362 0.0
N52 N 0.60261 0.05597 0.13273 0.0
C53 C 0.61942 0.05949 0.11602 0.0
C54 C 0.61691 0.08213 0.10664 0.0
C55 C 0.58812 0.11601 0.11625 0.0
H56 H 0.57959 0.12179 0.13289 0.0
H57 H 0.57538 0.11635 0.10136 0.0
H58 H 0.60213 0.12906 0.11229 0.0
O59 O 0.57059 0.07195 0.18522 0.0
O60 O 0.59659 0.043 0.1892 0.0
H61 H 0.64496 0.03308 0.12512 0.0
H62 H 0.65237 0.05044 0.09922 0.0
C63 C 0.63778 0.04182 0.10912 0.0
H64 H 0.6297 0.02813 0.09757 0.0
H65 H 0.63639 0.00358 0.18048 0.0
O66 O 0.54423 0.10262 0.15102 0.0
C67 C 0.58429 0.05988 0.19802 0.0
Co68 Co 0.91745 0.54479 0.15309 0.0
Co69 Co 0.95554 0.58415 0.15317 0.0
C70 C 0.9669 0.53129 0.14826 0.0
O71 O 0.9453 0.52525 0.14767 0.0
O72 O 0.97288 0.55292 0.15106 0.0
C73 C 0.87165 0.53075 0.16656 0.0
O74 O 0.87007 0.55211 0.17566 0.0
C75 C 0.99449 0.60583 0.12833 0.0
C76 C 0.00483 0.63593 0.15108 0.0
C77 C 0.01116 0.62371 0.13069 0.0
N78 N 0.97898 0.60752 0.14624 0.0
N79 N 0.98498 0.62582 0.15961 0.0
C80 C -0.00494 0.58545 0.11128 0.0
H81 H 0.01041 0.57399 0.11534 0.0
H82 H 0.97858 0.57491 0.11236 0.0
H83 H -0.00296 0.5919 0.09288 0.0
C84 C 0.89964 0.57148 0.11235 0.0
N85 N 0.91476 0.56879 0.13043 0.0
N86 N 0.93061 0.58584 0.13002 0.0
C87 C 0.92586 0.60016 0.11143 0.0
C88 C 0.9062 0.59135 0.09946 0.0
C89 C 0.87939 0.55504 0.10764 0.0
H90 H 0.86763 0.5549 0.12329 0.0
H91 H 0.88611 0.53677 0.10505 0.0
H92 H 0.86885 0.56047 0.09206 0.0
O93 O 0.91841 0.55758 0.18438 0.0
O94 O 0.94286 0.58799 0.18658 0.0
H95 H 0.94758 0.63019 0.11997 0.0
H96 H 0.93107 0.6332 0.09278 0.0
C97 C 0.94093 0.62068 0.10412 0.0
H98 H 0.95619 0.61401 0.09382 0.0
H99 H 0.9763 0.63062 0.1752 0.0
O100 O 0.88967 0.52476 0.15455 0.0
C101 C 0.92768 0.5742 0.1961 0.0
Co102 Co 0.4432 0.91348 0.15606 0.0
Co103 Co 0.40914 0.95631 0.15641 0.0
C104 C 0.46245 0.96163 0.14958 0.0
O105 O 0.46592 0.93937 0.15002 0.0
O106 O 0.44177 0.97012 0.15231 0.0
C107 C 0.46994 0.87379 0.17182 0.0
O108 O 0.47347 0.88575 0.19148 0.0
C109 C 0.38914 -0.00249 0.13312 0.0
C110 C 0.35909 0.00725 0.15599 0.0
C111 C 0.37126 0.01406 0.13579 0.0
N112 N 0.38744 0.98156 0.15068 0.0
N113 N 0.36923 0.98728 0.16415 0.0
C114 C 0.40916 -0.00181 0.1158 0.0
H115 H 0.41899 0.98126 0.11594 0.0
H116 H 0.40265 0.00123 0.09759 0.0
H117 H 0.42124 0.01297 0.12048 0.0
C118 C 0.41343 0.89833 0.11677 0.0
N119 N 0.41829 0.9135 0.13445 0.0
N120 N 0.40361 0.93144 0.13375 0.0
C121 C 0.38889 0.92822 0.11511 0.0
C122 C 0.39485 0.90721 0.10363 0.0
C123 C 0.42712 0.87614 0.11205 0.0
H124 H 0.42704 0.86499 0.12819 0.0
H125 H 0.4457 0.88079 0.1079 0.0
H126 H 0.41949 0.86566 0.09726 0.0
O127 O 0.4318 0.9151 0.18783 0.0
O128 O 0.4061 0.9444 0.19024 0.0
H129 H 0.36174 0.95356 0.12256 0.0
H130 H 0.35781 0.93743 0.0951 0.0
C131 C 0.37094 0.9458 0.10706 0.0
H132 H 0.37992 0.9602 0.09723 0.0
H133 H 0.36423 0.97802 0.17932 0.0
O134 O 0.45892 0.88317 0.1547 0.0
C135 C 0.41735 0.92726 0.19972 0.0
Co136 Co 0.07641 0.54601 0.84252 0.0
Co137 Co 0.0376 0.58395 0.83803 0.0
C138 C 0.02763 0.53146 0.84864 0.0
O139 O 0.04928 0.52578 0.84992 0.0
O140 O 0.02151 0.55259 0.84365 0.0
C141 C 0.12426 0.53629 0.83451 0.0
O142 O 0.12535 0.55829 0.82711 0.0
C143 C -0.00252 0.60637 0.85981 0.0
C144 C 0.98456 0.63067 0.83221 0.0
C145 C 0.97891 0.62133 0.85424 0.0
N146 N 0.01318 0.60679 0.84199 0.0
N147 N 0.00565 0.62177 0.82573 0.0
C148 C -0.00129 0.58922 0.87998 0.0
H149 H 0.98329 0.57707 0.87938 0.0
H150 H 0.01528 0.57888 0.8794 0.0
H151 H -0.00177 0.59892 0.89706 0.0
C152 C 0.09311 0.57782 0.8803 0.0
N153 N 0.07814 0.57246 0.86263 0.0
N154 N 0.0622 0.58921 0.86072 0.0
C155 C 0.06682 0.6061 0.87712 0.0
C156 C 0.08669 0.59946 0.88995 0.0
C157 C 0.11171 0.56135 0.88932 0.0
H158 H 0.12847 0.56495 0.87985 0.0
H159 H 0.1065 0.54268 0.88612 0.0
H160 H 0.11475 0.56399 0.90857 0.0
O161 O 0.07527 0.55479 0.80966 0.0
O162 O 0.05003 0.58408 0.80459 0.0
H163 H 0.04596 0.63449 0.86314 0.0
H164 H 0.06328 0.64222 0.88908 0.0
C165 C 0.0526 0.62812 0.88046 0.0
H166 H 0.03727 0.6241 0.89198 0.0
H167 H 0.01403 0.6246 0.80952 0.0
O168 O 0.10529 0.52806 0.84329 0.0
C169 C 0.06532 0.56967 0.79635 0.0
Co170 Co 0.43672 0.08307 0.84148 0.0
Co171 Co 0.40149 0.0412 0.83905 0.0
C172 C 0.45498 0.03477 0.84516 0.0
O173 O 0.45923 0.0569 0.84609 0.0
O174 O 0.434 0.02708 0.84218 0.0
C175 C 0.46451 0.12201 0.82656 0.0
O176 O 0.46819 0.10941 0.80733 0.0
C177 C 0.38187 -9e-05 0.86205 0.0
C178 C 0.35533 0.98675 0.83664 0.0
C179 C 0.36627 0.98136 0.85795 0.0
N180 N 0.38017 0.01546 0.84416 0.0
N181 N 0.36394 0.00775 0.8292 0.0
C182 C 0.40034 0.00142 0.88097 0.0
H183 H 0.41213 0.98579 0.87984 0.0
H184 H 0.41081 0.01793 0.87933 0.0
H185 H 0.3919 0.0014 0.89868 0.0
C186 C 0.40703 0.09697 0.8816 0.0
N187 N 0.41209 0.08229 0.86356 0.0
N188 N 0.39633 0.06522 0.86254 0.0
C189 C 0.38035 0.06877 0.88 0.0
C190 C 0.38658 0.08912 0.89258 0.0
C191 C 0.42272 0.11698 0.88924 0.0
H192 H 0.41962 0.13244 0.87757 0.0
H193 H 0.44147 0.1117 0.88747 0.0
H194 H 0.41937 0.12225 0.90788 0.0
O195 O 0.42511 0.08249 0.80937 0.0
O196 O 0.39846 0.05404 0.80584 0.0
H197 H 0.35237 0.04639 0.86731 0.0
H198 H 0.34526 0.0633 0.89371 0.0
C199 C 0.35931 0.05335 0.88433 0.0
H200 H 0.3646 0.03816 0.89554 0.0
H201 H 0.35971 0.01611 0.81331 0.0
O202 O 0.45258 0.11337 0.8435 0.0
C203 C 0.4104 0.07108 0.79695 0.0
Co204 Co 0.90878 0.44126 0.84445 0.0
Co205 Co 0.94903 0.40456 0.8428 0.0
C206 C 0.95624 0.45813 0.85137 0.0
O207 O 0.93447 0.46334 0.85218 0.0
O208 O 0.96282 0.43694 0.84742 0.0
C209 C 0.86117 0.44994 0.83226 0.0
O210 O 0.86079 0.42822 0.82392 0.0
C211 C 0.98903 0.38892 0.86903 0.0
C212 C 0.00735 0.36411 0.84512 0.0
C213 C 0.00995 0.37646 0.86628 0.0
N214 N 0.97514 0.38468 0.85023 0.0
N215 N 0.98596 0.36948 0.83613 0.0
C216 C 0.9823 0.40526 0.8889 0.0
H217 H 0.96292 0.40557 0.89123 0.0
H218 H 0.99084 0.39976 0.90569 0.0
H219 H 0.98789 0.42358 0.88466 0.0
C220 C 0.89156 0.41028 0.88247 0.0
N221 N 0.90706 0.41551 0.86526 0.0
N222 N 0.92339 0.39907 0.86424 0.0
C223 C 0.91853 0.38248 0.88076 0.0
C224 C 0.89813 0.38904 0.89285 0.0
C225 C 0.87225 0.4266 0.89028 0.0
H226 H 0.85595 0.42226 0.88029 0.0
H227 H 0.87713 0.44526 0.88659 0.0
H228 H 0.86857 0.42465 0.90948 0.0
O229 O 0.91248 0.43094 0.81216 0.0
O230 O 0.93884 0.40236 0.80867 0.0
H231 H 0.94153 0.35499 0.86822 0.0
H232 H 0.92204 0.34631 0.89224 0.0
C233 C 0.93308 0.36084 0.88496 0.0
H234 H 0.94712 0.365 0.898 0.0
H235 H 0.97949 0.36402 0.81969 0.0
O236 O 0.87923 0.45801 0.84293 0.0
C237 C 0.9235 0.41614 0.79953 0.0
Co238 Co 0.55069 0.9197 0.83993 0.0
Co239 Co 0.58635 0.96128 0.83977 0.0
C240 C 0.53261 0.96782 0.84481 0.0
O241 O 0.52821 0.9457 0.84497 0.0
O242 O 0.55371 0.97544 0.84251 0.0
C243 C 0.52446 0.88146 0.82114 0.0
O244 O 0.5217 0.89519 0.80262 0.0
C245 C 0.60557 0.00053 0.86629 0.0
C246 C 0.63267 0.01558 0.84263 0.0
C247 C 0.62135 0.01923 0.86415 0.0
N248 N 0.60752 0.98655 0.84712 0.0
N249 N 0.62407 0.99536 0.83319 0.0
C250 C 0.58681 -0.00253 0.88474 0.0
H251 H 0.57564 0.01358 0.88559 0.0
H252 H 0.57572 0.98173 0.88096 0.0
H253 H 0.59505 0.99495 0.90234 0.0
C254 C 0.57977 0.90369 0.87944 0.0
N255 N 0.57471 0.91947 0.86246 0.0
N256 N 0.59083 0.93622 0.86214 0.0
C257 C 0.60707 0.93135 0.87897 0.0
C258 C 0.60063 0.91046 0.89037 0.0
C259 C 0.56401 0.88335 0.88586 0.0
H260 H 0.56762 0.86828 0.87375 0.0
H261 H 0.54528 0.88852 0.88376 0.0
H262 H 0.56694 0.87754 0.90439 0.0
O263 O 0.5637 0.92151 0.80857 0.0
O264 O 0.59069 0.94971 0.80623 0.0
H265 H 0.63541 0.95341 0.86662 0.0
H266 H 0.64276 0.93486 0.89172 0.0
C267 C 0.62878 0.94578 0.88344 0.0
H268 H 0.6244 0.96051 0.8957 0.0
H269 H 0.62861 0.98828 0.81671 0.0
O270 O 0.53496 0.88924 0.83945 0.0
C271 C 0.57892 0.93283 0.79679 0.0
Co272 Co 0.15619 0.07473 0.44517 0.0
Co273 Co 0.15482 0.03463 0.40773 0.0
C274 C 0.15228 0.02557 0.4612 0.0
O275 O 0.15229 0.04751 0.46625 0.0
O276 O 0.15378 0.0186 0.43974 0.0
C277 C 0.17567 0.10784 0.47643 0.0
O278 O 0.19289 0.09238 0.47773 0.0
C279 C 0.12899 0.9948 0.38847 0.0
C280 C 0.15077 0.98267 0.35844 0.0
C281 C 0.13065 0.97721 0.37136 0.0
N282 N 0.14703 0.01003 0.38568 0.0
N283 N 0.15983 0.00292 0.36744 0.0
C284 C 0.11245 0.99544 0.40917 0.0
H285 H 0.11427 0.01229 0.41912 0.0
H286 H 0.09395 0.99375 0.40311 0.0
H287 H 0.11626 0.9803 0.42108 0.0
C288 C 0.11501 0.0915 0.41919 0.0
N289 N 0.13273 0.07611 0.42212 0.0
N290 N 0.13169 0.05954 0.40574 0.0
C291 C 0.1129 0.06402 0.39166 0.0
C292 C 0.1016 0.08432 0.39993 0.0
C293 C 0.11117 0.11266 0.43477 0.0
H294 H 0.12767 0.1232 0.43571 0.0
H295 H 0.10688 0.10665 0.45298 0.0
H296 H 0.09685 0.12419 0.42807 0.0
O297 O 0.18639 0.07441 0.43064 0.0
O298 O 0.18797 0.04742 0.40231 0.0
H299 H 0.12039 0.041 0.3623 0.0
H300 H 0.09363 0.05809 0.35915 0.0
C301 C 0.10493 0.04834 0.37181 0.0
H302 H 0.09447 0.03346 0.37916 0.0
H303 H 0.17537 0.01117 0.3619 0.0
O304 O 0.15752 0.10325 0.46402 0.0
C305 C 0.19756 0.06411 0.4143 0.0
Co306 Co 0.91053 0.14968 0.44415 0.0
Co307 Co 0.95107 0.15288 0.4078 0.0
C308 C 0.95757 0.14259 0.46125 0.0
O309 O 0.93578 0.14125 0.46636 0.0
O310 O 0.96421 0.14744 0.44026 0.0
C311 C 0.86293 0.16179 0.45099 0.0
O312 O 0.8639 0.17026 0.42938 0.0
C313 C 0.99099 0.12656 0.39222 0.0
C314 C 0.01079 0.15107 0.36924 0.0
C315 C 0.01244 0.1294 0.38071 0.0
N316 N 0.97764 0.14577 0.38832 0.0
N317 N 0.98936 0.16025 0.37419 0.0
C318 C 0.98333 0.10621 0.40747 0.0
H319 H 0.96395 0.10403 0.40693 0.0
H320 H 0.99192 0.08953 0.40166 0.0
H321 H 0.98817 0.10973 0.42616 0.0
C322 C 0.8937 0.11293 0.41129 0.0
N323 N 0.90922 0.12983 0.41753 0.0
N324 N 0.92566 0.13162 0.40123 0.0
C325 C 0.92088 0.11596 0.38373 0.0
C326 C 0.9004 0.10364 0.38954 0.0
C327 C 0.87417 0.10439 0.42701 0.0
H328 H 0.85785 0.11431 0.42278 0.0
H329 H 0.87867 0.1075 0.44588 0.0
H330 H 0.87071 0.08523 0.42424 0.0
O331 O 0.91444 0.1823 0.4351 0.0
O332 O 0.94046 0.18685 0.40626 0.0
H333 H 0.94422 0.12977 0.35711 0.0
H334 H 0.92462 0.10631 0.347 0.0
C335 C 0.93559 0.1128 0.36196 0.0
H336 H 0.9495 0.09949 0.36547 0.0
H337 H 0.98347 0.17704 0.36929 0.0
O338 O 0.8804 0.15094 0.45994 0.0
C339 C 0.92519 0.19542 0.42055 0.0
Co340 Co 0.83792 0.9215 0.44712 0.0
Co341 Co 0.83601 0.95944 0.4078 0.0
C342 C 0.84052 0.9713 0.46085 0.0
O343 O 0.84169 0.94969 0.467 0.0
O344 O 0.83784 0.97699 0.43914 0.0
C345 C 0.81925 0.889 0.47887 0.0
O346 O 0.80278 0.90517 0.48108 0.0
C347 C 0.85981 -0.00156 0.38517 0.0
C348 C 0.83491 0.00994 0.35751 0.0
C349 C 0.85613 0.01586 0.3683 0.0
N350 N 0.8418 0.98298 0.38433 0.0
N351 N 0.82715 0.98964 0.36743 0.0
C352 C 0.87829 -0.00172 0.40413 0.0
H353 H 0.87709 0.01476 0.41483 0.0
H354 H 0.87629 0.98263 0.41577 0.0
H355 H 0.89607 -0.00232 0.39597 0.0
C356 C 0.87809 0.90438 0.41925 0.0
N357 N 0.86055 0.91984 0.42313 0.0
N358 N 0.85967 0.93523 0.40572 0.0
C359 C 0.87674 0.9298 0.3899 0.0
C360 C 0.88891 0.90999 0.39793 0.0
C361 C 0.88487 0.88534 0.43634 0.0
H362 H 0.8736 0.86954 0.43319 0.0
H363 H 0.88192 0.89147 0.45478 0.0
H364 H 0.90363 0.88022 0.43417 0.0
O365 O 0.80692 0.92047 0.43373 0.0
O366 O 0.80338 0.94556 0.40407 0.0
H367 H 0.86355 0.94861 0.35969 0.0
H368 H 0.88965 0.93104 0.35395 0.0
C369 C 0.88063 0.94258 0.36704 0.0
H370 H 0.89188 0.95835 0.37035 0.0
H371 H 0.81118 0.9812 0.36368 0.0
O372 O 0.83737 0.89314 0.46625 0.0
C373 C 0.79478 0.92943 0.41734 0.0
Co374 Co 0.07419 0.84127 0.44331 0.0
Co375 Co 0.03319 0.83931 0.407 0.0
C376 C 0.02612 0.84708 0.46053 0.0
O377 O 0.04801 0.84756 0.46553 0.0
O378 O 0.01915 0.8437 0.43932 0.0
C379 C 0.11246 0.82445 0.47054 0.0
O380 O 0.09893 0.80594 0.47436 0.0
C381 C 0.99327 0.86427 0.3879 0.0
C382 C 0.97718 0.83866 0.36313 0.0
C383 C 0.97367 0.86064 0.37363 0.0
N384 N 0.0076 0.84545 0.38592 0.0
N385 N -0.00185 0.83036 0.3707 0.0
C386 C -0.00331 0.88358 0.40584 0.0
H387 H 0.98184 0.88346 0.41866 0.0
H388 H 0.01363 0.88147 0.41538 0.0
H389 H -0.00311 0.90104 0.39693 0.0
C390 C 0.0901 0.87986 0.41272 0.0
N391 N 0.07473 0.86251 0.41793 0.0
N392 N 0.05813 0.86161 0.40172 0.0
C393 C 0.06264 0.87849 0.38536 0.0
C394 C 0.08317 0.89049 0.39175 0.0
C395 C 0.10985 0.88732 0.42874 0.0
H396 H 0.1042 0.88591 0.4475 0.0
H397 H 0.11553 0.9058 0.42525 0.0
H398 H 0.12507 0.87532 0.42598 0.0
O399 O 0.07206 0.80894 0.43237 0.0
O400 O 0.04443 0.80546 0.40494 0.0
H401 H 0.05833 0.89144 0.34974 0.0
H402 H 0.03324 0.89521 0.36888 0.0
C403 C 0.04776 0.88302 0.364 0.0
H404 H 0.03996 0.8662 0.35743 0.0
H405 H 0.00519 0.81376 0.36671 0.0
O406 O 0.10454 0.84204 0.45909 0.0
C407 C 0.06067 0.7964 0.41772 0.0
Co408 Co 0.15514 0.90949 0.55691 0.0
Co409 Co 0.1554 0.9517 0.5922 0.0
C410 C 0.15143 0.95778 0.53838 0.0
O411 O 0.15088 0.93564 0.53412 0.0
O412 O 0.15354 0.9655 0.55952 0.0
C413 C 0.17099 0.8711 0.52851 0.0
O414 O 0.19017 0.88378 0.5253 0.0
C415 C 0.13096 0.99312 0.60977 0.0
C416 C 0.15346 0.00626 0.63884 0.0
C417 C 0.13323 0.01142 0.62605 0.0
N418 N 0.14874 0.97775 0.61295 0.0
N419 N 0.16198 0.98549 0.63062 0.0
C420 C 0.11402 0.99181 0.58944 0.0
H421 H 0.11835 0.00589 0.57645 0.0
H422 H 0.11485 0.97425 0.58065 0.0
H423 H 0.09573 0.99476 0.59564 0.0
C424 C 0.11455 0.89499 0.58504 0.0
N425 N 0.13268 0.90976 0.58111 0.0
N426 N 0.13205 0.92736 0.59637 0.0
C427 C 0.113 0.92431 0.61054 0.0
C428 C 0.10114 0.90381 0.60357 0.0
C429 C 0.10979 0.87317 0.5706 0.0
H430 H 0.12562 0.86168 0.57082 0.0
H431 H 0.10631 0.87828 0.55196 0.0
H432 H 0.09465 0.86286 0.57759 0.0
O433 O 0.18627 0.91051 0.56964 0.0
O434 O 0.18862 0.93906 0.59649 0.0
H435 H 0.12047 0.94977 0.63786 0.0
H436 H 0.0937 0.93287 0.64236 0.0
C437 C 0.10504 0.94162 0.62895 0.0
H438 H 0.09457 0.95575 0.62036 0.0
H439 H 0.17741 0.97724 0.6363 0.0
O440 O 0.15395 0.87949 0.54041 0.0
C441 C 0.19797 0.922 0.58486 0.0
Co442 Co 0.07802 0.14424 0.54878 0.0
Co443 Co 0.03964 0.15112 0.58684 0.0
C444 C 0.02935 0.14104 0.53405 0.0
O445 O 0.05084 0.13816 0.52829 0.0
O446 O 0.02363 0.14657 0.55521 0.0
C447 C 0.12593 0.15156 0.54116 0.0
O448 O 0.12576 0.15871 0.56331 0.0
C449 C -0.00201 0.13149 0.60843 0.0
C450 C 0.98554 0.16021 0.63181 0.0
C451 C 0.97908 0.13834 0.6225 0.0
N452 N 0.0146 0.14848 0.60928 0.0
N453 N 0.00733 0.16539 0.62373 0.0
C454 C -0.00117 0.11098 0.59154 0.0
H455 H 0.01553 0.11094 0.58134 0.0
H456 H -0.00221 0.09413 0.60152 0.0
H457 H 0.98357 0.11171 0.57926 0.0
C458 C 0.09307 0.10633 0.58075 0.0
N459 N 0.07861 0.12428 0.57521 0.0
N460 N 0.06286 0.12707 0.59207 0.0
C461 C 0.06704 0.11089 0.60918 0.0
C462 C 0.08653 0.0974 0.60261 0.0
C463 C 0.11157 0.09665 0.56446 0.0
H464 H 0.12855 0.10574 0.56811 0.0
H465 H 0.10662 0.09973 0.54573 0.0
H466 H 0.11406 0.07738 0.56731 0.0
O467 O 0.07826 0.17703 0.5576 0.0
O468 O 0.0542 0.18379 0.58758 0.0
H469 H 0.04693 0.12618 0.63754 0.0
H470 H 0.06327 0.09972 0.64549 0.0
C471 C 0.05287 0.1085 0.63138 0.0
H472 H 0.03704 0.09753 0.62763 0.0
H473 H 0.01638 0.18125 0.62662 0.0
O474 O 0.10746 0.14282 0.53174 0.0
C475 C 0.06963 0.19099 0.57275 0.0
Co476 Co 0.83562 0.09164 0.55159 0.0
Co477 Co 0.8354 0.05103 0.58837 0.0
C478 C 0.84004 0.04334 0.53446 0.0
O479 O 0.84057 0.06522 0.52926 0.0
O480 O 0.83765 0.03674 0.55588 0.0
C481 C 0.81604 0.12399 0.52058 0.0
O482 O 0.79981 0.10738 0.51936 0.0
C483 C 0.86213 0.01094 0.60311 0.0
C484 C 0.83961 0.99291 0.62935 0.0
C485 C 0.86009 0.99009 0.61609 0.0
N486 N 0.84358 0.02487 0.608 0.0
N487 N 0.83031 0.01421 0.624 0.0
C488 C 0.88101 0.01778 0.58578 0.0
H489 H 0.88263 0.03726 0.58455 0.0
H490 H 0.89826 0.0102 0.59103 0.0
H491 H 0.87622 0.01129 0.56786 0.0
C492 C 0.87653 0.10742 0.58 0.0
N493 N 0.85844 0.09259 0.5757 0.0
N494 N 0.85758 0.07633 0.59231 0.0
C495 C 0.87488 0.08067 0.60816 0.0
C496 C 0.88763 0.10045 0.60081 0.0
C497 C 0.8841 0.12654 0.56329 0.0
H498 H 0.87866 0.1221 0.54494 0.0
H499 H 0.90351 0.12911 0.56383 0.0
H500 H 0.87549 0.1434 0.56851 0.0
O501 O 0.80447 0.08949 0.56519 0.0
O502 O 0.80217 0.0622 0.59313 0.0
H503 H 0.88714 0.07744 0.64413 0.0
H504 H 0.89082 0.05145 0.62602 0.0
C505 C 0.87885 0.06641 0.6301 0.0
H506 H 0.86189 0.05909 0.63664 0.0
H507 H 0.81424 0.02077 0.63015 0.0
O508 O 0.83401 0.12091 0.5337 0.0
C509 C 0.79273 0.07857 0.58079 0.0
Co510 Co 0.90727 0.84472 0.55105 0.0
Co511 Co 0.94679 0.84295 0.58851 0.0
C512 C 0.95547 0.84838 0.53481 0.0
O513 O 0.93379 0.84994 0.52938 0.0
O514 O 0.96171 0.84501 0.55621 0.0
C515 C 0.85944 0.83397 0.54071 0.0
O516 O 0.85825 0.82526 0.56222 0.0
C517 C 0.98787 0.86777 0.60379 0.0
C518 C 0.00374 0.84524 0.63132 0.0
C519 C 0.00796 0.86523 0.61763 0.0
N520 N 0.97291 0.84995 0.60863 0.0
N521 N 0.98228 0.83666 0.62538 0.0
C522 C 0.98274 0.88658 0.5858 0.0
H523 H 0.96351 0.88913 0.58378 0.0
H524 H 0.99117 0.90361 0.59091 0.0
H525 H 0.98954 0.88102 0.56825 0.0
C526 C 0.89216 0.88556 0.57914 0.0
N527 N 0.9064 0.86695 0.57565 0.0
N528 N 0.92256 0.86637 0.59232 0.0
C529 C 0.91883 0.88476 0.60728 0.0
C530 C 0.89963 0.89771 0.59917 0.0
C531 C 0.87208 0.89172 0.56308 0.0
H532 H 0.85846 0.87772 0.56448 0.0
H533 H 0.87831 0.89218 0.54444 0.0
H534 H 0.86372 0.90881 0.56781 0.0
O535 O 0.90836 0.8133 0.56325 0.0
O536 O 0.93377 0.80984 0.5927 0.0
H537 H 0.94324 0.87504 0.63473 0.0
H538 H 0.92397 0.8995 0.64209 0.0
C539 C 0.93439 0.89104 0.62776 0.0
H540 H 0.94796 0.90395 0.6219 0.0
H541 H 0.97469 0.82108 0.63177 0.0
O542 O 0.8781 0.84422 0.53348 0.0
C543 C 0.9179 0.80101 0.5792 0.0
Co544 Co 0.43142 0.15594 0.08269 0.0
Co545 Co 0.39649 0.15587 0.04067 0.0
C546 C 0.44986 0.1517 0.03418 0.0
O547 O 0.4536 0.15176 0.05635 0.0
O548 O 0.42896 0.15356 0.02607 0.0
C549 C 0.46569 0.17198 0.11194 0.0
O550 O 0.46521 0.18899 0.0961 0.0
C551 C 0.37837 0.13074 -0.00024 0.0
C552 C 0.35127 0.15468 0.98545 0.0
C553 C 0.36319 0.13373 0.98071 0.0
N554 N 0.37555 0.14893 0.01493 0.0
N555 N 0.35897 0.16298 0.00651 0.0
C556 C 0.39757 0.1127 0.00204 0.0
H557 H 0.4099 0.11424 0.98683 0.0
H558 H 0.40732 0.11499 0.0189 0.0
H559 H 0.38993 0.09463 0.00182 0.0
C560 C 0.40375 0.11516 0.09775 0.0
N561 N 0.40797 0.13297 0.08266 0.0
N562 N 0.39233 0.13272 0.06547 0.0
C563 C 0.37725 0.11452 0.06939 0.0
C564 C 0.38395 0.10293 0.0901 0.0
C565 C 0.41988 0.10886 0.11778 0.0
H566 H 0.43847 0.11207 0.11256 0.0
H567 H 0.41791 0.09004 0.12302 0.0
H568 H 0.41581 0.12032 0.13324 0.0
O569 O 0.41827 0.18679 0.08212 0.0
O570 O 0.3925 0.18962 0.05294 0.0
H571 H 0.34312 0.09851 0.06393 0.0
H572 H 0.36292 0.09709 0.03905 0.0
C573 C 0.35675 0.10843 0.05387 0.0
H574 H 0.34895 0.12476 0.04637 0.0
H575 H 0.35395 0.17893 0.01439 0.0
O576 O 0.45 0.15592 0.1112 0.0
C577 C 0.40365 0.19879 0.07043 0.0
Co578 Co 0.43892 0.84311 0.90842 0.0
Co579 Co 0.40385 0.84128 0.95035 0.0
C580 C 0.45774 0.84747 0.95594 0.0
O581 O 0.46216 0.8485 0.93388 0.0
O582 O 0.43672 0.84433 0.96329 0.0
C583 C 0.46603 0.82659 0.86985 0.0
O584 O 0.47018 0.80831 0.88354 0.0
C585 C 0.38979 0.86736 0.99128 0.0
C586 C 0.3641 0.84445 0.00961 0.0
C587 C 0.37713 0.86517 0.01224 0.0
N588 N 0.38496 0.84868 0.97733 0.0
N589 N 0.36927 0.83516 0.98816 0.0
C590 C 0.4067 0.88665 0.98446 0.0
H591 H 0.40708 0.88895 0.96501 0.0
H592 H 0.4018 0.90367 0.99302 0.0
H593 H 0.42479 0.88177 0.98999 0.0
C594 C 0.40884 0.88265 0.89402 0.0
N595 N 0.41423 0.86502 0.90897 0.0
N596 N 0.39829 0.86379 0.9258 0.0
C597 C 0.38183 0.88059 0.92183 0.0
C598 C 0.38798 0.89306 0.90149 0.0
C599 C 0.42454 0.89044 0.87414 0.0
H600 H 0.42085 0.87935 0.8583 0.0
H601 H 0.4433 0.88803 0.87912 0.0
H602 H 0.42161 0.9093 0.86957 0.0
O603 O 0.4269 0.81116 0.91037 0.0
O604 O 0.39978 0.80785 0.9384 0.0
H605 H 0.35469 0.86748 0.94494 0.0
H606 H 0.34598 0.89228 0.9265 0.0
C607 C 0.36055 0.88446 0.93701 0.0
H608 H 0.36507 0.89692 0.95154 0.0
H609 H 0.36314 0.819 0.98156 0.0
O610 O 0.45397 0.84383 0.87766 0.0
C611 C 0.41199 0.79884 0.9216 0.0
Co612 Co 0.15514 0.44076 0.91574 0.0
Co613 Co 0.15464 0.40451 0.95693 0.0
C614 C 0.15001 0.45796 0.96459 0.0
O615 O 0.15022 0.46244 0.94254 0.0
O616 O 0.15209 0.43678 0.9721 0.0
C617 C 0.17308 0.4718 0.88144 0.0
O618 O 0.19065 0.47407 0.89644 0.0
C619 C 0.1306 0.38473 -0.00221 0.0
C620 C 0.15332 0.35498 0.00852 0.0
C621 C 0.13328 0.36746 0.01503 0.0
N622 N 0.14804 0.38245 0.98181 0.0
N623 N 0.16138 0.36437 0.98809 0.0
C624 C 0.11361 0.40501 -0.00197 0.0
H625 H 0.11789 0.41704 0.01301 0.0
H626 H 0.11436 0.41493 0.98114 0.0
H627 H 0.09533 0.39853 0.00052 0.0
C628 C 0.11466 0.41305 0.89975 0.0
N629 N 0.13258 0.41666 0.91483 0.0
N630 N 0.13174 0.40095 0.93196 0.0
C631 C 0.11284 0.38671 0.92821 0.0
C632 C 0.10127 0.39413 0.90778 0.0
C633 C 0.11019 0.42812 0.87842 0.0
H634 H 0.12644 0.42904 0.86752 0.0
H635 H 0.10582 0.44639 0.88421 0.0
H636 H 0.09567 0.42096 0.86732 0.0
O637 O 0.18606 0.42782 0.91672 0.0
O638 O 0.18815 0.40066 0.94475 0.0
H639 H 0.12013 0.35837 0.95237 0.0
H640 H 0.09297 0.35494 0.9359 0.0
C641 C 0.10474 0.36783 0.9449 0.0
H642 H 0.09476 0.37612 0.95962 0.0
H643 H 0.1766 0.35917 0.9791 0.0
O644 O 0.15547 0.45886 0.88672 0.0
C645 C 0.19764 0.41246 0.92793 0.0
Co646 Co 0.54871 0.15442 0.92176 0.0
Co647 Co 0.58375 0.15553 0.96413 0.0
C648 C 0.5299 0.15061 0.96991 0.0
O649 O 0.52608 0.15011 0.9477 0.0
O650 O 0.55084 0.15289 0.97804 0.0
C651 C 0.52215 0.17147 0.88317 0.0
O652 O 0.51889 0.19025 0.89654 0.0
C653 C 0.6032 0.13139 0.00514 0.0
C654 C 0.63745 0.14912 0.01118 0.0
C655 C 0.62321 0.13089 0.01943 0.0
N656 N 0.6058 0.14869 0.98902 0.0
N657 N 0.62634 0.15921 0.99265 0.0
C658 C 0.5808 0.11746 0.00765 0.0
H659 H 0.56706 0.12925 0.0151 0.0
H660 H 0.57471 0.1115 0.98992 0.0
H661 H 0.58237 0.10208 0.01956 0.0
C662 C 0.57801 0.11472 0.90689 0.0
N663 N 0.5727 0.13203 0.92233 0.0
N664 N 0.58834 0.13252 0.93948 0.0
C665 C 0.60444 0.11536 0.93528 0.0
C666 C 0.59848 0.1037 0.91436 0.0
C667 C 0.56277 0.10807 0.88623 0.0
H668 H 0.56631 0.12045 0.8714 0.0
H669 H 0.54391 0.10961 0.89118 0.0
H670 H 0.56622 0.08969 0.88017 0.0
O671 O 0.56155 0.18582 0.92288 0.0
O672 O 0.58784 0.18897 0.95163 0.0
H673 H 0.63393 0.12764 0.95561 0.0
H674 H 0.63853 0.09936 0.94123 0.0
C675 C 0.62547 0.11066 0.95053 0.0
H676 H 0.61967 0.10151 0.9669 0.0
H677 H 0.63278 0.17322 0.98249 0.0
O678 O 0.53315 0.1537 0.89127 0.0
C679 C 0.57644 0.19796 0.93431 0.0
Co680 Co 0.83784 0.55107 0.90578 0.0
Co681 Co 0.83827 0.58791 0.94674 0.0
C682 C 0.84205 0.53393 0.95379 0.0
O683 O 0.84269 0.52857 0.93194 0.0
O684 O 0.83988 0.55538 0.96034 0.0
C685 C 0.81764 0.52045 0.87314 0.0
O686 O 0.80158 0.51919 0.88988 0.0
C687 C 0.8654 0.60086 0.98738 0.0
C688 C 0.843 0.62613 0.00685 0.0
C689 C 0.86328 0.61254 0.009 0.0
N690 N 0.84703 0.6067 0.97357 0.0
N691 N 0.83384 0.62214 0.98512 0.0
C692 C 0.88418 0.58375 0.97986 0.0
H693 H 0.8864 0.58393 0.9604 0.0
H694 H 0.90125 0.58812 0.98846 0.0
H695 H 0.87893 0.5655 0.98483 0.0
C696 C 0.87839 0.57958 0.88968 0.0
N697 N 0.86079 0.57511 0.90497 0.0
N698 N 0.86036 0.59164 0.92141 0.0
C699 C 0.87756 0.60755 0.91681 0.0
C700 C 0.88964 0.60041 0.89654 0.0
C701 C 0.88527 0.56311 0.87004 0.0
H702 H 0.87571 0.56821 0.85368 0.0
H703 H 0.88035 0.54464 0.87456 0.0
H704 H 0.9045 0.56403 0.86653 0.0
O705 O 0.80692 0.56492 0.90834 0.0
O706 O 0.805 0.59302 0.93566 0.0
H707 H 0.8653 0.63572 0.93927 0.0
H708 H 0.88992 0.64353 0.92022 0.0
C709 C 0.882 0.62935 0.93127 0.0
H710 H 0.89448 0.62513 0.94578 0.0
H711 H 0.81781 0.62867 0.97888 0.0
O712 O 0.83578 0.53339 0.87627 0.0
C713 C 0.79538 0.58063 0.91931 0.0
Co714 Co 0.55053 0.84031 0.07333 0.0
Co715 Co 0.5869 0.83759 0.0325 0.0
C716 C 0.53366 0.8457 0.02487 0.0
O717 O 0.52879 0.84643 0.04688 0.0
O718 O 0.55473 0.84205 0.0178 0.0
C719 C 0.5234 0.82399 0.11223 0.0
O720 O 0.51924 0.8052 0.09912 0.0
C721 C 0.60767 0.86289 0.99347 0.0
C722 C 0.63287 0.83756 0.97794 0.0
C723 C 0.62292 0.85974 0.9745 0.0
N724 N 0.6086 0.84365 0.00738 0.0
N725 N 0.62405 0.8287 -0.00172 0.0
C726 C 0.59011 0.88242 0.99679 0.0
H727 H 0.57875 0.88384 0.98084 0.0
H728 H 0.57905 0.87935 0.01268 0.0
H729 H 0.59945 0.89952 -0.0008 0.0
C730 C 0.58176 0.87821 0.08968 0.0
N731 N 0.57596 0.86136 0.07389 0.0
N732 N 0.59238 0.85985 0.05755 0.0
C733 C 0.60957 0.8757 0.06273 0.0
C734 C 0.60344 0.88773 0.08341 0.0
C735 C 0.56593 0.88602 0.10945 0.0
H736 H 0.56842 0.87409 0.12483 0.0
H737 H 0.54723 0.88493 0.10379 0.0
H738 H 0.56984 0.90448 0.11503 0.0
O739 O 0.56141 0.80803 0.07183 0.0
O740 O 0.58884 0.80393 0.04427 0.0
H741 H 0.63736 0.86146 0.04115 0.0
H742 H 0.6461 0.88608 0.05996 0.0
C743 C 0.63177 0.8787 0.04873 0.0
H744 H 0.62848 0.89118 0.03397 0.0
H745 H 0.62755 0.81194 0.00518 0.0
O746 O 0.53473 0.84143 0.10373 0.0
C747 C 0.57608 0.79527 0.06082 0.0
Co748 Co 0.14937 0.55464 0.07962 0.0
Co749 Co 0.15196 0.59003 0.03778 0.0
C750 C 0.14681 0.53604 0.03154 0.0
O751 O 0.14533 0.53183 0.05361 0.0
O752 O 0.14973 0.55712 0.02396 0.0
C753 C 0.16615 0.52655 0.11641 0.0
O754 O 0.18364 0.52296 0.10159 0.0
C755 C 0.12825 0.60825 0.99636 0.0
C756 C 0.15319 0.6346 0.98202 0.0
C757 C 0.13197 0.62323 0.97726 0.0
N758 N 0.14627 0.6107 0.01164 0.0
N759 N 0.16095 0.62682 0.0032 0.0
C760 C 0.10961 0.58953 -0.00139 0.0
H761 H 0.1106 0.57723 0.98326 0.0
H762 H 0.11163 0.57952 0.01534 0.0
H763 H 0.09192 0.59781 -0.00142 0.0
C764 C 0.10951 0.58424 0.09344 0.0
N765 N 0.12731 0.57905 0.07867 0.0
N766 N 0.12841 0.59489 0.06168 0.0
C767 C 0.11119 0.61102 0.06534 0.0
C768 C 0.09878 0.60485 0.08572 0.0
C769 C 0.10202 0.56863 0.11352 0.0
H770 H 0.11319 0.57254 0.1292 0.0
H771 H 0.10452 0.54976 0.10863 0.0
H772 H 0.08326 0.57148 0.11829 0.0
O773 O 0.18085 0.56716 0.07895 0.0
O774 O 0.18485 0.59415 0.05097 0.0
H775 H 0.12394 0.63905 0.04308 0.0
H776 H 0.09772 0.64629 0.06002 0.0
C777 C 0.10697 0.63214 0.05001 0.0
H778 H 0.09577 0.62683 0.03479 0.0
H779 H 0.1769 0.63149 0.01119 0.0
O780 O 0.14854 0.53879 0.10998 0.0
C781 C 0.19336 0.58216 0.06811 0.0
Co782 Co 0.8353 0.44898 0.07635 0.0
Co783 Co 0.83408 0.40902 0.03871 0.0
C784 C 0.83964 0.46164 0.02647 0.0
O785 O 0.84053 0.46812 0.04802 0.0
O786 O 0.8365 0.43994 0.02097 0.0
C787 C 0.82311 0.46454 0.12239 0.0
O788 O 0.81324 0.44362 0.12479 0.0
C789 C 0.85778 0.38704 -0.00087 0.0
C790 C 0.83355 0.35848 0.98801 0.0
C791 C 0.85427 0.37002 0.98171 0.0
N792 N 0.84017 0.38555 0.015 0.0
N793 N 0.82592 0.36814 0.00852 0.0
C794 C 0.87553 0.40675 -0.00116 0.0
H795 H 0.87202 0.41853 0.98353 0.0
H796 H 0.87483 0.41715 0.01551 0.0
H797 H 0.89357 0.39955 0.99682 0.0
C798 C 0.87582 0.42198 0.09394 0.0
N799 N 0.85762 0.42468 0.079 0.0
N800 N 0.85751 0.40733 0.0634 0.0
C801 C 0.87584 0.39279 0.06817 0.0
C802 C 0.88821 0.40177 0.08757 0.0
C803 C 0.88105 0.43868 0.11394 0.0
H804 H 0.86571 0.43908 0.12606 0.0
H805 H 0.88361 0.45683 0.10687 0.0
H806 H 0.89674 0.4333 0.12429 0.0
O807 O 0.8039 0.4366 0.07623 0.0
O808 O 0.80095 0.40595 0.05203 0.0
H809 H 0.86646 0.36278 0.04668 0.0
H810 H 0.89333 0.35911 0.06352 0.0
C811 C 0.88251 0.37184 0.05335 0.0
H812 H 0.89307 0.37796 0.03799 0.0
H813 H 0.81026 0.36383 0.01724 0.0
O814 O 0.83487 0.46955 0.10387 0.0
C815 C 0.79188 0.42001 0.06728 0.0
Co816 Co 0.57787 0.94676 0.65137 0.0
Co817 Co 0.53833 0.90932 0.65508 0.0
C818 C 0.52944 0.96252 0.64725 0.0
O819 O 0.55116 0.96782 0.64555 0.0
O820 O 0.52292 0.94128 0.65138 0.0
C821 C 0.6259 0.95647 0.65995 0.0
O822 O 0.62715 0.93451 0.66743 0.0
C823 C 0.49814 0.8884 0.63188 0.0
C824 C 0.48426 0.86301 0.65807 0.0
C825 C 0.47936 0.87323 0.63628 0.0
N826 N 0.51333 0.88719 0.65008 0.0
N827 N 0.50522 0.8716 0.66551 0.0
C828 C 0.5 0.90638 0.61249 0.0
H829 H 0.48459 0.91846 0.61316 0.0
H830 H 0.51655 0.91675 0.614 0.0
H831 H 0.49996 0.89739 0.59502 0.0
C832 C 0.5936 0.91605 0.61242 0.0
N833 N 0.57873 0.9212 0.63021 0.0
N834 N 0.56252 0.9046 0.63183 0.0
C835 C 0.56682 0.88802 0.61506 0.0
C836 C 0.58677 0.8947 0.60232 0.0
C837 C 0.61278 0.93229 0.60404 0.0
H838 H 0.62926 0.9282 0.61375 0.0
H839 H 0.60798 0.951 0.60754 0.0
H840 H 0.6161 0.92996 0.5848 0.0
O841 O 0.57701 0.93637 0.68368 0.0
O842 O 0.55128 0.90728 0.68827 0.0
H843 H 0.54576 0.85951 0.62878 0.0
H844 H 0.56303 0.85201 0.60277 0.0
C845 C 0.55245 0.86605 0.61153 0.0
H846 H 0.53716 0.87018 0.60003 0.0
H847 H 0.51316 0.868 0.68177 0.0
O848 O 0.60697 0.96443 0.65095 0.0
C849 C 0.56709 0.92112 0.69665 0.0
Co850 Co 0.05656 0.57242 0.65097 0.0
Co851 Co 0.08941 0.52913 0.65244 0.0
C852 C 0.03681 0.52437 0.64313 0.0
O853 O 0.03413 0.54671 0.64302 0.0
O854 O 0.05703 0.51535 0.64694 0.0
C855 C 0.02896 0.60748 0.63114 0.0
O856 O 0.03032 0.59383 0.6123 0.0
C857 C 0.11009 0.4883 0.62928 0.0
C858 C 0.13824 0.47706 0.65373 0.0
C859 C 0.12728 0.47117 0.63254 0.0
N860 N 0.11104 0.50369 0.64745 0.0
N861 N 0.12813 0.4971 0.66188 0.0
C862 C 0.09124 0.48871 0.61068 0.0
H863 H 0.07897 0.47363 0.61349 0.0
H864 H 0.08134 0.50559 0.6113 0.0
H865 H 0.09898 0.48692 0.59278 0.0
C866 C 0.09251 0.59009 0.61707 0.0
N867 N 0.08374 0.57347 0.63175 0.0
N868 N 0.09693 0.55439 0.63065 0.0
C869 C 0.1138 0.55791 0.61402 0.0
C870 C 0.11151 0.58065 0.60483 0.0
C871 C 0.08253 0.6145 0.61433 0.0
H872 H 0.07434 0.62042 0.63109 0.0
H873 H 0.06939 0.61451 0.59979 0.0
H874 H 0.09628 0.62763 0.60985 0.0
O875 O 0.06526 0.57016 0.68342 0.0
O876 O 0.09057 0.54058 0.68671 0.0
H877 H 0.13972 0.53184 0.62287 0.0
H878 H 0.14612 0.54835 0.5962 0.0
C879 C 0.13191 0.54006 0.6069 0.0
H880 H 0.12338 0.526 0.59615 0.0
H881 H 0.13233 0.50577 0.67768 0.0
O882 O 0.03922 0.60158 0.65002 0.0
C883 C 0.07877 0.55758 0.69591 0.0
Co884 Co 0.41123 0.05346 0.65217 0.0
Co885 Co 0.45106 0.0907 0.65404 0.0
C886 C 0.45956 0.03722 0.64782 0.0
O887 O 0.43778 0.03198 0.64682 0.0
O888 O 0.46626 0.05857 0.6511 0.0
C889 C 0.36306 0.04386 0.66101 0.0
O890 O 0.36152 0.06608 0.66775 0.0
C891 C 0.4914 0.11022 0.62987 0.0
C892 C 0.50555 0.13661 0.65503 0.0
C893 C 0.51033 0.12539 0.63365 0.0
N894 N 0.47623 0.11239 0.64804 0.0
N895 N 0.48452 0.12855 0.66283 0.0
C896 C 0.48934 0.09143 0.61118 0.0
H897 H 0.50455 0.07916 0.6124 0.0
H898 H 0.47262 0.08141 0.61301 0.0
H899 H 0.4896 0.09963 0.59337 0.0
C900 C 0.39575 0.08211 0.61169 0.0
N901 N 0.41039 0.078 0.62992 0.0
N902 N 0.42672 0.09454 0.63072 0.0
C903 C 0.4227 0.11007 0.61297 0.0
C904 C 0.40285 0.10271 0.60039 0.0
C905 C 0.37668 0.06538 0.60397 0.0
H906 H 0.36009 0.07003 0.61326 0.0
H907 H 0.38143 0.04691 0.60853 0.0
H908 H 0.37359 0.06655 0.5846 0.0
O909 O 0.41227 0.06529 0.68406 0.0
O910 O 0.43851 0.09407 0.68743 0.0
H911 H 0.44427 0.139 0.62505 0.0
H912 H 0.42689 0.14525 0.59882 0.0
C913 C 0.43736 0.13159 0.60821 0.0
H914 H 0.45249 0.12661 0.59681 0.0
H915 H 0.47664 0.13293 0.67896 0.0
O916 O 0.38215 0.03578 0.65245 0.0
C917 C 0.42251 0.08089 0.69642 0.0
Co918 Co 0.93432 0.41519 0.6529 0.0
Co919 Co 0.90207 0.45885 0.65608 0.0
C920 C 0.95412 0.46352 0.64517 0.0
O921 O 0.9566 0.44114 0.64487 0.0
O922 O 0.93412 0.4727 0.64969 0.0
C923 C 0.95975 0.38159 0.62899 0.0
O924 O 0.95604 0.39631 0.61139 0.0
C925 C 0.88074 0.50081 0.63582 0.0
C926 C 0.85264 0.51014 0.66123 0.0
C927 C 0.86331 0.51744 0.64036 0.0
N928 N 0.88018 0.48435 0.65296 0.0
N929 N 0.86312 0.48982 0.66796 0.0
C930 C 0.89946 0.50183 0.61709 0.0
H931 H 0.91228 0.51604 0.62158 0.0
H932 H 0.90877 0.48466 0.61569 0.0
H933 H 0.8918 0.50591 0.59956 0.0
C934 C 0.89696 0.39861 0.61973 0.0
N935 N 0.90637 0.41479 0.6346 0.0
N936 N 0.89385 0.43432 0.63376 0.0
C937 C 0.87702 0.43162 0.61694 0.0
C938 C 0.87852 0.4089 0.60741 0.0
C939 C 0.90552 0.37364 0.61707 0.0
H940 H 0.91481 0.36785 0.63325 0.0
H941 H 0.91722 0.37233 0.60138 0.0
H942 H 0.89064 0.36125 0.61431 0.0
O943 O 0.92699 0.41638 0.68583 0.0
O944 O 0.90208 0.44629 0.68994 0.0
H945 H 0.85167 0.45828 0.62577 0.0
H946 H 0.84576 0.44287 0.59828 0.0
C947 C 0.85982 0.45032 0.6098 0.0
H948 H 0.86924 0.46441 0.59994 0.0
H949 H 0.85919 0.48014 0.6832 0.0
O950 O 0.9517 0.38621 0.6493 0.0
C951 C 0.91387 0.42909 0.69871 0.0
Co952 Co 0.57933 0.0489 0.34429 0.0
Co953 Co 0.53918 0.08531 0.3393 0.0
C954 C 0.53128 0.0323 0.34951 0.0
O955 O 0.55308 0.02745 0.35129 0.0
O956 O 0.52448 0.0532 0.34444 0.0
C957 C 0.62745 0.04046 0.33561 0.0
O958 O 0.62799 0.06215 0.3273 0.0
C959 C 0.49845 0.10578 0.36191 0.0
C960 C 0.48409 0.13002 0.335 0.0
C961 C 0.47933 0.12028 0.35706 0.0
N962 N 0.51367 0.1069 0.34369 0.0
N963 N 0.50525 0.12181 0.32782 0.0
C964 C 0.50075 0.0885 0.38188 0.0
H965 H 0.4856 0.07601 0.38169 0.0
H966 H 0.51752 0.07856 0.38066 0.0
H967 H 0.50061 0.09805 0.39904 0.0
C968 C 0.59442 0.08118 0.38221 0.0
N969 N 0.57984 0.0753 0.36439 0.0
N970 N 0.56332 0.09145 0.36228 0.0
C971 C 0.56713 0.10847 0.37876 0.0
C972 C 0.58706 0.10254 0.39183 0.0
C973 C 0.61362 0.06545 0.39126 0.0
H974 H 0.63019 0.06953 0.38163 0.0
H975 H 0.60904 0.04659 0.38819 0.0
H976 H 0.61668 0.06831 0.41047 0.0
O977 O 0.57806 0.05778 0.31155 0.0
O978 O 0.55199 0.0862 0.30589 0.0
H979 H 0.54524 0.13598 0.36458 0.0
H980 H 0.56236 0.14453 0.3904 0.0
C981 C 0.55215 0.12999 0.38193 0.0
H982 H 0.53701 0.12557 0.39356 0.0
H983 H 0.51315 0.12518 0.31147 0.0
O984 O 0.60886 0.03218 0.34513 0.0
C985 C 0.5679 0.07226 0.29799 0.0
Co986 Co 0.93976 0.58499 0.33963 0.0
Co987 Co 0.90402 0.54346 0.34058 0.0
C988 C 0.95762 0.53728 0.34618 0.0
O989 O 0.96243 0.55928 0.34605 0.0
O990 O 0.93647 0.53015 0.34369 0.0
C991 C 0.96952 0.62085 0.32137 0.0
O992 O 0.97255 0.60621 0.30351 0.0
C993 C 0.89075 0.5034 0.36823 0.0
C994 C 0.864 0.48449 0.34703 0.0
C995 C 0.87788 0.48246 0.36721 0.0
N996 N 0.8852 0.51681 0.34944 0.0
N997 N 0.86891 0.50561 0.33693 0.0
C998 C 0.90845 0.51072 0.38662 0.0
H999 H 0.90959 0.53025 0.38791 0.0
H1000 H 0.90378 0.5032 0.40416 0.0
H1001 H 0.92619 0.50433 0.38152 0.0
C1002 C 0.91092 0.60169 0.37943 0.0
N1003 N 0.91517 0.58623 0.36184 0.0
N1004 N 0.89923 0.56929 0.36222 0.0
C1005 C 0.88406 0.57365 0.38022 0.0
C1006 C 0.89123 0.59417 0.39197 0.0
C1007 C 0.92591 0.62307 0.38424 0.0
H1008 H 0.92701 0.63398 0.36797 0.0
H1009 H 0.94405 0.61734 0.38881 0.0
H1010 H 0.91863 0.63415 0.39874 0.0
O1011 O 0.92753 0.58169 0.30809 0.0
O1012 O 0.90026 0.55357 0.30645 0.0
H1013 H 0.84948 0.5677 0.39492 0.0
H1014 H 0.87072 0.54516 0.40124 0.0
C1015 C 0.86437 0.55747 0.38737 0.0
H1016 H 0.85803 0.54708 0.37196 0.0
H1017 H 0.86215 0.51172 0.32089 0.0
O1018 O 0.9566 0.61478 0.33873 0.0
C1019 C 0.91251 0.56981 0.29649 0.0
Co1020 Co 0.41395 0.94029 0.34555 0.0
Co1021 Co 0.45406 0.90359 0.34279 0.0
C1022 C 0.46193 0.95697 0.35116 0.0
O1023 O 0.44011 0.96194 0.35238 0.0
O1024 O 0.46877 0.93585 0.34705 0.0
C1025 C 0.36611 0.94852 0.33527 0.0
O1026 O 0.36573 0.92653 0.32763 0.0
C1027 C 0.49449 0.88386 0.36645 0.0
C1028 C 0.50889 0.85852 0.34044 0.0
C1029 C 0.51361 0.86916 0.36214 0.0
N1030 N 0.47934 0.88203 0.34824 0.0
N1031 N 0.48777 0.86646 0.33294 0.0
C1032 C 0.49219 0.90197 0.38575 0.0
H1033 H 0.50729 0.91451 0.38502 0.0
H1034 H 0.47537 0.91179 0.38421 0.0
H1035 H 0.49242 0.89317 0.40327 0.0
C1036 C 0.39785 0.90966 0.38426 0.0
N1037 N 0.41285 0.91471 0.36655 0.0
N1038 N 0.42936 0.89846 0.36545 0.0
C1039 C 0.42514 0.88221 0.3825 0.0
C1040 C 0.40492 0.88874 0.39489 0.0
C1041 C 0.37853 0.92586 0.39227 0.0
H1042 H 0.36215 0.92142 0.38246 0.0
H1043 H 0.38327 0.94455 0.38856 0.0
H1044 H 0.37505 0.92389 0.41151 0.0
O1045 O 0.41617 0.93023 0.31317 0.0
O1046 O 0.44221 0.9015 0.30914 0.0
H1047 H 0.44726 0.85403 0.36995 0.0
H1048 H 0.42975 0.84679 0.39589 0.0
C1049 C 0.44008 0.86089 0.3869 0.0
H1050 H 0.45505 0.86594 0.39851 0.0
H1051 H 0.47992 0.86248 0.31669 0.0
O1052 O 0.38446 0.95709 0.34503 0.0
C1053 C 0.42668 0.91527 0.30035 0.0
Co1054 Co 0.04875 0.41863 0.34416 0.0
Co1055 Co 0.08547 0.45911 0.34055 0.0
C1056 C 0.03206 0.46702 0.34753 0.0
O1057 O 0.02691 0.44515 0.34934 0.0
O1058 O 0.05322 0.47365 0.34367 0.0
C1059 C 0.02065 0.38038 0.32855 0.0
O1060 O 0.01569 0.39418 0.31055 0.0
C1061 C 0.1038 0.49915 0.36599 0.0
C1062 C 0.12744 0.51683 0.34053 0.0
C1063 C 0.11713 0.51951 0.36271 0.0
N1064 N 0.1061 0.48517 0.34682 0.0
N1065 N 0.12065 0.49559 0.3318 0.0
C1066 C 0.08622 0.49466 0.38532 0.0
H1067 H 0.0737 0.5097 0.38655 0.0
H1068 H 0.07637 0.47798 0.3822 0.0
H1069 H 0.09548 0.49315 0.40253 0.0
C1070 C 0.07962 0.40329 0.38267 0.0
N1071 N 0.07393 0.41869 0.36553 0.0
N1072 N 0.09041 0.43498 0.36377 0.0
C1073 C 0.10746 0.43024 0.37981 0.0
C1074 C 0.10122 0.40985 0.39218 0.0
C1075 C 0.06401 0.38331 0.39042 0.0
H1076 H 0.06657 0.36802 0.3783 0.0
H1077 H 0.04526 0.38877 0.3895 0.0
H1078 H 0.06809 0.37769 0.40878 0.0
O1079 O 0.06015 0.41922 0.31194 0.0
O1080 O 0.0885 0.44583 0.30736 0.0
H1081 H 0.1352 0.45171 0.36526 0.0
H1082 H 0.144 0.43319 0.38996 0.0
C1083 C 0.12967 0.4443 0.38257 0.0
H1084 H 0.12641 0.45921 0.39498 0.0
H1085 H 0.12461 0.48904 0.31496 0.0
O1086 O 0.03291 0.38826 0.34565 0.0
C1087 C 0.07535 0.42934 0.29903 0.0
Co1088 Co 0.65296 0.58033 0.94199 0.0
Co1089 Co 0.65272 0.53956 0.9052 0.0
C1090 C 0.64854 0.5315 0.95866 0.0
O1091 O 0.64834 0.55349 0.96352 0.0
O1092 O 0.65075 0.52434 0.93734 0.0
C1093 C 0.67004 0.61466 0.97377 0.0
O1094 O 0.68769 0.59987 0.97634 0.0
C1095 C 0.62832 0.4986 0.88648 0.0
C1096 C 0.65169 0.48565 0.85806 0.0
C1097 C 0.63125 0.48018 0.87045 0.0
N1098 N 0.646 0.51424 0.88361 0.0
N1099 N 0.65973 0.50664 0.86628 0.0
C1100 C 0.61105 0.49963 0.90655 0.0
H1101 H 0.6149 0.48521 0.9193 0.0
H1102 H 0.61196 0.51699 0.91574 0.0
H1103 H 0.59285 0.49702 0.89992 0.0
C1104 C 0.61237 0.59621 0.91452 0.0
N1105 N 0.63024 0.58113 0.91805 0.0
N1106 N 0.62956 0.56416 0.90207 0.0
C1107 C 0.61084 0.568 0.88772 0.0
C1108 C 0.5992 0.58834 0.89536 0.0
C1109 C 0.60796 0.61761 0.92963 0.0
H1110 H 0.62427 0.62846 0.93055 0.0
H1111 H 0.60352 0.61189 0.94789 0.0
H1112 H 0.59354 0.62875 0.92249 0.0
O1113 O 0.68388 0.57982 0.92877 0.0
O1114 O 0.68585 0.55245 0.90075 0.0
H1115 H 0.61869 0.54388 0.85936 0.0
H1116 H 0.59199 0.56085 0.85523 0.0
C1117 C 0.60312 0.55157 0.86838 0.0
H1118 H 0.59255 0.53699 0.87616 0.0
H1119 H 0.6753 0.51502 0.86104 0.0
O1120 O 0.65288 0.60923 0.96033 0.0
C1121 C 0.69535 0.56911 0.91287 0.0
Co1122 Co 0.40454 0.65408 0.93557 0.0
Co1123 Co 0.4469 0.655 0.90105 0.0
C1124 C 0.45135 0.64846 0.95517 0.0
O1125 O 0.42932 0.64805 0.95938 0.0
O1126 O 0.45898 0.65143 0.93416 0.0
C1127 C 0.36686 0.6716 0.96271 0.0
O1128 O 0.38115 0.68959 0.96636 0.0
C1129 C 0.48778 0.62876 0.88777 0.0
C1130 C 0.5068 0.6518 0.86268 0.0
C1131 C 0.50903 0.63109 0.87573 0.0
N1132 N 0.47404 0.64737 0.8826 0.0
N1133 N 0.4853 0.66096 0.86728 0.0
C1134 C 0.48049 0.60937 0.90438 0.0
H1135 H 0.4611 0.60718 0.90441 0.0
H1136 H 0.48897 0.59237 0.89939 0.0
H1137 H 0.48573 0.61404 0.92271 0.0
C1138 C 0.39014 0.61432 0.90538 0.0
N1139 N 0.40497 0.63212 0.91067 0.0
N1140 N 0.42204 0.63294 0.89494 0.0
C1141 C 0.41833 0.61568 0.87873 0.0
C1142 C 0.39793 0.60332 0.88481 0.0
C1143 C 0.3703 0.60667 0.92119 0.0
H1144 H 0.35443 0.61735 0.91705 0.0
H1145 H 0.37505 0.60978 0.94 0.0
H1146 H 0.36601 0.58765 0.91872 0.0
O1147 O 0.40759 0.68599 0.92384 0.0
O1148 O 0.43615 0.68875 0.89726 0.0
H1149 H 0.44241 0.62772 0.8519 0.0
H1150 H 0.42375 0.60299 0.84314 0.0
C1151 C 0.43397 0.61103 0.8579 0.0
H1152 H 0.44801 0.59842 0.86307 0.0
H1153 H 0.47895 0.67713 0.86108 0.0
O1154 O 0.37382 0.65407 0.95047 0.0
C1155 C 0.41947 0.69812 0.90927 0.0
Co1156 Co 0.34169 0.4156 0.94425 0.0
Co1157 Co 0.33866 0.45492 0.90663 0.0
C1158 C 0.34497 0.46445 0.96012 0.0
O1159 O 0.34671 0.44263 0.96537 0.0
O1160 O 0.34141 0.47095 0.93875 0.0
C1161 C 0.33215 0.36767 0.95256 0.0
O1162 O 0.32541 0.36724 0.93032 0.0
C1163 C 0.36109 0.49538 0.88463 0.0
C1164 C 0.33571 0.50614 0.8571 0.0
C1165 C 0.35676 0.51275 0.86783 0.0
N1166 N 0.34355 0.47936 0.88383 0.0
N1167 N 0.32863 0.48561 0.86702 0.0
C1168 C 0.37992 0.49547 0.90324 0.0
H1169 H 0.37887 0.51203 0.91384 0.0
H1170 H 0.37823 0.47987 0.915 0.0
H1171 H 0.39753 0.4948 0.89477 0.0
C1172 C 0.38131 0.39982 0.91485 0.0
N1173 N 0.36344 0.41472 0.9194 0.0
N1174 N 0.36223 0.43083 0.90269 0.0
C1175 C 0.37937 0.42639 0.8866 0.0
C1176 C 0.39191 0.40646 0.89376 0.0
C1177 C 0.3892 0.38077 0.93145 0.0
H1178 H 0.37974 0.3641 0.92708 0.0
H1179 H 0.38511 0.38572 0.95002 0.0
H1180 H 0.40844 0.37756 0.92978 0.0
O1181 O 0.3099 0.4161 0.93308 0.0
O1182 O 0.30575 0.44143 0.90373 0.0
H1183 H 0.36631 0.44672 0.85736 0.0
H1184 H 0.39282 0.42994 0.85104 0.0
C1185 C 0.38338 0.44055 0.86462 0.0
H1186 H 0.3943 0.45628 0.86903 0.0
H1187 H 0.31298 0.4766 0.86321 0.0
O1188 O 0.34135 0.38623 0.96148 0.0
C1189 C 0.29725 0.42561 0.91744 0.0
Co1190 Co 0.57719 0.34354 0.94548 0.0
Co1191 Co 0.53768 0.33984 0.90793 0.0
C1192 C 0.52881 0.34775 0.96123 0.0
O1193 O 0.5505 0.34958 0.96661 0.0
O1194 O 0.52243 0.34357 0.93995 0.0
C1195 C 0.62514 0.33458 0.95498 0.0
O1196 O 0.62629 0.32708 0.93298 0.0
C1197 C 0.49769 0.36386 0.88754 0.0
C1198 C 0.48336 0.33818 0.86178 0.0
C1199 C 0.47884 0.35996 0.87232 0.0
N1200 N 0.51254 0.34539 0.88605 0.0
N1201 N 0.50414 0.33027 0.87026 0.0
C1202 C 0.49998 0.38315 0.90568 0.0
H1203 H 0.48446 0.38287 0.91768 0.0
H1204 H 0.5164 0.38117 0.9161 0.0
H1205 H 0.50052 0.40063 0.89682 0.0
C1206 C 0.59326 0.38232 0.91486 0.0
N1207 N 0.5783 0.36455 0.91993 0.0
N1208 N 0.56217 0.3629 0.90329 0.0
C1209 C 0.56662 0.37963 0.88677 0.0
C1210 C 0.58658 0.3924 0.89353 0.0
C1211 C 0.61232 0.39074 0.93122 0.0
H1212 H 0.60741 0.38719 0.94989 0.0
H1213 H 0.61563 0.41 0.92904 0.0
H1214 H 0.62884 0.38109 0.92712 0.0
O1215 O 0.57583 0.3112 0.93512 0.0
O1216 O 0.55022 0.30635 0.90601 0.0
H1217 H 0.54547 0.36593 0.85829 0.0
H1218 H 0.56304 0.39175 0.85077 0.0
C1219 C 0.55233 0.38316 0.86481 0.0
H1220 H 0.53716 0.39481 0.86895 0.0
H1221 H 0.51179 0.31392 0.86637 0.0
O1222 O 0.60632 0.34372 0.96307 0.0
C1223 C 0.56585 0.29804 0.92002 0.0
Co1224 Co 0.64969 0.41469 0.05245 0.0
Co1225 Co 0.64927 0.45586 0.08893 0.0
C1226 C 0.64581 0.46323 0.0352 0.0
O1227 O 0.64549 0.44121 0.03044 0.0
O1228 O 0.64761 0.4705 0.05653 0.0
C1229 C 0.66937 0.38132 0.0221 0.0
O1230 O 0.68597 0.39751 0.02047 0.0
C1231 C 0.62346 0.49607 0.10706 0.0
C1232 C 0.64702 0.51112 0.13431 0.0
C1233 C 0.62608 0.51522 0.12228 0.0
N1234 N 0.64183 0.48136 0.10999 0.0
N1235 N 0.65567 0.49021 0.12665 0.0
C1236 C 0.60569 0.49343 0.0876 0.0
H1237 H 0.60736 0.50847 0.07508 0.0
H1238 H 0.6081 0.47647 0.07798 0.0
H1239 H 0.58762 0.49373 0.09508 0.0
C1240 C 0.60871 0.39884 0.08011 0.0
N1241 N 0.62649 0.41406 0.07605 0.0
N1242 N 0.62643 0.43084 0.09225 0.0
C1243 C 0.60852 0.42655 0.10748 0.0
C1244 C 0.59671 0.40607 0.10031 0.0
C1245 C 0.60245 0.37881 0.06381 0.0
H1246 H 0.61309 0.36307 0.06859 0.0
H1247 H 0.60663 0.38365 0.04525 0.0
H1248 H 0.58347 0.37417 0.06513 0.0
O1249 O 0.68056 0.41626 0.06621 0.0
O1250 O 0.68263 0.44419 0.09361 0.0
H1251 H 0.6197 0.44866 0.13641 0.0
H1252 H 0.59374 0.43084 0.14244 0.0
C1253 C 0.60317 0.44137 0.1288 0.0
H1254 H 0.59173 0.45635 0.1235 0.0
H1255 H 0.67171 0.48277 0.13173 0.0
O1256 O 0.65118 0.38533 0.03467 0.0
C1257 C 0.69216 0.42747 0.0817 0.0
Co1258 Co 0.56929 0.65016 0.04597 0.0
Co1259 Co 0.53056 0.65421 0.08416 0.0
C1260 C 0.52035 0.64661 0.03101 0.0
O1261 O 0.54201 0.64474 0.0255 0.0
O1262 O 0.5141 0.65073 0.05238 0.0
C1263 C 0.61708 0.65829 0.03752 0.0
O1264 O 0.61738 0.66457 0.05993 0.0
C1265 C 0.49137 0.63098 0.10703 0.0
C1266 C 0.47979 0.65654 0.13423 0.0
C1267 C 0.47409 0.63488 0.124 0.0
N1268 N 0.50654 0.64928 0.10731 0.0
N1269 N 0.49982 0.66435 0.12392 0.0
C1270 C 0.4919 0.61173 0.08871 0.0
H1271 H 0.47534 0.612 0.07823 0.0
H1272 H 0.50729 0.61376 0.07679 0.0
H1273 H 0.49322 0.59423 0.09744 0.0
C1274 C 0.58525 0.611 0.07601 0.0
N1275 N 0.5704 0.62886 0.07122 0.0
N1276 N 0.55466 0.63068 0.08821 0.0
C1277 C 0.55934 0.61402 0.10474 0.0
C1278 C 0.57898 0.60111 0.09755 0.0
C1279 C 0.60399 0.60245 0.05939 0.0
H1280 H 0.62075 0.61178 0.06342 0.0
H1281 H 0.59899 0.60618 0.04079 0.0
H1282 H 0.60694 0.58313 0.06146 0.0
O1283 O 0.56898 0.68236 0.05675 0.0
O1284 O 0.54397 0.68738 0.08628 0.0
H1285 H 0.53964 0.62829 0.13395 0.0
H1286 H 0.55685 0.6022 0.14095 0.0
C1287 C 0.54582 0.61089 0.12727 0.0
H1288 H 0.53024 0.59949 0.12382 0.0
H1289 H 0.50814 0.68051 0.12735 0.0
O1290 O 0.59839 0.64991 0.02823 0.0
C1291 C 0.55967 0.69551 0.07223 0.0
Co1292 Co 0.33741 0.58185 0.05402 0.0
Co1293 Co 0.33448 0.54058 0.08991 0.0
C1294 C 0.34172 0.53366 0.0362 0.0
O1295 O 0.34274 0.55568 0.03163 0.0
O1296 O 0.33817 0.52638 0.05729 0.0
C1297 C 0.32086 0.61825 0.02529 0.0
O1298 O 0.30352 0.60325 0.02149 0.0
C1299 C 0.35817 0.49976 0.10914 0.0
C1300 C 0.33256 0.48503 0.13459 0.0
C1301 C 0.35416 0.48055 0.12391 0.0
N1302 N 0.33993 0.51479 0.11102 0.0
N1303 N 0.32485 0.50615 0.12663 0.0
C1304 C 0.37734 0.50229 0.09103 0.0
H1305 H 0.3769 0.48696 0.07867 0.0
H1306 H 0.37547 0.51902 0.081 0.0
H1307 H 0.39477 0.5025 0.09988 0.0
C1308 C 0.37634 0.59669 0.08456 0.0
N1309 N 0.35879 0.58165 0.07914 0.0
N1310 N 0.35748 0.5649 0.09521 0.0
C1311 C 0.37428 0.56899 0.11172 0.0
C1312 C 0.38665 0.5894 0.10556 0.0
C1313 C 0.38414 0.6165 0.06874 0.0
H1314 H 0.37292 0.63222 0.07212 0.0
H1315 H 0.38201 0.61126 0.04991 0.0
H1316 H 0.40284 0.62136 0.07191 0.0
O1317 O 0.30558 0.58085 0.0656 0.0
O1318 O 0.30133 0.55326 0.09295 0.0
H1319 H 0.3612 0.54679 0.13965 0.0
H1320 H 0.387 0.56426 0.14738 0.0
C1321 C 0.37822 0.55394 0.13311 0.0
H1322 H 0.38977 0.53887 0.12825 0.0
H1323 H 0.30866 0.5139 0.13074 0.0
O1324 O 0.3383 0.61205 0.03791 0.0
C1325 C 0.29288 0.57008 0.08049 0.0
Co1326 Co 0.40947 0.34236 0.05085 0.0
Co1327 Co 0.4489 0.34039 0.0887 0.0
C1328 C 0.45818 0.34592 0.03533 0.0
O1329 O 0.43649 0.34705 0.02986 0.0
O1330 O 0.46455 0.34275 0.05674 0.0
C1331 C 0.37792 0.3236 0.01885 0.0
O1332 O 0.39483 0.30786 0.01675 0.0
C1333 C 0.48926 0.36494 0.10798 0.0
C1334 C 0.50387 0.33976 0.13386 0.0
C1335 C 0.50851 0.36115 0.12267 0.0
N1336 N 0.4741 0.34674 0.11035 0.0
N1337 N 0.48268 0.33194 0.12622 0.0
C1338 C 0.48685 0.38368 0.08939 0.0
H1339 H 0.50223 0.38309 0.07723 0.0
H1340 H 0.4703 0.3814 0.07921 0.0
H1341 H 0.48646 0.4014 0.09786 0.0
C1342 C 0.39345 0.38246 0.07974 0.0
N1343 N 0.40855 0.36474 0.07527 0.0
N1344 N 0.42464 0.36386 0.09202 0.0
C1345 C 0.42006 0.38113 0.10798 0.0
C1346 C 0.40005 0.39342 0.10075 0.0
C1347 C 0.37404 0.38954 0.06325 0.0
H1348 H 0.35808 0.37887 0.06728 0.0
H1349 H 0.37926 0.38595 0.04465 0.0
H1350 H 0.36969 0.40859 0.06521 0.0
O1351 O 0.40963 0.31109 0.06374 0.0
O1352 O 0.43564 0.30723 0.09252 0.0
H1353 H 0.44086 0.36832 0.137 0.0
H1354 H 0.42324 0.39426 0.14375 0.0
C1355 C 0.43409 0.38534 0.13002 0.0
H1356 H 0.44935 0.39691 0.12578 0.0
H1357 H 0.47492 0.31575 0.13061 0.0
O1358 O 0.38086 0.34149 0.03228 0.0
C1359 C 0.41926 0.29865 0.0795 0.0
Co1360 Co 0.9265 0.65806 0.58897 0.0
Co1361 Co 0.89224 0.65763 0.5463 0.0
C1362 C 0.94589 0.65163 0.54151 0.0
O1363 O 0.94978 0.65203 0.56364 0.0
O1364 O 0.92503 0.65402 0.53356 0.0
C1365 C 0.96004 0.67441 0.61898 0.0
O1366 O 0.95938 0.69182 0.60361 0.0
C1367 C 0.87916 0.63146 0.50495 0.0
C1368 C 0.85498 0.65511 0.48572 0.0
C1369 C 0.86793 0.63439 0.48328 0.0
N1370 N 0.87368 0.64978 0.51914 0.0
N1371 N 0.85885 0.6637 0.50774 0.0
C1372 C 0.89551 0.61192 0.51213 0.0
H1373 H 0.89492 0.60924 0.53154 0.0
H1374 H 0.89083 0.59516 0.50291 0.0
H1375 H 0.9139 0.61672 0.50755 0.0
C1376 C 0.89704 0.61843 0.60442 0.0
N1377 N 0.90212 0.6358 0.58907 0.0
N1378 N 0.88654 0.63591 0.57184 0.0
C1379 C 0.87054 0.61863 0.57604 0.0
C1380 C 0.87665 0.60702 0.59691 0.0
C1381 C 0.91297 0.61151 0.62439 0.0
H1382 H 0.93159 0.61536 0.61975 0.0
H1383 H 0.9113 0.5924 0.62859 0.0
H1384 H 0.90829 0.62199 0.64036 0.0
O1385 O 0.91419 0.68939 0.58615 0.0
O1386 O 0.88863 0.69169 0.55668 0.0
H1387 H 0.84377 0.62979 0.55159 0.0
H1388 H 0.83515 0.60563 0.57099 0.0
C1389 C 0.8498 0.6134 0.56049 0.0
H1390 H 0.855 0.6004 0.5467 0.0
H1391 H 0.85273 0.67986 0.51428 0.0
O1392 O 0.94391 0.65878 0.61838 0.0
C1393 C 0.89997 0.70127 0.57379 0.0
Co1394 Co 0.94199 0.33803 0.41732 0.0
Co1395 Co 0.90854 0.33962 0.46098 0.0
C1396 C 0.9623 0.34286 0.4652 0.0
O1397 O 0.96538 0.34245 0.44286 0.0
O1398 O 0.9416 0.34165 0.47409 0.0
C1399 C 0.96702 0.32058 0.37697 0.0
O1400 O 0.96946 0.30063 0.38861 0.0
C1401 C 0.8906 0.36296 0.50349 0.0
C1402 C 0.85519 0.34728 0.50827 0.0
C1403 C 0.87059 0.36392 0.51775 0.0
N1404 N 0.88696 0.34692 0.48622 0.0
N1405 N 0.86572 0.33766 0.4891 0.0
C1406 C 0.91381 0.37521 0.50708 0.0
H1407 H 0.92646 0.36227 0.51446 0.0
H1408 H 0.9208 0.38133 0.48977 0.0
H1409 H 0.9129 0.39031 0.5195 0.0
C1410 C 0.91406 0.37864 0.4027 0.0
N1411 N 0.91842 0.36096 0.4179 0.0
N1412 N 0.90418 0.36252 0.43619 0.0
C1413 C 0.89039 0.38185 0.43328 0.0
C1414 C 0.89635 0.39274 0.41196 0.0
C1415 C 0.92711 0.38212 0.37987 0.0
H1416 H 0.92609 0.36561 0.36923 0.0
H1417 H 0.94597 0.38578 0.38369 0.0
H1418 H 0.91965 0.39678 0.36923 0.0
O1419 O 0.92882 0.30712 0.4192 0.0
O1420 O 0.90374 0.30582 0.4492 0.0
H1421 H 0.86172 0.37652 0.45736 0.0
H1422 H 0.86278 0.40581 0.44448 0.0
C1423 C 0.87354 0.39103 0.45148 0.0
H1424 H 0.8836 0.39748 0.46705 0.0
H1425 H 0.85843 0.32474 0.47803 0.0
O1426 O 0.95734 0.33832 0.38678 0.0
C1427 C 0.91419 0.29586 0.43173 0.0
Co1428 Co 0.65244 0.94292 0.41499 0.0
Co1429 Co 0.65349 0.90649 0.45595 0.0
C1430 C 0.64856 0.96016 0.46361 0.0
O1431 O 0.64791 0.96476 0.44161 0.0
O1432 O 0.6511 0.93893 0.47089 0.0
C1433 C 0.67142 0.97399 0.38238 0.0
O1434 O 0.68751 0.97601 0.399 0.0
C1435 C 0.6288 0.88711 0.49631 0.0
C1436 C 0.6532 0.86013 0.51017 0.0
C1437 C 0.63207 0.87154 0.515 0.0
N1438 N 0.647 0.88497 0.48121 0.0
N1439 N 0.66134 0.86847 0.48932 0.0
C1440 C 0.61046 0.90606 0.4944 0.0
H1441 H 0.61163 0.91808 0.50996 0.0
H1442 H 0.61266 0.91634 0.47785 0.0
H1443 H 0.59264 0.89797 0.49427 0.0
C1444 C 0.61228 0.91393 0.39943 0.0
N1445 N 0.62991 0.91871 0.41457 0.0
N1446 N 0.63053 0.90251 0.43124 0.0
C1447 C 0.61325 0.88653 0.42697 0.0
C1448 C 0.60114 0.89322 0.4066 0.0
C1449 C 0.60538 0.92994 0.3795 0.0
H1450 H 0.60929 0.94863 0.38418 0.0
H1451 H 0.58634 0.92817 0.37528 0.0
H1452 H 0.6158 0.92523 0.36353 0.0
O1453 O 0.6835 0.9298 0.41598 0.0
O1454 O 0.68665 0.9024 0.4436 0.0
H1455 H 0.6258 0.85786 0.44843 0.0
H1456 H 0.59978 0.85099 0.43107 0.0
C1457 C 0.60889 0.8649 0.44159 0.0
H1458 H 0.59755 0.86966 0.45688 0.0
H1459 H 0.67734 0.86393 0.48141 0.0
O1460 O 0.6535 0.96082 0.38579 0.0
C1461 C 0.69559 0.9145 0.42674 0.0
Co1462 Co 0.03873 0.65238 0.42497 0.0
Co1463 Co 0.07654 0.65426 0.46452 0.0
C1464 C 0.0231 0.64845 0.47393 0.0
O1465 O 0.01793 0.64719 0.45203 0.0
O1466 O 0.04443 0.65163 0.48065 0.0
C1467 C 0.03128 0.66256 0.37724 0.0
O1468 O 0.05374 0.66828 0.37765 0.0
C1469 C 0.098 0.6294 0.50374 0.0
C1470 C 0.13174 0.64808 0.50978 0.0
C1471 C 0.11821 0.62918 0.51774 0.0
N1472 N 0.09978 0.64723 0.48812 0.0
N1473 N 0.12006 0.65827 0.49167 0.0
C1474 C 0.07597 0.61487 0.50634 0.0
H1475 H 0.06324 0.62486 0.51741 0.0
H1476 H 0.06785 0.61191 0.4887 0.0
H1477 H 0.07896 0.59759 0.51488 0.0
C1478 C 0.06787 0.613 0.40779 0.0
N1479 N 0.06311 0.63028 0.42348 0.0
N1480 N 0.0799 0.63131 0.43949 0.0
C1481 C 0.09625 0.61471 0.43416 0.0
C1482 C 0.08919 0.60267 0.41378 0.0
C1483 C 0.0515 0.60558 0.3883 0.0
H1484 H 0.05597 0.61557 0.372 0.0
H1485 H 0.03297 0.60946 0.39321 0.0
H1486 H 0.05328 0.58638 0.38445 0.0
O1487 O 0.05091 0.68398 0.42636 0.0
O1488 O 0.08019 0.68767 0.45185 0.0
H1489 H 0.12631 0.6285 0.45263 0.0
H1490 H 0.1317 0.60101 0.43706 0.0
C1491 C 0.11864 0.61111 0.44765 0.0
H1492 H 0.11472 0.60113 0.4641 0.0
H1493 H 0.12582 0.67284 0.48188 0.0
O1494 O 0.02147 0.65367 0.39546 0.0
C1495 C 0.06669 0.69647 0.43604 0.0
Co1496 Co 0.34044 0.0485 0.41181 0.0
Co1497 Co 0.33908 0.08636 0.45172 0.0
C1498 C 0.34387 0.03297 0.46086 0.0
O1499 O 0.34479 0.02751 0.43904 0.0
O1500 O 0.34124 0.05444 0.46741 0.0
C1501 C 0.32192 0.01623 0.38001 0.0
O1502 O 0.3059 0.01447 0.39674 0.0
C1503 C 0.36325 0.10647 0.49225 0.0
C1504 C 0.33851 0.1335 0.50551 0.0
C1505 C 0.35954 0.12216 0.51087 0.0
N1506 N 0.34537 0.10845 0.47675 0.0
N1507 N 0.33084 0.12499 0.48452 0.0
C1508 C 0.38168 0.08757 0.49077 0.0
H1509 H 0.38046 0.07587 0.5065 0.0
H1510 H 0.37967 0.07695 0.47435 0.0
H1511 H 0.39946 0.09575 0.49062 0.0
C1512 C 0.38064 0.07708 0.39568 0.0
N1513 N 0.36294 0.07278 0.41088 0.0
N1514 N 0.36227 0.0895 0.42713 0.0
C1515 C 0.37959 0.10532 0.42251 0.0
C1516 C 0.39176 0.098 0.40235 0.0
C1517 C 0.38762 0.06044 0.37622 0.0
H1518 H 0.37716 0.06453 0.36014 0.0
H1519 H 0.38381 0.0419 0.38146 0.0
H1520 H 0.40664 0.06215 0.37192 0.0
O1521 O 0.30927 0.06146 0.41225 0.0
O1522 O 0.30603 0.08998 0.43888 0.0
H1523 H 0.36704 0.13458 0.4433 0.0
H1524 H 0.39318 0.14091 0.42591 0.0
C1525 C 0.38396 0.12732 0.43668 0.0
H1526 H 0.39518 0.12291 0.45213 0.0
H1527 H 0.31496 0.12939 0.47631 0.0
O1528 O 0.33968 0.02971 0.38307 0.0
C1529 C 0.29713 0.07716 0.42245 0.0
Co1530 Co 0.06263 0.33316 0.57548 0.0
Co1531 Co 0.09707 0.33339 0.53308 0.0
C1532 C 0.04379 0.3393 0.52741 0.0
O1533 O 0.04036 0.33876 0.54962 0.0
O1534 O 0.0645 0.33704 0.51892 0.0
C1535 C 0.02806 0.31738 0.60439 0.0
O1536 O 0.02778 0.301 0.58781 0.0
C1537 C 0.11514 0.36042 0.49386 0.0
C1538 C 0.14082 0.33664 0.47675 0.0
C1539 C 0.12961 0.35833 0.47414 0.0
N1540 N 0.11772 0.34107 0.50742 0.0
N1541 N 0.13346 0.32707 0.49736 0.0
C1542 C 0.09657 0.37879 0.49806 0.0
H1543 H 0.0837 0.37855 0.48324 0.0
H1544 H 0.0873 0.3757 0.51505 0.0
H1545 H 0.10472 0.39664 0.49876 0.0
C1546 C 0.09172 0.37249 0.59174 0.0
N1547 N 0.08669 0.35539 0.57601 0.0
N1548 N 0.10229 0.35547 0.55879 0.0
C1549 C 0.11824 0.37275 0.56336 0.0
C1550 C 0.1121 0.38399 0.5845 0.0
C1551 C 0.07591 0.3789 0.61203 0.0
H1552 H 0.07992 0.36723 0.62728 0.0
H1553 H 0.05721 0.37613 0.60697 0.0
H1554 H 0.07831 0.39763 0.61751 0.0
O1555 O 0.07511 0.30204 0.57359 0.0
O1556 O 0.10034 0.29915 0.54386 0.0
H1557 H 0.14593 0.36178 0.53983 0.0
H1558 H 0.15331 0.38679 0.55868 0.0
C1559 C 0.13913 0.37822 0.54814 0.0
H1560 H 0.13375 0.39059 0.53392 0.0
H1561 H 0.13806 0.31038 0.50376 0.0
O1562 O 0.0443 0.33288 0.60418 0.0
C1563 C 0.08926 0.28993 0.56133 0.0
Co1564 Co 0.65053 0.05468 0.58017 0.0
Co1565 Co 0.65079 0.09129 0.53938 0.0
C1566 C 0.6475 0.03757 0.53139 0.0
O1567 O 0.64689 0.03288 0.55338 0.0
O1568 O 0.64945 0.05889 0.52418 0.0
C1569 C 0.66953 0.02376 0.61293 0.0
O1570 O 0.68593 0.02207 0.59657 0.0
C1571 C 0.62639 0.11035 0.49872 0.0
C1572 C 0.65035 0.1383 0.48576 0.0
C1573 C 0.62965 0.12627 0.4803 0.0
N1574 N 0.64417 0.11288 0.51424 0.0
N1575 N 0.65823 0.12996 0.50667 0.0
C1576 C 0.60852 0.0908 0.49998 0.0
H1577 H 0.61038 0.07901 0.48432 0.0
H1578 H 0.61061 0.0804 0.51647 0.0
H1579 H 0.59049 0.09831 0.49978 0.0
C1580 C 0.6095 0.08232 0.59565 0.0
N1581 N 0.62727 0.0781 0.58051 0.0
N1582 N 0.62748 0.09434 0.56384 0.0
C1583 C 0.60978 0.10975 0.56812 0.0
C1584 C 0.59784 0.10267 0.58849 0.0
C1585 C 0.60308 0.06616 0.61565 0.0
H1586 H 0.61375 0.07094 0.63143 0.0
H1587 H 0.60707 0.04754 0.61082 0.0
H1588 H 0.5841 0.06763 0.62023 0.0
O1589 O 0.68126 0.06885 0.57972 0.0
O1590 O 0.68357 0.09654 0.55227 0.0
H1591 H 0.62169 0.13896 0.54693 0.0
H1592 H 0.59525 0.1448 0.564 0.0
C1593 C 0.60492 0.13128 0.55354 0.0
H1594 H 0.59395 0.12616 0.53809 0.0
H1595 H 0.67392 0.13492 0.51499 0.0
O1596 O 0.65152 0.03662 0.60925 0.0
C1597 C 0.69282 0.08474 0.56913 0.0
Co1598 Co 0.34065 0.94374 0.58083 0.0
Co1599 Co 0.33915 0.90537 0.54149 0.0
C1600 C 0.34363 0.95869 0.53158 0.0
O1601 O 0.3447 0.96434 0.55334 0.0
O1602 O 0.34097 0.93714 0.52524 0.0
C1603 C 0.32203 0.97619 0.61218 0.0
O1604 O 0.30622 0.97785 0.59527 0.0
C1605 C 0.36363 0.88477 0.50155 0.0
C1606 C 0.33924 0.85713 0.48863 0.0
C1607 C 0.36029 0.86856 0.48331 0.0
N1608 N 0.34555 0.88295 0.51685 0.0
N1609 N 0.33121 0.86606 0.5093 0.0
C1610 C 0.38191 0.90394 0.5028 0.0
H1611 H 0.38084 0.91521 0.48675 0.0
H1612 H 0.37959 0.91496 0.5189 0.0
H1613 H 0.39974 0.89599 0.50339 0.0
C1614 C 0.38101 0.91576 0.59712 0.0
N1615 N 0.36329 0.91979 0.58191 0.0
N1616 N 0.36255 0.90284 0.56591 0.0
C1617 C 0.37986 0.88715 0.57069 0.0
C1618 C 0.39208 0.89481 0.5907 0.0
C1619 C 0.38795 0.93258 0.61647 0.0
H1620 H 0.38418 0.95107 0.61107 0.0
H1621 H 0.40695 0.93096 0.62083 0.0
H1622 H 0.37742 0.92858 0.63255 0.0
O1623 O 0.30965 0.93023 0.58094 0.0
O1624 O 0.30632 0.90121 0.55486 0.0
H1625 H 0.36711 0.85746 0.55053 0.0
H1626 H 0.39327 0.85152 0.56796 0.0
C1627 C 0.38408 0.86488 0.55694 0.0
H1628 H 0.39531 0.86896 0.54138 0.0
H1629 H 0.31528 0.86165 0.51744 0.0
O1630 O 0.33986 0.96285 0.60935 0.0
C1631 C 0.29756 0.91412 0.57126 0.0
C1632 C 0.09258 0.43152 0.25805 0.0
C1633 C 0.07594 0.42219 0.27375 0.0
H1634 H 0.10386 0.43442 0.22219 0.0
C1635 C 0.0586 0.40645 0.26487 0.0
H1636 H 0.10638 0.44329 0.26428 0.0
C1637 C 0.05674 0.40169 0.24067 0.0
C1638 C 0.07243 0.41228 0.22478 0.0
H1639 H 0.04569 0.39846 0.27647 0.0
H1640 H 0.0424 0.39064 0.23436 0.0
C1641 C 0.09101 0.4264 0.23387 0.0
C1642 C 0.56934 0.08391 0.23208 0.0
C1643 C 0.58337 0.06493 0.22377 0.0
H1644 H 0.5532 0.10105 0.26187 0.0
C1645 C 0.594 0.04995 0.24027 0.0
H1646 H 0.56103 0.09608 0.21988 0.0
C1647 C 0.58962 0.05308 0.26443 0.0
C1648 C 0.57433 0.07112 0.2726 0.0
H1649 H 0.60489 0.03528 0.23453 0.0
H1650 H 0.59759 0.04068 0.27665 0.0
C1651 C 0.56474 0.08686 0.25619 0.0
C1652 C 0.93052 0.59301 0.23641 0.0
C1653 C 0.92099 0.57574 0.22141 0.0
H1654 H 0.93441 0.60523 0.27192 0.0
C1655 C 0.9056 0.5585 0.23106 0.0
H1656 H 0.94207 0.60668 0.22954 0.0
C1657 C 0.90138 0.5574 0.25538 0.0
C1658 C 0.91228 0.57363 0.27058 0.0
H1659 H 0.89756 0.54502 0.21999 0.0
H1660 H 0.89064 0.54311 0.26232 0.0
C1661 C 0.92605 0.59208 0.26072 0.0
C1662 C 0.40739 0.93443 0.2655 0.0
C1663 C 0.42156 0.91601 0.27467 0.0
H1664 H 0.39487 0.95253 0.23464 0.0
C1665 C 0.43162 0.89975 0.25898 0.0
H1666 H 0.39908 0.94722 0.27712 0.0
C1667 C 0.42873 0.90264 0.23461 0.0
C1668 C 0.41609 0.92211 0.22538 0.0
H1669 H 0.44229 0.88525 0.26543 0.0
H1670 H 0.4373 0.89004 0.22299 0.0
C1671 C 0.4048 0.93752 0.24111 0.0
C1672 C 0.08923 0.54702 0.73782 0.0
C1673 C 0.07847 0.56235 0.72171 0.0
H1674 H 0.09367 0.53748 0.77405 0.0
C1675 C 0.06511 0.58158 0.73051 0.0
H1676 H 0.09963 0.53216 0.73168 0.0
C1677 C 0.06134 0.58452 0.75476 0.0
C1678 C 0.07107 0.56849 0.77081 0.0
H1679 H 0.05674 0.59401 0.71862 0.0
H1680 H 0.05031 0.59895 0.76083 0.0
C1681 C 0.08565 0.55011 0.76212 0.0
C1682 C 0.42804 0.09681 0.73767 0.0
C1683 C 0.41653 0.08147 0.72197 0.0
H1684 H 0.43442 0.1061 0.7737 0.0
C1685 C 0.40027 0.06481 0.73113 0.0
H1686 H 0.44039 0.10998 0.73123 0.0
C1687 C 0.39709 0.06223 0.75551 0.0
C1688 C 0.40987 0.07643 0.77128 0.0
H1689 H 0.39072 0.05285 0.71953 0.0
H1690 H 0.38549 0.04839 0.76195 0.0
C1691 C 0.4246 0.09445 0.76206 0.0
C1692 C 0.90269 0.43356 0.76464 0.0
C1693 C 0.91909 0.41707 0.77371 0.0
H1694 H 0.88819 0.45045 0.73398 0.0
C1695 C 0.93213 0.40329 0.75782 0.0
H1696 H 0.89211 0.44441 0.77638 0.0
C1697 C 0.92962 0.40669 0.73347 0.0
C1698 C 0.91416 0.42409 0.72444 0.0
H1699 H 0.94478 0.39044 0.76416 0.0
H1700 H 0.94048 0.39612 0.72174 0.0
C1701 C 0.90035 0.43712 0.7403 0.0
C1702 C 0.59092 0.94303 0.75534 0.0
C1703 C 0.58022 0.92736 0.7712 0.0
H1704 H 0.59534 0.95314 0.71931 0.0
C1705 C 0.56771 0.90763 0.76215 0.0
H1706 H 0.60075 0.95825 0.76169 0.0
C1707 C 0.56405 0.90489 0.73786 0.0
C1708 C 0.57328 0.92156 0.72208 0.0
H1709 H 0.55971 0.89479 0.77391 0.0
H1710 H 0.55336 0.89025 0.73155 0.0
C1711 C 0.5876 0.94008 0.73102 0.0
C1712 C 0.23821 0.0574 0.39806 0.0
C1713 C 0.2227 0.07073 0.41191 0.0
H1714 H 0.274 0.04967 0.3899 0.0
C1715 C 0.2319 0.08919 0.42622 0.0
H1716 H 0.23173 0.04337 0.38665 0.0
C1717 C 0.25616 0.09244 0.4287 0.0
C1718 C 0.27173 0.07767 0.41651 0.0
H1719 H 0.22041 0.10034 0.43672 0.0
H1720 H 0.26264 0.10565 0.44106 0.0
C1721 C 0.26249 0.06102 0.40015 0.0
C1722 C 0.92714 0.23651 0.40391 0.0
C1723 C 0.91988 0.22101 0.42174 0.0
H1724 H 0.92969 0.27234 0.39252 0.0
C1725 C 0.90753 0.23018 0.4415 0.0
H1726 H 0.93621 0.22999 0.38832 0.0
C1727 C 0.904 0.25451 0.44417 0.0
C1728 C 0.91256 0.27014 0.42701 0.0
H1729 H 0.90139 0.21864 0.45553 0.0
H1730 H 0.89575 0.26109 0.46019 0.0
C1731 C 0.92326 0.26079 0.40639 0.0
C1732 C 0.76108 0.90512 0.43238 0.0
C1733 C 0.7698 0.92196 0.41604 0.0
H1734 H 0.73071 0.8895 0.44877 0.0
C1735 C 0.75402 0.93288 0.40055 0.0
H1736 H 0.77282 0.8958 0.44423 0.0
C1737 C 0.72987 0.92865 0.4028 0.0
C1738 C 0.721 0.91382 0.42091 0.0
H1739 H 0.76015 0.94555 0.38753 0.0
H1740 H 0.71809 0.93821 0.39116 0.0
C1741 C 0.7369 0.90126 0.43495 0.0
C1742 C 0.04902 0.75467 0.40805 0.0
C1743 C 0.06486 0.77053 0.41854 0.0
H1744 H 0.03735 0.71896 0.40521 0.0
C1745 C 0.08323 0.76146 0.4328 0.0
H1746 H 0.03479 0.76097 0.39694 0.0
C1747 C 0.08449 0.73732 0.4381 0.0
C1748 C 0.06766 0.72169 0.42887 0.0
H1749 H 0.09614 0.77316 0.44077 0.0
H1750 H 0.09815 0.73108 0.44993 0.0
C1751 C 0.05047 0.73053 0.41306 0.0
C1752 C 0.26329 0.92949 0.59451 0.0
C1753 C 0.27245 0.91274 0.57826 0.0
H1754 H 0.23253 0.94573 0.60941 0.0
C1755 C 0.25702 0.89658 0.56764 0.0
H1756 H 0.27473 0.94194 0.60356 0.0
C1757 C 0.23281 0.8984 0.57165 0.0
C1758 C 0.22349 0.91678 0.58591 0.0
H1759 H 0.26348 0.88324 0.55545 0.0
H1760 H 0.22132 0.88616 0.56238 0.0
C1761 C 0.23905 0.93164 0.59812 0.0
C1762 C 0.07188 0.23208 0.58953 0.0
C1763 C 0.07757 0.21593 0.57165 0.0
H1764 H 0.07236 0.26808 0.60078 0.0
C1765 C 0.09069 0.22388 0.55187 0.0
H1766 H 0.06225 0.22647 0.60512 0.0
C1767 C 0.09636 0.24782 0.54915 0.0
C1768 C 0.08922 0.26422 0.56627 0.0
H1769 H 0.0957 0.21179 0.53782 0.0
H1770 H 0.10503 0.2536 0.53305 0.0
C1771 C 0.07787 0.25592 0.58698 0.0
C1772 C 0.75203 0.0699 0.59571 0.0
C1773 C 0.76718 0.08361 0.5818 0.0
H1774 H 0.71656 0.06012 0.60312 0.0
C1775 C 0.75742 0.10063 0.56633 0.0
H1776 H 0.75892 0.05692 0.60798 0.0
C1777 C 0.73309 0.10212 0.56301 0.0
C1778 C 0.71803 0.08697 0.57545 0.0
H1779 H 0.7686 0.11199 0.55572 0.0
H1780 H 0.72623 0.11429 0.54992 0.0
C1781 C 0.72769 0.07172 0.59273 0.0
C1782 C 0.89026 0.74259 0.56142 0.0
C1783 C 0.90018 0.72712 0.57787 0.0
H1784 H 0.88798 0.77804 0.54909 0.0
C1785 C 0.91374 0.73657 0.59672 0.0
H1786 H 0.87973 0.73596 0.54682 0.0
C1787 C 0.91906 0.7607 0.5978 0.0
C1788 C 0.91053 0.77591 0.58035 0.0
H1789 H 0.92137 0.72515 0.61004 0.0
H1790 H 0.93043 0.76724 0.61179 0.0
C1791 C 0.89527 0.76675 0.56271 0.0
C1792 C 0.41771 0.23344 0.09423 0.0
C1793 C 0.40318 0.22446 0.07586 0.0
H1794 H 0.4346 0.26382 0.10964 0.0
C1795 C 0.39138 0.24042 0.06124 0.0
H1796 H 0.4268 0.22166 0.10625 0.0
C1797 C 0.39553 0.26469 0.06368 0.0
C1798 C 0.41196 0.27347 0.08044 0.0
H1799 H 0.37994 0.23418 0.04717 0.0
H1800 H 0.38668 0.27643 0.05148 0.0
C1801 C 0.42227 0.25765 0.09631 0.0
C1802 C 0.4292 0.73933 0.89598 0.0
C1803 C 0.41488 0.72391 0.90895 0.0
H1804 H 0.43899 0.77505 0.88933 0.0
C1805 C 0.39732 0.73353 0.9239 0.0
H1806 H 0.44265 0.73258 0.88414 0.0
C1807 C 0.39557 0.75794 0.92747 0.0
C1808 C 0.411 0.77328 0.91573 0.0
H1809 H 0.38548 0.72219 0.93376 0.0
H1810 H 0.38272 0.76467 0.93997 0.0
C1811 C 0.42712 0.76375 0.89917 0.0
C1812 C 0.26311 0.40385 0.93521 0.0
C1813 C 0.27201 0.41892 0.91729 0.0
H1814 H 0.23257 0.38981 0.9527 0.0
C1815 C 0.25634 0.4285 0.90084 0.0
H1816 H 0.27475 0.39578 0.94806 0.0
C1817 C 0.23217 0.42453 0.90328 0.0
C1818 C 0.22313 0.41129 0.92251 0.0
H1819 H 0.26262 0.43979 0.88667 0.0
H1820 H 0.22049 0.43301 0.89073 0.0
C1821 C 0.2389 0.40019 0.93787 0.0
C1822 C 0.58607 0.26396 0.93958 0.0
C1823 C 0.57164 0.2725 0.92104 0.0
H1824 H 0.59901 0.23373 0.95842 0.0
C1825 C 0.56182 0.25628 0.9051 0.0
H1826 H 0.59427 0.27598 0.95212 0.0
C1827 C 0.56508 0.23202 0.90852 0.0
C1828 C 0.57781 0.22344 0.92826 0.0
H1829 H 0.55098 0.26223 0.89049 0.0
H1830 H 0.55664 0.21997 0.89621 0.0
C1831 C 0.589 0.23969 0.94323 0.0
C1832 C 0.75474 0.59536 0.92829 0.0
C1833 C 0.76981 0.58168 0.9143 0.0
H1834 H 0.71933 0.60258 0.93826 0.0
C1835 C 0.75996 0.5664 0.89702 0.0
H1836 H 0.76169 0.60746 0.94149 0.0
C1837 C 0.73562 0.56304 0.8955 0.0
C1838 C 0.72063 0.57527 0.91088 0.0
H1839 H 0.77108 0.55597 0.88544 0.0
H1840 H 0.72868 0.55012 0.88308 0.0
C1841 C 0.7304 0.59234 0.92645 0.0
C1842 C 0.58646 0.75323 0.05116 0.0
C1843 C 0.57572 0.76964 0.06625 0.0
H1844 H 0.59002 0.71697 0.04145 0.0
C1845 C 0.56193 0.76123 0.08535 0.0
H1846 H 0.59727 0.75905 0.03645 0.0
C1847 C 0.55726 0.73708 0.08803 0.0
C1848 C 0.56666 0.7208 0.07193 0.0
H1849 H 0.55383 0.7734 0.09774 0.0
H1850 H 0.5457 0.73131 0.10218 0.0
C1851 C 0.58208 0.72907 0.05404 0.0
C1852 C 0.25889 0.59348 0.06489 0.0
C1853 C 0.26755 0.5763 0.08085 0.0
H1854 H 0.22868 0.60877 0.04806 0.0
C1855 C 0.25153 0.56402 0.0951 0.0
H1856 H 0.27074 0.60385 0.05405 0.0
C1857 C 0.22735 0.5675 0.09211 0.0
C1858 C 0.21868 0.58287 0.07441 0.0
H1859 H 0.25756 0.55105 0.10781 0.0
H1860 H 0.21549 0.55712 0.10296 0.0
C1861 C 0.23471 0.59654 0.0615 0.0
C1862 C 0.75133 0.40208 0.06464 0.0
C1863 C 0.7667 0.41897 0.07422 0.0
H1864 H 0.71564 0.39096 0.06044 0.0
C1865 C 0.75752 0.43646 0.08965 0.0
H1866 H 0.75782 0.38822 0.05306 0.0
C1867 C 0.73331 0.4383 0.0937 0.0
C1868 C 0.71777 0.42258 0.08259 0.0
H1869 H 0.76888 0.44962 0.09775 0.0
H1870 H 0.72676 0.45285 0.10435 0.0
C1871 C 0.72713 0.40375 0.06895 0.0
C1872 C 0.0094 0.51809 0.14709 0.0
C1873 C 0.98518 0.51256 0.14663 0.0
H1874 H 0.04484 0.5048 0.14789 0.0
C1875 C 0.97836 0.48862 0.14547 0.0
H1876 H 0.01528 0.53635 0.14787 0.0
C1877 C -0.00481 0.47067 0.14557 0.0
C1878 C 0.01939 0.47607 0.14667 0.0
H1879 H 0.95991 0.48361 0.145 0.0
H1880 H 0.98909 0.45247 0.14523 0.0
C1881 C 0.02635 0.50002 0.14705 0.0
C1882 C 0.49907 0.01799 0.14426 0.0
C1883 C 0.52225 0.00912 0.14458 0.0
H1884 H 0.46211 0.01011 0.14563 0.0
C1885 C 0.52549 0.98442 0.14511 0.0
H1886 H 0.49587 0.03689 0.14386 0.0
C1887 C 0.50609 0.96905 0.14611 0.0
C1888 C 0.48293 0.97794 0.14671 0.0
H1889 H 0.54305 0.97692 0.14529 0.0
H1890 H 0.50934 0.95017 0.14698 0.0
C1891 C 0.47967 0.00261 0.14537 0.0
C1892 C -0.00158 0.47124 0.85401 0.0
C1893 C 0.97433 0.47707 0.8533 0.0
H1894 H 0.03404 0.48371 0.85335 0.0
C1895 C 0.96791 0.50111 0.85276 0.0
H1896 H 0.00405 0.45292 0.85451 0.0
C1897 C 0.98519 0.51885 0.85191 0.0
C1898 C 0.00928 0.51293 0.85174 0.0
H1899 H 0.94953 0.50625 0.85222 0.0
H1900 H 0.97965 0.53716 0.85086 0.0
C1901 C 0.01567 0.48894 0.85334 0.0
C1902 C 0.48924 0.97698 0.84648 0.0
C1903 C 0.51278 0.98496 0.84642 0.0
H1904 H 0.45265 0.98627 0.84621 0.0
C1905 C 0.5171 0.00951 0.84708 0.0
H1906 H 0.4852 0.95822 0.84605 0.0
C1907 C 0.49837 0.02564 0.84721 0.0
C1908 C 0.47484 0.01765 0.84662 0.0
H1909 H 0.53497 0.01633 0.84718 0.0
H1910 H 0.5024 0.04441 0.84733 0.0
C1911 C 0.47052 0.9931 0.84655 0.0
C1912 C 0.15062 0.01574 0.50448 0.0
C1913 C 0.15101 0.00803 0.48076 0.0
H1914 H 0.15037 0.00612 0.54107 0.0
C1915 C 0.15064 0.98353 0.47611 0.0
H1916 H 0.15081 0.03445 0.50879 0.0
C1917 C 0.15033 0.96718 0.49476 0.0
C1918 C 0.15043 0.97495 0.51848 0.0
H1919 H 0.15083 0.97695 0.45807 0.0
H1920 H 0.15037 0.94845 0.49055 0.0
C1921 C 0.15036 -0.00056 0.52307 0.0
C1922 C 0.01703 0.13814 0.49152 0.0
C1923 C 0.01081 0.13921 0.5156 0.0
H1924 H 0.00523 0.13847 0.45559 0.0
C1925 C 0.98675 0.13973 0.52172 0.0
H1926 H 0.03536 0.13769 0.48614 0.0
C1927 C 0.96936 0.13992 0.50412 0.0
C1928 C 0.97566 0.13985 0.48002 0.0
H1929 H 0.98133 0.14043 0.54011 0.0
H1930 H 0.95102 0.14088 0.50941 0.0
C1931 C -0.0003 0.13859 0.47396 0.0
C1932 C 0.84234 0.00096 0.52125 0.0
C1933 C 0.84145 0.02515 0.51543 0.0
H1934 H 0.84288 0.96521 0.5088 0.0
C1935 C 0.84114 0.03157 0.49135 0.0
H1936 H 0.84268 0.99531 0.53957 0.0
C1937 C 0.84117 0.01418 0.47356 0.0
C1938 C 0.8416 0.98998 0.47945 0.0
H1939 H 0.84048 0.05003 0.4862 0.0
H1940 H 0.84061 0.01971 0.45521 0.0
C1941 C 0.84247 0.98364 0.50353 0.0
C1942 C 0.96709 0.85117 0.49198 0.0
C1943 C 0.97369 0.84972 0.51594 0.0
H1944 H 0.97835 0.85159 0.45582 0.0
C1945 C -0.00215 0.84874 0.52157 0.0
H1946 H 0.94868 0.85204 0.48695 0.0
C1947 C 0.01494 0.84861 0.50366 0.0
C1948 C 0.00827 0.84929 0.47967 0.0
H1949 H 0.00361 0.84769 0.53983 0.0
H1950 H 0.03335 0.84737 0.50862 0.0
C1951 C 0.98415 0.8509 0.47408 0.0
C1952 C 0.51284 0.15082 0.01109 0.0
C1953 C 0.50947 0.14956 0.98645 0.0
H1954 H 0.49684 0.15231 0.04537 0.0
C1955 C 0.48624 0.14818 0.97768 0.0
H1956 H 0.53039 0.15201 0.01852 0.0
C1957 C 0.4669 0.14856 0.99311 0.0
C1958 C 0.47028 0.1502 0.01772 0.0
H1959 H 0.48292 0.14718 0.95881 0.0
H1960 H 0.44929 0.14776 0.98571 0.0
C1961 C 0.49351 0.15105 0.02651 0.0
C1962 C 0.50099 0.84888 0.96609 0.0
C1963 C 0.47729 0.84886 0.97346 0.0
H1964 H 0.53734 0.84795 0.97642 0.0
C1965 C 0.47239 0.84913 -0.00209 0.0
H1966 H 0.50544 0.84871 0.94743 0.0
C1967 C 0.49067 0.84877 0.01453 0.0
C1968 C 0.51436 0.84799 0.00718 0.0
H1969 H 0.45437 0.84923 0.00429 0.0
H1970 H 0.48616 0.84855 0.03317 0.0
C1971 C 0.51931 0.84839 0.98274 0.0
C1972 C 0.14694 0.47356 0.00627 0.0
C1973 C 0.14792 0.47785 0.98176 0.0
H1974 H 0.14566 0.48845 0.04116 0.0
C1975 C 0.14747 0.50144 0.97378 0.0
H1976 H 0.14716 0.45563 0.01306 0.0
C1977 C 0.14664 0.52028 0.98989 0.0
C1978 C 0.14617 0.51602 0.01442 0.0
H1979 H 0.14812 0.50545 0.95503 0.0
H1980 H 0.14665 0.53821 0.98309 0.0
C1981 C 0.14603 0.49241 0.0224 0.0
C1982 C 0.84402 0.52133 0.99621 0.0
C1983 C 0.84296 0.51513 0.97209 0.0
H1984 H 0.84395 0.50949 0.03209 0.0
C1985 C 0.84183 0.49099 0.9659 0.0
H1986 H 0.845 0.53971 0.00168 0.0
C1987 C 0.84112 0.47352 0.98349 0.0
C1988 C 0.84162 0.47983 0.00762 0.0
H1989 H 0.84101 0.48559 0.94749 0.0
H1990 H 0.83986 0.45511 0.97816 0.0
C1991 C 0.84342 0.50393 0.01372 0.0
C1992 C 0.50159 0.02355 0.64517 0.0
C1993 C 0.4774 0.0181 0.64602 0.0
H1994 H 0.53692 0.01039 0.64467 0.0
C1995 C 0.47045 0.99414 0.64596 0.0
H1996 H 0.50758 0.04179 0.64503 0.0
C1997 C 0.4873 0.97609 0.64583 0.0
C1998 C 0.51151 0.98156 0.64561 0.0
H1999 H 0.45197 0.98928 0.64654 0.0
H2000 H 0.48133 0.95785 0.64625 0.0
C2001 C 0.51843 0.00551 0.64489 0.0
C2002 C 0.97287 0.50383 0.64138 0.0
C2003 C 0.97518 0.47904 0.64194 0.0
H2004 H 0.99033 0.53749 0.641 0.0
C2005 C -0.002 0.46928 0.64092 0.0
H2006 H 0.95562 0.512 0.64201 0.0
C2007 C 0.01799 0.48394 0.64045 0.0
C2008 C 0.0157 0.50874 0.64084 0.0
H2009 H 0.00051 0.45027 0.64125 0.0
H2010 H 0.03527 0.4758 0.6404 0.0
C2011 C 0.99285 0.51848 0.64076 0.0
C2012 C 0.47257 0.00013 0.35294 0.0
C2013 C 0.47965 0.97626 0.35306 0.0
H2014 H 0.48324 0.0365 0.35173 0.0
C2015 C 0.50388 0.97107 0.35363 0.0
H2016 H 0.45406 0.00479 0.35256 0.0
C2017 C 0.52063 0.98928 0.35327 0.0
C2018 C 0.51355 0.01312 0.35215 0.0
H2019 H 0.50996 0.95289 0.35388 0.0
H2020 H 0.53915 0.98461 0.35318 0.0
C2021 C 0.48932 0.01834 0.3524 0.0
C2022 C 0.01856 0.50944 0.34868 0.0
C2023 C 0.01309 0.48509 0.34893 0.0
H2024 H 0.00545 0.545 0.3478 0.0
C2025 C 0.98926 0.47819 0.34954 0.0
H2026 H 0.03673 0.51541 0.34836 0.0
C2027 C 0.97135 0.49515 0.34913 0.0
C2028 C 0.97677 0.51949 0.34826 0.0
H2029 H 0.98437 0.45963 0.34977 0.0
H2030 H 0.95321 0.48909 0.34908 0.0
C2031 C 0.00061 0.52644 0.3484 0.0
C2032 C 0.6464 0.48955 0.97334 0.0
C2033 C 0.64667 0.514 0.97817 0.0
H2034 H 0.64578 0.4544 0.98743 0.0
C2035 C 0.64561 0.52158 0.00192 0.0
H2036 H 0.64708 0.48306 0.95528 0.0
C2037 C 0.64487 0.50513 0.02039 0.0
C2038 C 0.64511 0.48068 0.01558 0.0
H2039 H 0.6457 0.54027 0.00632 0.0
H2040 H 0.6444 0.51162 0.03846 0.0
C2041 C 0.6456 0.47309 0.99182 0.0
C2042 C 0.46137 0.64661 -0.0013 0.0
C2043 C 0.46862 0.64628 0.97485 0.0
H2044 H 0.47193 0.64696 0.03521 0.0
C2045 C 0.49287 0.64482 0.96982 0.0
H2046 H 0.44284 0.64772 0.00322 0.0
C2047 C 0.50946 0.64423 0.98807 0.0
C2048 C 0.50233 0.6453 0.01192 0.0
H2049 H 0.49918 0.64452 0.95172 0.0
H2050 H 0.52796 0.6435 0.98338 0.0
C2051 C 0.47805 0.64621 0.01704 0.0
C2052 C 0.34551 0.4918 0.02163 0.0
C2053 C 0.34404 0.51614 0.01665 0.0
H2054 H 0.3472 0.45655 0.00785 0.0
C2055 C 0.34411 0.52344 0.99282 0.0
H2056 H 0.34567 0.48552 0.03975 0.0
C2057 C 0.34492 0.50675 0.97443 0.0
C2058 C 0.34582 0.48238 0.97944 0.0
H2059 H 0.34305 0.54205 0.98833 0.0
H2060 H 0.3445 0.51296 0.95629 0.0
C2061 C 0.34646 0.47516 0.00328 0.0
C2062 C 0.46956 0.34813 0.99242 0.0
C2063 C 0.47625 0.34782 0.01642 0.0
H2064 H 0.48081 0.34846 0.95623 0.0
C2065 C 0.50037 0.34881 0.02209 0.0
H2066 H 0.45113 0.34748 0.98739 0.0
C2067 C 0.51741 0.3495 0.00418 0.0
C2068 C 0.51073 0.34908 0.98018 0.0
H2069 H 0.50615 0.34878 0.04038 0.0
H2070 H 0.53585 0.34982 0.00919 0.0
C2071 C 0.48659 0.34869 0.97452 0.0
C2072 C 0.96145 0.64725 0.50013 0.0
C2073 C 0.96585 0.6492 0.52456 0.0
H2074 H 0.97582 0.64518 0.46524 0.0
C2075 C 0.98943 0.64968 0.53239 0.0
H2076 H 0.94357 0.64679 0.49339 0.0
C2077 C 0.00811 0.64895 0.51609 0.0
C2078 C 0.00363 0.64753 0.49161 0.0
H2079 H 0.99349 0.65111 0.55108 0.0
H2080 H 0.02602 0.64992 0.52267 0.0
C2081 C 0.98004 0.64632 0.48392 0.0
C2082 C 0.02597 0.34334 0.48671 0.0
C2083 C 0.02312 0.34167 0.51139 0.0
H2084 H 0.00913 0.34525 0.45281 0.0
C2085 C 0.0001 0.34149 0.52074 0.0
H2086 H 0.04342 0.34362 0.47889 0.0
C2087 C 0.98045 0.34231 0.50582 0.0
C2088 C 0.98323 0.34353 0.48111 0.0
H2089 H -0.00284 0.34023 0.53966 0.0
H2090 H 0.96308 0.34149 0.51371 0.0
C2091 C 0.00626 0.3443 0.47175 0.0
C2092 C 0.64638 0.0223 0.48953 0.0
C2093 C 0.64661 0.01779 0.514 0.0
H2094 H 0.6467 0.00777 0.4545 0.0
C2095 C 0.64659 0.9941 0.52175 0.0
H2096 H 0.64627 0.0403 0.48292 0.0
C2097 C 0.64685 0.9754 0.50544 0.0
C2098 C 0.64709 0.97992 0.48097 0.0
H2099 H 0.64671 0.98993 0.54047 0.0
H2100 H 0.64712 0.95741 0.51205 0.0
C2101 C 0.64658 0.0036 0.47322 0.0
C2102 C 0.34499 0.97199 0.48914 0.0
C2103 C 0.34487 0.97762 0.51341 0.0
H2104 H 0.3449 0.98496 0.45356 0.0
C2105 C 0.34535 0.00162 0.52022 0.0
H2106 H 0.34475 0.95371 0.48326 0.0
C2107 C 0.3454 0.01956 0.50319 0.0
C2108 C 0.34506 0.01395 0.47892 0.0
H2109 H 0.34532 0.00663 0.53876 0.0
H2110 H 0.34547 0.03783 0.5091 0.0
C2111 C 0.34513 0.98995 0.4721 0.0
C2112 C 0.14947 0.52042 0.15627 0.0
C2113 C 0.16385 0.51223 0.13777 0.0
H2114 H 0.12497 0.51061 0.18322 0.0
C2115 C 0.17065 0.4884 0.13707 0.0
H2116 H 0.14448 0.53892 0.15732 0.0
C2117 C 0.15927 0.47218 0.15168 0.0
C2118 C 0.14145 0.47996 0.16709 0.0
H2119 H 0.18202 0.48181 0.12311 0.0
H2120 H 0.16199 0.45343 0.14858 0.0
C2121 C 0.13846 0.50425 0.1712 0.0
C2122 C 0.5056 0.13572 0.14744 0.0
C2123 C 0.52128 0.12927 0.12934 0.0
H2124 H 0.47483 0.15582 0.15602 0.0
C2125 C 0.52252 0.14256 0.10852 0.0
H2126 H 0.50476 0.12572 0.16378 0.0
C2127 C 0.50636 0.16058 0.1047 0.0
C2128 C 0.48828 0.16448 0.12123 0.0
H2129 H 0.53496 0.13805 0.09465 0.0
H2130 H 0.50607 0.16909 0.08751 0.0
C2131 C 0.48884 0.15313 0.14324 0.0
C2132 C 0.83245 0.52187 0.1509 0.0
C2133 C 0.8512 0.51527 0.16554 0.0
H2134 H 0.80779 0.50954 0.125 0.0
C2135 C 0.85411 0.49148 0.17194 0.0
H2136 H 0.8301 0.5402 0.14577 0.0
C2137 C 0.84089 0.47401 0.16061 0.0
C2138 C 0.82541 0.48048 0.14247 0.0
H2139 H 0.86862 0.48623 0.18324 0.0
H2140 H 0.84551 0.4556 0.16333 0.0
C2141 C 0.8197 0.50438 0.13907 0.0
C2142 C 0.47323 0.83525 0.152 0.0
C2143 C 0.48361 0.85268 0.16643 0.0
H2144 H 0.47855 0.81141 0.12302 0.0
C2145 C 0.50818 0.85412 0.1682 0.0
H2146 H 0.45421 0.83387 0.15064 0.0
C2147 C 0.52204 0.84168 0.1521 0.0
C2148 C 0.51125 0.8275 0.13472 0.0
H2149 H 0.51646 0.86744 0.1793 0.0
H2150 H 0.54078 0.8454 0.15136 0.0
C2151 C 0.48712 0.82247 0.13619 0.0
C2152 C 0.16305 0.52927 0.85247 0.0
C2153 C 0.14536 0.52193 0.83674 0.0
H2154 H 0.18681 0.51799 0.87959 0.0
C2155 C 0.14364 0.49807 0.83014 0.0
H2156 H 0.16458 0.5477 0.85765 0.0
C2157 C 0.15624 0.48116 0.84259 0.0
C2158 C 0.17043 0.48818 0.86168 0.0
H2159 H 0.13014 0.49225 0.81781 0.0
H2160 H 0.15234 0.46259 0.8395 0.0
C2161 C 0.17571 0.51226 0.86504 0.0
C2162 C 0.51827 0.15379 0.84349 0.0
C2163 C 0.50873 0.16814 0.86141 0.0
H2164 H 0.51081 0.12793 0.81684 0.0
C2165 C 0.48457 0.17318 0.86151 0.0
H2166 H 0.537 0.15 0.84307 0.0
C2167 C 0.46959 0.16027 0.8468 0.0
C2168 C 0.47891 0.14277 0.83179 0.0
H2169 H 0.47695 0.18433 0.87514 0.0
H2170 H 0.45071 0.16174 0.84938 0.0
C2171 C 0.50332 0.14127 0.82843 0.0
C2172 C 0.82263 0.4602 0.84858 0.0
C2173 C 0.84035 0.46483 0.83194 0.0
H2174 H 0.8005 0.47544 0.87515 0.0
C2175 C 0.84328 0.48781 0.82309 0.0
H2176 H 0.82019 0.44249 0.85554 0.0
C2177 C 0.83241 0.50668 0.8345 0.0
C2178 C 0.81848 0.5024 0.85455 0.0
H2179 H 0.85685 0.49155 0.81008 0.0
H2180 H 0.83754 0.52457 0.82978 0.0
C2181 C 0.81153 0.47912 0.85992 0.0
C2182 C 0.48674 0.86015 0.81834 0.0
C2183 C 0.51086 0.85969 0.82359 0.0
H2184 H 0.4526 0.8488 0.82966 0.0
C2185 C 0.51999 0.84154 0.8378 0.0
H2186 H 0.47944 0.87393 0.80722 0.0
C2187 C 0.50468 0.82686 0.85028 0.0
C2188 C 0.48037 0.83087 0.84885 0.0
H2189 H 0.53869 0.8408 0.8417 0.0
H2190 H 0.51192 0.81522 0.86365 0.0
C2191 C 0.47141 0.8458 0.83118 0.0
C2192 C 0.16048 0.14691 0.48726 0.0
C2193 C 0.17388 0.12709 0.49358 0.0
H2194 H 0.13421 0.17128 0.49887 0.0
C2195 C 0.17814 0.12227 0.51757 0.0
H2196 H 0.15738 0.15108 0.46879 0.0
C2197 C 0.16491 0.13395 0.53483 0.0
C2198 C 0.14774 0.15027 0.52779 0.0
H2199 H 0.18864 0.10713 0.52274 0.0
H2200 H 0.16549 0.12759 0.55291 0.0
C2201 C 0.14729 0.15847 0.50443 0.0
C2202 C 0.81153 0.13589 0.4788 0.0
C2203 C 0.81749 0.14207 0.50217 0.0
H2204 H 0.82201 0.13867 0.4425 0.0
C2205 C 0.83146 0.16215 0.5064 0.0
H2206 H 0.80048 0.12062 0.47517 0.0
C2207 C 0.84344 0.17263 0.48767 0.0
C2208 C 0.84146 0.16289 0.46492 0.0
H2209 H 0.83585 0.16747 0.52433 0.0
H2210 H 0.85703 0.18561 0.49159 0.0
C2211 C 0.82371 0.14631 0.46005 0.0
C2212 C 0.82205 0.85414 0.53409 0.0
C2213 C 0.8384 0.83718 0.52644 0.0
H2214 H 0.80273 0.88502 0.52399 0.0
C2215 C 0.84066 0.83223 0.50224 0.0
H2216 H 0.81996 0.85797 0.55279 0.0
C2217 C 0.8312 0.84781 0.48584 0.0
C2218 C 0.81913 0.86795 0.49378 0.0
H2219 H 0.85303 0.81894 0.49612 0.0
H2220 H 0.83597 0.84584 0.46734 0.0
C2221 C 0.81242 0.86975 0.51763 0.0
C2222 C 0.16786 0.85385 0.48879 0.0
C2223 C 0.16571 0.8509 0.51331 0.0
H2224 H 0.15165 0.84717 0.45527 0.0
C2225 C 0.15115 0.83291 0.52233 0.0
H2226 H 0.17908 0.8676 0.48153 0.0
C2227 C 0.13563 0.82105 0.50731 0.0
C2228 C 0.13454 0.82754 0.48342 0.0
H2229 H 0.14948 0.83036 0.54129 0.0
H2230 H 0.12242 0.80946 0.51498 0.0
C2231 C 0.15203 0.84233 0.47383 0.0
C2232 C 0.64457 0.99484 0.66546 0.0
C2233 C 0.64678 0.97126 0.65803 0.0
H2234 H 0.6509 0.03095 0.65634 0.0
C2235 C 0.66379 0.9652 0.64108 0.0
H2236 H 0.6316 -0.00032 0.67872 0.0
C2237 C 0.67482 0.98312 0.62816 0.0
C2238 C 0.66861 0.00682 0.63238 0.0
H2239 H 0.66569 0.94701 0.63524 0.0
H2240 H 0.68524 0.97828 0.61281 0.0
C2241 C 0.65544 0.01268 0.65255 0.0
C2242 C -0.00019 0.66205 0.60849 0.0
C2243 C 0.98291 0.66562 0.62633 0.0
H2244 H 0.02728 0.63948 0.59563 0.0
C2245 C 0.98453 0.65315 0.64767 0.0
H2246 H -0.0013 0.67141 0.59179 0.0
C2247 C 0.00113 0.63522 0.64997 0.0
C2248 C 0.01558 0.62935 0.63067 0.0
H2249 H 0.97143 0.65554 0.66145 0.0
H2250 H 0.00109 0.62452 0.66588 0.0
C2251 C 0.01578 0.64355 0.61043 0.0
C2252 C 0.33466 0.98746 0.65234 0.0
C2253 C 0.32229 0.99322 0.63168 0.0
H2254 H 0.35699 0.00071 0.67972 0.0
C2255 C 0.31579 0.01681 0.62747 0.0
H2256 H 0.33932 0.96925 0.65616 0.0
C2257 C 0.32585 0.03484 0.6411 0.0
C2258 C 0.34226 0.02899 0.65866 0.0
H2259 H 0.30591 0.02155 0.61177 0.0
H2260 H 0.32385 0.05303 0.63536 0.0
C2261 C 0.34452 0.00542 0.66598 0.0
C2262 C 0.97131 0.34763 0.60396 0.0
C2263 C 0.97317 0.36001 0.62537 0.0
H2264 H 0.98709 0.32202 0.58119 0.0
C2265 C 0.98944 0.35285 0.64259 0.0
H2266 H 0.95845 0.3527 0.59073 0.0
C2267 C 0.00605 0.33563 0.63703 0.0
C2268 C 0.00588 0.32515 0.61453 0.0
H2269 H 0.99082 0.36213 0.65936 0.0
H2270 H 0.02041 0.33235 0.64925 0.0
C2271 C 0.98736 0.32981 0.59875 0.0
C2272 C 0.67652 0.01474 0.36734 0.0
C2273 C 0.67061 0.99096 0.36294 0.0
H2274 H 0.66697 0.05071 0.36043 0.0
C2275 C 0.65778 0.98497 0.34259 0.0
H2276 H 0.6867 0.01968 0.38283 0.0
C2277 C 0.64686 0.00269 0.32965 0.0
C2278 C 0.64865 0.02625 0.33729 0.0
H2279 H 0.6535 0.96664 0.33867 0.0
H2280 H 0.63408 -0.00232 0.31625 0.0
C2281 C 0.6654 0.03253 0.35442 0.0
C2282 C 0.02631 0.64775 0.33652 0.0
C2283 C 0.0182 0.66208 0.3551 0.0
H2284 H 0.01603 0.62302 0.30968 0.0
C2285 C 0.99465 0.66941 0.35559 0.0
H2286 H 0.04456 0.64213 0.33587 0.0
C2287 C 0.97843 0.65878 0.34049 0.0
C2288 C 0.98581 0.64053 0.32535 0.0
H2289 H 0.98826 0.68077 0.36969 0.0
H2290 H 0.95982 0.66213 0.34333 0.0
C2291 C 0.00999 0.63689 0.32149 0.0
C2292 C 0.31673 0.97514 0.3657 0.0
C2293 C 0.32284 -0.00123 0.36092 0.0
H2294 H 0.32612 0.93896 0.35958 0.0
C2295 C 0.33588 0.00419 0.34055 0.0
H2296 H 0.30635 0.97064 0.38117 0.0
C2297 C 0.34683 0.98608 0.32806 0.0
C2298 C 0.34486 0.96274 0.33618 0.0
H2299 H 0.3403 0.02238 0.3363 0.0
H2300 H 0.35979 0.99069 0.31471 0.0
C2301 C 0.32786 0.95698 0.35323 0.0
C2302 C 0.98454 0.35602 0.32617 0.0
C2303 C 0.00854 0.35777 0.33169 0.0
H2304 H 0.95156 0.34106 0.33678 0.0
C2305 C 0.01924 0.34027 0.34563 0.0
H2306 H 0.97605 0.36922 0.31521 0.0
C2307 C 0.00531 0.3238 0.3575 0.0
C2308 C 0.98075 0.32536 0.35575 0.0
H2309 H 0.03791 0.34114 0.34965 0.0
H2310 H 0.01344 0.31267 0.37079 0.0
C2311 C 0.97057 0.33982 0.33837 0.0
C2312 C 0.67063 0.63012 0.0147 0.0
C2313 C 0.66643 0.63402 0.99052 0.0
H2314 H 0.65751 0.63597 0.0498 0.0
C2315 C 0.65192 0.6528 0.9835 0.0
H2316 H 0.68195 0.61582 0.02044 0.0
C2317 C 0.63794 0.66412 0.00019 0.0
C2318 C 0.63873 0.65683 0.02385 0.0
H2319 H 0.64884 0.65631 0.96489 0.0
H2320 H 0.62431 0.6761 0.99415 0.0
C2321 C 0.65666 0.64163 0.03149 0.0
C2322 C 0.32869 0.65242 0.97047 0.0
C2323 C 0.34667 0.66771 0.97822 0.0
H2324 H 0.30537 0.62437 0.9803 0.0
C2325 C 0.34937 0.67233 0.00246 0.0
H2326 H 0.32616 0.64898 0.95174 0.0
C2327 C 0.33789 0.65791 0.01876 0.0
C2328 C 0.32339 0.63939 0.01071 0.0
H2329 H 0.36296 0.6843 0.00878 0.0
H2330 H 0.34267 0.65927 0.0373 0.0
C2331 C 0.31686 0.63831 0.9868 0.0
C2332 C 0.36302 0.31811 0.97811 0.0
C2333 C 0.35858 0.32407 0.00185 0.0
H2334 H 0.3563 0.32773 0.94213 0.0
C2335 C 0.3382 0.33676 0.00775 0.0
H2336 H 0.37847 0.30796 0.97325 0.0
C2337 C 0.32542 0.34776 0.98997 0.0
C2338 C 0.33327 0.34616 0.9665 0.0
H2339 H 0.33419 0.34099 0.02605 0.0
H2340 H 0.31208 0.36058 0.99492 0.0
C2341 C 0.35022 0.32927 0.96027 0.0
C2342 C 0.65496 0.34174 0.01108 0.0
C2343 C 0.66839 0.36174 0.0052 0.0
H2344 H 0.63067 0.31587 -0.00184 0.0
C2345 C 0.6746 0.36582 0.98148 0.0
H2346 H 0.6504 0.33807 0.02936 0.0
C2347 C 0.66331 0.35302 0.96358 0.0
C2348 C 0.64607 0.33631 0.9697 0.0
H2349 H 0.68521 0.38105 0.97662 0.0
H2350 H 0.66524 0.35881 0.9454 0.0
C2351 C 0.64383 0.32894 0.99326 0.0
C2352 C 0.08609 0.37268 0.06214 0.0
C2353 C 0.09999 0.37507 0.08257 0.0
H2354 H 0.08576 0.36741 0.02452 0.0
C2355 C 0.12436 0.37095 0.08105 0.0
H2356 H 0.06726 0.37572 0.06288 0.0
C2357 C 0.13498 0.36671 0.05912 0.0
C2358 C 0.12139 0.36661 0.03835 0.0
H2359 H 0.13538 0.37253 0.09665 0.0
H2360 H 0.154 0.36517 0.05825 0.0
C2361 C 0.09673 0.36839 0.04017 0.0
C2362 C 0.63593 0.12707 0.06165 0.0
C2363 C 0.62755 0.11632 0.04082 0.0
H2364 H 0.64051 0.12383 0.09921 0.0
C2365 C 0.62185 0.09208 0.04124 0.0
H2366 H 0.64124 0.14552 0.06171 0.0
C2367 C 0.62079 0.0799 0.06278 0.0
C2368 C 0.62618 0.09164 0.08404 0.0
H2369 H 0.61691 0.08289 0.02513 0.0
H2370 H 0.61396 0.06196 0.06298 0.0
C2371 C 0.63546 0.1147 0.08309 0.0
C2372 C 0.88842 0.62071 0.07104 0.0
C2373 C 0.89723 0.59798 0.07576 0.0
H2374 H 0.871 0.64325 0.04592 0.0
C2375 C 0.89594 0.58059 0.05808 0.0
H2376 H 0.88886 0.63433 0.08458 0.0
C2377 C 0.88517 0.58537 0.03647 0.0
C2378 C 0.87626 0.60804 0.03146 0.0
H2379 H 0.9025 0.56288 0.06132 0.0
H2380 H 0.88296 0.57076 0.02436 0.0
C2381 C 0.87805 0.62571 0.04903 0.0
C2382 C 0.40299 0.8871 0.04084 0.0
C2383 C 0.38052 0.87851 0.03471 0.0
H2384 H 0.42459 0.90388 0.06691 0.0
C2385 C 0.36202 0.88093 0.0512 0.0
H2386 H 0.41809 0.8844 0.02955 0.0
C2387 C 0.36612 0.89143 0.07342 0.0
C2388 C 0.38876 0.8996 0.07934 0.0
H2389 H 0.34458 0.87418 0.04713 0.0
H2390 H 0.35193 0.8923 0.08624 0.0
C2391 C 0.40691 0.89792 0.06262 0.0
C2392 C 0.12212 0.61364 0.91193 0.0
C2393 C 0.09753 0.61083 0.91092 0.0
H2394 H 0.15227 0.62008 0.93386 0.0
C2395 C 0.08401 0.61567 0.93117 0.0
H2396 H 0.13288 0.61013 0.89646 0.0
C2397 C 0.0951 0.62134 0.95261 0.0
C2398 C 0.11985 0.62221 0.95406 0.0
H2399 H 0.06501 0.61362 0.93079 0.0
H2400 H 0.08437 0.6242 0.9682 0.0
C2401 C 0.13318 0.6194 0.93329 0.0
C2402 C 0.36652 0.09669 0.95599 0.0
C2403 C 0.36436 0.12146 0.95748 0.0
H2404 H 0.37517 0.06684 0.93398 0.0
C2405 C 0.36578 0.13487 0.93661 0.0
H2406 H 0.36458 0.0858 0.97161 0.0
C2407 C 0.37142 0.12399 0.91508 0.0
C2408 C 0.37561 0.09951 0.91401 0.0
H2409 H 0.36402 0.15396 0.93714 0.0
H2410 H 0.37373 0.13489 0.89948 0.0
C2411 C 0.37216 0.08578 0.9344 0.0
C2412 C 0.89059 0.3699 0.95636 0.0
C2413 C 0.86589 0.36927 0.95826 0.0
H2414 H 0.92033 0.37658 0.93383 0.0
C2415 C 0.85221 0.37107 0.93763 0.0
H2416 H 0.90154 0.36785 0.97191 0.0
C2417 C 0.86295 0.37572 0.91585 0.0
C2418 C 0.88752 0.37849 0.91433 0.0
H2419 H 0.83313 0.37055 0.9386 0.0
H2420 H 0.85196 0.37851 0.90042 0.0
C2421 C 0.90135 0.37452 0.93453 0.0
C2422 C 0.6166 0.91072 0.93165 0.0
C2423 C 0.61201 0.8984 0.91054 0.0
H2424 H 0.62475 0.90808 0.9686 0.0
C2425 C 0.61526 0.87377 0.90984 0.0
H2426 H 0.61437 0.92976 0.93256 0.0
C2427 C 0.62073 0.86135 0.93047 0.0
C2428 C 0.62298 0.87339 0.95214 0.0
H2429 H 0.61215 0.86395 0.89362 0.0
H2430 H 0.6215 0.84219 0.92973 0.0
C2431 C 0.62214 0.89828 0.95232 0.0
C2432 C 0.0397 0.10677 0.40709 0.0
C2433 C 0.0345 0.11582 0.38453 0.0
H2434 H 0.06451 0.08893 0.42914 0.0
C2435 C 0.05142 0.1135 0.36643 0.0
H2436 H 0.02796 0.10937 0.4219 0.0
C2437 C 0.07309 0.10238 0.37095 0.0
C2438 C 0.07805 0.09351 0.39362 0.0
H2439 H 0.04808 0.12068 0.34898 0.0
H2440 H 0.08621 0.10147 0.35703 0.0
C2441 C 0.06098 0.09542 0.41144 0.0
C2442 C 0.90358 0.06253 0.3735 0.0
C2443 C 0.88986 0.08272 0.37787 0.0
H2444 H 0.90351 0.02526 0.36615 0.0
C2445 C 0.86534 0.08149 0.37471 0.0
H2446 H 0.92253 0.06306 0.37586 0.0
C2447 C 0.85446 0.05989 0.36946 0.0
C2448 C 0.86797 0.03918 0.36748 0.0
H2449 H 0.85446 0.09694 0.37783 0.0
H2450 H 0.83538 0.05908 0.36881 0.0
C2451 C 0.89268 0.04088 0.3683 0.0
C2452 C 0.90943 0.87298 0.38535 0.0
C2453 C 0.90935 0.89779 0.38719 0.0
H2454 H 0.92997 0.84178 0.3793 0.0
C2455 C 0.92975 0.91051 0.38108 0.0
H2456 H 0.89378 0.86283 0.38966 0.0
C2457 C 0.95046 0.89847 0.37504 0.0
C2458 C 0.95103 0.87357 0.37507 0.0
H2459 H 0.93006 0.92966 0.38225 0.0
H2460 H 0.96618 0.90862 0.37112 0.0
C2461 C 0.93008 0.86097 0.37927 0.0
C2462 C 0.09301 0.95378 0.37297 0.0
C2463 C 0.11773 0.95442 0.37112 0.0
H2464 H 0.06246 0.93262 0.38078 0.0
C2465 C 0.13035 0.93309 0.37192 0.0
H2466 H 0.08281 0.9699 0.37163 0.0
C2467 C 0.1187 0.91182 0.37682 0.0
C2468 C 0.09426 0.91153 0.38082 0.0
H2469 H 0.1494 0.93308 0.37042 0.0
H2470 H 0.12898 0.89581 0.37891 0.0
C2471 C 0.08133 0.93245 0.37781 0.0
C2472 C 0.06935 0.88918 0.63116 0.0
C2473 C 0.07653 0.89689 0.60866 0.0
H2474 H 0.0416 0.87325 0.65173 0.0
C2475 C 0.06064 0.89561 0.58974 0.0
H2476 H 0.0815 0.88972 0.64595 0.0
C2477 C 0.03846 0.8856 0.59276 0.0
C2478 C 0.03101 0.87757 0.6151 0.0
H2479 H 0.06586 0.90129 0.57217 0.0
H2480 H 0.0279 0.8831 0.5771 0.0
C2481 C 0.04667 0.8796 0.63436 0.0
C2482 C 0.1221 0.07652 0.61753 0.0
C2483 C 0.09752 0.07695 0.61454 0.0
H2484 H 0.15267 0.05524 0.62384 0.0
C2485 C 0.08437 0.0564 0.61917 0.0
H2486 H 0.13257 0.09224 0.61411 0.0
C2487 C 0.09589 0.03519 0.62465 0.0
C2488 C 0.12066 0.03433 0.62556 0.0
H2489 H 0.06539 0.05634 0.61694 0.0
H2490 H 0.08551 0.01928 0.62719 0.0
C2491 C 0.13358 0.05541 0.62312 0.0
C2492 C 0.92863 0.09479 0.61616 0.0
C2493 C 0.90991 0.11003 0.61065 0.0
H2494 H 0.96512 0.09182 0.62538 0.0
C2495 C 0.91339 0.1346 0.61242 0.0
H2496 H 0.92647 0.07577 0.61492 0.0
C2497 C 0.93566 0.14379 0.61788 0.0
C2498 C 0.95484 0.12855 0.62161 0.0
H2499 H 0.89912 0.14673 0.60864 0.0
H2500 H 0.93813 0.16283 0.61782 0.0
C2501 C 0.95088 0.10398 0.62174 0.0
C2502 C 0.88393 0.96163 0.59149 0.0
C2503 C 0.87328 0.96748 0.61324 0.0
H2504 H 0.90165 0.93554 0.57073 0.0
C2505 C 0.87321 0.95036 0.63138 0.0
H2506 H 0.88332 0.97324 0.57644 0.0
C2507 C 0.88288 0.9278 0.6275 0.0
C2508 C 0.89288 0.92216 0.60547 0.0
H2509 H 0.86494 0.95412 0.64827 0.0
H2510 H 0.8816 0.91451 0.64125 0.0
C2511 C 0.89409 0.93955 0.58791 0.0
C2512 C 0.37029 0.03817 0.09847 0.0
C2513 C 0.369 0.03693 0.12331 0.0
H2514 H 0.37596 0.06046 0.06823 0.0
C2515 C 0.36795 0.05802 0.13647 0.0
H2516 H 0.37 0.02221 0.08783 0.0
C2517 C 0.37073 0.07985 0.12522 0.0
C2518 C 0.37457 0.08092 0.10067 0.0
H2519 H 0.36665 0.05757 0.15561 0.0
H2520 H 0.37148 0.0958 0.13591 0.0
C2521 C 0.37319 0.06005 0.08721 0.0
C2522 C 0.37285 0.93446 0.90518 0.0
C2523 C 0.37689 0.91432 0.89117 0.0
H2524 H 0.36529 0.97162 0.90561 0.0
C2525 C 0.37342 0.91567 0.86659 0.0
H2526 H 0.37532 0.93382 0.92419 0.0
C2527 C 0.36815 0.93732 0.85594 0.0
C2528 C 0.36636 0.95797 0.86971 0.0
H2529 H 0.37616 0.90024 0.85547 0.0
H2530 H 0.36712 0.93815 0.8368 0.0
C2531 C 0.36754 0.95614 0.89451 0.0
C2532 C 0.03866 0.40245 0.88787 0.0
C2533 C 0.03247 0.37989 0.87929 0.0
H2534 H 0.0648 0.42415 0.90444 0.0
C2535 C 0.04893 0.36138 0.8813 0.0
H2536 H 0.02732 0.41755 0.88548 0.0
C2537 C 0.07115 0.36551 0.89153 0.0
C2538 C 0.07714 0.38822 0.89979 0.0
H2539 H 0.04481 0.34389 0.8745 0.0
H2540 H 0.0839 0.35128 0.89217 0.0
C2541 C 0.0605 0.40643 0.89835 0.0
C2542 C 0.61891 0.04129 0.90278 0.0
C2543 C 0.62114 0.04153 0.87797 0.0
H2544 H 0.60996 0.06115 0.93399 0.0
C2545 C 0.62014 0.06328 0.86603 0.0
H2546 H 0.62055 0.02492 0.91255 0.0
C2547 C 0.61455 0.08399 0.87834 0.0
C2548 C 0.60997 0.08329 0.90276 0.0
H2549 H 0.62198 0.06404 0.84695 0.0
H2550 H 0.61237 0.10031 0.86853 0.0
C2551 C 0.61326 0.06204 0.91511 0.0
C2552 C 0.93082 0.61599 0.90033 0.0
C2553 C 0.91128 0.61063 0.88602 0.0
H2554 H 0.96757 0.62478 0.90142 0.0
C2555 C 0.9134 0.61261 0.86133 0.0
H2556 H 0.92966 0.61466 0.91942 0.0
C2557 C 0.93519 0.61787 0.85103 0.0
C2558 C 0.95523 0.6212 0.86527 0.0
H2559 H 0.89845 0.60898 0.84994 0.0
H2560 H 0.93664 0.61782 0.83189 0.0
C2561 C 0.95261 0.62138 0.89002 0.0
C2562 C 0.62443 0.9274 0.13284 0.0
C2563 C 0.62848 0.94864 0.12064 0.0
H2564 H 0.61365 0.89109 0.1303 0.0
C2565 C 0.62861 0.94841 0.09573 0.0
H2566 H 0.62443 0.92704 0.15202 0.0
C2567 C 0.6222 0.92789 0.0833 0.0
C2568 C 0.6158 0.90734 0.09566 0.0
H2569 H 0.63261 0.96435 0.0859 0.0
H2570 H 0.6207 0.92861 0.06419 0.0
C2571 C 0.61814 0.9069 0.12043 0.0
C2572 C 0.05709 0.61866 0.08252 0.0
C2573 C 0.07754 0.61581 0.09615 0.0
H2574 H 0.01972 0.62437 0.08288 0.0
C2575 C 0.07656 0.61992 0.12067 0.0
H2576 H 0.05747 0.61566 0.06356 0.0
C2577 C 0.05501 0.62451 0.13173 0.0
C2578 C 0.03414 0.62494 0.11841 0.0
H2579 H 0.09223 0.61804 0.13147 0.0
H2580 H 0.05447 0.62591 0.15086 0.0
C2581 C 0.03549 0.62326 0.0936 0.0
C2582 C 0.95113 0.40662 0.10839 0.0
C2583 C 0.9554 0.3842 0.1183 0.0
H2584 H 0.92707 0.42918 0.09011 0.0
C2585 C 0.93741 0.36698 0.11706 0.0
H2586 H 0.96365 0.42092 0.11008 0.0
C2587 C 0.9157 0.3722 0.10632 0.0
C2588 C 0.91168 0.39472 0.09662 0.0
H2589 H 0.93996 0.34966 0.12484 0.0
H2590 H 0.90183 0.35898 0.10632 0.0
C2591 C 0.92979 0.41162 0.09732 0.0
C2592 C 0.58402 0.87893 0.56096 0.0
C2593 C 0.59754 0.88344 0.58129 0.0
H2594 H 0.58442 0.87079 0.52384 0.0
C2595 C 0.62207 0.88032 0.58037 0.0
H2596 H 0.56506 0.88119 0.56129 0.0
C2597 C 0.63314 0.87466 0.559 0.0
C2598 C 0.61985 0.87223 0.53816 0.0
H2599 H 0.63281 0.88353 0.59592 0.0
H2600 H 0.65222 0.87378 0.5585 0.0
C2601 C 0.59512 0.87335 0.53951 0.0
C2602 C 0.13068 0.6257 0.56003 0.0
C2603 C 0.12287 0.61472 0.53911 0.0
H2604 H 0.13471 0.62267 0.59767 0.0
C2605 C 0.11772 0.59036 0.53951 0.0
H2606 H 0.1356 0.64425 0.56013 0.0
C2607 C 0.11638 0.57828 0.56107 0.0
C2608 C 0.12105 0.59023 0.58238 0.0
H2609 H 0.11347 0.58095 0.52333 0.0
H2610 H 0.10989 0.56021 0.5612 0.0
C2611 C 0.13005 0.6134 0.58151 0.0
C2612 C 0.36805 0.11568 0.5768 0.0
C2613 C 0.39254 0.11256 0.57845 0.0
H2614 H 0.33845 0.12143 0.55402 0.0
C2615 C 0.40652 0.11593 0.55822 0.0
H2616 H 0.35694 0.11334 0.59225 0.0
C2617 C 0.39594 0.12055 0.53629 0.0
C2618 C 0.37126 0.12184 0.53432 0.0
H2619 H 0.42546 0.11364 0.55906 0.0
H2620 H 0.40703 0.12239 0.52081 0.0
C2621 C 0.3575 0.12039 0.55496 0.0
C2622 C 0.87378 0.40146 0.54153 0.0
C2623 C 0.86712 0.37752 0.53995 0.0
H2624 H 0.88268 0.43035 0.5646 0.0
C2625 C 0.85859 0.36612 0.56031 0.0
H2626 H 0.87904 0.41114 0.52584 0.0
C2627 C 0.85961 0.3775 0.58234 0.0
C2628 C 0.8695 0.40025 0.58433 0.0
H2629 H 0.85261 0.34789 0.55948 0.0
H2630 H 0.85419 0.3679 0.59801 0.0
C2631 C 0.8753 0.41266 0.5636 0.0
C2632 C 0.62143 0.11797 0.41463 0.0
C2633 C 0.59701 0.11411 0.41311 0.0
H2634 H 0.65087 0.12518 0.43726 0.0
C2635 C 0.58291 0.11798 0.43316 0.0
H2636 H 0.6326 0.1152 0.3993 0.0
C2637 C 0.59336 0.12365 0.45493 0.0
C2638 C 0.61801 0.1255 0.45686 0.0
H2639 H 0.56403 0.1151 0.43239 0.0
H2640 H 0.58224 0.12567 0.47038 0.0
C2641 C 0.63184 0.12374 0.43631 0.0
C2642 C 0.90133 0.60438 0.43348 0.0
C2643 C 0.88412 0.60254 0.41578 0.0
H2644 H 0.91027 0.61698 0.46767 0.0
C2645 C 0.86105 0.61011 0.42068 0.0
H2646 H 0.91928 0.59877 0.4301 0.0
C2647 C 0.85552 0.61986 0.44292 0.0
C2648 C 0.87296 0.62209 0.46053 0.0
H2649 H 0.84756 0.60921 0.40714 0.0
H2650 H 0.83775 0.62604 0.4462 0.0
C2651 C 0.89595 0.61437 0.45537 0.0
C2652 C 0.40805 0.87482 0.43681 0.0
C2653 C 0.3944 0.87813 0.41637 0.0
H2654 H 0.40792 0.86837 0.47422 0.0
C2655 C 0.36992 0.87459 0.41755 0.0
H2656 H 0.42698 0.87746 0.43632 0.0
C2657 C 0.35901 0.86971 0.4392 0.0
C2658 C 0.37241 0.8685 0.46006 0.0
H2659 H 0.35907 0.8769 0.40194 0.0
H2660 H 0.33995 0.86849 0.43982 0.0
C2661 C 0.39711 0.87002 0.45853 0.0
C2662 C 0.12674 0.3971 0.45253 0.0
C2663 C 0.12778 0.37221 0.452 0.0
H2664 H 0.11759 0.42876 0.43363 0.0
C2665 C 0.12398 0.36038 0.43043 0.0
H2666 H 0.13039 0.40672 0.46872 0.0
C2667 C 0.11699 0.37299 0.41039 0.0
C2668 C 0.11382 0.39762 0.41153 0.0
H2669 H 0.12479 0.34123 0.42946 0.0
H2670 H 0.11276 0.36332 0.39433 0.0
C2671 C 0.11977 0.40974 0.43241 0.0
C2672 C 0.55838 0.59863 0.90686 0.0
C2673 C 0.57538 0.59672 0.88897 0.0
H2674 H 0.52523 0.6122 0.91731 0.0
C2675 C 0.57005 0.60489 0.86613 0.0
H2676 H 0.56217 0.59263 0.92468 0.0
C2677 C 0.54812 0.61543 0.86153 0.0
C2678 C 0.53129 0.61789 0.87971 0.0
H2679 H 0.58309 0.60394 0.85215 0.0
H2680 H 0.54451 0.6221 0.84393 0.0
C2681 C 0.53685 0.60946 0.90243 0.0
C2682 C 0.3539 0.55676 0.86664 0.0
C2683 C 0.36803 0.53638 0.8665 0.0
H2684 H 0.35257 0.59429 0.87231 0.0
C2685 C 0.39265 0.53892 0.86799 0.0
H2686 H 0.33488 0.55536 0.86534 0.0
C2687 C 0.40275 0.5612 0.87209 0.0
C2688 C 0.38834 0.58121 0.87456 0.0
H2689 H 0.40403 0.52361 0.86698 0.0
H2690 H 0.42159 0.56247 0.87494 0.0
C2691 C 0.36398 0.579 0.8707 0.0
C2692 C 0.43497 0.35923 0.87512 0.0
C2693 C 0.45586 0.3724 0.87267 0.0
H2694 H 0.39812 0.35993 0.88349 0.0
C2695 C 0.45466 0.39728 0.8733 0.0
H2696 H 0.4353 0.34005 0.87457 0.0
C2697 C 0.43334 0.40867 0.87846 0.0
C2698 C 0.41294 0.3953 0.88299 0.0
H2699 H 0.47033 0.40791 0.87063 0.0
H2700 H 0.43314 0.42776 0.88035 0.0
C2701 C 0.41372 0.37058 0.88032 0.0
C2702 C 0.58367 0.43367 0.87776 0.0
C2703 C 0.59733 0.41354 0.88245 0.0
H2704 H 0.5838 0.47074 0.86949 0.0
C2705 C 0.6219 0.41477 0.87957 0.0
H2706 H 0.56469 0.43314 0.87985 0.0
C2707 C 0.63282 0.43624 0.87391 0.0
C2708 C 0.61933 0.45686 0.87123 0.0
H2709 H 0.63276 0.39938 0.88291 0.0
H2710 H 0.6519 0.43701 0.87318 0.0
C2711 C 0.59461 0.4552 0.87217 0.0
C2712 C 0.57382 0.37058 0.11349 0.0
C2713 C 0.57508 0.39521 0.11028 0.0
H2714 H 0.55169 0.34054 0.12018 0.0
C2715 C 0.55489 0.40894 0.11438 0.0
H2716 H 0.58926 0.35965 0.11076 0.0
C2717 C 0.53339 0.39802 0.11993 0.0
C2718 C 0.53174 0.37321 0.12134 0.0
H2719 H 0.55541 0.42797 0.11209 0.0
H2720 H 0.51796 0.40896 0.12244 0.0
C2721 C 0.55236 0.35968 0.11904 0.0
C2722 C 0.61487 0.58007 0.11165 0.0
C2723 C 0.59027 0.58046 0.10885 0.0
H2724 H 0.64545 0.559 0.11848 0.0
C2725 C 0.57716 0.55997 0.11386 0.0
H2726 H 0.6253 0.59576 0.10802 0.0
C2727 C 0.58869 0.53888 0.11978 0.0
C2728 C 0.61345 0.53808 0.12082 0.0
H2729 H 0.55817 0.55988 0.11182 0.0
H2730 H 0.57831 0.52305 0.12273 0.0
C2731 C 0.62636 0.5591 0.11772 0.0
C2732 C 0.42812 0.5865 0.1201 0.0
C2733 C 0.40772 0.60005 0.11671 0.0
H2734 H 0.46542 0.58701 0.12616 0.0
C2735 C 0.40869 0.62464 0.12033 0.0
H2736 H 0.42774 0.56748 0.11753 0.0
C2737 C 0.43022 0.63583 0.1248 0.0
C2738 C 0.4511 0.62256 0.12562 0.0
H2739 H 0.39305 0.63538 0.11805 0.0
H2740 H 0.43074 0.65499 0.12572 0.0
C2741 C 0.4497 0.59771 0.12462 0.0
C2742 C 0.4023 0.43478 0.11667 0.0
C2743 C 0.38889 0.41449 0.11154 0.0
H2744 H 0.40176 0.4717 0.12557 0.0
C2745 C 0.36428 0.41533 0.11411 0.0
H2746 H 0.42132 0.43453 0.1149 0.0
C2747 C 0.35309 0.4366 0.11985 0.0
C2748 C 0.36634 0.45741 0.12297 0.0
H2749 H 0.35361 0.39978 0.11056 0.0
H2750 H 0.334 0.43704 0.12033 0.0
C2751 C 0.39109 0.4561 0.1224 0.0
C2752 C 0.86361 0.56484 0.59332 0.0
C2753 C 0.86665 0.58519 0.60731 0.0
H2754 H 0.85883 0.52718 0.59295 0.0
C2755 C 0.86393 0.58349 0.63198 0.0
H2756 H 0.86547 0.56568 0.57425 0.0
C2757 C 0.86096 0.56141 0.64269 0.0
C2758 C 0.86056 0.54075 0.62884 0.0
H2759 H 0.86582 0.59905 0.6431 0.0
H2760 H 0.86076 0.56038 0.66185 0.0
C2761 C 0.86037 0.54276 0.60404 0.0
C2762 C 0.9045 0.45431 0.38847 0.0
C2763 C 0.88166 0.46048 0.38109 0.0
H2764 H 0.92659 0.42866 0.40498 0.0
C2765 C 0.86305 0.44449 0.38539 0.0
H2766 H 0.91959 0.4652 0.38433 0.0
C2767 C 0.86736 0.42273 0.39661 0.0
C2768 C 0.89034 0.41675 0.40358 0.0
H2769 H 0.84531 0.44859 0.37961 0.0
H2770 H 0.85301 0.41026 0.39897 0.0
C2771 C 0.90867 0.433 0.39996 0.0
C2772 C 0.53864 0.87122 0.39879 0.0
C2773 C 0.53687 0.87033 0.37397 0.0
H2774 H 0.56057 0.87932 0.4287 0.0
C2775 C 0.55733 0.87342 0.36029 0.0
H2776 H 0.52335 0.86804 0.40981 0.0
C2777 C 0.57868 0.87942 0.37112 0.0
C2778 C 0.57995 0.88236 0.39578 0.0
H2779 H 0.55654 0.87267 0.34113 0.0
H2780 H 0.59395 0.88284 0.3601 0.0
C2781 C 0.56002 0.87729 0.40963 0.0
C2782 C 0.11436 0.54198 0.4011 0.0
C2783 C 0.11482 0.54194 0.37619 0.0
H2784 H 0.10579 0.56144 0.43267 0.0
C2785 C 0.11013 0.56309 0.36408 0.0
H2786 H 0.11861 0.52613 0.41092 0.0
C2787 C 0.10312 0.58331 0.37652 0.0
C2788 C 0.10081 0.58278 0.40129 0.0
H2789 H 0.11045 0.56363 0.3449 0.0
H2790 H 0.09852 0.59909 0.36669 0.0
C2791 C 0.10734 0.56225 0.41357 0.0
C2792 C 0.45429 0.11966 0.39381 0.0
C2793 C 0.45606 0.11965 0.36897 0.0
H2794 H 0.43236 0.11266 0.42399 0.0
C2795 C 0.43557 0.11619 0.35543 0.0
H2796 H 0.46959 0.12319 0.4047 0.0
C2797 C 0.41421 0.11066 0.36647 0.0
C2798 C 0.41295 0.10854 0.39121 0.0
H2799 H 0.43634 0.11627 0.33626 0.0
H2800 H 0.39891 0.10691 0.35558 0.0
C2801 C 0.43291 0.11404 0.40486 0.0
C2802 C 0.12922 0.42713 0.6323 0.0
C2803 C 0.12946 0.44846 0.61962 0.0
H2804 H 0.124 0.38957 0.63074 0.0
C2805 C 0.12895 0.44771 0.59474 0.0
H2806 H 0.12991 0.42717 0.65148 0.0
C2807 C 0.12531 0.42622 0.58288 0.0
C2808 C 0.12248 0.40522 0.59581 0.0
H2809 H 0.13033 0.46382 0.58448 0.0
H2810 H 0.12302 0.4263 0.56383 0.0
C2811 C 0.12578 0.40565 0.62046 0.0
C2812 C 0.55411 0.12183 0.63511 0.0
C2813 C 0.53349 0.1244 0.62161 0.0
H2814 H 0.59086 0.11313 0.635 0.0
C2815 C 0.53503 0.12326 0.59679 0.0
H2816 H 0.55347 0.12276 0.65427 0.0
C2817 C 0.55639 0.11753 0.58578 0.0
C2818 C 0.57653 0.11303 0.59947 0.0
H2819 H 0.51958 0.12601 0.58591 0.0
H2820 H 0.55682 0.11535 0.56672 0.0
C2821 C 0.57543 0.11614 0.62412 0.0
C2822 C 0.43562 0.87688 0.63778 0.0
C2823 C 0.45617 0.8736 0.62431 0.0
H2824 H 0.39896 0.88598 0.63748 0.0
C2825 C 0.45457 0.87368 0.59947 0.0
H2826 H 0.43631 0.87679 0.65696 0.0
C2827 C 0.43323 0.87912 0.58834 0.0
C2828 C 0.4132 0.88444 0.60193 0.0
H2829 H 0.46998 0.87041 0.58866 0.0
H2830 H 0.43277 0.88054 0.56922 0.0
C2831 C 0.41432 0.88231 0.62667 0.0
loop_
_geom_bond_atom_site_label_1
_geom_bond_atom_site_label_2
_geom_bond_distance
_geom_bond_site_symmetry_2
_ccdc_geom_bond_type
Co0 O3 1.970 . S
Co0 N17 1.989 . S
Co0 O25 1.967 . S
Co0 O32 1.920 . S
Co1 O4 1.966 . S
Co1 N10 2.022 . S
Co1 N18 1.993 . S
Co1 O26 1.941 . S
C2 O3 1.258 . S
C2 O4 1.263 . S
O3 Co0 1.970 . S
O3 C2 1.258 . S
O4 Co1 1.966 . S
O4 C2 1.263 . S
C5 O6 1.235 . S
C5 O32 1.289 . S
O6 C5 1.235 . S
C7 C9 1.400 . S
C7 N10 1.351 1_655 S
C7 C12 1.501 . S
C8 C9 1.387 . S
C8 N11 1.341 1_655 S
C9 C7 1.400 . S
C9 C8 1.387 . S
N10 Co1 2.022 . S
N10 C7 1.351 1_455 S
N10 N11 1.365 . S
N11 C8 1.341 1_455 S
N11 N10 1.365 . S
N11 H31 0.862 . S
C12 C7 1.501 . S
C12 H13 0.961 . S
C12 H14 0.961 . S
C12 H15 0.960 . S
H13 C12 0.961 . S
H14 C12 0.961 . S
H15 C12 0.960 . S
C16 N17 1.342 . S
C16 C20 1.401 . S
C16 C21 1.499 . S
N17 Co0 1.989 . S
N17 C16 1.342 . S
N17 N18 1.388 . S
N18 Co1 1.993 . S
N18 N17 1.388 . S
N18 C19 1.346 . S
C19 N18 1.346 . S
C19 C20 1.396 . S
C19 C29 1.510 . S
C20 C16 1.401 . S
C20 C19 1.396 . S
C21 C16 1.499 . S
C21 H22 0.959 . S
C21 H23 0.960 . S
C21 H24 0.961 . S
H22 C21 0.959 . S
H23 C21 0.960 . S
H24 C21 0.961 . S
O25 Co0 1.967 . S
O25 C33 1.258 . S
O26 Co1 1.941 . S
O26 C33 1.266 . S
H27 C29 0.959 . S
H28 C29 0.961 . S
C29 C19 1.510 . S
C29 H27 0.959 . S
C29 H28 0.961 . S
C29 H30 0.960 . S
H30 C29 0.960 . S
H31 N11 0.862 . S
O32 Co0 1.920 . S
O32 C5 1.289 . S
C33 O25 1.258 . S
C33 O26 1.266 . S
Co34 O37 1.970 . S
Co34 N51 1.989 . S
Co34 O59 1.967 . S
Co34 O66 1.920 . S
Co35 O38 1.966 . S
Co35 N44 2.022 . S
Co35 N52 1.993 . S
Co35 O60 1.941 . S
C36 O37 1.258 . S
C36 O38 1.263 . S
O37 Co34 1.970 . S
O37 C36 1.258 . S
O38 Co35 1.966 . S
O38 C36 1.263 . S
C39 O40 1.235 . S
C39 O66 1.289 . S
O40 C39 1.235 . S
C41 C43 1.400 . S
C41 N44 1.351 1_565 S
C41 C46 1.501 . S
C42 C43 1.387 . S
C42 N45 1.341 1_565 S
C43 C41 1.400 . S
C43 C42 1.387 . S
N44 Co35 2.022 . S
N44 C41 1.351 1_545 S
N44 N45 1.365 . S
N45 C42 1.341 1_545 S
N45 N44 1.365 . S
N45 H65 0.862 . S
C46 C41 1.501 . S
C46 H47 0.961 . S
C46 H48 0.961 . S
C46 H49 0.960 . S
H47 C46 0.961 . S
H48 C46 0.961 . S
H49 C46 0.960 . S
C50 N51 1.342 . S
C50 C54 1.401 . S
C50 C55 1.499 . S
N51 Co34 1.989 . S
N51 C50 1.342 . S
N51 N52 1.388 . S
N52 Co35 1.993 . S
N52 N51 1.388 . S
N52 C53 1.346 . S
C53 N52 1.346 . S
C53 C54 1.396 . S
C53 C63 1.510 . S
C54 C50 1.401 . S
C54 C53 1.396 . S
C55 C50 1.499 . S
C55 H56 0.959 . S
C55 H57 0.960 . S
C55 H58 0.961 . S
H56 C55 0.959 . S
H57 C55 0.960 . S
H58 C55 0.961 . S
O59 Co34 1.967 . S
O59 C67 1.258 . S
O60 Co35 1.941 . S
O60 C67 1.266 . S
H61 C63 0.959 . S
H62 C63 0.961 . S
C63 C53 1.510 . S
C63 H61 0.959 . S
C63 H62 0.961 . S
C63 H64 0.960 . S
H64 C63 0.960 . S
H65 N45 0.862 . S
O66 Co34 1.920 . S
O66 C39 1.289 . S
C67 O59 1.258 . S
C67 O60 1.266 . S
Co68 O71 1.970 . S
Co68 N85 1.989 . S
Co68 O93 1.967 . S
Co68 O100 1.920 . S
Co69 O72 1.966 . S
Co69 N78 2.022 . S
Co69 N86 1.993 . S
Co69 O94 1.941 . S
C70 O71 1.258 . S
C70 O72 1.263 . S
O71 Co68 1.970 . S
O71 C70 1.258 . S
O72 Co69 1.966 . S
O72 C70 1.263 . S
C73 O74 1.235 . S
C73 O100 1.289 . S
O74 C73 1.235 . S
C75 C77 1.400 . S
C75 N78 1.351 1_455 S
C75 C80 1.501 . S
C76 C77 1.387 . S
C76 N79 1.341 1_455 S
C77 C75 1.400 . S
C77 C76 1.387 . S
N78 Co69 2.022 . S
N78 C75 1.351 1_655 S
N78 N79 1.365 . S
N79 C76 1.341 1_655 S
N79 N78 1.365 . S
N79 H99 0.862 . S
C80 C75 1.501 . S
C80 H81 0.961 . S
C80 H82 0.961 . S
C80 H83 0.960 . S
H81 C80 0.961 . S
H82 C80 0.961 . S
H83 C80 0.960 . S
C84 N85 1.342 . S
C84 C88 1.401 . S
C84 C89 1.499 . S
N85 Co68 1.989 . S
N85 C84 1.342 . S
N85 N86 1.388 . S
N86 Co69 1.993 . S
N86 N85 1.388 . S
N86 C87 1.346 . S
C87 N86 1.346 . S
C87 C88 1.396 . S
C87 C97 1.510 . S
C88 C84 1.401 . S
C88 C87 1.396 . S
C89 C84 1.499 . S
C89 H90 0.959 . S
C89 H91 0.960 . S
C89 H92 0.961 . S
H90 C89 0.959 . S
H91 C89 0.960 . S
H92 C89 0.961 . S
O93 Co68 1.967 . S
O93 C101 1.258 . S
O94 Co69 1.941 . S
O94 C101 1.266 . S
H95 C97 0.959 . S
H96 C97 0.961 . S
C97 C87 1.510 . S
C97 H95 0.959 . S
C97 H96 0.961 . S
C97 H98 0.960 . S
H98 C97 0.960 . S
H99 N79 0.862 . S
O100 Co68 1.920 . S
O100 C73 1.289 . S
C101 O93 1.258 . S
C101 O94 1.266 . S
Co102 O105 1.970 . S
Co102 N119 1.989 . S
Co102 O127 1.967 . S
Co102 O134 1.920 . S
Co103 O106 1.966 . S
Co103 N112 2.022 . S
Co103 N120 1.993 . S
Co103 O128 1.941 . S
C104 O105 1.258 . S
C104 O106 1.263 . S
O105 Co102 1.970 . S
O105 C104 1.258 . S
O106 Co103 1.966 . S
O106 C104 1.263 . S
C107 O108 1.235 . S
C107 O134 1.289 . S
O108 C107 1.235 . S
C109 C111 1.400 . S
C109 N112 1.351 1_545 S
C109 C114 1.501 . S
C110 C111 1.387 . S
C110 N113 1.341 1_545 S
C111 C109 1.400 . S
C111 C110 1.387 . S
N112 Co103 2.022 . S
N112 C109 1.351 1_565 S
N112 N113 1.365 . S
N113 C110 1.341 1_565 S
N113 N112 1.365 . S
N113 H133 0.862 . S
C114 C109 1.501 . S
C114 H115 0.961 . S
C114 H116 0.961 . S
C114 H117 0.960 . S
H115 C114 0.961 . S
H116 C114 0.961 . S
H117 C114 0.960 . S
C118 N119 1.342 . S
C118 C122 1.401 . S
C118 C123 1.499 . S
N119 Co102 1.989 . S
N119 C118 1.342 . S
N119 N120 1.388 . S
N120 Co103 1.993 . S
N120 N119 1.388 . S
N120 C121 1.346 . S
C121 N120 1.346 . S
C121 C122 1.396 . S
C121 C131 1.510 . S
C122 C118 1.401 . S
C122 C121 1.396 . S
C123 C118 1.499 . S
C123 H124 0.959 . S
C123 H125 0.960 . S
C123 H126 0.961 . S
H124 C123 0.959 . S
H125 C123 0.960 . S
H126 C123 0.961 . S
O127 Co102 1.967 . S
O127 C135 1.258 . S
O128 Co103 1.941 . S
O128 C135 1.266 . S
H129 C131 0.959 . S
H130 C131 0.961 . S
C131 C121 1.510 . S
C131 H129 0.959 . S
C131 H130 0.961 . S
C131 H132 0.960 . S
H132 C131 0.960 . S
H133 N113 0.862 . S
O134 Co102 1.920 . S
O134 C107 1.289 . S
C135 O127 1.258 . S
C135 O128 1.266 . S
Co136 O139 1.970 . S
Co136 N153 1.989 . S
Co136 O161 1.967 . S
Co136 O168 1.920 . S
Co137 O140 1.966 . S
Co137 N146 2.022 . S
Co137 N154 1.993 . S
Co137 O162 1.941 . S
C138 O139 1.258 . S
C138 O140 1.263 . S
O139 Co136 1.970 . S
O139 C138 1.258 . S
O140 Co137 1.966 . S
O140 C138 1.263 . S
C141 O142 1.235 . S
C141 O168 1.289 . S
O142 C141 1.235 . S
C143 C145 1.400 . S
C143 N146 1.351 1_655 S
C143 C148 1.501 . S
C144 C145 1.387 . S
C144 N147 1.341 1_655 S
C145 C143 1.400 . S
C145 C144 1.387 . S
N146 Co137 2.022 . S
N146 C143 1.351 1_455 S
N146 N147 1.365 . S
N147 C144 1.341 1_455 S
N147 N146 1.365 . S
N147 H167 0.862 . S
C148 C143 1.501 . S
C148 H149 0.961 . S
C148 H150 0.961 . S
C148 H151 0.960 . S
H149 C148 0.961 . S
H150 C148 0.961 . S
H151 C148 0.960 . S
C152 N153 1.342 . S
C152 C156 1.401 . S
C152 C157 1.499 . S
N153 Co136 1.989 . S
N153 C152 1.342 . S
N153 N154 1.388 . S
N154 Co137 1.993 . S
N154 N153 1.388 . S
N154 C155 1.346 . S
C155 N154 1.346 . S
C155 C156 1.396 . S
C155 C165 1.510 . S
C156 C152 1.401 . S
C156 C155 1.396 . S
C157 C152 1.499 . S
C157 H158 0.959 . S
C157 H159 0.960 . S
C157 H160 0.961 . S
H158 C157 0.959 . S
H159 C157 0.960 . S
H160 C157 0.961 . S
O161 Co136 1.967 . S
O161 C169 1.258 . S
O162 Co137 1.941 . S
O162 C169 1.266 . S
H163 C165 0.959 . S
H164 C165 0.961 . S
C165 C155 1.510 . S
C165 H163 0.959 . S
C165 H164 0.961 . S
C165 H166 0.960 . S
H166 C165 0.960 . S
H167 N147 0.862 . S
O168 Co136 1.920 . S
O168 C141 1.289 . S
C169 O161 1.258 . S
C169 O162 1.266 . S
Co170 O173 1.970 . S
Co170 N187 1.989 . S
Co170 O195 1.967 . S
Co170 O202 1.920 . S
Co171 O174 1.966 . S
Co171 N180 2.022 . S
Co171 N188 1.993 . S
Co171 O196 1.941 . S
C172 O173 1.258 . S
C172 O174 1.263 . S
O173 Co170 1.970 . S
O173 C172 1.258 . S
O174 Co171 1.966 . S
O174 C172 1.263 . S
C175 O176 1.235 . S
C175 O202 1.289 . S
O176 C175 1.235 . S
C177 C179 1.400 . S
C177 N180 1.351 1_565 S
C177 C182 1.501 . S
C178 C179 1.387 . S
C178 N181 1.341 1_565 S
C179 C177 1.400 . S
C179 C178 1.387 . S
N180 Co171 2.022 . S
N180 C177 1.351 1_545 S
N180 N181 1.365 . S
N181 C178 1.341 1_545 S
N181 N180 1.365 . S
N181 H201 0.862 . S
C182 C177 1.501 . S
C182 H183 0.961 . S
C182 H184 0.961 . S
C182 H185 0.960 . S
H183 C182 0.961 . S
H184 C182 0.961 . S
H185 C182 0.960 . S
C186 N187 1.342 . S
C186 C190 1.401 . S
C186 C191 1.499 . S
N187 Co170 1.989 . S
N187 C186 1.342 . S
N187 N188 1.388 . S
N188 Co171 1.993 . S
N188 N187 1.388 . S
N188 C189 1.346 . S
C189 N188 1.346 . S
C189 C190 1.396 . S
C189 C199 1.510 . S
C190 C186 1.401 . S
C190 C189 1.396 . S
C191 C186 1.499 . S
C191 H192 0.959 . S
C191 H193 0.960 . S
C191 H194 0.961 . S
H192 C191 0.959 . S
H193 C191 0.960 . S
H194 C191 0.961 . S
O195 Co170 1.967 . S
O195 C203 1.258 . S
O196 Co171 1.941 . S
O196 C203 1.266 . S
H197 C199 0.959 . S
H198 C199 0.961 . S
C199 C189 1.510 . S
C199 H197 0.959 . S
C199 H198 0.961 . S
C199 H200 0.960 . S
H200 C199 0.960 . S
H201 N181 0.862 . S
O202 Co170 1.920 . S
O202 C175 1.289 . S
C203 O195 1.258 . S
C203 O196 1.266 . S
Co204 O207 1.970 . S
Co204 N221 1.989 . S
Co204 O229 1.967 . S
Co204 O236 1.920 . S
Co205 O208 1.966 . S
Co205 N214 2.022 . S
Co205 N222 1.993 . S
Co205 O230 1.941 . S
C206 O207 1.258 . S
C206 O208 1.263 . S
O207 Co204 1.970 . S
O207 C206 1.258 . S
O208 Co205 1.966 . S
O208 C206 1.263 . S
C209 O210 1.235 . S
C209 O236 1.289 . S
O210 C209 1.235 . S
C211 C213 1.400 . S
C211 N214 1.351 1_455 S
C211 C216 1.501 . S
C212 C213 1.387 . S
C212 N215 1.341 1_455 S
C213 C211 1.400 . S
C213 C212 1.387 . S
N214 Co205 2.022 . S
N214 C211 1.351 1_655 S
N214 N215 1.365 . S
N215 C212 1.341 1_655 S
N215 N214 1.365 . S
N215 H235 0.862 . S
C216 C211 1.501 . S
C216 H217 0.961 . S
C216 H218 0.961 . S
C216 H219 0.960 . S
H217 C216 0.961 . S
H218 C216 0.961 . S
H219 C216 0.960 . S
C220 N221 1.342 . S
C220 C224 1.401 . S
C220 C225 1.499 . S
N221 Co204 1.989 . S
N221 C220 1.342 . S
N221 N222 1.388 . S
N222 Co205 1.993 . S
N222 N221 1.388 . S
N222 C223 1.346 . S
C223 N222 1.346 . S
C223 C224 1.396 . S
C223 C233 1.510 . S
C224 C220 1.401 . S
C224 C223 1.396 . S
C225 C220 1.499 . S
C225 H226 0.959 . S
C225 H227 0.960 . S
C225 H228 0.961 . S
H226 C225 0.959 . S
H227 C225 0.960 . S
H228 C225 0.961 . S
O229 Co204 1.967 . S
O229 C237 1.258 . S
O230 Co205 1.941 . S
O230 C237 1.266 . S
H231 C233 0.959 . S
H232 C233 0.961 . S
C233 C223 1.510 . S
C233 H231 0.959 . S
C233 H232 0.961 . S
C233 H234 0.960 . S
H234 C233 0.960 . S
H235 N215 0.862 . S
O236 Co204 1.920 . S
O236 C209 1.289 . S
C237 O229 1.258 . S
C237 O230 1.266 . S
Co238 O241 1.970 . S
Co238 N255 1.989 . S
Co238 O263 1.967 . S
Co238 O270 1.920 . S
Co239 O242 1.966 . S
Co239 N248 2.022 . S
Co239 N256 1.993 . S
Co239 O264 1.941 . S
C240 O241 1.258 . S
C240 O242 1.263 . S
O241 Co238 1.970 . S
O241 C240 1.258 . S
O242 Co239 1.966 . S
O242 C240 1.263 . S
C243 O244 1.235 . S
C243 O270 1.289 . S
O244 C243 1.235 . S
C245 C247 1.400 . S
C245 N248 1.351 1_545 S
C245 C250 1.501 . S
C246 C247 1.387 . S
C246 N249 1.341 1_545 S
C247 C245 1.400 . S
C247 C246 1.387 . S
N248 Co239 2.022 . S
N248 C245 1.351 1_565 S
N248 N249 1.365 . S
N249 C246 1.341 1_565 S
N249 N248 1.365 . S
N249 H269 0.862 . S
C250 C245 1.501 . S
C250 H251 0.961 . S
C250 H252 0.961 . S
C250 H253 0.960 . S
H251 C250 0.961 . S
H252 C250 0.961 . S
H253 C250 0.960 . S
C254 N255 1.342 . S
C254 C258 1.401 . S
C254 C259 1.499 . S
N255 Co238 1.989 . S
N255 C254 1.342 . S
N255 N256 1.388 . S
N256 Co239 1.993 . S
N256 N255 1.388 . S
N256 C257 1.346 . S
C257 N256 1.346 . S
C257 C258 1.396 . S
C257 C267 1.510 . S
C258 C254 1.401 . S
C258 C257 1.396 . S
C259 C254 1.499 . S
C259 H260 0.959 . S
C259 H261 0.960 . S
C259 H262 0.961 . S
H260 C259 0.959 . S
H261 C259 0.960 . S
H262 C259 0.961 . S
O263 Co238 1.967 . S
O263 C271 1.258 . S
O264 Co239 1.941 . S
O264 C271 1.266 . S
H265 C267 0.959 . S
H266 C267 0.961 . S
C267 C257 1.510 . S
C267 H265 0.959 . S
C267 H266 0.961 . S
C267 H268 0.960 . S
H268 C267 0.960 . S
H269 N249 0.862 . S
O270 Co238 1.920 . S
O270 C243 1.289 . S
C271 O263 1.258 . S
C271 O264 1.266 . S
Co272 O275 1.970 . S
Co272 N289 1.989 . S
Co272 O297 1.967 . S
Co272 O304 1.920 . S
Co273 O276 1.966 . S
Co273 N282 2.022 . S
Co273 N290 1.993 . S
Co273 O298 1.941 . S
C274 O275 1.258 . S
C274 O276 1.263 . S
O275 Co272 1.970 . S
O275 C274 1.258 . S
O276 Co273 1.966 . S
O276 C274 1.263 . S
C277 O278 1.235 . S
C277 O304 1.289 . S
O278 C277 1.235 . S
C279 C281 1.400 . S
C279 N282 1.351 1_565 S
C279 C284 1.501 . S
C280 C281 1.387 . S
C280 N283 1.341 1_565 S
C281 C279 1.400 . S
C281 C280 1.387 . S
N282 Co273 2.022 . S
N282 C279 1.351 1_545 S
N282 N283 1.365 . S
N283 C280 1.341 1_545 S
N283 N282 1.365 . S
N283 H303 0.862 . S
C284 C279 1.501 . S
C284 H285 0.961 . S
C284 H286 0.961 . S
C284 H287 0.960 . S
H285 C284 0.961 . S
H286 C284 0.961 . S
H287 C284 0.960 . S
C288 N289 1.342 . S
C288 C292 1.401 . S
C288 C293 1.499 . S
N289 Co272 1.989 . S
N289 C288 1.342 . S
N289 N290 1.388 . S
N290 Co273 1.993 . S
N290 N289 1.388 . S
N290 C291 1.346 . S
C291 N290 1.346 . S
C291 C292 1.396 . S
C291 C301 1.510 . S
C292 C288 1.401 . S
C292 C291 1.396 . S
C293 C288 1.499 . S
C293 H294 0.959 . S
C293 H295 0.960 . S
C293 H296 0.961 . S
H294 C293 0.959 . S
H295 C293 0.960 . S
H296 C293 0.961 . S
O297 Co272 1.967 . S
O297 C305 1.258 . S
O298 Co273 1.941 . S
O298 C305 1.266 . S
H299 C301 0.959 . S
H300 C301 0.961 . S
C301 C291 1.510 . S
C301 H299 0.959 . S
C301 H300 0.961 . S
C301 H302 0.960 . S
H302 C301 0.960 . S
H303 N283 0.862 . S
O304 Co272 1.920 . S
O304 C277 1.289 . S
C305 O297 1.258 . S
C305 O298 1.266 . S
Co306 O309 1.970 . S
Co306 N323 1.989 . S
Co306 O331 1.967 . S
Co306 O338 1.920 . S
Co307 O310 1.966 . S
Co307 N316 2.022 . S
Co307 N324 1.993 . S
Co307 O332 1.941 . S
C308 O309 1.258 . S
C308 O310 1.263 . S
O309 Co306 1.970 . S
O309 C308 1.258 . S
O310 Co307 1.966 . S
O310 C308 1.263 . S
C311 O312 1.235 . S
C311 O338 1.289 . S
O312 C311 1.235 . S
C313 C315 1.400 . S
C313 N316 1.351 1_455 S
C313 C318 1.501 . S
C314 C315 1.387 . S
C314 N317 1.341 1_455 S
C315 C313 1.400 . S
C315 C314 1.387 . S
N316 Co307 2.022 . S
N316 C313 1.351 1_655 S
N316 N317 1.365 . S
N317 C314 1.341 1_655 S
N317 N316 1.365 . S
N317 H337 0.862 . S
C318 C313 1.501 . S
C318 H319 0.961 . S
C318 H320 0.961 . S
C318 H321 0.960 . S
H319 C318 0.961 . S
H320 C318 0.961 . S
H321 C318 0.960 . S
C322 N323 1.342 . S
C322 C326 1.401 . S
C322 C327 1.499 . S
N323 Co306 1.989 . S
N323 C322 1.342 . S
N323 N324 1.388 . S
N324 Co307 1.993 . S
N324 N323 1.388 . S
N324 C325 1.346 . S
C325 N324 1.346 . S
C325 C326 1.396 . S
C325 C335 1.510 . S
C326 C322 1.401 . S
C326 C325 1.396 . S
C327 C322 1.499 . S
C327 H328 0.959 . S
C327 H329 0.960 . S
C327 H330 0.961 . S
H328 C327 0.959 . S
H329 C327 0.960 . S
H330 C327 0.961 . S
O331 Co306 1.967 . S
O331 C339 1.258 . S
O332 Co307 1.941 . S
O332 C339 1.266 . S
H333 C335 0.959 . S
H334 C335 0.961 . S
C335 C325 1.510 . S
C335 H333 0.959 . S
C335 H334 0.961 . S
C335 H336 0.960 . S
H336 C335 0.960 . S
H337 N317 0.862 . S
O338 Co306 1.920 . S
O338 C311 1.289 . S
C339 O331 1.258 . S
C339 O332 1.266 . S
Co340 O343 1.970 . S
Co340 N357 1.989 . S
Co340 O365 1.967 . S
Co340 O372 1.920 . S
Co341 O344 1.966 . S
Co341 N350 2.022 . S
Co341 N358 1.993 . S
Co341 O366 1.941 . S
C342 O343 1.258 . S
C342 O344 1.263 . S
O343 Co340 1.970 . S
O343 C342 1.258 . S
O344 Co341 1.966 . S
O344 C342 1.263 . S
C345 O346 1.235 . S
C345 O372 1.289 . S
O346 C345 1.235 . S
C347 C349 1.400 . S
C347 N350 1.351 1_545 S
C347 C352 1.501 . S
C348 C349 1.387 . S
C348 N351 1.341 1_545 S
C349 C347 1.400 . S
C349 C348 1.387 . S
N350 Co341 2.022 . S
N350 C347 1.351 1_565 S
N350 N351 1.365 . S
N351 C348 1.341 1_565 S
N351 N350 1.365 . S
N351 H371 0.862 . S
C352 C347 1.501 . S
C352 H353 0.961 . S
C352 H354 0.961 . S
C352 H355 0.960 . S
H353 C352 0.961 . S
H354 C352 0.961 . S
H355 C352 0.960 . S
C356 N357 1.342 . S
C356 C360 1.401 . S
C356 C361 1.499 . S
N357 Co340 1.989 . S
N357 C356 1.342 . S
N357 N358 1.388 . S
N358 Co341 1.993 . S
N358 N357 1.388 . S
N358 C359 1.346 . S
C359 N358 1.346 . S
C359 C360 1.396 . S
C359 C369 1.510 . S
C360 C356 1.401 . S
C360 C359 1.396 . S
C361 C356 1.499 . S
C361 H362 0.959 . S
C361 H363 0.960 . S
C361 H364 0.961 . S
H362 C361 0.959 . S
H363 C361 0.960 . S
H364 C361 0.961 . S
O365 Co340 1.967 . S
O365 C373 1.258 . S
O366 Co341 1.941 . S
O366 C373 1.266 . S
H367 C369 0.959 . S
H368 C369 0.961 . S
C369 C359 1.510 . S
C369 H367 0.959 . S
C369 H368 0.961 . S
C369 H370 0.960 . S
H370 C369 0.960 . S
H371 N351 0.862 . S
O372 Co340 1.920 . S
O372 C345 1.289 . S
C373 O365 1.258 . S
C373 O366 1.266 . S
Co374 O377 1.970 . S
Co374 N391 1.989 . S
Co374 O399 1.967 . S
Co374 O406 1.920 . S
Co375 O378 1.966 . S
Co375 N384 2.022 . S
Co375 N392 1.993 . S
Co375 O400 1.941 . S
C376 O377 1.258 . S
C376 O378 1.263 . S
O377 Co374 1.970 . S
O377 C376 1.258 . S
O378 Co375 1.966 . S
O378 C376 1.263 . S
C379 O380 1.235 . S
C379 O406 1.289 . S
O380 C379 1.235 . S
C381 C383 1.400 . S
C381 N384 1.351 1_655 S
C381 C386 1.501 . S
C382 C383 1.387 . S
C382 N385 1.341 1_655 S
C383 C381 1.400 . S
C383 C382 1.387 . S
N384 Co375 2.022 . S
N384 C381 1.351 1_455 S
N384 N385 1.365 . S
N385 C382 1.341 1_455 S
N385 N384 1.365 . S
N385 H405 0.862 . S
C386 C381 1.501 . S
C386 H387 0.961 . S
C386 H388 0.961 . S
C386 H389 0.960 . S
H387 C386 0.961 . S
H388 C386 0.961 . S
H389 C386 0.960 . S
C390 N391 1.342 . S
C390 C394 1.401 . S
C390 C395 1.499 . S
N391 Co374 1.989 . S
N391 C390 1.342 . S
N391 N392 1.388 . S
N392 Co375 1.993 . S
N392 N391 1.388 . S
N392 C393 1.346 . S
C393 N392 1.346 . S
C393 C394 1.396 . S
C393 C403 1.510 . S
C394 C390 1.401 . S
C394 C393 1.396 . S
C395 C390 1.499 . S
C395 H396 0.959 . S
C395 H397 0.960 . S
C395 H398 0.961 . S
H396 C395 0.959 . S
H397 C395 0.960 . S
H398 C395 0.961 . S
O399 Co374 1.967 . S
O399 C407 1.258 . S
O400 Co375 1.941 . S
O400 C407 1.266 . S
H401 C403 0.959 . S
H402 C403 0.961 . S
C403 C393 1.510 . S
C403 H401 0.959 . S
C403 H402 0.961 . S
C403 H404 0.960 . S
H404 C403 0.960 . S
H405 N385 0.862 . S
O406 Co374 1.920 . S
O406 C379 1.289 . S
C407 O399 1.258 . S
C407 O400 1.266 . S
Co408 O411 1.970 . S
Co408 N425 1.989 . S
Co408 O433 1.967 . S
Co408 O440 1.920 . S
Co409 O412 1.966 . S
Co409 N418 2.022 . S
Co409 N426 1.993 . S
Co409 O434 1.941 . S
C410 O411 1.258 . S
C410 O412 1.263 . S
O411 Co408 1.970 . S
O411 C410 1.258 . S
O412 Co409 1.966 . S
O412 C410 1.263 . S
C413 O414 1.235 . S
C413 O440 1.289 . S
O414 C413 1.235 . S
C415 C417 1.400 . S
C415 N418 1.351 1_545 S
C415 C420 1.501 . S
C416 C417 1.387 . S
C416 N419 1.341 1_545 S
C417 C415 1.400 . S
C417 C416 1.387 . S
N418 Co409 2.022 . S
N418 C415 1.351 1_565 S
N418 N419 1.365 . S
N419 C416 1.341 1_565 S
N419 N418 1.365 . S
N419 H439 0.862 . S
C420 C415 1.501 . S
C420 H421 0.961 . S
C420 H422 0.961 . S
C420 H423 0.960 . S
H421 C420 0.961 . S
H422 C420 0.961 . S
H423 C420 0.960 . S
C424 N425 1.342 . S
C424 C428 1.401 . S
C424 C429 1.499 . S
N425 Co408 1.989 . S
N425 C424 1.342 . S
N425 N426 1.388 . S
N426 Co409 1.993 . S
N426 N425 1.388 . S
N426 C427 1.346 . S
C427 N426 1.346 . S
C427 C428 1.396 . S
C427 C437 1.510 . S
C428 C424 1.401 . S
C428 C427 1.396 . S
C429 C424 1.499 . S
C429 H430 0.959 . S
C429 H431 0.960 . S
C429 H432 0.961 . S
H430 C429 0.959 . S
H431 C429 0.960 . S
H432 C429 0.961 . S
O433 Co408 1.967 . S
O433 C441 1.258 . S
O434 Co409 1.941 . S
O434 C441 1.266 . S
H435 C437 0.959 . S
H436 C437 0.961 . S
C437 C427 1.510 . S
C437 H435 0.959 . S
C437 H436 0.961 . S
C437 H438 0.960 . S
H438 C437 0.960 . S
H439 N419 0.862 . S
O440 Co408 1.920 . S
O440 C413 1.289 . S
C441 O433 1.258 . S
C441 O434 1.266 . S
Co442 O445 1.970 . S
Co442 N459 1.989 . S
Co442 O467 1.967 . S
Co442 O474 1.920 . S
Co443 O446 1.966 . S
Co443 N452 2.022 . S
Co443 N460 1.993 . S
Co443 O468 1.941 . S
C444 O445 1.258 . S
C444 O446 1.263 . S
O445 Co442 1.970 . S
O445 C444 1.258 . S
O446 Co443 1.966 . S
O446 C444 1.263 . S
C447 O448 1.235 . S
C447 O474 1.289 . S
O448 C447 1.235 . S
C449 C451 1.400 . S
C449 N452 1.351 1_655 S
C449 C454 1.501 . S
C450 C451 1.387 . S
C450 N453 1.341 1_655 S
C451 C449 1.400 . S
C451 C450 1.387 . S
N452 Co443 2.022 . S
N452 C449 1.351 1_455 S
N452 N453 1.365 . S
N453 C450 1.341 1_455 S
N453 N452 1.365 . S
N453 H473 0.862 . S
C454 C449 1.501 . S
C454 H455 0.961 . S
C454 H456 0.961 . S
C454 H457 0.960 . S
H455 C454 0.961 . S
H456 C454 0.961 . S
H457 C454 0.960 . S
C458 N459 1.342 . S
C458 C462 1.401 . S
C458 C463 1.499 . S
N459 Co442 1.989 . S
N459 C458 1.342 . S
N459 N460 1.388 . S
N460 Co443 1.993 . S
N460 N459 1.388 . S
N460 C461 1.346 . S
C461 N460 1.346 . S
C461 C462 1.396 . S
C461 C471 1.510 . S
C462 C458 1.401 . S
C462 C461 1.396 . S
C463 C458 1.499 . S
C463 H464 0.959 . S
C463 H465 0.960 . S
C463 H466 0.961 . S
H464 C463 0.959 . S
H465 C463 0.960 . S
H466 C463 0.961 . S
O467 Co442 1.967 . S
O467 C475 1.258 . S
O468 Co443 1.941 . S
O468 C475 1.266 . S
H469 C471 0.959 . S
H470 C471 0.961 . S
C471 C461 1.510 . S
C471 H469 0.959 . S
C471 H470 0.961 . S
C471 H472 0.960 . S
H472 C471 0.960 . S
H473 N453 0.862 . S
O474 Co442 1.920 . S
O474 C447 1.289 . S
C475 O467 1.258 . S
C475 O468 1.266 . S
Co476 O479 1.970 . S
Co476 N493 1.989 . S
Co476 O501 1.967 . S
Co476 O508 1.920 . S
Co477 O480 1.966 . S
Co477 N486 2.022 . S
Co477 N494 1.993 . S
Co477 O502 1.941 . S
C478 O479 1.258 . S
C478 O480 1.263 . S
O479 Co476 1.970 . S
O479 C478 1.258 . S
O480 Co477 1.966 . S
O480 C478 1.263 . S
C481 O482 1.235 . S
C481 O508 1.289 . S
O482 C481 1.235 . S
C483 C485 1.400 . S
C483 N486 1.351 1_565 S
C483 C488 1.501 . S
C484 C485 1.387 . S
C484 N487 1.341 1_565 S
C485 C483 1.400 . S
C485 C484 1.387 . S
N486 Co477 2.022 . S
N486 C483 1.351 1_545 S
N486 N487 1.365 . S
N487 C484 1.341 1_545 S
N487 N486 1.365 . S
N487 H507 0.862 . S
C488 C483 1.501 . S
C488 H489 0.961 . S
C488 H490 0.961 . S
C488 H491 0.960 . S
H489 C488 0.961 . S
H490 C488 0.961 . S
H491 C488 0.960 . S
C492 N493 1.342 . S
C492 C496 1.401 . S
C492 C497 1.499 . S
N493 Co476 1.989 . S
N493 C492 1.342 . S
N493 N494 1.388 . S
N494 Co477 1.993 . S
N494 N493 1.388 . S
N494 C495 1.346 . S
C495 N494 1.346 . S
C495 C496 1.396 . S
C495 C505 1.510 . S
C496 C492 1.401 . S
C496 C495 1.396 . S
C497 C492 1.499 . S
C497 H498 0.959 . S
C497 H499 0.960 . S
C497 H500 0.961 . S
H498 C497 0.959 . S
H499 C497 0.960 . S
H500 C497 0.961 . S
O501 Co476 1.967 . S
O501 C509 1.258 . S
O502 Co477 1.941 . S
O502 C509 1.266 . S
H503 C505 0.959 . S
H504 C505 0.961 . S
C505 C495 1.510 . S
C505 H503 0.959 . S
C505 H504 0.961 . S
C505 H506 0.960 . S
H506 C505 0.960 . S
H507 N487 0.862 . S
O508 Co476 1.920 . S
O508 C481 1.289 . S
C509 O501 1.258 . S
C509 O502 1.266 . S
Co510 O513 1.970 . S
Co510 N527 1.989 . S
Co510 O535 1.967 . S
Co510 O542 1.920 . S
Co511 O514 1.966 . S
Co511 N520 2.022 . S
Co511 N528 1.993 . S
Co511 O536 1.941 . S
C512 O513 1.258 . S
C512 O514 1.263 . S
O513 Co510 1.970 . S
O513 C512 1.258 . S
O514 Co511 1.966 . S
O514 C512 1.263 . S
C515 O516 1.235 . S
C515 O542 1.289 . S
O516 C515 1.235 . S
C517 C519 1.400 . S
C517 N520 1.351 1_455 S
C517 C522 1.501 . S
C518 C519 1.387 . S
C518 N521 1.341 1_455 S
C519 C517 1.400 . S
C519 C518 1.387 . S
N520 Co511 2.022 . S
N520 C517 1.351 1_655 S
N520 N521 1.365 . S
N521 C518 1.341 1_655 S
N521 N520 1.365 . S
N521 H541 0.862 . S
C522 C517 1.501 . S
C522 H523 0.961 . S
C522 H524 0.961 . S
C522 H525 0.960 . S
H523 C522 0.961 . S
H524 C522 0.961 . S
H525 C522 0.960 . S
C526 N527 1.342 . S
C526 C530 1.401 . S
C526 C531 1.499 . S
N527 Co510 1.989 . S
N527 C526 1.342 . S
N527 N528 1.388 . S
N528 Co511 1.993 . S
N528 N527 1.388 . S
N528 C529 1.346 . S
C529 N528 1.346 . S
C529 C530 1.396 . S
C529 C539 1.510 . S
C530 C526 1.401 . S
C530 C529 1.396 . S
C531 C526 1.499 . S
C531 H532 0.959 . S
C531 H533 0.960 . S
C531 H534 0.961 . S
H532 C531 0.959 . S
H533 C531 0.960 . S
H534 C531 0.961 . S
O535 Co510 1.967 . S
O535 C543 1.258 . S
O536 Co511 1.941 . S
O536 C543 1.266 . S
H537 C539 0.959 . S
H538 C539 0.961 . S
C539 C529 1.510 . S
C539 H537 0.959 . S
C539 H538 0.961 . S
C539 H540 0.960 . S
H540 C539 0.960 . S
H541 N521 0.862 . S
O542 Co510 1.920 . S
O542 C515 1.289 . S
C543 O535 1.258 . S
C543 O536 1.266 . S
Co544 O547 1.970 . S
Co544 N561 1.989 . S
Co544 O569 1.967 . S
Co544 O576 1.920 . S
Co545 O548 1.966 . S
Co545 N554 2.022 . S
Co545 N562 1.993 . S
Co545 O570 1.941 . S
C546 O547 1.258 . S
C546 O548 1.263 . S
O547 Co544 1.970 . S
O547 C546 1.258 . S
O548 Co545 1.966 . S
O548 C546 1.263 . S
C549 O550 1.235 . S
C549 O576 1.289 . S
O550 C549 1.235 . S
C551 C553 1.400 . S
C551 N554 1.351 1_556 S
C551 C556 1.501 . S
C552 C553 1.387 . S
C552 N555 1.341 1_556 S
C553 C551 1.400 . S
C553 C552 1.387 . S
N554 Co545 2.022 . S
N554 C551 1.351 1_554 S
N554 N555 1.365 . S
N555 C552 1.341 1_554 S
N555 N554 1.365 . S
N555 H575 0.862 . S
C556 C551 1.501 . S
C556 H557 0.961 . S
C556 H558 0.961 . S
C556 H559 0.960 . S
H557 C556 0.961 . S
H558 C556 0.961 . S
H559 C556 0.960 . S
C560 N561 1.342 . S
C560 C564 1.401 . S
C560 C565 1.499 . S
N561 Co544 1.989 . S
N561 C560 1.342 . S
N561 N562 1.388 . S
N562 Co545 1.993 . S
N562 N561 1.388 . S
N562 C563 1.346 . S
C563 N562 1.346 . S
C563 C564 1.396 . S
C563 C573 1.510 . S
C564 C560 1.401 . S
C564 C563 1.396 . S
C565 C560 1.499 . S
C565 H566 0.959 . S
C565 H567 0.960 . S
C565 H568 0.961 . S
H566 C565 0.959 . S
H567 C565 0.960 . S
H568 C565 0.961 . S
O569 Co544 1.967 . S
O569 C577 1.258 . S
O570 Co545 1.941 . S
O570 C577 1.266 . S
H571 C573 0.959 . S
H572 C573 0.961 . S
C573 C563 1.510 . S
C573 H571 0.959 . S
C573 H572 0.961 . S
C573 H574 0.960 . S
H574 C573 0.960 . S
H575 N555 0.862 . S
O576 Co544 1.920 . S
O576 C549 1.289 . S
C577 O569 1.258 . S
C577 O570 1.266 . S
Co578 O581 1.970 . S
Co578 N595 1.989 . S
Co578 O603 1.967 . S
Co578 O610 1.920 . S
Co579 O582 1.966 . S
Co579 N588 2.022 . S
Co579 N596 1.993 . S
Co579 O604 1.941 . S
C580 O581 1.258 . S
C580 O582 1.263 . S
O581 Co578 1.970 . S
O581 C580 1.258 . S
O582 Co579 1.966 . S
O582 C580 1.263 . S
C583 O584 1.235 . S
C583 O610 1.289 . S
O584 C583 1.235 . S
C585 C587 1.400 . S
C585 N588 1.351 1_554 S
C585 C590 1.501 . S
C586 C587 1.387 . S
C586 N589 1.341 1_554 S
C587 C585 1.400 . S
C587 C586 1.387 . S
N588 Co579 2.022 . S
N588 C585 1.351 1_556 S
N588 N589 1.365 . S
N589 C586 1.341 1_556 S
N589 N588 1.365 . S
N589 H609 0.862 . S
C590 C585 1.501 . S
C590 H591 0.961 . S
C590 H592 0.961 . S
C590 H593 0.960 . S
H591 C590 0.961 . S
H592 C590 0.961 . S
H593 C590 0.960 . S
C594 N595 1.342 . S
C594 C598 1.401 . S
C594 C599 1.499 . S
N595 Co578 1.989 . S
N595 C594 1.342 . S
N595 N596 1.388 . S
N596 Co579 1.993 . S
N596 N595 1.388 . S
N596 C597 1.346 . S
C597 N596 1.346 . S
C597 C598 1.396 . S
C597 C607 1.510 . S
C598 C594 1.401 . S
C598 C597 1.396 . S
C599 C594 1.499 . S
C599 H600 0.959 . S
C599 H601 0.960 . S
C599 H602 0.961 . S
H600 C599 0.959 . S
H601 C599 0.960 . S
H602 C599 0.961 . S
O603 Co578 1.967 . S
O603 C611 1.258 . S
O604 Co579 1.941 . S
O604 C611 1.266 . S
H605 C607 0.959 . S
H606 C607 0.961 . S
C607 C597 1.510 . S
C607 H605 0.959 . S
C607 H606 0.961 . S
C607 H608 0.960 . S
H608 C607 0.960 . S
H609 N589 0.862 . S
O610 Co578 1.920 . S
O610 C583 1.289 . S
C611 O603 1.258 . S
C611 O604 1.266 . S
Co612 O615 1.970 . S
Co612 N629 1.989 . S
Co612 O637 1.967 . S
Co612 O644 1.920 . S
Co613 O616 1.966 . S
Co613 N622 2.022 . S
Co613 N630 1.993 . S
Co613 O638 1.941 . S
C614 O615 1.258 . S
C614 O616 1.263 . S
O615 Co612 1.970 . S
O615 C614 1.258 . S
O616 Co613 1.966 . S
O616 C614 1.263 . S
C617 O618 1.235 . S
C617 O644 1.289 . S
O618 C617 1.235 . S
C619 C621 1.400 . S
C619 N622 1.351 1_554 S
C619 C624 1.501 . S
C620 C621 1.387 . S
C620 N623 1.341 1_554 S
C621 C619 1.400 . S
C621 C620 1.387 . S
N622 Co613 2.022 . S
N622 C619 1.351 1_556 S
N622 N623 1.365 . S
N623 C620 1.341 1_556 S
N623 N622 1.365 . S
N623 H643 0.862 . S
C624 C619 1.501 . S
C624 H625 0.961 . S
C624 H626 0.961 . S
C624 H627 0.960 . S
H625 C624 0.961 . S
H626 C624 0.961 . S
H627 C624 0.960 . S
C628 N629 1.342 . S
C628 C632 1.401 . S
C628 C633 1.499 . S
N629 Co612 1.989 . S
N629 C628 1.342 . S
N629 N630 1.388 . S
N630 Co613 1.993 . S
N630 N629 1.388 . S
N630 C631 1.346 . S
C631 N630 1.346 . S
C631 C632 1.396 . S
C631 C641 1.510 . S
C632 C628 1.401 . S
C632 C631 1.396 . S
C633 C628 1.499 . S
C633 H634 0.959 . S
C633 H635 0.960 . S
C633 H636 0.961 . S
H634 C633 0.959 . S
H635 C633 0.960 . S
H636 C633 0.961 . S
O637 Co612 1.967 . S
O637 C645 1.258 . S
O638 Co613 1.941 . S
O638 C645 1.266 . S
H639 C641 0.959 . S
H640 C641 0.961 . S
C641 C631 1.510 . S
C641 H639 0.959 . S
C641 H640 0.961 . S
C641 H642 0.960 . S
H642 C641 0.960 . S
H643 N623 0.862 . S
O644 Co612 1.920 . S
O644 C617 1.289 . S
C645 O637 1.258 . S
C645 O638 1.266 . S
Co646 O649 1.970 . S
Co646 N663 1.989 . S
Co646 O671 1.967 . S
Co646 O678 1.920 . S
Co647 O650 1.966 . S
Co647 N656 2.022 . S
Co647 N664 1.993 . S
Co647 O672 1.941 . S
C648 O649 1.258 . S
C648 O650 1.263 . S
O649 Co646 1.970 . S
O649 C648 1.258 . S
O650 Co647 1.966 . S
O650 C648 1.263 . S
C651 O652 1.235 . S
C651 O678 1.289 . S
O652 C651 1.235 . S
C653 C655 1.400 . S
C653 N656 1.351 1_554 S
C653 C658 1.501 . S
C654 C655 1.387 . S
C654 N657 1.341 1_554 S
C655 C653 1.400 . S
C655 C654 1.387 . S
N656 Co647 2.022 . S
N656 C653 1.351 1_556 S
N656 N657 1.365 . S
N657 C654 1.341 1_556 S
N657 N656 1.365 . S
N657 H677 0.862 . S
C658 C653 1.501 . S
C658 H659 0.961 . S
C658 H660 0.961 . S
C658 H661 0.960 . S
H659 C658 0.961 . S
H660 C658 0.961 . S
H661 C658 0.960 . S
C662 N663 1.342 . S
C662 C666 1.401 . S
C662 C667 1.499 . S
N663 Co646 1.989 . S
N663 C662 1.342 . S
N663 N664 1.388 . S
N664 Co647 1.993 . S
N664 N663 1.388 . S
N664 C665 1.346 . S
C665 N664 1.346 . S
C665 C666 1.396 . S
C665 C675 1.510 . S
C666 C662 1.401 . S
C666 C665 1.396 . S
C667 C662 1.499 . S
C667 H668 0.959 . S
C667 H669 0.960 . S
C667 H670 0.961 . S
H668 C667 0.959 . S
H669 C667 0.960 . S
H670 C667 0.961 . S
O671 Co646 1.967 . S
O671 C679 1.258 . S
O672 Co647 1.941 . S
O672 C679 1.266 . S
H673 C675 0.959 . S
H674 C675 0.961 . S
C675 C665 1.510 . S
C675 H673 0.959 . S
C675 H674 0.961 . S
C675 H676 0.960 . S
H676 C675 0.960 . S
H677 N657 0.862 . S
O678 Co646 1.920 . S
O678 C651 1.289 . S
C679 O671 1.258 . S
C679 O672 1.266 . S
Co680 O683 1.970 . S
Co680 N697 1.989 . S
Co680 O705 1.967 . S
Co680 O712 1.920 . S
Co681 O684 1.966 . S
Co681 N690 2.022 . S
Co681 N698 1.993 . S
Co681 O706 1.941 . S
C682 O683 1.258 . S
C682 O684 1.263 . S
O683 Co680 1.970 . S
O683 C682 1.258 . S
O684 Co681 1.966 . S
O684 C682 1.263 . S
C685 O686 1.235 . S
C685 O712 1.289 . S
O686 C685 1.235 . S
C687 C689 1.400 . S
C687 N690 1.351 1_554 S
C687 C692 1.501 . S
C688 C689 1.387 . S
C688 N691 1.341 1_554 S
C689 C687 1.400 . S
C689 C688 1.387 . S
N690 Co681 2.022 . S
N690 C687 1.351 1_556 S
N690 N691 1.365 . S
N691 C688 1.341 1_556 S
N691 N690 1.365 . S
N691 H711 0.862 . S
C692 C687 1.501 . S
C692 H693 0.961 . S
C692 H694 0.961 . S
C692 H695 0.960 . S
H693 C692 0.961 . S
H694 C692 0.961 . S
H695 C692 0.960 . S
C696 N697 1.342 . S
C696 C700 1.401 . S
C696 C701 1.499 . S
N697 Co680 1.989 . S
N697 C696 1.342 . S
N697 N698 1.388 . S
N698 Co681 1.993 . S
N698 N697 1.388 . S
N698 C699 1.346 . S
C699 N698 1.346 . S
C699 C700 1.396 . S
C699 C709 1.510 . S
C700 C696 1.401 . S
C700 C699 1.396 . S
C701 C696 1.499 . S
C701 H702 0.959 . S
C701 H703 0.960 . S
C701 H704 0.961 . S
H702 C701 0.959 . S
H703 C701 0.960 . S
H704 C701 0.961 . S
O705 Co680 1.967 . S
O705 C713 1.258 . S
O706 Co681 1.941 . S
O706 C713 1.266 . S
H707 C709 0.959 . S
H708 C709 0.961 . S
C709 C699 1.510 . S
C709 H707 0.959 . S
C709 H708 0.961 . S
C709 H710 0.960 . S
H710 C709 0.960 . S
H711 N691 0.862 . S
O712 Co680 1.920 . S
O712 C685 1.289 . S
C713 O705 1.258 . S
C713 O706 1.266 . S
Co714 O717 1.970 . S
Co714 N731 1.989 . S
Co714 O739 1.967 . S
Co714 O746 1.920 . S
Co715 O718 1.966 . S
Co715 N724 2.022 . S
Co715 N732 1.993 . S
Co715 O740 1.941 . S
C716 O717 1.258 . S
C716 O718 1.263 . S
O717 Co714 1.970 . S
O717 C716 1.258 . S
O718 Co715 1.966 . S
O718 C716 1.263 . S
C719 O720 1.235 . S
C719 O746 1.289 . S
O720 C719 1.235 . S
C721 C723 1.400 . S
C721 N724 1.351 1_556 S
C721 C726 1.501 . S
C722 C723 1.387 . S
C722 N725 1.341 1_556 S
C723 C721 1.400 . S
C723 C722 1.387 . S
N724 Co715 2.022 . S
N724 C721 1.351 1_554 S
N724 N725 1.365 . S
N725 C722 1.341 1_554 S
N725 N724 1.365 . S
N725 H745 0.862 . S
C726 C721 1.501 . S
C726 H727 0.961 . S
C726 H728 0.961 . S
C726 H729 0.960 . S
H727 C726 0.961 . S
H728 C726 0.961 . S
H729 C726 0.960 . S
C730 N731 1.342 . S
C730 C734 1.401 . S
C730 C735 1.499 . S
N731 Co714 1.989 . S
N731 C730 1.342 . S
N731 N732 1.388 . S
N732 Co715 1.993 . S
N732 N731 1.388 . S
N732 C733 1.346 . S
C733 N732 1.346 . S
C733 C734 1.396 . S
C733 C743 1.510 . S
C734 C730 1.401 . S
C734 C733 1.396 . S
C735 C730 1.499 . S
C735 H736 0.959 . S
C735 H737 0.960 . S
C735 H738 0.961 . S
H736 C735 0.959 . S
H737 C735 0.960 . S
H738 C735 0.961 . S
O739 Co714 1.967 . S
O739 C747 1.258 . S
O740 Co715 1.941 . S
O740 C747 1.266 . S
H741 C743 0.959 . S
H742 C743 0.961 . S
C743 C733 1.510 . S
C743 H741 0.959 . S
C743 H742 0.961 . S
C743 H744 0.960 . S
H744 C743 0.960 . S
H745 N725 0.862 . S
O746 Co714 1.920 . S
O746 C719 1.289 . S
C747 O739 1.258 . S
C747 O740 1.266 . S
Co748 O751 1.970 . S
Co748 N765 1.989 . S
Co748 O773 1.967 . S
Co748 O780 1.920 . S
Co749 O752 1.966 . S
Co749 N758 2.022 . S
Co749 N766 1.993 . S
Co749 O774 1.941 . S
C750 O751 1.258 . S
C750 O752 1.263 . S
O751 Co748 1.970 . S
O751 C750 1.258 . S
O752 Co749 1.966 . S
O752 C750 1.263 . S
C753 O754 1.235 . S
C753 O780 1.289 . S
O754 C753 1.235 . S
C755 C757 1.400 . S
C755 N758 1.351 1_556 S
C755 C760 1.501 . S
C756 C757 1.387 . S
C756 N759 1.341 1_556 S
C757 C755 1.400 . S
C757 C756 1.387 . S
N758 Co749 2.022 . S
N758 C755 1.351 1_554 S
N758 N759 1.365 . S
N759 C756 1.341 1_554 S
N759 N758 1.365 . S
N759 H779 0.862 . S
C760 C755 1.501 . S
C760 H761 0.961 . S
C760 H762 0.961 . S
C760 H763 0.960 . S
H761 C760 0.961 . S
H762 C760 0.961 . S
H763 C760 0.960 . S
C764 N765 1.342 . S
C764 C768 1.401 . S
C764 C769 1.499 . S
N765 Co748 1.989 . S
N765 C764 1.342 . S
N765 N766 1.388 . S
N766 Co749 1.993 . S
N766 N765 1.388 . S
N766 C767 1.346 . S
C767 N766 1.346 . S
C767 C768 1.396 . S
C767 C777 1.510 . S
C768 C764 1.401 . S
C768 C767 1.396 . S
C769 C764 1.499 . S
C769 H770 0.959 . S
C769 H771 0.960 . S
C769 H772 0.961 . S
H770 C769 0.959 . S
H771 C769 0.960 . S
H772 C769 0.961 . S
O773 Co748 1.967 . S
O773 C781 1.258 . S
O774 Co749 1.941 . S
O774 C781 1.266 . S
H775 C777 0.959 . S
H776 C777 0.961 . S
C777 C767 1.510 . S
C777 H775 0.959 . S
C777 H776 0.961 . S
C777 H778 0.960 . S
H778 C777 0.960 . S
H779 N759 0.862 . S
O780 Co748 1.920 . S
O780 C753 1.289 . S
C781 O773 1.258 . S
C781 O774 1.266 . S
Co782 O785 1.970 . S
Co782 N799 1.989 . S
Co782 O807 1.967 . S
Co782 O814 1.920 . S
Co783 O786 1.966 . S
Co783 N792 2.022 . S
Co783 N800 1.993 . S
Co783 O808 1.941 . S
C784 O785 1.258 . S
C784 O786 1.263 . S
O785 Co782 1.970 . S
O785 C784 1.258 . S
O786 Co783 1.966 . S
O786 C784 1.263 . S
C787 O788 1.235 . S
C787 O814 1.289 . S
O788 C787 1.235 . S
C789 C791 1.400 . S
C789 N792 1.351 1_556 S
C789 C794 1.501 . S
C790 C791 1.387 . S
C790 N793 1.341 1_556 S
C791 C789 1.400 . S
C791 C790 1.387 . S
N792 Co783 2.022 . S
N792 C789 1.351 1_554 S
N792 N793 1.365 . S
N793 C790 1.341 1_554 S
N793 N792 1.365 . S
N793 H813 0.862 . S
C794 C789 1.501 . S
C794 H795 0.961 . S
C794 H796 0.961 . S
C794 H797 0.960 . S
H795 C794 0.961 . S
H796 C794 0.961 . S
H797 C794 0.960 . S
C798 N799 1.342 . S
C798 C802 1.401 . S
C798 C803 1.499 . S
N799 Co782 1.989 . S
N799 C798 1.342 . S
N799 N800 1.388 . S
N800 Co783 1.993 . S
N800 N799 1.388 . S
N800 C801 1.346 . S
C801 N800 1.346 . S
C801 C802 1.396 . S
C801 C811 1.510 . S
C802 C798 1.401 . S
C802 C801 1.396 . S
C803 C798 1.499 . S
C803 H804 0.959 . S
C803 H805 0.960 . S
C803 H806 0.961 . S
H804 C803 0.959 . S
H805 C803 0.960 . S
H806 C803 0.961 . S
O807 Co782 1.967 . S
O807 C815 1.258 . S
O808 Co783 1.941 . S
O808 C815 1.266 . S
H809 C811 0.959 . S
H810 C811 0.961 . S
C811 C801 1.510 . S
C811 H809 0.959 . S
C811 H810 0.961 . S
C811 H812 0.960 . S
H812 C811 0.960 . S
H813 N793 0.862 . S
O814 Co782 1.920 . S
O814 C787 1.289 . S
C815 O807 1.258 . S
C815 O808 1.266 . S
Co816 O819 1.970 . S
Co816 N833 1.989 . S
Co816 O841 1.967 . S
Co816 O848 1.920 . S
Co817 O820 1.966 . S
Co817 N826 2.022 . S
Co817 N834 1.993 . S
Co817 O842 1.941 . S
C818 O819 1.258 . S
C818 O820 1.263 . S
O819 Co816 1.970 . S
O819 C818 1.258 . S
O820 Co817 1.966 . S
O820 C818 1.263 . S
C821 O822 1.235 . S
C821 O848 1.289 . S
O822 C821 1.235 . S
C823 C825 1.400 . S
C823 N826 1.351 . S
C823 C828 1.501 . S
C824 C825 1.387 . S
C824 N827 1.341 . S
C825 C823 1.400 . S
C825 C824 1.387 . S
N826 Co817 2.022 . S
N826 C823 1.351 . S
N826 N827 1.365 . S
N827 C824 1.341 . S
N827 N826 1.365 . S
N827 H847 0.862 . S
C828 C823 1.501 . S
C828 H829 0.961 . S
C828 H830 0.961 . S
C828 H831 0.960 . S
H829 C828 0.961 . S
H830 C828 0.961 . S
H831 C828 0.960 . S
C832 N833 1.342 . S
C832 C836 1.401 . S
C832 C837 1.499 . S
N833 Co816 1.989 . S
N833 C832 1.342 . S
N833 N834 1.388 . S
N834 Co817 1.993 . S
N834 N833 1.388 . S
N834 C835 1.346 . S
C835 N834 1.346 . S
C835 C836 1.396 . S
C835 C845 1.510 . S
C836 C832 1.401 . S
C836 C835 1.396 . S
C837 C832 1.499 . S
C837 H838 0.959 . S
C837 H839 0.960 . S
C837 H840 0.961 . S
H838 C837 0.959 . S
H839 C837 0.960 . S
H840 C837 0.961 . S
O841 Co816 1.967 . S
O841 C849 1.258 . S
O842 Co817 1.941 . S
O842 C849 1.266 . S
H843 C845 0.959 . S
H844 C845 0.961 . S
C845 C835 1.510 . S
C845 H843 0.959 . S
C845 H844 0.961 . S
C845 H846 0.960 . S
H846 C845 0.960 . S
H847 N827 0.862 . S
O848 Co816 1.920 . S
O848 C821 1.289 . S
C849 O841 1.258 . S
C849 O842 1.266 . S
Co850 O853 1.970 . S
Co850 N867 1.989 . S
Co850 O875 1.967 . S
Co850 O882 1.920 . S
Co851 O854 1.966 . S
Co851 N860 2.022 . S
Co851 N868 1.993 . S
Co851 O876 1.941 . S
C852 O853 1.258 . S
C852 O854 1.263 . S
O853 Co850 1.970 . S
O853 C852 1.258 . S
O854 Co851 1.966 . S
O854 C852 1.263 . S
C855 O856 1.235 . S
C855 O882 1.289 . S
O856 C855 1.235 . S
C857 C859 1.400 . S
C857 N860 1.351 . S
C857 C862 1.501 . S
C858 C859 1.387 . S
C858 N861 1.341 . S
C859 C857 1.400 . S
C859 C858 1.387 . S
N860 Co851 2.022 . S
N860 C857 1.351 . S
N860 N861 1.365 . S
N861 C858 1.341 . S
N861 N860 1.365 . S
N861 H881 0.862 . S
C862 C857 1.501 . S
C862 H863 0.961 . S
C862 H864 0.961 . S
C862 H865 0.960 . S
H863 C862 0.961 . S
H864 C862 0.961 . S
H865 C862 0.960 . S
C866 N867 1.342 . S
C866 C870 1.401 . S
C866 C871 1.499 . S
N867 Co850 1.989 . S
N867 C866 1.342 . S
N867 N868 1.388 . S
N868 Co851 1.993 . S
N868 N867 1.388 . S
N868 C869 1.346 . S
C869 N868 1.346 . S
C869 C870 1.396 . S
C869 C879 1.510 . S
C870 C866 1.401 . S
C870 C869 1.396 . S
C871 C866 1.499 . S
C871 H872 0.959 . S
C871 H873 0.960 . S
C871 H874 0.961 . S
H872 C871 0.959 . S
H873 C871 0.960 . S
H874 C871 0.961 . S
O875 Co850 1.967 . S
O875 C883 1.258 . S
O876 Co851 1.941 . S
O876 C883 1.266 . S
H877 C879 0.959 . S
H878 C879 0.961 . S
C879 C869 1.510 . S
C879 H877 0.959 . S
C879 H878 0.961 . S
C879 H880 0.960 . S
H880 C879 0.960 . S
H881 N861 0.862 . S
O882 Co850 1.920 . S
O882 C855 1.289 . S
C883 O875 1.258 . S
C883 O876 1.266 . S
Co884 O887 1.970 . S
Co884 N901 1.989 . S
Co884 O909 1.967 . S
Co884 O916 1.920 . S
Co885 O888 1.966 . S
Co885 N894 2.022 . S
Co885 N902 1.993 . S
Co885 O910 1.941 . S
C886 O887 1.258 . S
C886 O888 1.263 . S
O887 Co884 1.970 . S
O887 C886 1.258 . S
O888 Co885 1.966 . S
O888 C886 1.263 . S
C889 O890 1.235 . S
C889 O916 1.289 . S
O890 C889 1.235 . S
C891 C893 1.400 . S
C891 N894 1.351 . S
C891 C896 1.501 . S
C892 C893 1.387 . S
C892 N895 1.341 . S
C893 C891 1.400 . S
C893 C892 1.387 . S
N894 Co885 2.022 . S
N894 C891 1.351 . S
N894 N895 1.365 . S
N895 C892 1.341 . S
N895 N894 1.365 . S
N895 H915 0.862 . S
C896 C891 1.501 . S
C896 H897 0.961 . S
C896 H898 0.961 . S
C896 H899 0.960 . S
H897 C896 0.961 . S
H898 C896 0.961 . S
H899 C896 0.960 . S
C900 N901 1.342 . S
C900 C904 1.401 . S
C900 C905 1.499 . S
N901 Co884 1.989 . S
N901 C900 1.342 . S
N901 N902 1.388 . S
N902 Co885 1.993 . S
N902 N901 1.388 . S
N902 C903 1.346 . S
C903 N902 1.346 . S
C903 C904 1.396 . S
C903 C913 1.510 . S
C904 C900 1.401 . S
C904 C903 1.396 . S
C905 C900 1.499 . S
C905 H906 0.959 . S
C905 H907 0.960 . S
C905 H908 0.961 . S
H906 C905 0.959 . S
H907 C905 0.960 . S
H908 C905 0.961 . S
O909 Co884 1.967 . S
O909 C917 1.258 . S
O910 Co885 1.941 . S
O910 C917 1.266 . S
H911 C913 0.959 . S
H912 C913 0.961 . S
C913 C903 1.510 . S
C913 H911 0.959 . S
C913 H912 0.961 . S
C913 H914 0.960 . S
H914 C913 0.960 . S
H915 N895 0.862 . S
O916 Co884 1.920 . S
O916 C889 1.289 . S
C917 O909 1.258 . S
C917 O910 1.266 . S
Co918 O921 1.970 . S
Co918 N935 1.989 . S
Co918 O943 1.967 . S
Co918 O950 1.920 . S
Co919 O922 1.966 . S
Co919 N928 2.022 . S
Co919 N936 1.993 . S
Co919 O944 1.941 . S
C920 O921 1.258 . S
C920 O922 1.263 . S
O921 Co918 1.970 . S
O921 C920 1.258 . S
O922 Co919 1.966 . S
O922 C920 1.263 . S
C923 O924 1.235 . S
C923 O950 1.289 . S
O924 C923 1.235 . S
C925 C927 1.400 . S
C925 N928 1.351 . S
C925 C930 1.501 . S
C926 C927 1.387 . S
C926 N929 1.341 . S
C927 C925 1.400 . S
C927 C926 1.387 . S
N928 Co919 2.022 . S
N928 C925 1.351 . S
N928 N929 1.365 . S
N929 C926 1.341 . S
N929 N928 1.365 . S
N929 H949 0.862 . S
C930 C925 1.501 . S
C930 H931 0.961 . S
C930 H932 0.961 . S
C930 H933 0.960 . S
H931 C930 0.961 . S
H932 C930 0.961 . S
H933 C930 0.960 . S
C934 N935 1.342 . S
C934 C938 1.401 . S
C934 C939 1.499 . S
N935 Co918 1.989 . S
N935 C934 1.342 . S
N935 N936 1.388 . S
N936 Co919 1.993 . S
N936 N935 1.388 . S
N936 C937 1.346 . S
C937 N936 1.346 . S
C937 C938 1.396 . S
C937 C947 1.510 . S
C938 C934 1.401 . S
C938 C937 1.396 . S
C939 C934 1.499 . S
C939 H940 0.959 . S
C939 H941 0.960 . S
C939 H942 0.961 . S
H940 C939 0.959 . S
H941 C939 0.960 . S
H942 C939 0.961 . S
O943 Co918 1.967 . S
O943 C951 1.258 . S
O944 Co919 1.941 . S
O944 C951 1.266 . S
H945 C947 0.959 . S
H946 C947 0.961 . S
C947 C937 1.510 . S
C947 H945 0.959 . S
C947 H946 0.961 . S
C947 H948 0.960 . S
H948 C947 0.960 . S
H949 N929 0.862 . S
O950 Co918 1.920 . S
O950 C923 1.289 . S
C951 O943 1.258 . S
C951 O944 1.266 . S
Co952 O955 1.970 . S
Co952 N969 1.989 . S
Co952 O977 1.967 . S
Co952 O984 1.920 . S
Co953 O956 1.966 . S
Co953 N962 2.022 . S
Co953 N970 1.993 . S
Co953 O978 1.941 . S
C954 O955 1.258 . S
C954 O956 1.263 . S
O955 Co952 1.970 . S
O955 C954 1.258 . S
O956 Co953 1.966 . S
O956 C954 1.263 . S
C957 O958 1.235 . S
C957 O984 1.289 . S
O958 C957 1.235 . S
C959 C961 1.400 . S
C959 N962 1.351 . S
C959 C964 1.501 . S
C960 C961 1.387 . S
C960 N963 1.341 . S
C961 C959 1.400 . S
C961 C960 1.387 . S
N962 Co953 2.022 . S
N962 C959 1.351 . S
N962 N963 1.365 . S
N963 C960 1.341 . S
N963 N962 1.365 . S
N963 H983 0.862 . S
C964 C959 1.501 . S
C964 H965 0.961 . S
C964 H966 0.961 . S
C964 H967 0.960 . S
H965 C964 0.961 . S
H966 C964 0.961 . S
H967 C964 0.960 . S
C968 N969 1.342 . S
C968 C972 1.401 . S
C968 C973 1.499 . S
N969 Co952 1.989 . S
N969 C968 1.342 . S
N969 N970 1.388 . S
N970 Co953 1.993 . S
N970 N969 1.388 . S
N970 C971 1.346 . S
C971 N970 1.346 . S
C971 C972 1.396 . S
C971 C981 1.510 . S
C972 C968 1.401 . S
C972 C971 1.396 . S
C973 C968 1.499 . S
C973 H974 0.959 . S
C973 H975 0.960 . S
C973 H976 0.961 . S
H974 C973 0.959 . S
H975 C973 0.960 . S
H976 C973 0.961 . S
O977 Co952 1.967 . S
O977 C985 1.258 . S
O978 Co953 1.941 . S
O978 C985 1.266 . S
H979 C981 0.959 . S
H980 C981 0.961 . S
C981 C971 1.510 . S
C981 H979 0.959 . S
C981 H980 0.961 . S
C981 H982 0.960 . S
H982 C981 0.960 . S
H983 N963 0.862 . S
O984 Co952 1.920 . S
O984 C957 1.289 . S
C985 O977 1.258 . S
C985 O978 1.266 . S
Co986 O989 1.970 . S
Co986 N1003 1.989 . S
Co986 O1011 1.967 . S
Co986 O1018 1.920 . S
Co987 O990 1.966 . S
Co987 N996 2.022 . S
Co987 N1004 1.993 . S
Co987 O1012 1.941 . S
C988 O989 1.258 . S
C988 O990 1.263 . S
O989 Co986 1.970 . S
O989 C988 1.258 . S
O990 Co987 1.966 . S
O990 C988 1.263 . S
C991 O992 1.235 . S
C991 O1018 1.289 . S
O992 C991 1.235 . S
C993 C995 1.400 . S
C993 N996 1.351 . S
C993 C998 1.501 . S
C994 C995 1.387 . S
C994 N997 1.341 . S
C995 C993 1.400 . S
C995 C994 1.387 . S
N996 Co987 2.022 . S
N996 C993 1.351 . S
N996 N997 1.365 . S
N997 C994 1.341 . S
N997 N996 1.365 . S
N997 H1017 0.862 . S
C998 C993 1.501 . S
C998 H999 0.961 . S
C998 H1000 0.961 . S
C998 H1001 0.960 . S
H999 C998 0.961 . S
H1000 C998 0.961 . S
H1001 C998 0.960 . S
C1002 N1003 1.342 . S
C1002 C1006 1.401 . S
C1002 C1007 1.499 . S
N1003 Co986 1.989 . S
N1003 C1002 1.342 . S
N1003 N1004 1.388 . S
N1004 Co987 1.993 . S
N1004 N1003 1.388 . S
N1004 C1005 1.346 . S
C1005 N1004 1.346 . S
C1005 C1006 1.396 . S
C1005 C1015 1.510 . S
C1006 C1002 1.401 . S
C1006 C1005 1.396 . S
C1007 C1002 1.499 . S
C1007 H1008 0.959 . S
C1007 H1009 0.960 . S
C1007 H1010 0.961 . S
H1008 C1007 0.959 . S
H1009 C1007 0.960 . S
H1010 C1007 0.961 . S
O1011 Co986 1.967 . S
O1011 C1019 1.258 . S
O1012 Co987 1.941 . S
O1012 C1019 1.266 . S
H1013 C1015 0.959 . S
H1014 C1015 0.961 . S
C1015 C1005 1.510 . S
C1015 H1013 0.959 . S
C1015 H1014 0.961 . S
C1015 H1016 0.960 . S
H1016 C1015 0.960 . S
H1017 N997 0.862 . S
O1018 Co986 1.920 . S
O1018 C991 1.289 . S
C1019 O1011 1.258 . S
C1019 O1012 1.266 . S
Co1020 O1023 1.970 . S
Co1020 N1037 1.989 . S
Co1020 O1045 1.967 . S
Co1020 O1052 1.920 . S
Co1021 O1024 1.966 . S
Co1021 N1030 2.022 . S
Co1021 N1038 1.993 . S
Co1021 O1046 1.941 . S
C1022 O1023 1.258 . S
C1022 O1024 1.263 . S
O1023 Co1020 1.970 . S
O1023 C1022 1.258 . S
O1024 Co1021 1.966 . S
O1024 C1022 1.263 . S
C1025 O1026 1.235 . S
C1025 O1052 1.289 . S
O1026 C1025 1.235 . S
C1027 C1029 1.400 . S
C1027 N1030 1.351 . S
C1027 C1032 1.501 . S
C1028 C1029 1.387 . S
C1028 N1031 1.341 . S
C1029 C1027 1.400 . S
C1029 C1028 1.387 . S
N1030 Co1021 2.022 . S
N1030 C1027 1.351 . S
N1030 N1031 1.365 . S
N1031 C1028 1.341 . S
N1031 N1030 1.365 . S
N1031 H1051 0.862 . S
C1032 C1027 1.501 . S
C1032 H1033 0.961 . S
C1032 H1034 0.961 . S
C1032 H1035 0.960 . S
H1033 C1032 0.961 . S
H1034 C1032 0.961 . S
H1035 C1032 0.960 . S
C1036 N1037 1.342 . S
C1036 C1040 1.401 . S
C1036 C1041 1.499 . S
N1037 Co1020 1.989 . S
N1037 C1036 1.342 . S
N1037 N1038 1.388 . S
N1038 Co1021 1.993 . S
N1038 N1037 1.388 . S
N1038 C1039 1.346 . S
C1039 N1038 1.346 . S
C1039 C1040 1.396 . S
C1039 C1049 1.510 . S
C1040 C1036 1.401 . S
C1040 C1039 1.396 . S
C1041 C1036 1.499 . S
C1041 H1042 0.959 . S
C1041 H1043 0.960 . S
C1041 H1044 0.961 . S
H1042 C1041 0.959 . S
H1043 C1041 0.960 . S
H1044 C1041 0.961 . S
O1045 Co1020 1.967 . S
O1045 C1053 1.258 . S
O1046 Co1021 1.941 . S
O1046 C1053 1.266 . S
H1047 C1049 0.959 . S
H1048 C1049 0.961 . S
C1049 C1039 1.510 . S
C1049 H1047 0.959 . S
C1049 H1048 0.961 . S
C1049 H1050 0.960 . S
H1050 C1049 0.960 . S
H1051 N1031 0.862 . S
O1052 Co1020 1.920 . S
O1052 C1025 1.289 . S
C1053 O1045 1.258 . S
C1053 O1046 1.266 . S
Co1054 O1057 1.970 . S
Co1054 N1071 1.989 . S
Co1054 O1079 1.967 . S
Co1054 O1086 1.920 . S
Co1055 O1058 1.966 . S
Co1055 N1064 2.022 . S
Co1055 N1072 1.993 . S
Co1055 O1080 1.941 . S
C1056 O1057 1.258 . S
C1056 O1058 1.263 . S
O1057 Co1054 1.970 . S
O1057 C1056 1.258 . S
O1058 Co1055 1.966 . S
O1058 C1056 1.263 . S
C1059 O1060 1.235 . S
C1059 O1086 1.289 . S
O1060 C1059 1.235 . S
C1061 C1063 1.400 . S
C1061 N1064 1.351 . S
C1061 C1066 1.501 . S
C1062 C1063 1.387 . S
C1062 N1065 1.341 . S
C1063 C1061 1.400 . S
C1063 C1062 1.387 . S
N1064 Co1055 2.022 . S
N1064 C1061 1.351 . S
N1064 N1065 1.365 . S
N1065 C1062 1.341 . S
N1065 N1064 1.365 . S
N1065 H1085 0.862 . S
C1066 C1061 1.501 . S
C1066 H1067 0.961 . S
C1066 H1068 0.961 . S
C1066 H1069 0.960 . S
H1067 C1066 0.961 . S
H1068 C1066 0.961 . S
H1069 C1066 0.960 . S
C1070 N1071 1.342 . S
C1070 C1074 1.401 . S
C1070 C1075 1.499 . S
N1071 Co1054 1.989 . S
N1071 C1070 1.342 . S
N1071 N1072 1.388 . S
N1072 Co1055 1.993 . S
N1072 N1071 1.388 . S
N1072 C1073 1.346 . S
C1073 N1072 1.346 . S
C1073 C1074 1.396 . S
C1073 C1083 1.510 . S
C1074 C1070 1.401 . S
C1074 C1073 1.396 . S
C1075 C1070 1.499 . S
C1075 H1076 0.959 . S
C1075 H1077 0.960 . S
C1075 H1078 0.961 . S
H1076 C1075 0.959 . S
H1077 C1075 0.960 . S
H1078 C1075 0.961 . S
O1079 Co1054 1.967 . S
O1079 C1087 1.258 . S
O1080 Co1055 1.941 . S
O1080 C1087 1.266 . S
H1081 C1083 0.959 . S
H1082 C1083 0.961 . S
C1083 C1073 1.510 . S
C1083 H1081 0.959 . S
C1083 H1082 0.961 . S
C1083 H1084 0.960 . S
H1084 C1083 0.960 . S
H1085 N1065 0.862 . S
O1086 Co1054 1.920 . S
O1086 C1059 1.289 . S
C1087 O1079 1.258 . S
C1087 O1080 1.266 . S
Co1088 O1091 1.970 . S
Co1088 N1105 1.989 . S
Co1088 O1113 1.967 . S
Co1088 O1120 1.920 . S
Co1089 O1092 1.966 . S
Co1089 N1098 2.022 . S
Co1089 N1106 1.993 . S
Co1089 O1114 1.941 . S
C1090 O1091 1.258 . S
C1090 O1092 1.263 . S
O1091 Co1088 1.970 . S
O1091 C1090 1.258 . S
O1092 Co1089 1.966 . S
O1092 C1090 1.263 . S
C1093 O1094 1.235 . S
C1093 O1120 1.289 . S
O1094 C1093 1.235 . S
C1095 C1097 1.400 . S
C1095 N1098 1.351 . S
C1095 C1100 1.501 . S
C1096 C1097 1.387 . S
C1096 N1099 1.341 . S
C1097 C1095 1.400 . S
C1097 C1096 1.387 . S
N1098 Co1089 2.022 . S
N1098 C1095 1.351 . S
N1098 N1099 1.365 . S
N1099 C1096 1.341 . S
N1099 N1098 1.365 . S
N1099 H1119 0.862 . S
C1100 C1095 1.501 . S
C1100 H1101 0.961 . S
C1100 H1102 0.961 . S
C1100 H1103 0.960 . S
H1101 C1100 0.961 . S
H1102 C1100 0.961 . S
H1103 C1100 0.960 . S
C1104 N1105 1.342 . S
C1104 C1108 1.401 . S
C1104 C1109 1.499 . S
N1105 Co1088 1.989 . S
N1105 C1104 1.342 . S
N1105 N1106 1.388 . S
N1106 Co1089 1.993 . S
N1106 N1105 1.388 . S
N1106 C1107 1.346 . S
C1107 N1106 1.346 . S
C1107 C1108 1.396 . S
C1107 C1117 1.510 . S
C1108 C1104 1.401 . S
C1108 C1107 1.396 . S
C1109 C1104 1.499 . S
C1109 H1110 0.959 . S
C1109 H1111 0.960 . S
C1109 H1112 0.961 . S
H1110 C1109 0.959 . S
H1111 C1109 0.960 . S
H1112 C1109 0.961 . S
O1113 Co1088 1.967 . S
O1113 C1121 1.258 . S
O1114 Co1089 1.941 . S
O1114 C1121 1.266 . S
H1115 C1117 0.959 . S
H1116 C1117 0.961 . S
C1117 C1107 1.510 . S
C1117 H1115 0.959 . S
C1117 H1116 0.961 . S
C1117 H1118 0.960 . S
H1118 C1117 0.960 . S
H1119 N1099 0.862 . S
O1120 Co1088 1.920 . S
O1120 C1093 1.289 . S
C1121 O1113 1.258 . S
C1121 O1114 1.266 . S
Co1122 O1125 1.970 . S
Co1122 N1139 1.989 . S
Co1122 O1147 1.967 . S
Co1122 O1154 1.920 . S
Co1123 O1126 1.966 . S
Co1123 N1132 2.022 . S
Co1123 N1140 1.993 . S
Co1123 O1148 1.941 . S
C1124 O1125 1.258 . S
C1124 O1126 1.263 . S
O1125 Co1122 1.970 . S
O1125 C1124 1.258 . S
O1126 Co1123 1.966 . S
O1126 C1124 1.263 . S
C1127 O1128 1.235 . S
C1127 O1154 1.289 . S
O1128 C1127 1.235 . S
C1129 C1131 1.400 . S
C1129 N1132 1.351 . S
C1129 C1134 1.501 . S
C1130 C1131 1.387 . S
C1130 N1133 1.341 . S
C1131 C1129 1.400 . S
C1131 C1130 1.387 . S
N1132 Co1123 2.022 . S
N1132 C1129 1.351 . S
N1132 N1133 1.365 . S
N1133 C1130 1.341 . S
N1133 N1132 1.365 . S
N1133 H1153 0.862 . S
C1134 C1129 1.501 . S
C1134 H1135 0.961 . S
C1134 H1136 0.961 . S
C1134 H1137 0.960 . S
H1135 C1134 0.961 . S
H1136 C1134 0.961 . S
H1137 C1134 0.960 . S
C1138 N1139 1.342 . S
C1138 C1142 1.401 . S
C1138 C1143 1.499 . S
N1139 Co1122 1.989 . S
N1139 C1138 1.342 . S
N1139 N1140 1.388 . S
N1140 Co1123 1.993 . S
N1140 N1139 1.388 . S
N1140 C1141 1.346 . S
C1141 N1140 1.346 . S
C1141 C1142 1.396 . S
C1141 C1151 1.510 . S
C1142 C1138 1.401 . S
C1142 C1141 1.396 . S
C1143 C1138 1.499 . S
C1143 H1144 0.959 . S
C1143 H1145 0.960 . S
C1143 H1146 0.961 . S
H1144 C1143 0.959 . S
H1145 C1143 0.960 . S
H1146 C1143 0.961 . S
O1147 Co1122 1.967 . S
O1147 C1155 1.258 . S
O1148 Co1123 1.941 . S
O1148 C1155 1.266 . S
H1149 C1151 0.959 . S
H1150 C1151 0.961 . S
C1151 C1141 1.510 . S
C1151 H1149 0.959 . S
C1151 H1150 0.961 . S
C1151 H1152 0.960 . S
H1152 C1151 0.960 . S
H1153 N1133 0.862 . S
O1154 Co1122 1.920 . S
O1154 C1127 1.289 . S
C1155 O1147 1.258 . S
C1155 O1148 1.266 . S
Co1156 O1159 1.970 . S
Co1156 N1173 1.989 . S
Co1156 O1181 1.967 . S
Co1156 O1188 1.920 . S
Co1157 O1160 1.966 . S
Co1157 N1166 2.022 . S
Co1157 N1174 1.993 . S
Co1157 O1182 1.941 . S
C1158 O1159 1.258 . S
C1158 O1160 1.263 . S
O1159 Co1156 1.970 . S
O1159 C1158 1.258 . S
O1160 Co1157 1.966 . S
O1160 C1158 1.263 . S
C1161 O1162 1.235 . S
C1161 O1188 1.289 . S
O1162 C1161 1.235 . S
C1163 C1165 1.400 . S
C1163 N1166 1.351 . S
C1163 C1168 1.501 . S
C1164 C1165 1.387 . S
C1164 N1167 1.341 . S
C1165 C1163 1.400 . S
C1165 C1164 1.387 . S
N1166 Co1157 2.022 . S
N1166 C1163 1.351 . S
N1166 N1167 1.365 . S
N1167 C1164 1.341 . S
N1167 N1166 1.365 . S
N1167 H1187 0.862 . S
C1168 C1163 1.501 . S
C1168 H1169 0.961 . S
C1168 H1170 0.961 . S
C1168 H1171 0.960 . S
H1169 C1168 0.961 . S
H1170 C1168 0.961 . S
H1171 C1168 0.960 . S
C1172 N1173 1.342 . S
C1172 C1176 1.401 . S
C1172 C1177 1.499 . S
N1173 Co1156 1.989 . S
N1173 C1172 1.342 . S
N1173 N1174 1.388 . S
N1174 Co1157 1.993 . S
N1174 N1173 1.388 . S
N1174 C1175 1.346 . S
C1175 N1174 1.346 . S
C1175 C1176 1.396 . S
C1175 C1185 1.510 . S
C1176 C1172 1.401 . S
C1176 C1175 1.396 . S
C1177 C1172 1.499 . S
C1177 H1178 0.959 . S
C1177 H1179 0.960 . S
C1177 H1180 0.961 . S
H1178 C1177 0.959 . S
H1179 C1177 0.960 . S
H1180 C1177 0.961 . S
O1181 Co1156 1.967 . S
O1181 C1189 1.258 . S
O1182 Co1157 1.941 . S
O1182 C1189 1.266 . S
H1183 C1185 0.959 . S
H1184 C1185 0.961 . S
C1185 C1175 1.510 . S
C1185 H1183 0.959 . S
C1185 H1184 0.961 . S
C1185 H1186 0.960 . S
H1186 C1185 0.960 . S
H1187 N1167 0.862 . S
O1188 Co1156 1.920 . S
O1188 C1161 1.289 . S
C1189 O1181 1.258 . S
C1189 O1182 1.266 . S
Co1190 O1193 1.970 . S
Co1190 N1207 1.989 . S
Co1190 O1215 1.967 . S
Co1190 O1222 1.920 . S
Co1191 O1194 1.966 . S
Co1191 N1200 2.022 . S
Co1191 N1208 1.993 . S
Co1191 O1216 1.941 . S
C1192 O1193 1.258 . S
C1192 O1194 1.263 . S
O1193 Co1190 1.970 . S
O1193 C1192 1.258 . S
O1194 Co1191 1.966 . S
O1194 C1192 1.263 . S
C1195 O1196 1.235 . S
C1195 O1222 1.289 . S
O1196 C1195 1.235 . S
C1197 C1199 1.400 . S
C1197 N1200 1.351 . S
C1197 C1202 1.501 . S
C1198 C1199 1.387 . S
C1198 N1201 1.341 . S
C1199 C1197 1.400 . S
C1199 C1198 1.387 . S
N1200 Co1191 2.022 . S
N1200 C1197 1.351 . S
N1200 N1201 1.365 . S
N1201 C1198 1.341 . S
N1201 N1200 1.365 . S
N1201 H1221 0.862 . S
C1202 C1197 1.501 . S
C1202 H1203 0.961 . S
C1202 H1204 0.961 . S
C1202 H1205 0.960 . S
H1203 C1202 0.961 . S
H1204 C1202 0.961 . S
H1205 C1202 0.960 . S
C1206 N1207 1.342 . S
C1206 C1210 1.401 . S
C1206 C1211 1.499 . S
N1207 Co1190 1.989 . S
N1207 C1206 1.342 . S
N1207 N1208 1.388 . S
N1208 Co1191 1.993 . S
N1208 N1207 1.388 . S
N1208 C1209 1.346 . S
C1209 N1208 1.346 . S
C1209 C1210 1.396 . S
C1209 C1219 1.510 . S
C1210 C1206 1.401 . S
C1210 C1209 1.396 . S
C1211 C1206 1.499 . S
C1211 H1212 0.959 . S
C1211 H1213 0.960 . S
C1211 H1214 0.961 . S
H1212 C1211 0.959 . S
H1213 C1211 0.960 . S
H1214 C1211 0.961 . S
O1215 Co1190 1.967 . S
O1215 C1223 1.258 . S
O1216 Co1191 1.941 . S
O1216 C1223 1.266 . S
H1217 C1219 0.959 . S
H1218 C1219 0.961 . S
C1219 C1209 1.510 . S
C1219 H1217 0.959 . S
C1219 H1218 0.961 . S
C1219 H1220 0.960 . S
H1220 C1219 0.960 . S
H1221 N1201 0.862 . S
O1222 Co1190 1.920 . S
O1222 C1195 1.289 . S
C1223 O1215 1.258 . S
C1223 O1216 1.266 . S
Co1224 O1227 1.970 . S
Co1224 N1241 1.989 . S
Co1224 O1249 1.967 . S
Co1224 O1256 1.920 . S
Co1225 O1228 1.966 . S
Co1225 N1234 2.022 . S
Co1225 N1242 1.993 . S
Co1225 O1250 1.941 . S
C1226 O1227 1.258 . S
C1226 O1228 1.263 . S
O1227 Co1224 1.970 . S
O1227 C1226 1.258 . S
O1228 Co1225 1.966 . S
O1228 C1226 1.263 . S
C1229 O1230 1.235 . S
C1229 O1256 1.289 . S
O1230 C1229 1.235 . S
C1231 C1233 1.400 . S
C1231 N1234 1.351 . S
C1231 C1236 1.501 . S
C1232 C1233 1.387 . S
C1232 N1235 1.341 . S
C1233 C1231 1.400 . S
C1233 C1232 1.387 . S
N1234 Co1225 2.022 . S
N1234 C1231 1.351 . S
N1234 N1235 1.365 . S
N1235 C1232 1.341 . S
N1235 N1234 1.365 . S
N1235 H1255 0.862 . S
C1236 C1231 1.501 . S
C1236 H1237 0.961 . S
C1236 H1238 0.961 . S
C1236 H1239 0.960 . S
H1237 C1236 0.961 . S
H1238 C1236 0.961 . S
H1239 C1236 0.960 . S
C1240 N1241 1.342 . S
C1240 C1244 1.401 . S
C1240 C1245 1.499 . S
N1241 Co1224 1.989 . S
N1241 C1240 1.342 . S
N1241 N1242 1.388 . S
N1242 Co1225 1.993 . S
N1242 N1241 1.388 . S
N1242 C1243 1.346 . S
C1243 N1242 1.346 . S
C1243 C1244 1.396 . S
C1243 C1253 1.510 . S
C1244 C1240 1.401 . S
C1244 C1243 1.396 . S
C1245 C1240 1.499 . S
C1245 H1246 0.959 . S
C1245 H1247 0.960 . S
C1245 H1248 0.961 . S
H1246 C1245 0.959 . S
H1247 C1245 0.960 . S
H1248 C1245 0.961 . S
O1249 Co1224 1.967 . S
O1249 C1257 1.258 . S
O1250 Co1225 1.941 . S
O1250 C1257 1.266 . S
H1251 C1253 0.959 . S
H1252 C1253 0.961 . S
C1253 C1243 1.510 . S
C1253 H1251 0.959 . S
C1253 H1252 0.961 . S
C1253 H1254 0.960 . S
H1254 C1253 0.960 . S
H1255 N1235 0.862 . S
O1256 Co1224 1.920 . S
O1256 C1229 1.289 . S
C1257 O1249 1.258 . S
C1257 O1250 1.266 . S
Co1258 O1261 1.970 . S
Co1258 N1275 1.989 . S
Co1258 O1283 1.967 . S
Co1258 O1290 1.920 . S
Co1259 O1262 1.966 . S
Co1259 N1268 2.022 . S
Co1259 N1276 1.993 . S
Co1259 O1284 1.941 . S
C1260 O1261 1.258 . S
C1260 O1262 1.263 . S
O1261 Co1258 1.970 . S
O1261 C1260 1.258 . S
O1262 Co1259 1.966 . S
O1262 C1260 1.263 . S
C1263 O1264 1.235 . S
C1263 O1290 1.289 . S
O1264 C1263 1.235 . S
C1265 C1267 1.400 . S
C1265 N1268 1.351 . S
C1265 C1270 1.501 . S
C1266 C1267 1.387 . S
C1266 N1269 1.341 . S
C1267 C1265 1.400 . S
C1267 C1266 1.387 . S
N1268 Co1259 2.022 . S
N1268 C1265 1.351 . S
N1268 N1269 1.365 . S
N1269 C1266 1.341 . S
N1269 N1268 1.365 . S
N1269 H1289 0.862 . S
C1270 C1265 1.501 . S
C1270 H1271 0.961 . S
C1270 H1272 0.961 . S
C1270 H1273 0.960 . S
H1271 C1270 0.961 . S
H1272 C1270 0.961 . S
H1273 C1270 0.960 . S
C1274 N1275 1.342 . S
C1274 C1278 1.401 . S
C1274 C1279 1.499 . S
N1275 Co1258 1.989 . S
N1275 C1274 1.342 . S
N1275 N1276 1.388 . S
N1276 Co1259 1.993 . S
N1276 N1275 1.388 . S
N1276 C1277 1.346 . S
C1277 N1276 1.346 . S
C1277 C1278 1.396 . S
C1277 C1287 1.510 . S
C1278 C1274 1.401 . S
C1278 C1277 1.396 . S
C1279 C1274 1.499 . S
C1279 H1280 0.959 . S
C1279 H1281 0.960 . S
C1279 H1282 0.961 . S
H1280 C1279 0.959 . S
H1281 C1279 0.960 . S
H1282 C1279 0.961 . S
O1283 Co1258 1.967 . S
O1283 C1291 1.258 . S
O1284 Co1259 1.941 . S
O1284 C1291 1.266 . S
H1285 C1287 0.959 . S
H1286 C1287 0.961 . S
C1287 C1277 1.510 . S
C1287 H1285 0.959 . S
C1287 H1286 0.961 . S
C1287 H1288 0.960 . S
H1288 C1287 0.960 . S
H1289 N1269 0.862 . S
O1290 Co1258 1.920 . S
O1290 C1263 1.289 . S
C1291 O1283 1.258 . S
C1291 O1284 1.266 . S
Co1292 O1295 1.970 . S
Co1292 N1309 1.989 . S
Co1292 O1317 1.967 . S
Co1292 O1324 1.920 . S
Co1293 O1296 1.966 . S
Co1293 N1302 2.022 . S
Co1293 N1310 1.993 . S
Co1293 O1318 1.941 . S
C1294 O1295 1.258 . S
C1294 O1296 1.263 . S
O1295 Co1292 1.970 . S
O1295 C1294 1.258 . S
O1296 Co1293 1.966 . S
O1296 C1294 1.263 . S
C1297 O1298 1.235 . S
C1297 O1324 1.289 . S
O1298 C1297 1.235 . S
C1299 C1301 1.400 . S
C1299 N1302 1.351 . S
C1299 C1304 1.501 . S
C1300 C1301 1.387 . S
C1300 N1303 1.341 . S
C1301 C1299 1.400 . S
C1301 C1300 1.387 . S
N1302 Co1293 2.022 . S
N1302 C1299 1.351 . S
N1302 N1303 1.365 . S
N1303 C1300 1.341 . S
N1303 N1302 1.365 . S
N1303 H1323 0.862 . S
C1304 C1299 1.501 . S
C1304 H1305 0.961 . S
C1304 H1306 0.961 . S
C1304 H1307 0.960 . S
H1305 C1304 0.961 . S
H1306 C1304 0.961 . S
H1307 C1304 0.960 . S
C1308 N1309 1.342 . S
C1308 C1312 1.401 . S
C1308 C1313 1.499 . S
N1309 Co1292 1.989 . S
N1309 C1308 1.342 . S
N1309 N1310 1.388 . S
N1310 Co1293 1.993 . S
N1310 N1309 1.388 . S
N1310 C1311 1.346 . S
C1311 N1310 1.346 . S
C1311 C1312 1.396 . S
C1311 C1321 1.510 . S
C1312 C1308 1.401 . S
C1312 C1311 1.396 . S
C1313 C1308 1.499 . S
C1313 H1314 0.959 . S
C1313 H1315 0.960 . S
C1313 H1316 0.961 . S
H1314 C1313 0.959 . S
H1315 C1313 0.960 . S
H1316 C1313 0.961 . S
O1317 Co1292 1.967 . S
O1317 C1325 1.258 . S
O1318 Co1293 1.941 . S
O1318 C1325 1.266 . S
H1319 C1321 0.959 . S
H1320 C1321 0.961 . S
C1321 C1311 1.510 . S
C1321 H1319 0.959 . S
C1321 H1320 0.961 . S
C1321 H1322 0.960 . S
H1322 C1321 0.960 . S
H1323 N1303 0.862 . S
O1324 Co1292 1.920 . S
O1324 C1297 1.289 . S
C1325 O1317 1.258 . S
C1325 O1318 1.266 . S
Co1326 O1329 1.970 . S
Co1326 N1343 1.989 . S
Co1326 O1351 1.967 . S
Co1326 O1358 1.920 . S
Co1327 O1330 1.966 . S
Co1327 N1336 2.022 . S
Co1327 N1344 1.993 . S
Co1327 O1352 1.941 . S
C1328 O1329 1.258 . S
C1328 O1330 1.263 . S
O1329 Co1326 1.970 . S
O1329 C1328 1.258 . S
O1330 Co1327 1.966 . S
O1330 C1328 1.263 . S
C1331 O1332 1.235 . S
C1331 O1358 1.289 . S
O1332 C1331 1.235 . S
C1333 C1335 1.400 . S
C1333 N1336 1.351 . S
C1333 C1338 1.501 . S
C1334 C1335 1.387 . S
C1334 N1337 1.341 . S
C1335 C1333 1.400 . S
C1335 C1334 1.387 . S
N1336 Co1327 2.022 . S
N1336 C1333 1.351 . S
N1336 N1337 1.365 . S
N1337 C1334 1.341 . S
N1337 N1336 1.365 . S
N1337 H1357 0.862 . S
C1338 C1333 1.501 . S
C1338 H1339 0.961 . S
C1338 H1340 0.961 . S
C1338 H1341 0.960 . S
H1339 C1338 0.961 . S
H1340 C1338 0.961 . S
H1341 C1338 0.960 . S
C1342 N1343 1.342 . S
C1342 C1346 1.401 . S
C1342 C1347 1.499 . S
N1343 Co1326 1.989 . S
N1343 C1342 1.342 . S
N1343 N1344 1.388 . S
N1344 Co1327 1.993 . S
N1344 N1343 1.388 . S
N1344 C1345 1.346 . S
C1345 N1344 1.346 . S
C1345 C1346 1.396 . S
C1345 C1355 1.510 . S
C1346 C1342 1.401 . S
C1346 C1345 1.396 . S
C1347 C1342 1.499 . S
C1347 H1348 0.959 . S
C1347 H1349 0.960 . S
C1347 H1350 0.961 . S
H1348 C1347 0.959 . S
H1349 C1347 0.960 . S
H1350 C1347 0.961 . S
O1351 Co1326 1.967 . S
O1351 C1359 1.258 . S
O1352 Co1327 1.941 . S
O1352 C1359 1.266 . S
H1353 C1355 0.959 . S
H1354 C1355 0.961 . S
C1355 C1345 1.510 . S
C1355 H1353 0.959 . S
C1355 H1354 0.961 . S
C1355 H1356 0.960 . S
H1356 C1355 0.960 . S
H1357 N1337 0.862 . S
O1358 Co1326 1.920 . S
O1358 C1331 1.289 . S
C1359 O1351 1.258 . S
C1359 O1352 1.266 . S
Co1360 O1363 1.970 . S
Co1360 N1377 1.989 . S
Co1360 O1385 1.967 . S
Co1360 O1392 1.920 . S
Co1361 O1364 1.966 . S
Co1361 N1370 2.022 . S
Co1361 N1378 1.993 . S
Co1361 O1386 1.941 . S
C1362 O1363 1.258 . S
C1362 O1364 1.263 . S
O1363 Co1360 1.970 . S
O1363 C1362 1.258 . S
O1364 Co1361 1.966 . S
O1364 C1362 1.263 . S
C1365 O1366 1.235 . S
C1365 O1392 1.289 . S
O1366 C1365 1.235 . S
C1367 C1369 1.400 . S
C1367 N1370 1.351 . S
C1367 C1372 1.501 . S
C1368 C1369 1.387 . S
C1368 N1371 1.341 . S
C1369 C1367 1.400 . S
C1369 C1368 1.387 . S
N1370 Co1361 2.022 . S
N1370 C1367 1.351 . S
N1370 N1371 1.365 . S
N1371 C1368 1.341 . S
N1371 N1370 1.365 . S
N1371 H1391 0.862 . S
C1372 C1367 1.501 . S
C1372 H1373 0.961 . S
C1372 H1374 0.961 . S
C1372 H1375 0.960 . S
H1373 C1372 0.961 . S
H1374 C1372 0.961 . S
H1375 C1372 0.960 . S
C1376 N1377 1.342 . S
C1376 C1380 1.401 . S
C1376 C1381 1.499 . S
N1377 Co1360 1.989 . S
N1377 C1376 1.342 . S
N1377 N1378 1.388 . S
N1378 Co1361 1.993 . S
N1378 N1377 1.388 . S
N1378 C1379 1.346 . S
C1379 N1378 1.346 . S
C1379 C1380 1.396 . S
C1379 C1389 1.510 . S
C1380 C1376 1.401 . S
C1380 C1379 1.396 . S
C1381 C1376 1.499 . S
C1381 H1382 0.959 . S
C1381 H1383 0.960 . S
C1381 H1384 0.961 . S
H1382 C1381 0.959 . S
H1383 C1381 0.960 . S
H1384 C1381 0.961 . S
O1385 Co1360 1.967 . S
O1385 C1393 1.258 . S
O1386 Co1361 1.941 . S
O1386 C1393 1.266 . S
H1387 C1389 0.959 . S
H1388 C1389 0.961 . S
C1389 C1379 1.510 . S
C1389 H1387 0.959 . S
C1389 H1388 0.961 . S
C1389 H1390 0.960 . S
H1390 C1389 0.960 . S
H1391 N1371 0.862 . S
O1392 Co1360 1.920 . S
O1392 C1365 1.289 . S
C1393 O1385 1.258 . S
C1393 O1386 1.266 . S
Co1394 O1397 1.970 . S
Co1394 N1411 1.989 . S
Co1394 O1419 1.967 . S
Co1394 O1426 1.920 . S
Co1395 O1398 1.966 . S
Co1395 N1404 2.022 . S
Co1395 N1412 1.993 . S
Co1395 O1420 1.941 . S
C1396 O1397 1.258 . S
C1396 O1398 1.263 . S
O1397 Co1394 1.970 . S
O1397 C1396 1.258 . S
O1398 Co1395 1.966 . S
O1398 C1396 1.263 . S
C1399 O1400 1.235 . S
C1399 O1426 1.289 . S
O1400 C1399 1.235 . S
C1401 C1403 1.400 . S
C1401 N1404 1.351 . S
C1401 C1406 1.501 . S
C1402 C1403 1.387 . S
C1402 N1405 1.341 . S
C1403 C1401 1.400 . S
C1403 C1402 1.387 . S
N1404 Co1395 2.022 . S
N1404 C1401 1.351 . S
N1404 N1405 1.365 . S
N1405 C1402 1.341 . S
N1405 N1404 1.365 . S
N1405 H1425 0.862 . S
C1406 C1401 1.501 . S
C1406 H1407 0.961 . S
C1406 H1408 0.961 . S
C1406 H1409 0.960 . S
H1407 C1406 0.961 . S
H1408 C1406 0.961 . S
H1409 C1406 0.960 . S
C1410 N1411 1.342 . S
C1410 C1414 1.401 . S
C1410 C1415 1.499 . S
N1411 Co1394 1.989 . S
N1411 C1410 1.342 . S
N1411 N1412 1.388 . S
N1412 Co1395 1.993 . S
N1412 N1411 1.388 . S
N1412 C1413 1.346 . S
C1413 N1412 1.346 . S
C1413 C1414 1.396 . S
C1413 C1423 1.510 . S
C1414 C1410 1.401 . S
C1414 C1413 1.396 . S
C1415 C1410 1.499 . S
C1415 H1416 0.959 . S
C1415 H1417 0.960 . S
C1415 H1418 0.961 . S
H1416 C1415 0.959 . S
H1417 C1415 0.960 . S
H1418 C1415 0.961 . S
O1419 Co1394 1.967 . S
O1419 C1427 1.258 . S
O1420 Co1395 1.941 . S
O1420 C1427 1.266 . S
H1421 C1423 0.959 . S
H1422 C1423 0.961 . S
C1423 C1413 1.510 . S
C1423 H1421 0.959 . S
C1423 H1422 0.961 . S
C1423 H1424 0.960 . S
H1424 C1423 0.960 . S
H1425 N1405 0.862 . S
O1426 Co1394 1.920 . S
O1426 C1399 1.289 . S
C1427 O1419 1.258 . S
C1427 O1420 1.266 . S
Co1428 O1431 1.970 . S
Co1428 N1445 1.989 . S
Co1428 O1453 1.967 . S
Co1428 O1460 1.920 . S
Co1429 O1432 1.966 . S
Co1429 N1438 2.022 . S
Co1429 N1446 1.993 . S
Co1429 O1454 1.941 . S
C1430 O1431 1.258 . S
C1430 O1432 1.263 . S
O1431 Co1428 1.970 . S
O1431 C1430 1.258 . S
O1432 Co1429 1.966 . S
O1432 C1430 1.263 . S
C1433 O1434 1.235 . S
C1433 O1460 1.289 . S
O1434 C1433 1.235 . S
C1435 C1437 1.400 . S
C1435 N1438 1.351 . S
C1435 C1440 1.501 . S
C1436 C1437 1.387 . S
C1436 N1439 1.341 . S
C1437 C1435 1.400 . S
C1437 C1436 1.387 . S
N1438 Co1429 2.022 . S
N1438 C1435 1.351 . S
N1438 N1439 1.365 . S
N1439 C1436 1.341 . S
N1439 N1438 1.365 . S
N1439 H1459 0.862 . S
C1440 C1435 1.501 . S
C1440 H1441 0.961 . S
C1440 H1442 0.961 . S
C1440 H1443 0.960 . S
H1441 C1440 0.961 . S
H1442 C1440 0.961 . S
H1443 C1440 0.960 . S
C1444 N1445 1.342 . S
C1444 C1448 1.401 . S
C1444 C1449 1.499 . S
N1445 Co1428 1.989 . S
N1445 C1444 1.342 . S
N1445 N1446 1.388 . S
N1446 Co1429 1.993 . S
N1446 N1445 1.388 . S
N1446 C1447 1.346 . S
C1447 N1446 1.346 . S
C1447 C1448 1.396 . S
C1447 C1457 1.510 . S
C1448 C1444 1.401 . S
C1448 C1447 1.396 . S
C1449 C1444 1.499 . S
C1449 H1450 0.959 . S
C1449 H1451 0.960 . S
C1449 H1452 0.961 . S
H1450 C1449 0.959 . S
H1451 C1449 0.960 . S
H1452 C1449 0.961 . S
O1453 Co1428 1.967 . S
O1453 C1461 1.258 . S
O1454 Co1429 1.941 . S
O1454 C1461 1.266 . S
H1455 C1457 0.959 . S
H1456 C1457 0.961 . S
C1457 C1447 1.510 . S
C1457 H1455 0.959 . S
C1457 H1456 0.961 . S
C1457 H1458 0.960 . S
H1458 C1457 0.960 . S
H1459 N1439 0.862 . S
O1460 Co1428 1.920 . S
O1460 C1433 1.289 . S
C1461 O1453 1.258 . S
C1461 O1454 1.266 . S
Co1462 O1465 1.970 . S
Co1462 N1479 1.989 . S
Co1462 O1487 1.967 . S
Co1462 O1494 1.920 . S
Co1463 O1466 1.966 . S
Co1463 N1472 2.022 . S
Co1463 N1480 1.993 . S
Co1463 O1488 1.941 . S
C1464 O1465 1.258 . S
C1464 O1466 1.263 . S
O1465 Co1462 1.970 . S
O1465 C1464 1.258 . S
O1466 Co1463 1.966 . S
O1466 C1464 1.263 . S
C1467 O1468 1.235 . S
C1467 O1494 1.289 . S
O1468 C1467 1.235 . S
C1469 C1471 1.400 . S
C1469 N1472 1.351 . S
C1469 C1474 1.501 . S
C1470 C1471 1.387 . S
C1470 N1473 1.341 . S
C1471 C1469 1.400 . S
C1471 C1470 1.387 . S
N1472 Co1463 2.022 . S
N1472 C1469 1.351 . S
N1472 N1473 1.365 . S
N1473 C1470 1.341 . S
N1473 N1472 1.365 . S
N1473 H1493 0.862 . S
C1474 C1469 1.501 . S
C1474 H1475 0.961 . S
C1474 H1476 0.961 . S
C1474 H1477 0.960 . S
H1475 C1474 0.961 . S
H1476 C1474 0.961 . S
H1477 C1474 0.960 . S
C1478 N1479 1.342 . S
C1478 C1482 1.401 . S
C1478 C1483 1.499 . S
N1479 Co1462 1.989 . S
N1479 C1478 1.342 . S
N1479 N1480 1.388 . S
N1480 Co1463 1.993 . S
N1480 N1479 1.388 . S
N1480 C1481 1.346 . S
C1481 N1480 1.346 . S
C1481 C1482 1.396 . S
C1481 C1491 1.510 . S
C1482 C1478 1.401 . S
C1482 C1481 1.396 . S
C1483 C1478 1.499 . S
C1483 H1484 0.959 . S
C1483 H1485 0.960 . S
C1483 H1486 0.961 . S
H1484 C1483 0.959 . S
H1485 C1483 0.960 . S
H1486 C1483 0.961 . S
O1487 Co1462 1.967 . S
O1487 C1495 1.258 . S
O1488 Co1463 1.941 . S
O1488 C1495 1.266 . S
H1489 C1491 0.959 . S
H1490 C1491 0.961 . S
C1491 C1481 1.510 . S
C1491 H1489 0.959 . S
C1491 H1490 0.961 . S
C1491 H1492 0.960 . S
H1492 C1491 0.960 . S
H1493 N1473 0.862 . S
O1494 Co1462 1.920 . S
O1494 C1467 1.289 . S
C1495 O1487 1.258 . S
C1495 O1488 1.266 . S
Co1496 O1499 1.970 . S
Co1496 N1513 1.989 . S
Co1496 O1521 1.967 . S
Co1496 O1528 1.920 . S
Co1497 O1500 1.966 . S
Co1497 N1506 2.022 . S
Co1497 N1514 1.993 . S
Co1497 O1522 1.941 . S
C1498 O1499 1.258 . S
C1498 O1500 1.263 . S
O1499 Co1496 1.970 . S
O1499 C1498 1.258 . S
O1500 Co1497 1.966 . S
O1500 C1498 1.263 . S
C1501 O1502 1.235 . S
C1501 O1528 1.289 . S
O1502 C1501 1.235 . S
C1503 C1505 1.400 . S
C1503 N1506 1.351 . S
C1503 C1508 1.501 . S
C1504 C1505 1.387 . S
C1504 N1507 1.341 . S
C1505 C1503 1.400 . S
C1505 C1504 1.387 . S
N1506 Co1497 2.022 . S
N1506 C1503 1.351 . S
N1506 N1507 1.365 . S
N1507 C1504 1.341 . S
N1507 N1506 1.365 . S
N1507 H1527 0.862 . S
C1508 C1503 1.501 . S
C1508 H1509 0.961 . S
C1508 H1510 0.961 . S
C1508 H1511 0.960 . S
H1509 C1508 0.961 . S
H1510 C1508 0.961 . S
H1511 C1508 0.960 . S
C1512 N1513 1.342 . S
C1512 C1516 1.401 . S
C1512 C1517 1.499 . S
N1513 Co1496 1.989 . S
N1513 C1512 1.342 . S
N1513 N1514 1.388 . S
N1514 Co1497 1.993 . S
N1514 N1513 1.388 . S
N1514 C1515 1.346 . S
C1515 N1514 1.346 . S
C1515 C1516 1.396 . S
C1515 C1525 1.510 . S
C1516 C1512 1.401 . S
C1516 C1515 1.396 . S
C1517 C1512 1.499 . S
C1517 H1518 0.959 . S
C1517 H1519 0.960 . S
C1517 H1520 0.961 . S
H1518 C1517 0.959 . S
H1519 C1517 0.960 . S
H1520 C1517 0.961 . S
O1521 Co1496 1.967 . S
O1521 C1529 1.258 . S
O1522 Co1497 1.941 . S
O1522 C1529 1.266 . S
H1523 C1525 0.959 . S
H1524 C1525 0.961 . S
C1525 C1515 1.510 . S
C1525 H1523 0.959 . S
C1525 H1524 0.961 . S
C1525 H1526 0.960 . S
H1526 C1525 0.960 . S
H1527 N1507 0.862 . S
O1528 Co1496 1.920 . S
O1528 C1501 1.289 . S
C1529 O1521 1.258 . S
C1529 O1522 1.266 . S
Co1530 O1533 1.970 . S
Co1530 N1547 1.989 . S
Co1530 O1555 1.967 . S
Co1530 O1562 1.920 . S
Co1531 O1534 1.966 . S
Co1531 N1540 2.022 . S
Co1531 N1548 1.993 . S
Co1531 O1556 1.941 . S
C1532 O1533 1.258 . S
C1532 O1534 1.263 . S
O1533 Co1530 1.970 . S
O1533 C1532 1.258 . S
O1534 Co1531 1.966 . S
O1534 C1532 1.263 . S
C1535 O1536 1.235 . S
C1535 O1562 1.289 . S
O1536 C1535 1.235 . S
C1537 C1539 1.400 . S
C1537 N1540 1.351 . S
C1537 C1542 1.501 . S
C1538 C1539 1.387 . S
C1538 N1541 1.341 . S
C1539 C1537 1.400 . S
C1539 C1538 1.387 . S
N1540 Co1531 2.022 . S
N1540 C1537 1.351 . S
N1540 N1541 1.365 . S
N1541 C1538 1.341 . S
N1541 N1540 1.365 . S
N1541 H1561 0.862 . S
C1542 C1537 1.501 . S
C1542 H1543 0.961 . S
C1542 H1544 0.961 . S
C1542 H1545 0.960 . S
H1543 C1542 0.961 . S
H1544 C1542 0.961 . S
H1545 C1542 0.960 . S
C1546 N1547 1.342 . S
C1546 C1550 1.401 . S
C1546 C1551 1.499 . S
N1547 Co1530 1.989 . S
N1547 C1546 1.342 . S
N1547 N1548 1.388 . S
N1548 Co1531 1.993 . S
N1548 N1547 1.388 . S
N1548 C1549 1.346 . S
C1549 N1548 1.346 . S
C1549 C1550 1.396 . S
C1549 C1559 1.510 . S
C1550 C1546 1.401 . S
C1550 C1549 1.396 . S
C1551 C1546 1.499 . S
C1551 H1552 0.959 . S
C1551 H1553 0.960 . S
C1551 H1554 0.961 . S
H1552 C1551 0.959 . S
H1553 C1551 0.960 . S
H1554 C1551 0.961 . S
O1555 Co1530 1.967 . S
O1555 C1563 1.258 . S
O1556 Co1531 1.941 . S
O1556 C1563 1.266 . S
H1557 C1559 0.959 . S
H1558 C1559 0.961 . S
C1559 C1549 1.510 . S
C1559 H1557 0.959 . S
C1559 H1558 0.961 . S
C1559 H1560 0.960 . S
H1560 C1559 0.960 . S
H1561 N1541 0.862 . S
O1562 Co1530 1.920 . S
O1562 C1535 1.289 . S
C1563 O1555 1.258 . S
C1563 O1556 1.266 . S
Co1564 O1567 1.970 . S
Co1564 N1581 1.989 . S
Co1564 O1589 1.967 . S
Co1564 O1596 1.920 . S
Co1565 O1568 1.966 . S
Co1565 N1574 2.022 . S
Co1565 N1582 1.993 . S
Co1565 O1590 1.941 . S
C1566 O1567 1.258 . S
C1566 O1568 1.263 . S
O1567 Co1564 1.970 . S
O1567 C1566 1.258 . S
O1568 Co1565 1.966 . S
O1568 C1566 1.263 . S
C1569 O1570 1.235 . S
C1569 O1596 1.289 . S
O1570 C1569 1.235 . S
C1571 C1573 1.400 . S
C1571 N1574 1.351 . S
C1571 C1576 1.501 . S
C1572 C1573 1.387 . S
C1572 N1575 1.341 . S
C1573 C1571 1.400 . S
C1573 C1572 1.387 . S
N1574 Co1565 2.022 . S
N1574 C1571 1.351 . S
N1574 N1575 1.365 . S
N1575 C1572 1.341 . S
N1575 N1574 1.365 . S
N1575 H1595 0.862 . S
C1576 C1571 1.501 . S
C1576 H1577 0.961 . S
C1576 H1578 0.961 . S
C1576 H1579 0.960 . S
H1577 C1576 0.961 . S
H1578 C1576 0.961 . S
H1579 C1576 0.960 . S
C1580 N1581 1.342 . S
C1580 C1584 1.401 . S
C1580 C1585 1.499 . S
N1581 Co1564 1.989 . S
N1581 C1580 1.342 . S
N1581 N1582 1.388 . S
N1582 Co1565 1.993 . S
N1582 N1581 1.388 . S
N1582 C1583 1.346 . S
C1583 N1582 1.346 . S
C1583 C1584 1.396 . S
C1583 C1593 1.510 . S
C1584 C1580 1.401 . S
C1584 C1583 1.396 . S
C1585 C1580 1.499 . S
C1585 H1586 0.959 . S
C1585 H1587 0.960 . S
C1585 H1588 0.961 . S
H1586 C1585 0.959 . S
H1587 C1585 0.960 . S
H1588 C1585 0.961 . S
O1589 Co1564 1.967 . S
O1589 C1597 1.258 . S
O1590 Co1565 1.941 . S
O1590 C1597 1.266 . S
H1591 C1593 0.959 . S
H1592 C1593 0.961 . S
C1593 C1583 1.510 . S
C1593 H1591 0.959 . S
C1593 H1592 0.961 . S
C1593 H1594 0.960 . S
H1594 C1593 0.960 . S
H1595 N1575 0.862 . S
O1596 Co1564 1.920 . S
O1596 C1569 1.289 . S
C1597 O1589 1.258 . S
C1597 O1590 1.266 . S
Co1598 O1601 1.970 . S
Co1598 N1615 1.989 . S
Co1598 O1623 1.967 . S
Co1598 O1630 1.920 . S
Co1599 O1602 1.966 . S
Co1599 N1608 2.022 . S
Co1599 N1616 1.993 . S
Co1599 O1624 1.941 . S
C1600 O1601 1.258 . S
C1600 O1602 1.263 . S
O1601 Co1598 1.970 . S
O1601 C1600 1.258 . S
O1602 Co1599 1.966 . S
O1602 C1600 1.263 . S
C1603 O1604 1.235 . S
C1603 O1630 1.289 . S
O1604 C1603 1.235 . S
C1605 C1607 1.400 . S
C1605 N1608 1.351 . S
C1605 C1610 1.501 . S
C1606 C1607 1.387 . S
C1606 N1609 1.341 . S
C1607 C1605 1.400 . S
C1607 C1606 1.387 . S
N1608 Co1599 2.022 . S
N1608 C1605 1.351 . S
N1608 N1609 1.365 . S
N1609 C1606 1.341 . S
N1609 N1608 1.365 . S
N1609 H1629 0.862 . S
C1610 C1605 1.501 . S
C1610 H1611 0.961 . S
C1610 H1612 0.961 . S
C1610 H1613 0.960 . S
H1611 C1610 0.961 . S
H1612 C1610 0.961 . S
H1613 C1610 0.960 . S
C1614 N1615 1.342 . S
C1614 C1618 1.401 . S
C1614 C1619 1.499 . S
N1615 Co1598 1.989 . S
N1615 C1614 1.342 . S
N1615 N1616 1.388 . S
N1616 Co1599 1.993 . S
N1616 N1615 1.388 . S
N1616 C1617 1.346 . S
C1617 N1616 1.346 . S
C1617 C1618 1.396 . S
C1617 C1627 1.510 . S
C1618 C1614 1.401 . S
C1618 C1617 1.396 . S
C1619 C1614 1.499 . S
C1619 H1620 0.959 . S
C1619 H1621 0.960 . S
C1619 H1622 0.961 . S
H1620 C1619 0.959 . S
H1621 C1619 0.960 . S
H1622 C1619 0.961 . S
O1623 Co1598 1.967 . S
O1623 C1631 1.258 . S
O1624 Co1599 1.941 . S
O1624 C1631 1.266 . S
H1625 C1627 0.959 . S
H1626 C1627 0.961 . S
C1627 C1617 1.510 . S
C1627 H1625 0.959 . S
C1627 H1626 0.961 . S
C1627 H1628 0.960 . S
H1628 C1627 0.960 . S
H1629 N1609 0.862 . S
O1630 Co1598 1.920 . S
O1630 C1603 1.289 . S
C1631 O1623 1.258 . S
C1631 O1624 1.266 . S
C1632 C1633 1.387 . S
C1632 H1636 0.950 . S
C1632 C1641 1.390 . S
C1633 C1632 1.387 . S
C1633 C1635 1.387 . S
H1634 C1641 0.950 . S
C1635 C1633 1.387 . S
C1635 C1637 1.390 . S
C1635 H1639 0.950 . S
H1636 C1632 0.950 . S
C1637 C1635 1.390 . S
C1637 C1638 1.387 . S
C1637 H1640 0.950 . S
C1638 C1637 1.387 . S
C1638 C1641 1.387 . S
H1639 C1635 0.950 . S
H1640 C1637 0.950 . S
C1641 C1632 1.390 . S
C1641 H1634 0.950 . S
C1641 C1638 1.387 . S
C1642 C1643 1.387 . S
C1642 H1646 0.950 . S
C1642 C1651 1.390 . S
C1643 C1642 1.387 . S
C1643 C1645 1.387 . S
H1644 C1651 0.950 . S
C1645 C1643 1.387 . S
C1645 C1647 1.390 . S
C1645 H1649 0.950 . S
H1646 C1642 0.950 . S
C1647 C1645 1.390 . S
C1647 C1648 1.387 . S
C1647 H1650 0.950 . S
C1648 C1647 1.387 . S
C1648 C1651 1.387 . S
H1649 C1645 0.950 . S
H1650 C1647 0.950 . S
C1651 C1642 1.390 . S
C1651 H1644 0.950 . S
C1651 C1648 1.387 . S
C1652 C1653 1.387 . S
C1652 H1656 0.950 . S
C1652 C1661 1.390 . S
C1653 C1652 1.387 . S
C1653 C1655 1.387 . S
H1654 C1661 0.950 . S
C1655 C1653 1.387 . S
C1655 C1657 1.390 . S
C1655 H1659 0.950 . S
H1656 C1652 0.950 . S
C1657 C1655 1.390 . S
C1657 C1658 1.387 . S
C1657 H1660 0.950 . S
C1658 C1657 1.387 . S
C1658 C1661 1.387 . S
H1659 C1655 0.950 . S
H1660 C1657 0.950 . S
C1661 C1652 1.390 . S
C1661 H1654 0.950 . S
C1661 C1658 1.387 . S
C1662 C1663 1.387 . S
C1662 H1666 0.950 . S
C1662 C1671 1.390 . S
C1663 C1662 1.387 . S
C1663 C1665 1.387 . S
H1664 C1671 0.950 . S
C1665 C1663 1.387 . S
C1665 C1667 1.390 . S
C1665 H1669 0.950 . S
H1666 C1662 0.950 . S
C1667 C1665 1.390 . S
C1667 C1668 1.387 . S
C1667 H1670 0.950 . S
C1668 C1667 1.387 . S
C1668 C1671 1.387 . S
H1669 C1665 0.950 . S
H1670 C1667 0.950 . S
C1671 C1662 1.390 . S
C1671 H1664 0.950 . S
C1671 C1668 1.387 . S
C1672 C1673 1.387 . S
C1672 H1676 0.950 . S
C1672 C1681 1.390 . S
C1673 C1672 1.387 . S
C1673 C1675 1.387 . S
H1674 C1681 0.950 . S
C1675 C1673 1.387 . S
C1675 C1677 1.390 . S
C1675 H1679 0.950 . S
H1676 C1672 0.950 . S
C1677 C1675 1.390 . S
C1677 C1678 1.387 . S
C1677 H1680 0.950 . S
C1678 C1677 1.387 . S
C1678 C1681 1.387 . S
H1679 C1675 0.950 . S
H1680 C1677 0.950 . S
C1681 C1672 1.390 . S
C1681 H1674 0.950 . S
C1681 C1678 1.387 . S
C1682 C1683 1.387 . S
C1682 H1686 0.950 . S
C1682 C1691 1.390 . S
C1683 C1682 1.387 . S
C1683 C1685 1.387 . S
H1684 C1691 0.950 . S
C1685 C1683 1.387 . S
C1685 C1687 1.390 . S
C1685 H1689 0.950 . S
H1686 C1682 0.950 . S
C1687 C1685 1.390 . S
C1687 C1688 1.387 . S
C1687 H1690 0.950 . S
C1688 C1687 1.387 . S
C1688 C1691 1.387 . S
H1689 C1685 0.950 . S
H1690 C1687 0.950 . S
C1691 C1682 1.390 . S
C1691 H1684 0.950 . S
C1691 C1688 1.387 . S
C1692 C1693 1.387 . S
C1692 H1696 0.950 . S
C1692 C1701 1.390 . S
C1693 C1692 1.387 . S
C1693 C1695 1.387 . S
H1694 C1701 0.950 . S
C1695 C1693 1.387 . S
C1695 C1697 1.390 . S
C1695 H1699 0.950 . S
H1696 C1692 0.950 . S
C1697 C1695 1.390 . S
C1697 C1698 1.387 . S
C1697 H1700 0.950 . S
C1698 C1697 1.387 . S
C1698 C1701 1.387 . S
H1699 C1695 0.950 . S
H1700 C1697 0.950 . S
C1701 C1692 1.390 . S
C1701 H1694 0.950 . S
C1701 C1698 1.387 . S
C1702 C1703 1.387 . S
C1702 H1706 0.950 . S
C1702 C1711 1.390 . S
C1703 C1702 1.387 . S
C1703 C1705 1.387 . S
H1704 C1711 0.950 . S
C1705 C1703 1.387 . S
C1705 C1707 1.390 . S
C1705 H1709 0.950 . S
H1706 C1702 0.950 . S
C1707 C1705 1.390 . S
C1707 C1708 1.387 . S
C1707 H1710 0.950 . S
C1708 C1707 1.387 . S
C1708 C1711 1.387 . S
H1709 C1705 0.950 . S
H1710 C1707 0.950 . S
C1711 C1702 1.390 . S
C1711 H1704 0.950 . S
C1711 C1708 1.387 . S
C1712 C1713 1.387 . S
C1712 H1716 0.950 . S
C1712 C1721 1.390 . S
C1713 C1712 1.387 . S
C1713 C1715 1.387 . S
H1714 C1721 0.950 . S
C1715 C1713 1.387 . S
C1715 C1717 1.390 . S
C1715 H1719 0.950 . S
H1716 C1712 0.950 . S
C1717 C1715 1.390 . S
C1717 C1718 1.387 . S
C1717 H1720 0.950 . S
C1718 C1717 1.387 . S
C1718 C1721 1.387 . S
H1719 C1715 0.950 . S
H1720 C1717 0.950 . S
C1721 C1712 1.390 . S
C1721 H1714 0.950 . S
C1721 C1718 1.387 . S
C1722 C1723 1.387 . S
C1722 H1726 0.950 . S
C1722 C1731 1.390 . S
C1723 C1722 1.387 . S
C1723 C1725 1.387 . S
H1724 C1731 0.950 . S
C1725 C1723 1.387 . S
C1725 C1727 1.390 . S
C1725 H1729 0.950 . S
H1726 C1722 0.950 . S
C1727 C1725 1.390 . S
C1727 C1728 1.387 . S
C1727 H1730 0.950 . S
C1728 C1727 1.387 . S
C1728 C1731 1.387 . S
H1729 C1725 0.950 . S
H1730 C1727 0.950 . S
C1731 C1722 1.390 . S
C1731 H1724 0.950 . S
C1731 C1728 1.387 . S
C1732 C1733 1.387 . S
C1732 H1736 0.950 . S
C1732 C1741 1.390 . S
C1733 C1732 1.387 . S
C1733 C1735 1.387 . S
H1734 C1741 0.950 . S
C1735 C1733 1.387 . S
C1735 C1737 1.390 . S
C1735 H1739 0.950 . S
H1736 C1732 0.950 . S
C1737 C1735 1.390 . S
C1737 C1738 1.387 . S
C1737 H1740 0.950 . S
C1738 C1737 1.387 . S
C1738 C1741 1.387 . S
H1739 C1735 0.950 . S
H1740 C1737 0.950 . S
C1741 C1732 1.390 . S
C1741 H1734 0.950 . S
C1741 C1738 1.387 . S
C1742 C1743 1.387 . S
C1742 H1746 0.950 . S
C1742 C1751 1.390 . S
C1743 C1742 1.387 . S
C1743 C1745 1.387 . S
H1744 C1751 0.950 . S
C1745 C1743 1.387 . S
C1745 C1747 1.390 . S
C1745 H1749 0.950 . S
H1746 C1742 0.950 . S
C1747 C1745 1.390 . S
C1747 C1748 1.387 . S
C1747 H1750 0.950 . S
C1748 C1747 1.387 . S
C1748 C1751 1.387 . S
H1749 C1745 0.950 . S
H1750 C1747 0.950 . S
C1751 C1742 1.390 . S
C1751 H1744 0.950 . S
C1751 C1748 1.387 . S
C1752 C1753 1.387 . S
C1752 H1756 0.950 . S
C1752 C1761 1.390 . S
C1753 C1752 1.387 . S
C1753 C1755 1.387 . S
H1754 C1761 0.950 . S
C1755 C1753 1.387 . S
C1755 C1757 1.390 . S
C1755 H1759 0.950 . S
H1756 C1752 0.950 . S
C1757 C1755 1.390 . S
C1757 C1758 1.387 . S
C1757 H1760 0.950 . S
C1758 C1757 1.387 . S
C1758 C1761 1.387 . S
H1759 C1755 0.950 . S
H1760 C1757 0.950 . S
C1761 C1752 1.390 . S
C1761 H1754 0.950 . S
C1761 C1758 1.387 . S
C1762 C1763 1.387 . S
C1762 H1766 0.950 . S
C1762 C1771 1.390 . S
C1763 C1762 1.387 . S
C1763 C1765 1.387 . S
H1764 C1771 0.950 . S
C1765 C1763 1.387 . S
C1765 C1767 1.390 . S
C1765 H1769 0.950 . S
H1766 C1762 0.950 . S
C1767 C1765 1.390 . S
C1767 C1768 1.387 . S
C1767 H1770 0.950 . S
C1768 C1767 1.387 . S
C1768 C1771 1.387 . S
H1769 C1765 0.950 . S
H1770 C1767 0.950 . S
C1771 C1762 1.390 . S
C1771 H1764 0.950 . S
C1771 C1768 1.387 . S
C1772 C1773 1.387 . S
C1772 H1776 0.950 . S
C1772 C1781 1.390 . S
C1773 C1772 1.387 . S
C1773 C1775 1.387 . S
H1774 C1781 0.950 . S
C1775 C1773 1.387 . S
C1775 C1777 1.390 . S
C1775 H1779 0.950 . S
H1776 C1772 0.950 . S
C1777 C1775 1.390 . S
C1777 C1778 1.387 . S
C1777 H1780 0.950 . S
C1778 C1777 1.387 . S
C1778 C1781 1.387 . S
H1779 C1775 0.950 . S
H1780 C1777 0.950 . S
C1781 C1772 1.390 . S
C1781 H1774 0.950 . S
C1781 C1778 1.387 . S
C1782 C1783 1.387 . S
C1782 H1786 0.950 . S
C1782 C1791 1.390 . S
C1783 C1782 1.387 . S
C1783 C1785 1.387 . S
H1784 C1791 0.950 . S
C1785 C1783 1.387 . S
C1785 C1787 1.390 . S
C1785 H1789 0.950 . S
H1786 C1782 0.950 . S
C1787 C1785 1.390 . S
C1787 C1788 1.387 . S
C1787 H1790 0.950 . S
C1788 C1787 1.387 . S
C1788 C1791 1.387 . S
H1789 C1785 0.950 . S
H1790 C1787 0.950 . S
C1791 C1782 1.390 . S
C1791 H1784 0.950 . S
C1791 C1788 1.387 . S
C1792 C1793 1.387 . S
C1792 H1796 0.950 . S
C1792 C1801 1.390 . S
C1793 C1792 1.387 . S
C1793 C1795 1.387 . S
H1794 C1801 0.950 . S
C1795 C1793 1.387 . S
C1795 C1797 1.390 . S
C1795 H1799 0.950 . S
H1796 C1792 0.950 . S
C1797 C1795 1.390 . S
C1797 C1798 1.387 . S
C1797 H1800 0.950 . S
C1798 C1797 1.387 . S
C1798 C1801 1.387 . S
H1799 C1795 0.950 . S
H1800 C1797 0.950 . S
C1801 C1792 1.390 . S
C1801 H1794 0.950 . S
C1801 C1798 1.387 . S
C1802 C1803 1.387 . S
C1802 H1806 0.950 . S
C1802 C1811 1.390 . S
C1803 C1802 1.387 . S
C1803 C1805 1.387 . S
H1804 C1811 0.950 . S
C1805 C1803 1.387 . S
C1805 C1807 1.390 . S
C1805 H1809 0.950 . S
H1806 C1802 0.950 . S
C1807 C1805 1.390 . S
C1807 C1808 1.387 . S
C1807 H1810 0.950 . S
C1808 C1807 1.387 . S
C1808 C1811 1.387 . S
H1809 C1805 0.950 . S
H1810 C1807 0.950 . S
C1811 C1802 1.390 . S
C1811 H1804 0.950 . S
C1811 C1808 1.387 . S
C1812 C1813 1.387 . S
C1812 H1816 0.950 . S
C1812 C1821 1.390 . S
C1813 C1812 1.387 . S
C1813 C1815 1.387 . S
H1814 C1821 0.950 . S
C1815 C1813 1.387 . S
C1815 C1817 1.390 . S
C1815 H1819 0.950 . S
H1816 C1812 0.950 . S
C1817 C1815 1.390 . S
C1817 C1818 1.387 . S
C1817 H1820 0.950 . S
C1818 C1817 1.387 . S
C1818 C1821 1.387 . S
H1819 C1815 0.950 . S
H1820 C1817 0.950 . S
C1821 C1812 1.390 . S
C1821 H1814 0.950 . S
C1821 C1818 1.387 . S
C1822 C1823 1.387 . S
C1822 H1826 0.950 . S
C1822 C1831 1.390 . S
C1823 C1822 1.387 . S
C1823 C1825 1.387 . S
H1824 C1831 0.950 . S
C1825 C1823 1.387 . S
C1825 C1827 1.390 . S
C1825 H1829 0.950 . S
H1826 C1822 0.950 . S
C1827 C1825 1.390 . S
C1827 C1828 1.387 . S
C1827 H1830 0.950 . S
C1828 C1827 1.387 . S
C1828 C1831 1.387 . S
H1829 C1825 0.950 . S
H1830 C1827 0.950 . S
C1831 C1822 1.390 . S
C1831 H1824 0.950 . S
C1831 C1828 1.387 . S
C1832 C1833 1.387 . S
C1832 H1836 0.950 . S
C1832 C1841 1.390 . S
C1833 C1832 1.387 . S
C1833 C1835 1.387 . S
H1834 C1841 0.950 . S
C1835 C1833 1.387 . S
C1835 C1837 1.390 . S
C1835 H1839 0.950 . S
H1836 C1832 0.950 . S
C1837 C1835 1.390 . S
C1837 C1838 1.387 . S
C1837 H1840 0.950 . S
C1838 C1837 1.387 . S
C1838 C1841 1.387 . S
H1839 C1835 0.950 . S
H1840 C1837 0.950 . S
C1841 C1832 1.390 . S
C1841 H1834 0.950 . S
C1841 C1838 1.387 . S
C1842 C1843 1.387 . S
C1842 H1846 0.950 . S
C1842 C1851 1.390 . S
C1843 C1842 1.387 . S
C1843 C1845 1.387 . S
H1844 C1851 0.950 . S
C1845 C1843 1.387 . S
C1845 C1847 1.390 . S
C1845 H1849 0.950 . S
H1846 C1842 0.950 . S
C1847 C1845 1.390 . S
C1847 C1848 1.387 . S
C1847 H1850 0.950 . S
C1848 C1847 1.387 . S
C1848 C1851 1.387 . S
H1849 C1845 0.950 . S
H1850 C1847 0.950 . S
C1851 C1842 1.390 . S
C1851 H1844 0.950 . S
C1851 C1848 1.387 . S
C1852 C1853 1.387 . S
C1852 H1856 0.950 . S
C1852 C1861 1.390 . S
C1853 C1852 1.387 . S
C1853 C1855 1.387 . S
H1854 C1861 0.950 . S
C1855 C1853 1.387 . S
C1855 C1857 1.390 . S
C1855 H1859 0.950 . S
H1856 C1852 0.950 . S
C1857 C1855 1.390 . S
C1857 C1858 1.387 . S
C1857 H1860 0.950 . S
C1858 C1857 1.387 . S
C1858 C1861 1.387 . S
H1859 C1855 0.950 . S
H1860 C1857 0.950 . S
C1861 C1852 1.390 . S
C1861 H1854 0.950 . S
C1861 C1858 1.387 . S
C1862 C1863 1.387 . S
C1862 H1866 0.950 . S
C1862 C1871 1.390 . S
C1863 C1862 1.387 . S
C1863 C1865 1.387 . S
H1864 C1871 0.950 . S
C1865 C1863 1.387 . S
C1865 C1867 1.390 . S
C1865 H1869 0.950 . S
H1866 C1862 0.950 . S
C1867 C1865 1.390 . S
C1867 C1868 1.387 . S
C1867 H1870 0.950 . S
C1868 C1867 1.387 . S
C1868 C1871 1.387 . S
H1869 C1865 0.950 . S
H1870 C1867 0.950 . S
C1871 C1862 1.390 . S
C1871 H1864 0.950 . S
C1871 C1868 1.387 . S
C1872 C1873 1.387 . S
C1872 H1876 0.950 . S
C1872 C1881 1.390 1_655 S
C1873 C1872 1.387 . S
C1873 C1875 1.387 . S
H1874 C1881 0.950 . S
C1875 C1873 1.387 . S
C1875 C1877 1.390 1_655 S
C1875 H1879 0.950 . S
H1876 C1872 0.950 . S
C1877 C1875 1.390 1_455 S
C1877 C1878 1.387 . S
C1877 H1880 0.950 . S
C1878 C1877 1.387 . S
C1878 C1881 1.387 . S
H1879 C1875 0.950 . S
H1880 C1877 0.950 . S
C1881 C1872 1.390 1_455 S
C1881 H1874 0.950 . S
C1881 C1878 1.387 . S
C1882 C1883 1.387 . S
C1882 H1886 0.950 . S
C1882 C1891 1.390 1_545 S
C1883 C1882 1.387 . S
C1883 C1885 1.387 . S
H1884 C1891 0.950 . S
C1885 C1883 1.387 . S
C1885 C1887 1.390 1_545 S
C1885 H1889 0.950 . S
H1886 C1882 0.950 . S
C1887 C1885 1.390 1_565 S
C1887 C1888 1.387 . S
C1887 H1890 0.950 . S
C1888 C1887 1.387 . S
C1888 C1891 1.387 . S
H1889 C1885 0.950 . S
H1890 C1887 0.950 . S
C1891 C1882 1.390 1_565 S
C1891 H1884 0.950 . S
C1891 C1888 1.387 . S
C1892 C1893 1.387 . S
C1892 H1896 0.950 . S
C1892 C1901 1.390 1_655 S
C1893 C1892 1.387 . S
C1893 C1895 1.387 . S
H1894 C1901 0.950 . S
C1895 C1893 1.387 . S
C1895 C1897 1.390 1_655 S
C1895 H1899 0.950 . S
H1896 C1892 0.950 . S
C1897 C1895 1.390 1_455 S
C1897 C1898 1.387 . S
C1897 H1900 0.950 . S
C1898 C1897 1.387 . S
C1898 C1901 1.387 . S
H1899 C1895 0.950 . S
H1900 C1897 0.950 . S
C1901 C1892 1.390 1_455 S
C1901 H1894 0.950 . S
C1901 C1898 1.387 . S
C1902 C1903 1.387 . S
C1902 H1906 0.950 . S
C1902 C1911 1.390 1_565 S
C1903 C1902 1.387 . S
C1903 C1905 1.387 . S
H1904 C1911 0.950 . S
C1905 C1903 1.387 . S
C1905 C1907 1.390 1_565 S
C1905 H1909 0.950 . S
H1906 C1902 0.950 . S
C1907 C1905 1.390 1_545 S
C1907 C1908 1.387 . S
C1907 H1910 0.950 . S
C1908 C1907 1.387 . S
C1908 C1911 1.387 . S
H1909 C1905 0.950 . S
H1910 C1907 0.950 . S
C1911 C1902 1.390 1_545 S
C1911 H1904 0.950 . S
C1911 C1908 1.387 . S
C1912 C1913 1.387 . S
C1912 H1916 0.950 . S
C1912 C1921 1.390 1_545 S
C1913 C1912 1.387 . S
C1913 C1915 1.387 . S
H1914 C1921 0.950 . S
C1915 C1913 1.387 . S
C1915 C1917 1.390 1_545 S
C1915 H1919 0.950 . S
H1916 C1912 0.950 . S
C1917 C1915 1.390 1_565 S
C1917 C1918 1.387 . S
C1917 H1920 0.950 . S
C1918 C1917 1.387 . S
C1918 C1921 1.387 . S
H1919 C1915 0.950 . S
H1920 C1917 0.950 . S
C1921 C1912 1.390 1_565 S
C1921 H1914 0.950 . S
C1921 C1918 1.387 . S
C1922 C1923 1.387 . S
C1922 H1926 0.950 . S
C1922 C1931 1.390 1_455 S
C1923 C1922 1.387 . S
C1923 C1925 1.387 . S
H1924 C1931 0.950 . S
C1925 C1923 1.387 . S
C1925 C1927 1.390 1_455 S
C1925 H1929 0.950 . S
H1926 C1922 0.950 . S
C1927 C1925 1.390 1_655 S
C1927 C1928 1.387 . S
C1927 H1930 0.950 . S
C1928 C1927 1.387 . S
C1928 C1931 1.387 . S
H1929 C1925 0.950 . S
H1930 C1927 0.950 . S
C1931 C1922 1.390 1_655 S
C1931 H1924 0.950 . S
C1931 C1928 1.387 . S
C1932 C1933 1.387 . S
C1932 H1936 0.950 . S
C1932 C1941 1.390 1_545 S
C1933 C1932 1.387 . S
C1933 C1935 1.387 . S
H1934 C1941 0.950 . S
C1935 C1933 1.387 . S
C1935 C1937 1.390 1_545 S
C1935 H1939 0.950 . S
H1936 C1932 0.950 . S
C1937 C1935 1.390 1_565 S
C1937 C1938 1.387 . S
C1937 H1940 0.950 . S
C1938 C1937 1.387 . S
C1938 C1941 1.387 . S
H1939 C1935 0.950 . S
H1940 C1937 0.950 . S
C1941 C1932 1.390 1_565 S
C1941 H1934 0.950 . S
C1941 C1938 1.387 . S
C1942 C1943 1.387 . S
C1942 H1946 0.950 . S
C1942 C1951 1.390 1_655 S
C1943 C1942 1.387 . S
C1943 C1945 1.387 . S
H1944 C1951 0.950 . S
C1945 C1943 1.387 . S
C1945 C1947 1.390 1_655 S
C1945 H1949 0.950 . S
H1946 C1942 0.950 . S
C1947 C1945 1.390 1_455 S
C1947 C1948 1.387 . S
C1947 H1950 0.950 . S
C1948 C1947 1.387 . S
C1948 C1951 1.387 . S
H1949 C1945 0.950 . S
H1950 C1947 0.950 . S
C1951 C1942 1.390 1_455 S
C1951 H1944 0.950 . S
C1951 C1948 1.387 . S
C1952 C1953 1.387 . S
C1952 H1956 0.950 . S
C1952 C1961 1.390 1_556 S
C1953 C1952 1.387 . S
C1953 C1955 1.387 . S
H1954 C1961 0.950 . S
C1955 C1953 1.387 . S
C1955 C1957 1.390 1_556 S
C1955 H1959 0.950 . S
H1956 C1952 0.950 . S
C1957 C1955 1.390 1_554 S
C1957 C1958 1.387 . S
C1957 H1960 0.950 . S
C1958 C1957 1.387 . S
C1958 C1961 1.387 . S
H1959 C1955 0.950 . S
H1960 C1957 0.950 . S
C1961 C1952 1.390 1_554 S
C1961 H1954 0.950 . S
C1961 C1958 1.387 . S
C1962 C1963 1.387 . S
C1962 H1966 0.950 . S
C1962 C1971 1.390 1_556 S
C1963 C1962 1.387 . S
C1963 C1965 1.387 . S
H1964 C1971 0.950 . S
C1965 C1963 1.387 . S
C1965 C1967 1.390 1_556 S
C1965 H1969 0.950 . S
H1966 C1962 0.950 . S
C1967 C1965 1.390 1_554 S
C1967 C1968 1.387 . S
C1967 H1970 0.950 . S
C1968 C1967 1.387 . S
C1968 C1971 1.387 . S
H1969 C1965 0.950 . S
H1970 C1967 0.950 . S
C1971 C1962 1.390 1_554 S
C1971 H1964 0.950 . S
C1971 C1968 1.387 . S
C1972 C1973 1.387 . S
C1972 H1976 0.950 . S
C1972 C1981 1.390 1_556 S
C1973 C1972 1.387 . S
C1973 C1975 1.387 . S
H1974 C1981 0.950 . S
C1975 C1973 1.387 . S
C1975 C1977 1.390 1_556 S
C1975 H1979 0.950 . S
H1976 C1972 0.950 . S
C1977 C1975 1.390 1_554 S
C1977 C1978 1.387 . S
C1977 H1980 0.950 . S
C1978 C1977 1.387 . S
C1978 C1981 1.387 . S
H1979 C1975 0.950 . S
H1980 C1977 0.950 . S
C1981 C1972 1.390 1_554 S
C1981 H1974 0.950 . S
C1981 C1978 1.387 . S
C1982 C1983 1.387 . S
C1982 H1986 0.950 . S
C1982 C1991 1.390 1_556 S
C1983 C1982 1.387 . S
C1983 C1985 1.387 . S
H1984 C1991 0.950 . S
C1985 C1983 1.387 . S
C1985 C1987 1.390 1_556 S
C1985 H1989 0.950 . S
H1986 C1982 0.950 . S
C1987 C1985 1.390 1_554 S
C1987 C1988 1.387 . S
C1987 H1990 0.950 . S
C1988 C1987 1.387 . S
C1988 C1991 1.387 . S
H1989 C1985 0.950 . S
H1990 C1987 0.950 . S
C1991 C1982 1.390 1_554 S
C1991 H1984 0.950 . S
C1991 C1988 1.387 . S
C1992 C1993 1.387 . S
C1992 H1996 0.950 . S
C1992 C2001 1.390 1_545 S
C1993 C1992 1.387 . S
C1993 C1995 1.387 . S
H1994 C2001 0.950 . S
C1995 C1993 1.387 . S
C1995 C1997 1.390 1_545 S
C1995 H1999 0.950 . S
H1996 C1992 0.950 . S
C1997 C1995 1.390 1_565 S
C1997 C1998 1.387 . S
C1997 H2000 0.950 . S
C1998 C1997 1.387 . S
C1998 C2001 1.387 . S
H1999 C1995 0.950 . S
H2000 C1997 0.950 . S
C2001 C1992 1.390 1_565 S
C2001 H1994 0.950 . S
C2001 C1998 1.387 . S
C2002 C2003 1.387 . S
C2002 H2006 0.950 . S
C2002 C2011 1.390 1_655 S
C2003 C2002 1.387 . S
C2003 C2005 1.387 . S
H2004 C2011 0.950 . S
C2005 C2003 1.387 . S
C2005 C2007 1.390 1_655 S
C2005 H2009 0.950 . S
H2006 C2002 0.950 . S
C2007 C2005 1.390 1_455 S
C2007 C2008 1.387 . S
C2007 H2010 0.950 . S
C2008 C2007 1.387 . S
C2008 C2011 1.387 . S
H2009 C2005 0.950 . S
H2010 C2007 0.950 . S
C2011 C2002 1.390 1_455 S
C2011 H2004 0.950 . S
C2011 C2008 1.387 . S
C2012 C2013 1.387 . S
C2012 H2016 0.950 . S
C2012 C2021 1.390 1_565 S
C2013 C2012 1.387 . S
C2013 C2015 1.387 . S
H2014 C2021 0.950 . S
C2015 C2013 1.387 . S
C2015 C2017 1.390 1_565 S
C2015 H2019 0.950 . S
H2016 C2012 0.950 . S
C2017 C2015 1.390 1_545 S
C2017 C2018 1.387 . S
C2017 H2020 0.950 . S
C2018 C2017 1.387 . S
C2018 C2021 1.387 . S
H2019 C2015 0.950 . S
H2020 C2017 0.950 . S
C2021 C2012 1.390 1_545 S
C2021 H2014 0.950 . S
C2021 C2018 1.387 . S
C2022 C2023 1.387 . S
C2022 H2026 0.950 . S
C2022 C2031 1.390 1_455 S
C2023 C2022 1.387 . S
C2023 C2025 1.387 . S
H2024 C2031 0.950 . S
C2025 C2023 1.387 . S
C2025 C2027 1.390 1_455 S
C2025 H2029 0.950 . S
H2026 C2022 0.950 . S
C2027 C2025 1.390 1_655 S
C2027 C2028 1.387 . S
C2027 H2030 0.950 . S
C2028 C2027 1.387 . S
C2028 C2031 1.387 . S
H2029 C2025 0.950 . S
H2030 C2027 0.950 . S
C2031 C2022 1.390 1_655 S
C2031 H2024 0.950 . S
C2031 C2028 1.387 . S
C2032 C2033 1.387 . S
C2032 H2036 0.950 . S
C2032 C2041 1.390 1_556 S
C2033 C2032 1.387 . S
C2033 C2035 1.387 . S
H2034 C2041 0.950 . S
C2035 C2033 1.387 . S
C2035 C2037 1.390 1_556 S
C2035 H2039 0.950 . S
H2036 C2032 0.950 . S
C2037 C2035 1.390 1_554 S
C2037 C2038 1.387 . S
C2037 H2040 0.950 . S
C2038 C2037 1.387 . S
C2038 C2041 1.387 . S
H2039 C2035 0.950 . S
H2040 C2037 0.950 . S
C2041 C2032 1.390 1_554 S
C2041 H2034 0.950 . S
C2041 C2038 1.387 . S
C2042 C2043 1.387 . S
C2042 H2046 0.950 . S
C2042 C2051 1.390 1_556 S
C2043 C2042 1.387 . S
C2043 C2045 1.387 . S
H2044 C2051 0.950 . S
C2045 C2043 1.387 . S
C2045 C2047 1.390 1_556 S
C2045 H2049 0.950 . S
H2046 C2042 0.950 . S
C2047 C2045 1.390 1_554 S
C2047 C2048 1.387 . S
C2047 H2050 0.950 . S
C2048 C2047 1.387 . S
C2048 C2051 1.387 . S
H2049 C2045 0.950 . S
H2050 C2047 0.950 . S
C2051 C2042 1.390 1_554 S
C2051 H2044 0.950 . S
C2051 C2048 1.387 . S
C2052 C2053 1.387 . S
C2052 H2056 0.950 . S
C2052 C2061 1.390 1_554 S
C2053 C2052 1.387 . S
C2053 C2055 1.387 . S
H2054 C2061 0.950 . S
C2055 C2053 1.387 . S
C2055 C2057 1.390 1_554 S
C2055 H2059 0.950 . S
H2056 C2052 0.950 . S
C2057 C2055 1.390 1_556 S
C2057 C2058 1.387 . S
C2057 H2060 0.950 . S
C2058 C2057 1.387 . S
C2058 C2061 1.387 . S
H2059 C2055 0.950 . S
H2060 C2057 0.950 . S
C2061 C2052 1.390 1_556 S
C2061 H2054 0.950 . S
C2061 C2058 1.387 . S
C2062 C2063 1.387 . S
C2062 H2066 0.950 . S
C2062 C2071 1.390 1_554 S
C2063 C2062 1.387 . S
C2063 C2065 1.387 . S
H2064 C2071 0.950 . S
C2065 C2063 1.387 . S
C2065 C2067 1.390 1_554 S
C2065 H2069 0.950 . S
H2066 C2062 0.950 . S
C2067 C2065 1.390 1_556 S
C2067 C2068 1.387 . S
C2067 H2070 0.950 . S
C2068 C2067 1.387 . S
C2068 C2071 1.387 . S
H2069 C2065 0.950 . S
H2070 C2067 0.950 . S
C2071 C2062 1.390 1_556 S
C2071 H2064 0.950 . S
C2071 C2068 1.387 . S
C2072 C2073 1.387 . S
C2072 H2076 0.950 . S
C2072 C2081 1.390 1_655 S
C2073 C2072 1.387 . S
C2073 C2075 1.387 . S
H2074 C2081 0.950 . S
C2075 C2073 1.387 . S
C2075 C2077 1.390 1_655 S
C2075 H2079 0.950 . S
H2076 C2072 0.950 . S
C2077 C2075 1.390 1_455 S
C2077 C2078 1.387 . S
C2077 H2080 0.950 . S
C2078 C2077 1.387 . S
C2078 C2081 1.387 . S
H2079 C2075 0.950 . S
H2080 C2077 0.950 . S
C2081 C2072 1.390 1_455 S
C2081 H2074 0.950 . S
C2081 C2078 1.387 . S
C2082 C2083 1.387 . S
C2082 H2086 0.950 . S
C2082 C2091 1.390 1_455 S
C2083 C2082 1.387 . S
C2083 C2085 1.387 . S
H2084 C2091 0.950 . S
C2085 C2083 1.387 . S
C2085 C2087 1.390 1_455 S
C2085 H2089 0.950 . S
H2086 C2082 0.950 . S
C2087 C2085 1.390 1_655 S
C2087 C2088 1.387 . S
C2087 H2090 0.950 . S
C2088 C2087 1.387 . S
C2088 C2091 1.387 . S
H2089 C2085 0.950 . S
H2090 C2087 0.950 . S
C2091 C2082 1.390 1_655 S
C2091 H2084 0.950 . S
C2091 C2088 1.387 . S
C2092 C2093 1.387 . S
C2092 H2096 0.950 . S
C2092 C2101 1.390 1_545 S
C2093 C2092 1.387 . S
C2093 C2095 1.387 . S
H2094 C2101 0.950 . S
C2095 C2093 1.387 . S
C2095 C2097 1.390 1_545 S
C2095 H2099 0.950 . S
H2096 C2092 0.950 . S
C2097 C2095 1.390 1_565 S
C2097 C2098 1.387 . S
C2097 H2100 0.950 . S
C2098 C2097 1.387 . S
C2098 C2101 1.387 . S
H2099 C2095 0.950 . S
H2100 C2097 0.950 . S
C2101 C2092 1.390 1_565 S
C2101 H2094 0.950 . S
C2101 C2098 1.387 . S
C2102 C2103 1.387 . S
C2102 H2106 0.950 . S
C2102 C2111 1.390 1_565 S
C2103 C2102 1.387 . S
C2103 C2105 1.387 . S
H2104 C2111 0.950 . S
C2105 C2103 1.387 . S
C2105 C2107 1.390 1_565 S
C2105 H2109 0.950 . S
H2106 C2102 0.950 . S
C2107 C2105 1.390 1_545 S
C2107 C2108 1.387 . S
C2107 H2110 0.950 . S
C2108 C2107 1.387 . S
C2108 C2111 1.387 . S
H2109 C2105 0.950 . S
H2110 C2107 0.950 . S
C2111 C2102 1.390 1_545 S
C2111 H2104 0.950 . S
C2111 C2108 1.387 . S
C2112 C2113 1.387 . S
C2112 H2116 0.950 . S
C2112 C2121 1.390 . S
C2113 C2112 1.387 . S
C2113 C2115 1.387 . S
H2114 C2121 0.950 . S
C2115 C2113 1.387 . S
C2115 C2117 1.390 . S
C2115 H2119 0.950 . S
H2116 C2112 0.950 . S
C2117 C2115 1.390 . S
C2117 C2118 1.387 . S
C2117 H2120 0.950 . S
C2118 C2117 1.387 . S
C2118 C2121 1.387 . S
H2119 C2115 0.950 . S
H2120 C2117 0.950 . S
C2121 C2112 1.390 . S
C2121 H2114 0.950 . S
C2121 C2118 1.387 . S
C2122 C2123 1.387 . S
C2122 H2126 0.950 . S
C2122 C2131 1.390 . S
C2123 C2122 1.387 . S
C2123 C2125 1.387 . S
H2124 C2131 0.950 . S
C2125 C2123 1.387 . S
C2125 C2127 1.390 . S
C2125 H2129 0.950 . S
H2126 C2122 0.950 . S
C2127 C2125 1.390 . S
C2127 C2128 1.387 . S
C2127 H2130 0.950 . S
C2128 C2127 1.387 . S
C2128 C2131 1.387 . S
H2129 C2125 0.950 . S
H2130 C2127 0.950 . S
C2131 C2122 1.390 . S
C2131 H2124 0.950 . S
C2131 C2128 1.387 . S
C2132 C2133 1.387 . S
C2132 H2136 0.950 . S
C2132 C2141 1.390 . S
C2133 C2132 1.387 . S
C2133 C2135 1.387 . S
H2134 C2141 0.950 . S
C2135 C2133 1.387 . S
C2135 C2137 1.390 . S
C2135 H2139 0.950 . S
H2136 C2132 0.950 . S
C2137 C2135 1.390 . S
C2137 C2138 1.387 . S
C2137 H2140 0.950 . S
C2138 C2137 1.387 . S
C2138 C2141 1.387 . S
H2139 C2135 0.950 . S
H2140 C2137 0.950 . S
C2141 C2132 1.390 . S
C2141 H2134 0.950 . S
C2141 C2138 1.387 . S
C2142 C2143 1.387 . S
C2142 H2146 0.950 . S
C2142 C2151 1.390 . S
C2143 C2142 1.387 . S
C2143 C2145 1.387 . S
H2144 C2151 0.950 . S
C2145 C2143 1.387 . S
C2145 C2147 1.390 . S
C2145 H2149 0.950 . S
H2146 C2142 0.950 . S
C2147 C2145 1.390 . S
C2147 C2148 1.387 . S
C2147 H2150 0.950 . S
C2148 C2147 1.387 . S
C2148 C2151 1.387 . S
H2149 C2145 0.950 . S
H2150 C2147 0.950 . S
C2151 C2142 1.390 . S
C2151 H2144 0.950 . S
C2151 C2148 1.387 . S
C2152 C2153 1.387 . S
C2152 H2156 0.950 . S
C2152 C2161 1.390 . S
C2153 C2152 1.387 . S
C2153 C2155 1.387 . S
H2154 C2161 0.950 . S
C2155 C2153 1.387 . S
C2155 C2157 1.390 . S
C2155 H2159 0.950 . S
H2156 C2152 0.950 . S
C2157 C2155 1.390 . S
C2157 C2158 1.387 . S
C2157 H2160 0.950 . S
C2158 C2157 1.387 . S
C2158 C2161 1.387 . S
H2159 C2155 0.950 . S
H2160 C2157 0.950 . S
C2161 C2152 1.390 . S
C2161 H2154 0.950 . S
C2161 C2158 1.387 . S
C2162 C2163 1.387 . S
C2162 H2166 0.950 . S
C2162 C2171 1.390 . S
C2163 C2162 1.387 . S
C2163 C2165 1.387 . S
H2164 C2171 0.950 . S
C2165 C2163 1.387 . S
C2165 C2167 1.390 . S
C2165 H2169 0.950 . S
H2166 C2162 0.950 . S
C2167 C2165 1.390 . S
C2167 C2168 1.387 . S
C2167 H2170 0.950 . S
C2168 C2167 1.387 . S
C2168 C2171 1.387 . S
H2169 C2165 0.950 . S
H2170 C2167 0.950 . S
C2171 C2162 1.390 . S
C2171 H2164 0.950 . S
C2171 C2168 1.387 . S
C2172 C2173 1.387 . S
C2172 H2176 0.950 . S
C2172 C2181 1.390 . S
C2173 C2172 1.387 . S
C2173 C2175 1.387 . S
H2174 C2181 0.950 . S
C2175 C2173 1.387 . S
C2175 C2177 1.390 . S
C2175 H2179 0.950 . S
H2176 C2172 0.950 . S
C2177 C2175 1.390 . S
C2177 C2178 1.387 . S
C2177 H2180 0.950 . S
C2178 C2177 1.387 . S
C2178 C2181 1.387 . S
H2179 C2175 0.950 . S
H2180 C2177 0.950 . S
C2181 C2172 1.390 . S
C2181 H2174 0.950 . S
C2181 C2178 1.387 . S
C2182 C2183 1.387 . S
C2182 H2186 0.950 . S
C2182 C2191 1.390 . S
C2183 C2182 1.387 . S
C2183 C2185 1.387 . S
H2184 C2191 0.950 . S
C2185 C2183 1.387 . S
C2185 C2187 1.390 . S
C2185 H2189 0.950 . S
H2186 C2182 0.950 . S
C2187 C2185 1.390 . S
C2187 C2188 1.387 . S
C2187 H2190 0.950 . S
C2188 C2187 1.387 . S
C2188 C2191 1.387 . S
H2189 C2185 0.950 . S
H2190 C2187 0.950 . S
C2191 C2182 1.390 . S
C2191 H2184 0.950 . S
C2191 C2188 1.387 . S
C2192 C2193 1.387 . S
C2192 H2196 0.950 . S
C2192 C2201 1.390 . S
C2193 C2192 1.387 . S
C2193 C2195 1.387 . S
H2194 C2201 0.950 . S
C2195 C2193 1.387 . S
C2195 C2197 1.390 . S
C2195 H2199 0.950 . S
H2196 C2192 0.950 . S
C2197 C2195 1.390 . S
C2197 C2198 1.387 . S
C2197 H2200 0.950 . S
C2198 C2197 1.387 . S
C2198 C2201 1.387 . S
H2199 C2195 0.950 . S
H2200 C2197 0.950 . S
C2201 C2192 1.390 . S
C2201 H2194 0.950 . S
C2201 C2198 1.387 . S
C2202 C2203 1.387 . S
C2202 H2206 0.950 . S
C2202 C2211 1.390 . S
C2203 C2202 1.387 . S
C2203 C2205 1.387 . S
H2204 C2211 0.950 . S
C2205 C2203 1.387 . S
C2205 C2207 1.390 . S
C2205 H2209 0.950 . S
H2206 C2202 0.950 . S
C2207 C2205 1.390 . S
C2207 C2208 1.387 . S
C2207 H2210 0.950 . S
C2208 C2207 1.387 . S
C2208 C2211 1.387 . S
H2209 C2205 0.950 . S
H2210 C2207 0.950 . S
C2211 C2202 1.390 . S
C2211 H2204 0.950 . S
C2211 C2208 1.387 . S
C2212 C2213 1.387 . S
C2212 H2216 0.950 . S
C2212 C2221 1.390 . S
C2213 C2212 1.387 . S
C2213 C2215 1.387 . S
H2214 C2221 0.950 . S
C2215 C2213 1.387 . S
C2215 C2217 1.390 . S
C2215 H2219 0.950 . S
H2216 C2212 0.950 . S
C2217 C2215 1.390 . S
C2217 C2218 1.387 . S
C2217 H2220 0.950 . S
C2218 C2217 1.387 . S
C2218 C2221 1.387 . S
H2219 C2215 0.950 . S
H2220 C2217 0.950 . S
C2221 C2212 1.390 . S
C2221 H2214 0.950 . S
C2221 C2218 1.387 . S
C2222 C2223 1.387 . S
C2222 H2226 0.950 . S
C2222 C2231 1.390 . S
C2223 C2222 1.387 . S
C2223 C2225 1.387 . S
H2224 C2231 0.950 . S
C2225 C2223 1.387 . S
C2225 C2227 1.390 . S
C2225 H2229 0.950 . S
H2226 C2222 0.950 . S
C2227 C2225 1.390 . S
C2227 C2228 1.387 . S
C2227 H2230 0.950 . S
C2228 C2227 1.387 . S
C2228 C2231 1.387 . S
H2229 C2225 0.950 . S
H2230 C2227 0.950 . S
C2231 C2222 1.390 . S
C2231 H2224 0.950 . S
C2231 C2228 1.387 . S
C2232 C2233 1.387 1_545 S
C2232 H2236 0.950 . S
C2232 C2241 1.390 . S
C2233 C2232 1.387 1_565 S
C2233 C2235 1.387 . S
H2234 C2241 0.950 . S
C2235 C2233 1.387 . S
C2235 C2237 1.390 . S
C2235 H2239 0.950 . S
H2236 C2232 0.950 . S
C2237 C2235 1.390 . S
C2237 C2238 1.387 1_565 S
C2237 H2240 0.950 . S
C2238 C2237 1.387 1_545 S
C2238 C2241 1.387 . S
H2239 C2235 0.950 . S
H2240 C2237 0.950 . S
C2241 C2232 1.390 . S
C2241 H2234 0.950 . S
C2241 C2238 1.387 . S
C2242 C2243 1.387 . S
C2242 H2246 0.950 . S
C2242 C2251 1.390 1_655 S
C2243 C2242 1.387 . S
C2243 C2245 1.387 . S
H2244 C2251 0.950 . S
C2245 C2243 1.387 . S
C2245 C2247 1.390 1_655 S
C2245 H2249 0.950 . S
H2246 C2242 0.950 . S
C2247 C2245 1.390 1_455 S
C2247 C2248 1.387 . S
C2247 H2250 0.950 . S
C2248 C2247 1.387 . S
C2248 C2251 1.387 . S
H2249 C2245 0.950 . S
H2250 C2247 0.950 . S
C2251 C2242 1.390 1_455 S
C2251 H2244 0.950 . S
C2251 C2248 1.387 . S
C2252 C2253 1.387 . S
C2252 H2256 0.950 . S
C2252 C2261 1.390 . S
C2253 C2252 1.387 . S
C2253 C2255 1.387 1_565 S
H2254 C2261 0.950 . S
C2255 C2253 1.387 1_545 S
C2255 C2257 1.390 . S
C2255 H2259 0.950 . S
H2256 C2252 0.950 . S
C2257 C2255 1.390 . S
C2257 C2258 1.387 . S
C2257 H2260 0.950 . S
C2258 C2257 1.387 . S
C2258 C2261 1.387 1_545 S
H2259 C2255 0.950 . S
H2260 C2257 0.950 . S
C2261 C2252 1.390 . S
C2261 H2254 0.950 . S
C2261 C2258 1.387 1_565 S
C2262 C2263 1.387 . S
C2262 H2266 0.950 . S
C2262 C2271 1.390 1_655 S
C2263 C2262 1.387 . S
C2263 C2265 1.387 . S
H2264 C2271 0.950 . S
C2265 C2263 1.387 . S
C2265 C2267 1.390 1_655 S
C2265 H2269 0.950 . S
H2266 C2262 0.950 . S
C2267 C2265 1.390 1_455 S
C2267 C2268 1.387 . S
C2267 H2270 0.950 . S
C2268 C2267 1.387 . S
C2268 C2271 1.387 . S
H2269 C2265 0.950 . S
H2270 C2267 0.950 . S
C2271 C2262 1.390 1_455 S
C2271 H2264 0.950 . S
C2271 C2268 1.387 . S
C2272 C2273 1.396 . S
C2272 H2276 0.950 . S
C2272 C2281 1.381 1_565 S
C2273 C2272 1.396 . S
C2273 C2275 1.387 . S
H2274 C2281 0.950 . S
C2275 C2273 1.387 . S
C2275 C2277 1.381 1_565 S
C2275 H2279 0.950 . S
H2276 C2272 0.950 . S
C2277 C2275 1.381 1_545 S
C2277 C2278 1.396 . S
C2277 H2280 0.950 . S
C2278 C2277 1.396 . S
C2278 C2281 1.387 . S
H2279 C2275 0.950 . S
H2280 C2277 0.950 . S
C2281 C2272 1.381 1_545 S
C2281 H2274 0.950 . S
C2281 C2278 1.387 . S
C2282 C2283 1.387 . S
C2282 H2286 0.950 . S
C2282 C2291 1.390 1_455 S
C2283 C2282 1.387 . S
C2283 C2285 1.387 . S
H2284 C2291 0.950 . S
C2285 C2283 1.387 . S
C2285 C2287 1.390 1_455 S
C2285 H2289 0.950 . S
H2286 C2282 0.950 . S
C2287 C2285 1.390 1_655 S
C2287 C2288 1.387 . S
C2287 H2290 0.950 . S
C2288 C2287 1.387 . S
C2288 C2291 1.387 . S
H2289 C2285 0.950 . S
H2290 C2287 0.950 . S
C2291 C2282 1.390 1_655 S
C2291 H2284 0.950 . S
C2291 C2288 1.387 . S
C2292 C2293 1.387 1_565 S
C2292 H2296 0.950 . S
C2292 C2301 1.390 . S
C2293 C2292 1.387 1_545 S
C2293 C2295 1.387 . S
H2294 C2301 0.950 . S
C2295 C2293 1.387 . S
C2295 C2297 1.390 . S
C2295 H2299 0.950 . S
H2296 C2292 0.950 . S
C2297 C2295 1.390 . S
C2297 C2298 1.387 1_545 S
C2297 H2300 0.950 . S
C2298 C2297 1.387 1_565 S
C2298 C2301 1.387 . S
H2299 C2295 0.950 . S
H2300 C2297 0.950 . S
C2301 C2292 1.390 . S
C2301 H2294 0.950 . S
C2301 C2298 1.387 . S
C2302 C2303 1.387 1_655 S
C2302 H2306 0.950 . S
C2302 C2311 1.390 . S
C2303 C2302 1.387 1_455 S
C2303 C2305 1.387 . S
H2304 C2311 0.950 . S
C2305 C2303 1.387 . S
C2305 C2307 1.390 . S
C2305 H2309 0.950 . S
H2306 C2302 0.950 . S
C2307 C2305 1.390 . S
C2307 C2308 1.387 1_455 S
C2307 H2310 0.950 . S
C2308 C2307 1.387 1_655 S
C2308 C2311 1.387 . S
H2309 C2305 0.950 . S
H2310 C2307 0.950 . S
C2311 C2302 1.390 . S
C2311 H2304 0.950 . S
C2311 C2308 1.387 . S
C2312 C2313 1.418 . S
C2312 H2316 0.952 . S
C2312 C2321 1.359 1_556 S
C2313 C2312 1.418 . S
C2313 C2315 1.387 . S
H2314 C2321 0.950 . S
C2315 C2313 1.387 . S
C2315 C2317 1.359 1_556 S
C2315 H2319 0.950 . S
H2316 C2312 0.952 . S
C2317 C2315 1.359 1_554 S
C2317 C2318 1.418 . S
C2317 H2320 0.952 . S
C2318 C2317 1.418 . S
C2318 C2321 1.387 . S
H2319 C2315 0.950 . S
H2320 C2317 0.952 . S
C2321 C2312 1.359 1_554 S
C2321 H2314 0.950 . S
C2321 C2318 1.387 . S
C2322 C2323 1.387 . S
C2322 H2326 0.950 . S
C2322 C2331 1.390 . S
C2323 C2322 1.387 . S
C2323 C2325 1.387 1_556 S
H2324 C2331 0.950 . S
C2325 C2323 1.387 1_554 S
C2325 C2327 1.390 . S
C2325 H2329 0.950 . S
H2326 C2322 0.950 . S
C2327 C2325 1.390 . S
C2327 C2328 1.387 . S
C2327 H2330 0.950 . S
C2328 C2327 1.387 . S
C2328 C2331 1.387 1_554 S
H2329 C2325 0.950 . S
H2330 C2327 0.950 . S
C2331 C2322 1.390 . S
C2331 H2324 0.950 . S
C2331 C2328 1.387 1_556 S
C2332 C2333 1.387 1_556 S
C2332 H2336 0.950 . S
C2332 C2341 1.390 . S
C2333 C2332 1.387 1_554 S
C2333 C2335 1.387 . S
H2334 C2341 0.950 . S
C2335 C2333 1.387 . S
C2335 C2337 1.390 . S
C2335 H2339 0.950 . S
H2336 C2332 0.950 . S
C2337 C2335 1.390 . S
C2337 C2338 1.387 1_554 S
C2337 H2340 0.950 . S
C2338 C2337 1.387 1_556 S
C2338 C2341 1.387 . S
H2339 C2335 0.950 . S
H2340 C2337 0.950 . S
C2341 C2332 1.390 . S
C2341 H2334 0.950 . S
C2341 C2338 1.387 . S
C2342 C2343 1.387 . S
C2342 H2346 0.950 . S
C2342 C2351 1.390 . S
C2343 C2342 1.387 . S
C2343 C2345 1.387 1_554 S
H2344 C2351 0.950 . S
C2345 C2343 1.387 1_556 S
C2345 C2347 1.390 . S
C2345 H2349 0.950 . S
H2346 C2342 0.950 . S
C2347 C2345 1.390 . S
C2347 C2348 1.387 . S
C2347 H2350 0.950 . S
C2348 C2347 1.387 . S
C2348 C2351 1.387 1_556 S
H2349 C2345 0.950 . S
H2350 C2347 0.950 . S
C2351 C2342 1.390 . S
C2351 H2344 0.950 . S
C2351 C2348 1.387 1_554 S
C2352 C2353 1.387 . S
C2352 H2356 0.950 . S
C2352 C2361 1.390 . S
C2353 C2352 1.387 . S
C2353 C2355 1.387 . S
H2354 C2361 0.950 . S
C2355 C2353 1.387 . S
C2355 C2357 1.390 . S
C2355 H2359 0.950 . S
H2356 C2352 0.950 . S
C2357 C2355 1.390 . S
C2357 C2358 1.387 . S
C2357 H2360 0.950 . S
C2358 C2357 1.387 . S
C2358 C2361 1.387 . S
H2359 C2355 0.950 . S
H2360 C2357 0.950 . S
C2361 C2352 1.390 . S
C2361 H2354 0.950 . S
C2361 C2358 1.387 . S
C2362 C2363 1.387 . S
C2362 H2366 0.950 . S
C2362 C2371 1.390 . S
C2363 C2362 1.387 . S
C2363 C2365 1.387 . S
H2364 C2371 0.950 . S
C2365 C2363 1.387 . S
C2365 C2367 1.390 . S
C2365 H2369 0.950 . S
H2366 C2362 0.950 . S
C2367 C2365 1.390 . S
C2367 C2368 1.387 . S
C2367 H2370 0.950 . S
C2368 C2367 1.387 . S
C2368 C2371 1.387 . S
H2369 C2365 0.950 . S
H2370 C2367 0.950 . S
C2371 C2362 1.390 . S
C2371 H2364 0.950 . S
C2371 C2368 1.387 . S
C2372 C2373 1.387 . S
C2372 H2376 0.950 . S
C2372 C2381 1.390 . S
C2373 C2372 1.387 . S
C2373 C2375 1.387 . S
H2374 C2381 0.950 . S
C2375 C2373 1.387 . S
C2375 C2377 1.390 . S
C2375 H2379 0.950 . S
H2376 C2372 0.950 . S
C2377 C2375 1.390 . S
C2377 C2378 1.387 . S
C2377 H2380 0.950 . S
C2378 C2377 1.387 . S
C2378 C2381 1.387 . S
H2379 C2375 0.950 . S
H2380 C2377 0.950 . S
C2381 C2372 1.390 . S
C2381 H2374 0.950 . S
C2381 C2378 1.387 . S
C2382 C2383 1.387 . S
C2382 H2386 0.950 . S
C2382 C2391 1.390 . S
C2383 C2382 1.387 . S
C2383 C2385 1.387 . S
H2384 C2391 0.950 . S
C2385 C2383 1.387 . S
C2385 C2387 1.390 . S
C2385 H2389 0.950 . S
H2386 C2382 0.950 . S
C2387 C2385 1.390 . S
C2387 C2388 1.387 . S
C2387 H2390 0.950 . S
C2388 C2387 1.387 . S
C2388 C2391 1.387 . S
H2389 C2385 0.950 . S
H2390 C2387 0.950 . S
C2391 C2382 1.390 . S
C2391 H2384 0.950 . S
C2391 C2388 1.387 . S
C2392 C2393 1.387 . S
C2392 H2396 0.950 . S
C2392 C2401 1.390 . S
C2393 C2392 1.387 . S
C2393 C2395 1.387 . S
H2394 C2401 0.950 . S
C2395 C2393 1.387 . S
C2395 C2397 1.390 . S
C2395 H2399 0.950 . S
H2396 C2392 0.950 . S
C2397 C2395 1.390 . S
C2397 C2398 1.387 . S
C2397 H2400 0.950 . S
C2398 C2397 1.387 . S
C2398 C2401 1.387 . S
H2399 C2395 0.950 . S
H2400 C2397 0.950 . S
C2401 C2392 1.390 . S
C2401 H2394 0.950 . S
C2401 C2398 1.387 . S
C2402 C2403 1.387 . S
C2402 H2406 0.950 . S
C2402 C2411 1.390 . S
C2403 C2402 1.387 . S
C2403 C2405 1.387 . S
H2404 C2411 0.950 . S
C2405 C2403 1.387 . S
C2405 C2407 1.390 . S
C2405 H2409 0.950 . S
H2406 C2402 0.950 . S
C2407 C2405 1.390 . S
C2407 C2408 1.387 . S
C2407 H2410 0.950 . S
C2408 C2407 1.387 . S
C2408 C2411 1.387 . S
H2409 C2405 0.950 . S
H2410 C2407 0.950 . S
C2411 C2402 1.390 . S
C2411 H2404 0.950 . S
C2411 C2408 1.387 . S
C2412 C2413 1.387 . S
C2412 H2416 0.950 . S
C2412 C2421 1.390 . S
C2413 C2412 1.387 . S
C2413 C2415 1.387 . S
H2414 C2421 0.950 . S
C2415 C2413 1.387 . S
C2415 C2417 1.390 . S
C2415 H2419 0.950 . S
H2416 C2412 0.950 . S
C2417 C2415 1.390 . S
C2417 C2418 1.387 . S
C2417 H2420 0.950 . S
C2418 C2417 1.387 . S
C2418 C2421 1.387 . S
H2419 C2415 0.950 . S
H2420 C2417 0.950 . S
C2421 C2412 1.390 . S
C2421 H2414 0.950 . S
C2421 C2418 1.387 . S
C2422 C2423 1.387 . S
C2422 H2426 0.950 . S
C2422 C2431 1.390 . S
C2423 C2422 1.387 . S
C2423 C2425 1.387 . S
H2424 C2431 0.950 . S
C2425 C2423 1.387 . S
C2425 C2427 1.390 . S
C2425 H2429 0.950 . S
H2426 C2422 0.950 . S
C2427 C2425 1.390 . S
C2427 C2428 1.387 . S
C2427 H2430 0.950 . S
C2428 C2427 1.387 . S
C2428 C2431 1.387 . S
H2429 C2425 0.950 . S
H2430 C2427 0.950 . S
C2431 C2422 1.390 . S
C2431 H2424 0.950 . S
C2431 C2428 1.387 . S
C2432 C2433 1.387 . S
C2432 H2436 0.950 . S
C2432 C2441 1.390 . S
C2433 C2432 1.387 . S
C2433 C2435 1.387 . S
H2434 C2441 0.950 . S
C2435 C2433 1.387 . S
C2435 C2437 1.390 . S
C2435 H2439 0.950 . S
H2436 C2432 0.950 . S
C2437 C2435 1.390 . S
C2437 C2438 1.387 . S
C2437 H2440 0.950 . S
C2438 C2437 1.387 . S
C2438 C2441 1.387 . S
H2439 C2435 0.950 . S
H2440 C2437 0.950 . S
C2441 C2432 1.390 . S
C2441 H2434 0.950 . S
C2441 C2438 1.387 . S
C2442 C2443 1.387 . S
C2442 H2446 0.950 . S
C2442 C2451 1.390 . S
C2443 C2442 1.387 . S
C2443 C2445 1.387 . S
H2444 C2451 0.950 . S
C2445 C2443 1.387 . S
C2445 C2447 1.390 . S
C2445 H2449 0.950 . S
H2446 C2442 0.950 . S
C2447 C2445 1.390 . S
C2447 C2448 1.387 . S
C2447 H2450 0.950 . S
C2448 C2447 1.387 . S
C2448 C2451 1.387 . S
H2449 C2445 0.950 . S
H2450 C2447 0.950 . S
C2451 C2442 1.390 . S
C2451 H2444 0.950 . S
C2451 C2448 1.387 . S
C2452 C2453 1.387 . S
C2452 H2456 0.950 . S
C2452 C2461 1.390 . S
C2453 C2452 1.387 . S
C2453 C2455 1.387 . S
H2454 C2461 0.950 . S
C2455 C2453 1.387 . S
C2455 C2457 1.390 . S
C2455 H2459 0.950 . S
H2456 C2452 0.950 . S
C2457 C2455 1.390 . S
C2457 C2458 1.387 . S
C2457 H2460 0.950 . S
C2458 C2457 1.387 . S
C2458 C2461 1.387 . S
H2459 C2455 0.950 . S
H2460 C2457 0.950 . S
C2461 C2452 1.390 . S
C2461 H2454 0.950 . S
C2461 C2458 1.387 . S
C2462 C2463 1.387 . S
C2462 H2466 0.950 . S
C2462 C2471 1.390 . S
C2463 C2462 1.387 . S
C2463 C2465 1.387 . S
H2464 C2471 0.950 . S
C2465 C2463 1.387 . S
C2465 C2467 1.390 . S
C2465 H2469 0.950 . S
H2466 C2462 0.950 . S
C2467 C2465 1.390 . S
C2467 C2468 1.387 . S
C2467 H2470 0.950 . S
C2468 C2467 1.387 . S
C2468 C2471 1.387 . S
H2469 C2465 0.950 . S
H2470 C2467 0.950 . S
C2471 C2462 1.390 . S
C2471 H2464 0.950 . S
C2471 C2468 1.387 . S
C2472 C2473 1.387 . S
C2472 H2476 0.950 . S
C2472 C2481 1.390 . S
C2473 C2472 1.387 . S
C2473 C2475 1.387 . S
H2474 C2481 0.950 . S
C2475 C2473 1.387 . S
C2475 C2477 1.390 . S
C2475 H2479 0.950 . S
H2476 C2472 0.950 . S
C2477 C2475 1.390 . S
C2477 C2478 1.387 . S
C2477 H2480 0.950 . S
C2478 C2477 1.387 . S
C2478 C2481 1.387 . S
H2479 C2475 0.950 . S
H2480 C2477 0.950 . S
C2481 C2472 1.390 . S
C2481 H2474 0.950 . S
C2481 C2478 1.387 . S
C2482 C2483 1.387 . S
C2482 H2486 0.950 . S
C2482 C2491 1.390 . S
C2483 C2482 1.387 . S
C2483 C2485 1.387 . S
H2484 C2491 0.950 . S
C2485 C2483 1.387 . S
C2485 C2487 1.390 . S
C2485 H2489 0.950 . S
H2486 C2482 0.950 . S
C2487 C2485 1.390 . S
C2487 C2488 1.387 . S
C2487 H2490 0.950 . S
C2488 C2487 1.387 . S
C2488 C2491 1.387 . S
H2489 C2485 0.950 . S
H2490 C2487 0.950 . S
C2491 C2482 1.390 . S
C2491 H2484 0.950 . S
C2491 C2488 1.387 . S
C2492 C2493 1.387 . S
C2492 H2496 0.950 . S
C2492 C2501 1.390 . S
C2493 C2492 1.387 . S
C2493 C2495 1.387 . S
H2494 C2501 0.950 . S
C2495 C2493 1.387 . S
C2495 C2497 1.390 . S
C2495 H2499 0.950 . S
H2496 C2492 0.950 . S
C2497 C2495 1.390 . S
C2497 C2498 1.387 . S
C2497 H2500 0.950 . S
C2498 C2497 1.387 . S
C2498 C2501 1.387 . S
H2499 C2495 0.950 . S
H2500 C2497 0.950 . S
C2501 C2492 1.390 . S
C2501 H2494 0.950 . S
C2501 C2498 1.387 . S
C2502 C2503 1.387 . S
C2502 H2506 0.950 . S
C2502 C2511 1.390 . S
C2503 C2502 1.387 . S
C2503 C2505 1.387 . S
H2504 C2511 0.950 . S
C2505 C2503 1.387 . S
C2505 C2507 1.390 . S
C2505 H2509 0.950 . S
H2506 C2502 0.950 . S
C2507 C2505 1.390 . S
C2507 C2508 1.387 . S
C2507 H2510 0.950 . S
C2508 C2507 1.387 . S
C2508 C2511 1.387 . S
H2509 C2505 0.950 . S
H2510 C2507 0.950 . S
C2511 C2502 1.390 . S
C2511 H2504 0.950 . S
C2511 C2508 1.387 . S
C2512 C2513 1.387 . S
C2512 H2516 0.950 . S
C2512 C2521 1.390 . S
C2513 C2512 1.387 . S
C2513 C2515 1.387 . S
H2514 C2521 0.950 . S
C2515 C2513 1.387 . S
C2515 C2517 1.390 . S
C2515 H2519 0.950 . S
H2516 C2512 0.950 . S
C2517 C2515 1.390 . S
C2517 C2518 1.387 . S
C2517 H2520 0.950 . S
C2518 C2517 1.387 . S
C2518 C2521 1.387 . S
H2519 C2515 0.950 . S
H2520 C2517 0.950 . S
C2521 C2512 1.390 . S
C2521 H2514 0.950 . S
C2521 C2518 1.387 . S
C2522 C2523 1.387 . S
C2522 H2526 0.950 . S
C2522 C2531 1.390 . S
C2523 C2522 1.387 . S
C2523 C2525 1.387 . S
H2524 C2531 0.950 . S
C2525 C2523 1.387 . S
C2525 C2527 1.390 . S
C2525 H2529 0.950 . S
H2526 C2522 0.950 . S
C2527 C2525 1.390 . S
C2527 C2528 1.387 . S
C2527 H2530 0.950 . S
C2528 C2527 1.387 . S
C2528 C2531 1.387 . S
H2529 C2525 0.950 . S
H2530 C2527 0.950 . S
C2531 C2522 1.390 . S
C2531 H2524 0.950 . S
C2531 C2528 1.387 . S
C2532 C2533 1.387 . S
C2532 H2536 0.950 . S
C2532 C2541 1.390 . S
C2533 C2532 1.387 . S
C2533 C2535 1.387 . S
H2534 C2541 0.950 . S
C2535 C2533 1.387 . S
C2535 C2537 1.390 . S
C2535 H2539 0.950 . S
H2536 C2532 0.950 . S
C2537 C2535 1.390 . S
C2537 C2538 1.387 . S
C2537 H2540 0.950 . S
C2538 C2537 1.387 . S
C2538 C2541 1.387 . S
H2539 C2535 0.950 . S
H2540 C2537 0.950 . S
C2541 C2532 1.390 . S
C2541 H2534 0.950 . S
C2541 C2538 1.387 . S
C2542 C2543 1.387 . S
C2542 H2546 0.950 . S
C2542 C2551 1.390 . S
C2543 C2542 1.387 . S
C2543 C2545 1.387 . S
H2544 C2551 0.950 . S
C2545 C2543 1.387 . S
C2545 C2547 1.390 . S
C2545 H2549 0.950 . S
H2546 C2542 0.950 . S
C2547 C2545 1.390 . S
C2547 C2548 1.387 . S
C2547 H2550 0.950 . S
C2548 C2547 1.387 . S
C2548 C2551 1.387 . S
H2549 C2545 0.950 . S
H2550 C2547 0.950 . S
C2551 C2542 1.390 . S
C2551 H2544 0.950 . S
C2551 C2548 1.387 . S
C2552 C2553 1.387 . S
C2552 H2556 0.950 . S
C2552 C2561 1.390 . S
C2553 C2552 1.387 . S
C2553 C2555 1.387 . S
H2554 C2561 0.950 . S
C2555 C2553 1.387 . S
C2555 C2557 1.390 . S
C2555 H2559 0.950 . S
H2556 C2552 0.950 . S
C2557 C2555 1.390 . S
C2557 C2558 1.387 . S
C2557 H2560 0.950 . S
C2558 C2557 1.387 . S
C2558 C2561 1.387 . S
H2559 C2555 0.950 . S
H2560 C2557 0.950 . S
C2561 C2552 1.390 . S
C2561 H2554 0.950 . S
C2561 C2558 1.387 . S
C2562 C2563 1.387 . S
C2562 H2566 0.950 . S
C2562 C2571 1.390 . S
C2563 C2562 1.387 . S
C2563 C2565 1.387 . S
H2564 C2571 0.950 . S
C2565 C2563 1.387 . S
C2565 C2567 1.390 . S
C2565 H2569 0.950 . S
H2566 C2562 0.950 . S
C2567 C2565 1.390 . S
C2567 C2568 1.387 . S
C2567 H2570 0.950 . S
C2568 C2567 1.387 . S
C2568 C2571 1.387 . S
H2569 C2565 0.950 . S
H2570 C2567 0.950 . S
C2571 C2562 1.390 . S
C2571 H2564 0.950 . S
C2571 C2568 1.387 . S
C2572 C2573 1.387 . S
C2572 H2576 0.950 . S
C2572 C2581 1.390 . S
C2573 C2572 1.387 . S
C2573 C2575 1.387 . S
H2574 C2581 0.950 . S
C2575 C2573 1.387 . S
C2575 C2577 1.390 . S
C2575 H2579 0.950 . S
H2576 C2572 0.950 . S
C2577 C2575 1.390 . S
C2577 C2578 1.387 . S
C2577 H2580 0.950 . S
C2578 C2577 1.387 . S
C2578 C2581 1.387 . S
H2579 C2575 0.950 . S
H2580 C2577 0.950 . S
C2581 C2572 1.390 . S
C2581 H2574 0.950 . S
C2581 C2578 1.387 . S
C2582 C2583 1.387 . S
C2582 H2586 0.950 . S
C2582 C2591 1.390 . S
C2583 C2582 1.387 . S
C2583 C2585 1.387 . S
H2584 C2591 0.950 . S
C2585 C2583 1.387 . S
C2585 C2587 1.390 . S
C2585 H2589 0.950 . S
H2586 C2582 0.950 . S
C2587 C2585 1.390 . S
C2587 C2588 1.387 . S
C2587 H2590 0.950 . S
C2588 C2587 1.387 . S
C2588 C2591 1.387 . S
H2589 C2585 0.950 . S
H2590 C2587 0.950 . S
C2591 C2582 1.390 . S
C2591 H2584 0.950 . S
C2591 C2588 1.387 . S
C2592 C2593 1.387 . S
C2592 H2596 0.950 . S
C2592 C2601 1.390 . S
C2593 C2592 1.387 . S
C2593 C2595 1.387 . S
H2594 C2601 0.950 . S
C2595 C2593 1.387 . S
C2595 C2597 1.390 . S
C2595 H2599 0.950 . S
H2596 C2592 0.950 . S
C2597 C2595 1.390 . S
C2597 C2598 1.387 . S
C2597 H2600 0.950 . S
C2598 C2597 1.387 . S
C2598 C2601 1.387 . S
H2599 C2595 0.950 . S
H2600 C2597 0.950 . S
C2601 C2592 1.390 . S
C2601 H2594 0.950 . S
C2601 C2598 1.387 . S
C2602 C2603 1.387 . S
C2602 H2606 0.950 . S
C2602 C2611 1.390 . S
C2603 C2602 1.387 . S
C2603 C2605 1.387 . S
H2604 C2611 0.950 . S
C2605 C2603 1.387 . S
C2605 C2607 1.390 . S
C2605 H2609 0.950 . S
H2606 C2602 0.950 . S
C2607 C2605 1.390 . S
C2607 C2608 1.387 . S
C2607 H2610 0.950 . S
C2608 C2607 1.387 . S
C2608 C2611 1.387 . S
H2609 C2605 0.950 . S
H2610 C2607 0.950 . S
C2611 C2602 1.390 . S
C2611 H2604 0.950 . S
C2611 C2608 1.387 . S
C2612 C2613 1.387 . S
C2612 H2616 0.950 . S
C2612 C2621 1.390 . S
C2613 C2612 1.387 . S
C2613 C2615 1.387 . S
H2614 C2621 0.950 . S
C2615 C2613 1.387 . S
C2615 C2617 1.390 . S
C2615 H2619 0.950 . S
H2616 C2612 0.950 . S
C2617 C2615 1.390 . S
C2617 C2618 1.387 . S
C2617 H2620 0.950 . S
C2618 C2617 1.387 . S
C2618 C2621 1.387 . S
H2619 C2615 0.950 . S
H2620 C2617 0.950 . S
C2621 C2612 1.390 . S
C2621 H2614 0.950 . S
C2621 C2618 1.387 . S
C2622 C2623 1.387 . S
C2622 H2626 0.950 . S
C2622 C2631 1.390 . S
C2623 C2622 1.387 . S
C2623 C2625 1.387 . S
H2624 C2631 0.950 . S
C2625 C2623 1.387 . S
C2625 C2627 1.390 . S
C2625 H2629 0.950 . S
H2626 C2622 0.950 . S
C2627 C2625 1.390 . S
C2627 C2628 1.387 . S
C2627 H2630 0.950 . S
C2628 C2627 1.387 . S
C2628 C2631 1.387 . S
H2629 C2625 0.950 . S
H2630 C2627 0.950 . S
C2631 C2622 1.390 . S
C2631 H2624 0.950 . S
C2631 C2628 1.387 . S
C2632 C2633 1.387 . S
C2632 H2636 0.950 . S
C2632 C2641 1.390 . S
C2633 C2632 1.387 . S
C2633 C2635 1.387 . S
H2634 C2641 0.950 . S
C2635 C2633 1.387 . S
C2635 C2637 1.390 . S
C2635 H2639 0.950 . S
H2636 C2632 0.950 . S
C2637 C2635 1.390 . S
C2637 C2638 1.387 . S
C2637 H2640 0.950 . S
C2638 C2637 1.387 . S
C2638 C2641 1.387 . S
H2639 C2635 0.950 . S
H2640 C2637 0.950 . S
C2641 C2632 1.390 . S
C2641 H2634 0.950 . S
C2641 C2638 1.387 . S
C2642 C2643 1.387 . S
C2642 H2646 0.950 . S
C2642 C2651 1.390 . S
C2643 C2642 1.387 . S
C2643 C2645 1.387 . S
H2644 C2651 0.950 . S
C2645 C2643 1.387 . S
C2645 C2647 1.390 . S
C2645 H2649 0.950 . S
H2646 C2642 0.950 . S
C2647 C2645 1.390 . S
C2647 C2648 1.387 . S
C2647 H2650 0.950 . S
C2648 C2647 1.387 . S
C2648 C2651 1.387 . S
H2649 C2645 0.950 . S
H2650 C2647 0.950 . S
C2651 C2642 1.390 . S
C2651 H2644 0.950 . S
C2651 C2648 1.387 . S
C2652 C2653 1.387 . S
C2652 H2656 0.950 . S
C2652 C2661 1.390 . S
C2653 C2652 1.387 . S
C2653 C2655 1.387 . S
H2654 C2661 0.950 . S
C2655 C2653 1.387 . S
C2655 C2657 1.390 . S
C2655 H2659 0.950 . S
H2656 C2652 0.950 . S
C2657 C2655 1.390 . S
C2657 C2658 1.387 . S
C2657 H2660 0.950 . S
C2658 C2657 1.387 . S
C2658 C2661 1.387 . S
H2659 C2655 0.950 . S
H2660 C2657 0.950 . S
C2661 C2652 1.390 . S
C2661 H2654 0.950 . S
C2661 C2658 1.387 . S
C2662 C2663 1.387 . S
C2662 H2666 0.950 . S
C2662 C2671 1.390 . S
C2663 C2662 1.387 . S
C2663 C2665 1.387 . S
H2664 C2671 0.950 . S
C2665 C2663 1.387 . S
C2665 C2667 1.390 . S
C2665 H2669 0.950 . S
H2666 C2662 0.950 . S
C2667 C2665 1.390 . S
C2667 C2668 1.387 . S
C2667 H2670 0.950 . S
C2668 C2667 1.387 . S
C2668 C2671 1.387 . S
H2669 C2665 0.950 . S
H2670 C2667 0.950 . S
C2671 C2662 1.390 . S
C2671 H2664 0.950 . S
C2671 C2668 1.387 . S
C2672 C2673 1.387 . S
C2672 H2676 0.950 . S
C2672 C2681 1.390 . S
C2673 C2672 1.387 . S
C2673 C2675 1.387 . S
H2674 C2681 0.950 . S
C2675 C2673 1.387 . S
C2675 C2677 1.390 . S
C2675 H2679 0.950 . S
H2676 C2672 0.950 . S
C2677 C2675 1.390 . S
C2677 C2678 1.387 . S
C2677 H2680 0.950 . S
C2678 C2677 1.387 . S
C2678 C2681 1.387 . S
H2679 C2675 0.950 . S
H2680 C2677 0.950 . S
C2681 C2672 1.390 . S
C2681 H2674 0.950 . S
C2681 C2678 1.387 . S
C2682 C2683 1.387 . S
C2682 H2686 0.950 . S
C2682 C2691 1.390 . S
C2683 C2682 1.387 . S
C2683 C2685 1.387 . S
H2684 C2691 0.950 . S
C2685 C2683 1.387 . S
C2685 C2687 1.390 . S
C2685 H2689 0.950 . S
H2686 C2682 0.950 . S
C2687 C2685 1.390 . S
C2687 C2688 1.387 . S
C2687 H2690 0.950 . S
C2688 C2687 1.387 . S
C2688 C2691 1.387 . S
H2689 C2685 0.950 . S
H2690 C2687 0.950 . S
C2691 C2682 1.390 . S
C2691 H2684 0.950 . S
C2691 C2688 1.387 . S
C2692 C2693 1.387 . S
C2692 H2696 0.950 . S
C2692 C2701 1.390 . S
C2693 C2692 1.387 . S
C2693 C2695 1.387 . S
H2694 C2701 0.950 . S
C2695 C2693 1.387 . S
C2695 C2697 1.390 . S
C2695 H2699 0.950 . S
H2696 C2692 0.950 . S
C2697 C2695 1.390 . S
C2697 C2698 1.387 . S
C2697 H2700 0.950 . S
C2698 C2697 1.387 . S
C2698 C2701 1.387 . S
H2699 C2695 0.950 . S
H2700 C2697 0.950 . S
C2701 C2692 1.390 . S
C2701 H2694 0.950 . S
C2701 C2698 1.387 . S
C2702 C2703 1.387 . S
C2702 H2706 0.950 . S
C2702 C2711 1.390 . S
C2703 C2702 1.387 . S
C2703 C2705 1.387 . S
H2704 C2711 0.950 . S
C2705 C2703 1.387 . S
C2705 C2707 1.390 . S
C2705 H2709 0.950 . S
H2706 C2702 0.950 . S
C2707 C2705 1.390 . S
C2707 C2708 1.387 . S
C2707 H2710 0.950 . S
C2708 C2707 1.387 . S
C2708 C2711 1.387 . S
H2709 C2705 0.950 . S
H2710 C2707 0.950 . S
C2711 C2702 1.390 . S
C2711 H2704 0.950 . S
C2711 C2708 1.387 . S
C2712 C2713 1.387 . S
C2712 H2716 0.950 . S
C2712 C2721 1.390 . S
C2713 C2712 1.387 . S
C2713 C2715 1.387 . S
H2714 C2721 0.950 . S
C2715 C2713 1.387 . S
C2715 C2717 1.390 . S
C2715 H2719 0.950 . S
H2716 C2712 0.950 . S
C2717 C2715 1.390 . S
C2717 C2718 1.387 . S
C2717 H2720 0.950 . S
C2718 C2717 1.387 . S
C2718 C2721 1.387 . S
H2719 C2715 0.950 . S
H2720 C2717 0.950 . S
C2721 C2712 1.390 . S
C2721 H2714 0.950 . S
C2721 C2718 1.387 . S
C2722 C2723 1.387 . S
C2722 H2726 0.950 . S
C2722 C2731 1.390 . S
C2723 C2722 1.387 . S
C2723 C2725 1.387 . S
H2724 C2731 0.950 . S
C2725 C2723 1.387 . S
C2725 C2727 1.390 . S
C2725 H2729 0.950 . S
H2726 C2722 0.950 . S
C2727 C2725 1.390 . S
C2727 C2728 1.387 . S
C2727 H2730 0.950 . S
C2728 C2727 1.387 . S
C2728 C2731 1.387 . S
H2729 C2725 0.950 . S
H2730 C2727 0.950 . S
C2731 C2722 1.390 . S
C2731 H2724 0.950 . S
C2731 C2728 1.387 . S
C2732 C2733 1.387 . S
C2732 H2736 0.950 . S
C2732 C2741 1.390 . S
C2733 C2732 1.387 . S
C2733 C2735 1.387 . S
H2734 C2741 0.950 . S
C2735 C2733 1.387 . S
C2735 C2737 1.390 . S
C2735 H2739 0.950 . S
H2736 C2732 0.950 . S
C2737 C2735 1.390 . S
C2737 C2738 1.387 . S
C2737 H2740 0.950 . S
C2738 C2737 1.387 . S
C2738 C2741 1.387 . S
H2739 C2735 0.950 . S
H2740 C2737 0.950 . S
C2741 C2732 1.390 . S
C2741 H2734 0.950 . S
C2741 C2738 1.387 . S
C2742 C2743 1.387 . S
C2742 H2746 0.950 . S
C2742 C2751 1.390 . S
C2743 C2742 1.387 . S
C2743 C2745 1.387 . S
H2744 C2751 0.950 . S
C2745 C2743 1.387 . S
C2745 C2747 1.390 . S
C2745 H2749 0.950 . S
H2746 C2742 0.950 . S
C2747 C2745 1.390 . S
C2747 C2748 1.387 . S
C2747 H2750 0.950 . S
C2748 C2747 1.387 . S
C2748 C2751 1.387 . S
H2749 C2745 0.950 . S
H2750 C2747 0.950 . S
C2751 C2742 1.390 . S
C2751 H2744 0.950 . S
C2751 C2748 1.387 . S
C2752 C2753 1.387 . S
C2752 H2756 0.950 . S
C2752 C2761 1.390 . S
C2753 C2752 1.387 . S
C2753 C2755 1.387 . S
H2754 C2761 0.950 . S
C2755 C2753 1.387 . S
C2755 C2757 1.390 . S
C2755 H2759 0.950 . S
H2756 C2752 0.950 . S
C2757 C2755 1.390 . S
C2757 C2758 1.387 . S
C2757 H2760 0.950 . S
C2758 C2757 1.387 . S
C2758 C2761 1.387 . S
H2759 C2755 0.950 . S
H2760 C2757 0.950 . S
C2761 C2752 1.390 . S
C2761 H2754 0.950 . S
C2761 C2758 1.387 . S
C2762 C2763 1.387 . S
C2762 H2766 0.950 . S
C2762 C2771 1.390 . S
C2763 C2762 1.387 . S
C2763 C2765 1.387 . S
H2764 C2771 0.950 . S
C2765 C2763 1.387 . S
C2765 C2767 1.390 . S
C2765 H2769 0.950 . S
H2766 C2762 0.950 . S
C2767 C2765 1.390 . S
C2767 C2768 1.387 . S
C2767 H2770 0.950 . S
C2768 C2767 1.387 . S
C2768 C2771 1.387 . S
H2769 C2765 0.950 . S
H2770 C2767 0.950 . S
C2771 C2762 1.390 . S
C2771 H2764 0.950 . S
C2771 C2768 1.387 . S
C2772 C2773 1.387 . S
C2772 H2776 0.950 . S
C2772 C2781 1.390 . S
C2773 C2772 1.387 . S
C2773 C2775 1.387 . S
H2774 C2781 0.950 . S
C2775 C2773 1.387 . S
C2775 C2777 1.390 . S
C2775 H2779 0.950 . S
H2776 C2772 0.950 . S
C2777 C2775 1.390 . S
C2777 C2778 1.387 . S
C2777 H2780 0.950 . S
C2778 C2777 1.387 . S
C2778 C2781 1.387 . S
H2779 C2775 0.950 . S
H2780 C2777 0.950 . S
C2781 C2772 1.390 . S
C2781 H2774 0.950 . S
C2781 C2778 1.387 . S
C2782 C2783 1.387 . S
C2782 H2786 0.950 . S
C2782 C2791 1.390 . S
C2783 C2782 1.387 . S
C2783 C2785 1.387 . S
H2784 C2791 0.950 . S
C2785 C2783 1.387 . S
C2785 C2787 1.390 . S
C2785 H2789 0.950 . S
H2786 C2782 0.950 . S
C2787 C2785 1.390 . S
C2787 C2788 1.387 . S
C2787 H2790 0.950 . S
C2788 C2787 1.387 . S
C2788 C2791 1.387 . S
H2789 C2785 0.950 . S
H2790 C2787 0.950 . S
C2791 C2782 1.390 . S
C2791 H2784 0.950 . S
C2791 C2788 1.387 . S
C2792 C2793 1.387 . S
C2792 H2796 0.950 . S
C2792 C2801 1.390 . S
C2793 C2792 1.387 . S
C2793 C2795 1.387 . S
H2794 C2801 0.950 . S
C2795 C2793 1.387 . S
C2795 C2797 1.390 . S
C2795 H2799 0.950 . S
H2796 C2792 0.950 . S
C2797 C2795 1.390 . S
C2797 C2798 1.387 . S
C2797 H2800 0.950 . S
C2798 C2797 1.387 . S
C2798 C2801 1.387 . S
H2799 C2795 0.950 . S
H2800 C2797 0.950 . S
C2801 C2792 1.390 . S
C2801 H2794 0.950 . S
C2801 C2798 1.387 . S
C2802 C2803 1.387 . S
C2802 H2806 0.950 . S
C2802 C2811 1.390 . S
C2803 C2802 1.387 . S
C2803 C2805 1.387 . S
H2804 C2811 0.950 . S
C2805 C2803 1.387 . S
C2805 C2807 1.390 . S
C2805 H2809 0.950 . S
H2806 C2802 0.950 . S
C2807 C2805 1.390 . S
C2807 C2808 1.387 . S
C2807 H2810 0.950 . S
C2808 C2807 1.387 . S
C2808 C2811 1.387 . S
H2809 C2805 0.950 . S
H2810 C2807 0.950 . S
C2811 C2802 1.390 . S
C2811 H2804 0.950 . S
C2811 C2808 1.387 . S
C2812 C2813 1.387 . S
C2812 H2816 0.950 . S
C2812 C2821 1.390 . S
C2813 C2812 1.387 . S
C2813 C2815 1.387 . S
H2814 C2821 0.950 . S
C2815 C2813 1.387 . S
C2815 C2817 1.390 . S
C2815 H2819 0.950 . S
H2816 C2812 0.950 . S
C2817 C2815 1.390 . S
C2817 C2818 1.387 . S
C2817 H2820 0.950 . S
C2818 C2817 1.387 . S
C2818 C2821 1.387 . S
H2819 C2815 0.950 . S
H2820 C2817 0.950 . S
C2821 C2812 1.390 . S
C2821 H2814 0.950 . S
C2821 C2818 1.387 . S
C2822 C2823 1.387 . S
C2822 H2826 0.950 . S
C2822 C2831 1.390 . S
C2823 C2822 1.387 . S
C2823 C2825 1.387 . S
H2824 C2831 0.950 . S
C2825 C2823 1.387 . S
C2825 C2827 1.390 . S
C2825 H2829 0.950 . S
H2826 C2822 0.950 . S
C2827 C2825 1.390 . S
C2827 C2828 1.387 . S
C2827 H2830 0.950 . S
C2828 C2827 1.387 . S
C2828 C2831 1.387 . S
H2829 C2825 0.950 . S
H2830 C2827 0.950 . S
C2831 C2822 1.390 . S
C2831 H2824 0.950 . S
C2831 C2828 1.387 . S
C1633 C1087 1.048 . S
C1638 C33 1.049 . S
C1643 C67 1.053 . S
C1648 C985 1.050 . S
C1653 C101 1.052 . S
C1658 C1019 1.054 . S
C1663 C1053 1.049 . S
C1668 C135 1.048 . S
C1673 C883 1.048 . S
C1678 C169 1.050 . S
C1683 C917 1.050 . S
C1688 C203 1.054 . S
C1693 C237 1.050 . S
C1698 C951 1.048 . S
C1703 C271 1.048 . S
C1708 C849 1.049 . S
C1713 C305 1.048 . S
C1718 C1529 1.052 . S
C1723 C339 1.051 . S
C1728 C1427 1.054 . S
C1733 C373 1.054 . S
C1738 C1461 1.052 . S
C1743 C407 1.048 . S
C1748 C1495 1.051 . S
C1753 C1631 1.050 . S
C1758 C441 1.048 . S
C1763 C475 1.051 . S
C1768 C1563 1.054 . S
C1773 C509 1.048 . S
C1778 C1597 1.051 . S
C1783 C1393 1.048 . S
C1788 C543 1.050 . S
C1793 C577 1.052 . S
C1798 C1359 1.054 . S
C1803 C1155 1.049 . S
C1808 C611 1.052 . S
C1813 C1189 1.051 . S
C1818 C645 1.048 . S
C1823 C1223 1.050 . S
C1828 C679 1.048 . S
C1833 C713 1.049 . S
C1838 C1121 1.053 . S
C1843 C747 1.048 . S
C1848 C1291 1.051 . S
C1853 C1325 1.052 . S
C1858 C781 1.049 . S
C1863 C815 1.053 . S
C1868 C1257 1.053 . S
C1873 C70 2.021 . S
C1878 C2 2.021 . S
C1883 C36 2.022 . S
C1888 C104 2.022 . S
C1893 C206 2.022 . S
C1898 C138 2.022 . S
C1903 C240 2.022 . S
C1908 C172 2.022 . S
C1913 C274 2.021 . S
C1918 C410 2.021 . S
C1923 C444 2.022 . S
C1928 C308 2.022 . S
C1933 C478 2.022 . S
C1938 C342 2.022 . S
C1943 C512 2.022 . S
C1948 C376 2.022 . S
C1953 C648 2.022 . S
C1958 C546 2.022 . S
C1963 C580 2.021 . S
C1968 C716 2.021 . S
C1973 C614 2.021 . S
C1978 C750 2.021 . S
C1983 C682 2.022 . S
C1988 C784 2.022 . S
C1993 C886 2.021 . S
C1998 C818 2.021 . S
C2003 C920 2.022 . S
C2008 C852 2.022 . S
C2013 C1022 2.022 . S
C2018 C954 2.022 . S
C2023 C1056 2.022 . S
C2028 C988 2.022 . S
C2033 C1090 2.022 . S
C2038 C1226 2.022 . S
C2043 C1124 2.021 . S
C2048 C1260 2.021 . S
C2053 C1294 2.022 . S
C2058 C1158 2.022 . S
C2063 C1328 2.021 . S
C2068 C1192 2.021 . S
C2073 C1362 2.022 . S
C2078 C1464 2.022 . S
C2083 C1532 2.022 . S
C2088 C1396 2.022 . S
C2093 C1566 2.022 . S
C2098 C1430 2.022 . S
C2103 C1600 2.021 . S
C2108 C1498 2.021 . S
C2113 C753 1.289 . S
C2118 C5 1.284 . S
C2123 C39 1.287 . S
C2128 C549 1.287 . S
C2133 C73 1.289 . S
C2138 C787 1.284 . S
C2143 C107 1.289 . S
C2148 C719 1.284 . S
C2153 C141 1.289 . S
C2158 C617 1.284 . S
C2163 C651 1.287 . S
C2168 C175 1.286 . S
C2173 C209 1.289 . S
C2178 C685 1.284 . S
C2183 C243 1.285 . S
C2188 C583 1.288 . S
C2193 C277 1.288 . S
C2198 C447 1.285 . S
C2203 C481 1.284 . S
C2208 C311 1.289 . S
C2213 C515 1.288 . S
C2218 C345 1.285 . S
C2223 C413 1.285 . S
C2228 C379 1.288 . S
C2233 C821 1.285 . S
C2238 C1569 1.288 . S
C2243 C1365 1.287 . S
C2248 C855 1.286 . S
C2253 C1603 1.289 . S
C2258 C889 1.284 . S
C2263 C923 1.286 . S
C2268 C1535 1.287 . S
C2273 C1433 1.285 . S
C2278 C957 1.288 . S
C2283 C1467 1.288 . S
C2288 C991 1.286 . S
C2293 C1501 1.284 . S
C2298 C1025 1.289 . S
C2303 C1059 1.284 . S
C2308 C1399 1.289 . S
C2313 C1093 1.285 . S
C2318 C1263 1.288 . S
C2323 C1127 1.289 . S
C2328 C1297 1.284 . S
C2333 C1331 1.284 . S
C2338 C1161 1.289 . S
C2343 C1229 1.289 . S
C2348 C1195 1.284 . S
C2353 C20 2.028 . S
C2358 C621 2.034 . S
C2363 C655 2.034 . S
C2368 C54 2.027 . S
C2373 C88 2.028 . S
C2378 C689 2.034 . S
C2383 C587 2.035 . S
C2388 C122 2.028 . S
C2393 C156 2.027 . S
C2398 C757 2.034 . S
C2403 C553 2.034 . S
C2408 C190 2.028 . S
C2413 C791 2.035 . S
C2418 C224 2.028 . S
C2423 C258 2.028 . S
C2428 C723 2.034 . S
C2433 C315 2.035 . S
C2438 C292 2.027 . S
C2443 C326 2.028 . S
C2448 C349 2.034 . S
C2453 C360 2.027 . S
C2458 C383 2.034 . S
C2463 C281 2.034 . S
C2468 C394 2.028 . S
C2473 C428 2.027 . S
C2478 C519 2.034 . S
C2483 C462 2.027 . S
C2488 C417 2.034 . S
C2493 C496 2.028 . S
C2498 C451 2.034 . S
C2503 C485 2.035 . S
C2508 C530 2.027 . S
C2513 C111 2.034 . S
C2518 C564 2.028 . S
C2523 C598 2.028 . S
C2528 C179 2.035 . S
C2533 C213 2.035 . S
C2538 C632 2.027 . S
C2543 C247 2.034 . S
C2548 C666 2.028 . S
C2553 C700 2.028 . S
C2558 C145 2.034 . S
C2563 C43 2.034 . S
C2568 C734 2.027 . S
C2573 C768 2.028 . S
C2578 C77 2.035 . S
C2583 C9 2.035 . S
C2588 C802 2.027 . S
C2593 C836 2.028 . S
C2598 C1437 2.034 . S
C2603 C1471 2.035 . S
C2608 C870 2.027 . S
C2613 C904 2.027 . S
C2618 C1505 2.035 . S
C2623 C1403 2.034 . S
C2628 C938 2.028 . S
C2633 C972 2.027 . S
C2638 C1573 2.034 . S
C2643 C1006 2.027 . S
C2648 C1369 2.035 . S
C2653 C1040 2.028 . S
C2658 C1607 2.034 . S
C2663 C1539 2.034 . S
C2668 C1074 2.028 . S
C2673 C1108 2.027 . S
C2678 C1131 2.035 . S
C2683 C1165 2.034 . S
C2688 C1142 2.027 . S
C2693 C1199 2.034 . S
C2698 C1176 2.027 . S
C2703 C1210 2.028 . S
C2708 C1097 2.034 . S
C2713 C1244 2.027 . S
C2718 C1335 2.034 . S
C2723 C1278 2.027 . S
C2728 C1233 2.035 . S
C2733 C1312 2.028 . S
C2738 C1267 2.035 . S
C2743 C1346 2.028 . S
C2748 C1301 2.035 . S
C2753 C1380 2.028 . S
C2758 C927 2.034 . S
C2763 C995 2.035 . S
C2768 C1414 2.027 . S
C2773 C1029 2.034 . S
C2778 C1448 2.028 . S
C2783 C1063 2.034 . S
C2788 C1482 2.028 . S
C2793 C961 2.035 . S
C2798 C1516 2.028 . S
C2803 C859 2.034 . S
C2808 C1550 2.027 . S
C2813 C893 2.034 . S
C2818 C1584 2.027 . S
C2823 C825 2.035 . S
C2828 C1618 2.027 . S
