# Generated by pormake.
# Topology uov, (4)-cn, num edge types: 1
# Building blocks:
#     Node 0, Type 0, BuildingBlock: QUQFOY_clean_sbu_1, # of connection points: 4
#     Node 1, Type 0, BuildingBlock: QUQFOY_clean_sbu_1, # of connection points: 4
#     Node 2, Type 0, BuildingBlock: QUQFOY_clean_sbu_1, # of connection points: 4
#     Node 3, Type 0, BuildingBlock: QUQFOY_clean_sbu_1, # of connection points: 4
#     Node 4, Type 0, BuildingBlock: QUQFOY_clean_sbu_1, # of connection points: 4
#     Node 5, Type 0, BuildingBlock: QUQFOY_clean_sbu_1, # of connection points: 4
#     Node 6, Type 0, BuildingBlock: QUQFOY_clean_sbu_1, # of connection points: 4
#     Node 7, Type 0, BuildingBlock: QUQFOY_clean_sbu_1, # of connection points: 4
#     Edge 8, Type (0, 0), BuildingBlock: MIFKUJ_clean_linker_0, # of connection points: 2
#     Edge 9, Type (0, 0), BuildingBlock: MIFKUJ_clean_linker_0, # of connection points: 2
#     Edge 10, Type (0, 0), BuildingBlock: MIFKUJ_clean_linker_0, # of connection points: 2
#     Edge 11, Type (0, 0), BuildingBlock: MIFKUJ_clean_linker_0, # of connection points: 2
#     Edge 12, Type (0, 0), BuildingBlock: MIFKUJ_clean_linker_0, # of connection points: 2
#     Edge 13, Type (0, 0), BuildingBlock: MIFKUJ_clean_linker_0, # of connection points: 2
#     Edge 14, Type (0, 0), BuildingBlock: MIFKUJ_clean_linker_0, # of connection points: 2
#     Edge 15, Type (0, 0), BuildingBlock: MIFKUJ_clean_linker_0, # of connection points: 2
#     Edge 16, Type (0, 0), BuildingBlock: MIFKUJ_clean_linker_0, # of connection points: 2
#     Edge 17, Type (0, 0), BuildingBlock: MIFKUJ_clean_linker_0, # of connection points: 2
#     Edge 18, Type (0, 0), BuildingBlock: MIFKUJ_clean_linker_0, # of connection points: 2
#     Edge 19, Type (0, 0), BuildingBlock: MIFKUJ_clean_linker_0, # of connection points: 2
#     Edge 20, Type (0, 0), BuildingBlock: MIFKUJ_clean_linker_0, # of connection points: 2
#     Edge 21, Type (0, 0), BuildingBlock: MIFKUJ_clean_linker_0, # of connection points: 2
#     Edge 22, Type (0, 0), BuildingBlock: MIFKUJ_clean_linker_0, # of connection points: 2
#     Edge 23, Type (0, 0), BuildingBlock: MIFKUJ_clean_linker_0, # of connection points: 2
# Relax obj value: 0.032
# Max RMSD: 0.049
# Mean RMSD: 0.049
data_MOF--net-uov--node1-QUQFOY_clean_sbu_1--edge1-MIFKUJ_clean_linker_0
_symmetry_space_group_name_H-M    P1
_symmetry_Int_Tables_number       1
_symmetry_cell_setting            triclinic
loop_
_symmetry_equiv_pos_as_xyz
'x, y, z'
_cell_length_a     40.915765
_cell_length_b     40.913477
_cell_length_c     57.75227
_cell_angle_alpha  90.015017
_cell_angle_beta   90.000912
_cell_angle_gamma 90.022006
loop_
_atom_site_label
_atom_site_type_symbol
_atom_site_fract_x
_atom_site_fract_y
_atom_site_fract_z
_atom_type_partial_charge
O0 O 0.01569 0.26313 0.57547 0.0
Cd1 Cd 0.06053 0.28043 0.58562 0.0
Cd2 Cd 0.05719 0.22633 0.6124 0.0
O3 O 0.00849 0.22591 0.60251 0.0
O4 O 0.05974 0.32551 0.57291 0.0
O5 O 0.06121 0.31515 0.61045 0.0
C6 C 0.05872 0.33622 0.59388 0.0
C7 C 0.07287 0.21614 0.65063 0.0
C8 C 0.9977 0.24202 0.58531 0.0
C9 C 0.10638 0.22754 0.57321 0.0
O10 O 0.09057 0.21077 0.58799 0.0
O11 O 0.10041 0.25783 0.57071 0.0
O12 O 0.06057 0.19351 0.63778 0.0
O13 O 0.07509 0.24524 0.64208 0.0
O14 O 0.26998 0.98628 0.42568 0.0
Cd15 Cd 0.28516 0.941 0.41472 0.0
Cd16 Cd 0.23099 0.94548 0.38868 0.0
O17 O 0.23198 0.9939 0.39918 0.0
O18 O 0.33188 0.9381 0.42405 0.0
O19 O 0.31581 0.9405 0.38745 0.0
C20 C 0.33931 0.93998 0.4024 0.0
C21 C 0.21857 0.93058 0.35058 0.0
C22 C 0.2487 0.00447 0.41618 0.0
C23 C 0.23126 0.89656 0.42783 0.0
O24 O 0.21475 0.91251 0.41302 0.0
O25 O 0.26172 0.90186 0.43011 0.0
O26 O 0.197 0.94353 0.36398 0.0
O27 O 0.24796 0.92739 0.35845 0.0
O28 O 0.98594 0.73707 0.57533 0.0
Cd29 Cd 0.94103 0.71855 0.58417 0.0
Cd30 Cd 0.94054 0.77448 0.6111 0.0
O31 O 0.98863 0.77815 0.59997 0.0
O32 O 0.94293 0.67325 0.57176 0.0
O33 O 0.93908 0.68405 0.60915 0.0
C34 C 0.94221 0.66275 0.59277 0.0
C35 C 0.92623 0.78752 0.64926 0.0
C36 C 0.00153 0.76089 0.58409 0.0
C37 C 0.89192 0.76903 0.57152 0.0
O38 O 0.90497 0.78634 0.5873 0.0
O39 O 0.90147 0.73991 0.56793 0.0
O40 O 0.9362 0.8095 0.63495 0.0
O41 O 0.92563 0.75755 0.64224 0.0
O42 O 0.73116 0.02426 0.43206 0.0
Cd43 Cd 0.71525 0.06738 0.41776 0.0
Cd44 Cd 0.76931 0.06045 0.39342 0.0
O45 O 0.76687 0.01243 0.4048 0.0
O46 O 0.66783 0.06983 0.42513 0.0
O47 O 0.68684 0.0631 0.3895 0.0
C48 C 0.6622 0.06465 0.40347 0.0
C49 C 0.78247 0.07422 0.35527 0.0
C50 C 0.75124 0.00436 0.42296 0.0
C51 C 0.76779 0.11254 0.43041 0.0
O52 O 0.78506 0.09417 0.41753 0.0
O53 O 0.73697 0.10881 0.43114 0.0
O54 O 0.80368 0.0612 0.36894 0.0
O55 O 0.75302 0.07803 0.36289 0.0
O56 O 0.98281 0.2639 0.07648 0.0
Cd57 Cd 0.9383 0.28269 0.08574 0.0
Cd58 Cd 0.93787 0.22539 0.11098 0.0
O59 O 0.98688 0.22361 0.10162 0.0
O60 O 0.94177 0.32777 0.07317 0.0
O61 O 0.93695 0.31758 0.11055 0.0
C62 C 0.94132 0.33854 0.09412 0.0
C63 C 0.92146 0.21078 0.14842 0.0
C64 C 0.99918 0.24087 0.08551 0.0
C65 C 0.8906 0.23267 0.07061 0.0
O66 O 0.90405 0.21422 0.08555 0.0
O67 O 0.89892 0.26249 0.06881 0.0
O68 O 0.93251 0.18945 0.134 0.0
O69 O 0.92078 0.24098 0.1419 0.0
O70 O 0.26821 0.02104 0.92792 0.0
Cd71 Cd 0.2861 0.06636 0.91984 0.0
Cd72 Cd 0.2274 0.06861 0.89613 0.0
O73 O 0.22507 0.01954 0.90512 0.0
O74 O 0.33159 0.06275 0.93153 0.0
O75 O 0.32009 0.06932 0.89448 0.0
C76 C 0.34163 0.06434 0.91044 0.0
C77 C 0.21135 0.08564 0.85914 0.0
C78 C 0.24385 0.00576 0.9197 0.0
C79 C 0.2369 0.11371 0.93738 0.0
O80 O 0.21781 0.10189 0.92215 0.0
O81 O 0.26647 0.10438 0.93865 0.0
O82 O 0.19052 0.07482 0.874 0.0
O83 O 0.24183 0.08586 0.86497 0.0
O84 O 0.02079 0.73385 0.07272 0.0
Cd85 Cd 0.06537 0.71675 0.08315 0.0
Cd86 Cd 0.0631 0.77281 0.10885 0.0
O87 O 0.01432 0.77283 0.09867 0.0
O88 O 0.06485 0.67068 0.07226 0.0
O89 O 0.06616 0.68412 0.10933 0.0
C90 C 0.06413 0.6617 0.09363 0.0
C91 C 0.0784 0.788 0.14639 0.0
C92 C 0.00326 0.75588 0.08193 0.0
C93 C 0.11187 0.76819 0.06926 0.0
O94 O 0.09724 0.78583 0.08413 0.0
O95 O 0.10468 0.73816 0.06696 0.0
O96 O 0.06635 0.80881 0.13201 0.0
O97 O 0.0804 0.75786 0.13987 0.0
O98 O 0.73566 0.97844 0.93112 0.0
Cd99 Cd 0.71759 0.93465 0.9197 0.0
Cd100 Cd 0.77448 0.93611 0.89528 0.0
O101 O 0.7753 0.98475 0.9057 0.0
O102 O 0.67171 0.93624 0.93085 0.0
O103 O 0.68452 0.93502 0.89371 0.0
C104 C 0.66239 0.93734 0.90957 0.0
C105 C 0.78899 0.92118 0.85756 0.0
C106 C 0.75827 0.99572 0.9224 0.0
C107 C 0.76744 0.88674 0.93416 0.0
O108 O 0.78619 0.90148 0.92003 0.0
O109 O 0.7374 0.8943 0.93555 0.0
O110 O 0.81024 0.93244 0.87196 0.0
O111 O 0.75889 0.91953 0.86424 0.0
H112 H 0.95345 0.63329 0.63479 0.0
H113 H 0.97014 0.57646 0.6415 0.0
H114 H 0.96131 0.5567 0.56838 0.0
H115 H 0.94426 0.61289 0.56164 0.0
H116 H 0.93926 0.50627 0.59278 0.0
H117 H 0.03514 0.57588 0.59341 0.0
H118 H 0.06929 0.62138 0.60758 0.0
H119 H 0.07171 0.57822 0.67533 0.0
H120 H 0.03719 0.53265 0.6616 0.0
H121 H 0.04838 0.38398 0.56198 0.0
H122 H 0.02632 0.43845 0.56858 0.0
H123 H 0.02859 0.42223 0.64231 0.0
H124 H 0.05046 0.36699 0.63587 0.0
H125 H 0.05001 0.48812 0.62544 0.0
H126 H 0.96014 0.41326 0.62141 0.0
H127 H 0.92847 0.36756 0.60492 0.0
H128 H 0.91643 0.4208 0.54144 0.0
H129 H 0.94852 0.46663 0.55741 0.0
C130 C 0.9545 0.61663 0.62023 0.0
C131 C 0.94775 0.62766 0.59766 0.0
C132 C 0.96424 0.58424 0.62407 0.0
C133 C 0.96745 0.56244 0.60539 0.0
C134 C 0.95908 0.57304 0.58306 0.0
C135 C 0.9494 0.60527 0.57923 0.0
C136 C 0.98119 0.52911 0.60851 0.0
C137 C 0.96345 0.50234 0.59996 0.0
C138 C 0.0125 0.5238 0.61833 0.0
C139 C 0.03325 0.55113 0.62657 0.0
C140 C 0.04273 0.57625 0.61138 0.0
C141 C 0.06219 0.60202 0.61931 0.0
C142 C 0.07257 0.60275 0.64236 0.0
C143 C 0.06359 0.57766 0.6575 0.0
C144 C 0.04408 0.55186 0.64965 0.0
C145 C 0.04475 0.39203 0.57966 0.0
C146 C 0.05095 0.371 0.5984 0.0
C147 C 0.03202 0.42318 0.58337 0.0
C148 C 0.02541 0.43409 0.60589 0.0
C149 C 0.03343 0.41409 0.62479 0.0
C150 C 0.04595 0.38262 0.62107 0.0
C151 C 0.00836 0.46567 0.60918 0.0
C152 C 0.0255 0.49202 0.61884 0.0
C153 C 0.97659 0.47069 0.60019 0.0
C154 C 0.95695 0.44331 0.59057 0.0
C155 C 0.95097 0.41513 0.60387 0.0
C156 C 0.9329 0.38921 0.59463 0.0
C157 C 0.92049 0.39125 0.57213 0.0
C158 C 0.92607 0.41925 0.55886 0.0
C159 C 0.94417 0.44523 0.56801 0.0
H160 H 0.90652 0.37115 0.56501 0.0
H161 H 0.08764 0.62271 0.64847 0.0
H162 H 0.605 0.08994 0.41943 0.0
H163 H 0.55009 0.0683 0.41279 0.0
H164 H 0.58965 0.99671 0.36556 0.0
H165 H 0.64428 0.01992 0.37098 0.0
H166 H 0.53189 0.00944 0.35204 0.0
H167 H 0.57685 0.98038 0.42519 0.0
H168 H 0.60252 0.98932 0.46331 0.0
H169 H 0.51962 0.04581 0.48512 0.0
H170 H 0.49363 0.03756 0.447 0.0
H171 H 0.3937 0.91387 0.42206 0.0
H172 H 0.45031 0.93066 0.41571 0.0
H173 H 0.41824 0.9983 0.36297 0.0
H174 H 0.362 0.97961 0.36818 0.0
H175 H 0.47484 0.98323 0.42548 0.0
H176 H 0.4791 0.02436 0.3287 0.0
H177 H 0.45811 0.00602 0.29082 0.0
H178 H 0.44994 0.90786 0.31646 0.0
H179 H 0.47128 0.9255 0.35439 0.0
C180 C 0.60176 0.07023 0.40711 0.0
C181 C 0.6288 0.05646 0.3958 0.0
C182 C 0.57044 0.05762 0.40348 0.0
C183 C 0.56579 0.03004 0.38931 0.0
C184 C 0.59252 0.0178 0.37672 0.0
C185 C 0.62376 0.03111 0.37979 0.0
C186 C 0.53388 0.01242 0.38925 0.0
C187 C 0.51936 0.00369 0.36808 0.0
C188 C 0.518 0.00369 0.41017 0.0
C189 C 0.53344 0.00859 0.43317 0.0
C190 C 0.56419 0.99486 0.43807 0.0
C191 C 0.57878 0.9998 0.45968 0.0
C192 C 0.56274 0.01819 0.4766 0.0
C193 C 0.53203 0.03161 0.47198 0.0
C194 C 0.51734 0.02679 0.45038 0.0
C195 C 0.39899 0.93152 0.40858 0.0
C196 C 0.37361 0.94533 0.39552 0.0
C197 C 0.43131 0.94134 0.40507 0.0
C198 C 0.43885 0.96593 0.38889 0.0
C199 C 0.41348 0.97881 0.37519 0.0
C200 C 0.38123 0.96819 0.37821 0.0
C201 C 0.47237 0.98036 0.38822 0.0
C202 C 0.48725 0.98868 0.40934 0.0
C203 C 0.48916 0.98721 0.36728 0.0
C204 C 0.47649 0.97635 0.34447 0.0
C205 C 0.47294 0.99884 0.32623 0.0
C206 C 0.46096 0.98857 0.30476 0.0
C207 C 0.4526 0.95582 0.30126 0.0
C208 C 0.4563 0.93324 0.31922 0.0
C209 C 0.46829 0.94338 0.34072 0.0
H210 H 0.44332 0.94792 0.28462 0.0
H211 H 0.57409 0.02199 0.49332 0.0
H212 H 0.95704 0.38543 0.0627 0.0
H213 H 0.97866 0.43983 0.0703 0.0
H214 H 0.96571 0.42528 0.14363 0.0
H215 H 0.94437 0.37002 0.13624 0.0
H216 H 0.94672 0.49262 0.12117 0.0
H217 H 0.03499 0.41601 0.13184 0.0
H218 H 0.06817 0.36808 0.12103 0.0
H219 H 0.09421 0.41426 0.05687 0.0
H220 H 0.06071 0.46226 0.06713 0.0
H221 H 0.04443 0.63623 0.13531 0.0
H222 H 0.02517 0.58037 0.14265 0.0
H223 H 0.04905 0.55374 0.07238 0.0
H224 H 0.06841 0.6091 0.06501 0.0
H225 H 0.06426 0.50521 0.10173 0.0
H226 H 0.97218 0.57595 0.08669 0.0
H227 H 0.93635 0.62345 0.09353 0.0
H228 H 0.91555 0.58875 0.16213 0.0
H229 H 0.95162 0.54121 0.15578 0.0
C230 C 0.95822 0.39382 0.08047 0.0
C231 C 0.94918 0.37324 0.09889 0.0
C232 C 0.97065 0.42496 0.08475 0.0
C233 C 0.97403 0.43634 0.1075 0.0
C234 C 0.96328 0.41679 0.12595 0.0
C235 C 0.95112 0.38529 0.12169 0.0
C236 C 0.99101 0.46774 0.11158 0.0
C237 C 0.97261 0.49535 0.11758 0.0
C238 C 0.02457 0.47123 0.10629 0.0
C239 C 0.04515 0.44263 0.10019 0.0
C240 C 0.04758 0.41584 0.11535 0.0
C241 C 0.06648 0.38867 0.10933 0.0
C242 C 0.08324 0.3881 0.08825 0.0
C243 C 0.0812 0.41473 0.07318 0.0
C244 C 0.0623 0.44194 0.0791 0.0
C245 C 0.04622 0.61824 0.1216 0.0
C246 C 0.05776 0.6271 0.09954 0.0
C247 C 0.03499 0.58642 0.12577 0.0
C248 C 0.03525 0.56302 0.10796 0.0
C249 C 0.04856 0.57138 0.08637 0.0
C250 C 0.05957 0.6031 0.08217 0.0
C251 C 0.01994 0.5304 0.11101 0.0
C252 C 0.03862 0.5025 0.10611 0.0
C253 C 0.98653 0.52675 0.11701 0.0
C254 C 0.96493 0.55531 0.12088 0.0
C255 C 0.9602 0.57862 0.10331 0.0
C256 C 0.9398 0.60551 0.10708 0.0
C257 C 0.92379 0.60919 0.12828 0.0
C258 C 0.92805 0.58592 0.14574 0.0
C259 C 0.94846 0.559 0.14206 0.0
H260 H 0.90799 0.63001 0.13117 0.0
H261 H 0.09785 0.36704 0.08362 0.0
H262 H 0.37009 0.05641 0.86761 0.0
H263 H 0.42463 0.03377 0.85967 0.0
H264 H 0.44489 0.03146 0.93289 0.0
H265 H 0.39111 0.05419 0.94098 0.0
H266 H 0.49332 0.05309 0.87597 0.0
H267 H 0.4678 0.95213 0.94303 0.0
H268 H 0.42058 0.92265 0.95945 0.0
H269 H 0.36706 0.93717 0.89634 0.0
H270 H 0.41414 0.96623 0.8794 0.0
H271 H 0.61131 0.93984 0.93958 0.0
H272 H 0.55626 0.95945 0.93208 0.0
H273 H 0.57935 0.97029 0.85958 0.0
H274 H 0.63522 0.95121 0.86713 0.0
H275 H 0.50628 0.94071 0.90705 0.0
H276 H 0.53749 0.03858 0.83943 0.0
H277 H 0.58459 0.07134 0.82615 0.0
H278 H 0.62697 0.06625 0.89408 0.0
H279 H 0.57995 0.03383 0.9078 0.0
C280 C 0.3865 0.05182 0.88196 0.0
C281 C 0.37615 0.05679 0.90494 0.0
C282 C 0.41758 0.03889 0.87738 0.0
C283 C 0.43845 0.03056 0.89573 0.0
C284 C 0.42895 0.03747 0.91852 0.0
C285 C 0.39817 0.0505 0.92309 0.0
C286 C 0.46902 0.01211 0.89172 0.0
C287 C 0.49608 0.02822 0.88219 0.0
C288 C 0.47256 0.97989 0.90023 0.0
C289 C 0.44444 0.96156 0.91002 0.0
C290 C 0.44604 0.94883 0.9326 0.0
C291 C 0.41928 0.93223 0.94201 0.0
C292 C 0.39081 0.92811 0.92897 0.0
C293 C 0.38909 0.94046 0.90645 0.0
C294 C 0.4158 0.95703 0.89694 0.0
C295 C 0.60468 0.94597 0.92196 0.0
C296 C 0.62776 0.94422 0.90398 0.0
C297 C 0.57307 0.95712 0.91768 0.0
C298 C 0.56374 0.96681 0.89533 0.0
C299 C 0.58616 0.96344 0.87704 0.0
C300 C 0.61799 0.95231 0.88134 0.0
C301 C 0.53109 0.98196 0.8919 0.0
C302 C 0.5035 0.96522 0.90015 0.0
C303 C 0.52723 0.01373 0.88247 0.0
C304 C 0.55546 0.03342 0.87451 0.0
C305 C 0.55686 0.04451 0.85151 0.0
C306 C 0.58352 0.06302 0.84392 0.0
C307 C 0.60882 0.07075 0.85923 0.0
C308 C 0.60743 0.06012 0.88221 0.0
C309 C 0.58081 0.04166 0.88989 0.0
H310 H 0.62945 0.08505 0.85332 0.0
H311 H 0.37009 0.91532 0.9363 0.0
H312 H 0.28198 0.03585 0.45063 0.0
H313 H 0.26277 0.08171 0.47392 0.0
H314 H 0.17827 0.09122 0.42981 0.0
H315 H 0.1971 0.045 0.40648 0.0
H316 H 0.2442 0.1461 0.46914 0.0
H317 H 0.11216 0.0982 0.46554 0.0
H318 H 0.08232 0.04708 0.45719 0.0
H319 H 0.16538 0.99089 0.4791 0.0
H320 H 0.19548 0.04165 0.48787 0.0
H321 H 0.13313 0.25057 0.53278 0.0
H322 H 0.16324 0.21895 0.50376 0.0
H323 H 0.1611 0.13474 0.54867 0.0
H324 H 0.13071 0.16586 0.57749 0.0
H325 H 0.13873 0.1196 0.50718 0.0
H326 H 0.23205 0.17636 0.53775 0.0
H327 H 0.26464 0.22453 0.549 0.0
H328 H 0.26362 0.2586 0.47868 0.0
H329 H 0.23063 0.21082 0.46707 0.0
C330 C 0.25966 0.0481 0.44553 0.0
C331 C 0.24075 0.03635 0.42695 0.0
C332 C 0.24882 0.07448 0.45881 0.0
C333 C 0.21886 0.08949 0.45381 0.0
C334 C 0.20131 0.07968 0.43409 0.0
C335 C 0.21215 0.05328 0.42076 0.0
C336 C 0.2041 0.11208 0.47093 0.0
C337 C 0.22099 0.14057 0.47733 0.0
C338 C 0.1742 0.1044 0.48197 0.0
C339 C 0.15617 0.07372 0.47707 0.0
C340 C 0.12398 0.07492 0.46862 0.0
C341 C 0.10704 0.04602 0.46382 0.0
C342 C 0.12199 0.01576 0.46753 0.0
C343 C 0.15387 0.01434 0.47615 0.0
C344 C 0.17089 0.04317 0.48102 0.0
C345 C 0.13965 0.22551 0.53666 0.0
C346 C 0.12925 0.21064 0.55736 0.0
C347 C 0.15688 0.20748 0.52005 0.0
C348 C 0.16425 0.17442 0.524 0.0
C349 C 0.15541 0.16013 0.54517 0.0
C350 C 0.1381 0.17801 0.56167 0.0
C351 C 0.17876 0.1538 0.50554 0.0
C352 C 0.16173 0.12556 0.49883 0.0
C353 C 0.2088 0.16145 0.49464 0.0
C354 C 0.22856 0.19021 0.5016 0.0
C355 C 0.23852 0.19428 0.52473 0.0
C356 C 0.25712 0.22148 0.53116 0.0
C357 C 0.26611 0.24466 0.51458 0.0
C358 C 0.25659 0.24065 0.49151 0.0
C359 C 0.23797 0.2135 0.48499 0.0
H360 H 0.28053 0.26569 0.51959 0.0
H361 H 0.10884 0.99341 0.46378 0.0
H362 H 0.25275 0.87288 0.46961 0.0
H363 H 0.21982 0.84546 0.49924 0.0
H364 H 0.13746 0.84392 0.45261 0.0
H365 H 0.16988 0.87171 0.42319 0.0
H366 H 0.12055 0.86971 0.4926 0.0
H367 H 0.17897 0.77388 0.46766 0.0
H368 H 0.22781 0.74064 0.45925 0.0
H369 H 0.25809 0.74839 0.53023 0.0
H370 H 0.20961 0.78205 0.539 0.0
H371 H 0.03711 0.72713 0.55209 0.0
H372 H 0.08328 0.74707 0.52956 0.0
H373 H 0.08453 0.83587 0.56983 0.0
H374 H 0.03767 0.81633 0.59229 0.0
H375 H 0.14493 0.76759 0.53554 0.0
H376 H 0.09675 0.89946 0.53242 0.0
H377 H 0.04525 0.93006 0.53748 0.0
H378 H 0.99035 0.84539 0.51695 0.0
H379 H 0.04151 0.81446 0.51154 0.0
C380 C 0.22785 0.86604 0.46551 0.0
C381 C 0.21384 0.87471 0.44412 0.0
C382 C 0.20904 0.85039 0.48248 0.0
C383 C 0.17609 0.84284 0.4782 0.0
C384 C 0.16272 0.84982 0.45638 0.0
C385 C 0.18135 0.86561 0.43954 0.0
C386 C 0.15462 0.82998 0.49681 0.0
C387 C 0.12603 0.84744 0.50204 0.0
C388 C 0.1617 0.80097 0.50917 0.0
C389 C 0.19086 0.78079 0.50392 0.0
C390 C 0.19619 0.76874 0.48142 0.0
C391 C 0.22378 0.74977 0.4766 0.0
C392 C 0.24609 0.74249 0.49417 0.0
C393 C 0.24082 0.7541 0.51662 0.0
C394 C 0.21328 0.7731 0.52153 0.0
C395 C 0.04749 0.75069 0.55648 0.0
C396 C 0.03329 0.77039 0.57375 0.0
C397 C 0.07407 0.76197 0.54363 0.0
C398 C 0.087 0.79317 0.54773 0.0
C399 C 0.07458 0.81188 0.56615 0.0
C400 C 0.04787 0.80063 0.57902 0.0
C401 C 0.11082 0.80721 0.53109 0.0
C402 C 0.13981 0.7901 0.5263 0.0
C403 C 0.10386 0.83624 0.51872 0.0
C404 C 0.07292 0.85457 0.52188 0.0
C405 C 0.07367 0.88742 0.52898 0.0
C406 C 0.04455 0.90481 0.53191 0.0
C407 C 0.01454 0.88965 0.52764 0.0
C408 C 0.01359 0.85708 0.52037 0.0
C409 C 0.04264 0.83959 0.51739 0.0
H410 H 0.99206 0.9032 0.52989 0.0
H411 H 0.26743 0.72779 0.49041 0.0
H412 H 0.78818 0.95259 0.40748 0.0
H413 H 0.80599 0.90496 0.43012 0.0
H414 H 0.75037 0.93933 0.4886 0.0
H415 H 0.73189 0.98631 0.46622 0.0
H416 H 0.8263 0.92796 0.49166 0.0
H417 H 0.72052 0.88064 0.47106 0.0
H418 H 0.67932 0.86197 0.44285 0.0
H419 H 0.74882 0.79512 0.41351 0.0
H420 H 0.79061 0.8138 0.44136 0.0
H421 H 0.85147 0.81999 0.58104 0.0
H422 H 0.82098 0.85294 0.55324 0.0
H423 H 0.84983 0.78771 0.49821 0.0
H424 H 0.87951 0.75385 0.52621 0.0
H425 H 0.78978 0.81226 0.48977 0.0
H426 H 0.89417 0.85426 0.50948 0.0
H427 H 0.9387 0.87183 0.53533 0.0
H428 H 0.87828 0.94886 0.56207 0.0
H429 H 0.83293 0.9311 0.53687 0.0
C430 C 0.77922 0.94964 0.425 0.0
C431 C 0.75875 0.97335 0.43507 0.0
C432 C 0.78935 0.92242 0.43785 0.0
C433 C 0.77939 0.91879 0.46094 0.0
C434 C 0.75813 0.94174 0.47074 0.0
C435 C 0.74761 0.96857 0.45788 0.0
C436 C 0.79377 0.89324 0.47581 0.0
C437 C 0.81814 0.90271 0.49146 0.0
C438 C 0.78394 0.86019 0.47473 0.0
C439 C 0.7588 0.84893 0.45808 0.0
C440 C 0.72713 0.86225 0.45842 0.0
C441 C 0.70364 0.85159 0.44254 0.0
C442 C 0.71148 0.82746 0.42634 0.0
C443 C 0.7428 0.81386 0.42604 0.0
C444 C 0.76639 0.82446 0.44187 0.0
C445 C 0.85066 0.81221 0.56312 0.0
C446 C 0.86822 0.78463 0.55572 0.0
C447 C 0.83331 0.8311 0.54723 0.0
C448 C 0.83392 0.82329 0.52355 0.0
C449 C 0.84923 0.7943 0.51637 0.0
C450 C 0.86618 0.77499 0.53239 0.0
C451 C 0.8216 0.8472 0.50631 0.0
C452 C 0.798 0.83746 0.49004 0.0
C453 C 0.83266 0.88005 0.50641 0.0
C454 C 0.86001 0.89113 0.52142 0.0
C455 C 0.89026 0.87479 0.521 0.0
C456 C 0.91567 0.8848 0.53553 0.0
C457 C 0.91136 0.91147 0.55031 0.0
C458 C 0.88158 0.92818 0.55061 0.0
C459 C 0.85598 0.91812 0.53623 0.0
H460 H 0.93111 0.91921 0.56152 0.0
H461 H 0.69325 0.81924 0.41406 0.0
H462 H 0.83183 0.13075 0.43015 0.0
H463 H 0.86172 0.1582 0.46104 0.0
H464 H 0.77203 0.17198 0.49898 0.0
H465 H 0.74163 0.14452 0.46794 0.0
H466 H 0.81668 0.22542 0.50301 0.0
H467 H 0.81424 0.10977 0.51361 0.0
H468 H 0.81939 0.05216 0.50159 0.0
H469 H 0.92095 0.06713 0.48614 0.0
H470 H 0.91628 0.12499 0.49772 0.0
H471 H 0.95364 0.19492 0.59876 0.0
H472 H 0.90396 0.17825 0.57824 0.0
H473 H 0.91997 0.2544 0.5278 0.0
H474 H 0.96867 0.27172 0.54843 0.0
H475 H 0.90178 0.15361 0.53713 0.0
H476 H 0.85203 0.27737 0.50118 0.0
H477 H 0.84595 0.33427 0.51457 0.0
H478 H 0.84474 0.30165 0.58522 0.0
H479 H 0.85031 0.24451 0.57226 0.0
C480 C 0.81826 0.14017 0.44481 0.0
C481 C 0.78439 0.13501 0.44673 0.0
C482 C 0.83542 0.15582 0.46247 0.0
C483 C 0.81914 0.16649 0.48247 0.0
C484 C 0.78501 0.16373 0.48371 0.0
C485 C 0.76771 0.14805 0.46595 0.0
C486 C 0.83845 0.17756 0.5027 0.0
C487 C 0.83517 0.20978 0.51064 0.0
C488 C 0.86178 0.1567 0.51311 0.0
C489 C 0.86484 0.12178 0.50641 0.0
C490 C 0.83762 0.10083 0.50751 0.0
C491 C 0.84046 0.06812 0.50079 0.0
C492 C 0.87047 0.056 0.49308 0.0
C493 C 0.89772 0.07656 0.49212 0.0
C494 C 0.895 0.1093 0.49878 0.0
C495 C 0.94612 0.20858 0.58361 0.0
C496 C 0.96529 0.23449 0.57516 0.0
C497 C 0.91776 0.19898 0.57186 0.0
C498 C 0.90804 0.21518 0.55153 0.0
C499 C 0.92645 0.24189 0.54368 0.0
C500 C 0.95458 0.25161 0.55544 0.0
C501 C 0.88112 0.20208 0.53696 0.0
C502 C 0.88294 0.16929 0.52996 0.0
C503 C 0.85615 0.22233 0.5278 0.0
C504 C 0.85176 0.2566 0.53572 0.0
C505 C 0.85018 0.28228 0.51956 0.0
C506 C 0.8469 0.3146 0.52709 0.0
C507 C 0.84503 0.32158 0.55073 0.0
C508 C 0.84628 0.29623 0.56691 0.0
C509 C 0.84953 0.26386 0.55948 0.0
H510 H 0.84259 0.34662 0.55652 0.0
H511 H 0.87261 0.03067 0.48788 0.0
H512 H 0.79288 0.04738 0.90417 0.0
H513 H 0.80858 0.09796 0.92413 0.0
H514 H 0.75917 0.06456 0.98583 0.0
H515 H 0.74203 0.0154 0.96572 0.0
H516 H 0.75 0.12517 0.98327 0.0
H517 H 0.84593 0.05674 0.97538 0.0
H518 H 0.88774 0.02548 0.95401 0.0
H519 H 0.91624 0.11235 0.91748 0.0
H520 H 0.87431 0.14405 0.93849 0.0
H521 H 0.85169 0.17922 0.07629 0.0
H522 H 0.82173 0.14967 0.04615 0.0
H523 H 0.85041 0.2221 0.9959 0.0
H524 H 0.87974 0.25238 0.02612 0.0
H525 H 0.86805 0.15223 0.98681 0.0
H526 H 0.77646 0.22107 0.00438 0.0
H527 H 0.73679 0.24818 0.03014 0.0
H528 H 0.70246 0.15472 0.05364 0.0
H529 H 0.74225 0.12703 0.02827 0.0
C530 C 0.78509 0.05114 0.92189 0.0
C531 C 0.76634 0.02737 0.93339 0.0
C532 C 0.79419 0.07995 0.93334 0.0
C533 C 0.78556 0.08494 0.95667 0.0
C534 C 0.76607 0.06153 0.96784 0.0
C535 C 0.75637 0.03326 0.9563 0.0
C536 C 0.79794 0.11339 0.97015 0.0
C537 C 0.77584 0.131 0.98402 0.0
C538 C 0.83158 0.12163 0.97089 0.0
C539 C 0.85674 0.10263 0.95826 0.0
C540 C 0.86097 0.0691 0.96267 0.0
C541 C 0.8847 0.05132 0.95064 0.0
C542 C 0.90455 0.0669 0.93433 0.0
C543 C 0.90078 0.10031 0.93007 0.0
C544 C 0.87705 0.11819 0.94203 0.0
C545 C 0.85094 0.18928 0.05895 0.0
C546 C 0.86805 0.21806 0.05353 0.0
C547 C 0.8338 0.17242 0.04178 0.0
C548 C 0.83395 0.18377 0.01887 0.0
C549 C 0.84996 0.21311 0.01354 0.0
C550 C 0.86654 0.23041 0.03083 0.0
C551 C 0.82024 0.16298 1.00031 0.0
C552 C 0.84213 0.14684 0.98557 0.0
C553 C 0.78662 0.1554 0.99931 0.0
C554 C 0.7625 0.17198 0.01451 0.0
C555 C 0.76063 0.20629 0.01517 0.0
C556 C 0.73808 0.22176 0.02968 0.0
C557 C 0.71715 0.20319 0.04354 0.0
C558 C 0.71868 0.16908 0.04289 0.0
C559 C 0.7412 0.15349 0.02842 0.0
H560 H 0.69971 0.21521 0.05477 0.0
H561 H 0.92292 0.0531 0.92504 0.0
H562 H 0.18588 0.15601 0.93318 0.0
H563 H 0.15707 0.18414 0.96456 0.0
H564 H 0.22646 0.14626 0.01389 0.0
H565 H 0.25609 0.11885 0.98246 0.0
H566 H 0.15432 0.13107 0.02017 0.0
H567 H 0.23002 0.21956 0.01124 0.0
H568 H 0.26143 0.26063 0.98932 0.0
H569 H 0.17218 0.30463 0.96575 0.0
H570 H 0.1402 0.26352 0.98725 0.0
H571 H 0.0475 0.20157 0.1037 0.0
H572 H 0.09891 0.18563 0.08497 0.0
H573 H 0.07387 0.24455 0.02555 0.0
H574 H 0.02391 0.26174 0.0445 0.0
H575 H 0.13464 0.24964 0.03125 0.0
H576 H 0.05985 0.15764 0.03017 0.0
H577 H 0.02471 0.11509 0.0474 0.0
H578 H 0.10703 0.0763 0.08444 0.0
H579 H 0.14257 0.11891 0.06761 0.0
C580 C 0.19549 0.15441 0.95063 0.0
C581 C 0.2232 0.1353 0.9554 0.0
C582 C 0.17907 0.17047 0.9685 0.0
C583 C 0.18972 0.16719 0.99146 0.0
C584 C 0.21806 0.14916 0.99622 0.0
C585 C 0.23499 0.13369 0.97826 0.0
C586 C 0.16898 0.17966 0.01045 0.0
C587 C 0.15053 0.157 0.02311 0.0
C588 C 0.16357 0.21342 0.01365 0.0
C589 C 0.18272 0.2383 1.00076 0.0
C590 C 0.21708 0.23782 1.00123 0.0
C591 C 0.23499 0.26115 0.98891 0.0
C592 C 0.21881 0.2852 0.97612 0.0
C593 C 0.18468 0.28599 0.97566 0.0
C594 C 0.16665 0.26271 0.98795 0.0
C595 C 0.05327 0.21141 0.08678 0.0
C596 C 0.03152 0.23275 0.07555 0.0
C597 C 0.08257 0.20217 0.07603 0.0
C598 C 0.09011 0.21341 0.05362 0.0
C599 C 0.06884 0.23557 0.04283 0.0
C600 C 0.04007 0.24529 0.0537 0.0
C601 C 0.1189 0.20103 0.04052 0.0
C602 C 0.13889 0.22368 0.02888 0.0
C603 C 0.12509 0.16717 0.03771 0.0
C604 C 0.10373 0.14171 0.04792 0.0
C605 C 0.07038 0.14019 0.04214 0.0
C606 C 0.05041 0.11605 0.0518 0.0
C607 C 0.0636 0.09309 0.06708 0.0
C608 C 0.09682 0.09417 0.07267 0.0
C609 C 0.11689 0.1183 0.06308 0.0
H610 H 0.04811 0.0744 0.07453 0.0
H611 H 0.23272 0.30324 0.96659 0.0
H612 H 0.11799 0.75573 0.02323 0.0
H613 H 0.14583 0.78968 0.99459 0.0
H614 H 0.1846 0.85004 0.04951 0.0
H615 H 0.15478 0.81741 0.07797 0.0
H616 H 0.16036 0.88736 0.02058 0.0
H617 H 0.23267 0.79644 0.01217 0.0
H618 H 0.24874 0.73903 0.00589 0.0
H619 H 0.20432 0.74063 0.93855 0.0
H620 H 0.1876 0.79794 0.94453 0.0
H621 H 0.27762 0.97171 0.95245 0.0
H622 H 0.25937 0.92359 0.97365 0.0
H623 H 0.17383 0.91733 0.93038 0.0
H624 H 0.19147 0.96622 0.90914 0.0
H625 H 0.22257 0.85204 0.95119 0.0
H626 H 0.14364 0.94401 0.9664 0.0
H627 H 0.13459 0.00264 0.97422 0.0
H628 H 0.20126 0.9982 0.03158 0.0
H629 H 0.21099 0.93962 0.02383 0.0
C630 C 0.13312 0.77579 0.02917 0.0
C631 C 0.13426 0.78406 0.05276 0.0
C632 C 0.14917 0.79516 0.01278 0.0
C633 C 0.16754 0.82249 0.01978 0.0
C634 C 0.17038 0.82933 0.04357 0.0
C635 C 0.15354 0.81058 0.05987 0.0
C636 C 0.18085 0.84592 0.00244 0.0
C637 C 0.17417 0.87933 0.00559 0.0
C638 C 0.1986 0.83587 0.98255 0.0
C639 C 0.20861 0.8014 0.9789 0.0
C640 C 0.2261 0.78448 0.9961 0.0
C641 C 0.23537 0.75197 0.99257 0.0
C642 C 0.22748 0.73617 0.97186 0.0
C643 C 0.21038 0.75288 0.95459 0.0
C644 C 0.20103 0.78539 0.95803 0.0
C645 C 0.25522 0.95985 0.94703 0.0
C646 C 0.23573 0.97317 0.92929 0.0
C647 C 0.24497 0.93221 0.95913 0.0
C648 C 0.21531 0.91714 0.95356 0.0
C649 C 0.1969 0.92873 0.93479 0.0
C650 C 0.20698 0.95668 0.92276 0.0
C651 C 0.20162 0.89263 0.96957 0.0
C652 C 0.20845 0.85942 0.96621 0.0
C653 C 0.18455 0.90269 0.98954 0.0
C654 C 0.17825 0.93765 0.9944 0.0
C655 C 0.15652 0.95564 0.98056 0.0
C656 C 0.15125 0.98883 0.98499 0.0
C657 C 0.16741 0.00416 0.00335 0.0
C658 C 0.1888 0.98631 0.01735 0.0
C659 C 0.19419 0.95313 0.01295 0.0
H660 H 0.16331 0.02985 0.00675 0.0
H661 H 0.23468 0.711 0.96917 0.0
H662 H 0.74703 0.87469 0.97825 0.0
H663 H 0.77721 0.84529 0.00844 0.0
H664 H 0.85036 0.81775 0.9584 0.0
H665 H 0.82096 0.84801 0.92829 0.0
H666 H 0.82645 0.76674 0.99625 0.0
H667 H 0.87151 0.87763 0.98211 0.0
H668 H 0.86397 0.9373 0.979 0.0
H669 H 0.82379 0.93984 0.04767 0.0
H670 H 0.83065 0.88005 0.051 0.0
H671 H 0.9804 0.73519 0.04032 0.0
H672 H 0.93053 0.75117 0.02086 0.0
H673 H 0.90221 0.80862 0.08028 0.0
H674 H 0.95356 0.79386 0.09961 0.0
H675 H 0.89236 0.84268 0.0444 0.0
H676 H 0.86065 0.73538 0.06331 0.0
H677 H 0.86538 0.67568 0.06796 0.0
H678 H 0.87461 0.66436 0.99434 0.0
H679 H 0.87049 0.72403 0.98924 0.0
C680 C 0.76909 0.86165 0.97356 0.0
C681 C 0.78179 0.86371 0.95097 0.0
C682 C 0.78626 0.84494 0.99081 0.0
C683 C 0.81591 0.82947 0.98555 0.0
C684 C 0.82739 0.82945 0.96268 0.0
C685 C 0.81067 0.84681 0.94556 0.0
C686 C 0.83713 0.81692 0.0042 0.0
C687 C 0.84095 0.78313 0.00687 0.0
C688 C 0.85483 0.8385 0.01859 0.0
C689 C 0.8512 0.87441 0.01669 0.0
C690 C 0.86079 0.8909 0.99645 0.0
C691 C 0.8567 0.92473 0.99466 0.0
C692 C 0.8433 0.94234 0.01309 0.0
C693 C 0.83409 0.92616 0.03339 0.0
C694 C 0.83808 0.89232 0.03524 0.0
C695 C 0.96345 0.75086 0.04949 0.0
C696 C 0.971 0.76323 0.07157 0.0
C697 C 0.93463 0.75977 0.03836 0.0
C698 C 0.91207 0.78056 0.04923 0.0
C699 C 0.91911 0.79239 0.07156 0.0
C700 C 0.94842 0.78391 0.08261 0.0
C701 C 0.8829 0.79205 0.03618 0.0
C702 C 0.87746 0.82586 0.03443 0.0
C703 C 0.86322 0.77032 0.02301 0.0
C704 C 0.86537 0.73428 0.02591 0.0
C705 C 0.86387 0.7202 0.04811 0.0
C706 C 0.86644 0.68634 0.05083 0.0
C707 C 0.87032 0.66624 0.03146 0.0
C708 C 0.87158 0.67996 0.00933 0.0
C709 C 0.86906 0.7138 0.00651 0.0
H710 H 0.87233 0.64004 0.03361 0.0
H711 H 0.84015 0.96853 0.01168 0.0
H712 H 0.05493 0.1655 0.67836 0.0
H713 H 0.0802 0.1484 0.7148 0.0
H714 H 0.14674 0.22996 0.71112 0.0
H715 H 0.1209 0.24781 0.67483 0.0
H716 H 0.17535 0.16265 0.71829 0.0
H717 H 0.09639 0.23763 0.74946 0.0
H718 H 0.04138 0.26131 0.75411 0.0
H719 H 0.00533 0.16925 0.77906 0.0
H720 H 0.06005 0.14487 0.77422 0.0
H721 H 0.24364 0.1273 0.82984 0.0
H722 H 0.22195 0.15345 0.79492 0.0
H723 H 0.13189 0.09958 0.80278 0.0
H724 H 0.15292 0.07457 0.83808 0.0
H725 H 0.11752 0.15888 0.79373 0.0
H726 H 0.19231 0.08177 0.76014 0.0
H727 H 0.24544 0.0547 0.75397 0.0
H728 H 0.28742 0.14578 0.73205 0.0
H729 H 0.2346 0.17349 0.73836 0.0
C730 C 0.07463 0.18008 0.68548 0.0
C731 C 0.08589 0.20804 0.67381 0.0
C732 C 0.08904 0.17026 0.70626 0.0
C733 C 0.11535 0.18788 0.71557 0.0
C734 C 0.12645 0.21607 0.70416 0.0
C735 C 0.11154 0.22633 0.68356 0.0
C736 C 0.13172 0.17594 0.73682 0.0
C737 C 0.16307 0.16234 0.73494 0.0
C738 C 0.11518 0.17474 0.75826 0.0
C739 C 0.08226 0.18935 0.76128 0.0
C740 C 0.07667 0.22235 0.75574 0.0
C741 C 0.04555 0.23592 0.75845 0.0
C742 C 0.01986 0.21678 0.76682 0.0
C743 C 0.02525 0.18404 0.77256 0.0
C744 C 0.05632 0.17035 0.76985 0.0
C745 C 0.21937 0.12079 0.82393 0.0
C746 C 0.19999 0.09888 0.83669 0.0
C747 C 0.20698 0.13571 0.80393 0.0
C748 C 0.17527 0.12841 0.79604 0.0
C749 C 0.15631 0.10586 0.80852 0.0
C750 C 0.16844 0.09141 0.82867 0.0
C751 C 0.16119 0.14487 0.77529 0.0
C752 C 0.13015 0.15936 0.77721 0.0
C753 C 0.17784 0.14636 0.75378 0.0
C754 C 0.20961 0.12977 0.74998 0.0
C755 C 0.21294 0.09608 0.75418 0.0
C756 C 0.24298 0.08061 0.75063 0.0
C757 C 0.26982 0.09853 0.7427 0.0
C758 C 0.26663 0.13195 0.73824 0.0
C759 C 0.23664 0.14754 0.74179 0.0
H760 H 0.29306 0.08651 0.73995 0.0
H761 H 0.99578 0.22733 0.76892 0.0
H762 H 0.06346 0.84407 0.1694 0.0
H763 H 0.09006 0.86632 0.20376 0.0
H764 H 0.15159 0.78086 0.20779 0.0
H765 H 0.12393 0.75781 0.17382 0.0
H766 H 0.1365 0.79887 0.24948 0.0
H767 H 0.17912 0.85489 0.18403 0.0
H768 H 0.17785 0.88603 0.14749 0.0
H769 H 0.12875 0.96516 0.18176 0.0
H770 H 0.12931 0.9343 0.21845 0.0
H771 H 0.24875 0.88301 0.32497 0.0
H772 H 0.22818 0.85703 0.28949 0.0
H773 H 0.14593 0.92287 0.28916 0.0
H774 H 0.1659 0.94843 0.32475 0.0
H775 H 0.17749 0.91286 0.24458 0.0
H776 H 0.13335 0.85209 0.3099 0.0
H777 H 0.13822 0.81998 0.34586 0.0
H778 H 0.19623 0.7484 0.31026 0.0
H779 H 0.19209 0.78038 0.27414 0.0
C780 C 0.08237 0.82981 0.17777 0.0
C781 C 0.09176 0.79928 0.16883 0.0
C782 C 0.09779 0.84269 0.19732 0.0
C783 C 0.12357 0.82576 0.20801 0.0
C784 C 0.13198 0.79454 0.19975 0.0
C785 C 0.11611 0.78135 0.18037 0.0
C786 C 0.14199 0.84107 0.22746 0.0
C787 C 0.14592 0.82359 0.24821 0.0
C788 C 0.15435 0.87342 0.22597 0.0
C789 C 0.15402 0.89215 0.20395 0.0
C790 C 0.16785 0.87884 0.18374 0.0
C791 C 0.16729 0.89645 0.16301 0.0
C792 C 0.15317 0.92753 0.1623 0.0
C793 C 0.13965 0.94108 0.18234 0.0
C794 C 0.14011 0.92354 0.20311 0.0
C795 C 0.22657 0.89225 0.31711 0.0
C796 C 0.20889 0.91772 0.32763 0.0
C797 C 0.21477 0.87728 0.29695 0.0
C798 C 0.18543 0.88792 0.28684 0.0
C799 C 0.1686 0.9143 0.29672 0.0
C800 C 0.18002 0.92885 0.31706 0.0
C801 C 0.17133 0.87085 0.2665 0.0
C802 C 0.1683 0.88803 0.24563 0.0
C803 C 0.1604 0.83809 0.26774 0.0
C804 C 0.16274 0.81882 0.28941 0.0
C805 C 0.1474 0.82967 0.3098 0.0
C806 C 0.14998 0.81146 0.33019 0.0
C807 C 0.16761 0.78222 0.33036 0.0
C808 C 0.18263 0.77108 0.31011 0.0
C809 C 0.18017 0.78923 0.28968 0.0
H810 H 0.16957 0.76815 0.34617 0.0
H811 H 0.15276 0.94113 0.14623 0.0
H812 H 0.94 0.84332 0.67299 0.0
H813 H 0.91556 0.8622 0.70924 0.0
H814 H 0.85898 0.7735 0.71354 0.0
H815 H 0.88392 0.75404 0.67735 0.0
H816 H 0.82263 0.8356 0.71863 0.0
H817 H 0.91572 0.77865 0.74958 0.0
H818 H 0.97423 0.76477 0.75236 0.0
H819 H 0.99688 0.86446 0.76921 0.0
H820 H 0.93853 0.87905 0.7662 0.0
H821 H 0.76 0.87383 0.83117 0.0
H822 H 0.78201 0.84809 0.79623 0.0
H823 H 0.86369 0.91494 0.79742 0.0
H824 H 0.84268 0.93935 0.833 0.0
H825 H 0.8862 0.85876 0.78989 0.0
H826 H 0.79662 0.91825 0.75656 0.0
H827 H 0.73928 0.93561 0.75192 0.0
H828 H 0.71101 0.83659 0.7375 0.0
H829 H 0.76815 0.81857 0.74235 0.0
C830 C 0.92268 0.82761 0.68179 0.0
C831 C 0.91394 0.79715 0.67237 0.0
C832 C 0.90874 0.83845 0.70248 0.0
C833 C 0.88545 0.81926 0.71401 0.0
C834 C 0.8769 0.78865 0.70485 0.0
C835 C 0.89133 0.77749 0.68431 0.0
C836 C 0.86953 0.8319 0.73526 0.0
C837 C 0.83628 0.84018 0.73441 0.0
C838 C 0.88769 0.83874 0.75549 0.0
C839 C 0.92277 0.82999 0.75746 0.0
C840 C 0.9332 0.79767 0.75368 0.0
C841 C 0.96633 0.78967 0.75534 0.0
C842 C 0.98926 0.81374 0.76091 0.0
C843 C 0.97909 0.84585 0.76489 0.0
C844 C 0.94599 0.85399 0.76323 0.0
C845 C 0.78239 0.88329 0.82374 0.0
C846 C 0.79962 0.90861 0.83476 0.0
C847 C 0.79496 0.86862 0.80371 0.0
C848 C 0.82449 0.87965 0.79394 0.0
C849 C 0.84103 0.90574 0.8046 0.0
C850 C 0.82889 0.91985 0.82488 0.0
C851 C 0.83914 0.86323 0.77332 0.0
C852 C 0.87226 0.85413 0.77426 0.0
C853 C 0.82095 0.85623 0.75301 0.0
C854 C 0.7866 0.86702 0.75007 0.0
C855 C 0.77813 0.90014 0.75258 0.0
C856 C 0.74568 0.91011 0.74988 0.0
C857 C 0.7215 0.8872 0.74449 0.0
C858 C 0.72975 0.8543 0.74172 0.0
C859 C 0.76217 0.8442 0.74442 0.0
H860 H 0.69639 0.89497 0.74241 0.0
H861 H 0.0149 0.80749 0.76218 0.0
H862 H 0.75476 0.12347 0.33003 0.0
H863 H 0.77676 0.1492 0.2951 0.0
H864 H 0.85504 0.07847 0.29374 0.0
H865 H 0.83406 0.05391 0.32928 0.0
H866 H 0.87996 0.13417 0.28721 0.0
H867 H 0.78702 0.07994 0.25383 0.0
H868 H 0.72883 0.06535 0.24962 0.0
H869 H 0.70481 0.16606 0.23749 0.0
H870 H 0.76283 0.18131 0.24193 0.0
H871 H 0.9336 0.15362 0.17092 0.0
H872 H 0.90857 0.13376 0.20667 0.0
H873 H 0.85362 0.22326 0.21261 0.0
H874 H 0.87909 0.24366 0.17687 0.0
H875 H 0.81589 0.16294 0.21723 0.0
H876 H 0.91161 0.21492 0.24835 0.0
H877 H 0.97062 0.22665 0.25091 0.0
H878 H 0.98996 0.12557 0.26547 0.0
H879 H 0.93109 0.11315 0.26266 0.0
C880 C 0.77635 0.11312 0.32202 0.0
C881 C 0.79268 0.08667 0.33234 0.0
C882 C 0.78891 0.12781 0.302 0.0
C883 C 0.81754 0.11572 0.29155 0.0
C884 C 0.83309 0.08848 0.30146 0.0
C885 C 0.82096 0.07429 0.32172 0.0
C886 C 0.83242 0.13229 0.27109 0.0
C887 C 0.8659 0.14001 0.27184 0.0
C888 C 0.8141 0.14092 0.25116 0.0
C889 C 0.77922 0.1318 0.24846 0.0
C890 C 0.7693 0.099 0.25044 0.0
C891 C 0.73635 0.09061 0.24798 0.0
C892 C 0.71313 0.11478 0.24336 0.0
C893 C 0.72282 0.14738 0.24112 0.0
C894 C 0.75573 0.1559 0.24358 0.0
C895 C 0.91646 0.16926 0.17994 0.0
C896 C 0.90837 0.20025 0.17112 0.0
C897 C 0.90218 0.15786 0.20037 0.0
C898 C 0.87925 0.17704 0.21225 0.0
C899 C 0.87126 0.20811 0.20364 0.0
C900 C 0.88598 0.2198 0.18335 0.0
C901 C 0.86326 0.16403 0.23338 0.0
C902 C 0.82969 0.15711 0.23273 0.0
C903 C 0.88154 0.15563 0.25326 0.0
C904 C 0.91695 0.16307 0.2551 0.0
C905 C 0.92847 0.19515 0.25191 0.0
C906 C 0.96189 0.20193 0.25344 0.0
C907 C 0.98403 0.17686 0.2583 0.0
C908 C 0.97279 0.14497 0.26169 0.0
C909 C 0.93939 0.13805 0.26015 0.0
H910 H 0.0099 0.18216 0.25948 0.0
H911 H 0.68764 0.10823 0.24146 0.0
loop_
_geom_bond_atom_site_label_1
_geom_bond_atom_site_label_2
_geom_bond_distance
_geom_bond_site_symmetry_2
_ccdc_geom_bond_type
O0 Cd1 2.223 . S
O0 C8 1.315 . S
Cd1 O0 2.223 . S
Cd1 O4 2.297 . S
Cd1 O5 2.439 . S
Cd1 O11 2.240 . S
Cd2 O3 2.240 . S
Cd2 O10 2.223 . S
Cd2 O12 2.297 . S
Cd2 O13 2.439 . S
O3 Cd2 2.240 . S
O3 C8 1.279 . S
O4 Cd1 2.297 . S
O4 C6 1.247 . S
O5 Cd1 2.439 . S
O5 C6 1.208 . S
C6 O4 1.247 . S
C6 O5 1.208 . S
C7 O12 1.247 . S
C7 O13 1.208 . S
C8 O0 1.315 . S
C8 O3 1.279 . S
C9 O10 1.315 . S
C9 O11 1.279 . S
O10 Cd2 2.223 . S
O10 C9 1.315 . S
O11 Cd1 2.240 . S
O11 C9 1.279 . S
O12 Cd2 2.297 . S
O12 C7 1.247 . S
O13 Cd2 2.439 . S
O13 C7 1.208 . S
O14 Cd15 2.223 . S
O14 C22 1.315 . S
Cd15 O14 2.223 . S
Cd15 O18 2.297 . S
Cd15 O19 2.439 . S
Cd15 O25 2.240 . S
Cd16 O17 2.240 . S
Cd16 O24 2.223 . S
Cd16 O26 2.297 . S
Cd16 O27 2.439 . S
O17 Cd16 2.240 . S
O17 C22 1.279 . S
O18 Cd15 2.297 . S
O18 C20 1.247 . S
O19 Cd15 2.439 . S
O19 C20 1.208 . S
C20 O18 1.247 . S
C20 O19 1.208 . S
C21 O26 1.247 . S
C21 O27 1.208 . S
C22 O14 1.315 . S
C22 O17 1.279 . S
C23 O24 1.315 . S
C23 O25 1.279 . S
O24 Cd16 2.223 . S
O24 C23 1.315 . S
O25 Cd15 2.240 . S
O25 C23 1.279 . S
O26 Cd16 2.297 . S
O26 C21 1.247 . S
O27 Cd16 2.439 . S
O27 C21 1.208 . S
O28 Cd29 2.223 . S
O28 C36 1.315 . S
Cd29 O28 2.223 . S
Cd29 O32 2.297 . S
Cd29 O33 2.439 . S
Cd29 O39 2.240 . S
Cd30 O31 2.240 . S
Cd30 O38 2.223 . S
Cd30 O40 2.297 . S
Cd30 O41 2.439 . S
O31 Cd30 2.240 . S
O31 C36 1.279 . S
O32 Cd29 2.297 . S
O32 C34 1.247 . S
O33 Cd29 2.439 . S
O33 C34 1.208 . S
C34 O32 1.247 . S
C34 O33 1.208 . S
C35 O40 1.247 . S
C35 O41 1.208 . S
C36 O28 1.315 . S
C36 O31 1.279 . S
C37 O38 1.315 . S
C37 O39 1.279 . S
O38 Cd30 2.223 . S
O38 C37 1.315 . S
O39 Cd29 2.240 . S
O39 C37 1.279 . S
O40 Cd30 2.297 . S
O40 C35 1.247 . S
O41 Cd30 2.439 . S
O41 C35 1.208 . S
O42 Cd43 2.223 . S
O42 C50 1.315 . S
Cd43 O42 2.223 . S
Cd43 O46 2.297 . S
Cd43 O47 2.439 . S
Cd43 O53 2.240 . S
Cd44 O45 2.240 . S
Cd44 O52 2.223 . S
Cd44 O54 2.297 . S
Cd44 O55 2.439 . S
O45 Cd44 2.240 . S
O45 C50 1.279 . S
O46 Cd43 2.297 . S
O46 C48 1.247 . S
O47 Cd43 2.439 . S
O47 C48 1.208 . S
C48 O46 1.247 . S
C48 O47 1.208 . S
C49 O54 1.247 . S
C49 O55 1.208 . S
C50 O42 1.315 . S
C50 O45 1.279 . S
C51 O52 1.315 . S
C51 O53 1.279 . S
O52 Cd44 2.223 . S
O52 C51 1.315 . S
O53 Cd43 2.240 . S
O53 C51 1.279 . S
O54 Cd44 2.297 . S
O54 C49 1.247 . S
O55 Cd44 2.439 . S
O55 C49 1.208 . S
O56 Cd57 2.223 . S
O56 C64 1.315 . S
Cd57 O56 2.223 . S
Cd57 O60 2.297 . S
Cd57 O61 2.439 . S
Cd57 O67 2.240 . S
Cd58 O59 2.240 . S
Cd58 O66 2.223 . S
Cd58 O68 2.297 . S
Cd58 O69 2.439 . S
O59 Cd58 2.240 . S
O59 C64 1.279 . S
O60 Cd57 2.297 . S
O60 C62 1.247 . S
O61 Cd57 2.439 . S
O61 C62 1.208 . S
C62 O60 1.247 . S
C62 O61 1.208 . S
C63 O68 1.247 . S
C63 O69 1.208 . S
C64 O56 1.315 . S
C64 O59 1.279 . S
C65 O66 1.315 . S
C65 O67 1.279 . S
O66 Cd58 2.223 . S
O66 C65 1.315 . S
O67 Cd57 2.240 . S
O67 C65 1.279 . S
O68 Cd58 2.297 . S
O68 C63 1.247 . S
O69 Cd58 2.439 . S
O69 C63 1.208 . S
O70 Cd71 2.223 . S
O70 C78 1.315 . S
Cd71 O70 2.223 . S
Cd71 O74 2.297 . S
Cd71 O75 2.439 . S
Cd71 O81 2.240 . S
Cd72 O73 2.240 . S
Cd72 O80 2.223 . S
Cd72 O82 2.297 . S
Cd72 O83 2.439 . S
O73 Cd72 2.240 . S
O73 C78 1.279 . S
O74 Cd71 2.297 . S
O74 C76 1.247 . S
O75 Cd71 2.439 . S
O75 C76 1.208 . S
C76 O74 1.247 . S
C76 O75 1.208 . S
C77 O82 1.247 . S
C77 O83 1.208 . S
C78 O70 1.315 . S
C78 O73 1.279 . S
C79 O80 1.315 . S
C79 O81 1.279 . S
O80 Cd72 2.223 . S
O80 C79 1.315 . S
O81 Cd71 2.240 . S
O81 C79 1.279 . S
O82 Cd72 2.297 . S
O82 C77 1.247 . S
O83 Cd72 2.439 . S
O83 C77 1.208 . S
O84 Cd85 2.223 . S
O84 C92 1.315 . S
Cd85 O84 2.223 . S
Cd85 O88 2.297 . S
Cd85 O89 2.439 . S
Cd85 O95 2.240 . S
Cd86 O87 2.240 . S
Cd86 O94 2.223 . S
Cd86 O96 2.297 . S
Cd86 O97 2.439 . S
O87 Cd86 2.240 . S
O87 C92 1.279 . S
O88 Cd85 2.297 . S
O88 C90 1.247 . S
O89 Cd85 2.439 . S
O89 C90 1.208 . S
C90 O88 1.247 . S
C90 O89 1.208 . S
C91 O96 1.247 . S
C91 O97 1.208 . S
C92 O84 1.315 . S
C92 O87 1.279 . S
C93 O94 1.315 . S
C93 O95 1.279 . S
O94 Cd86 2.223 . S
O94 C93 1.315 . S
O95 Cd85 2.240 . S
O95 C93 1.279 . S
O96 Cd86 2.297 . S
O96 C91 1.247 . S
O97 Cd86 2.439 . S
O97 C91 1.208 . S
O98 Cd99 2.223 . S
O98 C106 1.315 . S
Cd99 O98 2.223 . S
Cd99 O102 2.297 . S
Cd99 O103 2.439 . S
Cd99 O109 2.240 . S
Cd100 O101 2.240 . S
Cd100 O108 2.223 . S
Cd100 O110 2.297 . S
Cd100 O111 2.439 . S
O101 Cd100 2.240 . S
O101 C106 1.279 . S
O102 Cd99 2.297 . S
O102 C104 1.247 . S
O103 Cd99 2.439 . S
O103 C104 1.208 . S
C104 O102 1.247 . S
C104 O103 1.208 . S
C105 O110 1.247 . S
C105 O111 1.208 . S
C106 O98 1.315 . S
C106 O101 1.279 . S
C107 O108 1.315 . S
C107 O109 1.279 . S
O108 Cd100 2.223 . S
O108 C107 1.315 . S
O109 Cd99 2.240 . S
O109 C107 1.279 . S
O110 Cd100 2.297 . S
O110 C105 1.247 . S
O111 Cd100 2.439 . S
O111 C105 1.208 . S
H112 C130 0.951 . S
H113 C132 0.951 . S
H114 C134 0.950 . S
H115 C135 0.950 . S
H116 C137 0.950 . S
H117 C140 0.950 . S
H118 C141 0.950 . S
H119 C143 0.950 . S
H120 C144 0.950 . S
H121 C145 0.951 . S
H122 C147 0.951 . S
H123 C149 0.950 . S
H124 C150 0.950 . S
H125 C152 0.950 . S
H126 C155 0.950 . S
H127 C156 0.950 . S
H128 C158 0.950 . S
H129 C159 0.950 . S
C130 H112 0.951 . S
C130 C131 1.366 . S
C130 C132 1.388 . S
C131 C130 1.366 . S
C131 C135 1.385 . S
C132 H113 0.951 . S
C132 C130 1.388 . S
C132 C133 1.366 . S
C133 C132 1.366 . S
C133 C134 1.414 . S
C133 C136 1.499 . S
C134 H114 0.950 . S
C134 C133 1.414 . S
C134 C135 1.374 . S
C135 H115 0.950 . S
C135 C131 1.385 . S
C135 C134 1.374 . S
C136 C133 1.499 . S
C136 C137 1.373 . S
C136 C138 1.389 1_655 S
C137 H116 0.950 . S
C137 C136 1.373 . S
C137 C153 1.377 . S
C138 C136 1.389 1_455 S
C138 C139 1.524 . S
C138 C152 1.377 . S
C139 C138 1.524 . S
C139 C140 1.397 . S
C139 C144 1.363 . S
C140 H117 0.950 . S
C140 C139 1.397 . S
C140 C141 1.334 . S
C141 H118 0.950 . S
C141 C140 1.334 . S
C141 C142 1.287 . S
C142 C141 1.287 . S
C142 C143 1.524 . S
C142 H161 0.913 . S
C143 H119 0.950 . S
C143 C142 1.524 . S
C143 C144 1.415 . S
C144 H120 0.950 . S
C144 C139 1.363 . S
C144 C143 1.415 . S
C145 H121 0.951 . S
C145 C146 1.366 . S
C145 C147 1.388 . S
C146 C145 1.366 . S
C146 C150 1.385 . S
C147 H122 0.951 . S
C147 C145 1.388 . S
C147 C148 1.366 . S
C148 C147 1.366 . S
C148 C149 1.414 . S
C148 C151 1.499 . S
C149 H123 0.950 . S
C149 C148 1.414 . S
C149 C150 1.374 . S
C150 H124 0.950 . S
C150 C146 1.385 . S
C150 C149 1.374 . S
C151 C148 1.499 . S
C151 C152 1.373 . S
C151 C153 1.389 1_455 S
C152 H125 0.950 . S
C152 C138 1.377 . S
C152 C151 1.373 . S
C153 C137 1.377 . S
C153 C151 1.389 1_655 S
C153 C154 1.524 . S
C154 C153 1.524 . S
C154 C155 1.397 . S
C154 C159 1.363 . S
C155 H126 0.950 . S
C155 C154 1.397 . S
C155 C156 1.334 . S
C156 H127 0.950 . S
C156 C155 1.334 . S
C156 C157 1.287 . S
C157 C156 1.287 . S
C157 C158 1.524 . S
C157 H160 0.999 . S
C158 H128 0.950 . S
C158 C157 1.524 . S
C158 C159 1.415 . S
C159 H129 0.950 . S
C159 C154 1.363 . S
C159 C158 1.415 . S
H160 C157 0.999 . S
H161 C142 0.913 . S
H162 C180 0.951 . S
H163 C182 0.951 . S
H164 C184 0.950 1_565 S
H165 C185 0.950 . S
H166 C187 0.950 . S
H167 C190 0.950 . S
H168 C191 0.950 . S
H169 C193 0.950 . S
H170 C194 0.950 . S
H171 C195 0.951 . S
H172 C197 0.951 . S
H173 C199 0.950 1_545 S
H174 C200 0.950 . S
H175 C202 0.950 . S
H176 C205 0.950 . S
H177 C206 0.950 . S
H178 C208 0.950 . S
H179 C209 0.950 . S
C180 H162 0.951 . S
C180 C181 1.366 . S
C180 C182 1.388 . S
C181 C180 1.366 . S
C181 C185 1.385 . S
C182 H163 0.951 . S
C182 C180 1.388 . S
C182 C183 1.366 . S
C183 C182 1.366 . S
C183 C184 1.414 . S
C183 C186 1.499 . S
C184 H164 0.950 1_545 S
C184 C183 1.414 . S
C184 C185 1.374 . S
C185 H165 0.950 . S
C185 C181 1.385 . S
C185 C184 1.374 . S
C186 C183 1.499 . S
C186 C187 1.373 1_545 S
C186 C188 1.389 . S
C187 H166 0.950 . S
C187 C186 1.373 1_565 S
C187 C203 1.377 . S
C188 C186 1.389 . S
C188 C189 1.524 . S
C188 C202 1.377 . S
C189 C188 1.524 . S
C189 C190 1.397 . S
C189 C194 1.363 . S
C190 H167 0.950 . S
C190 C189 1.397 . S
C190 C191 1.334 . S
C191 H168 0.950 . S
C191 C190 1.334 . S
C191 C192 1.287 . S
C192 C191 1.287 . S
C192 C193 1.524 . S
C192 H211 0.913 . S
C193 H169 0.950 . S
C193 C192 1.524 . S
C193 C194 1.415 . S
C194 H170 0.950 . S
C194 C189 1.363 . S
C194 C193 1.415 . S
C195 H171 0.951 . S
C195 C196 1.366 . S
C195 C197 1.388 . S
C196 C195 1.366 . S
C196 C200 1.385 . S
C197 H172 0.951 . S
C197 C195 1.388 . S
C197 C198 1.366 . S
C198 C197 1.366 . S
C198 C199 1.414 . S
C198 C201 1.499 . S
C199 H173 0.950 1_565 S
C199 C198 1.414 . S
C199 C200 1.374 . S
C200 H174 0.950 . S
C200 C196 1.385 . S
C200 C199 1.374 . S
C201 C198 1.499 . S
C201 C202 1.373 1_565 S
C201 C203 1.389 . S
C202 H175 0.950 . S
C202 C188 1.377 . S
C202 C201 1.373 1_545 S
C203 C187 1.377 . S
C203 C201 1.389 . S
C203 C204 1.524 . S
C204 C203 1.524 . S
C204 C205 1.397 . S
C204 C209 1.363 . S
C205 H176 0.950 . S
C205 C204 1.397 . S
C205 C206 1.334 . S
C206 H177 0.950 . S
C206 C205 1.334 . S
C206 C207 1.287 . S
C207 C206 1.287 . S
C207 C208 1.524 . S
C207 H210 0.999 . S
C208 H178 0.950 . S
C208 C207 1.524 . S
C208 C209 1.415 . S
C209 H179 0.950 . S
C209 C204 1.363 . S
C209 C208 1.415 . S
H210 C207 0.999 . S
H211 C192 0.913 . S
H212 C230 0.951 . S
H213 C232 0.951 1_455 S
H214 C234 0.950 . S
H215 C235 0.950 . S
H216 C237 0.950 . S
H217 C240 0.950 1_655 S
H218 C241 0.950 . S
H219 C243 0.950 . S
H220 C244 0.950 . S
H221 C245 0.951 . S
H222 C247 0.951 1_655 S
H223 C249 0.950 . S
H224 C250 0.950 . S
H225 C252 0.950 . S
H226 C255 0.950 1_455 S
H227 C256 0.950 . S
H228 C258 0.950 . S
H229 C259 0.950 . S
C230 H212 0.951 . S
C230 C231 1.366 . S
C230 C232 1.388 . S
C231 C230 1.366 . S
C231 C235 1.385 . S
C232 H213 0.951 1_655 S
C232 C230 1.388 . S
C232 C233 1.366 . S
C233 C232 1.366 . S
C233 C234 1.414 . S
C233 C236 1.499 . S
C234 H214 0.950 . S
C234 C233 1.414 . S
C234 C235 1.374 . S
C235 H215 0.950 . S
C235 C231 1.385 . S
C235 C234 1.374 . S
C236 C233 1.499 . S
C236 C237 1.373 . S
C236 C238 1.389 1_655 S
C237 H216 0.950 . S
C237 C236 1.373 . S
C237 C253 1.377 . S
C238 C236 1.389 1_455 S
C238 C239 1.524 . S
C238 C252 1.377 . S
C239 C238 1.524 . S
C239 C240 1.397 . S
C239 C244 1.363 . S
C240 H217 0.950 1_455 S
C240 C239 1.397 . S
C240 C241 1.334 . S
C241 H218 0.950 . S
C241 C240 1.334 . S
C241 C242 1.287 . S
C242 C241 1.287 . S
C242 C243 1.524 . S
C242 H261 0.913 . S
C243 H219 0.950 . S
C243 C242 1.524 . S
C243 C244 1.415 . S
C244 H220 0.950 . S
C244 C239 1.363 . S
C244 C243 1.415 . S
C245 H221 0.951 . S
C245 C246 1.366 . S
C245 C247 1.388 . S
C246 C245 1.366 . S
C246 C250 1.385 . S
C247 H222 0.951 1_455 S
C247 C245 1.388 . S
C247 C248 1.366 . S
C248 C247 1.366 . S
C248 C249 1.414 . S
C248 C251 1.499 . S
C249 H223 0.950 . S
C249 C248 1.414 . S
C249 C250 1.374 . S
C250 H224 0.950 . S
C250 C246 1.385 . S
C250 C249 1.374 . S
C251 C248 1.499 . S
C251 C252 1.373 . S
C251 C253 1.389 1_455 S
C252 H225 0.950 . S
C252 C238 1.377 . S
C252 C251 1.373 . S
C253 C237 1.377 . S
C253 C251 1.389 1_655 S
C253 C254 1.524 . S
C254 C253 1.524 . S
C254 C255 1.397 . S
C254 C259 1.363 . S
C255 H226 0.950 1_655 S
C255 C254 1.397 . S
C255 C256 1.334 . S
C256 H227 0.950 . S
C256 C255 1.334 . S
C256 C257 1.287 . S
C257 C256 1.287 . S
C257 C258 1.524 . S
C257 H260 0.999 . S
C258 H228 0.950 . S
C258 C257 1.524 . S
C258 C259 1.415 . S
C259 H229 0.950 . S
C259 C254 1.363 . S
C259 C258 1.415 . S
H260 C257 0.999 . S
H261 C242 0.913 . S
H262 C280 0.951 . S
H263 C282 0.951 1_565 S
H264 C284 0.950 . S
H265 C285 0.950 . S
H266 C287 0.950 . S
H267 C290 0.950 1_545 S
H268 C291 0.950 . S
H269 C293 0.950 . S
H270 C294 0.950 . S
H271 C295 0.951 . S
H272 C297 0.951 1_545 S
H273 C299 0.950 . S
H274 C300 0.950 . S
H275 C302 0.950 . S
H276 C305 0.950 1_565 S
H277 C306 0.950 . S
H278 C308 0.950 . S
H279 C309 0.950 . S
C280 H262 0.951 . S
C280 C281 1.366 . S
C280 C282 1.388 . S
C281 C280 1.366 . S
C281 C285 1.385 . S
C282 H263 0.951 1_545 S
C282 C280 1.388 . S
C282 C283 1.366 . S
C283 C282 1.366 . S
C283 C284 1.414 . S
C283 C286 1.499 . S
C284 H264 0.950 . S
C284 C283 1.414 . S
C284 C285 1.374 . S
C285 H265 0.950 . S
C285 C281 1.385 . S
C285 C284 1.374 . S
C286 C283 1.499 . S
C286 C287 1.373 . S
C286 C288 1.389 1_545 S
C287 H266 0.950 . S
C287 C286 1.373 . S
C287 C303 1.377 . S
C288 C286 1.389 1_565 S
C288 C289 1.524 . S
C288 C302 1.377 . S
C289 C288 1.524 . S
C289 C290 1.397 . S
C289 C294 1.363 . S
C290 H267 0.950 1_565 S
C290 C289 1.397 . S
C290 C291 1.334 . S
C291 H268 0.950 . S
C291 C290 1.334 . S
C291 C292 1.287 . S
C292 C291 1.287 . S
C292 C293 1.524 . S
C292 H311 0.913 . S
C293 H269 0.950 . S
C293 C292 1.524 . S
C293 C294 1.415 . S
C294 H270 0.950 . S
C294 C289 1.363 . S
C294 C293 1.415 . S
C295 H271 0.951 . S
C295 C296 1.366 . S
C295 C297 1.388 . S
C296 C295 1.366 . S
C296 C300 1.385 . S
C297 H272 0.951 1_565 S
C297 C295 1.388 . S
C297 C298 1.366 . S
C298 C297 1.366 . S
C298 C299 1.414 . S
C298 C301 1.499 . S
C299 H273 0.950 . S
C299 C298 1.414 . S
C299 C300 1.374 . S
C300 H274 0.950 . S
C300 C296 1.385 . S
C300 C299 1.374 . S
C301 C298 1.499 . S
C301 C302 1.373 . S
C301 C303 1.389 1_565 S
C302 H275 0.950 . S
C302 C288 1.377 . S
C302 C301 1.373 . S
C303 C287 1.377 . S
C303 C301 1.389 1_545 S
C303 C304 1.524 . S
C304 C303 1.524 . S
C304 C305 1.397 . S
C304 C309 1.363 . S
C305 H276 0.950 1_545 S
C305 C304 1.397 . S
C305 C306 1.334 . S
C306 H277 0.950 . S
C306 C305 1.334 . S
C306 C307 1.287 . S
C307 C306 1.287 . S
C307 C308 1.524 . S
C307 H310 0.999 . S
C308 H278 0.950 . S
C308 C307 1.524 . S
C308 C309 1.415 . S
C309 H279 0.950 . S
C309 C304 1.363 . S
C309 C308 1.415 . S
H310 C307 0.999 . S
H311 C292 0.913 . S
H312 C330 0.951 . S
H313 C332 0.950 1_565 S
H314 C334 0.950 . S
H315 C335 0.950 . S
H316 C337 0.950 . S
H317 C340 0.950 . S
H318 C341 0.950 . S
H319 C343 0.950 . S
H320 C344 0.950 . S
H321 C345 0.951 . S
H322 C347 0.951 . S
H323 C349 0.950 . S
H324 C350 0.950 . S
H325 C352 0.950 . S
H326 C355 0.950 . S
H327 C356 0.950 . S
H328 C358 0.950 . S
H329 C359 0.950 . S
C330 H312 0.951 . S
C330 C331 1.366 . S
C330 C332 1.388 1_565 S
C331 C330 1.366 . S
C331 C335 1.385 1_565 S
C332 H313 0.950 1_545 S
C332 C330 1.388 1_545 S
C332 C333 1.366 . S
C333 C332 1.366 . S
C333 C334 1.414 . S
C333 C336 1.499 . S
C334 H314 0.950 . S
C334 C333 1.414 . S
C334 C335 1.374 . S
C335 H315 0.950 . S
C335 C331 1.385 1_545 S
C335 C334 1.374 . S
C336 C333 1.499 . S
C336 C337 1.373 . S
C336 C338 1.389 . S
C337 H316 0.950 . S
C337 C336 1.373 . S
C337 C353 1.377 . S
C338 C336 1.389 . S
C338 C339 1.524 . S
C338 C352 1.377 . S
C339 C338 1.524 . S
C339 C340 1.397 . S
C339 C344 1.363 . S
C340 H317 0.950 . S
C340 C339 1.397 . S
C340 C341 1.334 . S
C341 H318 0.950 . S
C341 C340 1.334 . S
C341 C342 1.287 . S
C342 C341 1.287 . S
C342 C343 1.524 . S
C342 H361 0.908 1_545 S
C343 H319 0.950 . S
C343 C342 1.524 . S
C343 C344 1.415 . S
C344 H320 0.950 . S
C344 C339 1.363 . S
C344 C343 1.415 . S
C345 H321 0.951 . S
C345 C346 1.366 . S
C345 C347 1.388 . S
C346 C345 1.366 . S
C346 C350 1.385 . S
C347 H322 0.951 . S
C347 C345 1.388 . S
C347 C348 1.366 . S
C348 C347 1.366 . S
C348 C349 1.414 . S
C348 C351 1.499 . S
C349 H323 0.950 . S
C349 C348 1.414 . S
C349 C350 1.374 . S
C350 H324 0.950 . S
C350 C346 1.385 . S
C350 C349 1.374 . S
C351 C348 1.499 . S
C351 C352 1.373 . S
C351 C353 1.389 . S
C352 H325 0.950 . S
C352 C338 1.377 . S
C352 C351 1.373 . S
C353 C337 1.377 . S
C353 C351 1.389 . S
C353 C354 1.524 . S
C354 C353 1.524 . S
C354 C355 1.397 . S
C354 C359 1.363 . S
C355 H326 0.950 . S
C355 C354 1.397 . S
C355 C356 1.334 . S
C356 H327 0.950 . S
C356 C355 1.334 . S
C356 C357 1.287 . S
C357 C356 1.287 . S
C357 C358 1.524 . S
C357 H360 0.999 . S
C358 H328 0.950 . S
C358 C357 1.524 . S
C358 C359 1.415 . S
C359 H329 0.950 . S
C359 C354 1.363 . S
C359 C358 1.415 . S
H360 C357 0.999 . S
H361 C342 0.908 1_565 S
H362 C380 0.951 . S
H363 C382 0.951 . S
H364 C384 0.950 . S
H365 C385 0.950 . S
H366 C387 0.950 . S
H367 C390 0.950 . S
H368 C391 0.950 . S
H369 C393 0.950 . S
H370 C394 0.950 . S
H371 C395 0.951 . S
H372 C397 0.954 . S
H373 C399 0.950 . S
H374 C400 0.950 . S
H375 C402 0.950 . S
H376 C405 0.950 . S
H377 C406 0.950 . S
H378 C408 0.950 . S
H379 C409 0.950 . S
C380 H362 0.951 . S
C380 C381 1.366 . S
C380 C382 1.388 . S
C381 C380 1.366 . S
C381 C385 1.385 . S
C382 H363 0.951 . S
C382 C380 1.388 . S
C382 C383 1.366 . S
C383 C382 1.366 . S
C383 C384 1.414 . S
C383 C386 1.499 . S
C384 H364 0.950 . S
C384 C383 1.414 . S
C384 C385 1.374 . S
C385 H365 0.950 . S
C385 C381 1.385 . S
C385 C384 1.374 . S
C386 C383 1.499 . S
C386 C387 1.373 . S
C386 C388 1.389 . S
C387 H366 0.950 . S
C387 C386 1.373 . S
C387 C403 1.377 . S
C388 C386 1.389 . S
C388 C389 1.524 . S
C388 C402 1.377 . S
C389 C388 1.524 . S
C389 C390 1.397 . S
C389 C394 1.363 . S
C390 H367 0.950 . S
C390 C389 1.397 . S
C390 C391 1.334 . S
C391 H368 0.950 . S
C391 C390 1.334 . S
C391 C392 1.287 . S
C392 C391 1.287 . S
C392 C393 1.524 . S
C392 H411 0.913 . S
C393 H369 0.950 . S
C393 C392 1.524 . S
C393 C394 1.415 . S
C394 H370 0.950 . S
C394 C389 1.363 . S
C394 C393 1.415 . S
C395 H371 0.951 . S
C395 C396 1.366 . S
C395 C397 1.388 1_655 S
C396 C395 1.366 . S
C396 C400 1.385 1_655 S
C397 H372 0.954 . S
C397 C395 1.388 1_455 S
C397 C398 1.366 . S
C398 C397 1.366 . S
C398 C399 1.414 . S
C398 C401 1.499 . S
C399 H373 0.950 . S
C399 C398 1.414 . S
C399 C400 1.374 . S
C400 H374 0.950 . S
C400 C396 1.385 1_455 S
C400 C399 1.374 . S
C401 C398 1.499 . S
C401 C402 1.373 . S
C401 C403 1.389 . S
C402 H375 0.950 . S
C402 C388 1.377 . S
C402 C401 1.373 . S
C403 C387 1.377 . S
C403 C401 1.389 . S
C403 C404 1.524 . S
C404 C403 1.524 . S
C404 C405 1.397 . S
C404 C409 1.363 . S
C405 H376 0.950 . S
C405 C404 1.397 . S
C405 C406 1.335 1_455 S
C406 H377 0.950 . S
C406 C405 1.335 1_655 S
C406 C407 1.286 . S
C407 C406 1.286 . S
C407 C408 1.524 . S
C407 H410 0.999 . S
C408 H378 0.950 . S
C408 C407 1.524 . S
C408 C409 1.415 1_655 S
C409 H379 0.950 . S
C409 C404 1.363 . S
C409 C408 1.415 1_455 S
H410 C407 0.999 . S
H411 C392 0.913 . S
H412 C430 0.946 1_545 S
H413 C432 0.951 . S
H414 C434 0.950 . S
H415 C435 0.950 . S
H416 C437 0.950 . S
H417 C440 0.950 . S
H418 C441 0.950 . S
H419 C443 0.950 . S
H420 C444 0.950 . S
H421 C445 0.951 . S
H422 C447 0.951 . S
H423 C449 0.950 . S
H424 C450 0.950 . S
H425 C452 0.950 . S
H426 C455 0.950 . S
H427 C456 0.950 . S
H428 C458 0.950 . S
H429 C459 0.950 . S
C430 H412 0.946 1_565 S
C430 C431 1.342 1_565 S
C430 C432 1.418 . S
C431 C430 1.342 1_545 S
C431 C435 1.385 . S
C432 H413 0.951 . S
C432 C430 1.418 . S
C432 C433 1.366 . S
C433 C432 1.366 . S
C433 C434 1.414 . S
C433 C436 1.499 . S
C434 H414 0.950 . S
C434 C433 1.414 . S
C434 C435 1.374 1_565 S
C435 H415 0.950 . S
C435 C431 1.385 . S
C435 C434 1.374 1_545 S
C436 C433 1.499 . S
C436 C437 1.373 . S
C436 C438 1.389 . S
C437 H416 0.950 . S
C437 C436 1.373 . S
C437 C453 1.377 . S
C438 C436 1.389 . S
C438 C439 1.524 . S
C438 C452 1.377 . S
C439 C438 1.524 . S
C439 C440 1.397 . S
C439 C444 1.363 . S
C440 H417 0.950 . S
C440 C439 1.397 . S
C440 C441 1.334 . S
C441 H418 0.950 . S
C441 C440 1.334 . S
C441 C442 1.287 . S
C442 C441 1.287 . S
C442 C443 1.524 . S
C442 H461 0.913 . S
C443 H419 0.950 . S
C443 C442 1.524 . S
C443 C444 1.415 . S
C444 H420 0.950 . S
C444 C439 1.363 . S
C444 C443 1.415 . S
C445 H421 0.951 . S
C445 C446 1.366 . S
C445 C447 1.388 . S
C446 C445 1.366 . S
C446 C450 1.385 . S
C447 H422 0.951 . S
C447 C445 1.388 . S
C447 C448 1.366 . S
C448 C447 1.366 . S
C448 C449 1.414 . S
C448 C451 1.499 . S
C449 H423 0.950 . S
C449 C448 1.414 . S
C449 C450 1.374 . S
C450 H424 0.950 . S
C450 C446 1.385 . S
C450 C449 1.374 . S
C451 C448 1.499 . S
C451 C452 1.373 . S
C451 C453 1.389 . S
C452 H425 0.950 . S
C452 C438 1.377 . S
C452 C451 1.373 . S
C453 C437 1.377 . S
C453 C451 1.389 . S
C453 C454 1.524 . S
C454 C453 1.524 . S
C454 C455 1.397 . S
C454 C459 1.363 . S
C455 H426 0.950 . S
C455 C454 1.397 . S
C455 C456 1.334 . S
C456 H427 0.950 . S
C456 C455 1.334 . S
C456 C457 1.287 . S
C457 C456 1.287 . S
C457 C458 1.524 . S
C457 H460 0.999 . S
C458 H428 0.950 . S
C458 C457 1.524 . S
C458 C459 1.415 . S
C459 H429 0.950 . S
C459 C454 1.363 . S
C459 C458 1.415 . S
H460 C457 0.999 . S
H461 C442 0.913 . S
H462 C480 0.951 . S
H463 C482 0.951 . S
H464 C484 0.950 . S
H465 C485 0.950 . S
H466 C487 0.950 . S
H467 C490 0.950 . S
H468 C491 0.950 . S
H469 C493 0.950 . S
H470 C494 0.950 . S
H471 C495 0.951 . S
H472 C497 0.951 . S
H473 C499 0.950 . S
H474 C500 0.950 . S
H475 C502 0.950 . S
H476 C505 0.950 . S
H477 C506 0.950 . S
H478 C508 0.950 . S
H479 C509 0.950 . S
C480 H462 0.951 . S
C480 C481 1.366 . S
C480 C482 1.388 . S
C481 C480 1.366 . S
C481 C485 1.385 . S
C482 H463 0.951 . S
C482 C480 1.388 . S
C482 C483 1.366 . S
C483 C482 1.366 . S
C483 C484 1.414 . S
C483 C486 1.499 . S
C484 H464 0.950 . S
C484 C483 1.414 . S
C484 C485 1.374 . S
C485 H465 0.950 . S
C485 C481 1.385 . S
C485 C484 1.374 . S
C486 C483 1.499 . S
C486 C487 1.373 . S
C486 C488 1.389 . S
C487 H466 0.950 . S
C487 C486 1.373 . S
C487 C503 1.377 . S
C488 C486 1.389 . S
C488 C489 1.524 . S
C488 C502 1.377 . S
C489 C488 1.524 . S
C489 C490 1.397 . S
C489 C494 1.363 . S
C490 H467 0.950 . S
C490 C489 1.397 . S
C490 C491 1.334 . S
C491 H468 0.950 . S
C491 C490 1.334 . S
C491 C492 1.287 . S
C492 C491 1.287 . S
C492 C493 1.524 . S
C492 H511 0.913 . S
C493 H469 0.950 . S
C493 C492 1.524 . S
C493 C494 1.415 . S
C494 H470 0.950 . S
C494 C489 1.363 . S
C494 C493 1.415 . S
C495 H471 0.951 . S
C495 C496 1.366 1_655 S
C495 C497 1.388 . S
C496 C495 1.366 1_455 S
C496 C500 1.385 . S
C497 H472 0.951 . S
C497 C495 1.388 . S
C497 C498 1.366 . S
C498 C497 1.366 . S
C498 C499 1.414 . S
C498 C501 1.499 . S
C499 H473 0.950 . S
C499 C498 1.414 . S
C499 C500 1.374 1_655 S
C500 H474 0.950 . S
C500 C496 1.385 . S
C500 C499 1.374 1_455 S
C501 C498 1.499 . S
C501 C502 1.373 . S
C501 C503 1.389 . S
C502 H475 0.950 . S
C502 C488 1.377 . S
C502 C501 1.373 . S
C503 C487 1.377 . S
C503 C501 1.389 . S
C503 C504 1.524 . S
C504 C503 1.524 . S
C504 C505 1.397 . S
C504 C509 1.363 . S
C505 H476 0.950 . S
C505 C504 1.397 . S
C505 C506 1.334 . S
C506 H477 0.950 . S
C506 C505 1.334 . S
C506 C507 1.287 . S
C507 C506 1.287 . S
C507 C508 1.524 . S
C507 H510 0.999 . S
C508 H478 0.950 . S
C508 C507 1.524 . S
C508 C509 1.415 . S
C509 H479 0.950 . S
C509 C504 1.363 . S
C509 C508 1.415 . S
H510 C507 0.999 . S
H511 C492 0.913 . S
H512 C530 0.951 . S
H513 C532 0.951 . S
H514 C534 0.995 1_565 S
H515 C535 0.950 . S
H516 C537 0.950 . S
H517 C540 0.950 . S
H518 C541 0.950 . S
H519 C543 0.950 . S
H520 C544 0.950 . S
H521 C545 0.951 . S
H522 C547 0.951 . S
H523 C549 0.950 . S
H524 C550 0.950 . S
H525 C552 0.950 . S
H526 C555 0.950 . S
H527 C556 0.950 . S
H528 C558 0.950 . S
H529 C559 0.950 . S
C530 H512 0.951 . S
C530 C531 1.366 1_545 S
C530 C532 1.388 . S
C531 C530 1.366 1_565 S
C531 C535 1.385 . S
C532 H513 0.951 . S
C532 C530 1.388 . S
C532 C533 1.366 . S
C533 C532 1.366 . S
C533 C534 1.414 . S
C533 C536 1.499 . S
C534 H514 0.995 1_545 S
C534 C533 1.414 . S
C534 C535 1.374 1_545 S
C535 H515 0.950 . S
C535 C531 1.385 . S
C535 C534 1.374 1_565 S
C536 C533 1.499 . S
C536 C537 1.373 1_556 S
C536 C538 1.389 . S
C537 H516 0.950 . S
C537 C536 1.373 1_554 S
C537 C553 1.377 . S
C538 C536 1.389 . S
C538 C539 1.524 . S
C538 C552 1.377 . S
C539 C538 1.524 . S
C539 C540 1.397 . S
C539 C544 1.363 . S
C540 H517 0.950 . S
C540 C539 1.397 . S
C540 C541 1.334 . S
C541 H518 0.950 . S
C541 C540 1.334 . S
C541 C542 1.287 . S
C542 C541 1.287 . S
C542 C543 1.524 . S
C542 H561 0.913 . S
C543 H519 0.950 . S
C543 C542 1.524 . S
C543 C544 1.415 . S
C544 H520 0.950 . S
C544 C539 1.363 . S
C544 C543 1.415 . S
C545 H521 0.951 . S
C545 C546 1.366 . S
C545 C547 1.388 . S
C546 C545 1.366 . S
C546 C550 1.385 . S
C547 H522 0.951 . S
C547 C545 1.388 . S
C547 C548 1.366 . S
C548 C547 1.366 . S
C548 C549 1.414 . S
C548 C551 1.499 . S
C549 H523 0.950 . S
C549 C548 1.414 . S
C549 C550 1.374 . S
C550 H524 0.950 . S
C550 C546 1.385 . S
C550 C549 1.374 . S
C551 C548 1.499 . S
C551 C552 1.373 1_554 S
C551 C553 1.389 . S
C552 H525 0.950 . S
C552 C538 1.377 . S
C552 C551 1.373 1_556 S
C553 C537 1.377 . S
C553 C551 1.389 . S
C553 C554 1.524 . S
C554 C553 1.524 . S
C554 C555 1.397 . S
C554 C559 1.363 . S
C555 H526 0.950 . S
C555 C554 1.397 . S
C555 C556 1.334 . S
C556 H527 0.950 . S
C556 C555 1.334 . S
C556 C557 1.287 . S
C557 C556 1.287 . S
C557 C558 1.524 . S
C557 H560 0.999 . S
C558 H528 0.950 . S
C558 C557 1.524 . S
C558 C559 1.415 . S
C559 H529 0.950 . S
C559 C554 1.363 . S
C559 C558 1.415 . S
H560 C557 0.999 . S
H561 C542 0.913 . S
H562 C580 0.951 . S
H563 C582 0.951 . S
H564 C584 0.950 1_554 S
H565 C585 0.950 . S
H566 C587 0.950 . S
H567 C590 0.950 . S
H568 C591 0.950 . S
H569 C593 0.950 . S
H570 C594 0.950 . S
H571 C595 0.951 . S
H572 C597 0.951 . S
H573 C599 0.950 1_556 S
H574 C600 0.950 . S
H575 C602 0.950 . S
H576 C605 0.950 . S
H577 C606 0.950 1_655 S
H578 C608 0.950 . S
H579 C609 0.950 . S
C580 H562 0.951 . S
C580 C581 1.366 . S
C580 C582 1.388 . S
C581 C580 1.366 . S
C581 C585 1.385 . S
C582 H563 0.951 . S
C582 C580 1.388 . S
C582 C583 1.366 . S
C583 C582 1.366 . S
C583 C584 1.414 . S
C583 C586 1.499 . S
C584 H564 0.950 1_556 S
C584 C583 1.414 . S
C584 C585 1.374 . S
C585 H565 0.950 . S
C585 C581 1.385 . S
C585 C584 1.374 . S
C586 C583 1.499 . S
C586 C587 1.373 1_556 S
C586 C588 1.389 . S
C587 H566 0.950 . S
C587 C586 1.373 1_554 S
C587 C603 1.377 . S
C588 C586 1.389 . S
C588 C589 1.524 . S
C588 C602 1.377 . S
C589 C588 1.524 . S
C589 C590 1.397 . S
C589 C594 1.363 . S
C590 H567 0.950 . S
C590 C589 1.397 . S
C590 C591 1.334 . S
C591 H568 0.950 . S
C591 C590 1.334 . S
C591 C592 1.287 . S
C592 C591 1.287 . S
C592 C593 1.524 . S
C592 H611 0.913 . S
C593 H569 0.950 . S
C593 C592 1.524 . S
C593 C594 1.415 . S
C594 H570 0.950 . S
C594 C589 1.363 . S
C594 C593 1.415 . S
C595 H571 0.951 . S
C595 C596 1.366 1_455 S
C595 C597 1.388 . S
C596 C595 1.366 1_655 S
C596 C600 1.385 . S
C597 H572 0.951 . S
C597 C595 1.388 . S
C597 C598 1.366 . S
C598 C597 1.366 . S
C598 C599 1.414 . S
C598 C601 1.499 . S
C599 H573 0.950 1_554 S
C599 C598 1.414 . S
C599 C600 1.374 1_455 S
C600 H574 0.950 . S
C600 C596 1.385 . S
C600 C599 1.374 1_655 S
C601 C598 1.499 . S
C601 C602 1.373 1_554 S
C601 C603 1.389 . S
C602 H575 0.950 . S
C602 C588 1.377 . S
C602 C601 1.373 1_556 S
C603 C587 1.377 . S
C603 C601 1.389 . S
C603 C604 1.524 . S
C604 C603 1.524 . S
C604 C605 1.397 . S
C604 C609 1.363 . S
C605 H576 0.950 . S
C605 C604 1.397 . S
C605 C606 1.334 . S
C606 H577 0.950 1_455 S
C606 C605 1.334 . S
C606 C607 1.287 . S
C607 C606 1.287 . S
C607 C608 1.524 . S
C607 H610 0.999 . S
C608 H578 0.950 . S
C608 C607 1.524 . S
C608 C609 1.415 . S
C609 H579 0.950 . S
C609 C604 1.363 . S
C609 C608 1.415 . S
H610 C607 0.999 . S
H611 C592 0.913 . S
H612 C630 0.951 . S
H613 C632 0.951 . S
H614 C634 0.950 . S
H615 C635 0.950 . S
H616 C637 0.950 . S
H617 C640 0.950 . S
H618 C641 0.950 . S
H619 C643 0.950 . S
H620 C644 0.950 . S
H621 C645 0.951 . S
H622 C647 0.951 . S
H623 C649 0.950 . S
H624 C650 0.950 . S
H625 C652 0.950 . S
H626 C655 0.950 . S
H627 C656 0.950 . S
H628 C658 0.950 . S
H629 C659 0.950 . S
C630 H612 0.951 . S
C630 C631 1.366 . S
C630 C632 1.388 . S
C631 C630 1.366 . S
C631 C635 1.385 . S
C632 H613 0.951 . S
C632 C630 1.388 . S
C632 C633 1.366 . S
C633 C632 1.366 . S
C633 C634 1.414 . S
C633 C636 1.499 . S
C634 H614 0.950 . S
C634 C633 1.414 . S
C634 C635 1.374 . S
C635 H615 0.950 . S
C635 C631 1.385 . S
C635 C634 1.374 . S
C636 C633 1.499 . S
C636 C637 1.373 . S
C636 C638 1.389 1_554 S
C637 H616 0.950 . S
C637 C636 1.373 . S
C637 C653 1.377 . S
C638 C636 1.389 1_556 S
C638 C639 1.524 . S
C638 C652 1.377 . S
C639 C638 1.524 . S
C639 C640 1.397 . S
C639 C644 1.363 . S
C640 H617 0.950 . S
C640 C639 1.397 . S
C640 C641 1.334 . S
C641 H618 0.950 . S
C641 C640 1.334 . S
C641 C642 1.287 . S
C642 C641 1.287 . S
C642 C643 1.524 . S
C642 H661 0.913 . S
C643 H619 0.950 . S
C643 C642 1.524 . S
C643 C644 1.415 . S
C644 H620 0.950 . S
C644 C639 1.363 . S
C644 C643 1.415 . S
C645 H621 0.951 . S
C645 C646 1.366 . S
C645 C647 1.388 1_545 S
C646 C645 1.366 . S
C646 C650 1.385 . S
C647 H622 0.951 . S
C647 C645 1.388 1_565 S
C647 C648 1.366 . S
C648 C647 1.366 . S
C648 C649 1.414 . S
C648 C651 1.499 . S
C649 H623 0.950 . S
C649 C648 1.414 . S
C649 C650 1.374 1_565 S
C650 H624 0.950 . S
C650 C646 1.385 . S
C650 C649 1.374 1_545 S
C651 C648 1.499 . S
C651 C652 1.373 . S
C651 C653 1.389 1_556 S
C652 H625 0.950 . S
C652 C638 1.377 . S
C652 C651 1.373 . S
C653 C637 1.377 . S
C653 C651 1.389 1_554 S
C653 C654 1.524 . S
C654 C653 1.524 . S
C654 C655 1.397 . S
C654 C659 1.363 . S
C655 H626 0.950 . S
C655 C654 1.397 . S
C655 C656 1.334 1_565 S
C656 H627 0.950 . S
C656 C655 1.334 1_545 S
C656 C657 1.287 . S
C657 C656 1.287 . S
C657 C658 1.524 1_545 S
C657 H660 0.999 . S
C658 H628 0.950 . S
C658 C657 1.524 1_565 S
C658 C659 1.415 . S
C659 H629 0.950 . S
C659 C654 1.363 . S
C659 C658 1.415 . S
H660 C657 0.999 . S
H661 C642 0.913 . S
H662 C680 0.951 . S
H663 C682 0.931 1_554 S
H664 C684 0.950 . S
H665 C685 0.950 . S
H666 C687 0.950 . S
H667 C690 0.950 . S
H668 C691 0.950 . S
H669 C693 0.950 . S
H670 C694 0.950 . S
H671 C695 0.951 . S
H672 C697 0.951 1_556 S
H673 C699 0.950 . S
H674 C700 0.950 1_455 S
H675 C702 0.950 . S
H676 C705 0.950 . S
H677 C706 0.950 . S
H678 C708 0.950 . S
H679 C709 0.950 . S
C680 H662 0.951 . S
C680 C681 1.366 . S
C680 C682 1.388 . S
C681 C680 1.366 . S
C681 C685 1.385 . S
C682 H663 0.931 1_556 S
C682 C680 1.388 . S
C682 C683 1.366 . S
C683 C682 1.366 . S
C683 C684 1.414 . S
C683 C686 1.499 . S
C684 H664 0.950 . S
C684 C683 1.414 . S
C684 C685 1.374 . S
C685 H665 0.950 . S
C685 C681 1.385 . S
C685 C684 1.374 . S
C686 C683 1.499 . S
C686 C687 1.373 . S
C686 C688 1.390 . S
C687 H666 0.950 . S
C687 C686 1.373 . S
C687 C703 1.377 . S
C688 C686 1.390 . S
C688 C689 1.524 1_556 S
C688 C702 1.375 1_556 S
C689 C688 1.524 1_554 S
C689 C690 1.399 1_554 S
C689 C694 1.361 . S
C690 H667 0.950 . S
C690 C689 1.399 1_556 S
C690 C691 1.334 . S
C691 H668 0.950 . S
C691 C690 1.334 . S
C691 C692 1.287 . S
C692 C691 1.287 . S
C692 C693 1.524 1_556 S
C692 H711 0.913 . S
C693 H669 0.950 . S
C693 C692 1.524 1_554 S
C693 C694 1.415 . S
C694 H670 0.950 . S
C694 C689 1.361 . S
C694 C693 1.415 . S
C695 H671 0.951 . S
C695 C696 1.366 . S
C695 C697 1.388 1_455 S
C696 C695 1.366 . S
C696 C700 1.385 1_455 S
C697 H672 0.951 1_554 S
C697 C695 1.388 1_655 S
C697 C698 1.366 . S
C698 C697 1.366 . S
C698 C699 1.414 . S
C698 C701 1.499 . S
C699 H673 0.950 . S
C699 C698 1.414 . S
C699 C700 1.374 . S
C700 H674 0.950 1_655 S
C700 C696 1.385 1_655 S
C700 C699 1.374 . S
C701 C698 1.499 . S
C701 C702 1.373 . S
C701 C703 1.389 1_554 S
C702 H675 0.950 . S
C702 C688 1.375 1_554 S
C702 C701 1.373 . S
C703 C687 1.377 . S
C703 C701 1.389 1_556 S
C703 C704 1.524 . S
C704 C703 1.524 . S
C704 C705 1.397 1_556 S
C704 C709 1.363 . S
C705 H676 0.950 . S
C705 C704 1.397 1_554 S
C705 C706 1.334 . S
C706 H677 0.950 . S
C706 C705 1.334 . S
C706 C707 1.287 . S
C707 C706 1.287 . S
C707 C708 1.524 1_554 S
C707 H710 0.999 . S
C708 H678 0.950 . S
C708 C707 1.524 1_556 S
C708 C709 1.415 . S
C709 H679 0.950 . S
C709 C704 1.363 . S
C709 C708 1.415 . S
H710 C707 0.999 . S
H711 C692 0.913 . S
H712 C730 0.951 . S
H713 C732 0.951 . S
H714 C734 0.950 . S
H715 C735 0.950 . S
H716 C737 0.950 . S
H717 C740 0.950 . S
H718 C741 0.950 . S
H719 C743 0.950 . S
H720 C744 0.950 . S
H721 C745 0.951 . S
H722 C747 0.951 . S
H723 C749 0.950 . S
H724 C750 0.950 . S
H725 C752 0.950 . S
H726 C755 0.950 . S
H727 C756 0.950 . S
H728 C758 0.950 . S
H729 C759 0.950 . S
C730 H712 0.951 . S
C730 C731 1.366 . S
C730 C732 1.388 . S
C731 C730 1.366 . S
C731 C735 1.385 . S
C732 H713 0.951 . S
C732 C730 1.388 . S
C732 C733 1.366 . S
C733 C732 1.366 . S
C733 C734 1.414 . S
C733 C736 1.499 . S
C734 H714 0.950 . S
C734 C733 1.414 . S
C734 C735 1.374 . S
C735 H715 0.950 . S
C735 C731 1.385 . S
C735 C734 1.374 . S
C736 C733 1.499 . S
C736 C737 1.373 . S
C736 C738 1.389 . S
C737 H716 0.950 . S
C737 C736 1.373 . S
C737 C753 1.377 . S
C738 C736 1.389 . S
C738 C739 1.524 . S
C738 C752 1.377 . S
C739 C738 1.524 . S
C739 C740 1.397 . S
C739 C744 1.363 . S
C740 H717 0.950 . S
C740 C739 1.397 . S
C740 C741 1.334 . S
C741 H718 0.950 . S
C741 C740 1.334 . S
C741 C742 1.287 . S
C742 C741 1.287 . S
C742 C743 1.524 . S
C742 H761 0.913 . S
C743 H719 0.950 . S
C743 C742 1.524 . S
C743 C744 1.415 . S
C744 H720 0.950 . S
C744 C739 1.363 . S
C744 C743 1.415 . S
C745 H721 0.951 . S
C745 C746 1.366 . S
C745 C747 1.388 . S
C746 C745 1.366 . S
C746 C750 1.385 . S
C747 H722 0.951 . S
C747 C745 1.388 . S
C747 C748 1.366 . S
C748 C747 1.366 . S
C748 C749 1.414 . S
C748 C751 1.499 . S
C749 H723 0.950 . S
C749 C748 1.414 . S
C749 C750 1.374 . S
C750 H724 0.950 . S
C750 C746 1.385 . S
C750 C749 1.374 . S
C751 C748 1.499 . S
C751 C752 1.373 . S
C751 C753 1.389 . S
C752 H725 0.950 . S
C752 C738 1.377 . S
C752 C751 1.373 . S
C753 C737 1.377 . S
C753 C751 1.389 . S
C753 C754 1.524 . S
C754 C753 1.524 . S
C754 C755 1.397 . S
C754 C759 1.363 . S
C755 H726 0.950 . S
C755 C754 1.397 . S
C755 C756 1.334 . S
C756 H727 0.950 . S
C756 C755 1.334 . S
C756 C757 1.287 . S
C757 C756 1.287 . S
C757 C758 1.524 . S
C757 H760 0.999 . S
C758 H728 0.950 . S
C758 C757 1.524 . S
C758 C759 1.415 . S
C759 H729 0.950 . S
C759 C754 1.363 . S
C759 C758 1.415 . S
H760 C757 0.999 . S
H761 C742 0.913 . S
H762 C780 0.951 . S
H763 C782 0.951 . S
H764 C784 0.950 . S
H765 C785 0.950 . S
H766 C787 0.950 . S
H767 C790 0.950 . S
H768 C791 0.950 . S
H769 C793 0.950 . S
H770 C794 0.950 . S
H771 C795 0.951 . S
H772 C797 0.951 . S
H773 C799 0.950 . S
H774 C800 0.950 . S
H775 C802 0.950 . S
H776 C805 0.950 . S
H777 C806 0.950 . S
H778 C808 0.950 . S
H779 C809 0.950 . S
C780 H762 0.951 . S
C780 C781 1.366 . S
C780 C782 1.388 . S
C781 C780 1.366 . S
C781 C785 1.385 . S
C782 H763 0.951 . S
C782 C780 1.388 . S
C782 C783 1.366 . S
C783 C782 1.366 . S
C783 C784 1.414 . S
C783 C786 1.499 . S
C784 H764 0.950 . S
C784 C783 1.414 . S
C784 C785 1.374 . S
C785 H765 0.950 . S
C785 C781 1.385 . S
C785 C784 1.374 . S
C786 C783 1.499 . S
C786 C787 1.373 . S
C786 C788 1.389 . S
C787 H766 0.950 . S
C787 C786 1.373 . S
C787 C803 1.377 . S
C788 C786 1.389 . S
C788 C789 1.524 . S
C788 C802 1.377 . S
C789 C788 1.524 . S
C789 C790 1.397 . S
C789 C794 1.363 . S
C790 H767 0.950 . S
C790 C789 1.397 . S
C790 C791 1.334 . S
C791 H768 0.950 . S
C791 C790 1.334 . S
C791 C792 1.287 . S
C792 C791 1.287 . S
C792 C793 1.524 . S
C792 H811 0.913 . S
C793 H769 0.950 . S
C793 C792 1.524 . S
C793 C794 1.415 . S
C794 H770 0.950 . S
C794 C789 1.363 . S
C794 C793 1.415 . S
C795 H771 0.951 . S
C795 C796 1.366 . S
C795 C797 1.388 . S
C796 C795 1.366 . S
C796 C800 1.385 . S
C797 H772 0.951 . S
C797 C795 1.388 . S
C797 C798 1.366 . S
C798 C797 1.366 . S
C798 C799 1.414 . S
C798 C801 1.499 . S
C799 H773 0.950 . S
C799 C798 1.414 . S
C799 C800 1.374 . S
C800 H774 0.950 . S
C800 C796 1.385 . S
C800 C799 1.374 . S
C801 C798 1.499 . S
C801 C802 1.373 . S
C801 C803 1.389 . S
C802 H775 0.950 . S
C802 C788 1.377 . S
C802 C801 1.373 . S
C803 C787 1.377 . S
C803 C801 1.389 . S
C803 C804 1.524 . S
C804 C803 1.524 . S
C804 C805 1.397 . S
C804 C809 1.363 . S
C805 H776 0.950 . S
C805 C804 1.397 . S
C805 C806 1.334 . S
C806 H777 0.950 . S
C806 C805 1.334 . S
C806 C807 1.287 . S
C807 C806 1.287 . S
C807 C808 1.524 . S
C807 H810 0.999 . S
C808 H778 0.950 . S
C808 C807 1.524 . S
C808 C809 1.415 . S
C809 H779 0.950 . S
C809 C804 1.363 . S
C809 C808 1.415 . S
H810 C807 0.999 . S
H811 C792 0.913 . S
H812 C830 0.951 . S
H813 C832 0.951 . S
H814 C834 0.950 . S
H815 C835 0.950 . S
H816 C837 0.950 . S
H817 C840 0.950 . S
H818 C841 0.950 . S
H819 C843 0.950 . S
H820 C844 0.950 . S
H821 C845 0.951 . S
H822 C847 0.951 . S
H823 C849 0.950 . S
H824 C850 0.950 . S
H825 C852 0.950 . S
H826 C855 0.950 . S
H827 C856 0.950 . S
H828 C858 0.950 . S
H829 C859 0.950 . S
C830 H812 0.951 . S
C830 C831 1.366 . S
C830 C832 1.388 . S
C831 C830 1.366 . S
C831 C835 1.385 . S
C832 H813 0.951 . S
C832 C830 1.388 . S
C832 C833 1.366 . S
C833 C832 1.366 . S
C833 C834 1.414 . S
C833 C836 1.499 . S
C834 H814 0.950 . S
C834 C833 1.414 . S
C834 C835 1.374 . S
C835 H815 0.950 . S
C835 C831 1.385 . S
C835 C834 1.374 . S
C836 C833 1.499 . S
C836 C837 1.373 . S
C836 C838 1.389 . S
C837 H816 0.950 . S
C837 C836 1.373 . S
C837 C853 1.377 . S
C838 C836 1.389 . S
C838 C839 1.524 . S
C838 C852 1.377 . S
C839 C838 1.524 . S
C839 C840 1.397 . S
C839 C844 1.363 . S
C840 H817 0.950 . S
C840 C839 1.397 . S
C840 C841 1.334 . S
C841 H818 0.950 . S
C841 C840 1.334 . S
C841 C842 1.287 . S
C842 C841 1.287 . S
C842 C843 1.524 . S
C842 H861 0.913 . S
C843 H819 0.950 . S
C843 C842 1.524 . S
C843 C844 1.415 . S
C844 H820 0.950 . S
C844 C839 1.363 . S
C844 C843 1.415 . S
C845 H821 0.951 . S
C845 C846 1.366 . S
C845 C847 1.388 . S
C846 C845 1.366 . S
C846 C850 1.385 . S
C847 H822 0.951 . S
C847 C845 1.388 . S
C847 C848 1.366 . S
C848 C847 1.366 . S
C848 C849 1.414 . S
C848 C851 1.499 . S
C849 H823 0.950 . S
C849 C848 1.414 . S
C849 C850 1.374 . S
C850 H824 0.950 . S
C850 C846 1.385 . S
C850 C849 1.374 . S
C851 C848 1.499 . S
C851 C852 1.373 . S
C851 C853 1.389 . S
C852 H825 0.950 . S
C852 C838 1.377 . S
C852 C851 1.373 . S
C853 C837 1.377 . S
C853 C851 1.389 . S
C853 C854 1.524 . S
C854 C853 1.524 . S
C854 C855 1.397 . S
C854 C859 1.363 . S
C855 H826 0.950 . S
C855 C854 1.397 . S
C855 C856 1.334 . S
C856 H827 0.950 . S
C856 C855 1.334 . S
C856 C857 1.287 . S
C857 C856 1.287 . S
C857 C858 1.524 . S
C857 H860 0.999 . S
C858 H828 0.950 . S
C858 C857 1.524 . S
C858 C859 1.415 . S
C859 H829 0.950 . S
C859 C854 1.363 . S
C859 C858 1.415 . S
H860 C857 0.999 . S
H861 C842 0.913 . S
H862 C880 0.951 . S
H863 C882 0.951 . S
H864 C884 0.950 . S
H865 C885 0.950 . S
H866 C887 0.950 . S
H867 C890 0.950 . S
H868 C891 0.950 . S
H869 C893 0.950 . S
H870 C894 0.950 . S
H871 C895 0.951 . S
H872 C897 0.951 . S
H873 C899 0.950 . S
H874 C900 0.950 . S
H875 C902 0.950 . S
H876 C905 0.950 . S
H877 C906 0.950 . S
H878 C908 0.950 . S
H879 C909 0.950 . S
C880 H862 0.951 . S
C880 C881 1.366 . S
C880 C882 1.388 . S
C881 C880 1.366 . S
C881 C885 1.385 . S
C882 H863 0.951 . S
C882 C880 1.388 . S
C882 C883 1.366 . S
C883 C882 1.366 . S
C883 C884 1.414 . S
C883 C886 1.499 . S
C884 H864 0.950 . S
C884 C883 1.414 . S
C884 C885 1.374 . S
C885 H865 0.950 . S
C885 C881 1.385 . S
C885 C884 1.374 . S
C886 C883 1.499 . S
C886 C887 1.373 . S
C886 C888 1.389 . S
C887 H866 0.950 . S
C887 C886 1.373 . S
C887 C903 1.377 . S
C888 C886 1.389 . S
C888 C889 1.524 . S
C888 C902 1.377 . S
C889 C888 1.524 . S
C889 C890 1.397 . S
C889 C894 1.363 . S
C890 H867 0.950 . S
C890 C889 1.397 . S
C890 C891 1.334 . S
C891 H868 0.950 . S
C891 C890 1.334 . S
C891 C892 1.287 . S
C892 C891 1.287 . S
C892 C893 1.524 . S
C892 H911 0.913 . S
C893 H869 0.950 . S
C893 C892 1.524 . S
C893 C894 1.415 . S
C894 H870 0.950 . S
C894 C889 1.363 . S
C894 C893 1.415 . S
C895 H871 0.951 . S
C895 C896 1.366 . S
C895 C897 1.388 . S
C896 C895 1.366 . S
C896 C900 1.385 . S
C897 H872 0.951 . S
C897 C895 1.388 . S
C897 C898 1.366 . S
C898 C897 1.366 . S
C898 C899 1.414 . S
C898 C901 1.499 . S
C899 H873 0.950 . S
C899 C898 1.414 . S
C899 C900 1.374 . S
C900 H874 0.950 . S
C900 C896 1.385 . S
C900 C899 1.374 . S
C901 C898 1.499 . S
C901 C902 1.373 . S
C901 C903 1.389 . S
C902 H875 0.950 . S
C902 C888 1.377 . S
C902 C901 1.373 . S
C903 C887 1.377 . S
C903 C901 1.389 . S
C903 C904 1.524 . S
C904 C903 1.524 . S
C904 C905 1.397 . S
C904 C909 1.363 . S
C905 H876 0.950 . S
C905 C904 1.397 . S
C905 C906 1.334 . S
C906 H877 0.950 . S
C906 C905 1.334 . S
C906 C907 1.287 . S
C907 C906 1.287 . S
C907 C908 1.524 . S
C907 H910 0.999 . S
C908 H878 0.950 . S
C908 C907 1.524 . S
C908 C909 1.415 . S
C909 H879 0.950 . S
C909 C904 1.363 . S
C909 C908 1.415 . S
H910 C907 0.999 . S
H911 C892 0.913 . S
C131 C34 1.378 . S
C146 C6 1.378 . S
C181 C48 1.378 . S
C196 C20 1.378 . S
C231 C62 1.378 . S
C246 C90 1.378 . S
C281 C76 1.378 . S
C296 C104 1.378 . S
C331 C22 1.378 . S
C346 C9 1.337 . S
C381 C23 1.337 . S
C396 C36 1.378 . S
C431 C50 1.378 . S
C446 C37 1.338 . S
C481 C51 1.338 . S
C496 C8 1.378 . S
C531 C106 1.378 . S
C546 C65 1.337 . S
C581 C79 1.337 . S
C596 C64 1.378 . S
C631 C93 1.337 . S
C646 C78 1.378 . S
C681 C107 1.338 . S
C696 C92 1.378 . S
C731 C7 1.629 . S
C746 C77 1.630 . S
C781 C91 1.630 . S
C796 C21 1.629 . S
C831 C35 1.630 . S
C846 C105 1.629 . S
C881 C49 1.629 . S
C896 C63 1.630 . S
