# Generated by pormake.
# Topology vbm, (6)-cn, num edge types: 1
# Building blocks:
#     Node 0, Type 0, BuildingBlock: BETDEL_clean_sbu_0, # of connection points: 6
#     Node 1, Type 0, BuildingBlock: BETDEL_clean_sbu_0, # of connection points: 6
#     Node 2, Type 0, BuildingBlock: BETDEL_clean_sbu_0, # of connection points: 6
#     Node 3, Type 0, BuildingBlock: BETDEL_clean_sbu_0, # of connection points: 6
#     Node 4, Type 0, BuildingBlock: BETDEL_clean_sbu_0, # of connection points: 6
#     Node 5, Type 0, BuildingBlock: BETDEL_clean_sbu_0, # of connection points: 6
#     Node 6, Type 0, BuildingBlock: BETDEL_clean_sbu_0, # of connection points: 6
#     Node 7, Type 0, BuildingBlock: BETDEL_clean_sbu_0, # of connection points: 6
#     Node 8, Type 0, BuildingBlock: BETDEL_clean_sbu_0, # of connection points: 6
#     Node 9, Type 0, BuildingBlock: BETDEL_clean_sbu_0, # of connection points: 6
#     Node 10, Type 0, BuildingBlock: BETDEL_clean_sbu_0, # of connection points: 6
#     Node 11, Type 0, BuildingBlock: BETDEL_clean_sbu_0, # of connection points: 6
#     Node 12, Type 0, BuildingBlock: BETDEL_clean_sbu_0, # of connection points: 6
#     Node 13, Type 0, BuildingBlock: BETDEL_clean_sbu_0, # of connection points: 6
#     Node 14, Type 0, BuildingBlock: BETDEL_clean_sbu_0, # of connection points: 6
#     Node 15, Type 0, BuildingBlock: BETDEL_clean_sbu_0, # of connection points: 6
#     Edge 16, Type (0, 0), BuildingBlock: KIFKEQ_clean_linker_1, # of connection points: 2
#     Edge 17, Type (0, 0), BuildingBlock: KIFKEQ_clean_linker_1, # of connection points: 2
#     Edge 18, Type (0, 0), BuildingBlock: KIFKEQ_clean_linker_1, # of connection points: 2
#     Edge 19, Type (0, 0), BuildingBlock: KIFKEQ_clean_linker_1, # of connection points: 2
#     Edge 20, Type (0, 0), BuildingBlock: KIFKEQ_clean_linker_1, # of connection points: 2
#     Edge 21, Type (0, 0), BuildingBlock: KIFKEQ_clean_linker_1, # of connection points: 2
#     Edge 22, Type (0, 0), BuildingBlock: KIFKEQ_clean_linker_1, # of connection points: 2
#     Edge 23, Type (0, 0), BuildingBlock: KIFKEQ_clean_linker_1, # of connection points: 2
#     Edge 24, Type (0, 0), BuildingBlock: KIFKEQ_clean_linker_1, # of connection points: 2
#     Edge 25, Type (0, 0), BuildingBlock: KIFKEQ_clean_linker_1, # of connection points: 2
#     Edge 26, Type (0, 0), BuildingBlock: KIFKEQ_clean_linker_1, # of connection points: 2
#     Edge 27, Type (0, 0), BuildingBlock: KIFKEQ_clean_linker_1, # of connection points: 2
#     Edge 28, Type (0, 0), BuildingBlock: KIFKEQ_clean_linker_1, # of connection points: 2
#     Edge 29, Type (0, 0), BuildingBlock: KIFKEQ_clean_linker_1, # of connection points: 2
#     Edge 30, Type (0, 0), BuildingBlock: KIFKEQ_clean_linker_1, # of connection points: 2
#     Edge 31, Type (0, 0), BuildingBlock: KIFKEQ_clean_linker_1, # of connection points: 2
#     Edge 32, Type (0, 0), BuildingBlock: KIFKEQ_clean_linker_1, # of connection points: 2
#     Edge 33, Type (0, 0), BuildingBlock: KIFKEQ_clean_linker_1, # of connection points: 2
#     Edge 34, Type (0, 0), BuildingBlock: KIFKEQ_clean_linker_1, # of connection points: 2
#     Edge 35, Type (0, 0), BuildingBlock: KIFKEQ_clean_linker_1, # of connection points: 2
#     Edge 36, Type (0, 0), BuildingBlock: KIFKEQ_clean_linker_1, # of connection points: 2
#     Edge 37, Type (0, 0), BuildingBlock: KIFKEQ_clean_linker_1, # of connection points: 2
#     Edge 38, Type (0, 0), BuildingBlock: KIFKEQ_clean_linker_1, # of connection points: 2
#     Edge 39, Type (0, 0), BuildingBlock: KIFKEQ_clean_linker_1, # of connection points: 2
#     Edge 40, Type (0, 0), BuildingBlock: KIFKEQ_clean_linker_1, # of connection points: 2
#     Edge 41, Type (0, 0), BuildingBlock: KIFKEQ_clean_linker_1, # of connection points: 2
#     Edge 42, Type (0, 0), BuildingBlock: KIFKEQ_clean_linker_1, # of connection points: 2
#     Edge 43, Type (0, 0), BuildingBlock: KIFKEQ_clean_linker_1, # of connection points: 2
#     Edge 44, Type (0, 0), BuildingBlock: KIFKEQ_clean_linker_1, # of connection points: 2
#     Edge 45, Type (0, 0), BuildingBlock: KIFKEQ_clean_linker_1, # of connection points: 2
#     Edge 46, Type (0, 0), BuildingBlock: KIFKEQ_clean_linker_1, # of connection points: 2
#     Edge 47, Type (0, 0), BuildingBlock: KIFKEQ_clean_linker_1, # of connection points: 2
#     Edge 48, Type (0, 0), BuildingBlock: KIFKEQ_clean_linker_1, # of connection points: 2
#     Edge 49, Type (0, 0), BuildingBlock: KIFKEQ_clean_linker_1, # of connection points: 2
#     Edge 50, Type (0, 0), BuildingBlock: KIFKEQ_clean_linker_1, # of connection points: 2
#     Edge 51, Type (0, 0), BuildingBlock: KIFKEQ_clean_linker_1, # of connection points: 2
#     Edge 52, Type (0, 0), BuildingBlock: KIFKEQ_clean_linker_1, # of connection points: 2
#     Edge 53, Type (0, 0), BuildingBlock: KIFKEQ_clean_linker_1, # of connection points: 2
#     Edge 54, Type (0, 0), BuildingBlock: KIFKEQ_clean_linker_1, # of connection points: 2
#     Edge 55, Type (0, 0), BuildingBlock: KIFKEQ_clean_linker_1, # of connection points: 2
#     Edge 56, Type (0, 0), BuildingBlock: KIFKEQ_clean_linker_1, # of connection points: 2
#     Edge 57, Type (0, 0), BuildingBlock: KIFKEQ_clean_linker_1, # of connection points: 2
#     Edge 58, Type (0, 0), BuildingBlock: KIFKEQ_clean_linker_1, # of connection points: 2
#     Edge 59, Type (0, 0), BuildingBlock: KIFKEQ_clean_linker_1, # of connection points: 2
#     Edge 60, Type (0, 0), BuildingBlock: KIFKEQ_clean_linker_1, # of connection points: 2
#     Edge 61, Type (0, 0), BuildingBlock: KIFKEQ_clean_linker_1, # of connection points: 2
#     Edge 62, Type (0, 0), BuildingBlock: KIFKEQ_clean_linker_1, # of connection points: 2
#     Edge 63, Type (0, 0), BuildingBlock: KIFKEQ_clean_linker_1, # of connection points: 2
# Relax obj value: 0.064
# Max RMSD: 0.120
# Mean RMSD: 0.120
data_MOF--net-vbm--node1-BETDEL_clean_sbu_0--edge1-KIFKEQ_clean_linker_1
_symmetry_space_group_name_H-M    P1
_symmetry_Int_Tables_number       1
_symmetry_cell_setting            triclinic
loop_
_symmetry_equiv_pos_as_xyz
'x, y, z'
_cell_length_a     59.626558
_cell_length_b     18.330257
_cell_length_c     57.332102
_cell_angle_alpha  89.878428
_cell_angle_beta   89.90677
_cell_angle_gamma 89.975387
loop_
_atom_site_label
_atom_site_type_symbol
_atom_site_fract_x
_atom_site_fract_y
_atom_site_fract_z
_atom_type_partial_charge
Dy0 Dy 0.12528 0.06324 0.14416 0.0
C1 C 0.10671 0.36763 0.14617 0.0
C2 C 0.128 0.91476 0.14959 0.0
Dy3 Dy 0.11001 0.21827 0.14696 0.0
O4 O 0.13755 0.95199 0.13306 0.0
O5 O 0.11763 0.95898 0.1636 0.0
O6 O 0.14317 0.08477 0.11086 0.0
O7 O 0.11321 0.14155 0.11764 0.0
C8 C 0.12945 0.13471 0.10349 0.0
C9 C 0.10631 0.14176 0.18691 0.0
O10 O 0.07741 0.17422 0.13475 0.0
O11 O 0.08761 0.05421 0.14189 0.0
O12 O 0.10686 0.32709 0.1647 0.0
O13 O 0.1077 0.32637 0.12778 0.0
O14 O 0.09163 0.18947 0.18002 0.0
O15 O 0.12252 0.13961 0.17279 0.0
O16 O 0.15707 0.11254 0.15769 0.0
O17 O 0.14735 0.22764 0.14479 0.0
C18 C 0.07232 0.10423 0.13669 0.0
C19 C 0.16245 0.18104 0.15274 0.0
Dy20 Dy 0.8578 0.99281 0.1467 0.0
C21 C 0.87567 0.68815 0.14932 0.0
C22 C 0.85545 0.14119 0.15172 0.0
Dy23 Dy 0.87234 0.83719 0.15056 0.0
O24 O 0.84659 0.10436 0.13477 0.0
O25 O 0.86503 0.09673 0.16627 0.0
O26 O 0.83996 0.97037 0.11351 0.0
O27 O 0.86958 0.91244 0.1208 0.0
C28 C 0.85343 0.91913 0.1066 0.0
C29 C 0.87635 0.91505 0.19002 0.0
O30 O 0.9051 0.87976 0.13794 0.0
O31 O 0.89543 1.00061 0.14419 0.0
O32 O 0.87708 0.72811 0.16786 0.0
O33 O 0.87303 0.7298 0.13116 0.0
O34 O 0.89073 0.86597 0.18344 0.0
O35 O 0.86018 0.91771 0.17587 0.0
O36 O 0.82524 0.94736 0.15941 0.0
O37 O 0.83486 0.82818 0.15044 0.0
C38 C 0.9105 0.94962 0.13932 0.0
C39 C 0.81986 0.87787 0.15649 0.0
Dy40 Dy 0.12227 0.98046 0.3906 0.0
C41 C 0.10476 0.67657 0.39065 0.0
C42 C 0.12559 0.12953 0.38907 0.0
Dy43 Dy 0.10714 0.82514 0.38605 0.0
O44 O 0.12613 0.08985 0.40779 0.0
O45 O 0.12389 0.08757 0.37092 0.0
O46 O 0.13961 0.95096 0.42385 0.0
O47 O 0.10914 0.89989 0.41565 0.0
C48 C 0.12492 0.90269 0.43034 0.0
C49 C 0.1046 0.90255 0.34629 0.0
O50 O 0.07526 0.87101 0.39985 0.0
O51 O 0.08462 0.98866 0.38901 0.0
O52 O 0.09505 0.71428 0.37432 0.0
O53 O 0.11509 0.72027 0.40478 0.0
O54 O 0.09061 0.85107 0.35185 0.0
O55 O 0.12012 0.90586 0.36119 0.0
O56 O 0.15541 0.93567 0.37955 0.0
O57 O 0.1446 0.81538 0.38504 0.0
C58 C 0.06964 0.93978 0.39594 0.0
C59 C 0.16021 0.86522 0.38098 0.0
Dy60 Dy 0.85584 0.05817 0.39408 0.0
C61 C 0.87422 0.3627 0.39216 0.0
C62 C 0.85324 0.90978 0.38878 0.0
Dy63 Dy 0.871 0.21345 0.3913 0.0
O64 O 0.84363 0.94687 0.40526 0.0
O65 O 0.86361 0.95408 0.37476 0.0
O66 O 0.83765 0.07956 0.42721 0.0
O67 O 0.8676 0.13653 0.42059 0.0
C68 C 0.85126 0.12965 0.43461 0.0
C69 C 0.87527 0.13734 0.35147 0.0
O70 O 0.90357 0.16936 0.40365 0.0
O71 O 0.89341 0.0493 0.3967 0.0
O72 O 0.87403 0.32253 0.37361 0.0
O73 O 0.87329 0.32114 0.41054 0.0
O74 O 0.88975 0.18537 0.35848 0.0
O75 O 0.8589 0.13477 0.36541 0.0
O76 O 0.82418 0.10691 0.38016 0.0
O77 O 0.83363 0.22227 0.3929 0.0
C78 C 0.90866 0.09934 0.40187 0.0
C79 C 0.81869 0.17539 0.38488 0.0
Dy80 Dy 0.87504 0.82421 0.8887 0.0
C81 C 0.85746 0.12802 0.88996 0.0
C82 C 0.87821 0.6751 0.88975 0.0
Dy83 Dy 0.85996 0.97941 0.89428 0.0
O84 O 0.87771 0.71506 0.87108 0.0
O85 O 0.87763 0.7168 0.90805 0.0
O86 O 0.89282 0.85536 0.85562 0.0
O87 O 0.86255 0.90731 0.86444 0.0
C88 C 0.8785 0.90578 0.84995 0.0
C89 C 0.85613 0.89959 0.93337 0.0
O90 O 0.82755 0.93424 0.88131 0.0
O91 O 0.83757 0.81466 0.88931 0.0
O92 O 0.8495 0.09052 0.90734 0.0
O93 O 0.86615 0.08412 0.87469 0.0
O94 O 0.84214 0.95042 0.92722 0.0
O95 O 0.8723 0.89683 0.91904 0.0
O96 O 0.90824 0.86665 0.8996 0.0
O97 O 0.89758 0.98829 0.89705 0.0
C98 C 0.8224 0.86429 0.8836 0.0
C99 C 0.91307 0.93706 0.89988 0.0
Dy100 Dy 0.11081 0.22484 0.88533 0.0
C101 C 0.12949 0.92037 0.88863 0.0
C102 C 0.10869 0.3733 0.89029 0.0
Dy103 Dy 0.12593 0.06934 0.89047 0.0
O104 O 0.09848 0.33623 0.87419 0.0
O105 O 0.11941 0.32903 0.90397 0.0
O106 O 0.09587 0.20141 0.85015 0.0
O107 O 0.12436 0.1438 0.861 0.0
C108 C 0.10957 0.14842 0.84536 0.0
C109 C 0.12856 0.14814 0.92979 0.0
O110 O 0.15895 0.11466 0.87889 0.0
O111 O 0.1483 0.23484 0.88477 0.0
O112 O 0.13236 0.95992 0.90711 0.0
O113 O 0.12532 0.96241 0.87091 0.0
O114 O 0.14325 0.09969 0.9235 0.0
O115 O 0.1126 0.15027 0.91526 0.0
O116 O 0.07825 0.17981 0.89768 0.0
O117 O 0.0883 0.06005 0.89013 0.0
C118 C 0.16386 0.18502 0.88054 0.0
C119 C 0.07304 0.11006 0.89535 0.0
Dy120 Dy 0.87312 0.22609 0.65157 0.0
C121 C 0.85369 0.92195 0.64932 0.0
C122 C 0.87564 0.37476 0.6467 0.0
Dy123 Dy 0.85723 0.07117 0.64799 0.0
O124 O 0.88533 0.33711 0.66305 0.0
O125 O 0.86531 0.33087 0.63262 0.0
O126 O 0.89046 0.20081 0.68536 0.0
O127 O 0.86055 0.14647 0.67705 0.0
C128 C 0.87646 0.14999 0.69148 0.0
C129 C 0.85336 0.14877 0.60838 0.0
O130 O 0.82455 0.11778 0.65999 0.0
O131 O 0.83574 0.23734 0.65371 0.0
O132 O 0.85346 0.96192 0.63066 0.0
O133 O 0.85515 0.96375 0.66755 0.0
O134 O 0.83865 0.10164 0.61564 0.0
O135 O 0.86985 0.15051 0.62222 0.0
O136 O 0.90461 0.17859 0.63741 0.0
O137 O 0.89489 0.06187 0.64894 0.0
C138 C 0.82002 0.18847 0.65845 0.0
C139 C 0.90999 0.10975 0.64157 0.0
Dy140 Dy 0.10898 0.82837 0.64668 0.0
C141 C 0.12614 0.14446 0.65319 0.0
C142 C 0.10324 0.68424 0.63849 0.0
Dy143 Dy 0.12385 1.00035 0.64309 0.0
O144 O 0.11798 0.72516 0.62801 0.0
O145 O 0.09109 0.7229 0.65271 0.0
O146 O 0.10677 0.82654 0.68646 0.0
O147 O 0.11649 0.91899 0.66899 0.0
C148 C 0.11296 0.89402 0.68904 0.0
C149 C 0.11888 0.93845 0.60067 0.0
O150 O 0.15647 0.94622 0.65268 0.0
O151 O 0.14629 0.82346 0.64691 0.0
O152 O 0.11 0.10099 0.65927 0.0
O153 O 0.14175 0.10852 0.64216 0.0
O154 O 0.12442 1.0064 0.60357 0.0
O155 O 0.11659 0.90998 0.62048 0.0
O156 O 0.07681 0.88099 0.63592 0.0
O157 O 0.08632 1.00194 0.64454 0.0
C158 C 0.16129 0.87526 0.65118 0.0
C159 C 0.0715 0.95074 0.639 0.0
Dy160 Dy 0.62445 0.57166 0.14357 0.0
C161 C 0.60937 0.87627 0.14885 0.0
C162 C 0.62568 0.42321 0.14893 0.0
Dy163 Dy 0.61017 0.72689 0.14823 0.0
O164 O 0.63929 0.46065 0.13584 0.0
O165 O 0.61198 0.46703 0.15948 0.0
O166 O 0.64157 0.59376 0.10966 0.0
O167 O 0.61263 0.65333 0.11805 0.0
C168 C 0.62848 0.64696 0.10352 0.0
C169 C 0.60593 0.64769 0.18755 0.0
O170 O 0.57667 0.68572 0.13746 0.0
O171 O 0.58689 0.56415 0.14091 0.0
O172 O 0.59921 0.83614 0.13344 0.0
O173 O 0.61932 0.83482 0.16392 0.0
O174 O 0.59214 0.69922 0.18155 0.0
O175 O 0.62198 0.6446 0.17324 0.0
O176 O 0.65626 0.61859 0.15752 0.0
O177 O 0.64735 0.73261 0.14326 0.0
C178 C 0.57154 0.61549 0.13768 0.0
C179 C 0.66207 0.68611 0.15196 0.0
Dy180 Dy 0.35771 0.49101 0.14874 0.0
C181 C 0.37602 0.18727 0.14685 0.0
C182 C 0.35413 0.64015 0.15072 0.0
Dy183 Dy 0.3735 0.33586 0.15179 0.0
O184 O 0.35269 0.60086 0.13204 0.0
O185 O 0.35684 0.59768 0.1687 0.0
O186 O 0.33943 0.46474 0.11606 0.0
O187 O 0.37023 0.41247 0.12259 0.0
C188 C 0.3538 0.41687 0.10864 0.0
C189 C 0.37617 0.41013 0.19214 0.0
O190 O 0.40501 0.38384 0.13767 0.0
O191 O 0.39536 0.50016 0.1495 0.0
O192 O 0.38634 0.22484 0.16274 0.0
O193 O 0.36507 0.23121 0.13324 0.0
O194 O 0.39035 0.35994 0.18599 0.0
O195 O 0.36052 0.41389 0.17743 0.0
O196 O 0.32498 0.4436 0.16047 0.0
O197 O 0.33613 0.32452 0.15341 0.0
C198 C 0.41042 0.4525 0.14198 0.0
C199 C 0.3204 0.37306 0.15841 0.0
Dy200 Dy 0.62361 0.4811 0.38955 0.0
C201 C 0.6043 0.17665 0.38591 0.0
C202 C 0.62674 0.62968 0.38476 0.0
Dy203 Dy 0.60763 0.32596 0.38555 0.0
O204 O 0.63432 0.59225 0.40231 0.0
O205 O 0.61818 0.58561 0.36949 0.0
O206 O 0.64118 0.45446 0.4228 0.0
O207 O 0.61084 0.40134 0.4151 0.0
C208 C 0.62695 0.4049 0.4294 0.0
C209 C 0.60444 0.40537 0.34626 0.0
O210 O 0.57509 0.37127 0.39761 0.0
O211 O 0.58599 0.49136 0.39152 0.0
O212 O 0.60606 0.21732 0.36749 0.0
O213 O 0.60362 0.21779 0.40435 0.0
O214 O 0.5897 0.35697 0.35254 0.0
O215 O 0.62052 0.40619 0.36052 0.0
O216 O 0.65548 0.43169 0.37651 0.0
O217 O 0.64495 0.3159 0.3882 0.0
C218 C 0.57042 0.44174 0.39622 0.0
C219 C 0.6604 0.36257 0.38099 0.0
Dy220 Dy 0.35679 0.5684 0.39562 0.0
C221 C 0.37508 0.87287 0.39178 0.0
C222 C 0.35394 0.4199 0.39092 0.0
Dy223 Dy 0.37193 0.72366 0.39125 0.0
O224 O 0.34551 0.45724 0.40804 0.0
O225 O 0.36326 0.46396 0.37606 0.0
O226 O 0.34039 0.5934 0.42979 0.0
O227 O 0.37013 0.64775 0.42081 0.0
C228 C 0.35471 0.6431 0.43593 0.0
C229 C 0.37482 0.64556 0.35176 0.0
O230 O 0.40504 0.67941 0.40207 0.0
O231 O 0.39442 0.55912 0.39622 0.0
O232 O 0.37326 0.83272 0.37332 0.0
O233 O 0.37584 0.83131 0.41017 0.0
O234 O 0.3894 0.69452 0.35786 0.0
O235 O 0.35892 0.6434 0.36632 0.0
O236 O 0.3247 0.61632 0.38279 0.0
O237 O 0.33457 0.73208 0.3948 0.0
C238 C 0.40995 0.60919 0.40035 0.0
C239 C 0.31936 0.68478 0.38757 0.0
Dy240 Dy 0.37599 0.31499 0.89229 0.0
C241 C 0.35708 0.62689 0.89855 0.0
C242 C 0.37976 0.17009 0.90177 0.0
Dy243 Dy 0.36025 0.4786 0.89744 0.0
O244 O 0.3927 0.20595 0.88748 0.0
O245 O 0.36538 0.21403 0.91141 0.0
O246 O 0.37921 0.31287 0.85267 0.0
O247 O 0.36937 0.40609 0.86988 0.0
C248 C 0.37334 0.38067 0.85 0.0
C249 C 0.35586 0.39357 0.93544 0.0
O250 O 0.32876 0.43037 0.88304 0.0
O251 O 0.33853 0.30991 0.89134 0.0
O252 O 0.36039 0.5851 0.91649 0.0
O253 O 0.3549 0.58751 0.87983 0.0
O254 O 0.3416 0.44376 0.92935 0.0
O255 O 0.37217 0.3927 0.92128 0.0
O256 O 0.40883 0.36477 0.90147 0.0
O257 O 0.39787 0.48638 0.89666 0.0
C258 C 0.32367 0.36007 0.88508 0.0
C259 C 0.4134 0.43549 0.90014 0.0
Dy260 Dy 0.61206 0.71678 0.88614 0.0
C261 C 0.62877 0.41282 0.88568 0.0
C262 C 0.60906 0.86585 0.88694 0.0
Dy263 Dy 0.62648 0.5612 0.89047 0.0
O264 O 0.60974 0.82584 0.86836 0.0
O265 O 0.60945 0.82427 0.90533 0.0
O266 O 0.59329 0.68784 0.85357 0.0
O267 O 0.62374 0.63503 0.86102 0.0
C268 C 0.60742 0.63794 0.84706 0.0
C269 C 0.63153 0.63661 0.93016 0.0
O270 O 0.65892 0.60612 0.87726 0.0
O271 O 0.64951 0.72516 0.88651 0.0
O272 O 0.63739 0.44974 0.90275 0.0
O273 O 0.61947 0.45717 0.87091 0.0
O274 O 0.64496 0.58531 0.92314 0.0
O275 O 0.61515 0.64259 0.9162 0.0
O276 O 0.57894 0.67536 0.89791 0.0
O277 O 0.58895 0.55351 0.89426 0.0
C278 C 0.6644 0.67552 0.88016 0.0
C279 C 0.57379 0.6052 0.89794 0.0
Dy280 Dy 0.37094 0.72044 0.65479 0.0
C281 C 0.35401 0.4129 0.66091 0.0
C282 C 0.37024 0.86851 0.65707 0.0
Dy283 Dy 0.35725 0.55662 0.64989 0.0
O284 O 0.38307 0.83143 0.64298 0.0
O285 O 0.35836 0.82477 0.66983 0.0
O286 O 0.38681 0.69343 0.68928 0.0
O287 O 0.3586 0.63484 0.67837 0.0
C288 C 0.37346 0.63941 0.69393 0.0
C289 C 0.36193 0.61445 0.60699 0.0
O290 O 0.32356 0.6074 0.65633 0.0
O291 O 0.33462 0.72468 0.64594 0.0
O292 O 0.33941 0.44857 0.64843 0.0
O293 O 0.3698 0.45638 0.6679 0.0
O294 O 0.35661 0.54674 0.61072 0.0
O295 O 0.36447 0.646 0.62632 0.0
O296 O 0.40346 0.67665 0.64195 0.0
O297 O 0.39491 0.55604 0.65111 0.0
C298 C 0.31892 0.67657 0.65135 0.0
C299 C 0.40938 0.6075 0.6448 0.0
Dy300 Dy 0.6087 0.33812 0.64592 0.0
C301 C 0.62743 0.64259 0.64434 0.0
C302 C 0.60599 0.18961 0.641 0.0
Dy303 Dy 0.62404 0.49341 0.64314 0.0
O304 O 0.59667 0.22703 0.65759 0.0
O305 O 0.61608 0.23364 0.62668 0.0
O306 O 0.59154 0.36081 0.68007 0.0
O307 O 0.62129 0.41606 0.67176 0.0
C308 C 0.60555 0.41118 0.68638 0.0
C309 C 0.62841 0.41948 0.60301 0.0
O310 O 0.65674 0.44683 0.65514 0.0
O311 O 0.64613 0.32763 0.64748 0.0
O312 O 0.62718 0.6028 0.62571 0.0
O313 O 0.62649 0.60066 0.66264 0.0
O314 O 0.64279 0.46677 0.61071 0.0
O315 O 0.61182 0.4152 0.61681 0.0
O316 O 0.57688 0.38582 0.63265 0.0
O317 O 0.58644 0.50158 0.64499 0.0
C318 C 0.6616 0.37658 0.65284 0.0
C319 C 0.57136 0.45403 0.63752 0.0
H320 H 0.17877 0.31429 0.14054 0.0
H321 H 0.19838 0.11076 0.17287 0.0
H322 H 0.21644 0.36077 0.14517 0.0
H323 H 0.23632 0.15862 0.17815 0.0
H324 H 0.30595 0.23339 0.15285 0.0
H325 H 0.26798 0.18765 0.15427 0.0
H326 H 0.24394 0.40274 0.17236 0.0
H327 H 0.28228 0.44968 0.17019 0.0
C328 C 0.19108 0.27949 0.14887 0.0
C329 C 0.18556 0.2084 0.1562 0.0
C330 C 0.21271 0.30667 0.15174 0.0
C331 C 0.22944 0.26373 0.16213 0.0
C332 C 0.22387 0.19292 0.16984 0.0
C333 C 0.20214 0.16545 0.16686 0.0
C334 C 0.29267 0.27124 0.15731 0.0
C335 C 0.2972 0.34561 0.1612 0.0
C336 C 0.27082 0.24457 0.15833 0.0
C337 C 0.25285 0.29135 0.1634 0.0
C338 C 0.25739 0.36538 0.16806 0.0
C339 C 0.27936 0.3923 0.16692 0.0
H340 H 0.80584 0.74724 0.17317 0.0
H341 H 0.7815 0.95267 0.14646 0.0
H342 H 0.76768 0.70099 0.17518 0.0
H343 H 0.74332 0.90531 0.14689 0.0
H344 H 0.67462 0.82296 0.16354 0.0
H345 H 0.71236 0.87042 0.16808 0.0
H346 H 0.73929 0.65706 0.15185 0.0
H347 H 0.70124 0.60895 0.14892 0.0
C348 C 0.79222 0.78246 0.16771 0.0
C349 C 0.79653 0.85347 0.15966 0.0
C350 C 0.77033 0.75572 0.16862 0.0
C351 C 0.75225 0.79876 0.16093 0.0
C352 C 0.75664 0.87066 0.15335 0.0
C353 C 0.77854 0.89799 0.15299 0.0
C354 C 0.68867 0.78616 0.16115 0.0
C355 C 0.6851 0.71238 0.15578 0.0
C356 C 0.71035 0.8135 0.16356 0.0
C357 C 0.72908 0.76811 0.16008 0.0
C358 C 0.72539 0.6937 0.15506 0.0
C359 C 0.7036 0.66595 0.15322 0.0
H360 H 0.28445 0.61619 0.36556 0.0
H361 H 0.30175 0.81304 0.40281 0.0
H362 H 0.24626 0.66182 0.3605 0.0
H363 H 0.26368 0.85733 0.39841 0.0
H364 H 0.19806 0.94646 0.37222 0.0
H365 H 0.23678 0.90291 0.37092 0.0
H366 H 0.21378 0.68297 0.38398 0.0
H367 H 0.17539 0.72558 0.38453 0.0
C368 C 0.28008 0.66889 0.37277 0.0
C369 C 0.29609 0.71081 0.38463 0.0
C370 C 0.25822 0.69507 0.3699 0.0
C371 C 0.25192 0.76339 0.379 0.0
C372 C 0.26803 0.80523 0.39076 0.0
C373 C 0.28985 0.77939 0.39347 0.0
C374 C 0.2013 0.88877 0.37456 0.0
C375 C 0.18363 0.83972 0.37862 0.0
C376 C 0.22347 0.86382 0.37394 0.0
C377 C 0.22839 0.78943 0.37746 0.0
C378 C 0.21063 0.74036 0.38087 0.0
C379 C 0.18855 0.76512 0.38138 0.0
H380 H 0.80287 0.31209 0.39316 0.0
H381 H 0.78221 0.10001 0.36822 0.0
H382 H 0.7649 0.35672 0.38908 0.0
H383 H 0.74395 0.14586 0.36353 0.0
H384 H 0.67577 0.22665 0.39144 0.0
H385 H 0.71383 0.18141 0.38924 0.0
H386 H 0.73584 0.38927 0.36183 0.0
H387 H 0.69749 0.43578 0.36463 0.0
C388 C 0.79026 0.27497 0.38657 0.0
C389 C 0.79556 0.20208 0.38122 0.0
C390 C 0.76847 0.30103 0.384 0.0
C391 C 0.75139 0.25501 0.37594 0.0
C392 C 0.75673 0.18248 0.37004 0.0
C393 C 0.77863 0.15622 0.37267 0.0
C394 C 0.68863 0.26292 0.38481 0.0
C395 C 0.68359 0.33523 0.37839 0.0
C396 C 0.71048 0.23651 0.38334 0.0
C397 C 0.72788 0.28158 0.37534 0.0
C398 C 0.72281 0.35343 0.36834 0.0
C399 C 0.70086 0.38007 0.36989 0.0
H400 H 0.67819 0.80852 0.86533 0.0
H401 H 0.70297 0.59832 0.88751 0.0
H402 H 0.71634 0.85452 0.86293 0.0
H403 H 0.74124 0.64518 0.88647 0.0
H404 H 0.8094 0.73103 0.86837 0.0
H405 H 0.77146 0.68469 0.86412 0.0
H406 H 0.74526 0.89268 0.88716 0.0
H407 H 0.78337 0.93997 0.89007 0.0
C408 C 0.69189 0.77216 0.86971 0.0
C409 C 0.68769 0.69995 0.87668 0.0
C410 C 0.71377 0.79871 0.86854 0.0
C411 C 0.73199 0.75412 0.87481 0.0
C412 C 0.72774 0.68103 0.88119 0.0
C413 C 0.7058 0.65403 0.88189 0.0
C414 C 0.79548 0.76699 0.87232 0.0
C415 C 0.79927 0.83901 0.87964 0.0
C416 C 0.7737 0.74024 0.87005 0.0
C417 C 0.75516 0.78443 0.87552 0.0
C418 C 0.75903 0.85719 0.88242 0.0
C419 C 0.78088 0.8844 0.88422 0.0
H420 H 0.28801 0.43668 0.86686 0.0
H421 H 0.30652 0.22594 0.8949 0.0
H422 H 0.24949 0.3936 0.862 0.0
H423 H 0.26831 0.18427 0.89082 0.0
H424 H 0.20093 0.1063 0.86706 0.0
H425 H 0.2396 0.14952 0.8644 0.0
H426 H 0.2182 0.36426 0.88616 0.0
H427 H 0.17978 0.32214 0.88802 0.0
C428 C 0.28389 0.38137 0.87199 0.0
C429 C 0.30036 0.33501 0.88132 0.0
C430 C 0.26182 0.35668 0.86927 0.0
C431 C 0.25577 0.28534 0.87601 0.0
C432 C 0.27238 0.23894 0.885 0.0
C433 C 0.29435 0.2633 0.88753 0.0
C434 C 0.2045 0.16282 0.87108 0.0
C435 C 0.18727 0.2105 0.87787 0.0
C436 C 0.22666 0.18762 0.86964 0.0
C437 C 0.23205 0.26042 0.87516 0.0
C438 C 0.21469 0.30827 0.88142 0.0
C439 C 0.1926 0.28372 0.88268 0.0
H440 H 0.69737 0.44807 0.67262 0.0
H441 H 0.67819 0.24381 0.64083 0.0
H442 H 0.73544 0.40123 0.67792 0.0
H443 H 0.71603 0.19838 0.64535 0.0
H444 H 0.78206 0.11081 0.66996 0.0
H445 H 0.74364 0.15683 0.67212 0.0
H446 H 0.76727 0.37313 0.65467 0.0
H447 H 0.80535 0.32823 0.65336 0.0
C448 C 0.70128 0.39344 0.6667 0.0
C449 C 0.68476 0.34985 0.65629 0.0
C450 C 0.72308 0.36655 0.66969 0.0
C451 C 0.72882 0.29582 0.66211 0.0
C452 C 0.71217 0.25236 0.65187 0.0
C453 C 0.69044 0.27888 0.64908 0.0
C454 C 0.77903 0.16827 0.66685 0.0
C455 C 0.79679 0.21554 0.66135 0.0
C456 C 0.75701 0.19467 0.66797 0.0
C457 C 0.75231 0.26874 0.66344 0.0
C458 C 0.77021 0.31612 0.65861 0.0
C459 C 0.79213 0.28996 0.65765 0.0
H460 H 0.19984 0.94687 0.639 0.0
H461 H 0.17526 0.74654 0.66935 0.0
H462 H 0.23788 0.8976 0.63929 0.0
H463 H 0.2132 0.69847 0.67081 0.0
H464 H 0.27945 0.60088 0.646 0.0
H465 H 0.24143 0.65093 0.64684 0.0
H466 H 0.26842 0.86451 0.66223 0.0
H467 H 0.30605 0.81535 0.66019 0.0
C468 C 0.20269 0.89298 0.64621 0.0
C469 C 0.18465 0.85044 0.65404 0.0
C470 C 0.22448 0.86455 0.64643 0.0
C471 C 0.2287 0.79351 0.6549 0.0
C472 C 0.21062 0.75243 0.66358 0.0
C473 C 0.18887 0.78031 0.66297 0.0
C474 C 0.27714 0.65842 0.64955 0.0
C475 C 0.29569 0.70422 0.65276 0.0
C476 C 0.25537 0.68723 0.65018 0.0
C477 C 0.25176 0.76214 0.65449 0.0
C478 C 0.27044 0.80716 0.65826 0.0
C479 C 0.29209 0.77872 0.65722 0.0
H480 H 0.13786 0.98722 0.32728 0.0
H481 H 0.07176 0.90201 0.31343 0.0
H482 H 0.13836 0.04476 0.28863 0.0
H483 H 0.07221 0.95936 0.27493 0.0
H484 H 0.07211 0.13934 0.21847 0.0
H485 H 0.07176 0.08326 0.2572 0.0
H486 H 0.13949 1.00676 0.24649 0.0
H487 H 0.13979 0.06289 0.20768 0.0
C488 C 0.12343 0.981 0.316 0.0
C489 C 0.10479 0.93998 0.32334 0.0
C490 C 0.12376 1.01353 0.29383 0.0
C491 C 0.10535 1.00651 0.27865 0.0
C492 C 0.08659 0.96635 0.28622 0.0
C493 C 0.08637 0.93324 0.30825 0.0
C494 C 0.08689 0.11037 0.22438 0.0
C495 C 0.10598 0.1056 0.21007 0.0
C496 C 0.08667 0.07803 0.24653 0.0
C497 C 0.10562 0.0407 0.255 0.0
C498 C 0.12472 0.03585 0.24062 0.0
C499 C 0.12485 0.06756 0.21834 0.0
H500 H 0.84211 0.05827 0.33039 0.0
H501 H 0.9094 0.13868 0.31984 0.0
H502 H 0.84245 1.00582 0.29114 0.0
H503 H 0.90977 0.08644 0.28065 0.0
H504 H 0.90992 0.91304 0.22216 0.0
H505 H 0.90976 0.96561 0.2613 0.0
H506 H 0.8429 0.04854 0.24967 0.0
H507 H 0.84309 0.99574 0.21046 0.0
C508 C 0.85699 0.06455 0.3197 0.0
C509 C 0.87571 0.10273 0.32814 0.0
C510 C 0.85713 0.03495 0.29717 0.0
C511 C 0.8761 0.0422 0.2827 0.0
C512 C 0.89495 0.07941 0.29137 0.0
C513 C 0.89472 0.10956 0.31379 0.0
C514 C 0.89523 0.94277 0.22794 0.0
C515 C 0.8765 0.95011 0.21328 0.0
C516 C 0.89516 0.97311 0.25033 0.0
C517 C 0.87628 1.01104 0.25867 0.0
C518 C 0.8576 1.01886 0.24389 0.0
C519 C 0.85776 0.98907 0.22139 0.0
H520 H 0.91025 0.14986 0.72332 0.0
H521 H 0.84359 0.06621 0.71148 0.0
H522 H 0.91077 0.09211 0.76178 0.0
H523 H 0.84407 1.00837 0.75006 0.0
H524 H 0.84489 0.98803 0.83082 0.0
H525 H 0.84433 0.04617 0.79232 0.0
H526 H 0.91138 0.9672 0.77908 0.0
H527 H 0.91189 0.90907 0.8175 0.0
C528 C 0.89572 0.11895 0.72894 0.0
C529 C 0.87686 0.11269 0.71443 0.0
C530 C 0.89605 0.08563 0.75093 0.0
C531 C 0.87744 0.04582 0.75903 0.0
C532 C 0.85858 0.03936 0.74444 0.0
C533 C 0.85835 0.07207 0.72231 0.0
C534 C 0.85951 0.98334 0.81969 0.0
C535 C 0.87842 0.94389 0.82713 0.0
C536 C 0.85914 1.0162 0.79759 0.0
C537 C 0.87778 1.01109 0.78258 0.0
C538 C 0.89681 0.9726 0.79026 0.0
C539 C 0.89708 0.93911 0.81223 0.0
H540 H 0.08543 0.17926 0.80613 0.0
H541 H 0.13706 0.03601 0.83239 0.0
H542 H 0.08787 0.11999 0.76796 0.0
H543 H 0.1389 0.97504 0.79443 0.0
H544 H 0.1095 0.83481 0.73227 0.0
H545 H 0.1099 0.89718 0.76992 0.0
H546 H 0.11905 0.10345 0.73481 0.0
H547 H 0.11951 0.04031 0.6971 0.0
C548 C 0.09723 0.13491 0.80379 0.0
C549 C 0.11093 0.11187 0.82233 0.0
C550 C 0.0987 0.1013 0.7819 0.0
C551 C 0.11357 0.04294 0.77823 0.0
C552 C 0.1272 1.01966 0.79681 0.0
C553 C 0.12609 0.05436 0.81855 0.0
C554 C 0.11177 0.89343 0.73257 0.0
C555 C 0.11422 0.93291 0.71166 0.0
C556 C 0.11205 0.92904 0.75414 0.0
C557 C 0.11438 1.00517 0.75529 0.0
C558 C 0.11702 0.04474 0.73441 0.0
C559 C 0.11724 1.00876 0.71282 0.0
H560 H 0.57063 0.4103 0.31443 0.0
H561 H 0.63826 0.4851 0.32639 0.0
H562 H 0.57092 0.46793 0.27594 0.0
H563 H 0.63859 0.5428 0.28782 0.0
H564 H 0.57238 0.64954 0.2198 0.0
H565 H 0.57196 0.59223 0.25834 0.0
H566 H 0.6381 0.50456 0.24572 0.0
H567 H 0.63847 0.56194 0.2071 0.0
C568 C 0.58553 0.43932 0.30885 0.0
C569 C 0.60443 0.44305 0.32338 0.0
C570 C 0.58567 0.47254 0.28684 0.0
C571 C 0.60481 0.50972 0.27876 0.0
C572 C 0.62369 0.51382 0.29341 0.0
C573 C 0.62345 0.4812 0.31554 0.0
C574 C 0.58679 0.61781 0.22524 0.0
C575 C 0.60548 0.61038 0.21048 0.0
C576 C 0.58652 0.58478 0.24728 0.0
C577 C 0.60503 0.54405 0.25516 0.0
C578 C 0.62369 0.53631 0.24029 0.0
C579 C 0.62385 0.56875 0.21813 0.0
H580 H 0.40872 0.64233 0.32002 0.0
H581 H 0.34123 0.5653 0.33164 0.0
H582 H 0.40887 0.58577 0.2815 0.0
H583 H 0.34133 0.50852 0.29294 0.0
H584 H 0.40903 0.40741 0.22502 0.0
H585 H 0.40851 0.46224 0.26383 0.0
H586 H 0.34214 0.54711 0.25071 0.0
H587 H 0.34271 0.49212 0.21178 0.0
C588 C 0.39393 0.61304 0.31435 0.0
C589 C 0.37495 0.60837 0.32882 0.0
C590 C 0.39405 0.58038 0.29231 0.0
C591 C 0.3751 0.54274 0.28409 0.0
C592 C 0.35611 0.53779 0.29864 0.0
C593 C 0.35609 0.56987 0.32085 0.0
C594 C 0.39435 0.43792 0.23041 0.0
C595 C 0.37591 0.44542 0.21538 0.0
C596 C 0.39407 0.46955 0.25262 0.0
C597 C 0.37526 0.50895 0.26042 0.0
C598 C 0.35679 0.51643 0.24534 0.0
C599 C 0.35716 0.48538 0.223 0.0
H600 H 0.37165 0.52801 0.84197 0.0
H601 H 0.37215 0.32023 0.80686 0.0
H602 H 0.37084 0.59065 0.80413 0.0
H603 H 0.3713 0.38238 0.7691 0.0
H604 H 0.3469 0.52402 0.70676 0.0
H605 H 0.3458 0.46189 0.74467 0.0
H606 H 0.39753 0.60566 0.7702 0.0
H607 H 0.39881 0.66695 0.73234 0.0
C608 C 0.37132 0.49584 0.82618 0.0
C609 C 0.37185 0.41938 0.82735 0.0
C610 C 0.37105 0.53157 0.80452 0.0
C611 C 0.371 0.49145 0.78358 0.0
C612 C 0.37111 0.41487 0.78486 0.0
C613 C 0.37171 0.3793 0.80648 0.0
C614 C 0.35809 0.542 0.72046 0.0
C615 C 0.37297 0.60021 0.71657 0.0
C616 C 0.35748 0.50646 0.74215 0.0
C617 C 0.3715 0.52914 0.76051 0.0
C618 C 0.38632 0.58749 0.75655 0.0
C619 C 0.38716 0.62225 0.7348 0.0
H620 H 0.64041 0.55707 0.82626 0.0
H621 H 0.57318 0.6379 0.8157 0.0
H622 H 0.63993 0.50277 0.78726 0.0
H623 H 0.57265 0.5836 0.77679 0.0
H624 H 0.57242 0.40741 0.7191 0.0
H625 H 0.57278 0.46057 0.75818 0.0
H626 H 0.6392 0.54577 0.74549 0.0
H627 H 0.6388 0.49261 0.70634 0.0
C628 C 0.62551 0.56296 0.81563 0.0
C629 C 0.60685 0.60188 0.82398 0.0
C630 C 0.62528 0.5323 0.79326 0.0
C631 C 0.60628 0.53913 0.77888 0.0
C632 C 0.58749 0.57693 0.78747 0.0
C633 C 0.58781 0.60824 0.80972 0.0
C634 C 0.58707 0.43768 0.72465 0.0
C635 C 0.6056 0.44574 0.70971 0.0
C636 C 0.58724 0.46834 0.74699 0.0
C637 C 0.60605 0.50717 0.75499 0.0
C638 C 0.62457 0.51544 0.73996 0.0
C639 C 0.62429 0.48543 0.7175 0.0
H640 H 0.09136 0.15422 0.95799 0.0
H641 H 0.16262 0.19336 0.95703 0.0
H642 H 0.09115 0.16614 1.00053 0.0
H643 H 0.16239 0.2102 0.99913 0.0
H644 H 0.16189 0.11048 0.0716 0.0
H645 H 0.16062 0.12948 0.02996 0.0
H646 H 0.0952 0.22936 0.03662 0.0
H647 H 0.09623 0.20688 0.07888 0.0
C648 C 0.10683 0.168 0.96685 0.0
C649 C 0.12706 0.17219 0.95434 0.0
C650 C 0.10674 0.17499 0.99126 0.0
C651 C 0.12686 0.18744 1.00354 0.0
C652 C 0.14668 0.19805 0.99053 0.0
C653 C 0.14683 0.18931 0.96633 0.0
C654 C 0.14729 0.13722 0.06429 0.0
C655 C 0.12911 0.1567 0.07856 0.0
C656 C 0.14662 0.14892 0.04026 0.0
C657 C 0.12784 0.18147 0.02963 0.0
C658 C 0.10986 0.20347 0.04406 0.0
C659 C 0.1105 0.19121 0.0683 0.0
H660 H 0.89295 0.89174 0.96189 0.0
H661 H 0.82156 0.85559 0.96027 0.0
H662 H 0.89257 0.88054 1.00444 0.0
H663 H 0.82117 0.83944 1.00244 0.0
H664 H 0.82132 0.94281 0.07436 0.0
H665 H 0.82289 0.92133 0.03288 0.0
H666 H 0.88778 0.81866 0.04073 0.0
H667 H 0.88645 0.8436 0.0828 0.0
C668 C 0.87732 0.87865 0.97061 0.0
C669 C 0.85723 0.87515 0.95791 0.0
C670 C 0.87706 0.8721 0.99504 0.0
C671 C 0.85673 0.86079 1.00714 0.0
C672 C 0.83704 0.85069 0.99396 0.0
C673 C 0.83724 0.859 0.96973 0.0
C674 C 0.83586 0.91491 0.06735 0.0
C675 C 0.85382 0.89544 0.08187 0.0
C676 C 0.83669 0.90178 0.04342 0.0
C677 C 0.85544 0.8678 0.03316 0.0
C678 C 0.87316 0.84566 0.04787 0.0
C679 C 0.87235 0.85934 0.07201 0.0
H680 H 0.15803 0.89217 0.46263 0.0
H681 H 0.08663 0.86539 0.45404 0.0
H682 H 0.15384 0.8777 0.50482 0.0
H683 H 0.08237 0.85218 0.49639 0.0
H684 H 0.08934 0.98401 0.56845 0.0
H685 H 0.08892 0.95285 0.52707 0.0
H686 H 0.14094 0.79313 0.53884 0.0
H687 H 0.14081 0.8234 0.58068 0.0
C688 C 0.14151 0.88155 0.46975 0.0
C689 C 0.12265 0.88045 0.45509 0.0
C690 C 0.13912 0.87284 0.49389 0.0
C691 C 0.11776 0.86404 0.50394 0.0
C692 C 0.09902 0.85903 0.48913 0.0
C693 C 0.10147 0.8664 0.4649 0.0
C694 C 0.10003 0.9402 0.56231 0.0
C695 C 0.11489 0.90538 0.57766 0.0
C696 C 0.09981 0.92234 0.53863 0.0
C697 C 0.11493 0.87065 0.52967 0.0
C698 C 0.12909 0.83313 0.54528 0.0
C699 C 0.1289 0.84989 0.56919 0.0
H700 H 0.89009 0.15792 0.57966 0.0
H701 H 0.81838 0.18741 0.58119 0.0
H702 H 0.88975 0.16803 0.53709 0.0
H703 H 0.818 0.20243 0.539 0.0
H704 H 0.81928 0.10178 0.46678 0.0
H705 H 0.82055 0.12173 0.50835 0.0
H706 H 0.88468 0.22959 0.50094 0.0
H707 H 0.88371 0.20607 0.45879 0.0
C708 C 0.87436 0.16907 0.5709 0.0
C709 C 0.85421 0.17108 0.58361 0.0
C710 C 0.87413 0.17508 0.54647 0.0
C711 C 0.85376 0.18439 0.53434 0.0
C712 C 0.83393 0.1927 0.54749 0.0
C713 C 0.83412 0.18497 0.57174 0.0
C714 C 0.83359 0.13044 0.47391 0.0
C715 C 0.85146 0.15184 0.45948 0.0
C716 C 0.83424 0.14268 0.4979 0.0
C717 C 0.85268 0.17775 0.5083 0.0
C718 C 0.8703 0.20168 0.49369 0.0
C719 C 0.8697 0.18881 0.4695 0.0
H720 H 0.66343 0.68942 0.07693 0.0
H721 H 0.59187 0.65764 0.07486 0.0
H722 H 0.66405 0.70841 0.0349 0.0
H723 H 0.59245 0.6712 0.03238 0.0
H724 H 0.59863 0.71133 0.95439 0.0
H725 H 0.59738 0.73392 0.99658 0.0
H726 H 0.66227 0.63066 1.0037 0.0
H727 H 0.66382 0.61194 0.96212 0.0
C728 C 0.64777 0.68739 0.06739 0.0
C729 C 0.62766 0.67184 0.07903 0.0
C730 C 0.64809 0.69733 0.04322 0.0
C731 C 0.62839 0.68924 0.02991 0.0
C732 C 0.60797 0.67819 0.04187 0.0
C733 C 0.60759 0.6702 0.06625 0.0
C734 C 0.61276 0.69507 0.96505 0.0
C735 C 0.63127 0.65955 0.95495 0.0
C736 C 0.61199 0.70734 0.98927 0.0
C737 C 0.62971 0.68418 1.00383 0.0
C738 C 0.64846 0.65097 0.99332 0.0
C739 C 0.64928 0.63941 0.96931 0.0
H740 H 0.32138 0.34906 0.96253 0.0
H741 H 0.39275 0.38593 0.96378 0.0
H742 H 0.32117 0.33427 1.00475 0.0
H743 H 0.39253 0.37606 1.00633 0.0
H744 H 0.38692 0.34225 0.08477 0.0
H745 H 0.38806 0.31601 0.04279 0.0
H746 H 0.32287 0.41672 0.03502 0.0
H747 H 0.32148 0.43943 0.07646 0.0
C748 C 0.33711 0.3528 0.97191 0.0
C749 C 0.35703 0.36882 0.95996 0.0
C750 C 0.337 0.34533 0.99618 0.0
C751 C 0.35672 0.3561 1.00925 0.0
C752 C 0.377 0.36711 0.99702 0.0
C753 C 0.37716 0.37286 0.97259 0.0
C754 C 0.37272 0.35737 0.07402 0.0
C755 C 0.35415 0.39317 0.08391 0.0
C756 C 0.37342 0.3429 0.04993 0.0
C757 C 0.35555 0.36403 0.03526 0.0
C758 C 0.33679 0.39789 0.04553 0.0
C759 C 0.33606 0.41174 0.06944 0.0
H760 H 0.6615 0.36236 0.45651 0.0
H761 H 0.59003 0.39713 0.45784 0.0
H762 H 0.6616 0.34555 0.49864 0.0
H763 H 0.59011 0.38557 0.50036 0.0
H764 H 0.5954 0.34667 0.57855 0.0
H765 H 0.59446 0.32366 0.53638 0.0
H766 H 0.65968 0.42483 0.52953 0.0
H767 H 0.66091 0.44403 0.57112 0.0
C768 C 0.64575 0.36554 0.4659 0.0
C769 C 0.62581 0.38135 0.45402 0.0
C770 C 0.64578 0.35684 0.49012 0.0
C771 C 0.62596 0.3663 0.50322 0.0
C772 C 0.60571 0.37758 0.49104 0.0
C773 C 0.60562 0.3844 0.46663 0.0
C774 C 0.60965 0.36252 0.56795 0.0
C775 C 0.62818 0.39741 0.57814 0.0
C776 C 0.60906 0.34996 0.54375 0.0
C777 C 0.62699 0.37223 0.52929 0.0
C778 C 0.64572 0.40515 0.53986 0.0
C779 C 0.64636 0.41698 0.56386 0.0
H780 H 0.34039 0.72911 0.58615 0.0
H781 H 0.39045 0.56345 0.57453 0.0
H782 H 0.34 0.75637 0.54406 0.0
H783 H 0.39065 0.59173 0.53287 0.0
H784 H 0.39329 0.67881 0.45923 0.0
H785 H 0.39781 0.69224 0.50154 0.0
H786 H 0.3263 0.66945 0.51066 0.0
H787 H 0.32186 0.65445 0.46853 0.0
C788 C 0.35193 0.70075 0.57471 0.0
C789 C 0.36562 0.64478 0.58347 0.0
C790 C 0.3516 0.71582 0.55066 0.0
C791 C 0.36532 0.6762 0.53517 0.0
C792 C 0.3801 0.6238 0.54434 0.0
C793 C 0.38 0.60759 0.56817 0.0
C794 C 0.37851 0.67839 0.47024 0.0
C795 C 0.35723 0.66506 0.46064 0.0
C796 C 0.3811 0.68587 0.49444 0.0
C797 C 0.36241 0.68185 0.50942 0.0
C798 C 0.34099 0.67355 0.49958 0.0
C799 C 0.33846 0.66458 0.47548 0.0
H800 H 0.92861 0.08383 0.14717 0.0
H801 H 0.94575 0.86699 0.12357 0.0
H802 H 0.96759 0.12015 0.14388 0.0
H803 H 0.98484 0.90425 0.1195 0.0
H804 H 0.05464 0.97026 0.14625 0.0
H805 H 0.01565 0.93308 0.1443 0.0
H806 H -0.00234 0.14611 0.11776 0.0
H807 H 0.03674 0.18428 0.12048 0.0
C808 C 0.94065 0.04408 0.14095 0.0
C809 C 0.93407 0.97229 0.13577 0.0
C810 C 0.96304 0.06517 0.13889 0.0
C811 C 0.97941 1.01519 0.13143 0.0
C812 C 0.97273 0.94384 0.12565 0.0
C813 C 0.9503 0.92254 0.12788 0.0
C814 C 0.04243 1.00914 0.13982 0.0
C815 C 0.0488 0.0805 0.13369 0.0
C816 C 0.02003 0.98755 0.13854 0.0
C817 C 0.00346 0.0366 0.13093 0.0
C818 C 0.00994 0.10731 0.12409 0.0
C819 C 0.03236 0.12913 0.12554 0.0
H820 H 0.94492 0.18162 0.4149 0.0
H821 H 0.92562 0.96287 0.3952 0.0
H822 H 0.98404 0.14294 0.41671 0.0
H823 H 0.96457 0.92513 0.39632 0.0
H824 H 0.03516 0.86263 0.41566 0.0
H825 H -0.00361 0.90206 0.42078 0.0
H826 H 0.01252 0.10954 0.38895 0.0
H827 H 0.05125 0.07115 0.38447 0.0
C828 C 0.94899 0.12532 0.41106 0.0
C829 C 0.93217 0.07552 0.40477 0.0
C830 C 0.97141 0.10324 0.41197 0.0
C831 C 0.97744 0.03104 0.40652 0.0
C832 C 0.9605 0.98086 0.40093 0.0
C833 C 0.93814 1.00276 0.40013 0.0
C834 C 0.03043 0.91675 0.40985 0.0
C835 C 0.04624 0.96357 0.39954 0.0
C836 C 0.00821 0.93929 0.41274 0.0
C837 C 0.00135 1.00893 0.40524 0.0
C838 C 0.0173 0.05604 0.39527 0.0
C839 C 0.03949 0.03371 0.39252 0.0
H840 H 0.05867 0.97542 0.90852 0.0
H841 H 0.0348 0.1904 0.89019 0.0
H842 H 0.02024 0.93335 0.91289 0.0
H843 H -0.00377 0.1476 0.89324 0.0
H844 H 0.92843 0.0678 0.91578 0.0
H845 H 0.96713 0.10952 0.91764 0.0
H846 H 0.98936 0.90165 0.89042 0.0
H847 H 0.95076 0.85902 0.88983 0.0
C848 C 0.04514 1.01359 0.90529 0.0
C849 C 0.04969 0.08609 0.89891 0.0
C850 C 0.02308 0.98937 0.90765 0.0
C851 C 0.005 0.0367 0.90322 0.0
C852 C 0.00964 0.10973 0.89718 0.0
C853 C 0.03176 0.13431 0.89527 0.0
C854 C 0.94165 0.03085 0.91045 0.0
C855 C 0.9366 0.96019 0.90264 0.0
C856 C 0.96385 0.05494 0.91133 0.0
C857 C 0.98148 1.00935 0.904 0.0
C858 C 0.97635 0.93804 0.89661 0.0
C859 C 0.95418 0.91354 0.89615 0.0
H860 H 0.92768 0.97698 0.65275 0.0
H861 H 0.94526 0.18656 0.6232 0.0
H862 H 0.96652 0.93813 0.64973 0.0
H863 H 0.98413 0.14672 0.61958 0.0
H864 H 0.05379 0.0855 0.64735 0.0
H865 H 0.01481 0.1224 0.64559 0.0
H866 H -0.00373 0.9058 0.62311 0.0
H867 H 0.03544 0.86787 0.62547 0.0
C868 C 0.93978 1.01455 0.64535 0.0
C869 C 0.9334 0.08517 0.6384 0.0
C870 C 0.96206 0.99197 0.64345 0.0
C871 C 0.97846 0.03934 0.63446 0.0
C872 C 0.97196 0.1093 0.62692 0.0
C873 C 0.94967 0.13206 0.62892 0.0
C874 C 0.04149 0.04557 0.64191 0.0
C875 C 0.04778 0.97344 0.6367 0.0
C876 C 0.01909 0.06706 0.64072 0.0
C877 C 0.0024 1.01713 0.63419 0.0
C878 C 0.00871 0.94535 0.6285 0.0
C879 C 0.03116 0.92368 0.62977 0.0
H880 H 0.42844 0.58294 0.15489 0.0
H881 H 0.44527 0.37895 0.12145 0.0
H882 H 0.46708 0.62281 0.1512 0.0
H883 H 0.48396 0.42002 0.11704 0.0
H884 H 0.55463 0.47822 0.14261 0.0
H885 H 0.51575 0.44031 0.1413 0.0
H886 H 0.49581 0.66121 0.12481 0.0
H887 H 0.53493 0.69995 0.12689 0.0
C888 C 0.44034 0.54685 0.14649 0.0
C889 C 0.43379 0.47746 0.13862 0.0
C890 C 0.46251 0.57007 0.14419 0.0
C891 C 0.47868 0.52471 0.13383 0.0
C892 C 0.47201 0.45592 0.12544 0.0
C893 C 0.44982 0.43243 0.12789 0.0
C894 C 0.54203 0.51884 0.13852 0.0
C895 C 0.54792 0.59235 0.135 0.0
C896 C 0.51967 0.49684 0.1376 0.0
C897 C 0.50259 0.54763 0.13298 0.0
C898 C 0.50852 0.62085 0.12878 0.0
C899 C 0.53095 0.64303 0.12985 0.0
H900 H 0.44634 0.6886 0.41477 0.0
H901 H 0.42672 0.47426 0.39098 0.0
H902 H 0.48527 0.64795 0.41693 0.0
H903 H 0.46547 0.43467 0.39238 0.0
H904 H 0.53473 0.36386 0.41316 0.0
H905 H 0.49606 0.40527 0.4174 0.0
H906 H 0.51484 0.61719 0.39052 0.0
H907 H 0.55345 0.57678 0.38705 0.0
C908 C 0.45032 0.63292 0.41 0.0
C909 C 0.43345 0.5848 0.40264 0.0
C910 C 0.47263 0.60968 0.41115 0.0
C911 C 0.47851 0.53805 0.40479 0.0
C912 C 0.46152 0.48977 0.39781 0.0
C913 C 0.43927 0.51276 0.39684 0.0
C914 C 0.5306 0.41939 0.40831 0.0
C915 C 0.54713 0.46686 0.39967 0.0
C916 C 0.50843 0.44308 0.41065 0.0
C917 C 0.50232 0.51451 0.40421 0.0
C918 C 0.51899 0.56225 0.396 0.0
C919 C 0.54114 0.53881 0.39385 0.0
H920 H 0.42848 0.56933 0.91344 0.0
H921 H 0.45133 0.35618 0.89192 0.0
H922 H 0.46713 0.61094 0.91592 0.0
H923 H 0.48997 0.39856 0.8932 0.0
H924 H 0.55857 0.47405 0.9137 0.0
H925 H 0.51985 0.43353 0.917 0.0
H926 H 0.49729 0.64407 0.89208 0.0
H927 H 0.53603 0.68546 0.89 0.0
C928 C 0.4418 0.53146 0.90912 0.0
C929 C 0.43691 0.45954 0.90243 0.0
C930 C 0.46398 0.55544 0.9104 0.0
C931 C 0.48177 0.5084 0.90463 0.0
C932 C 0.4768 0.43608 0.89819 0.0
C933 C 0.45462 0.41177 0.8973 0.0
C934 C 0.54529 0.51184 0.90916 0.0
C935 C 0.55028 0.58285 0.90154 0.0
C936 C 0.52307 0.48846 0.91087 0.0
C937 C 0.50535 0.53513 0.90458 0.0
C938 C 0.51042 0.60682 0.89743 0.0
C939 C 0.53265 0.6306 0.89612 0.0
H940 H 0.44436 0.69166 0.62904 0.0
H941 H 0.42807 0.47395 0.65281 0.0
H942 H 0.48346 0.65507 0.62423 0.0
H943 H 0.46702 0.43831 0.64859 0.0
H944 H 0.53532 0.37591 0.62155 0.0
H945 H 0.49615 0.41441 0.62051 0.0
H946 H 0.5149 0.62414 0.64871 0.0
H947 H 0.55393 0.58667 0.64915 0.0
C948 C 0.44909 0.63614 0.63326 0.0
C949 C 0.43307 0.58592 0.6414 0.0
C950 C 0.47151 0.61522 0.63058 0.0
C951 C 0.47838 0.54372 0.63602 0.0
C952 C 0.46227 0.49341 0.64386 0.0
C953 C 0.43991 0.51418 0.64647 0.0
C954 C 0.53109 0.43042 0.62733 0.0
C955 C 0.54775 0.47798 0.63555 0.0
C956 C 0.50863 0.45239 0.62685 0.0
C957 C 0.50237 0.52226 0.63464 0.0
C958 C 0.51914 0.57033 0.64229 0.0
C959 C 0.54155 0.54853 0.6427 0.0
H960 H 0.10326 0.83221 0.17963 0.0
H961 H 0.14785 0.81614 0.12051 0.0
H962 H 0.097 0.70084 0.17837 0.0
H963 H 0.1422 0.68413 0.1196 0.0
H964 H 0.10922 0.46147 0.10898 0.0
H965 H 0.11452 0.59385 0.11011 0.0
H966 H 0.11436 0.58648 0.18548 0.0
H967 H 0.10839 0.45524 0.18421 0.0
C968 C 0.11201 0.8003 0.16659 0.0
C969 C 0.12609 0.83432 0.15022 0.0
C970 C 0.10846 0.72487 0.16586 0.0
C971 C 0.11901 0.68154 0.14881 0.0
C972 C 0.13347 0.71574 0.13271 0.0
C973 C 0.13693 0.79129 0.13338 0.0
C974 C 0.11007 0.48851 0.12573 0.0
C975 C 0.10829 0.44817 0.14649 0.0
C976 C 0.11334 0.56424 0.12642 0.0
C977 C 0.11499 0.60114 0.1479 0.0
C978 C 0.11288 0.56041 0.16862 0.0
C979 C 0.10953 0.48498 0.16791 0.0
H980 H 0.83547 0.24023 0.12292 0.0
H981 H 0.88009 0.22286 0.18185 0.0
H982 H 0.84075 0.37232 0.12238 0.0
H983 H 0.88613 0.35432 0.18087 0.0
H984 H 0.87484 0.59938 0.18724 0.0
H985 H 0.86909 0.46802 0.18832 0.0
H986 H 0.86774 0.46343 0.11293 0.0
H987 H 0.87264 0.59586 0.11202 0.0
C988 C 0.84636 0.26483 0.1358 0.0
C989 C 0.85728 0.22148 0.15249 0.0
C990 C 0.84961 0.34044 0.13535 0.0
C991 C 0.86401 0.3743 0.15147 0.0
C992 C 0.87469 0.33058 0.16836 0.0
C993 C 0.87128 0.25511 0.16892 0.0
C994 C 0.87347 0.57017 0.1709 0.0
C995 C 0.87422 0.60772 0.14954 0.0
C996 C 0.87025 0.49469 0.1715 0.0
C997 C 0.86788 0.45473 0.15072 0.0
C998 C 0.86909 0.49242 0.1293 0.0
C999 C 0.87214 0.56818 0.12873 0.0
H1000 H 0.12258 0.22123 0.35144 0.0
H1001 H 0.12441 0.21901 0.42668 0.0
H1002 H 0.11739 0.35369 0.35192 0.0
H1003 H 0.11848 0.35029 0.42732 0.0
H1004 H 0.12985 0.59464 0.42029 0.0
H1005 H 0.13598 0.46336 0.41933 0.0
H1006 H 0.09009 0.44537 0.36132 0.0
H1007 H 0.08462 0.57761 0.36187 0.0
C1008 C 0.12196 0.24918 0.36805 0.0
C1009 C 0.12402 0.20999 0.389 0.0
C1010 C 0.11875 0.32494 0.36838 0.0
C1011 C 0.11741 0.36295 0.38968 0.0
C1012 C 0.11974 0.32333 0.41058 0.0
C1013 C 0.12307 0.24789 0.41023 0.0
C1014 C 0.12094 0.56251 0.40746 0.0
C1015 C 0.1067 0.59622 0.39122 0.0
C1016 C 0.1244 0.48711 0.40692 0.0
C1017 C 0.11357 0.44341 0.39022 0.0
C1018 C 0.09901 0.47729 0.37418 0.0
C1019 C 0.09566 0.55294 0.37464 0.0
H1020 H 0.87193 0.45593 0.42939 0.0
H1021 H 0.87242 0.45081 0.35415 0.0
H1022 H 0.86673 0.58841 0.4283 0.0
H1023 H 0.86656 0.58211 0.35293 0.0
H1024 H 0.87795 0.82748 0.35876 0.0
H1025 H 0.88416 0.69606 0.36004 0.0
H1026 H 0.83899 0.67899 0.41886 0.0
H1027 H 0.83339 0.81104 0.41792 0.0
C1028 C 0.87102 0.48324 0.41265 0.0
C1029 C 0.87267 0.44321 0.39187 0.0
C1030 C 0.86781 0.559 0.41198 0.0
C1031 C 0.86611 0.59621 0.39051 0.0
C1032 C 0.86809 0.55578 0.36978 0.0
C1033 C 0.87138 0.48033 0.37047 0.0
C1034 C 0.8692 0.79548 0.37182 0.0
C1035 C 0.85514 0.82939 0.38819 0.0
C1036 C 0.87272 0.72004 0.37256 0.0
C1037 C 0.86215 0.67661 0.38962 0.0
C1038 C 0.84773 0.7107 0.40574 0.0
C1039 C 0.8443 0.78627 0.40505 0.0
H1040 H 0.84007 0.22687 0.92066 0.0
H1041 H 0.87954 0.21006 0.85774 0.0
H1042 H 0.84541 0.35907 0.92062 0.0
H1043 H 0.88564 0.34143 0.85806 0.0
H1044 H 0.87374 0.5861 0.85228 0.0
H1045 H 0.86777 0.45481 0.85206 0.0
H1046 H 0.87319 0.4506 0.92725 0.0
H1047 H 0.87837 0.58299 0.92738 0.0
C1048 C 0.84983 0.25159 0.90679 0.0
C1049 C 0.85929 0.20837 0.88914 0.0
C1050 C 0.85312 0.32725 0.90688 0.0
C1051 C 0.86607 0.36124 0.88941 0.0
C1052 C 0.8753 0.31761 0.87163 0.0
C1053 C 0.87187 0.24216 0.87146 0.0
C1054 C 0.87382 0.55701 0.86875 0.0
C1055 C 0.87658 0.59466 0.88984 0.0
C1056 C 0.87047 0.48157 0.86863 0.0
C1057 C 0.86995 0.44171 0.88963 0.0
C1058 C 0.8731 0.47951 0.91076 0.0
C1059 C 0.87631 0.55524 0.91086 0.0
H1060 H 0.08681 0.47362 0.86328 0.0
H1061 H 0.13552 0.45381 0.91851 0.0
H1062 H 0.09216 0.60585 0.86289 0.0
H1063 H 0.1416 0.58508 0.9176 0.0
H1064 H 0.13135 0.82965 0.92611 0.0
H1065 H 0.12536 0.69832 0.92697 0.0
H1066 H 0.11838 0.69769 0.85191 0.0
H1067 H 0.12354 0.82999 0.8513 0.0
C1068 C 0.09861 0.49768 0.87537 0.0
C1069 C 0.11064 0.45362 0.89101 0.0
C1070 C 0.10188 0.57335 0.875 0.0
C1071 C 0.11742 0.6065 0.89014 0.0
C1072 C 0.12926 0.56198 0.90593 0.0
C1073 C 0.12583 0.48656 0.90642 0.0
C1074 C 0.12871 0.80129 0.90978 0.0
C1075 C 0.12796 0.83991 0.88864 0.0
C1076 C 0.12533 0.72584 0.91024 0.0
C1077 C 0.12132 0.68697 0.88951 0.0
C1078 C 0.12102 0.72577 0.86827 0.0
C1079 C 0.12422 0.80147 0.86786 0.0
H1080 H 0.85496 0.83302 0.61157 0.0
H1081 H 0.85678 0.82935 0.68679 0.0
H1082 H 0.8611 0.70187 0.61065 0.0
H1083 H 0.86222 0.69697 0.68603 0.0
H1084 H 0.89547 0.47384 0.67569 0.0
H1085 H 0.88965 0.6059 0.67653 0.0
H1086 H 0.84403 0.58795 0.61829 0.0
H1087 H 0.8505 0.45681 0.61707 0.0
C1088 C 0.85634 0.80385 0.62796 0.0
C1089 C 0.85532 0.84138 0.64926 0.0
C1090 C 0.85979 0.72844 0.62745 0.0
C1091 C 0.86221 0.68839 0.64826 0.0
C1092 C 0.8608 0.72601 0.66964 0.0
C1093 C 0.85743 0.80175 0.67012 0.0
C1094 C 0.88442 0.49847 0.66293 0.0
C1095 C 0.87356 0.45519 0.64622 0.0
C1096 C 0.88086 0.57404 0.66355 0.0
C1097 C 0.86627 0.60794 0.64754 0.0
C1098 C 0.85563 0.56425 0.63069 0.0
C1099 C 0.85929 0.48891 0.63 0.0
H1100 H 0.08961 0.22088 0.66625 0.0
H1101 H 0.15728 0.24697 0.64062 0.0
H1102 H 0.0829 0.3501 0.66125 0.0
H1103 H 0.15111 0.37843 0.63691 0.0
H1104 H 0.126 0.59477 0.60887 0.0
H1105 H 0.13193 0.46365 0.61334 0.0
H1106 H 0.09042 0.46529 0.67534 0.0
H1107 H 0.08352 0.5946 0.66991 0.0
C1108 C 0.10328 0.25484 0.66011 0.0
C1109 C 0.12398 0.22418 0.65381 0.0
C1110 C 0.09946 0.32918 0.65729 0.0
C1111 C 0.1164 0.37497 0.64855 0.0
C1112 C 0.1375 0.34454 0.64319 0.0
C1113 C 0.14119 0.26956 0.64562 0.0
C1114 C 0.1178 0.56637 0.6231 0.0
C1115 C 0.10419 0.6043 0.63894 0.0
C1116 C 0.12146 0.4916 0.62592 0.0
C1117 C 0.11188 0.45383 0.64488 0.0
C1118 C 0.09782 0.49205 0.66035 0.0
C1119 C 0.09384 0.5663 0.65726 0.0
H1120 H 0.64102 0.95746 0.17038 0.0
H1121 H 0.58261 0.9756 0.12633 0.0
H1122 H 0.64542 0.09006 0.16973 0.0
H1123 H 0.58667 0.10923 0.12632 0.0
H1124 H 0.59002 0.34283 0.16329 0.0
H1125 H 0.58574 0.21003 0.16211 0.0
H1126 H 0.65285 0.18952 0.13466 0.0
H1127 H 0.65693 0.32292 0.13513 0.0
C1128 C 0.62904 0.98995 0.16067 0.0
C1129 C 0.61141 0.9565 0.14846 0.0
C1130 C 0.63166 0.06565 0.16021 0.0
C1131 C 0.6164 0.10954 0.14798 0.0
C1132 C 0.59861 0.07631 0.13592 0.0
C1133 C 0.59631 1.00017 0.1359 0.0
C1134 C 0.60388 0.30994 0.15707 0.0
C1135 C 0.62385 0.34292 0.14939 0.0
C1136 C 0.60135 0.23417 0.15623 0.0
C1137 C 0.61892 0.1899 0.14821 0.0
C1138 C 0.63907 0.2227 0.14091 0.0
C1139 C 0.64141 0.29874 0.14122 0.0
H1140 H 0.35988 0.73174 0.18801 0.0
H1141 H 0.35274 0.73004 0.11313 0.0
H1142 H 0.36531 0.86414 0.18699 0.0
H1143 H 0.3589 0.86108 0.1119 0.0
H1144 H 0.34904 0.10574 0.11905 0.0
H1145 H 0.34258 0.97472 0.12075 0.0
H1146 H 0.39185 0.95565 0.17567 0.0
H1147 H 0.39764 0.08772 0.17444 0.0
C1148 C 0.35936 0.75978 0.17137 0.0
C1149 C 0.35576 0.7207 0.15068 0.0
C1150 C 0.36272 0.83552 0.17072 0.0
C1151 C 0.36264 0.87368 0.14934 0.0
C1152 C 0.35875 0.83414 0.12872 0.0
C1153 C 0.35529 0.75878 0.12941 0.0
C1154 C 0.35863 0.07343 0.13134 0.0
C1155 C 0.37392 0.10686 0.14653 0.0
C1156 C 0.35497 0.99813 0.13231 0.0
C1157 C 0.36666 0.95413 0.14838 0.0
C1158 C 0.38226 0.98773 0.16334 0.0
C1159 C 0.38579 0.06331 0.16247 0.0
H1160 H 0.60261 0.08249 0.42307 0.0
H1161 H 0.61068 0.08942 0.34829 0.0
H1162 H 0.60825 0.95022 0.42251 0.0
H1163 H 0.61706 0.95833 0.34769 0.0
H1164 H 0.60589 0.71242 0.3518 0.0
H1165 H 0.59935 0.84368 0.35236 0.0
H1166 H 0.63681 0.86012 0.41663 0.0
H1167 H 0.64267 0.72816 0.41634 0.0
C1168 C 0.60549 0.05562 0.40652 0.0
C1169 C 0.60609 0.09613 0.38573 0.0
C1170 C 0.60897 0.97995 0.40619 0.0
C1171 C 0.61323 0.94326 0.38505 0.0
C1172 C 0.61352 0.98417 0.36426 0.0
C1173 C 0.60993 0.05954 0.3646 0.0
C1174 C 0.61288 0.74425 0.36593 0.0
C1175 C 0.62484 0.71013 0.38399 0.0
C1176 C 0.60918 0.81964 0.36625 0.0
C1177 C 0.61746 0.86289 0.3846 0.0
C1178 C 0.62982 0.82861 0.40244 0.0
C1179 C 0.63342 0.75307 0.40216 0.0
H1180 H 0.3694 0.96116 0.35422 0.0
H1181 H 0.37641 0.96583 0.42911 0.0
H1182 H 0.36339 0.09247 0.35374 0.0
H1183 H 0.37107 0.09827 0.42868 0.0
H1184 H 0.33692 0.32116 0.42198 0.0
H1185 H 0.34249 0.189 0.42226 0.0
H1186 H 0.38182 0.20617 0.35908 0.0
H1187 H 0.37564 0.33761 0.35854 0.0
C1188 C 0.36998 0.99058 0.37058 0.0
C1189 C 0.37343 0.95335 0.3917 0.0
C1190 C 0.3666 0.06601 0.37031 0.0
C1191 C 0.3667 0.10629 0.39117 0.0
C1192 C 0.37053 0.06896 0.41231 0.0
C1193 C 0.37383 0.99323 0.41257 0.0
C1194 C 0.34653 0.29637 0.40804 0.0
C1195 C 0.35575 0.33951 0.39018 0.0
C1196 C 0.34995 0.22076 0.40832 0.0
C1197 C 0.36273 0.1867 0.39077 0.0
C1198 C 0.37166 0.23016 0.37273 0.0
C1199 C 0.36816 0.3056 0.37242 0.0
H1200 H 0.35899 0.7218 0.86178 0.0
H1201 H 0.35972 0.712 0.93703 0.0
H1202 H 0.36546 0.85368 0.86345 0.0
H1203 H 0.36634 0.84313 0.93873 0.0
H1204 H 0.35321 0.09045 0.93069 0.0
H1205 H 0.34699 0.95892 0.92991 0.0
H1206 H 0.39651 0.93764 0.87524 0.0
H1207 H 0.4026 0.06966 0.87594 0.0
C1208 C 0.36031 0.74802 0.87864 0.0
C1209 C 0.35879 0.707 0.89927 0.0
C1210 C 0.36425 0.82321 0.87961 0.0
C1211 C 0.36657 0.8586 0.90123 0.0
C1212 C 0.36449 0.81754 0.92183 0.0
C1213 C 0.36072 0.74248 0.92085 0.0
C1214 C 0.363 0.05749 0.91876 0.0
C1215 C 0.37842 0.09002 0.90342 0.0
C1216 C 0.35943 0.98223 0.91829 0.0
C1217 C 0.37112 0.93808 0.90237 0.0
C1218 C 0.38701 0.97049 0.88745 0.0
C1219 C 0.39069 0.04581 0.88803 0.0
H1220 H 0.60583 0.33081 0.85423 0.0
H1221 H 0.64719 0.31413 0.91571 0.0
H1222 H 0.59994 0.1992 0.85488 0.0
H1223 H 0.64196 0.18196 0.91603 0.0
H1224 H 0.60918 0.95832 0.92435 0.0
H1225 H 0.614 0.09087 0.92376 0.0
H1226 H 0.61827 0.08593 0.84849 0.0
H1227 H 0.61273 0.95443 0.84917 0.0
C1228 C 0.61394 0.29872 0.86768 0.0
C1229 C 0.627 0.33253 0.88489 0.0
C1230 C 0.61061 0.22321 0.86805 0.0
C1231 C 0.62039 0.17972 0.88557 0.0
C1232 C 0.63383 0.21375 0.90253 0.0
C1233 C 0.63704 0.28937 0.90222 0.0
C1234 C 0.61091 0.98592 0.90772 0.0
C1235 C 0.61049 0.94627 0.88682 0.0
C1236 C 0.61391 0.06172 0.90736 0.0
C1237 C 0.61664 0.09929 0.88607 0.0
C1238 C 0.61592 0.05924 0.86519 0.0
C1239 C 0.61282 0.98372 0.86557 0.0
H1240 H 0.33681 0.94464 0.67746 0.0
H1241 H 0.39837 0.97164 0.63859 0.0
H1242 H 0.33225 0.07678 0.67929 0.0
H1243 H 0.39395 0.10477 0.6408 0.0
H1244 H 0.3891 0.33257 0.6765 0.0
H1245 H 0.39319 0.19999 0.67535 0.0
H1246 H 0.32589 0.18049 0.64844 0.0
H1247 H 0.32189 0.31363 0.64917 0.0
C1248 C 0.34941 0.979 0.66938 0.0
C1249 C 0.36799 0.94829 0.65793 0.0
C1250 C 0.34671 0.05444 0.67035 0.0
C1251 C 0.36275 0.10058 0.66022 0.0
C1252 C 0.38144 0.07001 0.64886 0.0
C1253 C 0.38394 0.99422 0.64752 0.0
C1254 C 0.37509 0.29992 0.67059 0.0
C1255 C 0.35515 0.33304 0.66295 0.0
C1256 C 0.37753 0.22428 0.66973 0.0
C1257 C 0.35993 0.18047 0.66161 0.0
C1258 C 0.33968 0.21336 0.65477 0.0
C1259 C 0.33737 0.28923 0.65525 0.0
H1260 H 0.62525 0.73097 0.60645 0.0
H1261 H 0.62548 0.73561 0.6817 0.0
H1262 H 0.61928 0.86214 0.60537 0.0
H1263 H 0.62023 0.86813 0.68074 0.0
H1264 H 0.58675 0.09106 0.67069 0.0
H1265 H 0.59252 0.95905 0.67174 0.0
H1266 H 0.63679 0.97592 0.61217 0.0
H1267 H 0.63038 0.10715 0.61078 0.0
C1268 C 0.62436 0.76037 0.6228 0.0
C1269 C 0.62588 0.72312 0.64417 0.0
C1270 C 0.62101 0.83578 0.62219 0.0
C1271 C 0.61923 0.87612 0.64296 0.0
C1272 C 0.62116 0.8388 0.66439 0.0
C1273 C 0.62441 0.76302 0.66499 0.0
C1274 C 0.59749 0.06622 0.65768 0.0
C1275 C 0.60799 0.10922 0.64056 0.0
C1276 C 0.60103 0.99069 0.65843 0.0
C1277 C 0.61524 0.95654 0.64212 0.0
C1278 C 0.62551 0.99989 0.62484 0.0
C1279 C 0.62187 0.07525 0.62403 0.0
loop_
_geom_bond_atom_site_label_1
_geom_bond_atom_site_label_2
_geom_bond_distance
_geom_bond_site_symmetry_2
_ccdc_geom_bond_type
Dy0 O4 2.410 . S
Dy0 O5 2.502 . S
Dy0 O6 2.400 1_565 S
Dy0 O7 2.652 1_565 S
Dy0 O11 2.326 1_565 S
Dy0 O15 2.302 1_565 S
Dy0 O16 2.342 1_565 S
C1 O12 1.185 . S
C1 O13 1.355 . S
C2 O4 1.185 . S
C2 O5 1.355 . S
Dy3 O7 2.310 . S
Dy3 O10 2.351 . S
Dy3 O12 2.398 . S
Dy3 O13 2.491 . S
Dy3 O14 2.403 . S
Dy3 O15 2.664 . S
Dy3 O17 2.326 . S
O4 Dy0 2.410 . S
O4 C2 1.185 . S
O5 Dy0 2.502 . S
O5 C2 1.355 . S
O6 Dy0 2.400 1_545 S
O6 C8 1.254 . S
O7 Dy0 2.652 1_545 S
O7 Dy3 2.310 . S
O7 C8 1.268 . S
C8 O6 1.254 . S
C8 O7 1.268 . S
C9 O14 1.254 . S
C9 O15 1.268 . S
O10 Dy3 2.351 . S
O10 C18 1.249 . S
O11 Dy0 2.326 1_545 S
O11 C18 1.267 . S
O12 C1 1.185 . S
O12 Dy3 2.398 . S
O13 C1 1.355 . S
O13 Dy3 2.491 . S
O14 Dy3 2.403 . S
O14 C9 1.254 . S
O15 Dy0 2.302 1_545 S
O15 Dy3 2.664 . S
O15 C9 1.268 . S
O16 Dy0 2.342 1_545 S
O16 C19 1.249 . S
O17 Dy3 2.326 . S
O17 C19 1.267 . S
C18 O10 1.249 . S
C18 O11 1.267 . S
C19 O16 1.249 . S
C19 O17 1.267 . S
Dy20 O24 2.410 . S
Dy20 O25 2.502 . S
Dy20 O26 2.400 1_545 S
Dy20 O27 2.652 1_545 S
Dy20 O31 2.326 1_545 S
Dy20 O35 2.302 1_545 S
Dy20 O36 2.342 1_545 S
C21 O32 1.185 . S
C21 O33 1.355 . S
C22 O24 1.185 . S
C22 O25 1.355 . S
Dy23 O27 2.310 . S
Dy23 O30 2.351 . S
Dy23 O32 2.398 . S
Dy23 O33 2.491 . S
Dy23 O34 2.403 . S
Dy23 O35 2.664 . S
Dy23 O37 2.326 . S
O24 Dy20 2.410 . S
O24 C22 1.185 . S
O25 Dy20 2.502 . S
O25 C22 1.355 . S
O26 Dy20 2.400 1_565 S
O26 C28 1.254 . S
O27 Dy20 2.652 1_565 S
O27 Dy23 2.310 . S
O27 C28 1.268 . S
C28 O26 1.254 . S
C28 O27 1.268 . S
C29 O34 1.254 . S
C29 O35 1.268 . S
O30 Dy23 2.351 . S
O30 C38 1.249 . S
O31 Dy20 2.326 1_565 S
O31 C38 1.267 . S
O32 C21 1.185 . S
O32 Dy23 2.398 . S
O33 C21 1.355 . S
O33 Dy23 2.491 . S
O34 Dy23 2.403 . S
O34 C29 1.254 . S
O35 Dy20 2.302 1_565 S
O35 Dy23 2.664 . S
O35 C29 1.268 . S
O36 Dy20 2.342 1_565 S
O36 C39 1.249 . S
O37 Dy23 2.326 . S
O37 C39 1.267 . S
C38 O30 1.249 . S
C38 O31 1.267 . S
C39 O36 1.249 . S
C39 O37 1.267 . S
Dy40 O44 2.410 . S
Dy40 O45 2.502 . S
Dy40 O46 2.400 1_545 S
Dy40 O47 2.652 1_545 S
Dy40 O51 2.326 1_545 S
Dy40 O55 2.302 1_545 S
Dy40 O56 2.342 1_545 S
C41 O52 1.185 . S
C41 O53 1.355 . S
C42 O44 1.185 . S
C42 O45 1.355 . S
Dy43 O47 2.310 . S
Dy43 O50 2.351 . S
Dy43 O52 2.398 . S
Dy43 O53 2.491 . S
Dy43 O54 2.403 . S
Dy43 O55 2.664 . S
Dy43 O57 2.326 . S
O44 Dy40 2.410 . S
O44 C42 1.185 . S
O45 Dy40 2.502 . S
O45 C42 1.355 . S
O46 Dy40 2.400 1_565 S
O46 C48 1.254 . S
O47 Dy40 2.652 1_565 S
O47 Dy43 2.310 . S
O47 C48 1.268 . S
C48 O46 1.254 . S
C48 O47 1.268 . S
C49 O54 1.254 . S
C49 O55 1.268 . S
O50 Dy43 2.351 . S
O50 C58 1.249 . S
O51 Dy40 2.326 1_565 S
O51 C58 1.267 . S
O52 C41 1.185 . S
O52 Dy43 2.398 . S
O53 C41 1.355 . S
O53 Dy43 2.491 . S
O54 Dy43 2.403 . S
O54 C49 1.254 . S
O55 Dy40 2.302 1_565 S
O55 Dy43 2.664 . S
O55 C49 1.268 . S
O56 Dy40 2.342 1_565 S
O56 C59 1.249 . S
O57 Dy43 2.326 . S
O57 C59 1.267 . S
C58 O50 1.249 . S
C58 O51 1.267 . S
C59 O56 1.249 . S
C59 O57 1.267 . S
Dy60 O64 2.410 . S
Dy60 O65 2.502 . S
Dy60 O66 2.400 1_565 S
Dy60 O67 2.652 1_565 S
Dy60 O71 2.326 1_565 S
Dy60 O75 2.302 1_565 S
Dy60 O76 2.342 1_565 S
C61 O72 1.185 . S
C61 O73 1.355 . S
C62 O64 1.185 . S
C62 O65 1.355 . S
Dy63 O67 2.310 . S
Dy63 O70 2.351 . S
Dy63 O72 2.398 . S
Dy63 O73 2.491 . S
Dy63 O74 2.403 . S
Dy63 O75 2.664 . S
Dy63 O77 2.326 . S
O64 Dy60 2.410 . S
O64 C62 1.185 . S
O65 Dy60 2.502 . S
O65 C62 1.355 . S
O66 Dy60 2.400 1_545 S
O66 C68 1.254 . S
O67 Dy60 2.652 1_545 S
O67 Dy63 2.310 . S
O67 C68 1.268 . S
C68 O66 1.254 . S
C68 O67 1.268 . S
C69 O74 1.254 . S
C69 O75 1.268 . S
O70 Dy63 2.351 . S
O70 C78 1.249 . S
O71 Dy60 2.326 1_545 S
O71 C78 1.267 . S
O72 C61 1.185 . S
O72 Dy63 2.398 . S
O73 C61 1.355 . S
O73 Dy63 2.491 . S
O74 Dy63 2.403 . S
O74 C69 1.254 . S
O75 Dy60 2.302 1_545 S
O75 Dy63 2.664 . S
O75 C69 1.268 . S
O76 Dy60 2.342 1_545 S
O76 C79 1.249 . S
O77 Dy63 2.326 . S
O77 C79 1.267 . S
C78 O70 1.249 . S
C78 O71 1.267 . S
C79 O76 1.249 . S
C79 O77 1.267 . S
Dy80 O84 2.398 . S
Dy80 O85 2.491 . S
Dy80 O86 2.403 . S
Dy80 O87 2.664 . S
Dy80 O91 2.326 . S
Dy80 O95 2.310 . S
Dy80 O96 2.351 . S
C81 O92 1.185 . S
C81 O93 1.355 . S
C82 O84 1.185 . S
C82 O85 1.355 . S
Dy83 O87 2.302 1_545 S
Dy83 O90 2.342 1_545 S
Dy83 O92 2.410 . S
Dy83 O93 2.502 . S
Dy83 O94 2.400 1_545 S
Dy83 O95 2.652 1_545 S
Dy83 O97 2.326 1_545 S
O84 Dy80 2.398 . S
O84 C82 1.185 . S
O85 Dy80 2.491 . S
O85 C82 1.355 . S
O86 Dy80 2.403 . S
O86 C88 1.254 . S
O87 Dy80 2.664 . S
O87 Dy83 2.302 1_565 S
O87 C88 1.268 . S
C88 O86 1.254 . S
C88 O87 1.268 . S
C89 O94 1.254 . S
C89 O95 1.268 . S
O90 Dy83 2.342 1_565 S
O90 C98 1.249 . S
O91 Dy80 2.326 . S
O91 C98 1.267 . S
O92 C81 1.185 . S
O92 Dy83 2.410 . S
O93 C81 1.355 . S
O93 Dy83 2.502 . S
O94 Dy83 2.400 1_565 S
O94 C89 1.254 . S
O95 Dy80 2.310 . S
O95 Dy83 2.652 1_565 S
O95 C89 1.268 . S
O96 Dy80 2.351 . S
O96 C99 1.249 . S
O97 Dy83 2.326 1_565 S
O97 C99 1.267 . S
C98 O90 1.249 . S
C98 O91 1.267 . S
C99 O96 1.249 . S
C99 O97 1.267 . S
Dy100 O104 2.398 . S
Dy100 O105 2.491 . S
Dy100 O106 2.403 . S
Dy100 O107 2.664 . S
Dy100 O111 2.326 . S
Dy100 O115 2.310 . S
Dy100 O116 2.351 . S
C101 O112 1.185 . S
C101 O113 1.355 . S
C102 O104 1.185 . S
C102 O105 1.355 . S
Dy103 O107 2.302 1_565 S
Dy103 O110 2.342 1_565 S
Dy103 O112 2.410 . S
Dy103 O113 2.502 . S
Dy103 O114 2.400 1_565 S
Dy103 O115 2.652 1_565 S
Dy103 O117 2.326 1_565 S
O104 Dy100 2.398 . S
O104 C102 1.185 . S
O105 Dy100 2.491 . S
O105 C102 1.355 . S
O106 Dy100 2.403 . S
O106 C108 1.254 . S
O107 Dy100 2.664 . S
O107 Dy103 2.302 1_545 S
O107 C108 1.268 . S
C108 O106 1.254 . S
C108 O107 1.268 . S
C109 O114 1.254 . S
C109 O115 1.268 . S
O110 Dy103 2.342 1_545 S
O110 C118 1.249 . S
O111 Dy100 2.326 . S
O111 C118 1.267 . S
O112 C101 1.185 . S
O112 Dy103 2.410 . S
O113 C101 1.355 . S
O113 Dy103 2.502 . S
O114 Dy103 2.400 1_545 S
O114 C109 1.254 . S
O115 Dy100 2.310 . S
O115 Dy103 2.652 1_545 S
O115 C109 1.268 . S
O116 Dy100 2.351 . S
O116 C119 1.249 . S
O117 Dy103 2.326 1_545 S
O117 C119 1.267 . S
C118 O110 1.249 . S
C118 O111 1.267 . S
C119 O116 1.249 . S
C119 O117 1.267 . S
Dy120 O124 2.398 . S
Dy120 O125 2.491 . S
Dy120 O126 2.403 . S
Dy120 O127 2.664 . S
Dy120 O131 2.326 . S
Dy120 O135 2.310 . S
Dy120 O136 2.351 . S
C121 O132 1.185 . S
C121 O133 1.355 . S
C122 O124 1.185 . S
C122 O125 1.355 . S
Dy123 O127 2.302 1_565 S
Dy123 O130 2.342 1_565 S
Dy123 O132 2.410 . S
Dy123 O133 2.502 . S
Dy123 O134 2.400 1_565 S
Dy123 O135 2.652 1_565 S
Dy123 O137 2.326 1_565 S
O124 Dy120 2.398 . S
O124 C122 1.185 . S
O125 Dy120 2.491 . S
O125 C122 1.355 . S
O126 Dy120 2.403 . S
O126 C128 1.254 . S
O127 Dy120 2.664 . S
O127 Dy123 2.302 1_545 S
O127 C128 1.268 . S
C128 O126 1.254 . S
C128 O127 1.268 . S
C129 O134 1.254 . S
C129 O135 1.268 . S
O130 Dy123 2.342 1_545 S
O130 C138 1.249 . S
O131 Dy120 2.326 . S
O131 C138 1.267 . S
O132 C121 1.185 . S
O132 Dy123 2.410 . S
O133 C121 1.355 . S
O133 Dy123 2.502 . S
O134 Dy123 2.400 1_545 S
O134 C129 1.254 . S
O135 Dy120 2.310 . S
O135 Dy123 2.652 1_545 S
O135 C129 1.268 . S
O136 Dy120 2.351 . S
O136 C139 1.249 . S
O137 Dy123 2.326 1_545 S
O137 C139 1.267 . S
C138 O130 1.249 . S
C138 O131 1.267 . S
C139 O136 1.249 . S
C139 O137 1.267 . S
Dy140 O144 2.398 . S
Dy140 O145 2.491 . S
Dy140 O146 2.403 . S
Dy140 O147 2.664 . S
Dy140 O151 2.326 . S
Dy140 O155 2.310 . S
Dy140 O156 2.351 . S
C141 O152 1.185 . S
C141 O153 1.355 . S
C142 O144 1.185 . S
C142 O145 1.355 . S
Dy143 O147 2.302 1_545 S
Dy143 O150 2.342 1_545 S
Dy143 O152 2.410 . S
Dy143 O153 2.502 . S
Dy143 O154 2.400 1_545 S
Dy143 O155 2.652 1_545 S
Dy143 O157 2.326 1_545 S
O144 Dy140 2.398 . S
O144 C142 1.185 . S
O145 Dy140 2.491 . S
O145 C142 1.355 . S
O146 Dy140 2.403 . S
O146 C148 1.254 . S
O147 Dy140 2.664 . S
O147 Dy143 2.302 1_565 S
O147 C148 1.268 . S
C148 O146 1.254 . S
C148 O147 1.268 . S
C149 O154 1.254 . S
C149 O155 1.268 . S
O150 Dy143 2.342 1_565 S
O150 C158 1.249 . S
O151 Dy140 2.326 . S
O151 C158 1.267 . S
O152 C141 1.185 . S
O152 Dy143 2.410 . S
O153 C141 1.355 . S
O153 Dy143 2.502 . S
O154 Dy143 2.400 1_565 S
O154 C149 1.254 . S
O155 Dy140 2.310 . S
O155 Dy143 2.652 1_565 S
O155 C149 1.268 . S
O156 Dy140 2.351 . S
O156 C159 1.249 . S
O157 Dy143 2.326 1_565 S
O157 C159 1.267 . S
C158 O150 1.249 . S
C158 O151 1.267 . S
C159 O156 1.249 . S
C159 O157 1.267 . S
Dy160 O164 2.398 . S
Dy160 O165 2.491 . S
Dy160 O166 2.403 . S
Dy160 O167 2.664 . S
Dy160 O171 2.326 . S
Dy160 O175 2.310 . S
Dy160 O176 2.351 . S
C161 O172 1.185 . S
C161 O173 1.355 . S
C162 O164 1.185 . S
C162 O165 1.355 . S
Dy163 O167 2.310 . S
Dy163 O170 2.351 . S
Dy163 O172 2.398 . S
Dy163 O173 2.491 . S
Dy163 O174 2.403 . S
Dy163 O175 2.664 . S
Dy163 O177 2.326 . S
O164 Dy160 2.398 . S
O164 C162 1.185 . S
O165 Dy160 2.491 . S
O165 C162 1.355 . S
O166 Dy160 2.403 . S
O166 C168 1.254 . S
O167 Dy160 2.664 . S
O167 Dy163 2.310 . S
O167 C168 1.268 . S
C168 O166 1.254 . S
C168 O167 1.268 . S
C169 O174 1.254 . S
C169 O175 1.268 . S
O170 Dy163 2.351 . S
O170 C178 1.249 . S
O171 Dy160 2.326 . S
O171 C178 1.267 . S
O172 C161 1.185 . S
O172 Dy163 2.398 . S
O173 C161 1.355 . S
O173 Dy163 2.491 . S
O174 Dy163 2.403 . S
O174 C169 1.254 . S
O175 Dy160 2.310 . S
O175 Dy163 2.664 . S
O175 C169 1.268 . S
O176 Dy160 2.351 . S
O176 C179 1.249 . S
O177 Dy163 2.326 . S
O177 C179 1.267 . S
C178 O170 1.249 . S
C178 O171 1.267 . S
C179 O176 1.249 . S
C179 O177 1.267 . S
Dy180 O184 2.398 . S
Dy180 O185 2.491 . S
Dy180 O186 2.403 . S
Dy180 O187 2.664 . S
Dy180 O191 2.326 . S
Dy180 O195 2.310 . S
Dy180 O196 2.351 . S
C181 O192 1.185 . S
C181 O193 1.355 . S
C182 O184 1.185 . S
C182 O185 1.355 . S
Dy183 O187 2.310 . S
Dy183 O190 2.351 . S
Dy183 O192 2.398 . S
Dy183 O193 2.491 . S
Dy183 O194 2.403 . S
Dy183 O195 2.664 . S
Dy183 O197 2.326 . S
O184 Dy180 2.398 . S
O184 C182 1.185 . S
O185 Dy180 2.491 . S
O185 C182 1.355 . S
O186 Dy180 2.403 . S
O186 C188 1.254 . S
O187 Dy180 2.664 . S
O187 Dy183 2.310 . S
O187 C188 1.268 . S
C188 O186 1.254 . S
C188 O187 1.268 . S
C189 O194 1.254 . S
C189 O195 1.268 . S
O190 Dy183 2.351 . S
O190 C198 1.249 . S
O191 Dy180 2.326 . S
O191 C198 1.267 . S
O192 C181 1.185 . S
O192 Dy183 2.398 . S
O193 C181 1.355 . S
O193 Dy183 2.491 . S
O194 Dy183 2.403 . S
O194 C189 1.254 . S
O195 Dy180 2.310 . S
O195 Dy183 2.664 . S
O195 C189 1.268 . S
O196 Dy180 2.351 . S
O196 C199 1.249 . S
O197 Dy183 2.326 . S
O197 C199 1.267 . S
C198 O190 1.249 . S
C198 O191 1.267 . S
C199 O196 1.249 . S
C199 O197 1.267 . S
Dy200 O204 2.398 . S
Dy200 O205 2.491 . S
Dy200 O206 2.403 . S
Dy200 O207 2.664 . S
Dy200 O211 2.326 . S
Dy200 O215 2.310 . S
Dy200 O216 2.351 . S
C201 O212 1.185 . S
C201 O213 1.355 . S
C202 O204 1.185 . S
C202 O205 1.355 . S
Dy203 O207 2.310 . S
Dy203 O210 2.351 . S
Dy203 O212 2.398 . S
Dy203 O213 2.491 . S
Dy203 O214 2.403 . S
Dy203 O215 2.664 . S
Dy203 O217 2.326 . S
O204 Dy200 2.398 . S
O204 C202 1.185 . S
O205 Dy200 2.491 . S
O205 C202 1.355 . S
O206 Dy200 2.403 . S
O206 C208 1.254 . S
O207 Dy200 2.664 . S
O207 Dy203 2.310 . S
O207 C208 1.268 . S
C208 O206 1.254 . S
C208 O207 1.268 . S
C209 O214 1.254 . S
C209 O215 1.268 . S
O210 Dy203 2.351 . S
O210 C218 1.249 . S
O211 Dy200 2.326 . S
O211 C218 1.267 . S
O212 C201 1.185 . S
O212 Dy203 2.398 . S
O213 C201 1.355 . S
O213 Dy203 2.491 . S
O214 Dy203 2.403 . S
O214 C209 1.254 . S
O215 Dy200 2.310 . S
O215 Dy203 2.664 . S
O215 C209 1.268 . S
O216 Dy200 2.351 . S
O216 C219 1.249 . S
O217 Dy203 2.326 . S
O217 C219 1.267 . S
C218 O210 1.249 . S
C218 O211 1.267 . S
C219 O216 1.249 . S
C219 O217 1.267 . S
Dy220 O224 2.398 . S
Dy220 O225 2.491 . S
Dy220 O226 2.403 . S
Dy220 O227 2.664 . S
Dy220 O231 2.326 . S
Dy220 O235 2.310 . S
Dy220 O236 2.351 . S
C221 O232 1.185 . S
C221 O233 1.355 . S
C222 O224 1.185 . S
C222 O225 1.355 . S
Dy223 O227 2.310 . S
Dy223 O230 2.351 . S
Dy223 O232 2.398 . S
Dy223 O233 2.491 . S
Dy223 O234 2.403 . S
Dy223 O235 2.664 . S
Dy223 O237 2.326 . S
O224 Dy220 2.398 . S
O224 C222 1.185 . S
O225 Dy220 2.491 . S
O225 C222 1.355 . S
O226 Dy220 2.403 . S
O226 C228 1.254 . S
O227 Dy220 2.664 . S
O227 Dy223 2.310 . S
O227 C228 1.268 . S
C228 O226 1.254 . S
C228 O227 1.268 . S
C229 O234 1.254 . S
C229 O235 1.268 . S
O230 Dy223 2.351 . S
O230 C238 1.249 . S
O231 Dy220 2.326 . S
O231 C238 1.267 . S
O232 C221 1.185 . S
O232 Dy223 2.398 . S
O233 C221 1.355 . S
O233 Dy223 2.491 . S
O234 Dy223 2.403 . S
O234 C229 1.254 . S
O235 Dy220 2.310 . S
O235 Dy223 2.664 . S
O235 C229 1.268 . S
O236 Dy220 2.351 . S
O236 C239 1.249 . S
O237 Dy223 2.326 . S
O237 C239 1.267 . S
C238 O230 1.249 . S
C238 O231 1.267 . S
C239 O236 1.249 . S
C239 O237 1.267 . S
Dy240 O244 2.398 . S
Dy240 O245 2.491 . S
Dy240 O246 2.403 . S
Dy240 O247 2.664 . S
Dy240 O251 2.326 . S
Dy240 O255 2.310 . S
Dy240 O256 2.351 . S
C241 O252 1.185 . S
C241 O253 1.355 . S
C242 O244 1.185 . S
C242 O245 1.355 . S
Dy243 O247 2.310 . S
Dy243 O250 2.351 . S
Dy243 O252 2.398 . S
Dy243 O253 2.491 . S
Dy243 O254 2.403 . S
Dy243 O255 2.664 . S
Dy243 O257 2.326 . S
O244 Dy240 2.398 . S
O244 C242 1.185 . S
O245 Dy240 2.491 . S
O245 C242 1.355 . S
O246 Dy240 2.403 . S
O246 C248 1.254 . S
O247 Dy240 2.664 . S
O247 Dy243 2.310 . S
O247 C248 1.268 . S
C248 O246 1.254 . S
C248 O247 1.268 . S
C249 O254 1.254 . S
C249 O255 1.268 . S
O250 Dy243 2.351 . S
O250 C258 1.249 . S
O251 Dy240 2.326 . S
O251 C258 1.267 . S
O252 C241 1.185 . S
O252 Dy243 2.398 . S
O253 C241 1.355 . S
O253 Dy243 2.491 . S
O254 Dy243 2.403 . S
O254 C249 1.254 . S
O255 Dy240 2.310 . S
O255 Dy243 2.664 . S
O255 C249 1.268 . S
O256 Dy240 2.351 . S
O256 C259 1.249 . S
O257 Dy243 2.326 . S
O257 C259 1.267 . S
C258 O250 1.249 . S
C258 O251 1.267 . S
C259 O256 1.249 . S
C259 O257 1.267 . S
Dy260 O264 2.398 . S
Dy260 O265 2.491 . S
Dy260 O266 2.403 . S
Dy260 O267 2.664 . S
Dy260 O271 2.326 . S
Dy260 O275 2.310 . S
Dy260 O276 2.351 . S
C261 O272 1.185 . S
C261 O273 1.355 . S
C262 O264 1.185 . S
C262 O265 1.355 . S
Dy263 O267 2.310 . S
Dy263 O270 2.351 . S
Dy263 O272 2.398 . S
Dy263 O273 2.491 . S
Dy263 O274 2.403 . S
Dy263 O275 2.664 . S
Dy263 O277 2.326 . S
O264 Dy260 2.398 . S
O264 C262 1.185 . S
O265 Dy260 2.491 . S
O265 C262 1.355 . S
O266 Dy260 2.403 . S
O266 C268 1.254 . S
O267 Dy260 2.664 . S
O267 Dy263 2.310 . S
O267 C268 1.268 . S
C268 O266 1.254 . S
C268 O267 1.268 . S
C269 O274 1.254 . S
C269 O275 1.268 . S
O270 Dy263 2.351 . S
O270 C278 1.249 . S
O271 Dy260 2.326 . S
O271 C278 1.267 . S
O272 C261 1.185 . S
O272 Dy263 2.398 . S
O273 C261 1.355 . S
O273 Dy263 2.491 . S
O274 Dy263 2.403 . S
O274 C269 1.254 . S
O275 Dy260 2.310 . S
O275 Dy263 2.664 . S
O275 C269 1.268 . S
O276 Dy260 2.351 . S
O276 C279 1.249 . S
O277 Dy263 2.326 . S
O277 C279 1.267 . S
C278 O270 1.249 . S
C278 O271 1.267 . S
C279 O276 1.249 . S
C279 O277 1.267 . S
Dy280 O284 2.398 . S
Dy280 O285 2.491 . S
Dy280 O286 2.403 . S
Dy280 O287 2.664 . S
Dy280 O291 2.326 . S
Dy280 O295 2.310 . S
Dy280 O296 2.351 . S
C281 O292 1.185 . S
C281 O293 1.355 . S
C282 O284 1.185 . S
C282 O285 1.355 . S
Dy283 O287 2.310 . S
Dy283 O290 2.351 . S
Dy283 O292 2.398 . S
Dy283 O293 2.491 . S
Dy283 O294 2.403 . S
Dy283 O295 2.664 . S
Dy283 O297 2.326 . S
O284 Dy280 2.398 . S
O284 C282 1.185 . S
O285 Dy280 2.491 . S
O285 C282 1.355 . S
O286 Dy280 2.403 . S
O286 C288 1.254 . S
O287 Dy280 2.664 . S
O287 Dy283 2.310 . S
O287 C288 1.268 . S
C288 O286 1.254 . S
C288 O287 1.268 . S
C289 O294 1.254 . S
C289 O295 1.268 . S
O290 Dy283 2.351 . S
O290 C298 1.249 . S
O291 Dy280 2.326 . S
O291 C298 1.267 . S
O292 C281 1.185 . S
O292 Dy283 2.398 . S
O293 C281 1.355 . S
O293 Dy283 2.491 . S
O294 Dy283 2.403 . S
O294 C289 1.254 . S
O295 Dy280 2.310 . S
O295 Dy283 2.664 . S
O295 C289 1.268 . S
O296 Dy280 2.351 . S
O296 C299 1.249 . S
O297 Dy283 2.326 . S
O297 C299 1.267 . S
C298 O290 1.249 . S
C298 O291 1.267 . S
C299 O296 1.249 . S
C299 O297 1.267 . S
Dy300 O304 2.398 . S
Dy300 O305 2.491 . S
Dy300 O306 2.403 . S
Dy300 O307 2.664 . S
Dy300 O311 2.326 . S
Dy300 O315 2.310 . S
Dy300 O316 2.351 . S
C301 O312 1.185 . S
C301 O313 1.355 . S
C302 O304 1.185 . S
C302 O305 1.355 . S
Dy303 O307 2.310 . S
Dy303 O310 2.351 . S
Dy303 O312 2.398 . S
Dy303 O313 2.491 . S
Dy303 O314 2.403 . S
Dy303 O315 2.664 . S
Dy303 O317 2.326 . S
O304 Dy300 2.398 . S
O304 C302 1.185 . S
O305 Dy300 2.491 . S
O305 C302 1.355 . S
O306 Dy300 2.403 . S
O306 C308 1.254 . S
O307 Dy300 2.664 . S
O307 Dy303 2.310 . S
O307 C308 1.268 . S
C308 O306 1.254 . S
C308 O307 1.268 . S
C309 O314 1.254 . S
C309 O315 1.268 . S
O310 Dy303 2.351 . S
O310 C318 1.249 . S
O311 Dy300 2.326 . S
O311 C318 1.267 . S
O312 C301 1.185 . S
O312 Dy303 2.398 . S
O313 C301 1.355 . S
O313 Dy303 2.491 . S
O314 Dy303 2.403 . S
O314 C309 1.254 . S
O315 Dy300 2.310 . S
O315 Dy303 2.664 . S
O315 C309 1.268 . S
O316 Dy300 2.351 . S
O316 C319 1.249 . S
O317 Dy303 2.326 . S
O317 C319 1.267 . S
C318 O310 1.249 . S
C318 O311 1.267 . S
C319 O316 1.249 . S
C319 O317 1.267 . S
H320 C328 0.950 . S
H321 C333 0.950 . S
H322 C330 0.950 . S
H323 C332 0.950 . S
H324 C334 0.950 . S
H325 C336 0.950 . S
H326 C338 0.950 . S
H327 C339 0.950 . S
C328 H320 0.950 . S
C328 C329 1.386 . S
C328 C330 1.391 . S
C329 C328 1.386 . S
C329 C333 1.393 . S
C330 H322 0.950 . S
C330 C328 1.391 . S
C330 C331 1.400 . S
C331 C330 1.400 . S
C331 C332 1.398 . S
C331 C337 1.491 . S
C332 H323 0.950 . S
C332 C331 1.398 . S
C332 C333 1.391 . S
C333 H321 0.950 . S
C333 C329 1.393 . S
C333 C332 1.391 . S
C334 H324 0.950 . S
C334 C335 1.386 . S
C334 C336 1.391 . S
C335 C334 1.386 . S
C335 C339 1.393 . S
C336 H325 0.950 . S
C336 C334 1.391 . S
C336 C337 1.400 . S
C337 C331 1.491 . S
C337 C336 1.400 . S
C337 C338 1.398 . S
C338 H326 0.950 . S
C338 C337 1.398 . S
C338 C339 1.391 . S
C339 H327 0.950 . S
C339 C335 1.393 . S
C339 C338 1.391 . S
H340 C348 0.950 . S
H341 C353 0.950 . S
H342 C350 0.950 . S
H343 C352 0.950 . S
H344 C354 0.950 . S
H345 C356 0.950 . S
H346 C358 0.950 . S
H347 C359 0.950 . S
C348 H340 0.950 . S
C348 C349 1.386 . S
C348 C350 1.391 . S
C349 C348 1.386 . S
C349 C353 1.393 . S
C350 H342 0.950 . S
C350 C348 1.391 . S
C350 C351 1.400 . S
C351 C350 1.400 . S
C351 C352 1.398 . S
C351 C357 1.491 . S
C352 H343 0.950 . S
C352 C351 1.398 . S
C352 C353 1.391 . S
C353 H341 0.950 . S
C353 C349 1.393 . S
C353 C352 1.391 . S
C354 H344 0.950 . S
C354 C355 1.386 . S
C354 C356 1.391 . S
C355 C354 1.386 . S
C355 C359 1.393 . S
C356 H345 0.950 . S
C356 C354 1.391 . S
C356 C357 1.400 . S
C357 C351 1.491 . S
C357 C356 1.400 . S
C357 C358 1.398 . S
C358 H346 0.950 . S
C358 C357 1.398 . S
C358 C359 1.391 . S
C359 H347 0.950 . S
C359 C355 1.393 . S
C359 C358 1.391 . S
H360 C368 0.950 . S
H361 C373 0.950 . S
H362 C370 0.950 . S
H363 C372 0.950 . S
H364 C374 0.950 . S
H365 C376 0.950 . S
H366 C378 0.950 . S
H367 C379 0.950 . S
C368 H360 0.950 . S
C368 C369 1.386 . S
C368 C370 1.391 . S
C369 C368 1.386 . S
C369 C373 1.393 . S
C370 H362 0.950 . S
C370 C368 1.391 . S
C370 C371 1.400 . S
C371 C370 1.400 . S
C371 C372 1.398 . S
C371 C377 1.491 . S
C372 H363 0.950 . S
C372 C371 1.398 . S
C372 C373 1.391 . S
C373 H361 0.950 . S
C373 C369 1.393 . S
C373 C372 1.391 . S
C374 H364 0.950 . S
C374 C375 1.386 . S
C374 C376 1.391 . S
C375 C374 1.386 . S
C375 C379 1.393 . S
C376 H365 0.950 . S
C376 C374 1.391 . S
C376 C377 1.400 . S
C377 C371 1.491 . S
C377 C376 1.400 . S
C377 C378 1.398 . S
C378 H366 0.950 . S
C378 C377 1.398 . S
C378 C379 1.391 . S
C379 H367 0.950 . S
C379 C375 1.393 . S
C379 C378 1.391 . S
H380 C388 0.950 . S
H381 C393 0.950 . S
H382 C390 0.950 . S
H383 C392 0.950 . S
H384 C394 0.950 . S
H385 C396 0.950 . S
H386 C398 0.950 . S
H387 C399 0.950 . S
C388 H380 0.950 . S
C388 C389 1.386 . S
C388 C390 1.391 . S
C389 C388 1.386 . S
C389 C393 1.393 . S
C390 H382 0.950 . S
C390 C388 1.391 . S
C390 C391 1.400 . S
C391 C390 1.400 . S
C391 C392 1.398 . S
C391 C397 1.491 . S
C392 H383 0.950 . S
C392 C391 1.398 . S
C392 C393 1.391 . S
C393 H381 0.950 . S
C393 C389 1.393 . S
C393 C392 1.391 . S
C394 H384 0.950 . S
C394 C395 1.386 . S
C394 C396 1.391 . S
C395 C394 1.386 . S
C395 C399 1.393 . S
C396 H385 0.950 . S
C396 C394 1.391 . S
C396 C397 1.400 . S
C397 C391 1.491 . S
C397 C396 1.400 . S
C397 C398 1.398 . S
C398 H386 0.950 . S
C398 C397 1.398 . S
C398 C399 1.391 . S
C399 H387 0.950 . S
C399 C395 1.393 . S
C399 C398 1.391 . S
H400 C408 0.950 . S
H401 C413 0.950 . S
H402 C410 0.950 . S
H403 C412 0.950 . S
H404 C414 0.950 . S
H405 C416 0.950 . S
H406 C418 0.950 . S
H407 C419 0.950 . S
C408 H400 0.950 . S
C408 C409 1.386 . S
C408 C410 1.391 . S
C409 C408 1.386 . S
C409 C413 1.393 . S
C410 H402 0.950 . S
C410 C408 1.391 . S
C410 C411 1.400 . S
C411 C410 1.400 . S
C411 C412 1.398 . S
C411 C417 1.491 . S
C412 H403 0.950 . S
C412 C411 1.398 . S
C412 C413 1.391 . S
C413 H401 0.950 . S
C413 C409 1.393 . S
C413 C412 1.391 . S
C414 H404 0.950 . S
C414 C415 1.386 . S
C414 C416 1.391 . S
C415 C414 1.386 . S
C415 C419 1.393 . S
C416 H405 0.950 . S
C416 C414 1.391 . S
C416 C417 1.400 . S
C417 C411 1.491 . S
C417 C416 1.400 . S
C417 C418 1.398 . S
C418 H406 0.950 . S
C418 C417 1.398 . S
C418 C419 1.391 . S
C419 H407 0.950 . S
C419 C415 1.393 . S
C419 C418 1.391 . S
H420 C428 0.950 . S
H421 C433 0.950 . S
H422 C430 0.950 . S
H423 C432 0.950 . S
H424 C434 0.950 . S
H425 C436 0.950 . S
H426 C438 0.950 . S
H427 C439 0.950 . S
C428 H420 0.950 . S
C428 C429 1.386 . S
C428 C430 1.391 . S
C429 C428 1.386 . S
C429 C433 1.393 . S
C430 H422 0.950 . S
C430 C428 1.391 . S
C430 C431 1.400 . S
C431 C430 1.400 . S
C431 C432 1.398 . S
C431 C437 1.491 . S
C432 H423 0.950 . S
C432 C431 1.398 . S
C432 C433 1.391 . S
C433 H421 0.950 . S
C433 C429 1.393 . S
C433 C432 1.391 . S
C434 H424 0.950 . S
C434 C435 1.386 . S
C434 C436 1.391 . S
C435 C434 1.386 . S
C435 C439 1.393 . S
C436 H425 0.950 . S
C436 C434 1.391 . S
C436 C437 1.400 . S
C437 C431 1.491 . S
C437 C436 1.400 . S
C437 C438 1.398 . S
C438 H426 0.950 . S
C438 C437 1.398 . S
C438 C439 1.391 . S
C439 H427 0.950 . S
C439 C435 1.393 . S
C439 C438 1.391 . S
H440 C448 0.950 . S
H441 C453 0.950 . S
H442 C450 0.950 . S
H443 C452 0.950 . S
H444 C454 0.950 . S
H445 C456 0.950 . S
H446 C458 0.950 . S
H447 C459 0.950 . S
C448 H440 0.950 . S
C448 C449 1.386 . S
C448 C450 1.391 . S
C449 C448 1.386 . S
C449 C453 1.393 . S
C450 H442 0.950 . S
C450 C448 1.391 . S
C450 C451 1.400 . S
C451 C450 1.400 . S
C451 C452 1.398 . S
C451 C457 1.491 . S
C452 H443 0.950 . S
C452 C451 1.398 . S
C452 C453 1.391 . S
C453 H441 0.950 . S
C453 C449 1.393 . S
C453 C452 1.391 . S
C454 H444 0.950 . S
C454 C455 1.386 . S
C454 C456 1.391 . S
C455 C454 1.386 . S
C455 C459 1.393 . S
C456 H445 0.950 . S
C456 C454 1.391 . S
C456 C457 1.400 . S
C457 C451 1.491 . S
C457 C456 1.400 . S
C457 C458 1.398 . S
C458 H446 0.950 . S
C458 C457 1.398 . S
C458 C459 1.391 . S
C459 H447 0.950 . S
C459 C455 1.393 . S
C459 C458 1.391 . S
H460 C468 0.950 . S
H461 C473 0.950 . S
H462 C470 0.950 . S
H463 C472 0.950 . S
H464 C474 0.950 . S
H465 C476 0.950 . S
H466 C478 0.950 . S
H467 C479 0.950 . S
C468 H460 0.950 . S
C468 C469 1.386 . S
C468 C470 1.391 . S
C469 C468 1.386 . S
C469 C473 1.393 . S
C470 H462 0.950 . S
C470 C468 1.391 . S
C470 C471 1.400 . S
C471 C470 1.400 . S
C471 C472 1.398 . S
C471 C477 1.491 . S
C472 H463 0.950 . S
C472 C471 1.398 . S
C472 C473 1.391 . S
C473 H461 0.950 . S
C473 C469 1.393 . S
C473 C472 1.391 . S
C474 H464 0.950 . S
C474 C475 1.386 . S
C474 C476 1.391 . S
C475 C474 1.386 . S
C475 C479 1.393 . S
C476 H465 0.950 . S
C476 C474 1.391 . S
C476 C477 1.400 . S
C477 C471 1.491 . S
C477 C476 1.400 . S
C477 C478 1.398 . S
C478 H466 0.950 . S
C478 C477 1.398 . S
C478 C479 1.391 . S
C479 H467 0.950 . S
C479 C475 1.393 . S
C479 C478 1.391 . S
H480 C488 0.950 . S
H481 C493 0.950 . S
H482 C490 0.950 . S
H483 C492 0.950 . S
H484 C494 0.950 . S
H485 C496 0.950 . S
H486 C498 0.950 . S
H487 C499 0.950 . S
C488 H480 0.950 . S
C488 C489 1.386 . S
C488 C490 1.391 . S
C489 C488 1.386 . S
C489 C493 1.393 . S
C490 H482 0.950 . S
C490 C488 1.391 . S
C490 C491 1.400 . S
C491 C490 1.400 . S
C491 C492 1.398 . S
C491 C497 1.491 1_565 S
C492 H483 0.950 . S
C492 C491 1.398 . S
C492 C493 1.391 . S
C493 H481 0.950 . S
C493 C489 1.393 . S
C493 C492 1.391 . S
C494 H484 0.950 . S
C494 C495 1.386 . S
C494 C496 1.391 . S
C495 C494 1.386 . S
C495 C499 1.393 . S
C496 H485 0.950 . S
C496 C494 1.391 . S
C496 C497 1.400 . S
C497 C491 1.491 1_545 S
C497 C496 1.400 . S
C497 C498 1.398 . S
C498 H486 0.950 . S
C498 C497 1.398 . S
C498 C499 1.391 . S
C499 H487 0.950 . S
C499 C495 1.393 . S
C499 C498 1.391 . S
H500 C508 0.950 . S
H501 C513 0.950 . S
H502 C510 0.950 1_565 S
H503 C512 0.950 . S
H504 C514 0.950 . S
H505 C516 0.950 1_545 S
H506 C518 0.950 . S
H507 C519 0.950 . S
C508 H500 0.950 . S
C508 C509 1.386 . S
C508 C510 1.391 . S
C509 C508 1.386 . S
C509 C513 1.393 . S
C510 H502 0.950 1_545 S
C510 C508 1.391 . S
C510 C511 1.400 . S
C511 C510 1.400 . S
C511 C512 1.398 . S
C511 C517 1.491 1_545 S
C512 H503 0.950 . S
C512 C511 1.398 . S
C512 C513 1.391 . S
C513 H501 0.950 . S
C513 C509 1.393 . S
C513 C512 1.391 . S
C514 H504 0.950 . S
C514 C515 1.386 . S
C514 C516 1.391 . S
C515 C514 1.386 . S
C515 C519 1.393 . S
C516 H505 0.950 1_565 S
C516 C514 1.391 . S
C516 C517 1.400 . S
C517 C511 1.491 1_565 S
C517 C516 1.400 . S
C517 C518 1.398 . S
C518 H506 0.950 . S
C518 C517 1.398 . S
C518 C519 1.391 . S
C519 H507 0.950 . S
C519 C515 1.393 . S
C519 C518 1.391 . S
H520 C528 0.950 . S
H521 C533 0.950 . S
H522 C530 0.950 1_565 S
H523 C532 0.950 . S
H524 C534 0.950 . S
H525 C536 0.950 1_545 S
H526 C538 0.950 . S
H527 C539 0.950 . S
C528 H520 0.950 . S
C528 C529 1.386 . S
C528 C530 1.391 . S
C529 C528 1.386 . S
C529 C533 1.393 . S
C530 H522 0.950 1_545 S
C530 C528 1.391 . S
C530 C531 1.400 . S
C531 C530 1.400 . S
C531 C532 1.398 . S
C531 C537 1.491 1_545 S
C532 H523 0.950 . S
C532 C531 1.398 . S
C532 C533 1.391 . S
C533 H521 0.950 . S
C533 C529 1.393 . S
C533 C532 1.391 . S
C534 H524 0.950 . S
C534 C535 1.386 . S
C534 C536 1.391 . S
C535 C534 1.386 . S
C535 C539 1.393 . S
C536 H525 0.950 1_565 S
C536 C534 1.391 . S
C536 C537 1.400 . S
C537 C531 1.491 1_565 S
C537 C536 1.400 . S
C537 C538 1.398 . S
C538 H526 0.950 . S
C538 C537 1.398 . S
C538 C539 1.391 . S
C539 H527 0.950 . S
C539 C535 1.393 . S
C539 C538 1.391 . S
H540 C548 0.950 . S
H541 C553 0.950 1_565 S
H542 C550 0.950 . S
H543 C552 0.950 . S
H544 C554 0.950 . S
H545 C556 0.950 . S
H546 C558 0.950 . S
H547 C559 0.950 1_545 S
C548 H540 0.950 . S
C548 C549 1.386 . S
C548 C550 1.391 . S
C549 C548 1.386 . S
C549 C553 1.393 . S
C550 H542 0.950 . S
C550 C548 1.391 . S
C550 C551 1.400 . S
C551 C550 1.400 . S
C551 C552 1.398 1_545 S
C551 C557 1.491 1_545 S
C552 H543 0.950 . S
C552 C551 1.398 1_565 S
C552 C553 1.391 1_565 S
C553 H541 0.950 1_545 S
C553 C549 1.393 . S
C553 C552 1.391 1_545 S
C554 H544 0.950 . S
C554 C555 1.386 . S
C554 C556 1.391 . S
C555 C554 1.386 . S
C555 C559 1.393 . S
C556 H545 0.950 . S
C556 C554 1.391 . S
C556 C557 1.400 . S
C557 C551 1.491 1_565 S
C557 C556 1.400 . S
C557 C558 1.398 1_565 S
C558 H546 0.950 . S
C558 C557 1.398 1_545 S
C558 C559 1.391 1_545 S
C559 H547 0.950 1_565 S
C559 C555 1.393 . S
C559 C558 1.391 1_565 S
H560 C568 0.950 . S
H561 C573 0.950 . S
H562 C570 0.950 . S
H563 C572 0.950 . S
H564 C574 0.950 . S
H565 C576 0.950 . S
H566 C578 0.950 . S
H567 C579 0.950 . S
C568 H560 0.950 . S
C568 C569 1.386 . S
C568 C570 1.391 . S
C569 C568 1.386 . S
C569 C573 1.393 . S
C570 H562 0.950 . S
C570 C568 1.391 . S
C570 C571 1.400 . S
C571 C570 1.400 . S
C571 C572 1.398 . S
C571 C577 1.491 . S
C572 H563 0.950 . S
C572 C571 1.398 . S
C572 C573 1.391 . S
C573 H561 0.950 . S
C573 C569 1.393 . S
C573 C572 1.391 . S
C574 H564 0.950 . S
C574 C575 1.386 . S
C574 C576 1.391 . S
C575 C574 1.386 . S
C575 C579 1.393 . S
C576 H565 0.950 . S
C576 C574 1.391 . S
C576 C577 1.400 . S
C577 C571 1.491 . S
C577 C576 1.400 . S
C577 C578 1.398 . S
C578 H566 0.950 . S
C578 C577 1.398 . S
C578 C579 1.391 . S
C579 H567 0.950 . S
C579 C575 1.393 . S
C579 C578 1.391 . S
H580 C588 0.950 . S
H581 C593 0.950 . S
H582 C590 0.950 . S
H583 C592 0.950 . S
H584 C594 0.950 . S
H585 C596 0.950 . S
H586 C598 0.950 . S
H587 C599 0.950 . S
C588 H580 0.950 . S
C588 C589 1.386 . S
C588 C590 1.391 . S
C589 C588 1.386 . S
C589 C593 1.393 . S
C590 H582 0.950 . S
C590 C588 1.391 . S
C590 C591 1.400 . S
C591 C590 1.400 . S
C591 C592 1.398 . S
C591 C597 1.491 . S
C592 H583 0.950 . S
C592 C591 1.398 . S
C592 C593 1.391 . S
C593 H581 0.950 . S
C593 C589 1.393 . S
C593 C592 1.391 . S
C594 H584 0.950 . S
C594 C595 1.386 . S
C594 C596 1.391 . S
C595 C594 1.386 . S
C595 C599 1.393 . S
C596 H585 0.950 . S
C596 C594 1.391 . S
C596 C597 1.400 . S
C597 C591 1.491 . S
C597 C596 1.400 . S
C597 C598 1.398 . S
C598 H586 0.950 . S
C598 C597 1.398 . S
C598 C599 1.391 . S
C599 H587 0.950 . S
C599 C595 1.393 . S
C599 C598 1.391 . S
H600 C608 0.950 . S
H601 C613 0.950 . S
H602 C610 0.950 . S
H603 C612 0.950 . S
H604 C614 0.950 . S
H605 C616 0.950 . S
H606 C618 0.950 . S
H607 C619 0.950 . S
C608 H600 0.950 . S
C608 C609 1.386 . S
C608 C610 1.391 . S
C609 C608 1.386 . S
C609 C613 1.393 . S
C610 H602 0.950 . S
C610 C608 1.391 . S
C610 C611 1.400 . S
C611 C610 1.400 . S
C611 C612 1.398 . S
C611 C617 1.491 . S
C612 H603 0.950 . S
C612 C611 1.398 . S
C612 C613 1.391 . S
C613 H601 0.950 . S
C613 C609 1.393 . S
C613 C612 1.391 . S
C614 H604 0.950 . S
C614 C615 1.386 . S
C614 C616 1.391 . S
C615 C614 1.386 . S
C615 C619 1.393 . S
C616 H605 0.950 . S
C616 C614 1.391 . S
C616 C617 1.400 . S
C617 C611 1.491 . S
C617 C616 1.400 . S
C617 C618 1.398 . S
C618 H606 0.950 . S
C618 C617 1.398 . S
C618 C619 1.391 . S
C619 H607 0.950 . S
C619 C615 1.393 . S
C619 C618 1.391 . S
H620 C628 0.950 . S
H621 C633 0.950 . S
H622 C630 0.950 . S
H623 C632 0.950 . S
H624 C634 0.950 . S
H625 C636 0.950 . S
H626 C638 0.950 . S
H627 C639 0.950 . S
C628 H620 0.950 . S
C628 C629 1.386 . S
C628 C630 1.391 . S
C629 C628 1.386 . S
C629 C633 1.393 . S
C630 H622 0.950 . S
C630 C628 1.391 . S
C630 C631 1.400 . S
C631 C630 1.400 . S
C631 C632 1.398 . S
C631 C637 1.491 . S
C632 H623 0.950 . S
C632 C631 1.398 . S
C632 C633 1.391 . S
C633 H621 0.950 . S
C633 C629 1.393 . S
C633 C632 1.391 . S
C634 H624 0.950 . S
C634 C635 1.386 . S
C634 C636 1.391 . S
C635 C634 1.386 . S
C635 C639 1.393 . S
C636 H625 0.950 . S
C636 C634 1.391 . S
C636 C637 1.400 . S
C637 C631 1.491 . S
C637 C636 1.400 . S
C637 C638 1.398 . S
C638 H626 0.950 . S
C638 C637 1.398 . S
C638 C639 1.391 . S
C639 H627 0.950 . S
C639 C635 1.393 . S
C639 C638 1.391 . S
H640 C648 0.950 . S
H641 C653 0.950 . S
H642 C650 0.950 . S
H643 C652 0.950 . S
H644 C654 0.950 . S
H645 C656 0.950 . S
H646 C658 0.950 . S
H647 C659 0.950 . S
C648 H640 0.950 . S
C648 C649 1.386 . S
C648 C650 1.391 . S
C649 C648 1.386 . S
C649 C653 1.393 . S
C650 H642 0.950 . S
C650 C648 1.391 . S
C650 C651 1.400 . S
C651 C650 1.400 . S
C651 C652 1.398 . S
C651 C657 1.491 1_556 S
C652 H643 0.950 . S
C652 C651 1.398 . S
C652 C653 1.391 . S
C653 H641 0.950 . S
C653 C649 1.393 . S
C653 C652 1.391 . S
C654 H644 0.950 . S
C654 C655 1.386 . S
C654 C656 1.391 . S
C655 C654 1.386 . S
C655 C659 1.393 . S
C656 H645 0.950 . S
C656 C654 1.391 . S
C656 C657 1.400 . S
C657 C651 1.491 1_554 S
C657 C656 1.400 . S
C657 C658 1.398 . S
C658 H646 0.950 . S
C658 C657 1.398 . S
C658 C659 1.391 . S
C659 H647 0.950 . S
C659 C655 1.393 . S
C659 C658 1.391 . S
H660 C668 0.950 . S
H661 C673 0.950 . S
H662 C670 0.950 . S
H663 C672 0.950 . S
H664 C674 0.950 . S
H665 C676 0.950 . S
H666 C678 0.950 . S
H667 C679 0.950 . S
C668 H660 0.950 . S
C668 C669 1.386 . S
C668 C670 1.391 . S
C669 C668 1.386 . S
C669 C673 1.393 . S
C670 H662 0.950 . S
C670 C668 1.391 . S
C670 C671 1.400 . S
C671 C670 1.400 . S
C671 C672 1.398 . S
C671 C677 1.491 1_556 S
C672 H663 0.950 . S
C672 C671 1.398 . S
C672 C673 1.391 . S
C673 H661 0.950 . S
C673 C669 1.393 . S
C673 C672 1.391 . S
C674 H664 0.950 . S
C674 C675 1.386 . S
C674 C676 1.391 . S
C675 C674 1.386 . S
C675 C679 1.393 . S
C676 H665 0.950 . S
C676 C674 1.391 . S
C676 C677 1.400 . S
C677 C671 1.491 1_554 S
C677 C676 1.400 . S
C677 C678 1.398 . S
C678 H666 0.950 . S
C678 C677 1.398 . S
C678 C679 1.391 . S
C679 H667 0.950 . S
C679 C675 1.393 . S
C679 C678 1.391 . S
H680 C688 0.950 . S
H681 C693 0.950 . S
H682 C690 0.950 . S
H683 C692 0.950 . S
H684 C694 0.950 . S
H685 C696 0.950 . S
H686 C698 0.950 . S
H687 C699 0.950 . S
C688 H680 0.950 . S
C688 C689 1.386 . S
C688 C690 1.391 . S
C689 C688 1.386 . S
C689 C693 1.393 . S
C690 H682 0.950 . S
C690 C688 1.391 . S
C690 C691 1.400 . S
C691 C690 1.400 . S
C691 C692 1.398 . S
C691 C697 1.491 . S
C692 H683 0.950 . S
C692 C691 1.398 . S
C692 C693 1.391 . S
C693 H681 0.950 . S
C693 C689 1.393 . S
C693 C692 1.391 . S
C694 H684 0.950 . S
C694 C695 1.386 . S
C694 C696 1.391 . S
C695 C694 1.386 . S
C695 C699 1.393 . S
C696 H685 0.950 . S
C696 C694 1.391 . S
C696 C697 1.400 . S
C697 C691 1.491 . S
C697 C696 1.400 . S
C697 C698 1.398 . S
C698 H686 0.950 . S
C698 C697 1.398 . S
C698 C699 1.391 . S
C699 H687 0.950 . S
C699 C695 1.393 . S
C699 C698 1.391 . S
H700 C708 0.950 . S
H701 C713 0.950 . S
H702 C710 0.950 . S
H703 C712 0.950 . S
H704 C714 0.950 . S
H705 C716 0.950 . S
H706 C718 0.950 . S
H707 C719 0.950 . S
C708 H700 0.950 . S
C708 C709 1.386 . S
C708 C710 1.391 . S
C709 C708 1.386 . S
C709 C713 1.393 . S
C710 H702 0.950 . S
C710 C708 1.391 . S
C710 C711 1.400 . S
C711 C710 1.400 . S
C711 C712 1.398 . S
C711 C717 1.491 . S
C712 H703 0.950 . S
C712 C711 1.398 . S
C712 C713 1.391 . S
C713 H701 0.950 . S
C713 C709 1.393 . S
C713 C712 1.391 . S
C714 H704 0.950 . S
C714 C715 1.386 . S
C714 C716 1.391 . S
C715 C714 1.386 . S
C715 C719 1.393 . S
C716 H705 0.950 . S
C716 C714 1.391 . S
C716 C717 1.400 . S
C717 C711 1.491 . S
C717 C716 1.400 . S
C717 C718 1.398 . S
C718 H706 0.950 . S
C718 C717 1.398 . S
C718 C719 1.391 . S
C719 H707 0.950 . S
C719 C715 1.393 . S
C719 C718 1.391 . S
H720 C728 0.950 . S
H721 C733 0.950 . S
H722 C730 0.950 . S
H723 C732 0.950 . S
H724 C734 0.950 . S
H725 C736 0.950 . S
H726 C738 0.950 . S
H727 C739 0.950 . S
C728 H720 0.950 . S
C728 C729 1.386 . S
C728 C730 1.391 . S
C729 C728 1.386 . S
C729 C733 1.393 . S
C730 H722 0.950 . S
C730 C728 1.391 . S
C730 C731 1.400 . S
C731 C730 1.400 . S
C731 C732 1.398 . S
C731 C737 1.491 1_554 S
C732 H723 0.950 . S
C732 C731 1.398 . S
C732 C733 1.391 . S
C733 H721 0.950 . S
C733 C729 1.393 . S
C733 C732 1.391 . S
C734 H724 0.950 . S
C734 C735 1.386 . S
C734 C736 1.391 . S
C735 C734 1.386 . S
C735 C739 1.393 . S
C736 H725 0.950 . S
C736 C734 1.391 . S
C736 C737 1.400 . S
C737 C731 1.491 1_556 S
C737 C736 1.400 . S
C737 C738 1.398 . S
C738 H726 0.950 . S
C738 C737 1.398 . S
C738 C739 1.391 . S
C739 H727 0.950 . S
C739 C735 1.393 . S
C739 C738 1.391 . S
H740 C748 0.950 . S
H741 C753 0.950 . S
H742 C750 0.950 . S
H743 C752 0.950 . S
H744 C754 0.950 . S
H745 C756 0.950 . S
H746 C758 0.950 . S
H747 C759 0.950 . S
C748 H740 0.950 . S
C748 C749 1.386 . S
C748 C750 1.391 . S
C749 C748 1.386 . S
C749 C753 1.393 . S
C750 H742 0.950 . S
C750 C748 1.391 . S
C750 C751 1.400 . S
C751 C750 1.400 . S
C751 C752 1.398 . S
C751 C757 1.491 1_556 S
C752 H743 0.950 . S
C752 C751 1.398 . S
C752 C753 1.391 . S
C753 H741 0.950 . S
C753 C749 1.393 . S
C753 C752 1.391 . S
C754 H744 0.950 . S
C754 C755 1.386 . S
C754 C756 1.391 . S
C755 C754 1.386 . S
C755 C759 1.393 . S
C756 H745 0.950 . S
C756 C754 1.391 . S
C756 C757 1.400 . S
C757 C751 1.491 1_554 S
C757 C756 1.400 . S
C757 C758 1.398 . S
C758 H746 0.950 . S
C758 C757 1.398 . S
C758 C759 1.391 . S
C759 H747 0.950 . S
C759 C755 1.393 . S
C759 C758 1.391 . S
H760 C768 0.950 . S
H761 C773 0.950 . S
H762 C770 0.950 . S
H763 C772 0.950 . S
H764 C774 0.950 . S
H765 C776 0.950 . S
H766 C778 0.950 . S
H767 C779 0.950 . S
C768 H760 0.950 . S
C768 C769 1.386 . S
C768 C770 1.391 . S
C769 C768 1.386 . S
C769 C773 1.393 . S
C770 H762 0.950 . S
C770 C768 1.391 . S
C770 C771 1.400 . S
C771 C770 1.400 . S
C771 C772 1.398 . S
C771 C777 1.491 . S
C772 H763 0.950 . S
C772 C771 1.398 . S
C772 C773 1.391 . S
C773 H761 0.950 . S
C773 C769 1.393 . S
C773 C772 1.391 . S
C774 H764 0.950 . S
C774 C775 1.386 . S
C774 C776 1.391 . S
C775 C774 1.386 . S
C775 C779 1.393 . S
C776 H765 0.950 . S
C776 C774 1.391 . S
C776 C777 1.400 . S
C777 C771 1.491 . S
C777 C776 1.400 . S
C777 C778 1.398 . S
C778 H766 0.950 . S
C778 C777 1.398 . S
C778 C779 1.391 . S
C779 H767 0.950 . S
C779 C775 1.393 . S
C779 C778 1.391 . S
H780 C788 0.950 . S
H781 C793 0.950 . S
H782 C790 0.950 . S
H783 C792 0.950 . S
H784 C794 0.950 . S
H785 C796 0.950 . S
H786 C798 0.950 . S
H787 C799 0.950 . S
C788 H780 0.950 . S
C788 C789 1.386 . S
C788 C790 1.391 . S
C789 C788 1.386 . S
C789 C793 1.393 . S
C790 H782 0.950 . S
C790 C788 1.391 . S
C790 C791 1.400 . S
C791 C790 1.400 . S
C791 C792 1.398 . S
C791 C797 1.491 . S
C792 H783 0.950 . S
C792 C791 1.398 . S
C792 C793 1.391 . S
C793 H781 0.950 . S
C793 C789 1.393 . S
C793 C792 1.391 . S
C794 H784 0.950 . S
C794 C795 1.386 . S
C794 C796 1.391 . S
C795 C794 1.386 . S
C795 C799 1.393 . S
C796 H785 0.950 . S
C796 C794 1.391 . S
C796 C797 1.400 . S
C797 C791 1.491 . S
C797 C796 1.400 . S
C797 C798 1.398 . S
C798 H786 0.950 . S
C798 C797 1.398 . S
C798 C799 1.391 . S
C799 H787 0.950 . S
C799 C795 1.393 . S
C799 C798 1.391 . S
H800 C808 0.950 . S
H801 C813 0.950 . S
H802 C810 0.950 . S
H803 C812 0.950 . S
H804 C814 0.950 . S
H805 C816 0.950 . S
H806 C818 0.950 . S
H807 C819 0.950 . S
C808 H800 0.950 . S
C808 C809 1.386 1_545 S
C808 C810 1.391 . S
C809 C808 1.386 1_565 S
C809 C813 1.393 . S
C810 H802 0.950 . S
C810 C808 1.391 . S
C810 C811 1.400 1_545 S
C811 C810 1.400 1_565 S
C811 C812 1.398 . S
C811 C817 1.491 1_665 S
C812 H803 0.950 . S
C812 C811 1.398 . S
C812 C813 1.391 . S
C813 H801 0.950 . S
C813 C809 1.393 . S
C813 C812 1.391 . S
C814 H804 0.950 . S
C814 C815 1.386 1_565 S
C814 C816 1.391 . S
C815 C814 1.386 1_545 S
C815 C819 1.393 . S
C816 H805 0.950 . S
C816 C814 1.391 . S
C816 C817 1.400 1_565 S
C817 C811 1.491 1_445 S
C817 C816 1.400 1_545 S
C817 C818 1.398 . S
C818 H806 0.950 . S
C818 C817 1.398 . S
C818 C819 1.391 . S
C819 H807 0.950 . S
C819 C815 1.393 . S
C819 C818 1.391 . S
H820 C828 0.950 . S
H821 C833 0.950 . S
H822 C830 0.950 . S
H823 C832 0.950 . S
H824 C834 0.950 . S
H825 C836 0.950 . S
H826 C838 0.950 . S
H827 C839 0.950 . S
C828 H820 0.950 . S
C828 C829 1.386 . S
C828 C830 1.391 . S
C829 C828 1.386 . S
C829 C833 1.393 1_545 S
C830 H822 0.950 . S
C830 C828 1.391 . S
C830 C831 1.400 . S
C831 C830 1.400 . S
C831 C832 1.398 1_545 S
C831 C837 1.491 1_645 S
C832 H823 0.950 . S
C832 C831 1.398 1_565 S
C832 C833 1.391 . S
C833 H821 0.950 . S
C833 C829 1.393 1_565 S
C833 C832 1.391 . S
C834 H824 0.950 . S
C834 C835 1.386 . S
C834 C836 1.391 . S
C835 C834 1.386 . S
C835 C839 1.393 1_565 S
C836 H825 0.950 . S
C836 C834 1.391 . S
C836 C837 1.400 . S
C837 C831 1.491 1_465 S
C837 C836 1.400 . S
C837 C838 1.398 1_565 S
C838 H826 0.950 . S
C838 C837 1.398 1_545 S
C838 C839 1.391 . S
C839 H827 0.950 . S
C839 C835 1.393 1_545 S
C839 C838 1.391 . S
H840 C848 0.950 . S
H841 C853 0.950 . S
H842 C850 0.950 . S
H843 C852 0.950 . S
H844 C854 0.950 . S
H845 C856 0.950 . S
H846 C858 0.950 . S
H847 C859 0.950 . S
C848 H840 0.950 . S
C848 C849 1.386 1_565 S
C848 C850 1.391 . S
C849 C848 1.386 1_545 S
C849 C853 1.393 . S
C850 H842 0.950 . S
C850 C848 1.391 . S
C850 C851 1.400 1_565 S
C851 C850 1.400 1_545 S
C851 C852 1.398 . S
C851 C857 1.491 1_445 S
C852 H843 0.950 . S
C852 C851 1.398 . S
C852 C853 1.391 . S
C853 H841 0.950 . S
C853 C849 1.393 . S
C853 C852 1.391 . S
C854 H844 0.950 . S
C854 C855 1.386 1_545 S
C854 C856 1.391 . S
C855 C854 1.386 1_565 S
C855 C859 1.393 . S
C856 H845 0.950 . S
C856 C854 1.391 . S
C856 C857 1.400 1_545 S
C857 C851 1.491 1_665 S
C857 C856 1.400 1_565 S
C857 C858 1.398 . S
C858 H846 0.950 . S
C858 C857 1.398 . S
C858 C859 1.391 . S
C859 H847 0.950 . S
C859 C855 1.393 . S
C859 C858 1.391 . S
H860 C868 0.950 . S
H861 C873 0.950 . S
H862 C870 0.950 . S
H863 C872 0.950 . S
H864 C874 0.950 . S
H865 C876 0.950 . S
H866 C878 0.950 . S
H867 C879 0.950 . S
C868 H860 0.950 . S
C868 C869 1.386 1_565 S
C868 C870 1.391 . S
C869 C868 1.386 1_545 S
C869 C873 1.393 . S
C870 H862 0.950 . S
C870 C868 1.391 . S
C870 C871 1.400 1_565 S
C871 C870 1.400 1_545 S
C871 C872 1.398 . S
C871 C877 1.491 1_645 S
C872 H863 0.950 . S
C872 C871 1.398 . S
C872 C873 1.391 . S
C873 H861 0.950 . S
C873 C869 1.393 . S
C873 C872 1.391 . S
C874 H864 0.950 . S
C874 C875 1.386 1_545 S
C874 C876 1.391 . S
C875 C874 1.386 1_565 S
C875 C879 1.393 . S
C876 H865 0.950 . S
C876 C874 1.391 . S
C876 C877 1.400 1_545 S
C877 C871 1.491 1_465 S
C877 C876 1.400 1_565 S
C877 C878 1.398 . S
C878 H866 0.950 . S
C878 C877 1.398 . S
C878 C879 1.391 . S
C879 H867 0.950 . S
C879 C875 1.393 . S
C879 C878 1.391 . S
H880 C888 0.950 . S
H881 C893 0.950 . S
H882 C890 0.950 . S
H883 C892 0.950 . S
H884 C894 0.950 . S
H885 C896 0.950 . S
H886 C898 0.950 . S
H887 C899 0.950 . S
C888 H880 0.950 . S
C888 C889 1.386 . S
C888 C890 1.391 . S
C889 C888 1.386 . S
C889 C893 1.393 . S
C890 H882 0.950 . S
C890 C888 1.391 . S
C890 C891 1.400 . S
C891 C890 1.400 . S
C891 C892 1.398 . S
C891 C897 1.491 . S
C892 H883 0.950 . S
C892 C891 1.398 . S
C892 C893 1.391 . S
C893 H881 0.950 . S
C893 C889 1.393 . S
C893 C892 1.391 . S
C894 H884 0.950 . S
C894 C895 1.386 . S
C894 C896 1.391 . S
C895 C894 1.386 . S
C895 C899 1.393 . S
C896 H885 0.950 . S
C896 C894 1.391 . S
C896 C897 1.400 . S
C897 C891 1.491 . S
C897 C896 1.400 . S
C897 C898 1.398 . S
C898 H886 0.950 . S
C898 C897 1.398 . S
C898 C899 1.391 . S
C899 H887 0.950 . S
C899 C895 1.393 . S
C899 C898 1.391 . S
H900 C908 0.950 . S
H901 C913 0.950 . S
H902 C910 0.950 . S
H903 C912 0.950 . S
H904 C914 0.950 . S
H905 C916 0.950 . S
H906 C918 0.950 . S
H907 C919 0.950 . S
C908 H900 0.950 . S
C908 C909 1.386 . S
C908 C910 1.391 . S
C909 C908 1.386 . S
C909 C913 1.393 . S
C910 H902 0.950 . S
C910 C908 1.391 . S
C910 C911 1.400 . S
C911 C910 1.400 . S
C911 C912 1.398 . S
C911 C917 1.491 . S
C912 H903 0.950 . S
C912 C911 1.398 . S
C912 C913 1.391 . S
C913 H901 0.950 . S
C913 C909 1.393 . S
C913 C912 1.391 . S
C914 H904 0.950 . S
C914 C915 1.386 . S
C914 C916 1.391 . S
C915 C914 1.386 . S
C915 C919 1.393 . S
C916 H905 0.950 . S
C916 C914 1.391 . S
C916 C917 1.400 . S
C917 C911 1.491 . S
C917 C916 1.400 . S
C917 C918 1.398 . S
C918 H906 0.950 . S
C918 C917 1.398 . S
C918 C919 1.391 . S
C919 H907 0.950 . S
C919 C915 1.393 . S
C919 C918 1.391 . S
H920 C928 0.950 . S
H921 C933 0.950 . S
H922 C930 0.950 . S
H923 C932 0.950 . S
H924 C934 0.950 . S
H925 C936 0.950 . S
H926 C938 0.950 . S
H927 C939 0.950 . S
C928 H920 0.950 . S
C928 C929 1.386 . S
C928 C930 1.391 . S
C929 C928 1.386 . S
C929 C933 1.393 . S
C930 H922 0.950 . S
C930 C928 1.391 . S
C930 C931 1.400 . S
C931 C930 1.400 . S
C931 C932 1.398 . S
C931 C937 1.491 . S
C932 H923 0.950 . S
C932 C931 1.398 . S
C932 C933 1.391 . S
C933 H921 0.950 . S
C933 C929 1.393 . S
C933 C932 1.391 . S
C934 H924 0.950 . S
C934 C935 1.386 . S
C934 C936 1.391 . S
C935 C934 1.386 . S
C935 C939 1.393 . S
C936 H925 0.950 . S
C936 C934 1.391 . S
C936 C937 1.400 . S
C937 C931 1.491 . S
C937 C936 1.400 . S
C937 C938 1.398 . S
C938 H926 0.950 . S
C938 C937 1.398 . S
C938 C939 1.391 . S
C939 H927 0.950 . S
C939 C935 1.393 . S
C939 C938 1.391 . S
H940 C948 0.950 . S
H941 C953 0.950 . S
H942 C950 0.950 . S
H943 C952 0.950 . S
H944 C954 0.950 . S
H945 C956 0.950 . S
H946 C958 0.950 . S
H947 C959 0.950 . S
C948 H940 0.950 . S
C948 C949 1.386 . S
C948 C950 1.391 . S
C949 C948 1.386 . S
C949 C953 1.393 . S
C950 H942 0.950 . S
C950 C948 1.391 . S
C950 C951 1.400 . S
C951 C950 1.400 . S
C951 C952 1.398 . S
C951 C957 1.491 . S
C952 H943 0.950 . S
C952 C951 1.398 . S
C952 C953 1.391 . S
C953 H941 0.950 . S
C953 C949 1.393 . S
C953 C952 1.391 . S
C954 H944 0.950 . S
C954 C955 1.386 . S
C954 C956 1.391 . S
C955 C954 1.386 . S
C955 C959 1.393 . S
C956 H945 0.950 . S
C956 C954 1.391 . S
C956 C957 1.400 . S
C957 C951 1.491 . S
C957 C956 1.400 . S
C957 C958 1.398 . S
C958 H946 0.950 . S
C958 C957 1.398 . S
C958 C959 1.391 . S
C959 H947 0.950 . S
C959 C955 1.393 . S
C959 C958 1.391 . S
H960 C968 0.950 . S
H961 C973 0.950 . S
H962 C970 0.950 . S
H963 C972 0.950 . S
H964 C974 0.950 . S
H965 C976 0.950 . S
H966 C978 0.950 . S
H967 C979 0.950 . S
C968 H960 0.950 . S
C968 C969 1.386 . S
C968 C970 1.391 . S
C969 C968 1.386 . S
C969 C973 1.393 . S
C970 H962 0.950 . S
C970 C968 1.391 . S
C970 C971 1.400 . S
C971 C970 1.400 . S
C971 C972 1.398 . S
C971 C977 1.491 . S
C972 H963 0.950 . S
C972 C971 1.398 . S
C972 C973 1.391 . S
C973 H961 0.950 . S
C973 C969 1.393 . S
C973 C972 1.391 . S
C974 H964 0.950 . S
C974 C975 1.386 . S
C974 C976 1.391 . S
C975 C974 1.386 . S
C975 C979 1.393 . S
C976 H965 0.950 . S
C976 C974 1.391 . S
C976 C977 1.400 . S
C977 C971 1.491 . S
C977 C976 1.400 . S
C977 C978 1.398 . S
C978 H966 0.950 . S
C978 C977 1.398 . S
C978 C979 1.391 . S
C979 H967 0.950 . S
C979 C975 1.393 . S
C979 C978 1.391 . S
H980 C988 0.950 . S
H981 C993 0.950 . S
H982 C990 0.950 . S
H983 C992 0.950 . S
H984 C994 0.950 . S
H985 C996 0.950 . S
H986 C998 0.950 . S
H987 C999 0.950 . S
C988 H980 0.950 . S
C988 C989 1.386 . S
C988 C990 1.391 . S
C989 C988 1.386 . S
C989 C993 1.393 . S
C990 H982 0.950 . S
C990 C988 1.391 . S
C990 C991 1.400 . S
C991 C990 1.400 . S
C991 C992 1.398 . S
C991 C997 1.491 . S
C992 H983 0.950 . S
C992 C991 1.398 . S
C992 C993 1.391 . S
C993 H981 0.950 . S
C993 C989 1.393 . S
C993 C992 1.391 . S
C994 H984 0.950 . S
C994 C995 1.386 . S
C994 C996 1.391 . S
C995 C994 1.386 . S
C995 C999 1.393 . S
C996 H985 0.950 . S
C996 C994 1.391 . S
C996 C997 1.400 . S
C997 C991 1.491 . S
C997 C996 1.400 . S
C997 C998 1.398 . S
C998 H986 0.950 . S
C998 C997 1.398 . S
C998 C999 1.391 . S
C999 H987 0.950 . S
C999 C995 1.393 . S
C999 C998 1.391 . S
H1000 C1008 0.950 . S
H1001 C1013 0.950 . S
H1002 C1010 0.950 . S
H1003 C1012 0.950 . S
H1004 C1014 0.950 . S
H1005 C1016 0.950 . S
H1006 C1018 0.950 . S
H1007 C1019 0.950 . S
C1008 H1000 0.950 . S
C1008 C1009 1.386 . S
C1008 C1010 1.391 . S
C1009 C1008 1.386 . S
C1009 C1013 1.393 . S
C1010 H1002 0.950 . S
C1010 C1008 1.391 . S
C1010 C1011 1.400 . S
C1011 C1010 1.400 . S
C1011 C1012 1.398 . S
C1011 C1017 1.491 . S
C1012 H1003 0.950 . S
C1012 C1011 1.398 . S
C1012 C1013 1.391 . S
C1013 H1001 0.950 . S
C1013 C1009 1.393 . S
C1013 C1012 1.391 . S
C1014 H1004 0.950 . S
C1014 C1015 1.386 . S
C1014 C1016 1.391 . S
C1015 C1014 1.386 . S
C1015 C1019 1.393 . S
C1016 H1005 0.950 . S
C1016 C1014 1.391 . S
C1016 C1017 1.400 . S
C1017 C1011 1.491 . S
C1017 C1016 1.400 . S
C1017 C1018 1.398 . S
C1018 H1006 0.950 . S
C1018 C1017 1.398 . S
C1018 C1019 1.391 . S
C1019 H1007 0.950 . S
C1019 C1015 1.393 . S
C1019 C1018 1.391 . S
H1020 C1028 0.950 . S
H1021 C1033 0.950 . S
H1022 C1030 0.950 . S
H1023 C1032 0.950 . S
H1024 C1034 0.950 . S
H1025 C1036 0.950 . S
H1026 C1038 0.950 . S
H1027 C1039 0.950 . S
C1028 H1020 0.950 . S
C1028 C1029 1.386 . S
C1028 C1030 1.391 . S
C1029 C1028 1.386 . S
C1029 C1033 1.393 . S
C1030 H1022 0.950 . S
C1030 C1028 1.391 . S
C1030 C1031 1.400 . S
C1031 C1030 1.400 . S
C1031 C1032 1.398 . S
C1031 C1037 1.491 . S
C1032 H1023 0.950 . S
C1032 C1031 1.398 . S
C1032 C1033 1.391 . S
C1033 H1021 0.950 . S
C1033 C1029 1.393 . S
C1033 C1032 1.391 . S
C1034 H1024 0.950 . S
C1034 C1035 1.386 . S
C1034 C1036 1.391 . S
C1035 C1034 1.386 . S
C1035 C1039 1.393 . S
C1036 H1025 0.950 . S
C1036 C1034 1.391 . S
C1036 C1037 1.400 . S
C1037 C1031 1.491 . S
C1037 C1036 1.400 . S
C1037 C1038 1.398 . S
C1038 H1026 0.950 . S
C1038 C1037 1.398 . S
C1038 C1039 1.391 . S
C1039 H1027 0.950 . S
C1039 C1035 1.393 . S
C1039 C1038 1.391 . S
H1040 C1048 0.950 . S
H1041 C1053 0.950 . S
H1042 C1050 0.950 . S
H1043 C1052 0.950 . S
H1044 C1054 0.950 . S
H1045 C1056 0.950 . S
H1046 C1058 0.950 . S
H1047 C1059 0.950 . S
C1048 H1040 0.950 . S
C1048 C1049 1.386 . S
C1048 C1050 1.391 . S
C1049 C1048 1.386 . S
C1049 C1053 1.393 . S
C1050 H1042 0.950 . S
C1050 C1048 1.391 . S
C1050 C1051 1.400 . S
C1051 C1050 1.400 . S
C1051 C1052 1.398 . S
C1051 C1057 1.491 . S
C1052 H1043 0.950 . S
C1052 C1051 1.398 . S
C1052 C1053 1.391 . S
C1053 H1041 0.950 . S
C1053 C1049 1.393 . S
C1053 C1052 1.391 . S
C1054 H1044 0.950 . S
C1054 C1055 1.386 . S
C1054 C1056 1.391 . S
C1055 C1054 1.386 . S
C1055 C1059 1.393 . S
C1056 H1045 0.950 . S
C1056 C1054 1.391 . S
C1056 C1057 1.400 . S
C1057 C1051 1.491 . S
C1057 C1056 1.400 . S
C1057 C1058 1.398 . S
C1058 H1046 0.950 . S
C1058 C1057 1.398 . S
C1058 C1059 1.391 . S
C1059 H1047 0.950 . S
C1059 C1055 1.393 . S
C1059 C1058 1.391 . S
H1060 C1068 0.950 . S
H1061 C1073 0.950 . S
H1062 C1070 0.950 . S
H1063 C1072 0.950 . S
H1064 C1074 0.950 . S
H1065 C1076 0.950 . S
H1066 C1078 0.950 . S
H1067 C1079 0.950 . S
C1068 H1060 0.950 . S
C1068 C1069 1.386 . S
C1068 C1070 1.391 . S
C1069 C1068 1.386 . S
C1069 C1073 1.393 . S
C1070 H1062 0.950 . S
C1070 C1068 1.391 . S
C1070 C1071 1.400 . S
C1071 C1070 1.400 . S
C1071 C1072 1.398 . S
C1071 C1077 1.491 . S
C1072 H1063 0.950 . S
C1072 C1071 1.398 . S
C1072 C1073 1.391 . S
C1073 H1061 0.950 . S
C1073 C1069 1.393 . S
C1073 C1072 1.391 . S
C1074 H1064 0.950 . S
C1074 C1075 1.386 . S
C1074 C1076 1.391 . S
C1075 C1074 1.386 . S
C1075 C1079 1.393 . S
C1076 H1065 0.950 . S
C1076 C1074 1.391 . S
C1076 C1077 1.400 . S
C1077 C1071 1.491 . S
C1077 C1076 1.400 . S
C1077 C1078 1.398 . S
C1078 H1066 0.950 . S
C1078 C1077 1.398 . S
C1078 C1079 1.391 . S
C1079 H1067 0.950 . S
C1079 C1075 1.393 . S
C1079 C1078 1.391 . S
H1080 C1088 0.950 . S
H1081 C1093 0.950 . S
H1082 C1090 0.950 . S
H1083 C1092 0.950 . S
H1084 C1094 0.950 . S
H1085 C1096 0.950 . S
H1086 C1098 0.950 . S
H1087 C1099 0.950 . S
C1088 H1080 0.950 . S
C1088 C1089 1.386 . S
C1088 C1090 1.391 . S
C1089 C1088 1.386 . S
C1089 C1093 1.393 . S
C1090 H1082 0.950 . S
C1090 C1088 1.391 . S
C1090 C1091 1.400 . S
C1091 C1090 1.400 . S
C1091 C1092 1.398 . S
C1091 C1097 1.491 . S
C1092 H1083 0.950 . S
C1092 C1091 1.398 . S
C1092 C1093 1.391 . S
C1093 H1081 0.950 . S
C1093 C1089 1.393 . S
C1093 C1092 1.391 . S
C1094 H1084 0.950 . S
C1094 C1095 1.386 . S
C1094 C1096 1.391 . S
C1095 C1094 1.386 . S
C1095 C1099 1.393 . S
C1096 H1085 0.950 . S
C1096 C1094 1.391 . S
C1096 C1097 1.400 . S
C1097 C1091 1.491 . S
C1097 C1096 1.400 . S
C1097 C1098 1.398 . S
C1098 H1086 0.950 . S
C1098 C1097 1.398 . S
C1098 C1099 1.391 . S
C1099 H1087 0.950 . S
C1099 C1095 1.393 . S
C1099 C1098 1.391 . S
H1100 C1108 0.950 . S
H1101 C1113 0.950 . S
H1102 C1110 0.950 . S
H1103 C1112 0.950 . S
H1104 C1114 0.950 . S
H1105 C1116 0.950 . S
H1106 C1118 0.950 . S
H1107 C1119 0.950 . S
C1108 H1100 0.950 . S
C1108 C1109 1.386 . S
C1108 C1110 1.391 . S
C1109 C1108 1.386 . S
C1109 C1113 1.393 . S
C1110 H1102 0.950 . S
C1110 C1108 1.391 . S
C1110 C1111 1.400 . S
C1111 C1110 1.400 . S
C1111 C1112 1.398 . S
C1111 C1117 1.491 . S
C1112 H1103 0.950 . S
C1112 C1111 1.398 . S
C1112 C1113 1.391 . S
C1113 H1101 0.950 . S
C1113 C1109 1.393 . S
C1113 C1112 1.391 . S
C1114 H1104 0.950 . S
C1114 C1115 1.386 . S
C1114 C1116 1.391 . S
C1115 C1114 1.386 . S
C1115 C1119 1.393 . S
C1116 H1105 0.950 . S
C1116 C1114 1.391 . S
C1116 C1117 1.400 . S
C1117 C1111 1.491 . S
C1117 C1116 1.400 . S
C1117 C1118 1.398 . S
C1118 H1106 0.950 . S
C1118 C1117 1.398 . S
C1118 C1119 1.391 . S
C1119 H1107 0.950 . S
C1119 C1115 1.393 . S
C1119 C1118 1.391 . S
H1120 C1128 0.950 . S
H1121 C1133 0.950 . S
H1122 C1130 0.950 . S
H1123 C1132 0.950 . S
H1124 C1134 0.950 . S
H1125 C1136 0.950 . S
H1126 C1138 0.950 . S
H1127 C1139 0.950 . S
C1128 H1120 0.950 . S
C1128 C1129 1.386 . S
C1128 C1130 1.391 1_565 S
C1129 C1128 1.386 . S
C1129 C1133 1.393 . S
C1130 H1122 0.950 . S
C1130 C1128 1.391 1_545 S
C1130 C1131 1.400 . S
C1131 C1130 1.400 . S
C1131 C1132 1.398 . S
C1131 C1137 1.491 . S
C1132 H1123 0.950 . S
C1132 C1131 1.398 . S
C1132 C1133 1.391 1_545 S
C1133 H1121 0.950 . S
C1133 C1129 1.393 . S
C1133 C1132 1.391 1_565 S
C1134 H1124 0.950 . S
C1134 C1135 1.386 . S
C1134 C1136 1.391 . S
C1135 C1134 1.386 . S
C1135 C1139 1.393 . S
C1136 H1125 0.950 . S
C1136 C1134 1.391 . S
C1136 C1137 1.400 . S
C1137 C1131 1.491 . S
C1137 C1136 1.400 . S
C1137 C1138 1.398 . S
C1138 H1126 0.950 . S
C1138 C1137 1.398 . S
C1138 C1139 1.391 . S
C1139 H1127 0.950 . S
C1139 C1135 1.393 . S
C1139 C1138 1.391 . S
H1140 C1148 0.950 . S
H1141 C1153 0.950 . S
H1142 C1150 0.950 . S
H1143 C1152 0.950 . S
H1144 C1154 0.950 . S
H1145 C1156 0.950 . S
H1146 C1158 0.950 . S
H1147 C1159 0.950 . S
C1148 H1140 0.950 . S
C1148 C1149 1.386 . S
C1148 C1150 1.391 . S
C1149 C1148 1.386 . S
C1149 C1153 1.393 . S
C1150 H1142 0.950 . S
C1150 C1148 1.391 . S
C1150 C1151 1.400 . S
C1151 C1150 1.400 . S
C1151 C1152 1.398 . S
C1151 C1157 1.491 . S
C1152 H1143 0.950 . S
C1152 C1151 1.398 . S
C1152 C1153 1.391 . S
C1153 H1141 0.950 . S
C1153 C1149 1.393 . S
C1153 C1152 1.391 . S
C1154 H1144 0.950 . S
C1154 C1155 1.386 . S
C1154 C1156 1.391 1_545 S
C1155 C1154 1.386 . S
C1155 C1159 1.393 . S
C1156 H1145 0.950 . S
C1156 C1154 1.391 1_565 S
C1156 C1157 1.400 . S
C1157 C1151 1.491 . S
C1157 C1156 1.400 . S
C1157 C1158 1.398 . S
C1158 H1146 0.950 . S
C1158 C1157 1.398 . S
C1158 C1159 1.391 1_565 S
C1159 H1147 0.950 . S
C1159 C1155 1.393 . S
C1159 C1158 1.391 1_545 S
H1160 C1168 0.950 . S
H1161 C1173 0.950 . S
H1162 C1170 0.950 . S
H1163 C1172 0.950 . S
H1164 C1174 0.950 . S
H1165 C1176 0.950 . S
H1166 C1178 0.950 . S
H1167 C1179 0.950 . S
C1168 H1160 0.950 . S
C1168 C1169 1.386 . S
C1168 C1170 1.391 1_545 S
C1169 C1168 1.386 . S
C1169 C1173 1.393 . S
C1170 H1162 0.950 . S
C1170 C1168 1.391 1_565 S
C1170 C1171 1.400 . S
C1171 C1170 1.400 . S
C1171 C1172 1.398 . S
C1171 C1177 1.491 . S
C1172 H1163 0.950 . S
C1172 C1171 1.398 . S
C1172 C1173 1.391 1_565 S
C1173 H1161 0.950 . S
C1173 C1169 1.393 . S
C1173 C1172 1.391 1_545 S
C1174 H1164 0.950 . S
C1174 C1175 1.386 . S
C1174 C1176 1.391 . S
C1175 C1174 1.386 . S
C1175 C1179 1.393 . S
C1176 H1165 0.950 . S
C1176 C1174 1.391 . S
C1176 C1177 1.400 . S
C1177 C1171 1.491 . S
C1177 C1176 1.400 . S
C1177 C1178 1.398 . S
C1178 H1166 0.950 . S
C1178 C1177 1.398 . S
C1178 C1179 1.391 . S
C1179 H1167 0.950 . S
C1179 C1175 1.393 . S
C1179 C1178 1.391 . S
H1180 C1188 0.950 . S
H1181 C1193 0.950 . S
H1182 C1190 0.950 . S
H1183 C1192 0.950 . S
H1184 C1194 0.950 . S
H1185 C1196 0.950 . S
H1186 C1198 0.950 . S
H1187 C1199 0.950 . S
C1188 H1180 0.950 . S
C1188 C1189 1.386 . S
C1188 C1190 1.391 1_565 S
C1189 C1188 1.386 . S
C1189 C1193 1.393 . S
C1190 H1182 0.950 . S
C1190 C1188 1.391 1_545 S
C1190 C1191 1.400 . S
C1191 C1190 1.400 . S
C1191 C1192 1.398 . S
C1191 C1197 1.491 . S
C1192 H1183 0.950 . S
C1192 C1191 1.398 . S
C1192 C1193 1.391 1_545 S
C1193 H1181 0.950 . S
C1193 C1189 1.393 . S
C1193 C1192 1.391 1_565 S
C1194 H1184 0.950 . S
C1194 C1195 1.386 . S
C1194 C1196 1.391 . S
C1195 C1194 1.386 . S
C1195 C1199 1.393 . S
C1196 H1185 0.950 . S
C1196 C1194 1.391 . S
C1196 C1197 1.400 . S
C1197 C1191 1.491 . S
C1197 C1196 1.400 . S
C1197 C1198 1.398 . S
C1198 H1186 0.950 . S
C1198 C1197 1.398 . S
C1198 C1199 1.391 . S
C1199 H1187 0.950 . S
C1199 C1195 1.393 . S
C1199 C1198 1.391 . S
H1200 C1208 0.950 . S
H1201 C1213 0.950 . S
H1202 C1210 0.950 . S
H1203 C1212 0.950 . S
H1204 C1214 0.950 . S
H1205 C1216 0.950 . S
H1206 C1218 0.950 . S
H1207 C1219 0.950 . S
C1208 H1200 0.950 . S
C1208 C1209 1.386 . S
C1208 C1210 1.391 . S
C1209 C1208 1.386 . S
C1209 C1213 1.393 . S
C1210 H1202 0.950 . S
C1210 C1208 1.391 . S
C1210 C1211 1.400 . S
C1211 C1210 1.400 . S
C1211 C1212 1.398 . S
C1211 C1217 1.491 . S
C1212 H1203 0.950 . S
C1212 C1211 1.398 . S
C1212 C1213 1.391 . S
C1213 H1201 0.950 . S
C1213 C1209 1.393 . S
C1213 C1212 1.391 . S
C1214 H1204 0.950 . S
C1214 C1215 1.386 . S
C1214 C1216 1.391 1_545 S
C1215 C1214 1.386 . S
C1215 C1219 1.393 . S
C1216 H1205 0.950 . S
C1216 C1214 1.391 1_565 S
C1216 C1217 1.400 . S
C1217 C1211 1.491 . S
C1217 C1216 1.400 . S
C1217 C1218 1.398 . S
C1218 H1206 0.950 . S
C1218 C1217 1.398 . S
C1218 C1219 1.391 1_565 S
C1219 H1207 0.950 . S
C1219 C1215 1.393 . S
C1219 C1218 1.391 1_545 S
H1220 C1228 0.950 . S
H1221 C1233 0.950 . S
H1222 C1230 0.950 . S
H1223 C1232 0.950 . S
H1224 C1234 0.950 . S
H1225 C1236 0.950 . S
H1226 C1238 0.950 . S
H1227 C1239 0.950 . S
C1228 H1220 0.950 . S
C1228 C1229 1.386 . S
C1228 C1230 1.391 . S
C1229 C1228 1.386 . S
C1229 C1233 1.393 . S
C1230 H1222 0.950 . S
C1230 C1228 1.391 . S
C1230 C1231 1.400 . S
C1231 C1230 1.400 . S
C1231 C1232 1.398 . S
C1231 C1237 1.491 . S
C1232 H1223 0.950 . S
C1232 C1231 1.398 . S
C1232 C1233 1.391 . S
C1233 H1221 0.950 . S
C1233 C1229 1.393 . S
C1233 C1232 1.391 . S
C1234 H1224 0.950 . S
C1234 C1235 1.386 . S
C1234 C1236 1.391 1_565 S
C1235 C1234 1.386 . S
C1235 C1239 1.393 . S
C1236 H1225 0.950 . S
C1236 C1234 1.391 1_545 S
C1236 C1237 1.400 . S
C1237 C1231 1.491 . S
C1237 C1236 1.400 . S
C1237 C1238 1.398 . S
C1238 H1226 0.950 . S
C1238 C1237 1.398 . S
C1238 C1239 1.391 1_545 S
C1239 H1227 0.950 . S
C1239 C1235 1.393 . S
C1239 C1238 1.391 1_565 S
H1240 C1248 0.950 . S
H1241 C1253 0.950 . S
H1242 C1250 0.950 . S
H1243 C1252 0.950 . S
H1244 C1254 0.950 . S
H1245 C1256 0.950 . S
H1246 C1258 0.950 . S
H1247 C1259 0.950 . S
C1248 H1240 0.950 . S
C1248 C1249 1.386 . S
C1248 C1250 1.391 1_565 S
C1249 C1248 1.386 . S
C1249 C1253 1.393 . S
C1250 H1242 0.950 . S
C1250 C1248 1.391 1_545 S
C1250 C1251 1.400 . S
C1251 C1250 1.400 . S
C1251 C1252 1.398 . S
C1251 C1257 1.491 . S
C1252 H1243 0.950 . S
C1252 C1251 1.398 . S
C1252 C1253 1.391 1_545 S
C1253 H1241 0.950 . S
C1253 C1249 1.393 . S
C1253 C1252 1.391 1_565 S
C1254 H1244 0.950 . S
C1254 C1255 1.386 . S
C1254 C1256 1.391 . S
C1255 C1254 1.386 . S
C1255 C1259 1.393 . S
C1256 H1245 0.950 . S
C1256 C1254 1.391 . S
C1256 C1257 1.400 . S
C1257 C1251 1.491 . S
C1257 C1256 1.400 . S
C1257 C1258 1.398 . S
C1258 H1246 0.950 . S
C1258 C1257 1.398 . S
C1258 C1259 1.391 . S
C1259 H1247 0.950 . S
C1259 C1255 1.393 . S
C1259 C1258 1.391 . S
H1260 C1268 0.950 . S
H1261 C1273 0.950 . S
H1262 C1270 0.950 . S
H1263 C1272 0.950 . S
H1264 C1274 0.950 . S
H1265 C1276 0.950 . S
H1266 C1278 0.950 . S
H1267 C1279 0.950 . S
C1268 H1260 0.950 . S
C1268 C1269 1.386 . S
C1268 C1270 1.391 . S
C1269 C1268 1.386 . S
C1269 C1273 1.393 . S
C1270 H1262 0.950 . S
C1270 C1268 1.391 . S
C1270 C1271 1.400 . S
C1271 C1270 1.400 . S
C1271 C1272 1.398 . S
C1271 C1277 1.491 . S
C1272 H1263 0.950 . S
C1272 C1271 1.398 . S
C1272 C1273 1.391 . S
C1273 H1261 0.950 . S
C1273 C1269 1.393 . S
C1273 C1272 1.391 . S
C1274 H1264 0.950 . S
C1274 C1275 1.386 . S
C1274 C1276 1.391 1_545 S
C1275 C1274 1.386 . S
C1275 C1279 1.393 . S
C1276 H1265 0.950 . S
C1276 C1274 1.391 1_565 S
C1276 C1277 1.400 . S
C1277 C1271 1.491 . S
C1277 C1276 1.400 . S
C1277 C1278 1.398 . S
C1278 H1266 0.950 . S
C1278 C1277 1.398 . S
C1278 C1279 1.391 1_565 S
C1279 H1267 0.950 . S
C1279 C1275 1.393 . S
C1279 C1278 1.391 1_545 S
C329 C19 1.503 . S
C335 C199 1.511 . S
C349 C39 1.503 . S
C355 C179 1.513 . S
C369 C239 1.509 . S
C375 C59 1.504 . S
C389 C79 1.503 . S
C395 C219 1.512 . S
C409 C278 1.514 . S
C415 C98 1.504 . S
C429 C258 1.510 . S
C435 C118 1.514 . S
C449 C318 1.507 . S
C455 C138 1.515 . S
C469 C158 1.505 . S
C475 C298 1.515 . S
C489 C49 1.570 . S
C495 C9 1.572 . S
C509 C69 1.571 . S
C515 C29 1.570 . S
C529 C128 1.570 . S
C535 C88 1.572 . S
C549 C108 1.577 . S
C555 C148 1.569 . S
C569 C209 1.574 . S
C575 C169 1.581 . S
C589 C229 1.574 . S
C595 C189 1.581 . S
C609 C248 1.569 . S
C615 C288 1.578 . S
C629 C268 1.581 . S
C635 C308 1.577 . S
C649 C109 1.481 . S
C655 C8 1.496 . S
C669 C89 1.483 . S
C675 C28 1.494 . S
C689 C48 1.480 . S
C695 C149 1.497 . S
C709 C129 1.479 . S
C715 C68 1.498 . S
C729 C168 1.479 . S
C735 C269 1.498 . S
C749 C249 1.500 . S
C755 C188 1.477 . S
C769 C208 1.478 . S
C775 C309 1.499 . S
C789 C289 1.494 . S
C795 C228 1.483 . S
C809 C38 1.577 . S
C815 C18 1.570 . S
C829 C78 1.584 . S
C835 C58 1.590 . S
C849 C119 1.571 . S
C855 C99 1.579 . S
C869 C139 1.569 . S
C875 C159 1.576 . S
C889 C198 1.587 . S
C895 C178 1.579 . S
C909 C238 1.580 . S
C915 C218 1.588 . S
C929 C259 1.571 . S
C935 C279 1.580 . S
C949 C299 1.587 . S
C955 C319 1.578 . S
C969 C2 1.638 . S
C975 C1 1.638 . S
C989 C22 1.624 . S
C995 C21 1.624 . S
C1009 C42 1.633 . S
C1015 C41 1.633 . S
C1029 C61 1.623 . S
C1035 C62 1.623 . S
C1049 C81 1.645 . S
C1055 C82 1.645 . S
C1069 C102 1.624 . S
C1075 C101 1.624 . S
C1089 C121 1.640 . S
C1095 C122 1.640 . S
C1109 C141 1.644 . S
C1115 C142 1.644 . S
C1129 C161 1.632 . S
C1135 C162 1.632 . S
C1149 C182 1.640 . S
C1155 C181 1.640 . S
C1169 C201 1.624 . S
C1175 C202 1.624 . S
C1189 C221 1.643 . S
C1195 C222 1.643 . S
C1209 C241 1.623 . S
C1215 C242 1.623 . S
C1229 C261 1.625 . S
C1235 C262 1.625 . S
C1249 C282 1.634 . S
C1255 C281 1.634 . S
C1269 C301 1.644 . S
C1275 C302 1.644 . S
