# Generated by pormake.
# Topology reo, (8)-cn, num edge types: 1
# Building blocks:
#     Node 0, Type 0, BuildingBlock: VETTIZ_charged_sbu_0, # of connection points: 8
#     Node 1, Type 0, BuildingBlock: VETTIZ_charged_sbu_0, # of connection points: 8
#     Node 2, Type 0, BuildingBlock: VETTIZ_charged_sbu_0, # of connection points: 8
#     Edge 3, Type (0, 0), BuildingBlock: TEMPAE_clean_linker_10, # of connection points: 2
#     Edge 4, Type (0, 0), BuildingBlock: TEMPAE_clean_linker_10, # of connection points: 2
#     Edge 5, Type (0, 0), BuildingBlock: TEMPAE_clean_linker_10, # of connection points: 2
#     Edge 6, Type (0, 0), BuildingBlock: TEMPAE_clean_linker_10, # of connection points: 2
#     Edge 7, Type (0, 0), BuildingBlock: TEMPAE_clean_linker_10, # of connection points: 2
#     Edge 8, Type (0, 0), BuildingBlock: TEMPAE_clean_linker_10, # of connection points: 2
#     Edge 9, Type (0, 0), BuildingBlock: TEMPAE_clean_linker_10, # of connection points: 2
#     Edge 10, Type (0, 0), BuildingBlock: TEMPAE_clean_linker_10, # of connection points: 2
#     Edge 11, Type (0, 0), BuildingBlock: TEMPAE_clean_linker_10, # of connection points: 2
#     Edge 12, Type (0, 0), BuildingBlock: TEMPAE_clean_linker_10, # of connection points: 2
#     Edge 13, Type (0, 0), BuildingBlock: TEMPAE_clean_linker_10, # of connection points: 2
#     Edge 14, Type (0, 0), BuildingBlock: TEMPAE_clean_linker_10, # of connection points: 2
# Relax obj value: 0.145
# Max RMSD: 0.165
# Mean RMSD: 0.165
data_MOF--net-reo--node1-VETTIZ_charged_sbu_0--edge1-TEMPAE_clean_linker_10
_symmetry_space_group_name_H-M    P1
_symmetry_Int_Tables_number       1
_symmetry_cell_setting            triclinic
loop_
_symmetry_equiv_pos_as_xyz
'x, y, z'
_cell_length_a     24.03702
_cell_length_b     24.00907
_cell_length_c     23.998414
_cell_angle_alpha  89.224464
_cell_angle_beta   89.345897
_cell_angle_gamma 89.423308
loop_
_atom_site_label
_atom_site_type_symbol
_atom_site_fract_x
_atom_site_fract_y
_atom_site_fract_z
_atom_type_partial_charge
Fe0 Fe 0.0022 0.01229 0.43449 0.0
O1 O 0.94268 0.00963 0.49315 0.0
Fe2 Fe 0.10372 0.92272 0.48761 0.0
Fe3 Fe 0.89086 0.07209 0.50631 0.0
O4 O 0.05214 0.98598 0.49551 0.0
O5 O 0.05188 0.98515 0.50079 0.0
O6 O 0.94242 0.0088 0.49843 0.0
Fe7 Fe 0.99237 0.98249 0.55945 0.0
C8 C 0.98688 0.13247 0.44471 0.0
O9 O 0.94065 0.03853 0.37755 0.0
O10 O 0.86064 0.04633 0.43144 0.0
O11 O 0.97397 0.90218 0.5402 0.0
O12 O 0.05902 0.86637 0.53596 0.0
O13 O 0.0679 0.89367 0.41607 0.0
O14 O 0.98378 0.93276 0.41246 0.0
O15 O 0.85061 0.01589 0.55817 0.0
O16 O 0.9222 0.98194 0.61304 0.0
C17 C 0.01897 0.89648 0.39646 0.0
O18 O 0.05394 0.95626 0.61639 0.0
O19 O 0.13393 0.94847 0.56247 0.0
O20 O 0.02061 0.0926 0.45376 0.0
O21 O 0.93557 0.12842 0.45795 0.0
C22 C 0.88672 0.04288 0.38385 0.0
C23 C 0.86966 0.98927 0.60156 0.0
C24 C 0.97561 0.09833 0.59744 0.0
O25 O 0.92668 0.10115 0.57784 0.0
O26 O 0.01079 0.06203 0.58147 0.0
C27 C 0.00772 0.86231 0.54924 0.0
O28 O 0.14395 0.97893 0.43577 0.0
O29 O 0.07236 0.01286 0.3809 0.0
C30 C 0.10787 0.95191 0.61008 0.0
C31 C 0.1249 0.00556 0.39238 0.0
Fe32 Fe 0.43477 0.00212 0.0112 0.0
O33 O 0.4935 0.94275 0.00974 0.0
Fe34 Fe 0.48834 0.10348 0.92127 0.0
Fe35 Fe 0.50619 0.89122 0.07277 0.0
O36 O 0.4958 0.05222 0.98514 0.0
O37 O 0.50105 0.05194 0.98429 0.0
O38 O 0.49875 0.94247 0.00888 0.0
Fe39 Fe 0.55979 0.99257 0.98282 0.0
C40 C 0.44376 0.98739 0.13174 0.0
O41 O 0.37787 0.94044 0.03727 0.0
O42 O 0.43176 0.86056 0.04643 0.0
O43 O 0.54157 0.97365 0.90234 0.0
O44 O 0.53724 0.05863 0.86579 0.0
O45 O 0.41724 0.06721 0.89178 0.0
O46 O 0.41368 0.98316 0.93152 0.0
O47 O 0.55853 0.85083 0.01742 0.0
O48 O 0.61345 0.92254 0.98348 0.0
C49 C 0.39778 0.01815 0.89483 0.0
O50 O 0.61669 0.05428 0.95676 0.0
O51 O 0.56276 0.13413 0.94762 0.0
O52 O 0.45301 0.02105 0.09168 0.0
O53 O 0.45729 0.93608 0.12824 0.0
C54 C 0.38424 0.88649 0.04213 0.0
C55 C 0.602 0.86993 0.99103 0.0
C56 C 0.59674 0.97656 0.09922 0.0
O57 O 0.57728 0.92749 0.10228 0.0
O58 O 0.58086 0.01153 0.06251 0.0
C59 C 0.5508 0.00733 0.86228 0.0
O60 O 0.43601 0.14387 0.97663 0.0
O61 O 0.3811 0.07215 0.01056 0.0
C62 C 0.6103 0.10823 0.95191 0.0
C63 C 0.39256 0.12476 0.00303 0.0
Fe64 Fe 0.01148 0.4348 0.00213 0.0
O65 O 0.98592 0.49609 0.05196 0.0
Fe66 Fe 0.07222 0.5059 0.89039 0.0
Fe67 Fe 0.92243 0.48878 0.10358 0.0
O68 O 0.00971 0.49338 0.94236 0.0
O69 O 0.00872 0.49861 0.942 0.0
O70 O 0.98493 0.50131 0.0516 0.0
Fe71 Fe 0.98316 0.5599 0.99183 0.0
C72 C 0.89532 0.39802 0.01886 0.0
O73 O 0.01115 0.38132 0.07252 0.0
O74 O 0.97794 0.4366 0.14403 0.0
O75 O 0.06289 0.58079 0.01031 0.0
O76 O 0.10203 0.5772 0.92608 0.0
O77 O 0.12786 0.45714 0.93529 0.0
O78 O 0.09207 0.45287 0.02055 0.0
O79 O 0.949 0.56344 0.1336 0.0
O80 O 0.95771 0.61713 0.05329 0.0
C81 C 0.13178 0.44365 0.98665 0.0
O82 O 0.98351 0.61338 0.92143 0.0
O83 O 0.01674 0.55809 0.84993 0.0
O84 O 0.93176 0.41389 0.98365 0.0
O85 O 0.89264 0.41746 0.0679 0.0
C86 C 0.00409 0.39303 0.12509 0.0
C87 C 0.95312 0.61095 0.10731 0.0
C88 C 0.86285 0.55104 0.00734 0.0
O89 O 0.86678 0.53752 0.05869 0.0
O90 O 0.90256 0.54185 0.97342 0.0
C91 C 0.09935 0.59664 0.97512 0.0
O92 O 0.04566 0.43122 0.86036 0.0
O93 O 0.03693 0.37757 0.94069 0.0
C94 C 0.99059 0.60167 0.86886 0.0
C95 C 0.04153 0.38373 0.88667 0.0
C96 C 0.01132 0.29598 0.16258 0.0
C97 C 0.02318 0.3526 0.16757 0.0
C98 C 0.01643 0.25966 0.20867 0.0
C99 C 0.03488 0.28059 0.26021 0.0
C100 C 0.05259 0.33644 0.26338 0.0
C101 C 0.0458 0.37202 0.21716 0.0
C102 C -0.00297 0.20036 0.20361 0.0
C103 C 0.07417 0.35991 0.31692 0.0
C104 C 0.96457 0.2172 0.38761 0.0
C105 C 0.00379 0.17717 0.40494 0.0
C106 C 0.97505 0.25202 0.34148 0.0
C107 C 0.02642 0.24738 0.31229 0.0
C108 C 0.06779 0.20978 0.33173 0.0
C109 C 0.05594 0.17497 0.37781 0.0
C110 C 0.92981 0.29177 0.32225 0.0
C111 C 0.12341 0.20426 0.30233 0.0
H112 H 0.99375 0.28108 0.12419 0.0
H113 H 0.05569 0.4158 0.22064 0.0
H114 H 0.02741 0.17096 0.22269 0.0
H115 H 0.95693 0.19541 0.22647 0.0
H116 H 0.99082 0.18862 0.15951 0.0
H117 H 0.09562 0.40021 0.30981 0.0
H118 H 0.03889 0.36694 0.34628 0.0
H119 H 0.10347 0.33018 0.33722 0.0
H120 H 0.92433 0.2195 0.40835 0.0
H121 H 0.08668 0.14425 0.3908 0.0
H122 H 0.91651 0.28063 0.27972 0.0
H123 H 0.94582 0.33492 0.32003 0.0
H124 H 0.89275 0.29115 0.35032 0.0
H125 H 0.14107 0.24589 0.29287 0.0
H126 H 0.1179 0.18293 0.26208 0.0
H127 H 0.15381 0.17973 0.32743 0.0
C128 C 0.86884 0.01914 0.28402 0.0
C129 C 0.8513 0.04383 0.33392 0.0
C130 C 0.8316 0.01321 0.23976 0.0
C131 C 0.77601 0.0326 0.24589 0.0
C132 C 0.75951 0.06107 0.2946 0.0
C133 C 0.79735 0.06642 0.33787 0.0
C134 C 0.85081 0.98395 0.18761 0.0
C135 C 0.7007 0.08262 0.30271 0.0
C136 C 0.67273 0.04073 0.12757 0.0
C137 C 0.64267 0.99149 0.13653 0.0
C138 C 0.71776 0.05395 0.16152 0.0
C139 C 0.7329 0.01708 0.20538 0.0
C140 C 0.70319 0.96705 0.21414 0.0
C141 C 0.65851 0.95487 0.17963 0.0
C142 C 0.74872 0.10749 0.15079 0.0
C143 C 0.71779 0.92685 0.26087 0.0
H144 H 0.91066 0.00211 0.28054 0.0
H145 H 0.78387 0.08679 0.37582 0.0
H146 H 0.82615 0.94569 0.18179 0.0
H147 H 0.84366 0.01126 0.15068 0.0
H148 H 0.89562 0.97225 0.18893 0.0
H149 H 0.69615 0.10851 0.34054 0.0
H150 H 0.68753 0.10786 0.26604 0.0
H151 H 0.67186 0.04695 0.30674 0.0
H152 H 0.6613 0.06891 0.09383 0.0
H153 H 0.6358 0.91661 0.18671 0.0
H154 H 0.79288 0.09802 0.14049 0.0
H155 H 0.74832 0.13332 0.18877 0.0
H156 H 0.7305 0.13234 0.11603 0.0
H157 H 0.76225 0.91438 0.25767 0.0
H158 H 0.69209 0.88866 0.26054 0.0
H159 H 0.71163 0.94747 0.30161 0.0
C160 C 0.95531 0.86791 0.32013 0.0
C161 C 0.00438 0.85921 0.35039 0.0
C162 C 0.94232 0.83384 0.27511 0.0
C163 C 0.97926 0.79014 0.26021 0.0
C164 C 0.02916 0.78171 0.29007 0.0
C165 C 0.04111 0.81634 0.33471 0.0
C166 C 0.88895 0.84426 0.24394 0.0
C167 C 0.06942 0.73516 0.27574 0.0
C168 C 0.93003 0.65718 0.19669 0.0
C169 C 0.95255 0.66093 0.14258 0.0
C170 C 0.93541 0.70064 0.23427 0.0
C171 C 0.96386 0.74933 0.21734 0.0
C172 C 0.9833 0.75521 0.16162 0.0
C173 C 0.97733 0.71077 0.12465 0.0
C174 C 0.91382 0.6928 0.29324 0.0
C175 C 0.01257 0.80733 0.14198 0.0
H176 H 0.92707 0.9015 0.33141 0.0
H177 H 0.07925 0.80947 0.35758 0.0
H178 H 0.89863 0.85519 0.19986 0.0
H179 H 0.86347 0.80599 0.24383 0.0
H180 H 0.86371 0.8785 0.26238 0.0
H181 H 0.10751 0.73579 0.3015 0.0
H182 H 0.04888 0.69434 0.28215 0.0
H183 H 0.08196 0.73824 0.2312 0.0
H184 H 0.90959 0.61929 0.21049 0.0
H185 H 0.99431 0.7141 0.08271 0.0
H186 H 0.88841 0.72935 0.30605 0.0
H187 H 0.94941 0.6893 0.32218 0.0
H188 H 0.88814 0.6548 0.29817 0.0
H189 H 0.98528 0.84419 0.14883 0.0
H190 H 0.02435 0.80577 0.09712 0.0
H191 H 0.05074 0.81342 0.16664 0.0
C192 C 0.37682 0.05659 0.17357 0.0
C193 C 0.40377 0.00434 0.17608 0.0
C194 C 0.33083 0.06858 0.20825 0.0
C195 C 0.31125 0.02725 0.24601 0.0
C196 C 0.34013 0.97571 0.25083 0.0
C197 C 0.38619 0.9651 0.21617 0.0
C198 C 0.30177 0.12438 0.20251 0.0
C199 C 0.32073 0.93047 0.29071 0.0
C200 C 0.21694 0.04705 0.37094 0.0
C201 C 0.16717 0.02468 0.35174 0.0
C202 C 0.26297 0.05365 0.33518 0.0
C203 C 0.25942 0.03599 0.27936 0.0
C204 C 0.20773 0.0178 0.25864 0.0
C205 C 0.16184 0.01289 0.29514 0.0
C206 C 0.31667 0.07498 0.35845 0.0
C207 C 0.20225 -0.00157 0.1994 0.0
H208 H 0.38997 0.08733 0.14278 0.0
H209 H 0.40674 0.92476 0.2187 0.0
H210 H 0.26137 0.11898 0.18146 0.0
H211 H 0.29275 0.14221 0.2441 0.0
H212 H 0.32681 0.15464 0.17765 0.0
H213 H 0.34845 0.89317 0.29009 0.0
H214 H 0.31885 0.94643 0.33385 0.0
H215 H 0.27811 0.91747 0.27969 0.0
H216 H 0.22072 0.05686 0.41471 0.0
H217 H 0.12333 0.99549 0.28039 0.0
H218 H 0.33698 0.10423 0.32856 0.0
H219 H 0.3458 0.0395 0.3655 0.0
H220 H 0.30991 0.09646 0.39872 0.0
H221 H 0.22145 0.02869 0.16984 0.0
H222 H 0.1581 0.99255 0.18777 0.0
H223 H 0.22468 0.95811 0.19455 0.0
C224 C 0.03009 0.7776 0.60633 0.0
C225 C 0.99084 0.81761 0.58902 0.0
C226 C 0.01965 0.74277 0.65247 0.0
C227 C 0.96829 0.74738 0.68168 0.0
C228 C 0.9269 0.78497 0.66227 0.0
C229 C 0.93871 0.81978 0.61618 0.0
C230 C 0.06492 0.70304 0.67168 0.0
C231 C 0.87129 0.79045 0.69169 0.0
C232 C 0.94894 0.62271 0.77678 0.0
C233 C 0.97154 0.64211 0.82638 0.0
C234 C 0.94217 0.6583 0.73056 0.0
C235 C 0.95986 0.71414 0.73376 0.0
C236 C 0.97831 0.73507 0.7853 0.0
C237 C 0.98341 0.69873 0.83139 0.0
C238 C 0.9206 0.63483 0.67701 0.0
C239 C -0.00229 0.79436 0.79037 0.0
H240 H 0.07032 0.77531 0.58557 0.0
H241 H 0.90795 0.85049 0.6032 0.0
H242 H 0.07823 0.71419 0.7142 0.0
H243 H 0.04893 0.65989 0.67389 0.0
H244 H 0.10197 0.70369 0.64359 0.0
H245 H 0.8409 0.81506 0.66667 0.0
H246 H 0.85361 0.74881 0.70104 0.0
H247 H 0.87682 0.81166 0.732 0.0
H248 H 0.93905 0.57892 0.77328 0.0
H249 H 0.00096 0.71363 0.86979 0.0
H250 H 0.95589 0.62784 0.64765 0.0
H251 H 0.89129 0.66456 0.65672 0.0
H252 H 0.89917 0.59452 0.6841 0.0
H253 H 0.0378 0.79932 0.76751 0.0
H254 H 0.00392 0.80609 0.83448 0.0
H255 H 0.96733 0.82376 0.7713 0.0
C256 C 0.32208 0.95375 0.86619 0.0
C257 C 0.35184 0.00324 0.85753 0.0
C258 C 0.27706 0.94052 0.83222 0.0
C259 C 0.26161 0.97763 0.78866 0.0
C260 C 0.29099 0.02791 0.78023 0.0
C261 C 0.33567 0.04008 0.81474 0.0
C262 C 0.24647 0.8867 0.84256 0.0
C263 C 0.27607 0.06836 0.73384 0.0
C264 C 0.19744 0.92876 0.65586 0.0
C265 C 0.14333 0.95094 0.65999 0.0
C266 C 0.23527 0.9341 0.69915 0.0
C267 C 0.21858 0.96211 0.74806 0.0
C268 C 0.16287 0.98109 0.75434 0.0
C269 C 0.12565 0.97521 0.71005 0.0
C270 C 0.29422 0.91304 0.69085 0.0
C271 C 0.14349 0.00986 0.80671 0.0
H272 H 0.33376 0.92538 0.89967 0.0
H273 H 0.35813 0.07854 0.8079 0.0
H274 H 0.2022 0.89578 0.85273 0.0
H275 H 0.24723 0.86108 0.80444 0.0
H276 H 0.26475 0.86181 0.87726 0.0
H277 H 0.30151 0.10672 0.73444 0.0
H278 H 0.28232 0.0481 0.69292 0.0
H279 H 0.23153 0.08051 0.73718 0.0
H280 H 0.21105 0.90871 0.61779 0.0
H281 H 0.08373 0.99193 0.71367 0.0
H282 H 0.30761 0.88763 0.72732 0.0
H283 H 0.32279 0.94896 0.68706 0.0
H284 H 0.29895 0.88747 0.65281 0.0
H285 H 0.09861 0.02128 0.80548 0.0
H286 H 0.1679 0.04825 0.81279 0.0
H287 H 0.15084 0.98234 0.84345 0.0
C288 C 0.01688 0.28407 0.86923 0.0
C289 C 0.04209 0.33373 0.85144 0.0
C290 C 0.01088 0.23965 0.83223 0.0
C291 C 0.03073 0.24538 0.77664 0.0
C292 C 0.05964 0.29386 0.7599 0.0
C293 C 0.06502 0.33731 0.7975 0.0
C294 C 0.9811 0.18776 0.85169 0.0
C295 C 0.08174 0.3015 0.7011 0.0
C296 C 0.03905 0.1266 0.67407 0.0
C297 C 0.99022 0.13561 0.64349 0.0
C298 C 0.05202 0.16066 0.71909 0.0
C299 C 0.01533 0.20467 0.73369 0.0
C300 C 0.96568 0.21344 0.70349 0.0
C301 C 0.95374 0.17881 0.65885 0.0
C302 C 0.1051 0.14985 0.75065 0.0
C303 C 0.9257 0.26032 0.71749 0.0
H304 H -0.00043 0.28087 0.91105 0.0
H305 H 0.08579 0.37507 0.78384 0.0
H306 H 0.94305 0.18194 0.82677 0.0
H307 H 0.00817 0.1507 0.84502 0.0
H308 H 0.96905 0.1894 0.89648 0.0
H309 H 0.10774 0.3393 0.69635 0.0
H310 H 0.10698 0.26475 0.68851 0.0
H311 H 0.04641 0.30525 0.67188 0.0
H312 H 0.06708 0.09276 0.66304 0.0
H313 H 0.91579 0.18592 0.63572 0.0
H314 H 0.13077 0.18797 0.75114 0.0
H315 H 0.13031 0.11555 0.73226 0.0
H316 H 0.09501 0.13876 0.7946 0.0
H317 H 0.91284 0.25739 0.76195 0.0
H318 H 0.88778 0.25997 0.69146 0.0
H319 H 0.9466 0.30096 0.71117 0.0
C320 C 0.60834 0.02968 0.77785 0.0
C321 C 0.59079 0.99041 0.81792 0.0
C322 C 0.6544 0.0191 0.74317 0.0
C323 C 0.68331 0.96758 0.74796 0.0
C324 C 0.66375 0.92622 0.78572 0.0
C325 C 0.61777 0.93818 0.82041 0.0
C326 C 0.67377 0.06437 0.70331 0.0
C327 C 0.69285 0.87044 0.79142 0.0
C328 C 0.7776 0.94781 0.62301 0.0
C329 C 0.82738 0.97016 0.6422 0.0
C330 C 0.73158 0.94122 0.65877 0.0
C331 C 0.73513 0.95887 0.71459 0.0
C332 C 0.78683 0.97706 0.73531 0.0
C333 C 0.83271 0.98196 0.69881 0.0
C334 C 0.67786 0.9199 0.6355 0.0
C335 C 0.79232 0.99644 0.79455 0.0
H336 H 0.58777 0.07001 0.77534 0.0
H337 H 0.60464 0.90742 0.85119 0.0
H338 H 0.71639 0.07739 0.71433 0.0
H339 H 0.67565 0.04843 0.66016 0.0
H340 H 0.64603 0.10165 0.70395 0.0
H341 H 0.66788 0.84018 0.81637 0.0
H342 H 0.70175 0.85259 0.74981 0.0
H343 H 0.73331 0.87585 0.81235 0.0
H344 H 0.77381 0.938 0.57923 0.0
H345 H 0.87123 -0.00064 0.71355 0.0
H346 H 0.64874 0.95538 0.62847 0.0
H347 H 0.65756 0.89065 0.66539 0.0
H348 H 0.68462 0.89843 0.59523 0.0
H349 H 0.76988 0.03675 0.7994 0.0
H350 H 0.83646 0.00232 0.80617 0.0
H351 H 0.77313 0.96617 0.82411 0.0
C352 C 0.21637 0.38686 0.96406 0.0
C353 C 0.17624 0.40369 0.00339 0.0
C354 C 0.25111 0.34076 0.97427 0.0
C355 C 0.24633 0.31106 0.02549 0.0
C356 C 0.20855 0.32991 0.06695 0.0
C357 C 0.17379 0.37597 0.05536 0.0
C358 C 0.29101 0.32216 0.9289 0.0
C359 C 0.20288 0.29997 0.12243 0.0
C360 C 0.29551 0.16178 0.00977 0.0
C361 C 0.35198 0.16702 0.02192 0.0
C362 C 0.25907 0.20761 0.0149 0.0
C363 C 0.2797 0.25914 0.03371 0.0
C364 C 0.3354 0.26255 0.05162 0.0
C365 C 0.37112 0.2166 0.04475 0.0
C366 C 0.19997 0.2023 0.9952 0.0
C367 C 0.35857 0.31606 0.07359 0.0
H368 H 0.21886 0.40803 0.92394 0.0
H369 H 0.14297 0.38854 0.08616 0.0
H370 H 0.33406 0.32013 0.94499 0.0
H371 H 0.28008 0.27968 0.91532 0.0
H372 H 0.29039 0.3505 0.89193 0.0
H373 H 0.17786 0.32443 0.15289 0.0
H374 H 0.18213 0.25946 0.11651 0.0
H375 H 0.24443 0.29099 0.14034 0.0
H376 H 0.28082 0.1234 0.99201 0.0
H377 H 0.41479 0.22029 0.05484 0.0
H378 H 0.19516 0.22542 0.95514 0.0
H379 H 0.17038 0.22094 0.02561 0.0
H380 H 0.18843 0.15818 0.98869 0.0
H381 H 0.36558 0.34574 0.03843 0.0
H382 H 0.39878 0.30908 0.0951 0.0
H383 H 0.3287 0.3359 0.10299 0.0
C384 C 0.12796 0.67268 0.03896 0.0
C385 C 0.13683 0.64247 0.98987 0.0
C386 C 0.16208 0.71761 0.0521 0.0
C387 C 0.20604 0.73247 0.01532 0.0
C388 C 0.21473 0.70261 0.96545 0.0
C389 C 0.18002 0.65805 0.95334 0.0
C390 C 0.15143 0.74875 0.10546 0.0
C391 C 0.26157 0.71693 0.92539 0.0
C392 C 0.28482 0.86847 0.01741 0.0
C393 C 0.33446 0.8509 0.04258 0.0
C394 C 0.24065 0.83119 0.0112 0.0
C395 C 0.24661 0.77553 0.03078 0.0
C396 C 0.29507 0.75894 0.05962 0.0
C397 C 0.33828 0.79683 0.06525 0.0
C398 C 0.18875 0.85046 0.98152 0.0
C399 C 0.30295 0.70005 0.08141 0.0
H400 H 0.09416 0.66145 0.06707 0.0
H401 H 0.18701 0.63519 0.91521 0.0
H402 H 0.18931 0.74824 0.13145 0.0
H403 H 0.1414 0.79298 0.09572 0.0
H404 H 0.11659 0.73069 0.13029 0.0
H405 H 0.26121 0.6911 0.88733 0.0
H406 H 0.25864 0.76142 0.91264 0.0
H407 H 0.30216 0.71066 0.94625 0.0
H408 H 0.28146 0.91037 0.0003 0.0
H409 H 0.37602 0.78332 0.08596 0.0
H410 H 0.15182 0.84376 0.00883 0.0
H411 H 0.18277 0.82547 0.94354 0.0
H412 H 0.1904 0.89521 0.96927 0.0
H413 H 0.26626 0.68694 0.10658 0.0
H414 H 0.34068 0.69541 0.10744 0.0
H415 H 0.30691 0.67116 0.04583 0.0
C416 C 0.65607 0.1981 0.92922 0.0
C417 C 0.66006 0.14387 0.95146 0.0
C418 C 0.69928 0.23597 0.93485 0.0
C419 C 0.74795 0.2192 0.96323 0.0
C420 C 0.75406 0.16341 0.98238 0.0
C421 C 0.70986 0.12615 0.9762 0.0
C422 C 0.6912 0.29503 0.91359 0.0
C423 C 0.80619 0.14396 0.01155 0.0
C424 C 0.8664 0.32227 0.9548 0.0
C425 C 0.85785 0.35216 0.00413 0.0
C426 C 0.83226 0.27734 0.94166 0.0
C427 C 0.78862 0.26217 0.97869 0.0
C428 C 0.78027 0.2917 0.02881 0.0
C429 C 0.81498 0.33626 0.04091 0.0
C430 C 0.84251 0.24659 0.888 0.0
C431 C 0.73377 0.27704 0.06915 0.0
H432 H 0.61819 0.21175 0.90883 0.0
H433 H 0.71337 0.08413 0.99298 0.0
H434 H 0.68749 0.32363 0.94942 0.0
H435 H 0.72768 0.30836 0.88823 0.0
H436 H 0.65326 0.29985 0.88788 0.0
H437 H 0.80463 0.09913 0.02352 0.0
H438 H 0.84292 0.15084 0.98402 0.0
H439 H 0.81244 0.16869 0.04966 0.0
H440 H 0.89994 0.33376 0.92648 0.0
H441 H 0.80823 0.35886 0.07924 0.0
H442 H 0.8045 0.24749 0.86221 0.0
H443 H 0.85239 0.20224 0.89734 0.0
H444 H 0.87731 0.26469 0.86313 0.0
H445 H 0.693 0.28341 0.04866 0.0
H446 H 0.73441 0.3026 0.10738 0.0
H447 H 0.73685 0.23248 0.08157 0.0
C448 C 0.77827 0.60781 0.02998 0.0
C449 C 0.81838 0.591 0.99063 0.0
C450 C 0.74351 0.65391 0.0198 0.0
C451 C 0.74825 0.68363 0.96859 0.0
C452 C 0.78602 0.66479 0.9271 0.0
C453 C 0.82079 0.61873 0.93866 0.0
C454 C 0.70364 0.67249 0.06519 0.0
C455 C 0.79164 0.69474 0.87162 0.0
C456 C 0.62344 0.77806 0.94936 0.0
C457 C 0.64258 0.82766 0.97216 0.0
C458 C 0.65916 0.73212 0.9425 0.0
C459 C 0.71487 0.73554 0.96039 0.0
C460 C 0.7355 0.78708 0.97919 0.0
C461 C 0.69905 0.83291 0.98431 0.0
C462 C 0.63599 0.6786 0.92055 0.0
C463 C 0.7946 0.7924 -0.00112 0.0
H464 H 0.77579 0.58663 0.07009 0.0
H465 H 0.8516 0.60618 0.90784 0.0
H466 H 0.71457 0.71498 0.07878 0.0
H467 H 0.66057 0.67452 0.04913 0.0
H468 H 0.70428 0.64415 0.10216 0.0
H469 H 0.81671 0.67033 0.84116 0.0
H470 H 0.75009 0.70366 0.85371 0.0
H471 H 0.81233 0.73529 0.87756 0.0
H472 H 0.57977 0.77436 0.93928 0.0
H473 H 0.71374 0.8713 0.00206 0.0
H474 H 0.62901 0.64892 0.95573 0.0
H475 H 0.66585 0.65875 0.89114 0.0
H476 H 0.59577 0.68556 0.89906 0.0
H477 H 0.79942 0.76927 0.03893 0.0
H478 H 0.80613 0.83651 0.0054 0.0
H479 H 0.82418 0.77377 0.96845 0.0
loop_
_geom_bond_atom_site_label_1
_geom_bond_atom_site_label_2
_geom_bond_distance
_geom_bond_site_symmetry_2
_ccdc_geom_bond_type
Fe0 O1 1.895 . S
Fe0 O4 1.706 1_645 S
Fe0 O9 2.077 1_545 S
Fe0 O14 1.918 1_545 S
Fe0 O20 2.094 1_655 S
Fe0 O29 1.938 1_655 S
O1 Fe0 1.895 . S
O1 Fe3 1.715 . S
Fe2 O4 1.886 . S
Fe2 O5 1.715 . S
Fe2 O12 1.935 . S
Fe2 O13 2.077 . S
Fe2 O19 1.935 . S
Fe2 O28 2.077 . S
Fe3 O1 1.715 . S
Fe3 O6 1.886 . S
Fe3 O10 1.935 . S
Fe3 O15 2.077 . S
Fe3 O21 1.935 . S
Fe3 O25 2.077 . S
O4 Fe0 1.706 1_465 S
O4 Fe2 1.886 . S
O5 Fe2 1.715 . S
O5 Fe7 1.892 . S
O6 Fe3 1.886 . S
O6 Fe7 1.708 1_645 S
Fe7 O5 1.892 . S
Fe7 O6 1.708 1_465 S
Fe7 O11 2.090 1_455 S
Fe7 O16 1.938 1_455 S
Fe7 O18 2.077 1_565 S
Fe7 O26 1.922 1_565 S
C8 O20 1.381 1_655 S
C8 O21 1.421 . S
O9 Fe0 2.077 1_565 S
O9 C22 1.381 1_565 S
O10 Fe3 1.935 . S
O10 C22 1.421 . S
O11 Fe7 2.090 1_655 S
O11 C27 1.381 1_655 S
O12 Fe2 1.935 . S
O12 C27 1.421 . S
O13 Fe2 2.077 . S
O13 C17 1.381 . S
O14 Fe0 1.918 1_565 S
O14 C17 1.421 1_655 S
O15 Fe3 2.077 . S
O15 C23 1.381 . S
O16 Fe7 1.938 1_655 S
O16 C23 1.421 1_565 S
C17 O13 1.381 . S
C17 O14 1.421 1_455 S
O18 Fe7 2.077 1_545 S
O18 C30 1.381 1_545 S
O19 Fe2 1.935 . S
O19 C30 1.421 . S
O20 Fe0 2.094 1_455 S
O20 C8 1.381 1_455 S
O21 Fe3 1.935 . S
O21 C8 1.421 . S
C22 O9 1.381 1_545 S
C22 O10 1.421 . S
C23 O15 1.381 . S
C23 O16 1.421 1_545 S
C24 O25 1.381 . S
C24 O26 1.421 1_655 S
O25 Fe3 2.077 . S
O25 C24 1.381 . S
O26 Fe7 1.922 1_545 S
O26 C24 1.421 1_455 S
C27 O11 1.381 1_455 S
C27 O12 1.421 . S
O28 Fe2 2.077 . S
O28 C31 1.381 . S
O29 Fe0 1.938 1_455 S
O29 C31 1.421 1_545 S
C30 O18 1.381 1_565 S
C30 O19 1.421 . S
C31 O28 1.381 . S
C31 O29 1.421 1_565 S
Fe32 O33 1.895 . S
Fe32 O36 1.706 1_564 S
Fe32 O41 2.077 1_554 S
Fe32 O46 1.918 1_554 S
Fe32 O52 2.094 1_565 S
Fe32 O61 1.938 1_565 S
O33 Fe32 1.895 . S
O33 Fe35 1.715 . S
Fe34 O36 1.886 . S
Fe34 O37 1.715 . S
Fe34 O44 1.935 . S
Fe34 O45 2.077 . S
Fe34 O51 1.935 . S
Fe34 O60 2.077 . S
Fe35 O33 1.715 . S
Fe35 O38 1.886 . S
Fe35 O42 1.935 . S
Fe35 O47 2.077 . S
Fe35 O53 1.935 . S
Fe35 O57 2.077 . S
O36 Fe32 1.706 1_546 S
O36 Fe34 1.886 . S
O37 Fe34 1.715 . S
O37 Fe39 1.892 . S
O38 Fe35 1.886 . S
O38 Fe39 1.708 1_564 S
Fe39 O37 1.892 . S
Fe39 O38 1.708 1_546 S
Fe39 O43 2.090 1_545 S
Fe39 O48 1.938 1_545 S
Fe39 O50 2.077 1_556 S
Fe39 O58 1.922 1_556 S
C40 O52 1.381 1_565 S
C40 O53 1.421 . S
O41 Fe32 2.077 1_556 S
O41 C54 1.381 1_556 S
O42 Fe35 1.935 . S
O42 C54 1.421 . S
O43 Fe39 2.090 1_565 S
O43 C59 1.381 1_565 S
O44 Fe34 1.935 . S
O44 C59 1.421 . S
O45 Fe34 2.077 . S
O45 C49 1.381 . S
O46 Fe32 1.918 1_556 S
O46 C49 1.421 1_565 S
O47 Fe35 2.077 . S
O47 C55 1.381 . S
O48 Fe39 1.938 1_565 S
O48 C55 1.421 1_556 S
C49 O45 1.381 . S
C49 O46 1.421 1_545 S
O50 Fe39 2.077 1_554 S
O50 C62 1.381 1_554 S
O51 Fe34 1.935 . S
O51 C62 1.421 . S
O52 Fe32 2.094 1_545 S
O52 C40 1.381 1_545 S
O53 Fe35 1.935 . S
O53 C40 1.421 . S
C54 O41 1.381 1_554 S
C54 O42 1.421 . S
C55 O47 1.381 . S
C55 O48 1.421 1_554 S
C56 O57 1.381 . S
C56 O58 1.421 1_565 S
O57 Fe35 2.077 . S
O57 C56 1.381 . S
O58 Fe39 1.922 1_554 S
O58 C56 1.421 1_545 S
C59 O43 1.381 1_545 S
C59 O44 1.421 . S
O60 Fe34 2.077 . S
O60 C63 1.381 . S
O61 Fe32 1.938 1_545 S
O61 C63 1.421 1_554 S
C62 O50 1.381 1_556 S
C62 O51 1.421 . S
C63 O60 1.381 . S
C63 O61 1.421 1_556 S
Fe64 O65 1.895 . S
Fe64 O68 1.706 1_654 S
Fe64 O73 2.094 1_655 S
Fe64 O78 1.938 1_655 S
Fe64 O84 2.077 1_554 S
Fe64 O93 1.918 1_554 S
O65 Fe64 1.895 . S
O65 Fe67 1.715 . S
Fe66 O68 1.886 . S
Fe66 O69 1.715 . S
Fe66 O76 1.935 . S
Fe66 O77 2.077 . S
Fe66 O83 1.935 . S
Fe66 O92 2.077 . S
Fe67 O65 1.715 . S
Fe67 O70 1.886 . S
Fe67 O74 1.935 . S
Fe67 O79 2.077 . S
Fe67 O85 1.935 . S
Fe67 O89 2.077 . S
O68 Fe64 1.706 1_456 S
O68 Fe66 1.886 . S
O69 Fe66 1.715 . S
O69 Fe71 1.892 . S
O70 Fe67 1.886 . S
O70 Fe71 1.708 1_654 S
Fe71 O69 1.892 . S
Fe71 O70 1.708 1_456 S
Fe71 O75 2.077 1_556 S
Fe71 O80 1.922 1_556 S
Fe71 O82 2.090 1_455 S
Fe71 O90 1.938 1_455 S
C72 O84 1.381 1_554 S
C72 O85 1.421 . S
O73 Fe64 2.094 1_455 S
O73 C86 1.381 1_455 S
O74 Fe67 1.935 . S
O74 C86 1.421 . S
O75 Fe71 2.077 1_554 S
O75 C91 1.381 1_554 S
O76 Fe66 1.935 . S
O76 C91 1.421 . S
O77 Fe66 2.077 . S
O77 C81 1.381 . S
O78 Fe64 1.938 1_455 S
O78 C81 1.421 1_554 S
O79 Fe67 2.077 . S
O79 C87 1.381 . S
O80 Fe71 1.922 1_554 S
O80 C87 1.421 1_455 S
C81 O77 1.381 . S
C81 O78 1.421 1_556 S
O82 Fe71 2.090 1_655 S
O82 C94 1.381 1_655 S
O83 Fe66 1.935 . S
O83 C94 1.421 . S
O84 Fe64 2.077 1_556 S
O84 C72 1.381 1_556 S
O85 Fe67 1.935 . S
O85 C72 1.421 . S
C86 O73 1.381 1_655 S
C86 O74 1.421 . S
C87 O79 1.381 . S
C87 O80 1.421 1_655 S
C88 O89 1.381 . S
C88 O90 1.421 1_554 S
O89 Fe67 2.077 . S
O89 C88 1.381 . S
O90 Fe71 1.938 1_655 S
O90 C88 1.421 1_556 S
C91 O75 1.381 1_556 S
C91 O76 1.421 . S
O92 Fe66 2.077 . S
O92 C95 1.381 . S
O93 Fe64 1.918 1_556 S
O93 C95 1.421 1_655 S
C94 O82 1.381 1_455 S
C94 O83 1.421 . S
C95 O92 1.381 . S
C95 O93 1.421 1_455 S
C96 C97 1.391 1_655 S
C96 C98 1.394 . S
C96 H112 0.931 . S
C97 C96 1.391 1_455 S
C97 C101 1.376 . S
C98 C96 1.394 . S
C98 C99 1.369 1_655 S
C98 C102 1.531 . S
C99 C98 1.369 1_455 S
C99 C100 1.410 . S
C99 C107 1.503 . S
C100 C99 1.410 . S
C100 C101 1.392 . S
C100 C103 1.511 . S
C101 C97 1.376 . S
C101 C100 1.392 . S
C101 H113 0.929 . S
C102 C98 1.531 . S
C102 H114 0.960 . S
C102 H115 0.962 . S
C102 H116 0.960 . S
C103 C100 1.511 . S
C103 H117 0.961 . S
C103 H118 0.961 . S
C103 H119 0.961 . S
C104 C105 1.368 1_655 S
C104 C106 1.363 . S
C104 H120 0.931 . S
C105 C104 1.368 1_455 S
C105 C109 1.410 . S
C106 C104 1.363 . S
C106 C107 1.370 1_655 S
C106 C110 1.524 . S
C107 C99 1.503 . S
C107 C106 1.370 1_455 S
C107 C108 1.403 . S
C108 C107 1.403 . S
C108 C109 1.404 . S
C108 C111 1.539 . S
C109 C105 1.410 . S
C109 C108 1.404 . S
C109 H121 0.930 . S
C110 C106 1.524 . S
C110 H122 0.956 . S
C110 H123 0.961 . S
C110 H124 0.961 . S
C111 C108 1.539 . S
C111 H125 0.958 . S
C111 H126 0.961 . S
C111 H127 0.960 . S
H112 C96 0.931 . S
H113 C101 0.929 . S
H114 C102 0.960 . S
H115 C102 0.962 . S
H116 C102 0.960 . S
H117 C103 0.961 . S
H118 C103 0.961 . S
H119 C103 0.961 . S
H120 C104 0.931 . S
H121 C109 0.930 . S
H122 C110 0.956 . S
H123 C110 0.961 . S
H124 C110 0.961 . S
H125 C111 0.958 . S
H126 C111 0.961 . S
H127 C111 0.960 . S
C128 C129 1.391 . S
C128 C130 1.394 . S
C128 H144 0.931 . S
C129 C128 1.391 . S
C129 C133 1.376 1_565 S
C130 C128 1.394 . S
C130 C131 1.369 . S
C130 C134 1.531 . S
C131 C130 1.369 . S
C131 C132 1.410 1_565 S
C131 C139 1.503 . S
C132 C131 1.410 1_545 S
C132 C133 1.392 . S
C132 C135 1.511 . S
C133 C129 1.376 1_545 S
C133 C132 1.392 . S
C133 H145 0.929 . S
C134 C130 1.531 . S
C134 H146 0.960 . S
C134 H147 0.962 . S
C134 H148 0.960 . S
C135 C132 1.511 . S
C135 H149 0.961 . S
C135 H150 0.961 . S
C135 H151 0.961 . S
C136 C137 1.370 1_545 S
C136 C138 1.363 . S
C136 H152 0.931 . S
C137 C136 1.370 1_565 S
C137 C141 1.408 . S
C138 C136 1.363 . S
C138 C139 1.370 1_545 S
C138 C142 1.524 . S
C139 C131 1.503 . S
C139 C138 1.370 1_565 S
C139 C140 1.403 . S
C140 C139 1.403 . S
C140 C141 1.404 . S
C140 C143 1.539 . S
C141 C137 1.408 . S
C141 C140 1.404 . S
C141 H153 0.930 . S
C142 C138 1.524 . S
C142 H154 0.956 . S
C142 H155 0.961 . S
C142 H156 0.961 . S
C143 C140 1.539 . S
C143 H157 0.958 . S
C143 H158 0.961 . S
C143 H159 0.960 . S
H144 C128 0.931 . S
H145 C133 0.929 . S
H146 C134 0.960 . S
H147 C134 0.962 . S
H148 C134 0.960 . S
H149 C135 0.961 . S
H150 C135 0.961 . S
H151 C135 0.961 . S
H152 C136 0.931 . S
H153 C141 0.930 . S
H154 C142 0.956 . S
H155 C142 0.961 . S
H156 C142 0.961 . S
H157 C143 0.958 . S
H158 C143 0.961 . S
H159 C143 0.960 . S
C160 C161 1.391 . S
C160 C162 1.394 . S
C160 H176 0.931 . S
C161 C160 1.391 . S
C161 C165 1.376 1_655 S
C162 C160 1.394 . S
C162 C163 1.369 . S
C162 C166 1.531 . S
C163 C162 1.369 . S
C163 C164 1.410 1_655 S
C163 C171 1.503 . S
C164 C163 1.410 1_455 S
C164 C165 1.392 . S
C164 C167 1.511 . S
C165 C161 1.376 1_455 S
C165 C164 1.392 . S
C165 H177 0.929 . S
C166 C162 1.531 . S
C166 H178 0.960 . S
C166 H179 0.962 . S
C166 H180 0.960 . S
C167 C164 1.511 . S
C167 H181 0.961 . S
C167 H182 0.961 . S
C167 H183 0.961 . S
C168 C169 1.370 1_455 S
C168 C170 1.363 . S
C168 H184 0.931 . S
C169 C168 1.370 1_655 S
C169 C173 1.408 . S
C170 C168 1.363 . S
C170 C171 1.370 1_455 S
C170 C174 1.524 . S
C171 C163 1.503 . S
C171 C170 1.370 1_655 S
C171 C172 1.403 . S
C172 C171 1.403 . S
C172 C173 1.404 . S
C172 C175 1.539 . S
C173 C169 1.408 . S
C173 C172 1.404 . S
C173 H185 0.930 . S
C174 C170 1.524 . S
C174 H186 0.956 . S
C174 H187 0.961 . S
C174 H188 0.961 . S
C175 C172 1.539 . S
C175 H189 0.958 . S
C175 H190 0.961 . S
C175 H191 0.960 . S
H176 C160 0.931 . S
H177 C165 0.929 . S
H178 C166 0.960 . S
H179 C166 0.962 . S
H180 C166 0.960 . S
H181 C167 0.961 . S
H182 C167 0.961 . S
H183 C167 0.961 . S
H184 C168 0.931 . S
H185 C173 0.930 . S
H186 C174 0.956 . S
H187 C174 0.961 . S
H188 C174 0.961 . S
H189 C175 0.958 . S
H190 C175 0.961 . S
H191 C175 0.960 . S
C192 C193 1.391 . S
C192 C194 1.394 . S
C192 H208 0.931 . S
C193 C192 1.391 . S
C193 C197 1.376 1_565 S
C194 C192 1.394 . S
C194 C195 1.369 . S
C194 C198 1.531 . S
C195 C194 1.369 . S
C195 C196 1.410 1_565 S
C195 C203 1.503 . S
C196 C195 1.410 1_545 S
C196 C197 1.392 . S
C196 C199 1.511 . S
C197 C193 1.376 1_545 S
C197 C196 1.392 . S
C197 H209 0.929 . S
C198 C194 1.531 . S
C198 H210 0.960 . S
C198 H211 0.962 . S
C198 H212 0.960 . S
C199 C196 1.511 . S
C199 H213 0.961 . S
C199 H214 0.961 . S
C199 H215 0.961 . S
C200 C201 1.370 1_545 S
C200 C202 1.363 . S
C200 H216 0.931 . S
C201 C200 1.370 1_565 S
C201 C205 1.408 . S
C202 C200 1.363 . S
C202 C203 1.370 1_545 S
C202 C206 1.524 . S
C203 C195 1.503 . S
C203 C202 1.370 1_565 S
C203 C204 1.403 . S
C204 C203 1.403 . S
C204 C205 1.404 . S
C204 C207 1.539 . S
C205 C201 1.408 . S
C205 C204 1.404 . S
C205 H217 0.930 . S
C206 C202 1.524 . S
C206 H218 0.956 . S
C206 H219 0.961 . S
C206 H220 0.961 . S
C207 C204 1.539 . S
C207 H221 0.958 . S
C207 H222 0.961 . S
C207 H223 0.960 . S
H208 C192 0.931 . S
H209 C197 0.929 . S
H210 C198 0.960 . S
H211 C198 0.962 . S
H212 C198 0.960 . S
H213 C199 0.961 . S
H214 C199 0.961 . S
H215 C199 0.961 . S
H216 C200 0.931 . S
H217 C205 0.930 . S
H218 C206 0.956 . S
H219 C206 0.961 . S
H220 C206 0.961 . S
H221 C207 0.958 . S
H222 C207 0.961 . S
H223 C207 0.960 . S
C224 C225 1.391 . S
C224 C226 1.394 . S
C224 H240 0.931 . S
C225 C224 1.391 . S
C225 C229 1.375 1_455 S
C226 C224 1.394 . S
C226 C227 1.369 1_455 S
C226 C230 1.531 . S
C227 C226 1.369 1_655 S
C227 C228 1.410 . S
C227 C235 1.504 . S
C228 C227 1.410 . S
C228 C229 1.392 . S
C228 C231 1.511 . S
C229 C225 1.375 1_655 S
C229 C228 1.392 . S
C229 H241 0.929 . S
C230 C226 1.531 . S
C230 H242 0.960 . S
C230 H243 0.962 . S
C230 H244 0.960 . S
C231 C228 1.511 . S
C231 H245 0.961 . S
C231 H246 0.961 . S
C231 H247 0.961 . S
C232 C233 1.374 . S
C232 C234 1.363 . S
C232 H248 0.931 . S
C233 C232 1.374 . S
C233 C237 1.405 1_455 S
C234 C232 1.363 . S
C234 C235 1.366 1_455 S
C234 C238 1.524 . S
C235 C227 1.504 . S
C235 C234 1.366 1_655 S
C235 C236 1.406 . S
C236 C235 1.406 . S
C236 C237 1.404 . S
C236 C239 1.539 . S
C237 C233 1.405 1_655 S
C237 C236 1.404 . S
C237 H249 0.930 . S
C238 C234 1.524 . S
C238 H250 0.956 . S
C238 H251 0.961 1_455 S
C238 H252 0.961 . S
C239 C236 1.539 . S
C239 H253 0.958 . S
C239 H254 0.961 . S
C239 H255 0.960 . S
H240 C224 0.931 . S
H241 C229 0.929 . S
H242 C230 0.960 . S
H243 C230 0.962 . S
H244 C230 0.960 . S
H245 C231 0.961 . S
H246 C231 0.961 . S
H247 C231 0.961 . S
H248 C232 0.931 . S
H249 C237 0.930 . S
H250 C238 0.956 . S
H251 C238 0.961 1_655 S
H252 C238 0.961 . S
H253 C239 0.958 . S
H254 C239 0.961 . S
H255 C239 0.960 . S
C256 C257 1.391 . S
C256 C258 1.394 . S
C256 H272 0.931 . S
C257 C256 1.391 . S
C257 C261 1.376 . S
C258 C256 1.394 . S
C258 C259 1.369 . S
C258 C262 1.531 . S
C259 C258 1.369 . S
C259 C260 1.410 . S
C259 C267 1.503 . S
C260 C259 1.410 . S
C260 C261 1.392 . S
C260 C263 1.511 . S
C261 C257 1.376 . S
C261 C260 1.392 . S
C261 H273 0.928 1_545 S
C262 C258 1.531 . S
C262 H274 0.960 . S
C262 H275 0.962 1_545 S
C262 H276 0.960 . S
C263 C260 1.511 . S
C263 H277 0.961 1_545 S
C263 H278 0.961 1_545 S
C263 H279 0.961 . S
C264 C265 1.370 1_565 S
C264 C266 1.363 . S
C264 H280 0.931 . S
C265 C264 1.370 1_545 S
C265 C269 1.408 . S
C266 C264 1.363 . S
C266 C267 1.370 1_565 S
C266 C270 1.524 . S
C267 C259 1.503 . S
C267 C266 1.370 1_545 S
C267 C268 1.403 . S
C268 C267 1.403 . S
C268 C269 1.404 . S
C268 C271 1.539 . S
C269 C265 1.408 . S
C269 C268 1.404 . S
C269 H281 0.930 . S
C270 C266 1.524 . S
C270 H282 0.956 . S
C270 H283 0.961 . S
C270 H284 0.961 . S
C271 C268 1.539 . S
C271 H285 0.958 . S
C271 H286 0.961 . S
C271 H287 0.960 . S
H272 C256 0.931 . S
H273 C261 0.928 1_565 S
H274 C262 0.960 . S
H275 C262 0.962 1_565 S
H276 C262 0.960 . S
H277 C263 0.961 1_565 S
H278 C263 0.961 1_565 S
H279 C263 0.961 . S
H280 C264 0.931 . S
H281 C269 0.930 . S
H282 C270 0.956 . S
H283 C270 0.961 . S
H284 C270 0.961 . S
H285 C271 0.958 . S
H286 C271 0.961 . S
H287 C271 0.960 . S
C288 C289 1.391 . S
C288 C290 1.394 . S
C288 H304 0.931 . S
C289 C288 1.391 . S
C289 C293 1.376 1_655 S
C290 C288 1.394 . S
C290 C291 1.369 . S
C290 C294 1.531 . S
C291 C290 1.369 . S
C291 C292 1.410 1_655 S
C291 C299 1.503 . S
C292 C291 1.410 1_455 S
C292 C293 1.392 . S
C292 C295 1.511 . S
C293 C289 1.376 1_455 S
C293 C292 1.392 . S
C293 H305 0.929 . S
C294 C290 1.531 . S
C294 H306 0.960 . S
C294 H307 0.962 . S
C294 H308 0.960 . S
C295 C292 1.511 . S
C295 H309 0.961 . S
C295 H310 0.961 . S
C295 H311 0.961 . S
C296 C297 1.370 1_455 S
C296 C298 1.363 . S
C296 H312 0.931 . S
C297 C296 1.370 1_655 S
C297 C301 1.408 . S
C298 C296 1.363 . S
C298 C299 1.370 1_455 S
C298 C302 1.524 . S
C299 C291 1.503 . S
C299 C298 1.370 1_655 S
C299 C300 1.403 . S
C300 C299 1.403 . S
C300 C301 1.404 . S
C300 C303 1.539 . S
C301 C297 1.408 . S
C301 C300 1.404 . S
C301 H313 0.930 . S
C302 C298 1.524 . S
C302 H314 0.956 . S
C302 H315 0.961 . S
C302 H316 0.961 . S
C303 C300 1.539 . S
C303 H317 0.958 . S
C303 H318 0.961 . S
C303 H319 0.960 . S
H304 C288 0.931 . S
H305 C293 0.929 . S
H306 C294 0.960 . S
H307 C294 0.962 . S
H308 C294 0.960 . S
H309 C295 0.961 . S
H310 C295 0.961 . S
H311 C295 0.961 . S
H312 C296 0.931 . S
H313 C301 0.930 . S
H314 C302 0.956 . S
H315 C302 0.961 . S
H316 C302 0.961 . S
H317 C303 0.958 . S
H318 C303 0.961 . S
H319 C303 0.960 . S
C320 C321 1.383 1_545 S
C320 C322 1.394 . S
C320 H336 0.931 . S
C321 C320 1.383 1_565 S
C321 C325 1.384 . S
C322 C320 1.394 . S
C322 C323 1.369 1_545 S
C322 C326 1.531 . S
C323 C322 1.369 1_565 S
C323 C324 1.410 . S
C323 C331 1.503 . S
C324 C323 1.410 . S
C324 C325 1.392 . S
C324 C327 1.511 . S
C325 C321 1.384 . S
C325 C324 1.392 . S
C325 H337 0.929 . S
C326 C322 1.531 . S
C326 H338 0.960 . S
C326 H339 0.962 . S
C326 H340 0.960 . S
C327 C324 1.511 . S
C327 H341 0.961 . S
C327 H342 0.961 . S
C327 H343 0.961 . S
C328 C329 1.373 . S
C328 C330 1.363 . S
C328 H344 0.931 . S
C329 C328 1.373 . S
C329 C333 1.406 1_545 S
C330 C328 1.363 . S
C330 C331 1.370 1_545 S
C330 C334 1.524 . S
C331 C323 1.503 . S
C331 C330 1.370 1_565 S
C331 C332 1.403 . S
C332 C331 1.403 . S
C332 C333 1.404 . S
C332 C335 1.539 . S
C333 C329 1.406 1_565 S
C333 C332 1.404 . S
C333 H345 0.930 . S
C334 C330 1.524 . S
C334 H346 0.956 . S
C334 H347 0.961 . S
C334 H348 0.961 . S
C335 C332 1.539 . S
C335 H349 0.958 . S
C335 H350 0.961 . S
C335 H351 0.960 . S
H336 C320 0.931 . S
H337 C325 0.929 . S
H338 C326 0.960 . S
H339 C326 0.962 . S
H340 C326 0.960 . S
H341 C327 0.961 . S
H342 C327 0.961 . S
H343 C327 0.961 . S
H344 C328 0.931 . S
H345 C333 0.930 . S
H346 C334 0.956 . S
H347 C334 0.961 . S
H348 C334 0.961 . S
H349 C335 0.958 . S
H350 C335 0.961 . S
H351 C335 0.960 . S
C352 C353 1.391 . S
C352 C354 1.394 . S
C352 H368 0.931 . S
C353 C352 1.391 . S
C353 C357 1.376 1_556 S
C354 C352 1.394 . S
C354 C355 1.369 . S
C354 C358 1.531 . S
C355 C354 1.369 . S
C355 C356 1.410 1_556 S
C355 C363 1.503 . S
C356 C355 1.410 1_554 S
C356 C357 1.392 . S
C356 C359 1.511 . S
C357 C353 1.376 1_554 S
C357 C356 1.392 . S
C357 H369 0.929 . S
C358 C354 1.531 . S
C358 H370 0.960 . S
C358 H371 0.962 . S
C358 H372 0.960 . S
C359 C356 1.511 . S
C359 H373 0.961 . S
C359 H374 0.961 . S
C359 H375 0.961 . S
C360 C361 1.370 1_554 S
C360 C362 1.363 . S
C360 H376 0.931 . S
C361 C360 1.370 1_556 S
C361 C365 1.408 . S
C362 C360 1.363 . S
C362 C363 1.370 1_554 S
C362 C366 1.524 . S
C363 C355 1.503 . S
C363 C362 1.370 1_556 S
C363 C364 1.403 . S
C364 C363 1.403 . S
C364 C365 1.404 . S
C364 C367 1.539 . S
C365 C361 1.408 . S
C365 C364 1.404 . S
C365 H377 0.930 . S
C366 C362 1.524 . S
C366 H378 0.956 . S
C366 H379 0.961 . S
C366 H380 0.961 . S
C367 C364 1.539 . S
C367 H381 0.958 . S
C367 H382 0.961 . S
C367 H383 0.960 . S
H368 C352 0.931 . S
H369 C357 0.929 . S
H370 C358 0.960 . S
H371 C358 0.962 . S
H372 C358 0.960 . S
H373 C359 0.961 . S
H374 C359 0.961 . S
H375 C359 0.961 . S
H376 C360 0.931 . S
H377 C365 0.930 . S
H378 C366 0.956 . S
H379 C366 0.961 . S
H380 C366 0.961 . S
H381 C367 0.958 . S
H382 C367 0.961 . S
H383 C367 0.960 . S
C384 C385 1.391 1_554 S
C384 C386 1.394 . S
C384 H400 0.931 . S
C385 C384 1.391 1_556 S
C385 C389 1.376 . S
C386 C384 1.394 . S
C386 C387 1.369 1_554 S
C386 C390 1.531 . S
C387 C386 1.369 1_556 S
C387 C388 1.410 . S
C387 C395 1.503 . S
C388 C387 1.410 . S
C388 C389 1.392 . S
C388 C391 1.511 . S
C389 C385 1.376 . S
C389 C388 1.392 . S
C389 H401 0.929 . S
C390 C386 1.531 . S
C390 H402 0.960 . S
C390 H403 0.962 . S
C390 H404 0.960 . S
C391 C388 1.511 . S
C391 H405 0.961 . S
C391 H406 0.961 . S
C391 H407 0.961 . S
C392 C393 1.354 1_554 S
C392 C394 1.363 . S
C392 H408 0.931 . S
C393 C392 1.354 1_556 S
C393 C397 1.426 . S
C394 C392 1.363 . S
C394 C395 1.370 1_554 S
C394 C398 1.524 . S
C395 C387 1.503 . S
C395 C394 1.370 1_556 S
C395 C396 1.403 . S
C396 C395 1.403 . S
C396 C397 1.404 . S
C396 C399 1.539 . S
C397 C393 1.426 . S
C397 C396 1.404 . S
C397 H409 0.930 . S
C398 C394 1.524 . S
C398 H410 0.956 . S
C398 H411 0.961 . S
C398 H412 0.961 . S
C399 C396 1.539 . S
C399 H413 0.958 . S
C399 H414 0.961 . S
C399 H415 0.960 . S
H400 C384 0.931 . S
H401 C389 0.929 . S
H402 C390 0.960 . S
H403 C390 0.962 . S
H404 C390 0.960 . S
H405 C391 0.961 . S
H406 C391 0.961 . S
H407 C391 0.961 . S
H408 C392 0.931 . S
H409 C397 0.930 . S
H410 C398 0.956 . S
H411 C398 0.961 . S
H412 C398 0.961 . S
H413 C399 0.958 . S
H414 C399 0.961 . S
H415 C399 0.960 . S
C416 C417 1.391 . S
C416 C418 1.394 . S
C416 H432 0.931 . S
C417 C416 1.391 . S
C417 C421 1.376 1_554 S
C418 C416 1.394 . S
C418 C419 1.369 . S
C418 C422 1.531 . S
C419 C418 1.369 . S
C419 C420 1.410 1_554 S
C419 C427 1.503 . S
C420 C419 1.410 1_556 S
C420 C421 1.392 . S
C420 C423 1.511 . S
C421 C417 1.376 1_556 S
C421 C420 1.392 . S
C421 H433 0.929 . S
C422 C418 1.531 . S
C422 H434 0.960 . S
C422 H435 0.962 . S
C422 H436 0.960 . S
C423 C420 1.511 . S
C423 H437 0.961 . S
C423 H438 0.961 . S
C423 H439 0.971 . S
C424 C425 1.370 1_556 S
C424 C426 1.363 . S
C424 H440 0.931 . S
C425 C424 1.370 1_554 S
C425 C429 1.408 . S
C426 C424 1.363 . S
C426 C427 1.370 1_556 S
C426 C430 1.524 . S
C427 C419 1.503 . S
C427 C426 1.370 1_554 S
C427 C428 1.403 . S
C428 C427 1.403 . S
C428 C429 1.404 . S
C428 C431 1.539 . S
C429 C425 1.408 . S
C429 C428 1.404 . S
C429 H441 0.930 . S
C430 C426 1.524 . S
C430 H442 0.956 . S
C430 H443 0.961 . S
C430 H444 0.961 . S
C431 C428 1.539 . S
C431 H445 0.958 . S
C431 H446 0.961 . S
C431 H447 0.960 . S
H432 C416 0.931 . S
H433 C421 0.929 . S
H434 C422 0.960 . S
H435 C422 0.962 . S
H436 C422 0.960 . S
H437 C423 0.961 . S
H438 C423 0.961 . S
H439 C423 0.971 . S
H440 C424 0.931 . S
H441 C429 0.930 . S
H442 C430 0.956 . S
H443 C430 0.961 . S
H444 C430 0.961 . S
H445 C431 0.958 . S
H446 C431 0.961 . S
H447 C431 0.960 . S
C448 C449 1.391 1_554 S
C448 C450 1.394 . S
C448 H464 0.931 . S
C449 C448 1.391 1_556 S
C449 C453 1.376 . S
C450 C448 1.394 . S
C450 C451 1.369 1_554 S
C450 C454 1.531 . S
C451 C450 1.369 1_556 S
C451 C452 1.410 . S
C451 C459 1.503 . S
C452 C451 1.410 . S
C452 C453 1.392 . S
C452 C455 1.511 . S
C453 C449 1.376 . S
C453 C452 1.392 . S
C453 H465 0.929 . S
C454 C450 1.531 . S
C454 H466 0.960 . S
C454 H467 0.962 . S
C454 H468 0.960 . S
C455 C452 1.511 . S
C455 H469 0.961 . S
C455 H470 0.961 . S
C455 H471 0.961 . S
C456 C457 1.363 1_554 S
C456 C458 1.363 . S
C456 H472 0.931 . S
C457 C456 1.363 1_556 S
C457 C461 1.416 . S
C458 C456 1.363 . S
C458 C459 1.370 1_554 S
C458 C462 1.524 . S
C459 C451 1.503 . S
C459 C458 1.370 1_556 S
C459 C460 1.403 . S
C460 C459 1.403 . S
C460 C461 1.404 . S
C460 C463 1.539 . S
C461 C457 1.416 . S
C461 C460 1.404 . S
C461 H473 0.930 . S
C462 C458 1.524 . S
C462 H474 0.956 . S
C462 H475 0.961 . S
C462 H476 0.961 . S
C463 C460 1.539 . S
C463 H477 0.958 . S
C463 H478 0.961 . S
C463 H479 0.960 . S
H464 C448 0.931 . S
H465 C453 0.929 . S
H466 C454 0.960 . S
H467 C454 0.962 . S
H468 C454 0.960 . S
H469 C455 0.961 . S
H470 C455 0.961 . S
H471 C455 0.961 . S
H472 C456 0.931 . S
H473 C461 0.930 . S
H474 C462 0.956 . S
H475 C462 0.961 . S
H476 C462 0.961 . S
H477 C463 0.958 . S
H478 C463 0.961 . S
H479 C463 0.960 . S
C97 C86 1.175 1_455 S
C105 C8 1.172 1_455 S
C129 C22 1.170 1_565 S
C137 C56 1.121 . S
C161 C17 1.116 1_655 S
C169 C87 1.102 . S
C193 C40 1.149 . S
C201 C31 1.159 . S
C225 C27 1.157 . S
C233 C94 1.176 . S
C257 C49 1.095 . S
C265 C30 1.146 1_545 S
C289 C95 1.162 1_655 S
C297 C24 1.120 . S
C321 C59 1.159 1_565 S
C329 C23 1.162 . S
C353 C81 1.174 . S
C361 C63 1.168 . S
C385 C91 1.103 . S
C393 C54 1.140 1_556 S
C417 C62 1.150 1_554 S
C425 C72 1.112 . S
C449 C88 1.175 1_556 S
C457 C55 1.172 1_556 S
