# Generated by pormake.
# Topology wlt, (5)-cn, num edge types: 1
# Building blocks:
#     Node 0, Type 0, BuildingBlock: BEQFEK_clean_sbu_0, # of connection points: 5
#     Node 1, Type 0, BuildingBlock: BEQFEK_clean_sbu_0, # of connection points: 5
#     Node 2, Type 0, BuildingBlock: BEQFEK_clean_sbu_0, # of connection points: 5
#     Node 3, Type 0, BuildingBlock: BEQFEK_clean_sbu_0, # of connection points: 5
#     Node 4, Type 0, BuildingBlock: BEQFEK_clean_sbu_0, # of connection points: 5
#     Node 5, Type 0, BuildingBlock: BEQFEK_clean_sbu_0, # of connection points: 5
#     Node 6, Type 0, BuildingBlock: BEQFEK_clean_sbu_0, # of connection points: 5
#     Node 7, Type 0, BuildingBlock: BEQFEK_clean_sbu_0, # of connection points: 5
#     Node 8, Type 0, BuildingBlock: BEQFEK_clean_sbu_0, # of connection points: 5
#     Node 9, Type 0, BuildingBlock: BEQFEK_clean_sbu_0, # of connection points: 5
#     Node 10, Type 0, BuildingBlock: BEQFEK_clean_sbu_0, # of connection points: 5
#     Node 11, Type 0, BuildingBlock: BEQFEK_clean_sbu_0, # of connection points: 5
#     Node 12, Type 0, BuildingBlock: BEQFEK_clean_sbu_0, # of connection points: 5
#     Node 13, Type 0, BuildingBlock: BEQFEK_clean_sbu_0, # of connection points: 5
#     Node 14, Type 0, BuildingBlock: BEQFEK_clean_sbu_0, # of connection points: 5
#     Node 15, Type 0, BuildingBlock: BEQFEK_clean_sbu_0, # of connection points: 5
#     Node 16, Type 0, BuildingBlock: BEQFEK_clean_sbu_0, # of connection points: 5
#     Node 17, Type 0, BuildingBlock: BEQFEK_clean_sbu_0, # of connection points: 5
#     Node 18, Type 0, BuildingBlock: BEQFEK_clean_sbu_0, # of connection points: 5
#     Node 19, Type 0, BuildingBlock: BEQFEK_clean_sbu_0, # of connection points: 5
#     Node 20, Type 0, BuildingBlock: BEQFEK_clean_sbu_0, # of connection points: 5
#     Node 21, Type 0, BuildingBlock: BEQFEK_clean_sbu_0, # of connection points: 5
#     Node 22, Type 0, BuildingBlock: BEQFEK_clean_sbu_0, # of connection points: 5
#     Node 23, Type 0, BuildingBlock: BEQFEK_clean_sbu_0, # of connection points: 5
#     Node 24, Type 0, BuildingBlock: BEQFEK_clean_sbu_0, # of connection points: 5
#     Node 25, Type 0, BuildingBlock: BEQFEK_clean_sbu_0, # of connection points: 5
#     Node 26, Type 0, BuildingBlock: BEQFEK_clean_sbu_0, # of connection points: 5
#     Node 27, Type 0, BuildingBlock: BEQFEK_clean_sbu_0, # of connection points: 5
#     Node 28, Type 0, BuildingBlock: BEQFEK_clean_sbu_0, # of connection points: 5
#     Node 29, Type 0, BuildingBlock: BEQFEK_clean_sbu_0, # of connection points: 5
#     Node 30, Type 0, BuildingBlock: BEQFEK_clean_sbu_0, # of connection points: 5
#     Node 31, Type 0, BuildingBlock: BEQFEK_clean_sbu_0, # of connection points: 5
#     Node 32, Type 0, BuildingBlock: BEQFEK_clean_sbu_0, # of connection points: 5
#     Node 33, Type 0, BuildingBlock: BEQFEK_clean_sbu_0, # of connection points: 5
#     Node 34, Type 0, BuildingBlock: BEQFEK_clean_sbu_0, # of connection points: 5
#     Node 35, Type 0, BuildingBlock: BEQFEK_clean_sbu_0, # of connection points: 5
#     Edge 36, Type (0, 0), BuildingBlock: KIFKEQ_clean_linker_1, # of connection points: 2
#     Edge 37, Type (0, 0), BuildingBlock: KIFKEQ_clean_linker_1, # of connection points: 2
#     Edge 38, Type (0, 0), BuildingBlock: KIFKEQ_clean_linker_1, # of connection points: 2
#     Edge 39, Type (0, 0), BuildingBlock: KIFKEQ_clean_linker_1, # of connection points: 2
#     Edge 40, Type (0, 0), BuildingBlock: KIFKEQ_clean_linker_1, # of connection points: 2
#     Edge 41, Type (0, 0), BuildingBlock: KIFKEQ_clean_linker_1, # of connection points: 2
#     Edge 42, Type (0, 0), BuildingBlock: KIFKEQ_clean_linker_1, # of connection points: 2
#     Edge 43, Type (0, 0), BuildingBlock: KIFKEQ_clean_linker_1, # of connection points: 2
#     Edge 44, Type (0, 0), BuildingBlock: KIFKEQ_clean_linker_1, # of connection points: 2
#     Edge 45, Type (0, 0), BuildingBlock: KIFKEQ_clean_linker_1, # of connection points: 2
#     Edge 46, Type (0, 0), BuildingBlock: KIFKEQ_clean_linker_1, # of connection points: 2
#     Edge 47, Type (0, 0), BuildingBlock: KIFKEQ_clean_linker_1, # of connection points: 2
#     Edge 48, Type (0, 0), BuildingBlock: KIFKEQ_clean_linker_1, # of connection points: 2
#     Edge 49, Type (0, 0), BuildingBlock: KIFKEQ_clean_linker_1, # of connection points: 2
#     Edge 50, Type (0, 0), BuildingBlock: KIFKEQ_clean_linker_1, # of connection points: 2
#     Edge 51, Type (0, 0), BuildingBlock: KIFKEQ_clean_linker_1, # of connection points: 2
#     Edge 52, Type (0, 0), BuildingBlock: KIFKEQ_clean_linker_1, # of connection points: 2
#     Edge 53, Type (0, 0), BuildingBlock: KIFKEQ_clean_linker_1, # of connection points: 2
#     Edge 54, Type (0, 0), BuildingBlock: KIFKEQ_clean_linker_1, # of connection points: 2
#     Edge 55, Type (0, 0), BuildingBlock: KIFKEQ_clean_linker_1, # of connection points: 2
#     Edge 56, Type (0, 0), BuildingBlock: KIFKEQ_clean_linker_1, # of connection points: 2
#     Edge 57, Type (0, 0), BuildingBlock: KIFKEQ_clean_linker_1, # of connection points: 2
#     Edge 58, Type (0, 0), BuildingBlock: KIFKEQ_clean_linker_1, # of connection points: 2
#     Edge 59, Type (0, 0), BuildingBlock: KIFKEQ_clean_linker_1, # of connection points: 2
#     Edge 60, Type (0, 0), BuildingBlock: KIFKEQ_clean_linker_1, # of connection points: 2
#     Edge 61, Type (0, 0), BuildingBlock: KIFKEQ_clean_linker_1, # of connection points: 2
#     Edge 62, Type (0, 0), BuildingBlock: KIFKEQ_clean_linker_1, # of connection points: 2
#     Edge 63, Type (0, 0), BuildingBlock: KIFKEQ_clean_linker_1, # of connection points: 2
#     Edge 64, Type (0, 0), BuildingBlock: KIFKEQ_clean_linker_1, # of connection points: 2
#     Edge 65, Type (0, 0), BuildingBlock: KIFKEQ_clean_linker_1, # of connection points: 2
#     Edge 66, Type (0, 0), BuildingBlock: KIFKEQ_clean_linker_1, # of connection points: 2
#     Edge 67, Type (0, 0), BuildingBlock: KIFKEQ_clean_linker_1, # of connection points: 2
#     Edge 68, Type (0, 0), BuildingBlock: KIFKEQ_clean_linker_1, # of connection points: 2
#     Edge 69, Type (0, 0), BuildingBlock: KIFKEQ_clean_linker_1, # of connection points: 2
#     Edge 70, Type (0, 0), BuildingBlock: KIFKEQ_clean_linker_1, # of connection points: 2
#     Edge 71, Type (0, 0), BuildingBlock: KIFKEQ_clean_linker_1, # of connection points: 2
#     Edge 72, Type (0, 0), BuildingBlock: KIFKEQ_clean_linker_1, # of connection points: 2
#     Edge 73, Type (0, 0), BuildingBlock: KIFKEQ_clean_linker_1, # of connection points: 2
#     Edge 74, Type (0, 0), BuildingBlock: KIFKEQ_clean_linker_1, # of connection points: 2
#     Edge 75, Type (0, 0), BuildingBlock: KIFKEQ_clean_linker_1, # of connection points: 2
#     Edge 76, Type (0, 0), BuildingBlock: KIFKEQ_clean_linker_1, # of connection points: 2
#     Edge 77, Type (0, 0), BuildingBlock: KIFKEQ_clean_linker_1, # of connection points: 2
#     Edge 78, Type (0, 0), BuildingBlock: KIFKEQ_clean_linker_1, # of connection points: 2
#     Edge 79, Type (0, 0), BuildingBlock: KIFKEQ_clean_linker_1, # of connection points: 2
#     Edge 80, Type (0, 0), BuildingBlock: KIFKEQ_clean_linker_1, # of connection points: 2
#     Edge 81, Type (0, 0), BuildingBlock: KIFKEQ_clean_linker_1, # of connection points: 2
#     Edge 82, Type (0, 0), BuildingBlock: KIFKEQ_clean_linker_1, # of connection points: 2
#     Edge 83, Type (0, 0), BuildingBlock: KIFKEQ_clean_linker_1, # of connection points: 2
#     Edge 84, Type (0, 0), BuildingBlock: KIFKEQ_clean_linker_1, # of connection points: 2
#     Edge 85, Type (0, 0), BuildingBlock: KIFKEQ_clean_linker_1, # of connection points: 2
#     Edge 86, Type (0, 0), BuildingBlock: KIFKEQ_clean_linker_1, # of connection points: 2
#     Edge 87, Type (0, 0), BuildingBlock: KIFKEQ_clean_linker_1, # of connection points: 2
#     Edge 88, Type (0, 0), BuildingBlock: KIFKEQ_clean_linker_1, # of connection points: 2
#     Edge 89, Type (0, 0), BuildingBlock: KIFKEQ_clean_linker_1, # of connection points: 2
#     Edge 90, Type (0, 0), BuildingBlock: KIFKEQ_clean_linker_1, # of connection points: 2
#     Edge 91, Type (0, 0), BuildingBlock: KIFKEQ_clean_linker_1, # of connection points: 2
#     Edge 92, Type (0, 0), BuildingBlock: KIFKEQ_clean_linker_1, # of connection points: 2
#     Edge 93, Type (0, 0), BuildingBlock: KIFKEQ_clean_linker_1, # of connection points: 2
#     Edge 94, Type (0, 0), BuildingBlock: KIFKEQ_clean_linker_1, # of connection points: 2
#     Edge 95, Type (0, 0), BuildingBlock: KIFKEQ_clean_linker_1, # of connection points: 2
#     Edge 96, Type (0, 0), BuildingBlock: KIFKEQ_clean_linker_1, # of connection points: 2
#     Edge 97, Type (0, 0), BuildingBlock: KIFKEQ_clean_linker_1, # of connection points: 2
#     Edge 98, Type (0, 0), BuildingBlock: KIFKEQ_clean_linker_1, # of connection points: 2
#     Edge 99, Type (0, 0), BuildingBlock: KIFKEQ_clean_linker_1, # of connection points: 2
#     Edge 100, Type (0, 0), BuildingBlock: KIFKEQ_clean_linker_1, # of connection points: 2
#     Edge 101, Type (0, 0), BuildingBlock: KIFKEQ_clean_linker_1, # of connection points: 2
#     Edge 102, Type (0, 0), BuildingBlock: KIFKEQ_clean_linker_1, # of connection points: 2
#     Edge 103, Type (0, 0), BuildingBlock: KIFKEQ_clean_linker_1, # of connection points: 2
#     Edge 104, Type (0, 0), BuildingBlock: KIFKEQ_clean_linker_1, # of connection points: 2
#     Edge 105, Type (0, 0), BuildingBlock: KIFKEQ_clean_linker_1, # of connection points: 2
#     Edge 106, Type (0, 0), BuildingBlock: KIFKEQ_clean_linker_1, # of connection points: 2
#     Edge 107, Type (0, 0), BuildingBlock: KIFKEQ_clean_linker_1, # of connection points: 2
#     Edge 108, Type (0, 0), BuildingBlock: KIFKEQ_clean_linker_1, # of connection points: 2
#     Edge 109, Type (0, 0), BuildingBlock: KIFKEQ_clean_linker_1, # of connection points: 2
#     Edge 110, Type (0, 0), BuildingBlock: KIFKEQ_clean_linker_1, # of connection points: 2
#     Edge 111, Type (0, 0), BuildingBlock: KIFKEQ_clean_linker_1, # of connection points: 2
#     Edge 112, Type (0, 0), BuildingBlock: KIFKEQ_clean_linker_1, # of connection points: 2
#     Edge 113, Type (0, 0), BuildingBlock: KIFKEQ_clean_linker_1, # of connection points: 2
#     Edge 114, Type (0, 0), BuildingBlock: KIFKEQ_clean_linker_1, # of connection points: 2
#     Edge 115, Type (0, 0), BuildingBlock: KIFKEQ_clean_linker_1, # of connection points: 2
#     Edge 116, Type (0, 0), BuildingBlock: KIFKEQ_clean_linker_1, # of connection points: 2
#     Edge 117, Type (0, 0), BuildingBlock: KIFKEQ_clean_linker_1, # of connection points: 2
#     Edge 118, Type (0, 0), BuildingBlock: KIFKEQ_clean_linker_1, # of connection points: 2
#     Edge 119, Type (0, 0), BuildingBlock: KIFKEQ_clean_linker_1, # of connection points: 2
#     Edge 120, Type (0, 0), BuildingBlock: KIFKEQ_clean_linker_1, # of connection points: 2
#     Edge 121, Type (0, 0), BuildingBlock: KIFKEQ_clean_linker_1, # of connection points: 2
#     Edge 122, Type (0, 0), BuildingBlock: KIFKEQ_clean_linker_1, # of connection points: 2
#     Edge 123, Type (0, 0), BuildingBlock: KIFKEQ_clean_linker_1, # of connection points: 2
#     Edge 124, Type (0, 0), BuildingBlock: KIFKEQ_clean_linker_1, # of connection points: 2
#     Edge 125, Type (0, 0), BuildingBlock: KIFKEQ_clean_linker_1, # of connection points: 2
# Relax obj value: 0.124
# Max RMSD: 0.158
# Mean RMSD: 0.158
data_MOF--net-wlt--node1-BEQFEK_clean_sbu_0--edge1-KIFKEQ_clean_linker_1
_symmetry_space_group_name_H-M    P1
_symmetry_Int_Tables_number       1
_symmetry_cell_setting            triclinic
loop_
_symmetry_equiv_pos_as_xyz
'x, y, z'
_cell_length_a     70.25973
_cell_length_b     70.220798
_cell_length_c     50.911041
_cell_angle_alpha  89.99648
_cell_angle_beta   90.050243
_cell_angle_gamma 119.99458
loop_
_atom_site_label
_atom_site_type_symbol
_atom_site_fract_x
_atom_site_fract_y
_atom_site_fract_z
_atom_type_partial_charge
Co0 Co 0.25647 0.2086 0.11502 0.0
Co1 Co 0.21372 0.20955 0.09862 0.0
C2 C 0.25861 0.24992 0.09558 0.0
O3 O 0.26839 0.23978 0.10351 0.0
O4 O 0.23778 0.24011 0.09282 0.0
C5 C 0.28904 0.20359 0.14408 0.0
O6 O 0.2835 0.21195 0.16373 0.0
C7 C 0.18109 0.21263 0.06474 0.0
C8 C 0.1516 0.19643 0.09002 0.0
C9 C 0.15905 0.20662 0.06595 0.0
N10 N 0.18635 0.20609 0.08707 0.0
N11 N 0.16863 0.19639 0.10203 0.0
C12 C 0.19721 0.22565 0.04364 0.0
H13 H 0.21428 0.23137 0.05021 0.0
H14 H 0.19391 0.21528 0.02593 0.0
H15 H 0.19535 0.23991 0.03806 0.0
C16 C 0.23892 0.17286 0.07587 0.0
N17 N 0.23766 0.18875 0.08916 0.0
N18 N 0.21965 0.18882 0.08216 0.0
C19 C 0.20887 0.17285 0.06413 0.0
C20 C 0.22079 0.16231 0.05963 0.0
C21 C 0.25735 0.1681 0.07843 0.0
H22 H 0.27322 0.18349 0.07543 0.0
H23 H 0.25593 0.15563 0.06398 0.0
H24 H 0.25724 0.16201 0.09857 0.0
O25 O 0.2404 0.20355 0.14866 0.0
O26 O 0.21076 0.20501 0.13679 0.0
H27 H 0.17578 0.16638 0.06784 0.0
H28 H 0.1797 0.15097 0.042 0.0
C29 C 0.18714 0.16704 0.05231 0.0
H30 H 0.18949 0.17989 0.03796 0.0
H31 H 0.16819 0.18985 0.12057 0.0
O32 O 0.28046 0.20205 0.12162 0.0
C33 C 0.22242 0.20282 0.15428 0.0
Co34 Co 0.79051 0.04949 0.10944 0.0
Co35 Co 0.7908 0.00635 0.09384 0.0
C36 C 0.74974 0.00991 0.09 0.0
O37 O 0.75943 0.02961 0.09869 0.0
O38 O 0.76008 0.99943 0.08679 0.0
C39 C 0.7935 0.08614 0.13846 0.0
O40 O 0.7837 0.07159 0.1572 0.0
C41 C 0.78935 0.97159 0.05962 0.0
C42 C 0.80238 0.95617 0.08663 0.0
C43 C 0.79426 0.95477 0.0615 0.0
N44 N 0.79448 0.98248 0.08262 0.0
N45 N 0.80233 0.97321 0.0986 0.0
C46 C 0.77853 0.97626 0.03719 0.0
H47 H 0.77267 0.9876 0.04331 0.0
H48 H 0.79049 0.98406 0.02097 0.0
H49 H 0.76461 0.96067 0.02962 0.0
C50 C 0.82559 0.068 0.06955 0.0
N51 N 0.81026 0.05078 0.08327 0.0
N52 N 0.8116 0.0332 0.07767 0.0
C53 C 0.82842 0.03891 0.06077 0.0
C54 C 0.83784 0.0612 0.05505 0.0
C55 C 0.82765 0.09027 0.06941 0.0
H56 H 0.81112 0.08861 0.07001 0.0
H57 H 0.83631 0.09975 0.05161 0.0
H58 H 0.83697 0.09947 0.08707 0.0
O59 O 0.79638 0.03923 0.14315 0.0
O60 O 0.79505 0.00803 0.13214 0.0
H61 H 0.83453 0.01231 0.06797 0.0
H62 H 0.85393 0.03317 0.04599 0.0
C63 C 0.83641 0.0238 0.05196 0.0
H64 H 0.82652 0.01411 0.03488 0.0
H65 H 0.80741 0.97835 0.11784 0.0
O66 O 0.7966 0.07982 0.11628 0.0
C67 C 0.7973 0.02216 0.14927 0.0
Co68 Co 0.95165 0.73584 0.11323 0.0
Co69 Co 0.99293 0.77918 0.09296 0.0
C70 C 0.99053 0.73522 0.08924 0.0
O71 O 0.97143 0.72521 0.09966 0.0
O72 O 0.00055 0.75597 0.0853 0.0
C73 C 0.91537 0.70766 0.14627 0.0
O74 O 0.92944 0.7184 0.16514 0.0
C75 C 0.02864 0.81258 0.05971 0.0
C76 C 0.03383 0.84303 0.079 0.0
C77 C 0.04128 0.83544 0.05858 0.0
N78 N 0.01454 0.80715 0.07991 0.0
N79 N 0.01779 0.82542 0.09135 0.0
C80 C 0.02864 0.79612 0.04107 0.0
H81 H 0.01232 0.78091 0.04098 0.0
H82 H 0.03282 0.80298 0.0209 0.0
H83 H 0.04105 0.79176 0.04761 0.0
C84 C 0.92938 0.7508 0.07614 0.0
N85 N 0.94769 0.75326 0.08782 0.0
N86 N 0.96482 0.77135 0.07913 0.0
C87 C 0.95795 0.7809 0.06139 0.0
C88 C 0.93525 0.76819 0.05893 0.0
C89 C 0.90662 0.73288 0.08274 0.0
H90 H 0.90403 0.73281 0.10424 0.0
H91 H 0.90479 0.71675 0.07725 0.0
H92 H 0.89385 0.73502 0.07261 0.0
O93 O 0.96467 0.75322 0.14557 0.0
O94 O 0.9939 0.78347 0.1314 0.0
H95 H 0.98023 0.81552 0.05974 0.0
H96 H 0.96428 0.8043 0.0301 0.0
C97 C 0.97299 0.8012 0.04624 0.0
H98 H 0.98656 0.79947 0.03776 0.0
H99 H 0.00895 0.82584 0.10758 0.0
O100 O 0.92196 0.71102 0.12256 0.0
C101 C 0.98154 0.77182 0.15002 0.0
Co102 Co 0.2115 0.25914 0.38133 0.0
Co103 Co 0.21197 0.21698 0.40185 0.0
C104 C 0.25264 0.26133 0.4029 0.0
O105 O 0.24265 0.27052 0.39264 0.0
O106 O 0.24262 0.24078 0.40796 0.0
C107 C 0.20612 0.29058 0.34999 0.0
O108 O 0.21226 0.28286 0.33023 0.0
C109 C 0.21454 0.18315 0.43493 0.0
C110 C 0.18866 0.15306 0.41569 0.0
C111 C 0.20357 0.16024 0.43626 0.0
N112 N 0.20613 0.189 0.41475 0.0
N113 N 0.1908 0.1709 0.40331 0.0
C114 C 0.23317 0.19927 0.45168 0.0
H115 H 0.24308 0.21496 0.44113 0.0
H116 H 0.22648 0.2027 0.46966 0.0
H117 H 0.24391 0.19257 0.45748 0.0
C118 C 0.17622 0.24421 0.42083 0.0
N119 N 0.19172 0.24194 0.40804 0.0
N120 N 0.19185 0.22441 0.41693 0.0
C121 C 0.17654 0.21512 0.43597 0.0
C122 C 0.1661 0.22733 0.43889 0.0
C123 C 0.17183 0.26274 0.41649 0.0
H124 H 0.18737 0.27857 0.41898 0.0
H125 H 0.15945 0.26221 0.43041 0.0
H126 H 0.16594 0.26194 0.39607 0.0
O127 O 0.20556 0.24149 0.34906 0.0
O128 O 0.20793 0.21291 0.36346 0.0
H129 H 0.16608 0.18086 0.43639 0.0
H130 H 0.15854 0.1902 0.46545 0.0
C131 C 0.17158 0.19464 0.45051 0.0
H132 H 0.18673 0.19702 0.46028 0.0
H133 H 0.18157 0.17075 0.38716 0.0
O134 O 0.20599 0.28361 0.37308 0.0
C135 C 0.20522 0.22347 0.34497 0.0
Co136 Co 0.74603 0.95419 0.37523 0.0
Co137 Co 0.78649 0.99693 0.39774 0.0
C138 C 0.74094 0.99065 0.39925 0.0
O139 O 0.7326 0.97187 0.38799 0.0
O140 O 0.76144 0.0018 0.40455 0.0
C141 C 0.70445 0.91151 0.37034 0.0
O142 O 0.69556 0.91789 0.38849 0.0
C143 C 0.81713 0.03249 0.43358 0.0
C144 C 0.84881 0.04145 0.41459 0.0
C145 C 0.83976 0.04653 0.43575 0.0
N146 N 0.81323 0.01983 0.41216 0.0
N147 N 0.83223 0.02538 0.40088 0.0
C148 C 0.79955 0.02982 0.45229 0.0
H149 H 0.78492 0.01316 0.45035 0.0
H150 H 0.80569 0.03247 0.47282 0.0
H151 H 0.79453 0.0421 0.44755 0.0
C152 C 0.76183 0.93355 0.41361 0.0
N153 N 0.76346 0.95139 0.40159 0.0
N154 N 0.78051 0.96916 0.4111 0.0
C155 C 0.79019 0.96315 0.4297 0.0
C156 C 0.77859 0.94038 0.43193 0.0
C157 C 0.74516 0.91033 0.40675 0.0
H158 H 0.74492 0.90806 0.38518 0.0
H159 H 0.72866 0.90699 0.41305 0.0
H160 H 0.74882 0.89831 0.41627 0.0
O161 O 0.76394 0.96819 0.34387 0.0
O162 O 0.79168 0.99919 0.35938 0.0
H163 H 0.82377 0.98851 0.43313 0.0
H164 H 0.81357 0.97052 0.46137 0.0
C165 C 0.80933 0.97898 0.44602 0.0
H166 H 0.80534 0.99069 0.45567 0.0
H167 H 0.83387 0.01797 0.38393 0.0
O168 O 0.72402 0.92446 0.36291 0.0
C169 C 0.78158 0.98633 0.34039 0.0
Co170 Co 0.05017 0.78925 0.37986 0.0
Co171 Co 0.00752 0.79036 0.39548 0.0
C172 C 0.01023 0.74895 0.39981 0.0
O173 O 0.02998 0.7585 0.39142 0.0
O174 O 0.99982 0.75941 0.4025 0.0
C175 C 0.08681 0.79095 0.35217 0.0
O176 O 0.07284 0.78213 0.33265 0.0
C177 C 0.97203 0.7885 0.42854 0.0
C178 C 0.96004 0.80589 0.4032 0.0
C179 C 0.95658 0.79527 0.42709 0.0
N180 N 0.98421 0.79501 0.40652 0.0
N181 N 0.97697 0.80542 0.39152 0.0
C182 C 0.97411 0.77471 0.44951 0.0
H183 H 0.98733 0.77104 0.44471 0.0
H184 H 0.97795 0.78345 0.4686 0.0
H185 H 0.95823 0.75916 0.45171 0.0
C186 C 0.06941 0.82508 0.419 0.0
N187 N 0.05206 0.80977 0.40537 0.0
N188 N 0.0344 0.81059 0.41204 0.0
C189 C 0.04003 0.8266 0.43014 0.0
C190 C 0.0624 0.83618 0.43526 0.0
C191 C 0.09248 0.82975 0.41529 0.0
H192 H 0.09686 0.83302 0.3942 0.0
H193 H 0.09353 0.81509 0.42118 0.0
H194 H 0.10448 0.8442 0.42682 0.0
O195 O 0.03985 0.79435 0.34586 0.0
O196 O 0.00965 0.7949 0.35701 0.0
H197 H 0.01446 0.83469 0.42781 0.0
H198 H 0.03243 0.84654 0.4559 0.0
C199 C 0.0241 0.83189 0.44303 0.0
H200 H 0.01255 0.81771 0.45518 0.0
H201 H 0.98347 0.81206 0.37315 0.0
O202 O 0.08011 0.79406 0.37405 0.0
C203 C 0.02325 0.79611 0.33969 0.0
Co204 Co 0.74431 0.79167 0.87598 0.0
Co205 Co 0.7869 0.79171 0.8955 0.0
C206 C 0.74184 0.75071 0.89675 0.0
O207 O 0.73229 0.76059 0.88719 0.0
O208 O 0.76254 0.76087 0.90102 0.0
C209 C 0.71481 0.79768 0.84232 0.0
O210 O 0.72208 0.78953 0.82428 0.0
C211 C 0.81733 0.78765 0.93217 0.0
C212 C 0.84902 0.80777 0.91182 0.0
C213 C 0.83977 0.79521 0.93415 0.0
N214 N 0.81367 0.79543 0.90973 0.0
N215 N 0.83267 0.80734 0.89764 0.0
C216 C 0.79975 0.77458 0.95181 0.0
H217 H 0.78581 0.77766 0.94944 0.0
H218 H 0.80635 0.77878 0.97211 0.0
H219 H 0.79352 0.75681 0.94843 0.0
C220 C 0.75868 0.82609 0.91658 0.0
N221 N 0.76142 0.81116 0.90309 0.0
N222 N 0.77979 0.81211 0.91062 0.0
C223 C 0.78963 0.82813 0.9288 0.0
C224 C 0.77656 0.83754 0.93319 0.0
C225 C 0.73859 0.82828 0.91466 0.0
H226 H 0.72375 0.81175 0.9132 0.0
H227 H 0.73685 0.83687 0.93198 0.0
H228 H 0.73964 0.83765 0.89664 0.0
O229 O 0.76231 0.79713 0.84402 0.0
O230 O 0.79218 0.79694 0.85745 0.0
H231 H 0.81893 0.85157 0.94977 0.0
H232 H 0.81006 0.82294 0.9555 0.0
C233 C 0.81172 0.83511 0.94048 0.0
H234 H 0.82305 0.83567 0.925 0.0
H235 H 0.8345 0.81538 0.87979 0.0
O236 O 0.72093 0.7985 0.86602 0.0
C237 C 0.78081 0.79875 0.83924 0.0
Co238 Co 0.2133 0.95132 0.88539 0.0
Co239 Co 0.21192 0.99352 0.90351 0.0
C240 C 0.254 0.9919 0.90374 0.0
O241 O 0.24436 0.97216 0.89518 0.0
O242 O 0.24342 0.002 0.90803 0.0
C243 C 0.2099 0.91493 0.85543 0.0
O244 O 0.21723 0.92905 0.83592 0.0
C245 C 0.21458 0.03079 0.93486 0.0
C246 C 0.18656 0.03241 0.91756 0.0
C247 C 0.20271 0.0418 0.93666 0.0
N248 N 0.2055 0.01543 0.91588 0.0
N249 N 0.18888 0.01666 0.90557 0.0
C250 C 0.23458 0.03514 0.9501 0.0
H251 H 0.24467 0.03003 0.93875 0.0
H252 H 0.22943 0.02545 0.96856 0.0
H253 H 0.2447 0.05285 0.95501 0.0
C254 C 0.17899 0.93122 0.92612 0.0
N255 N 0.19392 0.94888 0.91262 0.0
N256 N 0.19323 0.96637 0.92047 0.0
C257 C 0.17782 0.96034 0.93938 0.0
C258 C 0.16833 0.93788 0.94355 0.0
C259 C 0.17383 0.90818 0.92074 0.0
H260 H 0.18849 0.90672 0.92533 0.0
H261 H 0.15966 0.89591 0.93239 0.0
H262 H 0.16995 0.90451 0.89958 0.0
O263 O 0.20609 0.96141 0.85267 0.0
O264 O 0.20552 0.99127 0.86545 0.0
H265 H 0.1644 0.98173 0.93978 0.0
H266 H 0.16162 0.9678 0.97058 0.0
C267 C 0.17257 0.97582 0.95353 0.0
H268 H 0.18799 0.99022 0.96055 0.0
H269 H 0.17891 0.00649 0.89049 0.0
O270 O 0.20861 0.92154 0.87825 0.0
C271 C 0.20362 0.97777 0.84759 0.0
Co272 Co 0.04968 0.26251 0.88221 0.0
Co273 Co 0.00718 0.21792 0.89703 0.0
C274 C 0.0094 0.26229 0.90035 0.0
O275 O 0.0295 0.27313 0.89329 0.0
O276 O 0.99918 0.24133 0.90225 0.0
C277 C 0.08622 0.29333 0.85148 0.0
O278 O 0.07163 0.28572 0.83247 0.0
C279 C 0.9725 0.1841 0.93117 0.0
C280 C 0.95894 0.15529 0.90469 0.0
C281 C 0.95658 0.16199 0.92943 0.0
N282 N 0.9838 0.19008 0.90846 0.0
N283 N 0.97561 0.17274 0.89281 0.0
C284 C 0.976 0.19964 0.95318 0.0
H285 H 0.98619 0.21693 0.94661 0.0
H286 H 0.98463 0.19671 0.96956 0.0
H287 H 0.95994 0.19675 0.96068 0.0
C288 C 0.06859 0.24707 0.92288 0.0
N289 N 0.05134 0.24445 0.90859 0.0
N290 N 0.03407 0.22527 0.91408 0.0
C291 C 0.04003 0.21471 0.93151 0.0
C292 C 0.06211 0.22824 0.93774 0.0
C293 C 0.09049 0.26776 0.92318 0.0
H294 H 0.08815 0.28225 0.92255 0.0
H295 H 0.10005 0.26889 0.94104 0.0
H296 H 0.09994 0.26817 0.90553 0.0
O297 O 0.03923 0.24589 0.84865 0.0
O298 O 0.00979 0.2144 0.85926 0.0
H299 H 0.01454 0.18154 0.92392 0.0
H300 H 0.03522 0.18391 0.94684 0.0
C301 C 0.02545 0.19147 0.94023 0.0
H302 H 0.01514 0.19123 0.95682 0.0
H303 H 0.9813 0.17284 0.87386 0.0
O304 O 0.08001 0.28702 0.87491 0.0
C305 C 0.02346 0.22706 0.84227 0.0
Co306 Co 0.79263 0.74332 0.61163 0.0
Co307 Co 0.79366 0.78678 0.59395 0.0
C308 C 0.75202 0.74242 0.59211 0.0
O309 O 0.7617 0.73247 0.60103 0.0
O310 O 0.76245 0.76318 0.58819 0.0
C311 C 0.79925 0.7133 0.64322 0.0
O312 O 0.79427 0.72243 0.66252 0.0
C313 C 0.79135 0.819 0.55876 0.0
C314 C 0.81143 0.84979 0.58093 0.0
C315 C 0.7995 0.8416 0.55794 0.0
N316 N 0.79824 0.81425 0.58117 0.0
N317 N 0.81012 0.8327 0.59436 0.0
C318 C 0.77863 0.80226 0.53809 0.0
H319 H 0.781 0.78784 0.54016 0.0
H320 H 0.78378 0.80949 0.51819 0.0
H321 H 0.76088 0.79651 0.54055 0.0
C322 C 0.8267 0.75768 0.57069 0.0
N323 N 0.81209 0.76058 0.58465 0.0
N324 N 0.81348 0.77931 0.57788 0.0
C325 C 0.82951 0.78925 0.55975 0.0
C326 C 0.8384 0.77583 0.55456 0.0
C327 C 0.82837 0.73725 0.57179 0.0
H328 H 0.83725 0.7375 0.58994 0.0
H329 H 0.81167 0.7226 0.57249 0.0
H330 H 0.83713 0.73581 0.55448 0.0
O331 O 0.79892 0.7608 0.64432 0.0
O332 O 0.79916 0.79113 0.63201 0.0
H333 H 0.83767 0.82279 0.56493 0.0
H334 H 0.85372 0.81892 0.54014 0.0
C335 C 0.83714 0.81177 0.54902 0.0
H336 H 0.82539 0.81083 0.5338 0.0
H337 H 0.81759 0.83368 0.61242 0.0
O338 O 0.7981 0.71869 0.61968 0.0
C339 C 0.80094 0.77939 0.64974 0.0
Co340 Co 0.25316 0.04765 0.62024 0.0
Co341 Co 0.21141 0.00394 0.60179 0.0
C342 C 0.25707 0.00997 0.59874 0.0
O343 O 0.26616 0.02948 0.6081 0.0
O344 O 0.2363 0.99863 0.59524 0.0
C345 C 0.29085 0.0849 0.64601 0.0
O346 O 0.29474 0.0705 0.65768 0.0
C347 C 0.18018 0.96797 0.56713 0.0
C348 C 0.14879 0.95848 0.58723 0.0
C349 C 0.15757 0.95385 0.56544 0.0
N350 N 0.18439 0.98035 0.58886 0.0
N351 N 0.16558 0.97444 0.60086 0.0
C352 C 0.19738 0.97109 0.54758 0.0
H353 H 0.21188 0.98785 0.54934 0.0
H354 H 0.19071 0.96842 0.5273 0.0
H355 H 0.20279 0.95898 0.55158 0.0
C356 C 0.23615 0.06613 0.58077 0.0
N357 N 0.23466 0.04891 0.59414 0.0
N358 N 0.21711 0.03079 0.58622 0.0
C359 C 0.20692 0.036 0.56741 0.0
C360 C 0.21864 0.05854 0.56353 0.0
C361 C 0.25442 0.08936 0.58379 0.0
H362 H 0.27046 0.0899 0.58293 0.0
H363 H 0.25391 0.1002 0.56828 0.0
H364 H 0.25294 0.09558 0.60324 0.0
O365 O 0.23676 0.03504 0.65305 0.0
O366 O 0.20731 0.00429 0.64017 0.0
H367 H 0.18004 0.02824 0.54066 0.0
H368 H 0.18959 0.00869 0.54154 0.0
C369 C 0.18629 0.01985 0.55361 0.0
H370 H 0.17352 0.00982 0.56828 0.0
H371 H 0.16416 0.98167 0.61811 0.0
O372 O 0.27536 0.07836 0.62934 0.0
C373 C 0.21874 0.01767 0.65821 0.0
Co374 Co 0.95425 0.21436 0.61831 0.0
Co375 Co 0.99525 0.21317 0.59575 0.0
C376 C 0.99215 0.25469 0.59497 0.0
O377 O 0.97314 0.24523 0.60572 0.0
O378 O 0.00225 0.24418 0.58993 0.0
C379 C 0.9122 0.21485 0.6291 0.0
O380 O 0.91769 0.23188 0.6138 0.0
C381 C 0.03324 0.21776 0.56444 0.0
C382 C 0.03153 0.18636 0.57476 0.0
C383 C 0.04318 0.20518 0.55981 0.0
N384 N 0.01628 0.20658 0.58097 0.0
N385 N 0.01554 0.18795 0.5872 0.0
C386 C 0.04068 0.24067 0.55535 0.0
H387 H 0.03869 0.25011 0.57147 0.0
H388 H 0.0303 0.24011 0.53859 0.0
H389 H 0.05817 0.24926 0.54927 0.0
C390 C 0.93144 0.17862 0.57953 0.0
N391 N 0.94987 0.19387 0.59164 0.0
N392 N 0.96692 0.19331 0.58187 0.0
C393 C 0.95983 0.17783 0.56288 0.0
C394 C 0.93714 0.16796 0.56092 0.0
C395 C 0.90875 0.17365 0.58673 0.0
H396 H 0.90614 0.17014 0.60807 0.0
H397 H 0.90707 0.18824 0.58252 0.0
H398 H 0.89591 0.15927 0.57585 0.0
O399 O 0.96798 0.20961 0.6492 0.0
O400 O 0.99696 0.20874 0.6339 0.0
H401 H 0.97946 0.16288 0.55655 0.0
H402 H 0.96599 0.16481 0.52742 0.0
C403 C 0.9745 0.17342 0.54575 0.0
H404 H 0.98945 0.18908 0.54057 0.0
H405 H 0.00397 0.17624 0.59993 0.0
O406 O 0.92524 0.20744 0.63203 0.0
C407 C 0.98478 0.20768 0.65292 0.0
Co408 Co 0.92388 0.54305 0.44773 0.0
Co409 Co 0.88141 0.54352 0.42939 0.0
C410 C 0.92576 0.58414 0.42678 0.0
O411 O 0.93512 0.57415 0.43655 0.0
O412 O 0.90511 0.57413 0.42243 0.0
C413 C 0.95745 0.53993 0.47712 0.0
O414 O 0.95148 0.54801 0.49664 0.0
C415 C 0.84919 0.54762 0.39612 0.0
C416 C 0.81821 0.5251 0.41658 0.0
C417 C 0.82653 0.53909 0.39518 0.0
N418 N 0.85384 0.53902 0.4171 0.0
N419 N 0.83527 0.52567 0.42928 0.0
C420 C 0.8661 0.56232 0.37662 0.0
H421 H 0.88066 0.56009 0.37746 0.0
H422 H 0.85918 0.55883 0.35644 0.0
H423 H 0.87154 0.5797 0.38151 0.0
C424 C 0.90787 0.50753 0.40828 0.0
N425 N 0.90595 0.52312 0.42141 0.0
N426 N 0.88796 0.52289 0.41375 0.0
C427 C 0.87779 0.50702 0.39545 0.0
C428 C 0.89018 0.49687 0.39132 0.0
C429 C 0.92563 0.50211 0.41321 0.0
H430 H 0.92603 0.49878 0.43444 0.0
H431 H 0.94172 0.51646 0.4078 0.0
H432 H 0.92307 0.4875 0.40193 0.0
O433 O 0.90717 0.53725 0.48083 0.0
O434 O 0.87818 0.53953 0.46791 0.0
H435 H 0.84375 0.49751 0.39627 0.0
H436 H 0.85195 0.48885 0.36697 0.0
C437 C 0.85705 0.50221 0.38163 0.0
H438 H 0.85959 0.51725 0.37144 0.0
H439 H 0.83423 0.51676 0.44616 0.0
O440 O 0.94863 0.53775 0.45469 0.0
C441 C 0.88927 0.5369 0.48585 0.0
Co442 Co 0.45897 0.38283 0.44603 0.0
Co443 Co 0.45833 0.33968 0.42749 0.0
C444 C 0.41763 0.34396 0.42641 0.0
O445 O 0.42776 0.3636 0.43531 0.0
O446 O 0.42756 0.33318 0.42249 0.0
C447 C 0.46664 0.41952 0.47804 0.0
O448 O 0.46106 0.4051 0.4971 0.0
C449 C 0.45419 0.30406 0.39236 0.0
C450 C 0.47046 0.29024 0.41668 0.0
C451 C 0.45958 0.28755 0.39312 0.0
N452 N 0.46163 0.31599 0.41454 0.0
N453 N 0.47145 0.30769 0.42885 0.0
C454 C 0.4408 0.30741 0.37197 0.0
H455 H 0.43678 0.3201 0.37831 0.0
H456 H 0.45017 0.31281 0.35333 0.0
H457 H 0.42548 0.29164 0.36809 0.0
C458 C 0.49371 0.40203 0.40582 0.0
N459 N 0.47832 0.38455 0.41914 0.0
N460 N 0.4784 0.36673 0.41126 0.0
C461 C 0.4939 0.37238 0.39255 0.0
C462 C 0.50407 0.39491 0.38857 0.0
C463 C 0.49796 0.42502 0.40917 0.0
H464 H 0.50482 0.43104 0.42905 0.0
H465 H 0.48224 0.42507 0.40756 0.0
H466 H 0.50959 0.43634 0.39422 0.0
O467 O 0.46473 0.37105 0.47844 0.0
O468 O 0.4642 0.3407 0.46558 0.0
H469 H 0.50091 0.34603 0.39465 0.0
H470 H 0.51525 0.36558 0.36861 0.0
C471 C 0.49957 0.35673 0.37963 0.0
H472 H 0.48625 0.34615 0.36578 0.0
H473 H 0.47851 0.31371 0.44722 0.0
O474 O 0.46539 0.41318 0.45439 0.0
C475 C 0.46635 0.3542 0.48353 0.0
Co476 Co 0.615 0.06949 0.44866 0.0
Co477 Co 0.65618 0.11227 0.42816 0.0
C478 C 0.6538 0.06816 0.42638 0.0
O479 O 0.63449 0.05822 0.43621 0.0
O480 O 0.66387 0.08888 0.42226 0.0
C481 C 0.57245 0.02745 0.45078 0.0
O482 O 0.57716 0.02112 0.42863 0.0
C483 C 0.69171 0.14432 0.39371 0.0
C484 C 0.69797 0.17553 0.41188 0.0
C485 C 0.70467 0.16709 0.39159 0.0
N486 N 0.67812 0.13974 0.41429 0.0
N487 N 0.68203 0.15845 0.4251 0.0
C488 C 0.69088 0.12715 0.37559 0.0
H489 H 0.67446 0.11208 0.37645 0.0
H490 H 0.69447 0.13336 0.3551 0.0
H491 H 0.70335 0.12279 0.38185 0.0
C492 C 0.59278 0.08427 0.41068 0.0
N493 N 0.61094 0.08642 0.42249 0.0
N494 N 0.62827 0.1042 0.41348 0.0
C495 C 0.62171 0.11374 0.39536 0.0
C496 C 0.599 0.10139 0.393 0.0
C497 C 0.56977 0.06725 0.41774 0.0
H498 H 0.56811 0.06556 0.43937 0.0
H499 H 0.56605 0.05124 0.40917 0.0
H500 H 0.55761 0.07161 0.41022 0.0
O501 O 0.62752 0.0872 0.48055 0.0
O502 O 0.65644 0.11767 0.46631 0.0
H503 H 0.6446 0.14821 0.39341 0.0
H504 H 0.62836 0.13711 0.36392 0.0
C505 C 0.63698 0.13383 0.38003 0.0
H506 H 0.65024 0.13165 0.37143 0.0
H507 H 0.67365 0.15956 0.44141 0.0
O508 O 0.58621 0.04579 0.46083 0.0
C509 C 0.64391 0.10614 0.48489 0.0
Co510 Co 0.87295 0.58847 0.71328 0.0
Co511 Co 0.87372 0.54652 0.73389 0.0
C512 C 0.91401 0.59097 0.73601 0.0
O513 O 0.90396 0.5999 0.72524 0.0
O514 O 0.90417 0.57042 0.7411 0.0
C515 C 0.87061 0.6222 0.68288 0.0
O516 O 0.87951 0.6166 0.6639 0.0
C517 C 0.87991 0.51297 0.76237 0.0
C518 C 0.84745 0.48348 0.7556 0.0
C519 C 0.86727 0.49068 0.7685 0.0
N520 N 0.86778 0.5186 0.74724 0.0
N521 N 0.84857 0.5008 0.74294 0.0
C522 C 0.90356 0.52832 0.76876 0.0
H523 H 0.91169 0.53949 0.75195 0.0
H524 H 0.90467 0.53841 0.78608 0.0
H525 H 0.91237 0.51923 0.7729 0.0
C526 C 0.83758 0.5735 0.75261 0.0
N527 N 0.85291 0.57105 0.73964 0.0
N528 N 0.85339 0.55382 0.74896 0.0
C529 C 0.83864 0.54507 0.76869 0.0
C530 C 0.8281 0.5572 0.77149 0.0
C531 C 0.83155 0.5906 0.74618 0.0
H532 H 0.82876 0.59049 0.72472 0.0
H533 H 0.84537 0.60701 0.75171 0.0
H534 H 0.81646 0.58767 0.75657 0.0
O535 O 0.86756 0.57119 0.68087 0.0
O536 O 0.87019 0.54272 0.6952 0.0
H537 H 0.82458 0.51077 0.77651 0.0
H538 H 0.82878 0.5272 0.80534 0.0
C539 C 0.83591 0.52669 0.78608 0.0
H540 H 0.85199 0.52771 0.78938 0.0
H541 H 0.83601 0.5006 0.73176 0.0
O542 O 0.86767 0.61309 0.70524 0.0
C543 C 0.86754 0.55334 0.67668 0.0
Co544 Co 0.41033 0.2857 0.71036 0.0
Co545 Co 0.45278 0.32845 0.72935 0.0
C546 C 0.40763 0.32411 0.73125 0.0
O547 O 0.39804 0.30457 0.72192 0.0
O548 O 0.4284 0.33481 0.73509 0.0
C549 C 0.36753 0.24357 0.70479 0.0
O550 O 0.35746 0.25153 0.71891 0.0
C551 C 0.4842 0.36431 0.76414 0.0
C552 C 0.51565 0.37237 0.74517 0.0
C553 C 0.50689 0.3779 0.76623 0.0
N554 N 0.47995 0.35141 0.74288 0.0
N555 N 0.49881 0.35645 0.73157 0.0
C556 C 0.46688 0.3622 0.7829 0.0
H557 H 0.45206 0.34563 0.7813 0.0
H558 H 0.47316 0.36509 0.80338 0.0
H559 H 0.46209 0.37461 0.77791 0.0
C560 C 0.42532 0.26602 0.75091 0.0
N561 N 0.42783 0.28349 0.73712 0.0
N562 N 0.44588 0.30117 0.74489 0.0
C563 C 0.45555 0.29543 0.76378 0.0
C564 C 0.44276 0.273 0.76823 0.0
C565 C 0.40693 0.24296 0.74689 0.0
H566 H 0.40686 0.23813 0.72614 0.0
H567 H 0.39106 0.24219 0.75097 0.0
H568 H 0.40854 0.23108 0.75972 0.0
O569 O 0.42761 0.29811 0.67806 0.0
O570 O 0.45767 0.32812 0.69118 0.0
H571 H 0.48953 0.32019 0.76386 0.0
H572 H 0.48102 0.30284 0.7927 0.0
C573 C 0.47602 0.31126 0.77814 0.0
H574 H 0.47316 0.32346 0.78855 0.0
H575 H 0.5002 0.34872 0.71477 0.0
O576 O 0.38788 0.25549 0.69989 0.0
C577 C 0.44611 0.31494 0.67307 0.0
Co578 Co 0.71649 0.12512 0.70849 0.0
Co579 Co 0.67459 0.12537 0.72989 0.0
C580 C 0.67835 0.08434 0.73105 0.0
O581 O 0.69759 0.09425 0.72097 0.0
O582 O 0.66776 0.09443 0.73556 0.0
C583 C 0.75968 0.12707 0.70539 0.0
O584 O 0.75554 0.11627 0.72767 0.0
C585 C 0.63716 0.12154 0.76225 0.0
C586 C 0.6371 0.15139 0.74859 0.0
C587 C 0.6268 0.1339 0.76587 0.0
N588 N 0.65304 0.13162 0.74406 0.0
N589 N 0.6527 0.14931 0.73588 0.0
C590 C 0.6315 0.10006 0.7747 0.0
H591 H 0.63556 0.09023 0.76128 0.0
H592 H 0.64127 0.10319 0.79295 0.0
H593 H 0.61375 0.09048 0.77958 0.0
C594 C 0.7381 0.16128 0.74753 0.0
N595 N 0.72015 0.14566 0.73497 0.0
N596 N 0.70258 0.14538 0.74447 0.0
C597 C 0.70881 0.16048 0.76381 0.0
C598 C 0.73148 0.17103 0.76629 0.0
C599 C 0.76127 0.16769 0.7408 0.0
H600 H 0.7633 0.16825 0.71919 0.0
H601 H 0.76506 0.15536 0.74905 0.0
H602 H 0.77313 0.18406 0.749 0.0
O603 O 0.70325 0.12981 0.67709 0.0
O604 O 0.67377 0.13014 0.69161 0.0
H605 H 0.68707 0.17309 0.76965 0.0
H606 H 0.70152 0.17306 0.7989 0.0
C607 C 0.69332 0.16377 0.78079 0.0
H608 H 0.67919 0.14761 0.78638 0.0
H609 H 0.66339 0.16016 0.72177 0.0
O610 O 0.74544 0.13107 0.69556 0.0
C611 C 0.68638 0.13155 0.67291 0.0
Co612 Co 0.40378 0.11837 0.21259 0.0
Co613 Co 0.44752 0.12077 0.23181 0.0
C614 C 0.40352 0.07867 0.23414 0.0
O615 O 0.39318 0.08769 0.22445 0.0
O616 O 0.42424 0.08964 0.23809 0.0
C617 C 0.37499 0.12621 0.17988 0.0
O618 O 0.38556 0.12301 0.1607 0.0
C619 C 0.47902 0.11862 0.26821 0.0
C620 C 0.5103 0.13898 0.24715 0.0
C621 C 0.50157 0.1267 0.26979 0.0
N622 N 0.47481 0.12581 0.2457 0.0
N623 N 0.49355 0.13791 0.23318 0.0
C624 C 0.4618 0.10552 0.28822 0.0
H625 H 0.44761 0.10825 0.28602 0.0
H626 H 0.46862 0.11004 0.30839 0.0
H627 H 0.45582 0.08778 0.28506 0.0
C628 C 0.41737 0.15338 0.25245 0.0
N629 N 0.42064 0.13866 0.23924 0.0
N630 N 0.43947 0.14057 0.24656 0.0
C631 C 0.44909 0.15699 0.26427 0.0
C632 C 0.43536 0.16566 0.26864 0.0
C633 C 0.39674 0.15462 0.25065 0.0
H634 H 0.38227 0.13778 0.25021 0.0
H635 H 0.39501 0.16361 0.26754 0.0
H636 H 0.39693 0.16307 0.23215 0.0
O637 O 0.42169 0.12411 0.18028 0.0
O638 O 0.45233 0.12554 0.19376 0.0
H639 H 0.47842 0.18178 0.28401 0.0
H640 H 0.47076 0.15358 0.29081 0.0
C641 C 0.47159 0.16512 0.27538 0.0
H642 H 0.48281 0.16573 0.25971 0.0
H643 H 0.49493 0.14556 0.21515 0.0
O644 O 0.37902 0.12341 0.20349 0.0
C645 C 0.44053 0.1265 0.1755 0.0
Co646 Co 0.87648 0.28304 0.21622 0.0
Co647 Co 0.87419 0.32437 0.23589 0.0
C648 C 0.91637 0.323 0.23754 0.0
O649 O 0.90714 0.30364 0.22781 0.0
O650 O 0.90555 0.33286 0.2419 0.0
C651 C 0.87177 0.24789 0.18338 0.0
O652 O 0.87718 0.26266 0.16477 0.0
C653 C 0.87657 0.35981 0.26982 0.0
C654 C 0.85136 0.36532 0.25099 0.0
C655 C 0.86633 0.3724 0.27151 0.0
N656 N 0.86798 0.34606 0.24926 0.0
N657 N 0.853 0.34952 0.23807 0.0
C658 C 0.89296 0.35946 0.2883 0.0
H659 H 0.89198 0.3432 0.28768 0.0
H660 H 0.89008 0.36307 0.30867 0.0
H661 H 0.90974 0.37214 0.28217 0.0
C662 C 0.84109 0.26123 0.25533 0.0
N663 N 0.85622 0.27941 0.2428 0.0
N664 N 0.85495 0.29649 0.25106 0.0
C665 C 0.83886 0.28967 0.2692 0.0
C666 C 0.8296 0.26711 0.2725 0.0
C667 C 0.83674 0.23851 0.24941 0.0
H668 H 0.85167 0.2375 0.25393 0.0
H669 H 0.82265 0.22578 0.26076 0.0
H670 H 0.83315 0.23509 0.22816 0.0
O671 O 0.87005 0.29454 0.18408 0.0
O672 O 0.86899 0.32392 0.19765 0.0
H673 H 0.82628 0.31177 0.26933 0.0
H674 H 0.82052 0.29571 0.29907 0.0
C675 C 0.83289 0.30455 0.28351 0.0
H676 H 0.84782 0.31816 0.29265 0.0
H677 H 0.84375 0.34093 0.22169 0.0
O678 O 0.8722 0.25358 0.20718 0.0
C679 C 0.86761 0.31095 0.17938 0.0
Co680 Co 0.71572 0.59722 0.21406 0.0
Co681 Co 0.67347 0.5541 0.23303 0.0
C682 C 0.67625 0.59823 0.23559 0.0
O683 O 0.69563 0.60795 0.22594 0.0
O684 O 0.66587 0.5775 0.23971 0.0
C685 C 0.75242 0.62934 0.18343 0.0
O686 O 0.73849 0.62206 0.1637 0.0
C687 C 0.63487 0.51935 0.26219 0.0
C688 C 0.63653 0.49004 0.24983 0.0
C689 C 0.62495 0.49668 0.26575 0.0
N690 N 0.65178 0.5257 0.24542 0.0
N691 N 0.65247 0.50804 0.23791 0.0
C692 C 0.6277 0.53458 0.27294 0.0
H693 H 0.63009 0.54696 0.25793 0.0
H694 H 0.63792 0.54329 0.29031 0.0
H695 H 0.61011 0.52557 0.27864 0.0
C696 C 0.73631 0.582 0.25318 0.0
N697 N 0.71853 0.57962 0.24021 0.0
N698 N 0.70095 0.56185 0.24872 0.0
C699 C 0.70701 0.55257 0.26778 0.0
C700 C 0.72961 0.56501 0.27113 0.0
C701 C 0.75937 0.59954 0.24732 0.0
H702 H 0.76153 0.61572 0.25319 0.0
H703 H 0.77164 0.59677 0.25774 0.0
H704 H 0.76235 0.59988 0.2259 0.0
O705 O 0.70423 0.58042 0.18118 0.0
O706 O 0.67423 0.55042 0.19456 0.0
H707 H 0.68646 0.51785 0.27201 0.0
H708 H 0.69908 0.5319 0.3022 0.0
C709 C 0.6914 0.53298 0.28362 0.0
H710 H 0.67651 0.53394 0.28833 0.0
H711 H 0.6641 0.50836 0.22492 0.0
O712 O 0.74559 0.62207 0.20642 0.0
C713 C 0.68727 0.56196 0.17632 0.0
Co714 Co 0.46036 0.0784 0.94613 0.0
Co715 Co 0.45971 0.12125 0.92995 0.0
C716 C 0.41923 0.07631 0.92632 0.0
O717 O 0.42936 0.06667 0.93475 0.0
O718 O 0.42909 0.09714 0.92339 0.0
C719 C 0.46361 0.04462 0.97467 0.0
O720 O 0.45392 0.04915 0.99373 0.0
C721 C 0.45666 0.15403 0.89626 0.0
C722 C 0.47324 0.18355 0.92151 0.0
C723 C 0.46284 0.17615 0.89752 0.0
N724 N 0.4633 0.14871 0.91848 0.0
N725 N 0.47322 0.16645 0.93341 0.0
C726 C 0.44343 0.13793 0.87519 0.0
H727 H 0.43699 0.12081 0.88202 0.0
H728 H 0.45393 0.14062 0.85777 0.0
H729 H 0.42967 0.14042 0.86904 0.0
C730 C 0.49616 0.09586 0.90708 0.0
N731 N 0.48036 0.09724 0.92041 0.0
N732 N 0.48044 0.11534 0.9135 0.0
C733 C 0.49641 0.12607 0.89548 0.0
C734 C 0.50683 0.11404 0.8909 0.0
C735 C 0.50055 0.07717 0.90934 0.0
H736 H 0.50706 0.07734 0.92926 0.0
H737 H 0.48495 0.0614 0.90679 0.0
H738 H 0.51255 0.07819 0.89446 0.0
O739 O 0.46507 0.09409 0.9798 0.0
O740 O 0.46445 0.12421 0.96835 0.0
H741 H 0.50295 0.1592 0.89938 0.0
H742 H 0.51844 0.15534 0.87364 0.0
C743 C 0.50232 0.14788 0.88379 0.0
H744 H 0.48957 0.14563 0.86935 0.0
H745 H 0.47987 0.16686 0.95188 0.0
O746 O 0.46665 0.0543 0.95269 0.0
C747 C 0.4662 0.11221 0.98579 0.0
Co748 Co 0.92239 0.38062 0.95365 0.0
Co749 Co 0.88019 0.33831 0.93398 0.0
C750 C 0.92485 0.34206 0.93269 0.0
O751 O 0.93462 0.36183 0.94124 0.0
O752 O 0.90406 0.33125 0.92935 0.0
C753 C 0.96403 0.42354 0.95567 0.0
O754 O 0.97104 0.41807 0.93464 0.0
C755 C 0.84912 0.30216 0.89943 0.0
C756 C 0.81748 0.29489 0.91717 0.0
C757 C 0.82642 0.28872 0.8969 0.0
N758 N 0.85314 0.31555 0.92013 0.0
N759 N 0.83418 0.311 0.93072 0.0
C760 C 0.86675 0.30372 0.88156 0.0
H761 H 0.88188 0.31998 0.88364 0.0
H762 H 0.86114 0.30123 0.86082 0.0
H763 H 0.87078 0.29083 0.88697 0.0
C764 C 0.90699 0.40125 0.9144 0.0
N765 N 0.90495 0.38357 0.92728 0.0
N766 N 0.88774 0.36576 0.91811 0.0
C767 C 0.87865 0.3715 0.89853 0.0
C768 C 0.89058 0.39424 0.8955 0.0
C769 C 0.92337 0.42455 0.92135 0.0
H770 H 0.9248 0.42644 0.94299 0.0
H771 H 0.93964 0.42875 0.91318 0.0
H772 H 0.91851 0.43621 0.91344 0.0
O773 O 0.90505 0.36787 0.98573 0.0
O774 O 0.87466 0.33852 0.97204 0.0
H775 H 0.84471 0.34731 0.89405 0.0
H776 H 0.85711 0.36316 0.8646 0.0
C777 C 0.85987 0.35534 0.88197 0.0
H778 H 0.86334 0.34249 0.87492 0.0
H779 H 0.83263 0.31914 0.94702 0.0
O780 O 0.94544 0.41004 0.96535 0.0
C781 C 0.88631 0.35131 0.9904 0.0
Co782 Co 0.61753 0.54619 0.94752 0.0
Co783 Co 0.6596 0.54448 0.93058 0.0
C784 C 0.65738 0.58607 0.92614 0.0
O785 O 0.63784 0.57678 0.93527 0.0
O786 O 0.66756 0.57543 0.92303 0.0
C787 C 0.58088 0.54305 0.97682 0.0
O788 O 0.59474 0.55038 0.9966 0.0
C789 C 0.69539 0.54682 0.89798 0.0
C790 C 0.70308 0.52416 0.91955 0.0
C791 C 0.70902 0.5377 0.89767 0.0
N792 N 0.68215 0.53897 0.91903 0.0
N793 N 0.68691 0.52553 0.93188 0.0
C794 C 0.69357 0.56137 0.87786 0.0
H795 H 0.67707 0.55982 0.87868 0.0
H796 H 0.69653 0.55711 0.85786 0.0
H797 H 0.70602 0.57873 0.88209 0.0
C798 C 0.5972 0.50987 0.90899 0.0
N799 N 0.61487 0.5253 0.92207 0.0
N800 N 0.63233 0.52433 0.91483 0.0
C801 C 0.62628 0.50817 0.89685 0.0
C802 C 0.6038 0.49856 0.89249 0.0
C803 C 0.57424 0.50528 0.91347 0.0
H804 H 0.57306 0.51984 0.90747 0.0
H805 H 0.56195 0.49065 0.90242 0.0
H806 H 0.57037 0.50237 0.93471 0.0
O807 O 0.62847 0.54122 0.98117 0.0
O808 O 0.65836 0.54046 0.96907 0.0
H809 H 0.6502 0.49786 0.89829 0.0
H810 H 0.63343 0.48924 0.86891 0.0
C811 C 0.64187 0.5027 0.88341 0.0
H812 H 0.65459 0.51747 0.87306 0.0
H813 H 0.67894 0.51712 0.94896 0.0
O814 O 0.58771 0.54156 0.95422 0.0
C815 C 0.64516 0.53945 0.98681 0.0
Co816 Co 0.59538 0.87911 0.78253 0.0
Co817 Co 0.55311 0.8784 0.76035 0.0
C818 C 0.59754 0.91958 0.75913 0.0
O819 O 0.60693 0.90994 0.76982 0.0
O820 O 0.57694 0.90927 0.75424 0.0
C821 C 0.63738 0.87899 0.78404 0.0
O822 O 0.64294 0.89038 0.76211 0.0
C823 C 0.51974 0.88453 0.73093 0.0
C824 C 0.49019 0.85215 0.73779 0.0
C825 C 0.49738 0.87207 0.72518 0.0
N826 N 0.52543 0.87225 0.74572 0.0
N827 N 0.5076 0.85305 0.74996 0.0
C828 C 0.53503 0.90826 0.72485 0.0
H829 H 0.54571 0.91638 0.74205 0.0
H830 H 0.54564 0.90954 0.70802 0.0
H831 H 0.52594 0.91696 0.72008 0.0
C832 C 0.58089 0.84235 0.74445 0.0
N833 N 0.57858 0.85828 0.75621 0.0
N834 N 0.56146 0.85854 0.74605 0.0
C835 C 0.55285 0.84326 0.72686 0.0
C836 C 0.56477 0.83242 0.72539 0.0
C837 C 0.59719 0.83564 0.75256 0.0
H838 H 0.59858 0.83595 0.77425 0.0
H839 H 0.61346 0.84732 0.74409 0.0
H840 H 0.59229 0.81884 0.74555 0.0
O841 O 0.57732 0.87421 0.81388 0.0
O842 O 0.54752 0.87369 0.79872 0.0
H843 H 0.51862 0.82866 0.71823 0.0
H844 H 0.53551 0.83283 0.68991 0.0
C845 C 0.5346 0.84008 0.70891 0.0
H846 H 0.53542 0.85601 0.70512 0.0
H847 H 0.50737 0.84046 0.76112 0.0
O848 O 0.61915 0.87387 0.79485 0.0
C849 C 0.5586 0.87235 0.81767 0.0
Co850 Co 0.11927 0.71729 0.78089 0.0
Co851 Co 0.12137 0.67614 0.75962 0.0
C852 C 0.07886 0.67714 0.7614 0.0
O853 O 0.08824 0.69661 0.77077 0.0
O854 O 0.08973 0.66746 0.75624 0.0
C855 C 0.12574 0.7526 0.81449 0.0
O856 O 0.12137 0.73799 0.83303 0.0
C857 C 0.11809 0.63932 0.72647 0.0
C858 C 0.14746 0.63869 0.74086 0.0
C859 C 0.13025 0.62872 0.72315 0.0
N860 N 0.12798 0.65496 0.74502 0.0
N861 N 0.14542 0.65434 0.75355 0.0
C862 C 0.09702 0.63414 0.71324 0.0
H863 H 0.08734 0.63902 0.72576 0.0
H864 H 0.10076 0.64349 0.69458 0.0
H865 H 0.08702 0.61631 0.70887 0.0
C866 C 0.15353 0.73943 0.74056 0.0
N867 N 0.13858 0.7211 0.75305 0.0
N868 N 0.13956 0.70408 0.74392 0.0
C869 C 0.1551 0.71107 0.72508 0.0
C870 C 0.16449 0.73368 0.72242 0.0
C871 C 0.15849 0.76215 0.74772 0.0
H872 H 0.1437 0.76363 0.74419 0.0
H873 H 0.17248 0.77499 0.73636 0.0
H874 H 0.16254 0.76498 0.76894 0.0
O875 O 0.1271 0.70592 0.81207 0.0
O876 O 0.12846 0.67697 0.79738 0.0
H877 H 0.16995 0.69103 0.72233 0.0
H878 H 0.17079 0.70493 0.69216 0.0
C879 C 0.16067 0.69639 0.70964 0.0
H880 H 0.14536 0.68162 0.70308 0.0
H881 H 0.15606 0.66476 0.76802 0.0
O882 O 0.1238 0.74669 0.79058 0.0
C883 C 0.13026 0.68985 0.81598 0.0
Co884 Co 0.28529 0.40739 0.77985 0.0
Co885 Co 0.32835 0.45071 0.76333 0.0
C886 C 0.32476 0.40602 0.76001 0.0
O887 O 0.30504 0.39611 0.76858 0.0
O888 O 0.33538 0.42686 0.75695 0.0
C889 C 0.24847 0.37388 0.80901 0.0
O890 O 0.26282 0.37899 0.82809 0.0
C891 C 0.36427 0.48395 0.72987 0.0
C892 C 0.37636 0.51345 0.755 0.0
C893 C 0.37991 0.50615 0.73127 0.0
N894 N 0.35193 0.47844 0.75179 0.0
N895 N 0.35925 0.4962 0.76664 0.0
C896 C 0.36209 0.46797 0.70901 0.0
H897 H 0.35002 0.45089 0.71483 0.0
H898 H 0.35647 0.47182 0.69044 0.0
H899 H 0.37834 0.46947 0.70522 0.0
C900 C 0.26635 0.42406 0.74038 0.0
N901 N 0.28369 0.42587 0.7538 0.0
N902 N 0.30147 0.44418 0.7469 0.0
C903 C 0.2959 0.4547 0.72893 0.0
C904 C 0.27346 0.44217 0.72409 0.0
C905 C 0.24316 0.40609 0.74466 0.0
H906 H 0.23894 0.40586 0.76568 0.0
H907 H 0.24177 0.39003 0.73981 0.0
H908 H 0.23126 0.40834 0.73267 0.0
O909 O 0.29608 0.4235 0.81339 0.0
O910 O 0.32643 0.45388 0.8017 0.0
H911 H 0.3214 0.48836 0.73152 0.0
H912 H 0.30357 0.48232 0.70328 0.0
C913 C 0.31187 0.47599 0.71619 0.0
H914 H 0.32353 0.47345 0.70416 0.0
H915 H 0.35269 0.4965 0.7849 0.0
O916 O 0.25498 0.38296 0.78669 0.0
C917 C 0.31278 0.4419 0.81921 0.0
Co918 Co 0.54421 0.9263 0.04422 0.0
Co919 Co 0.54292 0.88287 0.06248 0.0
C920 C 0.58473 0.92671 0.06406 0.0
O921 O 0.5751 0.93666 0.05502 0.0
O922 O 0.57424 0.90598 0.06814 0.0
C923 C 0.53884 0.95708 0.0129 0.0
O924 O 0.54381 0.94791 0.99364 0.0
C925 C 0.54584 0.85 0.09605 0.0
C926 C 0.52116 0.81917 0.07688 0.0
C927 C 0.53581 0.82718 0.09772 0.0
N928 N 0.53738 0.85503 0.07525 0.0
N929 N 0.52278 0.83654 0.0638 0.0
C930 C 0.56175 0.86679 0.11487 0.0
H931 H 0.56084 0.8821 0.11373 0.0
H932 H 0.55833 0.86035 0.13526 0.0
H933 H 0.57868 0.87084 0.10953 0.0
C934 C 0.50939 0.9119 0.08428 0.0
N935 N 0.52438 0.90917 0.07092 0.0
N936 N 0.52357 0.8909 0.07869 0.0
C937 C 0.50796 0.88141 0.09736 0.0
C938 C 0.49851 0.89445 0.10153 0.0
C939 C 0.50471 0.93018 0.07923 0.0
H940 H 0.50107 0.93042 0.05807 0.0
H941 H 0.51951 0.94612 0.0841 0.0
H942 H 0.49054 0.92833 0.09083 0.0
O943 O 0.53769 0.90889 0.01162 0.0
O944 O 0.53727 0.87852 0.02423 0.0
H945 H 0.49673 0.84695 0.09735 0.0
H946 H 0.49037 0.85662 0.12719 0.0
C947 C 0.50282 0.86073 0.11158 0.0
H948 H 0.51802 0.86273 0.12072 0.0
H949 H 0.51364 0.83578 0.04727 0.0
O950 O 0.53964 0.95146 0.03643 0.0
C951 C 0.5355 0.89021 0.00638 0.0
Co952 Co 0.08089 0.61914 0.03978 0.0
Co953 Co 0.12236 0.66205 0.0605 0.0
C954 C 0.07678 0.65684 0.06027 0.0
O955 O 0.06772 0.63733 0.05093 0.0
O956 O 0.09745 0.66787 0.06476 0.0
C957 C 0.03874 0.57919 0.02467 0.0
O958 O 0.02774 0.58942 0.02934 0.0
C959 C 0.15396 0.69859 0.09543 0.0
C960 C 0.1852 0.70452 0.07784 0.0
C961 C 0.17676 0.71137 0.09797 0.0
N962 N 0.14941 0.68477 0.07498 0.0
N963 N 0.16819 0.68856 0.06455 0.0
C964 C 0.13673 0.69983 0.11136 0.0
H965 H 0.12112 0.69299 0.10031 0.0
H966 H 0.13361 0.68997 0.12952 0.0
H967 H 0.14222 0.71711 0.11686 0.0
C968 C 0.09553 0.59918 0.08013 0.0
N969 N 0.09788 0.61686 0.06696 0.0
N970 N 0.11517 0.63464 0.07603 0.0
C971 C 0.12422 0.6288 0.09559 0.0
C972 C 0.11212 0.60615 0.09863 0.0
C973 C 0.07722 0.57616 0.07567 0.0
H974 H 0.07907 0.5706 0.05592 0.0
H975 H 0.06126 0.5758 0.07621 0.0
H976 H 0.07714 0.56465 0.09067 0.0
O977 O 0.09879 0.6322 0.00828 0.0
O978 O 0.12831 0.66226 0.02237 0.0
H979 H 0.1486 0.63595 0.12585 0.0
H980 H 0.14126 0.65693 0.1204 0.0
C981 C 0.14424 0.64451 0.11073 0.0
H982 H 0.15825 0.65321 0.09704 0.0
H983 H 0.16939 0.68003 0.04845 0.0
O984 O 0.05935 0.58906 0.02835 0.0
C985 C 0.11725 0.64922 0.00388 0.0
Co986 Co 0.38126 0.45483 0.0459 0.0
Co987 Co 0.33938 0.45626 0.0658 0.0
C988 C 0.34213 0.41462 0.06699 0.0
O989 O 0.36176 0.42408 0.05818 0.0
O990 O 0.33185 0.42512 0.07057 0.0
C991 C 0.41777 0.46341 0.01295 0.0
O992 O 0.40386 0.46036 0.99399 0.0
C993 C 0.3006 0.45024 0.09656 0.0
C994 C 0.30122 0.48119 0.08659 0.0
C995 C 0.29001 0.46219 0.10139 0.0
N996 N 0.31752 0.46196 0.08011 0.0
N997 N 0.31759 0.4803 0.07408 0.0
C998 C 0.29393 0.42748 0.10566 0.0
H999 H 0.29624 0.41818 0.08964 0.0
H1000 H 0.30449 0.42847 0.12244 0.0
H1001 H 0.27645 0.41839 0.11175 0.0
C1002 C 0.40266 0.49026 0.08512 0.0
N1003 N 0.38458 0.47509 0.07239 0.0
N1004 N 0.36728 0.47567 0.0812 0.0
C1005 C 0.37384 0.4911 0.10021 0.0
C1006 C 0.39646 0.5009 0.1032 0.0
C1007 C 0.42553 0.49533 0.07876 0.0
H1008 H 0.42858 0.49883 0.05745 0.0
H1009 H 0.42719 0.48076 0.08327 0.0
H1010 H 0.43812 0.50972 0.08985 0.0
O1011 O 0.36849 0.46009 0.01393 0.0
O1012 O 0.33939 0.46163 0.02766 0.0
H1013 H 0.35395 0.50599 0.10459 0.0
H1014 H 0.36668 0.50447 0.13464 0.0
C1015 C 0.35869 0.49565 0.1162 0.0
H1016 H 0.34364 0.48001 0.12118 0.0
H1017 H 0.329 0.49234 0.06152 0.0
O1018 O 0.41106 0.4601 0.0366 0.0
C1019 C 0.35204 0.46251 0.00928 0.0
Co1020 Co 0.07762 0.46003 0.54477 0.0
Co1021 Co 0.12053 0.46066 0.56432 0.0
C1022 C 0.07613 0.41944 0.56638 0.0
O1023 O 0.06652 0.42922 0.55676 0.0
O1024 O 0.09686 0.42965 0.57043 0.0
C1025 C 0.04892 0.46837 0.51269 0.0
O1026 O 0.05954 0.46545 0.49336 0.0
C1027 C 0.15268 0.45747 0.59908 0.0
C1028 C 0.18382 0.48108 0.5797 0.0
C1029 C 0.17542 0.46689 0.60089 0.0
N1030 N 0.14805 0.4658 0.57782 0.0
N1031 N 0.16674 0.47979 0.56628 0.0
C1032 C 0.13563 0.44213 0.61802 0.0
H1033 H 0.12076 0.44381 0.61685 0.0
H1034 H 0.14215 0.44544 0.63838 0.0
H1035 H 0.13083 0.42496 0.61279 0.0
C1036 C 0.09262 0.49576 0.58372 0.0
N1037 N 0.095 0.48025 0.57108 0.0
N1038 N 0.11287 0.48062 0.57961 0.0
C1039 C 0.12231 0.49632 0.59823 0.0
C1040 C 0.10981 0.50643 0.60132 0.0
C1041 C 0.07383 0.49979 0.57951 0.0
H1042 H 0.07441 0.50562 0.55911 0.0
H1043 H 0.0581 0.48414 0.58201 0.0
H1044 H 0.07428 0.51215 0.59346 0.0
O1045 O 0.09518 0.46542 0.51248 0.0
O1046 O 0.12527 0.46568 0.52597 0.0
H1047 H 0.1564 0.50601 0.59745 0.0
H1048 H 0.14856 0.51634 0.62544 0.0
C1049 C 0.14329 0.50206 0.61211 0.0
H1050 H 0.141 0.48769 0.6237 0.0
H1051 H 0.16783 0.48869 0.54938 0.0
O1052 O 0.05295 0.46534 0.5362 0.0
C1053 C 0.11378 0.46726 0.5077 0.0
Co1054 Co 0.54628 0.61825 0.54915 0.0
Co1055 Co 0.54498 0.66057 0.56578 0.0
C1056 C 0.58682 0.65824 0.56793 0.0
O1057 O 0.57731 0.6385 0.55943 0.0
O1058 O 0.57619 0.66839 0.57152 0.0
C1059 C 0.54366 0.58191 0.51952 0.0
O1060 O 0.55278 0.59637 0.50054 0.0
C1061 C 0.54791 0.6955 0.60036 0.0
C1062 C 0.52896 0.70724 0.57763 0.0
C1063 C 0.54067 0.71069 0.60077 0.0
N1064 N 0.5408 0.6838 0.57803 0.0
N1065 N 0.52956 0.69095 0.56451 0.0
C1066 C 0.56007 0.69094 0.62127 0.0
H1067 H 0.55705 0.6739 0.61936 0.0
H1068 H 0.55498 0.69332 0.64107 0.0
H1069 H 0.57796 0.70242 0.61892 0.0
C1070 C 0.51206 0.5989 0.59024 0.0
N1071 N 0.52674 0.61626 0.57611 0.0
N1072 N 0.52525 0.63362 0.58243 0.0
C1073 C 0.50907 0.62769 0.60031 0.0
C1074 C 0.50014 0.60542 0.60587 0.0
C1075 C 0.51034 0.57678 0.58969 0.0
H1076 H 0.50082 0.5677 0.57208 0.0
H1077 H 0.52697 0.57873 0.58845 0.0
H1078 H 0.50206 0.56707 0.6075 0.0
O1079 O 0.53991 0.62869 0.51584 0.0
O1080 O 0.53925 0.65867 0.52778 0.0
H1081 H 0.50117 0.65316 0.59418 0.0
H1082 H 0.48447 0.63324 0.61867 0.0
C1083 C 0.50126 0.64264 0.61033 0.0
H1084 H 0.51266 0.65342 0.62583 0.0
H1085 H 0.52215 0.68458 0.54639 0.0
O1086 O 0.54079 0.5882 0.54183 0.0
C1087 C 0.53766 0.6451 0.51021 0.0
Co1088 Co 0.38256 0.93017 0.55019 0.0
Co1089 Co 0.34085 0.8872 0.56945 0.0
C1090 C 0.34315 0.93137 0.5703 0.0
O1091 O 0.36267 0.9414 0.56106 0.0
O1092 O 0.33308 0.91066 0.57448 0.0
C1093 C 0.41685 0.96053 0.5167 0.0
O1094 O 0.40085 0.95385 0.49946 0.0
C1095 C 0.3054 0.85558 0.60406 0.0
C1096 C 0.29697 0.82426 0.58439 0.0
C1097 C 0.29144 0.83292 0.60556 0.0
N1098 N 0.31841 0.85991 0.58296 0.0
N1099 N 0.31324 0.84114 0.57127 0.0
C1100 C 0.30754 0.87283 0.623 0.0
H1101 H 0.32429 0.88743 0.62192 0.0
H1102 H 0.30413 0.86629 0.64334 0.0
H1103 H 0.29554 0.87809 0.61769 0.0
C1104 C 0.40348 0.9163 0.59048 0.0
N1105 N 0.38561 0.91347 0.57736 0.0
N1106 N 0.36827 0.89532 0.58554 0.0
C1107 C 0.37461 0.88603 0.60428 0.0
C1108 C 0.39715 0.89903 0.60794 0.0
C1109 C 0.42611 0.93548 0.58666 0.0
H1110 H 0.42547 0.95095 0.58695 0.0
H1111 H 0.43761 0.93627 0.60214 0.0
H1112 H 0.43237 0.93407 0.56717 0.0
O1113 O 0.37102 0.91219 0.5181 0.0
O1114 O 0.34158 0.8818 0.53146 0.0
H1115 H 0.35039 0.8519 0.6021 0.0
H1116 H 0.36872 0.85893 0.62986 0.0
C1117 C 0.35958 0.86454 0.61728 0.0
H1118 H 0.34749 0.86632 0.62949 0.0
H1119 H 0.32092 0.83985 0.55438 0.0
O1120 O 0.41228 0.954 0.54035 0.0
C1121 C 0.35469 0.89331 0.5133 0.0
Co1122 Co 0.1224 0.40748 0.28294 0.0
Co1123 Co 0.12321 0.4504 0.26243 0.0
C1124 C 0.08137 0.40632 0.26377 0.0
O1125 O 0.09118 0.39652 0.27283 0.0
O1126 O 0.09181 0.42693 0.25891 0.0
C1127 C 0.13204 0.37988 0.31532 0.0
O1128 O 0.13034 0.39151 0.33439 0.0
C1129 C 0.11972 0.48309 0.228 0.0
C1130 C 0.14579 0.51385 0.2458 0.0
C1131 C 0.13034 0.50596 0.2258 0.0
N1132 N 0.12878 0.47796 0.24816 0.0
N1133 N 0.14427 0.49646 0.25869 0.0
C1134 C 0.10084 0.46637 0.21205 0.0
H1135 H 0.0918 0.45065 0.22281 0.0
H1136 H 0.1072 0.4632 0.1936 0.0
H1137 H 0.0894 0.47241 0.20703 0.0
C1138 C 0.15632 0.42058 0.2419 0.0
N1139 N 0.14154 0.4237 0.2552 0.0
N1140 N 0.14192 0.44149 0.24631 0.0
C1141 C 0.15686 0.45012 0.22679 0.0
C1142 C 0.1665 0.43719 0.22348 0.0
C1143 C 0.16022 0.40174 0.24645 0.0
H1144 H 0.14436 0.38606 0.24532 0.0
H1145 H 0.17172 0.40139 0.2318 0.0
H1146 H 0.16706 0.40309 0.26646 0.0
O1147 O 0.12942 0.42624 0.31449 0.0
O1148 O 0.12996 0.45632 0.30037 0.0
H1149 H 0.16831 0.48461 0.22673 0.0
H1150 H 0.17551 0.47506 0.19756 0.0
C1151 C 0.16251 0.47089 0.21246 0.0
H1152 H 0.14758 0.46905 0.20267 0.0
H1153 H 0.15393 0.49721 0.27467 0.0
O1154 O 0.1277 0.38283 0.29192 0.0
C1155 C 0.13191 0.44518 0.31878 0.0
Co1156 Co 0.58862 0.71676 0.28337 0.0
Co1157 Co 0.54678 0.67361 0.2642 0.0
C1158 C 0.59235 0.67921 0.26158 0.0
O1159 O 0.60155 0.69862 0.27122 0.0
O1160 O 0.5716 0.66812 0.25776 0.0
C1161 C 0.62883 0.75456 0.30547 0.0
O1162 O 0.63613 0.7412 0.3117 0.0
C1163 C 0.51569 0.63738 0.22965 0.0
C1164 C 0.48426 0.62812 0.24949 0.0
C1165 C 0.49309 0.62304 0.2281 0.0
N1166 N 0.5198 0.65022 0.25093 0.0
N1167 N 0.50096 0.6445 0.26274 0.0
C1168 C 0.53301 0.64017 0.21047 0.0
H1169 H 0.5475 0.65696 0.21199 0.0
H1170 H 0.52647 0.6372 0.19011 0.0
H1171 H 0.53841 0.62815 0.21508 0.0
C1172 C 0.57287 0.736 0.24332 0.0
N1173 N 0.57065 0.71859 0.25697 0.0
N1174 N 0.55283 0.70076 0.24907 0.0
C1175 C 0.54299 0.70633 0.2302 0.0
C1176 C 0.55546 0.72884 0.22588 0.0
C1177 C 0.59094 0.75915 0.24772 0.0
H1178 H 0.59002 0.76395 0.26821 0.0
H1179 H 0.60707 0.76012 0.24504 0.0
H1180 H 0.58974 0.77095 0.23431 0.0
O1181 O 0.57188 0.7038 0.31591 0.0
O1182 O 0.54238 0.67334 0.30255 0.0
H1183 H 0.50928 0.68086 0.22979 0.0
H1184 H 0.51749 0.69848 0.20116 0.0
C1185 C 0.52277 0.69024 0.21562 0.0
H1186 H 0.52612 0.67842 0.20507 0.0
H1187 H 0.49949 0.65199 0.27972 0.0
O1188 O 0.61071 0.74719 0.29333 0.0
C1189 C 0.5538 0.68642 0.32081 0.0
Co1190 Co 0.28702 0.87335 0.28587 0.0
Co1191 Co 0.32987 0.87369 0.26725 0.0
C1192 C 0.32567 0.91431 0.26463 0.0
O1193 O 0.30619 0.90425 0.27395 0.0
O1194 O 0.33653 0.90441 0.26095 0.0
C1195 C 0.2499 0.86496 0.31754 0.0
O1196 O 0.26366 0.86895 0.337 0.0
C1197 C 0.36527 0.87798 0.23231 0.0
C1198 C 0.37469 0.85582 0.25193 0.0
C1199 C 0.37944 0.86956 0.23043 0.0
N1200 N 0.35284 0.86954 0.25391 0.0
N1201 N 0.35865 0.85642 0.2656 0.0
C1202 C 0.36225 0.89241 0.21315 0.0
H1203 H 0.34543 0.89001 0.21481 0.0
H1204 H 0.36512 0.88884 0.19276 0.0
H1205 H 0.3742 0.90986 0.21768 0.0
C1206 C 0.26723 0.83781 0.24656 0.0
N1207 N 0.2848 0.85326 0.25975 0.0
N1208 N 0.30257 0.85326 0.25161 0.0
C1209 C 0.29682 0.83786 0.23269 0.0
C1210 C 0.27426 0.82758 0.22901 0.0
C1211 C 0.24427 0.83354 0.25006 0.0
H1212 H 0.24404 0.8491 0.24725 0.0
H1213 H 0.23268 0.82107 0.23597 0.0
H1214 H 0.23875 0.82773 0.2704 0.0
O1215 O 0.29928 0.86848 0.31842 0.0
O1216 O 0.3296 0.86892 0.30566 0.0
H1217 H 0.30372 0.81825 0.2057 0.0
H1218 H 0.32383 0.8472 0.20659 0.0
C1219 C 0.31248 0.83283 0.21866 0.0
H1220 H 0.32238 0.82973 0.23319 0.0
H1221 H 0.35143 0.84764 0.28276 0.0
O1222 O 0.25684 0.86738 0.29404 0.0
C1223 C 0.31627 0.86716 0.32364 0.0
H1224 H 0.22931 0.20749 0.32285 0.0
H1225 H 0.17797 0.2224 0.30629 0.0
H1226 H 0.23084 0.19955 0.27681 0.0
H1227 H 0.17769 0.21234 0.26045 0.0
H1228 H 0.20364 0.22412 0.17698 0.0
H1229 H 0.19686 0.22604 0.22319 0.0
H1230 H 0.2182 0.17909 0.24004 0.0
H1231 H 0.22693 0.17904 0.19371 0.0
C1232 C 0.21787 0.20839 0.30931 0.0
C1233 C 0.20368 0.21572 0.31787 0.0
C1234 C 0.21856 0.20365 0.28285 0.0
C1235 C 0.20453 0.20544 0.26446 0.0
C1236 C 0.18932 0.21146 0.27362 0.0
C1237 C 0.18923 0.21699 0.29995 0.0
C1238 C 0.20671 0.2141 0.19063 0.0
C1239 C 0.21594 0.20156 0.18194 0.0
C1240 C 0.20261 0.21499 0.21724 0.0
C1241 C 0.20699 0.20277 0.23578 0.0
C1242 C 0.21517 0.18927 0.22667 0.0
C1243 C 0.22 0.18901 0.20009 0.0
H1244 H 0.77924 0.98245 0.17307 0.0
H1245 H 0.81973 0.05196 0.18803 0.0
H1246 H 0.77892 0.97486 0.21945 0.0
H1247 H 0.8212 0.04445 0.23452 0.0
H1248 H 0.79403 0.02586 0.31817 0.0
H1249 H 0.80096 0.03531 0.2719 0.0
H1250 H 0.79523 0.97199 0.25621 0.0
H1251 H 0.78619 0.96205 0.30218 0.0
C1252 C 0.78859 0.99608 0.18633 0.0
C1253 C 0.79938 0.01778 0.17708 0.0
C1254 C 0.78863 0.99175 0.21304 0.0
C1255 C 0.80005 0.009 0.23112 0.0
C1256 C 0.81174 0.03072 0.22149 0.0
C1257 C 0.8111 0.03507 0.19481 0.0
C1258 C 0.79451 0.01415 0.30473 0.0
C1259 C 0.78939 0.9932 0.31346 0.0
C1260 C 0.79865 0.01957 0.27815 0.0
C1261 C 0.7984 0.00434 0.2599 0.0
C1262 C 0.79481 0.98391 0.26929 0.0
C1263 C 0.78989 0.97824 0.29569 0.0
H1264 H 0.04855 0.79947 0.29715 0.0
H1265 H 0.98751 0.79635 0.31868 0.0
H1266 H 0.03867 0.79725 0.25093 0.0
H1267 H 0.97782 0.79437 0.27239 0.0
H1268 H 0.95623 0.75496 0.19391 0.0
H1269 H 0.96724 0.76487 0.23942 0.0
H1270 H 0.0313 0.81592 0.21404 0.0
H1271 H 0.02038 0.80583 0.1683 0.0
C1272 C 0.0332 0.79868 0.29204 0.0
C1273 C 0.0187 0.7978 0.31165 0.0
C1274 C 0.02761 0.79755 0.26553 0.0
C1275 C 0.00739 0.79545 0.25808 0.0
C1276 C 0.99338 0.79567 0.2776 0.0
C1277 C 0.999 0.79689 0.30411 0.0
C1278 C 0.9726 0.76841 0.19796 0.0
C1279 C 0.9875 0.77942 0.17746 0.0
C1280 C 0.97885 0.77422 0.22406 0.0
C1281 C 1.00016 0.79113 0.23028 0.0
C1282 C 0.01484 0.80268 0.2098 0.0
C1283 C 0.00853 0.79696 0.18363 0.0
H1284 H 0.80747 0.75987 0.69261 0.0
H1285 H 0.80053 0.81539 0.66965 0.0
H1286 H 0.80676 0.76887 0.73858 0.0
H1287 H 0.80019 0.82456 0.71578 0.0
H1288 H 0.76289 0.8068 0.796 0.0
H1289 H 0.77233 0.80606 0.75025 0.0
H1290 H 0.82551 0.79575 0.77417 0.0
H1291 H 0.81588 0.79616 0.82014 0.0
C1292 C 0.80614 0.77419 0.69733 0.0
C1293 C 0.80368 0.78668 0.67744 0.0
C1294 C 0.80593 0.77946 0.72372 0.0
C1295 C 0.80324 0.79732 0.73078 0.0
C1296 C 0.80198 0.81052 0.71089 0.0
C1297 C 0.80226 0.8053 0.68448 0.0
C1298 C 0.77676 0.80463 0.79158 0.0
C1299 C 0.78843 0.80122 0.81173 0.0
C1300 C 0.7823 0.8044 0.76533 0.0
C1301 C 0.79959 0.80072 0.75863 0.0
C1302 C 0.81194 0.79837 0.77877 0.0
C1303 C 0.80646 0.79869 0.80508 0.0
H1304 H 0.20184 0.01325 0.82839 0.0
H1305 H 0.19777 0.95223 0.80441 0.0
H1306 H 0.20099 0.02263 0.78246 0.0
H1307 H 0.19719 0.9618 0.7586 0.0
H1308 H 0.18501 0.97925 0.67782 0.0
H1309 H 0.17665 0.96886 0.72392 0.0
H1310 H 0.22871 0.03317 0.74724 0.0
H1311 H 0.23697 0.04367 0.70135 0.0
C1312 C 0.20047 0.0017 0.81338 0.0
C1313 C 0.20018 0.98212 0.82007 0.0
C1314 C 0.20007 0.00713 0.78708 0.0
C1315 C 0.19922 0.99304 0.76696 0.0
C1316 C 0.19767 0.97291 0.77368 0.0
C1317 C 0.19817 0.96751 0.79995 0.0
C1318 C 0.19445 0.9913 0.69278 0.0
C1319 C 0.21183 0.01222 0.68591 0.0
C1320 C 0.1897 0.9853 0.71916 0.0
C1321 C 0.2021 1.00015 0.73915 0.0
C1322 C 0.21872 0.02143 0.73228 0.0
C1323 C 0.22356 0.02738 0.70595 0.0
H1324 H 0.02432 0.21408 0.67105 0.0
H1325 H 0.95885 0.19667 0.6963 0.0
H1326 H 0.0352 0.21499 0.71692 0.0
H1327 H 0.96974 0.19776 0.74179 0.0
H1328 H 0.99012 0.18923 0.8212 0.0
H1329 H 0.98183 0.18033 0.77486 0.0
H1330 H 0.04048 0.24072 0.75376 0.0
H1331 H 0.04904 0.24955 0.80007 0.0
C1332 C 0.01218 0.21011 0.68632 0.0
C1333 C 0.9908 0.20553 0.6801 0.0
C1334 C 0.01844 0.21073 0.71253 0.0
C1335 C 0.00334 0.20652 0.73289 0.0
C1336 C 0.98168 0.20084 0.72653 0.0
C1337 C 0.9755 0.20041 0.70045 0.0
C1338 C 0.00146 0.20048 0.80672 0.0
C1339 C 0.02005 0.22032 0.81435 0.0
C1340 C 0.99666 0.19537 0.78018 0.0
C1341 C 0.01038 0.20994 0.76074 0.0
C1342 C 0.02968 0.2291 0.76832 0.0
C1343 C 0.03447 0.23425 0.79488 0.0
H1344 H 0.84135 0.55332 0.63728 0.0
H1345 H 0.89178 0.53733 0.65481 0.0
H1346 H 0.8423 0.54457 0.59119 0.0
H1347 H 0.8945 0.53062 0.60862 0.0
H1348 H 0.89244 0.51207 0.52491 0.0
H1349 H 0.8827 0.5112 0.57099 0.0
H1350 H 0.86249 0.55909 0.55469 0.0
H1351 H 0.87033 0.55814 0.50856 0.0
C1352 C 0.85265 0.54792 0.63113 0.0
C1353 C 0.86649 0.54598 0.64942 0.0
C1354 C 0.85345 0.54315 0.60465 0.0
C1355 C 0.86878 0.53721 0.59572 0.0
C1356 C 0.88217 0.5347 0.61444 0.0
C1357 C 0.88077 0.53871 0.64102 0.0
C1358 C 0.88554 0.52207 0.53132 0.0
C1359 C 0.88211 0.53516 0.51332 0.0
C1360 C 0.88014 0.52179 0.55779 0.0
C1361 C 0.87197 0.53527 0.56701 0.0
C1362 C 0.86822 0.54806 0.54863 0.0
C1363 C 0.87291 0.54772 0.52207 0.0
H1364 H 0.46421 0.31689 0.50321 0.0
H1365 H 0.47461 0.38065 0.52639 0.0
H1366 H 0.4638 0.30723 0.54932 0.0
H1367 H 0.4738 0.37082 0.5723 0.0
H1368 H 0.48198 0.35183 0.65372 0.0
H1369 H 0.49165 0.36156 0.60769 0.0
H1370 H 0.43654 0.29916 0.5841 0.0
H1371 H 0.42704 0.28929 0.6299 0.0
C1372 C 0.4667 0.32896 0.51808 0.0
C1373 C 0.46909 0.34942 0.51112 0.0
C1374 C 0.46637 0.32337 0.54448 0.0
C1375 C 0.46855 0.33818 0.56442 0.0
C1376 C 0.47224 0.3591 0.55741 0.0
C1377 C 0.4725 0.36466 0.53105 0.0
C1378 C 0.47213 0.34005 0.63872 0.0
C1379 C 0.45357 0.31989 0.64548 0.0
C1380 C 0.47764 0.34567 0.61238 0.0
C1381 C 0.46479 0.33118 0.5923 0.0
C1382 C 0.44691 0.31059 0.59911 0.0
C1383 C 0.44135 0.30501 0.62539 0.0
H1384 H 0.64784 0.12741 0.65439 0.0
H1385 H 0.71203 0.14032 0.62944 0.0
H1386 H 0.63698 0.12583 0.60847 0.0
H1387 H 0.70108 0.13843 0.58384 0.0
H1388 H 0.67991 0.14363 0.50289 0.0
H1389 H 0.68995 0.15478 0.54855 0.0
H1390 H 0.62958 0.09811 0.57419 0.0
H1391 H 0.61937 0.08712 0.52876 0.0
C1392 C 0.65973 0.13025 0.63916 0.0
C1393 C 0.68068 0.13367 0.64554 0.0
C1394 C 0.65348 0.12926 0.6129 0.0
C1395 C 0.66812 0.13184 0.59258 0.0
C1396 C 0.68949 0.13658 0.59903 0.0
C1397 C 0.69569 0.13745 0.62521 0.0
C1398 C 0.66863 0.13373 0.51825 0.0
C1399 C 0.64899 0.11431 0.5122 0.0
C1400 C 0.67441 0.1401 0.54438 0.0
C1401 C 0.66061 0.12725 0.56493 0.0
C1402 C 0.64045 0.10849 0.5588 0.0
C1403 C 0.63471 0.10208 0.53273 0.0
H1404 H 0.47631 0.1251 0.15683 0.0
H1405 H 0.42225 0.13374 0.13191 0.0
H1406 H 0.48676 0.12554 0.11105 0.0
H1407 H 0.43256 0.13389 0.08629 0.0
H1408 H 0.46382 0.14688 0.00666 0.0
H1409 H 0.46145 0.15429 0.05298 0.0
H1410 H 0.46917 0.09902 0.07447 0.0
H1411 H 0.47177 0.09168 0.02829 0.0
C1412 C 0.46679 0.12733 0.14164 0.0
C1413 C 0.44826 0.12911 0.14802 0.0
C1414 C 0.47274 0.1275 0.11544 0.0
C1415 C 0.46041 0.12962 0.09511 0.0
C1416 C 0.44251 0.13242 0.10154 0.0
C1417 C 0.43648 0.13213 0.1277 0.0
C1418 C 0.46537 0.13651 0.02126 0.0
C1419 C 0.46773 0.11852 0.01376 0.0
C1420 C 0.46391 0.14072 0.04777 0.0
C1421 C 0.46494 0.12713 0.0673 0.0
C1422 C 0.46849 0.10989 0.05987 0.0
C1423 C 0.46984 0.1056 0.03337 0.0
H1424 H 0.86014 0.28511 0.13614 0.0
H1425 H 0.86831 0.34779 0.16039 0.0
H1426 H 0.86026 0.29509 0.0904 0.0
H1427 H 0.86806 0.3576 0.11446 0.0
H1428 H 0.85083 0.31391 0.00949 0.0
H1429 H 0.84136 0.30378 0.05551 0.0
H1430 H 0.89546 0.36673 0.07941 0.0
H1431 H 0.90476 0.37698 0.03367 0.0
C1432 C 0.86163 0.30089 0.13175 0.0
C1433 C 0.8646 0.31581 0.15192 0.0
C1434 C 0.86148 0.30652 0.10551 0.0
C1435 C 0.86433 0.3272 0.09885 0.0
C1436 C 0.86611 0.34165 0.11903 0.0
C1437 C 0.86617 0.33599 0.14533 0.0
C1438 C 0.86047 0.32573 0.02456 0.0
C1439 C 0.87873 0.34614 0.01793 0.0
C1440 C 0.85509 0.31988 0.05089 0.0
C1441 C 0.86775 0.3344 0.07105 0.0
C1442 C 0.88525 0.35526 0.06435 0.0
C1443 C 0.89069 0.36106 0.03809 0.0
H1444 H 0.62004 0.53494 0.02995 0.0
H1445 H 0.68183 0.54049 0.00677 0.0
H1446 H 0.63041 0.5368 0.07594 0.0
H1447 H 0.69203 0.54216 0.05285 0.0
H1448 H 0.71265 0.58024 0.13273 0.0
H1449 H 0.70188 0.57089 0.087 0.0
H1450 H 0.63869 0.51771 0.11155 0.0
H1451 H 0.64932 0.52713 0.15742 0.0
C1452 C 0.63569 0.53623 0.03464 0.0
C1453 C 0.65021 0.53782 0.01466 0.0
C1454 C 0.64155 0.53715 0.06102 0.0
C1455 C 0.66209 0.53976 0.06796 0.0
C1456 C 0.67621 0.5404 0.04804 0.0
C1457 C 0.6703 0.53935 0.02166 0.0
C1458 C 0.69655 0.56638 0.12843 0.0
C1459 C 0.68177 0.55459 0.14874 0.0
C1460 C 0.69045 0.56092 0.10221 0.0
C1461 C 0.6694 0.54364 0.09572 0.0
C1462 C 0.65493 0.53126 0.116 0.0
C1463 C 0.66108 0.53662 0.14226 0.0
H1464 H 0.52897 0.90972 0.96353 0.0
H1465 H 0.53558 0.85401 0.98647 0.0
H1466 H 0.52999 0.90095 0.91757 0.0
H1467 H 0.53617 0.84501 0.94032 0.0
H1468 H 0.57528 0.86378 0.86155 0.0
H1469 H 0.56463 0.86383 0.90687 0.0
H1470 H 0.51232 0.87486 0.88109 0.0
H1471 H 0.5232 0.87513 0.83543 0.0
C1472 C 0.53026 0.89538 0.9588 0.0
C1473 C 0.53263 0.88282 0.9787 0.0
C1474 C 0.53063 0.89023 0.9324 0.0
C1475 C 0.53338 0.87241 0.92533 0.0
C1476 C 0.53436 0.85904 0.94521 0.0
C1477 C 0.53395 0.86416 0.97164 0.0
C1478 C 0.56133 0.86596 0.86545 0.0
C1479 C 0.55027 0.86974 0.84487 0.0
C1480 C 0.55509 0.86577 0.89146 0.0
C1481 C 0.53767 0.86941 0.89756 0.0
C1482 C 0.52595 0.87222 0.87696 0.0
C1483 C 0.53214 0.8723 0.85084 0.0
H1484 H 0.10014 0.62315 0.96069 0.0
H1485 H 0.15157 0.68761 0.98484 0.0
H1486 H 0.10865 0.63378 0.91498 0.0
H1487 H 0.16035 0.69814 0.93879 0.0
H1488 H 0.13807 0.7153 0.85968 0.0
H1489 H 0.14008 0.70555 0.90493 0.0
H1490 H 0.13502 0.6446 0.87898 0.0
H1491 H 0.13251 0.65414 0.83352 0.0
C1492 C 0.11356 0.63947 0.95626 0.0
C1493 C 0.12493 0.65466 0.97642 0.0
C1494 C 0.11858 0.6455 0.92999 0.0
C1495 C 0.13507 0.66686 0.92327 0.0
C1496 C 0.14736 0.68164 0.94341 0.0
C1497 C 0.14239 0.67558 0.96976 0.0
C1498 C 0.13763 0.69992 0.86352 0.0
C1499 C 0.13468 0.6853 0.843 0.0
C1500 C 0.13903 0.69444 0.8895 0.0
C1501 C 0.13754 0.67422 0.89555 0.0
C1502 C 0.13592 0.66017 0.87492 0.0
C1503 C 0.13454 0.66567 0.84889 0.0
H1504 H 0.37841 0.47208 0.96624 0.0
H1505 H 0.31346 0.45761 0.98989 0.0
H1506 H 0.36807 0.47047 0.92041 0.0
H1507 H 0.30321 0.45636 0.94379 0.0
H1508 H 0.28734 0.42085 0.86199 0.0
H1509 H 0.29669 0.42988 0.90809 0.0
H1510 H 0.35739 0.48771 0.88578 0.0
H1511 H 0.34824 0.47857 0.83958 0.0
C1512 C 0.36201 0.46885 0.96168 0.0
C1513 C 0.34667 0.46465 0.98173 0.0
C1514 C 0.35614 0.46814 0.93537 0.0
C1515 C 0.33477 0.46315 0.92849 0.0
C1516 C 0.31972 0.45999 0.94853 0.0
C1517 C 0.32564 0.46083 0.97491 0.0
C1518 C 0.30256 0.43564 0.86686 0.0
C1519 C 0.31717 0.44881 0.84707 0.0
C1520 C 0.30783 0.44091 0.89331 0.0
C1521 C 0.32784 0.45943 0.90055 0.0
C1522 C 0.34198 0.47317 0.88078 0.0
C1523 C 0.33668 0.46795 0.85431 0.0
H1524 H 0.14091 0.42804 0.36207 0.0
H1525 H 0.13072 0.4812 0.33743 0.0
H1526 H 0.14096 0.43813 0.40766 0.0
H1527 H 0.13128 0.49163 0.38328 0.0
H1528 H 0.09549 0.47479 0.46442 0.0
H1529 H 0.10478 0.47395 0.4187 0.0
H1530 H 0.15895 0.4652 0.44251 0.0
H1531 H 0.14935 0.46555 0.4885 0.0
C1532 C 0.13903 0.44211 0.36633 0.0
C1533 C 0.13538 0.45353 0.34609 0.0
C1534 C 0.13929 0.44805 0.39252 0.0
C1535 C 0.13593 0.46557 0.39911 0.0
C1536 C 0.13359 0.47784 0.37882 0.0
C1537 C 0.13338 0.47191 0.35255 0.0
C1538 C 0.10952 0.47291 0.46 0.0
C1539 C 0.12141 0.46983 0.48015 0.0
C1540 C 0.115 0.47267 0.43372 0.0
C1541 C 0.13252 0.46936 0.42696 0.0
C1542 C 0.14518 0.46748 0.44712 0.0
C1543 C 0.13971 0.46777 0.47346 0.0
H1544 H 0.53384 0.62022 0.46696 0.0
H1545 H 0.53503 0.67997 0.49063 0.0
H1546 H 0.53374 0.62992 0.42102 0.0
H1547 H 0.53472 0.68946 0.44468 0.0
H1548 H 0.57131 0.71215 0.36429 0.0
H1549 H 0.56318 0.70108 0.41005 0.0
H1550 H 0.51269 0.63628 0.38591 0.0
H1551 H 0.5209 0.64726 0.33993 0.0
C1552 C 0.53373 0.63523 0.46241 0.0
C1553 C 0.53474 0.64946 0.48249 0.0
C1554 C 0.53352 0.64071 0.43607 0.0
C1555 C 0.53439 0.66053 0.42929 0.0
C1556 C 0.53433 0.67422 0.44935 0.0
C1557 C 0.53444 0.66872 0.47567 0.0
C1558 C 0.55827 0.69563 0.36869 0.0
C1559 C 0.5469 0.68053 0.34845 0.0
C1560 C 0.55351 0.68933 0.39493 0.0
C1561 C 0.53736 0.66778 0.40153 0.0
C1562 C 0.52537 0.65293 0.38136 0.0
C1563 C 0.53001 0.65928 0.35505 0.0
H1564 H 0.35471 0.87238 0.34402 0.0
H1565 H 0.28944 0.85793 0.36619 0.0
H1566 H 0.36459 0.87448 0.39036 0.0
H1567 H 0.29945 0.86046 0.41224 0.0
H1568 H 0.31916 0.85585 0.49439 0.0
H1569 H 0.31011 0.84487 0.44855 0.0
H1570 H 0.37089 0.90178 0.42439 0.0
H1571 H 0.38014 0.91256 0.47005 0.0
C1572 C 0.34238 0.86934 0.35873 0.0
C1573 C 0.32139 0.86534 0.3514 0.0
C1574 C 0.34808 0.87066 0.38525 0.0
C1575 C 0.33287 0.86785 0.40494 0.0
C1576 C 0.3115 0.86255 0.39758 0.0
C1577 C 0.30583 0.86131 0.37112 0.0
C1578 C 0.33074 0.86585 0.47933 0.0
C1579 C 0.35024 0.88525 0.48588 0.0
C1580 C 0.32551 0.85958 0.45307 0.0
C1581 C 0.33971 0.87254 0.43286 0.0
C1582 C 0.3597 0.89132 0.43951 0.0
C1583 C 0.3649 0.89761 0.46571 0.0
H1584 H 0.30132 0.27486 0.07909 0.0
H1585 H 0.24464 0.2792 0.10262 0.0
H1586 H 0.32176 0.31452 0.07163 0.0
H1587 H 0.26524 0.31874 0.09724 0.0
H1588 H 0.29837 0.38615 0.0622 0.0
H1589 H 0.27886 0.34659 0.06774 0.0
H1590 H 0.33976 0.34931 0.08948 0.0
H1591 H 0.35946 0.38893 0.08188 0.0
C1592 C 0.29333 0.28437 0.08288 0.0
C1593 C 0.27134 0.27394 0.09113 0.0
C1594 C 0.30508 0.30717 0.07885 0.0
C1595 C 0.29525 0.32011 0.08365 0.0
C1596 C 0.27332 0.3095 0.09248 0.0
C1597 C 0.26147 0.28674 0.09579 0.0
C1598 C 0.30757 0.37828 0.06824 0.0
C1599 C 0.33041 0.39064 0.07174 0.0
C1600 C 0.29635 0.35551 0.07163 0.0
C1601 C 0.30756 0.34447 0.07938 0.0
C1602 C 0.3305 0.35699 0.08308 0.0
C1603 C 0.34182 0.37977 0.07898 0.0
H1604 H 0.61308 0.97043 0.05461 0.0
H1605 H 0.61108 0.91171 0.08407 0.0
H1606 H 0.65283 0.99073 0.06006 0.0
H1607 H 0.65081 0.93219 0.09002 0.0
H1608 H 0.72375 0.96855 0.07001 0.0
H1609 H 0.68406 0.94891 0.06398 0.0
H1610 H 0.68135 0.00528 0.09314 0.0
H1611 H 0.72113 0.02514 0.09869 0.0
C1612 C 0.62106 0.96187 0.06247 0.0
C1613 C 0.60882 0.93938 0.06882 0.0
C1614 C 0.64389 0.97357 0.06569 0.0
C1615 C 0.65507 0.9631 0.07536 0.0
C1616 C 0.64279 0.94069 0.08209 0.0
C1617 C 0.61996 0.92898 0.07885 0.0
C1618 C 0.71474 0.97684 0.07502 0.0
C1619 C 0.7257 0.99845 0.08488 0.0
C1620 C 0.69192 0.96549 0.07174 0.0
C1621 C 0.67945 0.97543 0.07827 0.0
C1622 C 0.69044 0.99718 0.08769 0.0
C1623 C 0.71328 0.00855 0.09095 0.0
H1624 H 0.03088 0.75074 0.06636 0.0
H1625 H 0.97627 0.69153 0.09814 0.0
H1626 H 0.05083 0.73118 0.059 0.0
H1627 H 0.99649 0.67207 0.09117 0.0
H1628 H 0.0325 0.63962 0.05186 0.0
H1629 H 0.011 0.65795 0.05752 0.0
H1630 H 0.06895 0.7162 0.08535 0.0
H1631 H 0.09047 0.69816 0.07927 0.0
C1632 C 0.02306 0.73353 0.07172 0.0
C1633 C 0.00196 0.72278 0.08298 0.0
C1634 C 0.0346 0.72234 0.06766 0.0
C1635 C 0.02538 0.7001 0.07476 0.0
C1636 C 0.00403 0.68915 0.08533 0.0
C1637 C 0.99247 0.70036 0.0894 0.0
C1638 C 0.04064 0.65631 0.05927 0.0
C1639 C 0.06327 0.66739 0.06503 0.0
C1640 C 0.02828 0.66679 0.0626 0.0
C1641 C 0.03826 0.68862 0.07169 0.0
C1642 C 0.0608 0.69954 0.07783 0.0
C1643 C 0.07313 0.68909 0.07454 0.0
H1644 H 0.3909 0.3028 0.40654 0.0
H1645 H 0.38978 0.36007 0.43566 0.0
H1646 H 0.3512 0.28377 0.40118 0.0
H1647 H 0.34988 0.34078 0.43065 0.0
H1648 H 0.28057 0.3051 0.39251 0.0
H1649 H 0.32048 0.32575 0.39752 0.0
H1650 H 0.31898 0.26801 0.42939 0.0
H1651 H 0.27931 0.2473 0.42401 0.0
C1652 C 0.38222 0.31138 0.41178 0.0
C1653 C 0.39358 0.33296 0.42167 0.0
C1654 C 0.3594 0.30038 0.40887 0.0
C1655 C 0.34733 0.31066 0.41576 0.0
C1656 C 0.3587 0.33244 0.42502 0.0
C1657 C 0.38158 0.34346 0.42797 0.0
C1658 C 0.28873 0.29684 0.40074 0.0
C1659 C 0.27668 0.27448 0.40773 0.0
C1660 C 0.31161 0.30871 0.40368 0.0
C1661 C 0.32294 0.29848 0.41362 0.0
C1662 C 0.31082 0.27629 0.42119 0.0
C1663 C 0.288 0.26445 0.41829 0.0
H1664 H 0.75321 0.03019 0.4226 0.0
H1665 H 0.69702 0.97369 0.38836 0.0
H1666 H 0.73136 0.04789 0.42869 0.0
H1667 H 0.67519 0.99167 0.39424 0.0
H1668 H 0.63868 0.02412 0.43393 0.0
H1669 H 0.65893 0.0045 0.42808 0.0
H1670 H 0.71523 0.06434 0.40062 0.0
H1671 H 0.69524 0.084 0.40672 0.0
C1672 C 0.73616 0.02147 0.41643 0.0
C1673 C 0.72695 0.00052 0.40483 0.0
C1674 C 0.72367 0.03173 0.41977 0.0
C1675 C 0.7016 0.02133 0.41165 0.0
C1676 C 0.69213 1.0001 0.40079 0.0
C1677 C 0.70467 0.98982 0.39737 0.0
C1678 C 0.65534 0.03307 0.42649 0.0
C1679 C 0.66535 0.0557 0.42097 0.0
C1680 C 0.66691 0.02179 0.42306 0.0
C1681 C 0.68877 0.0329 0.41415 0.0
C1682 C 0.69856 0.05538 0.40801 0.0
C1683 C 0.68701 0.06662 0.41134 0.0
H1684 H 0.91182 0.61069 0.40497 0.0
H1685 H 0.96944 0.6121 0.43725 0.0
H1686 H 0.93272 0.65036 0.39891 0.0
H1687 H 0.99022 0.6519 0.43163 0.0
H1688 H 0.96861 0.72314 0.41903 0.0
H1689 H 0.94887 0.68347 0.42535 0.0
H1690 H 0.00562 0.68051 0.3984 0.0
H1691 H 0.02557 0.72028 0.39254 0.0
C1692 C 0.92895 0.61943 0.41076 0.0
C1693 C 0.9389 0.60814 0.42167 0.0
C1694 C 0.9409 0.64223 0.40746 0.0
C1695 C 0.96311 0.65437 0.415 0.0
C1696 C 0.9732 0.64306 0.42543 0.0
C1697 C 0.96124 0.62022 0.42872 0.0
C1698 C 0.97696 0.71409 0.41457 0.0
C1699 C 0.99869 0.72496 0.40519 0.0
C1700 C 0.96556 0.69128 0.41802 0.0
C1701 C 0.97557 0.67875 0.41216 0.0
C1702 C 0.99746 0.68966 0.40331 0.0
C1703 C 0.00888 0.71249 0.39987 0.0
H1704 H 0.69873 0.61148 0.90591 0.0
H1705 H 0.64241 0.61505 0.93349 0.0
H1706 H 0.71854 0.65108 0.89885 0.0
H1707 H 0.66244 0.65474 0.92688 0.0
H1708 H 0.69805 0.72262 0.887 0.0
H1709 H 0.67734 0.68288 0.89312 0.0
H1710 H 0.73532 0.68462 0.92454 0.0
H1711 H 0.75616 0.72425 0.918 0.0
C1712 C 0.69053 0.62067 0.91044 0.0
C1713 C 0.66896 0.61002 0.92034 0.0
C1714 C 0.70198 0.64344 0.90657 0.0
C1715 C 0.69217 0.65616 0.9125 0.0
C1716 C 0.67044 0.64545 0.92189 0.0
C1717 C 0.65898 0.62267 0.92577 0.0
C1718 C 0.70638 0.71456 0.89533 0.0
C1719 C 0.72883 0.72669 0.90191 0.0
C1720 C 0.69446 0.69175 0.89892 0.0
C1721 C 0.70468 0.6805 0.90917 0.0
C1722 C 0.72702 0.69268 0.91615 0.0
C1723 C 0.73894 0.71547 0.91257 0.0
H1724 H 0.39137 0.03245 0.93571 0.0
H1725 H 0.39259 0.09065 0.90574 0.0
H1726 H 0.35156 0.01182 0.93063 0.0
H1727 H 0.35288 0.06988 0.90013 0.0
H1728 H 0.28041 0.03381 0.92207 0.0
H1729 H 0.32019 0.05357 0.92691 0.0
H1730 H 0.32242 0.99679 0.89835 0.0
H1731 H 0.28254 0.97678 0.89411 0.0
C1732 C 0.38321 0.0408 0.92775 0.0
C1733 C 0.39523 0.06326 0.92126 0.0
C1734 C 0.36035 0.02893 0.92476 0.0
C1735 C 0.34896 0.03922 0.91516 0.0
C1736 C 0.36106 0.06154 0.90807 0.0
C1737 C 0.38388 0.07342 0.91111 0.0
C1738 C 0.28932 0.02545 0.91695 0.0
C1739 C 0.27819 0.00366 0.9077 0.0
C1740 C 0.3122 0.03688 0.91952 0.0
C1741 C 0.32456 0.02684 0.91285 0.0
C1742 C 0.31342 0.00496 0.90392 0.0
C1743 C 0.29052 0.99351 0.90139 0.0
H1744 H 0.91037 0.29834 0.9363 0.0
H1745 H 0.96807 0.3604 0.9182 0.0
H1746 H 0.93099 0.27953 0.92982 0.0
H1747 H 0.98858 0.34144 0.90968 0.0
H1748 H 0.02585 0.30436 0.91832 0.0
H1749 H 0.00579 0.32373 0.92677 0.0
H1750 H 0.94586 0.26674 0.90001 0.0
H1751 H 0.96573 0.24709 0.89356 0.0
C1752 C 0.92745 0.30793 0.93047 0.0
C1753 C 0.93759 0.33084 0.9277 0.0
C1754 C 0.93932 0.29709 0.92652 0.0
C1755 C 0.96157 0.30878 0.91894 0.0
C1756 C 0.97165 0.33179 0.91595 0.0
C1757 C 0.95986 0.34271 0.92061 0.0
C1758 C 0.00835 0.296 0.91445 0.0
C1759 C 0.99732 0.27416 0.90548 0.0
C1760 C 0.99681 0.30717 0.91905 0.0
C1761 C 0.97404 0.29694 0.91416 0.0
C1762 C 0.96319 0.27513 0.90477 0.0
C1763 C 0.97462 0.26382 0.90085 0.0
H1764 H 0.7255 0.75735 0.57241 0.0
H1765 H 0.72382 0.69868 0.60145 0.0
H1766 H 0.68573 0.73678 0.56672 0.0
H1767 H 0.68407 0.6783 0.5963 0.0
H1768 H 0.6157 0.64353 0.55852 0.0
H1769 H 0.6555 0.66371 0.56346 0.0
H1770 H 0.65249 0.71986 0.59283 0.0
H1771 H 0.61271 0.69987 0.58737 0.0
C1772 C 0.71669 0.74008 0.57758 0.0
C1773 C 0.72793 0.72971 0.58742 0.0
C1774 C 0.69383 0.72831 0.5745 0.0
C1775 C 0.68164 0.7059 0.58119 0.0
C1776 C 0.69293 0.69547 0.59067 0.0
C1777 C 0.71577 0.70721 0.59373 0.0
C1778 C 0.62348 0.66014 0.56616 0.0
C1779 C 0.61094 0.67006 0.57249 0.0
C1780 C 0.64634 0.6717 0.56908 0.0
C1781 C 0.65726 0.69347 0.57844 0.0
C1782 C 0.64468 0.70327 0.58513 0.0
C1783 C 0.62182 0.69172 0.58219 0.0
H1784 H 0.30192 0.91571 0.59057 0.0
H1785 H 0.35786 0.97517 0.56141 0.0
H1786 H 0.28203 0.93544 0.59698 0.0
H1787 H 0.33771 0.99484 0.56745 0.0
H1788 H 0.24362 0.96955 0.5771 0.0
H1789 H 0.26503 0.95146 0.57033 0.0
H1790 H 0.32262 0.00844 0.60118 0.0
H1791 H 0.30125 0.02682 0.60762 0.0
C1792 C 0.31002 0.933 0.58551 0.0
C1793 C 0.33151 0.94379 0.57536 0.0
C1794 C 0.29852 0.94429 0.58903 0.0
C1795 C 0.30818 0.96669 0.58249 0.0
C1796 C 0.32983 0.97763 0.57285 0.0
C1797 C 0.34136 0.96632 0.5693 0.0
C1798 C 0.26087 0.97834 0.58234 0.0
C1799 C 0.27065 0.99965 0.59304 0.0
C1800 C 0.27313 0.96786 0.57862 0.0
C1801 C 0.2955 0.97838 0.58548 0.0
C1802 C 0.30546 0.99991 0.59554 0.0
C1803 C 0.29317 0.01042 0.5993 0.0
H1804 H 0.97764 0.28365 0.60592 0.0
H1805 H 0.03227 0.28038 0.57188 0.0
H1806 H 0.99745 0.32347 0.59985 0.0
H1807 H 0.05182 0.31996 0.5656 0.0
H1808 H 0.09085 0.3927 0.58578 0.0
H1809 H 0.06991 0.35309 0.59253 0.0
H1810 H 0.01103 0.352 0.56574 0.0
H1811 H 0.03188 0.39172 0.55931 0.0
C1812 C 0.99377 0.29134 0.59694 0.0
C1813 C 0.00337 0.27871 0.58955 0.0
C1814 C 0.0051 0.31419 0.59341 0.0
C1815 C 0.02632 0.32495 0.58248 0.0
C1816 C 0.03569 0.31227 0.57457 0.0
C1817 C 0.02437 0.28948 0.57803 0.0
C1818 C 0.07342 0.38408 0.58143 0.0
C1819 C 0.06311 0.39547 0.57188 0.0
C1820 C 0.06143 0.36131 0.58514 0.0
C1821 C 0.03881 0.34932 0.57946 0.0
C1822 C 0.02838 0.36074 0.57048 0.0
C1823 C 0.04038 0.38353 0.5667 0.0
H1824 H 0.05014 0.69246 0.76849 0.0
H1825 H 0.05268 0.63459 0.7451 0.0
H1826 H 0.01027 0.67221 0.76344 0.0
H1827 H 0.01298 0.61458 0.73961 0.0
H1828 H 0.94055 0.57825 0.76056 0.0
H1829 H 0.98013 0.59954 0.76683 0.0
H1830 H 0.98156 0.65556 0.72976 0.0
H1831 H 0.94181 0.63434 0.72373 0.0
C1832 C 0.04226 0.67548 0.76211 0.0
C1833 C 0.0547 0.66518 0.75724 0.0
C1834 C 0.01939 0.66391 0.75911 0.0
C1835 C 0.00841 0.64174 0.75126 0.0
C1836 C 0.02087 0.63154 0.7461 0.0
C1837 C 0.04371 0.6431 0.74904 0.0
C1838 C 0.94922 0.59512 0.7538 0.0
C1839 C 0.93793 0.60449 0.74146 0.0
C1840 C 0.97198 0.6073 0.75728 0.0
C1841 C 0.98406 0.62919 0.74855 0.0
C1842 C 0.97273 0.63878 0.73685 0.0
C1843 C 0.94993 0.62657 0.73333 0.0
H1844 H 0.30907 0.36193 0.76781 0.0
H1845 H 0.36607 0.42119 0.74012 0.0
H1846 H 0.32854 0.34165 0.76151 0.0
H1847 H 0.38529 0.40082 0.73339 0.0
H1848 H 0.42212 0.36482 0.75267 0.0
H1849 H 0.40157 0.38383 0.75932 0.0
H1850 H 0.34327 0.32781 0.72809 0.0
H1851 H 0.36376 0.30852 0.72187 0.0
C1852 C 0.32566 0.37061 0.76016 0.0
C1853 C 0.336 0.39325 0.75461 0.0
C1854 C 0.33681 0.35894 0.75646 0.0
C1855 C 0.35856 0.36961 0.74714 0.0
C1856 C 0.36871 0.39215 0.74109 0.0
C1857 C 0.3576 0.40381 0.74478 0.0
C1858 C 0.4049 0.35646 0.74731 0.0
C1859 C 0.39465 0.33512 0.73662 0.0
C1860 C 0.39313 0.36746 0.75096 0.0
C1861 C 0.37079 0.35747 0.744 0.0
C1862 C 0.3604 0.33595 0.73384 0.0
C1863 C 0.37219 0.32491 0.73019 0.0
H1864 H 0.58376 0.94518 0.7344 0.0
H1865 H 0.64079 0.94846 0.77117 0.0
H1866 H 0.60397 0.98476 0.728 0.0
H1867 H 0.661 0.98828 0.76493 0.0
H1868 H 0.63655 0.0571 0.74891 0.0
H1869 H 0.61809 0.01754 0.75532 0.0
H1870 H 0.67678 0.01718 0.73103 0.0
H1871 H 0.69552 0.057 0.725 0.0
C1872 C 0.6006 0.95429 0.74114 0.0
C1873 C 0.61052 0.94355 0.75353 0.0
C1874 C 0.61218 0.97707 0.73758 0.0
C1875 C 0.63403 0.98975 0.74624 0.0
C1876 C 0.64422 0.97899 0.75793 0.0
C1877 C 0.6326 0.95615 0.76156 0.0
C1878 C 0.64566 0.04871 0.74511 0.0
C1879 C 0.66756 0.06034 0.73638 0.0
C1880 C 0.63496 0.02593 0.74858 0.0
C1881 C 0.64587 0.01413 0.74344 0.0
C1882 C 0.66794 0.02578 0.7353 0.0
C1883 C 0.67865 0.04861 0.73175 0.0
H1884 H 0.41974 0.0539 0.2556 0.0
H1885 H 0.35997 0.04903 0.22524 0.0
H1886 H 0.40049 0.01432 0.2627 0.0
H1887 H 0.34085 0.00935 0.23192 0.0
H1888 H 0.309 0.94178 0.27274 0.0
H1889 H 0.32743 0.98144 0.26609 0.0
H1890 H 0.38482 0.98071 0.23707 0.0
H1891 H 0.36661 0.94117 0.24414 0.0
C1892 C 0.40249 0.04442 0.25045 0.0
C1893 C 0.39145 0.05471 0.23977 0.0
C1894 C 0.39148 0.02167 0.25435 0.0
C1895 C 0.36916 0.00861 0.24769 0.0
C1896 C 0.358 0.01893 0.23747 0.0
C1897 C 0.369 0.0417 0.23356 0.0
C1898 C 0.32551 0.95004 0.26482 0.0
C1899 C 0.33633 0.93824 0.25908 0.0
C1900 C 0.33605 0.9728 0.26092 0.0
C1901 C 0.35766 0.98431 0.2512 0.0
C1902 C 0.36832 0.97244 0.24503 0.0
C1903 C 0.3578 0.9497 0.24892 0.0
H1904 H 0.94199 0.36417 0.25841 0.0
H1905 H 0.9453 0.30831 0.22844 0.0
H1906 H 0.98165 0.38386 0.2651 0.0
H1907 H 0.98498 0.32818 0.23466 0.0
H1908 H 0.05303 0.36257 0.27341 0.0
H1909 H 0.01321 0.34229 0.26824 0.0
H1910 H 0.01509 0.40103 0.23929 0.0
H1911 H 0.0548 0.42144 0.24495 0.0
C1912 C 0.95113 0.35606 0.25327 0.0
C1913 C 0.94039 0.33464 0.24283 0.0
C1914 C 0.97392 0.36742 0.25694 0.0
C1915 C 0.98656 0.35767 0.25028 0.0
C1916 C 0.97576 0.33612 0.24026 0.0
C1917 C 0.95298 0.32475 0.23658 0.0
C1918 C 0.04499 0.37118 0.26588 0.0
C1919 C 0.0572 0.39368 0.25962 0.0
C1920 C 0.02213 0.3595 0.26282 0.0
C1921 C 0.0109 0.37003 0.25343 0.0
C1922 C 0.02314 0.39248 0.24697 0.0
C1923 C 0.04598 0.40415 0.25003 0.0
H1924 H 0.63634 0.69555 0.27109 0.0
H1925 H 0.57859 0.63872 0.24 0.0
H1926 H 0.65729 0.67665 0.26547 0.0
H1927 H 0.59959 0.62009 0.23407 0.0
H1928 H 0.63516 0.58347 0.25605 0.0
H1929 H 0.61587 0.60381 0.26182 0.0
H1930 H 0.67231 0.66247 0.23216 0.0
H1931 H 0.69186 0.64217 0.2267 0.0
C1932 C 0.62816 0.67914 0.2628 0.0
C1933 C 0.60571 0.66863 0.25616 0.0
C1934 C 0.6402 0.66833 0.25953 0.0
C1935 C 0.63007 0.64676 0.24958 0.0
C1936 C 0.6078 0.63652 0.24229 0.0
C1937 C 0.59579 0.6473 0.24552 0.0
C1938 C 0.64357 0.60071 0.25085 0.0
C1939 C 0.66507 0.61108 0.24077 0.0
C1940 C 0.63241 0.61237 0.254 0.0
C1941 C 0.64244 0.63473 0.24718 0.0
C1942 C 0.66414 0.6453 0.23774 0.0
C1943 C 0.67532 0.63361 0.23454 0.0
H1944 H 0.31148 0.20513 0.18879 0.0
H1945 H 0.29766 0.17883 0.10995 0.0
H1946 H 0.33198 0.18619 0.19725 0.0
H1947 H 0.31698 0.15901 0.11877 0.0
H1948 H 0.37118 0.14329 0.13346 0.0
H1949 H 0.35161 0.16293 0.12491 0.0
H1950 H 0.32741 0.15093 0.20476 0.0
H1951 H 0.348 0.13212 0.21364 0.0
C1952 C 0.31279 0.19529 0.17327 0.0
C1953 C 0.30287 0.19347 0.14871 0.0
C1954 C 0.32434 0.18421 0.17821 0.0
C1955 C 0.32604 0.17086 0.1588 0.0
C1956 C 0.31633 0.16933 0.13413 0.0
C1957 C 0.30508 0.18063 0.12909 0.0
C1958 C 0.36155 0.14466 0.14917 0.0
C1959 C 0.36112 0.13609 0.17423 0.0
C1960 C 0.35022 0.15591 0.14423 0.0
C1961 C 0.33789 0.15861 0.16413 0.0
C1962 C 0.33706 0.14956 0.18908 0.0
C1963 C 0.34866 0.13855 0.19411 0.0
H1964 H 0.8583 0.22931 0.13504 0.0
H1965 H 0.86214 0.21323 0.21607 0.0
H1966 H 0.8383 0.1905 0.12407 0.0
H1967 H 0.84301 0.17425 0.20486 0.0
H1968 H 0.78897 0.10571 0.1827 0.0
H1969 H 0.8081 0.14479 0.19329 0.0
H1970 H 0.84124 0.15922 0.11824 0.0
H1971 H 0.82126 0.12048 0.10719 0.0
C1972 C 0.85526 0.21748 0.15045 0.0
C1973 C 0.86185 0.22437 0.17643 0.0
C1974 C 0.8438 0.19515 0.14413 0.0
C1975 C 0.83892 0.1791 0.16356 0.0
C1976 C 0.84605 0.18606 0.18946 0.0
C1977 C 0.85726 0.20844 0.19586 0.0
C1978 C 0.80015 0.11728 0.16836 0.0
C1979 C 0.80362 0.10993 0.14413 0.0
C1980 C 0.81134 0.1397 0.17455 0.0
C1981 C 0.82644 0.15527 0.15676 0.0
C1982 C 0.82957 0.14786 0.13234 0.0
C1983 C 0.81817 0.12552 0.12603 0.0
H1984 H 0.88169 0.67921 0.11421 0.0
H1985 H 0.8953 0.70846 0.19153 0.0
H1986 H 0.84236 0.66096 0.12336 0.0
H1987 H 0.85629 0.69146 0.20013 0.0
H1988 H 0.78591 0.64136 0.21856 0.0
H1989 H 0.82484 0.65885 0.20951 0.0
H1990 H 0.8125 0.66685 0.12813 0.0
H1991 H 0.77315 0.64783 0.13699 0.0
C1992 C 0.87627 0.68169 0.13317 0.0
C1993 C 0.89161 0.6951 0.15222 0.0
C1994 C 0.85371 0.67147 0.13832 0.0
C1995 C 0.846 0.67474 0.16249 0.0
C1996 C 0.86147 0.68811 0.18151 0.0
C1997 C 0.88395 0.69797 0.17654 0.0
C1998 C 0.79143 0.64682 0.19873 0.0
C1999 C 0.77633 0.64291 0.17846 0.0
C2000 C 0.8139 0.65708 0.19353 0.0
C2001 C 0.82199 0.66423 0.168 0.0
C2002 C 0.80691 0.66112 0.1479 0.0
C2003 C 0.78433 0.65046 0.15304 0.0
H2004 H 0.1527 0.37869 0.35997 0.0
H2005 H 0.13428 0.35008 0.28249 0.0
H2006 H 0.17178 0.3585 0.36787 0.0
H2007 H 0.15249 0.32881 0.29089 0.0
H2008 H 0.20512 0.31007 0.30377 0.0
H2009 H 0.18727 0.33163 0.29535 0.0
H2010 H 0.16666 0.32382 0.37655 0.0
H2011 H 0.1855 0.30353 0.38516 0.0
C2012 C 0.15237 0.36774 0.34476 0.0
C2013 C 0.14188 0.36592 0.32064 0.0
C2014 C 0.16329 0.35605 0.34934 0.0
C2015 C 0.16371 0.34191 0.33007 0.0
C2016 C 0.15287 0.33982 0.30604 0.0
C2017 C 0.1422 0.35181 0.30131 0.0
C2018 C 0.19699 0.3132 0.31986 0.0
C2019 C 0.19672 0.30502 0.34513 0.0
C2020 C 0.18652 0.32536 0.31498 0.0
C2021 C 0.17533 0.32941 0.3352 0.0
C2022 C 0.17534 0.32139 0.36052 0.0
C2023 C 0.18606 0.30956 0.36546 0.0
H2024 H 0.66219 0.87875 0.3804 0.0
H2025 H 0.72089 0.89234 0.33784 0.0
H2026 H 0.64417 0.84067 0.36494 0.0
H2027 H 0.70287 0.85448 0.32247 0.0
H2028 H 0.67075 0.77875 0.325 0.0
H2029 H 0.68891 0.81674 0.34095 0.0
H2030 H 0.63088 0.82047 0.32243 0.0
H2031 H 0.61276 0.78273 0.30675 0.0
C2032 C 0.6712 0.87368 0.36769 0.0
C2033 C 0.69295 0.88862 0.36033 0.0
C2034 C 0.66088 0.8519 0.3588 0.0
C2035 C 0.67216 0.84459 0.34258 0.0
C2036 C 0.69386 0.85954 0.33521 0.0
C2037 C 0.7041 0.8813 0.34389 0.0
C2038 C 0.66192 0.78772 0.32429 0.0
C2039 C 0.64037 0.77774 0.31445 0.0
C2040 C 0.67232 0.80946 0.33334 0.0
C2041 C 0.66126 0.82154 0.33301 0.0
C2042 C 0.63973 0.81153 0.3232 0.0
C2043 C 0.62945 0.78994 0.31395 0.0
H2044 H 0.21709 0.85799 0.28303 0.0
H2045 H 0.2289 0.84861 0.36403 0.0
H2046 H 0.17769 0.83943 0.29165 0.0
H2047 H 0.18966 0.8292 0.37237 0.0
H2048 H 0.12038 0.8157 0.38603 0.0
H2049 H 0.15947 0.83418 0.37739 0.0
H2050 H 0.14665 0.80455 0.30021 0.0
H2051 H 0.10725 0.78696 0.30842 0.0
C2052 C 0.21127 0.85198 0.30267 0.0
C2053 C 0.22612 0.85492 0.32289 0.0
C2054 C 0.18866 0.8411 0.30757 0.0
C2055 C 0.1804 0.8327 0.33271 0.0
C2056 C 0.19536 0.83576 0.35289 0.0
C2057 C 0.21792 0.84686 0.34808 0.0
C2058 C 0.12583 0.81306 0.36722 0.0
C2059 C 0.11063 0.79999 0.34783 0.0
C2060 C 0.14836 0.82357 0.3623 0.0
C2061 C 0.15634 0.82099 0.33803 0.0
C2062 C 0.14113 0.80731 0.31892 0.0
C2063 C 0.11852 0.79702 0.32373 0.0
H2064 H 0.70198 0.80182 0.79295 0.0
H2065 H 0.69967 0.81875 0.87405 0.0
H2066 H 0.68416 0.82246 0.77968 0.0
H2067 H 0.68227 0.83977 0.86068 0.0
H2068 H 0.62988 0.85472 0.82864 0.0
H2069 H 0.64813 0.83485 0.84293 0.0
H2070 H 0.69216 0.86048 0.77661 0.0
H2071 H 0.67354 0.8801 0.76191 0.0
C2072 C 0.69759 0.80986 0.80798 0.0
C2073 C 0.70226 0.80861 0.83458 0.0
C2074 C 0.68758 0.8219 0.80032 0.0
C2075 C 0.68198 0.83296 0.81907 0.0
C2076 C 0.68624 0.83134 0.84574 0.0
C2077 C 0.69625 0.8193 0.8534 0.0
C2078 C 0.64358 0.85631 0.81718 0.0
C2079 C 0.6502 0.86898 0.79406 0.0
C2080 C 0.6541 0.84495 0.82546 0.0
C2081 C 0.67152 0.84595 0.81085 0.0
C2082 C 0.67855 0.85908 0.78809 0.0
C2083 C 0.66803 0.8705 0.7798 0.0
H2084 H 0.18706 0.88111 0.88973 0.0
H2085 H 0.20935 0.89463 0.80926 0.0
H2086 H 0.16575 0.84226 0.8799 0.0
H2087 H 0.18911 0.85537 0.7997 0.0
H2088 H 0.13228 0.78692 0.78293 0.0
H2089 H 0.15328 0.82606 0.79318 0.0
H2090 H 0.16673 0.81057 0.87082 0.0
H2091 H 0.14477 0.77168 0.86103 0.0
C2092 C 0.18771 0.87577 0.86999 0.0
C2093 C 0.1997 0.89106 0.85021 0.0
C2094 C 0.17556 0.85335 0.86436 0.0
C2095 C 0.17547 0.84553 0.8389 0.0
C2096 C 0.18829 0.86077 0.81937 0.0
C2097 C 0.20015 0.88329 0.82492 0.0
C2098 C 0.13947 0.79195 0.8023 0.0
C2099 C 0.13672 0.77622 0.82122 0.0
C2100 C 0.15177 0.8144 0.8081 0.0
C2101 C 0.16191 0.82162 0.83281 0.0
C2102 C 0.15891 0.80576 0.85175 0.0
C2103 C 0.14631 0.78337 0.84611 0.0
H2104 H 0.10524 0.29775 0.80368 0.0
H2105 H 0.12075 0.31709 0.88493 0.0
H2106 H 0.14406 0.31541 0.79343 0.0
H2107 H 0.15986 0.33604 0.87443 0.0
H2108 H 0.22846 0.35043 0.85351 0.0
H2109 H 0.18932 0.33083 0.86365 0.0
H2110 H 0.17568 0.34867 0.78749 0.0
H2111 H 0.21439 0.36682 0.77688 0.0
C2112 C 0.11698 0.30621 0.81929 0.0
C2113 C 0.10991 0.30611 0.8451 0.0
C2114 C 0.13935 0.31645 0.81338 0.0
C2115 C 0.15529 0.32727 0.83304 0.0
C2116 C 0.14815 0.32754 0.85883 0.0
C2117 C 0.12571 0.31691 0.86483 0.0
C2118 C 0.21703 0.34988 0.83883 0.0
C2119 C 0.22461 0.3603 0.81443 0.0
C2120 C 0.19457 0.33886 0.84475 0.0
C2121 C 0.17918 0.33827 0.82654 0.0
C2122 C 0.18685 0.34841 0.80196 0.0
C2123 C 0.2092 0.35904 0.79589 0.0
H2124 H 0.84446 0.63059 0.71479 0.0
H2125 H 0.87602 0.64689 0.63883 0.0
H2126 H 0.82652 0.65147 0.70474 0.0
H2127 H 0.85902 0.66909 0.62926 0.0
H2128 H 0.80752 0.68818 0.60896 0.0
H2129 H 0.82518 0.66661 0.6186 0.0
H2130 H 0.8319 0.68664 0.7 0.0
H2131 H 0.81332 0.70711 0.6906 0.0
C2132 C 0.84784 0.63889 0.69604 0.0
C2133 C 0.86157 0.63689 0.67755 0.0
C2134 C 0.83763 0.65108 0.69032 0.0
C2135 C 0.84123 0.66203 0.66613 0.0
C2136 C 0.85547 0.66053 0.64787 0.0
C2137 C 0.86543 0.64799 0.65346 0.0
C2138 C 0.81256 0.68773 0.62896 0.0
C2139 C 0.80884 0.6992 0.64905 0.0
C2140 C 0.82292 0.67557 0.63446 0.0
C2141 C 0.83007 0.67485 0.66011 0.0
C2142 C 0.82628 0.68638 0.68013 0.0
C2143 C 0.81566 0.69823 0.67471 0.0
H2144 H 0.32366 0.21287 0.70918 0.0
H2145 H 0.38544 0.22152 0.68067 0.0
H2146 H 0.30531 0.17435 0.69523 0.0
H2147 H 0.36713 0.18324 0.66688 0.0
H2148 H 0.3298 0.10724 0.67289 0.0
H2149 H 0.34819 0.1456 0.68755 0.0
H2150 H 0.29659 0.15351 0.65249 0.0
H2151 H 0.27829 0.11541 0.63793 0.0
C2152 C 0.3333 0.20661 0.69992 0.0
C2153 C 0.356 0.22031 0.69602 0.0
C2154 C 0.3228 0.18458 0.69189 0.0
C2155 C 0.33482 0.17579 0.68004 0.0
C2156 C 0.35749 0.18947 0.67624 0.0
C2157 C 0.36793 0.21147 0.68401 0.0
C2158 C 0.32245 0.11721 0.66825 0.0
C2159 C 0.30267 0.10831 0.65409 0.0
C2160 C 0.33299 0.13916 0.67658 0.0
C2161 C 0.32376 0.15251 0.67125 0.0
C2162 C 0.30398 0.14358 0.65712 0.0
C2163 C 0.29363 0.12179 0.64853 0.0
H2164 H 0.87844 0.22399 0.62694 0.0
H2165 H 0.89597 0.17777 0.65891 0.0
H2166 H 0.84172 0.20241 0.64589 0.0
H2167 H 0.85938 0.15606 0.677 0.0
H2168 H 0.79808 0.13376 0.72775 0.0
H2169 H 0.83521 0.15586 0.71029 0.0
H2170 H 0.80869 0.1675 0.63939 0.0
H2171 H 0.77177 0.14595 0.65706 0.0
C2172 C 0.8745 0.20929 0.638 0.0
C2173 C 0.89016 0.20264 0.64135 0.0
C2174 C 0.85342 0.19682 0.6487 0.0
C2175 C 0.84756 0.17743 0.66291 0.0
C2176 C 0.86337 0.17102 0.66651 0.0
C2177 C 0.88437 0.18347 0.65595 0.0
C2178 C 0.80019 0.14082 0.70832 0.0
C2179 C 0.78198 0.1381 0.69382 0.0
C2180 C 0.82147 0.15353 0.6983 0.0
C2181 C 0.82496 0.16366 0.67351 0.0
C2182 C 0.80666 0.16038 0.65877 0.0
C2183 C 0.78546 0.1478 0.66881 0.0
H2184 H 0.98077 0.54313 0.52169 0.0
H2185 H 0.96729 0.51591 0.44329 0.0
H2186 H 0.00292 0.52593 0.53023 0.0
H2187 H 0.98827 0.49783 0.45219 0.0
H2188 H 0.04441 0.48516 0.46642 0.0
H2189 H 0.0237 0.50367 0.45803 0.0
H2190 H 1.00005 0.49134 0.5381 0.0
H2191 H 0.02175 0.47367 0.54683 0.0
C2192 C 0.98251 0.53347 0.50629 0.0
C2193 C 0.9722 0.53087 0.48183 0.0
C2194 C 0.99502 0.52339 0.51127 0.0
C2195 C 0.99731 0.51031 0.49199 0.0
C2196 C 0.9872 0.50801 0.46742 0.0
C2197 C 0.97498 0.5183 0.46235 0.0
C2198 C 0.03468 0.48625 0.48223 0.0
C2199 C 0.03467 0.47786 0.50728 0.0
C2200 C 0.0227 0.49683 0.47738 0.0
C2201 C 0.01012 0.49904 0.49736 0.0
C2202 C 0.00983 0.49031 0.52235 0.0
C2203 C 0.02208 0.47995 0.5273 0.0
H2204 H 0.54782 0.5623 0.47504 0.0
H2205 H 0.51741 0.5476 0.55167 0.0
H2206 H 0.52949 0.52309 0.46511 0.0
H2207 H 0.49818 0.50876 0.54132 0.0
H2208 H 0.48194 0.43908 0.52552 0.0
H2209 H 0.502 0.47807 0.53546 0.0
H2210 H 0.49478 0.49276 0.45478 0.0
H2211 H 0.47563 0.45357 0.44457 0.0
C2212 C 0.53723 0.55072 0.48976 0.0
C2213 C 0.53405 0.55812 0.51412 0.0
C2214 C 0.5265 0.52823 0.48397 0.0
C2215 C 0.51215 0.51264 0.5023 0.0
C2216 C 0.50931 0.52013 0.52681 0.0
C2217 C 0.52027 0.54253 0.53272 0.0
C2218 C 0.48449 0.45061 0.50991 0.0
C2219 C 0.4771 0.44322 0.48427 0.0
C2220 C 0.49597 0.47304 0.51564 0.0
C2221 C 0.50006 0.48871 0.49597 0.0
C2222 C 0.49233 0.48125 0.47036 0.0
C2223 C 0.48111 0.45876 0.46454 0.0
H2224 H 0.55871 0.03601 0.49692 0.0
H2225 H 0.53527 0.99279 0.42954 0.0
H2226 H 0.52136 0.0205 0.51284 0.0
H2227 H 0.49766 0.97672 0.44601 0.0
H2228 H 0.43231 0.97277 0.46667 0.0
H2229 H 0.47001 0.98777 0.45139 0.0
H2230 H 0.49122 0.98794 0.53113 0.0
H2231 H 0.45374 0.97358 0.54649 0.0
C2232 C 0.5456 0.02293 0.48567 0.0
C2233 C 0.54998 0.01569 0.46187 0.0
C2234 C 0.52414 0.01397 0.4949 0.0
C2235 C 0.50649 0.99747 0.48064 0.0
C2236 C 0.51089 0.98969 0.45724 0.0
C2237 C 0.53245 0.9987 0.44795 0.0
C2238 C 0.44506 0.97627 0.48099 0.0
C2239 C 0.43999 0.97196 0.50781 0.0
C2240 C 0.46663 0.9846 0.47218 0.0
C2241 C 0.48359 0.98881 0.48999 0.0
C2242 C 0.47858 0.98501 0.51689 0.0
C2243 C 0.45706 0.97674 0.5257 0.0
H2244 H 0.52483 0.96329 0.96549 0.0
H2245 H 0.53046 0.98206 0.04717 0.0
H2246 H 0.50558 0.98315 0.95627 0.0
H2247 H 0.51209 0.00297 0.03773 0.0
H2248 H 0.45908 0.0198 0.01824 0.0
H2249 H 0.47741 0.99879 0.02733 0.0
H2250 H 0.50985 0.01807 0.95191 0.0
H2251 H 0.49066 0.03786 0.94235 0.0
C2252 C 0.52233 0.97203 0.98141 0.0
C2253 C 0.52923 0.97114 0.00706 0.0
C2254 C 0.51131 0.98352 0.97611 0.0
C2255 C 0.5072 0.99471 0.99623 0.0
C2256 C 0.51457 0.99422 0.02182 0.0
C2257 C 0.52534 0.98244 0.0272 0.0
C2258 C 0.46994 0.01932 0.00351 0.0
C2259 C 0.47342 0.03056 0.97959 0.0
C2260 C 0.48066 0.00748 0.00883 0.0
C2261 C 0.49529 0.00682 0.99046 0.0
C2262 C 0.4985 0.01787 0.96641 0.0
C2263 C 0.48756 0.02941 0.96097 0.0
H2264 H 0.95236 0.43972 -0.00251 0.0
H2265 H 0.00245 0.45874 0.93788 0.0
H2266 H 0.9703 0.47727 0.0137 0.0
H2267 H 0.02033 0.49658 0.95411 0.0
H2268 H 0.05795 0.55544 0.0098 0.0
H2269 H 0.04032 0.51801 0.99318 0.0
H2270 H 0.97696 0.51366 -0.00058 0.0
H2271 H 0.99462 0.55125 0.01646 0.0
C2272 C 0.96726 0.45189 0.98785 0.0
C2273 C 0.97599 0.44619 0.96635 0.0
C2274 C 0.97742 0.47349 0.99705 0.0
C2275 C 0.99661 0.48993 0.98508 0.0
C2276 C 0.00561 0.48421 0.96386 0.0
C2277 C 0.99537 0.46256 0.95455 0.0
C2278 C 0.04024 0.54656 0.00768 0.0
C2279 C 0.02767 0.55636 0.01454 0.0
C2280 C 0.03017 0.52513 -0.00205 0.0
C2281 C 0.00727 0.51289 0.99493 0.0
C2282 C 0.99465 0.52263 0.00177 0.0
C2283 C 0.00476 0.54418 0.01142 0.0
H2284 H 0.45096 0.46846 0.0457 0.0
H2285 H 0.43834 0.48298 0.96728 0.0
H2286 H 0.49034 0.48834 0.03672 0.0
H2287 H 0.47749 0.50374 0.95874 0.0
H2288 H 0.54743 0.52088 0.9418 0.0
H2289 H 0.50836 0.50077 0.95063 0.0
H2290 H 0.52078 0.52389 0.03097 0.0
H2291 H 0.56018 0.54299 0.02243 0.0
C2292 C 0.4566 0.47586 0.02654 0.0
C2293 C 0.44153 0.47399 0.00715 0.0
C2294 C 0.47919 0.48751 0.02147 0.0
C2295 C 0.48722 0.4978 0.99701 0.0
C2296 C 0.47202 0.49575 0.97763 0.0
C2297 C 0.44949 0.48385 0.98256 0.0
C2298 C 0.54189 0.52173 0.96136 0.0
C2299 C 0.557 0.53337 0.98147 0.0
C2300 C 0.51936 0.51028 0.96641 0.0
C2301 C 0.51127 0.51052 0.9916 0.0
C2302 C 0.52638 0.52288 0.01149 0.0
C2303 C 0.54899 0.53408 0.00652 0.0
H2304 H 0.19128 0.07284 0.92744 0.0
H2305 H 0.21861 0.05011 0.98759 0.0
H2306 H 0.19344 0.1009 0.95715 0.0
H2307 H 0.22273 0.07938 0.01636 0.0
H2308 H 0.20905 0.12048 0.07253 0.0
H2309 H 0.20344 0.09078 0.04286 0.0
H2310 H 0.21759 0.13449 0.97658 0.0
H2311 H 0.22179 0.16356 0.00649 0.0
C2312 C 0.19816 0.07407 0.94684 0.0
C2313 C 0.20539 0.05956 0.95474 0.0
C2314 C 0.19959 0.09034 0.96384 0.0
C2315 C 0.20846 0.09265 0.98918 0.0
C2316 C 0.21563 0.07806 0.99711 0.0
C2317 C 0.21383 0.06154 0.98024 0.0
C2318 C 0.21057 0.12344 0.05154 0.0
C2319 C 0.21569 0.14404 0.04157 0.0
C2320 C 0.20766 0.10659 0.03453 0.0
C2321 C 0.21028 0.11021 0.00722 0.0
C2322 C 0.21509 0.13091 -0.00262 0.0
C2323 C 0.2176 0.14761 0.01442 0.0
H2324 H 0.84555 0.05176 0.00554 0.0
H2325 H 0.8728 0.10161 0.06576 0.0
H2326 H 0.87537 0.07564 0.976 0.0
H2327 H 0.90173 0.12614 0.03584 0.0
H2328 H 0.96158 0.15909 0.98243 0.0
H2329 H 0.93407 0.13378 0.0134 0.0
H2330 H 0.88623 0.10737 0.95059 0.0
H2331 H 0.914 0.13218 0.9197 0.0
C2332 C 0.85801 0.0678 0.01246 0.0
C2333 C 0.85678 0.07494 0.03779 0.0
C2334 C 0.87493 0.08164 0.99544 0.0
C2335 C 0.89085 0.10302 0.00333 0.0
C2336 C 0.88992 0.1098 0.02906 0.0
C2337 C 0.87317 0.09585 0.04613 0.0
C2338 C 0.94508 0.14812 0.97541 0.0
C2339 C 0.93979 0.14781 0.94878 0.0
C2340 C 0.9293 0.13351 0.99312 0.0
C2341 C 0.90786 0.11842 0.98456 0.0
C2342 C 0.90264 0.11837 0.95787 0.0
C2343 C 0.91848 0.13274 0.94017 0.0
H2344 H 0.93207 0.80521 0.0561 0.0
H2345 H 0.90546 0.74011 0.02352 0.0
H2346 H 0.90773 0.8118 0.02788 0.0
H2347 H 0.88121 0.7466 0.9951 0.0
H2348 H 0.82722 0.75799 0.96388 0.0
H2349 H 0.84939 0.75174 0.99586 0.0
H2350 H 0.90366 0.81717 0.98157 0.0
H2351 H 0.88123 0.82369 0.95043 0.0
C2352 C 0.92104 0.79238 0.04277 0.0
C2353 C 0.92057 0.77219 0.04187 0.0
C2354 C 0.90712 0.79611 0.02663 0.0
C2355 C 0.89248 0.77971 0.00925 0.0
C2356 C 0.892 0.75945 0.00854 0.0
C2357 C 0.90593 0.75575 0.02468 0.0
C2358 C 0.84363 0.77126 0.96811 0.0
C2359 C 0.85232 0.79149 0.95495 0.0
C2360 C 0.85649 0.76754 0.98613 0.0
C2361 C 0.87831 0.78396 0.99129 0.0
C2362 C 0.88683 0.80428 0.97837 0.0
C2363 C 0.87402 0.80796 0.96037 0.0
H2364 H 0.16683 0.22759 0.49219 0.0
H2365 H 0.12519 0.21853 0.42563 0.0
H2366 H 0.13762 0.22331 0.52193 0.0
H2367 H 0.09553 0.21331 0.45509 0.0
H2368 H 0.05454 0.22664 0.51227 0.0
H2369 H 0.08491 0.23271 0.4839 0.0
H2370 H 0.10274 0.19707 0.53853 0.0
H2371 H 0.07333 0.19241 0.56771 0.0
C2372 C 0.15123 0.22436 0.48406 0.0
C2373 C 0.14806 0.22333 0.45683 0.0
C2374 C 0.13449 0.22184 0.50099 0.0
C2375 C 0.11419 0.21803 0.49094 0.0
C2376 C 0.11105 0.21666 0.46354 0.0
C2377 C 0.12789 0.21943 0.44666 0.0
C2378 C 0.06539 0.22077 0.51866 0.0
C2379 C 0.06194 0.20965 0.54264 0.0
C2380 C 0.08254 0.22381 0.50209 0.0
C2381 C 0.09635 0.2154 0.5089 0.0
C2382 C 0.09274 0.20414 0.53284 0.0
C2383 C 0.07575 0.2013 0.54949 0.0
H2384 H 0.74944 0.91084 0.46643 0.0
H2385 H 0.81597 0.93826 0.43851 0.0
H2386 H 0.75475 0.88638 0.4958 0.0
H2387 H 0.82138 0.91359 0.46763 0.0
H2388 H 0.82909 0.8836 0.54465 0.0
H2389 H 0.82443 0.90756 0.51397 0.0
H2390 H 0.75947 0.85453 0.49459 0.0
H2391 H 0.76376 0.83089 0.52618 0.0
C2392 C 0.7652 0.91153 0.46662 0.0
C2393 C 0.78233 0.92635 0.45036 0.0
C2394 C 0.76821 0.89745 0.48325 0.0
C2395 C 0.78844 0.89791 0.48393 0.0
C2396 C 0.80567 0.91296 0.46776 0.0
C2397 C 0.80262 0.92707 0.45112 0.0
C2398 C 0.81385 0.87701 0.53372 0.0
C2399 C 0.79693 0.85521 0.53757 0.0
C2400 C 0.81125 0.89071 0.51599 0.0
C2401 C 0.7916 0.88296 0.50178 0.0
C2402 C 0.77476 0.86106 0.50538 0.0
C2403 C 0.77737 0.84735 0.52316 0.0
H2404 H 0.08706 0.83405 0.47484 0.0
H2405 H 0.06825 0.87755 0.43818 0.0
H2406 H 0.11077 0.86322 0.50541 0.0
H2407 H 0.09199 0.9069 0.46873 0.0
H2408 H 0.11723 0.94381 0.54764 0.0
H2409 H 0.09416 0.91566 0.51588 0.0
H2410 H 0.14504 0.89893 0.50517 0.0
H2411 H 0.16785 0.92666 0.53757 0.0
C2412 C 0.08805 0.84992 0.47342 0.0
C2413 C 0.07585 0.85364 0.45435 0.0
C2414 C 0.1017 0.86663 0.49075 0.0
C2415 C 0.10335 0.8874 0.48939 0.0
C2416 C 0.09091 0.89101 0.47042 0.0
C2417 C 0.07731 0.87427 0.453 0.0
C2418 C 0.12354 0.93419 0.53839 0.0
C2419 C 0.1445 0.93767 0.54483 0.0
C2420 C 0.11037 0.91817 0.52007 0.0
C2421 C 0.11778 0.9051 0.50797 0.0
C2422 C 0.13882 0.90867 0.51428 0.0
C2423 C 0.15205 0.92479 0.53255 0.0
H2424 H 0.77783 0.91131 0.07007 0.0
H2425 H 0.80454 0.96055 0.00917 0.0
H2426 H 0.7739 0.88338 0.03873 0.0
H2427 H 0.80139 0.93286 0.97782 0.0
H2428 H 0.77275 0.87351 0.92276 0.0
H2429 H 0.77641 0.9018 0.95342 0.0
H2430 H 0.79441 0.87123 0.01491 0.0
H2431 H 0.78916 0.84214 0.98455 0.0
C2432 C 0.78286 0.91612 0.0499 0.0
C2433 C 0.79113 0.93797 0.0419 0.0
C2434 C 0.78081 0.90017 0.03197 0.0
C2435 C 0.78742 0.90581 0.00569 0.0
C2436 C 0.79574 0.92779 -0.00226 0.0
C2437 C 0.79749 0.94368 0.01566 0.0
C2438 C 0.77732 0.87281 0.94292 0.0
C2439 C 0.78051 0.85559 0.95138 0.0
C2440 C 0.77969 0.88916 0.96043 0.0
C2441 C 0.78561 0.88881 0.98676 0.0
C2442 C 0.7894 0.87183 0.99496 0.0
C2443 C 0.78674 0.85533 0.97749 0.0
H2444 H 0.05191 0.87635 0.04243 0.0
H2445 H 0.07188 0.82758 0.03465 0.0
H2446 H 0.08276 0.90158 0.01526 0.0
H2447 H 0.102 0.85231 0.00623 0.0
H2448 H 0.1678 0.91069 0.98175 0.0
H2449 H 0.13673 0.88564 0.0092 0.0
H2450 H 0.09619 0.90779 0.97112 0.0
H2451 H 0.12756 0.93318 0.94428 0.0
C2452 C 0.06269 0.87087 0.03456 0.0
C2453 C 0.05914 0.84976 0.04031 0.0
C2454 C 0.08029 0.88529 0.01881 0.0
C2455 C 0.09483 0.87897 0.00845 0.0
C2456 C 0.0912 0.85778 0.01405 0.0
C2457 C 0.07362 0.84338 0.02993 0.0
C2458 C 0.15222 0.91019 0.97948 0.0
C2459 C 0.14992 0.92376 0.96109 0.0
C2460 C 0.1344 0.89576 0.99498 0.0
C2461 C 0.1139 0.89457 0.99224 0.0
C2462 C 0.11179 0.90845 0.97397 0.0
C2463 C 0.12968 0.92297 0.95859 0.0
H2464 H 0.13011 0.22055 0.07554 0.0
H2465 H 0.1569 0.19973 0.01291 0.0
H2466 H 0.10658 0.22527 0.04417 0.0
H2467 H 0.13298 0.2038 0.98148 0.0
H2468 H 0.10317 0.23484 0.92879 0.0
H2469 H 0.12703 0.23009 0.9596 0.0
H2470 H 0.07515 0.2051 0.01761 0.0
H2471 H 0.05193 0.21132 0.98723 0.0
C2472 C 0.13094 0.21702 0.05499 0.0
C2473 C 0.14561 0.21023 0.04652 0.0
C2474 C 0.11734 0.21952 0.03703 0.0
C2475 C 0.11781 0.21487 0.01024 0.0
C2476 C 0.13248 0.20796 0.00184 0.0
C2477 C 0.14629 0.20572 0.01981 0.0
C2478 C 0.097 0.22852 0.94824 0.0
C2479 C 0.07584 0.22368 0.95579 0.0
C2480 C 0.11055 0.22552 0.96579 0.0
C2481 C 0.1031 0.21732 0.9912 0.0
C2482 C 0.08161 0.21186 -0.00159 0.0
C2483 C 0.06817 0.21511 0.98091 0.0
H2484 H 0.84351 0.78973 0.5037 0.0
H2485 H 0.87383 0.77103 0.56443 0.0
H2486 H 0.87272 0.79539 0.4733 0.0
H2487 H 0.90221 0.77513 0.53373 0.0
H2488 H 0.96161 0.8045 0.47952 0.0
H2489 H 0.93358 0.80087 0.51056 0.0
H2490 H 0.88508 0.77546 0.44838 0.0
H2491 H 0.91343 0.77985 0.41735 0.0
C2492 C 0.85648 0.78686 0.5105 0.0
C2493 C 0.85642 0.77988 0.53632 0.0
C2494 C 0.87305 0.78978 0.49302 0.0
C2495 C 0.88979 0.78553 0.50093 0.0
C2496 C 0.88978 0.7788 0.52696 0.0
C2497 C 0.87337 0.77617 0.54449 0.0
C2498 C 0.94486 0.79775 0.47269 0.0
C2499 C 0.93951 0.792 0.44624 0.0
C2500 C 0.92878 0.79575 0.49042 0.0
C2501 C 0.90698 0.78781 0.48206 0.0
C2502 C 0.90173 0.78199 0.45549 0.0
C2503 C 0.91788 0.78429 0.43774 0.0
H2504 H 0.2051 0.08757 0.57446 0.0
H2505 H 0.22318 0.05948 0.5107 0.0
H2506 H 0.20048 0.11164 0.54367 0.0
H2507 H 0.21998 0.08436 0.47982 0.0
H2508 H 0.19443 0.11842 0.42728 0.0
H2509 H 0.19609 0.09282 0.45788 0.0
H2510 H 0.22042 0.14292 0.51818 0.0
H2511 H 0.21672 0.16771 0.48835 0.0
C2512 C 0.20801 0.08662 0.55372 0.0
C2513 C 0.21428 0.07173 0.54469 0.0
C2514 C 0.20567 0.10055 0.53611 0.0
C2515 C 0.21003 0.10017 0.50917 0.0
C2516 C 0.21611 0.08494 0.50027 0.0
C2517 C 0.21804 0.07074 0.51787 0.0
C2518 C 0.20011 0.12399 0.4471 0.0
C2519 C 0.20605 0.14544 0.45501 0.0
C2520 C 0.20127 0.10932 0.46463 0.0
C2521 C 0.20859 0.11576 0.49054 0.0
C2522 C 0.21451 0.13723 0.49847 0.0
C2523 C 0.21297 0.15178 0.48104 0.0
H2524 H 0.90734 0.16736 0.5263 0.0
H2525 H 0.93376 0.1279 0.55625 0.0
H2526 H 0.88288 0.13733 0.49711 0.0
H2527 H 0.90897 0.09755 0.52773 0.0
H2528 H 0.88102 0.05879 0.45201 0.0
H2529 H 0.90407 0.08786 0.48251 0.0
H2530 H 0.85115 0.10125 0.49602 0.0
H2531 H 0.82851 0.07297 0.46423 0.0
C2532 C 0.9077 0.15211 0.52672 0.0
C2533 C 0.92233 0.14981 0.54337 0.0
C2534 C 0.89364 0.13488 0.51018 0.0
C2535 C 0.8939 0.11497 0.51008 0.0
C2536 C 0.90854 0.11274 0.52699 0.0
C2537 C 0.92269 0.13004 0.54336 0.0
C2538 C 0.87424 0.06788 0.46154 0.0
C2539 C 0.85274 0.06323 0.45598 0.0
C2540 C 0.88742 0.08444 0.47925 0.0
C2541 C 0.87945 0.09684 0.49191 0.0
C2542 C 0.85787 0.09211 0.48651 0.0
C2543 C 0.84469 0.07556 0.46863 0.0
H2544 H 0.85416 0.4559 0.38985 0.0
H2545 H 0.91664 0.49715 0.35247 0.0
H2546 H 0.84828 0.42508 0.36185 0.0
H2547 H 0.91074 0.46666 0.32399 0.0
H2548 H 0.90458 0.40261 0.29625 0.0
H2549 H 0.90965 0.43198 0.32588 0.0
H2550 H 0.84109 0.41245 0.31712 0.0
H2551 H 0.83579 0.38236 0.28862 0.0
C2552 C 0.86645 0.45837 0.37533 0.0
C2553 C 0.88581 0.47875 0.37316 0.0
C2554 C 0.86314 0.44079 0.3593 0.0
C2555 C 0.87911 0.44334 0.34076 0.0
C2556 C 0.8983 0.46397 0.33839 0.0
C2557 C 0.90162 0.48148 0.35448 0.0
C2558 C 0.89044 0.40413 0.30124 0.0
C2559 C 0.86967 0.38979 0.29052 0.0
C2560 C 0.89344 0.42128 0.31784 0.0
C2561 C 0.87578 0.42463 0.32388 0.0
C2562 C 0.85499 0.4102 0.31322 0.0
C2563 C 0.85199 0.39303 0.29672 0.0
H2564 H 0.61404 0.50592 0.31416 0.0
H2565 H 0.59554 0.45345 0.25798 0.0
H2566 H 0.58438 0.48112 0.34281 0.0
H2567 H 0.56703 0.42804 0.28768 0.0
H2568 H 0.50357 0.3929 0.33534 0.0
H2569 H 0.53241 0.41773 0.30518 0.0
H2570 H 0.57425 0.45183 0.37157 0.0
H2571 H 0.54481 0.42765 0.40136 0.0
C2572 C 0.60339 0.4892 0.30765 0.0
C2573 C 0.60667 0.4819 0.2833 0.0
C2574 C 0.58668 0.47475 0.32445 0.0
C2575 C 0.5732 0.45247 0.31765 0.0
C2576 C 0.57672 0.44513 0.29342 0.0
C2577 C 0.59322 0.45968 0.27645 0.0
C2578 C 0.51904 0.40569 0.34327 0.0
C2579 C 0.52213 0.40856 0.37046 0.0
C2580 C 0.53561 0.41987 0.32609 0.0
C2581 C 0.55571 0.43696 0.33587 0.0
C2582 C 0.55886 0.43926 0.36326 0.0
C2583 C 0.54215 0.42531 0.38036 0.0
H2584 H 0.48983 0.09001 0.30019 0.0
H2585 H 0.54332 0.1556 0.28468 0.0
H2586 H 0.51268 0.08444 0.33171 0.0
H2587 H 0.56652 0.14967 0.31524 0.0
H2588 H 0.59664 0.13883 0.38908 0.0
H2589 H 0.57197 0.14517 0.36118 0.0
H2590 H 0.54411 0.07917 0.33037 0.0
H2591 H 0.56859 0.07291 0.3586 0.0
C2592 C 0.50628 0.10341 0.30388 0.0
C2593 C 0.5146 0.12342 0.2903 0.0
C2594 C 0.51954 0.10007 0.32161 0.0
C2595 C 0.54145 0.1166 0.32598 0.0
C2596 C 0.54964 0.13671 0.31264 0.0
C2597 C 0.53638 0.14004 0.29497 0.0
C2598 C 0.58528 0.1258 0.37619 0.0
C2599 C 0.58448 0.10545 0.37579 0.0
C2600 C 0.57117 0.12938 0.36024 0.0
C2601 C 0.55602 0.11265 0.34357 0.0
C2602 C 0.55529 0.09227 0.34329 0.0
C2603 C 0.56937 0.08871 0.35928 0.0
H2604 H 0.78897 0.52004 0.77986 0.0
H2605 H 0.82893 0.58706 0.806 0.0
H2606 H 0.75971 0.51522 0.80983 0.0
H2607 H 0.80012 0.58226 0.83661 0.0
H2608 H 0.73644 0.57432 0.86827 0.0
H2609 H 0.76451 0.57836 0.83733 0.0
H2610 H 0.75025 0.51231 0.8551 0.0
H2611 H 0.72116 0.5078 0.88474 0.0
C2612 C 0.79151 0.53362 0.79232 0.0
C2613 C 0.81099 0.55393 0.79064 0.0
C2614 C 0.77483 0.5309 0.80952 0.0
C2615 C 0.77748 0.5484 0.82556 0.0
C2616 C 0.7973 0.56859 0.82416 0.0
C2617 C 0.81385 0.57132 0.80681 0.0
C2618 C 0.73877 0.56042 0.86502 0.0
C2619 C 0.72609 0.54052 0.87848 0.0
C2620 C 0.75525 0.56289 0.84765 0.0
C2621 C 0.75967 0.54565 0.84365 0.0
C2622 C 0.74708 0.52582 0.85731 0.0
C2623 C 0.73051 0.5233 0.8745 0.0
H2624 H 0.46778 0.17724 0.84406 0.0
H2625 H 0.45069 0.2064 0.90782 0.0
H2626 H 0.4629 0.20089 0.81282 0.0
H2627 H 0.44614 0.2303 0.87666 0.0
H2628 H 0.47711 0.26554 0.77132 0.0
H2629 H 0.48185 0.24165 0.80264 0.0
H2630 H 0.42046 0.22612 0.83975 0.0
H2631 H 0.4159 0.25004 0.80848 0.0
C2632 C 0.46259 0.1884 0.85133 0.0
C2633 C 0.45914 0.18968 0.87827 0.0
C2634 C 0.46014 0.20218 0.83351 0.0
C2635 C 0.4541 0.21738 0.84234 0.0
C2636 C 0.45059 0.21857 0.8693 0.0
C2637 C 0.45327 0.20498 0.8871 0.0
C2638 C 0.46479 0.25708 0.78634 0.0
C2639 C 0.4462 0.25952 0.78772 0.0
C2640 C 0.46737 0.24332 0.80406 0.0
C2641 C 0.45148 0.23201 0.82355 0.0
C2642 C 0.43303 0.23477 0.82505 0.0
C2643 C 0.43038 0.24834 0.8072 0.0
H2644 H 0.83717 0.26159 0.86898 0.0
H2645 H 0.78536 0.27697 0.88016 0.0
H2646 H 0.81501 0.23432 0.83616 0.0
H2647 H 0.76255 0.24856 0.84888 0.0
H2648 H 0.73409 0.21059 0.77346 0.0
H2649 H 0.75801 0.23976 0.80385 0.0
H2650 H 0.78375 0.19902 0.83232 0.0
H2651 H 0.76041 0.17039 0.80107 0.0
C2652 C 0.82124 0.25947 0.8642 0.0
C2653 C 0.81335 0.27198 0.87673 0.0
C2654 C 0.80828 0.24343 0.84573 0.0
C2655 C 0.78696 0.23924 0.83973 0.0
C2656 C 0.77903 0.2516 0.85252 0.0
C2657 C 0.79206 0.26777 0.87072 0.0
C2658 C 0.7449 0.20801 0.7863 0.0
C2659 C 0.74553 0.1884 0.78509 0.0
C2660 C 0.75854 0.22462 0.80378 0.0
C2661 C 0.77285 0.22178 0.82062 0.0
C2662 C 0.77329 0.20198 0.81935 0.0
C2663 C 0.75984 0.18551 0.80163 0.0
H2664 H 0.44921 0.17183 0.31954 0.0
H2665 H 0.42967 0.20049 0.25768 0.0
H2666 H 0.45509 0.2017 0.34885 0.0
H2667 H 0.4339 0.22955 0.28745 0.0
H2668 H 0.46557 0.29084 0.33989 0.0
H2669 H 0.45983 0.26162 0.30941 0.0
H2670 H 0.43608 0.21491 0.37348 0.0
H2671 H 0.4427 0.24438 0.40386 0.0
C2672 C 0.44615 0.18455 0.31226 0.0
C2673 C 0.439 0.18388 0.28639 0.0
C2674 C 0.44918 0.20151 0.32916 0.0
C2675 C 0.44478 0.21803 0.32067 0.0
C2676 C 0.43768 0.21732 0.29465 0.0
C2677 C 0.43497 0.20051 0.27766 0.0
C2678 C 0.45875 0.27424 0.34726 0.0
C2679 C 0.45434 0.26976 0.37411 0.0
C2680 C 0.4555 0.25746 0.32984 0.0
C2681 C 0.44757 0.23583 0.33893 0.0
C2682 C 0.44267 0.2314 0.3658 0.0
C2683 C 0.44626 0.24822 0.3832 0.0
H2684 H 0.7884 0.26137 0.27268 0.0
H2685 H 0.82927 0.23972 0.31031 0.0
H2686 H 0.75731 0.23611 0.29999 0.0
H2687 H 0.79848 0.21479 0.33818 0.0
H2688 H 0.73418 0.15794 0.36708 0.0
H2689 H 0.76348 0.18146 0.33693 0.0
H2690 H 0.74514 0.23148 0.34467 0.0
H2691 H 0.71513 0.20748 0.37362 0.0
C2692 C 0.79069 0.25129 0.28703 0.0
C2693 C 0.81108 0.2524 0.28957 0.0
C2694 C 0.77297 0.23687 0.30269 0.0
C2695 C 0.77538 0.22338 0.32127 0.0
C2696 C 0.79592 0.22464 0.32377 0.0
C2697 C 0.81359 0.23899 0.30801 0.0
C2698 C 0.73594 0.17364 0.36174 0.0
C2699 C 0.72198 0.18061 0.37231 0.0
C2700 C 0.75304 0.18734 0.34483 0.0
C2701 C 0.75668 0.20838 0.33835 0.0
C2702 C 0.74262 0.21526 0.34887 0.0
C2703 C 0.72552 0.20156 0.36565 0.0
H2704 H 0.78473 0.51025 0.38027 0.0
H2705 H 0.83714 0.5769 0.36747 0.0
H2706 H 0.76117 0.51643 0.35065 0.0
H2707 H 0.81403 0.58269 0.33667 0.0
H2708 H 0.75863 0.59336 0.30696 0.0
H2709 H 0.78238 0.58714 0.33655 0.0
H2710 H 0.75593 0.52141 0.30531 0.0
H2711 H 0.73187 0.52766 0.27625 0.0
C2712 C 0.79135 0.52614 0.37083 0.0
C2713 C 0.813 0.54292 0.37586 0.0
C2714 C 0.77789 0.52962 0.35366 0.0
C2715 C 0.78572 0.55001 0.34111 0.0
C2716 C 0.80741 0.56682 0.34611 0.0
C2717 C 0.82086 0.56335 0.36341 0.0
C2718 C 0.75798 0.57763 0.30652 0.0
C2719 C 0.74354 0.56098 0.28942 0.0
C2720 C 0.77165 0.57408 0.32331 0.0
C2721 C 0.77117 0.55381 0.32324 0.0
C2722 C 0.75653 0.53712 0.30614 0.0
C2723 C 0.74279 0.54066 0.28947 0.0
H2724 H 0.6169 0.11433 0.8149 0.0
H2725 H 0.59711 0.14746 0.75902 0.0
H2726 H 0.58767 0.10956 0.84418 0.0
H2727 H 0.56915 0.14454 0.78936 0.0
H2728 H 0.50623 0.11615 0.83778 0.0
H2729 H 0.53496 0.12045 0.80732 0.0
H2730 H 0.57721 0.12815 0.87323 0.0
H2731 H 0.54781 0.1225 0.90334 0.0
C2732 C 0.60611 0.12025 0.80857 0.0
C2733 C 0.60892 0.13056 0.7841 0.0
C2734 C 0.58962 0.11805 0.82576 0.0
C2735 C 0.57589 0.12663 0.81924 0.0
C2736 C 0.579 0.13728 0.79492 0.0
C2737 C 0.59522 0.13914 0.77757 0.0
C2738 C 0.52178 0.11893 0.84554 0.0
C2739 C 0.52499 0.119 0.87269 0.0
C2740 C 0.5383 0.12148 0.82818 0.0
C2741 C 0.55849 0.12454 0.83771 0.0
C2742 C 0.56177 0.1253 0.86508 0.0
C2743 C 0.54509 0.12235 0.88237 0.0
H2744 H 0.89405 0.50312 0.81236 0.0
H2745 H 0.85004 0.44641 0.76587 0.0
H2746 H 0.90051 0.47948 0.84168 0.0
H2747 H 0.8555 0.4227 0.79642 0.0
H2748 H 0.85222 0.39296 0.88239 0.0
H2749 H 0.8471 0.41604 0.85024 0.0
H2750 H 0.91666 0.45055 0.83395 0.0
H2751 H 0.92163 0.42668 0.8649 0.0
C2752 C 0.88624 0.48578 0.80786 0.0
C2753 C 0.87216 0.47682 0.78609 0.0
C2754 C 0.88968 0.47221 0.82496 0.0
C2755 C 0.87856 0.44938 0.82112 0.0
C2756 C 0.86424 0.44031 0.79971 0.0
C2757 C 0.86118 0.4539 0.78227 0.0
C2758 C 0.86632 0.40519 0.87156 0.0
C2759 C 0.8873 0.408 0.87602 0.0
C2760 C 0.86341 0.41842 0.85335 0.0
C2761 C 0.88152 0.435 0.83979 0.0
C2762 C 0.90251 0.43793 0.84435 0.0
C2763 C 0.90533 0.42437 0.86208 0.0
H2764 H 0.49698 0.40601 0.79285 0.0
H2765 H 0.54718 0.38809 0.78433 0.0
H2766 H 0.51999 0.43432 0.82449 0.0
H2767 H 0.57055 0.41697 0.81508 0.0
H2768 H 0.59827 0.45733 0.89038 0.0
H2769 H 0.57393 0.42724 0.86109 0.0
H2770 H 0.55368 0.46972 0.82418 0.0
H2771 H 0.57784 0.49956 0.85372 0.0
C2772 C 0.51272 0.40781 0.79806 0.0
C2773 C 0.52007 0.3945 0.78644 0.0
C2774 C 0.5261 0.42431 0.81587 0.0
C2775 C 0.54713 0.42792 0.82232 0.0
C2776 C 0.55435 0.41445 0.81084 0.0
C2777 C 0.54101 0.39801 0.79306 0.0
C2778 C 0.58869 0.46016 0.87583 0.0
C2779 C 0.58987 0.48065 0.87414 0.0
C2780 C 0.57477 0.443 0.85909 0.0
C2781 C 0.56178 0.44604 0.84036 0.0
C2782 C 0.56315 0.46668 0.83867 0.0
C2783 C 0.57706 0.4838 0.85541 0.0
H2784 H 0.59474 0.82986 0.6941 0.0
H2785 H 0.52656 0.79418 0.71702 0.0
H2786 H 0.58882 0.79974 0.66497 0.0
H2787 H 0.52056 0.76373 0.68839 0.0
H2788 H 0.51289 0.72575 0.61244 0.0
H2789 H 0.51867 0.75491 0.64276 0.0
H2790 H 0.58152 0.76255 0.66491 0.0
H2791 H 0.57627 0.73426 0.63344 0.0
C2792 C 0.57853 0.81543 0.69299 0.0
C2793 C 0.56108 0.81424 0.70767 0.0
C2794 C 0.57513 0.79813 0.67646 0.0
C2795 C 0.55422 0.77925 0.67438 0.0
C2796 C 0.53679 0.77814 0.68921 0.0
C2797 C 0.54019 0.79552 0.70562 0.0
C2798 C 0.52792 0.73359 0.62385 0.0
C2799 C 0.54392 0.72734 0.62084 0.0
C2800 C 0.53115 0.7502 0.64142 0.0
C2801 C 0.55051 0.76102 0.65641 0.0
C2802 C 0.56646 0.75465 0.65355 0.0
C2803 C 0.56326 0.73808 0.63584 0.0
H2804 H 0.27884 0.79154 0.62166 0.0
H2805 H 0.2638 0.84368 0.63189 0.0
H2806 H 0.24838 0.76792 0.65025 0.0
H2807 H 0.23402 0.82044 0.66167 0.0
H2808 H 0.16649 0.76335 0.68663 0.0
H2809 H 0.19794 0.78828 0.65955 0.0
H2810 H 0.23654 0.76271 0.69506 0.0
H2811 H 0.20485 0.73753 0.72154 0.0
C2812 C 0.26925 0.7981 0.63038 0.0
C2813 C 0.27403 0.81965 0.62484 0.0
C2814 C 0.25188 0.78461 0.64695 0.0
C2815 C 0.2388 0.79231 0.65838 0.0
C2816 C 0.2437 0.81396 0.65306 0.0
C2817 C 0.26108 0.82746 0.63636 0.0
C2818 C 0.18177 0.76318 0.68853 0.0
C2819 C 0.18338 0.74858 0.70595 0.0
C2820 C 0.1998 0.77751 0.67323 0.0
C2821 C 0.21979 0.77753 0.67516 0.0
C2822 C 0.22131 0.76291 0.69279 0.0
C2823 C 0.20324 0.74852 0.70797 0.0
H2824 H 0.1662 0.42878 0.62672 0.0
H2825 H 0.21576 0.49721 0.61874 0.0
H2826 H 0.18982 0.42344 0.65734 0.0
H2827 H 0.23973 0.49169 0.64855 0.0
H2828 H 0.26796 0.47793 0.72317 0.0
H2829 H 0.24356 0.4841 0.69445 0.0
H2830 H 0.22389 0.42231 0.6554 0.0
H2831 H 0.24815 0.41624 0.68431 0.0
C2832 C 0.18193 0.44278 0.63186 0.0
C2833 C 0.18892 0.46352 0.62068 0.0
C2834 C 0.19565 0.43964 0.64907 0.0
C2835 C 0.21669 0.45714 0.65537 0.0
C2836 C 0.22354 0.47793 0.64438 0.0
C2837 C 0.20985 0.48105 0.62716 0.0
C2838 C 0.25856 0.46587 0.70821 0.0
C2839 C 0.25989 0.44668 0.70577 0.0
C2840 C 0.24458 0.46933 0.69182 0.0
C2841 C 0.23167 0.45362 0.67274 0.0
C2842 C 0.23329 0.43454 0.67019 0.0
C2843 C 0.24727 0.43113 0.68655 0.0
H2844 H 0.49952 0.92211 0.13942 0.0
H2845 H 0.45772 0.85841 0.10484 0.0
H2846 H 0.47012 0.91621 0.1698 0.0
H2847 H 0.4281 0.85244 0.13494 0.0
H2848 H 0.39082 0.84019 0.21286 0.0
H2849 H 0.41938 0.84618 0.18141 0.0
H2850 H 0.43412 0.91324 0.17064 0.0
H2851 H 0.40619 0.9075 0.20297 0.0
C2852 C 0.48394 0.90689 0.13833 0.0
C2853 C 0.48078 0.89066 0.11999 0.0
C2854 C 0.46708 0.90354 0.15555 0.0
C2855 C 0.44674 0.88388 0.15474 0.0
C2856 C 0.44366 0.86765 0.13629 0.0
C2857 C 0.46054 0.87103 0.11907 0.0
C2858 C 0.40011 0.8562 0.20369 0.0
C2859 C 0.39595 0.87325 0.21006 0.0
C2860 C 0.41636 0.85957 0.18551 0.0
C2861 C 0.42896 0.88015 0.1734 0.0
C2862 C 0.42477 0.89721 0.17972 0.0
C2863 C 0.40847 0.89382 0.19793 0.0
H2864 H 0.10794 0.60522 0.15161 0.0
H2865 H 0.12392 0.57581 0.08734 0.0
H2866 H 0.11132 0.58038 0.1824 0.0
H2867 H 0.12865 0.55173 0.11798 0.0
H2868 H 0.11501 0.4971 0.17446 0.0
H2869 H 0.1098 0.521 0.1447 0.0
H2870 H 0.13601 0.57248 0.20331 0.0
H2871 H 0.13927 0.54782 0.23391 0.0
C2872 C 0.11255 0.5936 0.14426 0.0
C2873 C 0.11576 0.59231 0.11734 0.0
C2874 C 0.11461 0.57943 0.16182 0.0
C2875 C 0.12026 0.56393 0.15278 0.0
C2876 C 0.12383 0.56306 0.12569 0.0
C2877 C 0.12139 0.57698 0.10813 0.0
C2878 C 0.11888 0.51315 0.18146 0.0
C2879 C 0.12687 0.52016 0.20703 0.0
C2880 C 0.11643 0.52717 0.16404 0.0
C2881 C 0.12242 0.54877 0.17149 0.0
C2882 C 0.13073 0.55586 0.19695 0.0
C2883 C 0.13283 0.54173 0.21447 0.0
H2884 H 0.39948 0.54085 0.10769 0.0
H2885 H 0.42569 0.50155 0.13875 0.0
H2886 H 0.42382 0.57122 0.1365 0.0
H2887 H 0.44979 0.53164 0.16806 0.0
H2888 H 0.50435 0.59655 0.19986 0.0
H2889 H 0.48163 0.56793 0.16845 0.0
H2890 H 0.42848 0.58095 0.18205 0.0
H2891 H 0.45158 0.61029 0.21231 0.0
C2892 C 0.41038 0.53873 0.12089 0.0
C2893 C 0.41083 0.51901 0.12108 0.0
C2894 C 0.42428 0.55605 0.13741 0.0
C2895 C 0.43881 0.55391 0.15459 0.0
C2896 C 0.43912 0.53402 0.15477 0.0
C2897 C 0.42527 0.51675 0.13814 0.0
C2898 C 0.48808 0.59378 0.19559 0.0
C2899 C 0.47998 0.60608 0.20818 0.0
C2900 C 0.47487 0.57705 0.17793 0.0
C2901 C 0.45321 0.57214 0.17266 0.0
C2902 C 0.44518 0.5845 0.18526 0.0
C2903 C 0.45838 0.60122 0.20281 0.0
H2904 H 0.14253 0.59819 0.73117 0.0
H2905 H 0.11124 0.61886 0.67375 0.0
H2906 H 0.13876 0.56936 0.70167 0.0
H2907 H 0.10568 0.58885 0.64523 0.0
H2908 H 0.11864 0.54736 0.58784 0.0
H2909 H 0.12404 0.5772 0.61715 0.0
H2910 H 0.11363 0.53513 0.68415 0.0
H2911 H 0.10948 0.50589 0.65456 0.0
C2912 C 0.13446 0.59634 0.71244 0.0
C2913 C 0.12663 0.61053 0.70524 0.0
C2914 C 0.13209 0.57962 0.69558 0.0
C2915 C 0.12169 0.57651 0.67108 0.0
C2916 C 0.11391 0.59077 0.66384 0.0
C2917 C 0.1166 0.60773 0.68057 0.0
C2918 C 0.11773 0.54473 0.60888 0.0
C2919 C 0.11377 0.52456 0.61913 0.0
C2920 C 0.12058 0.56167 0.6257 0.0
C2921 C 0.11915 0.55862 0.65312 0.0
C2922 C 0.11522 0.53828 0.66323 0.0
C2923 C 0.11273 0.52148 0.64637 0.0
H2924 H 0.4227 0.53474 0.74192 0.0
H2925 H 0.37597 0.50929 0.67826 0.0
H2926 H 0.45144 0.55879 0.7114 0.0
H2927 H 0.40436 0.53384 0.64769 0.0
H2928 H 0.46515 0.56495 0.59559 0.0
H2929 H 0.43637 0.54051 0.62571 0.0
H2930 H 0.46391 0.59063 0.68594 0.0
H2931 H 0.49362 0.61435 0.65619 0.0
C2932 C 0.41864 0.53432 0.72132 0.0
C2933 C 0.39729 0.51986 0.71231 0.0
C2934 C 0.43503 0.54825 0.70383 0.0
C2935 C 0.43031 0.54838 0.67698 0.0
C2936 C 0.40879 0.53391 0.66808 0.0
C2937 C 0.39249 0.51974 0.68555 0.0
C2938 C 0.46512 0.57061 0.61538 0.0
C2939 C 0.48172 0.59143 0.62368 0.0
C2940 C 0.44844 0.55672 0.63257 0.0
C2941 C 0.44776 0.56347 0.6584 0.0
C2942 C 0.46409 0.58464 0.6664 0.0
C2943 C 0.48096 0.5984 0.64927 0.0
H2944 H 0.43195 0.89461 0.59388 0.0
H2945 H 0.3947 0.89457 0.66109 0.0
H2946 H 0.45631 0.88855 0.6225 0.0
H2947 H 0.41952 0.88944 0.69014 0.0
H2948 H 0.45385 0.8573 0.7316 0.0
H2949 H 0.42952 0.86352 0.70343 0.0
H2950 H 0.48461 0.90551 0.65367 0.0
H2951 H 0.50852 0.89788 0.68078 0.0
C2952 C 0.42914 0.89342 0.61489 0.0
C2953 C 0.41153 0.89497 0.62541 0.0
C2954 C 0.44317 0.89015 0.63135 0.0
C2955 C 0.44003 0.88863 0.65874 0.0
C2956 C 0.42229 0.8902 0.66916 0.0
C2957 C 0.40811 0.89322 0.65261 0.0
C2958 C 0.46077 0.86793 0.71468 0.0
C2959 C 0.48327 0.87754 0.70887 0.0
C2960 C 0.44684 0.87166 0.69862 0.0
C2961 C 0.45505 0.88516 0.67629 0.0
C2962 C 0.47761 0.89488 0.67056 0.0
C2963 C 0.4915 0.89093 0.6865 0.0
H2964 H 0.20714 0.44487 0.2364 0.0
H2965 H 0.16571 0.43728 0.17016 0.0
H2966 H 0.23682 0.45057 0.20672 0.0
H2967 H 0.19488 0.44192 0.14015 0.0
H2968 H 0.25905 0.47403 0.09425 0.0
H2969 H 0.22939 0.46824 0.12366 0.0
H2970 H 0.24845 0.43288 0.17717 0.0
H2971 H 0.27913 0.44023 0.14869 0.0
C2972 C 0.20445 0.4443 0.21538 0.0
C2973 C 0.18435 0.44076 0.20539 0.0
C2974 C 0.22132 0.44735 0.19835 0.0
C2975 C 0.2183 0.44662 0.17094 0.0
C2976 C 0.19799 0.44296 0.16108 0.0
C2977 C 0.18123 0.4402 0.17817 0.0
C2978 C 0.25686 0.46496 0.11228 0.0
C2979 C 0.27112 0.45707 0.11874 0.0
C2980 C 0.2397 0.46146 0.12907 0.0
C2981 C 0.23631 0.44991 0.15277 0.0
C2982 C 0.25059 0.44197 0.15919 0.0
C2983 C 0.26793 0.44573 0.14252 0.0
H2984 H 0.5828 0.75334 0.18667 0.0
H2985 H 0.5201 0.73465 0.22188 0.0
H2986 H 0.57799 0.77734 0.15592 0.0
H2987 H 0.51526 0.75896 0.1915 0.0
H2988 H 0.50469 0.78703 0.11511 0.0
H2989 H 0.50904 0.76276 0.1456 0.0
H2990 H 0.57757 0.81151 0.15547 0.0
H2991 H 0.57345 0.8353 0.12398 0.0
C2992 C 0.56798 0.75445 0.18773 0.0
C2993 C 0.5518 0.74228 0.20648 0.0
C2994 C 0.56528 0.76827 0.17032 0.0
C2995 C 0.54631 0.77022 0.17138 0.0
C2996 C 0.52996 0.75769 0.18998 0.0
C2997 C 0.53268 0.74381 0.20737 0.0
C2998 C 0.52069 0.79259 0.12384 0.0
C2999 C 0.53863 0.81329 0.11746 0.0
C3000 C 0.52313 0.77874 0.14148 0.0
C3001 C 0.54362 0.78521 0.15309 0.0
C3002 C 0.56158 0.80595 0.14675 0.0
C3003 C 0.55913 0.81981 0.12904 0.0
H3004 H 0.2438 0.7852 0.23916 0.0
H3005 H 0.27418 0.83172 0.17617 0.0
H3006 H 0.22034 0.75688 0.20761 0.0
H3007 H 0.24994 0.80407 0.14449 0.0
H3008 H 0.21853 0.7448 0.09119 0.0
H3009 H 0.24251 0.7721 0.12278 0.0
H3010 H 0.19014 0.74516 0.18013 0.0
H3011 H 0.16694 0.71661 0.14937 0.0
C3012 C 0.2453 0.78926 0.21845 0.0
C3013 C 0.26073 0.81039 0.20986 0.0
C3014 C 0.23174 0.77319 0.20037 0.0
C3015 C 0.23306 0.77811 0.17337 0.0
C3016 C 0.24864 0.79945 0.16497 0.0
C3017 C 0.26247 0.81536 0.18305 0.0
C3018 C 0.21209 0.74465 0.11056 0.0
C3019 C 0.19048 0.72873 0.11733 0.0
C3020 C 0.22583 0.76053 0.12866 0.0
C3021 C 0.21831 0.76111 0.15407 0.0
C3022 C 0.19666 0.74521 0.16086 0.0
C3023 C 0.18303 0.72906 0.14285 0.0
loop_
_geom_bond_atom_site_label_1
_geom_bond_atom_site_label_2
_geom_bond_distance
_geom_bond_site_symmetry_2
_ccdc_geom_bond_type
Co0 O3 1.970 . S
Co0 N17 1.989 . S
Co0 O25 1.967 . S
Co0 O32 1.920 . S
Co1 O4 1.966 . S
Co1 N10 2.022 . S
Co1 N18 1.993 . S
Co1 O26 1.941 . S
C2 O3 1.258 . S
C2 O4 1.263 . S
O3 Co0 1.970 . S
O3 C2 1.258 . S
O4 Co1 1.966 . S
O4 C2 1.263 . S
C5 O6 1.235 . S
C5 O32 1.289 . S
O6 C5 1.235 . S
C7 C9 1.400 . S
C7 N10 1.351 . S
C7 C12 1.501 . S
C8 C9 1.387 . S
C8 N11 1.341 . S
C9 C7 1.400 . S
C9 C8 1.387 . S
N10 Co1 2.022 . S
N10 C7 1.351 . S
N10 N11 1.365 . S
N11 C8 1.341 . S
N11 N10 1.365 . S
N11 H31 0.862 . S
C12 C7 1.501 . S
C12 H13 0.961 . S
C12 H14 0.961 . S
C12 H15 0.960 . S
H13 C12 0.961 . S
H14 C12 0.961 . S
H15 C12 0.960 . S
C16 N17 1.342 . S
C16 C20 1.401 . S
C16 C21 1.499 . S
N17 Co0 1.989 . S
N17 C16 1.342 . S
N17 N18 1.388 . S
N18 Co1 1.993 . S
N18 N17 1.388 . S
N18 C19 1.346 . S
C19 N18 1.346 . S
C19 C20 1.396 . S
C19 C29 1.510 . S
C20 C16 1.401 . S
C20 C19 1.396 . S
C21 C16 1.499 . S
C21 H22 0.959 . S
C21 H23 0.960 . S
C21 H24 0.961 . S
H22 C21 0.959 . S
H23 C21 0.960 . S
H24 C21 0.961 . S
O25 Co0 1.967 . S
O25 C33 1.258 . S
O26 Co1 1.941 . S
O26 C33 1.266 . S
H27 C29 0.959 . S
H28 C29 0.961 . S
C29 C19 1.510 . S
C29 H27 0.959 . S
C29 H28 0.961 . S
C29 H30 0.960 . S
H30 C29 0.960 . S
H31 N11 0.862 . S
O32 Co0 1.920 . S
O32 C5 1.289 . S
C33 O25 1.258 . S
C33 O26 1.266 . S
Co34 O37 1.970 . S
Co34 N51 1.989 . S
Co34 O59 1.967 . S
Co34 O66 1.920 . S
Co35 O38 1.966 . S
Co35 N44 2.022 1_545 S
Co35 N52 1.993 . S
Co35 O60 1.941 . S
C36 O37 1.258 . S
C36 O38 1.263 . S
O37 Co34 1.970 . S
O37 C36 1.258 . S
O38 Co35 1.966 . S
O38 C36 1.263 . S
C39 O40 1.235 . S
C39 O66 1.289 . S
O40 C39 1.235 . S
C41 C43 1.400 . S
C41 N44 1.351 . S
C41 C46 1.501 . S
C42 C43 1.387 . S
C42 N45 1.341 . S
C43 C41 1.400 . S
C43 C42 1.387 . S
N44 Co35 2.022 1_565 S
N44 C41 1.351 . S
N44 N45 1.365 . S
N45 C42 1.341 . S
N45 N44 1.365 . S
N45 H65 0.862 . S
C46 C41 1.501 . S
C46 H47 0.961 . S
C46 H48 0.961 . S
C46 H49 0.960 . S
H47 C46 0.961 . S
H48 C46 0.961 . S
H49 C46 0.960 . S
C50 N51 1.342 . S
C50 C54 1.401 . S
C50 C55 1.499 . S
N51 Co34 1.989 . S
N51 C50 1.342 . S
N51 N52 1.388 . S
N52 Co35 1.993 . S
N52 N51 1.388 . S
N52 C53 1.346 . S
C53 N52 1.346 . S
C53 C54 1.396 . S
C53 C63 1.510 . S
C54 C50 1.401 . S
C54 C53 1.396 . S
C55 C50 1.499 . S
C55 H56 0.959 . S
C55 H57 0.960 . S
C55 H58 0.961 . S
H56 C55 0.959 . S
H57 C55 0.960 . S
H58 C55 0.961 . S
O59 Co34 1.967 . S
O59 C67 1.258 . S
O60 Co35 1.941 . S
O60 C67 1.266 . S
H61 C63 0.959 . S
H62 C63 0.961 . S
C63 C53 1.510 . S
C63 H61 0.959 . S
C63 H62 0.961 . S
C63 H64 0.960 . S
H64 C63 0.960 . S
H65 N45 0.862 . S
O66 Co34 1.920 . S
O66 C39 1.289 . S
C67 O59 1.258 . S
C67 O60 1.266 . S
Co68 O71 1.970 . S
Co68 N85 1.989 . S
Co68 O93 1.967 . S
Co68 O100 1.920 . S
Co69 O72 1.966 . S
Co69 N78 2.022 1_655 S
Co69 N86 1.993 . S
Co69 O94 1.941 . S
C70 O71 1.258 . S
C70 O72 1.263 . S
O71 Co68 1.970 . S
O71 C70 1.258 . S
O72 Co69 1.966 . S
O72 C70 1.263 . S
C73 O74 1.235 . S
C73 O100 1.289 . S
O74 C73 1.235 . S
C75 C77 1.400 . S
C75 N78 1.351 . S
C75 C80 1.501 . S
C76 C77 1.387 . S
C76 N79 1.341 . S
C77 C75 1.400 . S
C77 C76 1.387 . S
N78 Co69 2.022 1_455 S
N78 C75 1.351 . S
N78 N79 1.365 . S
N79 C76 1.341 . S
N79 N78 1.365 . S
N79 H99 0.862 . S
C80 C75 1.501 . S
C80 H81 0.961 . S
C80 H82 0.961 . S
C80 H83 0.960 . S
H81 C80 0.961 . S
H82 C80 0.961 . S
H83 C80 0.960 . S
C84 N85 1.342 . S
C84 C88 1.401 . S
C84 C89 1.499 . S
N85 Co68 1.989 . S
N85 C84 1.342 . S
N85 N86 1.388 . S
N86 Co69 1.993 . S
N86 N85 1.388 . S
N86 C87 1.346 . S
C87 N86 1.346 . S
C87 C88 1.396 . S
C87 C97 1.510 . S
C88 C84 1.401 . S
C88 C87 1.396 . S
C89 C84 1.499 . S
C89 H90 0.959 . S
C89 H91 0.960 . S
C89 H92 0.961 . S
H90 C89 0.959 . S
H91 C89 0.960 . S
H92 C89 0.961 . S
O93 Co68 1.967 . S
O93 C101 1.258 . S
O94 Co69 1.941 . S
O94 C101 1.266 . S
H95 C97 0.959 . S
H96 C97 0.961 . S
C97 C87 1.510 . S
C97 H95 0.959 . S
C97 H96 0.961 . S
C97 H98 0.960 . S
H98 C97 0.960 . S
H99 N79 0.862 . S
O100 Co68 1.920 . S
O100 C73 1.289 . S
C101 O93 1.258 . S
C101 O94 1.266 . S
Co102 O105 1.970 . S
Co102 N119 1.989 . S
Co102 O127 1.967 . S
Co102 O134 1.920 . S
Co103 O106 1.966 . S
Co103 N112 2.022 . S
Co103 N120 1.993 . S
Co103 O128 1.941 . S
C104 O105 1.258 . S
C104 O106 1.263 . S
O105 Co102 1.970 . S
O105 C104 1.258 . S
O106 Co103 1.966 . S
O106 C104 1.263 . S
C107 O108 1.235 . S
C107 O134 1.289 . S
O108 C107 1.235 . S
C109 C111 1.400 . S
C109 N112 1.351 . S
C109 C114 1.501 . S
C110 C111 1.387 . S
C110 N113 1.341 . S
C111 C109 1.400 . S
C111 C110 1.387 . S
N112 Co103 2.022 . S
N112 C109 1.351 . S
N112 N113 1.365 . S
N113 C110 1.341 . S
N113 N112 1.365 . S
N113 H133 0.862 . S
C114 C109 1.501 . S
C114 H115 0.961 . S
C114 H116 0.961 . S
C114 H117 0.960 . S
H115 C114 0.961 . S
H116 C114 0.961 . S
H117 C114 0.960 . S
C118 N119 1.342 . S
C118 C122 1.401 . S
C118 C123 1.499 . S
N119 Co102 1.989 . S
N119 C118 1.342 . S
N119 N120 1.388 . S
N120 Co103 1.993 . S
N120 N119 1.388 . S
N120 C121 1.346 . S
C121 N120 1.346 . S
C121 C122 1.396 . S
C121 C131 1.510 . S
C122 C118 1.401 . S
C122 C121 1.396 . S
C123 C118 1.499 . S
C123 H124 0.959 . S
C123 H125 0.960 . S
C123 H126 0.961 . S
H124 C123 0.959 . S
H125 C123 0.960 . S
H126 C123 0.961 . S
O127 Co102 1.967 . S
O127 C135 1.258 . S
O128 Co103 1.941 . S
O128 C135 1.266 . S
H129 C131 0.959 . S
H130 C131 0.961 . S
C131 C121 1.510 . S
C131 H129 0.959 . S
C131 H130 0.961 . S
C131 H132 0.960 . S
H132 C131 0.960 . S
H133 N113 0.862 . S
O134 Co102 1.920 . S
O134 C107 1.289 . S
C135 O127 1.258 . S
C135 O128 1.266 . S
Co136 O139 1.970 . S
Co136 N153 1.989 . S
Co136 O161 1.967 . S
Co136 O168 1.920 . S
Co137 O140 1.966 . S
Co137 N146 2.022 1_565 S
Co137 N154 1.993 . S
Co137 O162 1.941 . S
C138 O139 1.258 . S
C138 O140 1.263 . S
O139 Co136 1.970 . S
O139 C138 1.258 . S
O140 Co137 1.966 . S
O140 C138 1.263 . S
C141 O142 1.235 . S
C141 O168 1.289 . S
O142 C141 1.235 . S
C143 C145 1.400 . S
C143 N146 1.351 . S
C143 C148 1.501 . S
C144 C145 1.387 . S
C144 N147 1.341 . S
C145 C143 1.400 . S
C145 C144 1.387 . S
N146 Co137 2.022 1_545 S
N146 C143 1.351 . S
N146 N147 1.365 . S
N147 C144 1.341 . S
N147 N146 1.365 . S
N147 H167 0.862 . S
C148 C143 1.501 . S
C148 H149 0.961 . S
C148 H150 0.961 . S
C148 H151 0.960 . S
H149 C148 0.961 . S
H150 C148 0.961 . S
H151 C148 0.960 . S
C152 N153 1.342 . S
C152 C156 1.401 . S
C152 C157 1.499 . S
N153 Co136 1.989 . S
N153 C152 1.342 . S
N153 N154 1.388 . S
N154 Co137 1.993 . S
N154 N153 1.388 . S
N154 C155 1.346 . S
C155 N154 1.346 . S
C155 C156 1.396 . S
C155 C165 1.510 . S
C156 C152 1.401 . S
C156 C155 1.396 . S
C157 C152 1.499 . S
C157 H158 0.959 . S
C157 H159 0.960 . S
C157 H160 0.961 . S
H158 C157 0.959 . S
H159 C157 0.960 . S
H160 C157 0.961 . S
O161 Co136 1.967 . S
O161 C169 1.258 . S
O162 Co137 1.941 . S
O162 C169 1.266 . S
H163 C165 0.959 . S
H164 C165 0.961 . S
C165 C155 1.510 . S
C165 H163 0.959 . S
C165 H164 0.961 . S
C165 H166 0.960 . S
H166 C165 0.960 . S
H167 N147 0.862 . S
O168 Co136 1.920 . S
O168 C141 1.289 . S
C169 O161 1.258 . S
C169 O162 1.266 . S
Co170 O173 1.970 . S
Co170 N187 1.989 . S
Co170 O195 1.967 . S
Co170 O202 1.920 . S
Co171 O174 1.966 . S
Co171 N180 2.022 1_455 S
Co171 N188 1.993 . S
Co171 O196 1.941 . S
C172 O173 1.258 . S
C172 O174 1.263 . S
O173 Co170 1.970 . S
O173 C172 1.258 . S
O174 Co171 1.966 . S
O174 C172 1.263 . S
C175 O176 1.235 . S
C175 O202 1.289 . S
O176 C175 1.235 . S
C177 C179 1.400 . S
C177 N180 1.351 . S
C177 C182 1.501 . S
C178 C179 1.387 . S
C178 N181 1.341 . S
C179 C177 1.400 . S
C179 C178 1.387 . S
N180 Co171 2.022 1_655 S
N180 C177 1.351 . S
N180 N181 1.365 . S
N181 C178 1.341 . S
N181 N180 1.365 . S
N181 H201 0.862 . S
C182 C177 1.501 . S
C182 H183 0.961 . S
C182 H184 0.961 . S
C182 H185 0.960 . S
H183 C182 0.961 . S
H184 C182 0.961 . S
H185 C182 0.960 . S
C186 N187 1.342 . S
C186 C190 1.401 . S
C186 C191 1.499 . S
N187 Co170 1.989 . S
N187 C186 1.342 . S
N187 N188 1.388 . S
N188 Co171 1.993 . S
N188 N187 1.388 . S
N188 C189 1.346 . S
C189 N188 1.346 . S
C189 C190 1.396 . S
C189 C199 1.510 . S
C190 C186 1.401 . S
C190 C189 1.396 . S
C191 C186 1.499 . S
C191 H192 0.959 . S
C191 H193 0.960 . S
C191 H194 0.961 . S
H192 C191 0.959 . S
H193 C191 0.960 . S
H194 C191 0.961 . S
O195 Co170 1.967 . S
O195 C203 1.258 . S
O196 Co171 1.941 . S
O196 C203 1.266 . S
H197 C199 0.959 . S
H198 C199 0.961 . S
C199 C189 1.510 . S
C199 H197 0.959 . S
C199 H198 0.961 . S
C199 H200 0.960 . S
H200 C199 0.960 . S
H201 N181 0.862 . S
O202 Co170 1.920 . S
O202 C175 1.289 . S
C203 O195 1.258 . S
C203 O196 1.266 . S
Co204 O207 1.970 . S
Co204 N221 1.989 . S
Co204 O229 1.967 . S
Co204 O236 1.920 . S
Co205 O208 1.966 . S
Co205 N214 2.022 . S
Co205 N222 1.993 . S
Co205 O230 1.941 . S
C206 O207 1.258 . S
C206 O208 1.263 . S
O207 Co204 1.970 . S
O207 C206 1.258 . S
O208 Co205 1.966 . S
O208 C206 1.263 . S
C209 O210 1.235 . S
C209 O236 1.289 . S
O210 C209 1.235 . S
C211 C213 1.400 . S
C211 N214 1.351 . S
C211 C216 1.501 . S
C212 C213 1.387 . S
C212 N215 1.341 . S
C213 C211 1.400 . S
C213 C212 1.387 . S
N214 Co205 2.022 . S
N214 C211 1.351 . S
N214 N215 1.365 . S
N215 C212 1.341 . S
N215 N214 1.365 . S
N215 H235 0.862 . S
C216 C211 1.501 . S
C216 H217 0.961 . S
C216 H218 0.961 . S
C216 H219 0.960 . S
H217 C216 0.961 . S
H218 C216 0.961 . S
H219 C216 0.960 . S
C220 N221 1.342 . S
C220 C224 1.401 . S
C220 C225 1.499 . S
N221 Co204 1.989 . S
N221 C220 1.342 . S
N221 N222 1.388 . S
N222 Co205 1.993 . S
N222 N221 1.388 . S
N222 C223 1.346 . S
C223 N222 1.346 . S
C223 C224 1.396 . S
C223 C233 1.510 . S
C224 C220 1.401 . S
C224 C223 1.396 . S
C225 C220 1.499 . S
C225 H226 0.959 . S
C225 H227 0.960 . S
C225 H228 0.961 . S
H226 C225 0.959 . S
H227 C225 0.960 . S
H228 C225 0.961 . S
O229 Co204 1.967 . S
O229 C237 1.258 . S
O230 Co205 1.941 . S
O230 C237 1.266 . S
H231 C233 0.959 . S
H232 C233 0.961 . S
C233 C223 1.510 . S
C233 H231 0.959 . S
C233 H232 0.961 . S
C233 H234 0.960 . S
H234 C233 0.960 . S
H235 N215 0.862 . S
O236 Co204 1.920 . S
O236 C209 1.289 . S
C237 O229 1.258 . S
C237 O230 1.266 . S
Co238 O241 1.970 . S
Co238 N255 1.989 . S
Co238 O263 1.967 . S
Co238 O270 1.920 . S
Co239 O242 1.966 . S
Co239 N248 2.022 1_565 S
Co239 N256 1.993 . S
Co239 O264 1.941 . S
C240 O241 1.258 . S
C240 O242 1.263 . S
O241 Co238 1.970 . S
O241 C240 1.258 . S
O242 Co239 1.966 . S
O242 C240 1.263 . S
C243 O244 1.235 . S
C243 O270 1.289 . S
O244 C243 1.235 . S
C245 C247 1.400 . S
C245 N248 1.351 . S
C245 C250 1.501 . S
C246 C247 1.387 . S
C246 N249 1.341 . S
C247 C245 1.400 . S
C247 C246 1.387 . S
N248 Co239 2.022 1_545 S
N248 C245 1.351 . S
N248 N249 1.365 . S
N249 C246 1.341 . S
N249 N248 1.365 . S
N249 H269 0.862 . S
C250 C245 1.501 . S
C250 H251 0.961 . S
C250 H252 0.961 . S
C250 H253 0.960 . S
H251 C250 0.961 . S
H252 C250 0.961 . S
H253 C250 0.960 . S
C254 N255 1.342 . S
C254 C258 1.401 . S
C254 C259 1.499 . S
N255 Co238 1.989 . S
N255 C254 1.342 . S
N255 N256 1.388 . S
N256 Co239 1.993 . S
N256 N255 1.388 . S
N256 C257 1.346 . S
C257 N256 1.346 . S
C257 C258 1.396 . S
C257 C267 1.510 . S
C258 C254 1.401 . S
C258 C257 1.396 . S
C259 C254 1.499 . S
C259 H260 0.959 . S
C259 H261 0.960 . S
C259 H262 0.961 . S
H260 C259 0.959 . S
H261 C259 0.960 . S
H262 C259 0.961 . S
O263 Co238 1.967 . S
O263 C271 1.258 . S
O264 Co239 1.941 . S
O264 C271 1.266 . S
H265 C267 0.959 . S
H266 C267 0.961 . S
C267 C257 1.510 . S
C267 H265 0.959 . S
C267 H266 0.961 . S
C267 H268 0.960 . S
H268 C267 0.960 . S
H269 N249 0.862 . S
O270 Co238 1.920 . S
O270 C243 1.289 . S
C271 O263 1.258 . S
C271 O264 1.266 . S
Co272 O275 1.970 . S
Co272 N289 1.989 . S
Co272 O297 1.967 . S
Co272 O304 1.920 . S
Co273 O276 1.966 . S
Co273 N282 2.022 1_455 S
Co273 N290 1.993 . S
Co273 O298 1.941 . S
C274 O275 1.258 . S
C274 O276 1.263 . S
O275 Co272 1.970 . S
O275 C274 1.258 . S
O276 Co273 1.966 . S
O276 C274 1.263 . S
C277 O278 1.235 . S
C277 O304 1.289 . S
O278 C277 1.235 . S
C279 C281 1.400 . S
C279 N282 1.351 . S
C279 C284 1.501 . S
C280 C281 1.387 . S
C280 N283 1.341 . S
C281 C279 1.400 . S
C281 C280 1.387 . S
N282 Co273 2.022 1_655 S
N282 C279 1.351 . S
N282 N283 1.365 . S
N283 C280 1.341 . S
N283 N282 1.365 . S
N283 H303 0.862 . S
C284 C279 1.501 . S
C284 H285 0.961 . S
C284 H286 0.961 . S
C284 H287 0.960 . S
H285 C284 0.961 . S
H286 C284 0.961 . S
H287 C284 0.960 . S
C288 N289 1.342 . S
C288 C292 1.401 . S
C288 C293 1.499 . S
N289 Co272 1.989 . S
N289 C288 1.342 . S
N289 N290 1.388 . S
N290 Co273 1.993 . S
N290 N289 1.388 . S
N290 C291 1.346 . S
C291 N290 1.346 . S
C291 C292 1.396 . S
C291 C301 1.510 . S
C292 C288 1.401 . S
C292 C291 1.396 . S
C293 C288 1.499 . S
C293 H294 0.959 . S
C293 H295 0.960 . S
C293 H296 0.961 . S
H294 C293 0.959 . S
H295 C293 0.960 . S
H296 C293 0.961 . S
O297 Co272 1.967 . S
O297 C305 1.258 . S
O298 Co273 1.941 . S
O298 C305 1.266 . S
H299 C301 0.959 . S
H300 C301 0.961 . S
C301 C291 1.510 . S
C301 H299 0.959 . S
C301 H300 0.961 . S
C301 H302 0.960 . S
H302 C301 0.960 . S
H303 N283 0.862 . S
O304 Co272 1.920 . S
O304 C277 1.289 . S
C305 O297 1.258 . S
C305 O298 1.266 . S
Co306 O309 1.970 . S
Co306 N323 1.989 . S
Co306 O331 1.967 . S
Co306 O338 1.920 . S
Co307 O310 1.966 . S
Co307 N316 2.022 . S
Co307 N324 1.993 . S
Co307 O332 1.941 . S
C308 O309 1.258 . S
C308 O310 1.263 . S
O309 Co306 1.970 . S
O309 C308 1.258 . S
O310 Co307 1.966 . S
O310 C308 1.263 . S
C311 O312 1.235 . S
C311 O338 1.289 . S
O312 C311 1.235 . S
C313 C315 1.400 . S
C313 N316 1.351 . S
C313 C318 1.501 . S
C314 C315 1.387 . S
C314 N317 1.341 . S
C315 C313 1.400 . S
C315 C314 1.387 . S
N316 Co307 2.022 . S
N316 C313 1.351 . S
N316 N317 1.365 . S
N317 C314 1.341 . S
N317 N316 1.365 . S
N317 H337 0.862 . S
C318 C313 1.501 . S
C318 H319 0.961 . S
C318 H320 0.961 . S
C318 H321 0.960 . S
H319 C318 0.961 . S
H320 C318 0.961 . S
H321 C318 0.960 . S
C322 N323 1.342 . S
C322 C326 1.401 . S
C322 C327 1.499 . S
N323 Co306 1.989 . S
N323 C322 1.342 . S
N323 N324 1.388 . S
N324 Co307 1.993 . S
N324 N323 1.388 . S
N324 C325 1.346 . S
C325 N324 1.346 . S
C325 C326 1.396 . S
C325 C335 1.510 . S
C326 C322 1.401 . S
C326 C325 1.396 . S
C327 C322 1.499 . S
C327 H328 0.959 . S
C327 H329 0.960 . S
C327 H330 0.961 . S
H328 C327 0.959 . S
H329 C327 0.960 . S
H330 C327 0.961 . S
O331 Co306 1.967 . S
O331 C339 1.258 . S
O332 Co307 1.941 . S
O332 C339 1.266 . S
H333 C335 0.959 . S
H334 C335 0.961 . S
C335 C325 1.510 . S
C335 H333 0.959 . S
C335 H334 0.961 . S
C335 H336 0.960 . S
H336 C335 0.960 . S
H337 N317 0.862 . S
O338 Co306 1.920 . S
O338 C311 1.289 . S
C339 O331 1.258 . S
C339 O332 1.266 . S
Co340 O343 1.970 . S
Co340 N357 1.989 . S
Co340 O365 1.967 . S
Co340 O372 1.920 . S
Co341 O344 1.966 . S
Co341 N350 2.022 1_545 S
Co341 N358 1.993 . S
Co341 O366 1.941 . S
C342 O343 1.258 . S
C342 O344 1.263 . S
O343 Co340 1.970 . S
O343 C342 1.258 . S
O344 Co341 1.966 . S
O344 C342 1.263 . S
C345 O346 1.235 . S
C345 O372 1.289 . S
O346 C345 1.235 . S
C347 C349 1.400 . S
C347 N350 1.351 . S
C347 C352 1.501 . S
C348 C349 1.387 . S
C348 N351 1.341 . S
C349 C347 1.400 . S
C349 C348 1.387 . S
N350 Co341 2.022 1_565 S
N350 C347 1.351 . S
N350 N351 1.365 . S
N351 C348 1.341 . S
N351 N350 1.365 . S
N351 H371 0.862 . S
C352 C347 1.501 . S
C352 H353 0.961 . S
C352 H354 0.961 . S
C352 H355 0.960 . S
H353 C352 0.961 . S
H354 C352 0.961 . S
H355 C352 0.960 . S
C356 N357 1.342 . S
C356 C360 1.401 . S
C356 C361 1.499 . S
N357 Co340 1.989 . S
N357 C356 1.342 . S
N357 N358 1.388 . S
N358 Co341 1.993 . S
N358 N357 1.388 . S
N358 C359 1.346 . S
C359 N358 1.346 . S
C359 C360 1.396 . S
C359 C369 1.510 . S
C360 C356 1.401 . S
C360 C359 1.396 . S
C361 C356 1.499 . S
C361 H362 0.959 . S
C361 H363 0.960 . S
C361 H364 0.961 . S
H362 C361 0.959 . S
H363 C361 0.960 . S
H364 C361 0.961 . S
O365 Co340 1.967 . S
O365 C373 1.258 . S
O366 Co341 1.941 . S
O366 C373 1.266 . S
H367 C369 0.959 . S
H368 C369 0.961 . S
C369 C359 1.510 . S
C369 H367 0.959 . S
C369 H368 0.961 . S
C369 H370 0.960 . S
H370 C369 0.960 . S
H371 N351 0.862 . S
O372 Co340 1.920 . S
O372 C345 1.289 . S
C373 O365 1.258 . S
C373 O366 1.266 . S
Co374 O377 1.970 . S
Co374 N391 1.989 . S
Co374 O399 1.967 . S
Co374 O406 1.920 . S
Co375 O378 1.966 . S
Co375 N384 2.022 1_655 S
Co375 N392 1.993 . S
Co375 O400 1.941 . S
C376 O377 1.258 . S
C376 O378 1.263 . S
O377 Co374 1.970 . S
O377 C376 1.258 . S
O378 Co375 1.966 . S
O378 C376 1.263 . S
C379 O380 1.235 . S
C379 O406 1.289 . S
O380 C379 1.235 . S
C381 C383 1.400 . S
C381 N384 1.351 . S
C381 C386 1.501 . S
C382 C383 1.387 . S
C382 N385 1.341 . S
C383 C381 1.400 . S
C383 C382 1.387 . S
N384 Co375 2.022 1_455 S
N384 C381 1.351 . S
N384 N385 1.365 . S
N385 C382 1.341 . S
N385 N384 1.365 . S
N385 H405 0.862 . S
C386 C381 1.501 . S
C386 H387 0.961 . S
C386 H388 0.961 . S
C386 H389 0.960 . S
H387 C386 0.961 . S
H388 C386 0.961 . S
H389 C386 0.960 . S
C390 N391 1.342 . S
C390 C394 1.401 . S
C390 C395 1.499 . S
N391 Co374 1.989 . S
N391 C390 1.342 . S
N391 N392 1.388 . S
N392 Co375 1.993 . S
N392 N391 1.388 . S
N392 C393 1.346 . S
C393 N392 1.346 . S
C393 C394 1.396 . S
C393 C403 1.510 . S
C394 C390 1.401 . S
C394 C393 1.396 . S
C395 C390 1.499 . S
C395 H396 0.959 . S
C395 H397 0.960 . S
C395 H398 0.961 . S
H396 C395 0.959 . S
H397 C395 0.960 . S
H398 C395 0.961 . S
O399 Co374 1.967 . S
O399 C407 1.258 . S
O400 Co375 1.941 . S
O400 C407 1.266 . S
H401 C403 0.959 . S
H402 C403 0.961 . S
C403 C393 1.510 . S
C403 H401 0.959 . S
C403 H402 0.961 . S
C403 H404 0.960 . S
H404 C403 0.960 . S
H405 N385 0.862 . S
O406 Co374 1.920 . S
O406 C379 1.289 . S
C407 O399 1.258 . S
C407 O400 1.266 . S
Co408 O411 1.970 . S
Co408 N425 1.989 . S
Co408 O433 1.967 . S
Co408 O440 1.920 . S
Co409 O412 1.966 . S
Co409 N418 2.022 . S
Co409 N426 1.993 . S
Co409 O434 1.941 . S
C410 O411 1.258 . S
C410 O412 1.263 . S
O411 Co408 1.970 . S
O411 C410 1.258 . S
O412 Co409 1.966 . S
O412 C410 1.263 . S
C413 O414 1.235 . S
C413 O440 1.289 . S
O414 C413 1.235 . S
C415 C417 1.400 . S
C415 N418 1.351 . S
C415 C420 1.501 . S
C416 C417 1.387 . S
C416 N419 1.341 . S
C417 C415 1.400 . S
C417 C416 1.387 . S
N418 Co409 2.022 . S
N418 C415 1.351 . S
N418 N419 1.365 . S
N419 C416 1.341 . S
N419 N418 1.365 . S
N419 H439 0.862 . S
C420 C415 1.501 . S
C420 H421 0.961 . S
C420 H422 0.961 . S
C420 H423 0.960 . S
H421 C420 0.961 . S
H422 C420 0.961 . S
H423 C420 0.960 . S
C424 N425 1.342 . S
C424 C428 1.401 . S
C424 C429 1.499 . S
N425 Co408 1.989 . S
N425 C424 1.342 . S
N425 N426 1.388 . S
N426 Co409 1.993 . S
N426 N425 1.388 . S
N426 C427 1.346 . S
C427 N426 1.346 . S
C427 C428 1.396 . S
C427 C437 1.510 . S
C428 C424 1.401 . S
C428 C427 1.396 . S
C429 C424 1.499 . S
C429 H430 0.959 . S
C429 H431 0.960 . S
C429 H432 0.961 . S
H430 C429 0.959 . S
H431 C429 0.960 . S
H432 C429 0.961 . S
O433 Co408 1.967 . S
O433 C441 1.258 . S
O434 Co409 1.941 . S
O434 C441 1.266 . S
H435 C437 0.959 . S
H436 C437 0.961 . S
C437 C427 1.510 . S
C437 H435 0.959 . S
C437 H436 0.961 . S
C437 H438 0.960 . S
H438 C437 0.960 . S
H439 N419 0.862 . S
O440 Co408 1.920 . S
O440 C413 1.289 . S
C441 O433 1.258 . S
C441 O434 1.266 . S
Co442 O445 1.970 . S
Co442 N459 1.989 . S
Co442 O467 1.967 . S
Co442 O474 1.920 . S
Co443 O446 1.966 . S
Co443 N452 2.022 . S
Co443 N460 1.993 . S
Co443 O468 1.941 . S
C444 O445 1.258 . S
C444 O446 1.263 . S
O445 Co442 1.970 . S
O445 C444 1.258 . S
O446 Co443 1.966 . S
O446 C444 1.263 . S
C447 O448 1.235 . S
C447 O474 1.289 . S
O448 C447 1.235 . S
C449 C451 1.400 . S
C449 N452 1.351 . S
C449 C454 1.501 . S
C450 C451 1.387 . S
C450 N453 1.341 . S
C451 C449 1.400 . S
C451 C450 1.387 . S
N452 Co443 2.022 . S
N452 C449 1.351 . S
N452 N453 1.365 . S
N453 C450 1.341 . S
N453 N452 1.365 . S
N453 H473 0.862 . S
C454 C449 1.501 . S
C454 H455 0.961 . S
C454 H456 0.961 . S
C454 H457 0.960 . S
H455 C454 0.961 . S
H456 C454 0.961 . S
H457 C454 0.960 . S
C458 N459 1.342 . S
C458 C462 1.401 . S
C458 C463 1.499 . S
N459 Co442 1.989 . S
N459 C458 1.342 . S
N459 N460 1.388 . S
N460 Co443 1.993 . S
N460 N459 1.388 . S
N460 C461 1.346 . S
C461 N460 1.346 . S
C461 C462 1.396 . S
C461 C471 1.510 . S
C462 C458 1.401 . S
C462 C461 1.396 . S
C463 C458 1.499 . S
C463 H464 0.959 . S
C463 H465 0.960 . S
C463 H466 0.961 . S
H464 C463 0.959 . S
H465 C463 0.960 . S
H466 C463 0.961 . S
O467 Co442 1.967 . S
O467 C475 1.258 . S
O468 Co443 1.941 . S
O468 C475 1.266 . S
H469 C471 0.959 . S
H470 C471 0.961 . S
C471 C461 1.510 . S
C471 H469 0.959 . S
C471 H470 0.961 . S
C471 H472 0.960 . S
H472 C471 0.960 . S
H473 N453 0.862 . S
O474 Co442 1.920 . S
O474 C447 1.289 . S
C475 O467 1.258 . S
C475 O468 1.266 . S
Co476 O479 1.970 . S
Co476 N493 1.989 . S
Co476 O501 1.967 . S
Co476 O508 1.920 . S
Co477 O480 1.966 . S
Co477 N486 2.022 . S
Co477 N494 1.993 . S
Co477 O502 1.941 . S
C478 O479 1.258 . S
C478 O480 1.263 . S
O479 Co476 1.970 . S
O479 C478 1.258 . S
O480 Co477 1.966 . S
O480 C478 1.263 . S
C481 O482 1.235 . S
C481 O508 1.289 . S
O482 C481 1.235 . S
C483 C485 1.400 . S
C483 N486 1.351 . S
C483 C488 1.501 . S
C484 C485 1.387 . S
C484 N487 1.341 . S
C485 C483 1.400 . S
C485 C484 1.387 . S
N486 Co477 2.022 . S
N486 C483 1.351 . S
N486 N487 1.365 . S
N487 C484 1.341 . S
N487 N486 1.365 . S
N487 H507 0.862 . S
C488 C483 1.501 . S
C488 H489 0.961 . S
C488 H490 0.961 . S
C488 H491 0.960 . S
H489 C488 0.961 . S
H490 C488 0.961 . S
H491 C488 0.960 . S
C492 N493 1.342 . S
C492 C496 1.401 . S
C492 C497 1.499 . S
N493 Co476 1.989 . S
N493 C492 1.342 . S
N493 N494 1.388 . S
N494 Co477 1.993 . S
N494 N493 1.388 . S
N494 C495 1.346 . S
C495 N494 1.346 . S
C495 C496 1.396 . S
C495 C505 1.510 . S
C496 C492 1.401 . S
C496 C495 1.396 . S
C497 C492 1.499 . S
C497 H498 0.959 . S
C497 H499 0.960 . S
C497 H500 0.961 . S
H498 C497 0.959 . S
H499 C497 0.960 . S
H500 C497 0.961 . S
O501 Co476 1.967 . S
O501 C509 1.258 . S
O502 Co477 1.941 . S
O502 C509 1.266 . S
H503 C505 0.959 . S
H504 C505 0.961 . S
C505 C495 1.510 . S
C505 H503 0.959 . S
C505 H504 0.961 . S
C505 H506 0.960 . S
H506 C505 0.960 . S
H507 N487 0.862 . S
O508 Co476 1.920 . S
O508 C481 1.289 . S
C509 O501 1.258 . S
C509 O502 1.266 . S
Co510 O513 1.970 . S
Co510 N527 1.989 . S
Co510 O535 1.967 . S
Co510 O542 1.920 . S
Co511 O514 1.966 . S
Co511 N520 2.022 . S
Co511 N528 1.993 . S
Co511 O536 1.941 . S
C512 O513 1.258 . S
C512 O514 1.263 . S
O513 Co510 1.970 . S
O513 C512 1.258 . S
O514 Co511 1.966 . S
O514 C512 1.263 . S
C515 O516 1.235 . S
C515 O542 1.289 . S
O516 C515 1.235 . S
C517 C519 1.400 . S
C517 N520 1.351 . S
C517 C522 1.501 . S
C518 C519 1.387 . S
C518 N521 1.341 . S
C519 C517 1.400 . S
C519 C518 1.387 . S
N520 Co511 2.022 . S
N520 C517 1.351 . S
N520 N521 1.365 . S
N521 C518 1.341 . S
N521 N520 1.365 . S
N521 H541 0.862 . S
C522 C517 1.501 . S
C522 H523 0.961 . S
C522 H524 0.961 . S
C522 H525 0.960 . S
H523 C522 0.961 . S
H524 C522 0.961 . S
H525 C522 0.960 . S
C526 N527 1.342 . S
C526 C530 1.401 . S
C526 C531 1.499 . S
N527 Co510 1.989 . S
N527 C526 1.342 . S
N527 N528 1.388 . S
N528 Co511 1.993 . S
N528 N527 1.388 . S
N528 C529 1.346 . S
C529 N528 1.346 . S
C529 C530 1.396 . S
C529 C539 1.510 . S
C530 C526 1.401 . S
C530 C529 1.396 . S
C531 C526 1.499 . S
C531 H532 0.959 . S
C531 H533 0.960 . S
C531 H534 0.961 . S
H532 C531 0.959 . S
H533 C531 0.960 . S
H534 C531 0.961 . S
O535 Co510 1.967 . S
O535 C543 1.258 . S
O536 Co511 1.941 . S
O536 C543 1.266 . S
H537 C539 0.959 . S
H538 C539 0.961 . S
C539 C529 1.510 . S
C539 H537 0.959 . S
C539 H538 0.961 . S
C539 H540 0.960 . S
H540 C539 0.960 . S
H541 N521 0.862 . S
O542 Co510 1.920 . S
O542 C515 1.289 . S
C543 O535 1.258 . S
C543 O536 1.266 . S
Co544 O547 1.970 . S
Co544 N561 1.989 . S
Co544 O569 1.967 . S
Co544 O576 1.920 . S
Co545 O548 1.966 . S
Co545 N554 2.022 . S
Co545 N562 1.993 . S
Co545 O570 1.941 . S
C546 O547 1.258 . S
C546 O548 1.263 . S
O547 Co544 1.970 . S
O547 C546 1.258 . S
O548 Co545 1.966 . S
O548 C546 1.263 . S
C549 O550 1.235 . S
C549 O576 1.289 . S
O550 C549 1.235 . S
C551 C553 1.400 . S
C551 N554 1.351 . S
C551 C556 1.501 . S
C552 C553 1.387 . S
C552 N555 1.341 . S
C553 C551 1.400 . S
C553 C552 1.387 . S
N554 Co545 2.022 . S
N554 C551 1.351 . S
N554 N555 1.365 . S
N555 C552 1.341 . S
N555 N554 1.365 . S
N555 H575 0.862 . S
C556 C551 1.501 . S
C556 H557 0.961 . S
C556 H558 0.961 . S
C556 H559 0.960 . S
H557 C556 0.961 . S
H558 C556 0.961 . S
H559 C556 0.960 . S
C560 N561 1.342 . S
C560 C564 1.401 . S
C560 C565 1.499 . S
N561 Co544 1.989 . S
N561 C560 1.342 . S
N561 N562 1.388 . S
N562 Co545 1.993 . S
N562 N561 1.388 . S
N562 C563 1.346 . S
C563 N562 1.346 . S
C563 C564 1.396 . S
C563 C573 1.510 . S
C564 C560 1.401 . S
C564 C563 1.396 . S
C565 C560 1.499 . S
C565 H566 0.959 . S
C565 H567 0.960 . S
C565 H568 0.961 . S
H566 C565 0.959 . S
H567 C565 0.960 . S
H568 C565 0.961 . S
O569 Co544 1.967 . S
O569 C577 1.258 . S
O570 Co545 1.941 . S
O570 C577 1.266 . S
H571 C573 0.959 . S
H572 C573 0.961 . S
C573 C563 1.510 . S
C573 H571 0.959 . S
C573 H572 0.961 . S
C573 H574 0.960 . S
H574 C573 0.960 . S
H575 N555 0.862 . S
O576 Co544 1.920 . S
O576 C549 1.289 . S
C577 O569 1.258 . S
C577 O570 1.266 . S
Co578 O581 1.970 . S
Co578 N595 1.989 . S
Co578 O603 1.967 . S
Co578 O610 1.920 . S
Co579 O582 1.966 . S
Co579 N588 2.022 . S
Co579 N596 1.993 . S
Co579 O604 1.941 . S
C580 O581 1.258 . S
C580 O582 1.263 . S
O581 Co578 1.970 . S
O581 C580 1.258 . S
O582 Co579 1.966 . S
O582 C580 1.263 . S
C583 O584 1.235 . S
C583 O610 1.289 . S
O584 C583 1.235 . S
C585 C587 1.400 . S
C585 N588 1.351 . S
C585 C590 1.501 . S
C586 C587 1.387 . S
C586 N589 1.341 . S
C587 C585 1.400 . S
C587 C586 1.387 . S
N588 Co579 2.022 . S
N588 C585 1.351 . S
N588 N589 1.365 . S
N589 C586 1.341 . S
N589 N588 1.365 . S
N589 H609 0.862 . S
C590 C585 1.501 . S
C590 H591 0.961 . S
C590 H592 0.961 . S
C590 H593 0.960 . S
H591 C590 0.961 . S
H592 C590 0.961 . S
H593 C590 0.960 . S
C594 N595 1.342 . S
C594 C598 1.401 . S
C594 C599 1.499 . S
N595 Co578 1.989 . S
N595 C594 1.342 . S
N595 N596 1.388 . S
N596 Co579 1.993 . S
N596 N595 1.388 . S
N596 C597 1.346 . S
C597 N596 1.346 . S
C597 C598 1.396 . S
C597 C607 1.510 . S
C598 C594 1.401 . S
C598 C597 1.396 . S
C599 C594 1.499 . S
C599 H600 0.959 . S
C599 H601 0.960 . S
C599 H602 0.961 . S
H600 C599 0.959 . S
H601 C599 0.960 . S
H602 C599 0.961 . S
O603 Co578 1.967 . S
O603 C611 1.258 . S
O604 Co579 1.941 . S
O604 C611 1.266 . S
H605 C607 0.959 . S
H606 C607 0.961 . S
C607 C597 1.510 . S
C607 H605 0.959 . S
C607 H606 0.961 . S
C607 H608 0.960 . S
H608 C607 0.960 . S
H609 N589 0.862 . S
O610 Co578 1.920 . S
O610 C583 1.289 . S
C611 O603 1.258 . S
C611 O604 1.266 . S
Co612 O615 1.970 . S
Co612 N629 1.989 . S
Co612 O637 1.967 . S
Co612 O644 1.920 . S
Co613 O616 1.966 . S
Co613 N622 2.022 . S
Co613 N630 1.993 . S
Co613 O638 1.941 . S
C614 O615 1.258 . S
C614 O616 1.263 . S
O615 Co612 1.970 . S
O615 C614 1.258 . S
O616 Co613 1.966 . S
O616 C614 1.263 . S
C617 O618 1.235 . S
C617 O644 1.289 . S
O618 C617 1.235 . S
C619 C621 1.400 . S
C619 N622 1.351 . S
C619 C624 1.501 . S
C620 C621 1.387 . S
C620 N623 1.341 . S
C621 C619 1.400 . S
C621 C620 1.387 . S
N622 Co613 2.022 . S
N622 C619 1.351 . S
N622 N623 1.365 . S
N623 C620 1.341 . S
N623 N622 1.365 . S
N623 H643 0.862 . S
C624 C619 1.501 . S
C624 H625 0.961 . S
C624 H626 0.961 . S
C624 H627 0.960 . S
H625 C624 0.961 . S
H626 C624 0.961 . S
H627 C624 0.960 . S
C628 N629 1.342 . S
C628 C632 1.401 . S
C628 C633 1.499 . S
N629 Co612 1.989 . S
N629 C628 1.342 . S
N629 N630 1.388 . S
N630 Co613 1.993 . S
N630 N629 1.388 . S
N630 C631 1.346 . S
C631 N630 1.346 . S
C631 C632 1.396 . S
C631 C641 1.510 . S
C632 C628 1.401 . S
C632 C631 1.396 . S
C633 C628 1.499 . S
C633 H634 0.959 . S
C633 H635 0.960 . S
C633 H636 0.961 . S
H634 C633 0.959 . S
H635 C633 0.960 . S
H636 C633 0.961 . S
O637 Co612 1.967 . S
O637 C645 1.258 . S
O638 Co613 1.941 . S
O638 C645 1.266 . S
H639 C641 0.959 . S
H640 C641 0.961 . S
C641 C631 1.510 . S
C641 H639 0.959 . S
C641 H640 0.961 . S
C641 H642 0.960 . S
H642 C641 0.960 . S
H643 N623 0.862 . S
O644 Co612 1.920 . S
O644 C617 1.289 . S
C645 O637 1.258 . S
C645 O638 1.266 . S
Co646 O649 1.970 . S
Co646 N663 1.989 . S
Co646 O671 1.967 . S
Co646 O678 1.920 . S
Co647 O650 1.966 . S
Co647 N656 2.022 . S
Co647 N664 1.993 . S
Co647 O672 1.941 . S
C648 O649 1.258 . S
C648 O650 1.263 . S
O649 Co646 1.970 . S
O649 C648 1.258 . S
O650 Co647 1.966 . S
O650 C648 1.263 . S
C651 O652 1.235 . S
C651 O678 1.289 . S
O652 C651 1.235 . S
C653 C655 1.400 . S
C653 N656 1.351 . S
C653 C658 1.501 . S
C654 C655 1.387 . S
C654 N657 1.341 . S
C655 C653 1.400 . S
C655 C654 1.387 . S
N656 Co647 2.022 . S
N656 C653 1.351 . S
N656 N657 1.365 . S
N657 C654 1.341 . S
N657 N656 1.365 . S
N657 H677 0.862 . S
C658 C653 1.501 . S
C658 H659 0.961 . S
C658 H660 0.961 . S
C658 H661 0.960 . S
H659 C658 0.961 . S
H660 C658 0.961 . S
H661 C658 0.960 . S
C662 N663 1.342 . S
C662 C666 1.401 . S
C662 C667 1.499 . S
N663 Co646 1.989 . S
N663 C662 1.342 . S
N663 N664 1.388 . S
N664 Co647 1.993 . S
N664 N663 1.388 . S
N664 C665 1.346 . S
C665 N664 1.346 . S
C665 C666 1.396 . S
C665 C675 1.510 . S
C666 C662 1.401 . S
C666 C665 1.396 . S
C667 C662 1.499 . S
C667 H668 0.959 . S
C667 H669 0.960 . S
C667 H670 0.961 . S
H668 C667 0.959 . S
H669 C667 0.960 . S
H670 C667 0.961 . S
O671 Co646 1.967 . S
O671 C679 1.258 . S
O672 Co647 1.941 . S
O672 C679 1.266 . S
H673 C675 0.959 . S
H674 C675 0.961 . S
C675 C665 1.510 . S
C675 H673 0.959 . S
C675 H674 0.961 . S
C675 H676 0.960 . S
H676 C675 0.960 . S
H677 N657 0.862 . S
O678 Co646 1.920 . S
O678 C651 1.289 . S
C679 O671 1.258 . S
C679 O672 1.266 . S
Co680 O683 1.970 . S
Co680 N697 1.989 . S
Co680 O705 1.967 . S
Co680 O712 1.920 . S
Co681 O684 1.966 . S
Co681 N690 2.022 . S
Co681 N698 1.993 . S
Co681 O706 1.941 . S
C682 O683 1.258 . S
C682 O684 1.263 . S
O683 Co680 1.970 . S
O683 C682 1.258 . S
O684 Co681 1.966 . S
O684 C682 1.263 . S
C685 O686 1.235 . S
C685 O712 1.289 . S
O686 C685 1.235 . S
C687 C689 1.400 . S
C687 N690 1.351 . S
C687 C692 1.501 . S
C688 C689 1.387 . S
C688 N691 1.341 . S
C689 C687 1.400 . S
C689 C688 1.387 . S
N690 Co681 2.022 . S
N690 C687 1.351 . S
N690 N691 1.365 . S
N691 C688 1.341 . S
N691 N690 1.365 . S
N691 H711 0.862 . S
C692 C687 1.501 . S
C692 H693 0.961 . S
C692 H694 0.961 . S
C692 H695 0.960 . S
H693 C692 0.961 . S
H694 C692 0.961 . S
H695 C692 0.960 . S
C696 N697 1.342 . S
C696 C700 1.401 . S
C696 C701 1.499 . S
N697 Co680 1.989 . S
N697 C696 1.342 . S
N697 N698 1.388 . S
N698 Co681 1.993 . S
N698 N697 1.388 . S
N698 C699 1.346 . S
C699 N698 1.346 . S
C699 C700 1.396 . S
C699 C709 1.510 . S
C700 C696 1.401 . S
C700 C699 1.396 . S
C701 C696 1.499 . S
C701 H702 0.959 . S
C701 H703 0.960 . S
C701 H704 0.961 . S
H702 C701 0.959 . S
H703 C701 0.960 . S
H704 C701 0.961 . S
O705 Co680 1.967 . S
O705 C713 1.258 . S
O706 Co681 1.941 . S
O706 C713 1.266 . S
H707 C709 0.959 . S
H708 C709 0.961 . S
C709 C699 1.510 . S
C709 H707 0.959 . S
C709 H708 0.961 . S
C709 H710 0.960 . S
H710 C709 0.960 . S
H711 N691 0.862 . S
O712 Co680 1.920 . S
O712 C685 1.289 . S
C713 O705 1.258 . S
C713 O706 1.266 . S
Co714 O717 1.970 . S
Co714 N731 1.989 . S
Co714 O739 1.967 . S
Co714 O746 1.920 . S
Co715 O718 1.966 . S
Co715 N724 2.022 . S
Co715 N732 1.993 . S
Co715 O740 1.941 . S
C716 O717 1.258 . S
C716 O718 1.263 . S
O717 Co714 1.970 . S
O717 C716 1.258 . S
O718 Co715 1.966 . S
O718 C716 1.263 . S
C719 O720 1.235 . S
C719 O746 1.289 . S
O720 C719 1.235 . S
C721 C723 1.400 . S
C721 N724 1.351 . S
C721 C726 1.501 . S
C722 C723 1.387 . S
C722 N725 1.341 . S
C723 C721 1.400 . S
C723 C722 1.387 . S
N724 Co715 2.022 . S
N724 C721 1.351 . S
N724 N725 1.365 . S
N725 C722 1.341 . S
N725 N724 1.365 . S
N725 H745 0.862 . S
C726 C721 1.501 . S
C726 H727 0.961 . S
C726 H728 0.961 . S
C726 H729 0.960 . S
H727 C726 0.961 . S
H728 C726 0.961 . S
H729 C726 0.960 . S
C730 N731 1.342 . S
C730 C734 1.401 . S
C730 C735 1.499 . S
N731 Co714 1.989 . S
N731 C730 1.342 . S
N731 N732 1.388 . S
N732 Co715 1.993 . S
N732 N731 1.388 . S
N732 C733 1.346 . S
C733 N732 1.346 . S
C733 C734 1.396 . S
C733 C743 1.510 . S
C734 C730 1.401 . S
C734 C733 1.396 . S
C735 C730 1.499 . S
C735 H736 0.959 . S
C735 H737 0.960 . S
C735 H738 0.961 . S
H736 C735 0.959 . S
H737 C735 0.960 . S
H738 C735 0.961 . S
O739 Co714 1.967 . S
O739 C747 1.258 . S
O740 Co715 1.941 . S
O740 C747 1.266 . S
H741 C743 0.959 . S
H742 C743 0.961 . S
C743 C733 1.510 . S
C743 H741 0.959 . S
C743 H742 0.961 . S
C743 H744 0.960 . S
H744 C743 0.960 . S
H745 N725 0.862 . S
O746 Co714 1.920 . S
O746 C719 1.289 . S
C747 O739 1.258 . S
C747 O740 1.266 . S
Co748 O751 1.970 . S
Co748 N765 1.989 . S
Co748 O773 1.967 . S
Co748 O780 1.920 . S
Co749 O752 1.966 . S
Co749 N758 2.022 . S
Co749 N766 1.993 . S
Co749 O774 1.941 . S
C750 O751 1.258 . S
C750 O752 1.263 . S
O751 Co748 1.970 . S
O751 C750 1.258 . S
O752 Co749 1.966 . S
O752 C750 1.263 . S
C753 O754 1.235 . S
C753 O780 1.289 . S
O754 C753 1.235 . S
C755 C757 1.400 . S
C755 N758 1.351 . S
C755 C760 1.501 . S
C756 C757 1.387 . S
C756 N759 1.341 . S
C757 C755 1.400 . S
C757 C756 1.387 . S
N758 Co749 2.022 . S
N758 C755 1.351 . S
N758 N759 1.365 . S
N759 C756 1.341 . S
N759 N758 1.365 . S
N759 H779 0.862 . S
C760 C755 1.501 . S
C760 H761 0.961 . S
C760 H762 0.961 . S
C760 H763 0.960 . S
H761 C760 0.961 . S
H762 C760 0.961 . S
H763 C760 0.960 . S
C764 N765 1.342 . S
C764 C768 1.401 . S
C764 C769 1.499 . S
N765 Co748 1.989 . S
N765 C764 1.342 . S
N765 N766 1.388 . S
N766 Co749 1.993 . S
N766 N765 1.388 . S
N766 C767 1.346 . S
C767 N766 1.346 . S
C767 C768 1.396 . S
C767 C777 1.510 . S
C768 C764 1.401 . S
C768 C767 1.396 . S
C769 C764 1.499 . S
C769 H770 0.959 . S
C769 H771 0.960 . S
C769 H772 0.961 . S
H770 C769 0.959 . S
H771 C769 0.960 . S
H772 C769 0.961 . S
O773 Co748 1.967 . S
O773 C781 1.258 . S
O774 Co749 1.941 . S
O774 C781 1.266 . S
H775 C777 0.959 . S
H776 C777 0.961 . S
C777 C767 1.510 . S
C777 H775 0.959 . S
C777 H776 0.961 . S
C777 H778 0.960 . S
H778 C777 0.960 . S
H779 N759 0.862 . S
O780 Co748 1.920 . S
O780 C753 1.289 . S
C781 O773 1.258 . S
C781 O774 1.266 . S
Co782 O785 1.970 . S
Co782 N799 1.989 . S
Co782 O807 1.967 . S
Co782 O814 1.920 . S
Co783 O786 1.966 . S
Co783 N792 2.022 . S
Co783 N800 1.993 . S
Co783 O808 1.941 . S
C784 O785 1.258 . S
C784 O786 1.263 . S
O785 Co782 1.970 . S
O785 C784 1.258 . S
O786 Co783 1.966 . S
O786 C784 1.263 . S
C787 O788 1.235 . S
C787 O814 1.289 . S
O788 C787 1.235 . S
C789 C791 1.400 . S
C789 N792 1.351 . S
C789 C794 1.501 . S
C790 C791 1.387 . S
C790 N793 1.341 . S
C791 C789 1.400 . S
C791 C790 1.387 . S
N792 Co783 2.022 . S
N792 C789 1.351 . S
N792 N793 1.365 . S
N793 C790 1.341 . S
N793 N792 1.365 . S
N793 H813 0.862 . S
C794 C789 1.501 . S
C794 H795 0.961 . S
C794 H796 0.961 . S
C794 H797 0.960 . S
H795 C794 0.961 . S
H796 C794 0.961 . S
H797 C794 0.960 . S
C798 N799 1.342 . S
C798 C802 1.401 . S
C798 C803 1.499 . S
N799 Co782 1.989 . S
N799 C798 1.342 . S
N799 N800 1.388 . S
N800 Co783 1.993 . S
N800 N799 1.388 . S
N800 C801 1.346 . S
C801 N800 1.346 . S
C801 C802 1.396 . S
C801 C811 1.510 . S
C802 C798 1.401 . S
C802 C801 1.396 . S
C803 C798 1.499 . S
C803 H804 0.959 . S
C803 H805 0.960 . S
C803 H806 0.961 . S
H804 C803 0.959 . S
H805 C803 0.960 . S
H806 C803 0.961 . S
O807 Co782 1.967 . S
O807 C815 1.258 . S
O808 Co783 1.941 . S
O808 C815 1.266 . S
H809 C811 0.959 . S
H810 C811 0.961 . S
C811 C801 1.510 . S
C811 H809 0.959 . S
C811 H810 0.961 . S
C811 H812 0.960 . S
H812 C811 0.960 . S
H813 N793 0.862 . S
O814 Co782 1.920 . S
O814 C787 1.289 . S
C815 O807 1.258 . S
C815 O808 1.266 . S
Co816 O819 1.970 . S
Co816 N833 1.989 . S
Co816 O841 1.967 . S
Co816 O848 1.920 . S
Co817 O820 1.966 . S
Co817 N826 2.022 . S
Co817 N834 1.993 . S
Co817 O842 1.941 . S
C818 O819 1.258 . S
C818 O820 1.263 . S
O819 Co816 1.970 . S
O819 C818 1.258 . S
O820 Co817 1.966 . S
O820 C818 1.263 . S
C821 O822 1.235 . S
C821 O848 1.289 . S
O822 C821 1.235 . S
C823 C825 1.400 . S
C823 N826 1.351 . S
C823 C828 1.501 . S
C824 C825 1.387 . S
C824 N827 1.341 . S
C825 C823 1.400 . S
C825 C824 1.387 . S
N826 Co817 2.022 . S
N826 C823 1.351 . S
N826 N827 1.365 . S
N827 C824 1.341 . S
N827 N826 1.365 . S
N827 H847 0.862 . S
C828 C823 1.501 . S
C828 H829 0.961 . S
C828 H830 0.961 . S
C828 H831 0.960 . S
H829 C828 0.961 . S
H830 C828 0.961 . S
H831 C828 0.960 . S
C832 N833 1.342 . S
C832 C836 1.401 . S
C832 C837 1.499 . S
N833 Co816 1.989 . S
N833 C832 1.342 . S
N833 N834 1.388 . S
N834 Co817 1.993 . S
N834 N833 1.388 . S
N834 C835 1.346 . S
C835 N834 1.346 . S
C835 C836 1.396 . S
C835 C845 1.510 . S
C836 C832 1.401 . S
C836 C835 1.396 . S
C837 C832 1.499 . S
C837 H838 0.959 . S
C837 H839 0.960 . S
C837 H840 0.961 . S
H838 C837 0.959 . S
H839 C837 0.960 . S
H840 C837 0.961 . S
O841 Co816 1.967 . S
O841 C849 1.258 . S
O842 Co817 1.941 . S
O842 C849 1.266 . S
H843 C845 0.959 . S
H844 C845 0.961 . S
C845 C835 1.510 . S
C845 H843 0.959 . S
C845 H844 0.961 . S
C845 H846 0.960 . S
H846 C845 0.960 . S
H847 N827 0.862 . S
O848 Co816 1.920 . S
O848 C821 1.289 . S
C849 O841 1.258 . S
C849 O842 1.266 . S
Co850 O853 1.970 . S
Co850 N867 1.989 . S
Co850 O875 1.967 . S
Co850 O882 1.920 . S
Co851 O854 1.966 . S
Co851 N860 2.022 . S
Co851 N868 1.993 . S
Co851 O876 1.941 . S
C852 O853 1.258 . S
C852 O854 1.263 . S
O853 Co850 1.970 . S
O853 C852 1.258 . S
O854 Co851 1.966 . S
O854 C852 1.263 . S
C855 O856 1.235 . S
C855 O882 1.289 . S
O856 C855 1.235 . S
C857 C859 1.400 . S
C857 N860 1.351 . S
C857 C862 1.501 . S
C858 C859 1.387 . S
C858 N861 1.341 . S
C859 C857 1.400 . S
C859 C858 1.387 . S
N860 Co851 2.022 . S
N860 C857 1.351 . S
N860 N861 1.365 . S
N861 C858 1.341 . S
N861 N860 1.365 . S
N861 H881 0.862 . S
C862 C857 1.501 . S
C862 H863 0.961 . S
C862 H864 0.961 . S
C862 H865 0.960 . S
H863 C862 0.961 . S
H864 C862 0.961 . S
H865 C862 0.960 . S
C866 N867 1.342 . S
C866 C870 1.401 . S
C866 C871 1.499 . S
N867 Co850 1.989 . S
N867 C866 1.342 . S
N867 N868 1.388 . S
N868 Co851 1.993 . S
N868 N867 1.388 . S
N868 C869 1.346 . S
C869 N868 1.346 . S
C869 C870 1.396 . S
C869 C879 1.510 . S
C870 C866 1.401 . S
C870 C869 1.396 . S
C871 C866 1.499 . S
C871 H872 0.959 . S
C871 H873 0.960 . S
C871 H874 0.961 . S
H872 C871 0.959 . S
H873 C871 0.960 . S
H874 C871 0.961 . S
O875 Co850 1.967 . S
O875 C883 1.258 . S
O876 Co851 1.941 . S
O876 C883 1.266 . S
H877 C879 0.959 . S
H878 C879 0.961 . S
C879 C869 1.510 . S
C879 H877 0.959 . S
C879 H878 0.961 . S
C879 H880 0.960 . S
H880 C879 0.960 . S
H881 N861 0.862 . S
O882 Co850 1.920 . S
O882 C855 1.289 . S
C883 O875 1.258 . S
C883 O876 1.266 . S
Co884 O887 1.970 . S
Co884 N901 1.989 . S
Co884 O909 1.967 . S
Co884 O916 1.920 . S
Co885 O888 1.966 . S
Co885 N894 2.022 . S
Co885 N902 1.993 . S
Co885 O910 1.941 . S
C886 O887 1.258 . S
C886 O888 1.263 . S
O887 Co884 1.970 . S
O887 C886 1.258 . S
O888 Co885 1.966 . S
O888 C886 1.263 . S
C889 O890 1.235 . S
C889 O916 1.289 . S
O890 C889 1.235 . S
C891 C893 1.400 . S
C891 N894 1.351 . S
C891 C896 1.501 . S
C892 C893 1.387 . S
C892 N895 1.341 . S
C893 C891 1.400 . S
C893 C892 1.387 . S
N894 Co885 2.022 . S
N894 C891 1.351 . S
N894 N895 1.365 . S
N895 C892 1.341 . S
N895 N894 1.365 . S
N895 H915 0.862 . S
C896 C891 1.501 . S
C896 H897 0.961 . S
C896 H898 0.961 . S
C896 H899 0.960 . S
H897 C896 0.961 . S
H898 C896 0.961 . S
H899 C896 0.960 . S
C900 N901 1.342 . S
C900 C904 1.401 . S
C900 C905 1.499 . S
N901 Co884 1.989 . S
N901 C900 1.342 . S
N901 N902 1.388 . S
N902 Co885 1.993 . S
N902 N901 1.388 . S
N902 C903 1.346 . S
C903 N902 1.346 . S
C903 C904 1.396 . S
C903 C913 1.510 . S
C904 C900 1.401 . S
C904 C903 1.396 . S
C905 C900 1.499 . S
C905 H906 0.959 . S
C905 H907 0.960 . S
C905 H908 0.961 . S
H906 C905 0.959 . S
H907 C905 0.960 . S
H908 C905 0.961 . S
O909 Co884 1.967 . S
O909 C917 1.258 . S
O910 Co885 1.941 . S
O910 C917 1.266 . S
H911 C913 0.959 . S
H912 C913 0.961 . S
C913 C903 1.510 . S
C913 H911 0.959 . S
C913 H912 0.961 . S
C913 H914 0.960 . S
H914 C913 0.960 . S
H915 N895 0.862 . S
O916 Co884 1.920 . S
O916 C889 1.289 . S
C917 O909 1.258 . S
C917 O910 1.266 . S
Co918 O921 1.970 . S
Co918 N935 1.989 . S
Co918 O943 1.967 . S
Co918 O950 1.920 . S
Co919 O922 1.966 . S
Co919 N928 2.022 . S
Co919 N936 1.993 . S
Co919 O944 1.941 . S
C920 O921 1.258 . S
C920 O922 1.263 . S
O921 Co918 1.970 . S
O921 C920 1.258 . S
O922 Co919 1.966 . S
O922 C920 1.263 . S
C923 O924 1.235 . S
C923 O950 1.289 . S
O924 C923 1.235 . S
C925 C927 1.400 . S
C925 N928 1.351 . S
C925 C930 1.501 . S
C926 C927 1.387 . S
C926 N929 1.341 . S
C927 C925 1.400 . S
C927 C926 1.387 . S
N928 Co919 2.022 . S
N928 C925 1.351 . S
N928 N929 1.365 . S
N929 C926 1.341 . S
N929 N928 1.365 . S
N929 H949 0.862 . S
C930 C925 1.501 . S
C930 H931 0.961 . S
C930 H932 0.961 . S
C930 H933 0.960 . S
H931 C930 0.961 . S
H932 C930 0.961 . S
H933 C930 0.960 . S
C934 N935 1.342 . S
C934 C938 1.401 . S
C934 C939 1.499 . S
N935 Co918 1.989 . S
N935 C934 1.342 . S
N935 N936 1.388 . S
N936 Co919 1.993 . S
N936 N935 1.388 . S
N936 C937 1.346 . S
C937 N936 1.346 . S
C937 C938 1.396 . S
C937 C947 1.510 . S
C938 C934 1.401 . S
C938 C937 1.396 . S
C939 C934 1.499 . S
C939 H940 0.959 . S
C939 H941 0.960 . S
C939 H942 0.961 . S
H940 C939 0.959 . S
H941 C939 0.960 . S
H942 C939 0.961 . S
O943 Co918 1.967 . S
O943 C951 1.258 . S
O944 Co919 1.941 . S
O944 C951 1.266 . S
H945 C947 0.959 . S
H946 C947 0.961 . S
C947 C937 1.510 . S
C947 H945 0.959 . S
C947 H946 0.961 . S
C947 H948 0.960 . S
H948 C947 0.960 . S
H949 N929 0.862 . S
O950 Co918 1.920 . S
O950 C923 1.289 . S
C951 O943 1.258 . S
C951 O944 1.266 . S
Co952 O955 1.970 . S
Co952 N969 1.989 . S
Co952 O977 1.967 . S
Co952 O984 1.920 . S
Co953 O956 1.966 . S
Co953 N962 2.022 . S
Co953 N970 1.993 . S
Co953 O978 1.941 . S
C954 O955 1.258 . S
C954 O956 1.263 . S
O955 Co952 1.970 . S
O955 C954 1.258 . S
O956 Co953 1.966 . S
O956 C954 1.263 . S
C957 O958 1.235 . S
C957 O984 1.289 . S
O958 C957 1.235 . S
C959 C961 1.400 . S
C959 N962 1.351 . S
C959 C964 1.501 . S
C960 C961 1.387 . S
C960 N963 1.341 . S
C961 C959 1.400 . S
C961 C960 1.387 . S
N962 Co953 2.022 . S
N962 C959 1.351 . S
N962 N963 1.365 . S
N963 C960 1.341 . S
N963 N962 1.365 . S
N963 H983 0.862 . S
C964 C959 1.501 . S
C964 H965 0.961 . S
C964 H966 0.961 . S
C964 H967 0.960 . S
H965 C964 0.961 . S
H966 C964 0.961 . S
H967 C964 0.960 . S
C968 N969 1.342 . S
C968 C972 1.401 . S
C968 C973 1.499 . S
N969 Co952 1.989 . S
N969 C968 1.342 . S
N969 N970 1.388 . S
N970 Co953 1.993 . S
N970 N969 1.388 . S
N970 C971 1.346 . S
C971 N970 1.346 . S
C971 C972 1.396 . S
C971 C981 1.510 . S
C972 C968 1.401 . S
C972 C971 1.396 . S
C973 C968 1.499 . S
C973 H974 0.959 . S
C973 H975 0.960 . S
C973 H976 0.961 . S
H974 C973 0.959 . S
H975 C973 0.960 . S
H976 C973 0.961 . S
O977 Co952 1.967 . S
O977 C985 1.258 . S
O978 Co953 1.941 . S
O978 C985 1.266 . S
H979 C981 0.959 . S
H980 C981 0.961 . S
C981 C971 1.510 . S
C981 H979 0.959 . S
C981 H980 0.961 . S
C981 H982 0.960 . S
H982 C981 0.960 . S
H983 N963 0.862 . S
O984 Co952 1.920 . S
O984 C957 1.289 . S
C985 O977 1.258 . S
C985 O978 1.266 . S
Co986 O989 1.970 . S
Co986 N1003 1.989 . S
Co986 O1011 1.967 . S
Co986 O1018 1.920 . S
Co987 O990 1.966 . S
Co987 N996 2.022 . S
Co987 N1004 1.993 . S
Co987 O1012 1.941 . S
C988 O989 1.258 . S
C988 O990 1.263 . S
O989 Co986 1.970 . S
O989 C988 1.258 . S
O990 Co987 1.966 . S
O990 C988 1.263 . S
C991 O992 1.235 . S
C991 O1018 1.289 . S
O992 C991 1.235 . S
C993 C995 1.400 . S
C993 N996 1.351 . S
C993 C998 1.501 . S
C994 C995 1.387 . S
C994 N997 1.341 . S
C995 C993 1.400 . S
C995 C994 1.387 . S
N996 Co987 2.022 . S
N996 C993 1.351 . S
N996 N997 1.365 . S
N997 C994 1.341 . S
N997 N996 1.365 . S
N997 H1017 0.862 . S
C998 C993 1.501 . S
C998 H999 0.961 . S
C998 H1000 0.961 . S
C998 H1001 0.960 . S
H999 C998 0.961 . S
H1000 C998 0.961 . S
H1001 C998 0.960 . S
C1002 N1003 1.342 . S
C1002 C1006 1.401 . S
C1002 C1007 1.499 . S
N1003 Co986 1.989 . S
N1003 C1002 1.342 . S
N1003 N1004 1.388 . S
N1004 Co987 1.993 . S
N1004 N1003 1.388 . S
N1004 C1005 1.346 . S
C1005 N1004 1.346 . S
C1005 C1006 1.396 . S
C1005 C1015 1.510 . S
C1006 C1002 1.401 . S
C1006 C1005 1.396 . S
C1007 C1002 1.499 . S
C1007 H1008 0.959 . S
C1007 H1009 0.960 . S
C1007 H1010 0.961 . S
H1008 C1007 0.959 . S
H1009 C1007 0.960 . S
H1010 C1007 0.961 . S
O1011 Co986 1.967 . S
O1011 C1019 1.258 . S
O1012 Co987 1.941 . S
O1012 C1019 1.266 . S
H1013 C1015 0.959 . S
H1014 C1015 0.961 . S
C1015 C1005 1.510 . S
C1015 H1013 0.959 . S
C1015 H1014 0.961 . S
C1015 H1016 0.960 . S
H1016 C1015 0.960 . S
H1017 N997 0.862 . S
O1018 Co986 1.920 . S
O1018 C991 1.289 . S
C1019 O1011 1.258 . S
C1019 O1012 1.266 . S
Co1020 O1023 1.970 . S
Co1020 N1037 1.989 . S
Co1020 O1045 1.967 . S
Co1020 O1052 1.920 . S
Co1021 O1024 1.966 . S
Co1021 N1030 2.022 . S
Co1021 N1038 1.993 . S
Co1021 O1046 1.941 . S
C1022 O1023 1.258 . S
C1022 O1024 1.263 . S
O1023 Co1020 1.970 . S
O1023 C1022 1.258 . S
O1024 Co1021 1.966 . S
O1024 C1022 1.263 . S
C1025 O1026 1.235 . S
C1025 O1052 1.289 . S
O1026 C1025 1.235 . S
C1027 C1029 1.400 . S
C1027 N1030 1.351 . S
C1027 C1032 1.501 . S
C1028 C1029 1.387 . S
C1028 N1031 1.341 . S
C1029 C1027 1.400 . S
C1029 C1028 1.387 . S
N1030 Co1021 2.022 . S
N1030 C1027 1.351 . S
N1030 N1031 1.365 . S
N1031 C1028 1.341 . S
N1031 N1030 1.365 . S
N1031 H1051 0.862 . S
C1032 C1027 1.501 . S
C1032 H1033 0.961 . S
C1032 H1034 0.961 . S
C1032 H1035 0.960 . S
H1033 C1032 0.961 . S
H1034 C1032 0.961 . S
H1035 C1032 0.960 . S
C1036 N1037 1.342 . S
C1036 C1040 1.401 . S
C1036 C1041 1.499 . S
N1037 Co1020 1.989 . S
N1037 C1036 1.342 . S
N1037 N1038 1.388 . S
N1038 Co1021 1.993 . S
N1038 N1037 1.388 . S
N1038 C1039 1.346 . S
C1039 N1038 1.346 . S
C1039 C1040 1.396 . S
C1039 C1049 1.510 . S
C1040 C1036 1.401 . S
C1040 C1039 1.396 . S
C1041 C1036 1.499 . S
C1041 H1042 0.959 . S
C1041 H1043 0.960 . S
C1041 H1044 0.961 . S
H1042 C1041 0.959 . S
H1043 C1041 0.960 . S
H1044 C1041 0.961 . S
O1045 Co1020 1.967 . S
O1045 C1053 1.258 . S
O1046 Co1021 1.941 . S
O1046 C1053 1.266 . S
H1047 C1049 0.959 . S
H1048 C1049 0.961 . S
C1049 C1039 1.510 . S
C1049 H1047 0.959 . S
C1049 H1048 0.961 . S
C1049 H1050 0.960 . S
H1050 C1049 0.960 . S
H1051 N1031 0.862 . S
O1052 Co1020 1.920 . S
O1052 C1025 1.289 . S
C1053 O1045 1.258 . S
C1053 O1046 1.266 . S
Co1054 O1057 1.970 . S
Co1054 N1071 1.989 . S
Co1054 O1079 1.967 . S
Co1054 O1086 1.920 . S
Co1055 O1058 1.966 . S
Co1055 N1064 2.022 . S
Co1055 N1072 1.993 . S
Co1055 O1080 1.941 . S
C1056 O1057 1.258 . S
C1056 O1058 1.263 . S
O1057 Co1054 1.970 . S
O1057 C1056 1.258 . S
O1058 Co1055 1.966 . S
O1058 C1056 1.263 . S
C1059 O1060 1.235 . S
C1059 O1086 1.289 . S
O1060 C1059 1.235 . S
C1061 C1063 1.400 . S
C1061 N1064 1.351 . S
C1061 C1066 1.501 . S
C1062 C1063 1.387 . S
C1062 N1065 1.341 . S
C1063 C1061 1.400 . S
C1063 C1062 1.387 . S
N1064 Co1055 2.022 . S
N1064 C1061 1.351 . S
N1064 N1065 1.365 . S
N1065 C1062 1.341 . S
N1065 N1064 1.365 . S
N1065 H1085 0.862 . S
C1066 C1061 1.501 . S
C1066 H1067 0.961 . S
C1066 H1068 0.961 . S
C1066 H1069 0.960 . S
H1067 C1066 0.961 . S
H1068 C1066 0.961 . S
H1069 C1066 0.960 . S
C1070 N1071 1.342 . S
C1070 C1074 1.401 . S
C1070 C1075 1.499 . S
N1071 Co1054 1.989 . S
N1071 C1070 1.342 . S
N1071 N1072 1.388 . S
N1072 Co1055 1.993 . S
N1072 N1071 1.388 . S
N1072 C1073 1.346 . S
C1073 N1072 1.346 . S
C1073 C1074 1.396 . S
C1073 C1083 1.510 . S
C1074 C1070 1.401 . S
C1074 C1073 1.396 . S
C1075 C1070 1.499 . S
C1075 H1076 0.959 . S
C1075 H1077 0.960 . S
C1075 H1078 0.961 . S
H1076 C1075 0.959 . S
H1077 C1075 0.960 . S
H1078 C1075 0.961 . S
O1079 Co1054 1.967 . S
O1079 C1087 1.258 . S
O1080 Co1055 1.941 . S
O1080 C1087 1.266 . S
H1081 C1083 0.959 . S
H1082 C1083 0.961 . S
C1083 C1073 1.510 . S
C1083 H1081 0.959 . S
C1083 H1082 0.961 . S
C1083 H1084 0.960 . S
H1084 C1083 0.960 . S
H1085 N1065 0.862 . S
O1086 Co1054 1.920 . S
O1086 C1059 1.289 . S
C1087 O1079 1.258 . S
C1087 O1080 1.266 . S
Co1088 O1091 1.970 . S
Co1088 N1105 1.989 . S
Co1088 O1113 1.967 . S
Co1088 O1120 1.920 . S
Co1089 O1092 1.966 . S
Co1089 N1098 2.022 . S
Co1089 N1106 1.993 . S
Co1089 O1114 1.941 . S
C1090 O1091 1.258 . S
C1090 O1092 1.263 . S
O1091 Co1088 1.970 . S
O1091 C1090 1.258 . S
O1092 Co1089 1.966 . S
O1092 C1090 1.263 . S
C1093 O1094 1.235 . S
C1093 O1120 1.289 . S
O1094 C1093 1.235 . S
C1095 C1097 1.400 . S
C1095 N1098 1.351 . S
C1095 C1100 1.501 . S
C1096 C1097 1.387 . S
C1096 N1099 1.341 . S
C1097 C1095 1.400 . S
C1097 C1096 1.387 . S
N1098 Co1089 2.022 . S
N1098 C1095 1.351 . S
N1098 N1099 1.365 . S
N1099 C1096 1.341 . S
N1099 N1098 1.365 . S
N1099 H1119 0.862 . S
C1100 C1095 1.501 . S
C1100 H1101 0.961 . S
C1100 H1102 0.961 . S
C1100 H1103 0.960 . S
H1101 C1100 0.961 . S
H1102 C1100 0.961 . S
H1103 C1100 0.960 . S
C1104 N1105 1.342 . S
C1104 C1108 1.401 . S
C1104 C1109 1.499 . S
N1105 Co1088 1.989 . S
N1105 C1104 1.342 . S
N1105 N1106 1.388 . S
N1106 Co1089 1.993 . S
N1106 N1105 1.388 . S
N1106 C1107 1.346 . S
C1107 N1106 1.346 . S
C1107 C1108 1.396 . S
C1107 C1117 1.510 . S
C1108 C1104 1.401 . S
C1108 C1107 1.396 . S
C1109 C1104 1.499 . S
C1109 H1110 0.959 . S
C1109 H1111 0.960 . S
C1109 H1112 0.961 . S
H1110 C1109 0.959 . S
H1111 C1109 0.960 . S
H1112 C1109 0.961 . S
O1113 Co1088 1.967 . S
O1113 C1121 1.258 . S
O1114 Co1089 1.941 . S
O1114 C1121 1.266 . S
H1115 C1117 0.959 . S
H1116 C1117 0.961 . S
C1117 C1107 1.510 . S
C1117 H1115 0.959 . S
C1117 H1116 0.961 . S
C1117 H1118 0.960 . S
H1118 C1117 0.960 . S
H1119 N1099 0.862 . S
O1120 Co1088 1.920 . S
O1120 C1093 1.289 . S
C1121 O1113 1.258 . S
C1121 O1114 1.266 . S
Co1122 O1125 1.970 . S
Co1122 N1139 1.989 . S
Co1122 O1147 1.967 . S
Co1122 O1154 1.920 . S
Co1123 O1126 1.966 . S
Co1123 N1132 2.022 . S
Co1123 N1140 1.993 . S
Co1123 O1148 1.941 . S
C1124 O1125 1.258 . S
C1124 O1126 1.263 . S
O1125 Co1122 1.970 . S
O1125 C1124 1.258 . S
O1126 Co1123 1.966 . S
O1126 C1124 1.263 . S
C1127 O1128 1.235 . S
C1127 O1154 1.289 . S
O1128 C1127 1.235 . S
C1129 C1131 1.400 . S
C1129 N1132 1.351 . S
C1129 C1134 1.501 . S
C1130 C1131 1.387 . S
C1130 N1133 1.341 . S
C1131 C1129 1.400 . S
C1131 C1130 1.387 . S
N1132 Co1123 2.022 . S
N1132 C1129 1.351 . S
N1132 N1133 1.365 . S
N1133 C1130 1.341 . S
N1133 N1132 1.365 . S
N1133 H1153 0.862 . S
C1134 C1129 1.501 . S
C1134 H1135 0.961 . S
C1134 H1136 0.961 . S
C1134 H1137 0.960 . S
H1135 C1134 0.961 . S
H1136 C1134 0.961 . S
H1137 C1134 0.960 . S
C1138 N1139 1.342 . S
C1138 C1142 1.401 . S
C1138 C1143 1.499 . S
N1139 Co1122 1.989 . S
N1139 C1138 1.342 . S
N1139 N1140 1.388 . S
N1140 Co1123 1.993 . S
N1140 N1139 1.388 . S
N1140 C1141 1.346 . S
C1141 N1140 1.346 . S
C1141 C1142 1.396 . S
C1141 C1151 1.510 . S
C1142 C1138 1.401 . S
C1142 C1141 1.396 . S
C1143 C1138 1.499 . S
C1143 H1144 0.959 . S
C1143 H1145 0.960 . S
C1143 H1146 0.961 . S
H1144 C1143 0.959 . S
H1145 C1143 0.960 . S
H1146 C1143 0.961 . S
O1147 Co1122 1.967 . S
O1147 C1155 1.258 . S
O1148 Co1123 1.941 . S
O1148 C1155 1.266 . S
H1149 C1151 0.959 . S
H1150 C1151 0.961 . S
C1151 C1141 1.510 . S
C1151 H1149 0.959 . S
C1151 H1150 0.961 . S
C1151 H1152 0.960 . S
H1152 C1151 0.960 . S
H1153 N1133 0.862 . S
O1154 Co1122 1.920 . S
O1154 C1127 1.289 . S
C1155 O1147 1.258 . S
C1155 O1148 1.266 . S
Co1156 O1159 1.970 . S
Co1156 N1173 1.989 . S
Co1156 O1181 1.967 . S
Co1156 O1188 1.920 . S
Co1157 O1160 1.966 . S
Co1157 N1166 2.022 . S
Co1157 N1174 1.993 . S
Co1157 O1182 1.941 . S
C1158 O1159 1.258 . S
C1158 O1160 1.263 . S
O1159 Co1156 1.970 . S
O1159 C1158 1.258 . S
O1160 Co1157 1.966 . S
O1160 C1158 1.263 . S
C1161 O1162 1.235 . S
C1161 O1188 1.289 . S
O1162 C1161 1.235 . S
C1163 C1165 1.400 . S
C1163 N1166 1.351 . S
C1163 C1168 1.501 . S
C1164 C1165 1.387 . S
C1164 N1167 1.341 . S
C1165 C1163 1.400 . S
C1165 C1164 1.387 . S
N1166 Co1157 2.022 . S
N1166 C1163 1.351 . S
N1166 N1167 1.365 . S
N1167 C1164 1.341 . S
N1167 N1166 1.365 . S
N1167 H1187 0.862 . S
C1168 C1163 1.501 . S
C1168 H1169 0.961 . S
C1168 H1170 0.961 . S
C1168 H1171 0.960 . S
H1169 C1168 0.961 . S
H1170 C1168 0.961 . S
H1171 C1168 0.960 . S
C1172 N1173 1.342 . S
C1172 C1176 1.401 . S
C1172 C1177 1.499 . S
N1173 Co1156 1.989 . S
N1173 C1172 1.342 . S
N1173 N1174 1.388 . S
N1174 Co1157 1.993 . S
N1174 N1173 1.388 . S
N1174 C1175 1.346 . S
C1175 N1174 1.346 . S
C1175 C1176 1.396 . S
C1175 C1185 1.510 . S
C1176 C1172 1.401 . S
C1176 C1175 1.396 . S
C1177 C1172 1.499 . S
C1177 H1178 0.959 . S
C1177 H1179 0.960 . S
C1177 H1180 0.961 . S
H1178 C1177 0.959 . S
H1179 C1177 0.960 . S
H1180 C1177 0.961 . S
O1181 Co1156 1.967 . S
O1181 C1189 1.258 . S
O1182 Co1157 1.941 . S
O1182 C1189 1.266 . S
H1183 C1185 0.959 . S
H1184 C1185 0.961 . S
C1185 C1175 1.510 . S
C1185 H1183 0.959 . S
C1185 H1184 0.961 . S
C1185 H1186 0.960 . S
H1186 C1185 0.960 . S
H1187 N1167 0.862 . S
O1188 Co1156 1.920 . S
O1188 C1161 1.289 . S
C1189 O1181 1.258 . S
C1189 O1182 1.266 . S
Co1190 O1193 1.970 . S
Co1190 N1207 1.989 . S
Co1190 O1215 1.967 . S
Co1190 O1222 1.920 . S
Co1191 O1194 1.966 . S
Co1191 N1200 2.022 . S
Co1191 N1208 1.993 . S
Co1191 O1216 1.941 . S
C1192 O1193 1.258 . S
C1192 O1194 1.263 . S
O1193 Co1190 1.970 . S
O1193 C1192 1.258 . S
O1194 Co1191 1.966 . S
O1194 C1192 1.263 . S
C1195 O1196 1.235 . S
C1195 O1222 1.289 . S
O1196 C1195 1.235 . S
C1197 C1199 1.400 . S
C1197 N1200 1.351 . S
C1197 C1202 1.501 . S
C1198 C1199 1.387 . S
C1198 N1201 1.341 . S
C1199 C1197 1.400 . S
C1199 C1198 1.387 . S
N1200 Co1191 2.022 . S
N1200 C1197 1.351 . S
N1200 N1201 1.365 . S
N1201 C1198 1.341 . S
N1201 N1200 1.365 . S
N1201 H1221 0.862 . S
C1202 C1197 1.501 . S
C1202 H1203 0.961 . S
C1202 H1204 0.961 . S
C1202 H1205 0.960 . S
H1203 C1202 0.961 . S
H1204 C1202 0.961 . S
H1205 C1202 0.960 . S
C1206 N1207 1.342 . S
C1206 C1210 1.401 . S
C1206 C1211 1.499 . S
N1207 Co1190 1.989 . S
N1207 C1206 1.342 . S
N1207 N1208 1.388 . S
N1208 Co1191 1.993 . S
N1208 N1207 1.388 . S
N1208 C1209 1.346 . S
C1209 N1208 1.346 . S
C1209 C1210 1.396 . S
C1209 C1219 1.510 . S
C1210 C1206 1.401 . S
C1210 C1209 1.396 . S
C1211 C1206 1.499 . S
C1211 H1212 0.959 . S
C1211 H1213 0.960 . S
C1211 H1214 0.961 . S
H1212 C1211 0.959 . S
H1213 C1211 0.960 . S
H1214 C1211 0.961 . S
O1215 Co1190 1.967 . S
O1215 C1223 1.258 . S
O1216 Co1191 1.941 . S
O1216 C1223 1.266 . S
H1217 C1219 0.959 . S
H1218 C1219 0.961 . S
C1219 C1209 1.510 . S
C1219 H1217 0.959 . S
C1219 H1218 0.961 . S
C1219 H1220 0.960 . S
H1220 C1219 0.960 . S
H1221 N1201 0.862 . S
O1222 Co1190 1.920 . S
O1222 C1195 1.289 . S
C1223 O1215 1.258 . S
C1223 O1216 1.266 . S
H1224 C1232 0.950 . S
H1225 C1237 0.950 . S
H1226 C1234 0.950 . S
H1227 C1236 0.950 . S
H1228 C1238 0.950 . S
H1229 C1240 0.950 . S
H1230 C1242 0.950 . S
H1231 C1243 0.950 . S
C1232 H1224 0.950 . S
C1232 C1233 1.386 . S
C1232 C1234 1.391 . S
C1233 C1232 1.386 . S
C1233 C1237 1.393 . S
C1234 H1226 0.950 . S
C1234 C1232 1.391 . S
C1234 C1235 1.400 . S
C1235 C1234 1.400 . S
C1235 C1236 1.398 . S
C1235 C1241 1.491 . S
C1236 H1227 0.950 . S
C1236 C1235 1.398 . S
C1236 C1237 1.391 . S
C1237 H1225 0.950 . S
C1237 C1233 1.393 . S
C1237 C1236 1.391 . S
C1238 H1228 0.950 . S
C1238 C1239 1.386 . S
C1238 C1240 1.391 . S
C1239 C1238 1.386 . S
C1239 C1243 1.393 . S
C1240 H1229 0.950 . S
C1240 C1238 1.391 . S
C1240 C1241 1.400 . S
C1241 C1235 1.491 . S
C1241 C1240 1.400 . S
C1241 C1242 1.398 . S
C1242 H1230 0.950 . S
C1242 C1241 1.398 . S
C1242 C1243 1.391 . S
C1243 H1231 0.950 . S
C1243 C1239 1.393 . S
C1243 C1242 1.391 . S
H1244 C1252 0.960 . S
H1245 C1257 0.950 . S
H1246 C1254 0.950 . S
H1247 C1256 0.950 . S
H1248 C1258 0.960 . S
H1249 C1260 0.950 . S
H1250 C1262 0.950 . S
H1251 C1263 0.950 . S
C1252 H1244 0.960 . S
C1252 C1253 1.373 1_565 S
C1252 C1254 1.394 . S
C1253 C1252 1.373 1_545 S
C1253 C1257 1.393 . S
C1254 H1246 0.950 . S
C1254 C1252 1.394 . S
C1254 C1255 1.400 1_565 S
C1255 C1254 1.400 1_545 S
C1255 C1256 1.398 . S
C1255 C1261 1.491 1_545 S
C1256 H1247 0.950 . S
C1256 C1255 1.398 . S
C1256 C1257 1.391 . S
C1257 H1245 0.950 . S
C1257 C1253 1.393 . S
C1257 C1256 1.391 . S
C1258 H1248 0.960 . S
C1258 C1259 1.372 1_545 S
C1258 C1260 1.394 . S
C1259 C1258 1.372 1_565 S
C1259 C1263 1.393 . S
C1260 H1249 0.950 . S
C1260 C1258 1.394 . S
C1260 C1261 1.400 1_545 S
C1261 C1255 1.491 1_565 S
C1261 C1260 1.400 1_565 S
C1261 C1262 1.398 . S
C1262 H1250 0.950 . S
C1262 C1261 1.398 . S
C1262 C1263 1.391 . S
C1263 H1251 0.950 . S
C1263 C1259 1.393 . S
C1263 C1262 1.391 . S
H1264 C1272 0.950 . S
H1265 C1277 0.950 . S
H1266 C1274 0.950 . S
H1267 C1276 0.950 . S
H1268 C1278 0.950 . S
H1269 C1280 0.950 . S
H1270 C1282 0.950 . S
H1271 C1283 0.950 . S
C1272 H1264 0.950 . S
C1272 C1273 1.386 . S
C1272 C1274 1.391 . S
C1273 C1272 1.386 . S
C1273 C1277 1.393 1_455 S
C1274 H1266 0.950 . S
C1274 C1272 1.391 . S
C1274 C1275 1.400 . S
C1275 C1274 1.400 . S
C1275 C1276 1.398 1_455 S
C1275 C1281 1.491 1_455 S
C1276 H1267 0.950 . S
C1276 C1275 1.398 1_655 S
C1276 C1277 1.391 . S
C1277 H1265 0.950 . S
C1277 C1273 1.393 1_655 S
C1277 C1276 1.391 . S
C1278 H1268 0.950 . S
C1278 C1279 1.386 . S
C1278 C1280 1.391 . S
C1279 C1278 1.386 . S
C1279 C1283 1.393 1_655 S
C1280 H1269 0.950 . S
C1280 C1278 1.391 . S
C1280 C1281 1.400 . S
C1281 C1275 1.491 1_655 S
C1281 C1280 1.400 . S
C1281 C1282 1.398 1_655 S
C1282 H1270 0.950 . S
C1282 C1281 1.398 1_455 S
C1282 C1283 1.391 . S
C1283 H1271 0.950 . S
C1283 C1279 1.393 1_455 S
C1283 C1282 1.391 . S
H1284 C1292 0.950 . S
H1285 C1297 0.950 . S
H1286 C1294 0.950 . S
H1287 C1296 0.950 . S
H1288 C1298 0.950 . S
H1289 C1300 0.950 . S
H1290 C1302 0.950 . S
H1291 C1303 0.950 . S
C1292 H1284 0.950 . S
C1292 C1293 1.386 . S
C1292 C1294 1.391 . S
C1293 C1292 1.386 . S
C1293 C1297 1.393 . S
C1294 H1286 0.950 . S
C1294 C1292 1.391 . S
C1294 C1295 1.400 . S
C1295 C1294 1.400 . S
C1295 C1296 1.398 . S
C1295 C1301 1.491 . S
C1296 H1287 0.950 . S
C1296 C1295 1.398 . S
C1296 C1297 1.391 . S
C1297 H1285 0.950 . S
C1297 C1293 1.393 . S
C1297 C1296 1.391 . S
C1298 H1288 0.950 . S
C1298 C1299 1.386 . S
C1298 C1300 1.391 . S
C1299 C1298 1.386 . S
C1299 C1303 1.393 . S
C1300 H1289 0.950 . S
C1300 C1298 1.391 . S
C1300 C1301 1.400 . S
C1301 C1295 1.491 . S
C1301 C1300 1.400 . S
C1301 C1302 1.398 . S
C1302 H1290 0.950 . S
C1302 C1301 1.398 . S
C1302 C1303 1.391 . S
C1303 H1291 0.950 . S
C1303 C1299 1.393 . S
C1303 C1302 1.391 . S
H1304 C1312 0.950 . S
H1305 C1317 0.950 . S
H1306 C1314 0.950 . S
H1307 C1316 0.950 . S
H1308 C1318 0.950 . S
H1309 C1320 0.950 . S
H1310 C1322 0.950 . S
H1311 C1323 0.950 . S
C1312 H1304 0.950 . S
C1312 C1313 1.386 1_545 S
C1312 C1314 1.391 . S
C1313 C1312 1.386 1_565 S
C1313 C1317 1.393 . S
C1314 H1306 0.950 . S
C1314 C1312 1.391 . S
C1314 C1315 1.400 1_545 S
C1315 C1314 1.400 1_565 S
C1315 C1316 1.398 . S
C1315 C1321 1.491 1_565 S
C1316 H1307 0.950 . S
C1316 C1315 1.398 . S
C1316 C1317 1.391 . S
C1317 H1305 0.950 . S
C1317 C1313 1.393 . S
C1317 C1316 1.391 . S
C1318 H1308 0.950 . S
C1318 C1319 1.386 1_565 S
C1318 C1320 1.391 . S
C1319 C1318 1.386 1_545 S
C1319 C1323 1.393 . S
C1320 H1309 0.950 . S
C1320 C1318 1.391 . S
C1320 C1321 1.400 1_565 S
C1321 C1315 1.491 1_545 S
C1321 C1320 1.400 1_545 S
C1321 C1322 1.398 . S
C1322 H1310 0.950 . S
C1322 C1321 1.398 . S
C1322 C1323 1.391 . S
C1323 H1311 0.950 . S
C1323 C1319 1.393 . S
C1323 C1322 1.391 . S
H1324 C1332 0.950 . S
H1325 C1337 0.950 . S
H1326 C1334 0.950 . S
H1327 C1336 0.950 . S
H1328 C1338 0.950 . S
H1329 C1340 0.950 . S
H1330 C1342 0.950 . S
H1331 C1343 0.950 . S
C1332 H1324 0.950 . S
C1332 C1333 1.386 1_455 S
C1332 C1334 1.391 . S
C1333 C1332 1.386 1_655 S
C1333 C1337 1.393 . S
C1334 H1326 0.950 . S
C1334 C1332 1.391 . S
C1334 C1335 1.400 1_455 S
C1335 C1334 1.400 1_655 S
C1335 C1336 1.398 . S
C1335 C1341 1.491 1_655 S
C1336 H1327 0.950 . S
C1336 C1335 1.398 . S
C1336 C1337 1.391 . S
C1337 H1325 0.950 . S
C1337 C1333 1.393 . S
C1337 C1336 1.391 . S
C1338 H1328 0.950 . S
C1338 C1339 1.386 1_655 S
C1338 C1340 1.391 . S
C1339 C1338 1.386 1_455 S
C1339 C1343 1.393 . S
C1340 H1329 0.950 . S
C1340 C1338 1.391 . S
C1340 C1341 1.400 1_655 S
C1341 C1335 1.491 1_455 S
C1341 C1340 1.400 1_455 S
C1341 C1342 1.398 . S
C1342 H1330 0.950 . S
C1342 C1341 1.398 . S
C1342 C1343 1.391 . S
C1343 H1331 0.950 . S
C1343 C1339 1.393 . S
C1343 C1342 1.391 . S
H1344 C1352 0.950 . S
H1345 C1357 0.950 . S
H1346 C1354 0.950 . S
H1347 C1356 0.950 . S
H1348 C1358 0.950 . S
H1349 C1360 0.950 . S
H1350 C1362 0.950 . S
H1351 C1363 0.950 . S
C1352 H1344 0.950 . S
C1352 C1353 1.386 . S
C1352 C1354 1.391 . S
C1353 C1352 1.386 . S
C1353 C1357 1.393 . S
C1354 H1346 0.950 . S
C1354 C1352 1.391 . S
C1354 C1355 1.400 . S
C1355 C1354 1.400 . S
C1355 C1356 1.398 . S
C1355 C1361 1.491 . S
C1356 H1347 0.950 . S
C1356 C1355 1.398 . S
C1356 C1357 1.391 . S
C1357 H1345 0.950 . S
C1357 C1353 1.393 . S
C1357 C1356 1.391 . S
C1358 H1348 0.950 . S
C1358 C1359 1.386 . S
C1358 C1360 1.391 . S
C1359 C1358 1.386 . S
C1359 C1363 1.393 . S
C1360 H1349 0.950 . S
C1360 C1358 1.391 . S
C1360 C1361 1.400 . S
C1361 C1355 1.491 . S
C1361 C1360 1.400 . S
C1361 C1362 1.398 . S
C1362 H1350 0.950 . S
C1362 C1361 1.398 . S
C1362 C1363 1.391 . S
C1363 H1351 0.950 . S
C1363 C1359 1.393 . S
C1363 C1362 1.391 . S
H1364 C1372 0.950 . S
H1365 C1377 0.950 . S
H1366 C1374 0.950 . S
H1367 C1376 0.950 . S
H1368 C1378 0.950 . S
H1369 C1380 0.950 . S
H1370 C1382 0.950 . S
H1371 C1383 0.950 . S
C1372 H1364 0.950 . S
C1372 C1373 1.386 . S
C1372 C1374 1.391 . S
C1373 C1372 1.386 . S
C1373 C1377 1.393 . S
C1374 H1366 0.950 . S
C1374 C1372 1.391 . S
C1374 C1375 1.400 . S
C1375 C1374 1.400 . S
C1375 C1376 1.398 . S
C1375 C1381 1.491 . S
C1376 H1367 0.950 . S
C1376 C1375 1.398 . S
C1376 C1377 1.391 . S
C1377 H1365 0.950 . S
C1377 C1373 1.393 . S
C1377 C1376 1.391 . S
C1378 H1368 0.950 . S
C1378 C1379 1.386 . S
C1378 C1380 1.391 . S
C1379 C1378 1.386 . S
C1379 C1383 1.393 . S
C1380 H1369 0.950 . S
C1380 C1378 1.391 . S
C1380 C1381 1.400 . S
C1381 C1375 1.491 . S
C1381 C1380 1.400 . S
C1381 C1382 1.398 . S
C1382 H1370 0.950 . S
C1382 C1381 1.398 . S
C1382 C1383 1.391 . S
C1383 H1371 0.950 . S
C1383 C1379 1.393 . S
C1383 C1382 1.391 . S
H1384 C1392 0.950 . S
H1385 C1397 0.950 . S
H1386 C1394 0.950 . S
H1387 C1396 0.950 . S
H1388 C1398 0.950 . S
H1389 C1400 0.950 . S
H1390 C1402 0.950 . S
H1391 C1403 0.950 . S
C1392 H1384 0.950 . S
C1392 C1393 1.386 . S
C1392 C1394 1.391 . S
C1393 C1392 1.386 . S
C1393 C1397 1.393 . S
C1394 H1386 0.950 . S
C1394 C1392 1.391 . S
C1394 C1395 1.400 . S
C1395 C1394 1.400 . S
C1395 C1396 1.398 . S
C1395 C1401 1.491 . S
C1396 H1387 0.950 . S
C1396 C1395 1.398 . S
C1396 C1397 1.391 . S
C1397 H1385 0.950 . S
C1397 C1393 1.393 . S
C1397 C1396 1.391 . S
C1398 H1388 0.950 . S
C1398 C1399 1.386 . S
C1398 C1400 1.391 . S
C1399 C1398 1.386 . S
C1399 C1403 1.393 . S
C1400 H1389 0.950 . S
C1400 C1398 1.391 . S
C1400 C1401 1.400 . S
C1401 C1395 1.491 . S
C1401 C1400 1.400 . S
C1401 C1402 1.398 . S
C1402 H1390 0.950 . S
C1402 C1401 1.398 . S
C1402 C1403 1.391 . S
C1403 H1391 0.950 . S
C1403 C1399 1.393 . S
C1403 C1402 1.391 . S
H1404 C1412 0.950 . S
H1405 C1417 0.950 . S
H1406 C1414 0.950 . S
H1407 C1416 0.950 . S
H1408 C1418 0.950 . S
H1409 C1420 0.950 . S
H1410 C1422 0.950 . S
H1411 C1423 0.950 . S
C1412 H1404 0.950 . S
C1412 C1413 1.386 . S
C1412 C1414 1.391 . S
C1413 C1412 1.386 . S
C1413 C1417 1.393 . S
C1414 H1406 0.950 . S
C1414 C1412 1.391 . S
C1414 C1415 1.400 . S
C1415 C1414 1.400 . S
C1415 C1416 1.398 . S
C1415 C1421 1.491 . S
C1416 H1407 0.950 . S
C1416 C1415 1.398 . S
C1416 C1417 1.391 . S
C1417 H1405 0.950 . S
C1417 C1413 1.393 . S
C1417 C1416 1.391 . S
C1418 H1408 0.950 . S
C1418 C1419 1.386 . S
C1418 C1420 1.391 . S
C1419 C1418 1.386 . S
C1419 C1423 1.393 . S
C1420 H1409 0.950 . S
C1420 C1418 1.391 . S
C1420 C1421 1.400 . S
C1421 C1415 1.491 . S
C1421 C1420 1.400 . S
C1421 C1422 1.398 . S
C1422 H1410 0.950 . S
C1422 C1421 1.398 . S
C1422 C1423 1.391 . S
C1423 H1411 0.950 . S
C1423 C1419 1.393 . S
C1423 C1422 1.391 . S
H1424 C1432 0.950 . S
H1425 C1437 0.950 . S
H1426 C1434 0.950 . S
H1427 C1436 0.950 . S
H1428 C1438 0.950 . S
H1429 C1440 0.950 . S
H1430 C1442 0.950 . S
H1431 C1443 0.950 . S
C1432 H1424 0.950 . S
C1432 C1433 1.386 . S
C1432 C1434 1.391 . S
C1433 C1432 1.386 . S
C1433 C1437 1.393 . S
C1434 H1426 0.950 . S
C1434 C1432 1.391 . S
C1434 C1435 1.400 . S
C1435 C1434 1.400 . S
C1435 C1436 1.398 . S
C1435 C1441 1.491 . S
C1436 H1427 0.950 . S
C1436 C1435 1.398 . S
C1436 C1437 1.391 . S
C1437 H1425 0.950 . S
C1437 C1433 1.393 . S
C1437 C1436 1.391 . S
C1438 H1428 0.950 . S
C1438 C1439 1.386 . S
C1438 C1440 1.391 . S
C1439 C1438 1.386 . S
C1439 C1443 1.393 . S
C1440 H1429 0.950 . S
C1440 C1438 1.391 . S
C1440 C1441 1.400 . S
C1441 C1435 1.491 . S
C1441 C1440 1.400 . S
C1441 C1442 1.398 . S
C1442 H1430 0.950 . S
C1442 C1441 1.398 . S
C1442 C1443 1.391 . S
C1443 H1431 0.950 . S
C1443 C1439 1.393 . S
C1443 C1442 1.391 . S
H1444 C1452 0.950 . S
H1445 C1457 0.950 . S
H1446 C1454 0.950 . S
H1447 C1456 0.950 . S
H1448 C1458 0.950 . S
H1449 C1460 0.950 . S
H1450 C1462 0.950 . S
H1451 C1463 0.950 . S
C1452 H1444 0.950 . S
C1452 C1453 1.386 . S
C1452 C1454 1.391 . S
C1453 C1452 1.386 . S
C1453 C1457 1.393 . S
C1454 H1446 0.950 . S
C1454 C1452 1.391 . S
C1454 C1455 1.400 . S
C1455 C1454 1.400 . S
C1455 C1456 1.398 . S
C1455 C1461 1.491 . S
C1456 H1447 0.950 . S
C1456 C1455 1.398 . S
C1456 C1457 1.391 . S
C1457 H1445 0.950 . S
C1457 C1453 1.393 . S
C1457 C1456 1.391 . S
C1458 H1448 0.950 . S
C1458 C1459 1.386 . S
C1458 C1460 1.391 . S
C1459 C1458 1.386 . S
C1459 C1463 1.393 . S
C1460 H1449 0.950 . S
C1460 C1458 1.391 . S
C1460 C1461 1.400 . S
C1461 C1455 1.491 . S
C1461 C1460 1.400 . S
C1461 C1462 1.398 . S
C1462 H1450 0.950 . S
C1462 C1461 1.398 . S
C1462 C1463 1.391 . S
C1463 H1451 0.950 . S
C1463 C1459 1.393 . S
C1463 C1462 1.391 . S
H1464 C1472 0.950 . S
H1465 C1477 0.950 . S
H1466 C1474 0.950 . S
H1467 C1476 0.950 . S
H1468 C1478 0.950 . S
H1469 C1480 0.950 . S
H1470 C1482 0.950 . S
H1471 C1483 0.950 . S
C1472 H1464 0.950 . S
C1472 C1473 1.386 . S
C1472 C1474 1.391 . S
C1473 C1472 1.386 . S
C1473 C1477 1.393 . S
C1474 H1466 0.950 . S
C1474 C1472 1.391 . S
C1474 C1475 1.400 . S
C1475 C1474 1.400 . S
C1475 C1476 1.398 . S
C1475 C1481 1.491 . S
C1476 H1467 0.950 . S
C1476 C1475 1.398 . S
C1476 C1477 1.391 . S
C1477 H1465 0.950 . S
C1477 C1473 1.393 . S
C1477 C1476 1.391 . S
C1478 H1468 0.950 . S
C1478 C1479 1.386 . S
C1478 C1480 1.391 . S
C1479 C1478 1.386 . S
C1479 C1483 1.393 . S
C1480 H1469 0.950 . S
C1480 C1478 1.391 . S
C1480 C1481 1.400 . S
C1481 C1475 1.491 . S
C1481 C1480 1.400 . S
C1481 C1482 1.398 . S
C1482 H1470 0.950 . S
C1482 C1481 1.398 . S
C1482 C1483 1.391 . S
C1483 H1471 0.950 . S
C1483 C1479 1.393 . S
C1483 C1482 1.391 . S
H1484 C1492 0.950 . S
H1485 C1497 0.950 . S
H1486 C1494 0.950 . S
H1487 C1496 0.950 . S
H1488 C1498 0.950 . S
H1489 C1500 0.950 . S
H1490 C1502 0.950 . S
H1491 C1503 0.950 . S
C1492 H1484 0.950 . S
C1492 C1493 1.386 . S
C1492 C1494 1.391 . S
C1493 C1492 1.386 . S
C1493 C1497 1.393 . S
C1494 H1486 0.950 . S
C1494 C1492 1.391 . S
C1494 C1495 1.400 . S
C1495 C1494 1.400 . S
C1495 C1496 1.398 . S
C1495 C1501 1.491 . S
C1496 H1487 0.950 . S
C1496 C1495 1.398 . S
C1496 C1497 1.391 . S
C1497 H1485 0.950 . S
C1497 C1493 1.393 . S
C1497 C1496 1.391 . S
C1498 H1488 0.950 . S
C1498 C1499 1.386 . S
C1498 C1500 1.391 . S
C1499 C1498 1.386 . S
C1499 C1503 1.393 . S
C1500 H1489 0.950 . S
C1500 C1498 1.391 . S
C1500 C1501 1.400 . S
C1501 C1495 1.491 . S
C1501 C1500 1.400 . S
C1501 C1502 1.398 . S
C1502 H1490 0.950 . S
C1502 C1501 1.398 . S
C1502 C1503 1.391 . S
C1503 H1491 0.950 . S
C1503 C1499 1.393 . S
C1503 C1502 1.391 . S
H1504 C1512 0.950 . S
H1505 C1517 0.950 . S
H1506 C1514 0.950 . S
H1507 C1516 0.950 . S
H1508 C1518 0.950 . S
H1509 C1520 0.950 . S
H1510 C1522 0.950 . S
H1511 C1523 0.950 . S
C1512 H1504 0.950 . S
C1512 C1513 1.386 . S
C1512 C1514 1.391 . S
C1513 C1512 1.386 . S
C1513 C1517 1.393 . S
C1514 H1506 0.950 . S
C1514 C1512 1.391 . S
C1514 C1515 1.400 . S
C1515 C1514 1.400 . S
C1515 C1516 1.398 . S
C1515 C1521 1.491 . S
C1516 H1507 0.950 . S
C1516 C1515 1.398 . S
C1516 C1517 1.391 . S
C1517 H1505 0.950 . S
C1517 C1513 1.393 . S
C1517 C1516 1.391 . S
C1518 H1508 0.950 . S
C1518 C1519 1.386 . S
C1518 C1520 1.391 . S
C1519 C1518 1.386 . S
C1519 C1523 1.393 . S
C1520 H1509 0.950 . S
C1520 C1518 1.391 . S
C1520 C1521 1.400 . S
C1521 C1515 1.491 . S
C1521 C1520 1.400 . S
C1521 C1522 1.398 . S
C1522 H1510 0.950 . S
C1522 C1521 1.398 . S
C1522 C1523 1.391 . S
C1523 H1511 0.950 . S
C1523 C1519 1.393 . S
C1523 C1522 1.391 . S
H1524 C1532 0.950 . S
H1525 C1537 0.950 . S
H1526 C1534 0.950 . S
H1527 C1536 0.950 . S
H1528 C1538 0.950 . S
H1529 C1540 0.950 . S
H1530 C1542 0.950 . S
H1531 C1543 0.950 . S
C1532 H1524 0.950 . S
C1532 C1533 1.386 . S
C1532 C1534 1.391 . S
C1533 C1532 1.386 . S
C1533 C1537 1.393 . S
C1534 H1526 0.950 . S
C1534 C1532 1.391 . S
C1534 C1535 1.400 . S
C1535 C1534 1.400 . S
C1535 C1536 1.398 . S
C1535 C1541 1.491 . S
C1536 H1527 0.950 . S
C1536 C1535 1.398 . S
C1536 C1537 1.391 . S
C1537 H1525 0.950 . S
C1537 C1533 1.393 . S
C1537 C1536 1.391 . S
C1538 H1528 0.950 . S
C1538 C1539 1.386 . S
C1538 C1540 1.391 . S
C1539 C1538 1.386 . S
C1539 C1543 1.393 . S
C1540 H1529 0.950 . S
C1540 C1538 1.391 . S
C1540 C1541 1.400 . S
C1541 C1535 1.491 . S
C1541 C1540 1.400 . S
C1541 C1542 1.398 . S
C1542 H1530 0.950 . S
C1542 C1541 1.398 . S
C1542 C1543 1.391 . S
C1543 H1531 0.950 . S
C1543 C1539 1.393 . S
C1543 C1542 1.391 . S
H1544 C1552 0.950 . S
H1545 C1557 0.950 . S
H1546 C1554 0.950 . S
H1547 C1556 0.950 . S
H1548 C1558 0.950 . S
H1549 C1560 0.950 . S
H1550 C1562 0.950 . S
H1551 C1563 0.950 . S
C1552 H1544 0.950 . S
C1552 C1553 1.386 . S
C1552 C1554 1.391 . S
C1553 C1552 1.386 . S
C1553 C1557 1.393 . S
C1554 H1546 0.950 . S
C1554 C1552 1.391 . S
C1554 C1555 1.400 . S
C1555 C1554 1.400 . S
C1555 C1556 1.398 . S
C1555 C1561 1.491 . S
C1556 H1547 0.950 . S
C1556 C1555 1.398 . S
C1556 C1557 1.391 . S
C1557 H1545 0.950 . S
C1557 C1553 1.393 . S
C1557 C1556 1.391 . S
C1558 H1548 0.950 . S
C1558 C1559 1.386 . S
C1558 C1560 1.391 . S
C1559 C1558 1.386 . S
C1559 C1563 1.393 . S
C1560 H1549 0.950 . S
C1560 C1558 1.391 . S
C1560 C1561 1.400 . S
C1561 C1555 1.491 . S
C1561 C1560 1.400 . S
C1561 C1562 1.398 . S
C1562 H1550 0.950 . S
C1562 C1561 1.398 . S
C1562 C1563 1.391 . S
C1563 H1551 0.950 . S
C1563 C1559 1.393 . S
C1563 C1562 1.391 . S
H1564 C1572 0.950 . S
H1565 C1577 0.950 . S
H1566 C1574 0.950 . S
H1567 C1576 0.950 . S
H1568 C1578 0.950 . S
H1569 C1580 0.950 . S
H1570 C1582 0.950 . S
H1571 C1583 0.950 . S
C1572 H1564 0.950 . S
C1572 C1573 1.386 . S
C1572 C1574 1.391 . S
C1573 C1572 1.386 . S
C1573 C1577 1.393 . S
C1574 H1566 0.950 . S
C1574 C1572 1.391 . S
C1574 C1575 1.400 . S
C1575 C1574 1.400 . S
C1575 C1576 1.398 . S
C1575 C1581 1.491 . S
C1576 H1567 0.950 . S
C1576 C1575 1.398 . S
C1576 C1577 1.391 . S
C1577 H1565 0.950 . S
C1577 C1573 1.393 . S
C1577 C1576 1.391 . S
C1578 H1568 0.950 . S
C1578 C1579 1.386 . S
C1578 C1580 1.391 . S
C1579 C1578 1.386 . S
C1579 C1583 1.393 . S
C1580 H1569 0.950 . S
C1580 C1578 1.391 . S
C1580 C1581 1.400 . S
C1581 C1575 1.491 . S
C1581 C1580 1.400 . S
C1581 C1582 1.398 . S
C1582 H1570 0.950 . S
C1582 C1581 1.398 . S
C1582 C1583 1.391 . S
C1583 H1571 0.950 . S
C1583 C1579 1.393 . S
C1583 C1582 1.391 . S
H1584 C1592 0.950 . S
H1585 C1597 0.950 . S
H1586 C1594 0.950 . S
H1587 C1596 0.950 . S
H1588 C1598 0.950 . S
H1589 C1600 0.950 . S
H1590 C1602 0.950 . S
H1591 C1603 0.950 . S
C1592 H1584 0.950 . S
C1592 C1593 1.386 . S
C1592 C1594 1.391 . S
C1593 C1592 1.386 . S
C1593 C1597 1.393 . S
C1594 H1586 0.950 . S
C1594 C1592 1.391 . S
C1594 C1595 1.400 . S
C1595 C1594 1.400 . S
C1595 C1596 1.398 . S
C1595 C1601 1.491 . S
C1596 H1587 0.950 . S
C1596 C1595 1.398 . S
C1596 C1597 1.391 . S
C1597 H1585 0.950 . S
C1597 C1593 1.393 . S
C1597 C1596 1.391 . S
C1598 H1588 0.950 . S
C1598 C1599 1.386 . S
C1598 C1600 1.391 . S
C1599 C1598 1.386 . S
C1599 C1603 1.393 . S
C1600 H1589 0.950 . S
C1600 C1598 1.391 . S
C1600 C1601 1.400 . S
C1601 C1595 1.491 . S
C1601 C1600 1.400 . S
C1601 C1602 1.398 . S
C1602 H1590 0.950 . S
C1602 C1601 1.398 . S
C1602 C1603 1.391 . S
C1603 H1591 0.950 . S
C1603 C1599 1.393 . S
C1603 C1602 1.391 . S
H1604 C1612 0.950 . S
H1605 C1617 0.950 . S
H1606 C1614 0.950 . S
H1607 C1616 0.950 . S
H1608 C1618 0.950 . S
H1609 C1620 0.950 . S
H1610 C1622 0.950 1_545 S
H1611 C1623 0.950 . S
C1612 H1604 0.950 . S
C1612 C1613 1.386 . S
C1612 C1614 1.391 . S
C1613 C1612 1.386 . S
C1613 C1617 1.393 . S
C1614 H1606 0.950 . S
C1614 C1612 1.391 . S
C1614 C1615 1.400 . S
C1615 C1614 1.400 . S
C1615 C1616 1.398 . S
C1615 C1621 1.491 . S
C1616 H1607 0.950 . S
C1616 C1615 1.398 . S
C1616 C1617 1.391 . S
C1617 H1605 0.950 . S
C1617 C1613 1.393 . S
C1617 C1616 1.391 . S
C1618 H1608 0.950 . S
C1618 C1619 1.386 . S
C1618 C1620 1.391 . S
C1619 C1618 1.386 . S
C1619 C1623 1.393 1_565 S
C1620 H1609 0.950 . S
C1620 C1618 1.391 . S
C1620 C1621 1.400 . S
C1621 C1615 1.491 . S
C1621 C1620 1.400 . S
C1621 C1622 1.398 . S
C1622 H1610 0.950 1_565 S
C1622 C1621 1.398 . S
C1622 C1623 1.391 1_565 S
C1623 H1611 0.950 . S
C1623 C1619 1.393 1_545 S
C1623 C1622 1.391 1_545 S
H1624 C1632 0.950 . S
H1625 C1637 0.950 . S
H1626 C1634 0.950 . S
H1627 C1636 0.950 . S
H1628 C1638 0.950 . S
H1629 C1640 0.950 . S
H1630 C1642 0.950 . S
H1631 C1643 0.950 . S
C1632 H1624 0.950 . S
C1632 C1633 1.386 . S
C1632 C1634 1.391 . S
C1633 C1632 1.386 . S
C1633 C1637 1.393 1_455 S
C1634 H1626 0.950 . S
C1634 C1632 1.391 . S
C1634 C1635 1.400 . S
C1635 C1634 1.400 . S
C1635 C1636 1.398 . S
C1635 C1641 1.491 . S
C1636 H1627 0.950 . S
C1636 C1635 1.398 . S
C1636 C1637 1.391 1_455 S
C1637 H1625 0.950 . S
C1637 C1633 1.393 1_655 S
C1637 C1636 1.391 1_655 S
C1638 H1628 0.950 . S
C1638 C1639 1.386 . S
C1638 C1640 1.391 . S
C1639 C1638 1.386 . S
C1639 C1643 1.393 . S
C1640 H1629 0.950 . S
C1640 C1638 1.391 . S
C1640 C1641 1.400 . S
C1641 C1635 1.491 . S
C1641 C1640 1.400 . S
C1641 C1642 1.398 . S
C1642 H1630 0.950 . S
C1642 C1641 1.398 . S
C1642 C1643 1.391 . S
C1643 H1631 0.950 . S
C1643 C1639 1.393 . S
C1643 C1642 1.391 . S
H1644 C1652 0.950 . S
H1645 C1657 0.950 . S
H1646 C1654 0.950 . S
H1647 C1656 0.950 . S
H1648 C1658 0.950 . S
H1649 C1660 0.950 . S
H1650 C1662 0.950 . S
H1651 C1663 0.950 . S
C1652 H1644 0.950 . S
C1652 C1653 1.386 . S
C1652 C1654 1.391 . S
C1653 C1652 1.386 . S
C1653 C1657 1.393 . S
C1654 H1646 0.950 . S
C1654 C1652 1.391 . S
C1654 C1655 1.400 . S
C1655 C1654 1.400 . S
C1655 C1656 1.398 . S
C1655 C1661 1.491 . S
C1656 H1647 0.950 . S
C1656 C1655 1.398 . S
C1656 C1657 1.391 . S
C1657 H1645 0.950 . S
C1657 C1653 1.393 . S
C1657 C1656 1.391 . S
C1658 H1648 0.950 . S
C1658 C1659 1.386 . S
C1658 C1660 1.391 . S
C1659 C1658 1.386 . S
C1659 C1663 1.393 . S
C1660 H1649 0.950 . S
C1660 C1658 1.391 . S
C1660 C1661 1.400 . S
C1661 C1655 1.491 . S
C1661 C1660 1.400 . S
C1661 C1662 1.398 . S
C1662 H1650 0.950 . S
C1662 C1661 1.398 . S
C1662 C1663 1.391 . S
C1663 H1651 0.950 . S
C1663 C1659 1.393 . S
C1663 C1662 1.391 . S
H1664 C1672 0.950 . S
H1665 C1677 0.950 . S
H1666 C1674 0.950 . S
H1667 C1676 0.950 1_565 S
H1668 C1678 0.950 . S
H1669 C1680 0.950 . S
H1670 C1682 0.950 . S
H1671 C1683 0.950 . S
C1672 H1664 0.950 . S
C1672 C1673 1.386 . S
C1672 C1674 1.391 . S
C1673 C1672 1.386 . S
C1673 C1677 1.393 1_545 S
C1674 H1666 0.950 . S
C1674 C1672 1.391 . S
C1674 C1675 1.400 . S
C1675 C1674 1.400 . S
C1675 C1676 1.398 . S
C1675 C1681 1.491 . S
C1676 H1667 0.950 1_545 S
C1676 C1675 1.398 . S
C1676 C1677 1.391 1_545 S
C1677 H1665 0.950 . S
C1677 C1673 1.393 1_565 S
C1677 C1676 1.391 1_565 S
C1678 H1668 0.950 . S
C1678 C1679 1.386 . S
C1678 C1680 1.391 . S
C1679 C1678 1.386 . S
C1679 C1683 1.393 . S
C1680 H1669 0.950 . S
C1680 C1678 1.391 . S
C1680 C1681 1.400 . S
C1681 C1675 1.491 . S
C1681 C1680 1.400 . S
C1681 C1682 1.398 . S
C1682 H1670 0.950 . S
C1682 C1681 1.398 . S
C1682 C1683 1.391 . S
C1683 H1671 0.950 . S
C1683 C1679 1.393 . S
C1683 C1682 1.391 . S
H1684 C1692 0.950 . S
H1685 C1697 0.950 . S
H1686 C1694 0.950 . S
H1687 C1696 0.950 . S
H1688 C1698 0.950 1_455 S
H1689 C1700 0.950 . S
H1690 C1702 0.950 . S
H1691 C1703 0.950 . S
C1692 H1684 0.950 . S
C1692 C1693 1.386 . S
C1692 C1694 1.391 . S
C1693 C1692 1.386 . S
C1693 C1697 1.393 . S
C1694 H1686 0.950 . S
C1694 C1692 1.391 . S
C1694 C1695 1.400 . S
C1695 C1694 1.400 . S
C1695 C1696 1.398 . S
C1695 C1701 1.491 . S
C1696 H1687 0.950 . S
C1696 C1695 1.398 . S
C1696 C1697 1.391 . S
C1697 H1685 0.950 . S
C1697 C1693 1.393 . S
C1697 C1696 1.391 . S
C1698 H1688 0.950 1_655 S
C1698 C1699 1.386 . S
C1698 C1700 1.391 . S
C1699 C1698 1.386 . S
C1699 C1703 1.393 . S
C1700 H1689 0.950 . S
C1700 C1698 1.391 . S
C1700 C1701 1.400 . S
C1701 C1695 1.491 . S
C1701 C1700 1.400 . S
C1701 C1702 1.398 . S
C1702 H1690 0.950 . S
C1702 C1701 1.398 . S
C1702 C1703 1.391 . S
C1703 H1691 0.950 . S
C1703 C1699 1.393 . S
C1703 C1702 1.391 . S
H1704 C1712 0.950 . S
H1705 C1717 0.950 . S
H1706 C1714 0.950 . S
H1707 C1716 0.950 . S
H1708 C1718 0.950 . S
H1709 C1720 0.950 . S
H1710 C1722 0.950 . S
H1711 C1723 0.950 . S
C1712 H1704 0.950 . S
C1712 C1713 1.386 . S
C1712 C1714 1.391 . S
C1713 C1712 1.386 . S
C1713 C1717 1.393 . S
C1714 H1706 0.950 . S
C1714 C1712 1.391 . S
C1714 C1715 1.400 . S
C1715 C1714 1.400 . S
C1715 C1716 1.398 . S
C1715 C1721 1.491 . S
C1716 H1707 0.950 . S
C1716 C1715 1.398 . S
C1716 C1717 1.391 . S
C1717 H1705 0.950 . S
C1717 C1713 1.393 . S
C1717 C1716 1.391 . S
C1718 H1708 0.950 . S
C1718 C1719 1.386 . S
C1718 C1720 1.391 . S
C1719 C1718 1.386 . S
C1719 C1723 1.393 . S
C1720 H1709 0.950 . S
C1720 C1718 1.391 . S
C1720 C1721 1.400 . S
C1721 C1715 1.491 . S
C1721 C1720 1.400 . S
C1721 C1722 1.398 . S
C1722 H1710 0.950 . S
C1722 C1721 1.398 . S
C1722 C1723 1.391 . S
C1723 H1711 0.950 . S
C1723 C1719 1.393 . S
C1723 C1722 1.391 . S
H1724 C1732 0.950 . S
H1725 C1737 0.950 . S
H1726 C1734 0.950 . S
H1727 C1736 0.950 . S
H1728 C1738 0.950 . S
H1729 C1740 0.950 . S
H1730 C1742 0.950 1_565 S
H1731 C1743 0.950 . S
C1732 H1724 0.950 . S
C1732 C1733 1.386 . S
C1732 C1734 1.391 . S
C1733 C1732 1.386 . S
C1733 C1737 1.393 . S
C1734 H1726 0.950 . S
C1734 C1732 1.391 . S
C1734 C1735 1.400 . S
C1735 C1734 1.400 . S
C1735 C1736 1.398 . S
C1735 C1741 1.491 . S
C1736 H1727 0.950 . S
C1736 C1735 1.398 . S
C1736 C1737 1.391 . S
C1737 H1725 0.950 . S
C1737 C1733 1.393 . S
C1737 C1736 1.391 . S
C1738 H1728 0.950 . S
C1738 C1739 1.386 . S
C1738 C1740 1.391 . S
C1739 C1738 1.386 . S
C1739 C1743 1.393 1_545 S
C1740 H1729 0.950 . S
C1740 C1738 1.391 . S
C1740 C1741 1.400 . S
C1741 C1735 1.491 . S
C1741 C1740 1.400 . S
C1741 C1742 1.398 . S
C1742 H1730 0.950 1_545 S
C1742 C1741 1.398 . S
C1742 C1743 1.391 1_545 S
C1743 H1731 0.950 . S
C1743 C1739 1.393 1_565 S
C1743 C1742 1.391 1_565 S
H1744 C1752 0.950 . S
H1745 C1757 0.950 . S
H1746 C1754 0.950 . S
H1747 C1756 0.950 . S
H1748 C1758 0.950 1_455 S
H1749 C1760 0.950 . S
H1750 C1762 0.950 . S
H1751 C1763 0.950 . S
C1752 H1744 0.950 . S
C1752 C1753 1.386 . S
C1752 C1754 1.391 . S
C1753 C1752 1.386 . S
C1753 C1757 1.393 . S
C1754 H1746 0.950 . S
C1754 C1752 1.391 . S
C1754 C1755 1.400 . S
C1755 C1754 1.400 . S
C1755 C1756 1.398 . S
C1755 C1761 1.491 . S
C1756 H1747 0.950 . S
C1756 C1755 1.398 . S
C1756 C1757 1.391 . S
C1757 H1745 0.950 . S
C1757 C1753 1.393 . S
C1757 C1756 1.391 . S
C1758 H1748 0.950 1_655 S
C1758 C1759 1.386 . S
C1758 C1760 1.391 . S
C1759 C1758 1.386 . S
C1759 C1763 1.393 . S
C1760 H1749 0.950 . S
C1760 C1758 1.391 . S
C1760 C1761 1.400 . S
C1761 C1755 1.491 . S
C1761 C1760 1.400 . S
C1761 C1762 1.398 . S
C1762 H1750 0.950 . S
C1762 C1761 1.398 . S
C1762 C1763 1.391 . S
C1763 H1751 0.950 . S
C1763 C1759 1.393 . S
C1763 C1762 1.391 . S
H1764 C1772 0.950 . S
H1765 C1777 0.950 . S
H1766 C1774 0.950 . S
H1767 C1776 0.950 . S
H1768 C1778 0.950 . S
H1769 C1780 0.950 . S
H1770 C1782 0.950 . S
H1771 C1783 0.950 . S
C1772 H1764 0.950 . S
C1772 C1773 1.386 . S
C1772 C1774 1.391 . S
C1773 C1772 1.386 . S
C1773 C1777 1.393 . S
C1774 H1766 0.950 . S
C1774 C1772 1.391 . S
C1774 C1775 1.400 . S
C1775 C1774 1.400 . S
C1775 C1776 1.398 . S
C1775 C1781 1.491 . S
C1776 H1767 0.950 . S
C1776 C1775 1.398 . S
C1776 C1777 1.391 . S
C1777 H1765 0.950 . S
C1777 C1773 1.393 . S
C1777 C1776 1.391 . S
C1778 H1768 0.950 . S
C1778 C1779 1.386 . S
C1778 C1780 1.391 . S
C1779 C1778 1.386 . S
C1779 C1783 1.393 . S
C1780 H1769 0.950 . S
C1780 C1778 1.391 . S
C1780 C1781 1.400 . S
C1781 C1775 1.491 . S
C1781 C1780 1.400 . S
C1781 C1782 1.398 . S
C1782 H1770 0.950 . S
C1782 C1781 1.398 . S
C1782 C1783 1.391 . S
C1783 H1771 0.950 . S
C1783 C1779 1.393 . S
C1783 C1782 1.391 . S
H1784 C1792 0.950 . S
H1785 C1797 0.950 . S
H1786 C1794 0.950 . S
H1787 C1796 0.950 . S
H1788 C1798 0.950 . S
H1789 C1800 0.950 . S
H1790 C1802 0.950 . S
H1791 C1803 0.950 . S
C1792 H1784 0.950 . S
C1792 C1793 1.386 . S
C1792 C1794 1.391 . S
C1793 C1792 1.386 . S
C1793 C1797 1.393 . S
C1794 H1786 0.950 . S
C1794 C1792 1.391 . S
C1794 C1795 1.400 . S
C1795 C1794 1.400 . S
C1795 C1796 1.398 . S
C1795 C1801 1.491 . S
C1796 H1787 0.950 . S
C1796 C1795 1.398 . S
C1796 C1797 1.391 . S
C1797 H1785 0.950 . S
C1797 C1793 1.393 . S
C1797 C1796 1.391 . S
C1798 H1788 0.950 . S
C1798 C1799 1.386 . S
C1798 C1800 1.391 . S
C1799 C1798 1.386 . S
C1799 C1803 1.393 . S
C1800 H1789 0.950 . S
C1800 C1798 1.391 . S
C1800 C1801 1.400 . S
C1801 C1795 1.491 . S
C1801 C1800 1.400 . S
C1801 C1802 1.398 . S
C1802 H1790 0.950 . S
C1802 C1801 1.398 . S
C1802 C1803 1.391 . S
C1803 H1791 0.950 . S
C1803 C1799 1.393 . S
C1803 C1802 1.391 . S
H1804 C1812 0.950 . S
H1805 C1817 0.950 . S
H1806 C1814 0.950 1_655 S
H1807 C1816 0.950 . S
H1808 C1818 0.950 . S
H1809 C1820 0.950 . S
H1810 C1822 0.950 . S
H1811 C1823 0.950 . S
C1812 H1804 0.950 . S
C1812 C1813 1.386 1_655 S
C1812 C1814 1.391 1_655 S
C1813 C1812 1.386 1_455 S
C1813 C1817 1.393 . S
C1814 H1806 0.950 1_455 S
C1814 C1812 1.391 1_455 S
C1814 C1815 1.400 . S
C1815 C1814 1.400 . S
C1815 C1816 1.398 . S
C1815 C1821 1.491 . S
C1816 H1807 0.950 . S
C1816 C1815 1.398 . S
C1816 C1817 1.391 . S
C1817 H1805 0.950 . S
C1817 C1813 1.393 . S
C1817 C1816 1.391 . S
C1818 H1808 0.950 . S
C1818 C1819 1.386 . S
C1818 C1820 1.391 . S
C1819 C1818 1.386 . S
C1819 C1823 1.393 . S
C1820 H1809 0.950 . S
C1820 C1818 1.391 . S
C1820 C1821 1.400 . S
C1821 C1815 1.491 . S
C1821 C1820 1.400 . S
C1821 C1822 1.398 . S
C1822 H1810 0.950 . S
C1822 C1821 1.398 . S
C1822 C1823 1.391 . S
C1823 H1811 0.950 . S
C1823 C1819 1.393 . S
C1823 C1822 1.391 . S
H1824 C1832 0.950 . S
H1825 C1837 0.950 . S
H1826 C1834 0.950 . S
H1827 C1836 0.950 . S
H1828 C1838 0.950 . S
H1829 C1840 0.950 . S
H1830 C1842 0.950 . S
H1831 C1843 0.950 . S
C1832 H1824 0.950 . S
C1832 C1833 1.386 . S
C1832 C1834 1.391 . S
C1833 C1832 1.386 . S
C1833 C1837 1.393 . S
C1834 H1826 0.950 . S
C1834 C1832 1.391 . S
C1834 C1835 1.400 . S
C1835 C1834 1.400 . S
C1835 C1836 1.398 . S
C1835 C1841 1.491 1_455 S
C1836 H1827 0.950 . S
C1836 C1835 1.398 . S
C1836 C1837 1.391 . S
C1837 H1825 0.950 . S
C1837 C1833 1.393 . S
C1837 C1836 1.391 . S
C1838 H1828 0.950 . S
C1838 C1839 1.386 . S
C1838 C1840 1.391 . S
C1839 C1838 1.386 . S
C1839 C1843 1.393 . S
C1840 H1829 0.950 . S
C1840 C1838 1.391 . S
C1840 C1841 1.400 . S
C1841 C1835 1.491 1_655 S
C1841 C1840 1.400 . S
C1841 C1842 1.398 . S
C1842 H1830 0.950 . S
C1842 C1841 1.398 . S
C1842 C1843 1.391 . S
C1843 H1831 0.950 . S
C1843 C1839 1.393 . S
C1843 C1842 1.391 . S
H1844 C1852 0.950 . S
H1845 C1857 0.950 . S
H1846 C1854 0.950 . S
H1847 C1856 0.950 . S
H1848 C1858 0.950 . S
H1849 C1860 0.950 . S
H1850 C1862 0.950 . S
H1851 C1863 0.950 . S
C1852 H1844 0.950 . S
C1852 C1853 1.386 . S
C1852 C1854 1.391 . S
C1853 C1852 1.386 . S
C1853 C1857 1.393 . S
C1854 H1846 0.950 . S
C1854 C1852 1.391 . S
C1854 C1855 1.400 . S
C1855 C1854 1.400 . S
C1855 C1856 1.398 . S
C1855 C1861 1.491 . S
C1856 H1847 0.950 . S
C1856 C1855 1.398 . S
C1856 C1857 1.391 . S
C1857 H1845 0.950 . S
C1857 C1853 1.393 . S
C1857 C1856 1.391 . S
C1858 H1848 0.950 . S
C1858 C1859 1.386 . S
C1858 C1860 1.391 . S
C1859 C1858 1.386 . S
C1859 C1863 1.393 . S
C1860 H1849 0.950 . S
C1860 C1858 1.391 . S
C1860 C1861 1.400 . S
C1861 C1855 1.491 . S
C1861 C1860 1.400 . S
C1861 C1862 1.398 . S
C1862 H1850 0.950 . S
C1862 C1861 1.398 . S
C1862 C1863 1.391 . S
C1863 H1851 0.950 . S
C1863 C1859 1.393 . S
C1863 C1862 1.391 . S
H1864 C1872 0.950 . S
H1865 C1877 0.950 . S
H1866 C1874 0.950 . S
H1867 C1876 0.950 . S
H1868 C1878 0.950 . S
H1869 C1880 0.950 . S
H1870 C1882 0.950 . S
H1871 C1883 0.950 . S
C1872 H1864 0.950 . S
C1872 C1873 1.386 . S
C1872 C1874 1.391 . S
C1873 C1872 1.386 . S
C1873 C1877 1.393 . S
C1874 H1866 0.950 . S
C1874 C1872 1.391 . S
C1874 C1875 1.400 . S
C1875 C1874 1.400 . S
C1875 C1876 1.398 . S
C1875 C1881 1.491 1_565 S
C1876 H1867 0.950 . S
C1876 C1875 1.398 . S
C1876 C1877 1.391 . S
C1877 H1865 0.950 . S
C1877 C1873 1.393 . S
C1877 C1876 1.391 . S
C1878 H1868 0.950 . S
C1878 C1879 1.386 . S
C1878 C1880 1.391 . S
C1879 C1878 1.386 . S
C1879 C1883 1.393 . S
C1880 H1869 0.950 . S
C1880 C1878 1.391 . S
C1880 C1881 1.400 . S
C1881 C1875 1.491 1_545 S
C1881 C1880 1.400 . S
C1881 C1882 1.398 . S
C1882 H1870 0.950 . S
C1882 C1881 1.398 . S
C1882 C1883 1.391 . S
C1883 H1871 0.950 . S
C1883 C1879 1.393 . S
C1883 C1882 1.391 . S
H1884 C1892 0.950 . S
H1885 C1897 0.950 . S
H1886 C1894 0.950 . S
H1887 C1896 0.950 . S
H1888 C1898 0.950 . S
H1889 C1900 0.950 . S
H1890 C1902 0.950 . S
H1891 C1903 0.950 . S
C1892 H1884 0.950 . S
C1892 C1893 1.386 . S
C1892 C1894 1.391 . S
C1893 C1892 1.386 . S
C1893 C1897 1.393 . S
C1894 H1886 0.950 . S
C1894 C1892 1.391 . S
C1894 C1895 1.400 . S
C1895 C1894 1.400 . S
C1895 C1896 1.398 . S
C1895 C1901 1.491 1_545 S
C1896 H1887 0.950 . S
C1896 C1895 1.398 . S
C1896 C1897 1.391 . S
C1897 H1885 0.950 . S
C1897 C1893 1.393 . S
C1897 C1896 1.391 . S
C1898 H1888 0.950 . S
C1898 C1899 1.386 . S
C1898 C1900 1.391 . S
C1899 C1898 1.386 . S
C1899 C1903 1.393 . S
C1900 H1889 0.950 . S
C1900 C1898 1.391 . S
C1900 C1901 1.400 . S
C1901 C1895 1.491 1_565 S
C1901 C1900 1.400 . S
C1901 C1902 1.398 . S
C1902 H1890 0.950 . S
C1902 C1901 1.398 . S
C1902 C1903 1.391 . S
C1903 H1891 0.950 . S
C1903 C1899 1.393 . S
C1903 C1902 1.391 . S
H1904 C1912 0.950 . S
H1905 C1917 0.950 . S
H1906 C1914 0.950 . S
H1907 C1916 0.950 . S
H1908 C1918 0.950 . S
H1909 C1920 0.950 . S
H1910 C1922 0.950 . S
H1911 C1923 0.950 . S
C1912 H1904 0.950 . S
C1912 C1913 1.386 . S
C1912 C1914 1.391 . S
C1913 C1912 1.386 . S
C1913 C1917 1.393 . S
C1914 H1906 0.950 . S
C1914 C1912 1.391 . S
C1914 C1915 1.400 . S
C1915 C1914 1.400 . S
C1915 C1916 1.398 . S
C1915 C1921 1.491 1_655 S
C1916 H1907 0.950 . S
C1916 C1915 1.398 . S
C1916 C1917 1.391 . S
C1917 H1905 0.950 . S
C1917 C1913 1.393 . S
C1917 C1916 1.391 . S
C1918 H1908 0.950 . S
C1918 C1919 1.386 . S
C1918 C1920 1.391 . S
C1919 C1918 1.386 . S
C1919 C1923 1.393 . S
C1920 H1909 0.950 . S
C1920 C1918 1.391 . S
C1920 C1921 1.400 . S
C1921 C1915 1.491 1_455 S
C1921 C1920 1.400 . S
C1921 C1922 1.398 . S
C1922 H1910 0.950 . S
C1922 C1921 1.398 . S
C1922 C1923 1.391 . S
C1923 H1911 0.950 . S
C1923 C1919 1.393 . S
C1923 C1922 1.391 . S
H1924 C1932 0.950 . S
H1925 C1937 0.950 . S
H1926 C1934 0.950 . S
H1927 C1936 0.950 . S
H1928 C1938 0.950 . S
H1929 C1940 0.950 . S
H1930 C1942 0.950 . S
H1931 C1943 0.950 . S
C1932 H1924 0.950 . S
C1932 C1933 1.386 . S
C1932 C1934 1.391 . S
C1933 C1932 1.386 . S
C1933 C1937 1.393 . S
C1934 H1926 0.950 . S
C1934 C1932 1.391 . S
C1934 C1935 1.400 . S
C1935 C1934 1.400 . S
C1935 C1936 1.398 . S
C1935 C1941 1.491 . S
C1936 H1927 0.950 . S
C1936 C1935 1.398 . S
C1936 C1937 1.391 . S
C1937 H1925 0.950 . S
C1937 C1933 1.393 . S
C1937 C1936 1.391 . S
C1938 H1928 0.950 . S
C1938 C1939 1.386 . S
C1938 C1940 1.391 . S
C1939 C1938 1.386 . S
C1939 C1943 1.393 . S
C1940 H1929 0.950 . S
C1940 C1938 1.391 . S
C1940 C1941 1.400 . S
C1941 C1935 1.491 . S
C1941 C1940 1.400 . S
C1941 C1942 1.398 . S
C1942 H1930 0.950 . S
C1942 C1941 1.398 . S
C1942 C1943 1.391 . S
C1943 H1931 0.950 . S
C1943 C1939 1.393 . S
C1943 C1942 1.391 . S
H1944 C1952 0.950 . S
H1945 C1957 0.950 . S
H1946 C1954 0.950 . S
H1947 C1956 0.950 . S
H1948 C1958 0.950 . S
H1949 C1960 0.950 . S
H1950 C1962 0.950 . S
H1951 C1963 0.950 . S
C1952 H1944 0.950 . S
C1952 C1953 1.386 . S
C1952 C1954 1.391 . S
C1953 C1952 1.386 . S
C1953 C1957 1.393 . S
C1954 H1946 0.950 . S
C1954 C1952 1.391 . S
C1954 C1955 1.400 . S
C1955 C1954 1.400 . S
C1955 C1956 1.398 . S
C1955 C1961 1.491 . S
C1956 H1947 0.950 . S
C1956 C1955 1.398 . S
C1956 C1957 1.391 . S
C1957 H1945 0.950 . S
C1957 C1953 1.393 . S
C1957 C1956 1.391 . S
C1958 H1948 0.950 . S
C1958 C1959 1.386 . S
C1958 C1960 1.391 . S
C1959 C1958 1.386 . S
C1959 C1963 1.393 . S
C1960 H1949 0.950 . S
C1960 C1958 1.391 . S
C1960 C1961 1.400 . S
C1961 C1955 1.491 . S
C1961 C1960 1.400 . S
C1961 C1962 1.398 . S
C1962 H1950 0.950 . S
C1962 C1961 1.398 . S
C1962 C1963 1.391 . S
C1963 H1951 0.950 . S
C1963 C1959 1.393 . S
C1963 C1962 1.391 . S
H1964 C1972 0.950 . S
H1965 C1977 0.950 . S
H1966 C1974 0.950 . S
H1967 C1976 0.950 . S
H1968 C1978 0.950 . S
H1969 C1980 0.950 . S
H1970 C1982 0.950 . S
H1971 C1983 0.950 . S
C1972 H1964 0.950 . S
C1972 C1973 1.386 . S
C1972 C1974 1.391 . S
C1973 C1972 1.386 . S
C1973 C1977 1.393 . S
C1974 H1966 0.950 . S
C1974 C1972 1.391 . S
C1974 C1975 1.400 . S
C1975 C1974 1.400 . S
C1975 C1976 1.398 . S
C1975 C1981 1.491 . S
C1976 H1967 0.950 . S
C1976 C1975 1.398 . S
C1976 C1977 1.391 . S
C1977 H1965 0.950 . S
C1977 C1973 1.393 . S
C1977 C1976 1.391 . S
C1978 H1968 0.950 . S
C1978 C1979 1.386 . S
C1978 C1980 1.391 . S
C1979 C1978 1.386 . S
C1979 C1983 1.393 . S
C1980 H1969 0.950 . S
C1980 C1978 1.391 . S
C1980 C1981 1.400 . S
C1981 C1975 1.491 . S
C1981 C1980 1.400 . S
C1981 C1982 1.398 . S
C1982 H1970 0.950 . S
C1982 C1981 1.398 . S
C1982 C1983 1.391 . S
C1983 H1971 0.950 . S
C1983 C1979 1.393 . S
C1983 C1982 1.391 . S
H1984 C1992 0.950 . S
H1985 C1997 0.950 . S
H1986 C1994 0.950 . S
H1987 C1996 0.950 . S
H1988 C1998 0.950 . S
H1989 C2000 0.950 . S
H1990 C2002 0.950 . S
H1991 C2003 0.950 . S
C1992 H1984 0.950 . S
C1992 C1993 1.386 . S
C1992 C1994 1.391 . S
C1993 C1992 1.386 . S
C1993 C1997 1.393 . S
C1994 H1986 0.950 . S
C1994 C1992 1.391 . S
C1994 C1995 1.400 . S
C1995 C1994 1.400 . S
C1995 C1996 1.398 . S
C1995 C2001 1.491 . S
C1996 H1987 0.950 . S
C1996 C1995 1.398 . S
C1996 C1997 1.391 . S
C1997 H1985 0.950 . S
C1997 C1993 1.393 . S
C1997 C1996 1.391 . S
C1998 H1988 0.950 . S
C1998 C1999 1.386 . S
C1998 C2000 1.391 . S
C1999 C1998 1.386 . S
C1999 C2003 1.393 . S
C2000 H1989 0.950 . S
C2000 C1998 1.391 . S
C2000 C2001 1.400 . S
C2001 C1995 1.491 . S
C2001 C2000 1.400 . S
C2001 C2002 1.398 . S
C2002 H1990 0.950 . S
C2002 C2001 1.398 . S
C2002 C2003 1.391 . S
C2003 H1991 0.950 . S
C2003 C1999 1.393 . S
C2003 C2002 1.391 . S
H2004 C2012 0.950 . S
H2005 C2017 0.950 . S
H2006 C2014 0.950 . S
H2007 C2016 0.950 . S
H2008 C2018 0.950 . S
H2009 C2020 0.950 . S
H2010 C2022 0.950 . S
H2011 C2023 0.950 . S
C2012 H2004 0.950 . S
C2012 C2013 1.386 . S
C2012 C2014 1.391 . S
C2013 C2012 1.386 . S
C2013 C2017 1.393 . S
C2014 H2006 0.950 . S
C2014 C2012 1.391 . S
C2014 C2015 1.400 . S
C2015 C2014 1.400 . S
C2015 C2016 1.398 . S
C2015 C2021 1.491 . S
C2016 H2007 0.950 . S
C2016 C2015 1.398 . S
C2016 C2017 1.391 . S
C2017 H2005 0.950 . S
C2017 C2013 1.393 . S
C2017 C2016 1.391 . S
C2018 H2008 0.950 . S
C2018 C2019 1.386 . S
C2018 C2020 1.391 . S
C2019 C2018 1.386 . S
C2019 C2023 1.393 . S
C2020 H2009 0.950 . S
C2020 C2018 1.391 . S
C2020 C2021 1.400 . S
C2021 C2015 1.491 . S
C2021 C2020 1.400 . S
C2021 C2022 1.398 . S
C2022 H2010 0.950 . S
C2022 C2021 1.398 . S
C2022 C2023 1.391 . S
C2023 H2011 0.950 . S
C2023 C2019 1.393 . S
C2023 C2022 1.391 . S
H2024 C2032 0.950 . S
H2025 C2037 0.950 . S
H2026 C2034 0.950 . S
H2027 C2036 0.950 . S
H2028 C2038 0.950 . S
H2029 C2040 0.950 . S
H2030 C2042 0.950 . S
H2031 C2043 0.950 . S
C2032 H2024 0.950 . S
C2032 C2033 1.386 . S
C2032 C2034 1.391 . S
C2033 C2032 1.386 . S
C2033 C2037 1.393 . S
C2034 H2026 0.950 . S
C2034 C2032 1.391 . S
C2034 C2035 1.400 . S
C2035 C2034 1.400 . S
C2035 C2036 1.398 . S
C2035 C2041 1.491 . S
C2036 H2027 0.950 . S
C2036 C2035 1.398 . S
C2036 C2037 1.391 . S
C2037 H2025 0.950 . S
C2037 C2033 1.393 . S
C2037 C2036 1.391 . S
C2038 H2028 0.950 . S
C2038 C2039 1.386 . S
C2038 C2040 1.391 . S
C2039 C2038 1.386 . S
C2039 C2043 1.393 . S
C2040 H2029 0.950 . S
C2040 C2038 1.391 . S
C2040 C2041 1.400 . S
C2041 C2035 1.491 . S
C2041 C2040 1.400 . S
C2041 C2042 1.398 . S
C2042 H2030 0.950 . S
C2042 C2041 1.398 . S
C2042 C2043 1.391 . S
C2043 H2031 0.950 . S
C2043 C2039 1.393 . S
C2043 C2042 1.391 . S
H2044 C2052 0.950 . S
H2045 C2057 0.950 . S
H2046 C2054 0.950 . S
H2047 C2056 0.950 . S
H2048 C2058 0.950 . S
H2049 C2060 0.950 . S
H2050 C2062 0.950 . S
H2051 C2063 0.950 . S
C2052 H2044 0.950 . S
C2052 C2053 1.386 . S
C2052 C2054 1.391 . S
C2053 C2052 1.386 . S
C2053 C2057 1.393 . S
C2054 H2046 0.950 . S
C2054 C2052 1.391 . S
C2054 C2055 1.400 . S
C2055 C2054 1.400 . S
C2055 C2056 1.398 . S
C2055 C2061 1.491 . S
C2056 H2047 0.950 . S
C2056 C2055 1.398 . S
C2056 C2057 1.391 . S
C2057 H2045 0.950 . S
C2057 C2053 1.393 . S
C2057 C2056 1.391 . S
C2058 H2048 0.950 . S
C2058 C2059 1.386 . S
C2058 C2060 1.391 . S
C2059 C2058 1.386 . S
C2059 C2063 1.393 . S
C2060 H2049 0.950 . S
C2060 C2058 1.391 . S
C2060 C2061 1.400 . S
C2061 C2055 1.491 . S
C2061 C2060 1.400 . S
C2061 C2062 1.398 . S
C2062 H2050 0.950 . S
C2062 C2061 1.398 . S
C2062 C2063 1.391 . S
C2063 H2051 0.950 . S
C2063 C2059 1.393 . S
C2063 C2062 1.391 . S
H2064 C2072 0.950 . S
H2065 C2077 0.950 . S
H2066 C2074 0.950 . S
H2067 C2076 0.950 . S
H2068 C2078 0.950 . S
H2069 C2080 0.950 . S
H2070 C2082 0.950 . S
H2071 C2083 0.950 . S
C2072 H2064 0.950 . S
C2072 C2073 1.386 . S
C2072 C2074 1.391 . S
C2073 C2072 1.386 . S
C2073 C2077 1.393 . S
C2074 H2066 0.950 . S
C2074 C2072 1.391 . S
C2074 C2075 1.400 . S
C2075 C2074 1.400 . S
C2075 C2076 1.398 . S
C2075 C2081 1.491 . S
C2076 H2067 0.950 . S
C2076 C2075 1.398 . S
C2076 C2077 1.391 . S
C2077 H2065 0.950 . S
C2077 C2073 1.393 . S
C2077 C2076 1.391 . S
C2078 H2068 0.950 . S
C2078 C2079 1.386 . S
C2078 C2080 1.391 . S
C2079 C2078 1.386 . S
C2079 C2083 1.393 . S
C2080 H2069 0.950 . S
C2080 C2078 1.391 . S
C2080 C2081 1.400 . S
C2081 C2075 1.491 . S
C2081 C2080 1.400 . S
C2081 C2082 1.398 . S
C2082 H2070 0.950 . S
C2082 C2081 1.398 . S
C2082 C2083 1.391 . S
C2083 H2071 0.950 . S
C2083 C2079 1.393 . S
C2083 C2082 1.391 . S
H2084 C2092 0.950 . S
H2085 C2097 0.950 . S
H2086 C2094 0.950 . S
H2087 C2096 0.950 . S
H2088 C2098 0.950 . S
H2089 C2100 0.950 . S
H2090 C2102 0.950 . S
H2091 C2103 0.950 . S
C2092 H2084 0.950 . S
C2092 C2093 1.386 . S
C2092 C2094 1.391 . S
C2093 C2092 1.386 . S
C2093 C2097 1.393 . S
C2094 H2086 0.950 . S
C2094 C2092 1.391 . S
C2094 C2095 1.400 . S
C2095 C2094 1.400 . S
C2095 C2096 1.398 . S
C2095 C2101 1.491 . S
C2096 H2087 0.950 . S
C2096 C2095 1.398 . S
C2096 C2097 1.391 . S
C2097 H2085 0.950 . S
C2097 C2093 1.393 . S
C2097 C2096 1.391 . S
C2098 H2088 0.950 . S
C2098 C2099 1.386 . S
C2098 C2100 1.391 . S
C2099 C2098 1.386 . S
C2099 C2103 1.393 . S
C2100 H2089 0.950 . S
C2100 C2098 1.391 . S
C2100 C2101 1.400 . S
C2101 C2095 1.491 . S
C2101 C2100 1.400 . S
C2101 C2102 1.398 . S
C2102 H2090 0.950 . S
C2102 C2101 1.398 . S
C2102 C2103 1.391 . S
C2103 H2091 0.950 . S
C2103 C2099 1.393 . S
C2103 C2102 1.391 . S
H2104 C2112 0.950 . S
H2105 C2117 0.950 . S
H2106 C2114 0.950 . S
H2107 C2116 0.950 . S
H2108 C2118 0.950 . S
H2109 C2120 0.950 . S
H2110 C2122 0.950 . S
H2111 C2123 0.950 . S
C2112 H2104 0.950 . S
C2112 C2113 1.386 . S
C2112 C2114 1.391 . S
C2113 C2112 1.386 . S
C2113 C2117 1.393 . S
C2114 H2106 0.950 . S
C2114 C2112 1.391 . S
C2114 C2115 1.400 . S
C2115 C2114 1.400 . S
C2115 C2116 1.398 . S
C2115 C2121 1.491 . S
C2116 H2107 0.950 . S
C2116 C2115 1.398 . S
C2116 C2117 1.391 . S
C2117 H2105 0.950 . S
C2117 C2113 1.393 . S
C2117 C2116 1.391 . S
C2118 H2108 0.950 . S
C2118 C2119 1.386 . S
C2118 C2120 1.391 . S
C2119 C2118 1.386 . S
C2119 C2123 1.393 . S
C2120 H2109 0.950 . S
C2120 C2118 1.391 . S
C2120 C2121 1.400 . S
C2121 C2115 1.491 . S
C2121 C2120 1.400 . S
C2121 C2122 1.398 . S
C2122 H2110 0.950 . S
C2122 C2121 1.398 . S
C2122 C2123 1.391 . S
C2123 H2111 0.950 . S
C2123 C2119 1.393 . S
C2123 C2122 1.391 . S
H2124 C2132 0.950 . S
H2125 C2137 0.950 . S
H2126 C2134 0.950 . S
H2127 C2136 0.950 . S
H2128 C2138 0.950 . S
H2129 C2140 0.950 . S
H2130 C2142 0.950 . S
H2131 C2143 0.950 . S
C2132 H2124 0.950 . S
C2132 C2133 1.386 . S
C2132 C2134 1.391 . S
C2133 C2132 1.386 . S
C2133 C2137 1.393 . S
C2134 H2126 0.950 . S
C2134 C2132 1.391 . S
C2134 C2135 1.400 . S
C2135 C2134 1.400 . S
C2135 C2136 1.398 . S
C2135 C2141 1.491 . S
C2136 H2127 0.950 . S
C2136 C2135 1.398 . S
C2136 C2137 1.391 . S
C2137 H2125 0.950 . S
C2137 C2133 1.393 . S
C2137 C2136 1.391 . S
C2138 H2128 0.950 . S
C2138 C2139 1.386 . S
C2138 C2140 1.391 . S
C2139 C2138 1.386 . S
C2139 C2143 1.393 . S
C2140 H2129 0.950 . S
C2140 C2138 1.391 . S
C2140 C2141 1.400 . S
C2141 C2135 1.491 . S
C2141 C2140 1.400 . S
C2141 C2142 1.398 . S
C2142 H2130 0.950 . S
C2142 C2141 1.398 . S
C2142 C2143 1.391 . S
C2143 H2131 0.950 . S
C2143 C2139 1.393 . S
C2143 C2142 1.391 . S
H2144 C2152 0.950 . S
H2145 C2157 0.950 . S
H2146 C2154 0.950 . S
H2147 C2156 0.950 . S
H2148 C2158 0.950 . S
H2149 C2160 0.950 . S
H2150 C2162 0.950 . S
H2151 C2163 0.950 . S
C2152 H2144 0.950 . S
C2152 C2153 1.386 . S
C2152 C2154 1.391 . S
C2153 C2152 1.386 . S
C2153 C2157 1.393 . S
C2154 H2146 0.950 . S
C2154 C2152 1.391 . S
C2154 C2155 1.400 . S
C2155 C2154 1.400 . S
C2155 C2156 1.398 . S
C2155 C2161 1.491 . S
C2156 H2147 0.950 . S
C2156 C2155 1.398 . S
C2156 C2157 1.391 . S
C2157 H2145 0.950 . S
C2157 C2153 1.393 . S
C2157 C2156 1.391 . S
C2158 H2148 0.950 . S
C2158 C2159 1.386 . S
C2158 C2160 1.391 . S
C2159 C2158 1.386 . S
C2159 C2163 1.393 . S
C2160 H2149 0.950 . S
C2160 C2158 1.391 . S
C2160 C2161 1.400 . S
C2161 C2155 1.491 . S
C2161 C2160 1.400 . S
C2161 C2162 1.398 . S
C2162 H2150 0.950 . S
C2162 C2161 1.398 . S
C2162 C2163 1.391 . S
C2163 H2151 0.950 . S
C2163 C2159 1.393 . S
C2163 C2162 1.391 . S
H2164 C2172 0.950 . S
H2165 C2177 0.950 . S
H2166 C2174 0.950 . S
H2167 C2176 0.950 . S
H2168 C2178 0.950 . S
H2169 C2180 0.950 . S
H2170 C2182 0.950 . S
H2171 C2183 0.950 . S
C2172 H2164 0.950 . S
C2172 C2173 1.386 . S
C2172 C2174 1.391 . S
C2173 C2172 1.386 . S
C2173 C2177 1.393 . S
C2174 H2166 0.950 . S
C2174 C2172 1.391 . S
C2174 C2175 1.400 . S
C2175 C2174 1.400 . S
C2175 C2176 1.398 . S
C2175 C2181 1.491 . S
C2176 H2167 0.950 . S
C2176 C2175 1.398 . S
C2176 C2177 1.391 . S
C2177 H2165 0.950 . S
C2177 C2173 1.393 . S
C2177 C2176 1.391 . S
C2178 H2168 0.950 . S
C2178 C2179 1.386 . S
C2178 C2180 1.391 . S
C2179 C2178 1.386 . S
C2179 C2183 1.393 . S
C2180 H2169 0.950 . S
C2180 C2178 1.391 . S
C2180 C2181 1.400 . S
C2181 C2175 1.491 . S
C2181 C2180 1.400 . S
C2181 C2182 1.398 . S
C2182 H2170 0.950 . S
C2182 C2181 1.398 . S
C2182 C2183 1.391 . S
C2183 H2171 0.950 . S
C2183 C2179 1.393 . S
C2183 C2182 1.391 . S
H2184 C2192 0.950 . S
H2185 C2197 0.950 . S
H2186 C2194 0.950 . S
H2187 C2196 0.950 . S
H2188 C2198 0.950 . S
H2189 C2200 0.950 . S
H2190 C2202 0.950 . S
H2191 C2203 0.950 . S
C2192 H2184 0.950 . S
C2192 C2193 1.386 . S
C2192 C2194 1.391 1_655 S
C2193 C2192 1.386 . S
C2193 C2197 1.393 . S
C2194 H2186 0.950 . S
C2194 C2192 1.391 1_455 S
C2194 C2195 1.400 1_455 S
C2195 C2194 1.400 1_655 S
C2195 C2196 1.398 . S
C2195 C2201 1.491 1_655 S
C2196 H2187 0.950 . S
C2196 C2195 1.398 . S
C2196 C2197 1.391 . S
C2197 H2185 0.950 . S
C2197 C2193 1.393 . S
C2197 C2196 1.391 . S
C2198 H2188 0.950 . S
C2198 C2199 1.386 . S
C2198 C2200 1.391 1_455 S
C2199 C2198 1.386 . S
C2199 C2203 1.393 . S
C2200 H2189 0.950 . S
C2200 C2198 1.391 1_655 S
C2200 C2201 1.400 1_655 S
C2201 C2195 1.491 1_455 S
C2201 C2200 1.400 1_455 S
C2201 C2202 1.398 . S
C2202 H2190 0.950 . S
C2202 C2201 1.398 . S
C2202 C2203 1.391 . S
C2203 H2191 0.950 . S
C2203 C2199 1.393 . S
C2203 C2202 1.391 . S
H2204 C2212 0.950 . S
H2205 C2217 0.950 . S
H2206 C2214 0.950 . S
H2207 C2216 0.950 . S
H2208 C2218 0.950 . S
H2209 C2220 0.950 . S
H2210 C2222 0.950 . S
H2211 C2223 0.950 . S
C2212 H2204 0.950 . S
C2212 C2213 1.386 . S
C2212 C2214 1.391 . S
C2213 C2212 1.386 . S
C2213 C2217 1.393 . S
C2214 H2206 0.950 . S
C2214 C2212 1.391 . S
C2214 C2215 1.400 . S
C2215 C2214 1.400 . S
C2215 C2216 1.398 . S
C2215 C2221 1.491 . S
C2216 H2207 0.950 . S
C2216 C2215 1.398 . S
C2216 C2217 1.391 . S
C2217 H2205 0.950 . S
C2217 C2213 1.393 . S
C2217 C2216 1.391 . S
C2218 H2208 0.950 . S
C2218 C2219 1.386 . S
C2218 C2220 1.391 . S
C2219 C2218 1.386 . S
C2219 C2223 1.393 . S
C2220 H2209 0.950 . S
C2220 C2218 1.391 . S
C2220 C2221 1.400 . S
C2221 C2215 1.491 . S
C2221 C2220 1.400 . S
C2221 C2222 1.398 . S
C2222 H2210 0.950 . S
C2222 C2221 1.398 . S
C2222 C2223 1.391 . S
C2223 H2211 0.950 . S
C2223 C2219 1.393 . S
C2223 C2222 1.391 . S
H2224 C2232 0.950 . S
H2225 C2237 0.950 . S
H2226 C2234 0.950 . S
H2227 C2236 0.950 . S
H2228 C2238 0.950 . S
H2229 C2240 0.950 . S
H2230 C2242 0.950 . S
H2231 C2243 0.950 . S
C2232 H2224 0.950 . S
C2232 C2233 1.386 . S
C2232 C2234 1.391 1_545 S
C2233 C2232 1.386 . S
C2233 C2237 1.393 . S
C2234 H2226 0.950 . S
C2234 C2232 1.391 1_565 S
C2234 C2235 1.400 1_565 S
C2235 C2234 1.400 1_545 S
C2235 C2236 1.398 . S
C2235 C2241 1.491 1_545 S
C2236 H2227 0.950 . S
C2236 C2235 1.398 . S
C2236 C2237 1.391 . S
C2237 H2225 0.950 . S
C2237 C2233 1.393 . S
C2237 C2236 1.391 . S
C2238 H2228 0.950 . S
C2238 C2239 1.386 . S
C2238 C2240 1.391 1_565 S
C2239 C2238 1.386 . S
C2239 C2243 1.393 . S
C2240 H2229 0.950 . S
C2240 C2238 1.391 1_545 S
C2240 C2241 1.400 1_545 S
C2241 C2235 1.491 1_565 S
C2241 C2240 1.400 1_565 S
C2241 C2242 1.398 . S
C2242 H2230 0.950 . S
C2242 C2241 1.398 . S
C2242 C2243 1.391 . S
C2243 H2231 0.950 . S
C2243 C2239 1.393 . S
C2243 C2242 1.391 . S
H2244 C2252 0.950 . S
H2245 C2257 0.950 1_556 S
H2246 C2254 0.950 1_545 S
H2247 C2256 0.950 . S
H2248 C2258 0.950 . S
H2249 C2260 0.950 1_565 S
H2250 C2262 0.950 . S
H2251 C2263 0.950 1_554 S
C2252 H2244 0.950 . S
C2252 C2253 1.386 . S
C2252 C2254 1.391 . S
C2253 C2252 1.386 . S
C2253 C2257 1.393 . S
C2254 H2246 0.950 1_565 S
C2254 C2252 1.391 . S
C2254 C2255 1.400 . S
C2255 C2254 1.400 . S
C2255 C2256 1.398 1_554 S
C2255 C2261 1.491 1_564 S
C2256 H2247 0.950 . S
C2256 C2255 1.398 1_556 S
C2256 C2257 1.391 1_556 S
C2257 H2245 0.950 1_554 S
C2257 C2253 1.393 . S
C2257 C2256 1.391 1_554 S
C2258 H2248 0.950 . S
C2258 C2259 1.386 . S
C2258 C2260 1.391 . S
C2259 C2258 1.386 . S
C2259 C2263 1.393 . S
C2260 H2249 0.950 1_545 S
C2260 C2258 1.391 . S
C2260 C2261 1.400 . S
C2261 C2255 1.491 1_546 S
C2261 C2260 1.400 . S
C2261 C2262 1.398 1_556 S
C2262 H2250 0.950 . S
C2262 C2261 1.398 1_554 S
C2262 C2263 1.391 1_554 S
C2263 H2251 0.950 1_556 S
C2263 C2259 1.393 . S
C2263 C2262 1.391 1_556 S
H2264 C2272 0.950 1_554 S
H2265 C2277 0.950 . S
H2266 C2274 0.950 . S
H2267 C2276 0.950 . S
H2268 C2278 0.950 1_556 S
H2269 C2280 0.950 . S
H2270 C2282 0.950 . S
H2271 C2283 0.950 . S
C2272 H2264 0.950 1_556 S
C2272 C2273 1.386 . S
C2272 C2274 1.391 1_556 S
C2273 C2272 1.386 . S
C2273 C2277 1.393 . S
C2274 H2266 0.950 . S
C2274 C2272 1.391 1_554 S
C2274 C2275 1.400 1_554 S
C2275 C2274 1.400 1_556 S
C2275 C2276 1.398 . S
C2275 C2281 1.491 1_656 S
C2276 H2267 0.950 . S
C2276 C2275 1.398 . S
C2276 C2277 1.391 . S
C2277 H2265 0.950 . S
C2277 C2273 1.393 . S
C2277 C2276 1.391 . S
C2278 H2268 0.950 1_554 S
C2278 C2279 1.386 . S
C2278 C2280 1.391 1_554 S
C2279 C2278 1.386 . S
C2279 C2283 1.393 . S
C2280 H2269 0.950 . S
C2280 C2278 1.391 1_556 S
C2280 C2281 1.400 1_556 S
C2281 C2275 1.491 1_454 S
C2281 C2280 1.400 1_554 S
C2281 C2282 1.398 . S
C2282 H2270 0.950 . S
C2282 C2281 1.398 . S
C2282 C2283 1.391 . S
C2283 H2271 0.950 . S
C2283 C2279 1.393 . S
C2283 C2282 1.391 . S
H2284 C2292 0.950 . S
H2285 C2297 0.950 . S
H2286 C2294 0.950 . S
H2287 C2296 0.950 . S
H2288 C2298 0.950 . S
H2289 C2300 0.950 . S
H2290 C2302 0.950 . S
H2291 C2303 0.950 . S
C2292 H2284 0.950 . S
C2292 C2293 1.386 . S
C2292 C2294 1.391 . S
C2293 C2292 1.386 . S
C2293 C2297 1.393 . S
C2294 H2286 0.950 . S
C2294 C2292 1.391 . S
C2294 C2295 1.400 . S
C2295 C2294 1.400 . S
C2295 C2296 1.398 . S
C2295 C2301 1.491 1_554 S
C2296 H2287 0.950 . S
C2296 C2295 1.398 . S
C2296 C2297 1.391 . S
C2297 H2285 0.950 . S
C2297 C2293 1.393 . S
C2297 C2296 1.391 . S
C2298 H2288 0.950 . S
C2298 C2299 1.386 . S
C2298 C2300 1.391 . S
C2299 C2298 1.386 . S
C2299 C2303 1.393 . S
C2300 H2289 0.950 . S
C2300 C2298 1.391 . S
C2300 C2301 1.400 . S
C2301 C2295 1.491 1_556 S
C2301 C2300 1.400 . S
C2301 C2302 1.398 . S
C2302 H2290 0.950 . S
C2302 C2301 1.398 . S
C2302 C2303 1.391 . S
C2303 H2291 0.950 . S
C2303 C2299 1.393 . S
C2303 C2302 1.391 . S
H2304 C2312 0.950 . S
H2305 C2317 0.950 1_554 S
H2306 C2314 0.950 . S
H2307 C2316 0.950 . S
H2308 C2318 0.950 . S
H2309 C2320 0.950 . S
H2310 C2322 0.950 1_556 S
H2311 C2323 0.950 . S
C2312 H2304 0.950 . S
C2312 C2313 1.386 . S
C2312 C2314 1.391 . S
C2313 C2312 1.386 . S
C2313 C2317 1.393 . S
C2314 H2306 0.950 . S
C2314 C2312 1.391 . S
C2314 C2315 1.400 1_556 S
C2315 C2314 1.400 1_554 S
C2315 C2316 1.398 . S
C2315 C2321 1.491 . S
C2316 H2307 0.950 . S
C2316 C2315 1.398 . S
C2316 C2317 1.391 1_554 S
C2317 H2305 0.950 1_556 S
C2317 C2313 1.393 . S
C2317 C2316 1.391 1_556 S
C2318 H2308 0.950 . S
C2318 C2319 1.386 . S
C2318 C2320 1.391 . S
C2319 C2318 1.386 . S
C2319 C2323 1.393 . S
C2320 H2309 0.950 . S
C2320 C2318 1.391 . S
C2320 C2321 1.400 . S
C2321 C2315 1.491 . S
C2321 C2320 1.400 . S
C2321 C2322 1.398 . S
C2322 H2310 0.950 1_554 S
C2322 C2321 1.398 . S
C2322 C2323 1.391 . S
C2323 H2311 0.950 . S
C2323 C2319 1.393 . S
C2323 C2322 1.391 . S
H2324 C2332 0.950 . S
H2325 C2337 0.950 . S
H2326 C2334 0.950 1_556 S
H2327 C2336 0.950 . S
H2328 C2338 0.950 1_554 S
H2329 C2340 0.950 . S
H2330 C2342 0.950 . S
H2331 C2343 0.950 . S
C2332 H2324 0.950 . S
C2332 C2333 1.386 . S
C2332 C2334 1.391 . S
C2333 C2332 1.386 . S
C2333 C2337 1.393 . S
C2334 H2326 0.950 1_554 S
C2334 C2332 1.391 . S
C2334 C2335 1.400 . S
C2335 C2334 1.400 . S
C2335 C2336 1.398 . S
C2335 C2341 1.491 . S
C2336 H2327 0.950 . S
C2336 C2335 1.398 . S
C2336 C2337 1.391 . S
C2337 H2325 0.950 . S
C2337 C2333 1.393 . S
C2337 C2336 1.391 . S
C2338 H2328 0.950 1_556 S
C2338 C2339 1.386 . S
C2338 C2340 1.391 1_556 S
C2339 C2338 1.386 . S
C2339 C2343 1.393 . S
C2340 H2329 0.950 . S
C2340 C2338 1.391 1_554 S
C2340 C2341 1.400 . S
C2341 C2335 1.491 . S
C2341 C2340 1.400 . S
C2341 C2342 1.398 1_554 S
C2342 H2330 0.950 . S
C2342 C2341 1.398 1_556 S
C2342 C2343 1.391 . S
C2343 H2331 0.950 . S
C2343 C2339 1.393 . S
C2343 C2342 1.391 . S
H2344 C2352 0.950 . S
H2345 C2357 0.950 . S
H2346 C2354 0.950 . S
H2347 C2356 0.950 . S
H2348 C2358 0.950 . S
H2349 C2360 0.950 . S
H2350 C2362 0.950 . S
H2351 C2363 0.950 . S
C2352 H2344 0.950 . S
C2352 C2353 1.386 . S
C2352 C2354 1.391 . S
C2353 C2352 1.386 . S
C2353 C2357 1.393 . S
C2354 H2346 0.950 . S
C2354 C2352 1.391 . S
C2354 C2355 1.400 . S
C2355 C2354 1.400 . S
C2355 C2356 1.398 . S
C2355 C2361 1.491 . S
C2356 H2347 0.950 . S
C2356 C2355 1.398 . S
C2356 C2357 1.391 . S
C2357 H2345 0.950 . S
C2357 C2353 1.393 . S
C2357 C2356 1.391 . S
C2358 H2348 0.950 . S
C2358 C2359 1.386 . S
C2358 C2360 1.391 1_556 S
C2359 C2358 1.386 . S
C2359 C2363 1.393 . S
C2360 H2349 0.950 . S
C2360 C2358 1.391 1_554 S
C2360 C2361 1.400 . S
C2361 C2355 1.491 . S
C2361 C2360 1.400 . S
C2361 C2362 1.398 1_554 S
C2362 H2350 0.950 . S
C2362 C2361 1.398 1_556 S
C2362 C2363 1.391 . S
C2363 H2351 0.950 . S
C2363 C2359 1.393 . S
C2363 C2362 1.391 . S
H2364 C2372 0.950 . S
H2365 C2377 0.950 . S
H2366 C2374 0.950 . S
H2367 C2376 0.950 . S
H2368 C2378 0.950 . S
H2369 C2380 0.950 . S
H2370 C2382 0.950 . S
H2371 C2383 0.950 . S
C2372 H2364 0.950 . S
C2372 C2373 1.386 . S
C2372 C2374 1.391 . S
C2373 C2372 1.386 . S
C2373 C2377 1.393 . S
C2374 H2366 0.950 . S
C2374 C2372 1.391 . S
C2374 C2375 1.400 . S
C2375 C2374 1.400 . S
C2375 C2376 1.398 . S
C2375 C2381 1.491 . S
C2376 H2367 0.950 . S
C2376 C2375 1.398 . S
C2376 C2377 1.391 . S
C2377 H2365 0.950 . S
C2377 C2373 1.393 . S
C2377 C2376 1.391 . S
C2378 H2368 0.950 . S
C2378 C2379 1.386 . S
C2378 C2380 1.391 . S
C2379 C2378 1.386 . S
C2379 C2383 1.393 . S
C2380 H2369 0.950 . S
C2380 C2378 1.391 . S
C2380 C2381 1.400 . S
C2381 C2375 1.491 . S
C2381 C2380 1.400 . S
C2381 C2382 1.398 . S
C2382 H2370 0.950 . S
C2382 C2381 1.398 . S
C2382 C2383 1.391 . S
C2383 H2371 0.950 . S
C2383 C2379 1.393 . S
C2383 C2382 1.391 . S
H2384 C2392 0.950 . S
H2385 C2397 0.950 . S
H2386 C2394 0.950 . S
H2387 C2396 0.950 . S
H2388 C2398 0.950 . S
H2389 C2400 0.950 . S
H2390 C2402 0.950 . S
H2391 C2403 0.950 . S
C2392 H2384 0.950 . S
C2392 C2393 1.386 . S
C2392 C2394 1.391 . S
C2393 C2392 1.386 . S
C2393 C2397 1.393 . S
C2394 H2386 0.950 . S
C2394 C2392 1.391 . S
C2394 C2395 1.400 . S
C2395 C2394 1.400 . S
C2395 C2396 1.398 . S
C2395 C2401 1.491 . S
C2396 H2387 0.950 . S
C2396 C2395 1.398 . S
C2396 C2397 1.391 . S
C2397 H2385 0.950 . S
C2397 C2393 1.393 . S
C2397 C2396 1.391 . S
C2398 H2388 0.950 . S
C2398 C2399 1.386 . S
C2398 C2400 1.391 . S
C2399 C2398 1.386 . S
C2399 C2403 1.393 . S
C2400 H2389 0.950 . S
C2400 C2398 1.391 . S
C2400 C2401 1.400 . S
C2401 C2395 1.491 . S
C2401 C2400 1.400 . S
C2401 C2402 1.398 . S
C2402 H2390 0.950 . S
C2402 C2401 1.398 . S
C2402 C2403 1.391 . S
C2403 H2391 0.950 . S
C2403 C2399 1.393 . S
C2403 C2402 1.391 . S
H2404 C2412 0.950 . S
H2405 C2417 0.950 . S
H2406 C2414 0.950 . S
H2407 C2416 0.950 . S
H2408 C2418 0.950 . S
H2409 C2420 0.950 . S
H2410 C2422 0.950 . S
H2411 C2423 0.950 . S
C2412 H2404 0.950 . S
C2412 C2413 1.386 . S
C2412 C2414 1.391 . S
C2413 C2412 1.386 . S
C2413 C2417 1.393 . S
C2414 H2406 0.950 . S
C2414 C2412 1.391 . S
C2414 C2415 1.400 . S
C2415 C2414 1.400 . S
C2415 C2416 1.398 . S
C2415 C2421 1.491 . S
C2416 H2407 0.950 . S
C2416 C2415 1.398 . S
C2416 C2417 1.391 . S
C2417 H2405 0.950 . S
C2417 C2413 1.393 . S
C2417 C2416 1.391 . S
C2418 H2408 0.950 . S
C2418 C2419 1.386 . S
C2418 C2420 1.391 . S
C2419 C2418 1.386 . S
C2419 C2423 1.393 . S
C2420 H2409 0.950 . S
C2420 C2418 1.391 . S
C2420 C2421 1.400 . S
C2421 C2415 1.491 . S
C2421 C2420 1.400 . S
C2421 C2422 1.398 . S
C2422 H2410 0.950 . S
C2422 C2421 1.398 . S
C2422 C2423 1.391 . S
C2423 H2411 0.950 . S
C2423 C2419 1.393 . S
C2423 C2422 1.391 . S
H2424 C2432 0.950 . S
H2425 C2437 0.954 . S
H2426 C2434 0.950 . S
H2427 C2436 0.950 . S
H2428 C2438 0.950 . S
H2429 C2440 0.950 . S
H2430 C2442 0.979 . S
H2431 C2443 0.950 . S
C2432 H2424 0.950 . S
C2432 C2433 1.386 . S
C2432 C2434 1.391 . S
C2433 C2432 1.386 . S
C2433 C2437 1.393 . S
C2434 H2426 0.950 . S
C2434 C2432 1.391 . S
C2434 C2435 1.400 1_554 S
C2435 C2434 1.400 1_556 S
C2435 C2436 1.398 . S
C2435 C2441 1.491 . S
C2436 H2427 0.950 . S
C2436 C2435 1.398 . S
C2436 C2437 1.391 1_556 S
C2437 H2425 0.954 . S
C2437 C2433 1.393 . S
C2437 C2436 1.391 1_554 S
C2438 H2428 0.950 . S
C2438 C2439 1.386 . S
C2438 C2440 1.391 . S
C2439 C2438 1.386 . S
C2439 C2443 1.393 . S
C2440 H2429 0.950 . S
C2440 C2438 1.391 . S
C2440 C2441 1.400 . S
C2441 C2435 1.491 . S
C2441 C2440 1.400 . S
C2441 C2442 1.398 . S
C2442 H2430 0.979 . S
C2442 C2441 1.398 . S
C2442 C2443 1.391 . S
C2443 H2431 0.950 . S
C2443 C2439 1.393 . S
C2443 C2442 1.391 . S
H2444 C2452 0.939 1_556 S
H2445 C2457 0.950 . S
H2446 C2454 0.950 . S
H2447 C2456 0.950 . S
H2448 C2458 0.950 . S
H2449 C2460 0.950 1_554 S
H2450 C2462 0.950 . S
H2451 C2463 0.950 . S
C2452 H2444 0.939 1_554 S
C2452 C2453 1.386 . S
C2452 C2454 1.391 1_554 S
C2453 C2452 1.386 . S
C2453 C2457 1.393 . S
C2454 H2446 0.950 . S
C2454 C2452 1.391 1_556 S
C2454 C2455 1.400 . S
C2455 C2454 1.400 . S
C2455 C2456 1.398 1_556 S
C2455 C2461 1.491 . S
C2456 H2447 0.950 . S
C2456 C2455 1.398 1_554 S
C2456 C2457 1.391 . S
C2457 H2445 0.950 . S
C2457 C2453 1.393 . S
C2457 C2456 1.391 . S
C2458 H2448 0.950 . S
C2458 C2459 1.386 . S
C2458 C2460 1.391 . S
C2459 C2458 1.386 . S
C2459 C2463 1.393 . S
C2460 H2449 0.950 1_556 S
C2460 C2458 1.391 . S
C2460 C2461 1.400 . S
C2461 C2455 1.491 . S
C2461 C2460 1.400 . S
C2461 C2462 1.398 . S
C2462 H2450 0.950 . S
C2462 C2461 1.398 . S
C2462 C2463 1.391 . S
C2463 H2451 0.950 . S
C2463 C2459 1.393 . S
C2463 C2462 1.391 . S
H2464 C2472 0.950 . S
H2465 C2477 0.950 1_556 S
H2466 C2474 0.950 . S
H2467 C2476 0.950 . S
H2468 C2478 0.950 . S
H2469 C2480 0.950 . S
H2470 C2482 0.950 1_554 S
H2471 C2483 0.950 . S
C2472 H2464 0.950 . S
C2472 C2473 1.386 . S
C2472 C2474 1.391 . S
C2473 C2472 1.386 . S
C2473 C2477 1.393 . S
C2474 H2466 0.950 . S
C2474 C2472 1.391 . S
C2474 C2475 1.400 1_554 S
C2475 C2474 1.400 1_556 S
C2475 C2476 1.398 . S
C2475 C2481 1.491 . S
C2476 H2467 0.950 . S
C2476 C2475 1.398 . S
C2476 C2477 1.391 1_556 S
C2477 H2465 0.950 1_554 S
C2477 C2473 1.393 . S
C2477 C2476 1.391 1_554 S
C2478 H2468 0.950 . S
C2478 C2479 1.386 . S
C2478 C2480 1.391 . S
C2479 C2478 1.386 . S
C2479 C2483 1.393 . S
C2480 H2469 0.950 . S
C2480 C2478 1.391 . S
C2480 C2481 1.400 . S
C2481 C2475 1.491 . S
C2481 C2480 1.400 . S
C2481 C2482 1.398 . S
C2482 H2470 0.950 1_556 S
C2482 C2481 1.398 . S
C2482 C2483 1.391 . S
C2483 H2471 0.950 . S
C2483 C2479 1.393 . S
C2483 C2482 1.391 . S
H2484 C2492 0.950 . S
H2485 C2497 0.950 . S
H2486 C2494 0.950 . S
H2487 C2496 0.950 . S
H2488 C2498 0.950 . S
H2489 C2500 0.950 . S
H2490 C2502 0.950 . S
H2491 C2503 0.950 . S
C2492 H2484 0.950 . S
C2492 C2493 1.386 . S
C2492 C2494 1.391 . S
C2493 C2492 1.386 . S
C2493 C2497 1.393 . S
C2494 H2486 0.950 . S
C2494 C2492 1.391 . S
C2494 C2495 1.400 . S
C2495 C2494 1.400 . S
C2495 C2496 1.398 . S
C2495 C2501 1.491 . S
C2496 H2487 0.950 . S
C2496 C2495 1.398 . S
C2496 C2497 1.391 . S
C2497 H2485 0.950 . S
C2497 C2493 1.393 . S
C2497 C2496 1.391 . S
C2498 H2488 0.950 . S
C2498 C2499 1.386 . S
C2498 C2500 1.391 . S
C2499 C2498 1.386 . S
C2499 C2503 1.393 . S
C2500 H2489 0.950 . S
C2500 C2498 1.391 . S
C2500 C2501 1.400 . S
C2501 C2495 1.491 . S
C2501 C2500 1.400 . S
C2501 C2502 1.398 . S
C2502 H2490 0.950 . S
C2502 C2501 1.398 . S
C2502 C2503 1.391 . S
C2503 H2491 0.950 . S
C2503 C2499 1.393 . S
C2503 C2502 1.391 . S
H2504 C2512 0.950 . S
H2505 C2517 0.950 . S
H2506 C2514 0.950 . S
H2507 C2516 0.950 . S
H2508 C2518 0.950 . S
H2509 C2520 0.950 . S
H2510 C2522 0.950 . S
H2511 C2523 0.950 . S
C2512 H2504 0.950 . S
C2512 C2513 1.386 . S
C2512 C2514 1.391 . S
C2513 C2512 1.386 . S
C2513 C2517 1.393 . S
C2514 H2506 0.950 . S
C2514 C2512 1.391 . S
C2514 C2515 1.400 . S
C2515 C2514 1.400 . S
C2515 C2516 1.398 . S
C2515 C2521 1.491 . S
C2516 H2507 0.950 . S
C2516 C2515 1.398 . S
C2516 C2517 1.391 . S
C2517 H2505 0.950 . S
C2517 C2513 1.393 . S
C2517 C2516 1.391 . S
C2518 H2508 0.950 . S
C2518 C2519 1.386 . S
C2518 C2520 1.391 . S
C2519 C2518 1.386 . S
C2519 C2523 1.393 . S
C2520 H2509 0.950 . S
C2520 C2518 1.391 . S
C2520 C2521 1.400 . S
C2521 C2515 1.491 . S
C2521 C2520 1.400 . S
C2521 C2522 1.398 . S
C2522 H2510 0.950 . S
C2522 C2521 1.398 . S
C2522 C2523 1.391 . S
C2523 H2511 0.950 . S
C2523 C2519 1.393 . S
C2523 C2522 1.391 . S
H2524 C2532 0.950 . S
H2525 C2537 0.950 . S
H2526 C2534 0.950 . S
H2527 C2536 0.950 . S
H2528 C2538 0.950 . S
H2529 C2540 0.950 . S
H2530 C2542 0.950 . S
H2531 C2543 0.950 . S
C2532 H2524 0.950 . S
C2532 C2533 1.386 . S
C2532 C2534 1.391 . S
C2533 C2532 1.386 . S
C2533 C2537 1.393 . S
C2534 H2526 0.950 . S
C2534 C2532 1.391 . S
C2534 C2535 1.400 . S
C2535 C2534 1.400 . S
C2535 C2536 1.398 . S
C2535 C2541 1.491 . S
C2536 H2527 0.950 . S
C2536 C2535 1.398 . S
C2536 C2537 1.391 . S
C2537 H2525 0.950 . S
C2537 C2533 1.393 . S
C2537 C2536 1.391 . S
C2538 H2528 0.950 . S
C2538 C2539 1.386 . S
C2538 C2540 1.391 . S
C2539 C2538 1.386 . S
C2539 C2543 1.393 . S
C2540 H2529 0.950 . S
C2540 C2538 1.391 . S
C2540 C2541 1.400 . S
C2541 C2535 1.491 . S
C2541 C2540 1.400 . S
C2541 C2542 1.398 . S
C2542 H2530 0.950 . S
C2542 C2541 1.398 . S
C2542 C2543 1.391 . S
C2543 H2531 0.950 . S
C2543 C2539 1.393 . S
C2543 C2542 1.391 . S
H2544 C2552 0.950 . S
H2545 C2557 0.950 . S
H2546 C2554 0.950 . S
H2547 C2556 0.950 . S
H2548 C2558 0.950 . S
H2549 C2560 0.950 . S
H2550 C2562 0.950 . S
H2551 C2563 0.950 . S
C2552 H2544 0.950 . S
C2552 C2553 1.386 . S
C2552 C2554 1.391 . S
C2553 C2552 1.386 . S
C2553 C2557 1.393 . S
C2554 H2546 0.950 . S
C2554 C2552 1.391 . S
C2554 C2555 1.400 . S
C2555 C2554 1.400 . S
C2555 C2556 1.398 . S
C2555 C2561 1.491 . S
C2556 H2547 0.950 . S
C2556 C2555 1.398 . S
C2556 C2557 1.391 . S
C2557 H2545 0.950 . S
C2557 C2553 1.393 . S
C2557 C2556 1.391 . S
C2558 H2548 0.950 . S
C2558 C2559 1.386 . S
C2558 C2560 1.391 . S
C2559 C2558 1.386 . S
C2559 C2563 1.393 . S
C2560 H2549 0.950 . S
C2560 C2558 1.391 . S
C2560 C2561 1.400 . S
C2561 C2555 1.491 . S
C2561 C2560 1.400 . S
C2561 C2562 1.398 . S
C2562 H2550 0.950 . S
C2562 C2561 1.398 . S
C2562 C2563 1.391 . S
C2563 H2551 0.950 . S
C2563 C2559 1.393 . S
C2563 C2562 1.391 . S
H2564 C2572 0.950 . S
H2565 C2577 0.950 . S
H2566 C2574 0.950 . S
H2567 C2576 0.950 . S
H2568 C2578 0.950 . S
H2569 C2580 0.950 . S
H2570 C2582 0.950 . S
H2571 C2583 0.950 . S
C2572 H2564 0.950 . S
C2572 C2573 1.386 . S
C2572 C2574 1.391 . S
C2573 C2572 1.386 . S
C2573 C2577 1.393 . S
C2574 H2566 0.950 . S
C2574 C2572 1.391 . S
C2574 C2575 1.400 . S
C2575 C2574 1.400 . S
C2575 C2576 1.398 . S
C2575 C2581 1.491 . S
C2576 H2567 0.950 . S
C2576 C2575 1.398 . S
C2576 C2577 1.391 . S
C2577 H2565 0.950 . S
C2577 C2573 1.393 . S
C2577 C2576 1.391 . S
C2578 H2568 0.950 . S
C2578 C2579 1.386 . S
C2578 C2580 1.391 . S
C2579 C2578 1.386 . S
C2579 C2583 1.393 . S
C2580 H2569 0.950 . S
C2580 C2578 1.391 . S
C2580 C2581 1.400 . S
C2581 C2575 1.491 . S
C2581 C2580 1.400 . S
C2581 C2582 1.398 . S
C2582 H2570 0.950 . S
C2582 C2581 1.398 . S
C2582 C2583 1.391 . S
C2583 H2571 0.950 . S
C2583 C2579 1.393 . S
C2583 C2582 1.391 . S
H2584 C2592 0.950 . S
H2585 C2597 0.950 . S
H2586 C2594 0.950 . S
H2587 C2596 0.950 . S
H2588 C2598 0.950 . S
H2589 C2600 0.950 . S
H2590 C2602 0.950 . S
H2591 C2603 0.950 . S
C2592 H2584 0.950 . S
C2592 C2593 1.386 . S
C2592 C2594 1.391 . S
C2593 C2592 1.386 . S
C2593 C2597 1.393 . S
C2594 H2586 0.950 . S
C2594 C2592 1.391 . S
C2594 C2595 1.400 . S
C2595 C2594 1.400 . S
C2595 C2596 1.398 . S
C2595 C2601 1.491 . S
C2596 H2587 0.950 . S
C2596 C2595 1.398 . S
C2596 C2597 1.391 . S
C2597 H2585 0.950 . S
C2597 C2593 1.393 . S
C2597 C2596 1.391 . S
C2598 H2588 0.950 . S
C2598 C2599 1.386 . S
C2598 C2600 1.391 . S
C2599 C2598 1.386 . S
C2599 C2603 1.393 . S
C2600 H2589 0.950 . S
C2600 C2598 1.391 . S
C2600 C2601 1.400 . S
C2601 C2595 1.491 . S
C2601 C2600 1.400 . S
C2601 C2602 1.398 . S
C2602 H2590 0.950 . S
C2602 C2601 1.398 . S
C2602 C2603 1.391 . S
C2603 H2591 0.950 . S
C2603 C2599 1.393 . S
C2603 C2602 1.391 . S
H2604 C2612 0.950 . S
H2605 C2617 0.950 . S
H2606 C2614 0.950 . S
H2607 C2616 0.950 . S
H2608 C2618 0.950 . S
H2609 C2620 0.950 . S
H2610 C2622 0.950 . S
H2611 C2623 0.950 . S
C2612 H2604 0.950 . S
C2612 C2613 1.386 . S
C2612 C2614 1.391 . S
C2613 C2612 1.386 . S
C2613 C2617 1.393 . S
C2614 H2606 0.950 . S
C2614 C2612 1.391 . S
C2614 C2615 1.400 . S
C2615 C2614 1.400 . S
C2615 C2616 1.398 . S
C2615 C2621 1.491 . S
C2616 H2607 0.950 . S
C2616 C2615 1.398 . S
C2616 C2617 1.391 . S
C2617 H2605 0.950 . S
C2617 C2613 1.393 . S
C2617 C2616 1.391 . S
C2618 H2608 0.950 . S
C2618 C2619 1.386 . S
C2618 C2620 1.391 . S
C2619 C2618 1.386 . S
C2619 C2623 1.393 . S
C2620 H2609 0.950 . S
C2620 C2618 1.391 . S
C2620 C2621 1.400 . S
C2621 C2615 1.491 . S
C2621 C2620 1.400 . S
C2621 C2622 1.398 . S
C2622 H2610 0.950 . S
C2622 C2621 1.398 . S
C2622 C2623 1.391 . S
C2623 H2611 0.950 . S
C2623 C2619 1.393 . S
C2623 C2622 1.391 . S
H2624 C2632 0.950 . S
H2625 C2637 0.950 . S
H2626 C2634 0.950 . S
H2627 C2636 0.950 . S
H2628 C2638 0.950 . S
H2629 C2640 0.950 . S
H2630 C2642 0.950 . S
H2631 C2643 0.950 . S
C2632 H2624 0.950 . S
C2632 C2633 1.386 . S
C2632 C2634 1.391 . S
C2633 C2632 1.386 . S
C2633 C2637 1.393 . S
C2634 H2626 0.950 . S
C2634 C2632 1.391 . S
C2634 C2635 1.400 . S
C2635 C2634 1.400 . S
C2635 C2636 1.398 . S
C2635 C2641 1.491 . S
C2636 H2627 0.950 . S
C2636 C2635 1.398 . S
C2636 C2637 1.391 . S
C2637 H2625 0.950 . S
C2637 C2633 1.393 . S
C2637 C2636 1.391 . S
C2638 H2628 0.950 . S
C2638 C2639 1.386 . S
C2638 C2640 1.391 . S
C2639 C2638 1.386 . S
C2639 C2643 1.393 . S
C2640 H2629 0.950 . S
C2640 C2638 1.391 . S
C2640 C2641 1.400 . S
C2641 C2635 1.491 . S
C2641 C2640 1.400 . S
C2641 C2642 1.398 . S
C2642 H2630 0.950 . S
C2642 C2641 1.398 . S
C2642 C2643 1.391 . S
C2643 H2631 0.950 . S
C2643 C2639 1.393 . S
C2643 C2642 1.391 . S
H2644 C2652 0.950 . S
H2645 C2657 0.950 . S
H2646 C2654 0.950 . S
H2647 C2656 0.950 . S
H2648 C2658 0.950 . S
H2649 C2660 0.950 . S
H2650 C2662 0.950 . S
H2651 C2663 0.950 . S
C2652 H2644 0.950 . S
C2652 C2653 1.386 . S
C2652 C2654 1.391 . S
C2653 C2652 1.386 . S
C2653 C2657 1.393 . S
C2654 H2646 0.950 . S
C2654 C2652 1.391 . S
C2654 C2655 1.400 . S
C2655 C2654 1.400 . S
C2655 C2656 1.398 . S
C2655 C2661 1.491 . S
C2656 H2647 0.950 . S
C2656 C2655 1.398 . S
C2656 C2657 1.391 . S
C2657 H2645 0.950 . S
C2657 C2653 1.393 . S
C2657 C2656 1.391 . S
C2658 H2648 0.950 . S
C2658 C2659 1.386 . S
C2658 C2660 1.391 . S
C2659 C2658 1.386 . S
C2659 C2663 1.393 . S
C2660 H2649 0.950 . S
C2660 C2658 1.391 . S
C2660 C2661 1.400 . S
C2661 C2655 1.491 . S
C2661 C2660 1.400 . S
C2661 C2662 1.398 . S
C2662 H2650 0.950 . S
C2662 C2661 1.398 . S
C2662 C2663 1.391 . S
C2663 H2651 0.950 . S
C2663 C2659 1.393 . S
C2663 C2662 1.391 . S
H2664 C2672 0.950 . S
H2665 C2677 0.950 . S
H2666 C2674 0.950 . S
H2667 C2676 0.950 . S
H2668 C2678 0.950 . S
H2669 C2680 0.950 . S
H2670 C2682 0.950 . S
H2671 C2683 0.950 . S
C2672 H2664 0.950 . S
C2672 C2673 1.386 . S
C2672 C2674 1.391 . S
C2673 C2672 1.386 . S
C2673 C2677 1.393 . S
C2674 H2666 0.950 . S
C2674 C2672 1.391 . S
C2674 C2675 1.400 . S
C2675 C2674 1.400 . S
C2675 C2676 1.398 . S
C2675 C2681 1.491 . S
C2676 H2667 0.950 . S
C2676 C2675 1.398 . S
C2676 C2677 1.391 . S
C2677 H2665 0.950 . S
C2677 C2673 1.393 . S
C2677 C2676 1.391 . S
C2678 H2668 0.950 . S
C2678 C2679 1.386 . S
C2678 C2680 1.391 . S
C2679 C2678 1.386 . S
C2679 C2683 1.393 . S
C2680 H2669 0.950 . S
C2680 C2678 1.391 . S
C2680 C2681 1.400 . S
C2681 C2675 1.491 . S
C2681 C2680 1.400 . S
C2681 C2682 1.398 . S
C2682 H2670 0.950 . S
C2682 C2681 1.398 . S
C2682 C2683 1.391 . S
C2683 H2671 0.950 . S
C2683 C2679 1.393 . S
C2683 C2682 1.391 . S
H2684 C2692 0.950 . S
H2685 C2697 0.950 . S
H2686 C2694 0.950 . S
H2687 C2696 0.950 . S
H2688 C2698 0.950 . S
H2689 C2700 0.950 . S
H2690 C2702 0.950 . S
H2691 C2703 0.950 . S
C2692 H2684 0.950 . S
C2692 C2693 1.386 . S
C2692 C2694 1.391 . S
C2693 C2692 1.386 . S
C2693 C2697 1.393 . S
C2694 H2686 0.950 . S
C2694 C2692 1.391 . S
C2694 C2695 1.400 . S
C2695 C2694 1.400 . S
C2695 C2696 1.398 . S
C2695 C2701 1.491 . S
C2696 H2687 0.950 . S
C2696 C2695 1.398 . S
C2696 C2697 1.391 . S
C2697 H2685 0.950 . S
C2697 C2693 1.393 . S
C2697 C2696 1.391 . S
C2698 H2688 0.950 . S
C2698 C2699 1.386 . S
C2698 C2700 1.391 . S
C2699 C2698 1.386 . S
C2699 C2703 1.393 . S
C2700 H2689 0.950 . S
C2700 C2698 1.391 . S
C2700 C2701 1.400 . S
C2701 C2695 1.491 . S
C2701 C2700 1.400 . S
C2701 C2702 1.398 . S
C2702 H2690 0.950 . S
C2702 C2701 1.398 . S
C2702 C2703 1.391 . S
C2703 H2691 0.950 . S
C2703 C2699 1.393 . S
C2703 C2702 1.391 . S
H2704 C2712 0.950 . S
H2705 C2717 0.950 . S
H2706 C2714 0.950 . S
H2707 C2716 0.950 . S
H2708 C2718 0.950 . S
H2709 C2720 0.950 . S
H2710 C2722 0.950 . S
H2711 C2723 0.950 . S
C2712 H2704 0.950 . S
C2712 C2713 1.386 . S
C2712 C2714 1.391 . S
C2713 C2712 1.386 . S
C2713 C2717 1.393 . S
C2714 H2706 0.950 . S
C2714 C2712 1.391 . S
C2714 C2715 1.400 . S
C2715 C2714 1.400 . S
C2715 C2716 1.398 . S
C2715 C2721 1.491 . S
C2716 H2707 0.950 . S
C2716 C2715 1.398 . S
C2716 C2717 1.391 . S
C2717 H2705 0.950 . S
C2717 C2713 1.393 . S
C2717 C2716 1.391 . S
C2718 H2708 0.950 . S
C2718 C2719 1.386 . S
C2718 C2720 1.391 . S
C2719 C2718 1.386 . S
C2719 C2723 1.393 . S
C2720 H2709 0.950 . S
C2720 C2718 1.391 . S
C2720 C2721 1.400 . S
C2721 C2715 1.491 . S
C2721 C2720 1.400 . S
C2721 C2722 1.398 . S
C2722 H2710 0.950 . S
C2722 C2721 1.398 . S
C2722 C2723 1.391 . S
C2723 H2711 0.950 . S
C2723 C2719 1.393 . S
C2723 C2722 1.391 . S
H2724 C2732 0.950 . S
H2725 C2737 0.950 . S
H2726 C2734 0.950 . S
H2727 C2736 0.950 . S
H2728 C2738 0.950 . S
H2729 C2740 0.950 . S
H2730 C2742 0.950 . S
H2731 C2743 0.950 . S
C2732 H2724 0.950 . S
C2732 C2733 1.386 . S
C2732 C2734 1.391 . S
C2733 C2732 1.386 . S
C2733 C2737 1.393 . S
C2734 H2726 0.950 . S
C2734 C2732 1.391 . S
C2734 C2735 1.400 . S
C2735 C2734 1.400 . S
C2735 C2736 1.398 . S
C2735 C2741 1.491 . S
C2736 H2727 0.950 . S
C2736 C2735 1.398 . S
C2736 C2737 1.391 . S
C2737 H2725 0.950 . S
C2737 C2733 1.393 . S
C2737 C2736 1.391 . S
C2738 H2728 0.950 . S
C2738 C2739 1.386 . S
C2738 C2740 1.391 . S
C2739 C2738 1.386 . S
C2739 C2743 1.393 . S
C2740 H2729 0.950 . S
C2740 C2738 1.391 . S
C2740 C2741 1.400 . S
C2741 C2735 1.491 . S
C2741 C2740 1.400 . S
C2741 C2742 1.398 . S
C2742 H2730 0.950 . S
C2742 C2741 1.398 . S
C2742 C2743 1.391 . S
C2743 H2731 0.950 . S
C2743 C2739 1.393 . S
C2743 C2742 1.391 . S
H2744 C2752 0.950 . S
H2745 C2757 0.950 . S
H2746 C2754 0.950 . S
H2747 C2756 0.950 . S
H2748 C2758 0.950 . S
H2749 C2760 0.950 . S
H2750 C2762 0.950 . S
H2751 C2763 0.950 . S
C2752 H2744 0.950 . S
C2752 C2753 1.386 . S
C2752 C2754 1.391 . S
C2753 C2752 1.386 . S
C2753 C2757 1.393 . S
C2754 H2746 0.950 . S
C2754 C2752 1.391 . S
C2754 C2755 1.400 . S
C2755 C2754 1.400 . S
C2755 C2756 1.398 . S
C2755 C2761 1.491 . S
C2756 H2747 0.950 . S
C2756 C2755 1.398 . S
C2756 C2757 1.391 . S
C2757 H2745 0.950 . S
C2757 C2753 1.393 . S
C2757 C2756 1.391 . S
C2758 H2748 0.950 . S
C2758 C2759 1.386 . S
C2758 C2760 1.391 . S
C2759 C2758 1.386 . S
C2759 C2763 1.393 . S
C2760 H2749 0.950 . S
C2760 C2758 1.391 . S
C2760 C2761 1.400 . S
C2761 C2755 1.491 . S
C2761 C2760 1.400 . S
C2761 C2762 1.398 . S
C2762 H2750 0.950 . S
C2762 C2761 1.398 . S
C2762 C2763 1.391 . S
C2763 H2751 0.950 . S
C2763 C2759 1.393 . S
C2763 C2762 1.391 . S
H2764 C2772 0.950 . S
H2765 C2777 0.950 . S
H2766 C2774 0.950 . S
H2767 C2776 0.950 . S
H2768 C2778 0.950 . S
H2769 C2780 0.950 . S
H2770 C2782 0.950 . S
H2771 C2783 0.950 . S
C2772 H2764 0.950 . S
C2772 C2773 1.386 . S
C2772 C2774 1.391 . S
C2773 C2772 1.386 . S
C2773 C2777 1.393 . S
C2774 H2766 0.950 . S
C2774 C2772 1.391 . S
C2774 C2775 1.400 . S
C2775 C2774 1.400 . S
C2775 C2776 1.398 . S
C2775 C2781 1.491 . S
C2776 H2767 0.950 . S
C2776 C2775 1.398 . S
C2776 C2777 1.391 . S
C2777 H2765 0.950 . S
C2777 C2773 1.393 . S
C2777 C2776 1.391 . S
C2778 H2768 0.950 . S
C2778 C2779 1.386 . S
C2778 C2780 1.391 . S
C2779 C2778 1.386 . S
C2779 C2783 1.393 . S
C2780 H2769 0.950 . S
C2780 C2778 1.391 . S
C2780 C2781 1.400 . S
C2781 C2775 1.491 . S
C2781 C2780 1.400 . S
C2781 C2782 1.398 . S
C2782 H2770 0.950 . S
C2782 C2781 1.398 . S
C2782 C2783 1.391 . S
C2783 H2771 0.950 . S
C2783 C2779 1.393 . S
C2783 C2782 1.391 . S
H2784 C2792 0.950 . S
H2785 C2797 0.950 . S
H2786 C2794 0.950 . S
H2787 C2796 0.950 . S
H2788 C2798 0.950 . S
H2789 C2800 0.950 . S
H2790 C2802 0.950 . S
H2791 C2803 0.950 . S
C2792 H2784 0.950 . S
C2792 C2793 1.386 . S
C2792 C2794 1.391 . S
C2793 C2792 1.386 . S
C2793 C2797 1.393 . S
C2794 H2786 0.950 . S
C2794 C2792 1.391 . S
C2794 C2795 1.400 . S
C2795 C2794 1.400 . S
C2795 C2796 1.398 . S
C2795 C2801 1.491 . S
C2796 H2787 0.950 . S
C2796 C2795 1.398 . S
C2796 C2797 1.391 . S
C2797 H2785 0.950 . S
C2797 C2793 1.393 . S
C2797 C2796 1.391 . S
C2798 H2788 0.950 . S
C2798 C2799 1.386 . S
C2798 C2800 1.391 . S
C2799 C2798 1.386 . S
C2799 C2803 1.393 . S
C2800 H2789 0.950 . S
C2800 C2798 1.391 . S
C2800 C2801 1.400 . S
C2801 C2795 1.491 . S
C2801 C2800 1.400 . S
C2801 C2802 1.398 . S
C2802 H2790 0.950 . S
C2802 C2801 1.398 . S
C2802 C2803 1.391 . S
C2803 H2791 0.950 . S
C2803 C2799 1.393 . S
C2803 C2802 1.391 . S
H2804 C2812 0.950 . S
H2805 C2817 0.950 . S
H2806 C2814 0.950 . S
H2807 C2816 0.950 . S
H2808 C2818 0.950 . S
H2809 C2820 0.950 . S
H2810 C2822 0.950 . S
H2811 C2823 0.950 . S
C2812 H2804 0.950 . S
C2812 C2813 1.386 . S
C2812 C2814 1.391 . S
C2813 C2812 1.386 . S
C2813 C2817 1.393 . S
C2814 H2806 0.950 . S
C2814 C2812 1.391 . S
C2814 C2815 1.400 . S
C2815 C2814 1.400 . S
C2815 C2816 1.398 . S
C2815 C2821 1.491 . S
C2816 H2807 0.950 . S
C2816 C2815 1.398 . S
C2816 C2817 1.391 . S
C2817 H2805 0.950 . S
C2817 C2813 1.393 . S
C2817 C2816 1.391 . S
C2818 H2808 0.950 . S
C2818 C2819 1.386 . S
C2818 C2820 1.391 . S
C2819 C2818 1.386 . S
C2819 C2823 1.393 . S
C2820 H2809 0.950 . S
C2820 C2818 1.391 . S
C2820 C2821 1.400 . S
C2821 C2815 1.491 . S
C2821 C2820 1.400 . S
C2821 C2822 1.398 . S
C2822 H2810 0.950 . S
C2822 C2821 1.398 . S
C2822 C2823 1.391 . S
C2823 H2811 0.950 . S
C2823 C2819 1.393 . S
C2823 C2822 1.391 . S
H2824 C2832 0.950 . S
H2825 C2837 0.950 . S
H2826 C2834 0.950 . S
H2827 C2836 0.950 . S
H2828 C2838 0.950 . S
H2829 C2840 0.950 . S
H2830 C2842 0.950 . S
H2831 C2843 0.950 . S
C2832 H2824 0.950 . S
C2832 C2833 1.386 . S
C2832 C2834 1.391 . S
C2833 C2832 1.386 . S
C2833 C2837 1.393 . S
C2834 H2826 0.950 . S
C2834 C2832 1.391 . S
C2834 C2835 1.400 . S
C2835 C2834 1.400 . S
C2835 C2836 1.398 . S
C2835 C2841 1.491 . S
C2836 H2827 0.950 . S
C2836 C2835 1.398 . S
C2836 C2837 1.391 . S
C2837 H2825 0.950 . S
C2837 C2833 1.393 . S
C2837 C2836 1.391 . S
C2838 H2828 0.950 . S
C2838 C2839 1.386 . S
C2838 C2840 1.391 . S
C2839 C2838 1.386 . S
C2839 C2843 1.393 . S
C2840 H2829 0.950 . S
C2840 C2838 1.391 . S
C2840 C2841 1.400 . S
C2841 C2835 1.491 . S
C2841 C2840 1.400 . S
C2841 C2842 1.398 . S
C2842 H2830 0.950 . S
C2842 C2841 1.398 . S
C2842 C2843 1.391 . S
C2843 H2831 0.950 . S
C2843 C2839 1.393 . S
C2843 C2842 1.391 . S
H2844 C2852 0.950 . S
H2845 C2857 0.950 . S
H2846 C2854 0.950 . S
H2847 C2856 0.950 . S
H2848 C2858 0.950 . S
H2849 C2860 0.950 . S
H2850 C2862 0.950 . S
H2851 C2863 0.950 . S
C2852 H2844 0.950 . S
C2852 C2853 1.386 . S
C2852 C2854 1.391 . S
C2853 C2852 1.386 . S
C2853 C2857 1.393 . S
C2854 H2846 0.950 . S
C2854 C2852 1.391 . S
C2854 C2855 1.400 . S
C2855 C2854 1.400 . S
C2855 C2856 1.398 . S
C2855 C2861 1.491 . S
C2856 H2847 0.950 . S
C2856 C2855 1.398 . S
C2856 C2857 1.391 . S
C2857 H2845 0.950 . S
C2857 C2853 1.393 . S
C2857 C2856 1.391 . S
C2858 H2848 0.950 . S
C2858 C2859 1.386 . S
C2858 C2860 1.391 . S
C2859 C2858 1.386 . S
C2859 C2863 1.393 . S
C2860 H2849 0.950 . S
C2860 C2858 1.391 . S
C2860 C2861 1.400 . S
C2861 C2855 1.491 . S
C2861 C2860 1.400 . S
C2861 C2862 1.398 . S
C2862 H2850 0.950 . S
C2862 C2861 1.398 . S
C2862 C2863 1.391 . S
C2863 H2851 0.950 . S
C2863 C2859 1.393 . S
C2863 C2862 1.391 . S
H2864 C2872 0.950 . S
H2865 C2877 0.950 . S
H2866 C2874 0.950 . S
H2867 C2876 0.950 . S
H2868 C2878 0.950 . S
H2869 C2880 0.950 . S
H2870 C2882 0.950 . S
H2871 C2883 0.950 . S
C2872 H2864 0.950 . S
C2872 C2873 1.386 . S
C2872 C2874 1.391 . S
C2873 C2872 1.386 . S
C2873 C2877 1.393 . S
C2874 H2866 0.950 . S
C2874 C2872 1.391 . S
C2874 C2875 1.400 . S
C2875 C2874 1.400 . S
C2875 C2876 1.398 . S
C2875 C2881 1.491 . S
C2876 H2867 0.950 . S
C2876 C2875 1.398 . S
C2876 C2877 1.391 . S
C2877 H2865 0.950 . S
C2877 C2873 1.393 . S
C2877 C2876 1.391 . S
C2878 H2868 0.950 . S
C2878 C2879 1.386 . S
C2878 C2880 1.391 . S
C2879 C2878 1.386 . S
C2879 C2883 1.393 . S
C2880 H2869 0.950 . S
C2880 C2878 1.391 . S
C2880 C2881 1.400 . S
C2881 C2875 1.491 . S
C2881 C2880 1.400 . S
C2881 C2882 1.398 . S
C2882 H2870 0.950 . S
C2882 C2881 1.398 . S
C2882 C2883 1.391 . S
C2883 H2871 0.950 . S
C2883 C2879 1.393 . S
C2883 C2882 1.391 . S
H2884 C2892 0.950 . S
H2885 C2897 0.950 . S
H2886 C2894 0.950 . S
H2887 C2896 0.950 . S
H2888 C2898 0.950 . S
H2889 C2900 0.950 . S
H2890 C2902 0.950 . S
H2891 C2903 0.950 . S
C2892 H2884 0.950 . S
C2892 C2893 1.386 . S
C2892 C2894 1.391 . S
C2893 C2892 1.386 . S
C2893 C2897 1.393 . S
C2894 H2886 0.950 . S
C2894 C2892 1.391 . S
C2894 C2895 1.400 . S
C2895 C2894 1.400 . S
C2895 C2896 1.398 . S
C2895 C2901 1.491 . S
C2896 H2887 0.950 . S
C2896 C2895 1.398 . S
C2896 C2897 1.391 . S
C2897 H2885 0.950 . S
C2897 C2893 1.393 . S
C2897 C2896 1.391 . S
C2898 H2888 0.950 . S
C2898 C2899 1.386 . S
C2898 C2900 1.391 . S
C2899 C2898 1.386 . S
C2899 C2903 1.393 . S
C2900 H2889 0.950 . S
C2900 C2898 1.391 . S
C2900 C2901 1.400 . S
C2901 C2895 1.491 . S
C2901 C2900 1.400 . S
C2901 C2902 1.398 . S
C2902 H2890 0.950 . S
C2902 C2901 1.398 . S
C2902 C2903 1.391 . S
C2903 H2891 0.950 . S
C2903 C2899 1.393 . S
C2903 C2902 1.391 . S
H2904 C2912 0.950 . S
H2905 C2917 0.950 . S
H2906 C2914 0.950 . S
H2907 C2916 0.950 . S
H2908 C2918 0.950 . S
H2909 C2920 0.950 . S
H2910 C2922 0.950 . S
H2911 C2923 0.950 . S
C2912 H2904 0.950 . S
C2912 C2913 1.386 . S
C2912 C2914 1.391 . S
C2913 C2912 1.386 . S
C2913 C2917 1.393 . S
C2914 H2906 0.950 . S
C2914 C2912 1.391 . S
C2914 C2915 1.400 . S
C2915 C2914 1.400 . S
C2915 C2916 1.398 . S
C2915 C2921 1.491 . S
C2916 H2907 0.950 . S
C2916 C2915 1.398 . S
C2916 C2917 1.391 . S
C2917 H2905 0.950 . S
C2917 C2913 1.393 . S
C2917 C2916 1.391 . S
C2918 H2908 0.950 . S
C2918 C2919 1.386 . S
C2918 C2920 1.391 . S
C2919 C2918 1.386 . S
C2919 C2923 1.393 . S
C2920 H2909 0.950 . S
C2920 C2918 1.391 . S
C2920 C2921 1.400 . S
C2921 C2915 1.491 . S
C2921 C2920 1.400 . S
C2921 C2922 1.398 . S
C2922 H2910 0.950 . S
C2922 C2921 1.398 . S
C2922 C2923 1.391 . S
C2923 H2911 0.950 . S
C2923 C2919 1.393 . S
C2923 C2922 1.391 . S
H2924 C2932 0.950 . S
H2925 C2937 0.950 . S
H2926 C2934 0.950 . S
H2927 C2936 0.950 . S
H2928 C2938 0.950 . S
H2929 C2940 0.950 . S
H2930 C2942 0.950 . S
H2931 C2943 0.950 . S
C2932 H2924 0.950 . S
C2932 C2933 1.386 . S
C2932 C2934 1.391 . S
C2933 C2932 1.386 . S
C2933 C2937 1.393 . S
C2934 H2926 0.950 . S
C2934 C2932 1.391 . S
C2934 C2935 1.400 . S
C2935 C2934 1.400 . S
C2935 C2936 1.398 . S
C2935 C2941 1.491 . S
C2936 H2927 0.950 . S
C2936 C2935 1.398 . S
C2936 C2937 1.391 . S
C2937 H2925 0.950 . S
C2937 C2933 1.393 . S
C2937 C2936 1.391 . S
C2938 H2928 0.950 . S
C2938 C2939 1.386 . S
C2938 C2940 1.391 . S
C2939 C2938 1.386 . S
C2939 C2943 1.393 . S
C2940 H2929 0.950 . S
C2940 C2938 1.391 . S
C2940 C2941 1.400 . S
C2941 C2935 1.491 . S
C2941 C2940 1.400 . S
C2941 C2942 1.398 . S
C2942 H2930 0.950 . S
C2942 C2941 1.398 . S
C2942 C2943 1.391 . S
C2943 H2931 0.950 . S
C2943 C2939 1.393 . S
C2943 C2942 1.391 . S
H2944 C2952 0.950 . S
H2945 C2957 0.950 . S
H2946 C2954 0.950 . S
H2947 C2956 0.950 . S
H2948 C2958 0.950 . S
H2949 C2960 0.950 . S
H2950 C2962 0.950 . S
H2951 C2963 0.950 . S
C2952 H2944 0.950 . S
C2952 C2953 1.386 . S
C2952 C2954 1.391 . S
C2953 C2952 1.386 . S
C2953 C2957 1.393 . S
C2954 H2946 0.950 . S
C2954 C2952 1.391 . S
C2954 C2955 1.400 . S
C2955 C2954 1.400 . S
C2955 C2956 1.398 . S
C2955 C2961 1.491 . S
C2956 H2947 0.950 . S
C2956 C2955 1.398 . S
C2956 C2957 1.391 . S
C2957 H2945 0.950 . S
C2957 C2953 1.393 . S
C2957 C2956 1.391 . S
C2958 H2948 0.950 . S
C2958 C2959 1.386 . S
C2958 C2960 1.391 . S
C2959 C2958 1.386 . S
C2959 C2963 1.393 . S
C2960 H2949 0.950 . S
C2960 C2958 1.391 . S
C2960 C2961 1.400 . S
C2961 C2955 1.491 . S
C2961 C2960 1.400 . S
C2961 C2962 1.398 . S
C2962 H2950 0.950 . S
C2962 C2961 1.398 . S
C2962 C2963 1.391 . S
C2963 H2951 0.950 . S
C2963 C2959 1.393 . S
C2963 C2962 1.391 . S
H2964 C2972 0.950 . S
H2965 C2977 0.950 . S
H2966 C2974 0.950 . S
H2967 C2976 0.950 . S
H2968 C2978 0.950 . S
H2969 C2980 0.950 . S
H2970 C2982 0.950 . S
H2971 C2983 0.950 . S
C2972 H2964 0.950 . S
C2972 C2973 1.386 . S
C2972 C2974 1.391 . S
C2973 C2972 1.386 . S
C2973 C2977 1.393 . S
C2974 H2966 0.950 . S
C2974 C2972 1.391 . S
C2974 C2975 1.400 . S
C2975 C2974 1.400 . S
C2975 C2976 1.398 . S
C2975 C2981 1.491 . S
C2976 H2967 0.950 . S
C2976 C2975 1.398 . S
C2976 C2977 1.391 . S
C2977 H2965 0.950 . S
C2977 C2973 1.393 . S
C2977 C2976 1.391 . S
C2978 H2968 0.950 . S
C2978 C2979 1.386 . S
C2978 C2980 1.391 . S
C2979 C2978 1.386 . S
C2979 C2983 1.393 . S
C2980 H2969 0.950 . S
C2980 C2978 1.391 . S
C2980 C2981 1.400 . S
C2981 C2975 1.491 . S
C2981 C2980 1.400 . S
C2981 C2982 1.398 . S
C2982 H2970 0.950 . S
C2982 C2981 1.398 . S
C2982 C2983 1.391 . S
C2983 H2971 0.950 . S
C2983 C2979 1.393 . S
C2983 C2982 1.391 . S
H2984 C2992 0.950 . S
H2985 C2997 0.950 . S
H2986 C2994 0.950 . S
H2987 C2996 0.950 . S
H2988 C2998 0.950 . S
H2989 C3000 0.950 . S
H2990 C3002 0.950 . S
H2991 C3003 0.950 . S
C2992 H2984 0.950 . S
C2992 C2993 1.386 . S
C2992 C2994 1.391 . S
C2993 C2992 1.386 . S
C2993 C2997 1.393 . S
C2994 H2986 0.950 . S
C2994 C2992 1.391 . S
C2994 C2995 1.400 . S
C2995 C2994 1.400 . S
C2995 C2996 1.398 . S
C2995 C3001 1.491 . S
C2996 H2987 0.950 . S
C2996 C2995 1.398 . S
C2996 C2997 1.391 . S
C2997 H2985 0.950 . S
C2997 C2993 1.393 . S
C2997 C2996 1.391 . S
C2998 H2988 0.950 . S
C2998 C2999 1.386 . S
C2998 C3000 1.391 . S
C2999 C2998 1.386 . S
C2999 C3003 1.393 . S
C3000 H2989 0.950 . S
C3000 C2998 1.391 . S
C3000 C3001 1.400 . S
C3001 C2995 1.491 . S
C3001 C3000 1.400 . S
C3001 C3002 1.398 . S
C3002 H2990 0.950 . S
C3002 C3001 1.398 . S
C3002 C3003 1.391 . S
C3003 H2991 0.950 . S
C3003 C2999 1.393 . S
C3003 C3002 1.391 . S
H3004 C3012 0.950 . S
H3005 C3017 0.950 . S
H3006 C3014 0.950 . S
H3007 C3016 0.950 . S
H3008 C3018 0.950 . S
H3009 C3020 0.950 . S
H3010 C3022 0.950 . S
H3011 C3023 0.950 . S
C3012 H3004 0.950 . S
C3012 C3013 1.386 . S
C3012 C3014 1.391 . S
C3013 C3012 1.386 . S
C3013 C3017 1.393 . S
C3014 H3006 0.950 . S
C3014 C3012 1.391 . S
C3014 C3015 1.400 . S
C3015 C3014 1.400 . S
C3015 C3016 1.398 . S
C3015 C3021 1.491 . S
C3016 H3007 0.950 . S
C3016 C3015 1.398 . S
C3016 C3017 1.391 . S
C3017 H3005 0.950 . S
C3017 C3013 1.393 . S
C3017 C3016 1.391 . S
C3018 H3008 0.950 . S
C3018 C3019 1.386 . S
C3018 C3020 1.391 . S
C3019 C3018 1.386 . S
C3019 C3023 1.393 . S
C3020 H3009 0.950 . S
C3020 C3018 1.391 . S
C3020 C3021 1.400 . S
C3021 C3015 1.491 . S
C3021 C3020 1.400 . S
C3021 C3022 1.398 . S
C3022 H3010 0.950 . S
C3022 C3021 1.398 . S
C3022 C3023 1.391 . S
C3023 H3011 0.950 . S
C3023 C3019 1.393 . S
C3023 C3022 1.391 . S
C1233 C135 1.438 . S
C1239 C33 1.430 . S
C1253 C67 1.436 . S
C1259 C169 1.431 . S
C1273 C203 1.428 . S
C1279 C101 1.439 . S
C1293 C339 1.439 . S
C1299 C237 1.428 . S
C1313 C271 1.428 . S
C1319 C373 1.439 . S
C1333 C407 1.428 . S
C1339 C305 1.438 . S
C1353 C543 1.430 . S
C1359 C441 1.437 . S
C1373 C475 1.439 . S
C1379 C577 1.428 . S
C1393 C611 1.436 . S
C1399 C509 1.431 . S
C1413 C645 1.430 . S
C1419 C747 1.436 1_554 S
C1433 C679 1.436 . S
C1439 C781 1.432 1_554 S
C1453 C815 1.439 1_554 S
C1459 C713 1.428 . S
C1473 C951 1.428 1_556 S
C1479 C849 1.438 . S
C1493 C985 1.433 1_556 S
C1499 C883 1.434 . S
C1513 C1019 1.430 1_556 S
C1519 C917 1.436 . S
C1533 C1155 1.438 . S
C1539 C1053 1.429 . S
C1553 C1087 1.439 . S
C1559 C1189 1.429 . S
C1573 C1223 1.429 . S
C1579 C1121 1.438 . S
C1593 C2 2.321 . S
C1599 C988 2.320 . S
C1613 C920 2.320 . S
C1619 C36 2.321 1_565 S
C1633 C70 2.322 1_455 S
C1639 C954 2.321 . S
C1653 C444 2.322 . S
C1659 C104 2.322 . S
C1673 C138 2.322 1_545 S
C1679 C478 2.322 . S
C1693 C410 2.321 . S
C1699 C172 2.322 1_655 S
C1713 C784 2.321 . S
C1719 C206 2.320 . S
C1733 C716 2.322 . S
C1739 C240 2.322 1_545 S
C1753 C750 2.320 . S
C1759 C274 2.321 1_655 S
C1773 C308 2.321 . S
C1779 C1056 2.320 . S
C1793 C1090 2.322 . S
C1799 C342 2.321 1_565 S
C1813 C376 2.322 1_455 S
C1819 C1022 2.322 . S
C1833 C852 2.320 . S
C1839 C512 2.320 . S
C1853 C886 2.320 . S
C1859 C546 2.321 . S
C1873 C818 2.321 . S
C1879 C580 2.321 . S
C1893 C614 2.320 . S
C1899 C1192 2.320 . S
C1913 C648 2.321 . S
C1919 C1124 2.321 . S
C1933 C1158 2.322 . S
C1939 C682 2.322 . S
C1953 C5 1.440 . S
C1959 C617 1.440 . S
C1973 C651 1.428 . S
C1979 C39 1.428 . S
C1993 C73 1.429 . S
C1999 C685 1.429 . S
C2013 C1127 1.427 . S
C2019 C107 1.427 . S
C2033 C141 1.436 . S
C2039 C1161 1.436 . S
C2053 C1195 1.441 . S
C2059 C175 1.441 . S
C2073 C209 1.430 . S
C2079 C821 1.430 . S
C2093 C243 1.438 . S
C2099 C855 1.438 . S
C2113 C277 1.427 . S
C2119 C889 1.427 . S
C2133 C515 1.427 . S
C2139 C311 1.427 . S
C2153 C549 1.441 . S
C2159 C345 1.441 . S
C2173 C379 1.426 . S
C2179 C583 1.426 . S
C2193 C413 1.441 . S
C2199 C1025 1.441 . S
C2213 C1059 1.425 . S
C2219 C447 1.425 . S
C2233 C481 1.435 . S
C2239 C1093 1.435 . S
C2253 C923 1.441 . S
C2259 C719 1.441 . S
C2273 C753 1.438 . S
C2279 C957 1.438 . S
C2293 C991 1.429 . S
C2299 C787 1.429 . S
C2313 C247 1.078 . S
C2319 C20 1.087 . S
C2333 C54 1.093 . S
C2339 C281 1.067 . S
C2353 C88 1.088 . S
C2359 C213 1.087 . S
C2373 C122 1.089 . S
C2379 C383 1.071 . S
C2393 C156 1.106 . S
C2399 C315 1.071 . S
C2413 C190 1.100 . S
C2419 C349 1.066 . S
C2433 C43 1.085 . S
C2439 C224 1.110 . S
C2453 C77 1.066 . S
C2459 C258 1.094 . S
C2473 C9 1.093 . S
C2479 C292 1.109 . S
C2493 C326 1.109 . S
C2499 C179 1.092 . S
C2513 C360 1.088 . S
C2519 C111 1.083 . S
C2533 C394 1.094 . S
C2539 C145 1.096 . S
C2553 C428 1.098 . S
C2559 C655 1.098 . S
C2573 C689 1.089 . S
C2579 C462 1.110 . S
C2593 C621 1.070 . S
C2599 C496 1.105 . S
C2613 C530 1.103 . S
C2619 C791 1.098 . S
C2633 C723 1.079 . S
C2639 C564 1.110 . S
C2653 C757 1.068 . S
C2659 C598 1.103 . S
C2673 C632 1.110 . S
C2679 C451 1.080 . S
C2693 C666 1.091 . S
C2699 C485 1.069 . S
C2713 C417 1.067 . S
C2719 C700 1.093 . S
C2733 C587 1.073 . S
C2739 C734 1.088 . S
C2753 C519 1.083 . S
C2759 C768 1.088 . S
C2773 C553 1.097 . S
C2779 C802 1.106 . S
C2793 C836 1.103 . S
C2799 C1063 1.068 . S
C2813 C1097 1.097 . S
C2819 C870 1.105 . S
C2833 C1029 1.075 . S
C2839 C904 1.108 . S
C2853 C938 1.098 . S
C2859 C1199 1.066 . S
C2873 C972 1.088 . S
C2879 C1131 1.080 . S
C2893 C1006 1.089 . S
C2899 C1165 1.089 . S
C2913 C859 1.092 . S
C2919 C1040 1.109 . S
C2933 C893 1.096 . S
C2939 C1074 1.107 . S
C2953 C1108 1.088 . S
C2959 C825 1.077 . S
C2973 C1142 1.087 . S
C2979 C995 1.077 . S
C2993 C1176 1.090 . S
C2999 C927 1.090 . S
C3013 C1210 1.087 . S
C3019 C961 1.080 . S
