# Generated by pormake.
# Topology uov, (4)-cn, num edge types: 1
# Building blocks:
#     Node 0, Type 0, BuildingBlock: NAHDIM_clean_sbu_0, # of connection points: 4
#     Node 1, Type 0, BuildingBlock: NAHDIM_clean_sbu_0, # of connection points: 4
#     Node 2, Type 0, BuildingBlock: NAHDIM_clean_sbu_0, # of connection points: 4
#     Node 3, Type 0, BuildingBlock: NAHDIM_clean_sbu_0, # of connection points: 4
#     Node 4, Type 0, BuildingBlock: NAHDIM_clean_sbu_0, # of connection points: 4
#     Node 5, Type 0, BuildingBlock: NAHDIM_clean_sbu_0, # of connection points: 4
#     Node 6, Type 0, BuildingBlock: NAHDIM_clean_sbu_0, # of connection points: 4
#     Node 7, Type 0, BuildingBlock: NAHDIM_clean_sbu_0, # of connection points: 4
#     Edge 8, Type (0, 0), BuildingBlock: EZIPEK_clean_linker_0, # of connection points: 2
#     Edge 9, Type (0, 0), BuildingBlock: EZIPEK_clean_linker_0, # of connection points: 2
#     Edge 10, Type (0, 0), BuildingBlock: EZIPEK_clean_linker_0, # of connection points: 2
#     Edge 11, Type (0, 0), BuildingBlock: EZIPEK_clean_linker_0, # of connection points: 2
#     Edge 12, Type (0, 0), BuildingBlock: EZIPEK_clean_linker_0, # of connection points: 2
#     Edge 13, Type (0, 0), BuildingBlock: EZIPEK_clean_linker_0, # of connection points: 2
#     Edge 14, Type (0, 0), BuildingBlock: EZIPEK_clean_linker_0, # of connection points: 2
#     Edge 15, Type (0, 0), BuildingBlock: EZIPEK_clean_linker_0, # of connection points: 2
#     Edge 16, Type (0, 0), BuildingBlock: EZIPEK_clean_linker_0, # of connection points: 2
#     Edge 17, Type (0, 0), BuildingBlock: EZIPEK_clean_linker_0, # of connection points: 2
#     Edge 18, Type (0, 0), BuildingBlock: EZIPEK_clean_linker_0, # of connection points: 2
#     Edge 19, Type (0, 0), BuildingBlock: EZIPEK_clean_linker_0, # of connection points: 2
#     Edge 20, Type (0, 0), BuildingBlock: EZIPEK_clean_linker_0, # of connection points: 2
#     Edge 21, Type (0, 0), BuildingBlock: EZIPEK_clean_linker_0, # of connection points: 2
#     Edge 22, Type (0, 0), BuildingBlock: EZIPEK_clean_linker_0, # of connection points: 2
#     Edge 23, Type (0, 0), BuildingBlock: EZIPEK_clean_linker_0, # of connection points: 2
# Relax obj value: 0.256
# Max RMSD: 0.234
# Mean RMSD: 0.234
data_MOF--net-uov--node1-NAHDIM_clean_sbu_0--edge1-EZIPEK_clean_linker_0
_symmetry_space_group_name_H-M    P1
_symmetry_Int_Tables_number       1
_symmetry_cell_setting            triclinic
loop_
_symmetry_equiv_pos_as_xyz
'x, y, z'
_cell_length_a     22.392124
_cell_length_b     22.397999
_cell_length_c     30.041947
_cell_angle_alpha  89.887941
_cell_angle_beta   89.595155
_cell_angle_gamma 90.275437
loop_
_atom_site_label
_atom_site_type_symbol
_atom_site_fract_x
_atom_site_fract_y
_atom_site_fract_z
_atom_type_partial_charge
C0 C 0.99368 0.37849 0.6299 0.0
O1 O 0.95196 0.34694 0.65008 0.0
O2 O 0.96384 0.23002 0.58017 0.0
Zn3 Zn 0.0399 0.26326 0.60417 0.0
O4 O 0.05908 0.22353 0.66224 0.0
C5 C 0.09351 0.26394 0.51897 0.0
O6 O 0.05171 0.30386 0.51228 0.0
O7 O 0.03575 0.3523 0.60937 0.0
C8 C 0.07426 0.16891 0.66216 0.0
O9 O 0.07717 0.13985 0.62427 0.0
C10 C 0.91686 0.21383 0.60085 0.0
O11 O 0.9121 0.22196 0.644 0.0
O12 O 0.10055 0.24215 0.55765 0.0
C13 C 0.35651 0.00313 0.39805 0.0
O14 O 0.33621 0.0121 0.43861 0.0
O15 O 0.20124 0.06774 0.40204 0.0
Zn16 Zn 0.23242 0.98877 0.38152 0.0
O17 O 0.18592 0.95827 0.32929 0.0
C18 C 0.16652 0.93709 0.45103 0.0
O19 O 0.12765 0.97453 0.43428 0.0
O20 O 0.32002 0.99273 0.36684 0.0
C21 C 0.16614 0.99133 0.29841 0.0
O22 O 0.17593 0.04915 0.29911 0.0
C23 C 0.21761 0.1206 0.39275 0.0
O24 O 0.26022 0.13054 0.36339 0.0
O25 O 0.2181 0.9332 0.43337 0.0
C26 C 0.97817 0.63564 0.62173 0.0
O27 O 0.01492 0.6706 0.6436 0.0
O28 O 0.00502 0.78445 0.56926 0.0
Zn29 Zn 0.92971 0.74683 0.59203 0.0
O30 O 0.90218 0.78215 0.64992 0.0
C31 C 0.88284 0.74938 0.5052 0.0
O32 O 0.92693 0.71194 0.49828 0.0
O33 O 0.93807 0.65833 0.5974 0.0
C34 C 0.88058 0.83445 0.65113 0.0
O35 O 0.8792 0.86694 0.6147 0.0
C36 C 0.0485 0.80874 0.5892 0.0
O37 O 0.05092 0.80839 0.63286 0.0
O38 O 0.87121 0.76677 0.54451 0.0
C39 C 0.61223 -0.00551 0.3722 0.0
O40 O 0.63943 0.94511 0.36056 0.0
O41 O 0.75717 0.9542 0.41236 0.0
Zn42 Zn 0.73153 0.03656 0.39433 0.0
O43 O 0.78018 0.06473 0.34114 0.0
C44 C 0.79208 0.07914 0.47194 0.0
O45 O 0.82199 0.02941 0.46635 0.0
O46 O 0.64251 0.03919 0.38513 0.0
C47 C 0.83675 0.05956 0.34244 0.0
O48 O 0.86181 0.03401 0.37688 0.0
C49 C 0.77062 0.91096 0.38702 0.0
O50 O 0.76511 0.91598 0.3437 0.0
O51 O 0.74953 0.09146 0.44577 0.0
C52 C 0.02591 0.35658 0.14789 0.0
O53 O 0.06793 0.32217 0.16401 0.0
O54 O 0.05664 0.2151 0.10435 0.0
Zn55 Zn 0.97483 0.24503 0.12061 0.0
O56 O 0.9409 0.20256 0.17453 0.0
C57 C 0.89168 0.18343 0.06393 0.0
O58 O 0.88671 0.14766 0.0984 0.0
O59 O 0.98034 0.33336 0.12981 0.0
C60 C 0.97225 0.17202 0.20124 0.0
O61 O 0.03017 0.16776 0.19511 0.0
C62 C 0.06164 0.16271 0.08877 0.0
O63 O 0.01515 0.1268 0.08899 0.0
O64 O 0.92372 0.23017 0.06663 0.0
C65 C 0.36284 0.98736 0.9034 0.0
O66 O 0.34073 0.9704 0.94199 0.0
O67 O 0.20467 0.93367 0.90415 0.0
Zn68 Zn 0.24018 0.01144 0.88408 0.0
O69 O 0.20214 0.04284 0.82867 0.0
C70 C 0.2247 0.05067 0.97464 0.0
O71 O 0.2294 0.993 0.98154 0.0
O72 O 0.32823 0.00539 0.87303 0.0
C73 C 0.14637 0.05063 0.82423 0.0
O74 O 0.10956 0.03606 0.85675 0.0
C75 C 0.22518 0.88131 0.89976 0.0
O76 O 0.27235 0.87165 0.87467 0.0
O77 O 0.22614 0.06925 0.93455 0.0
C78 C 0.04235 0.60945 0.11623 0.0
O79 O 0.0464 0.62248 0.07365 0.0
O80 O 0.96669 0.75942 0.09242 0.0
Zn81 Zn 0.04413 0.73519 0.12012 0.0
O82 O 0.06838 0.79487 0.16682 0.0
C83 C 0.09859 0.78248 0.04304 0.0
O84 O 0.05535 0.82098 0.04927 0.0
O85 O 0.04073 0.65149 0.14452 0.0
C86 C 0.04925 0.84826 0.16683 0.0
O87 O 0.01119 0.86565 0.13646 0.0
C88 C 0.92406 0.72692 0.07877 0.0
O89 O 0.92293 0.6695 0.0875 0.0
O90 O 0.10466 0.73931 0.07012 0.0
C91 C 0.61883 -0.00513 0.88523 0.0
O92 O 0.6497 0.04416 0.87882 0.0
O93 O 0.76198 0.01534 0.93408 0.0
Zn94 Zn 0.73389 0.94403 0.89985 0.0
O95 O 0.7758 0.93778 0.84083 0.0
C96 C 0.80779 0.87191 0.95101 0.0
O97 O 0.84558 0.91395 0.9388 0.0
O98 O 0.64548 0.94629 0.89331 0.0
C99 C 0.76295 0.89341 0.81645 0.0
O100 O 0.72179 0.85523 0.82969 0.0
C101 C 0.78569 0.06214 0.91782 0.0
O102 O 0.79073 0.06866 0.87449 0.0
O103 O 0.75438 0.87342 0.93736 0.0
C104 C 0.99167 0.53672 0.58466 0.0
C105 C 0.98399 0.57001 0.62438 0.0
C106 C 0.98874 0.47784 0.66827 0.0
C107 C 0.98966 0.44431 0.62826 0.0
N108 N 0.9789 0.44134 0.54832 0.0
N109 N 0.96437 0.57182 0.70353 0.0
C110 C 0.98755 0.47358 0.58637 0.0
C111 C 0.97968 0.54053 0.66616 0.0
N112 N 0.00509 0.5652 0.54552 0.0
N113 N -0.00138 0.45023 0.70815 0.0
H114 H 0.95626 0.61762 0.70333 0.0
H115 H 0.95429 0.55151 0.73391 0.0
H116 H 0.00613 0.40447 0.71104 0.0
H117 H 0.00482 0.47341 0.7378 0.0
H118 H 0.01714 0.54263 0.51655 0.0
H119 H 0.01025 0.61141 0.54304 0.0
H120 H 0.97092 0.46102 0.51749 0.0
H121 H 0.9734 0.39508 0.54821 0.0
C122 C 0.51857 0.95706 0.40885 0.0
C123 C 0.5465 -0.00477 0.37711 0.0
C124 C 0.44998 0.04112 0.36052 0.0
C125 C 0.4216 -0.00029 0.3897 0.0
N126 N 0.42688 0.90999 0.4341 0.0
N127 N 0.53862 0.06687 0.31753 0.0
C128 C 0.45532 0.95525 0.41171 0.0
C129 C 0.51213 0.03541 0.35141 0.0
N130 N 0.5524 0.92462 0.43783 0.0
N131 N 0.4181 0.0873 0.34295 0.0
H132 H 0.58406 0.06376 0.31001 0.0
H133 H 0.5149 0.09208 0.29455 0.0
H134 H 0.37256 0.09292 0.34885 0.0
H135 H 0.43755 0.12268 0.32551 0.0
H136 H 0.5344 0.90121 0.46478 0.0
H137 H 0.59896 0.92557 0.4377 0.0
H138 H 0.449 0.87285 0.44664 0.0
H139 H 0.38049 0.90645 0.4364 0.0
C140 C 0.99333 0.4603 0.16643 0.0
C141 C 0.03473 0.4219 0.14517 0.0
C142 C 0.08875 0.50848 0.11526 0.0
C143 C 0.04221 0.54613 0.13049 0.0
N144 N 0.94678 0.55762 0.16759 0.0
N145 N 0.11748 0.40857 0.09407 0.0
C146 C 0.99382 0.5222 0.15579 0.0
C147 C 0.08169 0.44568 0.11848 0.0
N148 N 0.95422 0.43765 0.19734 0.0
N149 N 0.14043 0.53285 0.09868 0.0
H150 H 0.11346 0.36219 0.09467 0.0
H151 H 0.14773 0.42396 0.07012 0.0
H152 H 0.14783 0.57884 0.09694 0.0
H153 H 0.17817 0.5077 0.09113 0.0
H154 H 0.92705 0.4642 0.21735 0.0
H155 H 0.95295 0.39249 0.20595 0.0
H156 H 0.90717 0.54104 0.18127 0.0
H157 H 0.9452 0.60317 0.16076 0.0
C158 C 0.46168 0.02994 0.92479 0.0
C159 C 0.42808 0.99148 0.89698 0.0
C160 C 0.5191 0.9636 0.85658 0.0
C161 C 0.55315 -0.00353 0.88777 0.0
N162 N 0.55829 0.05314 0.95598 0.0
N163 N 0.42445 0.91632 0.8396 0.0
C164 C 0.5249 0.02782 0.923 0.0
C165 C 0.4566 0.95703 0.8635 0.0
N166 N 0.4332 0.07001 0.9518 0.0
N167 N 0.54637 0.93997 0.81979 0.0
H168 H 0.37853 0.91039 0.84358 0.0
H169 H 0.44383 0.88516 0.81834 0.0
H170 H 0.59213 0.94411 0.8137 0.0
H171 H 0.52316 0.92087 0.79345 0.0
H172 H 0.4555 0.10344 0.96921 0.0
H173 H 0.38682 0.07378 0.95352 0.0
H174 H 0.53982 0.0706 0.98506 0.0
H175 H 0.60482 0.05202 0.95635 0.0
C176 C 0.22072 0.20245 0.44965 0.0
C177 C 0.18857 0.16989 0.41709 0.0
C178 C 0.09373 0.20441 0.44837 0.0
C179 C 0.12578 0.23733 0.48088 0.0
N180 N 0.21852 0.27998 0.50596 0.0
N181 N 0.09707 0.15276 0.37755 0.0
C182 C 0.189 0.24042 0.4793 0.0
C183 C 0.12582 0.1755 0.4138 0.0
N184 N 0.28083 0.19424 0.45414 0.0
N185 N 0.03319 0.19713 0.45218 0.0
H186 H 0.1199 0.13204 0.35146 0.0
H187 H 0.05196 0.15957 0.37122 0.0
H188 H 0.00767 0.21618 0.47752 0.0
H189 H 0.00865 0.16799 0.43239 0.0
H190 H 0.30531 0.21091 0.48075 0.0
H191 H 0.30591 0.16755 0.43273 0.0
H192 H 0.26417 0.2885 0.50337 0.0
H193 H 0.19632 0.30844 0.52794 0.0
C194 C 0.14654 0.83942 0.49002 0.0
C195 C 0.15024 0.90262 0.49142 0.0
C196 C 0.09812 0.90371 0.56342 0.0
C197 C 0.09353 0.84052 0.56166 0.0
N198 N 0.12747 0.74756 0.53082 0.0
N199 N 0.14636 0.99308 0.53458 0.0
C200 C 0.12279 0.80821 0.52742 0.0
C201 C 0.13162 0.93412 0.52997 0.0
N202 N 0.16185 0.80948 0.45204 0.0
N203 N 0.06725 0.93506 0.59502 0.0
H204 H 0.17157 0.0163 0.51079 0.0
H205 H 0.1389 0.01717 0.56369 0.0
H206 H 0.04248 0.91481 0.6204 0.0
H207 H 0.06293 0.98133 0.59443 0.0
H208 H 0.15325 0.76422 0.44725 0.0
H209 H 0.17946 0.83056 0.42389 0.0
H210 H 0.15277 0.72171 0.50901 0.0
H211 H 0.11075 0.72384 0.55819 0.0
C212 C 0.76325 0.81931 0.43421 0.0
C213 C 0.79841 0.85794 0.40718 0.0
C214 C 0.88993 0.81909 0.43996 0.0
C215 C 0.85481 0.78069 0.46748 0.0
N216 N 0.7603 0.73374 0.48399 0.0
N217 N 0.89412 0.8835 0.37507 0.0
C218 C 0.79203 0.77738 0.46231 0.0
C219 C 0.86145 0.85358 0.40668 0.0
N220 N 0.70245 0.82416 0.43386 0.0
N221 N 0.94962 0.82655 0.4479 0.0
H222 H 0.87474 0.91025 0.35076 0.0
H223 H 0.93978 0.87726 0.37027 0.0
H224 H 0.97258 0.80366 0.47261 0.0
H225 H 0.97571 0.85934 0.43254 0.0
H226 H 0.67429 0.80286 0.45664 0.0
H227 H 0.68018 0.85168 0.41144 0.0
H228 H 0.71511 0.72548 0.4788 0.0
H229 H 0.78053 0.70223 0.50453 0.0
C230 C 0.81597 0.09445 0.55197 0.0
C231 C 0.80854 0.11947 0.50897 0.0
C232 C 0.84918 0.21428 0.53588 0.0
C233 C 0.86888 0.18498 0.57488 0.0
N234 N 0.87218 0.09583 0.62035 0.0
N235 N 0.8196 0.20405 0.45912 0.0
C236 C 0.85156 0.12503 0.5836 0.0
C237 C 0.82428 0.18009 0.50082 0.0
N238 N 0.78849 0.04163 0.56256 0.0
N239 N 0.85463 0.27493 0.53251 0.0
H240 H 0.80104 0.18151 0.4323 0.0
H241 H 0.83799 0.24523 0.45027 0.0
H242 H 0.8721 0.30098 0.55815 0.0
H243 H 0.8363 0.29972 0.50665 0.0
H244 H 0.78787 0.02371 0.59459 0.0
H245 H 0.76087 0.01904 0.54031 0.0
H246 H 0.86748 0.04996 0.62509 0.0
H247 H 0.89724 0.11654 0.64498 0.0
C248 C 0.87581 0.11053 0.95135 0.0
C249 C 0.81275 0.10561 0.94868 0.0
C250 C 0.8013 0.1615 0.0182 0.0
C251 C 0.86435 0.16568 0.02124 0.0
N252 N 0.96116 0.15811 0.98557 0.0
N253 N 0.71542 0.13816 0.97234 0.0
C254 C 0.90141 0.14529 0.98587 0.0
C255 C 0.77545 0.13502 0.97989 0.0
N256 N 0.91138 0.07844 0.92305 0.0
N257 N 0.76634 0.18172 0.05243 0.0
H258 H 0.69578 0.12009 0.94396 0.0
H259 H 0.68598 0.16305 0.9917 0.0
H260 H 0.78367 0.2049 0.07956 0.0
H261 H 0.72065 0.17348 0.05496 0.0
H262 H 0.95727 0.07385 0.92711 0.0
H263 H 0.89475 0.0525 0.89714 0.0
H264 H 0.98908 0.14999 0.9584 0.0
H265 H 0.98222 0.18174 0.01078 0.0
C266 C 0.18528 0.14937 0.00217 0.0
C267 C 0.204 0.09054 0.01157 0.0
C268 C 0.14692 0.09159 0.08134 0.0
C269 C 0.11731 0.14372 0.06629 0.0
N270 N 0.10855 0.22355 0.01206 0.0
N271 N 0.22989 0.02341 0.07081 0.0
C272 C 0.13754 0.17402 0.02725 0.0
C273 C 0.19321 0.06676 0.05464 0.0
N274 N 0.21526 0.18254 0.971 0.0
N275 N 0.12948 0.06502 0.12035 0.0
H276 H 0.26835 0.01026 0.05371 0.0
H277 H 0.22702 0.00623 0.10296 0.0
H278 H 0.09865 0.08433 0.14211 0.0
H279 H 0.14378 0.02301 0.13043 0.0
H280 H 0.20664 0.22749 0.96502 0.0
H281 H 0.2544 0.16732 0.95585 0.0
H282 H 0.11675 0.24229 0.98083 0.0
H283 H 0.07323 0.24368 0.0289 0.0
C284 C 0.19862 0.80377 0.008 0.0
C285 C 0.13735 0.78896 0.00332 0.0
C286 C 0.14085 0.81628 0.92442 0.0
C287 C 0.20085 0.83486 0.92983 0.0
N288 N 0.29222 0.82993 0.97157 0.0
N289 N 0.05517 0.76364 0.95564 0.0
C290 C 0.2317 0.8224 0.96983 0.0
C291 C 0.1102 0.78925 0.96083 0.0
N292 N 0.22395 0.80449 0.04928 0.0
N293 N 0.11268 0.82707 0.88502 0.0
H294 H 0.03249 0.74273 0.98188 0.0
H295 H 0.03445 0.75827 0.92499 0.0
H296 H 0.13536 0.84377 0.85714 0.0
H297 H 0.06697 0.82153 0.88036 0.0
H298 H 0.26594 0.82252 0.0557 0.0
H299 H 0.2016 0.79018 0.07793 0.0
H300 H 0.31802 0.81676 0.99853 0.0
H301 H 0.31759 0.844 0.94429 0.0
C302 C 0.84911 0.77245 0.97106 0.0
C303 C 0.82568 0.828 0.98482 0.0
C304 C 0.84852 0.80452 0.06239 0.0
C305 C 0.88111 0.7541 0.04775 0.0
N306 N 0.91611 0.69114 0.98769 0.0
N307 N 0.8022 0.89854 0.04279 0.0
C308 C 0.88142 0.73744 0.00207 0.0
C309 C 0.82443 0.84424 0.03039 0.0
N310 N 0.84099 0.75366 0.92825 0.0
N311 N 0.84052 0.81389 0.10699 0.0
H312 H 0.78182 0.92764 0.02044 0.0
H313 H 0.8066 0.91624 0.07461 0.0
H314 H 0.85724 0.78481 0.13103 0.0
H315 H 0.81306 0.84694 0.12011 0.0
H316 H 0.85171 0.71095 0.91726 0.0
H317 H 0.81855 0.77913 0.90458 0.0
H318 H 0.92408 0.68193 0.95422 0.0
H319 H 0.94076 0.66416 0.00893 0.0
C320 C 0.06298 0.08437 0.71696 0.0
C321 C 0.09107 0.13892 0.70425 0.0
C322 C 0.14671 0.13965 0.7741 0.0
C323 C 0.12435 0.08181 0.78416 0.0
N324 N 0.06755 -0.00503 0.76241 0.0
N325 N 0.16909 0.21194 0.71651 0.0
C326 C 0.08399 0.05301 0.75494 0.0
C327 C 0.13541 0.16496 0.73172 0.0
N328 N 0.01489 0.06357 0.69377 0.0
N329 N 0.17726 0.1713 0.80555 0.0
H330 H 0.16423 0.23046 0.68489 0.0
H331 H 0.20612 0.22843 0.7334 0.0
H332 H 0.18522 0.15494 0.83749 0.0
H333 H 0.1892 0.21602 0.80153 0.0
H334 H 0.9888 0.02749 0.70424 0.0
H335 H -0.00243 0.0856 0.66619 0.0
H336 H 0.04386 0.96952 0.73948 0.0
H337 H 0.08183 0.97054 0.78991 0.0
C338 C 0.13607 0.9111 0.19006 0.0
C339 C 0.07605 0.89247 0.1973 0.0
C340 C 0.07214 0.94754 0.26771 0.0
C341 C 0.13296 0.96377 0.2614 0.0
N342 N 0.21966 0.97257 0.21397 0.0
N343 N 0.98282 0.90135 0.23723 0.0
C344 C 0.16389 0.9493 0.22157 0.0
C345 C 0.04261 0.91372 0.23426 0.0
N346 N 0.16651 0.89131 0.15331 0.0
N347 N 0.04342 0.96329 0.30627 0.0
H348 H 0.96035 0.8754 0.21387 0.0
H349 H 0.95439 0.91941 0.26112 0.0
H350 H 0.06302 0.99051 0.3303 0.0
H351 H 0.0011 0.94822 0.31548 0.0
H352 H 0.21214 0.89716 0.14819 0.0
H353 H 0.14624 0.86697 0.12795 0.0
H354 H 0.24307 0.96839 0.18414 0.0
H355 H 0.24151 -6e-05 0.23677 0.0
C356 C 0.88606 0.86381 0.73133 0.0
C357 C 0.85147 0.85572 0.69244 0.0
C358 C 0.76108 0.88383 0.73362 0.0
C359 C 0.79435 0.8841 0.77358 0.0
N360 N 0.88724 0.86731 0.81192 0.0
N361 N 0.75487 0.85011 0.6573 0.0
C362 C 0.85668 0.87268 0.77287 0.0
C363 C 0.78866 0.86404 0.69362 0.0
N364 N 0.94701 0.86432 0.72831 0.0
N365 N 0.70353 0.90398 0.73369 0.0
H366 H 0.77303 0.83497 0.62736 0.0
H367 H 0.70838 0.84867 0.65799 0.0
H368 H 0.68209 0.91943 0.76234 0.0
H369 H 0.67905 0.91077 0.70479 0.0
H370 H 0.97471 0.87594 0.75464 0.0
H371 H 0.96987 0.85848 0.69826 0.0
H372 H 0.93117 0.85247 0.81365 0.0
H373 H 0.86735 0.8729 0.84311 0.0
C374 C 0.90842 0.13852 0.31606 0.0
C375 C 0.8748 0.08598 0.30699 0.0
C376 C 0.91002 0.08674 0.2295 0.0
C377 C 0.94275 0.13978 0.23839 0.0
N378 N 0.98205 0.21125 0.29045 0.0
N379 N 0.85133 0.00368 0.25863 0.0
C380 C 0.9449 0.164 0.28191 0.0
C381 C 0.87772 0.05827 0.26462 0.0
N382 N 0.90354 0.1652 0.35686 0.0
N383 N 0.90974 0.06398 0.18728 0.0
H384 H 0.8274 0.98176 0.28372 0.0
H385 H 0.85628 0.9779 0.2301 0.0
H386 H 0.93698 0.08071 0.16182 0.0
H387 H 0.88147 0.02989 0.17681 0.0
H388 H 0.92142 0.20681 0.36455 0.0
H389 H 0.87855 0.14704 0.38299 0.0
H390 H 0.99034 0.22795 0.32209 0.0
H391 H 0.00804 0.23197 0.2659 0.0
loop_
_geom_bond_atom_site_label_1
_geom_bond_atom_site_label_2
_geom_bond_distance
_geom_bond_site_symmetry_2
_ccdc_geom_bond_type
C0 O1 1.160 1_455 S
C0 O7 1.185 . S
O1 C0 1.160 1_655 S
O2 Zn3 1.899 1_655 S
O2 C10 1.284 . S
Zn3 O2 1.899 1_455 S
Zn3 O4 2.032 . S
Zn3 O7 2.086 . S
Zn3 O12 1.977 . S
O4 Zn3 2.032 . S
O4 C8 1.278 . S
C5 O6 1.203 . S
C5 O12 1.267 . S
O6 C5 1.203 . S
O7 C0 1.185 . S
O7 Zn3 2.086 . S
C8 O4 1.278 . S
C8 O9 1.211 . S
O9 C8 1.211 . S
C10 O2 1.284 . S
C10 O11 1.273 . S
O11 C10 1.273 . S
O12 Zn3 1.977 . S
O12 C5 1.267 . S
C13 O14 1.160 1_565 S
C13 O20 1.185 . S
O14 C13 1.160 1_545 S
O15 Zn16 1.899 1_545 S
O15 C23 1.284 . S
Zn16 O15 1.899 1_565 S
Zn16 O17 2.032 . S
Zn16 O20 2.086 . S
Zn16 O25 1.977 . S
O17 Zn16 2.032 . S
O17 C21 1.278 . S
C18 O19 1.203 . S
C18 O25 1.267 . S
O19 C18 1.203 . S
O20 C13 1.185 . S
O20 Zn16 2.086 . S
C21 O17 1.278 . S
C21 O22 1.211 . S
O22 C21 1.211 . S
C23 O15 1.284 . S
C23 O24 1.273 . S
O24 C23 1.273 . S
O25 Zn16 1.977 . S
O25 C18 1.267 . S
C26 O27 1.160 1_655 S
C26 O33 1.185 . S
O27 C26 1.160 1_455 S
O28 Zn29 1.899 1_455 S
O28 C36 1.284 . S
Zn29 O28 1.899 1_655 S
Zn29 O30 2.032 . S
Zn29 O33 2.086 . S
Zn29 O38 1.977 . S
O30 Zn29 2.032 . S
O30 C34 1.278 . S
C31 O32 1.203 . S
C31 O38 1.267 . S
O32 C31 1.203 . S
O33 C26 1.185 . S
O33 Zn29 2.086 . S
C34 O30 1.278 . S
C34 O35 1.211 . S
O35 C34 1.211 . S
C36 O28 1.284 . S
C36 O37 1.273 . S
O37 C36 1.273 . S
O38 Zn29 1.977 . S
O38 C31 1.267 . S
C39 O40 1.160 1_545 S
C39 O46 1.185 . S
O40 C39 1.160 1_565 S
O41 Zn42 1.899 1_565 S
O41 C49 1.284 . S
Zn42 O41 1.899 1_545 S
Zn42 O43 2.032 . S
Zn42 O46 2.086 . S
Zn42 O51 1.977 . S
O43 Zn42 2.032 . S
O43 C47 1.278 . S
C44 O45 1.203 . S
C44 O51 1.267 . S
O45 C44 1.203 . S
O46 C39 1.185 . S
O46 Zn42 2.086 . S
C47 O43 1.278 . S
C47 O48 1.211 . S
O48 C47 1.211 . S
C49 O41 1.284 . S
C49 O50 1.273 . S
O50 C49 1.273 . S
O51 Zn42 1.977 . S
O51 C44 1.267 . S
C52 O53 1.160 1_655 S
C52 O59 1.185 . S
O53 C52 1.160 1_455 S
O54 Zn55 1.899 1_455 S
O54 C62 1.284 . S
Zn55 O54 1.899 1_655 S
Zn55 O56 2.032 . S
Zn55 O59 2.086 . S
Zn55 O64 1.977 . S
O56 Zn55 2.032 . S
O56 C60 1.278 . S
C57 O58 1.203 . S
C57 O64 1.267 . S
O58 C57 1.203 . S
O59 C52 1.185 . S
O59 Zn55 2.086 . S
C60 O56 1.278 . S
C60 O61 1.211 . S
O61 C60 1.211 . S
C62 O54 1.284 . S
C62 O63 1.273 . S
O63 C62 1.273 . S
O64 Zn55 1.977 . S
O64 C57 1.267 . S
C65 O66 1.160 1_545 S
C65 O72 1.185 . S
O66 C65 1.160 1_565 S
O67 Zn68 1.899 1_565 S
O67 C75 1.284 . S
Zn68 O67 1.899 1_545 S
Zn68 O69 2.032 . S
Zn68 O72 2.086 . S
Zn68 O77 1.977 . S
O69 Zn68 2.032 . S
O69 C73 1.278 . S
C70 O71 1.203 . S
C70 O77 1.267 . S
O71 C70 1.203 . S
O72 C65 1.185 . S
O72 Zn68 2.086 . S
C73 O69 1.278 . S
C73 O74 1.211 . S
O74 C73 1.211 . S
C75 O67 1.284 . S
C75 O76 1.273 . S
O76 C75 1.273 . S
O77 Zn68 1.977 . S
O77 C70 1.267 . S
C78 O79 1.160 1_455 S
C78 O85 1.185 . S
O79 C78 1.160 1_655 S
O80 Zn81 1.899 1_655 S
O80 C88 1.284 . S
Zn81 O80 1.899 1_455 S
Zn81 O82 2.032 . S
Zn81 O85 2.086 . S
Zn81 O90 1.977 . S
O82 Zn81 2.032 . S
O82 C86 1.278 . S
C83 O84 1.203 . S
C83 O90 1.267 . S
O84 C83 1.203 . S
O85 C78 1.185 . S
O85 Zn81 2.086 . S
C86 O82 1.278 . S
C86 O87 1.211 . S
O87 C86 1.211 . S
C88 O80 1.284 . S
C88 O89 1.273 . S
O89 C88 1.273 . S
O90 Zn81 1.977 . S
O90 C83 1.267 . S
C91 O92 1.160 1_565 S
C91 O98 1.185 . S
O92 C91 1.160 1_545 S
O93 Zn94 1.899 1_545 S
O93 C101 1.284 . S
Zn94 O93 1.899 1_565 S
Zn94 O95 2.032 . S
Zn94 O98 2.086 . S
Zn94 O103 1.977 . S
O95 Zn94 2.032 . S
O95 C99 1.278 . S
C96 O97 1.203 . S
C96 O103 1.267 . S
O97 C96 1.203 . S
O98 C91 1.185 . S
O98 Zn94 2.086 . S
C99 O95 1.278 . S
C99 O100 1.211 . S
O100 C99 1.211 . S
C101 O93 1.284 . S
C101 O102 1.273 . S
O102 C101 1.273 . S
O103 Zn94 1.977 . S
O103 C96 1.267 . S
C104 C105 1.363 . S
C104 C110 1.379 . S
C104 N112 1.356 . S
C105 C104 1.363 . S
C105 C111 1.363 1_655 S
C106 C107 1.363 . S
C106 C111 1.379 . S
C106 N113 1.356 . S
C107 C106 1.363 . S
C107 C110 1.363 1_455 S
N108 C110 1.356 . S
N108 H120 0.984 . S
N108 H121 0.985 1_655 S
N109 C111 1.356 . S
N109 H114 0.984 1_455 S
N109 H115 0.985 . S
C110 C104 1.379 . S
C110 C107 1.363 1_655 S
C110 N108 1.356 . S
C111 C105 1.363 1_455 S
C111 C106 1.379 . S
C111 N109 1.356 . S
N112 C104 1.356 . S
N112 H118 0.984 . S
N112 H119 0.984 . S
N113 C106 1.356 . S
N113 H116 0.984 . S
N113 H117 0.985 . S
H114 N109 0.984 1_655 S
H115 N109 0.985 . S
H116 N113 0.984 . S
H117 N113 0.985 . S
H118 N112 0.984 . S
H119 N112 0.984 . S
H120 N108 0.984 . S
H121 N108 0.985 1_455 S
C122 C123 1.363 1_565 S
C122 C128 1.379 . S
C122 N130 1.356 . S
C123 C122 1.363 1_545 S
C123 C129 1.363 . S
C124 C125 1.363 1_545 S
C124 C129 1.379 . S
C124 N131 1.356 . S
C125 C124 1.363 1_565 S
C125 C128 1.363 . S
N126 C128 1.356 . S
N126 H138 0.984 . S
N126 H139 0.985 . S
N127 C129 1.356 . S
N127 H132 0.984 . S
N127 H133 0.985 . S
C128 C122 1.379 . S
C128 C125 1.363 . S
C128 N126 1.356 . S
C129 C123 1.363 . S
C129 C124 1.379 . S
C129 N127 1.356 . S
N130 C122 1.356 . S
N130 H136 0.984 . S
N130 H137 0.984 1_565 S
N131 C124 1.356 . S
N131 H134 0.984 1_545 S
N131 H135 0.985 . S
H132 N127 0.984 . S
H133 N127 0.985 . S
H134 N131 0.984 1_565 S
H135 N131 0.985 . S
H136 N130 0.984 . S
H137 N130 0.984 1_545 S
H138 N126 0.984 . S
H139 N126 0.985 . S
C140 C141 1.363 . S
C140 C146 1.379 . S
C140 N148 1.356 . S
C141 C140 1.363 . S
C141 C147 1.363 1_655 S
C142 C143 1.363 . S
C142 C147 1.379 . S
C142 N149 1.356 . S
C143 C142 1.363 . S
C143 C146 1.363 1_455 S
N144 C146 1.356 . S
N144 H156 0.984 . S
N144 H157 0.985 1_655 S
N145 C147 1.356 . S
N145 H150 0.984 1_455 S
N145 H151 0.985 . S
C146 C140 1.379 . S
C146 C143 1.363 1_655 S
C146 N144 1.356 . S
C147 C141 1.363 1_455 S
C147 C142 1.379 . S
C147 N145 1.356 . S
N148 C140 1.356 . S
N148 H154 0.984 . S
N148 H155 0.984 . S
N149 C142 1.356 . S
N149 H152 0.984 . S
N149 H153 0.985 . S
H150 N145 0.984 1_655 S
H151 N145 0.985 . S
H152 N149 0.984 . S
H153 N149 0.985 . S
H154 N148 0.984 . S
H155 N148 0.984 . S
H156 N144 0.984 . S
H157 N144 0.985 1_455 S
C158 C159 1.363 . S
C158 C164 1.379 . S
C158 N166 1.356 . S
C159 C158 1.363 . S
C159 C165 1.363 1_545 S
C160 C161 1.363 . S
C160 C165 1.379 . S
C160 N167 1.356 . S
C161 C160 1.363 . S
C161 C164 1.363 1_565 S
N162 C164 1.356 . S
N162 H174 0.984 . S
N162 H175 0.985 1_545 S
N163 C165 1.356 . S
N163 H168 0.984 1_565 S
N163 H169 0.985 . S
C164 C158 1.379 . S
C164 C161 1.363 1_545 S
C164 N162 1.356 . S
C165 C159 1.363 1_565 S
C165 C160 1.379 . S
C165 N163 1.356 . S
N166 C158 1.356 . S
N166 H172 0.984 . S
N166 H173 0.984 . S
N167 C160 1.356 . S
N167 H170 0.984 . S
N167 H171 0.985 . S
H168 N163 0.984 1_545 S
H169 N163 0.985 . S
H170 N167 0.984 . S
H171 N167 0.985 . S
H172 N166 0.984 . S
H173 N166 0.984 . S
H174 N162 0.984 . S
H175 N162 0.985 1_565 S
C176 C177 1.363 . S
C176 C182 1.379 . S
C176 N184 1.356 . S
C177 C176 1.363 . S
C177 C183 1.363 . S
C178 C179 1.363 . S
C178 C183 1.379 . S
C178 N185 1.356 . S
C179 C178 1.363 . S
C179 C182 1.363 . S
N180 C182 1.356 . S
N180 H192 0.984 . S
N180 H193 0.985 . S
N181 C183 1.356 . S
N181 H186 0.984 1_545 S
N181 H187 0.985 1_545 S
C182 C176 1.379 . S
C182 C179 1.363 . S
C182 N180 1.356 . S
C183 C177 1.363 . S
C183 C178 1.379 . S
C183 N181 1.356 . S
N184 C176 1.356 . S
N184 H190 0.984 . S
N184 H191 0.984 . S
N185 C178 1.356 . S
N185 H188 0.984 . S
N185 H189 0.985 . S
H186 N181 0.984 1_565 S
H187 N181 0.985 1_565 S
H188 N185 0.984 . S
H189 N185 0.985 . S
H190 N184 0.984 . S
H191 N184 0.984 . S
H192 N180 0.984 . S
H193 N180 0.985 . S
C194 C195 1.363 . S
C194 C200 1.379 . S
C194 N202 1.356 . S
C195 C194 1.363 . S
C195 C201 1.363 . S
C196 C197 1.363 . S
C196 C201 1.379 . S
C196 N203 1.356 . S
C197 C196 1.363 . S
C197 C200 1.363 . S
N198 C200 1.356 . S
N198 H210 0.984 . S
N198 H211 0.985 . S
N199 C201 1.356 . S
N199 H204 0.984 . S
N199 H205 0.985 . S
C200 C194 1.379 . S
C200 C197 1.363 . S
C200 N198 1.356 . S
C201 C195 1.363 . S
C201 C196 1.379 . S
C201 N199 1.356 . S
N202 C194 1.356 . S
N202 H208 0.984 . S
N202 H209 0.984 . S
N203 C196 1.356 . S
N203 H206 0.984 . S
N203 H207 0.985 . S
H204 N199 0.984 . S
H205 N199 0.985 . S
H206 N203 0.984 . S
H207 N203 0.985 . S
H208 N202 0.984 . S
H209 N202 0.984 . S
H210 N198 0.984 . S
H211 N198 0.985 . S
C212 C213 1.363 . S
C212 C218 1.379 . S
C212 N220 1.356 . S
C213 C212 1.363 . S
C213 C219 1.363 . S
C214 C215 1.363 . S
C214 C219 1.379 . S
C214 N221 1.356 . S
C215 C214 1.363 . S
C215 C218 1.363 . S
N216 C218 1.356 . S
N216 H228 0.984 . S
N216 H229 0.985 . S
N217 C219 1.356 . S
N217 H222 0.984 . S
N217 H223 0.985 . S
C218 C212 1.379 . S
C218 C215 1.363 . S
C218 N216 1.356 . S
C219 C213 1.363 . S
C219 C214 1.379 . S
C219 N217 1.356 . S
N220 C212 1.356 . S
N220 H226 0.984 . S
N220 H227 0.984 . S
N221 C214 1.356 . S
N221 H224 0.984 . S
N221 H225 0.985 . S
H222 N217 0.984 . S
H223 N217 0.985 . S
H224 N221 0.984 . S
H225 N221 0.985 . S
H226 N220 0.984 . S
H227 N220 0.984 . S
H228 N216 0.984 . S
H229 N216 0.985 . S
C230 C231 1.363 . S
C230 C236 1.379 . S
C230 N238 1.356 . S
C231 C230 1.363 . S
C231 C237 1.363 . S
C232 C233 1.363 . S
C232 C237 1.379 . S
C232 N239 1.356 . S
C233 C232 1.363 . S
C233 C236 1.363 . S
N234 C236 1.356 . S
N234 H246 0.984 . S
N234 H247 0.985 . S
N235 C237 1.356 . S
N235 H240 0.984 . S
N235 H241 0.985 . S
C236 C230 1.379 . S
C236 C233 1.363 . S
C236 N234 1.356 . S
C237 C231 1.363 . S
C237 C232 1.379 . S
C237 N235 1.356 . S
N238 C230 1.356 . S
N238 H244 0.984 . S
N238 H245 0.984 . S
N239 C232 1.356 . S
N239 H242 0.984 . S
N239 H243 0.985 . S
H240 N235 0.984 . S
H241 N235 0.985 . S
H242 N239 0.984 . S
H243 N239 0.985 . S
H244 N238 0.984 . S
H245 N238 0.984 . S
H246 N234 0.984 . S
H247 N234 0.985 . S
C248 C249 1.363 . S
C248 C254 1.379 . S
C248 N256 1.356 . S
C249 C248 1.363 . S
C249 C255 1.363 . S
C250 C251 1.363 . S
C250 C255 1.379 1_554 S
C250 N257 1.356 . S
C251 C250 1.363 . S
C251 C254 1.363 1_554 S
N252 C254 1.356 . S
N252 H264 0.984 . S
N252 H265 0.985 1_556 S
N253 C255 1.356 . S
N253 H258 0.984 . S
N253 H259 0.985 . S
C254 C248 1.379 . S
C254 C251 1.363 1_556 S
C254 N252 1.356 . S
C255 C249 1.363 . S
C255 C250 1.379 1_556 S
C255 N253 1.356 . S
N256 C248 1.356 . S
N256 H262 0.984 . S
N256 H263 0.984 . S
N257 C250 1.356 . S
N257 H260 0.984 . S
N257 H261 0.985 . S
H258 N253 0.984 . S
H259 N253 0.985 . S
H260 N257 0.984 . S
H261 N257 0.985 . S
H262 N256 0.984 . S
H263 N256 0.984 . S
H264 N252 0.984 . S
H265 N252 0.985 1_554 S
C266 C267 1.363 . S
C266 C272 1.379 1_556 S
C266 N274 1.356 . S
C267 C266 1.363 . S
C267 C273 1.363 1_556 S
C268 C269 1.363 . S
C268 C273 1.379 . S
C268 N275 1.356 . S
C269 C268 1.363 . S
C269 C272 1.363 . S
N270 C272 1.356 . S
N270 H282 0.984 1_454 S
N270 H283 0.985 1_455 S
N271 C273 1.356 . S
N271 H276 0.984 1_554 S
N271 H277 0.985 . S
C272 C266 1.379 1_554 S
C272 C269 1.363 . S
C272 N270 1.356 . S
C273 C267 1.363 1_554 S
C273 C268 1.379 . S
C273 N271 1.356 . S
N274 C266 1.356 . S
N274 H280 0.984 . S
N274 H281 0.984 . S
N275 C268 1.356 . S
N275 H278 0.984 . S
N275 H279 0.985 . S
H276 N271 0.984 1_556 S
H277 N271 0.985 . S
H278 N275 0.984 . S
H279 N275 0.985 . S
H280 N274 0.984 . S
H281 N274 0.984 . S
H282 N270 0.984 1_656 S
H283 N270 0.985 1_655 S
C284 C285 1.363 1_556 S
C284 C290 1.379 . S
C284 N292 1.356 1_556 S
C285 C284 1.363 1_554 S
C285 C291 1.363 . S
C286 C287 1.363 . S
C286 C291 1.379 1_556 S
C286 N293 1.356 . S
C287 C286 1.363 . S
C287 C290 1.363 . S
N288 C290 1.356 . S
N288 H300 0.984 . S
N288 H301 0.985 . S
N289 C291 1.356 . S
N289 H294 0.984 . S
N289 H295 0.985 . S
C290 C284 1.379 . S
C290 C287 1.363 . S
C290 N288 1.356 . S
C291 C285 1.363 . S
C291 C286 1.379 1_554 S
C291 N289 1.356 . S
N292 C284 1.356 1_554 S
N292 H298 0.987 . S
N292 H299 0.984 . S
N293 C286 1.356 . S
N293 H296 0.984 . S
N293 H297 0.985 . S
H294 N289 0.984 . S
H295 N289 0.985 . S
H296 N293 0.984 . S
H297 N293 0.985 . S
H298 N292 0.987 . S
H299 N292 0.984 . S
H300 N288 0.984 . S
H301 N288 0.985 . S
C302 C303 1.363 1_554 S
C302 C308 1.379 . S
C302 N310 1.356 1_554 S
C303 C302 1.363 1_556 S
C303 C309 1.363 . S
C304 C305 1.363 . S
C304 C309 1.379 1_554 S
C304 N311 1.356 . S
C305 C304 1.363 . S
C305 C308 1.363 . S
N306 C308 1.356 . S
N306 H318 0.984 . S
N306 H319 0.985 . S
N307 C309 1.356 . S
N307 H312 0.984 . S
N307 H313 0.985 . S
C308 C302 1.379 . S
C308 C305 1.363 . S
C308 N306 1.356 . S
C309 C303 1.363 . S
C309 C304 1.379 1_556 S
C309 N307 1.356 . S
N310 C302 1.356 1_556 S
N310 H316 0.988 . S
N310 H317 0.984 . S
N311 C304 1.356 . S
N311 H314 0.984 . S
N311 H315 0.985 . S
H312 N307 0.984 . S
H313 N307 0.985 . S
H314 N311 0.984 . S
H315 N311 0.985 . S
H316 N310 0.988 . S
H317 N310 0.984 . S
H318 N306 0.984 . S
H319 N306 0.985 . S
C320 C321 1.363 . S
C320 C326 1.379 . S
C320 N328 1.356 . S
C321 C320 1.363 . S
C321 C327 1.363 . S
C322 C323 1.363 . S
C322 C327 1.379 . S
C322 N329 1.356 . S
C323 C322 1.363 . S
C323 C326 1.363 . S
N324 C326 1.356 . S
N324 H336 0.984 . S
N324 H337 0.985 . S
N325 C327 1.356 . S
N325 H330 0.984 . S
N325 H331 0.985 . S
C326 C320 1.379 . S
C326 C323 1.363 . S
C326 N324 1.356 . S
C327 C321 1.363 . S
C327 C322 1.379 . S
C327 N325 1.356 . S
N328 C320 1.356 . S
N328 H334 0.984 . S
N328 H335 0.984 . S
N329 C322 1.356 . S
N329 H332 0.984 . S
N329 H333 0.985 . S
H330 N325 0.984 . S
H331 N325 0.985 . S
H332 N329 0.984 . S
H333 N329 0.985 . S
H334 N328 0.984 . S
H335 N328 0.984 . S
H336 N324 0.984 . S
H337 N324 0.985 . S
C338 C339 1.363 . S
C338 C344 1.379 . S
C338 N346 1.356 . S
C339 C338 1.363 . S
C339 C345 1.363 . S
C340 C341 1.363 . S
C340 C345 1.379 . S
C340 N347 1.356 . S
C341 C340 1.363 . S
C341 C344 1.363 . S
N342 C344 1.356 . S
N342 H354 0.984 1_565 S
N342 H355 0.985 . S
N343 C345 1.356 . S
N343 H348 0.984 . S
N343 H349 0.985 . S
C344 C338 1.379 . S
C344 C341 1.363 . S
C344 N342 1.356 . S
C345 C339 1.363 . S
C345 C340 1.379 . S
C345 N343 1.356 . S
N346 C338 1.356 . S
N346 H352 0.984 . S
N346 H353 0.984 . S
N347 C340 1.356 . S
N347 H350 0.984 . S
N347 H351 0.985 . S
H348 N343 0.984 . S
H349 N343 0.985 . S
H350 N347 0.984 . S
H351 N347 0.985 . S
H352 N346 0.984 . S
H353 N346 0.984 . S
H354 N342 0.984 1_545 S
H355 N342 0.985 . S
C356 C357 1.363 . S
C356 C362 1.379 . S
C356 N364 1.356 . S
C357 C356 1.363 . S
C357 C363 1.363 . S
C358 C359 1.363 . S
C358 C363 1.379 . S
C358 N365 1.356 . S
C359 C358 1.363 . S
C359 C362 1.363 . S
N360 C362 1.356 . S
N360 H372 0.984 . S
N360 H373 0.985 . S
N361 C363 1.356 . S
N361 H366 0.984 . S
N361 H367 0.985 . S
C362 C356 1.379 . S
C362 C359 1.363 . S
C362 N360 1.356 . S
C363 C357 1.363 . S
C363 C358 1.379 . S
C363 N361 1.356 . S
N364 C356 1.356 . S
N364 H370 0.984 1_655 S
N364 H371 0.984 . S
N365 C358 1.356 . S
N365 H368 0.984 . S
N365 H369 0.985 . S
H366 N361 0.984 . S
H367 N361 0.985 . S
H368 N365 0.984 . S
H369 N365 0.985 . S
H370 N364 0.984 1_455 S
H371 N364 0.984 . S
H372 N360 0.984 . S
H373 N360 0.985 . S
C374 C375 1.363 . S
C374 C380 1.379 . S
C374 N382 1.356 . S
C375 C374 1.363 . S
C375 C381 1.363 . S
C376 C377 1.363 . S
C376 C381 1.379 . S
C376 N383 1.356 . S
C377 C376 1.363 . S
C377 C380 1.363 . S
N378 C380 1.356 . S
N378 H390 0.984 . S
N378 H391 0.985 . S
N379 C381 1.356 . S
N379 H384 0.984 . S
N379 H385 0.985 . S
C380 C374 1.379 . S
C380 C377 1.363 . S
C380 N378 1.356 . S
C381 C375 1.363 . S
C381 C376 1.379 . S
C381 N379 1.356 . S
N382 C374 1.356 . S
N382 H388 0.984 . S
N382 H389 0.984 . S
N383 C376 1.356 . S
N383 H386 0.984 . S
N383 H387 0.985 . S
H384 N379 0.984 . S
H385 N379 0.985 . S
H386 N383 0.984 . S
H387 N383 0.985 . S
H388 N382 0.984 . S
H389 N382 0.984 . S
H390 N378 0.984 . S
H391 N378 0.985 . S
C105 C26 1.327 . S
C107 C0 1.327 . S
C123 C39 1.327 . S
C125 C13 1.327 . S
C141 C52 1.327 . S
C143 C78 1.327 . S
C159 C65 1.327 . S
C161 C91 1.327 . S
C177 C23 1.119 . S
C179 C5 1.032 . S
C195 C18 1.032 . S
C197 C36 1.119 . S
C213 C49 1.119 . S
C215 C31 1.032 . S
C231 C44 1.032 . S
C233 C10 1.119 . S
C249 C101 1.119 . S
C251 C57 1.032 . S
C267 C70 1.032 . S
C269 C62 1.119 . S
C285 C83 1.032 . S
C287 C75 1.119 . S
C303 C96 1.032 . S
C305 C88 1.119 . S
C321 C8 1.604 . S
C323 C73 1.604 . S
C339 C86 1.604 . S
C341 C21 1.604 . S
C357 C34 1.604 . S
C359 C99 1.604 . S
C375 C47 1.604 . S
C377 C60 1.604 . S
