# Generated by pormake.
# Topology wji, (4)-cn, num edge types: 1
# Building blocks:
#     Node 0, Type 0, BuildingBlock: QUQFOY_clean_sbu_1, # of connection points: 4
#     Node 1, Type 0, BuildingBlock: QUQFOY_clean_sbu_1, # of connection points: 4
#     Node 2, Type 0, BuildingBlock: QUQFOY_clean_sbu_1, # of connection points: 4
#     Node 3, Type 0, BuildingBlock: QUQFOY_clean_sbu_1, # of connection points: 4
#     Node 4, Type 0, BuildingBlock: QUQFOY_clean_sbu_1, # of connection points: 4
#     Node 5, Type 0, BuildingBlock: QUQFOY_clean_sbu_1, # of connection points: 4
#     Node 6, Type 0, BuildingBlock: QUQFOY_clean_sbu_1, # of connection points: 4
#     Node 7, Type 0, BuildingBlock: QUQFOY_clean_sbu_1, # of connection points: 4
#     Node 8, Type 0, BuildingBlock: QUQFOY_clean_sbu_1, # of connection points: 4
#     Node 9, Type 0, BuildingBlock: QUQFOY_clean_sbu_1, # of connection points: 4
#     Node 10, Type 0, BuildingBlock: QUQFOY_clean_sbu_1, # of connection points: 4
#     Node 11, Type 0, BuildingBlock: QUQFOY_clean_sbu_1, # of connection points: 4
#     Edge 12, Type (0, 0), BuildingBlock: OJICUG_clean_linker_0, # of connection points: 2
#     Edge 13, Type (0, 0), BuildingBlock: OJICUG_clean_linker_0, # of connection points: 2
#     Edge 14, Type (0, 0), BuildingBlock: OJICUG_clean_linker_0, # of connection points: 2
#     Edge 15, Type (0, 0), BuildingBlock: OJICUG_clean_linker_0, # of connection points: 2
#     Edge 16, Type (0, 0), BuildingBlock: OJICUG_clean_linker_0, # of connection points: 2
#     Edge 17, Type (0, 0), BuildingBlock: OJICUG_clean_linker_0, # of connection points: 2
#     Edge 18, Type (0, 0), BuildingBlock: OJICUG_clean_linker_0, # of connection points: 2
#     Edge 19, Type (0, 0), BuildingBlock: OJICUG_clean_linker_0, # of connection points: 2
#     Edge 20, Type (0, 0), BuildingBlock: OJICUG_clean_linker_0, # of connection points: 2
#     Edge 21, Type (0, 0), BuildingBlock: OJICUG_clean_linker_0, # of connection points: 2
#     Edge 22, Type (0, 0), BuildingBlock: OJICUG_clean_linker_0, # of connection points: 2
#     Edge 23, Type (0, 0), BuildingBlock: OJICUG_clean_linker_0, # of connection points: 2
#     Edge 24, Type (0, 0), BuildingBlock: OJICUG_clean_linker_0, # of connection points: 2
#     Edge 25, Type (0, 0), BuildingBlock: OJICUG_clean_linker_0, # of connection points: 2
#     Edge 26, Type (0, 0), BuildingBlock: OJICUG_clean_linker_0, # of connection points: 2
#     Edge 27, Type (0, 0), BuildingBlock: OJICUG_clean_linker_0, # of connection points: 2
#     Edge 28, Type (0, 0), BuildingBlock: OJICUG_clean_linker_0, # of connection points: 2
#     Edge 29, Type (0, 0), BuildingBlock: OJICUG_clean_linker_0, # of connection points: 2
#     Edge 30, Type (0, 0), BuildingBlock: OJICUG_clean_linker_0, # of connection points: 2
#     Edge 31, Type (0, 0), BuildingBlock: OJICUG_clean_linker_0, # of connection points: 2
#     Edge 32, Type (0, 0), BuildingBlock: OJICUG_clean_linker_0, # of connection points: 2
#     Edge 33, Type (0, 0), BuildingBlock: OJICUG_clean_linker_0, # of connection points: 2
#     Edge 34, Type (0, 0), BuildingBlock: OJICUG_clean_linker_0, # of connection points: 2
#     Edge 35, Type (0, 0), BuildingBlock: OJICUG_clean_linker_0, # of connection points: 2
# Relax obj value: 0.270
# Max RMSD: 0.196
# Mean RMSD: 0.196
data_MOF--net-wji--node1-QUQFOY_clean_sbu_1--edge1-OJICUG_clean_linker_0
_symmetry_space_group_name_H-M    P1
_symmetry_Int_Tables_number       1
_symmetry_cell_setting            triclinic
loop_
_symmetry_equiv_pos_as_xyz
'x, y, z'
_cell_length_a     44.951545
_cell_length_b     44.914842
_cell_length_c     17.595875
_cell_angle_alpha  90.017015
_cell_angle_beta   89.981596
_cell_angle_gamma 119.89799
loop_
_atom_site_label
_atom_site_type_symbol
_atom_site_fract_x
_atom_site_fract_y
_atom_site_fract_z
_atom_type_partial_charge
O0 O 0.38585 0.32829 0.45058 0.0
Cd1 Cd 0.40078 0.30494 0.37329 0.0
Cd2 Cd 0.46041 0.37253 0.36594 0.0
O3 O 0.43723 0.37365 0.46554 0.0
O4 O 0.37573 0.25603 0.40571 0.0
O5 O 0.43221 0.289 0.41471 0.0
C6 C 0.40468 0.2604 0.43074 0.0
C7 C 0.51668 0.42041 0.36121 0.0
C8 C 0.40611 0.35558 0.48567 0.0
C9 C 0.40698 0.34287 0.23384 0.0
O10 O 0.43314 0.36669 0.26726 0.0
O11 O 0.39068 0.31291 0.26267 0.0
O12 O 0.48972 0.42318 0.35755 0.0
O13 O 0.51226 0.38983 0.36627 0.0
O14 O 0.08276 0.37176 0.61698 0.0
Cd15 Cd 0.12102 0.38684 0.53977 0.0
Cd16 Cd 0.11292 0.4465 0.53276 0.0
O17 O 0.08874 0.42321 0.63231 0.0
O18 O 0.1451 0.36195 0.57211 0.0
O19 O 0.1682 0.41844 0.58133 0.0
C20 C 0.16948 0.39096 0.59727 0.0
C21 C 0.12107 0.50278 0.52827 0.0
C22 C 0.07573 0.39203 0.65225 0.0
C23 C 0.08934 0.39316 0.40039 0.0
O24 O 0.09158 0.41929 0.43397 0.0
O25 O 0.10304 0.37684 0.42909 0.0
O26 O 0.09144 0.47576 0.52469 0.0
O27 O 0.14725 0.49841 0.53315 0.0
O28 O 0.73536 0.06995 0.78653 0.0
Cd29 Cd 0.759 0.1076 0.70814 0.0
Cd30 Cd 0.69222 0.10157 0.70294 0.0
O31 O 0.69267 0.08 0.80542 0.0
O32 O 0.80791 0.13116 0.74002 0.0
O33 O 0.77523 0.15517 0.74823 0.0
C34 C 0.80374 0.156 0.76443 0.0
C35 C 0.64391 0.10941 0.69825 0.0
C36 C 0.70951 0.06541 0.82444 0.0
C37 C 0.71978 0.07471 0.57179 0.0
O38 O 0.69657 0.07775 0.60638 0.0
O39 O 0.75018 0.08882 0.59816 0.0
O40 O 0.64147 0.07976 0.6982 0.0
O41 O 0.67437 0.13576 0.69945 0.0
O42 O 0.69111 0.72302 -0.04843 0.0
Cd43 Cd 0.67605 0.74615 0.87403 0.0
Cd44 Cd 0.6165 0.67861 0.86717 0.0
O45 O 0.6397 0.67775 -0.0331 0.0
O46 O 0.70077 0.79511 0.90616 0.0
O47 O 0.64433 0.76178 0.91518 0.0
C48 C 0.67173 0.79052 0.9311 0.0
C49 C 0.56025 0.63067 0.86271 0.0
C50 C 0.67083 0.69581 -0.01308 0.0
C51 C 0.66987 0.70799 0.73493 0.0
O52 O 0.64374 0.68422 0.76855 0.0
O53 O 0.68614 0.73801 0.76348 0.0
O54 O 0.58725 0.62793 0.85937 0.0
O55 O 0.56463 0.66123 0.86731 0.0
O56 O 0.99303 0.6774 0.11593 0.0
Cd57 Cd 0.95467 0.66243 0.03909 0.0
Cd58 Cd 0.9628 0.60273 0.03133 0.0
O59 O 0.98735 0.62605 0.13055 0.0
O60 O 0.93093 0.68762 0.07184 0.0
O61 O 0.90748 0.63109 0.081 0.0
C62 C 0.90644 0.65869 0.09709 0.0
C63 C 0.9545 0.5464 0.02656 0.0
C64 C 1.00028 0.65719 0.15071 0.0
C65 C 0.98603 0.65609 0.89908 0.0
O66 O 0.98381 0.62991 0.93236 0.0
O67 O 0.97248 0.67247 0.92828 0.0
O68 O 0.98415 0.57338 0.02238 0.0
O69 O 0.92839 0.55084 0.03219 0.0
O70 O 0.33911 0.98053 0.28612 0.0
Cd71 Cd 0.31578 0.94282 0.20772 0.0
Cd72 Cd 0.38247 0.94889 0.20307 0.0
O73 O 0.38173 0.97044 0.3054 0.0
O74 O 0.26681 0.9188 0.23927 0.0
O75 O 0.3 0.89538 0.24787 0.0
C76 C 0.2713 0.89419 0.26383 0.0
C77 C 0.43083 0.94111 0.19957 0.0
C78 C 0.36489 0.98505 0.32422 0.0
C79 C 0.35519 0.97569 0.07148 0.0
O80 O 0.3784 0.97272 0.10626 0.0
O81 O 0.32476 0.96154 0.0977 0.0
O82 O 0.43324 0.97074 0.19936 0.0
O83 O 0.40038 0.91474 0.20008 0.0
O84 O 0.74041 0.67507 0.28704 0.0
Cd85 Cd 0.76396 0.6622 0.36808 0.0
Cd86 Cd 0.69779 0.60131 0.36812 0.0
O87 O 0.70422 0.62095 0.26009 0.0
O88 O 0.81308 0.68775 0.33803 0.0
O89 O 0.78092 0.63103 0.33087 0.0
C90 C 0.80934 0.65876 0.31473 0.0
C91 C 0.64737 0.54677 0.37027 0.0
C92 C 0.71849 0.65254 0.24306 0.0
C93 C 0.72202 0.65732 0.49629 0.0
O94 O 0.69955 0.63165 0.45889 0.0
O95 O 0.75342 0.67217 0.47632 0.0
O96 O 0.64695 0.57485 0.36135 0.0
O97 O 0.67687 0.5491 0.38007 0.0
O98 O 0.08982 0.72657 0.45135 0.0
Cd99 Cd 0.1259 0.7503 0.53283 0.0
Cd100 Cd 0.12081 0.68402 0.53308 0.0
O101 O 0.1081 0.69056 0.42463 0.0
O102 O 0.14889 0.79945 0.50288 0.0
O103 O 0.17412 0.76782 0.49618 0.0
C104 C 0.17439 0.79609 0.47992 0.0
C105 C 0.12501 0.63355 0.536 0.0
C106 C 0.09073 0.70478 0.40733 0.0
C107 C 0.08855 0.70823 0.66044 0.0
O108 O 0.0919 0.68577 0.62312 0.0
O109 O 0.10515 0.73968 0.64079 0.0
O110 O 0.09657 0.63314 0.52628 0.0
O111 O 0.15207 0.66308 0.54607 0.0
O112 O 0.38795 0.07766 0.62223 0.0
Cd113 Cd 0.40147 0.11456 0.70238 0.0
Cd114 Cd 0.46216 0.1084 0.70383 0.0
O115 O 0.44156 0.09232 0.59746 0.0
O116 O 0.37602 0.13829 0.67209 0.0
O117 O 0.43264 0.16242 0.66402 0.0
C118 C 0.40494 0.16329 0.64819 0.0
C119 C 0.51696 0.11296 0.70674 0.0
C120 C 0.40998 0.07621 0.58005 0.0
C121 C 0.40682 0.07873 0.83335 0.0
O122 O 0.43259 0.08165 0.79679 0.0
O123 O 0.39156 0.09465 0.81123 0.0
O124 O 0.489 0.08422 0.70095 0.0
O125 O 0.51439 0.14019 0.71281 0.0
O126 O 0.33657 0.37619 0.78601 0.0
Cd127 Cd 0.31285 0.38876 0.86732 0.0
Cd128 Cd 0.37912 0.44976 0.86771 0.0
O129 O 0.37278 0.43035 0.75945 0.0
O130 O 0.26375 0.36285 0.83728 0.0
O131 O 0.29545 0.41962 0.83047 0.0
C132 C 0.26718 0.39174 0.81423 0.0
C133 C 0.42955 0.50428 0.8706 0.0
C134 C 0.35851 0.39878 0.74217 0.0
C135 C 0.3548 0.39348 -0.00467 0.0
O136 O 0.37726 0.41922 -0.04191 0.0
O137 O 0.3234 0.37864 -0.0246 0.0
O138 O 0.42997 0.47621 0.86129 0.0
O139 O 0.40004 0.50195 0.88027 0.0
O140 O 0.98595 0.32256 -0.04723 0.0
Cd141 Cd 0.94968 0.29898 0.03397 0.0
Cd142 Cd 0.95478 0.36519 0.03395 0.0
O143 O 0.9677 0.35856 0.92575 0.0
O144 O 0.92627 0.24982 0.00402 0.0
O145 O 0.90161 0.28197 -0.00301 0.0
C146 C 0.90101 0.25353 -0.01915 0.0
C147 C 0.95054 0.41564 0.03597 0.0
C148 C 0.98512 0.34436 0.90867 0.0
C149 C 0.98677 0.34105 0.16186 0.0
O150 O 0.98352 0.36352 0.12443 0.0
O151 O 0.97022 0.3096 0.1421 0.0
O152 O 0.979 0.41606 0.02674 0.0
O153 O 0.92348 0.38613 0.04621 0.0
O154 O 0.68656 0.97271 0.12205 0.0
Cd155 Cd 0.67341 0.9359 0.20224 0.0
Cd156 Cd 0.61252 0.94201 0.20461 0.0
O157 O 0.63296 0.95838 0.09823 0.0
O158 O 0.6993 0.91263 0.17163 0.0
O159 O 0.64263 0.88789 0.16408 0.0
C160 C 0.67049 0.88738 0.148 0.0
C161 C 0.55774 0.93747 0.20864 0.0
C162 C 0.66449 0.97435 0.08039 0.0
C163 C 0.66817 0.97163 0.33363 0.0
O164 O 0.64227 0.96859 0.29748 0.0
O165 O 0.68353 0.95588 0.31106 0.0
O166 O 0.58571 0.96622 0.20306 0.0
O167 O 0.56029 0.91021 0.21377 0.0
C168 C 0.3454 0.34765 0.09207 0.0
C169 C 0.36701 0.37944 0.05684 0.0
H170 H 0.34116 0.31043 0.17487 0.0
C171 C 0.40201 0.39712 0.07642 0.0
H172 H 0.31843 0.33309 0.07752 0.0
C173 C 0.415 0.38395 0.13039 0.0
C174 C 0.39348 0.35268 0.16714 0.0
H175 H 0.41968 0.42145 0.05015 0.0
H176 H 0.442 0.39887 0.14463 0.0
C177 C 0.35854 0.33437 0.14678 0.0
C178 C 0.05634 0.40126 0.29693 0.0
C179 C 0.0661 0.37969 0.33366 0.0
H180 H 1.02356 0.40599 0.21667 0.0
C181 C 0.04951 0.34472 0.31329 0.0
H182 H 0.06839 0.42828 0.31121 0.0
C183 C 1.02315 0.3316 0.25859 0.0
C184 C 1.01297 0.35326 0.22336 0.0
H185 H 0.05607 0.3273 0.34137 0.0
H186 H 1.01077 0.3046 0.24403 0.0
C187 C 1.03023 0.38829 0.24295 0.0
C188 C 0.71493 1.00896 0.42749 0.0
C189 C 0.682 0.99712 0.39658 0.0
H190 H 0.75334 0.04349 0.50623 0.0
C191 C 0.66306 1.01254 0.421 0.0
H192 H 0.73044 0.99802 0.40913 0.0
C193 C 0.67632 0.03878 0.47472 0.0
C194 C 0.70896 0.05049 0.50654 0.0
H195 H 0.63776 1.00449 0.39829 0.0
H196 H 0.66052 0.04953 0.49225 0.0
C197 C 0.7283 0.03543 0.48204 0.0
C198 C 0.7314 0.70321 0.59289 0.0
C199 C 0.70984 0.67132 0.55798 0.0
H200 H 0.7356 0.74053 0.67539 0.0
C201 C 0.67489 0.65351 0.57798 0.0
H202 H 0.75833 0.71786 0.57801 0.0
C203 C 0.6619 0.66668 0.63198 0.0
C204 C 0.68336 0.69809 0.66833 0.0
H205 H 0.65726 0.62909 0.55198 0.0
H206 H 0.63493 0.65168 0.64652 0.0
C207 C 0.71826 0.7165 0.64762 0.0
C208 C 0.0447 0.66088 0.74068 0.0
C209 C 0.06225 0.69599 0.72175 0.0
H210 H 1.00636 0.62084 0.80853 0.0
C211 C 0.05231 0.71773 0.75757 0.0
H212 H 0.05115 0.64311 0.71391 0.0
C213 C 1.02596 0.70462 0.81233 0.0
C214 C 1.00914 0.66957 0.83215 0.0
H215 H 0.06491 0.74478 0.74353 0.0
H216 H 1.01963 0.72209 0.84096 0.0
C217 C 1.0186 0.64792 0.79471 0.0
C218 C 0.3601 0.04146 0.9273 0.0
C219 C 0.393 0.05324 0.89627 0.0
H220 H 0.3217 1.00696 0.00611 0.0
C221 C 0.41192 0.03777 0.92053 0.0
H222 H 0.34462 0.05243 0.90905 0.0
C223 C 0.39865 1.01155 -0.02572 0.0
C224 C 0.36603 0.99989 0.00621 0.0
H225 H 0.43719 0.04579 0.89771 0.0
H226 H 0.41442 1.00076 -0.00826 0.0
C227 C 0.34672 1.01499 -0.01818 0.0
C228 C 0.58417 0.51404 0.35358 0.0
C229 C 0.61471 0.51361 0.36755 0.0
H230 H 0.53002 0.48541 0.33994 0.0
C231 C 0.61315 0.48177 0.37762 0.0
H232 H 0.58426 0.53797 0.34506 0.0
C233 C 0.58142 0.45102 0.37454 0.0
C234 C 0.55093 0.45181 0.36134 0.0
H235 H 0.6363 0.48065 0.3882 0.0
H236 H 0.5807 0.42681 0.38328 0.0
C237 C 0.55286 0.48369 0.35048 0.0
C238 C 0.09379 0.53889 0.51793 0.0
C239 C 0.12378 0.53703 0.52836 0.0
H240 H 0.0708 0.57026 0.51246 0.0
C241 C 0.15499 0.5676 0.54095 0.0
H242 H 0.06927 0.51599 0.50791 0.0
C243 C 0.15588 0.59936 0.54371 0.0
C244 C 0.12557 0.60085 0.5339 0.0
H245 H 0.17851 0.56694 0.54937 0.0
H246 H 0.18011 0.62257 0.55372 0.0
C247 C 0.09466 0.57022 0.52068 0.0
C248 C 0.58201 0.14429 0.70908 0.0
C249 C 0.55024 0.11361 0.70471 0.0
H250 H 0.63706 0.1673 0.71015 0.0
C251 C 0.54999 0.08238 0.69688 0.0
H252 H 0.583 0.16877 0.71487 0.0
C253 C 0.58044 0.08156 0.69388 0.0
C254 C 0.61228 0.11195 0.69871 0.0
H255 H 0.5261 0.05821 0.69302 0.0
H256 H 0.57885 0.0568 0.68807 0.0
C257 C 0.61289 0.14346 0.7061 0.0
C258 C 0.52417 0.56733 0.85297 0.0
C259 C 0.52602 0.59923 0.86287 0.0
H260 H 0.49282 0.51305 0.84796 0.0
C261 C 0.49547 0.60004 0.87499 0.0
H262 H 0.54706 0.5656 0.84334 0.0
C263 C 0.46373 0.56928 0.87779 0.0
C264 C 0.46224 0.53743 0.86849 0.0
H265 H 0.49613 0.62426 0.88299 0.0
H266 H 0.44052 0.57042 0.88741 0.0
C267 C 0.49285 0.53699 0.85577 0.0
C268 C 0.91973 0.4499 0.04396 0.0
C269 C 0.94994 0.44831 0.03307 0.0
H270 H 0.8972 0.48239 0.05022 0.0
C271 C 0.98073 0.47883 0.01813 0.0
H272 H 0.8956 0.42677 0.05529 0.0
C273 C 0.9816 0.51015 0.01493 0.0
C274 C 0.95173 0.51212 0.02667 0.0
H275 H 1.0045 0.47871 0.00893 0.0
H276 H 1.00602 0.53298 0.00365 0.0
C277 C 0.92063 0.48165 0.04078 0.0
C278 C 0.46183 0.90699 0.20576 0.0
C279 C 0.46247 0.9386 0.20101 0.0
H280 H 0.49166 0.88156 0.21229 0.0
C281 C 0.49434 0.96906 0.19942 0.0
H282 H 0.43763 0.88308 0.20732 0.0
C283 C 0.52477 0.96821 0.20258 0.0
C284 C 0.52448 0.93686 0.20732 0.0
H285 H 0.49598 0.99392 0.1959 0.0
H286 H 0.54868 0.99244 0.20112 0.0
C287 C 0.49268 0.90612 0.20889 0.0
C288 C 0.35028 0.35448 0.6465 0.0
C289 C 0.36942 0.38827 0.67364 0.0
H290 H 0.34694 0.3176 0.56518 0.0
C291 C 0.40024 0.41144 0.63745 0.0
H292 H 0.32639 0.33613 0.67337 0.0
C293 C 0.41219 0.40074 0.57631 0.0
C294 C 0.39331 0.36683 0.5498 0.0
H295 H 0.4156 0.43762 0.65747 0.0
H296 H 0.43624 0.41904 0.54991 0.0
C297 C 0.36204 0.34389 0.5847 0.0
C298 C 1.01397 0.38605 0.80385 0.0
C299 C 1.0065 0.35526 0.84015 0.0
H300 H 0.04219 0.42205 0.71624 0.0
C301 C 1.02126 0.33616 0.81313 0.0
H302 H 1.00306 0.40137 0.82376 0.0
C303 C 0.04357 0.34794 0.75134 0.0
C304 C 0.05173 0.37919 0.71634 0.0
H305 H 1.01584 0.3123 0.8401 0.0
H306 H 0.05486 0.33289 0.7319 0.0
C307 C 1.03658 0.39803 0.74273 0.0
C308 C 0.70886 1.00916 -0.01615 0.0
C309 C 0.67567 0.99658 0.01319 0.0
H310 H 0.74565 0.04096 0.90059 0.0
C311 C 0.6537 1.00667 -0.02006 0.0
H312 H 0.72629 1.00174 0.00852 0.0
C313 C 0.6649 0.02939 0.919 0.0
C314 C 0.6981 0.04204 0.88973 0.0
H315 H 0.62805 0.99751 0.00179 0.0
H316 H 0.64745 0.03683 0.89456 0.0
C317 C 0.71992 0.03158 0.92223 0.0
C318 C 0.66476 0.65068 0.07749 0.0
C319 C 0.68363 0.68461 0.05107 0.0
H320 H 0.6614 0.61377 0.15842 0.0
C321 C 0.71489 0.70756 0.08601 0.0
H322 H 0.64074 0.63237 0.05105 0.0
C323 C 0.72666 0.69694 0.14771 0.0
C324 C 0.70755 0.66313 0.17471 0.0
H325 H 0.72996 0.73385 0.06655 0.0
H326 H 0.75054 0.71528 0.17461 0.0
C327 C 0.67673 0.63997 0.13851 0.0
C328 C 0.05475 0.71304 0.31157 0.0
C329 C 0.06948 0.69392 0.33861 0.0
H330 H 1.02121 0.71635 0.23035 0.0
C331 C 0.06206 0.66317 0.3022 0.0
H332 H 0.06014 0.73689 0.3386 0.0
C333 C 0.0395 0.65122 0.24101 0.0
C334 C 1.02435 0.67005 0.21468 0.0
H335 H 0.07297 0.64784 0.32213 0.0
H336 H 1.03391 0.62721 0.21447 0.0
C337 C 1.0325 0.70129 0.24973 0.0
C338 C 0.40955 1.02127 0.4184 0.0
C339 C 0.37628 1.00847 0.38943 0.0
H340 H 0.44647 0.05327 0.50088 0.0
C341 C 0.35441 1.01883 0.42217 0.0
H342 H 0.42704 1.01392 0.39375 0.0
C343 C 0.3655 0.04127 0.4838 0.0
C344 C 0.39875 0.05399 0.51282 0.0
H345 H 0.32864 1.00933 0.40075 0.0
H346 H 0.34804 0.0486 0.50871 0.0
C347 C 0.42076 0.04402 0.47928 0.0
C348 C 0.43653 0.23921 0.5124 0.0
C349 C 0.40541 0.23503 0.48388 0.0
H350 H 0.46094 0.22012 0.58731 0.0
C351 C 0.37447 0.20795 0.51226 0.0
H352 H 0.46083 0.26003 0.49243 0.0
C353 C 0.37452 0.18568 0.56765 0.0
C354 C 0.40553 0.18959 0.59588 0.0
H355 H 0.34999 0.20413 0.49249 0.0
H356 H 0.35009 0.16498 0.58737 0.0
C357 C 0.43659 0.21659 0.56747 0.0
C358 C 0.21449 0.36107 0.73372 0.0
C359 C 0.24132 0.39216 0.76223 0.0
H360 H 0.17166 0.33637 0.6584 0.0
C361 C 0.245 0.42318 0.73422 0.0
H362 H 0.21104 0.33667 0.75313 0.0
C363 C 0.22227 0.42302 0.67923 0.0
C364 C 0.19563 0.39183 0.6504 0.0
H365 H 0.26562 0.4476 0.75428 0.0
H366 H 0.22549 0.4473 0.65955 0.0
C367 C 0.1921 0.36091 0.67842 0.0
C368 C 0.8476 0.23179 0.90062 0.0
C369 C 0.87468 0.22776 0.92885 0.0
H370 H 0.80411 0.21259 0.82589 0.0
C371 C 0.87863 0.20064 0.90063 0.0
H372 H 0.84404 0.25263 0.92044 0.0
C373 C 0.85633 0.17828 0.84543 0.0
C374 C 0.82919 0.18215 0.81722 0.0
H375 H 0.8994 0.19692 0.92022 0.0
H376 H 0.86017 0.1576 0.82567 0.0
C377 C 0.82497 0.2091 0.84571 0.0
C378 C 0.70129 0.86541 0.06739 0.0
C379 C 0.67017 0.86118 0.09577 0.0
H380 H 0.72612 0.84725 -0.00775 0.0
C381 C 0.63923 0.83391 0.06762 0.0
H382 H 0.72564 0.88632 0.0869 0.0
C383 C 0.63951 0.81134 0.01269 0.0
C384 C 0.67074 0.81584 -0.01596 0.0
H385 H 0.61479 0.83013 0.08759 0.0
H386 H 0.61529 0.79032 -0.00706 0.0
C387 C 0.70157 0.84319 0.01214 0.0
C388 C 0.83105 0.62698 0.23437 0.0
C389 C 0.83505 0.65811 0.26258 0.0
H390 H 0.85018 0.6026 0.15937 0.0
C391 C 0.86206 0.6891 0.23414 0.0
H392 H 0.8103 0.60264 0.25437 0.0
C393 C 0.88431 0.68907 0.17869 0.0
C394 C 0.88046 0.65805 0.15044 0.0
H395 H 0.86575 0.71358 0.25371 0.0
H396 H 0.90488 0.71353 0.15872 0.0
C397 C 0.85365 0.62696 0.17923 0.0
C398 C 0.19632 0.84889 0.39962 0.0
C399 C 0.20062 0.82202 0.42802 0.0
H400 H 0.21443 0.89186 0.32458 0.0
C401 C 0.22797 0.81836 0.40003 0.0
H402 H 0.17534 0.85231 0.41901 0.0
C403 C 0.25052 0.84118 0.3452 0.0
C404 C 0.24596 0.86789 0.31653 0.0
H405 H 0.23181 0.79771 0.42 0.0
H406 H 0.2716 0.83799 0.32558 0.0
C407 C 0.21854 0.87138 0.34448 0.0
loop_
_geom_bond_atom_site_label_1
_geom_bond_atom_site_label_2
_geom_bond_distance
_geom_bond_site_symmetry_2
_ccdc_geom_bond_type
O0 Cd1 2.223 . S
O0 C8 1.315 . S
Cd1 O0 2.223 . S
Cd1 O4 2.297 . S
Cd1 O5 2.439 . S
Cd1 O11 2.240 . S
Cd2 O3 2.240 . S
Cd2 O10 2.223 . S
Cd2 O12 2.297 . S
Cd2 O13 2.439 . S
O3 Cd2 2.240 . S
O3 C8 1.279 . S
O4 Cd1 2.297 . S
O4 C6 1.247 . S
O5 Cd1 2.439 . S
O5 C6 1.208 . S
C6 O4 1.247 . S
C6 O5 1.208 . S
C7 O12 1.247 . S
C7 O13 1.208 . S
C8 O0 1.315 . S
C8 O3 1.279 . S
C9 O10 1.315 . S
C9 O11 1.279 . S
O10 Cd2 2.223 . S
O10 C9 1.315 . S
O11 Cd1 2.240 . S
O11 C9 1.279 . S
O12 Cd2 2.297 . S
O12 C7 1.247 . S
O13 Cd2 2.439 . S
O13 C7 1.208 . S
O14 Cd15 2.223 . S
O14 C22 1.315 . S
Cd15 O14 2.223 . S
Cd15 O18 2.297 . S
Cd15 O19 2.439 . S
Cd15 O25 2.240 . S
Cd16 O17 2.240 . S
Cd16 O24 2.223 . S
Cd16 O26 2.297 . S
Cd16 O27 2.439 . S
O17 Cd16 2.240 . S
O17 C22 1.279 . S
O18 Cd15 2.297 . S
O18 C20 1.247 . S
O19 Cd15 2.439 . S
O19 C20 1.208 . S
C20 O18 1.247 . S
C20 O19 1.208 . S
C21 O26 1.247 . S
C21 O27 1.208 . S
C22 O14 1.315 . S
C22 O17 1.279 . S
C23 O24 1.315 . S
C23 O25 1.279 . S
O24 Cd16 2.223 . S
O24 C23 1.315 . S
O25 Cd15 2.240 . S
O25 C23 1.279 . S
O26 Cd16 2.297 . S
O26 C21 1.247 . S
O27 Cd16 2.439 . S
O27 C21 1.208 . S
O28 Cd29 2.223 . S
O28 C36 1.315 . S
Cd29 O28 2.223 . S
Cd29 O32 2.297 . S
Cd29 O33 2.439 . S
Cd29 O39 2.240 . S
Cd30 O31 2.240 . S
Cd30 O38 2.223 . S
Cd30 O40 2.297 . S
Cd30 O41 2.439 . S
O31 Cd30 2.240 . S
O31 C36 1.279 . S
O32 Cd29 2.297 . S
O32 C34 1.247 . S
O33 Cd29 2.439 . S
O33 C34 1.208 . S
C34 O32 1.247 . S
C34 O33 1.208 . S
C35 O40 1.247 . S
C35 O41 1.208 . S
C36 O28 1.315 . S
C36 O31 1.279 . S
C37 O38 1.315 . S
C37 O39 1.279 . S
O38 Cd30 2.223 . S
O38 C37 1.315 . S
O39 Cd29 2.240 . S
O39 C37 1.279 . S
O40 Cd30 2.297 . S
O40 C35 1.247 . S
O41 Cd30 2.439 . S
O41 C35 1.208 . S
O42 Cd43 2.223 . S
O42 C50 1.315 1_556 S
Cd43 O42 2.223 . S
Cd43 O46 2.297 . S
Cd43 O47 2.439 . S
Cd43 O53 2.240 . S
Cd44 O45 2.240 1_556 S
Cd44 O52 2.223 . S
Cd44 O54 2.297 . S
Cd44 O55 2.439 . S
O45 Cd44 2.240 1_554 S
O45 C50 1.279 . S
O46 Cd43 2.297 . S
O46 C48 1.247 1_556 S
O47 Cd43 2.439 . S
O47 C48 1.208 1_556 S
C48 O46 1.247 1_554 S
C48 O47 1.208 1_554 S
C49 O54 1.247 . S
C49 O55 1.208 . S
C50 O42 1.315 1_554 S
C50 O45 1.279 . S
C51 O52 1.315 . S
C51 O53 1.279 . S
O52 Cd44 2.223 . S
O52 C51 1.315 . S
O53 Cd43 2.240 . S
O53 C51 1.279 . S
O54 Cd44 2.297 . S
O54 C49 1.247 . S
O55 Cd44 2.439 . S
O55 C49 1.208 . S
O56 Cd57 2.223 . S
O56 C64 1.315 . S
Cd57 O56 2.223 . S
Cd57 O60 2.297 . S
Cd57 O61 2.439 . S
Cd57 O67 2.240 1_554 S
Cd58 O59 2.240 . S
Cd58 O66 2.223 . S
Cd58 O68 2.297 . S
Cd58 O69 2.439 . S
O59 Cd58 2.240 . S
O59 C64 1.279 . S
O60 Cd57 2.297 . S
O60 C62 1.247 . S
O61 Cd57 2.439 . S
O61 C62 1.208 . S
C62 O60 1.247 . S
C62 O61 1.208 . S
C63 O68 1.247 . S
C63 O69 1.208 . S
C64 O56 1.315 . S
C64 O59 1.279 . S
C65 O66 1.315 1_556 S
C65 O67 1.279 . S
O66 Cd58 2.223 . S
O66 C65 1.315 1_554 S
O67 Cd57 2.240 1_556 S
O67 C65 1.279 . S
O68 Cd58 2.297 . S
O68 C63 1.247 . S
O69 Cd58 2.439 . S
O69 C63 1.208 . S
O70 Cd71 2.223 . S
O70 C78 1.315 . S
Cd71 O70 2.223 . S
Cd71 O74 2.297 . S
Cd71 O75 2.439 . S
Cd71 O81 2.240 . S
Cd72 O73 2.240 . S
Cd72 O80 2.223 . S
Cd72 O82 2.297 . S
Cd72 O83 2.439 . S
O73 Cd72 2.240 . S
O73 C78 1.279 . S
O74 Cd71 2.297 . S
O74 C76 1.247 . S
O75 Cd71 2.439 . S
O75 C76 1.208 . S
C76 O74 1.247 . S
C76 O75 1.208 . S
C77 O82 1.247 . S
C77 O83 1.208 . S
C78 O70 1.315 . S
C78 O73 1.279 . S
C79 O80 1.315 . S
C79 O81 1.279 . S
O80 Cd72 2.223 . S
O80 C79 1.315 . S
O81 Cd71 2.240 . S
O81 C79 1.279 . S
O82 Cd72 2.297 . S
O82 C77 1.247 . S
O83 Cd72 2.439 . S
O83 C77 1.208 . S
O84 Cd85 2.223 . S
O84 C92 1.315 . S
Cd85 O84 2.223 . S
Cd85 O88 2.297 . S
Cd85 O89 2.439 . S
Cd85 O95 2.240 . S
Cd86 O87 2.240 . S
Cd86 O94 2.223 . S
Cd86 O96 2.297 . S
Cd86 O97 2.439 . S
O87 Cd86 2.240 . S
O87 C92 1.279 . S
O88 Cd85 2.297 . S
O88 C90 1.247 . S
O89 Cd85 2.439 . S
O89 C90 1.208 . S
C90 O88 1.247 . S
C90 O89 1.208 . S
C91 O96 1.247 . S
C91 O97 1.208 . S
C92 O84 1.315 . S
C92 O87 1.279 . S
C93 O94 1.315 . S
C93 O95 1.279 . S
O94 Cd86 2.223 . S
O94 C93 1.315 . S
O95 Cd85 2.240 . S
O95 C93 1.279 . S
O96 Cd86 2.297 . S
O96 C91 1.247 . S
O97 Cd86 2.439 . S
O97 C91 1.208 . S
O98 Cd99 2.223 . S
O98 C106 1.315 . S
Cd99 O98 2.223 . S
Cd99 O102 2.297 . S
Cd99 O103 2.439 . S
Cd99 O109 2.240 . S
Cd100 O101 2.240 . S
Cd100 O108 2.223 . S
Cd100 O110 2.297 . S
Cd100 O111 2.439 . S
O101 Cd100 2.240 . S
O101 C106 1.279 . S
O102 Cd99 2.297 . S
O102 C104 1.247 . S
O103 Cd99 2.439 . S
O103 C104 1.208 . S
C104 O102 1.247 . S
C104 O103 1.208 . S
C105 O110 1.247 . S
C105 O111 1.208 . S
C106 O98 1.315 . S
C106 O101 1.279 . S
C107 O108 1.315 . S
C107 O109 1.279 . S
O108 Cd100 2.223 . S
O108 C107 1.315 . S
O109 Cd99 2.240 . S
O109 C107 1.279 . S
O110 Cd100 2.297 . S
O110 C105 1.247 . S
O111 Cd100 2.439 . S
O111 C105 1.208 . S
O112 Cd113 2.223 . S
O112 C120 1.315 . S
Cd113 O112 2.223 . S
Cd113 O116 2.297 . S
Cd113 O117 2.439 . S
Cd113 O123 2.240 . S
Cd114 O115 2.240 . S
Cd114 O122 2.223 . S
Cd114 O124 2.297 . S
Cd114 O125 2.439 . S
O115 Cd114 2.240 . S
O115 C120 1.279 . S
O116 Cd113 2.297 . S
O116 C118 1.247 . S
O117 Cd113 2.439 . S
O117 C118 1.208 . S
C118 O116 1.247 . S
C118 O117 1.208 . S
C119 O124 1.247 . S
C119 O125 1.208 . S
C120 O112 1.315 . S
C120 O115 1.279 . S
C121 O122 1.315 . S
C121 O123 1.279 . S
O122 Cd114 2.223 . S
O122 C121 1.315 . S
O123 Cd113 2.240 . S
O123 C121 1.279 . S
O124 Cd114 2.297 . S
O124 C119 1.247 . S
O125 Cd114 2.439 . S
O125 C119 1.208 . S
O126 Cd127 2.223 . S
O126 C134 1.315 . S
Cd127 O126 2.223 . S
Cd127 O130 2.297 . S
Cd127 O131 2.439 . S
Cd127 O137 2.240 1_556 S
Cd128 O129 2.240 . S
Cd128 O136 2.223 . S
Cd128 O138 2.297 . S
Cd128 O139 2.439 . S
O129 Cd128 2.240 . S
O129 C134 1.279 . S
O130 Cd127 2.297 . S
O130 C132 1.247 . S
O131 Cd127 2.439 . S
O131 C132 1.208 . S
C132 O130 1.247 . S
C132 O131 1.208 . S
C133 O138 1.247 . S
C133 O139 1.208 . S
C134 O126 1.315 . S
C134 O129 1.279 . S
C135 O136 1.315 1_554 S
C135 O137 1.279 . S
O136 Cd128 2.223 . S
O136 C135 1.315 1_556 S
O137 Cd127 2.240 1_554 S
O137 C135 1.279 . S
O138 Cd128 2.297 . S
O138 C133 1.247 . S
O139 Cd128 2.439 . S
O139 C133 1.208 . S
O140 Cd141 2.223 . S
O140 C148 1.315 1_554 S
Cd141 O140 2.223 . S
Cd141 O144 2.297 . S
Cd141 O145 2.439 . S
Cd141 O151 2.240 . S
Cd142 O143 2.240 1_554 S
Cd142 O150 2.223 . S
Cd142 O152 2.297 . S
Cd142 O153 2.439 . S
O143 Cd142 2.240 1_556 S
O143 C148 1.279 . S
O144 Cd141 2.297 . S
O144 C146 1.247 . S
O145 Cd141 2.439 . S
O145 C146 1.208 . S
C146 O144 1.247 . S
C146 O145 1.208 . S
C147 O152 1.247 . S
C147 O153 1.208 . S
C148 O140 1.315 1_556 S
C148 O143 1.279 . S
C149 O150 1.315 . S
C149 O151 1.279 . S
O150 Cd142 2.223 . S
O150 C149 1.315 . S
O151 Cd141 2.240 . S
O151 C149 1.279 . S
O152 Cd142 2.297 . S
O152 C147 1.247 . S
O153 Cd142 2.439 . S
O153 C147 1.208 . S
O154 Cd155 2.223 . S
O154 C162 1.315 . S
Cd155 O154 2.223 . S
Cd155 O158 2.297 . S
Cd155 O159 2.439 . S
Cd155 O165 2.240 . S
Cd156 O157 2.240 . S
Cd156 O164 2.223 . S
Cd156 O166 2.297 . S
Cd156 O167 2.439 . S
O157 Cd156 2.240 . S
O157 C162 1.279 . S
O158 Cd155 2.297 . S
O158 C160 1.247 . S
O159 Cd155 2.439 . S
O159 C160 1.208 . S
C160 O158 1.247 . S
C160 O159 1.208 . S
C161 O166 1.247 . S
C161 O167 1.208 . S
C162 O154 1.315 . S
C162 O157 1.279 . S
C163 O164 1.315 . S
C163 O165 1.279 . S
O164 Cd156 2.223 . S
O164 C163 1.315 . S
O165 Cd155 2.240 . S
O165 C163 1.279 . S
O166 Cd156 2.297 . S
O166 C161 1.247 . S
O167 Cd156 2.439 . S
O167 C161 1.208 . S
C168 C169 1.387 . S
C168 H172 0.950 . S
C168 C177 1.390 . S
C169 C168 1.387 . S
C169 C171 1.387 . S
H170 C177 0.950 . S
C171 C169 1.387 . S
C171 C173 1.390 . S
C171 H175 0.950 . S
H172 C168 0.950 . S
C173 C171 1.390 . S
C173 C174 1.387 . S
C173 H176 0.950 . S
C174 C173 1.387 . S
C174 C177 1.387 . S
H175 C171 0.950 . S
H176 C173 0.950 . S
C177 C168 1.390 . S
C177 H170 0.950 . S
C177 C174 1.387 . S
C178 C179 1.387 . S
C178 H182 0.950 . S
C178 C187 1.376 1_455 S
C179 C178 1.387 . S
C179 C181 1.391 . S
H180 C187 0.961 . S
C181 C179 1.391 . S
C181 C183 1.377 1_455 S
C181 H185 0.943 . S
H182 C178 0.950 . S
C183 C181 1.377 1_655 S
C183 C184 1.387 . S
C183 H186 0.950 . S
C184 C183 1.387 . S
C184 C187 1.391 . S
H185 C181 0.943 . S
H186 C183 0.950 . S
C187 C178 1.376 1_655 S
C187 H180 0.961 . S
C187 C184 1.391 . S
C188 C189 1.387 . S
C188 H192 0.950 . S
C188 C197 1.390 1_565 S
C189 C188 1.387 . S
C189 C191 1.387 . S
H190 C197 0.950 . S
C191 C189 1.387 . S
C191 C193 1.390 1_565 S
C191 H195 0.950 . S
H192 C188 0.950 . S
C193 C191 1.390 1_545 S
C193 C194 1.387 . S
C193 H196 0.950 . S
C194 C193 1.387 . S
C194 C197 1.387 . S
H195 C191 0.950 . S
H196 C193 0.950 . S
C197 C188 1.390 1_545 S
C197 H190 0.950 . S
C197 C194 1.387 . S
C198 C199 1.387 . S
C198 H202 0.950 . S
C198 C207 1.390 . S
C199 C198 1.387 . S
C199 C201 1.387 . S
H200 C207 0.950 . S
C201 C199 1.387 . S
C201 C203 1.390 . S
C201 H205 0.950 . S
H202 C198 0.950 . S
C203 C201 1.390 . S
C203 C204 1.387 . S
C203 H206 0.950 . S
C204 C203 1.387 . S
C204 C207 1.387 . S
H205 C201 0.950 . S
H206 C203 0.950 . S
C207 C198 1.390 . S
C207 H200 0.950 . S
C207 C204 1.387 . S
C208 C209 1.387 . S
C208 H212 0.950 . S
C208 C217 1.390 1_455 S
C209 C208 1.387 . S
C209 C211 1.387 . S
H210 C217 0.950 . S
C211 C209 1.387 . S
C211 C213 1.390 1_455 S
C211 H215 0.950 . S
H212 C208 0.950 . S
C213 C211 1.390 1_655 S
C213 C214 1.387 . S
C213 H216 0.950 . S
C214 C213 1.387 . S
C214 C217 1.387 . S
H215 C211 0.950 . S
H216 C213 0.950 . S
C217 C208 1.390 1_655 S
C217 H210 0.950 . S
C217 C214 1.387 . S
C218 C219 1.387 . S
C218 H222 0.950 . S
C218 C227 1.390 1_546 S
C219 C218 1.387 . S
C219 C221 1.387 . S
H220 C227 0.950 . S
C221 C219 1.387 . S
C221 C223 1.390 1_546 S
C221 H225 0.950 . S
H222 C218 0.950 . S
C223 C221 1.390 1_564 S
C223 C224 1.387 . S
C223 H226 0.950 . S
C224 C223 1.387 . S
C224 C227 1.387 . S
H225 C221 0.950 . S
H226 C223 0.950 . S
C227 C218 1.390 1_564 S
C227 H220 0.950 . S
C227 C224 1.387 . S
C228 C229 1.387 . S
C228 H232 0.950 . S
C228 C237 1.390 . S
C229 C228 1.387 . S
C229 C231 1.387 . S
H230 C237 0.950 . S
C231 C229 1.387 . S
C231 C233 1.390 . S
C231 H235 0.950 . S
H232 C228 0.950 . S
C233 C231 1.390 . S
C233 C234 1.387 . S
C233 H236 0.950 . S
C234 C233 1.387 . S
C234 C237 1.387 . S
H235 C231 0.950 . S
H236 C233 0.950 . S
C237 C228 1.390 . S
C237 H230 0.950 . S
C237 C234 1.387 . S
C238 C239 1.387 . S
C238 H242 0.950 . S
C238 C247 1.390 . S
C239 C238 1.387 . S
C239 C241 1.387 . S
H240 C247 0.950 . S
C241 C239 1.387 . S
C241 C243 1.390 . S
C241 H245 0.950 . S
H242 C238 0.950 . S
C243 C241 1.390 . S
C243 C244 1.387 . S
C243 H246 0.950 . S
C244 C243 1.387 . S
C244 C247 1.387 . S
H245 C241 0.950 . S
H246 C243 0.950 . S
C247 C238 1.390 . S
C247 H240 0.950 . S
C247 C244 1.387 . S
C248 C249 1.387 . S
C248 H252 0.950 . S
C248 C257 1.390 . S
C249 C248 1.387 . S
C249 C251 1.387 . S
H250 C257 0.950 . S
C251 C249 1.387 . S
C251 C253 1.390 . S
C251 H255 0.950 . S
H252 C248 0.950 . S
C253 C251 1.390 . S
C253 C254 1.387 . S
C253 H256 0.950 . S
C254 C253 1.387 . S
C254 C257 1.387 . S
H255 C251 0.950 . S
H256 C253 0.950 . S
C257 C248 1.390 . S
C257 H250 0.950 . S
C257 C254 1.387 . S
C258 C259 1.387 . S
C258 H262 0.950 . S
C258 C267 1.390 . S
C259 C258 1.387 . S
C259 C261 1.387 . S
H260 C267 0.950 . S
C261 C259 1.387 . S
C261 C263 1.390 1_556 S
C261 H265 0.950 1_556 S
H262 C258 0.950 . S
C263 C261 1.390 1_554 S
C263 C264 1.387 1_554 S
C263 H266 0.950 . S
C264 C263 1.387 1_556 S
C264 C267 1.387 . S
H265 C261 0.950 1_554 S
H266 C263 0.950 . S
C267 C258 1.390 . S
C267 H260 0.950 . S
C267 C264 1.387 . S
C268 C269 1.387 . S
C268 H272 0.950 . S
C268 C277 1.390 . S
C269 C268 1.387 . S
C269 C271 1.387 . S
H270 C277 0.950 . S
C271 C269 1.387 . S
C271 C273 1.390 . S
C271 H275 0.950 1_554 S
H272 C268 0.950 . S
C273 C271 1.390 . S
C273 C274 1.387 . S
C273 H276 0.950 1_554 S
C274 C273 1.387 . S
C274 C277 1.387 . S
H275 C271 0.950 1_556 S
H276 C273 0.950 1_556 S
C277 C268 1.390 . S
C277 H270 0.950 . S
C277 C274 1.387 . S
C278 C279 1.387 . S
C278 H282 0.950 . S
C278 C287 1.390 . S
C279 C278 1.387 . S
C279 C281 1.387 . S
H280 C287 0.950 . S
C281 C279 1.387 . S
C281 C283 1.390 . S
C281 H285 0.950 . S
H282 C278 0.950 . S
C283 C281 1.390 . S
C283 C284 1.387 . S
C283 H286 0.950 . S
C284 C283 1.387 . S
C284 C287 1.387 . S
H285 C281 0.950 . S
H286 C283 0.950 . S
C287 C278 1.390 . S
C287 H280 0.950 . S
C287 C284 1.387 . S
C288 C289 1.387 . S
C288 H292 0.950 . S
C288 C297 1.390 . S
C289 C288 1.387 . S
C289 C291 1.387 . S
H290 C297 0.950 . S
C291 C289 1.387 . S
C291 C293 1.390 . S
C291 H295 0.950 . S
H292 C288 0.950 . S
C293 C291 1.390 . S
C293 C294 1.387 . S
C293 H296 0.950 . S
C294 C293 1.387 . S
C294 C297 1.387 . S
H295 C291 0.950 . S
H296 C293 0.950 . S
C297 C288 1.390 . S
C297 H290 0.950 . S
C297 C294 1.387 . S
C298 C299 1.387 1_455 S
C298 H302 0.950 . S
C298 C307 1.390 . S
C299 C298 1.387 1_655 S
C299 C301 1.387 . S
H300 C307 0.950 . S
C301 C299 1.387 . S
C301 C303 1.390 . S
C301 H305 0.950 . S
H302 C298 0.950 . S
C303 C301 1.390 . S
C303 C304 1.387 1_655 S
C303 H306 0.950 . S
C304 C303 1.387 1_455 S
C304 C307 1.387 . S
H305 C301 0.950 . S
H306 C303 0.950 . S
C307 C298 1.390 . S
C307 H300 0.950 . S
C307 C304 1.387 . S
C308 C309 1.387 . S
C308 H312 0.950 . S
C308 C317 1.390 1_564 S
C309 C308 1.387 . S
C309 C311 1.387 . S
H310 C317 0.950 . S
C311 C309 1.387 . S
C311 C313 1.390 1_564 S
C311 H315 0.950 . S
H312 C308 0.950 . S
C313 C311 1.390 1_546 S
C313 C314 1.387 . S
C313 H316 0.950 . S
C314 C313 1.387 . S
C314 C317 1.387 . S
H315 C311 0.950 . S
H316 C313 0.950 . S
C317 C308 1.390 1_546 S
C317 H310 0.950 . S
C317 C314 1.387 . S
C318 C319 1.387 . S
C318 H322 0.950 . S
C318 C327 1.390 . S
C319 C318 1.387 . S
C319 C321 1.387 . S
H320 C327 0.950 . S
C321 C319 1.387 . S
C321 C323 1.390 . S
C321 H325 0.950 . S
H322 C318 0.950 . S
C323 C321 1.390 . S
C323 C324 1.387 . S
C323 H326 0.950 . S
C324 C323 1.387 . S
C324 C327 1.387 . S
H325 C321 0.950 . S
H326 C323 0.950 . S
C327 C318 1.390 . S
C327 H320 0.950 . S
C327 C324 1.387 . S
C328 C329 1.387 . S
C328 H332 0.950 . S
C328 C337 1.390 1_455 S
C329 C328 1.387 . S
C329 C331 1.387 . S
H330 C337 0.950 . S
C331 C329 1.387 . S
C331 C333 1.390 1_455 S
C331 H335 0.950 . S
H332 C328 0.950 . S
C333 C331 1.390 1_655 S
C333 C334 1.387 . S
C333 H336 0.950 . S
C334 C333 1.387 . S
C334 C337 1.387 . S
H335 C331 0.950 . S
H336 C333 0.950 . S
C337 C328 1.390 1_655 S
C337 H330 0.950 . S
C337 C334 1.387 . S
C338 C339 1.387 . S
C338 H342 0.950 . S
C338 C347 1.390 1_565 S
C339 C338 1.387 . S
C339 C341 1.387 . S
H340 C347 0.950 . S
C341 C339 1.387 . S
C341 C343 1.390 1_565 S
C341 H345 0.950 . S
H342 C338 0.950 . S
C343 C341 1.390 1_545 S
C343 C344 1.387 . S
C343 H346 0.950 . S
C344 C343 1.387 . S
C344 C347 1.387 . S
H345 C341 0.950 . S
H346 C343 0.950 . S
C347 C338 1.390 1_545 S
C347 H340 0.950 . S
C347 C344 1.387 . S
C348 C349 1.387 . S
C348 H352 0.950 . S
C348 C357 1.390 . S
C349 C348 1.387 . S
C349 C351 1.387 . S
H350 C357 0.950 . S
C351 C349 1.387 . S
C351 C353 1.390 . S
C351 H355 0.950 . S
H352 C348 0.950 . S
C353 C351 1.390 . S
C353 C354 1.387 . S
C353 H356 0.950 . S
C354 C353 1.387 . S
C354 C357 1.387 . S
H355 C351 0.950 . S
H356 C353 0.950 . S
C357 C348 1.390 . S
C357 H350 0.950 . S
C357 C354 1.387 . S
C358 C359 1.387 . S
C358 H362 0.950 . S
C358 C367 1.390 . S
C359 C358 1.387 . S
C359 C361 1.387 . S
H360 C367 0.950 . S
C361 C359 1.387 . S
C361 C363 1.390 . S
C361 H365 0.950 . S
H362 C358 0.950 . S
C363 C361 1.390 . S
C363 C364 1.387 . S
C363 H366 0.950 . S
C364 C363 1.387 . S
C364 C367 1.387 . S
H365 C361 0.950 . S
H366 C363 0.950 . S
C367 C358 1.390 . S
C367 H360 0.950 . S
C367 C364 1.387 . S
C368 C369 1.387 . S
C368 H372 0.950 . S
C368 C377 1.390 . S
C369 C368 1.387 . S
C369 C371 1.387 . S
H370 C377 0.950 . S
C371 C369 1.387 . S
C371 C373 1.390 . S
C371 H375 0.950 1_556 S
H372 C368 0.950 . S
C373 C371 1.390 . S
C373 C374 1.387 . S
C373 H376 0.950 . S
C374 C373 1.387 . S
C374 C377 1.387 . S
H375 C371 0.950 1_554 S
H376 C373 0.950 . S
C377 C368 1.390 . S
C377 H370 0.950 . S
C377 C374 1.387 . S
C378 C379 1.387 . S
C378 H382 0.950 . S
C378 C387 1.395 . S
C379 C378 1.387 . S
C379 C381 1.387 . S
H380 C387 0.939 1_556 S
C381 C379 1.387 . S
C381 C383 1.390 . S
C381 H385 0.950 . S
H382 C378 0.950 . S
C383 C381 1.390 . S
C383 C384 1.387 . S
C383 H386 0.950 . S
C384 C383 1.387 . S
C384 C387 1.393 . S
H385 C381 0.950 . S
H386 C383 0.950 . S
C387 C378 1.395 . S
C387 H380 0.939 1_554 S
C387 C384 1.393 . S
C388 C389 1.387 . S
C388 H392 0.950 . S
C388 C397 1.390 . S
C389 C388 1.387 . S
C389 C391 1.387 . S
H390 C397 0.950 . S
C391 C389 1.387 . S
C391 C393 1.390 . S
C391 H395 0.950 . S
H392 C388 0.950 . S
C393 C391 1.390 . S
C393 C394 1.387 . S
C393 H396 0.950 . S
C394 C393 1.387 . S
C394 C397 1.387 . S
H395 C391 0.950 . S
H396 C393 0.950 . S
C397 C388 1.390 . S
C397 H390 0.950 . S
C397 C394 1.387 . S
C398 C399 1.387 . S
C398 H402 0.950 . S
C398 C407 1.390 . S
C399 C398 1.387 . S
C399 C401 1.387 . S
H400 C407 0.950 . S
C401 C399 1.387 . S
C401 C403 1.390 . S
C401 H405 0.950 . S
H402 C398 0.950 . S
C403 C401 1.390 . S
C403 C404 1.387 . S
C403 H406 0.950 . S
C404 C403 1.387 . S
C404 C407 1.387 . S
H405 C401 0.950 . S
H406 C403 0.950 . S
C407 C398 1.390 . S
C407 H400 0.950 . S
C407 C404 1.387 . S
C169 C135 1.571 . S
C174 C9 1.570 . S
C179 C23 1.569 . S
C184 C149 1.571 . S
C189 C163 1.571 . S
C194 C37 1.571 . S
C199 C93 1.572 . S
C204 C51 1.569 . S
C209 C107 1.571 . S
C214 C65 1.570 . S
C219 C121 1.570 . S
C224 C79 1.570 . S
C229 C91 1.700 . S
C234 C7 1.703 . S
C239 C21 1.703 . S
C244 C105 1.701 . S
C249 C119 1.700 . S
C254 C35 1.700 . S
C259 C49 1.703 . S
C264 C133 1.700 . S
C269 C147 1.703 . S
C274 C63 1.700 . S
C279 C77 1.700 . S
C284 C161 1.700 . S
C289 C134 1.642 . S
C294 C8 1.642 . S
C299 C148 1.641 . S
C304 C22 1.642 . S
C309 C162 1.642 . S
C314 C36 1.642 . S
C319 C50 1.641 . S
C324 C92 1.641 . S
C329 C106 1.642 . S
C334 C64 1.642 . S
C339 C78 1.641 . S
C344 C120 1.641 . S
C349 C6 1.257 . S
C354 C118 1.259 . S
C359 C132 1.259 . S
C364 C20 1.259 . S
C369 C146 1.259 1_556 S
C374 C34 1.258 . S
C379 C160 1.259 . S
C384 C48 1.257 . S
C389 C90 1.258 . S
C394 C62 1.258 . S
C399 C104 1.258 . S
C404 C76 1.260 . S
