# Generated by pormake.
# Topology ukv, (4)-cn, num edge types: 1
# Building blocks:
#     Node 0, Type 0, BuildingBlock: UXUYUI_clean_sbu_0, # of connection points: 4
#     Node 1, Type 0, BuildingBlock: UXUYUI_clean_sbu_0, # of connection points: 4
#     Node 2, Type 0, BuildingBlock: UXUYUI_clean_sbu_0, # of connection points: 4
#     Node 3, Type 0, BuildingBlock: UXUYUI_clean_sbu_0, # of connection points: 4
#     Node 4, Type 0, BuildingBlock: UXUYUI_clean_sbu_0, # of connection points: 4
#     Node 5, Type 0, BuildingBlock: UXUYUI_clean_sbu_0, # of connection points: 4
#     Node 6, Type 0, BuildingBlock: UXUYUI_clean_sbu_0, # of connection points: 4
#     Node 7, Type 0, BuildingBlock: UXUYUI_clean_sbu_0, # of connection points: 4
#     Node 8, Type 0, BuildingBlock: UXUYUI_clean_sbu_0, # of connection points: 4
#     Node 9, Type 0, BuildingBlock: UXUYUI_clean_sbu_0, # of connection points: 4
#     Node 10, Type 0, BuildingBlock: UXUYUI_clean_sbu_0, # of connection points: 4
#     Node 11, Type 0, BuildingBlock: UXUYUI_clean_sbu_0, # of connection points: 4
#     Node 12, Type 0, BuildingBlock: UXUYUI_clean_sbu_0, # of connection points: 4
#     Node 13, Type 0, BuildingBlock: UXUYUI_clean_sbu_0, # of connection points: 4
#     Node 14, Type 0, BuildingBlock: UXUYUI_clean_sbu_0, # of connection points: 4
#     Node 15, Type 0, BuildingBlock: UXUYUI_clean_sbu_0, # of connection points: 4
#     Node 16, Type 0, BuildingBlock: UXUYUI_clean_sbu_0, # of connection points: 4
#     Node 17, Type 0, BuildingBlock: UXUYUI_clean_sbu_0, # of connection points: 4
#     Node 18, Type 0, BuildingBlock: UXUYUI_clean_sbu_0, # of connection points: 4
#     Node 19, Type 0, BuildingBlock: UXUYUI_clean_sbu_0, # of connection points: 4
#     Node 20, Type 0, BuildingBlock: UXUYUI_clean_sbu_0, # of connection points: 4
#     Node 21, Type 0, BuildingBlock: UXUYUI_clean_sbu_0, # of connection points: 4
#     Node 22, Type 0, BuildingBlock: UXUYUI_clean_sbu_0, # of connection points: 4
#     Node 23, Type 0, BuildingBlock: UXUYUI_clean_sbu_0, # of connection points: 4
#     Node 24, Type 0, BuildingBlock: UXUYUI_clean_sbu_0, # of connection points: 4
#     Node 25, Type 0, BuildingBlock: UXUYUI_clean_sbu_0, # of connection points: 4
#     Node 26, Type 0, BuildingBlock: UXUYUI_clean_sbu_0, # of connection points: 4
#     Node 27, Type 0, BuildingBlock: UXUYUI_clean_sbu_0, # of connection points: 4
#     Node 28, Type 0, BuildingBlock: UXUYUI_clean_sbu_0, # of connection points: 4
#     Node 29, Type 0, BuildingBlock: UXUYUI_clean_sbu_0, # of connection points: 4
#     Node 30, Type 0, BuildingBlock: UXUYUI_clean_sbu_0, # of connection points: 4
#     Node 31, Type 0, BuildingBlock: UXUYUI_clean_sbu_0, # of connection points: 4
#     Node 32, Type 0, BuildingBlock: UXUYUI_clean_sbu_0, # of connection points: 4
#     Node 33, Type 0, BuildingBlock: UXUYUI_clean_sbu_0, # of connection points: 4
#     Node 34, Type 0, BuildingBlock: UXUYUI_clean_sbu_0, # of connection points: 4
#     Node 35, Type 0, BuildingBlock: UXUYUI_clean_sbu_0, # of connection points: 4
#     Edge 36, Type (0, 0), None
#     Edge 37, Type (0, 0), None
#     Edge 38, Type (0, 0), None
#     Edge 39, Type (0, 0), None
#     Edge 40, Type (0, 0), None
#     Edge 41, Type (0, 0), None
#     Edge 42, Type (0, 0), None
#     Edge 43, Type (0, 0), None
#     Edge 44, Type (0, 0), None
#     Edge 45, Type (0, 0), None
#     Edge 46, Type (0, 0), None
#     Edge 47, Type (0, 0), None
#     Edge 48, Type (0, 0), None
#     Edge 49, Type (0, 0), None
#     Edge 50, Type (0, 0), None
#     Edge 51, Type (0, 0), None
#     Edge 52, Type (0, 0), None
#     Edge 53, Type (0, 0), None
#     Edge 54, Type (0, 0), None
#     Edge 55, Type (0, 0), None
#     Edge 56, Type (0, 0), None
#     Edge 57, Type (0, 0), None
#     Edge 58, Type (0, 0), None
#     Edge 59, Type (0, 0), None
#     Edge 60, Type (0, 0), None
#     Edge 61, Type (0, 0), None
#     Edge 62, Type (0, 0), None
#     Edge 63, Type (0, 0), None
#     Edge 64, Type (0, 0), None
#     Edge 65, Type (0, 0), None
#     Edge 66, Type (0, 0), None
#     Edge 67, Type (0, 0), None
#     Edge 68, Type (0, 0), None
#     Edge 69, Type (0, 0), None
#     Edge 70, Type (0, 0), None
#     Edge 71, Type (0, 0), None
#     Edge 72, Type (0, 0), None
#     Edge 73, Type (0, 0), None
#     Edge 74, Type (0, 0), None
#     Edge 75, Type (0, 0), None
#     Edge 76, Type (0, 0), None
#     Edge 77, Type (0, 0), None
#     Edge 78, Type (0, 0), None
#     Edge 79, Type (0, 0), None
#     Edge 80, Type (0, 0), None
#     Edge 81, Type (0, 0), None
#     Edge 82, Type (0, 0), None
#     Edge 83, Type (0, 0), None
#     Edge 84, Type (0, 0), None
#     Edge 85, Type (0, 0), None
#     Edge 86, Type (0, 0), None
#     Edge 87, Type (0, 0), None
#     Edge 88, Type (0, 0), None
#     Edge 89, Type (0, 0), None
#     Edge 90, Type (0, 0), None
#     Edge 91, Type (0, 0), None
#     Edge 92, Type (0, 0), None
#     Edge 93, Type (0, 0), None
#     Edge 94, Type (0, 0), None
#     Edge 95, Type (0, 0), None
#     Edge 96, Type (0, 0), None
#     Edge 97, Type (0, 0), None
#     Edge 98, Type (0, 0), None
#     Edge 99, Type (0, 0), None
#     Edge 100, Type (0, 0), None
#     Edge 101, Type (0, 0), None
#     Edge 102, Type (0, 0), None
#     Edge 103, Type (0, 0), None
#     Edge 104, Type (0, 0), None
#     Edge 105, Type (0, 0), None
#     Edge 106, Type (0, 0), None
#     Edge 107, Type (0, 0), None
# Relax obj value: 0.386
# Max RMSD: 0.229
# Mean RMSD: 0.228
data_MOF--net-ukv--node1-UXUYUI_clean_sbu_0--edge1-none
_symmetry_space_group_name_H-M    P1
_symmetry_Int_Tables_number       1
_symmetry_cell_setting            triclinic
loop_
_symmetry_equiv_pos_as_xyz
'x, y, z'
_cell_length_a     89.070453
_cell_length_b     89.077089
_cell_length_c     18.329371
_cell_angle_alpha  90.001718
_cell_angle_beta   89.997
_cell_angle_gamma 120.00464
loop_
_atom_site_label
_atom_site_type_symbol
_atom_site_fract_x
_atom_site_fract_y
_atom_site_fract_z
_atom_type_partial_charge
Li0 Li 0.24945 0.08729 0.089 0.0
Li1 Li 0.23997 0.05595 0.07273 0.0
Li2 Li 0.26748 0.07943 0.01424 0.0
Li3 Li 0.23934 0.07335 0.97068 0.0
C4 C 0.26763 0.08018 0.18935 0.0
N5 N 0.27911 0.09157 0.3295 0.0
C6 C 0.2585 0.06995 0.24922 0.0
C7 C 0.28275 0.09606 0.20073 0.0
C8 C 0.26448 0.07597 0.31965 0.0
C9 C 0.28829 0.10164 0.27201 0.0
C10 C 0.20984 0.06407 0.0506 0.0
C11 C 0.18199 0.04622 0.99393 0.0
N12 N 0.17647 0.05686 0.02088 0.0
C13 C 0.20386 0.07477 0.07808 0.0
C14 C 0.1988 0.04963 0.00851 0.0
C15 C 0.18696 0.07093 0.06231 0.0
C16 C 0.24803 0.11742 0.11367 0.0
N17 N 0.24744 0.10358 0.14793 0.0
C18 C 0.23803 0.11045 0.25829 0.0
C19 C 0.24246 0.09988 0.2187 0.0
C20 C 0.23831 0.12474 0.22419 0.0
C21 C 0.24359 0.12829 0.15108 0.0
H22 H 0.25123 0.1196 0.05636 0.0
H23 H 0.24129 0.08837 0.24367 0.0
C24 C 0.23691 0.02503 0.13186 0.0
N25 N 0.22935 0.03497 0.12606 0.0
C26 C 0.23009 0.01092 0.17978 0.0
C27 C 0.20784 0.01757 0.21394 0.0
C28 C 0.21504 0.03148 0.16541 0.0
C29 C 0.21545 0.00715 0.22223 0.0
H30 H 0.24847 0.02833 0.10067 0.0
H31 H 0.20958 0.03988 0.16106 0.0
C32 C 0.2726 0.11108 0.96769 0.0
N33 N 0.29942 0.14193 0.91467 0.0
C34 C 0.27365 0.11485 0.89318 0.0
C35 C 0.28507 0.12309 0.0153 0.0
C36 C 0.28733 0.13049 0.86742 0.0
C37 C 0.29857 0.13858 0.98742 0.0
C38 C 0.24175 0.04519 0.91628 0.0
C39 C 0.25047 0.04787 0.84994 0.0
C40 C 0.22606 0.02985 0.92754 0.0
C41 C 0.24308 0.03535 0.79509 0.0
C42 C 0.21909 0.01765 0.87136 0.0
N43 N 0.22766 0.02064 0.80681 0.0
C44 C 0.30302 0.08836 0.02744 0.0
C45 C 0.29355 0.09105 0.90994 0.0
C46 C 0.32 0.09524 0.00193 0.0
N47 N 0.29031 0.0867 0.98154 0.0
C48 C 0.31033 0.09823 0.88242 0.0
C49 C 0.32394 0.10066 0.92872 0.0
H50 H 0.30003 0.08462 0.08405 0.0
H51 H 0.28314 0.08945 0.87459 0.0
C52 C 0.22637 0.09111 0.90877 0.0
N53 N 0.22914 0.07795 0.88987 0.0
C54 C 0.22567 0.10187 0.85585 0.0
C55 C 0.2293 0.08455 0.76357 0.0
C56 C 0.22999 0.07406 0.81885 0.0
C57 C 0.22801 0.09922 0.78226 0.0
H58 H 0.2268 0.09457 0.96551 0.0
H59 H 0.23275 0.06391 0.80509 0.0
O60 O 0.26194 0.07455 0.11999 0.0
O61 O 0.2264 0.0677 0.0652 0.0
O62 O 0.25935 0.09577 0.99388 0.0
O63 O 0.24896 0.05716 0.97105 0.0
H64 H 0.24684 0.05758 0.2415 0.0
H65 H 0.29016 0.10397 0.15505 0.0
H66 H 0.25748 0.06825 0.36649 0.0
H67 H 0.29992 0.11395 0.28162 0.0
H68 H 0.17334 0.03513 0.96112 0.0
H69 H 0.21217 0.08596 0.11107 0.0
H70 H 0.20318 0.04122 0.98684 0.0
H71 H 0.18219 0.07914 0.08303 0.0
H72 H 0.23436 0.10739 0.31501 0.0
H73 H 0.24387 0.13908 0.12259 0.0
H74 H 0.23625 0.00311 0.18372 0.0
H75 H 0.19673 0.01535 0.24626 0.0
H76 H 0.26411 0.10571 0.8555 0.0
H77 H 0.28428 0.12052 0.0732 0.0
H78 H 0.28834 0.13352 0.80985 0.0
H79 H 0.30834 0.14797 0.02365 0.0
H80 H 0.26276 0.05953 0.84067 0.0
H81 H 0.21942 0.02729 0.97934 0.0
H82 H 0.24962 0.03732 0.74325 0.0
H83 H 0.20692 0.00575 0.87923 0.0
H84 H 0.32994 0.09649 0.03947 0.0
H85 H 0.31263 0.1024 0.82606 0.0
H86 H 0.22506 0.11315 0.87353 0.0
H87 H 0.23094 0.0819 0.70738 0.0
Li88 Li 0.94365 0.18397 0.07266 0.0
Li89 Li 0.9123 0.16212 0.08895 0.0
Li90 Li 0.92624 0.16595 0.97062 0.0
Li91 Li 0.92017 0.18801 0.01421 0.0
C92 C 0.93551 0.14572 0.05045 0.0
N93 N 0.94268 0.11954 0.02057 0.0
C94 C 0.92479 0.12903 0.0779 0.0
C95 C 0.94994 0.14911 0.00831 0.0
C96 C 0.92861 0.11596 0.06206 0.0
C97 C 0.95332 0.1357 0.99365 0.0
C98 C 0.91944 0.18741 0.18934 0.0
C99 C 0.898 0.18663 0.27208 0.0
N100 N 0.90807 0.18751 0.32953 0.0
C101 C 0.92967 0.18849 0.24917 0.0
C102 C 0.90357 0.18666 0.20078 0.0
C103 C 0.92366 0.18846 0.31963 0.0
C104 C 0.97456 0.21183 0.1319 0.0
N105 N 0.96463 0.19433 0.12597 0.0
C106 C 0.98205 0.19021 0.21372 0.0
C107 C 0.96814 0.18351 0.16518 0.0
C108 C 0.99245 0.20824 0.22216 0.0
C109 C 0.98867 0.21912 0.17984 0.0
H110 H 0.97124 0.22009 0.10082 0.0
H111 H 0.95975 0.16964 0.16073 0.0
C112 C 0.88217 0.13057 0.11361 0.0
N113 N 0.89601 0.14381 0.14788 0.0
C114 C 0.87129 0.11526 0.15101 0.0
C115 C 0.88914 0.12753 0.25821 0.0
C116 C 0.89972 0.14254 0.21863 0.0
C117 C 0.87484 0.11352 0.2241 0.0
H118 H 0.87998 0.13159 0.05631 0.0
H119 H 0.91122 0.15287 0.24361 0.0
C120 C 0.9544 0.19651 0.9162 0.0
N121 N 0.97895 0.20696 0.80668 0.0
C122 C 0.95172 0.20255 0.84986 0.0
C123 C 0.96974 0.19616 0.92743 0.0
C124 C 0.96424 0.20767 0.79499 0.0
C125 C 0.98194 0.20138 0.87123 0.0
C126 C 0.88851 0.16149 0.96771 0.0
C127 C 0.88473 0.15877 0.89322 0.0
C128 C 0.87652 0.16197 0.01536 0.0
C129 C 0.86909 0.15681 0.8675 0.0
C130 C 0.86102 0.15998 0.98753 0.0
N131 N 0.85767 0.15748 0.91479 0.0
C132 C 0.90845 0.13522 0.90871 0.0
C133 C 0.92553 0.15588 0.81878 0.0
C134 C 0.8977 0.12376 0.85578 0.0
N135 N 0.92162 0.15114 0.8898 0.0
C136 C 0.91503 0.14469 0.7635 0.0
C137 C 0.90036 0.12874 0.78219 0.0
H138 H 0.90498 0.13219 0.96544 0.0
H139 H 0.93568 0.16878 0.80501 0.0
C140 C 0.91126 0.21463 0.02746 0.0
N141 N 0.91291 0.20358 0.98154 0.0
C142 C 0.90438 0.22474 0.00196 0.0
C143 C 0.90138 0.21207 0.88245 0.0
C144 C 0.90856 0.20247 0.90995 0.0
C145 C 0.89896 0.22326 0.92877 0.0
H146 H 0.915 0.21538 0.08407 0.0
H147 H 0.91015 0.19365 0.87459 0.0
O148 O 0.93189 0.15865 0.06512 0.0
O149 O 0.92506 0.18734 0.11995 0.0
O150 O 0.94244 0.19176 0.97099 0.0
O151 O 0.90382 0.16354 0.99385 0.0
H152 H 0.91361 0.12616 0.11092 0.0
H153 H 0.95836 0.16191 0.98667 0.0
H154 H 0.9204 0.10298 0.08275 0.0
H155 H 0.96441 0.13813 0.96081 0.0
H156 H 0.8857 0.18596 0.28173 0.0
H157 H 0.94204 0.1892 0.2414 0.0
H158 H 0.89565 0.18618 0.15512 0.0
H159 H 0.93139 0.18917 0.36644 0.0
H160 H 0.98428 0.18132 0.24594 0.0
H161 H 0.99647 0.23309 0.18389 0.0
H162 H 0.8605 0.10475 0.12251 0.0
H163 H 0.8922 0.12691 0.31492 0.0
H164 H 0.94006 0.20319 0.84061 0.0
H165 H 0.9723 0.19208 0.97923 0.0
H166 H 0.96226 0.21223 0.74315 0.0
H167 H 0.99383 0.2011 0.87908 0.0
H168 H 0.89386 0.15836 0.8555 0.0
H169 H 0.8791 0.16375 0.07325 0.0
H170 H 0.86604 0.15479 0.80994 0.0
H171 H 0.85164 0.16038 0.02379 0.0
H172 H 0.88641 0.11187 0.87347 0.0
H173 H 0.91769 0.14897 0.7073 0.0
H174 H 0.90314 0.23343 0.03952 0.0
H175 H 0.8972 0.21019 0.82609 0.0
Li176 Li 0.81564 0.75959 0.07263 0.0
Li177 Li 0.83749 0.75011 0.08891 0.0
Li178 Li 0.83366 0.76021 0.97058 0.0
Li179 Li 0.8116 0.73208 0.01418 0.0
C180 C 0.85389 0.78971 0.05043 0.0
N181 N 0.88007 0.82307 0.02059 0.0
C182 C 0.87058 0.79569 0.0779 0.0
C183 C 0.8505 0.80075 0.0083 0.0
C184 C 0.88365 0.81258 0.06207 0.0
C185 C 0.86391 0.81755 0.99366 0.0
C186 C 0.81219 0.73194 0.1893 0.0
C187 C 0.81298 0.71129 0.27201 0.0
N188 N 0.8121 0.72048 0.32947 0.0
C189 C 0.81111 0.74108 0.24913 0.0
C190 C 0.81295 0.71682 0.20072 0.0
C191 C 0.81114 0.73511 0.31959 0.0
C192 C 0.78778 0.76265 0.13183 0.0
N193 N 0.80528 0.77022 0.12594 0.0
C194 C 0.8094 0.79175 0.21372 0.0
C195 C 0.8161 0.78454 0.16519 0.0
C196 C 0.79137 0.78413 0.2221 0.0
C197 C 0.78049 0.76947 0.17975 0.0
H198 H 0.77951 0.75108 0.10072 0.0
H199 H 0.82997 0.79001 0.16078 0.0
C200 C 0.86904 0.75153 0.11356 0.0
N201 N 0.8558 0.75212 0.14783 0.0
C202 C 0.88435 0.75596 0.15097 0.0
C203 C 0.87208 0.76154 0.25817 0.0
C204 C 0.85707 0.7571 0.21859 0.0
C205 C 0.88609 0.76124 0.22406 0.0
H206 H 0.86802 0.74832 0.05626 0.0
H207 H 0.84674 0.75827 0.24357 0.0
C208 C 0.80309 0.7578 0.91619 0.0
N209 N 0.79264 0.7719 0.8067 0.0
C210 C 0.79704 0.74908 0.84985 0.0
C211 C 0.80345 0.77349 0.92742 0.0
C212 C 0.79192 0.75647 0.79499 0.0
C213 C 0.79822 0.78047 0.87124 0.0
C214 C 0.83812 0.72694 0.96764 0.0
C215 C 0.84084 0.72589 0.89315 0.0
C216 C 0.83765 0.71447 0.01528 0.0
C217 C 0.8428 0.71221 0.86742 0.0
C218 C 0.83964 0.70097 0.98744 0.0
N219 N 0.84214 0.70012 0.91469 0.0
C220 C 0.86439 0.77317 0.90864 0.0
C221 C 0.84372 0.76956 0.81874 0.0
C222 C 0.87585 0.77387 0.85571 0.0
N223 N 0.84847 0.77041 0.88976 0.0
C224 C 0.85491 0.77025 0.76345 0.0
C225 C 0.87086 0.77154 0.78213 0.0
H226 H 0.86742 0.77273 0.96538 0.0
H227 H 0.83082 0.7668 0.80498 0.0
C228 C 0.78498 0.69654 0.02742 0.0
N229 N 0.79603 0.70925 0.9815 0.0
C230 C 0.77487 0.67956 0.00191 0.0
C231 C 0.78753 0.68923 0.88239 0.0
C232 C 0.79714 0.70601 0.9099 0.0
C233 C 0.77635 0.67561 0.92871 0.0
H234 H 0.78423 0.69953 0.08403 0.0
H235 H 0.80595 0.71641 0.87455 0.0
O236 O 0.84096 0.77315 0.06508 0.0
O237 O 0.81226 0.73763 0.11991 0.0
O238 O 0.80784 0.75059 0.97096 0.0
O239 O 0.83607 0.7402 0.99381 0.0
H240 H 0.87345 0.78738 0.11091 0.0
H241 H 0.8377 0.79637 0.98664 0.0
H242 H 0.89663 0.81735 0.08277 0.0
H243 H 0.86148 0.8262 0.96082 0.0
H244 H 0.81366 0.69966 0.28165 0.0
H245 H 0.8104 0.75274 0.24138 0.0
H246 H 0.81344 0.7094 0.15506 0.0
H247 H 0.81043 0.74212 0.36641 0.0
H248 H 0.81829 0.80287 0.24597 0.0
H249 H 0.76651 0.7633 0.18376 0.0
H250 H 0.89486 0.75568 0.12247 0.0
H251 H 0.8727 0.76521 0.31489 0.0
H252 H 0.79641 0.73679 0.84059 0.0
H253 H 0.80753 0.78014 0.97922 0.0
H254 H 0.78736 0.74994 0.74316 0.0
H255 H 0.79851 0.79264 0.8791 0.0
H256 H 0.84125 0.73543 0.85544 0.0
H257 H 0.83587 0.71527 0.07318 0.0
H258 H 0.84481 0.71118 0.80985 0.0
H259 H 0.83924 0.6912 0.02369 0.0
H260 H 0.88774 0.77447 0.87339 0.0
H261 H 0.85062 0.76862 0.70726 0.0
H262 H 0.76617 0.66962 0.03947 0.0
H263 H 0.78941 0.68693 0.82604 0.0
Li264 Li 0.07934 0.26758 0.48308 0.0
Li265 Li 0.07327 0.23945 0.52665 0.0
Li266 Li 0.08721 0.24956 0.40834 0.0
Li267 Li 0.05587 0.24007 0.42459 0.0
C268 C 0.111 0.27271 0.52963 0.0
N269 N 0.14184 0.29953 0.58263 0.0
C270 C 0.11477 0.27376 0.60413 0.0
C271 C 0.123 0.28519 0.48201 0.0
C272 C 0.13041 0.28744 0.62988 0.0
C273 C 0.1385 0.29869 0.50988 0.0
C274 C 0.04511 0.24185 0.58106 0.0
C275 C 0.01757 0.21919 0.62601 0.0
N276 N 0.02056 0.22776 0.69056 0.0
C277 C 0.04779 0.25058 0.64741 0.0
C278 C 0.02977 0.22617 0.56982 0.0
C279 C 0.03527 0.24318 0.70227 0.0
C280 C 0.08826 0.30312 0.46985 0.0
N281 N 0.08661 0.29041 0.51576 0.0
C282 C 0.09814 0.31043 0.61486 0.0
C283 C 0.09096 0.29366 0.58736 0.0
C284 C 0.10056 0.32405 0.56855 0.0
C285 C 0.09514 0.3201 0.49535 0.0
H286 H 0.08452 0.30012 0.41324 0.0
H287 H 0.08937 0.28325 0.62271 0.0
C288 C 0.09104 0.22649 0.58855 0.0
N289 N 0.07788 0.22925 0.60746 0.0
C290 C 0.1018 0.22579 0.64147 0.0
C291 C 0.08447 0.2294 0.73376 0.0
C292 C 0.07397 0.23009 0.67848 0.0
C293 C 0.09914 0.22812 0.71507 0.0
H294 H 0.09451 0.22693 0.53182 0.0
H295 H 0.06383 0.23285 0.69225 0.0
C296 C 0.08009 0.26773 0.30797 0.0
N297 N 0.09148 0.27921 0.16781 0.0
C298 C 0.06987 0.2586 0.2481 0.0
C299 C 0.09597 0.28285 0.29658 0.0
C300 C 0.07588 0.26458 0.17766 0.0
C301 C 0.10155 0.28839 0.2253 0.0
C302 C 0.06399 0.20996 0.44676 0.0
C303 C 0.0747 0.20397 0.41931 0.0
C304 C 0.04955 0.19891 0.48884 0.0
C305 C 0.07087 0.18708 0.4351 0.0
C306 C 0.04615 0.1821 0.50345 0.0
N307 N 0.05679 0.17659 0.47653 0.0
C308 C 0.11734 0.24814 0.38367 0.0
C309 C 0.0998 0.24257 0.27865 0.0
C310 C 0.12822 0.24371 0.34626 0.0
N311 N 0.10351 0.24755 0.34941 0.0
C312 C 0.11037 0.23813 0.23907 0.0
C313 C 0.12467 0.23843 0.27317 0.0
H314 H 0.11954 0.25135 0.44097 0.0
H315 H 0.08829 0.24139 0.25368 0.0
C316 C 0.02495 0.23701 0.36542 0.0
N317 N 0.03489 0.22945 0.37126 0.0
C318 C 0.01084 0.23019 0.31748 0.0
C319 C 0.01749 0.20793 0.28339 0.0
C320 C 0.03139 0.21513 0.33195 0.0
C321 C 0.00707 0.21555 0.27506 0.0
H322 H 0.02825 0.24857 0.39658 0.0
H323 H 0.0398 0.20967 0.33633 0.0
O324 O 0.09569 0.25946 0.50344 0.0
O325 O 0.05707 0.24907 0.52627 0.0
O326 O 0.07447 0.26204 0.37733 0.0
O327 O 0.06762 0.22651 0.43214 0.0
H328 H 0.10564 0.26422 0.64182 0.0
H329 H 0.12043 0.28439 0.42412 0.0
H330 H 0.13345 0.28846 0.68746 0.0
H331 H 0.14788 0.30846 0.47364 0.0
H332 H 0.00567 0.20702 0.61815 0.0
H333 H 0.05945 0.26286 0.65666 0.0
H334 H 0.0272 0.21953 0.51801 0.0
H335 H 0.03725 0.24972 0.75411 0.0
H336 H 0.10232 0.31274 0.67122 0.0
H337 H 0.09638 0.33004 0.4578 0.0
H338 H 0.11308 0.22519 0.62378 0.0
H339 H 0.08181 0.23103 0.78995 0.0
H340 H 0.0575 0.24694 0.25583 0.0
H341 H 0.10388 0.29027 0.34226 0.0
H342 H 0.06816 0.25757 0.13083 0.0
H343 H 0.11386 0.30002 0.21568 0.0
H344 H 0.08589 0.21229 0.38634 0.0
H345 H 0.04113 0.20329 0.51047 0.0
H346 H 0.07908 0.18231 0.41441 0.0
H347 H 0.03505 0.17345 0.53624 0.0
H348 H 0.13901 0.24399 0.37475 0.0
H349 H 0.10732 0.23446 0.18235 0.0
H350 H 0.00303 0.23635 0.3135 0.0
H351 H 0.01527 0.19683 0.2511 0.0
Li352 Li 0.76015 0.83375 0.52649 0.0
Li353 Li 0.73202 0.81169 0.48291 0.0
Li354 Li 0.75953 0.81573 0.42445 0.0
Li355 Li 0.75005 0.83758 0.40816 0.0
C356 C 0.75774 0.80318 0.5809 0.0
N357 N 0.77183 0.79272 0.69039 0.0
C358 C 0.74902 0.79713 0.64724 0.0
C359 C 0.77343 0.80354 0.56966 0.0
C360 C 0.75641 0.79201 0.70209 0.0
C361 C 0.78041 0.7983 0.62585 0.0
C362 C 0.72689 0.83821 0.52941 0.0
C363 C 0.70092 0.83975 0.50958 0.0
N364 N 0.70007 0.84225 0.58232 0.0
C365 C 0.72584 0.84094 0.6039 0.0
C366 C 0.71442 0.83775 0.48175 0.0
C367 C 0.71215 0.8429 0.62961 0.0
C368 C 0.77312 0.86448 0.58841 0.0
N369 N 0.77035 0.84856 0.60731 0.0
C370 C 0.77018 0.85499 0.73361 0.0
C371 C 0.76949 0.84381 0.67833 0.0
C372 C 0.77147 0.87095 0.71491 0.0
C373 C 0.77382 0.87594 0.64133 0.0
H374 H 0.77269 0.86751 0.53167 0.0
H375 H 0.76673 0.8309 0.69209 0.0
C376 C 0.69648 0.78507 0.46969 0.0
N377 N 0.70919 0.79613 0.5156 0.0
C378 C 0.67949 0.77496 0.49521 0.0
C379 C 0.68917 0.78764 0.61471 0.0
C380 C 0.70595 0.79724 0.5872 0.0
C381 C 0.67555 0.77645 0.56841 0.0
H382 H 0.69947 0.78432 0.41309 0.0
H383 H 0.71635 0.80605 0.62254 0.0
C384 C 0.78965 0.85397 0.44661 0.0
N385 N 0.82302 0.88015 0.4764 0.0
C386 C 0.79564 0.87066 0.4191 0.0
C387 C 0.80069 0.85058 0.48877 0.0
C388 C 0.81254 0.88372 0.4349 0.0
C389 C 0.8175 0.86399 0.50338 0.0
C390 C 0.73187 0.81228 0.30779 0.0
C391 C 0.74101 0.81119 0.24795 0.0
C392 C 0.71676 0.81303 0.29638 0.0
C393 C 0.73504 0.81121 0.1775 0.0
C394 C 0.71122 0.81306 0.22509 0.0
N395 N 0.7204 0.81217 0.16762 0.0
C396 C 0.76258 0.78786 0.36528 0.0
C397 C 0.78448 0.81618 0.33187 0.0
C398 C 0.7694 0.78057 0.31736 0.0
N399 N 0.77015 0.80536 0.37115 0.0
C400 C 0.79168 0.80947 0.28334 0.0
C401 C 0.78406 0.79144 0.27498 0.0
H402 H 0.75101 0.7796 0.39641 0.0
H403 H 0.78995 0.83005 0.33627 0.0
C404 C 0.75149 0.86913 0.3835 0.0
N405 N 0.75206 0.85588 0.34923 0.0
C406 C 0.75592 0.88444 0.34609 0.0
C407 C 0.76147 0.87216 0.23886 0.0
C408 C 0.75704 0.85715 0.27845 0.0
C409 C 0.76119 0.88617 0.27297 0.0
H410 H 0.74829 0.86812 0.44081 0.0
H411 H 0.7582 0.84681 0.25347 0.0
O412 O 0.75053 0.80793 0.52613 0.0
O413 O 0.74015 0.83616 0.50326 0.0
O414 O 0.7731 0.84104 0.43199 0.0
O415 O 0.73757 0.81235 0.37717 0.0
H416 H 0.73672 0.7965 0.65649 0.0
H417 H 0.78008 0.80762 0.51787 0.0
H418 H 0.74987 0.78744 0.75392 0.0
H419 H 0.79258 0.79859 0.61799 0.0
H420 H 0.69115 0.83935 0.47331 0.0
H421 H 0.73537 0.84135 0.64162 0.0
H422 H 0.71523 0.83597 0.42386 0.0
H423 H 0.71113 0.84492 0.68717 0.0
H424 H 0.76854 0.85071 0.7898 0.0
H425 H 0.77443 0.88783 0.62364 0.0
H426 H 0.66955 0.76627 0.45766 0.0
H427 H 0.68687 0.78951 0.67107 0.0
H428 H 0.78733 0.87352 0.38607 0.0
H429 H 0.79631 0.83779 0.51046 0.0
H430 H 0.81731 0.8967 0.41416 0.0
H431 H 0.82615 0.86155 0.53623 0.0
H432 H 0.75268 0.81048 0.2557 0.0
H433 H 0.70934 0.81353 0.34205 0.0
H434 H 0.74205 0.81049 0.13068 0.0
H435 H 0.69959 0.81374 0.21545 0.0
H436 H 0.76323 0.76659 0.31336 0.0
H437 H 0.8028 0.81836 0.25108 0.0
H438 H 0.75565 0.89495 0.37459 0.0
H439 H 0.76514 0.87277 0.18214 0.0
Li440 Li 0.16584 0.9263 0.52656 0.0
Li441 Li 0.1879 0.92024 0.48296 0.0
Li442 Li 0.18386 0.94371 0.42453 0.0
Li443 Li 0.16201 0.91237 0.40822 0.0
C444 C 0.1964 0.95446 0.58098 0.0
N445 N 0.20685 0.97901 0.69048 0.0
C446 C 0.20245 0.95179 0.64732 0.0
C447 C 0.19604 0.9698 0.56975 0.0
C448 C 0.20757 0.9643 0.70218 0.0
C449 C 0.20127 0.982 0.62594 0.0
C450 C 0.16139 0.88858 0.52945 0.0
C451 C 0.15988 0.86109 0.50961 0.0
N452 N 0.15738 0.85774 0.58236 0.0
C453 C 0.15866 0.8848 0.60394 0.0
C454 C 0.16187 0.87659 0.48179 0.0
C455 C 0.15671 0.86916 0.62965 0.0
C456 C 0.13511 0.90852 0.58849 0.0
N457 N 0.15103 0.92168 0.60739 0.0
C458 C 0.14459 0.91509 0.73369 0.0
C459 C 0.15578 0.92558 0.67841 0.0
C460 C 0.12863 0.90041 0.71501 0.0
C461 C 0.12365 0.89776 0.64142 0.0
H462 H 0.13208 0.90505 0.53175 0.0
H463 H 0.16868 0.93574 0.69217 0.0
C464 C 0.21452 0.91132 0.4697 0.0
N465 N 0.20347 0.91298 0.51562 0.0
C466 C 0.22463 0.90444 0.4952 0.0
C467 C 0.21196 0.90145 0.61473 0.0
C468 C 0.20236 0.90863 0.58722 0.0
C469 C 0.22315 0.89902 0.5684 0.0
H470 H 0.21526 0.91505 0.41309 0.0
H471 H 0.19355 0.91022 0.62258 0.0
C472 C 0.14561 0.93556 0.44675 0.0
N473 N 0.11941 0.94272 0.47666 0.0
C474 C 0.12892 0.92485 0.41928 0.0
C475 C 0.14899 0.94999 0.48893 0.0
C476 C 0.11585 0.92867 0.43514 0.0
C477 C 0.13557 0.95337 0.5036 0.0
C478 C 0.18731 0.91951 0.30782 0.0
C479 C 0.18839 0.92975 0.24801 0.0
C480 C 0.18655 0.90364 0.29636 0.0
C481 C 0.18836 0.92375 0.17754 0.0
C482 C 0.18652 0.89808 0.22505 0.0
N483 N 0.1874 0.90816 0.16761 0.0
C484 C 0.21173 0.97462 0.36529 0.0
C485 C 0.1834 0.96822 0.33207 0.0
C486 C 0.21902 0.98873 0.31738 0.0
N487 N 0.19422 0.9647 0.37125 0.0
C488 C 0.1901 0.98213 0.28355 0.0
C489 C 0.20814 0.99253 0.2751 0.0
H490 H 0.21999 0.9713 0.39635 0.0
H491 H 0.16953 0.95983 0.33653 0.0
C492 C 0.13046 0.88224 0.38356 0.0
N493 N 0.14371 0.89608 0.34929 0.0
C494 C 0.11515 0.87136 0.34616 0.0
C495 C 0.12742 0.88921 0.23896 0.0
C496 C 0.14243 0.89978 0.27853 0.0
C497 C 0.11342 0.87491 0.27307 0.0
H498 H 0.13148 0.88005 0.44086 0.0
H499 H 0.15276 0.91129 0.25356 0.0
O500 O 0.19166 0.9425 0.5262 0.0
O501 O 0.16344 0.90389 0.50331 0.0
O502 O 0.15854 0.93195 0.43207 0.0
O503 O 0.18724 0.92512 0.37722 0.0
H504 H 0.20309 0.94014 0.65657 0.0
H505 H 0.19196 0.97235 0.51795 0.0
H506 H 0.21213 0.96233 0.75401 0.0
H507 H 0.20098 0.99389 0.61808 0.0
H508 H 0.16028 0.85172 0.47335 0.0
H509 H 0.15825 0.89392 0.64166 0.0
H510 H 0.16365 0.87917 0.4239 0.0
H511 H 0.15469 0.86611 0.68721 0.0
H512 H 0.14887 0.91774 0.78988 0.0
H513 H 0.11176 0.88647 0.62373 0.0
H514 H 0.23332 0.90319 0.45765 0.0
H515 H 0.21009 0.89727 0.67108 0.0
H516 H 0.12605 0.91368 0.38623 0.0
H517 H 0.16179 0.95841 0.51059 0.0
H518 H 0.10287 0.92045 0.41443 0.0
H519 H 0.13801 0.96445 0.53647 0.0
H520 H 0.18909 0.94211 0.2558 0.0
H521 H 0.18607 0.89573 0.342 0.0
H522 H 0.18907 0.93148 0.13074 0.0
H523 H 0.18585 0.88578 0.21537 0.0
H524 H 0.23299 0.99653 0.31332 0.0
H525 H 0.18121 0.98436 0.25137 0.0
H526 H 0.10465 0.86057 0.37466 0.0
H527 H 0.1268 0.89226 0.18225 0.0
Li528 Li 0.75262 0.91445 0.91479 0.0
Li529 Li 0.75982 0.92874 0.03699 0.0
Li530 Li 0.73216 0.92115 0.97853 0.0
Li531 Li 0.75862 0.94446 0.93001 0.0
C532 C 0.72774 0.88891 0.01583 0.0
N533 N 0.70054 0.85545 0.03308 0.0
C534 C 0.72683 0.87937 0.07784 0.0
C535 C 0.71482 0.88145 0.96253 0.0
C536 C 0.71299 0.86246 0.08551 0.0
C537 C 0.70116 0.86452 0.97232 0.0
C538 C 0.79177 0.94388 0.952 0.0
C539 C 0.81886 0.97049 0.96885 0.0
N540 N 0.82756 0.96173 0.95854 0.0
C541 C 0.80099 0.93517 0.94097 0.0
C542 C 0.80077 0.96171 0.96553 0.0
C543 C 0.81907 0.94441 0.94477 0.0
C544 C 0.77035 0.90848 0.80599 0.0
N545 N 0.75757 0.9 0.85592 0.0
C546 C 0.75492 0.87288 0.82203 0.0
C547 C 0.75007 0.88259 0.86571 0.0
C548 C 0.76788 0.88123 0.76883 0.0
C549 C 0.77586 0.89936 0.76227 0.0
H550 H 0.77637 0.9224 0.80064 0.0
H551 H 0.74028 0.87615 0.907 0.0
C552 C 0.75649 0.92149 0.18257 0.0
N553 N 0.76786 0.92546 0.12658 0.0
C554 C 0.75519 0.90975 0.23608 0.0
C555 C 0.77868 0.90815 0.17745 0.0
C556 C 0.77946 0.91982 0.12492 0.0
C557 C 0.76561 0.90206 0.23082 0.0
H558 H 0.74692 0.92557 0.18035 0.0
H559 H 0.78785 0.9226 0.07834 0.0
C560 C 0.72982 0.93094 0.83707 0.0
N561 N 0.71127 0.9433 0.76248 0.0
C562 C 0.72747 0.94401 0.86754 0.0
C563 C 0.72279 0.9242 0.76861 0.0
C564 C 0.71805 0.95008 0.82897 0.0
C565 C 0.71342 0.9306 0.7318 0.0
C566 C 0.75554 0.95859 0.0642 0.0
C567 C 0.74606 0.96715 0.0711 0.0
C568 C 0.77212 0.96591 0.09451 0.0
C569 C 0.75351 0.98311 0.10705 0.0
C570 C 0.77912 0.98189 0.13003 0.0
N571 N 0.76975 0.9901 0.13545 0.0
C572 C 0.7062 0.90794 0.08004 0.0
C573 C 0.69525 0.90934 0.96406 0.0
C574 C 0.68964 0.9002 0.1103 0.0
N575 N 0.70869 0.91216 0.00811 0.0
C576 C 0.67846 0.90197 0.9925 0.0
C577 C 0.6754 0.89705 0.06653 0.0
H578 H 0.71713 0.9102 0.11359 0.0
H579 H 0.69742 0.91257 0.90683 0.0
C580 C 0.77258 0.96256 0.80441 0.0
N581 N 0.76899 0.96522 0.8737 0.0
C582 C 0.77939 0.97607 0.75393 0.0
C583 C 0.77905 0.99504 0.8474 0.0
C584 C 0.77211 0.98108 0.8961 0.0
C585 C 0.78268 0.99257 0.77508 0.0
H586 H 0.76995 0.94978 0.78824 0.0
H587 H 0.76911 0.98292 0.95122 0.0
O588 O 0.741 0.90562 0.00815 0.0
O589 O 0.77406 0.93503 0.94731 0.0
O590 O 0.73924 0.92496 0.87313 0.0
O591 O 0.74831 0.94286 0.02994 0.0
H592 H 0.73673 0.88493 0.11945 0.0
H593 H 0.71534 0.88869 0.91423 0.0
H594 H 0.71214 0.85491 0.13318 0.0
H595 H 0.69106 0.85859 0.93163 0.0
H596 H 0.82599 0.98429 0.97939 0.0
H597 H 0.79423 0.92137 0.93026 0.0
H598 H 0.79392 0.96875 0.9729 0.0
H599 H 0.82636 0.93781 0.93675 0.0
H600 H 0.74817 0.85893 0.82846 0.0
H601 H 0.7861 0.90643 0.72298 0.0
H602 H 0.74486 0.90535 0.27595 0.0
H603 H 0.7872 0.9028 0.17248 0.0
H604 H 0.73284 0.94941 0.92035 0.0
H605 H 0.72458 0.91413 0.74419 0.0
H606 H 0.71612 0.96018 0.85191 0.0
H607 H 0.70789 0.92549 0.67878 0.0
H608 H 0.73311 0.96154 0.04871 0.0
H609 H 0.7795 0.9593 0.09101 0.0
H610 H 0.74637 0.98993 0.11245 0.0
H611 H 0.79197 0.98774 0.1535 0.0
H612 H 0.68806 0.89632 0.16701 0.0
H613 H 0.66804 0.90012 0.95654 0.0
H614 H 0.78221 0.97365 0.69911 0.0
H615 H 0.78127 0.00754 0.86575 0.0
Li616 Li 0.08513 0.83806 0.91492 0.0
Li617 Li 0.07084 0.83096 0.0371 0.0
Li618 Li 0.07844 0.8109 0.9786 0.0
Li619 Li 0.05512 0.81404 0.93008 0.0
C620 C 0.11068 0.83873 0.01589 0.0
N621 N 0.14415 0.84503 0.03299 0.0
C622 C 0.12023 0.84738 0.07785 0.0
C623 C 0.11814 0.83328 0.96256 0.0
C624 C 0.13715 0.85047 0.08546 0.0
C625 C 0.13507 0.83657 0.97228 0.0
C626 C 0.05572 0.84779 0.95206 0.0
C627 C 0.02911 0.84829 0.96872 0.0
N628 N 0.03789 0.86576 0.95846 0.0
C629 C 0.06445 0.86572 0.94108 0.0
C630 C 0.03788 0.83897 0.96547 0.0
C631 C 0.05523 0.87458 0.9448 0.0
C632 C 0.09111 0.86176 0.80609 0.0
N633 N 0.09958 0.85747 0.85606 0.0
C634 C 0.1267 0.88195 0.8222 0.0
C635 C 0.117 0.86739 0.86589 0.0
C636 C 0.11835 0.88654 0.76894 0.0
C637 C 0.10023 0.87639 0.76235 0.0
H638 H 0.07718 0.85384 0.80072 0.0
H639 H 0.12344 0.86406 0.90722 0.0
C640 C 0.0781 0.83488 0.18265 0.0
N641 N 0.07411 0.84227 0.12671 0.0
C642 C 0.08984 0.84531 0.23616 0.0
C643 C 0.09142 0.8704 0.17762 0.0
C644 C 0.07975 0.85952 0.12509 0.0
C645 C 0.09752 0.86342 0.23094 0.0
H646 H 0.07403 0.82123 0.18041 0.0
H647 H 0.07695 0.86511 0.07855 0.0
C648 C 0.06864 0.79878 0.83713 0.0
N649 N 0.05628 0.76787 0.7625 0.0
C650 C 0.05557 0.78335 0.8676 0.0
C651 C 0.07538 0.79849 0.76866 0.0
C652 C 0.0495 0.76786 0.82901 0.0
C653 C 0.06898 0.78273 0.73182 0.0
C654 C 0.04099 0.79685 0.06426 0.0
C655 C 0.03241 0.77881 0.07126 0.0
C656 C 0.03367 0.80613 0.09447 0.0
C657 C 0.01645 0.77031 0.1072 0.0
C658 C 0.01768 0.79715 0.12998 0.0
N659 N 0.00947 0.77958 0.1355 0.0
C660 C 0.09165 0.79815 0.08007 0.0
C661 C 0.09024 0.7858 0.96408 0.0
C662 C 0.09939 0.78934 0.11031 0.0
N663 N 0.08743 0.79642 0.00815 0.0
C664 C 0.09761 0.77639 0.99249 0.0
C665 C 0.10254 0.77825 0.06652 0.0
H666 H 0.08939 0.80682 0.11363 0.0
H667 H 0.08701 0.78475 0.90685 0.0
C668 C 0.03703 0.80994 0.8045 0.0
N669 N 0.03436 0.80366 0.87376 0.0
C670 C 0.02352 0.80324 0.754 0.0
C671 C 0.00455 0.7839 0.84739 0.0
C672 C 0.01851 0.7909 0.8961 0.0
C673 C 0.00702 0.79001 0.7751 0.0
H674 H 0.0498 0.82009 0.78836 0.0
H675 H 0.01666 0.78604 0.95119 0.0
O676 O 0.09396 0.83527 0.00827 0.0
O677 O 0.06455 0.83891 0.94744 0.0
O678 O 0.07462 0.81417 0.8732 0.0
O679 O 0.05671 0.80533 0.03 0.0
H680 H 0.11467 0.85172 0.11948 0.0
H681 H 0.11089 0.82654 0.9143 0.0
H682 H 0.14471 0.85719 0.13309 0.0
H683 H 0.141 0.8324 0.93157 0.0
H684 H 0.01531 0.84163 0.97917 0.0
H685 H 0.07826 0.87275 0.93046 0.0
H686 H 0.03083 0.82508 0.9728 0.0
H687 H 0.06184 0.88847 0.93682 0.0
H688 H 0.14065 0.88916 0.82866 0.0
H689 H 0.09316 0.87955 0.72303 0.0
H690 H 0.09425 0.83939 0.27599 0.0
H691 H 0.09676 0.88427 0.17267 0.0
H692 H 0.05018 0.78332 0.92042 0.0
H693 H 0.08545 0.81035 0.74424 0.0
H694 H 0.0394 0.75583 0.85195 0.0
H695 H 0.07409 0.78231 0.6788 0.0
H696 H 0.03802 0.77146 0.04894 0.0
H697 H 0.04028 0.8201 0.09089 0.0
H698 H 0.00962 0.75635 0.11267 0.0
H699 H 0.01184 0.80416 0.15337 0.0
H700 H 0.10327 0.79163 0.16702 0.0
H701 H 0.09947 0.76782 0.95652 0.0
H702 H 0.02594 0.80849 0.69921 0.0
H703 H 0.99205 0.77359 0.8657 0.0
Li704 Li 0.18866 0.26745 0.97862 0.0
Li705 Li 0.18552 0.24099 0.93012 0.0
Li706 Li 0.1615 0.24698 0.91494 0.0
Li707 Li 0.1686 0.2398 0.03713 0.0
C708 C 0.20079 0.26978 0.83717 0.0
N709 N 0.23171 0.28833 0.76257 0.0
C710 C 0.21622 0.27214 0.86766 0.0
C711 C 0.20108 0.2768 0.76868 0.0
C712 C 0.23171 0.28156 0.82909 0.0
C713 C 0.21685 0.28616 0.73186 0.0
C714 C 0.20271 0.24405 0.06431 0.0
C715 C 0.20239 0.22044 0.13 0.0
N716 N 0.21997 0.2298 0.13558 0.0
C717 C 0.22075 0.25352 0.07136 0.0
C718 C 0.19343 0.22746 0.09448 0.0
C719 C 0.22924 0.24605 0.10732 0.0
C720 C 0.20142 0.29341 0.0801 0.0
N721 N 0.20315 0.29092 0.00817 0.0
C722 C 0.22317 0.32114 0.9925 0.0
C723 C 0.21376 0.30436 0.96409 0.0
C724 C 0.22132 0.32421 0.06655 0.0
C725 C 0.21024 0.30997 0.11034 0.0
H726 H 0.19276 0.28248 0.11367 0.0
H727 H 0.2148 0.30218 0.90685 0.0
C728 C 0.18963 0.227 0.80456 0.0
N729 N 0.19591 0.23062 0.87381 0.0
C730 C 0.19633 0.22019 0.75408 0.0
C731 C 0.21568 0.22057 0.84747 0.0
C732 C 0.20867 0.22752 0.89618 0.0
C733 C 0.20956 0.21692 0.77519 0.0
H734 H 0.17948 0.22962 0.78841 0.0
H735 H 0.21353 0.23054 0.95126 0.0
C736 C 0.16084 0.27186 0.01595 0.0
N737 N 0.15458 0.29905 0.03315 0.0
C738 C 0.15222 0.27278 0.07797 0.0
C739 C 0.16629 0.28477 0.9626 0.0
C740 C 0.14914 0.28662 0.08562 0.0
C741 C 0.16301 0.29842 0.97237 0.0
C742 C 0.15177 0.20784 0.9521 0.0
C743 C 0.13384 0.19865 0.94114 0.0
C744 C 0.16058 0.19881 0.96547 0.0
C745 C 0.12497 0.18056 0.94485 0.0
C746 C 0.15125 0.18072 0.9687 0.0
N747 N 0.13378 0.17205 0.95847 0.0
C748 C 0.1378 0.22925 0.80612 0.0
C749 C 0.13217 0.2495 0.86591 0.0
C750 C 0.12316 0.22373 0.76239 0.0
N751 N 0.1421 0.24202 0.85608 0.0
C752 C 0.11761 0.24465 0.82224 0.0
C753 C 0.11302 0.23171 0.76899 0.0
H754 H 0.14572 0.22324 0.80073 0.0
H755 H 0.13551 0.25928 0.90724 0.0
C756 C 0.16469 0.24313 0.18271 0.0
N757 N 0.1573 0.23176 0.12676 0.0
C758 C 0.15426 0.24444 0.23623 0.0
C759 C 0.12916 0.22093 0.17769 0.0
C760 C 0.14005 0.22015 0.12514 0.0
C761 C 0.13615 0.23401 0.23102 0.0
H762 H 0.17834 0.25271 0.18045 0.0
H763 H 0.13445 0.21176 0.0786 0.0
O764 O 0.1854 0.26036 0.87323 0.0
O765 O 0.19424 0.25131 0.03004 0.0
O766 O 0.16429 0.2586 0.00828 0.0
O767 O 0.16066 0.22555 0.94748 0.0
H768 H 0.21625 0.26678 0.92049 0.0
H769 H 0.18923 0.275 0.74424 0.0
H770 H 0.24374 0.2835 0.85204 0.0
H771 H 0.21727 0.29169 0.67883 0.0
H772 H 0.19538 0.20758 0.15336 0.0
H773 H 0.2281 0.26648 0.04908 0.0
H774 H 0.17945 0.22009 0.09085 0.0
H775 H 0.2432 0.25318 0.11283 0.0
H776 H 0.23174 0.33157 0.95652 0.0
H777 H 0.20796 0.31155 0.16706 0.0
H778 H 0.19108 0.21735 0.69928 0.0
H779 H 0.22598 0.21837 0.86579 0.0
H780 H 0.14789 0.26288 0.11962 0.0
H781 H 0.17301 0.28424 0.9143 0.0
H782 H 0.14245 0.28747 0.1333 0.0
H783 H 0.16718 0.30852 0.93165 0.0
H784 H 0.12681 0.20543 0.93055 0.0
H785 H 0.17447 0.20565 0.97278 0.0
H786 H 0.11108 0.17329 0.93688 0.0
H787 H 0.15791 0.17358 0.97913 0.0
H788 H 0.12001 0.2135 0.72308 0.0
H789 H 0.11041 0.25139 0.8287 0.0
H790 H 0.16019 0.25477 0.27607 0.0
H791 H 0.11529 0.2124 0.17275 0.0
Li792 Li 0.94437 0.75868 0.56706 0.0
Li793 Li 0.92106 0.73222 0.51854 0.0
Li794 Li 0.92866 0.75988 0.46005 0.0
Li795 Li 0.91437 0.75268 0.58222 0.0
C796 C 0.95851 0.75561 0.43289 0.0
N797 N 0.99003 0.76984 0.36167 0.0
C798 C 0.96708 0.74614 0.42597 0.0
C799 C 0.96583 0.77219 0.40262 0.0
C800 C 0.98305 0.75359 0.39003 0.0
C801 C 0.98182 0.7792 0.36713 0.0
C802 C 0.93085 0.72989 0.66001 0.0
C803 C 0.9305 0.71349 0.7653 0.0
N804 N 0.9432 0.71134 0.73464 0.0
C805 C 0.94392 0.72754 0.62957 0.0
C806 C 0.9241 0.72286 0.72847 0.0
C807 C 0.94999 0.71811 0.66815 0.0
C808 C 0.96246 0.77264 0.69268 0.0
N809 N 0.96513 0.76905 0.6234 0.0
C810 C 0.99495 0.77911 0.64974 0.0
C811 C 0.98099 0.77217 0.60102 0.0
C812 C 0.99248 0.78274 0.72205 0.0
C813 C 0.97597 0.77945 0.74318 0.0
H814 H 0.94969 0.77002 0.70883 0.0
H815 H 0.98284 0.76917 0.54591 0.0
C816 C 0.90785 0.70626 0.41706 0.0
N817 N 0.91207 0.70875 0.48898 0.0
C818 C 0.9001 0.6897 0.38681 0.0
C819 C 0.90189 0.67853 0.50461 0.0
C820 C 0.90926 0.69531 0.53303 0.0
C821 C 0.89696 0.67546 0.43058 0.0
H822 H 0.9101 0.71718 0.3835 0.0
H823 H 0.91249 0.69749 0.59026 0.0
C824 C 0.94379 0.79182 0.54506 0.0
N825 N 0.96163 0.82762 0.53857 0.0
C826 C 0.93506 0.80103 0.55605 0.0
C827 C 0.96162 0.80084 0.53159 0.0
C828 C 0.9443 0.81912 0.55228 0.0
C829 C 0.9704 0.81893 0.5283 0.0
C830 C 0.88882 0.72781 0.48124 0.0
C831 C 0.87927 0.72691 0.41928 0.0
C832 C 0.88136 0.7149 0.53455 0.0
C833 C 0.86235 0.71308 0.41166 0.0
C834 C 0.86442 0.70125 0.52481 0.0
N835 N 0.85535 0.70063 0.4641 0.0
C836 C 0.9214 0.75654 0.31449 0.0
C837 C 0.91975 0.77952 0.37207 0.0
C838 C 0.90966 0.75523 0.26098 0.0
N839 N 0.92539 0.76791 0.37044 0.0
C840 C 0.90808 0.77874 0.31953 0.0
C841 C 0.90198 0.76566 0.26621 0.0
H842 H 0.92548 0.74696 0.31673 0.0
H843 H 0.92254 0.78791 0.41862 0.0
C844 C 0.90839 0.77041 0.69103 0.0
N845 N 0.89991 0.75764 0.64108 0.0
C846 C 0.89927 0.77592 0.73477 0.0
C847 C 0.87279 0.755 0.67496 0.0
C848 C 0.8825 0.75014 0.63127 0.0
C849 C 0.88115 0.76795 0.7282 0.0
H850 H 0.92231 0.77642 0.6964 0.0
H851 H 0.87606 0.74036 0.58996 0.0
O852 O 0.94278 0.74837 0.46714 0.0
O853 O 0.92487 0.7393 0.62394 0.0
O854 O 0.93495 0.77412 0.54972 0.0
O855 O 0.90554 0.74106 0.48887 0.0
H856 H 0.96147 0.73319 0.44833 0.0
H857 H 0.95922 0.77956 0.40615 0.0
H858 H 0.98987 0.74646 0.38462 0.0
H859 H 0.98767 0.79205 0.34369 0.0
H860 H 0.92538 0.70796 0.81832 0.0
H861 H 0.94932 0.7329 0.57676 0.0
H862 H 0.91403 0.72464 0.75287 0.0
H863 H 0.96009 0.71619 0.64523 0.0
H864 H 0.00746 0.78133 0.63141 0.0
H865 H 0.97355 0.78227 0.79799 0.0
H866 H 0.89622 0.68811 0.3301 0.0
H867 H 0.90004 0.6681 0.54057 0.0
H868 H 0.92126 0.79427 0.56671 0.0
H869 H 0.96867 0.79399 0.52425 0.0
H870 H 0.93769 0.8264 0.56027 0.0
H871 H 0.9842 0.82606 0.51781 0.0
H872 H 0.88483 0.73681 0.37766 0.0
H873 H 0.88861 0.7154 0.58281 0.0
H874 H 0.85479 0.71224 0.36403 0.0
H875 H 0.8585 0.69114 0.56551 0.0
H876 H 0.90525 0.7449 0.22115 0.0
H877 H 0.90274 0.78727 0.32448 0.0
H878 H 0.90634 0.78615 0.77407 0.0
H879 H 0.85884 0.74825 0.66852 0.0
Li880 Li 0.24089 0.1856 0.56722 0.0
Li881 Li 0.26735 0.18874 0.5187 0.0
Li882 Li 0.23969 0.16867 0.46022 0.0
Li883 Li 0.24688 0.16158 0.5824 0.0
C884 C 0.24397 0.2028 0.43303 0.0
N885 N 0.22974 0.22009 0.3618 0.0
C886 C 0.25344 0.22084 0.42609 0.0
C887 C 0.22738 0.19353 0.40278 0.0
C888 C 0.24599 0.22935 0.39015 0.0
C889 C 0.22038 0.20252 0.36727 0.0
C890 C 0.26968 0.20087 0.66016 0.0
C891 C 0.28609 0.21692 0.76544 0.0
N892 N 0.28824 0.23178 0.73476 0.0
C893 C 0.27204 0.21629 0.62969 0.0
C894 C 0.27671 0.20115 0.72862 0.0
C895 C 0.28147 0.23179 0.66827 0.0
C896 C 0.22693 0.18973 0.69282 0.0
N897 N 0.23052 0.19599 0.62353 0.0
C898 C 0.22046 0.21574 0.64984 0.0
C899 C 0.22741 0.20873 0.60114 0.0
C900 C 0.21683 0.20965 0.72216 0.0
C901 C 0.22012 0.19643 0.74331 0.0
H902 H 0.22955 0.17959 0.70899 0.0
H903 H 0.23041 0.21358 0.54603 0.0
C904 C 0.2933 0.20149 0.41719 0.0
N905 N 0.29082 0.20322 0.48912 0.0
C906 C 0.30986 0.2103 0.38693 0.0
C907 C 0.32104 0.22325 0.50475 0.0
C908 C 0.30426 0.21384 0.53318 0.0
C909 C 0.32411 0.2214 0.4307 0.0
H910 H 0.28238 0.19282 0.38364 0.0
H911 H 0.30208 0.21489 0.59042 0.0
C912 C 0.20774 0.15186 0.54522 0.0
N913 N 0.17194 0.13391 0.53872 0.0
C914 C 0.19853 0.13393 0.55621 0.0
C915 C 0.19873 0.16068 0.53175 0.0
C916 C 0.18044 0.12508 0.55243 0.0
C917 C 0.18064 0.15137 0.52846 0.0
C918 C 0.27175 0.16091 0.48137 0.0
C919 C 0.27266 0.15227 0.41937 0.0
C920 C 0.28467 0.16636 0.53467 0.0
C921 C 0.28649 0.1492 0.4117 0.0
C922 C 0.29832 0.16309 0.52489 0.0
N923 N 0.29894 0.15464 0.46414 0.0
C924 C 0.24302 0.16476 0.31464 0.0
C925 C 0.22004 0.14012 0.37224 0.0
C926 C 0.24433 0.15433 0.26111 0.0
N927 N 0.23165 0.15737 0.37061 0.0
C928 C 0.22082 0.12923 0.31969 0.0
C929 C 0.2339 0.13622 0.26635 0.0
H930 H 0.25259 0.17841 0.31687 0.0
H931 H 0.21165 0.13452 0.4188 0.0
C932 C 0.22914 0.13787 0.6912 0.0
N933 N 0.24192 0.14217 0.64127 0.0
C934 C 0.22362 0.12324 0.73491 0.0
C935 C 0.24456 0.1177 0.67513 0.0
C936 C 0.24942 0.13226 0.63147 0.0
C937 C 0.2316 0.1131 0.72835 0.0
H938 H 0.22313 0.14578 0.69655 0.0
H939 H 0.2592 0.1356 0.59017 0.0
O940 O 0.2512 0.19431 0.46729 0.0
O941 O 0.26027 0.18547 0.6241 0.0
O942 O 0.22545 0.16073 0.54989 0.0
O943 O 0.2585 0.16437 0.48905 0.0
H944 H 0.26639 0.22818 0.44845 0.0
H945 H 0.22001 0.17955 0.40632 0.0
H946 H 0.25313 0.24331 0.38471 0.0
H947 H 0.20752 0.19551 0.34384 0.0
H948 H 0.29162 0.21734 0.81845 0.0
H949 H 0.26668 0.21632 0.57688 0.0
H950 H 0.27493 0.1893 0.75303 0.0
H951 H 0.2834 0.24381 0.64533 0.0
H952 H 0.21825 0.22603 0.6315 0.0
H953 H 0.2173 0.19119 0.79812 0.0
H954 H 0.31145 0.20802 0.33022 0.0
H955 H 0.33147 0.23182 0.54071 0.0
H956 H 0.20529 0.12689 0.56687 0.0
H957 H 0.20558 0.17458 0.52442 0.0
H958 H 0.17316 0.11119 0.56042 0.0
H959 H 0.17351 0.15804 0.51796 0.0
H960 H 0.26275 0.14794 0.37776 0.0
H961 H 0.28416 0.17309 0.58296 0.0
H962 H 0.28734 0.14249 0.36404 0.0
H963 H 0.30843 0.16726 0.56558 0.0
H964 H 0.25465 0.16025 0.22126 0.0
H965 H 0.2123 0.11536 0.32465 0.0
H966 H 0.21339 0.12007 0.7742 0.0
H967 H 0.25131 0.1105 0.6687 0.0
Li968 Li 0.8309 0.07095 0.4601 0.0
Li969 Li 0.838 0.08523 0.58229 0.0
Li970 Li 0.81398 0.05522 0.56711 0.0
Li971 Li 0.81084 0.07854 0.51861 0.0
C972 C 0.84774 0.05583 0.54514 0.0
N973 N 0.86573 0.03803 0.53877 0.0
C974 C 0.86567 0.06458 0.5561 0.0
C975 C 0.83893 0.038 0.53176 0.0
C976 C 0.87454 0.05536 0.55239 0.0
C977 C 0.84826 0.02924 0.52852 0.0
C978 C 0.83866 0.11077 0.48131 0.0
C979 C 0.83649 0.13516 0.52493 0.0
N980 N 0.84494 0.14424 0.46418 0.0
C981 C 0.8473 0.12032 0.41932 0.0
C982 C 0.83322 0.11823 0.53466 0.0
C983 C 0.85038 0.13724 0.4117 0.0
C984 C 0.83482 0.0782 0.31454 0.0
N985 N 0.84221 0.07422 0.37047 0.0
C986 C 0.87034 0.09153 0.31955 0.0
C987 C 0.85946 0.07986 0.37209 0.0
C988 C 0.86335 0.09763 0.26624 0.0
C989 C 0.84525 0.08994 0.26102 0.0
H990 H 0.82117 0.07413 0.31679 0.0
H991 H 0.86506 0.07707 0.41863 0.0
C992 C 0.8617 0.09121 0.69113 0.0
N993 N 0.85741 0.09968 0.64114 0.0
C994 C 0.87633 0.10033 0.73486 0.0
C995 C 0.88189 0.1268 0.67499 0.0
C996 C 0.86734 0.11709 0.6313 0.0
C997 C 0.88648 0.11845 0.72826 0.0
H998 H 0.85378 0.07729 0.69652 0.0
H999 H 0.864 0.12353 0.58996 0.0
C1000 C 0.7968 0.04109 0.43292 0.0
N1001 N 0.77954 0.00958 0.36166 0.0
C1002 C 0.77876 0.03252 0.42588 0.0
C1003 C 0.80608 0.03378 0.40275 0.0
C1004 C 0.77027 0.01655 0.38992 0.0
C1005 C 0.79711 0.0178 0.36723 0.0
C1006 C 0.79871 0.06873 0.66007 0.0
C1007 C 0.78329 0.05567 0.62959 0.0
C1008 C 0.79843 0.07547 0.72855 0.0
C1009 C 0.76779 0.04959 0.66817 0.0
C1010 C 0.78266 0.06906 0.76538 0.0
N1011 N 0.7678 0.05637 0.73468 0.0
C1012 C 0.80988 0.03713 0.69267 0.0
C1013 C 0.79084 0.01861 0.60106 0.0
C1014 C 0.80319 0.02362 0.74315 0.0
N1015 N 0.8036 0.03446 0.62342 0.0
C1016 C 0.78383 0.00465 0.64976 0.0
C1017 C 0.78995 0.00712 0.72204 0.0
H1018 H 0.82003 0.04989 0.70881 0.0
H1019 H 0.78598 0.01677 0.54598 0.0
C1020 C 0.79809 0.09174 0.41714 0.0
N1021 N 0.79635 0.08752 0.48907 0.0
C1022 C 0.78927 0.09949 0.38691 0.0
C1023 C 0.77632 0.09771 0.50473 0.0
C1024 C 0.78574 0.09034 0.53314 0.0
C1025 C 0.77818 0.10263 0.43069 0.0
H1026 H 0.80675 0.08948 0.38358 0.0
H1027 H 0.78469 0.08711 0.59037 0.0
O1028 O 0.83885 0.06465 0.54975 0.0
O1029 O 0.83521 0.09407 0.48894 0.0
O1030 O 0.80527 0.05682 0.4672 0.0
O1031 O 0.81411 0.07472 0.624 0.0
H1032 H 0.8727 0.07838 0.5667 0.0
H1033 H 0.82504 0.03093 0.52444 0.0
H1034 H 0.88843 0.06199 0.56037 0.0
H1035 H 0.84161 0.01544 0.5181 0.0
H1036 H 0.83232 0.14109 0.56565 0.0
H1037 H 0.85163 0.11476 0.37767 0.0
H1038 H 0.82649 0.11099 0.58295 0.0
H1039 H 0.85708 0.1448 0.36404 0.0
H1040 H 0.88421 0.09687 0.32449 0.0
H1041 H 0.83932 0.09435 0.2212 0.0
H1042 H 0.87949 0.09326 0.77419 0.0
H1043 H 0.8891 0.14075 0.66852 0.0
H1044 H 0.7714 0.03812 0.44817 0.0
H1045 H 0.82006 0.0404 0.40637 0.0
H1046 H 0.7563 0.00972 0.38441 0.0
H1047 H 0.80413 0.01196 0.34386 0.0
H1048 H 0.78326 0.05028 0.57676 0.0
H1049 H 0.81028 0.08553 0.75298 0.0
H1050 H 0.75576 0.03949 0.64522 0.0
H1051 H 0.78224 0.07417 0.81841 0.0
H1052 H 0.80844 0.02603 0.79794 0.0
H1053 H 0.77353 0.99215 0.63145 0.0
H1054 H 0.79156 0.10336 0.33019 0.0
H1055 H 0.76775 0.09956 0.54071 0.0
Li1056 Li 0.91613 0.42062 0.42229 0.0
Li1057 Li 0.90665 0.38928 0.40602 0.0
Li1058 Li 0.93416 0.41276 0.34754 0.0
Li1059 Li 0.90603 0.40668 0.30398 0.0
C1060 C 0.93431 0.4135 0.52265 0.0
N1061 N 0.94579 0.42488 0.66281 0.0
C1062 C 0.92518 0.40328 0.58251 0.0
C1063 C 0.94943 0.42938 0.53404 0.0
C1064 C 0.93116 0.40928 0.65295 0.0
C1065 C 0.95497 0.43495 0.60533 0.0
C1066 C 0.87653 0.39741 0.38388 0.0
C1067 C 0.84868 0.37958 0.32715 0.0
N1068 N 0.84316 0.39021 0.35412 0.0
C1069 C 0.87054 0.40811 0.41138 0.0
C1070 C 0.86549 0.38298 0.34175 0.0
C1071 C 0.85365 0.40428 0.3956 0.0
C1072 C 0.91471 0.45075 0.44696 0.0
N1073 N 0.91412 0.43692 0.48123 0.0
C1074 C 0.90471 0.44378 0.59159 0.0
C1075 C 0.90915 0.43321 0.552 0.0
C1076 C 0.905 0.45808 0.55749 0.0
C1077 C 0.91028 0.46162 0.48438 0.0
H1078 H 0.91791 0.45294 0.38966 0.0
H1079 H 0.90798 0.42171 0.57697 0.0
C1080 C 0.90359 0.35837 0.46522 0.0
N1081 N 0.89603 0.36831 0.45935 0.0
C1082 C 0.89678 0.34426 0.51316 0.0
C1083 C 0.8745 0.3509 0.54719 0.0
C1084 C 0.88171 0.3648 0.49864 0.0
C1085 C 0.88213 0.34049 0.55555 0.0
H1086 H 0.91516 0.36168 0.43408 0.0
H1087 H 0.87624 0.3732 0.49425 0.0
C1088 C 0.93929 0.44441 0.30101 0.0
N1089 N 0.96611 0.47526 0.24804 0.0
C1090 C 0.94034 0.44819 0.22651 0.0
C1091 C 0.95176 0.45642 0.34865 0.0
C1092 C 0.95402 0.46383 0.20078 0.0
C1093 C 0.96526 0.47191 0.32079 0.0
C1094 C 0.90843 0.37852 0.24958 0.0
C1095 C 0.91715 0.38119 0.18323 0.0
C1096 C 0.89274 0.36319 0.26083 0.0
C1097 C 0.90976 0.36868 0.12839 0.0
C1098 C 0.88576 0.35098 0.20466 0.0
N1099 N 0.89433 0.35397 0.14011 0.0
C1100 C 0.9697 0.42169 0.36074 0.0
C1101 C 0.96023 0.42438 0.24323 0.0
C1102 C 0.98669 0.42856 0.33522 0.0
N1103 N 0.95699 0.42002 0.31484 0.0
C1104 C 0.97701 0.43155 0.21571 0.0
C1105 C 0.99063 0.43399 0.26202 0.0
H1106 H 0.96671 0.41795 0.41735 0.0
H1107 H 0.94982 0.42278 0.20789 0.0
C1108 C 0.89305 0.42445 0.24206 0.0
N1109 N 0.89582 0.41129 0.22316 0.0
C1110 C 0.89236 0.43521 0.18914 0.0
C1111 C 0.89599 0.41789 0.09686 0.0
C1112 C 0.89668 0.4074 0.15214 0.0
C1113 C 0.8947 0.43256 0.11555 0.0
H1114 H 0.89349 0.42791 0.2988 0.0
H1115 H 0.89944 0.39725 0.13838 0.0
O1116 O 0.92862 0.40788 0.45328 0.0
O1117 O 0.89309 0.40104 0.39849 0.0
O1118 O 0.92603 0.4291 0.32718 0.0
O1119 O 0.91564 0.39049 0.30434 0.0
H1120 H 0.91351 0.3909 0.57478 0.0
H1121 H 0.95685 0.43729 0.48837 0.0
H1122 H 0.92415 0.40156 0.69978 0.0
H1123 H 0.9666 0.44726 0.61495 0.0
H1124 H 0.84003 0.36849 0.29432 0.0
H1125 H 0.87886 0.41929 0.4444 0.0
H1126 H 0.86987 0.37456 0.32006 0.0
H1127 H 0.84888 0.41248 0.41633 0.0
H1128 H 0.90105 0.44073 0.64831 0.0
H1129 H 0.91055 0.47241 0.45589 0.0
H1130 H 0.90295 0.33646 0.51715 0.0
H1131 H 0.86339 0.34867 0.57947 0.0
H1132 H 0.93081 0.43906 0.18881 0.0
H1133 H 0.95096 0.45384 0.40654 0.0
H1134 H 0.95504 0.46687 0.14321 0.0
H1135 H 0.97503 0.48129 0.35704 0.0
H1136 H 0.92944 0.39285 0.17396 0.0
H1137 H 0.8861 0.36063 0.31264 0.0
H1138 H 0.91629 0.37065 0.07655 0.0
H1139 H 0.87359 0.33909 0.21253 0.0
H1140 H 0.99663 0.42981 0.37277 0.0
H1141 H 0.97931 0.43573 0.15936 0.0
H1142 H 0.89175 0.44649 0.20683 0.0
H1143 H 0.89763 0.41524 0.04067 0.0
Li1144 Li 0.61029 0.51727 0.40597 0.0
Li1145 Li 0.57895 0.49542 0.42224 0.0
Li1146 Li 0.59289 0.49925 0.30393 0.0
Li1147 Li 0.58682 0.52131 0.3475 0.0
C1148 C 0.60216 0.47903 0.38379 0.0
N1149 N 0.60935 0.45285 0.35399 0.0
C1150 C 0.59145 0.46234 0.41126 0.0
C1151 C 0.6166 0.48242 0.34168 0.0
C1152 C 0.59528 0.44928 0.39545 0.0
C1153 C 0.61999 0.46901 0.32705 0.0
C1154 C 0.58608 0.52072 0.52262 0.0
C1155 C 0.56464 0.51994 0.60531 0.0
N1156 N 0.57471 0.52082 0.66279 0.0
C1157 C 0.59631 0.5218 0.58247 0.0
C1158 C 0.57021 0.51997 0.53402 0.0
C1159 C 0.5903 0.52178 0.65292 0.0
C1160 C 0.64121 0.54514 0.46517 0.0
N1161 N 0.63128 0.52763 0.45929 0.0
C1162 C 0.64869 0.52351 0.5471 0.0
C1163 C 0.63478 0.51681 0.49856 0.0
C1164 C 0.6591 0.54155 0.55548 0.0
C1165 C 0.65532 0.55243 0.5131 0.0
H1166 H 0.63791 0.5534 0.43404 0.0
H1167 H 0.62638 0.50295 0.49416 0.0
C1168 C 0.54882 0.46387 0.44691 0.0
N1169 N 0.56265 0.47712 0.48117 0.0
C1170 C 0.53794 0.44856 0.48431 0.0
C1171 C 0.55579 0.46084 0.59152 0.0
C1172 C 0.56636 0.47585 0.55194 0.0
C1173 C 0.54149 0.44683 0.55741 0.0
H1174 H 0.54663 0.46489 0.3896 0.0
H1175 H 0.57787 0.48618 0.57691 0.0
C1176 C 0.62105 0.52982 0.24951 0.0
N1177 N 0.6456 0.54027 0.14 0.0
C1178 C 0.61838 0.53586 0.18317 0.0
C1179 C 0.63639 0.52946 0.26074 0.0
C1180 C 0.63089 0.54098 0.12831 0.0
C1181 C 0.64859 0.53469 0.20455 0.0
C1182 C 0.55516 0.49479 0.30098 0.0
C1183 C 0.55138 0.49206 0.22649 0.0
C1184 C 0.54316 0.49526 0.34863 0.0
C1185 C 0.53574 0.4901 0.20077 0.0
C1186 C 0.52767 0.49327 0.32079 0.0
N1187 N 0.52431 0.49076 0.24805 0.0
C1188 C 0.57512 0.46852 0.24201 0.0
C1189 C 0.59218 0.48919 0.15209 0.0
C1190 C 0.56436 0.45706 0.18908 0.0
N1191 N 0.58828 0.48444 0.22311 0.0
C1192 C 0.58168 0.478 0.0968 0.0
C1193 C 0.56701 0.46205 0.11549 0.0
H1194 H 0.57165 0.46549 0.29874 0.0
H1195 H 0.60233 0.50209 0.13832 0.0
C1196 C 0.57791 0.54794 0.36073 0.0
N1197 N 0.57956 0.53688 0.31482 0.0
C1198 C 0.57104 0.55805 0.33522 0.0
C1199 C 0.56803 0.54537 0.21572 0.0
C1200 C 0.57521 0.53577 0.24322 0.0
C1201 C 0.56561 0.55656 0.26203 0.0
H1202 H 0.58165 0.54868 0.41733 0.0
H1203 H 0.57679 0.52695 0.20788 0.0
O1204 O 0.59854 0.49196 0.39843 0.0
O1205 O 0.5917 0.52065 0.45324 0.0
O1206 O 0.60909 0.52507 0.3043 0.0
O1207 O 0.57047 0.49685 0.32714 0.0
H1208 H 0.58027 0.45947 0.44426 0.0
H1209 H 0.62501 0.49522 0.32003 0.0
H1210 H 0.58707 0.43629 0.41615 0.0
H1211 H 0.63108 0.47145 0.29423 0.0
H1212 H 0.55233 0.51927 0.61495 0.0
H1213 H 0.60867 0.52251 0.57472 0.0
H1214 H 0.5623 0.51948 0.48836 0.0
H1215 H 0.59802 0.52249 0.69974 0.0
H1216 H 0.65091 0.51463 0.57937 0.0
H1217 H 0.66313 0.5664 0.51711 0.0
H1218 H 0.52715 0.43805 0.45582 0.0
H1219 H 0.55884 0.46022 0.64824 0.0
H1220 H 0.60672 0.53649 0.17392 0.0
H1221 H 0.63895 0.52539 0.31254 0.0
H1222 H 0.62892 0.54554 0.07647 0.0
H1223 H 0.66049 0.53441 0.2124 0.0
H1224 H 0.56051 0.49165 0.18878 0.0
H1225 H 0.54574 0.49704 0.40652 0.0
H1226 H 0.5327 0.48808 0.14321 0.0
H1227 H 0.51829 0.49366 0.35705 0.0
H1228 H 0.55307 0.44517 0.20677 0.0
H1229 H 0.58434 0.48229 0.04061 0.0
H1230 H 0.5698 0.56674 0.37277 0.0
H1231 H 0.56385 0.54349 0.15936 0.0
Li1232 Li 0.50414 0.08344 0.42241 0.0
Li1233 Li 0.48229 0.09292 0.4061 0.0
Li1234 Li 0.47825 0.06541 0.34765 0.0
Li1235 Li 0.50031 0.09354 0.30407 0.0
C1236 C 0.47883 0.06526 0.52277 0.0
N1237 N 0.47872 0.0538 0.66295 0.0
C1238 C 0.47774 0.0744 0.5826 0.0
C1239 C 0.47959 0.05014 0.5342 0.0
C1240 C 0.47776 0.06843 0.65306 0.0
C1241 C 0.47961 0.04461 0.60549 0.0
C1242 C 0.52054 0.12303 0.38394 0.0
C1243 C 0.53057 0.15088 0.32713 0.0
N1244 N 0.54673 0.1564 0.35413 0.0
C1245 C 0.53723 0.12902 0.41146 0.0
C1246 C 0.51716 0.13407 0.34176 0.0
C1247 C 0.55029 0.14591 0.39566 0.0
C1248 C 0.5357 0.08487 0.44708 0.0
N1249 N 0.52245 0.08545 0.48135 0.0
C1250 C 0.53872 0.09485 0.59171 0.0
C1251 C 0.52371 0.09042 0.55213 0.0
C1252 C 0.55273 0.09457 0.5576 0.0
C1253 C 0.551 0.0893 0.48449 0.0
H1254 H 0.53468 0.08167 0.38976 0.0
H1255 H 0.51337 0.09158 0.57711 0.0
C1256 C 0.45442 0.09597 0.46526 0.0
N1257 N 0.47193 0.10354 0.45939 0.0
C1258 C 0.44713 0.1028 0.51316 0.0
C1259 C 0.47604 0.12508 0.54716 0.0
C1260 C 0.48274 0.11787 0.49865 0.0
C1261 C 0.45801 0.11745 0.55552 0.0
H1262 H 0.44616 0.08441 0.43414 0.0
H1263 H 0.49661 0.12334 0.49425 0.0
C1264 C 0.50478 0.06027 0.30117 0.0
N1265 N 0.5088 0.03345 0.24828 0.0
C1266 C 0.5075 0.05922 0.22668 0.0
C1267 C 0.50431 0.04781 0.34884 0.0
C1268 C 0.50946 0.04553 0.20098 0.0
C1269 C 0.5063 0.03431 0.32102 0.0
C1270 C 0.46975 0.09113 0.24966 0.0
C1271 C 0.46369 0.08241 0.18332 0.0
C1272 C 0.47011 0.10683 0.2609 0.0
C1273 C 0.45857 0.0898 0.12848 0.0
C1274 C 0.46488 0.1138 0.20473 0.0
N1275 N 0.45929 0.10523 0.14019 0.0
C1276 C 0.45163 0.02987 0.36085 0.0
C1277 C 0.4638 0.03934 0.24335 0.0
C1278 C 0.44153 0.01288 0.33532 0.0
N1279 N 0.46269 0.04258 0.31495 0.0
C1280 C 0.4542 0.02257 0.21582 0.0
C1281 C 0.44301 0.00895 0.26211 0.0
H1282 H 0.45088 0.03285 0.41746 0.0
H1283 H 0.47261 0.04975 0.20801 0.0
C1284 C 0.53105 0.1065 0.24214 0.0
N1285 N 0.51513 0.10373 0.22325 0.0
C1286 C 0.54251 0.1072 0.18922 0.0
C1287 C 0.52156 0.10356 0.09694 0.0
C1288 C 0.51037 0.10287 0.15223 0.0
C1289 C 0.53752 0.10485 0.11563 0.0
H1290 H 0.53408 0.10607 0.29888 0.0
H1291 H 0.49747 0.10011 0.13847 0.0
O1292 O 0.47891 0.07096 0.45339 0.0
O1293 O 0.50761 0.10648 0.39857 0.0
O1294 O 0.50272 0.07353 0.32731 0.0
O1295 O 0.4745 0.08392 0.30442 0.0
H1296 H 0.47704 0.08607 0.57484 0.0
H1297 H 0.48008 0.04272 0.48854 0.0
H1298 H 0.47705 0.07544 0.69988 0.0
H1299 H 0.48029 0.03298 0.61514 0.0
H1300 H 0.52814 0.15952 0.29426 0.0
H1301 H 0.54009 0.12071 0.44452 0.0
H1302 H 0.50437 0.12969 0.32005 0.0
H1303 H 0.56327 0.15068 0.41641 0.0
H1304 H 0.53933 0.09852 0.64844 0.0
H1305 H 0.56152 0.08903 0.45599 0.0
H1306 H 0.43316 0.09663 0.51716 0.0
H1307 H 0.48493 0.13619 0.57941 0.0
H1308 H 0.50791 0.06875 0.18896 0.0
H1309 H 0.50253 0.04861 0.40673 0.0
H1310 H 0.51148 0.0445 0.14342 0.0
H1311 H 0.50591 0.02454 0.35729 0.0
H1312 H 0.46305 0.07012 0.17406 0.0
H1313 H 0.47419 0.11347 0.3127 0.0
H1314 H 0.454 0.08327 0.07665 0.0
H1315 H 0.46517 0.12598 0.21259 0.0
H1316 H 0.43283 0.00294 0.37286 0.0
H1317 H 0.45608 0.02027 0.15945 0.0
H1318 H 0.5544 0.10781 0.2069 0.0
H1319 H 0.51727 0.10192 0.04076 0.0
Li1320 Li 0.746 0.6009 0.81632 0.0
Li1321 Li 0.73993 0.57278 0.85989 0.0
Li1322 Li 0.75387 0.58288 0.74157 0.0
Li1323 Li 0.72253 0.57339 0.75786 0.0
C1324 C 0.77766 0.60605 0.86282 0.0
N1325 N 0.80851 0.63287 0.91575 0.0
C1326 C 0.78144 0.6071 0.93731 0.0
C1327 C 0.78966 0.61852 0.81517 0.0
C1328 C 0.79708 0.62078 0.96303 0.0
C1329 C 0.80515 0.63202 0.84301 0.0
C1330 C 0.71177 0.57518 0.91432 0.0
C1331 C 0.68423 0.55251 0.95929 0.0
N1332 N 0.68722 0.56108 0.02384 0.0
C1333 C 0.71445 0.5839 0.98067 0.0
C1334 C 0.69643 0.55949 0.90309 0.0
C1335 C 0.70193 0.5765 0.03553 0.0
C1336 C 0.75492 0.63644 0.80309 0.0
N1337 N 0.75326 0.62373 0.849 0.0
C1338 C 0.7648 0.64376 0.94811 0.0
C1339 C 0.75762 0.62698 0.9206 0.0
C1340 C 0.76722 0.65737 0.90179 0.0
C1341 C 0.7618 0.65343 0.8286 0.0
H1342 H 0.75118 0.63345 0.74649 0.0
H1343 H 0.75603 0.61658 0.95595 0.0
C1344 C 0.75771 0.55982 0.9218 0.0
N1345 N 0.74455 0.56258 0.94071 0.0
C1346 C 0.76847 0.55912 0.97472 0.0
C1347 C 0.75114 0.56273 0.06701 0.0
C1348 C 0.74064 0.56342 0.01173 0.0
C1349 C 0.76581 0.56145 0.04831 0.0
H1350 H 0.76118 0.56026 0.86506 0.0
H1351 H 0.7305 0.56618 0.0255 0.0
C1352 C 0.74674 0.60105 0.6412 0.0
N1353 N 0.7581 0.61252 0.50102 0.0
C1354 C 0.73651 0.59191 0.58136 0.0
C1355 C 0.76261 0.61617 0.62978 0.0
C1356 C 0.74251 0.59788 0.51091 0.0
C1357 C 0.76818 0.62171 0.55849 0.0
C1358 C 0.73066 0.54328 0.78003 0.0
C1359 C 0.74137 0.5373 0.75256 0.0
C1360 C 0.71623 0.53224 0.82216 0.0
C1361 C 0.73754 0.52041 0.76837 0.0
C1362 C 0.71283 0.51544 0.8368 0.0
N1363 N 0.72348 0.50992 0.80985 0.0
C1364 C 0.784 0.58147 0.7169 0.0
C1365 C 0.76646 0.5759 0.61187 0.0
C1366 C 0.79488 0.57704 0.67949 0.0
N1367 N 0.77016 0.58088 0.68264 0.0
C1368 C 0.77703 0.57146 0.57229 0.0
C1369 C 0.79133 0.57175 0.60639 0.0
H1370 H 0.78619 0.58467 0.7742 0.0
H1371 H 0.75495 0.57472 0.5869 0.0
C1372 C 0.69161 0.57034 0.69866 0.0
N1373 N 0.70154 0.56277 0.70455 0.0
C1374 C 0.6775 0.56352 0.65073 0.0
C1375 C 0.68413 0.54123 0.61676 0.0
C1376 C 0.69803 0.54844 0.6653 0.0
C1377 C 0.67372 0.54886 0.60837 0.0
H1378 H 0.69492 0.58191 0.72977 0.0
H1379 H 0.70643 0.54297 0.66972 0.0
O1380 O 0.76235 0.59279 0.83667 0.0
O1381 O 0.72373 0.58239 0.85954 0.0
O1382 O 0.74112 0.59536 0.71058 0.0
O1383 O 0.73428 0.55984 0.76539 0.0
H1384 H 0.77231 0.59756 0.97503 0.0
H1385 H 0.78708 0.61772 0.75729 0.0
H1386 H 0.80013 0.62181 0.0206 0.0
H1387 H 0.81453 0.64179 0.80675 0.0
H1388 H 0.67234 0.54034 0.95143 0.0
H1389 H 0.72611 0.59619 0.98992 0.0
H1390 H 0.69387 0.55285 0.85129 0.0
H1391 H 0.70391 0.58304 0.08737 0.0
H1392 H 0.76898 0.64606 0.00446 0.0
H1393 H 0.76304 0.66336 0.79105 0.0
H1394 H 0.77975 0.55852 0.95702 0.0
H1395 H 0.74849 0.56436 0.1232 0.0
H1396 H 0.72414 0.58024 0.58911 0.0
H1397 H 0.77052 0.62359 0.67544 0.0
H1398 H 0.73479 0.59087 0.46409 0.0
H1399 H 0.78048 0.63334 0.54884 0.0
H1400 H 0.75255 0.54561 0.71954 0.0
H1401 H 0.70781 0.53662 0.84383 0.0
H1402 H 0.74575 0.51564 0.74766 0.0
H1403 H 0.70175 0.50679 0.86963 0.0
H1404 H 0.80566 0.57731 0.70799 0.0
H1405 H 0.77398 0.56779 0.51557 0.0
H1406 H 0.6697 0.56969 0.64671 0.0
H1407 H 0.6819 0.53012 0.58451 0.0
Li1408 Li 0.39866 0.14502 0.81628 0.0
Li1409 Li 0.42679 0.16708 0.85985 0.0
Li1410 Li 0.41669 0.17091 0.74153 0.0
Li1411 Li 0.42617 0.14906 0.75782 0.0
C1412 C 0.39353 0.17155 0.86277 0.0
N1413 N 0.36671 0.17558 0.91568 0.0
C1414 C 0.39248 0.17428 0.93726 0.0
C1415 C 0.38106 0.17108 0.81511 0.0
C1416 C 0.37879 0.17624 0.96297 0.0
C1417 C 0.36756 0.17308 0.84294 0.0
C1418 C 0.42438 0.13651 0.91427 0.0
C1419 C 0.44704 0.13163 0.95924 0.0
N1420 N 0.43846 0.12605 0.02377 0.0
C1421 C 0.41565 0.13046 0.98061 0.0
C1422 C 0.44007 0.13687 0.90304 0.0
C1423 C 0.42304 0.12534 0.03547 0.0
C1424 C 0.36312 0.1184 0.80307 0.0
N1425 N 0.37583 0.12946 0.84897 0.0
C1426 C 0.3558 0.12097 0.94809 0.0
C1427 C 0.37258 0.13057 0.92057 0.0
C1428 C 0.34219 0.10978 0.90178 0.0
C1429 C 0.34613 0.1083 0.82859 0.0
H1430 H 0.36611 0.11765 0.74647 0.0
H1431 H 0.38299 0.13939 0.95591 0.0
C1432 C 0.43976 0.19781 0.92178 0.0
N1433 N 0.43699 0.18189 0.94067 0.0
C1434 C 0.44046 0.20927 0.97471 0.0
C1435 C 0.43683 0.18833 0.06698 0.0
C1436 C 0.43614 0.17714 0.01169 0.0
C1437 C 0.43812 0.20428 0.0483 0.0
H1438 H 0.43932 0.20084 0.86505 0.0
H1439 H 0.43338 0.16423 0.02545 0.0
C1440 C 0.39851 0.14561 0.64116 0.0
N1441 N 0.38705 0.14551 0.50098 0.0
C1442 C 0.40766 0.14452 0.58132 0.0
C1443 C 0.38339 0.14636 0.62974 0.0
C1444 C 0.40168 0.14455 0.51087 0.0
C1445 C 0.37786 0.14639 0.55845 0.0
C1446 C 0.45629 0.1873 0.77999 0.0
C1447 C 0.46228 0.20399 0.75251 0.0
C1448 C 0.46733 0.18391 0.82213 0.0
C1449 C 0.47917 0.21705 0.76832 0.0
C1450 C 0.48413 0.19732 0.83677 0.0
N1451 N 0.48966 0.21348 0.80981 0.0
C1452 C 0.41812 0.20246 0.71687 0.0
C1453 C 0.42368 0.19049 0.61183 0.0
C1454 C 0.42255 0.21777 0.67947 0.0
N1455 N 0.4187 0.18922 0.6826 0.0
C1456 C 0.42811 0.20549 0.57225 0.0
C1457 C 0.42783 0.2195 0.60636 0.0
H1458 H 0.41492 0.20145 0.77418 0.0
H1459 H 0.42484 0.18015 0.58685 0.0
C1460 C 0.42922 0.12119 0.69865 0.0
N1461 N 0.43679 0.13869 0.70452 0.0
C1462 C 0.43604 0.11389 0.65075 0.0
C1463 C 0.45832 0.1428 0.61674 0.0
C1464 C 0.45112 0.14951 0.66526 0.0
C1465 C 0.45069 0.12477 0.60838 0.0
H1466 H 0.41765 0.11293 0.72977 0.0
H1467 H 0.45659 0.16338 0.66966 0.0
O1468 O 0.40678 0.16949 0.83663 0.0
O1469 O 0.41717 0.14127 0.85949 0.0
O1470 O 0.4042 0.14569 0.71054 0.0
O1471 O 0.43973 0.17437 0.76535 0.0
H1472 H 0.40201 0.17469 0.97498 0.0
H1473 H 0.38186 0.16929 0.75723 0.0
H1474 H 0.37777 0.17827 0.02053 0.0
H1475 H 0.35779 0.17268 0.80667 0.0
H1476 H 0.45921 0.13192 0.95138 0.0
H1477 H 0.40336 0.12983 0.98985 0.0
H1478 H 0.44671 0.14095 0.85125 0.0
H1479 H 0.4165 0.12078 0.0873 0.0
H1480 H 0.3535 0.12285 0.00444 0.0
H1481 H 0.33619 0.0996 0.79105 0.0
H1482 H 0.44106 0.22116 0.95703 0.0
H1483 H 0.43519 0.18404 0.12317 0.0
H1484 H 0.41932 0.14382 0.58907 0.0
H1485 H 0.37597 0.14685 0.6754 0.0
H1486 H 0.40869 0.14384 0.46405 0.0
H1487 H 0.36623 0.14707 0.5488 0.0
H1488 H 0.45397 0.20686 0.71948 0.0
H1489 H 0.46295 0.17112 0.8438 0.0
H1490 H 0.48394 0.23003 0.7476 0.0
H1491 H 0.49278 0.19488 0.86961 0.0
H1492 H 0.42228 0.22828 0.70797 0.0
H1493 H 0.43178 0.20611 0.51552 0.0
H1494 H 0.42986 0.09992 0.64675 0.0
H1495 H 0.46944 0.15169 0.58449 0.0
Li1496 Li 0.83253 0.25966 0.85999 0.0
Li1497 Li 0.85459 0.2536 0.8164 0.0
Li1498 Li 0.85054 0.27707 0.75795 0.0
Li1499 Li 0.82869 0.24573 0.74166 0.0
C1500 C 0.86309 0.28782 0.91439 0.0
N1501 N 0.87354 0.31237 0.02388 0.0
C1502 C 0.86914 0.28515 0.98073 0.0
C1503 C 0.86273 0.30316 0.90316 0.0
C1504 C 0.87426 0.29767 0.03559 0.0
C1505 C 0.86796 0.31536 0.95934 0.0
C1506 C 0.82807 0.22194 0.86291 0.0
C1507 C 0.82655 0.19444 0.84309 0.0
N1508 N 0.82405 0.19109 0.91584 0.0
C1509 C 0.82534 0.21816 0.9374 0.0
C1510 C 0.82854 0.20994 0.81526 0.0
C1511 C 0.82338 0.20251 0.96312 0.0
C1512 C 0.80179 0.24188 0.92192 0.0
N1513 N 0.81771 0.25504 0.94082 0.0
C1514 C 0.81127 0.24844 0.06712 0.0
C1515 C 0.82246 0.25894 0.01184 0.0
C1516 C 0.79532 0.23377 0.04843 0.0
C1517 C 0.79033 0.23112 0.97484 0.0
H1518 H 0.79876 0.23842 0.86518 0.0
H1519 H 0.83537 0.26908 0.0256 0.0
C1520 C 0.88121 0.24468 0.80316 0.0
N1521 N 0.87016 0.24634 0.84907 0.0
C1522 C 0.89132 0.2378 0.82866 0.0
C1523 C 0.87865 0.2348 0.94817 0.0
C1524 C 0.86905 0.24198 0.92067 0.0
C1525 C 0.88984 0.23238 0.90185 0.0
H1526 H 0.88195 0.24842 0.74655 0.0
H1527 H 0.86023 0.24357 0.95603 0.0
C1528 C 0.8123 0.26893 0.78013 0.0
N1529 N 0.78611 0.2761 0.80995 0.0
C1530 C 0.79561 0.25822 0.75263 0.0
C1531 C 0.81568 0.28335 0.82229 0.0
C1532 C 0.78254 0.26205 0.76845 0.0
C1533 C 0.80227 0.28674 0.83692 0.0
C1534 C 0.854 0.25286 0.64128 0.0
C1535 C 0.85508 0.26309 0.58144 0.0
C1536 C 0.85324 0.23699 0.62986 0.0
C1537 C 0.85506 0.25709 0.51099 0.0
C1538 C 0.85321 0.23142 0.55856 0.0
N1539 N 0.8541 0.2415 0.5011 0.0
C1540 C 0.87841 0.30798 0.69873 0.0
C1541 C 0.85008 0.30156 0.6654 0.0
C1542 C 0.8857 0.32209 0.65079 0.0
N1543 N 0.8609 0.29805 0.70464 0.0
C1544 C 0.85678 0.31546 0.61685 0.0
C1545 C 0.87482 0.32587 0.60845 0.0
H1546 H 0.88667 0.30467 0.72983 0.0
H1547 H 0.83621 0.29316 0.66983 0.0
C1548 C 0.79714 0.2156 0.717 0.0
N1549 N 0.81039 0.22943 0.68273 0.0
C1550 C 0.78183 0.20472 0.67959 0.0
C1551 C 0.79411 0.22256 0.57238 0.0
C1552 C 0.80912 0.23313 0.61196 0.0
C1553 C 0.7801 0.20826 0.60649 0.0
H1554 H 0.79816 0.21341 0.77431 0.0
H1555 H 0.81945 0.24464 0.58698 0.0
O1556 O 0.85834 0.27586 0.85962 0.0
O1557 O 0.83012 0.23724 0.83676 0.0
O1558 O 0.82523 0.26531 0.76549 0.0
O1559 O 0.85392 0.25848 0.71066 0.0
H1560 H 0.86978 0.2735 0.98999 0.0
H1561 H 0.85865 0.30572 0.85136 0.0
H1562 H 0.87883 0.2957 0.08742 0.0
H1563 H 0.86768 0.32725 0.95148 0.0
H1564 H 0.82694 0.18507 0.80683 0.0
H1565 H 0.82493 0.22728 0.97512 0.0
H1566 H 0.83032 0.21252 0.75737 0.0
H1567 H 0.82137 0.19947 0.02068 0.0
H1568 H 0.81556 0.25109 0.12331 0.0
H1569 H 0.77844 0.21984 0.95715 0.0
H1570 H 0.90001 0.23656 0.7911 0.0
H1571 H 0.87677 0.23063 0.00453 0.0
H1572 H 0.79274 0.24704 0.7196 0.0
H1573 H 0.82848 0.29177 0.84398 0.0
H1574 H 0.76956 0.25384 0.74772 0.0
H1575 H 0.8047 0.29783 0.86978 0.0
H1576 H 0.85579 0.27546 0.5892 0.0
H1577 H 0.85275 0.22908 0.67552 0.0
H1578 H 0.85577 0.26481 0.46417 0.0
H1579 H 0.85254 0.21912 0.54892 0.0
H1580 H 0.89967 0.32989 0.64676 0.0
H1581 H 0.84789 0.31768 0.58462 0.0
H1582 H 0.77132 0.19393 0.70809 0.0
H1583 H 0.79349 0.22561 0.51566 0.0
Li1584 Li 0.42525 0.27778 0.26337 0.0
Li1585 Li 0.3988 0.25447 0.3119 0.0
Li1586 Li 0.42646 0.26207 0.37037 0.0
Li1587 Li 0.41926 0.24778 0.24819 0.0
C1588 C 0.42218 0.29191 0.39756 0.0
N1589 N 0.4364 0.32343 0.46879 0.0
C1590 C 0.41271 0.30048 0.4045 0.0
C1591 C 0.43877 0.29923 0.42782 0.0
C1592 C 0.42016 0.31644 0.44044 0.0
C1593 C 0.44577 0.31522 0.46333 0.0
C1594 C 0.39646 0.26426 0.17044 0.0
C1595 C 0.38006 0.26391 0.06517 0.0
N1596 N 0.3779 0.27661 0.09585 0.0
C1597 C 0.3941 0.27733 0.20091 0.0
C1598 C 0.38943 0.25751 0.10198 0.0
C1599 C 0.38467 0.28339 0.16234 0.0
C1600 C 0.43922 0.29588 0.13777 0.0
N1601 N 0.43562 0.29855 0.20705 0.0
C1602 C 0.44568 0.32836 0.18073 0.0
C1603 C 0.43873 0.3144 0.22943 0.0
C1604 C 0.44931 0.32589 0.10842 0.0
C1605 C 0.44603 0.30939 0.08728 0.0
H1606 H 0.43659 0.28311 0.12161 0.0
H1607 H 0.43573 0.31625 0.28454 0.0
C1608 C 0.37284 0.24126 0.41341 0.0
N1609 N 0.37532 0.24548 0.34148 0.0
C1610 C 0.35628 0.23351 0.44367 0.0
C1611 C 0.3451 0.23528 0.32587 0.0
C1612 C 0.36188 0.24266 0.29743 0.0
C1613 C 0.34203 0.23036 0.39991 0.0
H1614 H 0.38377 0.24352 0.44696 0.0
H1615 H 0.36406 0.24589 0.2402 0.0
C1616 C 0.4584 0.2772 0.28535 0.0
N1617 N 0.4942 0.29505 0.29183 0.0
C1618 C 0.46762 0.26848 0.27435 0.0
C1619 C 0.46742 0.29504 0.29882 0.0
C1620 C 0.4857 0.27772 0.27811 0.0
C1621 C 0.48551 0.30382 0.30211 0.0
C1622 C 0.39439 0.22224 0.34922 0.0
C1623 C 0.39348 0.21269 0.41121 0.0
C1624 C 0.38147 0.21477 0.29591 0.0
C1625 C 0.37965 0.19578 0.41887 0.0
C1626 C 0.36782 0.19784 0.30569 0.0
N1627 N 0.3672 0.18877 0.36643 0.0
C1628 C 0.42313 0.25482 0.51594 0.0
C1629 C 0.4461 0.25315 0.45832 0.0
C1630 C 0.42182 0.24308 0.56946 0.0
N1631 N 0.4345 0.2588 0.45997 0.0
C1632 C 0.44532 0.24149 0.51086 0.0
C1633 C 0.43224 0.2354 0.56421 0.0
H1634 H 0.41356 0.2589 0.51373 0.0
H1635 H 0.45449 0.25594 0.41175 0.0
C1636 C 0.43699 0.2418 0.13938 0.0
N1637 N 0.42422 0.23333 0.18932 0.0
C1638 C 0.44251 0.23269 0.09565 0.0
C1639 C 0.42157 0.20621 0.15544 0.0
C1640 C 0.41672 0.21592 0.19912 0.0
C1641 C 0.43453 0.21456 0.10222 0.0
H1642 H 0.443 0.25573 0.13402 0.0
H1643 H 0.40694 0.20947 0.24042 0.0
O1644 O 0.41494 0.27619 0.3633 0.0
O1645 O 0.40587 0.25828 0.2065 0.0
O1646 O 0.44069 0.26836 0.28069 0.0
O1647 O 0.40764 0.23895 0.34155 0.0
H1648 H 0.39975 0.29487 0.38215 0.0
H1649 H 0.44614 0.29263 0.42428 0.0
H1650 H 0.41302 0.32326 0.44587 0.0
H1651 H 0.45862 0.32107 0.48676 0.0
H1652 H 0.37452 0.2588 0.01215 0.0
H1653 H 0.39947 0.28273 0.25372 0.0
H1654 H 0.39121 0.24745 0.07756 0.0
H1655 H 0.38275 0.29349 0.18528 0.0
H1656 H 0.44789 0.34086 0.19906 0.0
H1657 H 0.44885 0.30697 0.03247 0.0
H1658 H 0.3547 0.22964 0.50039 0.0
H1659 H 0.33467 0.23343 0.28991 0.0
H1660 H 0.46085 0.25468 0.26368 0.0
H1661 H 0.46056 0.30208 0.30617 0.0
H1662 H 0.49299 0.27112 0.27011 0.0
H1663 H 0.49264 0.31761 0.31261 0.0
H1664 H 0.40339 0.21826 0.45282 0.0
H1665 H 0.38198 0.22201 0.24763 0.0
H1666 H 0.3788 0.18822 0.46653 0.0
H1667 H 0.35771 0.19191 0.265 0.0
H1668 H 0.4115 0.23868 0.60931 0.0
H1669 H 0.45384 0.23614 0.50589 0.0
H1670 H 0.45274 0.23976 0.05635 0.0
H1671 H 0.41483 0.19226 0.16188 0.0
Li1672 Li 0.73753 0.16432 0.3705 0.0
Li1673 Li 0.75181 0.17141 0.2483 0.0
Li1674 Li 0.7218 0.1474 0.2635 0.0
Li1675 Li 0.74511 0.14426 0.312 0.0
C1676 C 0.72239 0.18113 0.28552 0.0
N1677 N 0.70454 0.19908 0.29203 0.0
C1678 C 0.73111 0.19906 0.27451 0.0
C1679 C 0.70456 0.17231 0.29901 0.0
C1680 C 0.72187 0.20791 0.27829 0.0
C1681 C 0.69578 0.18161 0.30232 0.0
C1682 C 0.77735 0.17207 0.3493 0.0
C1683 C 0.80174 0.1699 0.30574 0.0
N1684 N 0.81081 0.17834 0.3665 0.0
C1685 C 0.7869 0.1807 0.41131 0.0
C1686 C 0.78481 0.16662 0.29597 0.0
C1687 C 0.80381 0.18378 0.41896 0.0
C1688 C 0.74478 0.16824 0.51607 0.0
N1689 N 0.7408 0.17563 0.46011 0.0
C1690 C 0.75812 0.20376 0.511 0.0
C1691 C 0.74645 0.19288 0.45846 0.0
C1692 C 0.7642 0.19678 0.56434 0.0
C1693 C 0.75652 0.17867 0.56958 0.0
H1694 H 0.7407 0.15459 0.51384 0.0
H1695 H 0.74365 0.19847 0.4119 0.0
C1696 C 0.75779 0.19512 0.1395 0.0
N1697 N 0.76626 0.19082 0.18944 0.0
C1698 C 0.76691 0.20975 0.09578 0.0
C1699 C 0.79339 0.2153 0.15556 0.0
C1700 C 0.78368 0.20073 0.19924 0.0
C1701 C 0.78503 0.2199 0.10235 0.0
H1702 H 0.74386 0.18721 0.13415 0.0
H1703 H 0.79012 0.19739 0.24054 0.0
C1704 C 0.70767 0.13019 0.39769 0.0
N1705 N 0.67616 0.1129 0.46895 0.0
C1706 C 0.6991 0.11216 0.40461 0.0
C1707 C 0.70035 0.13946 0.42798 0.0
C1708 C 0.68314 0.10364 0.44057 0.0
C1709 C 0.68437 0.13047 0.4635 0.0
C1710 C 0.73531 0.13213 0.17053 0.0
C1711 C 0.72225 0.1167 0.201 0.0
C1712 C 0.74205 0.13184 0.10205 0.0
C1713 C 0.71617 0.10121 0.16241 0.0
C1714 C 0.73565 0.11608 0.06522 0.0
N1715 N 0.72295 0.10122 0.0959 0.0
C1716 C 0.7037 0.14328 0.13793 0.0
C1717 C 0.68518 0.12426 0.22955 0.0
C1718 C 0.69019 0.13659 0.08744 0.0
N1719 N 0.70104 0.13701 0.20719 0.0
C1720 C 0.67122 0.11724 0.18084 0.0
C1721 C 0.67369 0.12335 0.10855 0.0
H1722 H 0.71647 0.15344 0.12178 0.0
H1723 H 0.68334 0.1194 0.28464 0.0
C1724 C 0.75832 0.1315 0.41347 0.0
N1725 N 0.7541 0.12977 0.34155 0.0
C1726 C 0.76606 0.12269 0.44371 0.0
C1727 C 0.76429 0.10974 0.32588 0.0
C1728 C 0.75692 0.11915 0.29747 0.0
C1729 C 0.76921 0.11159 0.39992 0.0
H1730 H 0.75606 0.14016 0.44704 0.0
H1731 H 0.75369 0.1181 0.24024 0.0
O1732 O 0.73123 0.17226 0.28083 0.0
O1733 O 0.76064 0.16862 0.34165 0.0
O1734 O 0.7234 0.13869 0.36342 0.0
O1735 O 0.7413 0.14752 0.2066 0.0
H1736 H 0.74491 0.2061 0.26382 0.0
H1737 H 0.69751 0.15841 0.30636 0.0
H1738 H 0.72848 0.2218 0.27029 0.0
H1739 H 0.68198 0.17494 0.31283 0.0
H1740 H 0.80767 0.16572 0.26503 0.0
H1741 H 0.78134 0.18504 0.45294 0.0
H1742 H 0.77757 0.1599 0.24768 0.0
H1743 H 0.81137 0.19048 0.46662 0.0
H1744 H 0.76346 0.21763 0.50603 0.0
H1745 H 0.76092 0.17275 0.60943 0.0
H1746 H 0.75984 0.21292 0.05649 0.0
H1747 H 0.80733 0.2225 0.162 0.0
H1748 H 0.70471 0.10481 0.38223 0.0
H1749 H 0.70696 0.15344 0.42445 0.0
H1750 H 0.67632 0.08968 0.44599 0.0
H1751 H 0.67852 0.13747 0.48695 0.0
H1752 H 0.71685 0.11667 0.25382 0.0
H1753 H 0.75212 0.1437 0.07763 0.0
H1754 H 0.70607 0.08918 0.18535 0.0
H1755 H 0.74076 0.11566 0.01219 0.0
H1756 H 0.69261 0.14184 0.03264 0.0
H1757 H 0.65872 0.10694 0.19916 0.0
H1758 H 0.76993 0.12497 0.50043 0.0
H1759 H 0.76615 0.10117 0.28991 0.0
Li1760 Li 0.85533 0.60077 0.31188 0.0
Li1761 Li 0.85219 0.57432 0.26339 0.0
Li1762 Li 0.82817 0.5803 0.24818 0.0
Li1763 Li 0.83527 0.57312 0.37039 0.0
C1764 C 0.86746 0.6031 0.17042 0.0
N1765 N 0.89838 0.62165 0.09582 0.0
C1766 C 0.88289 0.60546 0.20092 0.0
C1767 C 0.86775 0.61012 0.10194 0.0
C1768 C 0.89838 0.61488 0.16235 0.0
C1769 C 0.88352 0.61949 0.06512 0.0
C1770 C 0.86938 0.57738 0.39758 0.0
C1771 C 0.86907 0.55378 0.46332 0.0
N1772 N 0.88665 0.56314 0.46886 0.0
C1773 C 0.88742 0.58685 0.4046 0.0
C1774 C 0.8601 0.56079 0.42779 0.0
C1775 C 0.89592 0.57939 0.44056 0.0
C1776 C 0.86809 0.62673 0.41336 0.0
N1777 N 0.86982 0.62425 0.34142 0.0
C1778 C 0.88984 0.65447 0.32576 0.0
C1779 C 0.88043 0.63768 0.29735 0.0
C1780 C 0.88799 0.65753 0.3998 0.0
C1781 C 0.87691 0.64329 0.4436 0.0
H1782 H 0.85943 0.61581 0.44693 0.0
H1783 H 0.88147 0.6355 0.24011 0.0
C1784 C 0.8563 0.56033 0.13783 0.0
N1785 N 0.86258 0.56394 0.20708 0.0
C1786 C 0.863 0.55351 0.08735 0.0
C1787 C 0.88235 0.5539 0.18075 0.0
C1788 C 0.87533 0.56085 0.22945 0.0
C1789 C 0.87623 0.55025 0.10847 0.0
H1790 H 0.84615 0.56294 0.12168 0.0
H1791 H 0.88019 0.56387 0.28454 0.0
C1792 C 0.82752 0.60519 0.34919 0.0
N1793 N 0.82126 0.63239 0.36639 0.0
C1794 C 0.81889 0.60611 0.41122 0.0
C1795 C 0.83296 0.6181 0.29584 0.0
C1796 C 0.81583 0.61995 0.41887 0.0
C1797 C 0.82969 0.63176 0.30562 0.0
C1798 C 0.81844 0.54117 0.28536 0.0
C1799 C 0.80051 0.53197 0.27438 0.0
C1800 C 0.82725 0.53215 0.29878 0.0
C1801 C 0.79165 0.51388 0.27811 0.0
C1802 C 0.81793 0.51406 0.30204 0.0
N1803 N 0.80047 0.50537 0.29178 0.0
C1804 C 0.80447 0.56258 0.13936 0.0
C1805 C 0.79884 0.58284 0.19915 0.0
C1806 C 0.78984 0.55707 0.09563 0.0
N1807 N 0.80877 0.57535 0.18932 0.0
C1808 C 0.78428 0.57798 0.15548 0.0
C1809 C 0.77969 0.56504 0.10223 0.0
H1810 H 0.81239 0.55657 0.13398 0.0
H1811 H 0.80218 0.59261 0.24048 0.0
C1812 C 0.83135 0.57646 0.51596 0.0
N1813 N 0.82396 0.56508 0.46 0.0
C1814 C 0.82092 0.57776 0.56948 0.0
C1815 C 0.79582 0.55426 0.51091 0.0
C1816 C 0.80671 0.55348 0.45837 0.0
C1817 C 0.80281 0.56734 0.56424 0.0
H1818 H 0.845 0.58603 0.51372 0.0
H1819 H 0.80111 0.54509 0.41181 0.0
O1820 O 0.85207 0.59369 0.20648 0.0
O1821 O 0.8609 0.58463 0.3633 0.0
O1822 O 0.83096 0.59193 0.34153 0.0
O1823 O 0.82732 0.55888 0.28073 0.0
H1824 H 0.88292 0.6001 0.25375 0.0
H1825 H 0.8559 0.60833 0.0775 0.0
H1826 H 0.91041 0.61682 0.1853 0.0
H1827 H 0.88394 0.62501 0.01208 0.0
H1828 H 0.86206 0.54092 0.4867 0.0
H1829 H 0.89477 0.59981 0.38228 0.0
H1830 H 0.84612 0.55343 0.42419 0.0
H1831 H 0.90988 0.58652 0.44605 0.0
H1832 H 0.89841 0.66489 0.28978 0.0
H1833 H 0.87463 0.64488 0.50032 0.0
H1834 H 0.85775 0.55068 0.03255 0.0
H1835 H 0.89265 0.5517 0.19908 0.0
H1836 H 0.81456 0.59622 0.45287 0.0
H1837 H 0.83968 0.61757 0.24753 0.0
H1838 H 0.80913 0.62081 0.46656 0.0
H1839 H 0.83386 0.64185 0.26489 0.0
H1840 H 0.79348 0.53874 0.26375 0.0
H1841 H 0.84115 0.53899 0.30612 0.0
H1842 H 0.77775 0.50661 0.27013 0.0
H1843 H 0.82459 0.50692 0.3125 0.0
H1844 H 0.78667 0.54684 0.05632 0.0
H1845 H 0.77708 0.58473 0.16194 0.0
H1846 H 0.82684 0.58809 0.60932 0.0
H1847 H 0.78195 0.54573 0.50595 0.0
Li1848 Li 0.61104 0.09201 0.90055 0.0
Li1849 Li 0.58773 0.06555 0.85201 0.0
Li1850 Li 0.59531 0.09321 0.79356 0.0
Li1851 Li 0.58103 0.08601 0.91575 0.0
C1852 C 0.62517 0.08894 0.76635 0.0
N1853 N 0.65669 0.10316 0.69512 0.0
C1854 C 0.63374 0.07947 0.75946 0.0
C1855 C 0.63249 0.10552 0.73604 0.0
C1856 C 0.64971 0.08692 0.72352 0.0
C1857 C 0.64848 0.11252 0.70053 0.0
C1858 C 0.59753 0.06321 0.99347 0.0
C1859 C 0.59718 0.04681 0.09873 0.0
N1860 N 0.60989 0.04467 0.06806 0.0
C1861 C 0.6106 0.06087 0.96301 0.0
C1862 C 0.59078 0.05618 0.06192 0.0
C1863 C 0.61667 0.05145 0.00157 0.0
C1864 C 0.62913 0.10598 0.02615 0.0
N1865 N 0.6318 0.10239 0.95687 0.0
C1866 C 0.66162 0.11245 0.9832 0.0
C1867 C 0.64766 0.1055 0.93448 0.0
C1868 C 0.65915 0.11608 0.0555 0.0
C1869 C 0.64264 0.11279 0.07664 0.0
H1870 H 0.61636 0.10335 0.04231 0.0
H1871 H 0.64951 0.10251 0.87937 0.0
C1872 C 0.57453 0.0396 0.75049 0.0
N1873 N 0.57875 0.04208 0.82241 0.0
C1874 C 0.56678 0.02304 0.72022 0.0
C1875 C 0.56857 0.01186 0.838 0.0
C1876 C 0.57594 0.02865 0.86645 0.0
C1877 C 0.56364 0.0088 0.76397 0.0
H1878 H 0.57678 0.05053 0.71696 0.0
H1879 H 0.57917 0.03082 0.92368 0.0
C1880 C 0.61045 0.12515 0.87856 0.0
N1881 N 0.6283 0.16095 0.87202 0.0
C1882 C 0.60173 0.13437 0.88959 0.0
C1883 C 0.62828 0.13416 0.86503 0.0
C1884 C 0.61098 0.15245 0.88579 0.0
C1885 C 0.63706 0.15225 0.86171 0.0
C1886 C 0.55549 0.06113 0.81473 0.0
C1887 C 0.54594 0.06023 0.75276 0.0
C1888 C 0.54803 0.04821 0.86803 0.0
C1889 C 0.52902 0.04639 0.74511 0.0
C1890 C 0.5311 0.03456 0.85827 0.0
N1891 N 0.52202 0.03394 0.79754 0.0
C1892 C 0.58806 0.08988 0.64799 0.0
C1893 C 0.58638 0.11285 0.70564 0.0
C1894 C 0.57632 0.08857 0.59449 0.0
N1895 N 0.59204 0.10125 0.70397 0.0
C1896 C 0.57471 0.11206 0.65311 0.0
C1897 C 0.56863 0.09899 0.59975 0.0
H1898 H 0.59214 0.08032 0.65019 0.0
H1899 H 0.58917 0.12123 0.75222 0.0
C1900 C 0.57505 0.10373 0.02455 0.0
N1901 N 0.56657 0.09095 0.97463 0.0
C1902 C 0.56593 0.10924 0.06828 0.0
C1903 C 0.53945 0.0883 0.00852 0.0
C1904 C 0.54916 0.08345 0.96484 0.0
C1905 C 0.5478 0.10126 0.06172 0.0
H1906 H 0.58897 0.10974 0.0299 0.0
H1907 H 0.54271 0.07366 0.92355 0.0
O1908 O 0.60945 0.08171 0.80061 0.0
O1909 O 0.59154 0.07263 0.95742 0.0
O1910 O 0.60161 0.10744 0.88325 0.0
O1911 O 0.5722 0.07438 0.82239 0.0
H1912 H 0.62813 0.06652 0.78186 0.0
H1913 H 0.62588 0.11289 0.73953 0.0
H1914 H 0.65653 0.07978 0.71813 0.0
H1915 H 0.65433 0.12537 0.67706 0.0
H1916 H 0.59206 0.04127 0.15174 0.0
H1917 H 0.616 0.06624 0.91021 0.0
H1918 H 0.58071 0.05796 0.08634 0.0
H1919 H 0.62678 0.04953 0.97864 0.0
H1920 H 0.67413 0.11467 0.96486 0.0
H1921 H 0.64022 0.11561 0.13145 0.0
H1922 H 0.56291 0.02146 0.66351 0.0
H1923 H 0.56672 0.00144 0.87394 0.0
H1924 H 0.58794 0.12761 0.9003 0.0
H1925 H 0.63532 0.12731 0.85766 0.0
H1926 H 0.60437 0.15974 0.89382 0.0
H1927 H 0.65086 0.15937 0.85117 0.0
H1928 H 0.5515 0.07013 0.71115 0.0
H1929 H 0.55528 0.04872 0.9163 0.0
H1930 H 0.52147 0.04554 0.69747 0.0
H1931 H 0.52517 0.02445 0.89895 0.0
H1932 H 0.57192 0.07825 0.55462 0.0
H1933 H 0.56936 0.12058 0.65809 0.0
H1934 H 0.573 0.11948 0.10756 0.0
H1935 H 0.5255 0.08155 0.00209 0.0
Li1936 Li 0.90757 0.51893 0.9005 0.0
Li1937 Li 0.93403 0.52208 0.85199 0.0
Li1938 Li 0.90637 0.50201 0.79351 0.0
Li1939 Li 0.91357 0.49492 0.9157 0.0
C1940 C 0.91065 0.53614 0.76632 0.0
N1941 N 0.89644 0.55344 0.69508 0.0
C1942 C 0.92013 0.55418 0.75941 0.0
C1943 C 0.89407 0.52688 0.73602 0.0
C1944 C 0.91268 0.56269 0.72347 0.0
C1945 C 0.88708 0.53587 0.70051 0.0
C1946 C 0.93637 0.53421 0.99346 0.0
C1947 C 0.95276 0.55026 0.09874 0.0
N1948 N 0.95492 0.56512 0.06806 0.0
C1949 C 0.93872 0.54963 0.96299 0.0
C1950 C 0.94339 0.53449 0.06192 0.0
C1951 C 0.94815 0.56512 0.00157 0.0
C1952 C 0.89361 0.52306 0.0261 0.0
N1953 N 0.8972 0.52932 0.95682 0.0
C1954 C 0.88714 0.54907 0.98312 0.0
C1955 C 0.89409 0.54206 0.93442 0.0
C1956 C 0.88351 0.54298 0.05543 0.0
C1957 C 0.88679 0.52976 0.07658 0.0
H1958 H 0.89623 0.51292 0.04227 0.0
H1959 H 0.89709 0.54691 0.87931 0.0
C1960 C 0.95999 0.53483 0.75049 0.0
N1961 N 0.95751 0.53657 0.82242 0.0
C1962 C 0.97655 0.54365 0.72024 0.0
C1963 C 0.98773 0.5566 0.83805 0.0
C1964 C 0.97094 0.54718 0.86648 0.0
C1965 C 0.99079 0.55475 0.76401 0.0
H1966 H 0.94906 0.52617 0.71694 0.0
H1967 H 0.96877 0.54823 0.92372 0.0
C1968 C 0.87442 0.4852 0.87849 0.0
N1969 N 0.83863 0.46725 0.87196 0.0
C1970 C 0.86521 0.46727 0.8895 0.0
C1971 C 0.86542 0.49402 0.86499 0.0
C1972 C 0.84712 0.45842 0.8857 0.0
C1973 C 0.84733 0.48472 0.86167 0.0
C1974 C 0.93845 0.49426 0.81467 0.0
C1975 C 0.93935 0.48562 0.75266 0.0
C1976 C 0.95136 0.49971 0.86798 0.0
C1977 C 0.95319 0.48255 0.745 0.0
C1978 C 0.96502 0.49644 0.8582 0.0
N1979 N 0.96564 0.48799 0.79744 0.0
C1980 C 0.90971 0.49809 0.64793 0.0
C1981 C 0.88673 0.47345 0.70555 0.0
C1982 C 0.91101 0.48767 0.59441 0.0
N1983 N 0.89833 0.4907 0.7039 0.0
C1984 C 0.88751 0.46257 0.653 0.0
C1985 C 0.90059 0.46956 0.59965 0.0
H1986 H 0.91928 0.51174 0.65015 0.0
H1987 H 0.87834 0.46785 0.75211 0.0
C1988 C 0.89583 0.47121 0.02449 0.0
N1989 N 0.90861 0.47552 0.97456 0.0
C1990 C 0.89031 0.45658 0.06821 0.0
C1991 C 0.91125 0.45104 0.00843 0.0
C1992 C 0.91611 0.4656 0.96477 0.0
C1993 C 0.8983 0.44644 0.06164 0.0
H1994 H 0.88982 0.47912 0.02984 0.0
H1995 H 0.92589 0.46895 0.92347 0.0
O1996 O 0.91788 0.52764 0.80058 0.0
O1997 O 0.92695 0.51881 0.95739 0.0
O1998 O 0.89213 0.49407 0.88318 0.0
O1999 O 0.92519 0.49771 0.82235 0.0
H2000 H 0.93308 0.56152 0.7818 0.0
H2001 H 0.8867 0.5129 0.73953 0.0
H2002 H 0.91983 0.57666 0.71806 0.0
H2003 H 0.87422 0.52887 0.67705 0.0
H2004 H 0.9583 0.55068 0.15176 0.0
H2005 H 0.93335 0.54966 0.91018 0.0
H2006 H 0.94161 0.52264 0.08633 0.0
H2007 H 0.95007 0.57715 0.97864 0.0
H2008 H 0.88492 0.55936 0.96478 0.0
H2009 H 0.88397 0.52452 0.1314 0.0
H2010 H 0.97814 0.54137 0.66352 0.0
H2011 H 0.99816 0.56517 0.87402 0.0
H2012 H 0.87197 0.46023 0.90019 0.0
H2013 H 0.87227 0.50792 0.85763 0.0
H2014 H 0.83983 0.44453 0.89371 0.0
H2015 H 0.8402 0.49138 0.85115 0.0
H2016 H 0.92945 0.48129 0.71104 0.0
H2017 H 0.95085 0.50644 0.91627 0.0
H2018 H 0.95404 0.47585 0.69733 0.0
H2019 H 0.97512 0.50062 0.89889 0.0
H2020 H 0.92134 0.49359 0.55455 0.0
H2021 H 0.87899 0.4487 0.65796 0.0
H2022 H 0.88008 0.45341 0.10749 0.0
H2023 H 0.918 0.44384 0.002 0.0
Li2024 Li 0.49755 0.40426 0.79343 0.0
Li2025 Li 0.50465 0.41855 0.91562 0.0
Li2026 Li 0.48063 0.38854 0.90043 0.0
Li2027 Li 0.47749 0.41186 0.85193 0.0
C2028 C 0.51437 0.38914 0.87844 0.0
N2029 N 0.53234 0.37131 0.87199 0.0
C2030 C 0.5323 0.39787 0.88942 0.0
C2031 C 0.50555 0.3713 0.86501 0.0
C2032 C 0.54116 0.38864 0.88567 0.0
C2033 C 0.51487 0.36253 0.86174 0.0
C2034 C 0.50531 0.44409 0.81462 0.0
C2035 C 0.50314 0.46848 0.85819 0.0
N2036 N 0.51159 0.47755 0.79743 0.0
C2037 C 0.51395 0.45363 0.75261 0.0
C2038 C 0.49987 0.45155 0.86795 0.0
C2039 C 0.51702 0.47055 0.74496 0.0
C2040 C 0.50146 0.41151 0.64786 0.0
N2041 N 0.50886 0.40753 0.70381 0.0
C2042 C 0.53699 0.42485 0.65289 0.0
C2043 C 0.5261 0.41318 0.70544 0.0
C2044 C 0.53 0.43093 0.59956 0.0
C2045 C 0.51189 0.42325 0.59433 0.0
H2046 H 0.48781 0.40744 0.6501 0.0
H2047 H 0.5317 0.41038 0.75199 0.0
C2048 C 0.52835 0.42452 0.02443 0.0
N2049 N 0.52406 0.433 0.97448 0.0
C2050 C 0.54299 0.43364 0.06816 0.0
C2051 C 0.54854 0.46011 0.00834 0.0
C2052 C 0.53398 0.45041 0.96466 0.0
C2053 C 0.55313 0.45176 0.06157 0.0
H2054 H 0.52043 0.4106 0.0298 0.0
H2055 H 0.53064 0.45685 0.92335 0.0
C2056 C 0.46343 0.37441 0.76625 0.0
N2057 N 0.44615 0.3429 0.695 0.0
C2058 C 0.44539 0.36584 0.75926 0.0
C2059 C 0.4727 0.3671 0.73603 0.0
C2060 C 0.43689 0.34988 0.72332 0.0
C2061 C 0.46373 0.35111 0.70051 0.0
C2062 C 0.46536 0.40206 0.9934 0.0
C2063 C 0.44993 0.38899 0.96292 0.0
C2064 C 0.46507 0.4088 0.06187 0.0
C2065 C 0.43444 0.38292 0.0015 0.0
C2066 C 0.44931 0.4024 0.0987 0.0
N2067 N 0.43445 0.3897 0.06801 0.0
C2068 C 0.47651 0.37045 0.02601 0.0
C2069 C 0.45748 0.35193 0.93438 0.0
C2070 C 0.46982 0.35694 0.0765 0.0
N2071 N 0.47024 0.36778 0.95675 0.0
C2072 C 0.45047 0.33797 0.98309 0.0
C2073 C 0.45658 0.34043 0.05538 0.0
H2074 H 0.48666 0.38321 0.04216 0.0
H2075 H 0.45263 0.35008 0.87929 0.0
C2076 C 0.46474 0.42506 0.75046 0.0
N2077 N 0.46301 0.42085 0.82239 0.0
C2078 C 0.45592 0.43281 0.72022 0.0
C2079 C 0.44298 0.43104 0.83805 0.0
C2080 C 0.45239 0.42367 0.86646 0.0
C2081 C 0.44483 0.43596 0.76401 0.0
H2082 H 0.4734 0.4228 0.71689 0.0
H2083 H 0.45134 0.42044 0.9237 0.0
O2084 O 0.50549 0.39796 0.88308 0.0
O2085 O 0.50186 0.42738 0.82227 0.0
O2086 O 0.47191 0.39014 0.80052 0.0
O2087 O 0.48075 0.40804 0.95733 0.0
H2088 H 0.53934 0.41167 0.90005 0.0
H2089 H 0.49166 0.36425 0.85768 0.0
H2090 H 0.55505 0.39525 0.89365 0.0
H2091 H 0.50821 0.34873 0.85127 0.0
H2092 H 0.49897 0.47441 0.8989 0.0
H2093 H 0.51828 0.44807 0.71097 0.0
H2094 H 0.49314 0.44431 0.91625 0.0
H2095 H 0.52372 0.4781 0.69729 0.0
H2096 H 0.55086 0.43019 0.65784 0.0
H2097 H 0.50597 0.42766 0.55449 0.0
H2098 H 0.54615 0.42657 0.10746 0.0
H2099 H 0.55574 0.47406 0.00189 0.0
H2100 H 0.43804 0.37145 0.7816 0.0
H2101 H 0.48668 0.37371 0.7396 0.0
H2102 H 0.42292 0.34305 0.71785 0.0
H2103 H 0.47073 0.34527 0.6771 0.0
H2104 H 0.4499 0.3836 0.9101 0.0
H2105 H 0.47693 0.41886 0.0863 0.0
H2106 H 0.42241 0.37283 0.97856 0.0
H2107 H 0.44889 0.4075 0.15173 0.0
H2108 H 0.47506 0.35935 0.13129 0.0
H2109 H 0.44017 0.32547 0.96477 0.0
H2110 H 0.45821 0.43668 0.6635 0.0
H2111 H 0.43441 0.4329 0.87402 0.0
Li2112 Li 0.57333 0.72262 0.73934 0.0
Li2113 Li 0.58281 0.75395 0.75562 0.0
Li2114 Li 0.57271 0.74002 0.63729 0.0
Li2115 Li 0.60084 0.74609 0.68085 0.0
C2116 C 0.54321 0.73074 0.7172 0.0
N2117 N 0.50983 0.72354 0.68747 0.0
C2118 C 0.53722 0.74144 0.74472 0.0
C2119 C 0.53217 0.71631 0.67507 0.0
C2120 C 0.52032 0.7376 0.72895 0.0
C2121 C 0.51536 0.71291 0.66048 0.0
C2122 C 0.601 0.74684 0.85597 0.0
C2123 C 0.62166 0.76828 0.93864 0.0
N2124 N 0.61248 0.75821 0.99612 0.0
C2125 C 0.59186 0.73661 0.91582 0.0
C2126 C 0.61612 0.76271 0.86736 0.0
C2127 C 0.59785 0.74261 0.98627 0.0
C2128 C 0.57027 0.6917 0.7985 0.0
N2129 N 0.56271 0.70164 0.79266 0.0
C2130 C 0.54119 0.68423 0.88051 0.0
C2131 C 0.54839 0.69813 0.83197 0.0
C2132 C 0.54881 0.67382 0.88884 0.0
C2133 C 0.56346 0.67759 0.84643 0.0
H2134 H 0.58184 0.695 0.76735 0.0
H2135 H 0.54292 0.70654 0.82759 0.0
C2136 C 0.58138 0.78408 0.78029 0.0
N2137 N 0.5808 0.77025 0.81455 0.0
C2138 C 0.57695 0.79495 0.81771 0.0
C2139 C 0.5714 0.77711 0.92493 0.0
C2140 C 0.57584 0.76654 0.88533 0.0
C2141 C 0.57168 0.79141 0.89083 0.0
H2142 H 0.58458 0.78626 0.72298 0.0
H2143 H 0.57467 0.75504 0.91031 0.0
C2144 C 0.57511 0.71186 0.58289 0.0
N2145 N 0.56102 0.68731 0.4734 0.0
C2146 C 0.58384 0.71453 0.51654 0.0
C2147 C 0.55942 0.69652 0.59413 0.0
C2148 C 0.57645 0.70202 0.46169 0.0
C2149 C 0.55245 0.68432 0.53795 0.0
C2150 C 0.60597 0.77775 0.63434 0.0
C2151 C 0.60702 0.78152 0.55985 0.0
C2152 C 0.61844 0.78975 0.68199 0.0
C2153 C 0.6207 0.79717 0.53412 0.0
C2154 C 0.63194 0.80525 0.65414 0.0
N2155 N 0.63279 0.8086 0.5814 0.0
C2156 C 0.55973 0.75778 0.57539 0.0
C2157 C 0.56337 0.74073 0.48546 0.0
C2158 C 0.55903 0.76854 0.52247 0.0
N2159 N 0.5625 0.74462 0.55648 0.0
C2160 C 0.56268 0.75124 0.43018 0.0
C2161 C 0.56138 0.7659 0.44888 0.0
H2162 H 0.56016 0.76124 0.63212 0.0
H2163 H 0.56613 0.7306 0.47169 0.0
C2164 C 0.63638 0.75502 0.69406 0.0
N2165 N 0.62367 0.75336 0.64816 0.0
C2166 C 0.65337 0.7619 0.66854 0.0
C2167 C 0.64369 0.76489 0.54904 0.0
C2168 C 0.62691 0.75772 0.57656 0.0
C2169 C 0.65731 0.76732 0.59534 0.0
H2170 H 0.63339 0.75128 0.75066 0.0
H2171 H 0.61651 0.75612 0.54122 0.0
O2172 O 0.55977 0.73437 0.73181 0.0
O2173 O 0.5953 0.74121 0.7866 0.0
O2174 O 0.58233 0.72382 0.63766 0.0
O2175 O 0.59272 0.76244 0.66051 0.0
H2176 H 0.54553 0.75262 0.77774 0.0
H2177 H 0.53655 0.7079 0.65337 0.0
H2178 H 0.51555 0.7458 0.74969 0.0
H2179 H 0.50671 0.70182 0.62764 0.0
H2180 H 0.63329 0.78059 0.94826 0.0
H2181 H 0.5802 0.72424 0.90809 0.0
H2182 H 0.62353 0.77062 0.82168 0.0
H2183 H 0.59084 0.73489 0.0331 0.0
H2184 H 0.53008 0.68201 0.9128 0.0
H2185 H 0.56962 0.66978 0.85041 0.0
H2186 H 0.57722 0.80573 0.78922 0.0
H2187 H 0.56774 0.77407 0.98166 0.0
H2188 H 0.59613 0.72619 0.50728 0.0
H2189 H 0.55278 0.69396 0.64593 0.0
H2190 H 0.58298 0.70399 0.40986 0.0
H2191 H 0.54028 0.67242 0.54582 0.0
H2192 H 0.59749 0.77239 0.52214 0.0
H2193 H 0.61764 0.78717 0.73988 0.0
H2194 H 0.62172 0.80021 0.47656 0.0
H2195 H 0.64171 0.81463 0.6904 0.0
H2196 H 0.55842 0.77982 0.54016 0.0
H2197 H 0.56432 0.74859 0.374 0.0
H2198 H 0.66331 0.76314 0.70608 0.0
H2199 H 0.64599 0.76907 0.49268 0.0
Li2200 Li 0.27696 0.85061 0.73926 0.0
Li2201 Li 0.24562 0.82876 0.75553 0.0
Li2202 Li 0.25956 0.8326 0.63721 0.0
Li2203 Li 0.25349 0.85465 0.68079 0.0
C2204 C 0.26883 0.81237 0.71707 0.0
N2205 N 0.27602 0.7862 0.68724 0.0
C2206 C 0.25812 0.79568 0.74451 0.0
C2207 C 0.28327 0.81577 0.67496 0.0
C2208 C 0.26195 0.78262 0.72869 0.0
C2209 C 0.28666 0.80236 0.66032 0.0
C2210 C 0.25274 0.85405 0.85591 0.0
C2211 C 0.2313 0.85327 0.93861 0.0
N2212 N 0.24137 0.85414 0.99608 0.0
C2213 C 0.26297 0.85514 0.91576 0.0
C2214 C 0.23687 0.8533 0.86732 0.0
C2215 C 0.25696 0.85511 0.98621 0.0
C2216 C 0.30788 0.87848 0.79847 0.0
N2217 N 0.29794 0.86097 0.79258 0.0
C2218 C 0.31535 0.85686 0.88038 0.0
C2219 C 0.30145 0.85016 0.83184 0.0
C2220 C 0.32576 0.87489 0.88877 0.0
C2221 C 0.32199 0.88577 0.8464 0.0
H2222 H 0.30457 0.88674 0.76736 0.0
H2223 H 0.29305 0.83629 0.82743 0.0
C2224 C 0.21548 0.79721 0.78018 0.0
N2225 N 0.22932 0.81045 0.81445 0.0
C2226 C 0.20461 0.7819 0.81759 0.0
C2227 C 0.22246 0.79417 0.92478 0.0
C2228 C 0.23303 0.80918 0.88521 0.0
C2229 C 0.20816 0.78016 0.89068 0.0
H2230 H 0.21329 0.79823 0.72288 0.0
H2231 H 0.24454 0.81951 0.91018 0.0
C2232 C 0.28772 0.86316 0.5828 0.0
N2233 N 0.31227 0.87362 0.47329 0.0
C2234 C 0.28504 0.86921 0.51646 0.0
C2235 C 0.30306 0.86281 0.59403 0.0
C2236 C 0.29755 0.87433 0.4616 0.0
C2237 C 0.31526 0.86804 0.53784 0.0
C2238 C 0.22183 0.82813 0.63426 0.0
C2239 C 0.21805 0.8254 0.55977 0.0
C2240 C 0.20983 0.8286 0.68191 0.0
C2241 C 0.20241 0.82344 0.53405 0.0
C2242 C 0.19433 0.8266 0.65407 0.0
N2243 N 0.19098 0.8241 0.58132 0.0
C2244 C 0.24179 0.80186 0.57528 0.0
C2245 C 0.25885 0.82253 0.48537 0.0
C2246 C 0.23103 0.7904 0.52235 0.0
N2247 N 0.25495 0.81778 0.55639 0.0
C2248 C 0.24836 0.81134 0.43008 0.0
C2249 C 0.23369 0.79539 0.44876 0.0
H2250 H 0.23831 0.79883 0.63201 0.0
H2251 H 0.269 0.83544 0.47161 0.0
C2252 C 0.24457 0.88127 0.69402 0.0
N2253 N 0.24622 0.87022 0.64811 0.0
C2254 C 0.2377 0.89138 0.66852 0.0
C2255 C 0.23469 0.87871 0.54901 0.0
C2256 C 0.24187 0.8691 0.57651 0.0
C2257 C 0.23227 0.8899 0.59532 0.0
H2258 H 0.24831 0.88202 0.75062 0.0
H2259 H 0.24345 0.86029 0.54117 0.0
O2260 O 0.2652 0.8253 0.73171 0.0
O2261 O 0.25836 0.85398 0.78653 0.0
O2262 O 0.27576 0.85841 0.63759 0.0
O2263 O 0.23714 0.83018 0.66042 0.0
H2264 H 0.24693 0.79281 0.77751 0.0
H2265 H 0.29169 0.82856 0.65332 0.0
H2266 H 0.25374 0.76963 0.74938 0.0
H2267 H 0.29775 0.8048 0.6275 0.0
H2268 H 0.21899 0.85259 0.94825 0.0
H2269 H 0.27534 0.85584 0.90801 0.0
H2270 H 0.22896 0.85281 0.82166 0.0
H2271 H 0.26468 0.85582 0.03303 0.0
H2272 H 0.31758 0.84797 0.91263 0.0
H2273 H 0.32979 0.89974 0.85042 0.0
H2274 H 0.19382 0.77139 0.78909 0.0
H2275 H 0.22551 0.79355 0.9815 0.0
H2276 H 0.27338 0.86983 0.50722 0.0
H2277 H 0.30562 0.85873 0.64583 0.0
H2278 H 0.29558 0.87889 0.40977 0.0
H2279 H 0.32716 0.86776 0.54569 0.0
H2280 H 0.22718 0.82499 0.52206 0.0
H2281 H 0.21241 0.83038 0.7398 0.0
H2282 H 0.19936 0.82142 0.47648 0.0
H2283 H 0.18495 0.827 0.69032 0.0
H2284 H 0.21974 0.77852 0.54004 0.0
H2285 H 0.25102 0.81563 0.37389 0.0
H2286 H 0.23646 0.90008 0.70607 0.0
H2287 H 0.23051 0.87683 0.49266 0.0
Li2288 Li 0.14898 0.42627 0.73937 0.0
Li2289 Li 0.17083 0.41679 0.75564 0.0
Li2290 Li 0.16699 0.42689 0.63732 0.0
Li2291 Li 0.14494 0.39876 0.68091 0.0
C2292 C 0.18722 0.45639 0.71717 0.0
N2293 N 0.2134 0.48975 0.68735 0.0
C2294 C 0.20391 0.46237 0.74464 0.0
C2295 C 0.18383 0.46743 0.67505 0.0
C2296 C 0.21698 0.47926 0.72882 0.0
C2297 C 0.19724 0.48423 0.66042 0.0
C2298 C 0.14553 0.39862 0.85603 0.0
C2299 C 0.14633 0.37797 0.93874 0.0
N2300 N 0.14544 0.38716 0.99621 0.0
C2301 C 0.14445 0.40776 0.91587 0.0
C2302 C 0.14629 0.3835 0.86745 0.0
C2303 C 0.14448 0.40179 0.98633 0.0
C2304 C 0.12111 0.42933 0.79854 0.0
N2305 N 0.13861 0.43689 0.79267 0.0
C2306 C 0.14273 0.45842 0.88047 0.0
C2307 C 0.14943 0.45122 0.83195 0.0
C2308 C 0.12469 0.4508 0.88882 0.0
C2309 C 0.11382 0.43615 0.84645 0.0
H2310 H 0.11285 0.41776 0.76741 0.0
H2311 H 0.1633 0.45668 0.82755 0.0
C2312 C 0.20238 0.41821 0.7803 0.0
N2313 N 0.18914 0.4188 0.81457 0.0
C2314 C 0.21769 0.42264 0.8177 0.0
C2315 C 0.20542 0.42822 0.92491 0.0
C2316 C 0.19041 0.42378 0.88533 0.0
C2317 C 0.21942 0.42792 0.8908 0.0
H2318 H 0.20136 0.415 0.723 0.0
H2319 H 0.18008 0.42496 0.91031 0.0
C2320 C 0.13643 0.42448 0.58292 0.0
N2321 N 0.12597 0.43857 0.47342 0.0
C2322 C 0.13038 0.41575 0.51658 0.0
C2323 C 0.13678 0.44017 0.59415 0.0
C2324 C 0.12526 0.42314 0.46173 0.0
C2325 C 0.13155 0.44714 0.53796 0.0
C2326 C 0.17146 0.39363 0.63438 0.0
C2327 C 0.17418 0.39258 0.55988 0.0
C2328 C 0.17099 0.38116 0.68202 0.0
C2329 C 0.17614 0.37889 0.53415 0.0
C2330 C 0.17298 0.36766 0.65416 0.0
N2331 N 0.17548 0.3668 0.58141 0.0
C2332 C 0.19773 0.43985 0.57538 0.0
C2333 C 0.17705 0.43624 0.48548 0.0
C2334 C 0.20919 0.44055 0.52245 0.0
N2335 N 0.18181 0.43709 0.55649 0.0
C2336 C 0.18824 0.43693 0.43019 0.0
C2337 C 0.2042 0.43822 0.44886 0.0
H2338 H 0.20076 0.43941 0.63211 0.0
H2339 H 0.16415 0.43348 0.47172 0.0
C2340 C 0.11832 0.36322 0.69416 0.0
N2341 N 0.12937 0.37593 0.64824 0.0
C2342 C 0.10821 0.34623 0.66866 0.0
C2343 C 0.12087 0.3559 0.54914 0.0
C2344 C 0.13048 0.37268 0.57664 0.0
C2345 C 0.10969 0.34229 0.59546 0.0
H2346 H 0.11757 0.36621 0.75077 0.0
H2347 H 0.13929 0.38309 0.54129 0.0
O2348 O 0.17429 0.43983 0.73182 0.0
O2349 O 0.1456 0.40431 0.78665 0.0
O2350 O 0.14118 0.41727 0.6377 0.0
O2351 O 0.16941 0.40688 0.66054 0.0
H2352 H 0.20678 0.45406 0.77764 0.0
H2353 H 0.17103 0.46305 0.6534 0.0
H2354 H 0.22996 0.48403 0.74952 0.0
H2355 H 0.1948 0.49288 0.62759 0.0
H2356 H 0.14701 0.36634 0.94838 0.0
H2357 H 0.14374 0.41942 0.90812 0.0
H2358 H 0.14678 0.37608 0.82179 0.0
H2359 H 0.14376 0.4088 0.03315 0.0
H2360 H 0.15162 0.46953 0.91273 0.0
H2361 H 0.09984 0.42998 0.85044 0.0
H2362 H 0.2282 0.42236 0.78921 0.0
H2363 H 0.20604 0.43189 0.98162 0.0
H2364 H 0.12974 0.40346 0.50734 0.0
H2365 H 0.14086 0.44681 0.64595 0.0
H2366 H 0.12069 0.4166 0.4099 0.0
H2367 H 0.13183 0.45931 0.54582 0.0
H2368 H 0.17459 0.40211 0.52217 0.0
H2369 H 0.16921 0.38196 0.73991 0.0
H2370 H 0.17816 0.37787 0.47658 0.0
H2371 H 0.17259 0.35788 0.69041 0.0
H2372 H 0.22108 0.44116 0.54013 0.0
H2373 H 0.18396 0.4353 0.374 0.0
H2374 H 0.09951 0.3363 0.70622 0.0
H2375 H 0.12275 0.3536 0.49279 0.0
Li2376 Li 0.41267 0.93425 0.1496 0.0
Li2377 Li 0.4066 0.90612 0.19316 0.0
Li2378 Li 0.42054 0.91623 0.07483 0.0
Li2379 Li 0.38919 0.90673 0.09114 0.0
C2380 C 0.44433 0.93939 0.19605 0.0
N2381 N 0.47519 0.96621 0.24892 0.0
C2382 C 0.44812 0.94044 0.27054 0.0
C2383 C 0.45633 0.95186 0.14838 0.0
C2384 C 0.46377 0.95413 0.29622 0.0
C2385 C 0.47183 0.96536 0.17619 0.0
C2386 C 0.37844 0.90852 0.24759 0.0
C2387 C 0.3509 0.88585 0.29254 0.0
N2388 N 0.35388 0.89441 0.35708 0.0
C2389 C 0.38111 0.91724 0.31394 0.0
C2390 C 0.3631 0.89282 0.23635 0.0
C2391 C 0.36859 0.90984 0.36879 0.0
C2392 C 0.42158 0.96979 0.13643 0.0
N2393 N 0.41993 0.95707 0.18231 0.0
C2394 C 0.43146 0.97709 0.28145 0.0
C2395 C 0.42429 0.96031 0.25391 0.0
C2396 C 0.43389 0.99071 0.23516 0.0
C2397 C 0.42846 0.98677 0.16196 0.0
H2398 H 0.41785 0.9668 0.07982 0.0
H2399 H 0.4227 0.94991 0.28924 0.0
C2400 C 0.42438 0.89316 0.25505 0.0
N2401 N 0.41122 0.89592 0.27396 0.0
C2402 C 0.43514 0.89246 0.30795 0.0
C2403 C 0.41783 0.8961 0.40026 0.0
C2404 C 0.40733 0.89678 0.34499 0.0
C2405 C 0.4325 0.89481 0.38154 0.0
H2406 H 0.42784 0.89359 0.1983 0.0
H2407 H 0.39719 0.89954 0.35877 0.0
C2408 C 0.4134 0.9344 0.97448 0.0
N2409 N 0.42476 0.94588 0.83431 0.0
C2410 C 0.40317 0.92526 0.91464 0.0
C2411 C 0.42927 0.94953 0.96307 0.0
C2412 C 0.40917 0.93125 0.84419 0.0
C2413 C 0.43483 0.95507 0.89178 0.0
C2414 C 0.39733 0.87663 0.11326 0.0
C2415 C 0.40803 0.87065 0.08572 0.0
C2416 C 0.38291 0.86559 0.15544 0.0
C2417 C 0.40421 0.85375 0.10151 0.0
C2418 C 0.37951 0.84878 0.17004 0.0
N2419 N 0.39015 0.84326 0.14303 0.0
C2420 C 0.45066 0.9148 0.05015 0.0
C2421 C 0.43313 0.90926 0.94509 0.0
C2422 C 0.46154 0.91037 0.01272 0.0
N2423 N 0.43683 0.91422 0.01588 0.0
C2424 C 0.4437 0.90482 0.9055 0.0
C2425 C 0.45799 0.9051 0.93961 0.0
H2426 H 0.45284 0.91799 0.10746 0.0
H2427 H 0.42163 0.9081 0.92011 0.0
C2428 C 0.35827 0.90368 0.03195 0.0
N2429 N 0.36821 0.89611 0.03783 0.0
C2430 C 0.34416 0.89686 0.98403 0.0
C2431 C 0.3508 0.87458 0.95003 0.0
C2432 C 0.3647 0.88179 0.99856 0.0
C2433 C 0.34039 0.88221 0.94166 0.0
H2434 H 0.36158 0.91525 0.06308 0.0
H2435 H 0.3731 0.87632 0.00297 0.0
O2436 O 0.42902 0.92613 0.16993 0.0
O2437 O 0.3904 0.91573 0.19282 0.0
O2438 O 0.40778 0.9287 0.04386 0.0
O2439 O 0.40095 0.89318 0.09865 0.0
H2440 H 0.439 0.93091 0.30827 0.0
H2441 H 0.45374 0.95105 0.0905 0.0
H2442 H 0.46682 0.95516 0.35378 0.0
H2443 H 0.48121 0.97513 0.13991 0.0
H2444 H 0.339 0.87367 0.28467 0.0
H2445 H 0.39277 0.92953 0.3232 0.0
H2446 H 0.36054 0.88618 0.18455 0.0
H2447 H 0.37056 0.91637 0.42063 0.0
H2448 H 0.43564 0.97939 0.3378 0.0
H2449 H 0.4297 0.99671 0.12443 0.0
H2450 H 0.44642 0.89186 0.29025 0.0
H2451 H 0.41519 0.89774 0.45645 0.0
H2452 H 0.3908 0.9136 0.92239 0.0
H2453 H 0.43718 0.95695 0.00874 0.0
H2454 H 0.40144 0.92424 0.79737 0.0
H2455 H 0.44714 0.96671 0.88214 0.0
H2456 H 0.41921 0.87896 0.05267 0.0
H2457 H 0.37449 0.86996 0.17716 0.0
H2458 H 0.41241 0.84898 0.08074 0.0
H2459 H 0.36843 0.84013 0.20291 0.0
H2460 H 0.47232 0.91064 0.04122 0.0
H2461 H 0.44066 0.90117 0.84877 0.0
H2462 H 0.33636 0.90303 0.98002 0.0
H2463 H 0.34857 0.86347 0.91777 0.0
Li2464 Li 0.06534 0.47836 0.14959 0.0
Li2465 Li 0.09347 0.50041 0.19318 0.0
Li2466 Li 0.08337 0.50425 0.07485 0.0
Li2467 Li 0.09285 0.4824 0.09114 0.0
C2468 C 0.06021 0.50488 0.19608 0.0
N2469 N 0.03338 0.50891 0.24899 0.0
C2470 C 0.05915 0.50761 0.27057 0.0
C2471 C 0.04774 0.50441 0.14842 0.0
C2472 C 0.04547 0.50957 0.29628 0.0
C2473 C 0.03424 0.50641 0.17624 0.0
C2474 C 0.09106 0.46985 0.24759 0.0
C2475 C 0.11372 0.46497 0.29255 0.0
N2476 N 0.10515 0.45939 0.35709 0.0
C2477 C 0.08233 0.4638 0.31393 0.0
C2478 C 0.10675 0.4702 0.23636 0.0
C2479 C 0.08972 0.45868 0.36879 0.0
C2480 C 0.0298 0.45174 0.13637 0.0
N2481 N 0.04251 0.46279 0.18228 0.0
C2482 C 0.02248 0.4543 0.28139 0.0
C2483 C 0.03926 0.46391 0.25387 0.0
C2484 C 0.00887 0.44311 0.23508 0.0
C2485 C 0.01281 0.44163 0.16189 0.0
H2486 H 0.03279 0.45099 0.07977 0.0
H2487 H 0.04967 0.47272 0.28922 0.0
C2488 C 0.10643 0.53115 0.2551 0.0
N2489 N 0.10367 0.51523 0.274 0.0
C2490 C 0.10713 0.54261 0.30803 0.0
C2491 C 0.1035 0.52166 0.4003 0.0
C2492 C 0.10282 0.51047 0.34502 0.0
C2493 C 0.1048 0.53762 0.38162 0.0
H2494 H 0.106 0.53418 0.19837 0.0
H2495 H 0.10005 0.49757 0.35878 0.0
C2496 C 0.0652 0.47895 0.97447 0.0
N2497 N 0.05373 0.47884 0.83429 0.0
C2498 C 0.07434 0.47786 0.91464 0.0
C2499 C 0.05008 0.4797 0.96305 0.0
C2500 C 0.06837 0.47789 0.84418 0.0
C2501 C 0.04454 0.47973 0.89175 0.0
C2502 C 0.12297 0.52064 0.11332 0.0
C2503 C 0.12896 0.53733 0.08584 0.0
C2504 C 0.13401 0.51725 0.15547 0.0
C2505 C 0.14585 0.55039 0.10166 0.0
C2506 C 0.15081 0.53066 0.17011 0.0
N2507 N 0.15634 0.54682 0.14316 0.0
C2508 C 0.0848 0.5358 0.05019 0.0
C2509 C 0.09036 0.52382 0.94515 0.0
C2510 C 0.08923 0.55111 0.01278 0.0
N2511 N 0.08538 0.52255 0.01592 0.0
C2512 C 0.0948 0.53883 0.90557 0.0
C2513 C 0.09451 0.55284 0.93968 0.0
H2514 H 0.0816 0.53478 0.1075 0.0
H2515 H 0.09153 0.51349 0.92017 0.0
C2516 C 0.0959 0.45453 0.03196 0.0
N2517 N 0.10347 0.47203 0.03784 0.0
C2518 C 0.10272 0.44724 0.98405 0.0
C2519 C 0.12501 0.47615 0.95007 0.0
C2520 C 0.1178 0.48285 0.99859 0.0
C2521 C 0.11738 0.45811 0.94169 0.0
H2522 H 0.08433 0.44627 0.06307 0.0
H2523 H 0.12328 0.49672 0.003 0.0
O2524 O 0.07346 0.50282 0.16995 0.0
O2525 O 0.08385 0.4746 0.19281 0.0
O2526 O 0.07089 0.47902 0.04385 0.0
O2527 O 0.10642 0.50771 0.09868 0.0
H2528 H 0.06868 0.50802 0.30829 0.0
H2529 H 0.04854 0.50263 0.09054 0.0
H2530 H 0.04444 0.51159 0.35384 0.0
H2531 H 0.02446 0.50601 0.13997 0.0
H2532 H 0.1259 0.46526 0.2847 0.0
H2533 H 0.07004 0.46317 0.32317 0.0
H2534 H 0.11339 0.47429 0.18457 0.0
H2535 H 0.08318 0.45411 0.42062 0.0
H2536 H 0.02018 0.45618 0.33774 0.0
H2537 H 0.00287 0.43293 0.12435 0.0
H2538 H 0.10774 0.55449 0.29035 0.0
H2539 H 0.10187 0.51738 0.45649 0.0
H2540 H 0.08601 0.47716 0.92239 0.0
H2541 H 0.04265 0.48019 0.00871 0.0
H2542 H 0.07538 0.47717 0.79736 0.0
H2543 H 0.03291 0.4804 0.8821 0.0
H2544 H 0.12065 0.5402 0.05281 0.0
H2545 H 0.12963 0.50446 0.17715 0.0
H2546 H 0.15062 0.56337 0.08094 0.0
H2547 H 0.15946 0.52823 0.20296 0.0
H2548 H 0.08896 0.56162 0.04128 0.0
H2549 H 0.09846 0.53945 0.84884 0.0
H2550 H 0.09655 0.43326 0.98004 0.0
H2551 H 0.13613 0.48503 0.91783 0.0
Li2552 Li 0.4992 0.59298 0.19325 0.0
Li2553 Li 0.52125 0.58692 0.14965 0.0
Li2554 Li 0.51722 0.61039 0.09121 0.0
Li2555 Li 0.49536 0.57905 0.07492 0.0
C2556 C 0.52977 0.62115 0.24765 0.0
N2557 N 0.54022 0.6457 0.35714 0.0
C2558 C 0.53582 0.61847 0.31399 0.0
C2559 C 0.52941 0.63648 0.23641 0.0
C2560 C 0.54094 0.63099 0.36884 0.0
C2561 C 0.53464 0.64868 0.2926 0.0
C2562 C 0.49473 0.55526 0.19617 0.0
C2563 C 0.49321 0.52777 0.17635 0.0
N2564 N 0.49071 0.52441 0.24909 0.0
C2565 C 0.49201 0.55148 0.27066 0.0
C2566 C 0.4952 0.54326 0.14851 0.0
C2567 C 0.49005 0.53584 0.29638 0.0
C2568 C 0.46846 0.57521 0.25519 0.0
N2569 N 0.48439 0.58837 0.27408 0.0
C2570 C 0.47795 0.58177 0.40039 0.0
C2571 C 0.48914 0.59227 0.3451 0.0
C2572 C 0.46199 0.5671 0.3817 0.0
C2573 C 0.457 0.56445 0.30811 0.0
H2574 H 0.46543 0.57175 0.19845 0.0
H2575 H 0.50204 0.60241 0.35886 0.0
C2576 C 0.54787 0.57799 0.1364 0.0
N2577 N 0.53682 0.57965 0.18232 0.0
C2578 C 0.55797 0.57111 0.16191 0.0
C2579 C 0.54531 0.56812 0.28143 0.0
C2580 C 0.53571 0.5753 0.25393 0.0
C2581 C 0.55649 0.56569 0.23511 0.0
H2582 H 0.54861 0.58172 0.0798 0.0
H2583 H 0.5269 0.57689 0.28928 0.0
C2584 C 0.47897 0.60226 0.11341 0.0
N2585 N 0.45279 0.60943 0.14326 0.0
C2586 C 0.46228 0.59155 0.08592 0.0
C2587 C 0.48236 0.61668 0.15558 0.0
C2588 C 0.44922 0.59538 0.10175 0.0
C2589 C 0.46895 0.62007 0.17022 0.0
C2590 C 0.52066 0.58618 0.97453 0.0
C2591 C 0.52175 0.59641 0.9147 0.0
C2592 C 0.5199 0.57031 0.9631 0.0
C2593 C 0.52172 0.59041 0.84424 0.0
C2594 C 0.51987 0.56474 0.8918 0.0
N2595 N 0.52075 0.57482 0.83434 0.0
C2596 C 0.54509 0.6413 0.03198 0.0
C2597 C 0.51676 0.63488 0.99868 0.0
C2598 C 0.55238 0.65541 0.98406 0.0
N2599 N 0.52758 0.63137 0.03791 0.0
C2600 C 0.52346 0.64879 0.95015 0.0
C2601 C 0.5415 0.65919 0.94173 0.0
H2602 H 0.55335 0.63799 0.06307 0.0
H2603 H 0.50289 0.62649 0.00312 0.0
C2604 C 0.46381 0.54892 0.05026 0.0
N2605 N 0.47706 0.56276 0.01599 0.0
C2606 C 0.4485 0.53805 0.01286 0.0
C2607 C 0.46077 0.55589 0.90565 0.0
C2608 C 0.47578 0.56646 0.94523 0.0
C2609 C 0.44677 0.54159 0.93976 0.0
H2610 H 0.46483 0.54673 0.10757 0.0
H2611 H 0.48612 0.57797 0.92025 0.0
O2612 O 0.52501 0.60918 0.19288 0.0
O2613 O 0.49679 0.57057 0.17002 0.0
O2614 O 0.4919 0.59863 0.09876 0.0
O2615 O 0.52059 0.5918 0.04392 0.0
H2616 H 0.53645 0.60682 0.32325 0.0
H2617 H 0.52533 0.63904 0.18462 0.0
H2618 H 0.5455 0.62902 0.42068 0.0
H2619 H 0.53436 0.66058 0.28474 0.0
H2620 H 0.4936 0.51839 0.14008 0.0
H2621 H 0.4916 0.56061 0.30838 0.0
H2622 H 0.49698 0.54584 0.09062 0.0
H2623 H 0.48803 0.53279 0.35394 0.0
H2624 H 0.48224 0.58442 0.45658 0.0
H2625 H 0.44511 0.55317 0.29043 0.0
H2626 H 0.56667 0.56986 0.12435 0.0
H2627 H 0.54343 0.56394 0.33779 0.0
H2628 H 0.45941 0.58037 0.05288 0.0
H2629 H 0.49515 0.6251 0.17726 0.0
H2630 H 0.43623 0.58717 0.08103 0.0
H2631 H 0.47138 0.63115 0.20308 0.0
H2632 H 0.52246 0.60878 0.92247 0.0
H2633 H 0.51941 0.56239 0.00875 0.0
H2634 H 0.52243 0.59814 0.79743 0.0
H2635 H 0.51919 0.55244 0.88214 0.0
H2636 H 0.56635 0.66321 0.98001 0.0
H2637 H 0.51457 0.65102 0.91793 0.0
H2638 H 0.43799 0.52726 0.04136 0.0
H2639 H 0.46016 0.55894 0.84894 0.0
Li2640 Li 0.09194 0.61113 0.5967 0.0
Li2641 Li 0.06548 0.58781 0.64523 0.0
Li2642 Li 0.09314 0.59541 0.70369 0.0
Li2643 Li 0.08595 0.58112 0.58151 0.0
C2644 C 0.08887 0.62526 0.73088 0.0
N2645 N 0.10309 0.65677 0.80211 0.0
C2646 C 0.0794 0.63382 0.73781 0.0
C2647 C 0.10545 0.63258 0.76116 0.0
C2648 C 0.08685 0.64979 0.77375 0.0
C2649 C 0.11245 0.64856 0.79666 0.0
C2650 C 0.06315 0.59761 0.50376 0.0
C2651 C 0.04675 0.59726 0.39848 0.0
N2652 N 0.04459 0.60996 0.42916 0.0
C2653 C 0.06079 0.61067 0.53423 0.0
C2654 C 0.05611 0.59086 0.4353 0.0
C2655 C 0.05137 0.61674 0.49565 0.0
C2656 C 0.10591 0.62922 0.47109 0.0
N2657 N 0.10232 0.63189 0.54038 0.0
C2658 C 0.11237 0.6617 0.51404 0.0
C2659 C 0.10543 0.64774 0.56276 0.0
C2660 C 0.116 0.65923 0.44173 0.0
C2661 C 0.11272 0.64273 0.4206 0.0
H2662 H 0.10328 0.61645 0.45493 0.0
H2663 H 0.10243 0.64959 0.61787 0.0
C2664 C 0.03952 0.57461 0.74673 0.0
N2665 N 0.04201 0.57883 0.67481 0.0
C2666 C 0.02296 0.56686 0.77699 0.0
C2667 C 0.01179 0.56863 0.65918 0.0
C2668 C 0.02857 0.576 0.63075 0.0
C2669 C 0.00872 0.56371 0.73322 0.0
H2670 H 0.05045 0.57687 0.78028 0.0
H2671 H 0.03075 0.57924 0.57352 0.0
C2672 C 0.12509 0.61054 0.61869 0.0
N2673 N 0.16089 0.62839 0.62517 0.0
C2674 C 0.1343 0.60182 0.60767 0.0
C2675 C 0.1341 0.62837 0.63217 0.0
C2676 C 0.15239 0.61106 0.61145 0.0
C2677 C 0.15219 0.63715 0.63546 0.0
C2678 C 0.06107 0.55558 0.68254 0.0
C2679 C 0.06016 0.54603 0.74452 0.0
C2680 C 0.04815 0.54812 0.62923 0.0
C2681 C 0.04633 0.52912 0.75218 0.0
C2682 C 0.0345 0.53118 0.639 0.0
N2683 N 0.03388 0.52211 0.69974 0.0
C2684 C 0.08981 0.58816 0.84927 0.0
C2685 C 0.11279 0.58649 0.79164 0.0
C2686 C 0.0885 0.57642 0.90278 0.0
N2687 N 0.10118 0.59214 0.7933 0.0
C2688 C 0.112 0.57482 0.84418 0.0
C2689 C 0.09892 0.56874 0.89753 0.0
H2690 H 0.08024 0.59223 0.84705 0.0
H2691 H 0.12117 0.58928 0.74508 0.0
C2692 C 0.10367 0.57514 0.4727 0.0
N2693 N 0.0909 0.56667 0.52265 0.0
C2694 C 0.10919 0.56602 0.42897 0.0
C2695 C 0.08825 0.53955 0.48877 0.0
C2696 C 0.0834 0.54926 0.53245 0.0
C2697 C 0.1012 0.5479 0.43554 0.0
H2698 H 0.10968 0.58907 0.46734 0.0
H2699 H 0.07362 0.54281 0.57376 0.0
O2700 O 0.08163 0.60953 0.69663 0.0
O2701 O 0.07256 0.59163 0.53983 0.0
O2702 O 0.10738 0.6017 0.61402 0.0
O2703 O 0.07432 0.57229 0.67487 0.0
H2704 H 0.06644 0.62821 0.71544 0.0
H2705 H 0.11282 0.62597 0.75763 0.0
H2706 H 0.07971 0.65661 0.77917 0.0
H2707 H 0.12531 0.65441 0.82011 0.0
H2708 H 0.04121 0.59215 0.34547 0.0
H2709 H 0.06616 0.61607 0.58704 0.0
H2710 H 0.0579 0.58079 0.41089 0.0
H2711 H 0.04944 0.62684 0.51859 0.0
H2712 H 0.11459 0.67421 0.53238 0.0
H2713 H 0.11554 0.64031 0.36579 0.0
H2714 H 0.02138 0.56299 0.8337 0.0
H2715 H 0.00136 0.56678 0.62322 0.0
H2716 H 0.12754 0.58802 0.597 0.0
H2717 H 0.12725 0.63542 0.63952 0.0
H2718 H 0.15967 0.60446 0.60344 0.0
H2719 H 0.15932 0.65095 0.64597 0.0
H2720 H 0.07007 0.5516 0.78614 0.0
H2721 H 0.04866 0.55536 0.58095 0.0
H2722 H 0.04548 0.52156 0.79983 0.0
H2723 H 0.02439 0.52526 0.59831 0.0
H2724 H 0.07818 0.57202 0.94263 0.0
H2725 H 0.12053 0.56948 0.83921 0.0
H2726 H 0.11942 0.57309 0.38967 0.0
H2727 H 0.0815 0.5256 0.49521 0.0
Li2728 Li 0.41848 0.50475 0.58159 0.0
Li2729 Li 0.40419 0.49765 0.70377 0.0
Li2730 Li 0.41178 0.47759 0.64528 0.0
Li2731 Li 0.38847 0.48073 0.59677 0.0
C2732 C 0.44402 0.50541 0.68259 0.0
N2733 N 0.47749 0.5117 0.69975 0.0
C2734 C 0.45357 0.51406 0.74456 0.0
C2735 C 0.45148 0.49996 0.62927 0.0
C2736 C 0.47049 0.51714 0.75219 0.0
C2737 C 0.46841 0.50324 0.63903 0.0
C2738 C 0.38906 0.51447 0.61878 0.0
C2739 C 0.36245 0.51496 0.63555 0.0
N2740 N 0.37122 0.53243 0.62528 0.0
C2741 C 0.39778 0.5324 0.60778 0.0
C2742 C 0.37123 0.50565 0.63226 0.0
C2743 C 0.38855 0.54126 0.61155 0.0
C2744 C 0.42446 0.52845 0.47279 0.0
N2745 N 0.43293 0.52415 0.52273 0.0
C2746 C 0.46006 0.54863 0.48885 0.0
C2747 C 0.45035 0.53407 0.53253 0.0
C2748 C 0.4517 0.55323 0.43562 0.0
C2749 C 0.43358 0.54309 0.42906 0.0
H2750 H 0.41054 0.52054 0.46743 0.0
H2751 H 0.45679 0.53073 0.57383 0.0
C2752 C 0.41144 0.50157 0.84934 0.0
N2753 N 0.40746 0.50896 0.79338 0.0
C2754 C 0.42318 0.512 0.90285 0.0
C2755 C 0.42478 0.5371 0.84428 0.0
C2756 C 0.41311 0.52621 0.79175 0.0
C2757 C 0.43087 0.53011 0.89762 0.0
H2758 H 0.40737 0.48792 0.8471 0.0
H2759 H 0.41031 0.53181 0.7452 0.0
C2760 C 0.40198 0.46546 0.50381 0.0
N2761 N 0.38962 0.43455 0.42919 0.0
C2762 C 0.38891 0.45004 0.53428 0.0
C2763 C 0.40872 0.46518 0.43535 0.0
C2764 C 0.38284 0.43455 0.49569 0.0
C2765 C 0.40232 0.44941 0.39851 0.0
C2766 C 0.37433 0.46353 0.73096 0.0
C2767 C 0.36576 0.44549 0.73789 0.0
C2768 C 0.36702 0.4728 0.76123 0.0
C2769 C 0.3498 0.43698 0.77384 0.0
C2770 C 0.35103 0.46381 0.79674 0.0
N2771 N 0.34282 0.44624 0.8022 0.0
C2772 C 0.42499 0.46484 0.74676 0.0
C2773 C 0.42358 0.45248 0.63078 0.0
C2774 C 0.43273 0.45602 0.77701 0.0
N2775 N 0.42076 0.4631 0.67484 0.0
C2776 C 0.43094 0.44307 0.6592 0.0
C2777 C 0.43587 0.44492 0.73323 0.0
H2778 H 0.42273 0.4735 0.78032 0.0
H2779 H 0.42034 0.45143 0.57355 0.0
C2780 C 0.37037 0.47662 0.47119 0.0
N2781 N 0.3677 0.47035 0.54046 0.0
C2782 C 0.35686 0.46992 0.4207 0.0
C2783 C 0.33789 0.45059 0.51412 0.0
C2784 C 0.35185 0.4576 0.56283 0.0
C2785 C 0.34036 0.45669 0.44182 0.0
H2786 H 0.38314 0.48677 0.45503 0.0
H2787 H 0.35 0.45275 0.61793 0.0
O2788 O 0.42731 0.50195 0.67494 0.0
O2789 O 0.3979 0.5056 0.61411 0.0
O2790 O 0.40796 0.48086 0.53989 0.0
O2791 O 0.39006 0.47202 0.6967 0.0
H2792 H 0.44801 0.5184 0.78618 0.0
H2793 H 0.44423 0.49322 0.58101 0.0
H2794 H 0.47805 0.52386 0.79983 0.0
H2795 H 0.47434 0.49906 0.59833 0.0
H2796 H 0.34865 0.5083 0.64606 0.0
H2797 H 0.41158 0.53944 0.59711 0.0
H2798 H 0.36418 0.49176 0.6396 0.0
H2799 H 0.39516 0.55514 0.60356 0.0
H2800 H 0.47401 0.55583 0.49529 0.0
H2801 H 0.42651 0.54625 0.38976 0.0
H2802 H 0.42759 0.50608 0.94269 0.0
H2803 H 0.43012 0.55097 0.83933 0.0
H2804 H 0.38351 0.45001 0.58709 0.0
H2805 H 0.41879 0.47703 0.41093 0.0
H2806 H 0.37273 0.42252 0.51862 0.0
H2807 H 0.40743 0.44899 0.34549 0.0
H2808 H 0.37137 0.43815 0.71553 0.0
H2809 H 0.37363 0.48678 0.7577 0.0
H2810 H 0.34297 0.42302 0.77927 0.0
H2811 H 0.34518 0.47082 0.82018 0.0
H2812 H 0.4366 0.45831 0.83372 0.0
H2813 H 0.4328 0.43449 0.62323 0.0
H2814 H 0.35928 0.47517 0.36589 0.0
H2815 H 0.32538 0.44029 0.53244 0.0
Li2816 Li 0.52202 0.93412 0.64515 0.0
Li2817 Li 0.51887 0.90767 0.59665 0.0
Li2818 Li 0.49486 0.91367 0.5814 0.0
Li2819 Li 0.50194 0.90647 0.70362 0.0
C2820 C 0.53416 0.93646 0.50371 0.0
N2821 N 0.56509 0.95501 0.42916 0.0
C2822 C 0.54958 0.93882 0.53423 0.0
C2823 C 0.53446 0.94348 0.43523 0.0
C2824 C 0.56508 0.94824 0.49568 0.0
C2825 C 0.55023 0.95285 0.39844 0.0
C2826 C 0.53606 0.91074 0.73087 0.0
C2827 C 0.53576 0.88714 0.79665 0.0
N2828 N 0.55333 0.8965 0.80215 0.0
C2829 C 0.5541 0.9202 0.73785 0.0
C2830 C 0.52678 0.89415 0.76112 0.0
C2831 C 0.5626 0.91275 0.77381 0.0
C2832 C 0.53478 0.96007 0.74667 0.0
N2833 N 0.53651 0.9576 0.67473 0.0
C2834 C 0.55653 0.98782 0.65911 0.0
C2835 C 0.54712 0.97103 0.63067 0.0
C2836 C 0.55468 0.99088 0.73316 0.0
C2837 C 0.54359 0.97663 0.77694 0.0
H2838 H 0.52612 0.94915 0.78023 0.0
H2839 H 0.54816 0.96886 0.57342 0.0
C2840 C 0.52299 0.89369 0.47109 0.0
N2841 N 0.52926 0.89729 0.54036 0.0
C2842 C 0.52969 0.88687 0.42062 0.0
C2843 C 0.54902 0.88724 0.51405 0.0
C2844 C 0.54201 0.89419 0.56274 0.0
C2845 C 0.54292 0.8836 0.44176 0.0
H2846 H 0.51284 0.89631 0.45493 0.0
H2847 H 0.54687 0.89721 0.61784 0.0
C2848 C 0.49422 0.93856 0.68245 0.0
N2849 N 0.488 0.96578 0.69973 0.0
C2850 C 0.48561 0.93949 0.74452 0.0
C2851 C 0.49966 0.95146 0.6291 0.0
C2852 C 0.48257 0.95335 0.75222 0.0
C2853 C 0.49642 0.96514 0.63891 0.0
C2854 C 0.48513 0.87453 0.6186 0.0
C2855 C 0.4672 0.86532 0.60758 0.0
C2856 C 0.49395 0.86551 0.63209 0.0
C2857 C 0.45834 0.84723 0.61134 0.0
C2858 C 0.48463 0.84742 0.63537 0.0
N2859 N 0.46717 0.83873 0.62507 0.0
C2860 C 0.47116 0.89594 0.47258 0.0
C2861 C 0.46555 0.91621 0.53232 0.0
C2862 C 0.45652 0.89042 0.42886 0.0
N2863 N 0.47546 0.90871 0.52251 0.0
C2864 C 0.45099 0.91136 0.48865 0.0
C2865 C 0.44638 0.8984 0.43544 0.0
H2866 H 0.47907 0.88993 0.46722 0.0
H2867 H 0.46889 0.926 0.57362 0.0
C2868 C 0.49801 0.90979 0.84921 0.0
N2869 N 0.49062 0.89843 0.79321 0.0
C2870 C 0.48758 0.9111 0.90272 0.0
C2871 C 0.46248 0.88762 0.84407 0.0
C2872 C 0.47337 0.88684 0.79153 0.0
C2873 C 0.46947 0.90069 0.89745 0.0
H2874 H 0.51167 0.91936 0.847 0.0
H2875 H 0.46777 0.87846 0.74495 0.0
O2876 O 0.51876 0.92705 0.53975 0.0
O2877 O 0.52758 0.91798 0.69658 0.0
O2878 O 0.49764 0.92529 0.67474 0.0
O2879 O 0.49401 0.89223 0.61395 0.0
H2880 H 0.54961 0.93346 0.58706 0.0
H2881 H 0.52261 0.9417 0.41077 0.0
H2882 H 0.57711 0.95017 0.51866 0.0
H2883 H 0.55066 0.95838 0.3454 0.0
H2884 H 0.52875 0.87429 0.82007 0.0
H2885 H 0.56145 0.93316 0.7155 0.0
H2886 H 0.51281 0.88678 0.75755 0.0
H2887 H 0.57656 0.91988 0.77927 0.0
H2888 H 0.5651 0.99825 0.62314 0.0
H2889 H 0.54131 0.97821 0.83366 0.0
H2890 H 0.52445 0.88404 0.36582 0.0
H2891 H 0.55932 0.88504 0.53239 0.0
H2892 H 0.48128 0.9296 0.78617 0.0
H2893 H 0.50637 0.95093 0.58076 0.0
H2894 H 0.47589 0.95422 0.79993 0.0
H2895 H 0.50059 0.97524 0.59819 0.0
H2896 H 0.46017 0.87208 0.5969 0.0
H2897 H 0.50784 0.87236 0.63945 0.0
H2898 H 0.44445 0.83995 0.60332 0.0
H2899 H 0.49129 0.84029 0.64588 0.0
H2900 H 0.45336 0.88019 0.38957 0.0
H2901 H 0.44379 0.91811 0.4951 0.0
H2902 H 0.49351 0.92142 0.9426 0.0
H2903 H 0.44861 0.8791 0.83908 0.0
Li2904 Li 0.27771 0.42535 0.23381 0.0
Li2905 Li 0.25439 0.3989 0.18528 0.0
Li2906 Li 0.26199 0.42655 0.1268 0.0
Li2907 Li 0.2477 0.41936 0.24897 0.0
C2908 C 0.29184 0.42228 0.09963 0.0
N2909 N 0.32336 0.43651 0.0284 0.0
C2910 C 0.30041 0.41281 0.09269 0.0
C2911 C 0.29916 0.43887 0.06937 0.0
C2912 C 0.31638 0.42027 0.05676 0.0
C2913 C 0.31515 0.44587 0.03387 0.0
C2914 C 0.26418 0.39656 0.32676 0.0
C2915 C 0.26383 0.38017 0.43204 0.0
N2916 N 0.27654 0.37801 0.40138 0.0
C2917 C 0.27726 0.39421 0.2963 0.0
C2918 C 0.25744 0.38953 0.39521 0.0
C2919 C 0.28332 0.38479 0.33489 0.0
C2920 C 0.2958 0.43933 0.3594 0.0
N2921 N 0.29847 0.43573 0.29013 0.0
C2922 C 0.32828 0.44578 0.31647 0.0
C2923 C 0.31433 0.43884 0.26776 0.0
C2924 C 0.32581 0.44942 0.38877 0.0
C2925 C 0.30931 0.44614 0.4099 0.0
H2926 H 0.28303 0.4367 0.37555 0.0
H2927 H 0.31617 0.43583 0.21266 0.0
C2928 C 0.24118 0.37294 0.0838 0.0
N2929 N 0.2454 0.37542 0.15572 0.0
C2930 C 0.23343 0.35638 0.05355 0.0
C2931 C 0.23522 0.3452 0.17135 0.0
C2932 C 0.24259 0.36199 0.19977 0.0
C2933 C 0.23029 0.34214 0.09733 0.0
H2934 H 0.24343 0.38386 0.05025 0.0
H2935 H 0.24583 0.36417 0.257 0.0
C2936 C 0.27712 0.4585 0.2118 0.0
N2937 N 0.29496 0.49429 0.20532 0.0
C2938 C 0.2684 0.46771 0.22279 0.0
C2939 C 0.29496 0.46751 0.19834 0.0
C2940 C 0.27763 0.4858 0.21903 0.0
C2941 C 0.30373 0.4856 0.19506 0.0
C2942 C 0.22216 0.39449 0.14798 0.0
C2943 C 0.2126 0.3936 0.08603 0.0
C2944 C 0.21469 0.38157 0.20128 0.0
C2945 C 0.19568 0.37977 0.0784 0.0
C2946 C 0.19775 0.36793 0.19154 0.0
N2947 N 0.18868 0.36732 0.13083 0.0
C2948 C 0.25474 0.42322 0.98123 0.0
C2949 C 0.25308 0.4462 0.03881 0.0
C2950 C 0.243 0.42191 0.92772 0.0
N2951 N 0.25872 0.43459 0.03718 0.0
C2952 C 0.24141 0.44542 0.98628 0.0
C2953 C 0.23532 0.43234 0.93295 0.0
H2954 H 0.25881 0.41364 0.98347 0.0
H2955 H 0.25588 0.45459 0.08536 0.0
C2956 C 0.24172 0.43709 0.35777 0.0
N2957 N 0.23325 0.42432 0.30783 0.0
C2958 C 0.2326 0.4426 0.4015 0.0
C2959 C 0.20613 0.42167 0.34171 0.0
C2960 C 0.21583 0.41682 0.29802 0.0
C2961 C 0.21448 0.43462 0.39494 0.0
H2962 H 0.25565 0.4431 0.36313 0.0
H2963 H 0.20939 0.40704 0.25672 0.0
O2964 O 0.27611 0.41504 0.13388 0.0
O2965 O 0.25821 0.40598 0.29068 0.0
O2966 O 0.26829 0.44079 0.21646 0.0
O2967 O 0.23887 0.40773 0.15561 0.0
H2968 H 0.2948 0.39986 0.11505 0.0
H2969 H 0.29256 0.44624 0.0729 0.0
H2970 H 0.3232 0.41313 0.05133 0.0
H2971 H 0.321 0.45872 0.01043 0.0
H2972 H 0.25872 0.37463 0.48506 0.0
H2973 H 0.28266 0.39958 0.2435 0.0
H2974 H 0.24737 0.39132 0.41961 0.0
H2975 H 0.29343 0.38286 0.31197 0.0
H2976 H 0.34079 0.448 0.29815 0.0
H2977 H 0.30689 0.44897 0.4647 0.0
H2978 H 0.22955 0.35479 0.99685 0.0
H2979 H 0.23337 0.33478 0.20731 0.0
H2980 H 0.2546 0.46094 0.23345 0.0
H2981 H 0.302 0.46067 0.191 0.0
H2982 H 0.27103 0.49308 0.22702 0.0
H2983 H 0.31753 0.49274 0.18457 0.0
H2984 H 0.21817 0.4035 0.04442 0.0
H2985 H 0.22194 0.38208 0.24953 0.0
H2986 H 0.18812 0.37893 0.03078 0.0
H2987 H 0.19183 0.35782 0.23223 0.0
H2988 H 0.23859 0.41158 0.88789 0.0
H2989 H 0.23608 0.45395 0.99122 0.0
H2990 H 0.23968 0.45284 0.4408 0.0
H2991 H 0.19218 0.41493 0.33527 0.0
Li2992 Li 0.57426 0.85227 0.23382 0.0
Li2993 Li 0.60071 0.85542 0.18532 0.0
Li2994 Li 0.57306 0.83535 0.12684 0.0
Li2995 Li 0.58025 0.82826 0.24905 0.0
C2996 C 0.57734 0.86947 0.09962 0.0
N2997 N 0.56313 0.88678 0.02835 0.0
C2998 C 0.58681 0.88751 0.09271 0.0
C2999 C 0.56075 0.86021 0.06932 0.0
C3000 C 0.57937 0.89603 0.05675 0.0
C3001 C 0.55376 0.8692 0.03379 0.0
C3002 C 0.60305 0.86755 0.32678 0.0
C3003 C 0.61944 0.88361 0.43206 0.0
N3004 N 0.6216 0.89847 0.40136 0.0
C3005 C 0.6054 0.88297 0.29629 0.0
C3006 C 0.61007 0.86784 0.39525 0.0
C3007 C 0.61483 0.89847 0.33486 0.0
C3008 C 0.56028 0.8564 0.3594 0.0
N3009 N 0.56388 0.86266 0.29012 0.0
C3010 C 0.55383 0.88242 0.31642 0.0
C3011 C 0.56077 0.87541 0.26773 0.0
C3012 C 0.55019 0.87632 0.38873 0.0
C3013 C 0.55347 0.8631 0.40988 0.0
H3014 H 0.5629 0.84626 0.37557 0.0
H3015 H 0.56378 0.88026 0.21262 0.0
C3016 C 0.62667 0.86817 0.08381 0.0
N3017 N 0.62419 0.8699 0.15575 0.0
C3018 C 0.64323 0.87699 0.05356 0.0
C3019 C 0.65441 0.88994 0.17138 0.0
C3020 C 0.63762 0.88052 0.19981 0.0
C3021 C 0.65747 0.88808 0.09733 0.0
H3022 H 0.61574 0.85951 0.05026 0.0
H3023 H 0.63545 0.88157 0.25705 0.0
C3024 C 0.5411 0.81854 0.21182 0.0
N3025 N 0.50531 0.8006 0.20527 0.0
C3026 C 0.53188 0.80061 0.22284 0.0
C3027 C 0.5321 0.82737 0.19829 0.0
C3028 C 0.5138 0.79176 0.21904 0.0
C3029 C 0.51401 0.81806 0.19497 0.0
C3030 C 0.60514 0.82761 0.14799 0.0
C3031 C 0.60605 0.81899 0.08595 0.0
C3032 C 0.61805 0.83306 0.20131 0.0
C3033 C 0.6199 0.81593 0.07826 0.0
C3034 C 0.63171 0.8298 0.1915 0.0
N3035 N 0.63235 0.82137 0.13071 0.0
C3036 C 0.57638 0.83142 0.98126 0.0
C3037 C 0.55342 0.80678 0.03891 0.0
C3038 C 0.57769 0.821 0.92773 0.0
N3039 N 0.56502 0.82403 0.03724 0.0
C3040 C 0.5542 0.7959 0.98636 0.0
C3041 C 0.56727 0.80289 0.93299 0.0
H3042 H 0.58595 0.84508 0.98346 0.0
H3043 H 0.54503 0.80118 0.08548 0.0
C3044 C 0.56251 0.80455 0.35783 0.0
N3045 N 0.57529 0.80886 0.30792 0.0
C3046 C 0.557 0.78991 0.40154 0.0
C3047 C 0.57794 0.78439 0.34179 0.0
C3048 C 0.5828 0.79895 0.29813 0.0
C3049 C 0.56498 0.77978 0.39499 0.0
H3050 H 0.5565 0.81246 0.36318 0.0
H3051 H 0.59259 0.8023 0.25685 0.0
O3052 O 0.58456 0.86098 0.13389 0.0
O3053 O 0.59363 0.85216 0.29072 0.0
O3054 O 0.55881 0.82741 0.21652 0.0
O3055 O 0.59187 0.83105 0.1557 0.0
H3056 H 0.59976 0.89485 0.1151 0.0
H3057 H 0.55338 0.84624 0.07283 0.0
H3058 H 0.58651 0.90999 0.05134 0.0
H3059 H 0.54091 0.8622 0.01033 0.0
H3060 H 0.62497 0.88403 0.48508 0.0
H3061 H 0.60004 0.883 0.24347 0.0
H3062 H 0.60828 0.85599 0.41968 0.0
H3063 H 0.61676 0.9105 0.31191 0.0
H3064 H 0.55162 0.89271 0.29807 0.0
H3065 H 0.55064 0.85786 0.46469 0.0
H3066 H 0.64481 0.87471 0.99683 0.0
H3067 H 0.66484 0.8985 0.20734 0.0
H3068 H 0.53864 0.79357 0.23355 0.0
H3069 H 0.53896 0.84126 0.19093 0.0
H3070 H 0.50651 0.77788 0.22705 0.0
H3071 H 0.50689 0.82473 0.18443 0.0
H3072 H 0.59615 0.81465 0.04433 0.0
H3073 H 0.61753 0.83977 0.24963 0.0
H3074 H 0.62076 0.80924 0.03056 0.0
H3075 H 0.64182 0.83397 0.2322 0.0
H3076 H 0.58801 0.82692 0.88786 0.0
H3077 H 0.54567 0.78203 0.99133 0.0
H3078 H 0.54675 0.78674 0.44082 0.0
H3079 H 0.5847 0.77719 0.33536 0.0
Li3080 Li 0.16423 0.73759 0.1267 0.0
Li3081 Li 0.17133 0.75188 0.24888 0.0
Li3082 Li 0.14731 0.72188 0.23372 0.0
Li3083 Li 0.14417 0.74519 0.18521 0.0
C3084 C 0.18106 0.72248 0.21172 0.0
N3085 N 0.19903 0.70466 0.2053 0.0
C3086 C 0.19899 0.73121 0.22268 0.0
C3087 C 0.17225 0.70464 0.19832 0.0
C3088 C 0.20785 0.72199 0.21894 0.0
C3089 C 0.18157 0.69587 0.19507 0.0
C3090 C 0.172 0.77742 0.14789 0.0
C3091 C 0.16983 0.80182 0.19147 0.0
N3092 N 0.17829 0.81089 0.13073 0.0
C3093 C 0.18064 0.78697 0.08591 0.0
C3094 C 0.16655 0.78489 0.20121 0.0
C3095 C 0.18373 0.80389 0.07828 0.0
C3096 C 0.16814 0.74484 0.98113 0.0
N3097 N 0.17553 0.74086 0.03707 0.0
C3098 C 0.20366 0.75817 0.98614 0.0
C3099 C 0.19278 0.7465 0.03868 0.0
C3100 C 0.19667 0.76426 0.93282 0.0
C3101 C 0.17856 0.75658 0.92761 0.0
H3102 H 0.15449 0.74077 0.98339 0.0
H3103 H 0.19838 0.74371 0.08522 0.0
C3104 C 0.19504 0.75786 0.35769 0.0
N3105 N 0.19074 0.76633 0.30773 0.0
C3106 C 0.20967 0.76698 0.40142 0.0
C3107 C 0.21522 0.79345 0.34158 0.0
C3108 C 0.20066 0.78375 0.2979 0.0
C3109 C 0.21981 0.7851 0.39483 0.0
H3110 H 0.18712 0.74394 0.36306 0.0
H3111 H 0.19733 0.79019 0.25658 0.0
C3112 C 0.13011 0.70774 0.09954 0.0
N3113 N 0.11284 0.67623 0.0283 0.0
C3114 C 0.11207 0.69917 0.09254 0.0
C3115 C 0.13939 0.70043 0.06934 0.0
C3116 C 0.10357 0.68321 0.0566 0.0
C3117 C 0.13042 0.68444 0.03383 0.0
C3118 C 0.13204 0.73539 0.32668 0.0
C3119 C 0.11662 0.72233 0.29621 0.0
C3120 C 0.13176 0.74213 0.39515 0.0
C3121 C 0.10112 0.71626 0.33481 0.0
C3122 C 0.11599 0.73573 0.43199 0.0
N3123 N 0.10113 0.72303 0.40131 0.0
C3124 C 0.1432 0.70378 0.3593 0.0
C3125 C 0.12417 0.68526 0.26769 0.0
C3126 C 0.13651 0.69027 0.40979 0.0
N3127 N 0.13693 0.70112 0.29004 0.0
C3128 C 0.11716 0.67131 0.3164 0.0
C3129 C 0.12327 0.67377 0.38869 0.0
H3130 H 0.15335 0.71655 0.37544 0.0
H3131 H 0.11931 0.68342 0.2126 0.0
C3132 C 0.13141 0.7584 0.08374 0.0
N3133 N 0.12968 0.75418 0.15567 0.0
C3134 C 0.1226 0.76614 0.0535 0.0
C3135 C 0.10965 0.76436 0.17133 0.0
C3136 C 0.11907 0.757 0.19974 0.0
C3137 C 0.11151 0.76929 0.0973 0.0
H3138 H 0.14008 0.75614 0.05017 0.0
H3139 H 0.11802 0.75377 0.25697 0.0
O3140 O 0.17217 0.7313 0.21635 0.0
O3141 O 0.16853 0.76071 0.15553 0.0
O3142 O 0.13859 0.72347 0.13381 0.0
O3143 O 0.14744 0.74137 0.2906 0.0
H3144 H 0.20602 0.74501 0.23328 0.0
H3145 H 0.15835 0.69758 0.19101 0.0
H3146 H 0.22175 0.72861 0.22691 0.0
H3147 H 0.17491 0.68207 0.18463 0.0
H3148 H 0.16566 0.80775 0.23217 0.0
H3149 H 0.18498 0.78141 0.04428 0.0
H3150 H 0.15981 0.77764 0.24949 0.0
H3151 H 0.19044 0.81145 0.03063 0.0
H3152 H 0.21753 0.76352 0.99107 0.0
H3153 H 0.17264 0.76099 0.88778 0.0
H3154 H 0.21283 0.75991 0.44073 0.0
H3155 H 0.22243 0.8074 0.33513 0.0
H3156 H 0.10472 0.70477 0.11486 0.0
H3157 H 0.15337 0.70704 0.07293 0.0
H3158 H 0.08961 0.67638 0.05112 0.0
H3159 H 0.13743 0.6786 0.01045 0.0
H3160 H 0.11658 0.71693 0.24339 0.0
H3161 H 0.14362 0.7522 0.41957 0.0
H3162 H 0.08909 0.70616 0.31187 0.0
H3163 H 0.11558 0.74084 0.48502 0.0
H3164 H 0.14176 0.69269 0.46459 0.0
H3165 H 0.10686 0.6588 0.29809 0.0
H3166 H 0.12488 0.77001 0.99679 0.0
H3167 H 0.10108 0.76622 0.20731 0.0
loop_
_geom_bond_atom_site_label_1
_geom_bond_atom_site_label_2
_geom_bond_distance
_geom_bond_site_symmetry_2
_ccdc_geom_bond_type
Li0 N17 1.990 . S
Li0 O60 1.956 . S
Li0 O61 1.970 . S
Li0 O62 1.961 . S
Li1 N25 1.990 . S
Li1 O60 1.970 . S
Li1 O61 1.956 . S
Li1 O63 1.961 1_554 S
Li2 N47 1.990 . S
Li2 O60 1.961 . S
Li2 O62 1.956 . S
Li2 O63 1.970 1_554 S
Li3 N53 1.990 . S
Li3 O61 1.961 1_556 S
Li3 O62 1.970 1_556 S
Li3 O63 1.956 . S
C4 C6 1.348 . S
C4 C7 1.356 . S
C4 O60 1.325 . S
N5 C8 1.314 . S
N5 C9 1.279 . S
C6 C4 1.348 . S
C6 C8 1.353 . S
C6 H64 0.929 . S
C7 C4 1.356 . S
C7 C9 1.358 . S
C7 H65 0.930 . S
C8 N5 1.314 . S
C8 C6 1.353 . S
C8 H66 0.930 . S
C9 N5 1.279 . S
C9 C7 1.358 . S
C9 H67 0.930 . S
C10 C13 1.348 . S
C10 C14 1.356 . S
C10 O61 1.325 . S
C11 N12 1.279 . S
C11 C14 1.358 . S
C11 H68 0.930 . S
N12 C11 1.279 . S
N12 C15 1.314 . S
C13 C10 1.348 . S
C13 C15 1.353 . S
C13 H69 0.929 . S
C14 C10 1.356 . S
C14 C11 1.358 . S
C14 H70 0.917 1_554 S
C15 N12 1.314 . S
C15 C13 1.353 . S
C15 H71 0.930 . S
C16 N17 1.314 . S
C16 C21 1.353 . S
C16 H22 0.930 . S
N17 Li0 1.990 . S
N17 C16 1.314 . S
N17 C19 1.279 . S
C18 C19 1.358 . S
C18 C20 1.356 . S
C18 H72 0.930 . S
C19 N17 1.279 . S
C19 C18 1.358 . S
C19 H23 0.930 . S
C20 C18 1.356 . S
C20 C21 1.348 . S
C21 C16 1.353 . S
C21 C20 1.348 . S
C21 H73 0.929 . S
H22 C16 0.930 . S
H23 C19 0.930 . S
C24 N25 1.314 . S
C24 C26 1.349 . S
C24 H30 0.930 . S
N25 Li1 1.990 . S
N25 C24 1.314 . S
N25 C28 1.279 . S
C26 C24 1.349 . S
C26 C29 1.348 1_545 S
C26 H74 0.934 1_545 S
C27 C28 1.358 . S
C27 C29 1.356 1_545 S
C27 H75 0.939 1_545 S
C28 N25 1.279 . S
C28 C27 1.358 . S
C28 H31 0.930 . S
C29 C26 1.348 1_565 S
C29 C27 1.356 1_565 S
H30 C24 0.930 . S
H31 C28 0.930 . S
C32 C34 1.348 1_554 S
C32 C35 1.356 . S
C32 O62 1.325 . S
N33 C36 1.314 . S
N33 C37 1.279 1_556 S
C34 C32 1.348 1_556 S
C34 C36 1.353 . S
C34 H76 0.929 . S
C35 C32 1.356 . S
C35 C37 1.358 . S
C35 H77 0.930 . S
C36 N33 1.314 . S
C36 C34 1.353 . S
C36 H78 0.930 . S
C37 N33 1.279 1_554 S
C37 C35 1.358 . S
C37 H79 0.930 . S
C38 C39 1.348 . S
C38 C40 1.356 . S
C38 O63 1.325 . S
C39 C38 1.348 . S
C39 C41 1.353 . S
C39 H80 0.929 . S
C40 C38 1.356 . S
C40 C42 1.358 . S
C40 H81 0.930 . S
C41 C39 1.353 . S
C41 N43 1.314 . S
C41 H82 0.930 . S
C42 C40 1.358 . S
C42 N43 1.279 . S
C42 H83 0.930 . S
N43 C41 1.314 . S
N43 C42 1.279 . S
C44 C46 1.353 . S
C44 N47 1.314 . S
C44 H50 0.930 . S
C45 N47 1.279 1_556 S
C45 C48 1.358 . S
C45 H51 0.930 . S
C46 C44 1.353 . S
C46 C49 1.348 1_554 S
C46 H84 0.929 . S
N47 Li2 1.990 . S
N47 C44 1.314 . S
N47 C45 1.279 1_554 S
C48 C45 1.358 . S
C48 C49 1.356 . S
C48 H85 0.930 . S
C49 C46 1.348 1_556 S
C49 C48 1.356 . S
H50 C44 0.930 . S
H51 C45 0.930 . S
C52 N53 1.314 . S
C52 C54 1.353 . S
C52 H58 0.930 . S
N53 Li3 1.990 . S
N53 C52 1.314 . S
N53 C56 1.279 . S
C54 C52 1.353 . S
C54 C57 1.348 . S
C54 H86 0.929 . S
C55 C56 1.358 . S
C55 C57 1.356 . S
C55 H87 0.930 . S
C56 N53 1.279 . S
C56 C55 1.358 . S
C56 H59 0.930 . S
C57 C54 1.348 . S
C57 C55 1.356 . S
H58 C52 0.930 . S
H59 C56 0.930 . S
O60 Li0 1.956 . S
O60 Li1 1.970 . S
O60 Li2 1.961 . S
O60 C4 1.325 . S
O61 Li0 1.970 . S
O61 Li1 1.956 . S
O61 Li3 1.961 1_554 S
O61 C10 1.325 . S
O62 Li0 1.961 . S
O62 Li2 1.956 . S
O62 Li3 1.970 1_554 S
O62 C32 1.325 . S
O63 Li1 1.961 1_556 S
O63 Li2 1.970 1_556 S
O63 Li3 1.956 . S
O63 C38 1.325 . S
H64 C6 0.929 . S
H65 C7 0.930 . S
H66 C8 0.930 . S
H67 C9 0.930 . S
H68 C11 0.930 . S
H69 C13 0.929 . S
H70 C14 0.917 1_556 S
H71 C15 0.930 . S
H72 C18 0.930 . S
H73 C21 0.929 . S
H74 C26 0.934 1_565 S
H75 C27 0.939 1_565 S
H76 C34 0.929 . S
H77 C35 0.930 . S
H78 C36 0.930 . S
H79 C37 0.930 . S
H80 C39 0.929 . S
H81 C40 0.930 . S
H82 C41 0.930 . S
H83 C42 0.930 . S
H84 C46 0.929 . S
H85 C48 0.930 . S
H86 C54 0.929 . S
H87 C55 0.930 . S
Li88 N105 1.990 . S
Li88 O148 1.956 . S
Li88 O149 1.970 . S
Li88 O150 1.961 1_554 S
Li89 N113 1.990 . S
Li89 O148 1.970 . S
Li89 O149 1.956 . S
Li89 O151 1.961 . S
Li90 N135 1.990 . S
Li90 O148 1.961 1_556 S
Li90 O150 1.956 . S
Li90 O151 1.970 1_556 S
Li91 N141 1.990 . S
Li91 O149 1.961 . S
Li91 O150 1.970 1_554 S
Li91 O151 1.956 . S
C92 C94 1.348 . S
C92 C95 1.356 . S
C92 O148 1.325 . S
N93 C96 1.314 . S
N93 C97 1.279 . S
C94 C92 1.348 . S
C94 C96 1.353 . S
C94 H152 0.929 . S
C95 C92 1.356 . S
C95 C97 1.358 . S
C95 H153 0.916 1_554 S
C96 N93 1.314 . S
C96 C94 1.353 . S
C96 H154 0.930 . S
C97 N93 1.279 . S
C97 C95 1.358 . S
C97 H155 0.930 . S
C98 C101 1.348 . S
C98 C102 1.356 . S
C98 O149 1.325 . S
C99 N100 1.279 . S
C99 C102 1.358 . S
C99 H156 0.930 . S
N100 C99 1.279 . S
N100 C103 1.314 . S
C101 C98 1.348 . S
C101 C103 1.353 . S
C101 H157 0.929 . S
C102 C98 1.356 . S
C102 C99 1.358 . S
C102 H158 0.930 . S
C103 N100 1.314 . S
C103 C101 1.353 . S
C103 H159 0.930 . S
C104 N105 1.314 . S
C104 C109 1.348 . S
C104 H110 0.930 . S
N105 Li88 1.990 . S
N105 C104 1.314 . S
N105 C107 1.279 . S
C106 C107 1.358 . S
C106 C108 1.356 1_655 S
C106 H160 0.882 1_655 S
C107 N105 1.279 . S
C107 C106 1.358 . S
C107 H111 0.930 . S
C108 C106 1.356 1_455 S
C108 C109 1.352 1_455 S
C109 C104 1.348 . S
C109 C108 1.352 1_655 S
C109 H161 0.930 1_655 S
H110 C104 0.930 . S
H111 C107 0.930 . S
C112 N113 1.314 . S
C112 C114 1.353 . S
C112 H118 0.930 . S
N113 Li89 1.990 . S
N113 C112 1.314 . S
N113 C116 1.279 . S
C114 C112 1.353 . S
C114 C117 1.348 . S
C114 H162 0.929 . S
C115 C116 1.358 . S
C115 C117 1.356 . S
C115 H163 0.930 . S
C116 N113 1.279 . S
C116 C115 1.358 . S
C116 H119 0.930 . S
C117 C114 1.348 . S
C117 C115 1.356 . S
H118 C112 0.930 . S
H119 C116 0.930 . S
C120 C122 1.348 . S
C120 C123 1.356 . S
C120 O150 1.325 . S
N121 C124 1.314 . S
N121 C125 1.279 . S
C122 C120 1.348 . S
C122 C124 1.353 . S
C122 H164 0.929 . S
C123 C120 1.356 . S
C123 C125 1.358 . S
C123 H165 0.930 . S
C124 N121 1.314 . S
C124 C122 1.353 . S
C124 H166 0.930 . S
C125 N121 1.279 . S
C125 C123 1.358 . S
C125 H167 0.930 . S
C126 C127 1.348 1_554 S
C126 C128 1.356 . S
C126 O151 1.325 . S
C127 C126 1.348 1_556 S
C127 C129 1.353 . S
C127 H168 0.929 . S
C128 C126 1.356 . S
C128 C130 1.358 . S
C128 H169 0.930 . S
C129 C127 1.353 . S
C129 N131 1.314 . S
C129 H170 0.930 . S
C130 C128 1.358 . S
C130 N131 1.279 1_554 S
C130 H171 0.930 . S
N131 C129 1.314 . S
N131 C130 1.279 1_556 S
C132 C134 1.353 . S
C132 N135 1.314 . S
C132 H138 0.930 . S
C133 N135 1.279 . S
C133 C136 1.358 . S
C133 H139 0.930 . S
C134 C132 1.353 . S
C134 C137 1.348 . S
C134 H172 0.929 . S
N135 Li90 1.990 . S
N135 C132 1.314 . S
N135 C133 1.279 . S
C136 C133 1.358 . S
C136 C137 1.356 . S
C136 H173 0.930 . S
C137 C134 1.348 . S
C137 C136 1.356 . S
H138 C132 0.930 . S
H139 C133 0.930 . S
C140 N141 1.314 . S
C140 C142 1.353 . S
C140 H146 0.930 . S
N141 Li91 1.990 . S
N141 C140 1.314 . S
N141 C144 1.279 1_554 S
C142 C140 1.353 . S
C142 C145 1.348 1_554 S
C142 H174 0.929 . S
C143 C144 1.358 . S
C143 C145 1.356 . S
C143 H175 0.930 . S
C144 N141 1.279 1_556 S
C144 C143 1.358 . S
C144 H147 0.930 . S
C145 C142 1.348 1_556 S
C145 C143 1.356 . S
H146 C140 0.930 . S
H147 C144 0.930 . S
O148 Li88 1.956 . S
O148 Li89 1.970 . S
O148 Li90 1.961 1_554 S
O148 C92 1.325 . S
O149 Li88 1.970 . S
O149 Li89 1.956 . S
O149 Li91 1.961 . S
O149 C98 1.325 . S
O150 Li88 1.961 1_556 S
O150 Li90 1.956 . S
O150 Li91 1.970 1_556 S
O150 C120 1.325 . S
O151 Li89 1.961 . S
O151 Li90 1.970 1_554 S
O151 Li91 1.956 . S
O151 C126 1.325 . S
H152 C94 0.929 . S
H153 C95 0.916 1_556 S
H154 C96 0.930 . S
H155 C97 0.930 . S
H156 C99 0.930 . S
H157 C101 0.929 . S
H158 C102 0.930 . S
H159 C103 0.930 . S
H160 C106 0.882 1_455 S
H161 C109 0.930 1_455 S
H162 C114 0.929 . S
H163 C115 0.930 . S
H164 C122 0.929 . S
H165 C123 0.930 . S
H166 C124 0.930 . S
H167 C125 0.930 . S
H168 C127 0.929 . S
H169 C128 0.930 . S
H170 C129 0.930 . S
H171 C130 0.930 . S
H172 C134 0.929 . S
H173 C136 0.930 . S
H174 C142 0.929 . S
H175 C143 0.930 . S
Li176 N193 1.990 . S
Li176 O236 1.956 . S
Li176 O237 1.970 . S
Li176 O238 1.961 1_554 S
Li177 N201 1.990 . S
Li177 O236 1.970 . S
Li177 O237 1.956 . S
Li177 O239 1.961 . S
Li178 N223 1.990 . S
Li178 O236 1.961 1_556 S
Li178 O238 1.956 . S
Li178 O239 1.970 1_556 S
Li179 N229 1.990 . S
Li179 O237 1.961 . S
Li179 O238 1.970 1_554 S
Li179 O239 1.956 . S
C180 C182 1.348 . S
C180 C183 1.356 . S
C180 O236 1.325 . S
N181 C184 1.314 . S
N181 C185 1.279 . S
C182 C180 1.348 . S
C182 C184 1.353 . S
C182 H240 0.929 . S
C183 C180 1.356 . S
C183 C185 1.358 . S
C183 H241 0.915 1_554 S
C184 N181 1.314 . S
C184 C182 1.353 . S
C184 H242 0.930 . S
C185 N181 1.279 . S
C185 C183 1.358 . S
C185 H243 0.930 . S
C186 C189 1.348 . S
C186 C190 1.356 . S
C186 O237 1.325 . S
C187 N188 1.279 . S
C187 C190 1.358 . S
C187 H244 0.930 . S
N188 C187 1.279 . S
N188 C191 1.314 . S
C189 C186 1.348 . S
C189 C191 1.353 . S
C189 H245 0.929 . S
C190 C186 1.356 . S
C190 C187 1.358 . S
C190 H246 0.930 . S
C191 N188 1.314 . S
C191 C189 1.353 . S
C191 H247 0.930 . S
C192 N193 1.314 . S
C192 C197 1.353 . S
C192 H198 0.930 . S
N193 Li176 1.990 . S
N193 C192 1.314 . S
N193 C195 1.279 . S
C194 C195 1.358 . S
C194 C196 1.356 . S
C194 H248 0.930 . S
C195 N193 1.279 . S
C195 C194 1.358 . S
C195 H199 0.930 . S
C196 C194 1.356 . S
C196 C197 1.348 . S
C197 C192 1.353 . S
C197 C196 1.348 . S
C197 H249 0.929 . S
H198 C192 0.930 . S
H199 C195 0.930 . S
C200 N201 1.314 . S
C200 C202 1.353 . S
C200 H206 0.930 . S
N201 Li177 1.990 . S
N201 C200 1.314 . S
N201 C204 1.279 . S
C202 C200 1.353 . S
C202 C205 1.348 . S
C202 H250 0.929 . S
C203 C204 1.358 . S
C203 C205 1.356 . S
C203 H251 0.930 . S
C204 N201 1.279 . S
C204 C203 1.358 . S
C204 H207 0.930 . S
C205 C202 1.348 . S
C205 C203 1.356 . S
H206 C200 0.930 . S
H207 C204 0.930 . S
C208 C210 1.348 . S
C208 C211 1.356 . S
C208 O238 1.325 . S
N209 C212 1.314 . S
N209 C213 1.279 . S
C210 C208 1.348 . S
C210 C212 1.353 . S
C210 H252 0.929 . S
C211 C208 1.356 . S
C211 C213 1.358 . S
C211 H253 0.930 . S
C212 N209 1.314 . S
C212 C210 1.353 . S
C212 H254 0.930 . S
C213 N209 1.279 . S
C213 C211 1.358 . S
C213 H255 0.930 . S
C214 C215 1.348 1_554 S
C214 C216 1.356 . S
C214 O239 1.325 . S
C215 C214 1.348 1_556 S
C215 C217 1.353 . S
C215 H256 0.929 . S
C216 C214 1.356 . S
C216 C218 1.358 . S
C216 H257 0.930 . S
C217 C215 1.353 . S
C217 N219 1.314 . S
C217 H258 0.930 . S
C218 C216 1.358 . S
C218 N219 1.279 1_554 S
C218 H259 0.930 . S
N219 C217 1.314 . S
N219 C218 1.279 1_556 S
C220 C222 1.353 . S
C220 N223 1.314 . S
C220 H226 0.930 . S
C221 N223 1.279 . S
C221 C224 1.358 . S
C221 H227 0.930 . S
C222 C220 1.353 . S
C222 C225 1.348 . S
C222 H260 0.929 . S
N223 Li178 1.990 . S
N223 C220 1.314 . S
N223 C221 1.279 . S
C224 C221 1.358 . S
C224 C225 1.356 . S
C224 H261 0.930 . S
C225 C222 1.348 . S
C225 C224 1.356 . S
H226 C220 0.930 . S
H227 C221 0.930 . S
C228 N229 1.314 . S
C228 C230 1.353 . S
C228 H234 0.930 . S
N229 Li179 1.990 . S
N229 C228 1.314 . S
N229 C232 1.279 1_554 S
C230 C228 1.353 . S
C230 C233 1.348 1_554 S
C230 H262 0.929 . S
C231 C232 1.358 . S
C231 C233 1.356 . S
C231 H263 0.930 . S
C232 N229 1.279 1_556 S
C232 C231 1.358 . S
C232 H235 0.930 . S
C233 C230 1.348 1_556 S
C233 C231 1.356 . S
H234 C228 0.930 . S
H235 C232 0.930 . S
O236 Li176 1.956 . S
O236 Li177 1.970 . S
O236 Li178 1.961 1_554 S
O236 C180 1.325 . S
O237 Li176 1.970 . S
O237 Li177 1.956 . S
O237 Li179 1.961 . S
O237 C186 1.325 . S
O238 Li176 1.961 1_556 S
O238 Li178 1.956 . S
O238 Li179 1.970 1_556 S
O238 C208 1.325 . S
O239 Li177 1.961 . S
O239 Li178 1.970 1_554 S
O239 Li179 1.956 . S
O239 C214 1.325 . S
H240 C182 0.929 . S
H241 C183 0.915 1_556 S
H242 C184 0.930 . S
H243 C185 0.930 . S
H244 C187 0.930 . S
H245 C189 0.929 . S
H246 C190 0.930 . S
H247 C191 0.930 . S
H248 C194 0.930 . S
H249 C197 0.929 . S
H250 C202 0.929 . S
H251 C203 0.930 . S
H252 C210 0.929 . S
H253 C211 0.930 . S
H254 C212 0.930 . S
H255 C213 0.930 . S
H256 C215 0.929 . S
H257 C216 0.930 . S
H258 C217 0.930 . S
H259 C218 0.930 . S
H260 C222 0.929 . S
H261 C224 0.930 . S
H262 C230 0.929 . S
H263 C231 0.930 . S
Li264 N281 1.990 . S
Li264 O324 1.956 . S
Li264 O325 1.970 . S
Li264 O326 1.961 . S
Li265 N289 1.990 . S
Li265 O324 1.970 . S
Li265 O325 1.956 . S
Li265 O327 1.961 . S
Li266 N311 1.990 . S
Li266 O324 1.961 . S
Li266 O326 1.956 . S
Li266 O327 1.970 . S
Li267 N317 1.990 . S
Li267 O325 1.961 . S
Li267 O326 1.970 . S
Li267 O327 1.956 . S
C268 C270 1.348 . S
C268 C271 1.356 . S
C268 O324 1.325 . S
N269 C272 1.314 . S
N269 C273 1.279 . S
C270 C268 1.348 . S
C270 C272 1.353 . S
C270 H328 0.929 . S
C271 C268 1.356 . S
C271 C273 1.358 . S
C271 H329 0.930 . S
C272 N269 1.314 . S
C272 C270 1.353 . S
C272 H330 0.930 . S
C273 N269 1.279 . S
C273 C271 1.358 . S
C273 H331 0.930 . S
C274 C277 1.348 . S
C274 C278 1.356 . S
C274 O325 1.325 . S
C275 N276 1.279 . S
C275 C278 1.358 . S
C275 H332 0.930 . S
N276 C275 1.279 . S
N276 C279 1.314 . S
C277 C274 1.348 . S
C277 C279 1.353 . S
C277 H333 0.929 . S
C278 C274 1.356 . S
C278 C275 1.358 . S
C278 H334 0.930 . S
C279 N276 1.314 . S
C279 C277 1.353 . S
C279 H335 0.930 . S
C280 N281 1.314 . S
C280 C285 1.353 . S
C280 H286 0.930 . S
N281 Li264 1.990 . S
N281 C280 1.314 . S
N281 C283 1.279 . S
C282 C283 1.358 . S
C282 C284 1.356 . S
C282 H336 0.930 . S
C283 N281 1.279 . S
C283 C282 1.358 . S
C283 H287 0.930 . S
C284 C282 1.356 . S
C284 C285 1.348 . S
C285 C280 1.353 . S
C285 C284 1.348 . S
C285 H337 0.929 . S
H286 C280 0.930 . S
H287 C283 0.930 . S
C288 N289 1.314 . S
C288 C290 1.353 . S
C288 H294 0.930 . S
N289 Li265 1.990 . S
N289 C288 1.314 . S
N289 C292 1.279 . S
C290 C288 1.353 . S
C290 C293 1.348 . S
C290 H338 0.929 . S
C291 C292 1.358 . S
C291 C293 1.356 . S
C291 H339 0.930 . S
C292 N289 1.279 . S
C292 C291 1.358 . S
C292 H295 0.930 . S
C293 C290 1.348 . S
C293 C291 1.356 . S
H294 C288 0.930 . S
H295 C292 0.930 . S
C296 C298 1.348 . S
C296 C299 1.356 . S
C296 O326 1.325 . S
N297 C300 1.314 . S
N297 C301 1.279 . S
C298 C296 1.348 . S
C298 C300 1.353 . S
C298 H340 0.929 . S
C299 C296 1.356 . S
C299 C301 1.358 . S
C299 H341 0.930 . S
C300 N297 1.314 . S
C300 C298 1.353 . S
C300 H342 0.930 . S
C301 N297 1.279 . S
C301 C299 1.358 . S
C301 H343 0.930 . S
C302 C303 1.348 . S
C302 C304 1.356 . S
C302 O327 1.325 . S
C303 C302 1.348 . S
C303 C305 1.353 . S
C303 H344 0.929 . S
C304 C302 1.356 . S
C304 C306 1.358 . S
C304 H345 0.930 . S
C305 C303 1.353 . S
C305 N307 1.314 . S
C305 H346 0.930 . S
C306 C304 1.358 . S
C306 N307 1.279 . S
C306 H347 0.930 . S
N307 C305 1.314 . S
N307 C306 1.279 . S
C308 C310 1.353 . S
C308 N311 1.314 . S
C308 H314 0.930 . S
C309 N311 1.279 . S
C309 C312 1.358 . S
C309 H315 0.930 . S
C310 C308 1.353 . S
C310 C313 1.348 . S
C310 H348 0.929 . S
N311 Li266 1.990 . S
N311 C308 1.314 . S
N311 C309 1.279 . S
C312 C309 1.358 . S
C312 C313 1.356 . S
C312 H349 0.930 . S
C313 C310 1.348 . S
C313 C312 1.356 . S
H314 C308 0.930 . S
H315 C309 0.930 . S
C316 N317 1.314 . S
C316 C318 1.348 . S
C316 H322 0.930 . S
N317 Li267 1.990 . S
N317 C316 1.314 . S
N317 C320 1.279 . S
C318 C316 1.348 . S
C318 C321 1.348 1_455 S
C318 H350 0.934 1_455 S
C319 C320 1.358 . S
C319 C321 1.356 1_455 S
C319 H351 0.939 1_455 S
C320 N317 1.279 . S
C320 C319 1.358 . S
C320 H323 0.930 . S
C321 C318 1.348 1_655 S
C321 C319 1.356 1_655 S
H322 C316 0.930 . S
H323 C320 0.930 . S
O324 Li264 1.956 . S
O324 Li265 1.970 . S
O324 Li266 1.961 . S
O324 C268 1.325 . S
O325 Li264 1.970 . S
O325 Li265 1.956 . S
O325 Li267 1.961 . S
O325 C274 1.325 . S
O326 Li264 1.961 . S
O326 Li266 1.956 . S
O326 Li267 1.970 . S
O326 C296 1.325 . S
O327 Li265 1.961 . S
O327 Li266 1.970 . S
O327 Li267 1.956 . S
O327 C302 1.325 . S
H328 C270 0.929 . S
H329 C271 0.930 . S
H330 C272 0.930 . S
H331 C273 0.930 . S
H332 C275 0.930 . S
H333 C277 0.929 . S
H334 C278 0.930 . S
H335 C279 0.930 . S
H336 C282 0.930 . S
H337 C285 0.929 . S
H338 C290 0.929 . S
H339 C291 0.930 . S
H340 C298 0.929 . S
H341 C299 0.930 . S
H342 C300 0.930 . S
H343 C301 0.930 . S
H344 C303 0.929 . S
H345 C304 0.930 . S
H346 C305 0.930 . S
H347 C306 0.930 . S
H348 C310 0.929 . S
H349 C312 0.930 . S
H350 C318 0.934 1_655 S
H351 C319 0.939 1_655 S
Li352 N369 1.990 . S
Li352 O412 1.956 . S
Li352 O413 1.970 . S
Li352 O414 1.961 . S
Li353 N377 1.990 . S
Li353 O412 1.970 . S
Li353 O413 1.956 . S
Li353 O415 1.961 . S
Li354 N399 1.990 . S
Li354 O412 1.961 . S
Li354 O414 1.956 . S
Li354 O415 1.970 . S
Li355 N405 1.990 . S
Li355 O413 1.961 . S
Li355 O414 1.970 . S
Li355 O415 1.956 . S
C356 C358 1.348 . S
C356 C359 1.356 . S
C356 O412 1.325 . S
N357 C360 1.314 . S
N357 C361 1.279 . S
C358 C356 1.348 . S
C358 C360 1.353 . S
C358 H416 0.929 . S
C359 C356 1.356 . S
C359 C361 1.358 . S
C359 H417 0.930 . S
C360 N357 1.314 . S
C360 C358 1.353 . S
C360 H418 0.930 . S
C361 N357 1.279 . S
C361 C359 1.358 . S
C361 H419 0.930 . S
C362 C365 1.348 . S
C362 C366 1.356 . S
C362 O413 1.325 . S
C363 N364 1.279 . S
C363 C366 1.358 . S
C363 H420 0.930 . S
N364 C363 1.279 . S
N364 C367 1.314 . S
C365 C362 1.348 . S
C365 C367 1.353 . S
C365 H421 0.929 . S
C366 C362 1.356 . S
C366 C363 1.358 . S
C366 H422 0.930 . S
C367 N364 1.314 . S
C367 C365 1.353 . S
C367 H423 0.930 . S
C368 N369 1.314 . S
C368 C373 1.353 . S
C368 H374 0.930 . S
N369 Li352 1.990 . S
N369 C368 1.314 . S
N369 C371 1.279 . S
C370 C371 1.358 . S
C370 C372 1.356 . S
C370 H424 0.930 . S
C371 N369 1.279 . S
C371 C370 1.358 . S
C371 H375 0.930 . S
C372 C370 1.356 . S
C372 C373 1.348 . S
C373 C368 1.353 . S
C373 C372 1.348 . S
C373 H425 0.929 . S
H374 C368 0.930 . S
H375 C371 0.930 . S
C376 N377 1.314 . S
C376 C378 1.353 . S
C376 H382 0.930 . S
N377 Li353 1.990 . S
N377 C376 1.314 . S
N377 C380 1.279 . S
C378 C376 1.353 . S
C378 C381 1.348 . S
C378 H426 0.929 . S
C379 C380 1.358 . S
C379 C381 1.356 . S
C379 H427 0.930 . S
C380 N377 1.279 . S
C380 C379 1.358 . S
C380 H383 0.930 . S
C381 C378 1.348 . S
C381 C379 1.356 . S
H382 C376 0.930 . S
H383 C380 0.930 . S
C384 C386 1.348 . S
C384 C387 1.356 . S
C384 O414 1.325 . S
N385 C388 1.314 . S
N385 C389 1.279 . S
C386 C384 1.348 . S
C386 C388 1.353 . S
C386 H428 0.929 . S
C387 C384 1.356 . S
C387 C389 1.358 . S
C387 H429 0.930 . S
C388 N385 1.314 . S
C388 C386 1.353 . S
C388 H430 0.930 . S
C389 N385 1.279 . S
C389 C387 1.358 . S
C389 H431 0.930 . S
C390 C391 1.348 . S
C390 C392 1.356 . S
C390 O415 1.325 . S
C391 C390 1.348 . S
C391 C393 1.353 . S
C391 H432 0.929 . S
C392 C390 1.356 . S
C392 C394 1.358 . S
C392 H433 0.930 . S
C393 C391 1.353 . S
C393 N395 1.314 . S
C393 H434 0.930 . S
C394 C392 1.358 . S
C394 N395 1.279 . S
C394 H435 0.930 . S
N395 C393 1.314 . S
N395 C394 1.279 . S
C396 C398 1.353 . S
C396 N399 1.314 . S
C396 H402 0.930 . S
C397 N399 1.279 . S
C397 C400 1.358 . S
C397 H403 0.930 . S
C398 C396 1.353 . S
C398 C401 1.348 . S
C398 H436 0.929 . S
N399 Li354 1.990 . S
N399 C396 1.314 . S
N399 C397 1.279 . S
C400 C397 1.358 . S
C400 C401 1.356 . S
C400 H437 0.930 . S
C401 C398 1.348 . S
C401 C400 1.356 . S
H402 C396 0.930 . S
H403 C397 0.930 . S
C404 N405 1.314 . S
C404 C406 1.353 . S
C404 H410 0.930 . S
N405 Li355 1.990 . S
N405 C404 1.314 . S
N405 C408 1.279 . S
C406 C404 1.353 . S
C406 C409 1.348 . S
C406 H438 0.929 . S
C407 C408 1.358 . S
C407 C409 1.356 . S
C407 H439 0.930 . S
C408 N405 1.279 . S
C408 C407 1.358 . S
C408 H411 0.930 . S
C409 C406 1.348 . S
C409 C407 1.356 . S
H410 C404 0.930 . S
H411 C408 0.930 . S
O412 Li352 1.956 . S
O412 Li353 1.970 . S
O412 Li354 1.961 . S
O412 C356 1.325 . S
O413 Li352 1.970 . S
O413 Li353 1.956 . S
O413 Li355 1.961 . S
O413 C362 1.325 . S
O414 Li352 1.961 . S
O414 Li354 1.956 . S
O414 Li355 1.970 . S
O414 C384 1.325 . S
O415 Li353 1.961 . S
O415 Li354 1.970 . S
O415 Li355 1.956 . S
O415 C390 1.325 . S
H416 C358 0.929 . S
H417 C359 0.930 . S
H418 C360 0.930 . S
H419 C361 0.930 . S
H420 C363 0.930 . S
H421 C365 0.929 . S
H422 C366 0.930 . S
H423 C367 0.930 . S
H424 C370 0.930 . S
H425 C373 0.929 . S
H426 C378 0.929 . S
H427 C379 0.930 . S
H428 C386 0.929 . S
H429 C387 0.930 . S
H430 C388 0.930 . S
H431 C389 0.930 . S
H432 C391 0.929 . S
H433 C392 0.930 . S
H434 C393 0.930 . S
H435 C394 0.930 . S
H436 C398 0.929 . S
H437 C400 0.930 . S
H438 C406 0.929 . S
H439 C407 0.930 . S
Li440 N457 1.990 . S
Li440 O500 1.956 . S
Li440 O501 1.970 . S
Li440 O502 1.961 . S
Li441 N465 1.990 . S
Li441 O500 1.970 . S
Li441 O501 1.956 . S
Li441 O503 1.961 . S
Li442 N487 1.990 . S
Li442 O500 1.961 . S
Li442 O502 1.956 . S
Li442 O503 1.970 . S
Li443 N493 1.990 . S
Li443 O501 1.961 . S
Li443 O502 1.970 . S
Li443 O503 1.956 . S
C444 C446 1.348 . S
C444 C447 1.356 . S
C444 O500 1.325 . S
N445 C448 1.314 . S
N445 C449 1.279 . S
C446 C444 1.348 . S
C446 C448 1.353 . S
C446 H504 0.929 . S
C447 C444 1.356 . S
C447 C449 1.358 . S
C447 H505 0.930 . S
C448 N445 1.314 . S
C448 C446 1.353 . S
C448 H506 0.930 . S
C449 N445 1.279 . S
C449 C447 1.358 . S
C449 H507 0.930 . S
C450 C453 1.348 . S
C450 C454 1.356 . S
C450 O501 1.325 . S
C451 N452 1.279 . S
C451 C454 1.358 . S
C451 H508 0.930 . S
N452 C451 1.279 . S
N452 C455 1.314 . S
C453 C450 1.348 . S
C453 C455 1.353 . S
C453 H509 0.929 . S
C454 C450 1.356 . S
C454 C451 1.358 . S
C454 H510 0.930 . S
C455 N452 1.314 . S
C455 C453 1.353 . S
C455 H511 0.930 . S
C456 N457 1.314 . S
C456 C461 1.353 . S
C456 H462 0.930 . S
N457 Li440 1.990 . S
N457 C456 1.314 . S
N457 C459 1.279 . S
C458 C459 1.358 . S
C458 C460 1.356 . S
C458 H512 0.930 . S
C459 N457 1.279 . S
C459 C458 1.358 . S
C459 H463 0.930 . S
C460 C458 1.356 . S
C460 C461 1.348 . S
C461 C456 1.353 . S
C461 C460 1.348 . S
C461 H513 0.929 . S
H462 C456 0.930 . S
H463 C459 0.930 . S
C464 N465 1.314 . S
C464 C466 1.353 . S
C464 H470 0.930 . S
N465 Li441 1.990 . S
N465 C464 1.314 . S
N465 C468 1.279 . S
C466 C464 1.353 . S
C466 C469 1.348 . S
C466 H514 0.929 . S
C467 C468 1.358 . S
C467 C469 1.356 . S
C467 H515 0.930 . S
C468 N465 1.279 . S
C468 C467 1.358 . S
C468 H471 0.930 . S
C469 C466 1.348 . S
C469 C467 1.356 . S
H470 C464 0.930 . S
H471 C468 0.930 . S
C472 C474 1.348 . S
C472 C475 1.356 . S
C472 O502 1.325 . S
N473 C476 1.314 . S
N473 C477 1.279 . S
C474 C472 1.348 . S
C474 C476 1.353 . S
C474 H516 0.929 . S
C475 C472 1.356 . S
C475 C477 1.358 . S
C475 H517 0.930 . S
C476 N473 1.314 . S
C476 C474 1.353 . S
C476 H518 0.930 . S
C477 N473 1.279 . S
C477 C475 1.358 . S
C477 H519 0.930 . S
C478 C479 1.348 . S
C478 C480 1.356 . S
C478 O503 1.325 . S
C479 C478 1.348 . S
C479 C481 1.353 . S
C479 H520 0.929 . S
C480 C478 1.356 . S
C480 C482 1.358 . S
C480 H521 0.930 . S
C481 C479 1.353 . S
C481 N483 1.314 . S
C481 H522 0.930 . S
C482 C480 1.358 . S
C482 N483 1.279 . S
C482 H523 0.930 . S
N483 C481 1.314 . S
N483 C482 1.279 . S
C484 C486 1.350 . S
C484 N487 1.314 . S
C484 H490 0.930 . S
C485 N487 1.279 . S
C485 C488 1.358 . S
C485 H491 0.930 . S
C486 C484 1.350 . S
C486 C489 1.350 1_565 S
C486 H524 0.930 1_565 S
N487 Li442 1.990 . S
N487 C484 1.314 . S
N487 C485 1.279 . S
C488 C485 1.358 . S
C488 C489 1.356 1_565 S
C488 H525 0.884 1_565 S
C489 C486 1.350 1_545 S
C489 C488 1.356 1_545 S
H490 C484 0.930 . S
H491 C485 0.930 . S
C492 N493 1.314 . S
C492 C494 1.353 . S
C492 H498 0.930 . S
N493 Li443 1.990 . S
N493 C492 1.314 . S
N493 C496 1.279 . S
C494 C492 1.353 . S
C494 C497 1.348 . S
C494 H526 0.929 . S
C495 C496 1.358 . S
C495 C497 1.356 . S
C495 H527 0.930 . S
C496 N493 1.279 . S
C496 C495 1.358 . S
C496 H499 0.930 . S
C497 C494 1.348 . S
C497 C495 1.356 . S
H498 C492 0.930 . S
H499 C496 0.930 . S
O500 Li440 1.956 . S
O500 Li441 1.970 . S
O500 Li442 1.961 . S
O500 C444 1.325 . S
O501 Li440 1.970 . S
O501 Li441 1.956 . S
O501 Li443 1.961 . S
O501 C450 1.325 . S
O502 Li440 1.961 . S
O502 Li442 1.956 . S
O502 Li443 1.970 . S
O502 C472 1.325 . S
O503 Li441 1.961 . S
O503 Li442 1.970 . S
O503 Li443 1.956 . S
O503 C478 1.325 . S
H504 C446 0.929 . S
H505 C447 0.930 . S
H506 C448 0.930 . S
H507 C449 0.930 . S
H508 C451 0.930 . S
H509 C453 0.929 . S
H510 C454 0.930 . S
H511 C455 0.930 . S
H512 C458 0.930 . S
H513 C461 0.929 . S
H514 C466 0.929 . S
H515 C467 0.930 . S
H516 C474 0.929 . S
H517 C475 0.930 . S
H518 C476 0.930 . S
H519 C477 0.930 . S
H520 C479 0.929 . S
H521 C480 0.930 . S
H522 C481 0.930 . S
H523 C482 0.930 . S
H524 C486 0.930 1_545 S
H525 C488 0.884 1_545 S
H526 C494 0.929 . S
H527 C495 0.930 . S
Li528 N545 1.990 . S
Li528 O588 1.956 . S
Li528 O589 1.970 . S
Li528 O590 1.961 . S
Li529 N553 1.990 . S
Li529 O588 1.970 1_554 S
Li529 O589 1.956 1_554 S
Li529 O591 1.961 . S
Li530 N575 1.990 . S
Li530 O588 1.961 . S
Li530 O590 1.956 . S
Li530 O591 1.970 1_556 S
Li531 N581 1.990 . S
Li531 O589 1.961 . S
Li531 O590 1.970 . S
Li531 O591 1.956 1_556 S
C532 C534 1.348 1_556 S
C532 C535 1.356 . S
C532 O588 1.325 . S
N533 C536 1.314 . S
N533 C537 1.279 1_554 S
C534 C532 1.348 1_554 S
C534 C536 1.353 . S
C534 H592 0.929 . S
C535 C532 1.356 . S
C535 C537 1.358 . S
C535 H593 0.930 . S
C536 N533 1.314 . S
C536 C534 1.353 . S
C536 H594 0.930 . S
C537 N533 1.279 1_556 S
C537 C535 1.358 . S
C537 H595 0.930 . S
C538 C541 1.348 . S
C538 C542 1.356 . S
C538 O589 1.325 . S
C539 N540 1.279 . S
C539 C542 1.358 . S
C539 H596 0.930 . S
N540 C539 1.279 . S
N540 C543 1.314 . S
C541 C538 1.348 . S
C541 C543 1.353 . S
C541 H597 0.929 . S
C542 C538 1.356 . S
C542 C539 1.358 . S
C542 H598 0.930 . S
C543 N540 1.314 . S
C543 C541 1.353 . S
C543 H599 0.930 . S
C544 N545 1.314 . S
C544 C549 1.353 . S
C544 H550 0.930 . S
N545 Li528 1.990 . S
N545 C544 1.314 . S
N545 C547 1.279 . S
C546 C547 1.358 . S
C546 C548 1.356 . S
C546 H600 0.930 . S
C547 N545 1.279 . S
C547 C546 1.358 . S
C547 H551 0.930 . S
C548 C546 1.356 . S
C548 C549 1.348 . S
C549 C544 1.353 . S
C549 C548 1.348 . S
C549 H601 0.929 . S
H550 C544 0.930 . S
H551 C547 0.930 . S
C552 N553 1.314 . S
C552 C554 1.353 . S
C552 H558 0.930 . S
N553 Li529 1.990 . S
N553 C552 1.314 . S
N553 C556 1.279 . S
C554 C552 1.353 . S
C554 C557 1.348 . S
C554 H602 0.929 . S
C555 C556 1.358 . S
C555 C557 1.356 . S
C555 H603 0.930 . S
C556 N553 1.279 . S
C556 C555 1.358 . S
C556 H559 0.930 . S
C557 C554 1.348 . S
C557 C555 1.356 . S
H558 C552 0.930 . S
H559 C556 0.930 . S
C560 C562 1.348 . S
C560 C563 1.356 . S
C560 O590 1.325 . S
N561 C564 1.314 . S
N561 C565 1.279 . S
C562 C560 1.348 . S
C562 C564 1.353 . S
C562 H604 0.929 . S
C563 C560 1.356 . S
C563 C565 1.358 . S
C563 H605 0.930 . S
C564 N561 1.314 . S
C564 C562 1.353 . S
C564 H606 0.930 . S
C565 N561 1.279 . S
C565 C563 1.358 . S
C565 H607 0.930 . S
C566 C567 1.348 . S
C566 C568 1.356 . S
C566 O591 1.325 . S
C567 C566 1.348 . S
C567 C569 1.353 . S
C567 H608 0.929 . S
C568 C566 1.356 . S
C568 C570 1.358 . S
C568 H609 0.930 . S
C569 C567 1.353 . S
C569 N571 1.314 . S
C569 H610 0.930 . S
C570 C568 1.358 . S
C570 N571 1.279 . S
C570 H611 0.930 . S
N571 C569 1.314 . S
N571 C570 1.279 . S
C572 C574 1.353 . S
C572 N575 1.314 1_554 S
C572 H578 0.930 . S
C573 N575 1.279 . S
C573 C576 1.358 . S
C573 H579 0.930 . S
C574 C572 1.353 . S
C574 C577 1.348 . S
C574 H612 0.929 . S
N575 Li530 1.990 . S
N575 C572 1.314 1_556 S
N575 C573 1.279 . S
C576 C573 1.358 . S
C576 C577 1.356 1_556 S
C576 H613 0.930 . S
C577 C574 1.348 . S
C577 C576 1.356 1_554 S
H578 C572 0.930 . S
H579 C573 0.930 . S
C580 N581 1.314 . S
C580 C582 1.353 . S
C580 H586 0.930 . S
N581 Li531 1.990 . S
N581 C580 1.314 . S
N581 C584 1.279 . S
C582 C580 1.353 . S
C582 C585 1.348 1_565 S
C582 H614 0.929 . S
C583 C584 1.358 1_545 S
C583 C585 1.356 . S
C583 H615 0.930 . S
C584 N581 1.279 . S
C584 C583 1.358 1_565 S
C584 H587 0.930 . S
C585 C582 1.348 1_545 S
C585 C583 1.356 . S
H586 C580 0.930 . S
H587 C584 0.930 . S
O588 Li528 1.956 . S
O588 Li529 1.970 1_556 S
O588 Li530 1.961 . S
O588 C532 1.325 . S
O589 Li528 1.970 . S
O589 Li529 1.956 1_556 S
O589 Li531 1.961 . S
O589 C538 1.325 . S
O590 Li528 1.961 . S
O590 Li530 1.956 . S
O590 Li531 1.970 . S
O590 C560 1.325 . S
O591 Li529 1.961 . S
O591 Li530 1.970 1_554 S
O591 Li531 1.956 1_554 S
O591 C566 1.325 . S
H592 C534 0.929 . S
H593 C535 0.930 . S
H594 C536 0.930 . S
H595 C537 0.930 . S
H596 C539 0.930 . S
H597 C541 0.929 . S
H598 C542 0.930 . S
H599 C543 0.930 . S
H600 C546 0.930 . S
H601 C549 0.929 . S
H602 C554 0.929 . S
H603 C555 0.930 . S
H604 C562 0.929 . S
H605 C563 0.930 . S
H606 C564 0.930 . S
H607 C565 0.930 . S
H608 C567 0.929 . S
H609 C568 0.930 . S
H610 C569 0.930 . S
H611 C570 0.930 . S
H612 C574 0.929 . S
H613 C576 0.930 . S
H614 C582 0.929 . S
H615 C583 0.930 . S
Li616 N633 1.990 . S
Li616 O676 1.956 . S
Li616 O677 1.970 . S
Li616 O678 1.961 . S
Li617 N641 1.990 . S
Li617 O676 1.970 1_554 S
Li617 O677 1.956 1_554 S
Li617 O679 1.961 . S
Li618 N663 1.990 . S
Li618 O676 1.961 . S
Li618 O678 1.956 . S
Li618 O679 1.970 1_556 S
Li619 N669 1.990 . S
Li619 O677 1.961 . S
Li619 O678 1.970 . S
Li619 O679 1.956 1_556 S
C620 C622 1.348 1_556 S
C620 C623 1.356 . S
C620 O676 1.325 . S
N621 C624 1.314 . S
N621 C625 1.279 1_554 S
C622 C620 1.348 1_554 S
C622 C624 1.353 . S
C622 H680 0.929 . S
C623 C620 1.356 . S
C623 C625 1.358 . S
C623 H681 0.930 . S
C624 N621 1.314 . S
C624 C622 1.353 . S
C624 H682 0.930 . S
C625 N621 1.279 1_556 S
C625 C623 1.358 . S
C625 H683 0.930 . S
C626 C629 1.348 . S
C626 C630 1.356 . S
C626 O677 1.325 . S
C627 N628 1.279 . S
C627 C630 1.358 . S
C627 H684 0.930 . S
N628 C627 1.279 . S
N628 C631 1.314 . S
C629 C626 1.348 . S
C629 C631 1.353 . S
C629 H685 0.929 . S
C630 C626 1.356 . S
C630 C627 1.358 . S
C630 H686 0.930 . S
C631 N628 1.314 . S
C631 C629 1.353 . S
C631 H687 0.930 . S
C632 N633 1.314 . S
C632 C637 1.353 . S
C632 H638 0.930 . S
N633 Li616 1.990 . S
N633 C632 1.314 . S
N633 C635 1.279 . S
C634 C635 1.358 . S
C634 C636 1.356 . S
C634 H688 0.930 . S
C635 N633 1.279 . S
C635 C634 1.358 . S
C635 H639 0.930 . S
C636 C634 1.356 . S
C636 C637 1.348 . S
C637 C632 1.353 . S
C637 C636 1.348 . S
C637 H689 0.929 . S
H638 C632 0.930 . S
H639 C635 0.930 . S
C640 N641 1.314 . S
C640 C642 1.353 . S
C640 H646 0.930 . S
N641 Li617 1.990 . S
N641 C640 1.314 . S
N641 C644 1.279 . S
C642 C640 1.353 . S
C642 C645 1.348 . S
C642 H690 0.929 . S
C643 C644 1.358 . S
C643 C645 1.356 . S
C643 H691 0.930 . S
C644 N641 1.279 . S
C644 C643 1.358 . S
C644 H647 0.930 . S
C645 C642 1.348 . S
C645 C643 1.356 . S
H646 C640 0.930 . S
H647 C644 0.930 . S
C648 C650 1.348 . S
C648 C651 1.356 . S
C648 O678 1.325 . S
N649 C652 1.314 . S
N649 C653 1.279 . S
C650 C648 1.348 . S
C650 C652 1.353 . S
C650 H692 0.929 . S
C651 C648 1.356 . S
C651 C653 1.358 . S
C651 H693 0.930 . S
C652 N649 1.314 . S
C652 C650 1.353 . S
C652 H694 0.930 . S
C653 N649 1.279 . S
C653 C651 1.358 . S
C653 H695 0.930 . S
C654 C655 1.348 . S
C654 C656 1.356 . S
C654 O679 1.325 . S
C655 C654 1.348 . S
C655 C657 1.353 . S
C655 H696 0.929 . S
C656 C654 1.356 . S
C656 C658 1.358 . S
C656 H697 0.930 . S
C657 C655 1.353 . S
C657 N659 1.314 . S
C657 H698 0.930 . S
C658 C656 1.358 . S
C658 N659 1.279 . S
C658 H699 0.930 . S
N659 C657 1.314 . S
N659 C658 1.279 . S
C660 C662 1.353 . S
C660 N663 1.314 1_554 S
C660 H666 0.930 . S
C661 N663 1.279 . S
C661 C664 1.358 . S
C661 H667 0.930 . S
C662 C660 1.353 . S
C662 C665 1.348 . S
C662 H700 0.929 . S
N663 Li618 1.990 . S
N663 C660 1.314 1_556 S
N663 C661 1.279 . S
C664 C661 1.358 . S
C664 C665 1.356 1_556 S
C664 H701 0.930 . S
C665 C662 1.348 . S
C665 C664 1.356 1_554 S
H666 C660 0.930 . S
H667 C661 0.930 . S
C668 N669 1.314 . S
C668 C670 1.353 . S
C668 H674 0.930 . S
N669 Li619 1.990 . S
N669 C668 1.314 . S
N669 C672 1.279 . S
C670 C668 1.353 . S
C670 C673 1.348 1_455 S
C670 H702 0.929 . S
C671 C672 1.358 1_655 S
C671 C673 1.356 . S
C671 H703 0.930 . S
C672 N669 1.279 . S
C672 C671 1.358 1_455 S
C672 H675 0.930 . S
C673 C670 1.348 1_655 S
C673 C671 1.356 . S
H674 C668 0.930 . S
H675 C672 0.930 . S
O676 Li616 1.956 . S
O676 Li617 1.970 1_556 S
O676 Li618 1.961 . S
O676 C620 1.325 . S
O677 Li616 1.970 . S
O677 Li617 1.956 1_556 S
O677 Li619 1.961 . S
O677 C626 1.325 . S
O678 Li616 1.961 . S
O678 Li618 1.956 . S
O678 Li619 1.970 . S
O678 C648 1.325 . S
O679 Li617 1.961 . S
O679 Li618 1.970 1_554 S
O679 Li619 1.956 1_554 S
O679 C654 1.325 . S
H680 C622 0.929 . S
H681 C623 0.930 . S
H682 C624 0.930 . S
H683 C625 0.930 . S
H684 C627 0.930 . S
H685 C629 0.929 . S
H686 C630 0.930 . S
H687 C631 0.930 . S
H688 C634 0.930 . S
H689 C637 0.929 . S
H690 C642 0.929 . S
H691 C643 0.930 . S
H692 C650 0.929 . S
H693 C651 0.930 . S
H694 C652 0.930 . S
H695 C653 0.930 . S
H696 C655 0.929 . S
H697 C656 0.930 . S
H698 C657 0.930 . S
H699 C658 0.930 . S
H700 C662 0.929 . S
H701 C664 0.930 . S
H702 C670 0.929 . S
H703 C671 0.930 . S
Li704 N721 1.990 . S
Li704 O764 1.956 . S
Li704 O765 1.970 1_556 S
Li704 O766 1.961 . S
Li705 N729 1.990 . S
Li705 O764 1.970 . S
Li705 O765 1.956 1_556 S
Li705 O767 1.961 . S
Li706 N751 1.990 . S
Li706 O764 1.961 . S
Li706 O766 1.956 . S
Li706 O767 1.970 . S
Li707 N757 1.990 . S
Li707 O765 1.961 . S
Li707 O766 1.970 1_554 S
Li707 O767 1.956 1_554 S
C708 C710 1.348 . S
C708 C711 1.356 . S
C708 O764 1.325 . S
N709 C712 1.314 . S
N709 C713 1.279 . S
C710 C708 1.348 . S
C710 C712 1.353 . S
C710 H768 0.929 . S
C711 C708 1.356 . S
C711 C713 1.358 . S
C711 H769 0.930 . S
C712 N709 1.314 . S
C712 C710 1.353 . S
C712 H770 0.930 . S
C713 N709 1.279 . S
C713 C711 1.358 . S
C713 H771 0.930 . S
C714 C717 1.348 . S
C714 C718 1.356 . S
C714 O765 1.325 . S
C715 N716 1.279 . S
C715 C718 1.358 . S
C715 H772 0.930 . S
N716 C715 1.279 . S
N716 C719 1.314 . S
C717 C714 1.348 . S
C717 C719 1.353 . S
C717 H773 0.929 . S
C718 C714 1.356 . S
C718 C715 1.358 . S
C718 H774 0.930 . S
C719 N716 1.314 . S
C719 C717 1.353 . S
C719 H775 0.930 . S
C720 N721 1.314 1_554 S
C720 C725 1.353 . S
C720 H726 0.930 . S
N721 Li704 1.990 . S
N721 C720 1.314 1_556 S
N721 C723 1.279 . S
C722 C723 1.358 . S
C722 C724 1.356 1_556 S
C722 H776 0.930 . S
C723 N721 1.279 . S
C723 C722 1.358 . S
C723 H727 0.930 . S
C724 C722 1.356 1_554 S
C724 C725 1.348 . S
C725 C720 1.353 . S
C725 C724 1.348 . S
C725 H777 0.929 . S
H726 C720 0.930 . S
H727 C723 0.930 . S
C728 N729 1.314 . S
C728 C730 1.353 . S
C728 H734 0.930 . S
N729 Li705 1.990 . S
N729 C728 1.314 . S
N729 C732 1.279 . S
C730 C728 1.353 . S
C730 C733 1.348 . S
C730 H778 0.929 . S
C731 C732 1.358 . S
C731 C733 1.356 . S
C731 H779 0.930 . S
C732 N729 1.279 . S
C732 C731 1.358 . S
C732 H735 0.930 . S
C733 C730 1.348 . S
C733 C731 1.356 . S
H734 C728 0.930 . S
H735 C732 0.930 . S
C736 C738 1.348 1_556 S
C736 C739 1.356 . S
C736 O766 1.325 . S
N737 C740 1.314 . S
N737 C741 1.279 1_554 S
C738 C736 1.348 1_554 S
C738 C740 1.353 . S
C738 H780 0.929 . S
C739 C736 1.356 . S
C739 C741 1.358 . S
C739 H781 0.930 . S
C740 N737 1.314 . S
C740 C738 1.353 . S
C740 H782 0.930 . S
C741 N737 1.279 1_556 S
C741 C739 1.358 . S
C741 H783 0.930 . S
C742 C743 1.348 . S
C742 C744 1.356 . S
C742 O767 1.325 . S
C743 C742 1.348 . S
C743 C745 1.353 . S
C743 H784 0.929 . S
C744 C742 1.356 . S
C744 C746 1.358 . S
C744 H785 0.930 . S
C745 C743 1.353 . S
C745 N747 1.314 . S
C745 H786 0.930 . S
C746 C744 1.358 . S
C746 N747 1.279 . S
C746 H787 0.930 . S
N747 C745 1.314 . S
N747 C746 1.279 . S
C748 C750 1.353 . S
C748 N751 1.314 . S
C748 H754 0.930 . S
C749 N751 1.279 . S
C749 C752 1.358 . S
C749 H755 0.930 . S
C750 C748 1.353 . S
C750 C753 1.348 . S
C750 H788 0.929 . S
N751 Li706 1.990 . S
N751 C748 1.314 . S
N751 C749 1.279 . S
C752 C749 1.358 . S
C752 C753 1.356 . S
C752 H789 0.930 . S
C753 C750 1.348 . S
C753 C752 1.356 . S
H754 C748 0.930 . S
H755 C749 0.930 . S
C756 N757 1.314 . S
C756 C758 1.353 . S
C756 H762 0.930 . S
N757 Li707 1.990 . S
N757 C756 1.314 . S
N757 C760 1.279 . S
C758 C756 1.353 . S
C758 C761 1.348 . S
C758 H790 0.929 . S
C759 C760 1.358 . S
C759 C761 1.356 . S
C759 H791 0.930 . S
C760 N757 1.279 . S
C760 C759 1.358 . S
C760 H763 0.930 . S
C761 C758 1.348 . S
C761 C759 1.356 . S
H762 C756 0.930 . S
H763 C760 0.930 . S
O764 Li704 1.956 . S
O764 Li705 1.970 . S
O764 Li706 1.961 . S
O764 C708 1.325 . S
O765 Li704 1.970 1_554 S
O765 Li705 1.956 1_554 S
O765 Li707 1.961 . S
O765 C714 1.325 . S
O766 Li704 1.961 . S
O766 Li706 1.956 . S
O766 Li707 1.970 1_556 S
O766 C736 1.325 . S
O767 Li705 1.961 . S
O767 Li706 1.970 . S
O767 Li707 1.956 1_556 S
O767 C742 1.325 . S
H768 C710 0.929 . S
H769 C711 0.930 . S
H770 C712 0.930 . S
H771 C713 0.930 . S
H772 C715 0.930 . S
H773 C717 0.929 . S
H774 C718 0.930 . S
H775 C719 0.930 . S
H776 C722 0.930 . S
H777 C725 0.929 . S
H778 C730 0.929 . S
H779 C731 0.930 . S
H780 C738 0.929 . S
H781 C739 0.930 . S
H782 C740 0.930 . S
H783 C741 0.930 . S
H784 C743 0.929 . S
H785 C744 0.930 . S
H786 C745 0.930 . S
H787 C746 0.930 . S
H788 C750 0.929 . S
H789 C752 0.930 . S
H790 C758 0.929 . S
H791 C759 0.930 . S
Li792 N809 1.990 . S
Li792 O852 1.956 . S
Li792 O853 1.970 . S
Li792 O854 1.961 . S
Li793 N817 1.990 . S
Li793 O852 1.970 . S
Li793 O853 1.956 . S
Li793 O855 1.961 . S
Li794 N839 1.990 . S
Li794 O852 1.961 . S
Li794 O854 1.956 . S
Li794 O855 1.970 . S
Li795 N845 1.990 . S
Li795 O853 1.961 . S
Li795 O854 1.970 . S
Li795 O855 1.956 . S
C796 C798 1.348 . S
C796 C799 1.356 . S
C796 O852 1.325 . S
N797 C800 1.314 . S
N797 C801 1.279 . S
C798 C796 1.348 . S
C798 C800 1.353 . S
C798 H856 0.929 . S
C799 C796 1.356 . S
C799 C801 1.358 . S
C799 H857 0.930 . S
C800 N797 1.314 . S
C800 C798 1.353 . S
C800 H858 0.930 . S
C801 N797 1.279 . S
C801 C799 1.358 . S
C801 H859 0.930 . S
C802 C805 1.348 . S
C802 C806 1.356 . S
C802 O853 1.325 . S
C803 N804 1.279 . S
C803 C806 1.358 . S
C803 H860 0.930 . S
N804 C803 1.279 . S
N804 C807 1.314 . S
C805 C802 1.348 . S
C805 C807 1.353 . S
C805 H861 0.929 . S
C806 C802 1.356 . S
C806 C803 1.358 . S
C806 H862 0.930 . S
C807 N804 1.314 . S
C807 C805 1.353 . S
C807 H863 0.930 . S
C808 N809 1.314 . S
C808 C813 1.353 . S
C808 H814 0.930 . S
N809 Li792 1.990 . S
N809 C808 1.314 . S
N809 C811 1.279 . S
C810 C811 1.358 1_455 S
C810 C812 1.356 . S
C810 H864 0.930 . S
C811 N809 1.279 . S
C811 C810 1.358 1_655 S
C811 H815 0.930 . S
C812 C810 1.356 . S
C812 C813 1.348 1_455 S
C813 C808 1.353 . S
C813 C812 1.348 1_655 S
C813 H865 0.929 . S
H814 C808 0.930 . S
H815 C811 0.930 . S
C816 N817 1.314 . S
C816 C818 1.353 . S
C816 H822 0.930 . S
N817 Li793 1.990 . S
N817 C816 1.314 . S
N817 C820 1.279 . S
C818 C816 1.353 . S
C818 C821 1.348 . S
C818 H866 0.929 . S
C819 C820 1.358 . S
C819 C821 1.356 . S
C819 H867 0.930 . S
C820 N817 1.279 . S
C820 C819 1.358 . S
C820 H823 0.930 . S
C821 C818 1.348 . S
C821 C819 1.356 . S
H822 C816 0.930 . S
H823 C820 0.930 . S
C824 C826 1.348 . S
C824 C827 1.356 . S
C824 O854 1.325 . S
N825 C828 1.314 . S
N825 C829 1.279 . S
C826 C824 1.348 . S
C826 C828 1.353 . S
C826 H868 0.929 . S
C827 C824 1.356 . S
C827 C829 1.358 . S
C827 H869 0.930 . S
C828 N825 1.314 . S
C828 C826 1.353 . S
C828 H870 0.930 . S
C829 N825 1.279 . S
C829 C827 1.358 . S
C829 H871 0.930 . S
C830 C831 1.348 . S
C830 C832 1.356 . S
C830 O855 1.325 . S
C831 C830 1.348 . S
C831 C833 1.353 . S
C831 H872 0.929 . S
C832 C830 1.356 . S
C832 C834 1.358 . S
C832 H873 0.930 . S
C833 C831 1.353 . S
C833 N835 1.314 . S
C833 H874 0.930 . S
C834 C832 1.358 . S
C834 N835 1.279 . S
C834 H875 0.930 . S
N835 C833 1.314 . S
N835 C834 1.279 . S
C836 C838 1.353 . S
C836 N839 1.314 . S
C836 H842 0.930 . S
C837 N839 1.279 . S
C837 C840 1.358 . S
C837 H843 0.930 . S
C838 C836 1.353 . S
C838 C841 1.348 . S
C838 H876 0.929 . S
N839 Li794 1.990 . S
N839 C836 1.314 . S
N839 C837 1.279 . S
C840 C837 1.358 . S
C840 C841 1.356 . S
C840 H877 0.930 . S
C841 C838 1.348 . S
C841 C840 1.356 . S
H842 C836 0.930 . S
H843 C837 0.930 . S
C844 N845 1.314 . S
C844 C846 1.353 . S
C844 H850 0.930 . S
N845 Li795 1.990 . S
N845 C844 1.314 . S
N845 C848 1.279 . S
C846 C844 1.353 . S
C846 C849 1.348 . S
C846 H878 0.929 . S
C847 C848 1.358 . S
C847 C849 1.356 . S
C847 H879 0.930 . S
C848 N845 1.279 . S
C848 C847 1.358 . S
C848 H851 0.930 . S
C849 C846 1.348 . S
C849 C847 1.356 . S
H850 C844 0.930 . S
H851 C848 0.930 . S
O852 Li792 1.956 . S
O852 Li793 1.970 . S
O852 Li794 1.961 . S
O852 C796 1.325 . S
O853 Li792 1.970 . S
O853 Li793 1.956 . S
O853 Li795 1.961 . S
O853 C802 1.325 . S
O854 Li792 1.961 . S
O854 Li794 1.956 . S
O854 Li795 1.970 . S
O854 C824 1.325 . S
O855 Li793 1.961 . S
O855 Li794 1.970 . S
O855 Li795 1.956 . S
O855 C830 1.325 . S
H856 C798 0.929 . S
H857 C799 0.930 . S
H858 C800 0.930 . S
H859 C801 0.930 . S
H860 C803 0.930 . S
H861 C805 0.929 . S
H862 C806 0.930 . S
H863 C807 0.930 . S
H864 C810 0.930 . S
H865 C813 0.929 . S
H866 C818 0.929 . S
H867 C819 0.930 . S
H868 C826 0.929 . S
H869 C827 0.930 . S
H870 C828 0.930 . S
H871 C829 0.930 . S
H872 C831 0.929 . S
H873 C832 0.930 . S
H874 C833 0.930 . S
H875 C834 0.930 . S
H876 C838 0.929 . S
H877 C840 0.930 . S
H878 C846 0.929 . S
H879 C847 0.930 . S
Li880 N897 1.990 . S
Li880 O940 1.956 . S
Li880 O941 1.970 . S
Li880 O942 1.961 . S
Li881 N905 1.990 . S
Li881 O940 1.970 . S
Li881 O941 1.956 . S
Li881 O943 1.961 . S
Li882 N927 1.990 . S
Li882 O940 1.961 . S
Li882 O942 1.956 . S
Li882 O943 1.970 . S
Li883 N933 1.990 . S
Li883 O941 1.961 . S
Li883 O942 1.970 . S
Li883 O943 1.956 . S
C884 C886 1.348 . S
C884 C887 1.356 . S
C884 O940 1.325 . S
N885 C888 1.314 . S
N885 C889 1.279 . S
C886 C884 1.348 . S
C886 C888 1.353 . S
C886 H944 0.929 . S
C887 C884 1.356 . S
C887 C889 1.358 . S
C887 H945 0.930 . S
C888 N885 1.314 . S
C888 C886 1.353 . S
C888 H946 0.930 . S
C889 N885 1.279 . S
C889 C887 1.358 . S
C889 H947 0.930 . S
C890 C893 1.348 . S
C890 C894 1.356 . S
C890 O941 1.325 . S
C891 N892 1.279 . S
C891 C894 1.358 . S
C891 H948 0.930 . S
N892 C891 1.279 . S
N892 C895 1.314 . S
C893 C890 1.348 . S
C893 C895 1.353 . S
C893 H949 0.929 . S
C894 C890 1.356 . S
C894 C891 1.358 . S
C894 H950 0.930 . S
C895 N892 1.314 . S
C895 C893 1.353 . S
C895 H951 0.930 . S
C896 N897 1.314 . S
C896 C901 1.353 . S
C896 H902 0.930 . S
N897 Li880 1.990 . S
N897 C896 1.314 . S
N897 C899 1.279 . S
C898 C899 1.358 . S
C898 C900 1.356 . S
C898 H952 0.930 . S
C899 N897 1.279 . S
C899 C898 1.358 . S
C899 H903 0.930 . S
C900 C898 1.356 . S
C900 C901 1.348 . S
C901 C896 1.353 . S
C901 C900 1.348 . S
C901 H953 0.929 . S
H902 C896 0.930 . S
H903 C899 0.930 . S
C904 N905 1.314 . S
C904 C906 1.353 . S
C904 H910 0.930 . S
N905 Li881 1.990 . S
N905 C904 1.314 . S
N905 C908 1.279 . S
C906 C904 1.353 . S
C906 C909 1.348 . S
C906 H954 0.929 . S
C907 C908 1.358 . S
C907 C909 1.356 . S
C907 H955 0.930 . S
C908 N905 1.279 . S
C908 C907 1.358 . S
C908 H911 0.930 . S
C909 C906 1.348 . S
C909 C907 1.356 . S
H910 C904 0.930 . S
H911 C908 0.930 . S
C912 C914 1.348 . S
C912 C915 1.356 . S
C912 O942 1.325 . S
N913 C916 1.314 . S
N913 C917 1.279 . S
C914 C912 1.348 . S
C914 C916 1.353 . S
C914 H956 0.929 . S
C915 C912 1.356 . S
C915 C917 1.358 . S
C915 H957 0.930 . S
C916 N913 1.314 . S
C916 C914 1.353 . S
C916 H958 0.930 . S
C917 N913 1.279 . S
C917 C915 1.358 . S
C917 H959 0.930 . S
C918 C919 1.348 . S
C918 C920 1.356 . S
C918 O943 1.325 . S
C919 C918 1.348 . S
C919 C921 1.353 . S
C919 H960 0.929 . S
C920 C918 1.356 . S
C920 C922 1.358 . S
C920 H961 0.930 . S
C921 C919 1.353 . S
C921 N923 1.314 . S
C921 H962 0.930 . S
C922 C920 1.358 . S
C922 N923 1.279 . S
C922 H963 0.930 . S
N923 C921 1.314 . S
N923 C922 1.279 . S
C924 C926 1.353 . S
C924 N927 1.314 . S
C924 H930 0.930 . S
C925 N927 1.279 . S
C925 C928 1.358 . S
C925 H931 0.930 . S
C926 C924 1.353 . S
C926 C929 1.348 . S
C926 H964 0.929 . S
N927 Li882 1.990 . S
N927 C924 1.314 . S
N927 C925 1.279 . S
C928 C925 1.358 . S
C928 C929 1.356 . S
C928 H965 0.930 . S
C929 C926 1.348 . S
C929 C928 1.356 . S
H930 C924 0.930 . S
H931 C925 0.930 . S
C932 N933 1.314 . S
C932 C934 1.353 . S
C932 H938 0.930 . S
N933 Li883 1.990 . S
N933 C932 1.314 . S
N933 C936 1.279 . S
C934 C932 1.353 . S
C934 C937 1.348 . S
C934 H966 0.929 . S
C935 C936 1.358 . S
C935 C937 1.356 . S
C935 H967 0.930 . S
C936 N933 1.279 . S
C936 C935 1.358 . S
C936 H939 0.930 . S
C937 C934 1.348 . S
C937 C935 1.356 . S
H938 C932 0.930 . S
H939 C936 0.930 . S
O940 Li880 1.956 . S
O940 Li881 1.970 . S
O940 Li882 1.961 . S
O940 C884 1.325 . S
O941 Li880 1.970 . S
O941 Li881 1.956 . S
O941 Li883 1.961 . S
O941 C890 1.325 . S
O942 Li880 1.961 . S
O942 Li882 1.956 . S
O942 Li883 1.970 . S
O942 C912 1.325 . S
O943 Li881 1.961 . S
O943 Li882 1.970 . S
O943 Li883 1.956 . S
O943 C918 1.325 . S
H944 C886 0.929 . S
H945 C887 0.930 . S
H946 C888 0.930 . S
H947 C889 0.930 . S
H948 C891 0.930 . S
H949 C893 0.929 . S
H950 C894 0.930 . S
H951 C895 0.930 . S
H952 C898 0.930 . S
H953 C901 0.929 . S
H954 C906 0.929 . S
H955 C907 0.930 . S
H956 C914 0.929 . S
H957 C915 0.930 . S
H958 C916 0.930 . S
H959 C917 0.930 . S
H960 C919 0.929 . S
H961 C920 0.930 . S
H962 C921 0.930 . S
H963 C922 0.930 . S
H964 C926 0.929 . S
H965 C928 0.930 . S
H966 C934 0.929 . S
H967 C935 0.930 . S
Li968 N985 1.990 . S
Li968 O1028 1.956 . S
Li968 O1029 1.970 . S
Li968 O1030 1.961 . S
Li969 N993 1.990 . S
Li969 O1028 1.970 . S
Li969 O1029 1.956 . S
Li969 O1031 1.961 . S
Li970 N1015 1.990 . S
Li970 O1028 1.961 . S
Li970 O1030 1.956 . S
Li970 O1031 1.970 . S
Li971 N1021 1.990 . S
Li971 O1029 1.961 . S
Li971 O1030 1.970 . S
Li971 O1031 1.956 . S
C972 C974 1.348 . S
C972 C975 1.356 . S
C972 O1028 1.325 . S
N973 C976 1.314 . S
N973 C977 1.279 . S
C974 C972 1.348 . S
C974 C976 1.353 . S
C974 H1032 0.929 . S
C975 C972 1.356 . S
C975 C977 1.358 . S
C975 H1033 0.930 . S
C976 N973 1.314 . S
C976 C974 1.353 . S
C976 H1034 0.930 . S
C977 N973 1.279 . S
C977 C975 1.358 . S
C977 H1035 0.930 . S
C978 C981 1.348 . S
C978 C982 1.356 . S
C978 O1029 1.325 . S
C979 N980 1.279 . S
C979 C982 1.358 . S
C979 H1036 0.930 . S
N980 C979 1.279 . S
N980 C983 1.314 . S
C981 C978 1.348 . S
C981 C983 1.353 . S
C981 H1037 0.929 . S
C982 C978 1.356 . S
C982 C979 1.358 . S
C982 H1038 0.930 . S
C983 N980 1.314 . S
C983 C981 1.353 . S
C983 H1039 0.930 . S
C984 N985 1.314 . S
C984 C989 1.353 . S
C984 H990 0.930 . S
N985 Li968 1.990 . S
N985 C984 1.314 . S
N985 C987 1.279 . S
C986 C987 1.358 . S
C986 C988 1.356 . S
C986 H1040 0.930 . S
C987 N985 1.279 . S
C987 C986 1.358 . S
C987 H991 0.930 . S
C988 C986 1.356 . S
C988 C989 1.348 . S
C989 C984 1.353 . S
C989 C988 1.348 . S
C989 H1041 0.929 . S
H990 C984 0.930 . S
H991 C987 0.930 . S
C992 N993 1.314 . S
C992 C994 1.353 . S
C992 H998 0.930 . S
N993 Li969 1.990 . S
N993 C992 1.314 . S
N993 C996 1.279 . S
C994 C992 1.353 . S
C994 C997 1.348 . S
C994 H1042 0.929 . S
C995 C996 1.358 . S
C995 C997 1.356 . S
C995 H1043 0.930 . S
C996 N993 1.279 . S
C996 C995 1.358 . S
C996 H999 0.930 . S
C997 C994 1.348 . S
C997 C995 1.356 . S
H998 C992 0.930 . S
H999 C996 0.930 . S
C1000 C1002 1.348 . S
C1000 C1003 1.356 . S
C1000 O1030 1.325 . S
N1001 C1004 1.314 . S
N1001 C1005 1.279 . S
C1002 C1000 1.348 . S
C1002 C1004 1.353 . S
C1002 H1044 0.929 . S
C1003 C1000 1.356 . S
C1003 C1005 1.358 . S
C1003 H1045 0.930 . S
C1004 N1001 1.314 . S
C1004 C1002 1.353 . S
C1004 H1046 0.930 . S
C1005 N1001 1.279 . S
C1005 C1003 1.358 . S
C1005 H1047 0.930 . S
C1006 C1007 1.348 . S
C1006 C1008 1.356 . S
C1006 O1031 1.325 . S
C1007 C1006 1.348 . S
C1007 C1009 1.353 . S
C1007 H1048 0.929 . S
C1008 C1006 1.356 . S
C1008 C1010 1.358 . S
C1008 H1049 0.930 . S
C1009 C1007 1.353 . S
C1009 N1011 1.314 . S
C1009 H1050 0.930 . S
C1010 C1008 1.358 . S
C1010 N1011 1.279 . S
C1010 H1051 0.930 . S
N1011 C1009 1.314 . S
N1011 C1010 1.279 . S
C1012 C1014 1.353 . S
C1012 N1015 1.314 . S
C1012 H1018 0.930 . S
C1013 N1015 1.279 . S
C1013 C1016 1.358 1_545 S
C1013 H1019 0.930 . S
C1014 C1012 1.353 . S
C1014 C1017 1.348 1_545 S
C1014 H1052 0.929 . S
N1015 Li970 1.990 . S
N1015 C1012 1.314 . S
N1015 C1013 1.279 . S
C1016 C1013 1.358 1_565 S
C1016 C1017 1.356 . S
C1016 H1053 0.930 . S
C1017 C1014 1.348 1_565 S
C1017 C1016 1.356 . S
H1018 C1012 0.930 . S
H1019 C1013 0.930 . S
C1020 N1021 1.314 . S
C1020 C1022 1.353 . S
C1020 H1026 0.930 . S
N1021 Li971 1.990 . S
N1021 C1020 1.314 . S
N1021 C1024 1.279 . S
C1022 C1020 1.353 . S
C1022 C1025 1.348 . S
C1022 H1054 0.929 . S
C1023 C1024 1.358 . S
C1023 C1025 1.356 . S
C1023 H1055 0.930 . S
C1024 N1021 1.279 . S
C1024 C1023 1.358 . S
C1024 H1027 0.930 . S
C1025 C1022 1.348 . S
C1025 C1023 1.356 . S
H1026 C1020 0.930 . S
H1027 C1024 0.930 . S
O1028 Li968 1.956 . S
O1028 Li969 1.970 . S
O1028 Li970 1.961 . S
O1028 C972 1.325 . S
O1029 Li968 1.970 . S
O1029 Li969 1.956 . S
O1029 Li971 1.961 . S
O1029 C978 1.325 . S
O1030 Li968 1.961 . S
O1030 Li970 1.956 . S
O1030 Li971 1.970 . S
O1030 C1000 1.325 . S
O1031 Li969 1.961 . S
O1031 Li970 1.970 . S
O1031 Li971 1.956 . S
O1031 C1006 1.325 . S
H1032 C974 0.929 . S
H1033 C975 0.930 . S
H1034 C976 0.930 . S
H1035 C977 0.930 . S
H1036 C979 0.930 . S
H1037 C981 0.929 . S
H1038 C982 0.930 . S
H1039 C983 0.930 . S
H1040 C986 0.930 . S
H1041 C989 0.929 . S
H1042 C994 0.929 . S
H1043 C995 0.930 . S
H1044 C1002 0.929 . S
H1045 C1003 0.930 . S
H1046 C1004 0.930 . S
H1047 C1005 0.930 . S
H1048 C1007 0.929 . S
H1049 C1008 0.930 . S
H1050 C1009 0.930 . S
H1051 C1010 0.930 . S
H1052 C1014 0.929 . S
H1053 C1016 0.930 . S
H1054 C1022 0.929 . S
H1055 C1023 0.930 . S
Li1056 N1073 1.990 . S
Li1056 O1116 1.956 . S
Li1056 O1117 1.970 . S
Li1056 O1118 1.961 . S
Li1057 N1081 1.990 . S
Li1057 O1116 1.970 . S
Li1057 O1117 1.956 . S
Li1057 O1119 1.961 . S
Li1058 N1103 1.990 . S
Li1058 O1116 1.961 . S
Li1058 O1118 1.956 . S
Li1058 O1119 1.970 . S
Li1059 N1109 1.990 . S
Li1059 O1117 1.961 . S
Li1059 O1118 1.970 . S
Li1059 O1119 1.956 . S
C1060 C1062 1.348 . S
C1060 C1063 1.356 . S
C1060 O1116 1.325 . S
N1061 C1064 1.314 . S
N1061 C1065 1.279 . S
C1062 C1060 1.348 . S
C1062 C1064 1.353 . S
C1062 H1120 0.929 . S
C1063 C1060 1.356 . S
C1063 C1065 1.358 . S
C1063 H1121 0.930 . S
C1064 N1061 1.314 . S
C1064 C1062 1.353 . S
C1064 H1122 0.930 . S
C1065 N1061 1.279 . S
C1065 C1063 1.358 . S
C1065 H1123 0.930 . S
C1066 C1069 1.348 . S
C1066 C1070 1.356 . S
C1066 O1117 1.325 . S
C1067 N1068 1.279 . S
C1067 C1070 1.358 . S
C1067 H1124 0.930 . S
N1068 C1067 1.279 . S
N1068 C1071 1.314 . S
C1069 C1066 1.348 . S
C1069 C1071 1.353 . S
C1069 H1125 0.929 . S
C1070 C1066 1.356 . S
C1070 C1067 1.358 . S
C1070 H1126 0.930 . S
C1071 N1068 1.314 . S
C1071 C1069 1.353 . S
C1071 H1127 0.930 . S
C1072 N1073 1.314 . S
C1072 C1077 1.353 . S
C1072 H1078 0.930 . S
N1073 Li1056 1.990 . S
N1073 C1072 1.314 . S
N1073 C1075 1.279 . S
C1074 C1075 1.358 . S
C1074 C1076 1.356 . S
C1074 H1128 0.930 . S
C1075 N1073 1.279 . S
C1075 C1074 1.358 . S
C1075 H1079 0.930 . S
C1076 C1074 1.356 . S
C1076 C1077 1.348 . S
C1077 C1072 1.353 . S
C1077 C1076 1.348 . S
C1077 H1129 0.929 . S
H1078 C1072 0.930 . S
H1079 C1075 0.930 . S
C1080 N1081 1.314 . S
C1080 C1082 1.353 . S
C1080 H1086 0.930 . S
N1081 Li1057 1.990 . S
N1081 C1080 1.314 . S
N1081 C1084 1.279 . S
C1082 C1080 1.353 . S
C1082 C1085 1.348 . S
C1082 H1130 0.929 . S
C1083 C1084 1.358 . S
C1083 C1085 1.356 . S
C1083 H1131 0.930 . S
C1084 N1081 1.279 . S
C1084 C1083 1.358 . S
C1084 H1087 0.930 . S
C1085 C1082 1.348 . S
C1085 C1083 1.356 . S
H1086 C1080 0.930 . S
H1087 C1084 0.930 . S
C1088 C1090 1.348 . S
C1088 C1091 1.356 . S
C1088 O1118 1.325 . S
N1089 C1092 1.314 . S
N1089 C1093 1.279 . S
C1090 C1088 1.348 . S
C1090 C1092 1.353 . S
C1090 H1132 0.929 . S
C1091 C1088 1.356 . S
C1091 C1093 1.358 . S
C1091 H1133 0.930 . S
C1092 N1089 1.314 . S
C1092 C1090 1.353 . S
C1092 H1134 0.930 . S
C1093 N1089 1.279 . S
C1093 C1091 1.358 . S
C1093 H1135 0.930 . S
C1094 C1095 1.348 . S
C1094 C1096 1.356 . S
C1094 O1119 1.325 . S
C1095 C1094 1.348 . S
C1095 C1097 1.353 . S
C1095 H1136 0.929 . S
C1096 C1094 1.356 . S
C1096 C1098 1.358 . S
C1096 H1137 0.930 . S
C1097 C1095 1.353 . S
C1097 N1099 1.314 . S
C1097 H1138 0.930 . S
C1098 C1096 1.358 . S
C1098 N1099 1.279 . S
C1098 H1139 0.930 . S
N1099 C1097 1.314 . S
N1099 C1098 1.279 . S
C1100 C1102 1.353 . S
C1100 N1103 1.314 . S
C1100 H1106 0.930 . S
C1101 N1103 1.279 . S
C1101 C1104 1.358 . S
C1101 H1107 0.930 . S
C1102 C1100 1.353 . S
C1102 C1105 1.348 . S
C1102 H1140 0.929 . S
N1103 Li1058 1.990 . S
N1103 C1100 1.314 . S
N1103 C1101 1.279 . S
C1104 C1101 1.358 . S
C1104 C1105 1.356 . S
C1104 H1141 0.930 . S
C1105 C1102 1.348 . S
C1105 C1104 1.356 . S
H1106 C1100 0.930 . S
H1107 C1101 0.930 . S
C1108 N1109 1.314 . S
C1108 C1110 1.353 . S
C1108 H1114 0.930 . S
N1109 Li1059 1.990 . S
N1109 C1108 1.314 . S
N1109 C1112 1.279 . S
C1110 C1108 1.353 . S
C1110 C1113 1.348 . S
C1110 H1142 0.929 . S
C1111 C1112 1.358 . S
C1111 C1113 1.356 . S
C1111 H1143 0.930 . S
C1112 N1109 1.279 . S
C1112 C1111 1.358 . S
C1112 H1115 0.930 . S
C1113 C1110 1.348 . S
C1113 C1111 1.356 . S
H1114 C1108 0.930 . S
H1115 C1112 0.930 . S
O1116 Li1056 1.956 . S
O1116 Li1057 1.970 . S
O1116 Li1058 1.961 . S
O1116 C1060 1.325 . S
O1117 Li1056 1.970 . S
O1117 Li1057 1.956 . S
O1117 Li1059 1.961 . S
O1117 C1066 1.325 . S
O1118 Li1056 1.961 . S
O1118 Li1058 1.956 . S
O1118 Li1059 1.970 . S
O1118 C1088 1.325 . S
O1119 Li1057 1.961 . S
O1119 Li1058 1.970 . S
O1119 Li1059 1.956 . S
O1119 C1094 1.325 . S
H1120 C1062 0.929 . S
H1121 C1063 0.930 . S
H1122 C1064 0.930 . S
H1123 C1065 0.930 . S
H1124 C1067 0.930 . S
H1125 C1069 0.929 . S
H1126 C1070 0.930 . S
H1127 C1071 0.930 . S
H1128 C1074 0.930 . S
H1129 C1077 0.929 . S
H1130 C1082 0.929 . S
H1131 C1083 0.930 . S
H1132 C1090 0.929 . S
H1133 C1091 0.930 . S
H1134 C1092 0.930 . S
H1135 C1093 0.930 . S
H1136 C1095 0.929 . S
H1137 C1096 0.930 . S
H1138 C1097 0.930 . S
H1139 C1098 0.930 . S
H1140 C1102 0.929 . S
H1141 C1104 0.930 . S
H1142 C1110 0.929 . S
H1143 C1111 0.930 . S
Li1144 N1161 1.990 . S
Li1144 O1204 1.956 . S
Li1144 O1205 1.970 . S
Li1144 O1206 1.961 . S
Li1145 N1169 1.990 . S
Li1145 O1204 1.970 . S
Li1145 O1205 1.956 . S
Li1145 O1207 1.961 . S
Li1146 N1191 1.990 . S
Li1146 O1204 1.961 . S
Li1146 O1206 1.956 . S
Li1146 O1207 1.970 . S
Li1147 N1197 1.990 . S
Li1147 O1205 1.961 . S
Li1147 O1206 1.970 . S
Li1147 O1207 1.956 . S
C1148 C1150 1.348 . S
C1148 C1151 1.356 . S
C1148 O1204 1.325 . S
N1149 C1152 1.314 . S
N1149 C1153 1.279 . S
C1150 C1148 1.348 . S
C1150 C1152 1.353 . S
C1150 H1208 0.929 . S
C1151 C1148 1.356 . S
C1151 C1153 1.358 . S
C1151 H1209 0.930 . S
C1152 N1149 1.314 . S
C1152 C1150 1.353 . S
C1152 H1210 0.930 . S
C1153 N1149 1.279 . S
C1153 C1151 1.358 . S
C1153 H1211 0.930 . S
C1154 C1157 1.348 . S
C1154 C1158 1.356 . S
C1154 O1205 1.325 . S
C1155 N1156 1.279 . S
C1155 C1158 1.358 . S
C1155 H1212 0.930 . S
N1156 C1155 1.279 . S
N1156 C1159 1.314 . S
C1157 C1154 1.348 . S
C1157 C1159 1.353 . S
C1157 H1213 0.929 . S
C1158 C1154 1.356 . S
C1158 C1155 1.358 . S
C1158 H1214 0.930 . S
C1159 N1156 1.314 . S
C1159 C1157 1.353 . S
C1159 H1215 0.930 . S
C1160 N1161 1.314 . S
C1160 C1165 1.353 . S
C1160 H1166 0.930 . S
N1161 Li1144 1.990 . S
N1161 C1160 1.314 . S
N1161 C1163 1.279 . S
C1162 C1163 1.358 . S
C1162 C1164 1.356 . S
C1162 H1216 0.930 . S
C1163 N1161 1.279 . S
C1163 C1162 1.358 . S
C1163 H1167 0.930 . S
C1164 C1162 1.356 . S
C1164 C1165 1.348 . S
C1165 C1160 1.353 . S
C1165 C1164 1.348 . S
C1165 H1217 0.929 . S
H1166 C1160 0.930 . S
H1167 C1163 0.930 . S
C1168 N1169 1.314 . S
C1168 C1170 1.353 . S
C1168 H1174 0.930 . S
N1169 Li1145 1.990 . S
N1169 C1168 1.314 . S
N1169 C1172 1.279 . S
C1170 C1168 1.353 . S
C1170 C1173 1.348 . S
C1170 H1218 0.929 . S
C1171 C1172 1.358 . S
C1171 C1173 1.356 . S
C1171 H1219 0.930 . S
C1172 N1169 1.279 . S
C1172 C1171 1.358 . S
C1172 H1175 0.930 . S
C1173 C1170 1.348 . S
C1173 C1171 1.356 . S
H1174 C1168 0.930 . S
H1175 C1172 0.930 . S
C1176 C1178 1.348 . S
C1176 C1179 1.356 . S
C1176 O1206 1.325 . S
N1177 C1180 1.314 . S
N1177 C1181 1.279 . S
C1178 C1176 1.348 . S
C1178 C1180 1.353 . S
C1178 H1220 0.929 . S
C1179 C1176 1.356 . S
C1179 C1181 1.358 . S
C1179 H1221 0.930 . S
C1180 N1177 1.314 . S
C1180 C1178 1.353 . S
C1180 H1222 0.930 . S
C1181 N1177 1.279 . S
C1181 C1179 1.358 . S
C1181 H1223 0.930 . S
C1182 C1183 1.348 . S
C1182 C1184 1.356 . S
C1182 O1207 1.325 . S
C1183 C1182 1.348 . S
C1183 C1185 1.353 . S
C1183 H1224 0.929 . S
C1184 C1182 1.356 . S
C1184 C1186 1.358 . S
C1184 H1225 0.930 . S
C1185 C1183 1.353 . S
C1185 N1187 1.314 . S
C1185 H1226 0.930 . S
C1186 C1184 1.358 . S
C1186 N1187 1.279 . S
C1186 H1227 0.930 . S
N1187 C1185 1.314 . S
N1187 C1186 1.279 . S
C1188 C1190 1.353 . S
C1188 N1191 1.314 . S
C1188 H1194 0.930 . S
C1189 N1191 1.279 . S
C1189 C1192 1.358 . S
C1189 H1195 0.930 . S
C1190 C1188 1.353 . S
C1190 C1193 1.348 . S
C1190 H1228 0.929 . S
N1191 Li1146 1.990 . S
N1191 C1188 1.314 . S
N1191 C1189 1.279 . S
C1192 C1189 1.358 . S
C1192 C1193 1.356 . S
C1192 H1229 0.930 . S
C1193 C1190 1.348 . S
C1193 C1192 1.356 . S
H1194 C1188 0.930 . S
H1195 C1189 0.930 . S
C1196 N1197 1.314 . S
C1196 C1198 1.353 . S
C1196 H1202 0.930 . S
N1197 Li1147 1.990 . S
N1197 C1196 1.314 . S
N1197 C1200 1.279 . S
C1198 C1196 1.353 . S
C1198 C1201 1.348 . S
C1198 H1230 0.929 . S
C1199 C1200 1.358 . S
C1199 C1201 1.356 . S
C1199 H1231 0.930 . S
C1200 N1197 1.279 . S
C1200 C1199 1.358 . S
C1200 H1203 0.930 . S
C1201 C1198 1.348 . S
C1201 C1199 1.356 . S
H1202 C1196 0.930 . S
H1203 C1200 0.930 . S
O1204 Li1144 1.956 . S
O1204 Li1145 1.970 . S
O1204 Li1146 1.961 . S
O1204 C1148 1.325 . S
O1205 Li1144 1.970 . S
O1205 Li1145 1.956 . S
O1205 Li1147 1.961 . S
O1205 C1154 1.325 . S
O1206 Li1144 1.961 . S
O1206 Li1146 1.956 . S
O1206 Li1147 1.970 . S
O1206 C1176 1.325 . S
O1207 Li1145 1.961 . S
O1207 Li1146 1.970 . S
O1207 Li1147 1.956 . S
O1207 C1182 1.325 . S
H1208 C1150 0.929 . S
H1209 C1151 0.930 . S
H1210 C1152 0.930 . S
H1211 C1153 0.930 . S
H1212 C1155 0.930 . S
H1213 C1157 0.929 . S
H1214 C1158 0.930 . S
H1215 C1159 0.930 . S
H1216 C1162 0.930 . S
H1217 C1165 0.929 . S
H1218 C1170 0.929 . S
H1219 C1171 0.930 . S
H1220 C1178 0.929 . S
H1221 C1179 0.930 . S
H1222 C1180 0.930 . S
H1223 C1181 0.930 . S
H1224 C1183 0.929 . S
H1225 C1184 0.930 . S
H1226 C1185 0.930 . S
H1227 C1186 0.930 . S
H1228 C1190 0.929 . S
H1229 C1192 0.930 . S
H1230 C1198 0.929 . S
H1231 C1199 0.930 . S
Li1232 N1249 1.990 . S
Li1232 O1292 1.956 . S
Li1232 O1293 1.970 . S
Li1232 O1294 1.961 . S
Li1233 N1257 1.990 . S
Li1233 O1292 1.970 . S
Li1233 O1293 1.956 . S
Li1233 O1295 1.961 . S
Li1234 N1279 1.990 . S
Li1234 O1292 1.961 . S
Li1234 O1294 1.956 . S
Li1234 O1295 1.970 . S
Li1235 N1285 1.990 . S
Li1235 O1293 1.961 . S
Li1235 O1294 1.970 . S
Li1235 O1295 1.956 . S
C1236 C1238 1.348 . S
C1236 C1239 1.356 . S
C1236 O1292 1.325 . S
N1237 C1240 1.314 . S
N1237 C1241 1.279 . S
C1238 C1236 1.348 . S
C1238 C1240 1.353 . S
C1238 H1296 0.929 . S
C1239 C1236 1.356 . S
C1239 C1241 1.358 . S
C1239 H1297 0.930 . S
C1240 N1237 1.314 . S
C1240 C1238 1.353 . S
C1240 H1298 0.930 . S
C1241 N1237 1.279 . S
C1241 C1239 1.358 . S
C1241 H1299 0.930 . S
C1242 C1245 1.348 . S
C1242 C1246 1.356 . S
C1242 O1293 1.325 . S
C1243 N1244 1.279 . S
C1243 C1246 1.358 . S
C1243 H1300 0.930 . S
N1244 C1243 1.279 . S
N1244 C1247 1.314 . S
C1245 C1242 1.348 . S
C1245 C1247 1.353 . S
C1245 H1301 0.929 . S
C1246 C1242 1.356 . S
C1246 C1243 1.358 . S
C1246 H1302 0.930 . S
C1247 N1244 1.314 . S
C1247 C1245 1.353 . S
C1247 H1303 0.930 . S
C1248 N1249 1.314 . S
C1248 C1253 1.353 . S
C1248 H1254 0.930 . S
N1249 Li1232 1.990 . S
N1249 C1248 1.314 . S
N1249 C1251 1.279 . S
C1250 C1251 1.358 . S
C1250 C1252 1.356 . S
C1250 H1304 0.930 . S
C1251 N1249 1.279 . S
C1251 C1250 1.358 . S
C1251 H1255 0.930 . S
C1252 C1250 1.356 . S
C1252 C1253 1.348 . S
C1253 C1248 1.353 . S
C1253 C1252 1.348 . S
C1253 H1305 0.929 . S
H1254 C1248 0.930 . S
H1255 C1251 0.930 . S
C1256 N1257 1.314 . S
C1256 C1258 1.353 . S
C1256 H1262 0.930 . S
N1257 Li1233 1.990 . S
N1257 C1256 1.314 . S
N1257 C1260 1.279 . S
C1258 C1256 1.353 . S
C1258 C1261 1.348 . S
C1258 H1306 0.929 . S
C1259 C1260 1.358 . S
C1259 C1261 1.356 . S
C1259 H1307 0.930 . S
C1260 N1257 1.279 . S
C1260 C1259 1.358 . S
C1260 H1263 0.930 . S
C1261 C1258 1.348 . S
C1261 C1259 1.356 . S
H1262 C1256 0.930 . S
H1263 C1260 0.930 . S
C1264 C1266 1.348 . S
C1264 C1267 1.356 . S
C1264 O1294 1.325 . S
N1265 C1268 1.314 . S
N1265 C1269 1.279 . S
C1266 C1264 1.348 . S
C1266 C1268 1.353 . S
C1266 H1308 0.929 . S
C1267 C1264 1.356 . S
C1267 C1269 1.358 . S
C1267 H1309 0.930 . S
C1268 N1265 1.314 . S
C1268 C1266 1.353 . S
C1268 H1310 0.930 . S
C1269 N1265 1.279 . S
C1269 C1267 1.358 . S
C1269 H1311 0.930 . S
C1270 C1271 1.348 . S
C1270 C1272 1.356 . S
C1270 O1295 1.325 . S
C1271 C1270 1.348 . S
C1271 C1273 1.353 . S
C1271 H1312 0.929 . S
C1272 C1270 1.356 . S
C1272 C1274 1.358 . S
C1272 H1313 0.930 . S
C1273 C1271 1.353 . S
C1273 N1275 1.314 . S
C1273 H1314 0.930 . S
C1274 C1272 1.358 . S
C1274 N1275 1.279 . S
C1274 H1315 0.930 . S
N1275 C1273 1.314 . S
N1275 C1274 1.279 . S
C1276 C1278 1.353 . S
C1276 N1279 1.314 . S
C1276 H1282 0.930 . S
C1277 N1279 1.279 . S
C1277 C1280 1.358 . S
C1277 H1283 0.930 . S
C1278 C1276 1.353 . S
C1278 C1281 1.348 . S
C1278 H1316 0.929 . S
N1279 Li1234 1.990 . S
N1279 C1276 1.314 . S
N1279 C1277 1.279 . S
C1280 C1277 1.358 . S
C1280 C1281 1.356 . S
C1280 H1317 0.930 . S
C1281 C1278 1.348 . S
C1281 C1280 1.356 . S
H1282 C1276 0.930 . S
H1283 C1277 0.930 . S
C1284 N1285 1.314 . S
C1284 C1286 1.353 . S
C1284 H1290 0.930 . S
N1285 Li1235 1.990 . S
N1285 C1284 1.314 . S
N1285 C1288 1.279 . S
C1286 C1284 1.353 . S
C1286 C1289 1.348 . S
C1286 H1318 0.929 . S
C1287 C1288 1.358 . S
C1287 C1289 1.356 . S
C1287 H1319 0.930 . S
C1288 N1285 1.279 . S
C1288 C1287 1.358 . S
C1288 H1291 0.930 . S
C1289 C1286 1.348 . S
C1289 C1287 1.356 . S
H1290 C1284 0.930 . S
H1291 C1288 0.930 . S
O1292 Li1232 1.956 . S
O1292 Li1233 1.970 . S
O1292 Li1234 1.961 . S
O1292 C1236 1.325 . S
O1293 Li1232 1.970 . S
O1293 Li1233 1.956 . S
O1293 Li1235 1.961 . S
O1293 C1242 1.325 . S
O1294 Li1232 1.961 . S
O1294 Li1234 1.956 . S
O1294 Li1235 1.970 . S
O1294 C1264 1.325 . S
O1295 Li1233 1.961 . S
O1295 Li1234 1.970 . S
O1295 Li1235 1.956 . S
O1295 C1270 1.325 . S
H1296 C1238 0.929 . S
H1297 C1239 0.930 . S
H1298 C1240 0.930 . S
H1299 C1241 0.930 . S
H1300 C1243 0.930 . S
H1301 C1245 0.929 . S
H1302 C1246 0.930 . S
H1303 C1247 0.930 . S
H1304 C1250 0.930 . S
H1305 C1253 0.929 . S
H1306 C1258 0.929 . S
H1307 C1259 0.930 . S
H1308 C1266 0.929 . S
H1309 C1267 0.930 . S
H1310 C1268 0.930 . S
H1311 C1269 0.930 . S
H1312 C1271 0.929 . S
H1313 C1272 0.930 . S
H1314 C1273 0.930 . S
H1315 C1274 0.930 . S
H1316 C1278 0.929 . S
H1317 C1280 0.930 . S
H1318 C1286 0.929 . S
H1319 C1287 0.930 . S
Li1320 N1337 1.990 . S
Li1320 O1380 1.956 . S
Li1320 O1381 1.970 . S
Li1320 O1382 1.961 . S
Li1321 N1345 1.990 . S
Li1321 O1380 1.970 . S
Li1321 O1381 1.956 . S
Li1321 O1383 1.961 . S
Li1322 N1367 1.990 . S
Li1322 O1380 1.961 . S
Li1322 O1382 1.956 . S
Li1322 O1383 1.970 . S
Li1323 N1373 1.990 . S
Li1323 O1381 1.961 . S
Li1323 O1382 1.970 . S
Li1323 O1383 1.956 . S
C1324 C1326 1.348 . S
C1324 C1327 1.356 . S
C1324 O1380 1.325 . S
N1325 C1328 1.314 . S
N1325 C1329 1.279 . S
C1326 C1324 1.348 . S
C1326 C1328 1.353 . S
C1326 H1384 0.929 . S
C1327 C1324 1.356 . S
C1327 C1329 1.358 . S
C1327 H1385 0.930 . S
C1328 N1325 1.314 . S
C1328 C1326 1.353 . S
C1328 H1386 0.930 . S
C1329 N1325 1.279 . S
C1329 C1327 1.358 . S
C1329 H1387 0.930 . S
C1330 C1333 1.348 . S
C1330 C1334 1.356 . S
C1330 O1381 1.325 . S
C1331 N1332 1.279 1_556 S
C1331 C1334 1.358 . S
C1331 H1388 0.930 1_556 S
N1332 C1331 1.279 1_554 S
N1332 C1335 1.314 . S
C1333 C1330 1.348 . S
C1333 C1335 1.353 1_556 S
C1333 H1389 0.929 . S
C1334 C1330 1.356 . S
C1334 C1331 1.358 . S
C1334 H1390 0.930 . S
C1335 N1332 1.314 . S
C1335 C1333 1.353 1_554 S
C1335 H1391 0.930 . S
C1336 N1337 1.314 . S
C1336 C1341 1.353 . S
C1336 H1342 0.930 . S
N1337 Li1320 1.990 . S
N1337 C1336 1.314 . S
N1337 C1339 1.279 . S
C1338 C1339 1.358 . S
C1338 C1340 1.356 . S
C1338 H1392 0.930 . S
C1339 N1337 1.279 . S
C1339 C1338 1.358 . S
C1339 H1343 0.930 . S
C1340 C1338 1.356 . S
C1340 C1341 1.348 . S
C1341 C1336 1.353 . S
C1341 C1340 1.348 . S
C1341 H1393 0.929 . S
H1342 C1336 0.930 . S
H1343 C1339 0.930 . S
C1344 N1345 1.314 . S
C1344 C1346 1.353 . S
C1344 H1350 0.930 . S
N1345 Li1321 1.990 . S
N1345 C1344 1.314 . S
N1345 C1348 1.279 1_556 S
C1346 C1344 1.353 . S
C1346 C1349 1.348 1_556 S
C1346 H1394 0.929 . S
C1347 C1348 1.358 . S
C1347 C1349 1.356 . S
C1347 H1395 0.930 . S
C1348 N1345 1.279 1_554 S
C1348 C1347 1.358 . S
C1348 H1351 0.930 . S
C1349 C1346 1.348 1_554 S
C1349 C1347 1.356 . S
H1350 C1344 0.930 . S
H1351 C1348 0.930 . S
C1352 C1354 1.348 . S
C1352 C1355 1.356 . S
C1352 O1382 1.325 . S
N1353 C1356 1.314 . S
N1353 C1357 1.279 . S
C1354 C1352 1.348 . S
C1354 C1356 1.353 . S
C1354 H1396 0.929 . S
C1355 C1352 1.356 . S
C1355 C1357 1.358 . S
C1355 H1397 0.930 . S
C1356 N1353 1.314 . S
C1356 C1354 1.353 . S
C1356 H1398 0.930 . S
C1357 N1353 1.279 . S
C1357 C1355 1.358 . S
C1357 H1399 0.930 . S
C1358 C1359 1.348 . S
C1358 C1360 1.356 . S
C1358 O1383 1.325 . S
C1359 C1358 1.348 . S
C1359 C1361 1.353 . S
C1359 H1400 0.929 . S
C1360 C1358 1.356 . S
C1360 C1362 1.358 . S
C1360 H1401 0.930 . S
C1361 C1359 1.353 . S
C1361 N1363 1.314 . S
C1361 H1402 0.930 . S
C1362 C1360 1.358 . S
C1362 N1363 1.279 . S
C1362 H1403 0.930 . S
N1363 C1361 1.314 . S
N1363 C1362 1.279 . S
C1364 C1366 1.353 . S
C1364 N1367 1.314 . S
C1364 H1370 0.930 . S
C1365 N1367 1.279 . S
C1365 C1368 1.358 . S
C1365 H1371 0.930 . S
C1366 C1364 1.353 . S
C1366 C1369 1.348 . S
C1366 H1404 0.929 . S
N1367 Li1322 1.990 . S
N1367 C1364 1.314 . S
N1367 C1365 1.279 . S
C1368 C1365 1.358 . S
C1368 C1369 1.356 . S
C1368 H1405 0.930 . S
C1369 C1366 1.348 . S
C1369 C1368 1.356 . S
H1370 C1364 0.930 . S
H1371 C1365 0.930 . S
C1372 N1373 1.314 . S
C1372 C1374 1.353 . S
C1372 H1378 0.930 . S
N1373 Li1323 1.990 . S
N1373 C1372 1.314 . S
N1373 C1376 1.279 . S
C1374 C1372 1.353 . S
C1374 C1377 1.348 . S
C1374 H1406 0.929 . S
C1375 C1376 1.358 . S
C1375 C1377 1.356 . S
C1375 H1407 0.930 . S
C1376 N1373 1.279 . S
C1376 C1375 1.358 . S
C1376 H1379 0.930 . S
C1377 C1374 1.348 . S
C1377 C1375 1.356 . S
H1378 C1372 0.930 . S
H1379 C1376 0.930 . S
O1380 Li1320 1.956 . S
O1380 Li1321 1.970 . S
O1380 Li1322 1.961 . S
O1380 C1324 1.325 . S
O1381 Li1320 1.970 . S
O1381 Li1321 1.956 . S
O1381 Li1323 1.961 . S
O1381 C1330 1.325 . S
O1382 Li1320 1.961 . S
O1382 Li1322 1.956 . S
O1382 Li1323 1.970 . S
O1382 C1352 1.325 . S
O1383 Li1321 1.961 . S
O1383 Li1322 1.970 . S
O1383 Li1323 1.956 . S
O1383 C1358 1.325 . S
H1384 C1326 0.929 . S
H1385 C1327 0.930 . S
H1386 C1328 0.930 . S
H1387 C1329 0.930 . S
H1388 C1331 0.930 1_554 S
H1389 C1333 0.929 . S
H1390 C1334 0.930 . S
H1391 C1335 0.930 . S
H1392 C1338 0.930 . S
H1393 C1341 0.929 . S
H1394 C1346 0.929 . S
H1395 C1347 0.930 . S
H1396 C1354 0.929 . S
H1397 C1355 0.930 . S
H1398 C1356 0.930 . S
H1399 C1357 0.930 . S
H1400 C1359 0.929 . S
H1401 C1360 0.930 . S
H1402 C1361 0.930 . S
H1403 C1362 0.930 . S
H1404 C1366 0.929 . S
H1405 C1368 0.930 . S
H1406 C1374 0.929 . S
H1407 C1375 0.930 . S
Li1408 N1425 1.990 . S
Li1408 O1468 1.956 . S
Li1408 O1469 1.970 . S
Li1408 O1470 1.961 . S
Li1409 N1433 1.990 . S
Li1409 O1468 1.970 . S
Li1409 O1469 1.956 . S
Li1409 O1471 1.961 . S
Li1410 N1455 1.990 . S
Li1410 O1468 1.961 . S
Li1410 O1470 1.956 . S
Li1410 O1471 1.970 . S
Li1411 N1461 1.990 . S
Li1411 O1469 1.961 . S
Li1411 O1470 1.970 . S
Li1411 O1471 1.956 . S
C1412 C1414 1.348 . S
C1412 C1415 1.356 . S
C1412 O1468 1.325 . S
N1413 C1416 1.314 . S
N1413 C1417 1.279 . S
C1414 C1412 1.348 . S
C1414 C1416 1.353 . S
C1414 H1472 0.929 . S
C1415 C1412 1.356 . S
C1415 C1417 1.358 . S
C1415 H1473 0.930 . S
C1416 N1413 1.314 . S
C1416 C1414 1.353 . S
C1416 H1474 0.930 . S
C1417 N1413 1.279 . S
C1417 C1415 1.358 . S
C1417 H1475 0.930 . S
C1418 C1421 1.348 . S
C1418 C1422 1.356 . S
C1418 O1469 1.325 . S
C1419 N1420 1.279 1_556 S
C1419 C1422 1.358 . S
C1419 H1476 0.930 1_556 S
N1420 C1419 1.279 1_554 S
N1420 C1423 1.314 . S
C1421 C1418 1.348 . S
C1421 C1423 1.353 1_556 S
C1421 H1477 0.929 . S
C1422 C1418 1.356 . S
C1422 C1419 1.358 . S
C1422 H1478 0.930 . S
C1423 N1420 1.314 . S
C1423 C1421 1.353 1_554 S
C1423 H1479 0.930 . S
C1424 N1425 1.314 . S
C1424 C1429 1.353 . S
C1424 H1430 0.930 . S
N1425 Li1408 1.990 . S
N1425 C1424 1.314 . S
N1425 C1427 1.279 . S
C1426 C1427 1.358 . S
C1426 C1428 1.356 . S
C1426 H1480 0.930 . S
C1427 N1425 1.279 . S
C1427 C1426 1.358 . S
C1427 H1431 0.930 . S
C1428 C1426 1.356 . S
C1428 C1429 1.348 . S
C1429 C1424 1.353 . S
C1429 C1428 1.348 . S
C1429 H1481 0.929 . S
H1430 C1424 0.930 . S
H1431 C1427 0.930 . S
C1432 N1433 1.314 . S
C1432 C1434 1.353 . S
C1432 H1438 0.930 . S
N1433 Li1409 1.990 . S
N1433 C1432 1.314 . S
N1433 C1436 1.279 1_556 S
C1434 C1432 1.353 . S
C1434 C1437 1.348 1_556 S
C1434 H1482 0.929 . S
C1435 C1436 1.358 . S
C1435 C1437 1.356 . S
C1435 H1483 0.930 . S
C1436 N1433 1.279 1_554 S
C1436 C1435 1.358 . S
C1436 H1439 0.930 . S
C1437 C1434 1.348 1_554 S
C1437 C1435 1.356 . S
H1438 C1432 0.930 . S
H1439 C1436 0.930 . S
C1440 C1442 1.348 . S
C1440 C1443 1.356 . S
C1440 O1470 1.325 . S
N1441 C1444 1.314 . S
N1441 C1445 1.279 . S
C1442 C1440 1.348 . S
C1442 C1444 1.353 . S
C1442 H1484 0.929 . S
C1443 C1440 1.356 . S
C1443 C1445 1.358 . S
C1443 H1485 0.930 . S
C1444 N1441 1.314 . S
C1444 C1442 1.353 . S
C1444 H1486 0.930 . S
C1445 N1441 1.279 . S
C1445 C1443 1.358 . S
C1445 H1487 0.930 . S
C1446 C1447 1.348 . S
C1446 C1448 1.356 . S
C1446 O1471 1.325 . S
C1447 C1446 1.348 . S
C1447 C1449 1.353 . S
C1447 H1488 0.929 . S
C1448 C1446 1.356 . S
C1448 C1450 1.358 . S
C1448 H1489 0.930 . S
C1449 C1447 1.353 . S
C1449 N1451 1.314 . S
C1449 H1490 0.930 . S
C1450 C1448 1.358 . S
C1450 N1451 1.279 . S
C1450 H1491 0.930 . S
N1451 C1449 1.314 . S
N1451 C1450 1.279 . S
C1452 C1454 1.353 . S
C1452 N1455 1.314 . S
C1452 H1458 0.930 . S
C1453 N1455 1.279 . S
C1453 C1456 1.358 . S
C1453 H1459 0.930 . S
C1454 C1452 1.353 . S
C1454 C1457 1.348 . S
C1454 H1492 0.929 . S
N1455 Li1410 1.990 . S
N1455 C1452 1.314 . S
N1455 C1453 1.279 . S
C1456 C1453 1.358 . S
C1456 C1457 1.356 . S
C1456 H1493 0.930 . S
C1457 C1454 1.348 . S
C1457 C1456 1.356 . S
H1458 C1452 0.930 . S
H1459 C1453 0.930 . S
C1460 N1461 1.314 . S
C1460 C1462 1.353 . S
C1460 H1466 0.930 . S
N1461 Li1411 1.990 . S
N1461 C1460 1.314 . S
N1461 C1464 1.279 . S
C1462 C1460 1.353 . S
C1462 C1465 1.348 . S
C1462 H1494 0.929 . S
C1463 C1464 1.358 . S
C1463 C1465 1.356 . S
C1463 H1495 0.930 . S
C1464 N1461 1.279 . S
C1464 C1463 1.358 . S
C1464 H1467 0.930 . S
C1465 C1462 1.348 . S
C1465 C1463 1.356 . S
H1466 C1460 0.930 . S
H1467 C1464 0.930 . S
O1468 Li1408 1.956 . S
O1468 Li1409 1.970 . S
O1468 Li1410 1.961 . S
O1468 C1412 1.325 . S
O1469 Li1408 1.970 . S
O1469 Li1409 1.956 . S
O1469 Li1411 1.961 . S
O1469 C1418 1.325 . S
O1470 Li1408 1.961 . S
O1470 Li1410 1.956 . S
O1470 Li1411 1.970 . S
O1470 C1440 1.325 . S
O1471 Li1409 1.961 . S
O1471 Li1410 1.970 . S
O1471 Li1411 1.956 . S
O1471 C1446 1.325 . S
H1472 C1414 0.929 . S
H1473 C1415 0.930 . S
H1474 C1416 0.930 . S
H1475 C1417 0.930 . S
H1476 C1419 0.930 1_554 S
H1477 C1421 0.929 . S
H1478 C1422 0.930 . S
H1479 C1423 0.930 . S
H1480 C1426 0.930 . S
H1481 C1429 0.929 . S
H1482 C1434 0.929 . S
H1483 C1435 0.930 . S
H1484 C1442 0.929 . S
H1485 C1443 0.930 . S
H1486 C1444 0.930 . S
H1487 C1445 0.930 . S
H1488 C1447 0.929 . S
H1489 C1448 0.930 . S
H1490 C1449 0.930 . S
H1491 C1450 0.930 . S
H1492 C1454 0.929 . S
H1493 C1456 0.930 . S
H1494 C1462 0.929 . S
H1495 C1463 0.930 . S
Li1496 N1513 1.990 . S
Li1496 O1556 1.956 . S
Li1496 O1557 1.970 . S
Li1496 O1558 1.961 . S
Li1497 N1521 1.990 . S
Li1497 O1556 1.970 . S
Li1497 O1557 1.956 . S
Li1497 O1559 1.961 . S
Li1498 N1543 1.990 . S
Li1498 O1556 1.961 . S
Li1498 O1558 1.956 . S
Li1498 O1559 1.970 . S
Li1499 N1549 1.990 . S
Li1499 O1557 1.961 . S
Li1499 O1558 1.970 . S
Li1499 O1559 1.956 . S
C1500 C1502 1.348 . S
C1500 C1503 1.356 . S
C1500 O1556 1.325 . S
N1501 C1504 1.314 . S
N1501 C1505 1.279 1_554 S
C1502 C1500 1.348 . S
C1502 C1504 1.353 1_556 S
C1502 H1560 0.929 . S
C1503 C1500 1.356 . S
C1503 C1505 1.358 . S
C1503 H1561 0.930 . S
C1504 N1501 1.314 . S
C1504 C1502 1.353 1_554 S
C1504 H1562 0.930 . S
C1505 N1501 1.279 1_556 S
C1505 C1503 1.358 . S
C1505 H1563 0.930 1_556 S
C1506 C1509 1.348 . S
C1506 C1510 1.356 . S
C1506 O1557 1.325 . S
C1507 N1508 1.279 . S
C1507 C1510 1.358 . S
C1507 H1564 0.930 . S
N1508 C1507 1.279 . S
N1508 C1511 1.314 . S
C1509 C1506 1.348 . S
C1509 C1511 1.353 . S
C1509 H1565 0.929 . S
C1510 C1506 1.356 . S
C1510 C1507 1.358 . S
C1510 H1566 0.930 . S
C1511 N1508 1.314 . S
C1511 C1509 1.353 . S
C1511 H1567 0.930 . S
C1512 N1513 1.314 . S
C1512 C1517 1.353 . S
C1512 H1518 0.930 . S
N1513 Li1496 1.990 . S
N1513 C1512 1.314 . S
N1513 C1515 1.279 1_556 S
C1514 C1515 1.358 . S
C1514 C1516 1.356 . S
C1514 H1568 0.930 . S
C1515 N1513 1.279 1_554 S
C1515 C1514 1.358 . S
C1515 H1519 0.930 . S
C1516 C1514 1.356 . S
C1516 C1517 1.348 1_554 S
C1517 C1512 1.353 . S
C1517 C1516 1.348 1_556 S
C1517 H1569 0.929 . S
H1518 C1512 0.930 . S
H1519 C1515 0.930 . S
C1520 N1521 1.314 . S
C1520 C1522 1.353 . S
C1520 H1526 0.930 . S
N1521 Li1497 1.990 . S
N1521 C1520 1.314 . S
N1521 C1524 1.279 . S
C1522 C1520 1.353 . S
C1522 C1525 1.348 . S
C1522 H1570 0.929 . S
C1523 C1524 1.358 . S
C1523 C1525 1.356 . S
C1523 H1571 0.930 . S
C1524 N1521 1.279 . S
C1524 C1523 1.358 . S
C1524 H1527 0.930 . S
C1525 C1522 1.348 . S
C1525 C1523 1.356 . S
H1526 C1520 0.930 . S
H1527 C1524 0.930 . S
C1528 C1530 1.348 . S
C1528 C1531 1.356 . S
C1528 O1558 1.325 . S
N1529 C1532 1.314 . S
N1529 C1533 1.279 . S
C1530 C1528 1.348 . S
C1530 C1532 1.353 . S
C1530 H1572 0.929 . S
C1531 C1528 1.356 . S
C1531 C1533 1.358 . S
C1531 H1573 0.930 . S
C1532 N1529 1.314 . S
C1532 C1530 1.353 . S
C1532 H1574 0.930 . S
C1533 N1529 1.279 . S
C1533 C1531 1.358 . S
C1533 H1575 0.930 . S
C1534 C1535 1.348 . S
C1534 C1536 1.356 . S
C1534 O1559 1.325 . S
C1535 C1534 1.348 . S
C1535 C1537 1.353 . S
C1535 H1576 0.929 . S
C1536 C1534 1.356 . S
C1536 C1538 1.358 . S
C1536 H1577 0.930 . S
C1537 C1535 1.353 . S
C1537 N1539 1.314 . S
C1537 H1578 0.930 . S
C1538 C1536 1.358 . S
C1538 N1539 1.279 . S
C1538 H1579 0.930 . S
N1539 C1537 1.314 . S
N1539 C1538 1.279 . S
C1540 C1542 1.353 . S
C1540 N1543 1.314 . S
C1540 H1546 0.930 . S
C1541 N1543 1.279 . S
C1541 C1544 1.358 . S
C1541 H1547 0.930 . S
C1542 C1540 1.353 . S
C1542 C1545 1.348 . S
C1542 H1580 0.929 . S
N1543 Li1498 1.990 . S
N1543 C1540 1.314 . S
N1543 C1541 1.279 . S
C1544 C1541 1.358 . S
C1544 C1545 1.356 . S
C1544 H1581 0.930 . S
C1545 C1542 1.348 . S
C1545 C1544 1.356 . S
H1546 C1540 0.930 . S
H1547 C1541 0.930 . S
C1548 N1549 1.314 . S
C1548 C1550 1.353 . S
C1548 H1554 0.930 . S
N1549 Li1499 1.990 . S
N1549 C1548 1.314 . S
N1549 C1552 1.279 . S
C1550 C1548 1.353 . S
C1550 C1553 1.348 . S
C1550 H1582 0.929 . S
C1551 C1552 1.358 . S
C1551 C1553 1.356 . S
C1551 H1583 0.930 . S
C1552 N1549 1.279 . S
C1552 C1551 1.358 . S
C1552 H1555 0.930 . S
C1553 C1550 1.348 . S
C1553 C1551 1.356 . S
H1554 C1548 0.930 . S
H1555 C1552 0.930 . S
O1556 Li1496 1.956 . S
O1556 Li1497 1.970 . S
O1556 Li1498 1.961 . S
O1556 C1500 1.325 . S
O1557 Li1496 1.970 . S
O1557 Li1497 1.956 . S
O1557 Li1499 1.961 . S
O1557 C1506 1.325 . S
O1558 Li1496 1.961 . S
O1558 Li1498 1.956 . S
O1558 Li1499 1.970 . S
O1558 C1528 1.325 . S
O1559 Li1497 1.961 . S
O1559 Li1498 1.970 . S
O1559 Li1499 1.956 . S
O1559 C1534 1.325 . S
H1560 C1502 0.929 . S
H1561 C1503 0.930 . S
H1562 C1504 0.930 . S
H1563 C1505 0.930 1_554 S
H1564 C1507 0.930 . S
H1565 C1509 0.929 . S
H1566 C1510 0.930 . S
H1567 C1511 0.930 . S
H1568 C1514 0.930 . S
H1569 C1517 0.929 . S
H1570 C1522 0.929 . S
H1571 C1523 0.930 . S
H1572 C1530 0.929 . S
H1573 C1531 0.930 . S
H1574 C1532 0.930 . S
H1575 C1533 0.930 . S
H1576 C1535 0.929 . S
H1577 C1536 0.930 . S
H1578 C1537 0.930 . S
H1579 C1538 0.930 . S
H1580 C1542 0.929 . S
H1581 C1544 0.930 . S
H1582 C1550 0.929 . S
H1583 C1551 0.930 . S
Li1584 N1601 1.990 . S
Li1584 O1644 1.956 . S
Li1584 O1645 1.970 . S
Li1584 O1646 1.961 . S
Li1585 N1609 1.990 . S
Li1585 O1644 1.970 . S
Li1585 O1645 1.956 . S
Li1585 O1647 1.961 . S
Li1586 N1631 1.990 . S
Li1586 O1644 1.961 . S
Li1586 O1646 1.956 . S
Li1586 O1647 1.970 . S
Li1587 N1637 1.990 . S
Li1587 O1645 1.961 . S
Li1587 O1646 1.970 . S
Li1587 O1647 1.956 . S
C1588 C1590 1.348 . S
C1588 C1591 1.356 . S
C1588 O1644 1.325 . S
N1589 C1592 1.314 . S
N1589 C1593 1.279 . S
C1590 C1588 1.348 . S
C1590 C1592 1.353 . S
C1590 H1648 0.929 . S
C1591 C1588 1.356 . S
C1591 C1593 1.358 . S
C1591 H1649 0.930 . S
C1592 N1589 1.314 . S
C1592 C1590 1.353 . S
C1592 H1650 0.930 . S
C1593 N1589 1.279 . S
C1593 C1591 1.358 . S
C1593 H1651 0.930 . S
C1594 C1597 1.348 . S
C1594 C1598 1.356 . S
C1594 O1645 1.325 . S
C1595 N1596 1.279 . S
C1595 C1598 1.358 . S
C1595 H1652 0.930 . S
N1596 C1595 1.279 . S
N1596 C1599 1.314 . S
C1597 C1594 1.348 . S
C1597 C1599 1.353 . S
C1597 H1653 0.929 . S
C1598 C1594 1.356 . S
C1598 C1595 1.358 . S
C1598 H1654 0.930 . S
C1599 N1596 1.314 . S
C1599 C1597 1.353 . S
C1599 H1655 0.930 . S
C1600 N1601 1.314 . S
C1600 C1605 1.353 . S
C1600 H1606 0.930 . S
N1601 Li1584 1.990 . S
N1601 C1600 1.314 . S
N1601 C1603 1.279 . S
C1602 C1603 1.358 . S
C1602 C1604 1.356 . S
C1602 H1656 0.930 . S
C1603 N1601 1.279 . S
C1603 C1602 1.358 . S
C1603 H1607 0.930 . S
C1604 C1602 1.356 . S
C1604 C1605 1.348 . S
C1605 C1600 1.353 . S
C1605 C1604 1.348 . S
C1605 H1657 0.929 . S
H1606 C1600 0.930 . S
H1607 C1603 0.930 . S
C1608 N1609 1.314 . S
C1608 C1610 1.353 . S
C1608 H1614 0.930 . S
N1609 Li1585 1.990 . S
N1609 C1608 1.314 . S
N1609 C1612 1.279 . S
C1610 C1608 1.353 . S
C1610 C1613 1.348 . S
C1610 H1658 0.929 . S
C1611 C1612 1.358 . S
C1611 C1613 1.356 . S
C1611 H1659 0.930 . S
C1612 N1609 1.279 . S
C1612 C1611 1.358 . S
C1612 H1615 0.930 . S
C1613 C1610 1.348 . S
C1613 C1611 1.356 . S
H1614 C1608 0.930 . S
H1615 C1612 0.930 . S
C1616 C1618 1.348 . S
C1616 C1619 1.356 . S
C1616 O1646 1.325 . S
N1617 C1620 1.314 . S
N1617 C1621 1.279 . S
C1618 C1616 1.348 . S
C1618 C1620 1.353 . S
C1618 H1660 0.929 . S
C1619 C1616 1.356 . S
C1619 C1621 1.358 . S
C1619 H1661 0.930 . S
C1620 N1617 1.314 . S
C1620 C1618 1.353 . S
C1620 H1662 0.930 . S
C1621 N1617 1.279 . S
C1621 C1619 1.358 . S
C1621 H1663 0.930 . S
C1622 C1623 1.348 . S
C1622 C1624 1.356 . S
C1622 O1647 1.325 . S
C1623 C1622 1.348 . S
C1623 C1625 1.353 . S
C1623 H1664 0.929 . S
C1624 C1622 1.356 . S
C1624 C1626 1.358 . S
C1624 H1665 0.930 . S
C1625 C1623 1.353 . S
C1625 N1627 1.314 . S
C1625 H1666 0.930 . S
C1626 C1624 1.358 . S
C1626 N1627 1.279 . S
C1626 H1667 0.930 . S
N1627 C1625 1.314 . S
N1627 C1626 1.279 . S
C1628 C1630 1.353 . S
C1628 N1631 1.314 . S
C1628 H1634 0.930 . S
C1629 N1631 1.279 . S
C1629 C1632 1.358 . S
C1629 H1635 0.930 . S
C1630 C1628 1.353 . S
C1630 C1633 1.348 . S
C1630 H1668 0.929 . S
N1631 Li1586 1.990 . S
N1631 C1628 1.314 . S
N1631 C1629 1.279 . S
C1632 C1629 1.358 . S
C1632 C1633 1.356 . S
C1632 H1669 0.930 . S
C1633 C1630 1.348 . S
C1633 C1632 1.356 . S
H1634 C1628 0.930 . S
H1635 C1629 0.930 . S
C1636 N1637 1.314 . S
C1636 C1638 1.355 . S
C1636 H1642 0.930 . S
N1637 Li1587 1.990 . S
N1637 C1636 1.314 . S
N1637 C1640 1.279 . S
C1638 C1636 1.355 . S
C1638 C1641 1.348 . S
C1638 H1670 0.927 1_554 S
C1639 C1640 1.358 . S
C1639 C1641 1.356 . S
C1639 H1671 0.930 . S
C1640 N1637 1.279 . S
C1640 C1639 1.358 . S
C1640 H1643 0.930 . S
C1641 C1638 1.348 . S
C1641 C1639 1.356 . S
H1642 C1636 0.930 . S
H1643 C1640 0.930 . S
O1644 Li1584 1.956 . S
O1644 Li1585 1.970 . S
O1644 Li1586 1.961 . S
O1644 C1588 1.325 . S
O1645 Li1584 1.970 . S
O1645 Li1585 1.956 . S
O1645 Li1587 1.961 . S
O1645 C1594 1.325 . S
O1646 Li1584 1.961 . S
O1646 Li1586 1.956 . S
O1646 Li1587 1.970 . S
O1646 C1616 1.325 . S
O1647 Li1585 1.961 . S
O1647 Li1586 1.970 . S
O1647 Li1587 1.956 . S
O1647 C1622 1.325 . S
H1648 C1590 0.929 . S
H1649 C1591 0.930 . S
H1650 C1592 0.930 . S
H1651 C1593 0.930 . S
H1652 C1595 0.930 . S
H1653 C1597 0.929 . S
H1654 C1598 0.930 . S
H1655 C1599 0.930 . S
H1656 C1602 0.930 . S
H1657 C1605 0.929 . S
H1658 C1610 0.929 . S
H1659 C1611 0.930 . S
H1660 C1618 0.929 . S
H1661 C1619 0.930 . S
H1662 C1620 0.930 . S
H1663 C1621 0.930 . S
H1664 C1623 0.929 . S
H1665 C1624 0.930 . S
H1666 C1625 0.930 . S
H1667 C1626 0.930 . S
H1668 C1630 0.929 . S
H1669 C1632 0.930 . S
H1670 C1638 0.927 1_556 S
H1671 C1639 0.930 . S
Li1672 N1689 1.990 . S
Li1672 O1732 1.956 . S
Li1672 O1733 1.970 . S
Li1672 O1734 1.961 . S
Li1673 N1697 1.990 . S
Li1673 O1732 1.970 . S
Li1673 O1733 1.956 . S
Li1673 O1735 1.961 . S
Li1674 N1719 1.990 . S
Li1674 O1732 1.961 . S
Li1674 O1734 1.956 . S
Li1674 O1735 1.970 . S
Li1675 N1725 1.990 . S
Li1675 O1733 1.961 . S
Li1675 O1734 1.970 . S
Li1675 O1735 1.956 . S
C1676 C1678 1.348 . S
C1676 C1679 1.356 . S
C1676 O1732 1.325 . S
N1677 C1680 1.314 . S
N1677 C1681 1.279 . S
C1678 C1676 1.348 . S
C1678 C1680 1.353 . S
C1678 H1736 0.929 . S
C1679 C1676 1.356 . S
C1679 C1681 1.358 . S
C1679 H1737 0.930 . S
C1680 N1677 1.314 . S
C1680 C1678 1.353 . S
C1680 H1738 0.930 . S
C1681 N1677 1.279 . S
C1681 C1679 1.358 . S
C1681 H1739 0.930 . S
C1682 C1685 1.348 . S
C1682 C1686 1.356 . S
C1682 O1733 1.325 . S
C1683 N1684 1.279 . S
C1683 C1686 1.358 . S
C1683 H1740 0.930 . S
N1684 C1683 1.279 . S
N1684 C1687 1.314 . S
C1685 C1682 1.348 . S
C1685 C1687 1.353 . S
C1685 H1741 0.929 . S
C1686 C1682 1.356 . S
C1686 C1683 1.358 . S
C1686 H1742 0.930 . S
C1687 N1684 1.314 . S
C1687 C1685 1.353 . S
C1687 H1743 0.930 . S
C1688 N1689 1.314 . S
C1688 C1693 1.353 . S
C1688 H1694 0.930 . S
N1689 Li1672 1.990 . S
N1689 C1688 1.314 . S
N1689 C1691 1.279 . S
C1690 C1691 1.358 . S
C1690 C1692 1.356 . S
C1690 H1744 0.930 . S
C1691 N1689 1.279 . S
C1691 C1690 1.358 . S
C1691 H1695 0.930 . S
C1692 C1690 1.356 . S
C1692 C1693 1.348 . S
C1693 C1688 1.353 . S
C1693 C1692 1.348 . S
C1693 H1745 0.929 . S
H1694 C1688 0.930 . S
H1695 C1691 0.930 . S
C1696 N1697 1.314 . S
C1696 C1698 1.356 . S
C1696 H1702 0.930 . S
N1697 Li1673 1.990 . S
N1697 C1696 1.314 . S
N1697 C1700 1.279 . S
C1698 C1696 1.356 . S
C1698 C1701 1.348 . S
C1698 H1746 0.926 1_554 S
C1699 C1700 1.358 . S
C1699 C1701 1.356 . S
C1699 H1747 0.930 . S
C1700 N1697 1.279 . S
C1700 C1699 1.358 . S
C1700 H1703 0.930 . S
C1701 C1698 1.348 . S
C1701 C1699 1.356 . S
H1702 C1696 0.930 . S
H1703 C1700 0.930 . S
C1704 C1706 1.348 . S
C1704 C1707 1.356 . S
C1704 O1734 1.325 . S
N1705 C1708 1.314 . S
N1705 C1709 1.279 . S
C1706 C1704 1.348 . S
C1706 C1708 1.353 . S
C1706 H1748 0.929 . S
C1707 C1704 1.356 . S
C1707 C1709 1.358 . S
C1707 H1749 0.930 . S
C1708 N1705 1.314 . S
C1708 C1706 1.353 . S
C1708 H1750 0.930 . S
C1709 N1705 1.279 . S
C1709 C1707 1.358 . S
C1709 H1751 0.930 . S
C1710 C1711 1.348 . S
C1710 C1712 1.356 . S
C1710 O1735 1.325 . S
C1711 C1710 1.348 . S
C1711 C1713 1.353 . S
C1711 H1752 0.929 . S
C1712 C1710 1.356 . S
C1712 C1714 1.358 . S
C1712 H1753 0.930 . S
C1713 C1711 1.353 . S
C1713 N1715 1.314 . S
C1713 H1754 0.930 . S
C1714 C1712 1.358 . S
C1714 N1715 1.279 . S
C1714 H1755 0.930 . S
N1715 C1713 1.314 . S
N1715 C1714 1.279 . S
C1716 C1718 1.353 . S
C1716 N1719 1.314 . S
C1716 H1722 0.930 . S
C1717 N1719 1.279 . S
C1717 C1720 1.358 . S
C1717 H1723 0.930 . S
C1718 C1716 1.353 . S
C1718 C1721 1.348 . S
C1718 H1756 0.929 . S
N1719 Li1674 1.990 . S
N1719 C1716 1.314 . S
N1719 C1717 1.279 . S
C1720 C1717 1.358 . S
C1720 C1721 1.356 . S
C1720 H1757 0.930 . S
C1721 C1718 1.348 . S
C1721 C1720 1.356 . S
H1722 C1716 0.930 . S
H1723 C1717 0.930 . S
C1724 N1725 1.314 . S
C1724 C1726 1.353 . S
C1724 H1730 0.930 . S
N1725 Li1675 1.990 . S
N1725 C1724 1.314 . S
N1725 C1728 1.279 . S
C1726 C1724 1.353 . S
C1726 C1729 1.348 . S
C1726 H1758 0.929 . S
C1727 C1728 1.358 . S
C1727 C1729 1.356 . S
C1727 H1759 0.930 . S
C1728 N1725 1.279 . S
C1728 C1727 1.358 . S
C1728 H1731 0.930 . S
C1729 C1726 1.348 . S
C1729 C1727 1.356 . S
H1730 C1724 0.930 . S
H1731 C1728 0.930 . S
O1732 Li1672 1.956 . S
O1732 Li1673 1.970 . S
O1732 Li1674 1.961 . S
O1732 C1676 1.325 . S
O1733 Li1672 1.970 . S
O1733 Li1673 1.956 . S
O1733 Li1675 1.961 . S
O1733 C1682 1.325 . S
O1734 Li1672 1.961 . S
O1734 Li1674 1.956 . S
O1734 Li1675 1.970 . S
O1734 C1704 1.325 . S
O1735 Li1673 1.961 . S
O1735 Li1674 1.970 . S
O1735 Li1675 1.956 . S
O1735 C1710 1.325 . S
H1736 C1678 0.929 . S
H1737 C1679 0.930 . S
H1738 C1680 0.930 . S
H1739 C1681 0.930 . S
H1740 C1683 0.930 . S
H1741 C1685 0.929 . S
H1742 C1686 0.930 . S
H1743 C1687 0.930 . S
H1744 C1690 0.930 . S
H1745 C1693 0.929 . S
H1746 C1698 0.926 1_556 S
H1747 C1699 0.930 . S
H1748 C1706 0.929 . S
H1749 C1707 0.930 . S
H1750 C1708 0.930 . S
H1751 C1709 0.930 . S
H1752 C1711 0.929 . S
H1753 C1712 0.930 . S
H1754 C1713 0.930 . S
H1755 C1714 0.930 . S
H1756 C1718 0.929 . S
H1757 C1720 0.930 . S
H1758 C1726 0.929 . S
H1759 C1727 0.930 . S
Li1760 N1777 1.990 . S
Li1760 O1820 1.956 . S
Li1760 O1821 1.970 . S
Li1760 O1822 1.961 . S
Li1761 N1785 1.990 . S
Li1761 O1820 1.970 . S
Li1761 O1821 1.956 . S
Li1761 O1823 1.961 . S
Li1762 N1807 1.990 . S
Li1762 O1820 1.961 . S
Li1762 O1822 1.956 . S
Li1762 O1823 1.970 . S
Li1763 N1813 1.990 . S
Li1763 O1821 1.961 . S
Li1763 O1822 1.970 . S
Li1763 O1823 1.956 . S
C1764 C1766 1.348 . S
C1764 C1767 1.356 . S
C1764 O1820 1.325 . S
N1765 C1768 1.314 . S
N1765 C1769 1.279 . S
C1766 C1764 1.348 . S
C1766 C1768 1.353 . S
C1766 H1824 0.929 . S
C1767 C1764 1.356 . S
C1767 C1769 1.358 . S
C1767 H1825 0.930 . S
C1768 N1765 1.314 . S
C1768 C1766 1.353 . S
C1768 H1826 0.930 . S
C1769 N1765 1.279 . S
C1769 C1767 1.358 . S
C1769 H1827 0.930 . S
C1770 C1773 1.348 . S
C1770 C1774 1.356 . S
C1770 O1821 1.325 . S
C1771 N1772 1.279 . S
C1771 C1774 1.358 . S
C1771 H1828 0.930 . S
N1772 C1771 1.279 . S
N1772 C1775 1.314 . S
C1773 C1770 1.348 . S
C1773 C1775 1.353 . S
C1773 H1829 0.929 . S
C1774 C1770 1.356 . S
C1774 C1771 1.358 . S
C1774 H1830 0.930 . S
C1775 N1772 1.314 . S
C1775 C1773 1.353 . S
C1775 H1831 0.930 . S
C1776 N1777 1.314 . S
C1776 C1781 1.353 . S
C1776 H1782 0.930 . S
N1777 Li1760 1.990 . S
N1777 C1776 1.314 . S
N1777 C1779 1.279 . S
C1778 C1779 1.358 . S
C1778 C1780 1.356 . S
C1778 H1832 0.930 . S
C1779 N1777 1.279 . S
C1779 C1778 1.358 . S
C1779 H1783 0.930 . S
C1780 C1778 1.356 . S
C1780 C1781 1.348 . S
C1781 C1776 1.353 . S
C1781 C1780 1.348 . S
C1781 H1833 0.929 . S
H1782 C1776 0.930 . S
H1783 C1779 0.930 . S
C1784 N1785 1.314 . S
C1784 C1786 1.353 . S
C1784 H1790 0.930 . S
N1785 Li1761 1.990 . S
N1785 C1784 1.314 . S
N1785 C1788 1.279 . S
C1786 C1784 1.353 . S
C1786 C1789 1.348 . S
C1786 H1834 0.929 . S
C1787 C1788 1.358 . S
C1787 C1789 1.356 . S
C1787 H1835 0.930 . S
C1788 N1785 1.279 . S
C1788 C1787 1.358 . S
C1788 H1791 0.930 . S
C1789 C1786 1.348 . S
C1789 C1787 1.356 . S
H1790 C1784 0.930 . S
H1791 C1788 0.930 . S
C1792 C1794 1.348 . S
C1792 C1795 1.356 . S
C1792 O1822 1.325 . S
N1793 C1796 1.314 . S
N1793 C1797 1.279 . S
C1794 C1792 1.348 . S
C1794 C1796 1.353 . S
C1794 H1836 0.929 . S
C1795 C1792 1.356 . S
C1795 C1797 1.358 . S
C1795 H1837 0.930 . S
C1796 N1793 1.314 . S
C1796 C1794 1.353 . S
C1796 H1838 0.930 . S
C1797 N1793 1.279 . S
C1797 C1795 1.358 . S
C1797 H1839 0.930 . S
C1798 C1799 1.348 . S
C1798 C1800 1.356 . S
C1798 O1823 1.325 . S
C1799 C1798 1.348 . S
C1799 C1801 1.353 . S
C1799 H1840 0.929 . S
C1800 C1798 1.356 . S
C1800 C1802 1.358 . S
C1800 H1841 0.930 . S
C1801 C1799 1.353 . S
C1801 N1803 1.314 . S
C1801 H1842 0.930 . S
C1802 C1800 1.358 . S
C1802 N1803 1.279 . S
C1802 H1843 0.930 . S
N1803 C1801 1.314 . S
N1803 C1802 1.279 . S
C1804 C1806 1.355 . S
C1804 N1807 1.314 . S
C1804 H1810 0.930 . S
C1805 N1807 1.279 . S
C1805 C1808 1.358 . S
C1805 H1811 0.930 . S
C1806 C1804 1.355 . S
C1806 C1809 1.348 . S
C1806 H1844 0.927 1_554 S
N1807 Li1762 1.990 . S
N1807 C1804 1.314 . S
N1807 C1805 1.279 . S
C1808 C1805 1.358 . S
C1808 C1809 1.356 . S
C1808 H1845 0.930 . S
C1809 C1806 1.348 . S
C1809 C1808 1.356 . S
H1810 C1804 0.930 . S
H1811 C1805 0.930 . S
C1812 N1813 1.314 . S
C1812 C1814 1.353 . S
C1812 H1818 0.930 . S
N1813 Li1763 1.990 . S
N1813 C1812 1.314 . S
N1813 C1816 1.279 . S
C1814 C1812 1.353 . S
C1814 C1817 1.348 . S
C1814 H1846 0.929 . S
C1815 C1816 1.358 . S
C1815 C1817 1.356 . S
C1815 H1847 0.930 . S
C1816 N1813 1.279 . S
C1816 C1815 1.358 . S
C1816 H1819 0.930 . S
C1817 C1814 1.348 . S
C1817 C1815 1.356 . S
H1818 C1812 0.930 . S
H1819 C1816 0.930 . S
O1820 Li1760 1.956 . S
O1820 Li1761 1.970 . S
O1820 Li1762 1.961 . S
O1820 C1764 1.325 . S
O1821 Li1760 1.970 . S
O1821 Li1761 1.956 . S
O1821 Li1763 1.961 . S
O1821 C1770 1.325 . S
O1822 Li1760 1.961 . S
O1822 Li1762 1.956 . S
O1822 Li1763 1.970 . S
O1822 C1792 1.325 . S
O1823 Li1761 1.961 . S
O1823 Li1762 1.970 . S
O1823 Li1763 1.956 . S
O1823 C1798 1.325 . S
H1824 C1766 0.929 . S
H1825 C1767 0.930 . S
H1826 C1768 0.930 . S
H1827 C1769 0.930 . S
H1828 C1771 0.930 . S
H1829 C1773 0.929 . S
H1830 C1774 0.930 . S
H1831 C1775 0.930 . S
H1832 C1778 0.930 . S
H1833 C1781 0.929 . S
H1834 C1786 0.929 . S
H1835 C1787 0.930 . S
H1836 C1794 0.929 . S
H1837 C1795 0.930 . S
H1838 C1796 0.930 . S
H1839 C1797 0.930 . S
H1840 C1799 0.929 . S
H1841 C1800 0.930 . S
H1842 C1801 0.930 . S
H1843 C1802 0.930 . S
H1844 C1806 0.927 1_556 S
H1845 C1808 0.930 . S
H1846 C1814 0.929 . S
H1847 C1815 0.930 . S
Li1848 N1865 1.990 . S
Li1848 O1908 1.956 . S
Li1848 O1909 1.970 . S
Li1848 O1910 1.961 . S
Li1849 N1873 1.990 . S
Li1849 O1908 1.970 . S
Li1849 O1909 1.956 . S
Li1849 O1911 1.961 . S
Li1850 N1895 1.990 . S
Li1850 O1908 1.961 . S
Li1850 O1910 1.956 . S
Li1850 O1911 1.970 . S
Li1851 N1901 1.990 1_556 S
Li1851 O1909 1.961 . S
Li1851 O1910 1.970 . S
Li1851 O1911 1.956 . S
C1852 C1854 1.348 . S
C1852 C1855 1.356 . S
C1852 O1908 1.325 . S
N1853 C1856 1.314 . S
N1853 C1857 1.279 . S
C1854 C1852 1.348 . S
C1854 C1856 1.353 . S
C1854 H1912 0.929 . S
C1855 C1852 1.356 . S
C1855 C1857 1.358 . S
C1855 H1913 0.930 . S
C1856 N1853 1.314 . S
C1856 C1854 1.353 . S
C1856 H1914 0.930 . S
C1857 N1853 1.279 . S
C1857 C1855 1.358 . S
C1857 H1915 0.930 . S
C1858 C1861 1.348 . S
C1858 C1862 1.356 . S
C1858 O1909 1.325 1_554 S
C1859 N1860 1.279 . S
C1859 C1862 1.358 . S
C1859 H1916 0.930 . S
N1860 C1859 1.279 . S
N1860 C1863 1.314 . S
C1861 C1858 1.348 . S
C1861 C1863 1.353 . S
C1861 H1917 0.929 . S
C1862 C1858 1.356 . S
C1862 C1859 1.358 . S
C1862 H1918 0.930 . S
C1863 N1860 1.314 . S
C1863 C1861 1.353 . S
C1863 H1919 0.930 . S
C1864 N1865 1.314 . S
C1864 C1869 1.353 1_556 S
C1864 H1870 0.930 1_556 S
N1865 Li1848 1.990 . S
N1865 C1864 1.314 . S
N1865 C1867 1.279 . S
C1866 C1867 1.358 . S
C1866 C1868 1.356 . S
C1866 H1920 0.930 . S
C1867 N1865 1.279 . S
C1867 C1866 1.358 . S
C1867 H1871 0.930 . S
C1868 C1866 1.356 . S
C1868 C1869 1.348 1_556 S
C1869 C1864 1.353 1_554 S
C1869 C1868 1.348 1_554 S
C1869 H1921 0.929 . S
H1870 C1864 0.930 1_554 S
H1871 C1867 0.930 . S
C1872 N1873 1.314 . S
C1872 C1874 1.353 . S
C1872 H1878 0.930 . S
N1873 Li1849 1.990 . S
N1873 C1872 1.314 . S
N1873 C1876 1.279 . S
C1874 C1872 1.353 . S
C1874 C1877 1.348 . S
C1874 H1922 0.929 . S
C1875 C1876 1.358 . S
C1875 C1877 1.356 . S
C1875 H1923 0.930 . S
C1876 N1873 1.279 . S
C1876 C1875 1.358 . S
C1876 H1879 0.930 . S
C1877 C1874 1.348 . S
C1877 C1875 1.356 . S
H1878 C1872 0.930 . S
H1879 C1876 0.930 . S
C1880 C1882 1.348 . S
C1880 C1883 1.356 . S
C1880 O1910 1.325 . S
N1881 C1884 1.314 . S
N1881 C1885 1.279 . S
C1882 C1880 1.348 . S
C1882 C1884 1.353 . S
C1882 H1924 0.929 . S
C1883 C1880 1.356 . S
C1883 C1885 1.358 . S
C1883 H1925 0.930 . S
C1884 N1881 1.314 . S
C1884 C1882 1.353 . S
C1884 H1926 0.930 1_556 S
C1885 N1881 1.279 . S
C1885 C1883 1.358 . S
C1885 H1927 0.930 . S
C1886 C1887 1.348 . S
C1886 C1888 1.356 . S
C1886 O1911 1.325 . S
C1887 C1886 1.348 . S
C1887 C1889 1.353 . S
C1887 H1928 0.929 . S
C1888 C1886 1.356 . S
C1888 C1890 1.358 . S
C1888 H1929 0.930 . S
C1889 C1887 1.353 . S
C1889 N1891 1.314 . S
C1889 H1930 0.930 . S
C1890 C1888 1.358 . S
C1890 N1891 1.279 . S
C1890 H1931 0.930 . S
N1891 C1889 1.314 . S
N1891 C1890 1.279 . S
C1892 C1894 1.353 . S
C1892 N1895 1.314 . S
C1892 H1898 0.930 . S
C1893 N1895 1.279 . S
C1893 C1896 1.358 . S
C1893 H1899 0.930 . S
C1894 C1892 1.353 . S
C1894 C1897 1.348 . S
C1894 H1932 0.929 . S
N1895 Li1850 1.990 . S
N1895 C1892 1.314 . S
N1895 C1893 1.279 . S
C1896 C1893 1.358 . S
C1896 C1897 1.356 . S
C1896 H1933 0.930 . S
C1897 C1894 1.348 . S
C1897 C1896 1.356 . S
H1898 C1892 0.930 . S
H1899 C1893 0.930 . S
C1900 N1901 1.314 . S
C1900 C1902 1.353 . S
C1900 H1906 0.930 . S
N1901 Li1851 1.990 1_554 S
N1901 C1900 1.314 . S
N1901 C1904 1.279 . S
C1902 C1900 1.353 . S
C1902 C1905 1.348 . S
C1902 H1934 0.929 . S
C1903 C1904 1.358 . S
C1903 C1905 1.356 . S
C1903 H1935 0.930 . S
C1904 N1901 1.279 . S
C1904 C1903 1.358 . S
C1904 H1907 0.930 1_554 S
C1905 C1902 1.348 . S
C1905 C1903 1.356 . S
H1906 C1900 0.930 . S
H1907 C1904 0.930 1_556 S
O1908 Li1848 1.956 . S
O1908 Li1849 1.970 . S
O1908 Li1850 1.961 . S
O1908 C1852 1.325 . S
O1909 Li1848 1.970 . S
O1909 Li1849 1.956 . S
O1909 Li1851 1.961 . S
O1909 C1858 1.325 1_556 S
O1910 Li1848 1.961 . S
O1910 Li1850 1.956 . S
O1910 Li1851 1.970 . S
O1910 C1880 1.325 . S
O1911 Li1849 1.961 . S
O1911 Li1850 1.970 . S
O1911 Li1851 1.956 . S
O1911 C1886 1.325 . S
H1912 C1854 0.929 . S
H1913 C1855 0.930 . S
H1914 C1856 0.930 . S
H1915 C1857 0.930 . S
H1916 C1859 0.930 . S
H1917 C1861 0.929 . S
H1918 C1862 0.930 . S
H1919 C1863 0.930 . S
H1920 C1866 0.930 . S
H1921 C1869 0.929 . S
H1922 C1874 0.929 . S
H1923 C1875 0.930 . S
H1924 C1882 0.929 . S
H1925 C1883 0.930 . S
H1926 C1884 0.930 1_554 S
H1927 C1885 0.930 . S
H1928 C1887 0.929 . S
H1929 C1888 0.930 . S
H1930 C1889 0.930 . S
H1931 C1890 0.930 . S
H1932 C1894 0.929 . S
H1933 C1896 0.930 . S
H1934 C1902 0.929 . S
H1935 C1903 0.930 . S
Li1936 N1953 1.990 . S
Li1936 O1996 1.956 . S
Li1936 O1997 1.970 . S
Li1936 O1998 1.961 . S
Li1937 N1961 1.990 . S
Li1937 O1996 1.970 . S
Li1937 O1997 1.956 . S
Li1937 O1999 1.961 . S
Li1938 N1983 1.990 . S
Li1938 O1996 1.961 . S
Li1938 O1998 1.956 . S
Li1938 O1999 1.970 . S
Li1939 N1989 1.990 1_556 S
Li1939 O1997 1.961 . S
Li1939 O1998 1.970 . S
Li1939 O1999 1.956 . S
C1940 C1942 1.348 . S
C1940 C1943 1.356 . S
C1940 O1996 1.325 . S
N1941 C1944 1.314 . S
N1941 C1945 1.279 . S
C1942 C1940 1.348 . S
C1942 C1944 1.353 . S
C1942 H2000 0.929 . S
C1943 C1940 1.356 . S
C1943 C1945 1.358 . S
C1943 H2001 0.930 . S
C1944 N1941 1.314 . S
C1944 C1942 1.353 . S
C1944 H2002 0.930 . S
C1945 N1941 1.279 . S
C1945 C1943 1.358 . S
C1945 H2003 0.930 . S
C1946 C1949 1.348 . S
C1946 C1950 1.356 . S
C1946 O1997 1.325 1_554 S
C1947 N1948 1.279 . S
C1947 C1950 1.358 . S
C1947 H2004 0.930 . S
N1948 C1947 1.279 . S
N1948 C1951 1.314 . S
C1949 C1946 1.348 . S
C1949 C1951 1.353 . S
C1949 H2005 0.929 . S
C1950 C1946 1.356 . S
C1950 C1947 1.358 . S
C1950 H2006 0.930 . S
C1951 N1948 1.314 . S
C1951 C1949 1.353 . S
C1951 H2007 0.930 . S
C1952 N1953 1.314 . S
C1952 C1957 1.353 1_556 S
C1952 H1958 0.930 1_556 S
N1953 Li1936 1.990 . S
N1953 C1952 1.314 . S
N1953 C1955 1.279 . S
C1954 C1955 1.358 . S
C1954 C1956 1.356 . S
C1954 H2008 0.930 . S
C1955 N1953 1.279 . S
C1955 C1954 1.358 . S
C1955 H1959 0.930 . S
C1956 C1954 1.356 . S
C1956 C1957 1.348 1_556 S
C1957 C1952 1.353 1_554 S
C1957 C1956 1.348 1_554 S
C1957 H2009 0.929 . S
H1958 C1952 0.930 1_554 S
H1959 C1955 0.930 . S
C1960 N1961 1.314 . S
C1960 C1962 1.353 . S
C1960 H1966 0.930 . S
N1961 Li1937 1.990 . S
N1961 C1960 1.314 . S
N1961 C1964 1.279 . S
C1962 C1960 1.353 . S
C1962 C1965 1.348 . S
C1962 H2010 0.929 . S
C1963 C1964 1.358 . S
C1963 C1965 1.356 . S
C1963 H2011 0.930 . S
C1964 N1961 1.279 . S
C1964 C1963 1.358 . S
C1964 H1967 0.930 . S
C1965 C1962 1.348 . S
C1965 C1963 1.356 . S
H1966 C1960 0.930 . S
H1967 C1964 0.930 . S
C1968 C1970 1.348 . S
C1968 C1971 1.356 . S
C1968 O1998 1.325 . S
N1969 C1972 1.314 . S
N1969 C1973 1.279 . S
C1970 C1968 1.348 . S
C1970 C1972 1.353 . S
C1970 H2012 0.929 . S
C1971 C1968 1.356 . S
C1971 C1973 1.358 . S
C1971 H2013 0.930 . S
C1972 N1969 1.314 . S
C1972 C1970 1.353 . S
C1972 H2014 0.930 1_556 S
C1973 N1969 1.279 . S
C1973 C1971 1.358 . S
C1973 H2015 0.930 . S
C1974 C1975 1.348 . S
C1974 C1976 1.356 . S
C1974 O1999 1.325 . S
C1975 C1974 1.348 . S
C1975 C1977 1.353 . S
C1975 H2016 0.929 . S
C1976 C1974 1.356 . S
C1976 C1978 1.358 . S
C1976 H2017 0.930 . S
C1977 C1975 1.353 . S
C1977 N1979 1.314 . S
C1977 H2018 0.930 . S
C1978 C1976 1.358 . S
C1978 N1979 1.279 . S
C1978 H2019 0.930 . S
N1979 C1977 1.314 . S
N1979 C1978 1.279 . S
C1980 C1982 1.353 . S
C1980 N1983 1.314 . S
C1980 H1986 0.930 . S
C1981 N1983 1.279 . S
C1981 C1984 1.358 . S
C1981 H1987 0.930 . S
C1982 C1980 1.353 . S
C1982 C1985 1.348 . S
C1982 H2020 0.929 . S
N1983 Li1938 1.990 . S
N1983 C1980 1.314 . S
N1983 C1981 1.279 . S
C1984 C1981 1.358 . S
C1984 C1985 1.356 . S
C1984 H2021 0.930 . S
C1985 C1982 1.348 . S
C1985 C1984 1.356 . S
H1986 C1980 0.930 . S
H1987 C1981 0.930 . S
C1988 N1989 1.314 . S
C1988 C1990 1.353 . S
C1988 H1994 0.930 . S
N1989 Li1939 1.990 1_554 S
N1989 C1988 1.314 . S
N1989 C1992 1.279 . S
C1990 C1988 1.353 . S
C1990 C1993 1.348 . S
C1990 H2022 0.929 . S
C1991 C1992 1.358 . S
C1991 C1993 1.356 . S
C1991 H2023 0.930 . S
C1992 N1989 1.279 . S
C1992 C1991 1.358 . S
C1992 H1995 0.930 1_554 S
C1993 C1990 1.348 . S
C1993 C1991 1.356 . S
H1994 C1988 0.930 . S
H1995 C1992 0.930 1_556 S
O1996 Li1936 1.956 . S
O1996 Li1937 1.970 . S
O1996 Li1938 1.961 . S
O1996 C1940 1.325 . S
O1997 Li1936 1.970 . S
O1997 Li1937 1.956 . S
O1997 Li1939 1.961 . S
O1997 C1946 1.325 1_556 S
O1998 Li1936 1.961 . S
O1998 Li1938 1.956 . S
O1998 Li1939 1.970 . S
O1998 C1968 1.325 . S
O1999 Li1937 1.961 . S
O1999 Li1938 1.970 . S
O1999 Li1939 1.956 . S
O1999 C1974 1.325 . S
H2000 C1942 0.929 . S
H2001 C1943 0.930 . S
H2002 C1944 0.930 . S
H2003 C1945 0.930 . S
H2004 C1947 0.930 . S
H2005 C1949 0.929 . S
H2006 C1950 0.930 . S
H2007 C1951 0.930 . S
H2008 C1954 0.930 . S
H2009 C1957 0.929 . S
H2010 C1962 0.929 . S
H2011 C1963 0.930 . S
H2012 C1970 0.929 . S
H2013 C1971 0.930 . S
H2014 C1972 0.930 1_554 S
H2015 C1973 0.930 . S
H2016 C1975 0.929 . S
H2017 C1976 0.930 . S
H2018 C1977 0.930 . S
H2019 C1978 0.930 . S
H2020 C1982 0.929 . S
H2021 C1984 0.930 . S
H2022 C1990 0.929 . S
H2023 C1991 0.930 . S
Li2024 N2041 1.990 . S
Li2024 O2084 1.956 . S
Li2024 O2085 1.970 . S
Li2024 O2086 1.961 . S
Li2025 N2049 1.990 1_556 S
Li2025 O2084 1.970 . S
Li2025 O2085 1.956 . S
Li2025 O2087 1.961 . S
Li2026 N2071 1.990 . S
Li2026 O2084 1.961 . S
Li2026 O2086 1.956 . S
Li2026 O2087 1.970 . S
Li2027 N2077 1.990 . S
Li2027 O2085 1.961 . S
Li2027 O2086 1.970 . S
Li2027 O2087 1.956 . S
C2028 C2030 1.348 . S
C2028 C2031 1.356 . S
C2028 O2084 1.325 . S
N2029 C2032 1.314 . S
N2029 C2033 1.279 . S
C2030 C2028 1.348 . S
C2030 C2032 1.353 . S
C2030 H2088 0.929 . S
C2031 C2028 1.356 . S
C2031 C2033 1.358 . S
C2031 H2089 0.930 . S
C2032 N2029 1.314 . S
C2032 C2030 1.353 . S
C2032 H2090 0.930 1_556 S
C2033 N2029 1.279 . S
C2033 C2031 1.358 . S
C2033 H2091 0.930 . S
C2034 C2037 1.348 . S
C2034 C2038 1.356 . S
C2034 O2085 1.325 . S
C2035 N2036 1.279 . S
C2035 C2038 1.358 . S
C2035 H2092 0.930 . S
N2036 C2035 1.279 . S
N2036 C2039 1.314 . S
C2037 C2034 1.348 . S
C2037 C2039 1.353 . S
C2037 H2093 0.929 . S
C2038 C2034 1.356 . S
C2038 C2035 1.358 . S
C2038 H2094 0.930 . S
C2039 N2036 1.314 . S
C2039 C2037 1.353 . S
C2039 H2095 0.930 . S
C2040 N2041 1.314 . S
C2040 C2045 1.353 . S
C2040 H2046 0.930 . S
N2041 Li2024 1.990 . S
N2041 C2040 1.314 . S
N2041 C2043 1.279 . S
C2042 C2043 1.358 . S
C2042 C2044 1.356 . S
C2042 H2096 0.930 . S
C2043 N2041 1.279 . S
C2043 C2042 1.358 . S
C2043 H2047 0.930 . S
C2044 C2042 1.356 . S
C2044 C2045 1.348 . S
C2045 C2040 1.353 . S
C2045 C2044 1.348 . S
C2045 H2097 0.929 . S
H2046 C2040 0.930 . S
H2047 C2043 0.930 . S
C2048 N2049 1.314 . S
C2048 C2050 1.353 . S
C2048 H2054 0.930 . S
N2049 Li2025 1.990 1_554 S
N2049 C2048 1.314 . S
N2049 C2052 1.279 . S
C2050 C2048 1.353 . S
C2050 C2053 1.348 . S
C2050 H2098 0.929 . S
C2051 C2052 1.358 . S
C2051 C2053 1.356 . S
C2051 H2099 0.930 . S
C2052 N2049 1.279 . S
C2052 C2051 1.358 . S
C2052 H2055 0.930 1_554 S
C2053 C2050 1.348 . S
C2053 C2051 1.356 . S
H2054 C2048 0.930 . S
H2055 C2052 0.930 1_556 S
C2056 C2058 1.348 . S
C2056 C2059 1.356 . S
C2056 O2086 1.325 . S
N2057 C2060 1.314 . S
N2057 C2061 1.279 . S
C2058 C2056 1.348 . S
C2058 C2060 1.353 . S
C2058 H2100 0.929 . S
C2059 C2056 1.356 . S
C2059 C2061 1.358 . S
C2059 H2101 0.930 . S
C2060 N2057 1.314 . S
C2060 C2058 1.353 . S
C2060 H2102 0.930 . S
C2061 N2057 1.279 . S
C2061 C2059 1.358 . S
C2061 H2103 0.930 . S
C2062 C2063 1.348 . S
C2062 C2064 1.356 . S
C2062 O2087 1.325 1_554 S
C2063 C2062 1.348 . S
C2063 C2065 1.353 . S
C2063 H2104 0.929 . S
C2064 C2062 1.356 . S
C2064 C2066 1.358 . S
C2064 H2105 0.930 . S
C2065 C2063 1.353 . S
C2065 N2067 1.314 . S
C2065 H2106 0.930 . S
C2066 C2064 1.358 . S
C2066 N2067 1.279 . S
C2066 H2107 0.930 . S
N2067 C2065 1.314 . S
N2067 C2066 1.279 . S
C2068 C2070 1.353 1_556 S
C2068 N2071 1.314 . S
C2068 H2074 0.930 1_556 S
C2069 N2071 1.279 . S
C2069 C2072 1.358 . S
C2069 H2075 0.930 . S
C2070 C2068 1.353 1_554 S
C2070 C2073 1.348 1_554 S
C2070 H2108 0.929 . S
N2071 Li2026 1.990 . S
N2071 C2068 1.314 . S
N2071 C2069 1.279 . S
C2072 C2069 1.358 . S
C2072 C2073 1.356 . S
C2072 H2109 0.930 . S
C2073 C2070 1.348 1_556 S
C2073 C2072 1.356 . S
H2074 C2068 0.930 1_554 S
H2075 C2069 0.930 . S
C2076 N2077 1.314 . S
C2076 C2078 1.353 . S
C2076 H2082 0.930 . S
N2077 Li2027 1.990 . S
N2077 C2076 1.314 . S
N2077 C2080 1.279 . S
C2078 C2076 1.353 . S
C2078 C2081 1.348 . S
C2078 H2110 0.929 . S
C2079 C2080 1.358 . S
C2079 C2081 1.356 . S
C2079 H2111 0.930 . S
C2080 N2077 1.279 . S
C2080 C2079 1.358 . S
C2080 H2083 0.930 . S
C2081 C2078 1.348 . S
C2081 C2079 1.356 . S
H2082 C2076 0.930 . S
H2083 C2080 0.930 . S
O2084 Li2024 1.956 . S
O2084 Li2025 1.970 . S
O2084 Li2026 1.961 . S
O2084 C2028 1.325 . S
O2085 Li2024 1.970 . S
O2085 Li2025 1.956 . S
O2085 Li2027 1.961 . S
O2085 C2034 1.325 . S
O2086 Li2024 1.961 . S
O2086 Li2026 1.956 . S
O2086 Li2027 1.970 . S
O2086 C2056 1.325 . S
O2087 Li2025 1.961 . S
O2087 Li2026 1.970 . S
O2087 Li2027 1.956 . S
O2087 C2062 1.325 1_556 S
H2088 C2030 0.929 . S
H2089 C2031 0.930 . S
H2090 C2032 0.930 1_554 S
H2091 C2033 0.930 . S
H2092 C2035 0.930 . S
H2093 C2037 0.929 . S
H2094 C2038 0.930 . S
H2095 C2039 0.930 . S
H2096 C2042 0.930 . S
H2097 C2045 0.929 . S
H2098 C2050 0.929 . S
H2099 C2051 0.930 . S
H2100 C2058 0.929 . S
H2101 C2059 0.930 . S
H2102 C2060 0.930 . S
H2103 C2061 0.930 . S
H2104 C2063 0.929 . S
H2105 C2064 0.930 . S
H2106 C2065 0.930 . S
H2107 C2066 0.930 . S
H2108 C2070 0.929 . S
H2109 C2072 0.930 . S
H2110 C2078 0.929 . S
H2111 C2079 0.930 . S
Li2112 N2129 1.990 . S
Li2112 O2172 1.956 . S
Li2112 O2173 1.970 . S
Li2112 O2174 1.961 . S
Li2113 N2137 1.990 . S
Li2113 O2172 1.970 . S
Li2113 O2173 1.956 . S
Li2113 O2175 1.961 . S
Li2114 N2159 1.990 . S
Li2114 O2172 1.961 . S
Li2114 O2174 1.956 . S
Li2114 O2175 1.970 . S
Li2115 N2165 1.990 . S
Li2115 O2173 1.961 . S
Li2115 O2174 1.970 . S
Li2115 O2175 1.956 . S
C2116 C2118 1.348 . S
C2116 C2119 1.356 . S
C2116 O2172 1.325 . S
N2117 C2120 1.314 . S
N2117 C2121 1.279 . S
C2118 C2116 1.348 . S
C2118 C2120 1.353 . S
C2118 H2176 0.929 . S
C2119 C2116 1.356 . S
C2119 C2121 1.358 . S
C2119 H2177 0.930 . S
C2120 N2117 1.314 . S
C2120 C2118 1.353 . S
C2120 H2178 0.930 . S
C2121 N2117 1.279 . S
C2121 C2119 1.358 . S
C2121 H2179 0.930 . S
C2122 C2125 1.348 . S
C2122 C2126 1.356 . S
C2122 O2173 1.325 . S
C2123 N2124 1.279 . S
C2123 C2126 1.358 . S
C2123 H2180 0.930 . S
N2124 C2123 1.279 . S
N2124 C2127 1.314 . S
C2125 C2122 1.348 . S
C2125 C2127 1.353 . S
C2125 H2181 0.929 . S
C2126 C2122 1.356 . S
C2126 C2123 1.358 . S
C2126 H2182 0.930 . S
C2127 N2124 1.314 . S
C2127 C2125 1.353 . S
C2127 H2183 0.930 . S
C2128 N2129 1.314 . S
C2128 C2133 1.353 . S
C2128 H2134 0.930 . S
N2129 Li2112 1.990 . S
N2129 C2128 1.314 . S
N2129 C2131 1.279 . S
C2130 C2131 1.358 . S
C2130 C2132 1.356 . S
C2130 H2184 0.930 . S
C2131 N2129 1.279 . S
C2131 C2130 1.358 . S
C2131 H2135 0.930 . S
C2132 C2130 1.356 . S
C2132 C2133 1.348 . S
C2133 C2128 1.353 . S
C2133 C2132 1.348 . S
C2133 H2185 0.929 . S
H2134 C2128 0.930 . S
H2135 C2131 0.930 . S
C2136 N2137 1.314 . S
C2136 C2138 1.353 . S
C2136 H2142 0.930 . S
N2137 Li2113 1.990 . S
N2137 C2136 1.314 . S
N2137 C2140 1.279 . S
C2138 C2136 1.353 . S
C2138 C2141 1.348 . S
C2138 H2186 0.929 . S
C2139 C2140 1.358 1_554 S
C2139 C2141 1.356 1_554 S
C2139 H2187 0.930 . S
C2140 N2137 1.279 . S
C2140 C2139 1.358 1_556 S
C2140 H2143 0.930 . S
C2141 C2138 1.348 . S
C2141 C2139 1.356 1_556 S
H2142 C2136 0.930 . S
H2143 C2140 0.930 . S
C2144 C2146 1.348 . S
C2144 C2147 1.356 . S
C2144 O2174 1.325 . S
N2145 C2148 1.314 . S
N2145 C2149 1.279 . S
C2146 C2144 1.348 . S
C2146 C2148 1.353 . S
C2146 H2188 0.929 . S
C2147 C2144 1.356 . S
C2147 C2149 1.358 . S
C2147 H2189 0.930 . S
C2148 N2145 1.314 . S
C2148 C2146 1.353 . S
C2148 H2190 0.930 . S
C2149 N2145 1.279 . S
C2149 C2147 1.358 . S
C2149 H2191 0.930 . S
C2150 C2151 1.348 . S
C2150 C2152 1.356 . S
C2150 O2175 1.325 . S
C2151 C2150 1.348 . S
C2151 C2153 1.353 . S
C2151 H2192 0.929 . S
C2152 C2150 1.356 . S
C2152 C2154 1.358 . S
C2152 H2193 0.930 . S
C2153 C2151 1.353 . S
C2153 N2155 1.314 . S
C2153 H2194 0.930 . S
C2154 C2152 1.358 . S
C2154 N2155 1.279 . S
C2154 H2195 0.930 . S
N2155 C2153 1.314 . S
N2155 C2154 1.279 . S
C2156 C2158 1.353 . S
C2156 N2159 1.314 . S
C2156 H2162 0.930 . S
C2157 N2159 1.279 . S
C2157 C2160 1.358 . S
C2157 H2163 0.930 . S
C2158 C2156 1.353 . S
C2158 C2161 1.348 . S
C2158 H2196 0.929 . S
N2159 Li2114 1.990 . S
N2159 C2156 1.314 . S
N2159 C2157 1.279 . S
C2160 C2157 1.358 . S
C2160 C2161 1.356 . S
C2160 H2197 0.930 . S
C2161 C2158 1.348 . S
C2161 C2160 1.356 . S
H2162 C2156 0.930 . S
H2163 C2157 0.930 . S
C2164 N2165 1.314 . S
C2164 C2166 1.353 . S
C2164 H2170 0.930 . S
N2165 Li2115 1.990 . S
N2165 C2164 1.314 . S
N2165 C2168 1.279 . S
C2166 C2164 1.353 . S
C2166 C2169 1.348 . S
C2166 H2198 0.929 . S
C2167 C2168 1.358 . S
C2167 C2169 1.356 . S
C2167 H2199 0.930 . S
C2168 N2165 1.279 . S
C2168 C2167 1.358 . S
C2168 H2171 0.930 . S
C2169 C2166 1.348 . S
C2169 C2167 1.356 . S
H2170 C2164 0.930 . S
H2171 C2168 0.930 . S
O2172 Li2112 1.956 . S
O2172 Li2113 1.970 . S
O2172 Li2114 1.961 . S
O2172 C2116 1.325 . S
O2173 Li2112 1.970 . S
O2173 Li2113 1.956 . S
O2173 Li2115 1.961 . S
O2173 C2122 1.325 . S
O2174 Li2112 1.961 . S
O2174 Li2114 1.956 . S
O2174 Li2115 1.970 . S
O2174 C2144 1.325 . S
O2175 Li2113 1.961 . S
O2175 Li2114 1.970 . S
O2175 Li2115 1.956 . S
O2175 C2150 1.325 . S
H2176 C2118 0.929 . S
H2177 C2119 0.930 . S
H2178 C2120 0.930 . S
H2179 C2121 0.930 . S
H2180 C2123 0.930 . S
H2181 C2125 0.929 . S
H2182 C2126 0.930 . S
H2183 C2127 0.930 . S
H2184 C2130 0.930 . S
H2185 C2133 0.929 . S
H2186 C2138 0.929 . S
H2187 C2139 0.930 . S
H2188 C2146 0.929 . S
H2189 C2147 0.930 . S
H2190 C2148 0.930 . S
H2191 C2149 0.930 . S
H2192 C2151 0.929 . S
H2193 C2152 0.930 . S
H2194 C2153 0.930 . S
H2195 C2154 0.930 . S
H2196 C2158 0.929 . S
H2197 C2160 0.930 . S
H2198 C2166 0.929 . S
H2199 C2167 0.930 . S
Li2200 N2217 1.990 . S
Li2200 O2260 1.956 . S
Li2200 O2261 1.970 . S
Li2200 O2262 1.961 . S
Li2201 N2225 1.990 . S
Li2201 O2260 1.970 . S
Li2201 O2261 1.956 . S
Li2201 O2263 1.961 . S
Li2202 N2247 1.990 . S
Li2202 O2260 1.961 . S
Li2202 O2262 1.956 . S
Li2202 O2263 1.970 . S
Li2203 N2253 1.990 . S
Li2203 O2261 1.961 . S
Li2203 O2262 1.970 . S
Li2203 O2263 1.956 . S
C2204 C2206 1.348 . S
C2204 C2207 1.356 . S
C2204 O2260 1.325 . S
N2205 C2208 1.314 . S
N2205 C2209 1.279 . S
C2206 C2204 1.348 . S
C2206 C2208 1.353 . S
C2206 H2264 0.929 . S
C2207 C2204 1.356 . S
C2207 C2209 1.358 . S
C2207 H2265 0.930 . S
C2208 N2205 1.314 . S
C2208 C2206 1.353 . S
C2208 H2266 0.930 . S
C2209 N2205 1.279 . S
C2209 C2207 1.358 . S
C2209 H2267 0.930 . S
C2210 C2213 1.348 . S
C2210 C2214 1.356 . S
C2210 O2261 1.325 . S
C2211 N2212 1.279 . S
C2211 C2214 1.358 . S
C2211 H2268 0.930 . S
N2212 C2211 1.279 . S
N2212 C2215 1.314 . S
C2213 C2210 1.348 . S
C2213 C2215 1.353 . S
C2213 H2269 0.929 . S
C2214 C2210 1.356 . S
C2214 C2211 1.358 . S
C2214 H2270 0.930 . S
C2215 N2212 1.314 . S
C2215 C2213 1.353 . S
C2215 H2271 0.930 . S
C2216 N2217 1.314 . S
C2216 C2221 1.353 . S
C2216 H2222 0.930 . S
N2217 Li2200 1.990 . S
N2217 C2216 1.314 . S
N2217 C2219 1.279 . S
C2218 C2219 1.358 . S
C2218 C2220 1.356 . S
C2218 H2272 0.930 . S
C2219 N2217 1.279 . S
C2219 C2218 1.358 . S
C2219 H2223 0.930 . S
C2220 C2218 1.356 . S
C2220 C2221 1.348 . S
C2221 C2216 1.353 . S
C2221 C2220 1.348 . S
C2221 H2273 0.929 . S
H2222 C2216 0.930 . S
H2223 C2219 0.930 . S
C2224 N2225 1.314 . S
C2224 C2226 1.353 . S
C2224 H2230 0.930 . S
N2225 Li2201 1.990 . S
N2225 C2224 1.314 . S
N2225 C2228 1.279 . S
C2226 C2224 1.353 . S
C2226 C2229 1.348 . S
C2226 H2274 0.929 . S
C2227 C2228 1.358 1_554 S
C2227 C2229 1.356 1_554 S
C2227 H2275 0.930 . S
C2228 N2225 1.279 . S
C2228 C2227 1.358 1_556 S
C2228 H2231 0.930 . S
C2229 C2226 1.348 . S
C2229 C2227 1.356 1_556 S
H2230 C2224 0.930 . S
H2231 C2228 0.930 . S
C2232 C2234 1.348 . S
C2232 C2235 1.356 . S
C2232 O2262 1.325 . S
N2233 C2236 1.314 . S
N2233 C2237 1.279 . S
C2234 C2232 1.348 . S
C2234 C2236 1.353 . S
C2234 H2276 0.929 . S
C2235 C2232 1.356 . S
C2235 C2237 1.358 . S
C2235 H2277 0.930 . S
C2236 N2233 1.314 . S
C2236 C2234 1.353 . S
C2236 H2278 0.930 . S
C2237 N2233 1.279 . S
C2237 C2235 1.358 . S
C2237 H2279 0.930 . S
C2238 C2239 1.348 . S
C2238 C2240 1.356 . S
C2238 O2263 1.325 . S
C2239 C2238 1.348 . S
C2239 C2241 1.353 . S
C2239 H2280 0.929 . S
C2240 C2238 1.356 . S
C2240 C2242 1.358 . S
C2240 H2281 0.930 . S
C2241 C2239 1.353 . S
C2241 N2243 1.314 . S
C2241 H2282 0.930 . S
C2242 C2240 1.358 . S
C2242 N2243 1.279 . S
C2242 H2283 0.930 . S
N2243 C2241 1.314 . S
N2243 C2242 1.279 . S
C2244 C2246 1.353 . S
C2244 N2247 1.314 . S
C2244 H2250 0.930 . S
C2245 N2247 1.279 . S
C2245 C2248 1.358 . S
C2245 H2251 0.930 . S
C2246 C2244 1.353 . S
C2246 C2249 1.348 . S
C2246 H2284 0.929 . S
N2247 Li2202 1.990 . S
N2247 C2244 1.314 . S
N2247 C2245 1.279 . S
C2248 C2245 1.358 . S
C2248 C2249 1.356 . S
C2248 H2285 0.930 . S
C2249 C2246 1.348 . S
C2249 C2248 1.356 . S
H2250 C2244 0.930 . S
H2251 C2245 0.930 . S
C2252 N2253 1.314 . S
C2252 C2254 1.353 . S
C2252 H2258 0.930 . S
N2253 Li2203 1.990 . S
N2253 C2252 1.314 . S
N2253 C2256 1.279 . S
C2254 C2252 1.353 . S
C2254 C2257 1.348 . S
C2254 H2286 0.929 . S
C2255 C2256 1.358 . S
C2255 C2257 1.356 . S
C2255 H2287 0.930 . S
C2256 N2253 1.279 . S
C2256 C2255 1.358 . S
C2256 H2259 0.930 . S
C2257 C2254 1.348 . S
C2257 C2255 1.356 . S
H2258 C2252 0.930 . S
H2259 C2256 0.930 . S
O2260 Li2200 1.956 . S
O2260 Li2201 1.970 . S
O2260 Li2202 1.961 . S
O2260 C2204 1.325 . S
O2261 Li2200 1.970 . S
O2261 Li2201 1.956 . S
O2261 Li2203 1.961 . S
O2261 C2210 1.325 . S
O2262 Li2200 1.961 . S
O2262 Li2202 1.956 . S
O2262 Li2203 1.970 . S
O2262 C2232 1.325 . S
O2263 Li2201 1.961 . S
O2263 Li2202 1.970 . S
O2263 Li2203 1.956 . S
O2263 C2238 1.325 . S
H2264 C2206 0.929 . S
H2265 C2207 0.930 . S
H2266 C2208 0.930 . S
H2267 C2209 0.930 . S
H2268 C2211 0.930 . S
H2269 C2213 0.929 . S
H2270 C2214 0.930 . S
H2271 C2215 0.930 . S
H2272 C2218 0.930 . S
H2273 C2221 0.929 . S
H2274 C2226 0.929 . S
H2275 C2227 0.930 . S
H2276 C2234 0.929 . S
H2277 C2235 0.930 . S
H2278 C2236 0.930 . S
H2279 C2237 0.930 . S
H2280 C2239 0.929 . S
H2281 C2240 0.930 . S
H2282 C2241 0.930 . S
H2283 C2242 0.930 . S
H2284 C2246 0.929 . S
H2285 C2248 0.930 . S
H2286 C2254 0.929 . S
H2287 C2255 0.930 . S
Li2288 N2305 1.990 . S
Li2288 O2348 1.956 . S
Li2288 O2349 1.970 . S
Li2288 O2350 1.961 . S
Li2289 N2313 1.990 . S
Li2289 O2348 1.970 . S
Li2289 O2349 1.956 . S
Li2289 O2351 1.961 . S
Li2290 N2335 1.990 . S
Li2290 O2348 1.961 . S
Li2290 O2350 1.956 . S
Li2290 O2351 1.970 . S
Li2291 N2341 1.990 . S
Li2291 O2349 1.961 . S
Li2291 O2350 1.970 . S
Li2291 O2351 1.956 . S
C2292 C2294 1.348 . S
C2292 C2295 1.356 . S
C2292 O2348 1.325 . S
N2293 C2296 1.314 . S
N2293 C2297 1.279 . S
C2294 C2292 1.348 . S
C2294 C2296 1.353 . S
C2294 H2352 0.929 . S
C2295 C2292 1.356 . S
C2295 C2297 1.358 . S
C2295 H2353 0.930 . S
C2296 N2293 1.314 . S
C2296 C2294 1.353 . S
C2296 H2354 0.930 . S
C2297 N2293 1.279 . S
C2297 C2295 1.358 . S
C2297 H2355 0.930 . S
C2298 C2301 1.348 . S
C2298 C2302 1.356 . S
C2298 O2349 1.325 . S
C2299 N2300 1.279 . S
C2299 C2302 1.358 . S
C2299 H2356 0.930 . S
N2300 C2299 1.279 . S
N2300 C2303 1.314 . S
C2301 C2298 1.348 . S
C2301 C2303 1.353 . S
C2301 H2357 0.929 . S
C2302 C2298 1.356 . S
C2302 C2299 1.358 . S
C2302 H2358 0.930 . S
C2303 N2300 1.314 . S
C2303 C2301 1.353 . S
C2303 H2359 0.930 . S
C2304 N2305 1.314 . S
C2304 C2309 1.353 . S
C2304 H2310 0.930 . S
N2305 Li2288 1.990 . S
N2305 C2304 1.314 . S
N2305 C2307 1.279 . S
C2306 C2307 1.358 . S
C2306 C2308 1.356 . S
C2306 H2360 0.930 . S
C2307 N2305 1.279 . S
C2307 C2306 1.358 . S
C2307 H2311 0.930 . S
C2308 C2306 1.356 . S
C2308 C2309 1.348 . S
C2309 C2304 1.353 . S
C2309 C2308 1.348 . S
C2309 H2361 0.929 . S
H2310 C2304 0.930 . S
H2311 C2307 0.930 . S
C2312 N2313 1.314 . S
C2312 C2314 1.353 . S
C2312 H2318 0.930 . S
N2313 Li2289 1.990 . S
N2313 C2312 1.314 . S
N2313 C2316 1.279 . S
C2314 C2312 1.353 . S
C2314 C2317 1.348 . S
C2314 H2362 0.929 . S
C2315 C2316 1.358 1_554 S
C2315 C2317 1.356 1_554 S
C2315 H2363 0.930 . S
C2316 N2313 1.279 . S
C2316 C2315 1.358 1_556 S
C2316 H2319 0.930 . S
C2317 C2314 1.348 . S
C2317 C2315 1.356 1_556 S
H2318 C2312 0.930 . S
H2319 C2316 0.930 . S
C2320 C2322 1.348 . S
C2320 C2323 1.356 . S
C2320 O2350 1.325 . S
N2321 C2324 1.314 . S
N2321 C2325 1.279 . S
C2322 C2320 1.348 . S
C2322 C2324 1.353 . S
C2322 H2364 0.929 . S
C2323 C2320 1.356 . S
C2323 C2325 1.358 . S
C2323 H2365 0.930 . S
C2324 N2321 1.314 . S
C2324 C2322 1.353 . S
C2324 H2366 0.930 . S
C2325 N2321 1.279 . S
C2325 C2323 1.358 . S
C2325 H2367 0.930 . S
C2326 C2327 1.348 . S
C2326 C2328 1.356 . S
C2326 O2351 1.325 . S
C2327 C2326 1.348 . S
C2327 C2329 1.353 . S
C2327 H2368 0.929 . S
C2328 C2326 1.356 . S
C2328 C2330 1.358 . S
C2328 H2369 0.930 . S
C2329 C2327 1.353 . S
C2329 N2331 1.314 . S
C2329 H2370 0.930 . S
C2330 C2328 1.358 . S
C2330 N2331 1.279 . S
C2330 H2371 0.930 . S
N2331 C2329 1.314 . S
N2331 C2330 1.279 . S
C2332 C2334 1.353 . S
C2332 N2335 1.314 . S
C2332 H2338 0.930 . S
C2333 N2335 1.279 . S
C2333 C2336 1.358 . S
C2333 H2339 0.930 . S
C2334 C2332 1.353 . S
C2334 C2337 1.348 . S
C2334 H2372 0.929 . S
N2335 Li2290 1.990 . S
N2335 C2332 1.314 . S
N2335 C2333 1.279 . S
C2336 C2333 1.358 . S
C2336 C2337 1.356 . S
C2336 H2373 0.930 . S
C2337 C2334 1.348 . S
C2337 C2336 1.356 . S
H2338 C2332 0.930 . S
H2339 C2333 0.930 . S
C2340 N2341 1.314 . S
C2340 C2342 1.353 . S
C2340 H2346 0.930 . S
N2341 Li2291 1.990 . S
N2341 C2340 1.314 . S
N2341 C2344 1.279 . S
C2342 C2340 1.353 . S
C2342 C2345 1.348 . S
C2342 H2374 0.929 . S
C2343 C2344 1.358 . S
C2343 C2345 1.356 . S
C2343 H2375 0.930 . S
C2344 N2341 1.279 . S
C2344 C2343 1.358 . S
C2344 H2347 0.930 . S
C2345 C2342 1.348 . S
C2345 C2343 1.356 . S
H2346 C2340 0.930 . S
H2347 C2344 0.930 . S
O2348 Li2288 1.956 . S
O2348 Li2289 1.970 . S
O2348 Li2290 1.961 . S
O2348 C2292 1.325 . S
O2349 Li2288 1.970 . S
O2349 Li2289 1.956 . S
O2349 Li2291 1.961 . S
O2349 C2298 1.325 . S
O2350 Li2288 1.961 . S
O2350 Li2290 1.956 . S
O2350 Li2291 1.970 . S
O2350 C2320 1.325 . S
O2351 Li2289 1.961 . S
O2351 Li2290 1.970 . S
O2351 Li2291 1.956 . S
O2351 C2326 1.325 . S
H2352 C2294 0.929 . S
H2353 C2295 0.930 . S
H2354 C2296 0.930 . S
H2355 C2297 0.930 . S
H2356 C2299 0.930 . S
H2357 C2301 0.929 . S
H2358 C2302 0.930 . S
H2359 C2303 0.930 . S
H2360 C2306 0.930 . S
H2361 C2309 0.929 . S
H2362 C2314 0.929 . S
H2363 C2315 0.930 . S
H2364 C2322 0.929 . S
H2365 C2323 0.930 . S
H2366 C2324 0.930 . S
H2367 C2325 0.930 . S
H2368 C2327 0.929 . S
H2369 C2328 0.930 . S
H2370 C2329 0.930 . S
H2371 C2330 0.930 . S
H2372 C2334 0.929 . S
H2373 C2336 0.930 . S
H2374 C2342 0.929 . S
H2375 C2343 0.930 . S
Li2376 N2393 1.990 . S
Li2376 O2436 1.956 . S
Li2376 O2437 1.970 . S
Li2376 O2438 1.961 . S
Li2377 N2401 1.990 . S
Li2377 O2436 1.970 . S
Li2377 O2437 1.956 . S
Li2377 O2439 1.961 . S
Li2378 N2423 1.990 1_554 S
Li2378 O2436 1.961 . S
Li2378 O2438 1.956 . S
Li2378 O2439 1.970 . S
Li2379 N2429 1.990 . S
Li2379 O2437 1.961 . S
Li2379 O2438 1.970 . S
Li2379 O2439 1.956 . S
C2380 C2382 1.348 . S
C2380 C2383 1.356 . S
C2380 O2436 1.325 . S
N2381 C2384 1.314 . S
N2381 C2385 1.279 . S
C2382 C2380 1.348 . S
C2382 C2384 1.353 . S
C2382 H2440 0.929 . S
C2383 C2380 1.356 . S
C2383 C2385 1.358 . S
C2383 H2441 0.930 . S
C2384 N2381 1.314 . S
C2384 C2382 1.353 . S
C2384 H2442 0.930 . S
C2385 N2381 1.279 . S
C2385 C2383 1.358 . S
C2385 H2443 0.930 . S
C2386 C2389 1.348 . S
C2386 C2390 1.356 . S
C2386 O2437 1.325 . S
C2387 N2388 1.279 . S
C2387 C2390 1.358 . S
C2387 H2444 0.930 . S
N2388 C2387 1.279 . S
N2388 C2391 1.314 . S
C2389 C2386 1.348 . S
C2389 C2391 1.353 . S
C2389 H2445 0.929 . S
C2390 C2386 1.356 . S
C2390 C2387 1.358 . S
C2390 H2446 0.930 . S
C2391 N2388 1.314 . S
C2391 C2389 1.353 . S
C2391 H2447 0.930 . S
C2392 N2393 1.314 . S
C2392 C2397 1.353 . S
C2392 H2398 0.930 . S
N2393 Li2376 1.990 . S
N2393 C2392 1.314 . S
N2393 C2395 1.279 . S
C2394 C2395 1.358 . S
C2394 C2396 1.356 . S
C2394 H2448 0.930 . S
C2395 N2393 1.279 . S
C2395 C2394 1.358 . S
C2395 H2399 0.930 . S
C2396 C2394 1.356 . S
C2396 C2397 1.348 . S
C2397 C2392 1.353 . S
C2397 C2396 1.348 . S
C2397 H2449 0.929 . S
H2398 C2392 0.930 . S
H2399 C2395 0.930 . S
C2400 N2401 1.314 . S
C2400 C2402 1.353 . S
C2400 H2406 0.930 . S
N2401 Li2377 1.990 . S
N2401 C2400 1.314 . S
N2401 C2404 1.279 . S
C2402 C2400 1.353 . S
C2402 C2405 1.348 . S
C2402 H2450 0.929 . S
C2403 C2404 1.358 . S
C2403 C2405 1.356 . S
C2403 H2451 0.930 . S
C2404 N2401 1.279 . S
C2404 C2403 1.358 . S
C2404 H2407 0.930 . S
C2405 C2402 1.348 . S
C2405 C2403 1.356 . S
H2406 C2400 0.930 . S
H2407 C2404 0.930 . S
C2408 C2410 1.348 . S
C2408 C2411 1.356 . S
C2408 O2438 1.325 1_556 S
N2409 C2412 1.314 . S
N2409 C2413 1.279 . S
C2410 C2408 1.348 . S
C2410 C2412 1.353 . S
C2410 H2452 0.929 . S
C2411 C2408 1.356 . S
C2411 C2413 1.358 . S
C2411 H2453 0.930 . S
C2412 N2409 1.314 . S
C2412 C2410 1.353 . S
C2412 H2454 0.930 . S
C2413 N2409 1.279 . S
C2413 C2411 1.358 . S
C2413 H2455 0.930 . S
C2414 C2415 1.348 . S
C2414 C2416 1.356 . S
C2414 O2439 1.325 . S
C2415 C2414 1.348 . S
C2415 C2417 1.353 . S
C2415 H2456 0.929 1_554 S
C2416 C2414 1.356 . S
C2416 C2418 1.358 . S
C2416 H2457 0.930 . S
C2417 C2415 1.353 . S
C2417 N2419 1.314 . S
C2417 H2458 0.930 1_554 S
C2418 C2416 1.358 . S
C2418 N2419 1.279 . S
C2418 H2459 0.930 . S
N2419 C2417 1.314 . S
N2419 C2418 1.279 . S
C2420 C2422 1.353 . S
C2420 N2423 1.314 . S
C2420 H2426 0.930 1_556 S
C2421 N2423 1.279 . S
C2421 C2424 1.358 . S
C2421 H2427 0.930 . S
C2422 C2420 1.353 . S
C2422 C2425 1.348 . S
C2422 H2460 0.929 . S
N2423 Li2378 1.990 1_556 S
N2423 C2420 1.314 . S
N2423 C2421 1.279 . S
C2424 C2421 1.358 . S
C2424 C2425 1.356 . S
C2424 H2461 0.930 . S
C2425 C2422 1.348 . S
C2425 C2424 1.356 . S
H2426 C2420 0.930 1_554 S
H2427 C2421 0.930 . S
C2428 N2429 1.314 . S
C2428 C2430 1.353 . S
C2428 H2434 0.930 . S
N2429 Li2379 1.990 . S
N2429 C2428 1.314 . S
N2429 C2432 1.279 . S
C2430 C2428 1.353 . S
C2430 C2433 1.348 . S
C2430 H2462 0.929 . S
C2431 C2432 1.358 . S
C2431 C2433 1.356 . S
C2431 H2463 0.930 1_554 S
C2432 N2429 1.279 . S
C2432 C2431 1.358 . S
C2432 H2435 0.930 . S
C2433 C2430 1.348 . S
C2433 C2431 1.356 . S
H2434 C2428 0.930 . S
H2435 C2432 0.930 . S
O2436 Li2376 1.956 . S
O2436 Li2377 1.970 . S
O2436 Li2378 1.961 . S
O2436 C2380 1.325 . S
O2437 Li2376 1.970 . S
O2437 Li2377 1.956 . S
O2437 Li2379 1.961 . S
O2437 C2386 1.325 . S
O2438 Li2376 1.961 . S
O2438 Li2378 1.956 . S
O2438 Li2379 1.970 . S
O2438 C2408 1.325 1_554 S
O2439 Li2377 1.961 . S
O2439 Li2378 1.970 . S
O2439 Li2379 1.956 . S
O2439 C2414 1.325 . S
H2440 C2382 0.929 . S
H2441 C2383 0.930 . S
H2442 C2384 0.930 . S
H2443 C2385 0.930 . S
H2444 C2387 0.930 . S
H2445 C2389 0.929 . S
H2446 C2390 0.930 . S
H2447 C2391 0.930 . S
H2448 C2394 0.930 . S
H2449 C2397 0.929 . S
H2450 C2402 0.929 . S
H2451 C2403 0.930 . S
H2452 C2410 0.929 . S
H2453 C2411 0.930 . S
H2454 C2412 0.930 . S
H2455 C2413 0.930 . S
H2456 C2415 0.929 1_556 S
H2457 C2416 0.930 . S
H2458 C2417 0.930 1_556 S
H2459 C2418 0.930 . S
H2460 C2422 0.929 . S
H2461 C2424 0.930 . S
H2462 C2430 0.929 . S
H2463 C2431 0.930 1_556 S
Li2464 N2481 1.990 . S
Li2464 O2524 1.956 . S
Li2464 O2525 1.970 . S
Li2464 O2526 1.961 . S
Li2465 N2489 1.990 . S
Li2465 O2524 1.970 . S
Li2465 O2525 1.956 . S
Li2465 O2527 1.961 . S
Li2466 N2511 1.990 1_554 S
Li2466 O2524 1.961 . S
Li2466 O2526 1.956 . S
Li2466 O2527 1.970 . S
Li2467 N2517 1.990 . S
Li2467 O2525 1.961 . S
Li2467 O2526 1.970 . S
Li2467 O2527 1.956 . S
C2468 C2470 1.348 . S
C2468 C2471 1.356 . S
C2468 O2524 1.325 . S
N2469 C2472 1.314 . S
N2469 C2473 1.279 . S
C2470 C2468 1.348 . S
C2470 C2472 1.353 . S
C2470 H2528 0.929 . S
C2471 C2468 1.356 . S
C2471 C2473 1.358 . S
C2471 H2529 0.930 . S
C2472 N2469 1.314 . S
C2472 C2470 1.353 . S
C2472 H2530 0.930 . S
C2473 N2469 1.279 . S
C2473 C2471 1.358 . S
C2473 H2531 0.930 . S
C2474 C2477 1.348 . S
C2474 C2478 1.356 . S
C2474 O2525 1.325 . S
C2475 N2476 1.279 . S
C2475 C2478 1.358 . S
C2475 H2532 0.930 . S
N2476 C2475 1.279 . S
N2476 C2479 1.314 . S
C2477 C2474 1.348 . S
C2477 C2479 1.353 . S
C2477 H2533 0.929 . S
C2478 C2474 1.356 . S
C2478 C2475 1.358 . S
C2478 H2534 0.930 . S
C2479 N2476 1.314 . S
C2479 C2477 1.353 . S
C2479 H2535 0.930 . S
C2480 N2481 1.314 . S
C2480 C2485 1.353 . S
C2480 H2486 0.930 . S
N2481 Li2464 1.990 . S
N2481 C2480 1.314 . S
N2481 C2483 1.279 . S
C2482 C2483 1.358 . S
C2482 C2484 1.356 . S
C2482 H2536 0.930 . S
C2483 N2481 1.279 . S
C2483 C2482 1.358 . S
C2483 H2487 0.930 . S
C2484 C2482 1.356 . S
C2484 C2485 1.348 . S
C2485 C2480 1.353 . S
C2485 C2484 1.348 . S
C2485 H2537 0.929 . S
H2486 C2480 0.930 . S
H2487 C2483 0.930 . S
C2488 N2489 1.314 . S
C2488 C2490 1.353 . S
C2488 H2494 0.930 . S
N2489 Li2465 1.990 . S
N2489 C2488 1.314 . S
N2489 C2492 1.279 . S
C2490 C2488 1.353 . S
C2490 C2493 1.348 . S
C2490 H2538 0.929 . S
C2491 C2492 1.358 . S
C2491 C2493 1.356 . S
C2491 H2539 0.930 . S
C2492 N2489 1.279 . S
C2492 C2491 1.358 . S
C2492 H2495 0.930 . S
C2493 C2490 1.348 . S
C2493 C2491 1.356 . S
H2494 C2488 0.930 . S
H2495 C2492 0.930 . S
C2496 C2498 1.348 . S
C2496 C2499 1.356 . S
C2496 O2526 1.325 1_556 S
N2497 C2500 1.314 . S
N2497 C2501 1.279 . S
C2498 C2496 1.348 . S
C2498 C2500 1.353 . S
C2498 H2540 0.929 . S
C2499 C2496 1.356 . S
C2499 C2501 1.358 . S
C2499 H2541 0.930 . S
C2500 N2497 1.314 . S
C2500 C2498 1.353 . S
C2500 H2542 0.930 . S
C2501 N2497 1.279 . S
C2501 C2499 1.358 . S
C2501 H2543 0.930 . S
C2502 C2503 1.348 . S
C2502 C2504 1.356 . S
C2502 O2527 1.325 . S
C2503 C2502 1.348 . S
C2503 C2505 1.353 . S
C2503 H2544 0.929 1_554 S
C2504 C2502 1.356 . S
C2504 C2506 1.358 . S
C2504 H2545 0.930 . S
C2505 C2503 1.353 . S
C2505 N2507 1.316 . S
C2505 H2546 0.927 1_554 S
C2506 C2504 1.358 . S
C2506 N2507 1.279 . S
C2506 H2547 0.930 . S
N2507 C2505 1.316 . S
N2507 C2506 1.279 . S
C2508 C2510 1.353 . S
C2508 N2511 1.314 . S
C2508 H2514 0.930 1_556 S
C2509 N2511 1.279 . S
C2509 C2512 1.358 . S
C2509 H2515 0.930 . S
C2510 C2508 1.353 . S
C2510 C2513 1.348 . S
C2510 H2548 0.929 . S
N2511 Li2466 1.990 1_556 S
N2511 C2508 1.314 . S
N2511 C2509 1.279 . S
C2512 C2509 1.358 . S
C2512 C2513 1.356 . S
C2512 H2549 0.930 . S
C2513 C2510 1.348 . S
C2513 C2512 1.356 . S
H2514 C2508 0.930 1_554 S
H2515 C2509 0.930 . S
C2516 N2517 1.314 . S
C2516 C2518 1.353 . S
C2516 H2522 0.930 . S
N2517 Li2467 1.990 . S
N2517 C2516 1.314 . S
N2517 C2520 1.279 . S
C2518 C2516 1.353 . S
C2518 C2521 1.348 . S
C2518 H2550 0.929 . S
C2519 C2520 1.358 . S
C2519 C2521 1.356 . S
C2519 H2551 0.930 1_554 S
C2520 N2517 1.279 . S
C2520 C2519 1.358 . S
C2520 H2523 0.930 . S
C2521 C2518 1.348 . S
C2521 C2519 1.356 . S
H2522 C2516 0.930 . S
H2523 C2520 0.930 . S
O2524 Li2464 1.956 . S
O2524 Li2465 1.970 . S
O2524 Li2466 1.961 . S
O2524 C2468 1.325 . S
O2525 Li2464 1.970 . S
O2525 Li2465 1.956 . S
O2525 Li2467 1.961 . S
O2525 C2474 1.325 . S
O2526 Li2464 1.961 . S
O2526 Li2466 1.956 . S
O2526 Li2467 1.970 . S
O2526 C2496 1.325 1_554 S
O2527 Li2465 1.961 . S
O2527 Li2466 1.970 . S
O2527 Li2467 1.956 . S
O2527 C2502 1.325 . S
H2528 C2470 0.929 . S
H2529 C2471 0.930 . S
H2530 C2472 0.930 . S
H2531 C2473 0.930 . S
H2532 C2475 0.930 . S
H2533 C2477 0.929 . S
H2534 C2478 0.930 . S
H2535 C2479 0.930 . S
H2536 C2482 0.930 . S
H2537 C2485 0.929 . S
H2538 C2490 0.929 . S
H2539 C2491 0.930 . S
H2540 C2498 0.929 . S
H2541 C2499 0.930 . S
H2542 C2500 0.930 . S
H2543 C2501 0.930 . S
H2544 C2503 0.929 1_556 S
H2545 C2504 0.930 . S
H2546 C2505 0.927 1_556 S
H2547 C2506 0.930 . S
H2548 C2510 0.929 . S
H2549 C2512 0.930 . S
H2550 C2518 0.929 . S
H2551 C2519 0.930 1_556 S
Li2552 N2569 1.990 . S
Li2552 O2612 1.956 . S
Li2552 O2613 1.970 . S
Li2552 O2614 1.961 . S
Li2553 N2577 1.990 . S
Li2553 O2612 1.970 . S
Li2553 O2613 1.956 . S
Li2553 O2615 1.961 . S
Li2554 N2599 1.990 . S
Li2554 O2612 1.961 . S
Li2554 O2614 1.956 . S
Li2554 O2615 1.970 . S
Li2555 N2605 1.990 1_554 S
Li2555 O2613 1.961 . S
Li2555 O2614 1.970 . S
Li2555 O2615 1.956 . S
C2556 C2558 1.348 . S
C2556 C2559 1.356 . S
C2556 O2612 1.325 . S
N2557 C2560 1.314 . S
N2557 C2561 1.279 . S
C2558 C2556 1.348 . S
C2558 C2560 1.353 . S
C2558 H2616 0.929 . S
C2559 C2556 1.356 . S
C2559 C2561 1.358 . S
C2559 H2617 0.930 . S
C2560 N2557 1.314 . S
C2560 C2558 1.353 . S
C2560 H2618 0.930 . S
C2561 N2557 1.279 . S
C2561 C2559 1.358 . S
C2561 H2619 0.930 . S
C2562 C2565 1.348 . S
C2562 C2566 1.356 . S
C2562 O2613 1.325 . S
C2563 N2564 1.279 . S
C2563 C2566 1.358 . S
C2563 H2620 0.930 . S
N2564 C2563 1.279 . S
N2564 C2567 1.314 . S
C2565 C2562 1.348 . S
C2565 C2567 1.353 . S
C2565 H2621 0.929 . S
C2566 C2562 1.356 . S
C2566 C2563 1.358 . S
C2566 H2622 0.930 . S
C2567 N2564 1.314 . S
C2567 C2565 1.353 . S
C2567 H2623 0.930 . S
C2568 N2569 1.314 . S
C2568 C2573 1.353 . S
C2568 H2574 0.930 . S
N2569 Li2552 1.990 . S
N2569 C2568 1.314 . S
N2569 C2571 1.279 . S
C2570 C2571 1.358 . S
C2570 C2572 1.356 . S
C2570 H2624 0.930 . S
C2571 N2569 1.279 . S
C2571 C2570 1.358 . S
C2571 H2575 0.930 . S
C2572 C2570 1.356 . S
C2572 C2573 1.348 . S
C2573 C2568 1.353 . S
C2573 C2572 1.348 . S
C2573 H2625 0.929 . S
H2574 C2568 0.930 . S
H2575 C2571 0.930 . S
C2576 N2577 1.314 . S
C2576 C2578 1.353 . S
C2576 H2582 0.930 . S
N2577 Li2553 1.990 . S
N2577 C2576 1.314 . S
N2577 C2580 1.279 . S
C2578 C2576 1.353 . S
C2578 C2581 1.348 . S
C2578 H2626 0.929 . S
C2579 C2580 1.358 . S
C2579 C2581 1.356 . S
C2579 H2627 0.930 . S
C2580 N2577 1.279 . S
C2580 C2579 1.358 . S
C2580 H2583 0.930 . S
C2581 C2578 1.348 . S
C2581 C2579 1.356 . S
H2582 C2576 0.930 . S
H2583 C2580 0.930 . S
C2584 C2586 1.348 . S
C2584 C2587 1.356 . S
C2584 O2614 1.325 . S
N2585 C2588 1.317 . S
N2585 C2589 1.279 . S
C2586 C2584 1.348 . S
C2586 C2588 1.354 . S
C2586 H2628 0.929 1_554 S
C2587 C2584 1.356 . S
C2587 C2589 1.358 . S
C2587 H2629 0.930 . S
C2588 N2585 1.317 . S
C2588 C2586 1.354 . S
C2588 H2630 0.926 1_554 S
C2589 N2585 1.279 . S
C2589 C2587 1.358 . S
C2589 H2631 0.930 . S
C2590 C2591 1.348 . S
C2590 C2592 1.356 . S
C2590 O2615 1.325 1_556 S
C2591 C2590 1.348 . S
C2591 C2593 1.353 . S
C2591 H2632 0.929 . S
C2592 C2590 1.356 . S
C2592 C2594 1.358 . S
C2592 H2633 0.930 . S
C2593 C2591 1.353 . S
C2593 N2595 1.314 . S
C2593 H2634 0.930 . S
C2594 C2592 1.358 . S
C2594 N2595 1.279 . S
C2594 H2635 0.930 . S
N2595 C2593 1.314 . S
N2595 C2594 1.279 . S
C2596 C2598 1.353 . S
C2596 N2599 1.314 . S
C2596 H2602 0.930 . S
C2597 N2599 1.279 . S
C2597 C2600 1.358 . S
C2597 H2603 0.930 . S
C2598 C2596 1.353 . S
C2598 C2601 1.348 . S
C2598 H2636 0.929 . S
N2599 Li2554 1.990 . S
N2599 C2596 1.314 . S
N2599 C2597 1.279 . S
C2600 C2597 1.358 . S
C2600 C2601 1.356 . S
C2600 H2637 0.930 1_554 S
C2601 C2598 1.348 . S
C2601 C2600 1.356 . S
H2602 C2596 0.930 . S
H2603 C2597 0.930 . S
C2604 N2605 1.314 . S
C2604 C2606 1.353 . S
C2604 H2610 0.930 1_556 S
N2605 Li2555 1.990 1_556 S
N2605 C2604 1.314 . S
N2605 C2608 1.279 . S
C2606 C2604 1.353 . S
C2606 C2609 1.348 . S
C2606 H2638 0.929 . S
C2607 C2608 1.358 . S
C2607 C2609 1.356 . S
C2607 H2639 0.930 . S
C2608 N2605 1.279 . S
C2608 C2607 1.358 . S
C2608 H2611 0.930 . S
C2609 C2606 1.348 . S
C2609 C2607 1.356 . S
H2610 C2604 0.930 1_554 S
H2611 C2608 0.930 . S
O2612 Li2552 1.956 . S
O2612 Li2553 1.970 . S
O2612 Li2554 1.961 . S
O2612 C2556 1.325 . S
O2613 Li2552 1.970 . S
O2613 Li2553 1.956 . S
O2613 Li2555 1.961 . S
O2613 C2562 1.325 . S
O2614 Li2552 1.961 . S
O2614 Li2554 1.956 . S
O2614 Li2555 1.970 . S
O2614 C2584 1.325 . S
O2615 Li2553 1.961 . S
O2615 Li2554 1.970 . S
O2615 Li2555 1.956 . S
O2615 C2590 1.325 1_554 S
H2616 C2558 0.929 . S
H2617 C2559 0.930 . S
H2618 C2560 0.930 . S
H2619 C2561 0.930 . S
H2620 C2563 0.930 . S
H2621 C2565 0.929 . S
H2622 C2566 0.930 . S
H2623 C2567 0.930 . S
H2624 C2570 0.930 . S
H2625 C2573 0.929 . S
H2626 C2578 0.929 . S
H2627 C2579 0.930 . S
H2628 C2586 0.929 1_556 S
H2629 C2587 0.930 . S
H2630 C2588 0.926 1_556 S
H2631 C2589 0.930 . S
H2632 C2591 0.929 . S
H2633 C2592 0.930 . S
H2634 C2593 0.930 . S
H2635 C2594 0.930 . S
H2636 C2598 0.929 . S
H2637 C2600 0.930 1_556 S
H2638 C2606 0.929 . S
H2639 C2607 0.930 . S
Li2640 N2657 1.990 . S
Li2640 O2700 1.956 . S
Li2640 O2701 1.970 . S
Li2640 O2702 1.961 . S
Li2641 N2665 1.990 . S
Li2641 O2700 1.970 . S
Li2641 O2701 1.956 . S
Li2641 O2703 1.961 . S
Li2642 N2687 1.990 . S
Li2642 O2700 1.961 . S
Li2642 O2702 1.956 . S
Li2642 O2703 1.970 . S
Li2643 N2693 1.990 . S
Li2643 O2701 1.961 . S
Li2643 O2702 1.970 . S
Li2643 O2703 1.956 . S
C2644 C2646 1.348 . S
C2644 C2647 1.356 . S
C2644 O2700 1.325 . S
N2645 C2648 1.314 . S
N2645 C2649 1.279 . S
C2646 C2644 1.348 . S
C2646 C2648 1.353 . S
C2646 H2704 0.929 . S
C2647 C2644 1.356 . S
C2647 C2649 1.358 . S
C2647 H2705 0.930 . S
C2648 N2645 1.314 . S
C2648 C2646 1.353 . S
C2648 H2706 0.930 . S
C2649 N2645 1.279 . S
C2649 C2647 1.358 . S
C2649 H2707 0.930 . S
C2650 C2653 1.348 . S
C2650 C2654 1.356 . S
C2650 O2701 1.325 . S
C2651 N2652 1.279 . S
C2651 C2654 1.358 . S
C2651 H2708 0.930 . S
N2652 C2651 1.279 . S
N2652 C2655 1.314 . S
C2653 C2650 1.348 . S
C2653 C2655 1.353 . S
C2653 H2709 0.929 . S
C2654 C2650 1.356 . S
C2654 C2651 1.358 . S
C2654 H2710 0.930 . S
C2655 N2652 1.314 . S
C2655 C2653 1.353 . S
C2655 H2711 0.930 . S
C2656 N2657 1.314 . S
C2656 C2661 1.353 . S
C2656 H2662 0.930 . S
N2657 Li2640 1.990 . S
N2657 C2656 1.314 . S
N2657 C2659 1.279 . S
C2658 C2659 1.358 . S
C2658 C2660 1.356 . S
C2658 H2712 0.930 . S
C2659 N2657 1.279 . S
C2659 C2658 1.358 . S
C2659 H2663 0.930 . S
C2660 C2658 1.356 . S
C2660 C2661 1.348 . S
C2661 C2656 1.353 . S
C2661 C2660 1.348 . S
C2661 H2713 0.929 . S
H2662 C2656 0.930 . S
H2663 C2659 0.930 . S
C2664 N2665 1.314 . S
C2664 C2666 1.353 . S
C2664 H2670 0.930 . S
N2665 Li2641 1.990 . S
N2665 C2664 1.314 . S
N2665 C2668 1.279 . S
C2666 C2664 1.353 . S
C2666 C2669 1.348 . S
C2666 H2714 0.929 . S
C2667 C2668 1.358 . S
C2667 C2669 1.356 . S
C2667 H2715 0.930 . S
C2668 N2665 1.279 . S
C2668 C2667 1.358 . S
C2668 H2671 0.930 . S
C2669 C2666 1.348 . S
C2669 C2667 1.356 . S
H2670 C2664 0.930 . S
H2671 C2668 0.930 . S
C2672 C2674 1.348 . S
C2672 C2675 1.356 . S
C2672 O2702 1.325 . S
N2673 C2676 1.314 . S
N2673 C2677 1.279 . S
C2674 C2672 1.348 . S
C2674 C2676 1.353 . S
C2674 H2716 0.929 . S
C2675 C2672 1.356 . S
C2675 C2677 1.358 . S
C2675 H2717 0.930 . S
C2676 N2673 1.314 . S
C2676 C2674 1.353 . S
C2676 H2718 0.930 . S
C2677 N2673 1.279 . S
C2677 C2675 1.358 . S
C2677 H2719 0.930 . S
C2678 C2679 1.348 . S
C2678 C2680 1.356 . S
C2678 O2703 1.325 . S
C2679 C2678 1.348 . S
C2679 C2681 1.353 . S
C2679 H2720 0.929 . S
C2680 C2678 1.356 . S
C2680 C2682 1.358 . S
C2680 H2721 0.930 . S
C2681 C2679 1.353 . S
C2681 N2683 1.314 . S
C2681 H2722 0.930 . S
C2682 C2680 1.358 . S
C2682 N2683 1.279 . S
C2682 H2723 0.930 . S
N2683 C2681 1.314 . S
N2683 C2682 1.279 . S
C2684 C2686 1.353 . S
C2684 N2687 1.314 . S
C2684 H2690 0.930 . S
C2685 N2687 1.279 . S
C2685 C2688 1.358 . S
C2685 H2691 0.930 . S
C2686 C2684 1.353 . S
C2686 C2689 1.348 . S
C2686 H2724 0.929 . S
N2687 Li2642 1.990 . S
N2687 C2684 1.314 . S
N2687 C2685 1.279 . S
C2688 C2685 1.358 . S
C2688 C2689 1.356 . S
C2688 H2725 0.930 . S
C2689 C2686 1.348 . S
C2689 C2688 1.356 . S
H2690 C2684 0.930 . S
H2691 C2685 0.930 . S
C2692 N2693 1.314 . S
C2692 C2694 1.353 . S
C2692 H2698 0.930 . S
N2693 Li2643 1.990 . S
N2693 C2692 1.314 . S
N2693 C2696 1.279 . S
C2694 C2692 1.353 . S
C2694 C2697 1.348 . S
C2694 H2726 0.929 . S
C2695 C2696 1.358 . S
C2695 C2697 1.356 . S
C2695 H2727 0.930 . S
C2696 N2693 1.279 . S
C2696 C2695 1.358 . S
C2696 H2699 0.930 . S
C2697 C2694 1.348 . S
C2697 C2695 1.356 . S
H2698 C2692 0.930 . S
H2699 C2696 0.930 . S
O2700 Li2640 1.956 . S
O2700 Li2641 1.970 . S
O2700 Li2642 1.961 . S
O2700 C2644 1.325 . S
O2701 Li2640 1.970 . S
O2701 Li2641 1.956 . S
O2701 Li2643 1.961 . S
O2701 C2650 1.325 . S
O2702 Li2640 1.961 . S
O2702 Li2642 1.956 . S
O2702 Li2643 1.970 . S
O2702 C2672 1.325 . S
O2703 Li2641 1.961 . S
O2703 Li2642 1.970 . S
O2703 Li2643 1.956 . S
O2703 C2678 1.325 . S
H2704 C2646 0.929 . S
H2705 C2647 0.930 . S
H2706 C2648 0.930 . S
H2707 C2649 0.930 . S
H2708 C2651 0.930 . S
H2709 C2653 0.929 . S
H2710 C2654 0.930 . S
H2711 C2655 0.930 . S
H2712 C2658 0.930 . S
H2713 C2661 0.929 . S
H2714 C2666 0.929 . S
H2715 C2667 0.930 . S
H2716 C2674 0.929 . S
H2717 C2675 0.930 . S
H2718 C2676 0.930 . S
H2719 C2677 0.930 . S
H2720 C2679 0.929 . S
H2721 C2680 0.930 . S
H2722 C2681 0.930 . S
H2723 C2682 0.930 . S
H2724 C2686 0.929 . S
H2725 C2688 0.930 . S
H2726 C2694 0.929 . S
H2727 C2695 0.930 . S
Li2728 N2745 1.990 . S
Li2728 O2788 1.956 . S
Li2728 O2789 1.970 . S
Li2728 O2790 1.961 . S
Li2729 N2753 1.990 . S
Li2729 O2788 1.970 . S
Li2729 O2789 1.956 . S
Li2729 O2791 1.961 . S
Li2730 N2775 1.990 . S
Li2730 O2788 1.961 . S
Li2730 O2790 1.956 . S
Li2730 O2791 1.970 . S
Li2731 N2781 1.990 . S
Li2731 O2789 1.961 . S
Li2731 O2790 1.970 . S
Li2731 O2791 1.956 . S
C2732 C2734 1.348 . S
C2732 C2735 1.356 . S
C2732 O2788 1.325 . S
N2733 C2736 1.314 . S
N2733 C2737 1.279 . S
C2734 C2732 1.348 . S
C2734 C2736 1.353 . S
C2734 H2792 0.929 . S
C2735 C2732 1.356 . S
C2735 C2737 1.358 . S
C2735 H2793 0.930 . S
C2736 N2733 1.314 . S
C2736 C2734 1.353 . S
C2736 H2794 0.930 . S
C2737 N2733 1.279 . S
C2737 C2735 1.358 . S
C2737 H2795 0.930 . S
C2738 C2741 1.348 . S
C2738 C2742 1.356 . S
C2738 O2789 1.325 . S
C2739 N2740 1.279 . S
C2739 C2742 1.358 . S
C2739 H2796 0.930 . S
N2740 C2739 1.279 . S
N2740 C2743 1.314 . S
C2741 C2738 1.348 . S
C2741 C2743 1.353 . S
C2741 H2797 0.929 . S
C2742 C2738 1.356 . S
C2742 C2739 1.358 . S
C2742 H2798 0.930 . S
C2743 N2740 1.314 . S
C2743 C2741 1.353 . S
C2743 H2799 0.930 . S
C2744 N2745 1.314 . S
C2744 C2749 1.353 . S
C2744 H2750 0.930 . S
N2745 Li2728 1.990 . S
N2745 C2744 1.314 . S
N2745 C2747 1.279 . S
C2746 C2747 1.358 . S
C2746 C2748 1.356 . S
C2746 H2800 0.930 . S
C2747 N2745 1.279 . S
C2747 C2746 1.358 . S
C2747 H2751 0.930 . S
C2748 C2746 1.356 . S
C2748 C2749 1.348 . S
C2749 C2744 1.353 . S
C2749 C2748 1.348 . S
C2749 H2801 0.929 . S
H2750 C2744 0.930 . S
H2751 C2747 0.930 . S
C2752 N2753 1.314 . S
C2752 C2754 1.353 . S
C2752 H2758 0.930 . S
N2753 Li2729 1.990 . S
N2753 C2752 1.314 . S
N2753 C2756 1.279 . S
C2754 C2752 1.353 . S
C2754 C2757 1.348 . S
C2754 H2802 0.929 . S
C2755 C2756 1.358 . S
C2755 C2757 1.356 . S
C2755 H2803 0.930 . S
C2756 N2753 1.279 . S
C2756 C2755 1.358 . S
C2756 H2759 0.930 . S
C2757 C2754 1.348 . S
C2757 C2755 1.356 . S
H2758 C2752 0.930 . S
H2759 C2756 0.930 . S
C2760 C2762 1.348 . S
C2760 C2763 1.356 . S
C2760 O2790 1.325 . S
N2761 C2764 1.314 . S
N2761 C2765 1.279 . S
C2762 C2760 1.348 . S
C2762 C2764 1.353 . S
C2762 H2804 0.929 . S
C2763 C2760 1.356 . S
C2763 C2765 1.358 . S
C2763 H2805 0.930 . S
C2764 N2761 1.314 . S
C2764 C2762 1.353 . S
C2764 H2806 0.930 . S
C2765 N2761 1.279 . S
C2765 C2763 1.358 . S
C2765 H2807 0.930 . S
C2766 C2767 1.348 . S
C2766 C2768 1.356 . S
C2766 O2791 1.325 . S
C2767 C2766 1.348 . S
C2767 C2769 1.353 . S
C2767 H2808 0.929 . S
C2768 C2766 1.356 . S
C2768 C2770 1.358 . S
C2768 H2809 0.930 . S
C2769 C2767 1.353 . S
C2769 N2771 1.314 . S
C2769 H2810 0.930 . S
C2770 C2768 1.358 . S
C2770 N2771 1.279 . S
C2770 H2811 0.930 . S
N2771 C2769 1.314 . S
N2771 C2770 1.279 . S
C2772 C2774 1.353 . S
C2772 N2775 1.314 . S
C2772 H2778 0.930 . S
C2773 N2775 1.279 . S
C2773 C2776 1.358 . S
C2773 H2779 0.930 . S
C2774 C2772 1.353 . S
C2774 C2777 1.348 . S
C2774 H2812 0.929 . S
N2775 Li2730 1.990 . S
N2775 C2772 1.314 . S
N2775 C2773 1.279 . S
C2776 C2773 1.358 . S
C2776 C2777 1.356 . S
C2776 H2813 0.930 . S
C2777 C2774 1.348 . S
C2777 C2776 1.356 . S
H2778 C2772 0.930 . S
H2779 C2773 0.930 . S
C2780 N2781 1.314 . S
C2780 C2782 1.353 . S
C2780 H2786 0.930 . S
N2781 Li2731 1.990 . S
N2781 C2780 1.314 . S
N2781 C2784 1.279 . S
C2782 C2780 1.353 . S
C2782 C2785 1.348 . S
C2782 H2814 0.929 . S
C2783 C2784 1.358 . S
C2783 C2785 1.356 . S
C2783 H2815 0.930 . S
C2784 N2781 1.279 . S
C2784 C2783 1.358 . S
C2784 H2787 0.930 . S
C2785 C2782 1.348 . S
C2785 C2783 1.356 . S
H2786 C2780 0.930 . S
H2787 C2784 0.930 . S
O2788 Li2728 1.956 . S
O2788 Li2729 1.970 . S
O2788 Li2730 1.961 . S
O2788 C2732 1.325 . S
O2789 Li2728 1.970 . S
O2789 Li2729 1.956 . S
O2789 Li2731 1.961 . S
O2789 C2738 1.325 . S
O2790 Li2728 1.961 . S
O2790 Li2730 1.956 . S
O2790 Li2731 1.970 . S
O2790 C2760 1.325 . S
O2791 Li2729 1.961 . S
O2791 Li2730 1.970 . S
O2791 Li2731 1.956 . S
O2791 C2766 1.325 . S
H2792 C2734 0.929 . S
H2793 C2735 0.930 . S
H2794 C2736 0.930 . S
H2795 C2737 0.930 . S
H2796 C2739 0.930 . S
H2797 C2741 0.929 . S
H2798 C2742 0.930 . S
H2799 C2743 0.930 . S
H2800 C2746 0.930 . S
H2801 C2749 0.929 . S
H2802 C2754 0.929 . S
H2803 C2755 0.930 . S
H2804 C2762 0.929 . S
H2805 C2763 0.930 . S
H2806 C2764 0.930 . S
H2807 C2765 0.930 . S
H2808 C2767 0.929 . S
H2809 C2768 0.930 . S
H2810 C2769 0.930 . S
H2811 C2770 0.930 . S
H2812 C2774 0.929 . S
H2813 C2776 0.930 . S
H2814 C2782 0.929 . S
H2815 C2783 0.930 . S
Li2816 N2833 1.990 . S
Li2816 O2876 1.956 . S
Li2816 O2877 1.970 . S
Li2816 O2878 1.961 . S
Li2817 N2841 1.990 . S
Li2817 O2876 1.970 . S
Li2817 O2877 1.956 . S
Li2817 O2879 1.961 . S
Li2818 N2863 1.990 . S
Li2818 O2876 1.961 . S
Li2818 O2878 1.956 . S
Li2818 O2879 1.970 . S
Li2819 N2869 1.990 . S
Li2819 O2877 1.961 . S
Li2819 O2878 1.970 . S
Li2819 O2879 1.956 . S
C2820 C2822 1.348 . S
C2820 C2823 1.356 . S
C2820 O2876 1.325 . S
N2821 C2824 1.314 . S
N2821 C2825 1.279 . S
C2822 C2820 1.348 . S
C2822 C2824 1.353 . S
C2822 H2880 0.929 . S
C2823 C2820 1.356 . S
C2823 C2825 1.358 . S
C2823 H2881 0.930 . S
C2824 N2821 1.314 . S
C2824 C2822 1.353 . S
C2824 H2882 0.930 . S
C2825 N2821 1.279 . S
C2825 C2823 1.358 . S
C2825 H2883 0.930 . S
C2826 C2829 1.348 . S
C2826 C2830 1.356 . S
C2826 O2877 1.325 . S
C2827 N2828 1.279 . S
C2827 C2830 1.358 . S
C2827 H2884 0.930 . S
N2828 C2827 1.279 . S
N2828 C2831 1.314 . S
C2829 C2826 1.348 . S
C2829 C2831 1.353 . S
C2829 H2885 0.929 . S
C2830 C2826 1.356 . S
C2830 C2827 1.358 . S
C2830 H2886 0.930 . S
C2831 N2828 1.314 . S
C2831 C2829 1.353 . S
C2831 H2887 0.930 . S
C2832 N2833 1.314 . S
C2832 C2837 1.353 . S
C2832 H2838 0.930 . S
N2833 Li2816 1.990 . S
N2833 C2832 1.314 . S
N2833 C2835 1.279 . S
C2834 C2835 1.358 . S
C2834 C2836 1.356 . S
C2834 H2888 0.930 . S
C2835 N2833 1.279 . S
C2835 C2834 1.358 . S
C2835 H2839 0.930 . S
C2836 C2834 1.356 . S
C2836 C2837 1.348 . S
C2837 C2832 1.353 . S
C2837 C2836 1.348 . S
C2837 H2889 0.929 . S
H2838 C2832 0.930 . S
H2839 C2835 0.930 . S
C2840 N2841 1.314 . S
C2840 C2842 1.353 . S
C2840 H2846 0.930 . S
N2841 Li2817 1.990 . S
N2841 C2840 1.314 . S
N2841 C2844 1.279 . S
C2842 C2840 1.353 . S
C2842 C2845 1.348 . S
C2842 H2890 0.929 . S
C2843 C2844 1.358 . S
C2843 C2845 1.356 . S
C2843 H2891 0.930 . S
C2844 N2841 1.279 . S
C2844 C2843 1.358 . S
C2844 H2847 0.930 . S
C2845 C2842 1.348 . S
C2845 C2843 1.356 . S
H2846 C2840 0.930 . S
H2847 C2844 0.930 . S
C2848 C2850 1.348 . S
C2848 C2851 1.356 . S
C2848 O2878 1.325 . S
N2849 C2852 1.314 . S
N2849 C2853 1.279 . S
C2850 C2848 1.348 . S
C2850 C2852 1.353 . S
C2850 H2892 0.929 . S
C2851 C2848 1.356 . S
C2851 C2853 1.358 . S
C2851 H2893 0.930 . S
C2852 N2849 1.314 . S
C2852 C2850 1.353 . S
C2852 H2894 0.930 . S
C2853 N2849 1.279 . S
C2853 C2851 1.358 . S
C2853 H2895 0.930 . S
C2854 C2855 1.348 . S
C2854 C2856 1.356 . S
C2854 O2879 1.325 . S
C2855 C2854 1.348 . S
C2855 C2857 1.353 . S
C2855 H2896 0.929 . S
C2856 C2854 1.356 . S
C2856 C2858 1.358 . S
C2856 H2897 0.930 . S
C2857 C2855 1.353 . S
C2857 N2859 1.314 . S
C2857 H2898 0.930 . S
C2858 C2856 1.358 . S
C2858 N2859 1.279 . S
C2858 H2899 0.930 . S
N2859 C2857 1.314 . S
N2859 C2858 1.279 . S
C2860 C2862 1.353 . S
C2860 N2863 1.314 . S
C2860 H2866 0.930 . S
C2861 N2863 1.279 . S
C2861 C2864 1.358 . S
C2861 H2867 0.930 . S
C2862 C2860 1.353 . S
C2862 C2865 1.348 . S
C2862 H2900 0.929 . S
N2863 Li2818 1.990 . S
N2863 C2860 1.314 . S
N2863 C2861 1.279 . S
C2864 C2861 1.358 . S
C2864 C2865 1.356 . S
C2864 H2901 0.930 . S
C2865 C2862 1.348 . S
C2865 C2864 1.356 . S
H2866 C2860 0.930 . S
H2867 C2861 0.930 . S
C2868 N2869 1.314 . S
C2868 C2870 1.353 . S
C2868 H2874 0.930 . S
N2869 Li2819 1.990 . S
N2869 C2868 1.314 . S
N2869 C2872 1.279 . S
C2870 C2868 1.353 . S
C2870 C2873 1.348 . S
C2870 H2902 0.929 . S
C2871 C2872 1.358 . S
C2871 C2873 1.356 . S
C2871 H2903 0.930 . S
C2872 N2869 1.279 . S
C2872 C2871 1.358 . S
C2872 H2875 0.930 . S
C2873 C2870 1.348 . S
C2873 C2871 1.356 . S
H2874 C2868 0.930 . S
H2875 C2872 0.930 . S
O2876 Li2816 1.956 . S
O2876 Li2817 1.970 . S
O2876 Li2818 1.961 . S
O2876 C2820 1.325 . S
O2877 Li2816 1.970 . S
O2877 Li2817 1.956 . S
O2877 Li2819 1.961 . S
O2877 C2826 1.325 . S
O2878 Li2816 1.961 . S
O2878 Li2818 1.956 . S
O2878 Li2819 1.970 . S
O2878 C2848 1.325 . S
O2879 Li2817 1.961 . S
O2879 Li2818 1.970 . S
O2879 Li2819 1.956 . S
O2879 C2854 1.325 . S
H2880 C2822 0.929 . S
H2881 C2823 0.930 . S
H2882 C2824 0.930 . S
H2883 C2825 0.930 . S
H2884 C2827 0.930 . S
H2885 C2829 0.929 . S
H2886 C2830 0.930 . S
H2887 C2831 0.930 . S
H2888 C2834 0.930 . S
H2889 C2837 0.929 . S
H2890 C2842 0.929 . S
H2891 C2843 0.930 . S
H2892 C2850 0.929 . S
H2893 C2851 0.930 . S
H2894 C2852 0.930 . S
H2895 C2853 0.930 . S
H2896 C2855 0.929 . S
H2897 C2856 0.930 . S
H2898 C2857 0.930 . S
H2899 C2858 0.930 . S
H2900 C2862 0.929 . S
H2901 C2864 0.930 . S
H2902 C2870 0.929 . S
H2903 C2871 0.930 . S
Li2904 N2921 1.990 . S
Li2904 O2964 1.956 . S
Li2904 O2965 1.970 . S
Li2904 O2966 1.961 . S
Li2905 N2929 1.990 . S
Li2905 O2964 1.970 . S
Li2905 O2965 1.956 . S
Li2905 O2967 1.961 . S
Li2906 N2951 1.990 . S
Li2906 O2964 1.961 . S
Li2906 O2966 1.956 . S
Li2906 O2967 1.970 . S
Li2907 N2957 1.990 . S
Li2907 O2965 1.961 . S
Li2907 O2966 1.970 . S
Li2907 O2967 1.956 . S
C2908 C2910 1.348 . S
C2908 C2911 1.356 . S
C2908 O2964 1.325 . S
N2909 C2912 1.314 1_556 S
N2909 C2913 1.279 . S
C2910 C2908 1.348 . S
C2910 C2912 1.353 . S
C2910 H2968 0.929 . S
C2911 C2908 1.356 . S
C2911 C2913 1.358 1_554 S
C2911 H2969 0.930 . S
C2912 N2909 1.314 1_554 S
C2912 C2910 1.353 . S
C2912 H2970 0.930 . S
C2913 N2909 1.279 . S
C2913 C2911 1.358 1_556 S
C2913 H2971 0.930 . S
C2914 C2917 1.348 . S
C2914 C2918 1.356 . S
C2914 O2965 1.325 . S
C2915 N2916 1.279 . S
C2915 C2918 1.358 . S
C2915 H2972 0.930 . S
N2916 C2915 1.279 . S
N2916 C2919 1.314 . S
C2917 C2914 1.348 . S
C2917 C2919 1.353 . S
C2917 H2973 0.929 . S
C2918 C2914 1.356 . S
C2918 C2915 1.358 . S
C2918 H2974 0.930 . S
C2919 N2916 1.314 . S
C2919 C2917 1.353 . S
C2919 H2975 0.930 . S
C2920 N2921 1.314 . S
C2920 C2925 1.353 . S
C2920 H2926 0.930 . S
N2921 Li2904 1.990 . S
N2921 C2920 1.314 . S
N2921 C2923 1.279 . S
C2922 C2923 1.358 . S
C2922 C2924 1.356 . S
C2922 H2976 0.930 . S
C2923 N2921 1.279 . S
C2923 C2922 1.358 . S
C2923 H2927 0.930 . S
C2924 C2922 1.356 . S
C2924 C2925 1.348 . S
C2925 C2920 1.353 . S
C2925 C2924 1.348 . S
C2925 H2977 0.929 . S
H2926 C2920 0.930 . S
H2927 C2923 0.930 . S
C2928 N2929 1.314 . S
C2928 C2930 1.353 . S
C2928 H2934 0.930 . S
N2929 Li2905 1.990 . S
N2929 C2928 1.314 . S
N2929 C2932 1.279 . S
C2930 C2928 1.353 . S
C2930 C2933 1.348 . S
C2930 H2978 0.929 . S
C2931 C2932 1.358 . S
C2931 C2933 1.356 . S
C2931 H2979 0.930 . S
C2932 N2929 1.279 . S
C2932 C2931 1.358 . S
C2932 H2935 0.930 . S
C2933 C2930 1.348 . S
C2933 C2931 1.356 . S
H2934 C2928 0.930 . S
H2935 C2932 0.930 . S
C2936 C2938 1.348 . S
C2936 C2939 1.356 . S
C2936 O2966 1.325 . S
N2937 C2940 1.314 . S
N2937 C2941 1.279 . S
C2938 C2936 1.348 . S
C2938 C2940 1.353 . S
C2938 H2980 0.929 . S
C2939 C2936 1.356 . S
C2939 C2941 1.358 . S
C2939 H2981 0.930 . S
C2940 N2937 1.314 . S
C2940 C2938 1.353 . S
C2940 H2982 0.930 . S
C2941 N2937 1.279 . S
C2941 C2939 1.358 . S
C2941 H2983 0.930 . S
C2942 C2943 1.348 . S
C2942 C2944 1.356 . S
C2942 O2967 1.325 . S
C2943 C2942 1.348 . S
C2943 C2945 1.353 . S
C2943 H2984 0.929 . S
C2944 C2942 1.356 . S
C2944 C2946 1.358 . S
C2944 H2985 0.930 . S
C2945 C2943 1.353 . S
C2945 N2947 1.314 . S
C2945 H2986 0.930 . S
C2946 C2944 1.358 . S
C2946 N2947 1.279 . S
C2946 H2987 0.930 . S
N2947 C2945 1.314 . S
N2947 C2946 1.279 . S
C2948 C2950 1.353 . S
C2948 N2951 1.314 1_556 S
C2948 H2954 0.930 . S
C2949 N2951 1.279 . S
C2949 C2952 1.358 . S
C2949 H2955 0.930 . S
C2950 C2948 1.353 . S
C2950 C2953 1.348 . S
C2950 H2988 0.929 . S
N2951 Li2906 1.990 . S
N2951 C2948 1.314 1_554 S
N2951 C2949 1.279 . S
C2952 C2949 1.358 . S
C2952 C2953 1.356 1_554 S
C2952 H2989 0.930 . S
C2953 C2950 1.348 . S
C2953 C2952 1.356 1_556 S
H2954 C2948 0.930 . S
H2955 C2949 0.930 . S
C2956 N2957 1.314 . S
C2956 C2958 1.353 . S
C2956 H2962 0.930 . S
N2957 Li2907 1.990 . S
N2957 C2956 1.314 . S
N2957 C2960 1.279 . S
C2958 C2956 1.353 . S
C2958 C2961 1.348 . S
C2958 H2990 0.929 . S
C2959 C2960 1.358 . S
C2959 C2961 1.356 . S
C2959 H2991 0.930 . S
C2960 N2957 1.279 . S
C2960 C2959 1.358 . S
C2960 H2963 0.930 . S
C2961 C2958 1.348 . S
C2961 C2959 1.356 . S
H2962 C2956 0.930 . S
H2963 C2960 0.930 . S
O2964 Li2904 1.956 . S
O2964 Li2905 1.970 . S
O2964 Li2906 1.961 . S
O2964 C2908 1.325 . S
O2965 Li2904 1.970 . S
O2965 Li2905 1.956 . S
O2965 Li2907 1.961 . S
O2965 C2914 1.325 . S
O2966 Li2904 1.961 . S
O2966 Li2906 1.956 . S
O2966 Li2907 1.970 . S
O2966 C2936 1.325 . S
O2967 Li2905 1.961 . S
O2967 Li2906 1.970 . S
O2967 Li2907 1.956 . S
O2967 C2942 1.325 . S
H2968 C2910 0.929 . S
H2969 C2911 0.930 . S
H2970 C2912 0.930 . S
H2971 C2913 0.930 . S
H2972 C2915 0.930 . S
H2973 C2917 0.929 . S
H2974 C2918 0.930 . S
H2975 C2919 0.930 . S
H2976 C2922 0.930 . S
H2977 C2925 0.929 . S
H2978 C2930 0.929 . S
H2979 C2931 0.930 . S
H2980 C2938 0.929 . S
H2981 C2939 0.930 . S
H2982 C2940 0.930 . S
H2983 C2941 0.930 . S
H2984 C2943 0.929 . S
H2985 C2944 0.930 . S
H2986 C2945 0.930 . S
H2987 C2946 0.930 . S
H2988 C2950 0.929 . S
H2989 C2952 0.930 . S
H2990 C2958 0.929 . S
H2991 C2959 0.930 . S
Li2992 N3009 1.990 . S
Li2992 O3052 1.956 . S
Li2992 O3053 1.970 . S
Li2992 O3054 1.961 . S
Li2993 N3017 1.990 . S
Li2993 O3052 1.970 . S
Li2993 O3053 1.956 . S
Li2993 O3055 1.961 . S
Li2994 N3039 1.990 . S
Li2994 O3052 1.961 . S
Li2994 O3054 1.956 . S
Li2994 O3055 1.970 . S
Li2995 N3045 1.990 . S
Li2995 O3053 1.961 . S
Li2995 O3054 1.970 . S
Li2995 O3055 1.956 . S
C2996 C2998 1.348 . S
C2996 C2999 1.356 . S
C2996 O3052 1.325 . S
N2997 C3000 1.314 1_556 S
N2997 C3001 1.279 . S
C2998 C2996 1.348 . S
C2998 C3000 1.353 . S
C2998 H3056 0.929 . S
C2999 C2996 1.356 . S
C2999 C3001 1.358 1_554 S
C2999 H3057 0.930 . S
C3000 N2997 1.314 1_554 S
C3000 C2998 1.353 . S
C3000 H3058 0.930 . S
C3001 N2997 1.279 . S
C3001 C2999 1.358 1_556 S
C3001 H3059 0.930 . S
C3002 C3005 1.348 . S
C3002 C3006 1.356 . S
C3002 O3053 1.325 . S
C3003 N3004 1.279 . S
C3003 C3006 1.358 . S
C3003 H3060 0.930 . S
N3004 C3003 1.279 . S
N3004 C3007 1.314 . S
C3005 C3002 1.348 . S
C3005 C3007 1.353 . S
C3005 H3061 0.929 . S
C3006 C3002 1.356 . S
C3006 C3003 1.358 . S
C3006 H3062 0.930 . S
C3007 N3004 1.314 . S
C3007 C3005 1.353 . S
C3007 H3063 0.930 . S
C3008 N3009 1.314 . S
C3008 C3013 1.353 . S
C3008 H3014 0.930 . S
N3009 Li2992 1.990 . S
N3009 C3008 1.314 . S
N3009 C3011 1.279 . S
C3010 C3011 1.358 . S
C3010 C3012 1.356 . S
C3010 H3064 0.930 . S
C3011 N3009 1.279 . S
C3011 C3010 1.358 . S
C3011 H3015 0.930 . S
C3012 C3010 1.356 . S
C3012 C3013 1.348 . S
C3013 C3008 1.353 . S
C3013 C3012 1.348 . S
C3013 H3065 0.929 . S
H3014 C3008 0.930 . S
H3015 C3011 0.930 . S
C3016 N3017 1.314 . S
C3016 C3018 1.353 . S
C3016 H3022 0.930 . S
N3017 Li2993 1.990 . S
N3017 C3016 1.314 . S
N3017 C3020 1.279 . S
C3018 C3016 1.353 . S
C3018 C3021 1.348 . S
C3018 H3066 0.929 . S
C3019 C3020 1.358 . S
C3019 C3021 1.356 . S
C3019 H3067 0.930 . S
C3020 N3017 1.279 . S
C3020 C3019 1.358 . S
C3020 H3023 0.930 . S
C3021 C3018 1.348 . S
C3021 C3019 1.356 . S
H3022 C3016 0.930 . S
H3023 C3020 0.930 . S
C3024 C3026 1.348 . S
C3024 C3027 1.356 . S
C3024 O3054 1.325 . S
N3025 C3028 1.314 . S
N3025 C3029 1.279 . S
C3026 C3024 1.348 . S
C3026 C3028 1.353 . S
C3026 H3068 0.929 . S
C3027 C3024 1.356 . S
C3027 C3029 1.358 . S
C3027 H3069 0.930 . S
C3028 N3025 1.314 . S
C3028 C3026 1.353 . S
C3028 H3070 0.930 . S
C3029 N3025 1.279 . S
C3029 C3027 1.358 . S
C3029 H3071 0.930 . S
C3030 C3031 1.348 . S
C3030 C3032 1.356 . S
C3030 O3055 1.325 . S
C3031 C3030 1.348 . S
C3031 C3033 1.353 . S
C3031 H3072 0.929 . S
C3032 C3030 1.356 . S
C3032 C3034 1.358 . S
C3032 H3073 0.930 . S
C3033 C3031 1.353 . S
C3033 N3035 1.314 . S
C3033 H3074 0.930 . S
C3034 C3032 1.358 . S
C3034 N3035 1.279 . S
C3034 H3075 0.930 . S
N3035 C3033 1.314 . S
N3035 C3034 1.279 . S
C3036 C3038 1.353 . S
C3036 N3039 1.314 1_556 S
C3036 H3042 0.930 . S
C3037 N3039 1.279 . S
C3037 C3040 1.358 . S
C3037 H3043 0.930 . S
C3038 C3036 1.353 . S
C3038 C3041 1.348 . S
C3038 H3076 0.929 . S
N3039 Li2994 1.990 . S
N3039 C3036 1.314 1_554 S
N3039 C3037 1.279 . S
C3040 C3037 1.358 . S
C3040 C3041 1.356 1_554 S
C3040 H3077 0.930 . S
C3041 C3038 1.348 . S
C3041 C3040 1.356 1_556 S
H3042 C3036 0.930 . S
H3043 C3037 0.930 . S
C3044 N3045 1.314 . S
C3044 C3046 1.353 . S
C3044 H3050 0.930 . S
N3045 Li2995 1.990 . S
N3045 C3044 1.314 . S
N3045 C3048 1.279 . S
C3046 C3044 1.353 . S
C3046 C3049 1.348 . S
C3046 H3078 0.929 . S
C3047 C3048 1.358 . S
C3047 C3049 1.356 . S
C3047 H3079 0.930 . S
C3048 N3045 1.279 . S
C3048 C3047 1.358 . S
C3048 H3051 0.930 . S
C3049 C3046 1.348 . S
C3049 C3047 1.356 . S
H3050 C3044 0.930 . S
H3051 C3048 0.930 . S
O3052 Li2992 1.956 . S
O3052 Li2993 1.970 . S
O3052 Li2994 1.961 . S
O3052 C2996 1.325 . S
O3053 Li2992 1.970 . S
O3053 Li2993 1.956 . S
O3053 Li2995 1.961 . S
O3053 C3002 1.325 . S
O3054 Li2992 1.961 . S
O3054 Li2994 1.956 . S
O3054 Li2995 1.970 . S
O3054 C3024 1.325 . S
O3055 Li2993 1.961 . S
O3055 Li2994 1.970 . S
O3055 Li2995 1.956 . S
O3055 C3030 1.325 . S
H3056 C2998 0.929 . S
H3057 C2999 0.930 . S
H3058 C3000 0.930 . S
H3059 C3001 0.930 . S
H3060 C3003 0.930 . S
H3061 C3005 0.929 . S
H3062 C3006 0.930 . S
H3063 C3007 0.930 . S
H3064 C3010 0.930 . S
H3065 C3013 0.929 . S
H3066 C3018 0.929 . S
H3067 C3019 0.930 . S
H3068 C3026 0.929 . S
H3069 C3027 0.930 . S
H3070 C3028 0.930 . S
H3071 C3029 0.930 . S
H3072 C3031 0.929 . S
H3073 C3032 0.930 . S
H3074 C3033 0.930 . S
H3075 C3034 0.930 . S
H3076 C3038 0.929 . S
H3077 C3040 0.930 . S
H3078 C3046 0.929 . S
H3079 C3047 0.930 . S
Li3080 N3097 1.990 . S
Li3080 O3140 1.956 . S
Li3080 O3141 1.970 . S
Li3080 O3142 1.961 . S
Li3081 N3105 1.990 . S
Li3081 O3140 1.970 . S
Li3081 O3141 1.956 . S
Li3081 O3143 1.961 . S
Li3082 N3127 1.990 . S
Li3082 O3140 1.961 . S
Li3082 O3142 1.956 . S
Li3082 O3143 1.970 . S
Li3083 N3133 1.990 . S
Li3083 O3141 1.961 . S
Li3083 O3142 1.970 . S
Li3083 O3143 1.956 . S
C3084 C3086 1.348 . S
C3084 C3087 1.356 . S
C3084 O3140 1.325 . S
N3085 C3088 1.314 . S
N3085 C3089 1.279 . S
C3086 C3084 1.348 . S
C3086 C3088 1.353 . S
C3086 H3144 0.929 . S
C3087 C3084 1.356 . S
C3087 C3089 1.358 . S
C3087 H3145 0.930 . S
C3088 N3085 1.314 . S
C3088 C3086 1.353 . S
C3088 H3146 0.930 . S
C3089 N3085 1.279 . S
C3089 C3087 1.358 . S
C3089 H3147 0.930 . S
C3090 C3093 1.348 . S
C3090 C3094 1.356 . S
C3090 O3141 1.325 . S
C3091 N3092 1.279 . S
C3091 C3094 1.358 . S
C3091 H3148 0.930 . S
N3092 C3091 1.279 . S
N3092 C3095 1.314 . S
C3093 C3090 1.348 . S
C3093 C3095 1.353 . S
C3093 H3149 0.929 . S
C3094 C3090 1.356 . S
C3094 C3091 1.358 . S
C3094 H3150 0.930 . S
C3095 N3092 1.314 . S
C3095 C3093 1.353 . S
C3095 H3151 0.930 . S
C3096 N3097 1.314 1_556 S
C3096 C3101 1.353 . S
C3096 H3102 0.930 . S
N3097 Li3080 1.990 . S
N3097 C3096 1.314 1_554 S
N3097 C3099 1.279 . S
C3098 C3099 1.358 . S
C3098 C3100 1.356 1_554 S
C3098 H3152 0.930 . S
C3099 N3097 1.279 . S
C3099 C3098 1.358 . S
C3099 H3103 0.930 . S
C3100 C3098 1.356 1_556 S
C3100 C3101 1.348 . S
C3101 C3096 1.353 . S
C3101 C3100 1.348 . S
C3101 H3153 0.929 . S
H3102 C3096 0.930 . S
H3103 C3099 0.930 . S
C3104 N3105 1.314 . S
C3104 C3106 1.353 . S
C3104 H3110 0.930 . S
N3105 Li3081 1.990 . S
N3105 C3104 1.314 . S
N3105 C3108 1.279 . S
C3106 C3104 1.353 . S
C3106 C3109 1.348 . S
C3106 H3154 0.929 . S
C3107 C3108 1.358 . S
C3107 C3109 1.356 . S
C3107 H3155 0.930 . S
C3108 N3105 1.279 . S
C3108 C3107 1.358 . S
C3108 H3111 0.930 . S
C3109 C3106 1.348 . S
C3109 C3107 1.356 . S
H3110 C3104 0.930 . S
H3111 C3108 0.930 . S
C3112 C3114 1.348 . S
C3112 C3115 1.356 . S
C3112 O3142 1.325 . S
N3113 C3116 1.314 1_556 S
N3113 C3117 1.279 . S
C3114 C3112 1.348 . S
C3114 C3116 1.353 . S
C3114 H3156 0.929 . S
C3115 C3112 1.356 . S
C3115 C3117 1.358 1_554 S
C3115 H3157 0.930 . S
C3116 N3113 1.314 1_554 S
C3116 C3114 1.353 . S
C3116 H3158 0.930 . S
C3117 N3113 1.279 . S
C3117 C3115 1.358 1_556 S
C3117 H3159 0.930 . S
C3118 C3119 1.348 . S
C3118 C3120 1.356 . S
C3118 O3143 1.325 . S
C3119 C3118 1.348 . S
C3119 C3121 1.353 . S
C3119 H3160 0.929 . S
C3120 C3118 1.356 . S
C3120 C3122 1.358 . S
C3120 H3161 0.930 . S
C3121 C3119 1.353 . S
C3121 N3123 1.314 . S
C3121 H3162 0.930 . S
C3122 C3120 1.358 . S
C3122 N3123 1.279 . S
C3122 H3163 0.930 . S
N3123 C3121 1.314 . S
N3123 C3122 1.279 . S
C3124 C3126 1.353 . S
C3124 N3127 1.314 . S
C3124 H3130 0.930 . S
C3125 N3127 1.279 . S
C3125 C3128 1.358 . S
C3125 H3131 0.930 . S
C3126 C3124 1.353 . S
C3126 C3129 1.348 . S
C3126 H3164 0.929 . S
N3127 Li3082 1.990 . S
N3127 C3124 1.314 . S
N3127 C3125 1.279 . S
C3128 C3125 1.358 . S
C3128 C3129 1.356 . S
C3128 H3165 0.930 . S
C3129 C3126 1.348 . S
C3129 C3128 1.356 . S
H3130 C3124 0.930 . S
H3131 C3125 0.930 . S
C3132 N3133 1.314 . S
C3132 C3134 1.353 . S
C3132 H3138 0.930 . S
N3133 Li3083 1.990 . S
N3133 C3132 1.314 . S
N3133 C3136 1.279 . S
C3134 C3132 1.353 . S
C3134 C3137 1.348 . S
C3134 H3166 0.929 . S
C3135 C3136 1.358 . S
C3135 C3137 1.356 . S
C3135 H3167 0.930 . S
C3136 N3133 1.279 . S
C3136 C3135 1.358 . S
C3136 H3139 0.930 . S
C3137 C3134 1.348 . S
C3137 C3135 1.356 . S
H3138 C3132 0.930 . S
H3139 C3136 0.930 . S
O3140 Li3080 1.956 . S
O3140 Li3081 1.970 . S
O3140 Li3082 1.961 . S
O3140 C3084 1.325 . S
O3141 Li3080 1.970 . S
O3141 Li3081 1.956 . S
O3141 Li3083 1.961 . S
O3141 C3090 1.325 . S
O3142 Li3080 1.961 . S
O3142 Li3082 1.956 . S
O3142 Li3083 1.970 . S
O3142 C3112 1.325 . S
O3143 Li3081 1.961 . S
O3143 Li3082 1.970 . S
O3143 Li3083 1.956 . S
O3143 C3118 1.325 . S
H3144 C3086 0.929 . S
H3145 C3087 0.930 . S
H3146 C3088 0.930 . S
H3147 C3089 0.930 . S
H3148 C3091 0.930 . S
H3149 C3093 0.929 . S
H3150 C3094 0.930 . S
H3151 C3095 0.930 . S
H3152 C3098 0.930 . S
H3153 C3101 0.929 . S
H3154 C3106 0.929 . S
H3155 C3107 0.930 . S
H3156 C3114 0.929 . S
H3157 C3115 0.930 . S
H3158 C3116 0.930 . S
H3159 C3117 0.930 . S
H3160 C3119 0.929 . S
H3161 C3120 0.930 . S
H3162 C3121 0.930 . S
H3163 C3122 0.930 . S
H3164 C3126 0.929 . S
H3165 C3128 0.930 . S
H3166 C3134 0.929 . S
H3167 C3135 0.930 . S
C489 C29 4.359 1_545 S
C108 C321 4.361 1_455 S
C401 C196 4.359 . S
C585 C1017 4.372 1_545 S
C673 C812 4.374 1_655 S
C900 C733 4.373 . S
C1545 C1085 4.361 . S
C1164 C1377 4.360 . S
C1465 C1261 4.357 . S
C1604 C2073 4.374 1_554 S
C1721 C1868 4.372 1_554 S
C1789 C1956 4.372 1_554 S
C2132 C2601 4.360 1_556 S
C2433 C2220 4.358 1_554 S
C2308 C2521 4.358 1_556 S
C2660 C3129 4.374 . S
C2785 C2924 4.373 . S
C2845 C3012 4.370 . S
C937 C57 3.441 . S
C997 C137 3.441 . S
C849 C225 3.440 . S
C753 C293 3.441 . S
C372 C548 3.440 . S
C460 C636 3.440 . S
C557 C409 3.451 . S
C645 C497 3.450 . S
C761 C313 3.450 . S
C205 C841 3.450 . S
C20 C929 3.451 . S
C988 C117 3.450 . S
C1113 C1993 3.442 . S
C1193 C2053 3.441 . S
C1905 C1289 3.441 . S
C1349 C1809 3.440 . S
C1437 C1641 3.440 . S
C1516 C1701 3.441 . S
C1633 C1457 3.451 . S
C1553 C1692 3.449 . S
C1369 C1817 3.449 . S
C1897 C1252 3.451 . S
C1076 C1985 3.450 . S
C1173 C2044 3.450 . S
C3049 C2161 3.441 . S
C2249 C3109 3.440 . S
C2337 C2961 3.440 . S
C2865 C2405 3.441 . S
C2697 C2493 3.440 . S
C2748 C2572 3.440 . S
C2689 C2513 3.451 . S
C2609 C2757 3.450 . S
C2873 C2425 3.450 . S
C2317 C2953 3.450 . S
C2141 C3041 3.450 . S
C2229 C3100 3.451 . S
C1428 C49 2.449 . S
C145 C1525 2.448 . S
C1340 C233 2.449 . S
C2345 C284 2.448 . S
C381 C2169 2.449 . S
C469 C2257 2.449 . S
C577 C3021 2.458 . S
C3137 C665 2.457 . S
C2933 C724 2.457 . S
C1780 C821 2.457 . S
C909 C1613 2.458 . S
C1025 C1729 2.458 . S
C1105 C2484 2.449 1_655 S
C2581 C1201 2.449 . S
C2396 C1281 2.451 1_565 S
C1877 C2836 2.460 1_545 S
C2669 C1965 2.458 1_455 S
C2777 C2081 2.458 . S
