# Generated by pormake.
# Topology sma, (6)-cn, num edge types: 1
# Building blocks:
#     Node 0, Type 0, BuildingBlock: NUHQIS_clean_sbu_0, # of connection points: 6
#     Node 1, Type 0, BuildingBlock: NUHQIS_clean_sbu_0, # of connection points: 6
#     Node 2, Type 0, BuildingBlock: NUHQIS_clean_sbu_0, # of connection points: 6
#     Edge 3, Type (0, 0), BuildingBlock: FUNLAD_clean_linker_1, # of connection points: 2
#     Edge 4, Type (0, 0), BuildingBlock: FUNLAD_clean_linker_1, # of connection points: 2
#     Edge 5, Type (0, 0), BuildingBlock: FUNLAD_clean_linker_1, # of connection points: 2
#     Edge 6, Type (0, 0), BuildingBlock: FUNLAD_clean_linker_1, # of connection points: 2
#     Edge 7, Type (0, 0), BuildingBlock: FUNLAD_clean_linker_1, # of connection points: 2
#     Edge 8, Type (0, 0), BuildingBlock: FUNLAD_clean_linker_1, # of connection points: 2
#     Edge 9, Type (0, 0), BuildingBlock: FUNLAD_clean_linker_1, # of connection points: 2
#     Edge 10, Type (0, 0), BuildingBlock: FUNLAD_clean_linker_1, # of connection points: 2
#     Edge 11, Type (0, 0), BuildingBlock: FUNLAD_clean_linker_1, # of connection points: 2
# Relax obj value: 0.073
# Max RMSD: 0.181
# Mean RMSD: 0.176
data_MOF--net-sma--node1-NUHQIS_clean_sbu_0--edge1-FUNLAD_clean_linker_1
_symmetry_space_group_name_H-M    P1
_symmetry_Int_Tables_number       1
_symmetry_cell_setting            triclinic
loop_
_symmetry_equiv_pos_as_xyz
'x, y, z'
_cell_length_a     41.127438
_cell_length_b     41.485795
_cell_length_c     14.157158
_cell_angle_alpha  91.581953
_cell_angle_beta   92.744333
_cell_angle_gamma 120.03046
loop_
_atom_site_label
_atom_site_type_symbol
_atom_site_fract_x
_atom_site_fract_y
_atom_site_fract_z
_atom_type_partial_charge
Tb0 Tb 0.09093 0.52146 0.19298 0.0
Eu1 Eu 1.0323 0.55679 0.17993 0.0
C2 C 0.08674 0.56866 0.36134 0.0
C3 C 1.00515 0.47397 0.25062 0.0
C4 C 0.16934 0.50377 0.1395 0.0
C5 C 0.21056 0.48274 0.07962 0.0
C6 C 0.17742 0.47524 0.12119 0.0
C7 C 0.19462 0.53997 0.11393 0.0
C8 C 0.22788 0.54758 0.07271 0.0
C9 C 0.23664 0.51924 0.05597 0.0
C10 C 0.13482 0.49529 0.18654 0.0
O11 O 0.07783 0.5293 0.04951 0.0
O12 O 1.01712 0.51327 0.06408 0.0
O13 O 0.08745 0.59979 0.12474 0.0
O14 O 0.1284 0.58109 0.18426 0.0
C15 C 1.04356 0.51627 0.01195 0.0
O16 O 1.00633 0.58151 0.09319 0.0
O17 O 0.99472 0.57345 0.24171 0.0
O18 O 0.07253 0.5842 0.30676 0.0
O19 O 0.08673 0.538 0.33559 0.0
O20 O 1.03573 0.47489 0.22234 0.0
O21 O 1.00027 0.50301 0.25173 0.0
C22 C 0.12167 0.60633 0.14851 0.0
O23 O 0.13796 0.51985 0.25128 0.0
O24 O 0.10403 0.48283 0.13175 0.0
C25 C 0.94786 0.57397 0.13712 0.0
C26 C 0.87459 0.56023 0.08349 0.0
C27 C 0.88886 0.53942 0.03997 0.0
C28 C 0.92518 0.54627 0.06621 0.0
C29 C 0.93331 0.59392 0.18285 0.0
C30 C 0.89706 0.58709 0.1568 0.0
C31 C 0.98729 0.5841 0.16147 0.0
H32 H 0.21526 0.45968 0.06656 0.0
H33 H 0.15812 0.44703 0.13965 0.0
H34 H 0.18886 0.56245 0.12667 0.0
H35 H 0.24708 0.57588 0.05485 0.0
H36 H 0.87213 0.51826 -0.01585 0.0
H37 H 0.93572 0.53035 0.03016 0.0
H38 H 0.95026 0.61523 0.23821 0.0
H39 H 0.88692 0.60289 0.1948 0.0
Tb40 Tb 0.60944 0.07841 0.51549 0.0
Eu41 Eu 0.51478 1.0185 0.50019 0.0
C42 C 0.56855 1.02977 0.68231 0.0
C43 C 0.57409 0.9894 0.47875 0.0
C44 C 0.70562 0.16257 0.48642 0.0
C45 C 0.76941 0.21586 0.50155 0.0
C46 C 0.7427 0.18025 0.52688 0.0
C47 C 0.6953 0.18147 0.42161 0.0
C48 C 0.72204 0.21717 0.39618 0.0
C49 C 0.75962 0.23455 0.4343 0.0
C50 C 0.67914 0.12383 0.50924 0.0
O51 O 0.58034 0.08658 0.39729 0.0
O52 O 0.53858 1.02611 0.35901 0.0
O53 O 0.52416 0.07663 0.52553 0.0
O54 O 0.58648 0.10962 0.5852 0.0
C55 C 0.56244 0.05936 0.33344 0.0
O56 O 0.46033 1.00003 0.42309 0.0
O57 O 0.46321 0.97324 0.55003 0.0
O58 O 0.53669 1.0275 0.65227 0.0
O59 O 0.59851 0.0439 0.63364 0.0
O60 O 0.60174 1.02377 0.4681 0.0
O61 O 0.53992 0.98144 0.49769 0.0
C62 C 0.55312 0.10648 0.56849 0.0
O63 O 0.66093 0.11909 0.58552 0.0
O64 O 0.65764 0.10083 0.43873 0.0
C65 C 0.41468 0.93607 0.4316 0.0
C66 C 0.36042 0.86476 0.34982 0.0
C67 C 0.39759 0.87332 0.37435 0.0
C68 C 0.42446 0.90858 0.41495 0.0
C69 C 0.37802 0.92808 0.40495 0.0
C70 C 0.35117 0.89292 0.36414 0.0
C71 C 0.44187 0.97287 0.47823 0.0
H72 H 0.79756 0.22855 0.53534 0.0
H73 H 0.75119 0.16625 0.57749 0.0
H74 H 0.66678 0.16842 0.38963 0.0
H75 H 0.71348 0.23097 0.34514 0.0
H76 H 0.40576 0.85247 0.36342 0.0
H77 H 0.45273 0.91423 0.43423 0.0
H78 H 0.37003 0.94905 0.41629 0.0
H79 H 0.32342 0.88824 0.34378 0.0
Tb80 Tb 0.57291 0.59756 0.82991 0.0
Eu81 Eu 0.53937 0.50338 0.82478 0.0
C82 C 0.55532 0.55476 0.01753 0.0
C83 C 0.62783 0.56465 0.88084 0.0
C84 C 0.58656 0.69118 0.75564 0.0
C85 C 0.54734 0.71942 0.73197 0.0
C86 C 0.55367 0.69229 0.77189 0.0
C87 C 0.6123 0.71705 0.69639 0.0
C88 C 0.60597 0.74414 0.65633 0.0
C89 C 0.57374 0.74627 0.67542 0.0
C90 C 0.59643 0.6659 0.80588 0.0
O91 O 0.55404 0.5663 0.69525 0.0
O92 O 0.57634 0.52792 0.70466 0.0
O93 O 0.49048 0.51278 0.7896 0.0
O94 O 0.51335 0.57294 0.85242 0.0
C95 C 0.57541 0.55462 0.66089 0.0
O96 O 0.50917 0.44988 0.74255 0.0
O97 O 0.52864 0.45205 0.8891 0.0
O98 O 0.53355 0.5221 0.97139 0.0
O99 O 0.57717 0.58562 -0.02395 0.0
O100 O 0.62332 0.59308 0.85932 0.0
O101 O 0.60013 0.52972 0.87814 0.0
C102 C 0.4853 0.53967 0.82341 0.0
O103 O 0.57618 0.64782 0.87492 0.0
O104 O 0.60547 0.64531 0.75465 0.0
C105 C 0.52454 0.40395 0.78564 0.0
C106 C 0.54548 0.35022 0.73923 0.0
C107 C 0.50744 0.33949 0.74828 0.0
C108 C 0.4972 0.36609 0.77145 0.0
C109 C 0.56244 0.41499 0.77549 0.0
C110 C 0.57275 0.38837 0.75211 0.0
C111 C 0.5128 0.4312 0.8111 0.0
H112 H 0.52205 0.71996 0.74736 0.0
H113 H 0.53318 0.67277 0.81712 0.0
H114 H 0.63788 0.71684 0.68259 0.0
H115 H 0.62662 0.76332 0.61116 0.0
H116 H 0.48531 0.31071 0.73599 0.0
H117 H 0.46775 0.35705 0.77806 0.0
H118 H 0.58401 0.44414 0.78573 0.0
H119 H 0.60219 0.39759 0.74474 0.0
H120 H 0.29018 0.55753 -0.0072 0.0
C121 C 0.27325 0.52925 0.01495 0.0
H122 H 0.27285 0.47849 0.03337 0.0
H123 H 0.4057 0.55573 0.72946 0.0
H124 H 0.35598 0.54866 0.61648 0.0
H125 H 0.29191 0.52712 0.66589 0.0
H126 H 0.27724 0.51298 0.82884 0.0
C127 C 0.28748 0.50626 0.00764 0.0
C128 C 0.32611 0.51925 0.97595 0.0
C129 C 0.33404 0.52658 0.87983 0.0
C130 C 0.37079 0.53791 0.85057 0.0
C131 C 0.37814 0.54617 0.75494 0.0
C132 C 0.34988 0.54235 0.68942 0.0
C133 C 0.31382 0.5303 0.7173 0.0
C134 C 0.30581 0.52242 0.81121 0.0
H135 H 0.42323 0.50369 0.80833 0.0
C136 C 0.44609 0.5308 0.8357 0.0
H137 H 0.46099 0.57957 0.92024 0.0
H138 H 0.32083 0.50806 0.16553 0.0
H139 H 0.36997 0.51337 0.27739 0.0
H140 H 0.43278 0.53089 0.22604 0.0
H141 H 0.44723 0.54373 0.06238 0.0
C142 C 0.43821 0.55335 0.888 0.0
C143 C 0.39937 0.54105 0.91689 0.0
C144 C 0.39135 0.53353 0.01286 0.0
C145 C 0.3548 0.52272 0.04232 0.0
C146 C 0.34785 0.51581 0.13885 0.0
C147 C 0.37585 0.51886 0.20399 0.0
C148 C 0.41129 0.52884 0.17506 0.0
C149 C 0.41916 0.53617 0.08086 0.0
H150 H 0.77679 0.28841 0.36909 0.0
C151 C 0.78756 0.27213 0.40322 0.0
H152 H 0.83689 0.26966 0.43814 0.0
H153 H 0.93615 0.38481 0.14639 0.0
H154 H 0.92268 0.3267 0.06627 0.0
H155 H 0.87714 0.26631 0.12636 0.0
H156 H 0.84443 0.26375 0.26641 0.0
C157 C 0.82518 0.28622 0.41132 0.0
C158 C 0.85219 0.32309 0.3747 0.0
C159 C 0.87206 0.32429 0.29444 0.0
C160 C 0.89929 0.35921 0.2615 0.0
C161 C 0.91677 0.35927 0.17762 0.0
C162 C 0.90892 0.32604 0.13008 0.0
C163 C 0.88321 0.29205 0.16376 0.0
C164 C 0.86476 0.291 0.24455 0.0
H165 H 0.98159 0.41664 0.29788 0.0
C166 C 0.9746 0.43792 0.2806 0.0
H167 H 0.93142 0.45111 0.26434 0.0
H168 H 0.82014 0.33112 0.53209 0.0
H169 H 0.83185 0.3892 0.60907 0.0
H170 H 0.87716 0.44962 0.54869 0.0
H171 H 0.91126 0.45235 0.41178 0.0
C172 C 0.93854 0.42998 0.28216 0.0
C173 C 0.90766 0.39311 0.31082 0.0
C174 C 0.88631 0.39188 0.38813 0.0
C175 C 0.85919 0.35692 0.42125 0.0
C176 C 0.84017 0.35674 0.50221 0.0
C177 C 0.84675 0.38991 0.54745 0.0
C178 C 0.87232 0.42392 0.5136 0.0
C179 C 0.89189 0.42506 0.435 0.0
H180 H 0.6113 0.96545 0.4628 0.0
C181 C 0.58327 0.95904 0.47984 0.0
H182 H 0.53156 0.91876 0.52997 0.0
H183 H 0.54633 0.77655 0.45454 0.0
H184 H 0.5017 0.76791 0.32432 0.0
H185 H 0.48802 0.81786 0.28732 0.0
H186 H 0.51916 0.87696 0.3799 0.0
C187 C 0.55969 0.92552 0.51291 0.0
C188 C 0.57056 0.89666 0.53105 0.0
C189 C 0.55182 0.862 0.47737 0.0
C190 C 0.55929 0.8329 0.49976 0.0
C191 C 0.541 0.79918 0.44255 0.0
C192 C 0.51548 0.79393 0.3671 0.0
C193 C 0.5078 0.82207 0.3462 0.0
C194 C 0.52576 0.8558 0.40017 0.0
H195 H 0.53892 0.77258 0.64711 0.0
C196 C 0.56664 0.776 0.63929 0.0
H197 H 0.6215 0.81347 0.59908 0.0
H198 H 0.61003 0.95865 0.65319 0.0
H199 H 0.65521 0.96755 0.78152 0.0
H200 H 0.6686 0.91749 0.81907 0.0
H201 H 0.63703 0.85825 0.7278 0.0
C202 C 0.59282 0.80766 0.60277 0.0
C203 C 0.58507 0.83815 0.57715 0.0
C204 C 0.60432 0.87306 0.62989 0.0
C205 C 0.59683 0.90217 0.60754 0.0
C206 C 0.61529 0.93597 0.66464 0.0
C207 C 0.64112 0.94138 0.73936 0.0
C208 C 0.64868 0.91321 0.76047 0.0
C209 C 0.63044 0.87935 0.70709 0.0
H210 H 0.6895 0.60127 0.90726 0.0
C211 C 0.66643 0.57277 0.90942 0.0
H212 H 0.65082 0.51786 0.94454 0.0
H213 H 0.83095 0.58235 0.88536 0.0
H214 H 0.81321 0.57981 0.71836 0.0
H215 H 0.74902 0.56497 0.66449 0.0
H216 H 0.7023 0.55307 0.77747 0.0
C217 C 0.67366 0.54623 0.93868 0.0
C218 C 0.71243 0.55487 0.97043 0.0
C219 C 0.73917 0.56086 0.90333 0.0
C220 C 0.77589 0.56829 0.93427 0.0
C221 C 0.80238 0.57554 0.86584 0.0
C222 C 0.79262 0.57434 0.76968 0.0
C223 C 0.7565 0.56607 0.73935 0.0
C224 C 0.72998 0.55939 0.80503 0.0
H225 H 0.8176 0.52694 0.01002 0.0
C226 C 0.83626 0.55292 0.05106 0.0
H227 H 0.84191 0.60384 0.10504 0.0
H228 H 0.66807 0.54489 0.11741 0.0
H229 H 0.68556 0.54684 0.28444 0.0
H230 H 0.74857 0.55817 0.3379 0.0
H231 H 0.79476 0.56813 0.22468 0.0
C232 C 0.82415 0.57732 0.06586 0.0
C233 C 0.78553 0.56879 0.03218 0.0
C234 C 0.75873 0.56275 0.09914 0.0
C235 C 0.72218 0.55573 0.06825 0.0
C236 C 0.69611 0.55003 0.13686 0.0
C237 C 0.70576 0.55105 0.233 0.0
C238 C 0.74129 0.55754 0.2631 0.0
C239 C 0.76756 0.5633 0.19734 0.0
H240 H 0.343 0.80831 0.28687 0.0
C241 C 0.33238 0.82632 0.30999 0.0
H242 H 0.28276 0.82787 0.33478 0.0
H243 H 0.21286 0.68029 0.02993 0.0
H244 H 0.24897 0.7239 0.91371 0.0
H245 H 0.29353 0.79004 0.96144 0.0
H246 H 0.30249 0.81295 0.12567 0.0
C247 C 0.29474 0.81191 0.30629 0.0
C248 C 0.26781 0.772 0.27572 0.0
C249 C 0.26248 0.75919 0.17905 0.0
C250 C 0.23602 0.72119 0.15095 0.0
C251 C 0.23195 0.70897 0.05457 0.0
C252 C 0.2526 0.73369 -0.01275 0.0
C253 C 0.27773 0.77092 0.01418 0.0
C254 C 0.28273 0.78368 0.10879 0.0
H255 H 0.14702 0.66614 0.12124 0.0
C256 C 0.15315 0.64525 0.14763 0.0
H257 H 0.19278 0.63572 0.2231 0.0
H258 H 0.27084 0.78715 0.46653 0.0
H259 H 0.23286 0.74405 0.5812 0.0
H260 H 0.18585 0.67879 0.53178 0.0
H261 H 0.1766 0.65618 0.3676 0.0
C262 C 0.18709 0.65621 0.19194 0.0
C263 C 0.21441 0.69625 0.21914 0.0
C264 C 0.21937 0.70917 0.31552 0.0
C265 C 0.24609 0.74699 0.3438 0.0
C266 C 0.25061 0.75889 0.44077 0.0
C267 C 0.22906 0.73441 0.50749 0.0
C268 C 0.20263 0.69767 0.47971 0.0
C269 C 0.19771 0.68503 0.38509 0.0
H270 H 0.58464 0.33312 0.68386 0.0
C271 C 0.55746 0.32269 0.71343 0.0
H272 H 0.51105 0.27488 0.76297 0.0
H273 H 0.56545 0.18944 0.46374 0.0
H274 H 0.54579 0.2168 0.34056 0.0
H275 H 0.52684 0.263 0.38084 0.0
H276 H 0.52803 0.2826 0.54446 0.0
C277 C 0.53691 0.28589 0.72707 0.0
C278 C 0.54984 0.25909 0.70139 0.0
C279 C 0.54816 0.24724 0.60536 0.0
C280 C 0.55772 0.21945 0.58224 0.0
C281 C 0.55717 0.20933 0.48557 0.0
C282 C 0.54618 0.22502 0.41405 0.0
C283 C 0.53562 0.25111 0.43672 0.0
C284 C 0.53654 0.2622 0.53105 0.0
H285 H 0.5192 0.13379 0.58256 0.0
C286 C 0.54734 0.13792 0.59579 0.0
H287 H 0.60329 0.176 0.6479 0.0
H288 H 0.55831 0.2769 0.89157 0.0
H289 H 0.57761 0.24926 0.01503 0.0
H290 H 0.59245 0.20005 0.97557 0.0
H291 H 0.58832 0.17811 0.8123 0.0
C292 C 0.57511 0.1714 0.6321 0.0
C293 C 0.56776 0.20255 0.65529 0.0
C294 C 0.57047 0.21519 0.75104 0.0
C295 C 0.56148 0.24338 0.77401 0.0
C296 C 0.56438 0.25532 0.87027 0.0
C297 C 0.57552 0.23976 0.94182 0.0
C298 C 0.58394 0.21206 0.91955 0.0
C299 C 0.58147 0.19976 0.8255 0.0
H300 H 1.01187 0.5163 0.88344 0.0
C301 C 1.03804 0.51827 0.91061 0.0
H302 H 0.09386 0.53342 0.88394 0.0
H303 H 1.01309 0.53571 0.46584 0.0
H304 H 0.97203 0.46896 0.47404 0.0
H305 H 0.97306 0.43735 0.61808 0.0
H306 H 1.01622 0.47222 0.75376 0.0
C307 C 0.06709 0.52993 0.85628 0.0
C308 C 0.06665 0.54777 0.76863 0.0
C309 C 1.04088 0.52662 0.69121 0.0
C310 C 1.0407 0.54447 0.6079 0.0
C311 C 1.0148 0.52316 0.53054 0.0
C312 C 0.9908 0.48493 0.53461 0.0
C313 C 0.99154 0.46716 0.61562 0.0
C314 C 1.01627 0.4876 0.69327 0.0
H315 H 0.11218 0.57107 0.50106 0.0
C316 C 0.09706 0.58195 0.46014 0.0
H317 H 0.0602 0.6036 0.4658 0.0
H318 H 0.11601 0.59748 0.91074 0.0
H319 H 0.15937 0.66348 0.89714 0.0
H320 H 0.16168 0.69308 0.7467 0.0
H321 H 0.1196 0.65664 0.60942 0.0
C322 C 0.07791 0.59525 0.50498 0.0
C323 C 0.06808 0.58248 0.60045 0.0
C324 C 0.09237 0.60402 0.67906 0.0
C325 C 0.09147 0.58672 0.76432 0.0
C326 C 0.1159 0.60895 0.84309 0.0
C327 C 0.14091 0.64692 0.83635 0.0
C328 C 0.14218 0.66361 0.7517 0.0
C329 C 0.11818 0.64249 0.67356 0.0
H330 H 0.60766 0.08593 0.23846 0.0
C331 C 0.57891 0.06335 0.24332 0.0
H332 H 0.53259 1.01498 0.17789 0.0
H333 H 0.65043 0.09862 0.83814 0.0
H334 H 0.65153 0.15647 0.88332 0.0
H335 H 0.6173 0.15934 0.01889 0.0
H336 H 0.5828 0.1055 0.11024 0.0
C337 C 0.5609 0.03817 0.17139 0.0
C338 C 0.58098 0.03776 0.08851 0.0
C339 C 0.59917 0.06959 0.03399 0.0
C340 C 0.6168 0.06745 0.95284 0.0
C341 C 0.63608 0.09929 0.89975 0.0
C342 C 0.63681 0.13235 0.92473 0.0
C343 C 0.6176 0.13397 0.00111 0.0
C344 C 0.59848 0.10291 0.05443 0.0
H345 H 0.54889 1.01301 0.82244 0.0
C346 C 0.57209 1.01962 0.77803 0.0
H347 H 0.62922 0.03302 0.77509 0.0
H348 H 0.55693 0.97469 0.18948 0.0
H349 H 0.55581 0.91777 0.13769 0.0
H350 H 0.57947 0.91276 -0.0161 0.0
H351 H 0.6054 0.96555 0.88227 0.0
C352 C 0.60507 1.02507 0.81668 0.0
C353 C 0.61122 0.03258 0.91953 0.0
C354 C 0.59649 1.00213 -0.02264 0.0
C355 C 0.58189 1.00483 0.06365 0.0
C356 C 0.56755 0.97392 0.12148 0.0
C357 C 0.56688 0.94113 0.09274 0.0
C358 C 0.58022 0.93831 0.00622 0.0
C359 C 0.59483 0.96846 0.94861 0.0
H360 H 0.63432 0.60003 0.67898 0.0
C361 C 0.61143 0.58266 0.62678 0.0
H362 H 0.64599 0.60829 0.51728 0.0
H363 H 0.56456 0.4817 0.20016 0.0
H364 H 0.60626 0.46154 0.2687 0.0
H365 H 0.64019 0.4877 0.42525 0.0
H366 H 0.63297 0.53458 0.51367 0.0
C367 C 0.61802 0.58754 0.53537 0.0
C368 C 0.59004 0.56474 0.45657 0.0
C369 C 0.5935 0.53646 0.40785 0.0
C370 C 0.57359 0.52107 0.31839 0.0
C371 C 0.57888 0.49414 0.26876 0.0
C372 C 0.60264 0.48227 0.30741 0.0
C373 C 0.62176 0.49701 0.39555 0.0
C374 C 0.61749 0.52394 0.44536 0.0
H375 H 0.57598 0.58523 0.15559 0.0
C376 C 0.55743 0.55768 0.12132 0.0
H377 H 0.52305 0.50024 0.14287 0.0
H378 H 0.5729 0.6144 0.53945 0.0
H379 H 0.52736 0.63075 0.47666 0.0
H380 H 0.4911 0.60217 0.32361 0.0
H381 H 0.50072 0.55739 0.23206 0.0
C382 C 0.54038 0.52831 0.17495 0.0
C383 C 0.55043 0.53416 0.27859 0.0
C384 C 0.54329 0.55884 0.33309 0.0
C385 C 0.56356 0.57463 0.4219 0.0
C386 C 0.55772 0.60106 0.47223 0.0
C387 C 0.53171 0.61071 0.43691 0.0
C388 C 0.51134 0.59467 0.35071 0.0
C389 C 0.5171 0.56914 0.29886 0.0
loop_
_geom_bond_atom_site_label_1
_geom_bond_atom_site_label_2
_geom_bond_distance
_geom_bond_site_symmetry_2
_ccdc_geom_bond_type
Tb0 C10 2.825 . S
Tb0 O11 2.347 . S
Tb0 O14 2.366 . S
Tb0 O19 2.418 . S
Tb0 O20 2.384 1_455 S
Tb0 O23 2.479 . S
Tb0 O24 2.471 . S
Eu1 O12 2.418 1_554 S
Eu1 O13 2.384 1_655 S
Eu1 O16 2.479 . S
Eu1 O17 2.471 . S
Eu1 O18 2.347 1_655 S
Eu1 O21 2.366 . S
Eu1 C31 2.825 . S
C2 O18 1.259 . S
C2 O19 1.265 . S
C3 O20 1.255 . S
C3 O21 1.265 . S
C4 C6 1.380 . S
C4 C7 1.374 . S
C4 C10 1.507 . S
C5 C6 1.384 . S
C5 C9 1.387 . S
C5 H32 0.930 . S
C6 C4 1.380 . S
C6 C5 1.384 . S
C6 H33 0.931 . S
C7 C4 1.374 . S
C7 C8 1.390 . S
C7 H34 0.930 . S
C8 C7 1.390 . S
C8 C9 1.391 . S
C8 H35 0.935 . S
C9 C5 1.387 . S
C9 C8 1.391 . S
C10 Tb0 2.825 . S
C10 C4 1.507 . S
C10 O23 1.238 . S
C10 O24 1.247 . S
O11 Tb0 2.347 . S
O11 C15 1.259 1_554 S
O12 Eu1 2.418 1_556 S
O12 C15 1.265 1_655 S
O13 Eu1 2.384 1_455 S
O13 C22 1.255 . S
O14 Tb0 2.366 . S
O14 C22 1.265 . S
C15 O11 1.259 1_556 S
C15 O12 1.265 1_455 S
O16 Eu1 2.479 . S
O16 C31 1.238 . S
O17 Eu1 2.471 . S
O17 C31 1.247 . S
O18 Eu1 2.347 1_455 S
O18 C2 1.259 . S
O19 Tb0 2.418 . S
O19 C2 1.265 . S
O20 Tb0 2.384 1_655 S
O20 C3 1.255 . S
O21 Eu1 2.366 . S
O21 C3 1.265 . S
C22 O13 1.255 . S
C22 O14 1.265 . S
O23 Tb0 2.479 . S
O23 C10 1.238 . S
O24 Tb0 2.471 . S
O24 C10 1.247 . S
C25 C28 1.380 . S
C25 C29 1.374 . S
C25 C31 1.507 . S
C26 C27 1.387 . S
C26 C30 1.391 . S
C27 C26 1.387 . S
C27 C28 1.384 . S
C27 H36 0.930 . S
C28 C25 1.380 . S
C28 C27 1.384 . S
C28 H37 0.931 . S
C29 C25 1.374 . S
C29 C30 1.390 . S
C29 H38 0.930 . S
C30 C26 1.391 . S
C30 C29 1.390 . S
C30 H39 0.930 . S
C31 Eu1 2.825 . S
C31 O16 1.238 . S
C31 O17 1.247 . S
C31 C25 1.507 . S
H32 C5 0.930 . S
H33 C6 0.931 . S
H34 C7 0.930 . S
H35 C8 0.935 . S
H36 C27 0.930 . S
H37 C28 0.931 . S
H38 C29 0.930 . S
H39 C30 0.930 . S
Tb40 C50 2.825 . S
Tb40 O51 2.347 . S
Tb40 O54 2.366 . S
Tb40 O59 2.418 . S
Tb40 O60 2.384 1_545 S
Tb40 O63 2.479 . S
Tb40 O64 2.471 . S
Eu41 O52 2.418 . S
Eu41 O53 2.384 1_565 S
Eu41 O56 2.479 . S
Eu41 O57 2.471 . S
Eu41 O58 2.347 1_565 S
Eu41 O61 2.366 . S
Eu41 C71 2.825 . S
C42 O58 1.259 . S
C42 O59 1.265 . S
C43 O60 1.255 . S
C43 O61 1.265 . S
C44 C46 1.380 . S
C44 C47 1.374 . S
C44 C50 1.507 . S
C45 C46 1.384 . S
C45 C49 1.387 . S
C45 H72 0.930 . S
C46 C44 1.380 . S
C46 C45 1.384 . S
C46 H73 0.931 . S
C47 C44 1.374 . S
C47 C48 1.390 . S
C47 H74 0.930 . S
C48 C47 1.390 . S
C48 C49 1.391 . S
C48 H75 0.930 . S
C49 C45 1.387 . S
C49 C48 1.391 . S
C50 Tb40 2.825 . S
C50 C44 1.507 . S
C50 O63 1.238 . S
C50 O64 1.247 . S
O51 Tb40 2.347 . S
O51 C55 1.259 . S
O52 Eu41 2.418 . S
O52 C55 1.265 1_565 S
O53 Eu41 2.384 1_545 S
O53 C62 1.255 . S
O54 Tb40 2.366 . S
O54 C62 1.265 . S
C55 O51 1.259 . S
C55 O52 1.265 1_545 S
O56 Eu41 2.479 . S
O56 C71 1.238 . S
O57 Eu41 2.471 . S
O57 C71 1.247 . S
O58 Eu41 2.347 1_545 S
O58 C42 1.259 . S
O59 Tb40 2.418 . S
O59 C42 1.265 . S
O60 Tb40 2.384 1_565 S
O60 C43 1.255 . S
O61 Eu41 2.366 . S
O61 C43 1.265 . S
C62 O53 1.255 . S
C62 O54 1.265 . S
O63 Tb40 2.479 . S
O63 C50 1.238 . S
O64 Tb40 2.471 . S
O64 C50 1.247 . S
C65 C68 1.380 . S
C65 C69 1.374 . S
C65 C71 1.507 . S
C66 C67 1.387 . S
C66 C70 1.391 . S
C67 C66 1.387 . S
C67 C68 1.384 . S
C67 H76 0.930 . S
C68 C65 1.380 . S
C68 C67 1.384 . S
C68 H77 0.931 . S
C69 C65 1.374 . S
C69 C70 1.390 . S
C69 H78 0.930 . S
C70 C66 1.391 . S
C70 C69 1.390 . S
C70 H79 0.930 . S
C71 Eu41 2.825 . S
C71 O56 1.238 . S
C71 O57 1.247 . S
C71 C65 1.507 . S
H72 C45 0.930 . S
H73 C46 0.931 . S
H74 C47 0.930 . S
H75 C48 0.930 . S
H76 C67 0.930 . S
H77 C68 0.931 . S
H78 C69 0.930 . S
H79 C70 0.930 . S
Tb80 C90 2.825 . S
Tb80 O91 2.347 . S
Tb80 O94 2.366 . S
Tb80 O99 2.418 1_556 S
Tb80 O100 2.384 . S
Tb80 O103 2.479 . S
Tb80 O104 2.471 . S
Eu81 O92 2.418 . S
Eu81 O93 2.384 . S
Eu81 O96 2.479 . S
Eu81 O97 2.471 . S
Eu81 O98 2.347 . S
Eu81 O101 2.366 . S
Eu81 C111 2.825 . S
C82 O98 1.259 1_554 S
C82 O99 1.265 . S
C83 O100 1.255 . S
C83 O101 1.265 . S
C84 C86 1.380 . S
C84 C87 1.374 . S
C84 C90 1.507 . S
C85 C86 1.384 . S
C85 C89 1.387 . S
C85 H112 0.930 . S
C86 C84 1.380 . S
C86 C85 1.384 . S
C86 H113 0.931 . S
C87 C84 1.374 . S
C87 C88 1.390 . S
C87 H114 0.930 . S
C88 C87 1.390 . S
C88 C89 1.391 . S
C88 H115 0.930 . S
C89 C85 1.387 . S
C89 C88 1.391 . S
C90 Tb80 2.825 . S
C90 C84 1.507 . S
C90 O103 1.238 . S
C90 O104 1.247 . S
O91 Tb80 2.347 . S
O91 C95 1.259 . S
O92 Eu81 2.418 . S
O92 C95 1.265 . S
O93 Eu81 2.384 . S
O93 C102 1.255 . S
O94 Tb80 2.366 . S
O94 C102 1.265 . S
C95 O91 1.259 . S
C95 O92 1.265 . S
O96 Eu81 2.479 . S
O96 C111 1.238 . S
O97 Eu81 2.471 . S
O97 C111 1.247 . S
O98 Eu81 2.347 . S
O98 C82 1.259 1_556 S
O99 Tb80 2.418 1_554 S
O99 C82 1.265 . S
O100 Tb80 2.384 . S
O100 C83 1.255 . S
O101 Eu81 2.366 . S
O101 C83 1.265 . S
C102 O93 1.255 . S
C102 O94 1.265 . S
O103 Tb80 2.479 . S
O103 C90 1.238 . S
O104 Tb80 2.471 . S
O104 C90 1.247 . S
C105 C108 1.380 . S
C105 C109 1.374 . S
C105 C111 1.507 . S
C106 C107 1.387 . S
C106 C110 1.391 . S
C107 C106 1.387 . S
C107 C108 1.384 . S
C107 H116 0.930 . S
C108 C105 1.380 . S
C108 C107 1.384 . S
C108 H117 0.931 . S
C109 C105 1.374 . S
C109 C110 1.390 . S
C109 H118 0.930 . S
C110 C106 1.391 . S
C110 C109 1.390 . S
C110 H119 0.929 . S
C111 Eu81 2.825 . S
C111 O96 1.238 . S
C111 O97 1.247 . S
C111 C105 1.507 . S
H112 C85 0.930 . S
H113 C86 0.931 . S
H114 C87 0.930 . S
H115 C88 0.930 . S
H116 C107 0.930 . S
H117 C108 0.931 . S
H118 C109 0.930 . S
H119 C110 0.929 . S
H120 C121 0.951 . S
C121 H120 0.951 . S
C121 C127 1.265 . S
H122 C127 0.950 . S
H123 C131 0.949 . S
H124 C132 0.950 . S
H125 C133 0.951 . S
H126 C134 0.951 . S
C127 C121 1.265 . S
C127 H122 0.950 . S
C127 C128 1.478 . S
C128 C127 1.478 . S
C128 C129 1.397 1_554 S
C128 C145 1.394 . S
C129 C128 1.397 1_556 S
C129 C130 1.438 . S
C129 C134 1.429 . S
C130 C129 1.438 . S
C130 C131 1.428 . S
C130 C143 1.394 . S
C131 H123 0.949 . S
C131 C130 1.428 . S
C131 C132 1.345 . S
C132 H124 0.950 . S
C132 C131 1.345 . S
C132 C133 1.424 . S
C133 H125 0.951 . S
C133 C132 1.424 . S
C133 C134 1.347 . S
C134 H126 0.951 . S
C134 C129 1.429 . S
C134 C133 1.347 . S
H135 C136 0.951 . S
C136 H135 0.951 . S
C136 C142 1.265 . S
H137 C142 0.950 . S
H138 C146 0.949 . S
H139 C147 0.950 . S
H140 C148 0.951 . S
H141 C149 0.951 . S
C142 C136 1.265 . S
C142 H137 0.950 . S
C142 C143 1.478 . S
C143 C130 1.394 . S
C143 C142 1.478 . S
C143 C144 1.397 1_556 S
C144 C143 1.397 1_554 S
C144 C145 1.438 . S
C144 C149 1.429 . S
C145 C128 1.394 . S
C145 C144 1.438 . S
C145 C146 1.428 . S
C146 H138 0.949 . S
C146 C145 1.428 . S
C146 C147 1.345 . S
C147 H139 0.950 . S
C147 C146 1.345 . S
C147 C148 1.424 . S
C148 H140 0.951 . S
C148 C147 1.424 . S
C148 C149 1.347 . S
C149 H141 0.951 . S
C149 C144 1.429 . S
C149 C148 1.347 . S
H150 C151 0.951 . S
C151 H150 0.951 . S
C151 C157 1.265 . S
H152 C157 0.950 . S
H153 C161 0.949 . S
H154 C162 0.950 1_556 S
H155 C163 0.951 . S
H156 C164 0.951 . S
C157 C151 1.265 . S
C157 H152 0.950 . S
C157 C158 1.478 . S
C158 C157 1.478 . S
C158 C159 1.397 . S
C158 C175 1.394 . S
C159 C158 1.397 . S
C159 C160 1.438 . S
C159 C164 1.429 . S
C160 C159 1.438 . S
C160 C161 1.428 . S
C160 C173 1.394 . S
C161 H153 0.949 . S
C161 C160 1.428 . S
C161 C162 1.345 . S
C162 H154 0.950 1_554 S
C162 C161 1.345 . S
C162 C163 1.424 . S
C163 H155 0.951 . S
C163 C162 1.424 . S
C163 C164 1.347 . S
C164 H156 0.951 . S
C164 C159 1.429 . S
C164 C163 1.347 . S
H165 C166 0.951 . S
C166 H165 0.951 . S
C166 C172 1.265 . S
H167 C172 0.950 . S
H168 C176 0.949 . S
H169 C177 0.950 . S
H170 C178 0.951 . S
H171 C179 0.951 . S
C172 C166 1.265 . S
C172 H167 0.950 . S
C172 C173 1.478 . S
C173 C160 1.394 . S
C173 C172 1.478 . S
C173 C174 1.397 . S
C174 C173 1.397 . S
C174 C175 1.438 . S
C174 C179 1.429 . S
C175 C158 1.394 . S
C175 C174 1.438 . S
C175 C176 1.428 . S
C176 H168 0.949 . S
C176 C175 1.428 . S
C176 C177 1.345 . S
C177 H169 0.950 . S
C177 C176 1.345 . S
C177 C178 1.424 . S
C178 H170 0.951 . S
C178 C177 1.424 . S
C178 C179 1.347 . S
C179 H171 0.951 . S
C179 C174 1.429 . S
C179 C178 1.347 . S
H180 C181 0.951 . S
C181 H180 0.951 . S
C181 C187 1.265 . S
H182 C187 0.950 . S
H183 C191 0.949 . S
H184 C192 0.950 . S
H185 C193 0.951 . S
H186 C194 0.951 . S
C187 C181 1.265 . S
C187 H182 0.950 . S
C187 C188 1.478 . S
C188 C187 1.478 . S
C188 C189 1.397 . S
C188 C205 1.394 . S
C189 C188 1.397 . S
C189 C190 1.438 . S
C189 C194 1.429 . S
C190 C189 1.438 . S
C190 C191 1.428 . S
C190 C203 1.394 . S
C191 H183 0.949 . S
C191 C190 1.428 . S
C191 C192 1.345 . S
C192 H184 0.950 . S
C192 C191 1.345 . S
C192 C193 1.424 . S
C193 H185 0.951 . S
C193 C192 1.424 . S
C193 C194 1.347 . S
C194 H186 0.951 . S
C194 C189 1.429 . S
C194 C193 1.347 . S
H195 C196 0.951 . S
C196 H195 0.951 . S
C196 C202 1.265 . S
H197 C202 0.950 . S
H198 C206 0.949 . S
H199 C207 0.950 . S
H200 C208 0.951 . S
H201 C209 0.951 . S
C202 C196 1.265 . S
C202 H197 0.950 . S
C202 C203 1.478 . S
C203 C190 1.394 . S
C203 C202 1.478 . S
C203 C204 1.397 . S
C204 C203 1.397 . S
C204 C205 1.438 . S
C204 C209 1.429 . S
C205 C188 1.394 . S
C205 C204 1.438 . S
C205 C206 1.428 . S
C206 H198 0.949 . S
C206 C205 1.428 . S
C206 C207 1.345 . S
C207 H199 0.950 . S
C207 C206 1.345 . S
C207 C208 1.424 . S
C208 H200 0.951 . S
C208 C207 1.424 . S
C208 C209 1.347 . S
C209 H201 0.951 . S
C209 C204 1.429 . S
C209 C208 1.347 . S
H210 C211 0.951 . S
C211 H210 0.951 . S
C211 C217 1.265 . S
H212 C217 0.950 . S
H213 C221 0.949 . S
H214 C222 0.950 . S
H215 C223 0.951 . S
H216 C224 0.951 . S
C217 C211 1.265 . S
C217 H212 0.950 . S
C217 C218 1.478 . S
C218 C217 1.478 . S
C218 C219 1.397 . S
C218 C235 1.394 1_556 S
C219 C218 1.397 . S
C219 C220 1.438 1_556 S
C219 C224 1.429 . S
C220 C219 1.438 1_554 S
C220 C221 1.428 . S
C220 C233 1.394 . S
C221 H213 0.949 . S
C221 C220 1.428 . S
C221 C222 1.345 1_554 S
C222 H214 0.950 . S
C222 C221 1.345 1_556 S
C222 C223 1.424 . S
C223 H215 0.951 . S
C223 C222 1.424 . S
C223 C224 1.347 . S
C224 H216 0.951 . S
C224 C219 1.429 . S
C224 C223 1.347 . S
H225 C226 0.951 . S
C226 H225 0.951 . S
C226 C232 1.265 . S
H227 C232 0.950 . S
H228 C236 0.949 1_556 S
H229 C237 0.950 . S
H230 C238 0.951 . S
H231 C239 0.951 . S
C232 C226 1.265 . S
C232 H227 0.950 . S
C232 C233 1.478 . S
C233 C220 1.394 . S
C233 C232 1.478 . S
C233 C234 1.397 . S
C234 C233 1.397 . S
C234 C235 1.438 . S
C234 C239 1.429 . S
C235 C218 1.394 1_554 S
C235 C234 1.438 . S
C235 C236 1.428 . S
C236 H228 0.949 1_554 S
C236 C235 1.428 . S
C236 C237 1.345 . S
C237 H229 0.950 . S
C237 C236 1.345 . S
C237 C238 1.424 . S
C238 H230 0.951 . S
C238 C237 1.424 . S
C238 C239 1.347 . S
C239 H231 0.951 . S
C239 C234 1.429 . S
C239 C238 1.347 . S
H240 C241 0.951 . S
C241 H240 0.951 . S
C241 C247 1.265 . S
H242 C247 0.950 . S
H243 C251 0.949 . S
H244 C252 0.950 . S
H245 C253 0.951 . S
H246 C254 0.951 . S
C247 C241 1.265 . S
C247 H242 0.950 . S
C247 C248 1.478 . S
C248 C247 1.478 . S
C248 C249 1.397 . S
C248 C265 1.394 . S
C249 C248 1.397 . S
C249 C250 1.438 . S
C249 C254 1.429 . S
C250 C249 1.438 . S
C250 C251 1.428 . S
C250 C263 1.394 . S
C251 H243 0.949 . S
C251 C250 1.428 . S
C251 C252 1.345 . S
C252 H244 0.950 . S
C252 C251 1.345 . S
C252 C253 1.424 . S
C253 H245 0.951 . S
C253 C252 1.424 . S
C253 C254 1.347 . S
C254 H246 0.951 . S
C254 C249 1.429 . S
C254 C253 1.347 . S
H255 C256 0.951 . S
C256 H255 0.951 . S
C256 C262 1.265 . S
H257 C262 0.950 . S
H258 C266 0.949 . S
H259 C267 0.950 . S
H260 C268 0.951 . S
H261 C269 0.951 . S
C262 C256 1.265 . S
C262 H257 0.950 . S
C262 C263 1.478 . S
C263 C250 1.394 . S
C263 C262 1.478 . S
C263 C264 1.397 . S
C264 C263 1.397 . S
C264 C265 1.438 . S
C264 C269 1.429 . S
C265 C248 1.394 . S
C265 C264 1.438 . S
C265 C266 1.428 . S
C266 H258 0.949 . S
C266 C265 1.428 . S
C266 C267 1.345 . S
C267 H259 0.950 . S
C267 C266 1.345 . S
C267 C268 1.424 . S
C268 H260 0.951 . S
C268 C267 1.424 . S
C268 C269 1.347 . S
C269 H261 0.951 . S
C269 C264 1.429 . S
C269 C268 1.347 . S
H270 C271 0.951 . S
C271 H270 0.951 . S
C271 C277 1.265 . S
H272 C277 0.950 . S
H273 C281 0.949 . S
H274 C282 0.950 . S
H275 C283 0.951 . S
H276 C284 0.951 . S
C277 C271 1.265 . S
C277 H272 0.950 . S
C277 C278 1.478 . S
C278 C277 1.478 . S
C278 C279 1.397 . S
C278 C295 1.394 . S
C279 C278 1.397 . S
C279 C280 1.438 . S
C279 C284 1.429 . S
C280 C279 1.438 . S
C280 C281 1.428 . S
C280 C293 1.394 . S
C281 H273 0.949 . S
C281 C280 1.428 . S
C281 C282 1.345 . S
C282 H274 0.950 . S
C282 C281 1.345 . S
C282 C283 1.424 . S
C283 H275 0.951 . S
C283 C282 1.424 . S
C283 C284 1.347 . S
C284 H276 0.951 . S
C284 C279 1.429 . S
C284 C283 1.347 . S
H285 C286 0.951 . S
C286 H285 0.951 . S
C286 C292 1.265 . S
H287 C292 0.950 . S
H288 C296 0.949 . S
H289 C297 0.950 1_554 S
H290 C298 0.951 . S
H291 C299 0.951 . S
C292 C286 1.265 . S
C292 H287 0.950 . S
C292 C293 1.478 . S
C293 C280 1.394 . S
C293 C292 1.478 . S
C293 C294 1.397 . S
C294 C293 1.397 . S
C294 C295 1.438 . S
C294 C299 1.429 . S
C295 C278 1.394 . S
C295 C294 1.438 . S
C295 C296 1.428 . S
C296 H288 0.949 . S
C296 C295 1.428 . S
C296 C297 1.345 . S
C297 H289 0.950 1_556 S
C297 C296 1.345 . S
C297 C298 1.424 . S
C298 H290 0.951 . S
C298 C297 1.424 . S
C298 C299 1.347 . S
C299 H291 0.951 . S
C299 C294 1.429 . S
C299 C298 1.347 . S
H300 C301 0.951 1_655 S
C301 H300 0.951 1_455 S
C301 C307 1.265 . S
H302 C307 0.950 . S
H303 C311 0.956 . S
H304 C312 0.942 . S
H305 C313 0.951 . S
H306 C314 0.951 . S
C307 C301 1.265 . S
C307 H302 0.950 . S
C307 C308 1.478 . S
C308 C307 1.478 . S
C308 C309 1.397 . S
C308 C325 1.394 . S
C309 C308 1.397 . S
C309 C310 1.438 . S
C309 C314 1.429 . S
C310 C309 1.438 . S
C310 C311 1.436 1_455 S
C310 C323 1.394 . S
C311 H303 0.956 . S
C311 C310 1.436 1_655 S
C311 C312 1.344 . S
C312 H304 0.942 . S
C312 C311 1.344 . S
C312 C313 1.419 1_655 S
C313 H305 0.951 . S
C313 C312 1.419 1_455 S
C313 C314 1.347 . S
C314 H306 0.951 . S
C314 C309 1.429 . S
C314 C313 1.347 . S
H315 C316 0.951 . S
C316 H315 0.951 . S
C316 C322 1.257 1_455 S
H317 C322 0.961 . S
H318 C326 0.949 . S
H319 C327 0.950 . S
H320 C328 0.951 . S
H321 C329 0.951 . S
C322 C316 1.257 1_655 S
C322 H317 0.961 . S
C322 C323 1.476 1_655 S
C323 C310 1.394 . S
C323 C322 1.476 1_455 S
C323 C324 1.397 . S
C324 C323 1.397 . S
C324 C325 1.438 . S
C324 C329 1.429 . S
C325 C308 1.394 . S
C325 C324 1.438 . S
C325 C326 1.428 . S
C326 H318 0.949 . S
C326 C325 1.428 . S
C326 C327 1.345 . S
C327 H319 0.950 . S
C327 C326 1.345 . S
C327 C328 1.424 . S
C328 H320 0.951 . S
C328 C327 1.424 . S
C328 C329 1.347 . S
C329 H321 0.951 . S
C329 C324 1.429 . S
C329 C328 1.347 . S
H330 C331 0.951 . S
C331 H330 0.951 . S
C331 C337 1.265 . S
H332 C337 0.950 . S
H333 C341 0.949 . S
H334 C342 0.950 . S
H335 C343 0.951 . S
H336 C344 0.951 . S
C337 C331 1.265 . S
C337 H332 0.950 . S
C337 C338 1.478 . S
C338 C337 1.478 . S
C338 C339 1.397 . S
C338 C355 1.394 1_545 S
C339 C338 1.397 . S
C339 C340 1.438 1_554 S
C339 C344 1.429 . S
C340 C339 1.438 1_556 S
C340 C341 1.428 . S
C340 C353 1.394 . S
C341 H333 0.949 . S
C341 C340 1.428 . S
C341 C342 1.345 . S
C342 H334 0.950 . S
C342 C341 1.345 . S
C342 C343 1.424 1_556 S
C343 H335 0.951 . S
C343 C342 1.424 1_554 S
C343 C344 1.347 . S
C344 H336 0.951 . S
C344 C339 1.429 . S
C344 C343 1.347 . S
H345 C346 0.951 . S
C346 H345 0.951 . S
C346 C352 1.265 . S
H347 C352 0.950 . S
H348 C356 0.949 . S
H349 C357 0.950 . S
H350 C358 0.951 . S
H351 C359 0.951 . S
C352 C346 1.265 . S
C352 H347 0.950 . S
C352 C353 1.478 . S
C353 C340 1.394 . S
C353 C352 1.478 . S
C353 C354 1.397 1_545 S
C354 C353 1.397 1_565 S
C354 C355 1.438 1_556 S
C354 C359 1.429 . S
C355 C338 1.394 1_565 S
C355 C354 1.438 1_554 S
C355 C356 1.428 . S
C356 H348 0.949 . S
C356 C355 1.428 . S
C356 C357 1.345 . S
C357 H349 0.950 . S
C357 C356 1.345 . S
C357 C358 1.424 1_554 S
C358 H350 0.951 . S
C358 C357 1.424 1_556 S
C358 C359 1.347 . S
C359 H351 0.951 . S
C359 C354 1.429 . S
C359 C358 1.347 . S
H360 C361 0.951 . S
C361 H360 0.951 . S
C361 C367 1.265 . S
H362 C367 0.950 . S
H363 C371 0.949 . S
H364 C372 0.950 . S
H365 C373 0.951 . S
H366 C374 0.951 . S
C367 C361 1.265 . S
C367 H362 0.950 . S
C367 C368 1.478 . S
C368 C367 1.478 . S
C368 C369 1.397 . S
C368 C385 1.394 . S
C369 C368 1.397 . S
C369 C370 1.438 . S
C369 C374 1.429 . S
C370 C369 1.438 . S
C370 C371 1.428 . S
C370 C383 1.394 . S
C371 H363 0.949 . S
C371 C370 1.428 . S
C371 C372 1.345 . S
C372 H364 0.950 . S
C372 C371 1.345 . S
C372 C373 1.424 . S
C373 H365 0.951 . S
C373 C372 1.424 . S
C373 C374 1.347 . S
C374 H366 0.951 . S
C374 C369 1.429 . S
C374 C373 1.347 . S
H375 C376 0.951 . S
C376 H375 0.951 . S
C376 C382 1.265 . S
H377 C382 0.950 . S
H378 C386 0.949 . S
H379 C387 0.950 . S
H380 C388 0.951 . S
H381 C389 0.951 . S
C382 C376 1.265 . S
C382 H377 0.950 . S
C382 C383 1.478 . S
C383 C370 1.394 . S
C383 C382 1.478 . S
C383 C384 1.397 . S
C384 C383 1.397 . S
C384 C385 1.438 . S
C384 C389 1.429 . S
C385 C368 1.394 . S
C385 C384 1.438 . S
C385 C386 1.428 . S
C386 H378 0.949 . S
C386 C385 1.428 . S
C386 C387 1.345 . S
C387 H379 0.950 . S
C387 C386 1.345 . S
C387 C388 1.424 . S
C388 H380 0.951 . S
C388 C387 1.424 . S
C388 C389 1.347 . S
C389 H381 0.951 . S
C389 C384 1.429 . S
C389 C388 1.347 . S
C121 C9 1.995 . S
C136 C102 1.964 . S
C151 C49 2.113 . S
C166 C3 2.076 . S
C181 C43 2.000 . S
C196 C89 1.987 . S
C211 C83 2.083 . S
C226 C26 2.024 . S
C241 C66 1.906 . S
C256 C22 1.960 . S
C271 C106 2.057 . S
C286 C62 2.082 . S
C301 C15 0.414 . S
C316 C2 0.414 . S
C331 C55 0.604 . S
C346 C42 0.604 . S
C361 C95 0.546 . S
C376 C82 0.546 . S
