# Generated by pormake.
# Topology sxg, (6)-cn, num edge types: 1
# Building blocks:
#     Node 0, Type 0, BuildingBlock: LEVNOQ01_clean_sbu_1, # of connection points: 6
#     Node 1, Type 0, BuildingBlock: LEVNOQ01_clean_sbu_1, # of connection points: 6
#     Node 2, Type 0, BuildingBlock: LEVNOQ01_clean_sbu_1, # of connection points: 6
#     Node 3, Type 0, BuildingBlock: LEVNOQ01_clean_sbu_1, # of connection points: 6
#     Node 4, Type 0, BuildingBlock: LEVNOQ01_clean_sbu_1, # of connection points: 6
#     Node 5, Type 0, BuildingBlock: LEVNOQ01_clean_sbu_1, # of connection points: 6
#     Node 6, Type 0, BuildingBlock: LEVNOQ01_clean_sbu_1, # of connection points: 6
#     Node 7, Type 0, BuildingBlock: LEVNOQ01_clean_sbu_1, # of connection points: 6
#     Node 8, Type 0, BuildingBlock: LEVNOQ01_clean_sbu_1, # of connection points: 6
#     Node 9, Type 0, BuildingBlock: LEVNOQ01_clean_sbu_1, # of connection points: 6
#     Node 10, Type 0, BuildingBlock: LEVNOQ01_clean_sbu_1, # of connection points: 6
#     Node 11, Type 0, BuildingBlock: LEVNOQ01_clean_sbu_1, # of connection points: 6
#     Node 12, Type 0, BuildingBlock: LEVNOQ01_clean_sbu_1, # of connection points: 6
#     Node 13, Type 0, BuildingBlock: LEVNOQ01_clean_sbu_1, # of connection points: 6
#     Node 14, Type 0, BuildingBlock: LEVNOQ01_clean_sbu_1, # of connection points: 6
#     Node 15, Type 0, BuildingBlock: LEVNOQ01_clean_sbu_1, # of connection points: 6
#     Node 16, Type 0, BuildingBlock: LEVNOQ01_clean_sbu_1, # of connection points: 6
#     Node 17, Type 0, BuildingBlock: LEVNOQ01_clean_sbu_1, # of connection points: 6
#     Node 18, Type 0, BuildingBlock: LEVNOQ01_clean_sbu_1, # of connection points: 6
#     Node 19, Type 0, BuildingBlock: LEVNOQ01_clean_sbu_1, # of connection points: 6
#     Node 20, Type 0, BuildingBlock: LEVNOQ01_clean_sbu_1, # of connection points: 6
#     Node 21, Type 0, BuildingBlock: LEVNOQ01_clean_sbu_1, # of connection points: 6
#     Node 22, Type 0, BuildingBlock: LEVNOQ01_clean_sbu_1, # of connection points: 6
#     Node 23, Type 0, BuildingBlock: LEVNOQ01_clean_sbu_1, # of connection points: 6
#     Edge 24, Type (0, 0), None
#     Edge 25, Type (0, 0), None
#     Edge 26, Type (0, 0), None
#     Edge 27, Type (0, 0), None
#     Edge 28, Type (0, 0), None
#     Edge 29, Type (0, 0), None
#     Edge 30, Type (0, 0), None
#     Edge 31, Type (0, 0), None
#     Edge 32, Type (0, 0), None
#     Edge 33, Type (0, 0), None
#     Edge 34, Type (0, 0), None
#     Edge 35, Type (0, 0), None
#     Edge 36, Type (0, 0), None
#     Edge 37, Type (0, 0), None
#     Edge 38, Type (0, 0), None
#     Edge 39, Type (0, 0), None
#     Edge 40, Type (0, 0), None
#     Edge 41, Type (0, 0), None
#     Edge 42, Type (0, 0), None
#     Edge 43, Type (0, 0), None
#     Edge 44, Type (0, 0), None
#     Edge 45, Type (0, 0), None
#     Edge 46, Type (0, 0), None
#     Edge 47, Type (0, 0), None
#     Edge 48, Type (0, 0), None
#     Edge 49, Type (0, 0), None
#     Edge 50, Type (0, 0), None
#     Edge 51, Type (0, 0), None
#     Edge 52, Type (0, 0), None
#     Edge 53, Type (0, 0), None
#     Edge 54, Type (0, 0), None
#     Edge 55, Type (0, 0), None
#     Edge 56, Type (0, 0), None
#     Edge 57, Type (0, 0), None
#     Edge 58, Type (0, 0), None
#     Edge 59, Type (0, 0), None
#     Edge 60, Type (0, 0), None
#     Edge 61, Type (0, 0), None
#     Edge 62, Type (0, 0), None
#     Edge 63, Type (0, 0), None
#     Edge 64, Type (0, 0), None
#     Edge 65, Type (0, 0), None
#     Edge 66, Type (0, 0), None
#     Edge 67, Type (0, 0), None
#     Edge 68, Type (0, 0), None
#     Edge 69, Type (0, 0), None
#     Edge 70, Type (0, 0), None
#     Edge 71, Type (0, 0), None
#     Edge 72, Type (0, 0), None
#     Edge 73, Type (0, 0), None
#     Edge 74, Type (0, 0), None
#     Edge 75, Type (0, 0), None
#     Edge 76, Type (0, 0), None
#     Edge 77, Type (0, 0), None
#     Edge 78, Type (0, 0), None
#     Edge 79, Type (0, 0), None
#     Edge 80, Type (0, 0), None
#     Edge 81, Type (0, 0), None
#     Edge 82, Type (0, 0), None
#     Edge 83, Type (0, 0), None
#     Edge 84, Type (0, 0), None
#     Edge 85, Type (0, 0), None
#     Edge 86, Type (0, 0), None
#     Edge 87, Type (0, 0), None
#     Edge 88, Type (0, 0), None
#     Edge 89, Type (0, 0), None
#     Edge 90, Type (0, 0), None
#     Edge 91, Type (0, 0), None
#     Edge 92, Type (0, 0), None
#     Edge 93, Type (0, 0), None
#     Edge 94, Type (0, 0), None
#     Edge 95, Type (0, 0), None
# Relax obj value: 0.175
# Max RMSD: 0.242
# Mean RMSD: 0.242
data_MOF--net-sxg--node1-LEVNOQ01_clean_sbu_1--edge1-none
_symmetry_space_group_name_H-M    P1
_symmetry_Int_Tables_number       1
_symmetry_cell_setting            triclinic
loop_
_symmetry_equiv_pos_as_xyz
'x, y, z'
_cell_length_a     21.517545
_cell_length_b     21.510828
_cell_length_c     21.495012
_cell_angle_alpha  89.696193
_cell_angle_beta   89.935622
_cell_angle_gamma 90.140386
loop_
_atom_site_label
_atom_site_type_symbol
_atom_site_fract_x
_atom_site_fract_y
_atom_site_fract_z
_atom_type_partial_charge
O0 O 0.93535 0.45359 0.20009 0.0
Mg1 Mg -0.0169 0.45254 0.28598 0.0
O2 O 0.91266 0.35622 0.19396 0.0
Mg3 Mg 0.00045 0.29221 0.2305 0.0
O4 O 0.04397 0.37688 0.28289 0.0
O5 O 0.07375 0.47106 0.25805 0.0
O6 O 0.06569 0.21001 0.27754 0.0
O7 O 0.09356 0.303 0.1622 0.0
Mg8 Mg 0.02926 0.18947 0.12319 0.0
O9 O 0.95494 0.22527 0.16584 0.0
O10 O 0.0835 0.14903 0.19603 0.0
O11 O 0.0615 0.27021 0.07409 0.0
O12 O 0.94331 0.15721 0.09394 0.0
C13 C 0.92223 0.323 0.33947 0.0
C14 C 0.89332 0.41237 0.20027 0.0
C15 C 0.08674 0.4132 0.26285 0.0
C16 C 0.09092 0.16102 0.25355 0.0
C17 C 0.10635 0.28994 0.10536 0.0
C18 C 0.9264 0.21046 0.11501 0.0
O19 O 0.94858 0.36716 0.3129 0.0
O20 O 0.92779 0.27072 0.31318 0.0
O21 O 0.3961 0.68501 0.57553 0.0
Mg22 Mg 0.42755 0.76525 0.62523 0.0
O23 O 0.36455 0.65617 0.66518 0.0
Mg24 Mg 0.45941 0.66589 0.73144 0.0
O25 O 0.50504 0.73347 0.66582 0.0
O26 O 0.51005 0.80073 0.59125 0.0
O27 O 0.53417 0.68667 0.81247 0.0
O28 O 0.54462 0.60049 0.69201 0.0
Mg29 Mg 0.47655 0.50453 0.79058 0.0
O30 O 0.41659 0.58045 0.78489 0.0
O31 O 0.5103 0.59134 0.81223 0.0
O32 O 0.52177 0.50335 0.70312 0.0
O33 O 0.38563 0.48586 0.76365 0.0
C34 C 0.36849 0.7959 0.75557 0.0
C35 C 0.35119 0.66711 0.60792 0.0
C36 C 0.53015 0.74855 0.61293 0.0
C37 C 0.53877 0.63399 0.83853 0.0
C38 C 0.56386 0.54454 0.70099 0.0
C39 C 0.37399 0.54416 0.76489 0.0
O40 O 0.37318 0.80677 0.69741 0.0
O41 O 0.3958 0.74795 0.77974 0.0
O42 O 0.56051 0.18628 0.88464 0.0
Mg43 Mg 0.5295 0.26727 0.83516 0.0
O44 O 0.5944 0.15705 0.79638 0.0
Mg45 Mg 0.50074 0.16627 0.72915 0.0
O46 O 0.45371 0.23357 0.79337 0.0
O47 O 0.44518 0.3023 0.86552 0.0
O48 O 0.42765 0.1856 0.64747 0.0
O49 O 0.4144 0.10086 0.76685 0.0
Mg50 Mg 0.48565 0.00558 0.67417 0.0
O51 O 0.54513 0.08238 0.677 0.0
O52 O 0.4479 0.08868 0.64455 0.0
O53 O 0.43753 0.00378 0.75977 0.0
O54 O 0.57647 -0.01097 0.7022 0.0
C55 C 0.59097 0.29745 0.7052 0.0
C56 C 0.6063 0.16876 0.85359 0.0
C57 C 0.42708 0.24903 0.84518 0.0
C58 C 0.42174 0.13393 0.61994 0.0
C59 C 0.39533 0.04463 0.7598 0.0
C60 C 0.58855 0.0471 0.69704 0.0
O61 O 0.58473 0.30858 0.76304 0.0
O62 O 0.56472 0.24899 0.68113 0.0
O63 O 0.02287 0.95564 0.25485 0.0
Mg64 Mg -0.01992 0.95345 0.1663 0.0
O65 O 0.04593 0.85897 0.2683 0.0
Mg66 Mg 0.96127 0.79292 0.22846 0.0
O67 O 0.92002 0.87735 0.17261 0.0
O68 O 0.88855 0.97253 0.19007 0.0
O69 O 0.8976 0.71048 0.18113 0.0
O70 O 0.8661 0.80361 0.29486 0.0
Mg71 Mg 0.92846 0.69365 0.33663 0.0
O72 O 0.00522 0.72624 0.29496 0.0
O73 O 0.87408 0.65274 0.26421 0.0
O74 O 0.89722 0.77486 0.38474 0.0
O75 O 0.01208 0.65897 0.36894 0.0
C76 C 0.04098 0.82355 0.12199 0.0
C77 C 0.06509 0.91487 0.25831 0.0
C78 C 0.87727 0.91403 0.19086 0.0
C79 C 0.86988 0.66293 0.2059 0.0
C80 C 0.85254 0.79279 0.35221 0.0
C81 C 0.03142 0.71147 0.3472 0.0
O82 O 0.01202 0.8655 0.14858 0.0
O83 O 0.03672 0.77078 0.14793 0.0
O84 O 0.20455 0.93871 0.45832 0.0
Mg85 Mg 0.29328 -0.01864 0.45504 0.0
O86 O 0.19075 0.91467 0.36201 0.0
Mg87 Mg 0.23227 -0.00211 0.29405 0.0
O88 O 0.2874 0.04096 0.37819 0.0
O89 O 0.26916 0.07285 0.47315 0.0
O90 O 0.28059 0.06128 0.21142 0.0
O91 O 0.16533 0.0925 0.30315 0.0
Mg92 Mg 0.12531 0.0275 0.19159 0.0
O93 O 0.16733 0.95274 0.2271 0.0
O94 O 0.19845 0.08264 0.15212 0.0
O95 O 0.07701 0.05846 0.27313 0.0
O96 O 0.09684 0.94168 0.15715 0.0
C97 C 0.33606 0.91672 0.32686 0.0
C98 C 0.20107 0.89604 0.4181 0.0
C99 C 0.26893 0.08394 0.41454 0.0
C100 C 0.25634 0.0883 0.16331 0.0
C101 C 0.10804 0.10421 0.29102 0.0
C102 C 0.1166 0.92465 0.2111 0.0
O103 O 0.31017 0.94871 0.36709 0.0
O104 O 0.3119 0.92095 0.27345 0.0
O105 O 0.38441 0.89818 0.77349 0.0
Mg106 Mg 0.33382 0.93055 0.69406 0.0
O107 O 0.29537 0.86597 0.80407 0.0
Mg108 Mg 0.22776 0.96012 0.79507 0.0
O109 O 0.29279 0.00669 0.72781 0.0
O110 O 0.36548 0.01436 0.65909 0.0
O111 O 0.14592 0.03491 0.77506 0.0
O112 O 0.26718 0.04504 0.86075 0.0
Mg113 Mg 0.16935 0.97546 0.95653 0.0
O114 O 0.17478 0.91589 0.88025 0.0
O115 O 0.14683 0.01025 0.87026 0.0
O116 O 0.25656 0.02109 0.95773 0.0
O117 O 0.19605 0.88429 0.97483 0.0
C118 C 0.20381 0.87022 0.66441 0.0
C119 C 0.35251 0.85317 0.79223 0.0
C120 C 0.34473 0.0331 0.71199 0.0
C121 C 0.12032 0.03925 0.82793 0.0
C122 C 0.25861 0.06369 0.91689 0.0
C123 C 0.19458 0.87293 0.91646 0.0
O124 O 0.2617 0.87597 0.65316 0.0
O125 O 0.17968 0.89666 0.7127 0.0
O126 O 0.70549 0.52181 0.50259 0.0
Mg127 Mg 0.794 0.4793 0.50565 0.0
O128 O 0.69114 0.54564 0.59885 0.0
Mg129 Mg 0.73177 0.46205 0.66615 0.0
O130 O 0.78765 0.41932 0.58227 0.0
O131 O 0.77076 0.38748 0.48708 0.0
O132 O 0.77927 0.39901 0.74899 0.0
O133 O 0.66475 0.3674 0.65629 0.0
Mg134 Mg 0.62389 0.43119 0.76748 0.0
O135 O 0.66585 0.50667 0.73264 0.0
O136 O 0.69661 0.37659 0.8075 0.0
O137 O 0.57577 0.39984 0.68615 0.0
O138 O 0.59445 0.51625 0.802 0.0
C139 C 0.83756 0.54218 0.63454 0.0
C140 C 0.70159 0.56443 0.54285 0.0
C141 C 0.76993 0.37619 0.54564 0.0
C142 C 0.75469 0.37182 0.79692 0.0
C143 C 0.60748 0.35473 0.66808 0.0
C144 C 0.61487 0.53422 0.74852 0.0
O145 O 0.81107 0.51205 0.59331 0.0
O146 O 0.81217 0.53823 0.68751 0.0
O147 O 0.75703 0.43789 0.00434 0.0
Mg148 Mg 0.67044 0.4843 0.00513 0.0
O149 O 0.76581 0.41424 0.1015 0.0
Mg150 Mg 0.72799 0.50033 0.16614 0.0
O151 O 0.67541 0.5448 0.08097 0.0
O152 O 0.69738 0.57533 -0.0139 0.0
O153 O 0.68106 0.5649 0.24832 0.0
O154 O 0.7973 0.59299 0.15632 0.0
Mg155 Mg 0.83536 0.52685 0.27062 0.0
O156 O 0.79265 0.45368 0.23283 0.0
O157 O 0.7623 0.58052 0.31061 0.0
O158 O 0.88485 0.56015 0.19064 0.0
O159 O 0.86361 0.43985 0.3018 0.0
C160 C 0.61946 0.4223 0.13405 0.0
C161 C 0.75829 0.39544 0.04532 0.0
C162 C 0.6952 0.58751 0.04428 0.0
C163 C 0.70507 0.58895 0.29794 0.0
C164 C 0.85416 0.60514 0.17009 0.0
C165 C 0.84273 0.42405 0.24807 0.0
O166 O 0.64658 0.45031 0.09132 0.0
O167 O 0.64503 0.42682 0.18688 0.0
O168 O 0.45749 0.20336 0.93873 0.0
Mg169 Mg 0.4556 0.29027 -0.01575 0.0
O170 O 0.3607 0.19209 0.91528 0.0
Mg171 Mg 0.2948 0.2309 0.00031 0.0
O172 O 0.37952 0.28429 0.0446 0.0
O173 O 0.47424 0.26341 0.07542 0.0
O174 O 0.21216 0.27818 0.06353 0.0
O175 O 0.30464 0.16292 0.09419 0.0
Mg176 Mg 0.19359 0.12353 0.03023 0.0
O177 O 0.22738 0.16604 0.95452 0.0
O178 O 0.15328 0.19556 0.08525 0.0
O179 O 0.27479 0.07445 0.06083 0.0
O180 O 0.15801 0.09416 0.94569 0.0
C181 C 0.32682 0.33878 0.92097 0.0
C182 C 0.41674 0.20124 0.89634 0.0
C183 C 0.41599 0.26473 0.08741 0.0
C184 C 0.16399 0.25362 0.0902 0.0
C185 C 0.29315 0.10549 0.10625 0.0
C186 C 0.21132 0.11472 0.92749 0.0
O187 O 0.36938 0.31248 0.94968 0.0
O188 O 0.27423 0.31268 0.92561 0.0
O189 O 0.95589 0.25852 0.02219 0.0
Mg190 Mg 0.95449 0.17269 0.97472 0.0
O191 O 0.85886 0.26651 0.04585 0.0
Mg192 Mg 0.79406 0.22979 0.95917 0.0
O193 O 0.87858 0.17757 0.91443 0.0
O194 O 0.97294 0.20061 0.88376 0.0
O195 O 0.71209 0.18276 0.89484 0.0
O196 O 0.80429 0.29888 0.86648 0.0
Mg197 Mg 0.69006 0.33692 0.93155 0.0
O198 O 0.72674 0.29405 0.00545 0.0
O199 O 0.65022 0.26395 0.87758 0.0
O200 O 0.77077 0.38624 0.89966 0.0
O201 O 0.65724 0.36478 0.01791 0.0
C202 C 0.82531 0.12015 0.03713 0.0
C203 C 0.91506 0.25878 0.06461 0.0
C204 C 0.91484 0.19756 0.87149 0.0
C205 C 0.66267 0.20657 0.87021 0.0
C206 C 0.79088 0.35583 0.8545 0.0
C207 C 0.711 0.34435 0.03429 0.0
O208 O 0.86933 0.14628 0.01017 0.0
O209 O 0.77321 0.14699 0.03208 0.0
O210 O 0.6848 0.57605 0.40047 0.0
Mg211 Mg 0.76559 0.62622 0.4308 0.0
O212 O 0.65628 0.66424 0.36531 0.0
Mg213 Mg 0.66456 0.73144 0.45948 0.0
O214 O 0.73248 0.66791 0.50678 0.0
O215 O 0.80228 0.59647 0.51522 0.0
O216 O 0.68341 0.81222 0.5348 0.0
O217 O 0.59743 0.6914 0.54426 0.0
Mg218 Mg 0.50287 0.78734 0.47338 0.0
O219 O 0.57995 0.7834 0.41431 0.0
O220 O 0.58856 0.81089 0.50954 0.0
O221 O 0.50044 0.70086 0.5207 0.0
O222 O 0.48682 0.7579 0.38265 0.0
C223 C 0.79507 0.75602 0.36859 0.0
C224 C 0.66751 0.60678 0.35419 0.0
C225 C 0.74871 0.61612 0.53322 0.0
C226 C 0.63024 0.83662 0.54007 0.0
C227 C 0.54123 0.70001 0.56309 0.0
C228 C 0.545 0.76251 0.37104 0.0
O229 O 0.8059 0.69803 0.37412 0.0
O230 O 0.74724 0.78015 0.39589 0.0
O231 O 0.18567 0.88505 0.56186 0.0
Mg232 Mg 0.26565 0.83453 0.53084 0.0
O233 O 0.15521 0.79646 0.59518 0.0
Mg234 Mg 0.16421 0.72937 0.50101 0.0
O235 O 0.23245 0.79312 0.45459 0.0
O236 O 0.30173 0.86527 0.44664 0.0
O237 O 0.18425 0.64889 0.42556 0.0
O238 O 0.09789 0.76958 0.41603 0.0
Mg239 Mg 0.00257 0.67146 0.48548 0.0
O240 O 0.07866 0.67694 0.54528 0.0
O241 O 0.08986 0.65054 0.45181 0.0
O242 O 0.00088 0.75866 0.43926 0.0
O243 O -0.01549 0.6999 0.57616 0.0
C244 C 0.2942 0.70427 0.59182 0.0
C245 C 0.16702 0.85369 0.60732 0.0
C246 C 0.24851 0.84499 0.42816 0.0
C247 C 0.13096 0.62455 0.42081 0.0
C248 C 0.04189 0.76013 0.39701 0.0
C249 C 0.04276 0.69756 0.58792 0.0
O250 O 0.30562 0.76222 0.58658 0.0
O251 O 0.24608 0.68048 0.56469 0.0
O252 O 0.00161 0.50951 0.71184 0.0
Mg253 Mg 0.00743 0.5663 0.63304 0.0
O254 O 0.02657 0.58743 0.7714 0.0
Mg255 Mg 0.9483 0.66274 0.74213 0.0
O256 O 0.92521 0.60675 0.65912 0.0
O257 O 0.92971 0.55007 0.57533 0.0
O258 O 0.88583 0.73983 0.69502 0.0
O259 O 0.85228 0.64118 0.79966 0.0
Mg260 Mg 0.92353 0.77272 0.85019 0.0
O261 O 0.97934 0.70327 0.829 0.0
O262 O 0.87682 0.80964 0.76833 0.0
O263 O 0.89207 0.68344 0.88204 0.0
O264 O 0.02146 0.78971 0.84865 0.0
C265 C 0.06157 0.69071 0.65135 0.0
C266 C 0.04129 0.53543 0.74627 0.0
C267 C 0.89706 0.57208 0.6203 0.0
C268 C 0.86512 0.7919 0.7131 0.0
C269 C 0.84402 0.66718 0.85324 0.0
C270 C 0.0254 0.7303 0.85328 0.0
O271 O 0.07609 0.63558 0.66182 0.0
O272 O 0.0262 0.71613 0.69055 0.0
O273 O 0.45601 0.45017 0.21608 0.0
Mg274 Mg 0.44952 0.3966 0.13568 0.0
O275 O 0.43367 0.36951 0.27385 0.0
Mg276 Mg 0.5113 0.29639 0.24095 0.0
O277 O 0.53257 0.35604 0.15905 0.0
O278 O 0.52597 0.41609 0.07706 0.0
O279 O 0.57329 0.21909 0.19232 0.0
O280 O 0.60666 0.31994 0.29719 0.0
Mg281 Mg 0.5399 0.18698 0.35033 0.0
O282 O 0.4822 0.25404 0.32751 0.0
O283 O 0.58354 0.15043 0.26735 0.0
O284 O 0.57131 0.27629 0.38173 0.0
O285 O 0.4421 0.16836 0.35251 0.0
C286 C 0.39712 0.27038 0.15098 0.0
C287 C 0.41801 0.42256 0.25144 0.0
C288 C 0.5596 0.39276 0.12079 0.0
C289 C 0.59409 0.16708 0.21139 0.0
C290 C 0.61752 0.2954 0.35121 0.0
C291 C 0.43622 0.22774 0.35295 0.0
O292 O 0.382 0.32514 0.16218 0.0
O293 O 0.43264 0.24435 0.18985 0.0
O294 O 0.48793 0.95199 0.25185 0.0
Mg295 Mg 0.50075 0.89397 0.32962 0.0
O296 O 0.525 0.87997 0.19249 0.0
Mg297 Mg 0.44861 0.79915 0.2178 0.0
O298 O 0.42178 0.85006 0.30307 0.0
O299 O 0.42439 0.90261 0.38993 0.0
O300 O 0.38878 0.71896 0.26303 0.0
O301 O 0.35141 0.8186 0.16156 0.0
Mg302 Mg 0.42394 0.69095 0.10891 0.0
O303 O 0.48082 0.76146 0.12921 0.0
O304 O 0.37605 0.6508 0.18889 0.0
O305 O 0.39065 0.77921 0.07749 0.0
O306 O 0.52111 0.67328 0.1116 0.0
C307 C 0.56305 0.77381 0.30794 0.0
C308 C 0.53332 0.93159 0.22126 0.0
C309 C 0.39286 0.88292 0.343 0.0
C310 C 0.36617 0.66777 0.24466 0.0
C311 C 0.34279 0.79384 0.10744 0.0
C312 C 0.52561 0.73244 0.10484 0.0
O313 O 0.57449 0.83033 0.30047 0.0
O314 O 0.52874 0.74828 0.26777 0.0
O315 O 0.9585 0.00925 0.74849 0.0
Mg316 Mg 0.95102 0.06446 0.82754 0.0
O317 O 0.9365 0.08746 0.68739 0.0
Mg318 Mg 0.01237 0.16255 0.71908 0.0
O319 O 0.03379 0.10552 0.80279 0.0
O320 O 0.0278 0.04764 0.88635 0.0
O321 O 0.07372 0.24112 0.7659 0.0
O322 O 0.10789 0.13961 0.66347 0.0
Mg323 Mg 0.03943 0.27125 0.60891 0.0
O324 O -0.01728 0.20239 0.63153 0.0
O325 O 0.08453 0.30945 0.69049 0.0
O326 O 0.07174 0.18212 0.57881 0.0
O327 O 0.94127 0.28803 0.60964 0.0
C328 C 0.89696 0.18913 0.80799 0.0
C329 C 0.92081 0.03526 0.71183 0.0
C330 C 0.06114 0.06989 0.84167 0.0
C331 C 0.09494 0.29291 0.74647 0.0
C332 C 0.11823 0.16415 0.60933 0.0
C333 C 0.93602 0.22864 0.60775 0.0
O334 O 0.88266 0.13366 0.79869 0.0
O335 O 0.93274 0.21441 0.76865 0.0
O336 O 0.70765 -0.01486 0.50702 0.0
Mg337 Mg 0.63012 -0.00063 0.56451 0.0
O338 O 0.76681 0.02392 0.5784 0.0
Mg339 Mg 0.74141 0.94878 0.66027 0.0
O340 O 0.65619 0.92035 0.60856 0.0
O341 O 0.5681 0.92475 0.55724 0.0
O342 O 0.69606 0.89078 0.74136 0.0
O343 O 0.79789 0.85127 0.64277 0.0
Mg344 Mg 0.85044 0.92364 0.7683 0.0
O345 O 0.82983 -0.01796 0.69857 0.0
O346 O 0.77153 0.87397 0.80732 0.0
O347 O 0.88276 0.89052 0.68091 0.0
O348 O 0.84686 0.02018 0.78841 0.0
C349 C 0.65145 0.06413 0.68375 0.0
C350 C 0.73795 0.03111 0.52656 0.0
C351 C 0.61521 0.89258 0.57564 0.0
C352 C 0.71514 0.86618 0.79149 0.0
C353 C 0.85239 0.84271 0.66689 0.0
C354 C 0.85461 0.02546 0.7294 0.0
O355 O 0.65771 0.0746 0.62681 0.0
O356 O 0.69153 0.0296 0.70928 0.0
O357 O 0.73903 0.95681 0.01092 0.0
Mg358 Mg 0.82023 0.9516 0.06344 0.0
O359 O 0.68753 0.92758 0.09334 0.0
Mg360 Mg 0.72056 0.00484 0.16839 0.0
O361 O 0.79755 0.03437 0.10409 0.0
O362 O 0.87986 0.02554 0.0437 0.0
O363 O 0.77381 0.06231 0.24491 0.0
O364 O 0.66299 0.10288 0.14919 0.0
Mg365 Mg 0.61965 0.04323 0.26498 0.0
O366 O 0.63998 0.96638 0.22124 0.0
O367 O 0.6975 0.09493 0.30243 0.0
O368 O 0.57427 0.06907 0.18135 0.0
O369 O 0.58901 0.96424 0.30959 0.0
C370 C 0.81434 0.89368 0.18767 0.0
C371 C 0.70834 0.91515 0.03873 0.0
C372 C 0.83657 0.05985 0.06666 0.0
C373 C 0.7552 0.09471 0.29031 0.0
C374 C 0.60691 0.11506 0.16675 0.0
C375 C 0.59419 0.94453 0.25307 0.0
O376 O 0.80077 0.87998 0.13316 0.0
O377 O 0.77654 0.92782 0.21608 0.0
O378 O 0.20744 0.47324 0.45322 0.0
Mg379 Mg 0.12967 0.46111 0.39583 0.0
O380 O 0.2664 0.43661 0.38045 0.0
Mg381 Mg 0.2407 0.51224 0.29947 0.0
O382 O 0.15615 0.54074 0.3523 0.0
O383 O 0.06856 0.53611 0.40464 0.0
O384 O 0.19543 0.57097 0.21841 0.0
O385 O 0.29897 0.60891 0.31578 0.0
Mg386 Mg 0.34984 0.5336 0.18963 0.0
O387 O 0.32846 0.47837 0.26144 0.0
O388 O 0.27069 0.58181 0.15061 0.0
O389 O 0.38276 0.56875 0.27592 0.0
O390 O 0.34477 0.43587 0.17408 0.0
C391 C 0.14987 0.39728 0.27578 0.0
C392 C 0.23795 0.42805 0.4324 0.0
C393 C 0.11552 0.56842 0.38565 0.0
C394 C 0.21484 0.59234 0.16681 0.0
C395 C 0.35316 0.61677 0.2905 0.0
C396 C 0.35201 0.43269 0.23324 0.0
O397 O 0.15641 0.38658 0.33259 0.0
O398 O 0.18945 0.43252 0.25017 0.0
O399 O 0.24597 0.50179 0.95034 0.0
Mg400 Mg 0.32533 0.50792 0.89485 0.0
O401 O 0.18925 0.52831 0.8706 0.0
Mg402 Mg 0.21928 0.45002 0.79555 0.0
O403 O 0.30067 0.42523 0.85466 0.0
O404 O 0.38416 0.43202 0.91248 0.0
O405 O 0.26798 0.38895 0.71817 0.0
O406 O 0.16103 0.35381 0.81602 0.0
Mg407 Mg 0.11106 0.42391 0.68522 0.0
O408 O 0.13304 0.48158 0.75266 0.0
O409 O 0.19328 0.37843 0.65 0.0
O410 O 0.07788 0.39258 0.77381 0.0
O411 O 0.11035 0.5212 0.66504 0.0
C412 C 0.31072 0.56328 0.77025 0.0
C413 C 0.213 0.54222 0.92359 0.0
C414 C 0.3398 0.3984 0.89047 0.0
C415 C 0.24906 0.36784 0.66648 0.0
C416 C 0.10711 0.34497 0.79081 0.0
C417 C 0.1066 0.52596 0.72448 0.0
O418 O 0.29925 0.57754 0.82517 0.0
O419 O 0.272 0.52813 0.74382 0.0
O420 O 0.50959 0.71677 0.00045 0.0
Mg421 Mg 0.56357 0.63669 0.00772 0.0
O422 O 0.58942 0.77461 0.02422 0.0
Mg423 Mg 0.66371 0.74215 0.94762 0.0
O424 O 0.60461 0.66039 0.9246 0.0
O425 O 0.54623 0.57717 0.93233 0.0
O426 O 0.74076 0.69396 0.8862 0.0
O427 O 0.64426 0.8006 0.8519 0.0
Mg428 Mg 0.77571 0.85002 0.92286 0.0
O429 O 0.70643 0.82741 0.97851 0.0
O430 O 0.8105 0.76796 0.87624 0.0
O431 O 0.68764 0.88303 0.8912 0.0
O432 O 0.79162 0.84905 0.02118 0.0
C433 C 0.68841 0.65105 0.06234 0.0
C434 C 0.53636 0.75168 0.03905 0.0
C435 C 0.56882 0.62113 0.89818 0.0
C436 C 0.79283 0.71255 0.8652 0.0
C437 C 0.67061 0.85418 0.84349 0.0
C438 C 0.73212 0.85123 0.02543 0.0
O439 O 0.63333 0.6618 0.07683 0.0
O440 O 0.71444 0.68974 0.0264 0.0
O441 O 0.01001 0.74192 0.95832 0.0
Mg442 Mg 0.06398 0.82243 0.95188 0.0
O443 O 0.09018 0.68588 0.93236 0.0
Mg444 Mg 0.16437 0.71712 0.01061 0.0
O445 O 0.10522 0.79811 0.03441 0.0
O446 O 0.0464 0.88075 0.02819 0.0
O447 O 0.2406 0.76558 0.0728 0.0
O448 O 0.14416 0.65802 0.10633 0.0
Mg449 Mg 0.27642 0.61018 0.03714 0.0
O450 O 0.2086 0.63239 0.97987 0.0
O451 O 0.31029 0.69232 0.08497 0.0
O452 O 0.18775 0.57614 0.06684 0.0
O453 O 0.29516 0.61028 0.93928 0.0
C454 C 0.18898 0.80963 0.89726 0.0
C455 C 0.03687 0.7087 0.91839 0.0
C456 C 0.06967 0.8368 0.06169 0.0
C457 C 0.29213 0.74765 0.09526 0.0
C458 C 0.17044 0.60452 0.11468 0.0
C459 C 0.23569 0.6071 0.93446 0.0
O460 O 0.13412 0.79811 0.88257 0.0
O461 O 0.21541 0.77079 0.93255 0.0
O462 O 0.4491 0.22273 0.45875 0.0
Mg463 Mg 0.39574 0.14193 0.45272 0.0
O464 O 0.3676 0.27394 0.42772 0.0
Mg465 Mg 0.29206 0.24142 0.50537 0.0
O466 O 0.35513 0.16418 0.53549 0.0
O467 O 0.41357 0.08056 0.5251 0.0
O468 O 0.21618 0.18962 0.56477 0.0
O469 O 0.31201 0.29936 0.60261 0.0
Mg470 Mg 0.19489 0.34198 0.54431 0.0
O471 O 0.23854 0.32142 0.46718 0.0
O472 O 0.15762 0.26481 0.59845 0.0
O473 O 0.27907 0.38744 0.56814 0.0
O474 O 0.14991 0.37162 0.46544 0.0
C475 C 0.27281 0.14702 0.39408 0.0
C476 C 0.42225 0.25287 0.41624 0.0
C477 C 0.39182 0.12407 0.55995 0.0
C478 C 0.17114 0.20741 0.59822 0.0
C479 C 0.29385 0.35525 0.61438 0.0
C480 C 0.20644 0.36694 0.44545 0.0
O481 O 0.32747 0.16029 0.38007 0.0
O482 O 0.24474 0.18482 0.42861 0.0
O483 O 0.94899 0.23517 0.50211 0.0
Mg484 Mg 0.89814 0.31744 0.50821 0.0
O485 O 0.86634 0.18493 0.53258 0.0
Mg486 Mg 0.79207 0.21842 0.4547 0.0
O487 O 0.85643 0.29551 0.42602 0.0
O488 O 0.91771 0.37724 0.43422 0.0
O489 O 0.71625 0.27048 0.39478 0.0
O490 O 0.81473 0.16132 0.35828 0.0
Mg491 Mg 0.69507 0.11725 0.41312 0.0
O492 O 0.73749 0.13787 0.49118 0.0
O493 O 0.65733 0.19526 0.36111 0.0
O494 O 0.77936 0.07244 0.38907 0.0
O495 O 0.64988 0.08551 0.49108 0.0
C496 C 0.77374 0.31304 0.56597 0.0
C497 C 0.92142 0.20487 0.5442 0.0
C498 C 0.89385 0.33422 0.40014 0.0
C499 C 0.67085 0.25267 0.36163 0.0
C500 C 0.79722 0.10564 0.34456 0.0
C501 C 0.70586 0.09149 0.51218 0.0
O502 O 0.82836 0.29975 0.57994 0.0
O503 O 0.74525 0.2751 0.53176 0.0
loop_
_geom_bond_atom_site_label_1
_geom_bond_atom_site_label_2
_geom_bond_distance
_geom_bond_site_symmetry_2
_ccdc_geom_bond_type
O0 Mg1 1.990 . S
O0 C14 1.253 . S
Mg1 O0 1.990 . S
Mg1 O4 2.180 1_655 S
Mg1 O5 2.117 1_655 S
Mg1 O19 2.030 . S
O2 Mg3 2.072 1_655 S
O2 C14 1.260 . S
Mg3 O2 2.072 1_455 S
Mg3 O4 2.099 . S
Mg3 O6 2.079 . S
Mg3 O7 2.072 . S
Mg3 O9 2.099 1_455 S
Mg3 O20 2.079 1_455 S
O4 Mg1 2.180 1_455 S
O4 Mg3 2.099 . S
O4 C15 1.279 . S
O5 Mg1 2.117 1_455 S
O5 C15 1.250 . S
O6 Mg3 2.079 . S
O6 C16 1.264 . S
O7 Mg3 2.072 . S
O7 C17 1.260 . S
Mg8 O9 2.180 1_455 S
Mg8 O10 2.030 . S
Mg8 O11 1.990 . S
Mg8 O12 2.117 1_455 S
O9 Mg3 2.099 1_655 S
O9 Mg8 2.180 1_655 S
O9 C18 1.279 . S
O10 Mg8 2.030 . S
O10 C16 1.248 . S
O11 Mg8 1.990 . S
O11 C17 1.253 . S
O12 Mg8 2.117 1_655 S
O12 C18 1.250 . S
C13 O19 1.248 . S
C13 O20 1.264 . S
C14 O0 1.253 . S
C14 O2 1.260 . S
C15 O4 1.279 . S
C15 O5 1.250 . S
C16 O6 1.264 . S
C16 O10 1.248 . S
C17 O7 1.260 . S
C17 O11 1.253 . S
C18 O9 1.279 . S
C18 O12 1.250 . S
O19 Mg1 2.030 . S
O19 C13 1.248 . S
O20 Mg3 2.079 1_655 S
O20 C13 1.264 . S
O21 Mg22 1.990 . S
O21 C35 1.253 . S
Mg22 O21 1.990 . S
Mg22 O25 2.180 . S
Mg22 O26 2.117 . S
Mg22 O40 2.030 . S
O23 Mg24 2.072 . S
O23 C35 1.260 . S
Mg24 O23 2.072 . S
Mg24 O25 2.099 . S
Mg24 O27 2.079 . S
Mg24 O28 2.072 . S
Mg24 O30 2.099 . S
Mg24 O41 2.079 . S
O25 Mg22 2.180 . S
O25 Mg24 2.099 . S
O25 C36 1.279 . S
O26 Mg22 2.117 . S
O26 C36 1.250 . S
O27 Mg24 2.079 . S
O27 C37 1.264 . S
O28 Mg24 2.072 . S
O28 C38 1.260 . S
Mg29 O30 2.180 . S
Mg29 O31 2.030 . S
Mg29 O32 1.990 . S
Mg29 O33 2.117 . S
O30 Mg24 2.099 . S
O30 Mg29 2.180 . S
O30 C39 1.279 . S
O31 Mg29 2.030 . S
O31 C37 1.248 . S
O32 Mg29 1.990 . S
O32 C38 1.253 . S
O33 Mg29 2.117 . S
O33 C39 1.250 . S
C34 O40 1.248 . S
C34 O41 1.264 . S
C35 O21 1.253 . S
C35 O23 1.260 . S
C36 O25 1.279 . S
C36 O26 1.250 . S
C37 O27 1.264 . S
C37 O31 1.248 . S
C38 O28 1.260 . S
C38 O32 1.253 . S
C39 O30 1.279 . S
C39 O33 1.250 . S
O40 Mg22 2.030 . S
O40 C34 1.248 . S
O41 Mg24 2.079 . S
O41 C34 1.264 . S
O42 Mg43 1.990 . S
O42 C56 1.253 . S
Mg43 O42 1.990 . S
Mg43 O46 2.180 . S
Mg43 O47 2.117 . S
Mg43 O61 2.030 . S
O44 Mg45 2.072 . S
O44 C56 1.260 . S
Mg45 O44 2.072 . S
Mg45 O46 2.099 . S
Mg45 O48 2.079 . S
Mg45 O49 2.072 . S
Mg45 O51 2.099 . S
Mg45 O62 2.079 . S
O46 Mg43 2.180 . S
O46 Mg45 2.099 . S
O46 C57 1.279 . S
O47 Mg43 2.117 . S
O47 C57 1.250 . S
O48 Mg45 2.079 . S
O48 C58 1.264 . S
O49 Mg45 2.072 . S
O49 C59 1.260 . S
Mg50 O51 2.180 . S
Mg50 O52 2.030 . S
Mg50 O53 1.990 . S
Mg50 O54 2.117 . S
O51 Mg45 2.099 . S
O51 Mg50 2.180 . S
O51 C60 1.279 . S
O52 Mg50 2.030 . S
O52 C58 1.248 . S
O53 Mg50 1.990 . S
O53 C59 1.253 . S
O54 Mg50 2.117 . S
O54 C60 1.250 . S
C55 O61 1.248 . S
C55 O62 1.264 . S
C56 O42 1.253 . S
C56 O44 1.260 . S
C57 O46 1.279 . S
C57 O47 1.250 . S
C58 O48 1.264 . S
C58 O52 1.248 . S
C59 O49 1.260 . S
C59 O53 1.253 . S
C60 O51 1.279 . S
C60 O54 1.250 . S
O61 Mg43 2.030 . S
O61 C55 1.248 . S
O62 Mg45 2.079 . S
O62 C55 1.264 . S
O63 Mg64 1.990 . S
O63 C77 1.253 . S
Mg64 O63 1.990 . S
Mg64 O67 2.180 1_455 S
Mg64 O68 2.117 1_455 S
Mg64 O82 2.030 . S
O65 Mg66 2.072 1_455 S
O65 C77 1.260 . S
Mg66 O65 2.072 1_655 S
Mg66 O67 2.099 . S
Mg66 O69 2.079 . S
Mg66 O70 2.072 . S
Mg66 O72 2.099 1_655 S
Mg66 O83 2.079 1_655 S
O67 Mg64 2.180 1_655 S
O67 Mg66 2.099 . S
O67 C78 1.279 . S
O68 Mg64 2.117 1_655 S
O68 C78 1.250 . S
O69 Mg66 2.079 . S
O69 C79 1.264 . S
O70 Mg66 2.072 . S
O70 C80 1.260 . S
Mg71 O72 2.180 1_655 S
Mg71 O73 2.030 . S
Mg71 O74 1.990 . S
Mg71 O75 2.117 1_655 S
O72 Mg66 2.099 1_455 S
O72 Mg71 2.180 1_455 S
O72 C81 1.279 . S
O73 Mg71 2.030 . S
O73 C79 1.248 . S
O74 Mg71 1.990 . S
O74 C80 1.253 . S
O75 Mg71 2.117 1_455 S
O75 C81 1.250 . S
C76 O82 1.248 . S
C76 O83 1.264 . S
C77 O63 1.253 . S
C77 O65 1.260 . S
C78 O67 1.279 . S
C78 O68 1.250 . S
C79 O69 1.264 . S
C79 O73 1.248 . S
C80 O70 1.260 . S
C80 O74 1.253 . S
C81 O72 1.279 . S
C81 O75 1.250 . S
O82 Mg64 2.030 . S
O82 C76 1.248 . S
O83 Mg66 2.079 1_455 S
O83 C76 1.264 . S
O84 Mg85 1.990 . S
O84 C98 1.253 . S
Mg85 O84 1.990 . S
Mg85 O88 2.180 1_565 S
Mg85 O89 2.117 1_565 S
Mg85 O103 2.030 . S
O86 Mg87 2.072 1_565 S
O86 C98 1.260 . S
Mg87 O86 2.072 1_545 S
Mg87 O88 2.099 . S
Mg87 O90 2.079 . S
Mg87 O91 2.072 . S
Mg87 O93 2.099 1_545 S
Mg87 O104 2.079 1_545 S
O88 Mg85 2.180 1_545 S
O88 Mg87 2.099 . S
O88 C99 1.279 . S
O89 Mg85 2.117 1_545 S
O89 C99 1.250 . S
O90 Mg87 2.079 . S
O90 C100 1.264 . S
O91 Mg87 2.072 . S
O91 C101 1.260 . S
Mg92 O93 2.180 1_545 S
Mg92 O94 2.030 . S
Mg92 O95 1.990 . S
Mg92 O96 2.117 1_545 S
O93 Mg87 2.099 1_565 S
O93 Mg92 2.180 1_565 S
O93 C102 1.279 . S
O94 Mg92 2.030 . S
O94 C100 1.248 . S
O95 Mg92 1.990 . S
O95 C101 1.253 . S
O96 Mg92 2.117 1_565 S
O96 C102 1.250 . S
C97 O103 1.248 . S
C97 O104 1.264 . S
C98 O84 1.253 . S
C98 O86 1.260 . S
C99 O88 1.279 . S
C99 O89 1.250 . S
C100 O90 1.264 . S
C100 O94 1.248 . S
C101 O91 1.260 . S
C101 O95 1.253 . S
C102 O93 1.279 . S
C102 O96 1.250 . S
O103 Mg85 2.030 . S
O103 C97 1.248 . S
O104 Mg87 2.079 1_565 S
O104 C97 1.264 . S
O105 Mg106 1.990 . S
O105 C119 1.253 . S
Mg106 O105 1.990 . S
Mg106 O109 2.180 1_565 S
Mg106 O110 2.117 1_565 S
Mg106 O124 2.030 . S
O107 Mg108 2.072 . S
O107 C119 1.260 . S
Mg108 O107 2.072 . S
Mg108 O109 2.099 1_565 S
Mg108 O111 2.079 1_565 S
Mg108 O112 2.072 1_565 S
Mg108 O114 2.099 . S
Mg108 O125 2.079 . S
O109 Mg106 2.180 1_545 S
O109 Mg108 2.099 1_545 S
O109 C120 1.279 . S
O110 Mg106 2.117 1_545 S
O110 C120 1.250 . S
O111 Mg108 2.079 1_545 S
O111 C121 1.264 . S
O112 Mg108 2.072 1_545 S
O112 C122 1.260 . S
Mg113 O114 2.180 1_545 S
Mg113 O115 2.030 . S
Mg113 O116 1.990 . S
Mg113 O117 2.117 1_545 S
O114 Mg108 2.099 . S
O114 Mg113 2.180 1_565 S
O114 C123 1.279 . S
O115 Mg113 2.030 . S
O115 C121 1.248 . S
O116 Mg113 1.990 . S
O116 C122 1.253 . S
O117 Mg113 2.117 1_565 S
O117 C123 1.250 . S
C118 O124 1.248 . S
C118 O125 1.264 . S
C119 O105 1.253 . S
C119 O107 1.260 . S
C120 O109 1.279 . S
C120 O110 1.250 . S
C121 O111 1.264 . S
C121 O115 1.248 . S
C122 O112 1.260 . S
C122 O116 1.253 . S
C123 O114 1.279 . S
C123 O117 1.250 . S
O124 Mg106 2.030 . S
O124 C118 1.248 . S
O125 Mg108 2.079 . S
O125 C118 1.264 . S
O126 Mg127 1.990 . S
O126 C140 1.253 . S
Mg127 O126 1.990 . S
Mg127 O130 2.180 . S
Mg127 O131 2.117 . S
Mg127 O145 2.030 . S
O128 Mg129 2.072 . S
O128 C140 1.260 . S
Mg129 O128 2.072 . S
Mg129 O130 2.099 . S
Mg129 O132 2.079 . S
Mg129 O133 2.072 . S
Mg129 O135 2.099 . S
Mg129 O146 2.079 . S
O130 Mg127 2.180 . S
O130 Mg129 2.099 . S
O130 C141 1.279 . S
O131 Mg127 2.117 . S
O131 C141 1.250 . S
O132 Mg129 2.079 . S
O132 C142 1.264 . S
O133 Mg129 2.072 . S
O133 C143 1.260 . S
Mg134 O135 2.180 . S
Mg134 O136 2.030 . S
Mg134 O137 1.990 . S
Mg134 O138 2.117 . S
O135 Mg129 2.099 . S
O135 Mg134 2.180 . S
O135 C144 1.279 . S
O136 Mg134 2.030 . S
O136 C142 1.248 . S
O137 Mg134 1.990 . S
O137 C143 1.253 . S
O138 Mg134 2.117 . S
O138 C144 1.250 . S
C139 O145 1.248 . S
C139 O146 1.264 . S
C140 O126 1.253 . S
C140 O128 1.260 . S
C141 O130 1.279 . S
C141 O131 1.250 . S
C142 O132 1.264 . S
C142 O136 1.248 . S
C143 O133 1.260 . S
C143 O137 1.253 . S
C144 O135 1.279 . S
C144 O138 1.250 . S
O145 Mg127 2.030 . S
O145 C139 1.248 . S
O146 Mg129 2.079 . S
O146 C139 1.264 . S
O147 Mg148 1.990 . S
O147 C161 1.253 . S
Mg148 O147 1.990 . S
Mg148 O151 2.180 . S
Mg148 O152 2.117 . S
Mg148 O166 2.030 . S
O149 Mg150 2.072 . S
O149 C161 1.260 . S
Mg150 O149 2.072 . S
Mg150 O151 2.099 . S
Mg150 O153 2.079 . S
Mg150 O154 2.072 . S
Mg150 O156 2.099 . S
Mg150 O167 2.079 . S
O151 Mg148 2.180 . S
O151 Mg150 2.099 . S
O151 C162 1.279 . S
O152 Mg148 2.117 . S
O152 C162 1.250 . S
O153 Mg150 2.079 . S
O153 C163 1.264 . S
O154 Mg150 2.072 . S
O154 C164 1.260 . S
Mg155 O156 2.180 . S
Mg155 O157 2.030 . S
Mg155 O158 1.990 . S
Mg155 O159 2.117 . S
O156 Mg150 2.099 . S
O156 Mg155 2.180 . S
O156 C165 1.279 . S
O157 Mg155 2.030 . S
O157 C163 1.248 . S
O158 Mg155 1.990 . S
O158 C164 1.253 . S
O159 Mg155 2.117 . S
O159 C165 1.250 . S
C160 O166 1.248 . S
C160 O167 1.264 . S
C161 O147 1.253 . S
C161 O149 1.260 . S
C162 O151 1.279 . S
C162 O152 1.250 . S
C163 O153 1.264 . S
C163 O157 1.248 . S
C164 O154 1.260 . S
C164 O158 1.253 . S
C165 O156 1.279 . S
C165 O159 1.250 . S
O166 Mg148 2.030 . S
O166 C160 1.248 . S
O167 Mg150 2.079 . S
O167 C160 1.264 . S
O168 Mg169 1.990 . S
O168 C182 1.253 . S
Mg169 O168 1.990 . S
Mg169 O172 2.180 1_556 S
Mg169 O173 2.117 1_556 S
Mg169 O187 2.030 . S
O170 Mg171 2.072 1_556 S
O170 C182 1.260 . S
Mg171 O170 2.072 1_554 S
Mg171 O172 2.099 . S
Mg171 O174 2.079 . S
Mg171 O175 2.072 . S
Mg171 O177 2.099 1_554 S
Mg171 O188 2.079 1_554 S
O172 Mg169 2.180 1_554 S
O172 Mg171 2.099 . S
O172 C183 1.279 . S
O173 Mg169 2.117 1_554 S
O173 C183 1.250 . S
O174 Mg171 2.079 . S
O174 C184 1.264 . S
O175 Mg171 2.072 . S
O175 C185 1.260 . S
Mg176 O177 2.180 1_554 S
Mg176 O178 2.030 . S
Mg176 O179 1.990 . S
Mg176 O180 2.117 1_554 S
O177 Mg171 2.099 1_556 S
O177 Mg176 2.180 1_556 S
O177 C186 1.279 . S
O178 Mg176 2.030 . S
O178 C184 1.248 . S
O179 Mg176 1.990 . S
O179 C185 1.253 . S
O180 Mg176 2.117 1_556 S
O180 C186 1.250 . S
C181 O187 1.248 . S
C181 O188 1.264 . S
C182 O168 1.253 . S
C182 O170 1.260 . S
C183 O172 1.279 . S
C183 O173 1.250 . S
C184 O174 1.264 . S
C184 O178 1.248 . S
C185 O175 1.260 . S
C185 O179 1.253 . S
C186 O177 1.279 . S
C186 O180 1.250 . S
O187 Mg169 2.030 . S
O187 C181 1.248 . S
O188 Mg171 2.079 1_556 S
O188 C181 1.264 . S
O189 Mg190 1.990 . S
O189 C203 1.253 . S
Mg190 O189 1.990 . S
Mg190 O193 2.180 1_554 S
Mg190 O194 2.117 1_554 S
Mg190 O208 2.030 . S
O191 Mg192 2.072 1_554 S
O191 C203 1.260 . S
Mg192 O191 2.072 1_556 S
Mg192 O193 2.099 . S
Mg192 O195 2.079 . S
Mg192 O196 2.072 . S
Mg192 O198 2.099 1_556 S
Mg192 O209 2.079 1_556 S
O193 Mg190 2.180 1_556 S
O193 Mg192 2.099 . S
O193 C204 1.279 . S
O194 Mg190 2.117 1_556 S
O194 C204 1.250 . S
O195 Mg192 2.079 . S
O195 C205 1.264 . S
O196 Mg192 2.072 . S
O196 C206 1.260 . S
Mg197 O198 2.180 1_556 S
Mg197 O199 2.030 . S
Mg197 O200 1.990 . S
Mg197 O201 2.117 1_556 S
O198 Mg192 2.099 1_554 S
O198 Mg197 2.180 1_554 S
O198 C207 1.279 . S
O199 Mg197 2.030 . S
O199 C205 1.248 . S
O200 Mg197 1.990 . S
O200 C206 1.253 . S
O201 Mg197 2.117 1_554 S
O201 C207 1.250 . S
C202 O208 1.248 . S
C202 O209 1.264 . S
C203 O189 1.253 . S
C203 O191 1.260 . S
C204 O193 1.279 . S
C204 O194 1.250 . S
C205 O195 1.264 . S
C205 O199 1.248 . S
C206 O196 1.260 . S
C206 O200 1.253 . S
C207 O198 1.279 . S
C207 O201 1.250 . S
O208 Mg190 2.030 . S
O208 C202 1.248 . S
O209 Mg192 2.079 1_554 S
O209 C202 1.264 . S
O210 Mg211 1.990 . S
O210 C224 1.253 . S
Mg211 O210 1.990 . S
Mg211 O214 2.180 . S
Mg211 O215 2.117 . S
Mg211 O229 2.030 . S
O212 Mg213 2.072 . S
O212 C224 1.260 . S
Mg213 O212 2.072 . S
Mg213 O214 2.099 . S
Mg213 O216 2.079 . S
Mg213 O217 2.072 . S
Mg213 O219 2.099 . S
Mg213 O230 2.079 . S
O214 Mg211 2.180 . S
O214 Mg213 2.099 . S
O214 C225 1.279 . S
O215 Mg211 2.117 . S
O215 C225 1.250 . S
O216 Mg213 2.079 . S
O216 C226 1.264 . S
O217 Mg213 2.072 . S
O217 C227 1.260 . S
Mg218 O219 2.180 . S
Mg218 O220 2.030 . S
Mg218 O221 1.990 . S
Mg218 O222 2.117 . S
O219 Mg213 2.099 . S
O219 Mg218 2.180 . S
O219 C228 1.279 . S
O220 Mg218 2.030 . S
O220 C226 1.248 . S
O221 Mg218 1.990 . S
O221 C227 1.253 . S
O222 Mg218 2.117 . S
O222 C228 1.250 . S
C223 O229 1.248 . S
C223 O230 1.264 . S
C224 O210 1.253 . S
C224 O212 1.260 . S
C225 O214 1.279 . S
C225 O215 1.250 . S
C226 O216 1.264 . S
C226 O220 1.248 . S
C227 O217 1.260 . S
C227 O221 1.253 . S
C228 O219 1.279 . S
C228 O222 1.250 . S
O229 Mg211 2.030 . S
O229 C223 1.248 . S
O230 Mg213 2.079 . S
O230 C223 1.264 . S
O231 Mg232 1.990 . S
O231 C245 1.253 . S
Mg232 O231 1.990 . S
Mg232 O235 2.180 . S
Mg232 O236 2.117 . S
Mg232 O250 2.030 . S
O233 Mg234 2.072 . S
O233 C245 1.260 . S
Mg234 O233 2.072 . S
Mg234 O235 2.099 . S
Mg234 O237 2.079 . S
Mg234 O238 2.072 . S
Mg234 O240 2.099 . S
Mg234 O251 2.079 . S
O235 Mg232 2.180 . S
O235 Mg234 2.099 . S
O235 C246 1.279 . S
O236 Mg232 2.117 . S
O236 C246 1.250 . S
O237 Mg234 2.079 . S
O237 C247 1.264 . S
O238 Mg234 2.072 . S
O238 C248 1.260 . S
Mg239 O240 2.180 . S
Mg239 O241 2.030 . S
Mg239 O242 1.990 . S
Mg239 O243 2.117 . S
O240 Mg234 2.099 . S
O240 Mg239 2.180 . S
O240 C249 1.279 . S
O241 Mg239 2.030 . S
O241 C247 1.248 . S
O242 Mg239 1.990 . S
O242 C248 1.253 . S
O243 Mg239 2.117 . S
O243 C249 1.250 . S
C244 O250 1.248 . S
C244 O251 1.264 . S
C245 O231 1.253 . S
C245 O233 1.260 . S
C246 O235 1.279 . S
C246 O236 1.250 . S
C247 O237 1.264 . S
C247 O241 1.248 . S
C248 O238 1.260 . S
C248 O242 1.253 . S
C249 O240 1.279 . S
C249 O243 1.250 . S
O250 Mg232 2.030 . S
O250 C244 1.248 . S
O251 Mg234 2.079 . S
O251 C244 1.264 . S
O252 Mg253 1.990 . S
O252 C266 1.253 . S
Mg253 O252 1.990 . S
Mg253 O256 2.180 1_455 S
Mg253 O257 2.117 1_455 S
Mg253 O271 2.030 . S
O254 Mg255 2.072 1_455 S
O254 C266 1.260 . S
Mg255 O254 2.072 1_655 S
Mg255 O256 2.099 . S
Mg255 O258 2.079 . S
Mg255 O259 2.072 . S
Mg255 O261 2.099 1_655 S
Mg255 O272 2.079 1_655 S
O256 Mg253 2.180 1_655 S
O256 Mg255 2.099 . S
O256 C267 1.279 . S
O257 Mg253 2.117 1_655 S
O257 C267 1.250 . S
O258 Mg255 2.079 . S
O258 C268 1.264 . S
O259 Mg255 2.072 . S
O259 C269 1.260 . S
Mg260 O261 2.180 1_655 S
Mg260 O262 2.030 . S
Mg260 O263 1.990 . S
Mg260 O264 2.117 1_655 S
O261 Mg255 2.099 1_455 S
O261 Mg260 2.180 1_455 S
O261 C270 1.279 . S
O262 Mg260 2.030 . S
O262 C268 1.248 . S
O263 Mg260 1.990 . S
O263 C269 1.253 . S
O264 Mg260 2.117 1_455 S
O264 C270 1.250 . S
C265 O271 1.248 . S
C265 O272 1.264 . S
C266 O252 1.253 . S
C266 O254 1.260 . S
C267 O256 1.279 . S
C267 O257 1.250 . S
C268 O258 1.264 . S
C268 O262 1.248 . S
C269 O259 1.260 . S
C269 O263 1.253 . S
C270 O261 1.279 . S
C270 O264 1.250 . S
O271 Mg253 2.030 . S
O271 C265 1.248 . S
O272 Mg255 2.079 1_455 S
O272 C265 1.264 . S
O273 Mg274 1.990 . S
O273 C287 1.253 . S
Mg274 O273 1.990 . S
Mg274 O277 2.180 . S
Mg274 O278 2.117 . S
Mg274 O292 2.030 . S
O275 Mg276 2.072 . S
O275 C287 1.260 . S
Mg276 O275 2.072 . S
Mg276 O277 2.099 . S
Mg276 O279 2.079 . S
Mg276 O280 2.072 . S
Mg276 O282 2.099 . S
Mg276 O293 2.079 . S
O277 Mg274 2.180 . S
O277 Mg276 2.099 . S
O277 C288 1.279 . S
O278 Mg274 2.117 . S
O278 C288 1.250 . S
O279 Mg276 2.079 . S
O279 C289 1.264 . S
O280 Mg276 2.072 . S
O280 C290 1.260 . S
Mg281 O282 2.180 . S
Mg281 O283 2.030 . S
Mg281 O284 1.990 . S
Mg281 O285 2.117 . S
O282 Mg276 2.099 . S
O282 Mg281 2.180 . S
O282 C291 1.279 . S
O283 Mg281 2.030 . S
O283 C289 1.248 . S
O284 Mg281 1.990 . S
O284 C290 1.253 . S
O285 Mg281 2.117 . S
O285 C291 1.250 . S
C286 O292 1.248 . S
C286 O293 1.264 . S
C287 O273 1.253 . S
C287 O275 1.260 . S
C288 O277 1.279 . S
C288 O278 1.250 . S
C289 O279 1.264 . S
C289 O283 1.248 . S
C290 O280 1.260 . S
C290 O284 1.253 . S
C291 O282 1.279 . S
C291 O285 1.250 . S
O292 Mg274 2.030 . S
O292 C286 1.248 . S
O293 Mg276 2.079 . S
O293 C286 1.264 . S
O294 Mg295 1.990 . S
O294 C308 1.253 . S
Mg295 O294 1.990 . S
Mg295 O298 2.180 . S
Mg295 O299 2.117 . S
Mg295 O313 2.030 . S
O296 Mg297 2.072 . S
O296 C308 1.260 . S
Mg297 O296 2.072 . S
Mg297 O298 2.099 . S
Mg297 O300 2.079 . S
Mg297 O301 2.072 . S
Mg297 O303 2.099 . S
Mg297 O314 2.079 . S
O298 Mg295 2.180 . S
O298 Mg297 2.099 . S
O298 C309 1.279 . S
O299 Mg295 2.117 . S
O299 C309 1.250 . S
O300 Mg297 2.079 . S
O300 C310 1.264 . S
O301 Mg297 2.072 . S
O301 C311 1.260 . S
Mg302 O303 2.180 . S
Mg302 O304 2.030 . S
Mg302 O305 1.990 . S
Mg302 O306 2.117 . S
O303 Mg297 2.099 . S
O303 Mg302 2.180 . S
O303 C312 1.279 . S
O304 Mg302 2.030 . S
O304 C310 1.248 . S
O305 Mg302 1.990 . S
O305 C311 1.253 . S
O306 Mg302 2.117 . S
O306 C312 1.250 . S
C307 O313 1.248 . S
C307 O314 1.264 . S
C308 O294 1.253 . S
C308 O296 1.260 . S
C309 O298 1.279 . S
C309 O299 1.250 . S
C310 O300 1.264 . S
C310 O304 1.248 . S
C311 O301 1.260 . S
C311 O305 1.253 . S
C312 O303 1.279 . S
C312 O306 1.250 . S
O313 Mg295 2.030 . S
O313 C307 1.248 . S
O314 Mg297 2.079 . S
O314 C307 1.264 . S
O315 Mg316 1.990 . S
O315 C329 1.253 . S
Mg316 O315 1.990 . S
Mg316 O319 2.180 1_655 S
Mg316 O320 2.117 1_655 S
Mg316 O334 2.030 . S
O317 Mg318 2.072 1_655 S
O317 C329 1.260 . S
Mg318 O317 2.072 1_455 S
Mg318 O319 2.099 . S
Mg318 O321 2.079 . S
Mg318 O322 2.072 . S
Mg318 O324 2.099 1_455 S
Mg318 O335 2.079 1_455 S
O319 Mg316 2.180 1_455 S
O319 Mg318 2.099 . S
O319 C330 1.279 . S
O320 Mg316 2.117 1_455 S
O320 C330 1.250 . S
O321 Mg318 2.079 . S
O321 C331 1.264 . S
O322 Mg318 2.072 . S
O322 C332 1.260 . S
Mg323 O324 2.180 1_455 S
Mg323 O325 2.030 . S
Mg323 O326 1.990 . S
Mg323 O327 2.117 1_455 S
O324 Mg318 2.099 1_655 S
O324 Mg323 2.180 1_655 S
O324 C333 1.279 . S
O325 Mg323 2.030 . S
O325 C331 1.248 . S
O326 Mg323 1.990 . S
O326 C332 1.253 . S
O327 Mg323 2.117 1_655 S
O327 C333 1.250 . S
C328 O334 1.248 . S
C328 O335 1.264 . S
C329 O315 1.253 . S
C329 O317 1.260 . S
C330 O319 1.279 . S
C330 O320 1.250 . S
C331 O321 1.264 . S
C331 O325 1.248 . S
C332 O322 1.260 . S
C332 O326 1.253 . S
C333 O324 1.279 . S
C333 O327 1.250 . S
O334 Mg316 2.030 . S
O334 C328 1.248 . S
O335 Mg318 2.079 1_655 S
O335 C328 1.264 . S
O336 Mg337 1.990 . S
O336 C350 1.253 . S
Mg337 O336 1.990 . S
Mg337 O340 2.180 1_545 S
Mg337 O341 2.117 1_545 S
Mg337 O355 2.030 . S
O338 Mg339 2.072 1_545 S
O338 C350 1.260 . S
Mg339 O338 2.072 1_565 S
Mg339 O340 2.099 . S
Mg339 O342 2.079 . S
Mg339 O343 2.072 . S
Mg339 O345 2.099 1_565 S
Mg339 O356 2.079 1_565 S
O340 Mg337 2.180 1_565 S
O340 Mg339 2.099 . S
O340 C351 1.279 . S
O341 Mg337 2.117 1_565 S
O341 C351 1.250 . S
O342 Mg339 2.079 . S
O342 C352 1.264 . S
O343 Mg339 2.072 . S
O343 C353 1.260 . S
Mg344 O345 2.180 1_565 S
Mg344 O346 2.030 . S
Mg344 O347 1.990 . S
Mg344 O348 2.117 1_565 S
O345 Mg339 2.099 1_545 S
O345 Mg344 2.180 1_545 S
O345 C354 1.279 . S
O346 Mg344 2.030 . S
O346 C352 1.248 . S
O347 Mg344 1.990 . S
O347 C353 1.253 . S
O348 Mg344 2.117 1_545 S
O348 C354 1.250 . S
C349 O355 1.248 . S
C349 O356 1.264 . S
C350 O336 1.253 . S
C350 O338 1.260 . S
C351 O340 1.279 . S
C351 O341 1.250 . S
C352 O342 1.264 . S
C352 O346 1.248 . S
C353 O343 1.260 . S
C353 O347 1.253 . S
C354 O345 1.279 . S
C354 O348 1.250 . S
O355 Mg337 2.030 . S
O355 C349 1.248 . S
O356 Mg339 2.079 1_545 S
O356 C349 1.264 . S
O357 Mg358 1.990 . S
O357 C371 1.253 . S
Mg358 O357 1.990 . S
Mg358 O361 2.180 1_565 S
Mg358 O362 2.117 1_565 S
Mg358 O376 2.030 . S
O359 Mg360 2.072 1_565 S
O359 C371 1.260 . S
Mg360 O359 2.072 1_545 S
Mg360 O361 2.099 . S
Mg360 O363 2.079 . S
Mg360 O364 2.072 . S
Mg360 O366 2.099 1_545 S
Mg360 O377 2.079 1_545 S
O361 Mg358 2.180 1_545 S
O361 Mg360 2.099 . S
O361 C372 1.279 . S
O362 Mg358 2.117 1_545 S
O362 C372 1.250 . S
O363 Mg360 2.079 . S
O363 C373 1.264 . S
O364 Mg360 2.072 . S
O364 C374 1.260 . S
Mg365 O366 2.180 1_545 S
Mg365 O367 2.030 . S
Mg365 O368 1.990 . S
Mg365 O369 2.117 1_545 S
O366 Mg360 2.099 1_565 S
O366 Mg365 2.180 1_565 S
O366 C375 1.279 . S
O367 Mg365 2.030 . S
O367 C373 1.248 . S
O368 Mg365 1.990 . S
O368 C374 1.253 . S
O369 Mg365 2.117 1_565 S
O369 C375 1.250 . S
C370 O376 1.248 . S
C370 O377 1.264 . S
C371 O357 1.253 . S
C371 O359 1.260 . S
C372 O361 1.279 . S
C372 O362 1.250 . S
C373 O363 1.264 . S
C373 O367 1.248 . S
C374 O364 1.260 . S
C374 O368 1.253 . S
C375 O366 1.279 . S
C375 O369 1.250 . S
O376 Mg358 2.030 . S
O376 C370 1.248 . S
O377 Mg360 2.079 1_565 S
O377 C370 1.264 . S
O378 Mg379 1.990 . S
O378 C392 1.253 . S
Mg379 O378 1.990 . S
Mg379 O382 2.180 . S
Mg379 O383 2.117 . S
Mg379 O397 2.030 . S
O380 Mg381 2.072 . S
O380 C392 1.260 . S
Mg381 O380 2.072 . S
Mg381 O382 2.099 . S
Mg381 O384 2.079 . S
Mg381 O385 2.072 . S
Mg381 O387 2.099 . S
Mg381 O398 2.079 . S
O382 Mg379 2.180 . S
O382 Mg381 2.099 . S
O382 C393 1.279 . S
O383 Mg379 2.117 . S
O383 C393 1.250 . S
O384 Mg381 2.079 . S
O384 C394 1.264 . S
O385 Mg381 2.072 . S
O385 C395 1.260 . S
Mg386 O387 2.180 . S
Mg386 O388 2.030 . S
Mg386 O389 1.990 . S
Mg386 O390 2.117 . S
O387 Mg381 2.099 . S
O387 Mg386 2.180 . S
O387 C396 1.279 . S
O388 Mg386 2.030 . S
O388 C394 1.248 . S
O389 Mg386 1.990 . S
O389 C395 1.253 . S
O390 Mg386 2.117 . S
O390 C396 1.250 . S
C391 O397 1.248 . S
C391 O398 1.264 . S
C392 O378 1.253 . S
C392 O380 1.260 . S
C393 O382 1.279 . S
C393 O383 1.250 . S
C394 O384 1.264 . S
C394 O388 1.248 . S
C395 O385 1.260 . S
C395 O389 1.253 . S
C396 O387 1.279 . S
C396 O390 1.250 . S
O397 Mg379 2.030 . S
O397 C391 1.248 . S
O398 Mg381 2.079 . S
O398 C391 1.264 . S
O399 Mg400 1.990 . S
O399 C413 1.253 . S
Mg400 O399 1.990 . S
Mg400 O403 2.180 . S
Mg400 O404 2.117 . S
Mg400 O418 2.030 . S
O401 Mg402 2.072 . S
O401 C413 1.260 . S
Mg402 O401 2.072 . S
Mg402 O403 2.099 . S
Mg402 O405 2.079 . S
Mg402 O406 2.072 . S
Mg402 O408 2.099 . S
Mg402 O419 2.079 . S
O403 Mg400 2.180 . S
O403 Mg402 2.099 . S
O403 C414 1.279 . S
O404 Mg400 2.117 . S
O404 C414 1.250 . S
O405 Mg402 2.079 . S
O405 C415 1.264 . S
O406 Mg402 2.072 . S
O406 C416 1.260 . S
Mg407 O408 2.180 . S
Mg407 O409 2.030 . S
Mg407 O410 1.990 . S
Mg407 O411 2.117 . S
O408 Mg402 2.099 . S
O408 Mg407 2.180 . S
O408 C417 1.279 . S
O409 Mg407 2.030 . S
O409 C415 1.248 . S
O410 Mg407 1.990 . S
O410 C416 1.253 . S
O411 Mg407 2.117 . S
O411 C417 1.250 . S
C412 O418 1.248 . S
C412 O419 1.264 . S
C413 O399 1.253 . S
C413 O401 1.260 . S
C414 O403 1.279 . S
C414 O404 1.250 . S
C415 O405 1.264 . S
C415 O409 1.248 . S
C416 O406 1.260 . S
C416 O410 1.253 . S
C417 O408 1.279 . S
C417 O411 1.250 . S
O418 Mg400 2.030 . S
O418 C412 1.248 . S
O419 Mg402 2.079 . S
O419 C412 1.264 . S
O420 Mg421 1.990 . S
O420 C434 1.253 . S
Mg421 O420 1.990 . S
Mg421 O424 2.180 1_554 S
Mg421 O425 2.117 1_554 S
Mg421 O439 2.030 . S
O422 Mg423 2.072 1_554 S
O422 C434 1.260 . S
Mg423 O422 2.072 1_556 S
Mg423 O424 2.099 . S
Mg423 O426 2.079 . S
Mg423 O427 2.072 . S
Mg423 O429 2.099 1_556 S
Mg423 O440 2.079 1_556 S
O424 Mg421 2.180 1_556 S
O424 Mg423 2.099 . S
O424 C435 1.279 . S
O425 Mg421 2.117 1_556 S
O425 C435 1.250 . S
O426 Mg423 2.079 . S
O426 C436 1.264 . S
O427 Mg423 2.072 . S
O427 C437 1.260 . S
Mg428 O429 2.180 1_556 S
Mg428 O430 2.030 . S
Mg428 O431 1.990 . S
Mg428 O432 2.117 1_556 S
O429 Mg423 2.099 1_554 S
O429 Mg428 2.180 1_554 S
O429 C438 1.279 . S
O430 Mg428 2.030 . S
O430 C436 1.248 . S
O431 Mg428 1.990 . S
O431 C437 1.253 . S
O432 Mg428 2.117 1_554 S
O432 C438 1.250 . S
C433 O439 1.248 . S
C433 O440 1.264 . S
C434 O420 1.253 . S
C434 O422 1.260 . S
C435 O424 1.279 . S
C435 O425 1.250 . S
C436 O426 1.264 . S
C436 O430 1.248 . S
C437 O427 1.260 . S
C437 O431 1.253 . S
C438 O429 1.279 . S
C438 O432 1.250 . S
O439 Mg421 2.030 . S
O439 C433 1.248 . S
O440 Mg423 2.079 1_554 S
O440 C433 1.264 . S
O441 Mg442 1.990 . S
O441 C455 1.253 . S
Mg442 O441 1.990 . S
Mg442 O445 2.180 1_556 S
Mg442 O446 2.117 1_556 S
Mg442 O460 2.030 . S
O443 Mg444 2.072 1_556 S
O443 C455 1.260 . S
Mg444 O443 2.072 1_554 S
Mg444 O445 2.099 . S
Mg444 O447 2.079 . S
Mg444 O448 2.072 . S
Mg444 O450 2.099 1_554 S
Mg444 O461 2.079 1_554 S
O445 Mg442 2.180 1_554 S
O445 Mg444 2.099 . S
O445 C456 1.279 . S
O446 Mg442 2.117 1_554 S
O446 C456 1.250 . S
O447 Mg444 2.079 . S
O447 C457 1.264 . S
O448 Mg444 2.072 . S
O448 C458 1.260 . S
Mg449 O450 2.180 1_554 S
Mg449 O451 2.030 . S
Mg449 O452 1.990 . S
Mg449 O453 2.117 1_554 S
O450 Mg444 2.099 1_556 S
O450 Mg449 2.180 1_556 S
O450 C459 1.279 . S
O451 Mg449 2.030 . S
O451 C457 1.248 . S
O452 Mg449 1.990 . S
O452 C458 1.253 . S
O453 Mg449 2.117 1_556 S
O453 C459 1.250 . S
C454 O460 1.248 . S
C454 O461 1.264 . S
C455 O441 1.253 . S
C455 O443 1.260 . S
C456 O445 1.279 . S
C456 O446 1.250 . S
C457 O447 1.264 . S
C457 O451 1.248 . S
C458 O448 1.260 . S
C458 O452 1.253 . S
C459 O450 1.279 . S
C459 O453 1.250 . S
O460 Mg442 2.030 . S
O460 C454 1.248 . S
O461 Mg444 2.079 1_556 S
O461 C454 1.264 . S
O462 Mg463 1.990 . S
O462 C476 1.253 . S
Mg463 O462 1.990 . S
Mg463 O466 2.180 . S
Mg463 O467 2.117 . S
Mg463 O481 2.030 . S
O464 Mg465 2.072 . S
O464 C476 1.260 . S
Mg465 O464 2.072 . S
Mg465 O466 2.099 . S
Mg465 O468 2.079 . S
Mg465 O469 2.072 . S
Mg465 O471 2.099 . S
Mg465 O482 2.079 . S
O466 Mg463 2.180 . S
O466 Mg465 2.099 . S
O466 C477 1.279 . S
O467 Mg463 2.117 . S
O467 C477 1.250 . S
O468 Mg465 2.079 . S
O468 C478 1.264 . S
O469 Mg465 2.072 . S
O469 C479 1.260 . S
Mg470 O471 2.180 . S
Mg470 O472 2.030 . S
Mg470 O473 1.990 . S
Mg470 O474 2.117 . S
O471 Mg465 2.099 . S
O471 Mg470 2.180 . S
O471 C480 1.279 . S
O472 Mg470 2.030 . S
O472 C478 1.248 . S
O473 Mg470 1.990 . S
O473 C479 1.253 . S
O474 Mg470 2.117 . S
O474 C480 1.250 . S
C475 O481 1.248 . S
C475 O482 1.264 . S
C476 O462 1.253 . S
C476 O464 1.260 . S
C477 O466 1.279 . S
C477 O467 1.250 . S
C478 O468 1.264 . S
C478 O472 1.248 . S
C479 O469 1.260 . S
C479 O473 1.253 . S
C480 O471 1.279 . S
C480 O474 1.250 . S
O481 Mg463 2.030 . S
O481 C475 1.248 . S
O482 Mg465 2.079 . S
O482 C475 1.264 . S
O483 Mg484 1.990 . S
O483 C497 1.253 . S
Mg484 O483 1.990 . S
Mg484 O487 2.180 . S
Mg484 O488 2.117 . S
Mg484 O502 2.030 . S
O485 Mg486 2.072 . S
O485 C497 1.260 . S
Mg486 O485 2.072 . S
Mg486 O487 2.099 . S
Mg486 O489 2.079 . S
Mg486 O490 2.072 . S
Mg486 O492 2.099 . S
Mg486 O503 2.079 . S
O487 Mg484 2.180 . S
O487 Mg486 2.099 . S
O487 C498 1.279 . S
O488 Mg484 2.117 . S
O488 C498 1.250 . S
O489 Mg486 2.079 . S
O489 C499 1.264 . S
O490 Mg486 2.072 . S
O490 C500 1.260 . S
Mg491 O492 2.180 . S
Mg491 O493 2.030 . S
Mg491 O494 1.990 . S
Mg491 O495 2.117 . S
O492 Mg486 2.099 . S
O492 Mg491 2.180 . S
O492 C501 1.279 . S
O493 Mg491 2.030 . S
O493 C499 1.248 . S
O494 Mg491 1.990 . S
O494 C500 1.253 . S
O495 Mg491 2.117 . S
O495 C501 1.250 . S
C496 O502 1.248 . S
C496 O503 1.264 . S
C497 O483 1.253 . S
C497 O485 1.260 . S
C498 O487 1.279 . S
C498 O488 1.250 . S
C499 O489 1.264 . S
C499 O493 1.248 . S
C500 O490 1.260 . S
C500 O494 1.253 . S
C501 O492 1.279 . S
C501 O495 1.250 . S
O502 Mg484 2.030 . S
O502 C496 1.248 . S
O503 Mg486 2.079 . S
O503 C496 1.264 . S
C15 C391 1.091 . S
C412 C39 1.091 . S
C60 C349 1.091 . S
C78 C370 1.091 . S
C475 C99 1.091 . S
C123 C454 1.091 . S
C496 C141 1.091 . S
C162 C433 1.091 . S
C183 C286 1.091 . S
C204 C328 1.091 . S
C307 C228 1.091 . S
C249 C265 1.091 . S
C267 C139 1.091 . S
C288 C160 1.091 . S
C309 C97 1.091 . S
C121 C330 1.091 . S
C351 C226 1.091 . S
C202 C372 1.091 . S
C247 C393 1.091 . S
C181 C414 1.091 . S
C37 C435 1.091 . S
C76 C456 1.091 . S
C58 C477 1.091 . S
C498 C13 1.091 . S
C101 C16 1.507 . S
C119 C34 1.507 . S
C143 C55 1.507 . S
C164 C79 1.507 . S
C100 C185 1.507 . S
C118 C245 1.507 . S
C142 C206 1.507 . S
C163 C224 1.507 . S
C184 C17 1.507 . S
C205 C56 1.507 . S
C223 C80 1.507 . S
C35 C244 1.507 . S
C353 C268 1.507 . S
C374 C289 1.507 . S
C310 C395 1.507 . S
C331 C416 1.507 . S
C437 C352 1.507 . S
C373 C500 1.507 . S
C458 C394 1.507 . S
C415 C479 1.507 . S
C269 C436 1.507 . S
C457 C311 1.507 . S
C478 C332 1.507 . S
C290 C499 1.507 . S
C18 C203 1.908 . S
C227 C36 1.908 . S
C182 C57 1.908 . S
C248 C81 1.908 . S
C102 C77 1.908 . S
C59 C120 1.908 . S
C144 C38 1.908 . S
C14 C165 1.908 . S
C186 C122 1.908 . S
C207 C161 1.908 . S
C225 C140 1.908 . S
C246 C98 1.908 . S
C270 C455 1.908 . S
C291 C476 1.908 . S
C434 C312 1.908 . S
C497 C333 1.908 . S
C354 C329 1.908 . S
C375 C308 1.908 . S
C287 C396 1.908 . S
C417 C266 1.908 . S
C438 C371 1.908 . S
C413 C459 1.908 . S
C480 C392 1.908 . S
C501 C350 1.908 . S
