# Generated by pormake.
# Topology vbv, (6)-cn, num edge types: 1
# Building blocks:
#     Node 0, Type 0, BuildingBlock: OJICUG_clean_sbu_0, # of connection points: 6
#     Node 1, Type 0, BuildingBlock: OJICUG_clean_sbu_0, # of connection points: 6
#     Node 2, Type 0, BuildingBlock: OJICUG_clean_sbu_0, # of connection points: 6
#     Node 3, Type 0, BuildingBlock: OJICUG_clean_sbu_0, # of connection points: 6
#     Node 4, Type 0, BuildingBlock: OJICUG_clean_sbu_0, # of connection points: 6
#     Node 5, Type 0, BuildingBlock: OJICUG_clean_sbu_0, # of connection points: 6
#     Node 6, Type 0, BuildingBlock: OJICUG_clean_sbu_0, # of connection points: 6
#     Node 7, Type 0, BuildingBlock: OJICUG_clean_sbu_0, # of connection points: 6
#     Node 8, Type 0, BuildingBlock: OJICUG_clean_sbu_0, # of connection points: 6
#     Node 9, Type 0, BuildingBlock: OJICUG_clean_sbu_0, # of connection points: 6
#     Node 10, Type 0, BuildingBlock: OJICUG_clean_sbu_0, # of connection points: 6
#     Node 11, Type 0, BuildingBlock: OJICUG_clean_sbu_0, # of connection points: 6
#     Node 12, Type 0, BuildingBlock: OJICUG_clean_sbu_0, # of connection points: 6
#     Node 13, Type 0, BuildingBlock: OJICUG_clean_sbu_0, # of connection points: 6
#     Node 14, Type 0, BuildingBlock: OJICUG_clean_sbu_0, # of connection points: 6
#     Node 15, Type 0, BuildingBlock: OJICUG_clean_sbu_0, # of connection points: 6
#     Edge 16, Type (0, 0), BuildingBlock: OJICUG_clean_linker_0, # of connection points: 2
#     Edge 17, Type (0, 0), BuildingBlock: OJICUG_clean_linker_0, # of connection points: 2
#     Edge 18, Type (0, 0), BuildingBlock: OJICUG_clean_linker_0, # of connection points: 2
#     Edge 19, Type (0, 0), BuildingBlock: OJICUG_clean_linker_0, # of connection points: 2
#     Edge 20, Type (0, 0), BuildingBlock: OJICUG_clean_linker_0, # of connection points: 2
#     Edge 21, Type (0, 0), BuildingBlock: OJICUG_clean_linker_0, # of connection points: 2
#     Edge 22, Type (0, 0), BuildingBlock: OJICUG_clean_linker_0, # of connection points: 2
#     Edge 23, Type (0, 0), BuildingBlock: OJICUG_clean_linker_0, # of connection points: 2
#     Edge 24, Type (0, 0), BuildingBlock: OJICUG_clean_linker_0, # of connection points: 2
#     Edge 25, Type (0, 0), BuildingBlock: OJICUG_clean_linker_0, # of connection points: 2
#     Edge 26, Type (0, 0), BuildingBlock: OJICUG_clean_linker_0, # of connection points: 2
#     Edge 27, Type (0, 0), BuildingBlock: OJICUG_clean_linker_0, # of connection points: 2
#     Edge 28, Type (0, 0), BuildingBlock: OJICUG_clean_linker_0, # of connection points: 2
#     Edge 29, Type (0, 0), BuildingBlock: OJICUG_clean_linker_0, # of connection points: 2
#     Edge 30, Type (0, 0), BuildingBlock: OJICUG_clean_linker_0, # of connection points: 2
#     Edge 31, Type (0, 0), BuildingBlock: OJICUG_clean_linker_0, # of connection points: 2
#     Edge 32, Type (0, 0), BuildingBlock: OJICUG_clean_linker_0, # of connection points: 2
#     Edge 33, Type (0, 0), BuildingBlock: OJICUG_clean_linker_0, # of connection points: 2
#     Edge 34, Type (0, 0), BuildingBlock: OJICUG_clean_linker_0, # of connection points: 2
#     Edge 35, Type (0, 0), BuildingBlock: OJICUG_clean_linker_0, # of connection points: 2
#     Edge 36, Type (0, 0), BuildingBlock: OJICUG_clean_linker_0, # of connection points: 2
#     Edge 37, Type (0, 0), BuildingBlock: OJICUG_clean_linker_0, # of connection points: 2
#     Edge 38, Type (0, 0), BuildingBlock: OJICUG_clean_linker_0, # of connection points: 2
#     Edge 39, Type (0, 0), BuildingBlock: OJICUG_clean_linker_0, # of connection points: 2
#     Edge 40, Type (0, 0), BuildingBlock: OJICUG_clean_linker_0, # of connection points: 2
#     Edge 41, Type (0, 0), BuildingBlock: OJICUG_clean_linker_0, # of connection points: 2
#     Edge 42, Type (0, 0), BuildingBlock: OJICUG_clean_linker_0, # of connection points: 2
#     Edge 43, Type (0, 0), BuildingBlock: OJICUG_clean_linker_0, # of connection points: 2
#     Edge 44, Type (0, 0), BuildingBlock: OJICUG_clean_linker_0, # of connection points: 2
#     Edge 45, Type (0, 0), BuildingBlock: OJICUG_clean_linker_0, # of connection points: 2
#     Edge 46, Type (0, 0), BuildingBlock: OJICUG_clean_linker_0, # of connection points: 2
#     Edge 47, Type (0, 0), BuildingBlock: OJICUG_clean_linker_0, # of connection points: 2
#     Edge 48, Type (0, 0), BuildingBlock: OJICUG_clean_linker_0, # of connection points: 2
#     Edge 49, Type (0, 0), BuildingBlock: OJICUG_clean_linker_0, # of connection points: 2
#     Edge 50, Type (0, 0), BuildingBlock: OJICUG_clean_linker_0, # of connection points: 2
#     Edge 51, Type (0, 0), BuildingBlock: OJICUG_clean_linker_0, # of connection points: 2
#     Edge 52, Type (0, 0), BuildingBlock: OJICUG_clean_linker_0, # of connection points: 2
#     Edge 53, Type (0, 0), BuildingBlock: OJICUG_clean_linker_0, # of connection points: 2
#     Edge 54, Type (0, 0), BuildingBlock: OJICUG_clean_linker_0, # of connection points: 2
#     Edge 55, Type (0, 0), BuildingBlock: OJICUG_clean_linker_0, # of connection points: 2
#     Edge 56, Type (0, 0), BuildingBlock: OJICUG_clean_linker_0, # of connection points: 2
#     Edge 57, Type (0, 0), BuildingBlock: OJICUG_clean_linker_0, # of connection points: 2
#     Edge 58, Type (0, 0), BuildingBlock: OJICUG_clean_linker_0, # of connection points: 2
#     Edge 59, Type (0, 0), BuildingBlock: OJICUG_clean_linker_0, # of connection points: 2
#     Edge 60, Type (0, 0), BuildingBlock: OJICUG_clean_linker_0, # of connection points: 2
#     Edge 61, Type (0, 0), BuildingBlock: OJICUG_clean_linker_0, # of connection points: 2
#     Edge 62, Type (0, 0), BuildingBlock: OJICUG_clean_linker_0, # of connection points: 2
#     Edge 63, Type (0, 0), BuildingBlock: OJICUG_clean_linker_0, # of connection points: 2
# Relax obj value: 0.217
# Max RMSD: 0.236
# Mean RMSD: 0.236
data_MOF--net-vbv--node1-OJICUG_clean_sbu_0--edge1-OJICUG_clean_linker_0
_symmetry_space_group_name_H-M    P1
_symmetry_Int_Tables_number       1
_symmetry_cell_setting            triclinic
loop_
_symmetry_equiv_pos_as_xyz
'x, y, z'
_cell_length_a     40.329744
_cell_length_b     21.208626
_cell_length_c     36.200762
_cell_angle_alpha  90.019994
_cell_angle_beta   90.207653
_cell_angle_gamma 90.315417
loop_
_atom_site_label
_atom_site_type_symbol
_atom_site_fract_x
_atom_site_fract_y
_atom_site_fract_z
_atom_type_partial_charge
Sc0 Sc 0.12933 0.41772 0.10423 0.0
Sc1 Sc 0.1833 0.29474 0.09476 0.0
Sc2 Sc 0.13282 0.33457 0.0226 0.0
O3 O 0.14859 0.3494 0.07399 0.0
C4 C 0.06903 0.35162 0.06672 0.0
C5 C 0.13854 0.30437 0.16233 0.0
C6 C 0.14019 0.19936 0.04305 0.0
C7 C 0.20508 0.43161 0.12246 0.0
C8 C 0.13618 0.47785 0.02266 0.0
C9 C 0.20986 0.31034 0.01847 0.0
O10 O 0.08176 0.37028 0.09712 0.0
O11 O 0.15169 0.26749 0.139 0.0
O12 O 0.11881 0.24123 0.03629 0.0
O13 O 0.17859 0.45916 0.11164 0.0
O14 O 0.1469 0.42751 0.00831 0.0
O15 O 0.21433 0.32484 0.05188 0.0
O16 O 0.12311 0.47918 0.055 0.0
O17 O 0.2061 0.37169 0.12672 0.0
O18 O 0.18108 0.30209 0.00458 0.0
O19 O 0.13418 0.36314 0.15569 0.0
O20 O 0.0832 0.36418 0.03626 0.0
O21 O 0.16647 0.21209 0.06179 0.0
Sc22 Sc 0.40126 0.67654 0.02547 0.0
Sc23 Sc 0.35032 0.71556 0.09712 0.0
Sc24 Sc 0.40462 0.59291 0.10687 0.0
O25 O 0.38515 0.66108 0.07653 0.0
C26 C 0.39847 0.53301 0.02502 0.0
C27 C 0.32392 0.70082 0.02034 0.0
C28 C 0.32879 0.5782 0.12394 0.0
C29 C 0.39336 0.8114 0.0463 0.0
C30 C 0.46504 0.66039 0.07055 0.0
C31 C 0.39496 0.70554 0.1652 0.0
O32 O 0.38781 0.58337 0.01053 0.0
O33 O 0.31922 0.68656 0.05372 0.0
O34 O 0.35542 0.55094 0.11345 0.0
O35 O 0.41487 0.76974 0.0399 0.0
O36 O 0.45214 0.64114 0.10064 0.0
O37 O 0.38184 0.7425 0.14181 0.0
O38 O 0.45108 0.64812 0.03978 0.0
O39 O 0.36702 0.7985 0.06465 0.0
O40 O 0.39939 0.64685 0.15847 0.0
O41 O 0.35283 0.70836 0.00679 0.0
O42 O 0.41127 0.53172 0.05761 0.0
O43 O 0.32763 0.63806 0.12846 0.0
Sc44 Sc 0.63348 0.59884 0.37285 0.0
Sc45 Sc 0.68916 0.72148 0.38762 0.0
Sc46 Sc 0.64277 0.66526 0.45969 0.0
O47 O 0.6549 0.66156 0.40592 0.0
C48 C 0.57712 0.68328 0.41522 0.0
C49 C 0.64353 0.71444 0.31649 0.0
C50 C 0.65759 0.80545 0.44708 0.0
C51 C 0.71137 0.58688 0.35457 0.0
C52 C 0.6274 0.52443 0.44854 0.0
C53 C 0.71754 0.65751 0.4604 0.0
O54 O 0.58535 0.642 0.39045 0.0
O55 O 0.66405 0.74368 0.33698 0.0
O56 O 0.66135 0.75835 0.46778 0.0
O57 O 0.68227 0.5619 0.35604 0.0
O58 O 0.62102 0.57441 0.46551 0.0
O59 O 0.71732 0.7018 0.43648 0.0
O60 O 0.63579 0.52486 0.41484 0.0
O61 O 0.71667 0.64482 0.36258 0.0
O62 O 0.69125 0.63128 0.47271 0.0
O63 O 0.63123 0.66112 0.32527 0.0
O64 O 0.59586 0.69909 0.44228 0.0
O65 O 0.66368 0.80146 0.41271 0.0
Sc66 Sc 0.90523 0.4098 0.3692 0.0
Sc67 Sc 0.84874 0.28849 0.37505 0.0
Sc68 Sc 0.89915 0.322 0.44872 0.0
O69 O 0.88409 0.34076 0.39762 0.0
C70 C 0.96416 0.33979 0.40617 0.0
C71 C 0.89513 0.30085 0.30872 0.0
C72 C 0.88994 0.18821 0.42475 0.0
C73 C 0.82992 0.42861 0.35032 0.0
C74 C 0.8987 0.46534 0.45193 0.0
C75 C 0.82145 0.29938 0.45125 0.0
O76 O 0.9519 0.36039 0.37604 0.0
O77 O 0.8806 0.26339 0.33079 0.0
O78 O 0.91167 0.2293 0.43261 0.0
O79 O 0.85699 0.45369 0.36186 0.0
O80 O 0.88686 0.41475 0.46518 0.0
O81 O 0.81735 0.31552 0.41807 0.0
O82 O 0.91191 0.46791 0.4197 0.0
O83 O 0.82732 0.36899 0.34506 0.0
O84 O 0.85006 0.29058 0.46538 0.0
O85 O 0.90032 0.35898 0.31655 0.0
O86 O 0.94961 0.34979 0.43671 0.0
O87 O 0.86392 0.20262 0.40609 0.0
Sc88 Sc 0.90301 0.59281 0.86738 0.0
Sc89 Sc 0.84934 0.71659 0.87645 0.0
Sc90 Sc 0.90015 0.67676 0.94856 0.0
O91 O 0.88383 0.66147 0.89746 0.0
C92 C 0.89713 0.53351 0.94926 0.0
C93 C 0.82706 0.57898 0.85057 0.0
C94 C 0.82301 0.70306 0.95337 0.0
C95 C 0.89304 0.7042 0.80828 0.0
C96 C 0.96364 0.65965 0.9038 0.0
C97 C 0.89318 0.81188 0.92701 0.0
O98 O 0.91 0.53219 0.91682 0.0
O99 O 0.82608 0.63879 0.84567 0.0
O100 O 0.85201 0.70946 0.96709 0.0
O101 O 0.89731 0.64565 0.81547 0.0
O102 O 0.9497 0.64714 0.93441 0.0
O103 O 0.86681 0.79954 0.9084 0.0
O104 O 0.95063 0.64083 0.87355 0.0
O105 O 0.88079 0.74204 0.83165 0.0
O106 O 0.91424 0.76964 0.93412 0.0
O107 O 0.85366 0.55144 0.86109 0.0
O108 O 0.88625 0.58383 0.96351 0.0
O109 O 0.81802 0.6898 0.91984 0.0
Sc110 Sc 0.62771 0.41996 0.87248 0.0
Sc111 Sc 0.68149 0.29644 0.88071 0.0
Sc112 Sc 0.63173 0.33488 0.95342 0.0
O113 O 0.64716 0.35093 0.90216 0.0
C114 C 0.63452 0.47834 0.95472 0.0
C115 C 0.70308 0.43387 0.85398 0.0
C116 C 0.70895 0.3108 0.95701 0.0
C117 C 0.63678 0.3084 0.8132 0.0
C118 C 0.56767 0.35236 0.90917 0.0
C119 C 0.63917 0.1999 0.93199 0.0
O120 O 0.62149 0.48025 0.92225 0.0
O121 O 0.70384 0.37405 0.84915 0.0
O122 O 0.68031 0.30265 0.9711 0.0
O123 O 0.63266 0.36702 0.82041 0.0
O124 O 0.58191 0.36407 0.93984 0.0
O125 O 0.66521 0.213 0.91316 0.0
O126 O 0.58025 0.37208 0.87902 0.0
O127 O 0.64926 0.27046 0.83649 0.0
O128 O 0.61784 0.24163 0.93906 0.0
O129 O 0.6769 0.46147 0.86547 0.0
O130 O 0.64553 0.42779 0.96864 0.0
O131 O 0.7131 0.32531 0.92358 0.0
Sc132 Sc 0.40039 0.33863 0.52606 0.0
Sc133 Sc 0.34894 0.29668 0.59681 0.0
Sc134 Sc 0.40241 0.42139 0.60797 0.0
O135 O 0.38379 0.35257 0.57707 0.0
C136 C 0.46336 0.35703 0.57218 0.0
C137 C 0.39295 0.20293 0.54579 0.0
C138 C 0.39285 0.30743 0.66553 0.0
C139 C 0.32348 0.31218 0.51973 0.0
C140 C 0.39656 0.48192 0.52642 0.0
C141 C 0.32634 0.43279 0.62409 0.0
O142 O 0.44965 0.36961 0.54137 0.0
O143 O 0.3665 0.21479 0.5641 0.0
O144 O 0.39703 0.36639 0.65915 0.0
O145 O 0.35248 0.3051 0.50655 0.0
O146 O 0.4092 0.48346 0.55908 0.0
O147 O 0.32537 0.37281 0.6282 0.0
O148 O 0.38628 0.43129 0.51168 0.0
O149 O 0.31843 0.32572 0.55314 0.0
O150 O 0.35294 0.46119 0.61411 0.0
O151 O 0.41436 0.24539 0.53962 0.0
O152 O 0.45023 0.37544 0.60224 0.0
O153 O 0.37999 0.27029 0.64188 0.0
Sc154 Sc 0.12697 0.59062 0.60349 0.0
Sc155 Sc 0.1818 0.71367 0.59495 0.0
Sc156 Sc 0.13144 0.67446 0.52224 0.0
O157 O 0.14693 0.659 0.57363 0.0
C158 C 0.13387 0.53093 0.52166 0.0
C159 C 0.20256 0.57669 0.62235 0.0
C160 C 0.20891 0.69955 0.51884 0.0
C161 C 0.13656 0.70346 0.66213 0.0
C162 C 0.06694 0.657 0.56569 0.0
C163 C 0.13963 0.80922 0.54338 0.0
O164 O 0.12081 0.52934 0.55402 0.0
O165 O 0.20379 0.63654 0.62692 0.0
O166 O 0.18017 0.70696 0.50472 0.0
O167 O 0.13181 0.64477 0.65524 0.0
O168 O 0.08132 0.6455 0.53523 0.0
O169 O 0.16579 0.79645 0.56212 0.0
O170 O 0.07957 0.63816 0.59607 0.0
O171 O 0.14995 0.74053 0.63895 0.0
O172 O 0.11799 0.76744 0.53661 0.0
O173 O 0.17601 0.54913 0.61121 0.0
O174 O 0.14475 0.58149 0.50742 0.0
O175 O 0.21316 0.68454 0.5522 0.0
Sc176 Sc 0.62973 0.92003 0.10763 0.0
Sc177 Sc 0.68263 0.79469 0.10022 0.0
Sc178 Sc 0.63278 0.83436 0.02705 0.0
O179 O 0.64881 0.85027 0.07823 0.0
C180 C 0.56924 0.85254 0.07144 0.0
C181 C 0.63895 0.81111 0.16823 0.0
C182 C 0.63891 0.69912 0.0493 0.0
C183 C 0.70566 0.93312 0.12452 0.0
C184 C 0.6359 0.97756 0.02534 0.0
C185 C 0.70979 0.80587 0.02327 0.0
O186 O 0.58205 0.87193 0.10168 0.0
O187 O 0.65058 0.77184 0.14522 0.0
O188 O 0.61819 0.74172 0.04166 0.0
O189 O 0.67922 0.96084 0.11362 0.0
O190 O 0.64707 0.92704 0.01159 0.0
O191 O 0.71463 0.81867 0.0569 0.0
O192 O 0.62282 0.97933 0.05765 0.0
O193 O 0.70634 0.87339 0.13005 0.0
O194 O 0.6809 0.80071 0.00912 0.0
O195 O 0.63533 0.86949 0.16029 0.0
O196 O 0.58331 0.86489 0.04086 0.0
O197 O 0.66489 0.71109 0.06872 0.0
Sc198 Sc 0.90136 0.17652 0.0213 0.0
Sc199 Sc 0.85148 0.215 0.09384 0.0
Sc200 Sc 0.90542 0.0918 0.10235 0.0
O201 O 0.88593 0.1606 0.07256 0.0
C202 C 0.8984 0.03319 0.02041 0.0
C203 C 0.82411 0.20018 0.01762 0.0
C204 C 0.82996 0.07781 0.12095 0.0
C205 C 0.89382 0.31131 0.0425 0.0
C206 C 0.96551 0.15894 0.06542 0.0
C207 C 0.89686 0.20413 0.16098 0.0
O208 O 0.88754 0.08368 0.00631 0.0
O209 O 0.81997 0.18547 0.05102 0.0
O210 O 0.85619 0.05023 0.1096 0.0
O211 O 0.91526 0.26969 0.03565 0.0
O212 O 0.95291 0.13939 0.09559 0.0
O213 O 0.88373 0.2416 0.13787 0.0
O214 O 0.95121 0.1474 0.03476 0.0
O215 O 0.86769 0.29816 0.06116 0.0
O216 O 0.90085 0.1454 0.15404 0.0
O217 O 0.85276 0.20866 0.00362 0.0
O218 O 0.91146 0.03133 0.05283 0.0
O219 O 0.82919 0.13765 0.12567 0.0
Sc220 Sc 0.13 0.08972 0.36754 0.0
Sc221 Sc 0.18356 0.21456 0.37756 0.0
Sc222 Sc 0.13322 0.17255 0.44928 0.0
O223 O 0.14906 0.1586 0.39799 0.0
C224 C 0.06945 0.15315 0.40465 0.0
C225 C 0.13892 0.20317 0.30949 0.0
C226 C 0.13982 0.30823 0.42885 0.0
C227 C 0.20585 0.07817 0.35033 0.0
C228 C 0.13693 0.02957 0.44905 0.0
C229 C 0.21012 0.20022 0.45418 0.0
O230 O 0.08229 0.13547 0.37427 0.0
O231 O 0.15195 0.24047 0.33292 0.0
O232 O 0.11875 0.26543 0.43566 0.0
O233 O 0.17934 0.04989 0.36066 0.0
O234 O 0.14776 0.08005 0.46349 0.0
O235 O 0.21478 0.18623 0.42078 0.0
O236 O 0.1238 0.02811 0.41665 0.0
O237 O 0.20685 0.13814 0.34612 0.0
O238 O 0.18127 0.20689 0.46782 0.0
O239 O 0.13473 0.14429 0.3161 0.0
O240 O 0.08375 0.14103 0.43517 0.0
O241 O 0.16613 0.29662 0.41023 0.0
Sc242 Sc 0.40499 0.92016 0.37054 0.0
Sc243 Sc 0.35028 0.79702 0.37994 0.0
Sc244 Sc 0.40069 0.83773 0.45222 0.0
O245 O 0.3851 0.85215 0.40081 0.0
C246 C 0.46488 0.85423 0.40822 0.0
C247 C 0.39529 0.8067 0.3125 0.0
C248 C 0.39275 0.70245 0.43203 0.0
C249 C 0.32937 0.93377 0.35202 0.0
C250 C 0.39818 0.98112 0.45205 0.0
C251 C 0.32335 0.81233 0.45615 0.0
O252 O 0.45238 0.87247 0.37768 0.0
O253 O 0.38201 0.7698 0.33587 0.0
O254 O 0.41431 0.74451 0.43858 0.0
O255 O 0.35595 0.96149 0.36293 0.0
O256 O 0.38714 0.9308 0.4664 0.0
O257 O 0.31899 0.82652 0.42268 0.0
O258 O 0.41141 0.9822 0.41976 0.0
O259 O 0.32809 0.87382 0.34779 0.0
O260 O 0.35213 0.80519 0.47021 0.0
O261 O 0.3999 0.86549 0.31911 0.0
O262 O 0.45056 0.86706 0.43855 0.0
O263 O 0.36658 0.71472 0.41314 0.0
Sc264 Sc 0.40431 0.09231 0.87061 0.0
Sc265 Sc 0.35028 0.21507 0.88046 0.0
Sc266 Sc 0.4011 0.17531 0.95232 0.0
O267 O 0.38512 0.16051 0.90099 0.0
C268 C 0.39773 0.03205 0.95216 0.0
C269 C 0.32853 0.07821 0.85265 0.0
C270 C 0.32408 0.19929 0.95688 0.0
C271 C 0.39464 0.20567 0.81261 0.0
C272 C 0.46469 0.15857 0.90788 0.0
C273 C 0.39357 0.31049 0.93195 0.0
O274 O 0.41075 0.03078 0.91979 0.0
O275 O 0.32743 0.13815 0.84854 0.0
O276 O 0.3529 0.2077 0.97063 0.0
O277 O 0.39915 0.14693 0.8192 0.0
O278 O 0.45065 0.14573 0.93838 0.0
O279 O 0.3672 0.2977 0.91338 0.0
O280 O 0.45187 0.13995 0.87751 0.0
O281 O 0.38166 0.2425 0.83608 0.0
O282 O 0.41501 0.26868 0.9386 0.0
O283 O 0.35507 0.0507 0.86336 0.0
O284 O 0.38708 0.08237 0.9666 0.0
O285 O 0.3195 0.18474 0.9235 0.0
Sc286 Sc 0.12906 0.91703 0.86795 0.0
Sc287 Sc 0.18332 0.7942 0.87745 0.0
Sc288 Sc 0.13266 0.83343 0.94934 0.0
O289 O 0.14858 0.84879 0.8982 0.0
C290 C 0.13549 0.97697 0.94981 0.0
C291 C 0.20487 0.93153 0.85066 0.0
C292 C 0.20999 0.80885 0.95413 0.0
C293 C 0.13835 0.80427 0.80956 0.0
C294 C 0.06868 0.84998 0.90457 0.0
C295 C 0.14039 0.6985 0.92847 0.0
O296 O 0.12265 0.97829 0.91724 0.0
O297 O 0.20599 0.87168 0.84606 0.0
O298 O 0.18113 0.80151 0.96781 0.0
O299 O 0.13397 0.86297 0.81632 0.0
O300 O 0.08279 0.86194 0.93529 0.0
O301 O 0.16665 0.71129 0.90998 0.0
O302 O 0.08152 0.86914 0.87443 0.0
O303 O 0.15164 0.76734 0.83285 0.0
O304 O 0.11895 0.74023 0.935 0.0
O305 O 0.17827 0.95882 0.86119 0.0
O306 O 0.1462 0.9266 0.96425 0.0
O307 O 0.2146 0.82305 0.92072 0.0
Sc308 Sc 0.89957 0.82006 0.51891 0.0
Sc309 Sc 0.84582 0.78445 0.58902 0.0
Sc310 Sc 0.90006 0.90853 0.59908 0.0
O311 O 0.88179 0.83783 0.56951 0.0
C312 C 0.96163 0.8449 0.56421 0.0
C313 C 0.89386 0.68729 0.54471 0.0
C314 C 0.88828 0.79942 0.6597 0.0
C315 C 0.82487 0.77841 0.51262 0.0
C316 C 0.89361 0.96275 0.51547 0.0
C317 C 0.82328 0.92333 0.61432 0.0
O318 O 0.94774 0.85729 0.53354 0.0
O319 O 0.86651 0.69997 0.56121 0.0
O320 O 0.89523 0.85673 0.6514 0.0
O321 O 0.85395 0.77553 0.49937 0.0
O322 O 0.90589 0.96634 0.54832 0.0
O323 O 0.82029 0.86323 0.61575 0.0
O324 O 0.88376 0.91097 0.50138 0.0
O325 O 0.8194 0.81007 0.54127 0.0
O326 O 0.85078 0.94991 0.60564 0.0
O327 O 0.91493 0.73004 0.53737 0.0
O328 O 0.94813 0.86273 0.59415 0.0
O329 O 0.87333 0.7623 0.63758 0.0
Sc330 Sc 0.62674 0.09643 0.60765 0.0
Sc331 Sc 0.68332 0.21559 0.59588 0.0
Sc332 Sc 0.6287 0.18042 0.52627 0.0
O333 O 0.64641 0.16349 0.57671 0.0
C334 C 0.6303 0.03665 0.52561 0.0
C335 C 0.703 0.07768 0.62231 0.0
C336 C 0.70606 0.19856 0.51816 0.0
C337 C 0.64009 0.20913 0.66537 0.0
C338 C 0.56611 0.16494 0.57249 0.0
C339 C 0.6401 0.31404 0.5476 0.0
O340 O 0.61901 0.03522 0.55879 0.0
O341 O 0.70569 0.1374 0.62664 0.0
O342 O 0.67701 0.21014 0.50598 0.0
O343 O 0.6337 0.15096 0.6587 0.0
O344 O 0.57924 0.15233 0.54158 0.0
O345 O 0.66738 0.299 0.56353 0.0
O346 O 0.5796 0.14598 0.60237 0.0
O347 O 0.65431 0.24484 0.64199 0.0
O348 O 0.61727 0.27392 0.54237 0.0
O349 O 0.67532 0.05218 0.61318 0.0
O350 O 0.63978 0.08725 0.51023 0.0
O351 O 0.7115 0.18342 0.55129 0.0
C352 C 0.11346 0.13405 -0.00685 0.0
C353 C 0.13754 0.1398 0.02146 0.0
H354 H 0.09445 0.07944 0.94776 0.0
C355 C 0.16091 0.09156 0.02559 0.0
H356 H 0.09512 0.17044 -0.01123 0.0
C357 C 0.16027 0.03919 0.00203 0.0
C358 C 0.13662 0.03423 0.97334 0.0
H359 H 0.17999 0.09461 0.04667 0.0
H360 H 0.17867 1.00276 0.00601 0.0
C361 C 0.11323 0.08227 0.96918 0.0
C362 C 0.37251 0.96988 0.00376 0.0
C363 C 0.39655 0.97497 0.97569 0.0
H364 H 0.35265 0.91484 0.04827 0.0
C365 C 0.42043 0.92769 0.97245 0.0
H366 H 0.35376 0.00582 0.00702 0.0
C367 C 0.42032 0.87646 -0.00323 0.0
C368 C 0.39587 0.87058 0.02448 0.0
H369 H 0.43952 0.93076 0.95154 0.0
H370 H 0.43905 0.84061 -0.00686 0.0
C371 C 0.372 0.91807 0.02768 0.0
C372 C 0.64499 0.97941 0.46708 0.0
C373 C 0.63399 0.97756 0.50412 0.0
H374 H 0.66104 0.92673 0.41973 0.0
C375 C 0.6288 0.91886 0.52082 0.0
H376 H 0.64906 0.02396 0.45316 0.0
C377 C 0.63575 0.86352 0.50162 0.0
C378 C 0.64808 0.86529 0.46518 0.0
H379 H 0.62027 0.91553 0.5491 0.0
H380 H 0.63194 0.81909 0.51577 0.0
C381 C 0.65187 0.9238 0.44776 0.0
C382 C 0.91649 0.06749 0.49614 0.0
C383 C 0.89286 0.01952 0.49153 0.0
H384 H 0.93502 0.15625 0.47787 0.0
C385 C 0.86926 0.02516 0.46287 0.0
H386 H 0.93528 0.06416 0.51751 0.0
C387 C 0.86868 0.07877 0.44011 0.0
C388 C 0.89221 0.12717 0.44498 0.0
H389 H 0.85075 0.98867 0.45855 0.0
H390 H 0.84955 0.08274 0.41919 0.0
C391 C 0.91644 0.1201 0.47296 0.0
C392 C 0.92094 0.92882 0.00029 0.0
C393 C 0.89728 0.97646 -0.00338 0.0
H394 H 0.93913 0.84113 0.98021 0.0
C395 C 0.8734 0.97169 0.96819 0.0
H396 H 0.93992 0.93166 0.02149 0.0
C397 C 0.87269 0.91962 0.94446 0.0
C398 C 0.89621 0.87157 0.94825 0.0
H399 H 0.85484 0.00794 0.96458 0.0
H400 H 0.85339 0.91651 0.92365 0.0
C401 C 0.92064 0.87735 0.97617 0.0
C402 C 0.66031 0.09204 0.94917 0.0
C403 C 0.63678 0.14002 0.95332 0.0
H404 H 0.67852 1.00344 0.96879 0.0
C405 C 0.61281 0.13378 0.98149 0.0
H406 H 0.67929 0.09544 0.92818 0.0
C407 C 0.61291 0.082 0.00542 0.0
C408 C 0.63652 0.03435 0.00138 0.0
H409 H 0.59432 0.16986 0.98585 0.0
H410 H 0.59425 0.07898 0.02682 0.0
C411 C 0.65998 0.03958 0.97271 0.0
C412 C 0.42042 0.08695 0.47194 0.0
C413 C 0.39692 0.0385 0.4755 0.0
H414 H 0.43848 0.17529 0.49219 0.0
C415 C 0.37301 0.04294 0.50375 0.0
H416 H 0.43939 0.08456 0.45088 0.0
C417 C 0.37227 0.09504 0.52749 0.0
C418 C 0.39576 0.14366 0.52398 0.0
H419 H 0.3545 0.00624 0.5073 0.0
H420 H 0.35302 0.09757 0.54821 0.0
C421 C 0.42006 0.13856 0.49608 0.0
C422 C 0.16169 0.91588 0.52503 0.0
C423 C 0.13757 0.86836 0.52151 0.0
H424 H 0.18052 1.00363 0.50458 0.0
C425 C 0.11331 0.87415 0.49345 0.0
H426 H 0.18092 0.9127 0.54591 0.0
C427 C 0.11361 0.9253 0.4691 0.0
C428 C 0.13774 0.97261 0.47266 0.0
H429 H 0.09439 0.83828 0.48957 0.0
H430 H 0.09464 0.9283 0.44792 0.0
C431 C 0.1616 0.96764 0.50107 0.0
C432 C 0.61178 0.58265 0.9752 0.0
C433 C 0.63543 0.53496 0.97881 0.0
H434 H 0.59336 0.67006 -0.00446 0.0
C435 C 0.6591 0.53954 0.00752 0.0
H436 H 0.59294 0.58005 0.95383 0.0
C437 C 0.65959 0.59137 0.03151 0.0
C438 C 0.63607 0.63946 0.02779 0.0
H439 H 0.67766 0.50331 0.01114 0.0
H440 H 0.67876 0.59429 0.05248 0.0
C441 C 0.61186 0.63387 -0.00041 0.0
C442 C 0.92012 0.3771 -0.00718 0.0
C443 C 0.89614 0.37094 0.021 0.0
H444 H 0.93872 0.43194 0.94751 0.0
C445 C 0.87253 0.41876 0.02503 0.0
H446 H 0.93864 0.34106 -0.01146 0.0
C447 C 0.87284 0.4711 0.00146 0.0
C448 C 0.89638 0.4764 0.97288 0.0
H449 H 0.85353 0.41537 0.04601 0.0
H450 H 0.85427 0.5072 0.00534 0.0
C451 C 0.92002 0.42882 0.96885 0.0
C452 C 0.112 0.42483 0.50209 0.0
C453 C 0.13521 0.47367 0.49815 0.0
H454 H 0.09435 0.33588 0.48244 0.0
C455 C 0.15897 0.46943 0.46975 0.0
H456 H 0.09315 0.42706 0.52329 0.0
C457 C 0.15991 0.41698 0.44627 0.0
C458 C 0.13676 0.36788 0.45023 0.0
H459 H 0.17724 0.50648 0.46592 0.0
H460 H 0.17908 0.41452 0.42545 0.0
C461 C 0.11254 0.37292 0.47822 0.0
C462 C 0.37175 0.5434 0.47427 0.0
C463 C 0.39542 0.5391 0.50295 0.0
H464 H 0.35233 0.59774 0.42922 0.0
C465 C 0.41901 0.58731 0.50685 0.0
H466 H 0.35321 0.50677 0.4705 0.0
C467 C 0.41903 0.63855 0.48253 0.0
C468 C 0.39502 0.64352 0.45412 0.0
H469 H 0.4378 0.58492 0.52826 0.0
H470 H 0.43755 0.67508 0.48665 0.0
C471 C 0.37137 0.59521 0.45034 0.0
C472 C 0.3729 0.41831 0.94939 0.0
C473 C 0.39627 0.37006 0.95351 0.0
H474 H 0.3552 0.50715 0.96895 0.0
C475 C 0.42041 0.37584 0.98176 0.0
H476 H 0.35379 0.41522 0.92836 0.0
C477 C 0.4207 0.42767 0.00569 0.0
C478 C 0.39731 0.47571 0.00154 0.0
H479 H 0.43875 0.33944 0.98611 0.0
H480 H 0.43951 0.43053 0.02707 0.0
C481 C 0.3736 0.47072 0.97292 0.0
C482 C 0.16129 0.53995 0.97094 0.0
C483 C 0.13731 0.53488 -0.00092 0.0
H484 H 0.18106 0.59498 0.92638 0.0
C485 C 0.11344 0.58219 0.00237 0.0
H486 H 0.18002 0.50399 0.96763 0.0
C487 C 0.11352 0.63341 0.97806 0.0
C488 C 0.1379 0.63928 0.95028 0.0
H489 H 0.0944 0.57914 0.02334 0.0
H490 H 0.0948 0.66928 0.98174 0.0
C491 C 0.16175 0.59176 0.94702 0.0
C492 C 0.92252 0.61991 0.49772 0.0
C493 C 0.89735 0.62668 0.52447 0.0
H494 H 0.94214 0.56493 0.45316 0.0
C495 C 0.87315 0.57915 0.52739 0.0
H496 H 0.94157 0.65564 0.49439 0.0
C497 C 0.87375 0.52696 0.50376 0.0
C498 C 0.8982 0.52152 0.47623 0.0
H499 H 0.85324 0.583 0.54724 0.0
H500 H 0.85454 0.49137 0.50654 0.0
C501 C 0.92271 0.56833 0.47363 0.0
C502 C 0.60316 0.44897 0.4937 0.0
C503 C 0.62985 0.46703 0.47122 0.0
H504 H 0.58559 0.38625 0.53587 0.0
C505 C 0.66075 0.43802 0.47631 0.0
H506 H 0.57938 0.47209 0.49101 0.0
C507 C 0.66482 0.39141 0.50337 0.0
C508 C 0.63785 0.37208 0.5252 0.0
H509 H 0.682 0.45283 0.46017 0.0
H510 H 0.68875 0.36902 0.50636 0.0
C511 C 0.60693 0.40106 0.51989 0.0
C512 C 0.13108 0.18825 0.24128 0.0
C513 C 0.13244 0.22851 0.27202 0.0
H514 H 0.13172 0.18081 0.18237 0.0
C515 C 0.13113 0.29415 0.26625 0.0
H516 H 0.13188 0.13755 0.24473 0.0
C517 C 0.13085 0.31905 0.23049 0.0
C518 C 0.13222 0.27883 0.19976 0.0
H519 H 0.1317 0.32652 0.2894 0.0
H520 H 0.1315 0.36978 0.22705 0.0
C521 C 0.13114 0.21315 0.20552 0.0
C522 C 0.40244 0.69065 0.23345 0.0
C523 C 0.40131 0.73093 0.20273 0.0
H524 H 0.40161 0.68315 0.29237 0.0
C525 C 0.40275 0.79657 0.20856 0.0
H526 H 0.4015 0.63994 0.22995 0.0
C527 C 0.40303 0.82143 0.24433 0.0
C528 C 0.40149 0.78118 0.27505 0.0
H529 H 0.40234 0.82894 0.18542 0.0
H530 H 0.40254 0.87215 0.24781 0.0
C531 C 0.40236 0.71552 0.26924 0.0
C532 C 0.63969 0.82975 0.2366 0.0
C533 C 0.63391 0.78904 0.20663 0.0
H534 H 0.64743 0.83793 0.29501 0.0
C535 C 0.62719 0.72502 0.2137 0.0
H536 H 0.64504 0.87924 0.23204 0.0
C537 C 0.62806 0.70149 0.24978 0.0
C538 C 0.63635 0.74125 0.27949 0.0
H539 H 0.62245 0.69258 0.19114 0.0
H540 H 0.62417 0.65145 0.25409 0.0
C541 C 0.64123 0.80598 0.27264 0.0
C542 C 0.90433 0.29417 0.20503 0.0
C543 C 0.90323 0.22867 0.19862 0.0
H544 H 0.90316 0.36861 0.24501 0.0
C545 C 0.9044 0.18754 0.22894 0.0
H546 H 0.90391 0.32715 0.18219 0.0
C547 C 0.90378 0.21138 0.26489 0.0
C548 C 0.90232 0.27681 0.27126 0.0
H549 H 0.90377 0.13692 0.22498 0.0
H550 H 0.90296 0.17838 0.28771 0.0
C551 C 0.90407 0.31803 0.24102 0.0
C552 C 0.89591 0.71003 0.704 0.0
C553 C 0.89527 0.77545 0.69735 0.0
H554 H 0.89637 0.63606 0.74424 0.0
C555 C 0.89838 0.81692 0.72739 0.0
H556 H 0.89402 0.67676 0.68136 0.0
C557 C 0.89953 0.79347 0.76348 0.0
C558 C 0.89802 0.72809 0.77023 0.0
H559 H 0.89811 0.86748 0.7232 0.0
H560 H 0.9003 0.82674 0.78619 0.0
C561 C 0.89748 0.68659 0.74004 0.0
C562 C 0.63345 0.32512 0.74472 0.0
C563 C 0.63144 0.2844 0.7752 0.0
H564 H 0.63783 0.3332 0.68602 0.0
C565 C 0.62833 0.21913 0.7689 0.0
H566 H 0.63588 0.37558 0.74863 0.0
C567 C 0.62927 0.19478 0.73304 0.0
C568 C 0.63377 0.23513 0.70271 0.0
H569 H 0.62643 0.18652 0.79184 0.0
H570 H 0.62817 0.14413 0.72931 0.0
C571 C 0.6348 0.30071 0.70885 0.0
C572 C 0.40051 0.21609 0.70858 0.0
C573 C 0.3994 0.28177 0.70291 0.0
H574 H 0.40044 0.14034 0.74771 0.0
C575 C 0.40134 0.32191 0.73368 0.0
H576 H 0.3995 0.18381 0.6854 0.0
C577 C 0.40173 0.29689 0.7694 0.0
C578 C 0.40052 0.23121 0.7751 0.0
H579 H 0.40073 0.37264 0.73031 0.0
H580 H 0.40161 0.32916 0.7926 0.0
C581 C 0.40123 0.19107 0.7443 0.0
C582 C 0.12976 0.81909 0.74142 0.0
C583 C 0.13162 0.77879 0.77209 0.0
H584 H 0.12962 0.82672 0.68251 0.0
C585 C 0.13042 0.71313 0.76622 0.0
H586 H 0.13047 0.8698 0.74494 0.0
C587 C 0.12969 0.68832 0.73042 0.0
C588 C 0.13053 0.72866 0.69971 0.0
H589 H 0.13137 0.6807 0.78932 0.0
H590 H 0.13044 0.63763 0.72687 0.0
C591 C 0.1294 0.79429 0.70562 0.0
C592 C 0.23635 0.53562 0.12835 0.0
C593 C 0.23657 0.46923 0.12762 0.0
H594 H 0.26471 0.62152 0.12852 0.0
C595 C 0.2677 0.43905 0.12847 0.0
H596 H 0.21307 0.56083 0.12757 0.0
C597 C 0.29752 0.47398 0.12854 0.0
C598 C 0.2973 0.54039 0.12835 0.0
H599 H 0.26914 0.38809 0.12759 0.0
H600 H 0.3208 0.4488 0.12788 0.0
C601 C 0.26616 0.57055 0.129 0.0
C602 C 0.73895 0.48047 0.34333 0.0
C603 C 0.74138 0.54641 0.34754 0.0
H604 H 0.76453 0.39192 0.34042 0.0
C605 C 0.77353 0.57316 0.3491 0.0
H606 H 0.71486 0.45772 0.34222 0.0
C607 C 0.80205 0.53538 0.34835 0.0
C608 C 0.79966 0.46931 0.34567 0.0
H609 H 0.77683 0.62356 0.3524 0.0
H610 H 0.82606 0.55811 0.35103 0.0
C611 C 0.76762 0.44258 0.34228 0.0
C612 C 0.79543 0.47524 0.84631 0.0
C613 C 0.79539 0.54163 0.84664 0.0
H614 H 0.76683 0.38968 0.84761 0.0
C615 C 0.76436 0.57218 0.84669 0.0
H616 H 0.81864 0.4498 0.84645 0.0
C617 C 0.73447 0.53759 0.84788 0.0
C618 C 0.73453 0.47121 0.84845 0.0
H619 H 0.76309 0.62316 0.84732 0.0
H620 H 0.71129 0.56304 0.84917 0.0
C621 C 0.76552 0.44065 0.8469 0.0
C622 C 0.26505 0.57018 0.62945 0.0
C623 C 0.23395 0.53937 0.62755 0.0
H624 H 0.31815 0.56166 0.62978 0.0
C625 C 0.23374 0.47296 0.62729 0.0
H626 H 0.26651 0.62118 0.62938 0.0
C627 C 0.26358 0.43866 0.62801 0.0
C628 C 0.29471 0.46955 0.62842 0.0
H629 H 0.2105 0.44729 0.62566 0.0
H630 H 0.26219 0.3877 0.62674 0.0
C631 C 0.29488 0.53592 0.6296 0.0
C632 C 0.76748 0.07112 0.128 0.0
C633 C 0.79845 0.04047 0.12645 0.0
H634 H 0.71436 0.06222 0.1285 0.0
C635 C 0.79841 0.97406 0.127 0.0
H636 H 0.76623 0.1221 0.12729 0.0
C637 C 0.76845 0.93958 0.12822 0.0
C638 C 0.73745 0.97026 0.12832 0.0
H639 H 0.82155 0.94852 0.12568 0.0
H640 H 0.76964 0.88859 0.12759 0.0
C641 C 0.73753 0.03666 0.12861 0.0
C642 C 0.26855 0.07198 0.3459 0.0
C643 C 0.23739 0.04124 0.34582 0.0
H644 H 0.32162 0.0631 0.34801 0.0
C645 C 0.23711 0.97486 0.34494 0.0
H646 H 0.27002 0.12296 0.34694 0.0
C647 C 0.26688 0.94044 0.3451 0.0
C648 C 0.29803 0.97112 0.34672 0.0
H649 H 0.21381 0.94924 0.34502 0.0
H650 H 0.26536 0.88945 0.34544 0.0
C651 C 0.29834 0.03753 0.34662 0.0
C652 C 0.23614 0.03572 0.84617 0.0
C653 C 0.23637 0.96932 0.84634 0.0
H654 H 0.26448 0.12163 0.84728 0.0
C655 C 0.26752 0.93918 0.84583 0.0
H656 H 0.21285 0.06088 0.84674 0.0
C657 C 0.29732 0.97413 0.84662 0.0
C658 C 0.29708 0.04052 0.84738 0.0
H659 H 0.26897 0.88821 0.8463 0.0
H660 H 0.3206 0.94895 0.8475 0.0
C661 C 0.26595 0.07068 0.84639 0.0
C662 C 0.79459 0.02914 0.62262 0.0
C663 C 0.79279 0.96287 0.62057 0.0
H664 H 0.76828 0.11674 0.62546 0.0
C665 C 0.76098 0.93471 0.62192 0.0
H666 H 0.8184 0.05291 0.62159 0.0
C667 C 0.73203 0.97149 0.62383 0.0
C668 C 0.73379 0.03782 0.62496 0.0
H669 H 0.75825 0.88397 0.62024 0.0
H670 H 0.70818 0.9478 0.62355 0.0
C671 C 0.76564 0.06591 0.62499 0.0
C672 C 0.26358 0.20222 0.96478 0.0
C673 C 0.29517 0.22333 0.9758 0.0
H674 H 0.21132 0.21551 0.96863 0.0
C675 C 0.29847 0.27575 -0.00099 0.0
H676 H 0.26065 0.16211 0.94645 0.0
C677 C 0.2704 0.30716 0.01079 0.0
C678 C 0.2388 0.2861 -0.00029 0.0
H679 H 0.32265 0.29389 0.0069 0.0
H680 H 0.27331 0.34727 0.02911 0.0
C681 C 0.2355 0.23364 0.97654 0.0
C682 C 0.29859 0.77388 0.97553 0.0
C683 C 0.29502 0.72427 0.00069 0.0
H684 H 0.27389 0.84234 0.94247 0.0
C685 C 0.26325 0.70515 0.01215 0.0
H686 H 0.32287 0.79052 0.96713 0.0
C687 C 0.23535 0.73569 -0.00116 0.0
C688 C 0.23892 0.78532 0.9737 0.0
H689 H 0.26004 0.66721 0.03189 0.0
H690 H 0.21107 0.71905 0.00725 0.0
C691 C 0.27068 0.8044 0.96221 0.0
C692 C 0.77758 0.65467 0.45976 0.0
C693 C 0.74836 0.65252 0.48079 0.0
H694 H 0.82458 0.70028 0.45245 0.0
C695 C 0.74823 0.67759 0.51641 0.0
H696 H 0.77808 0.63452 0.43223 0.0
C697 C 0.77406 0.71691 0.52734 0.0
C698 C 0.80059 0.72937 0.50313 0.0
H699 H 0.72603 0.6757 0.53319 0.0
H700 H 0.77196 0.74088 0.55365 0.0
C701 C 0.80361 0.69388 0.47071 0.0
C702 C 0.76061 0.29556 0.4577 0.0
C703 C 0.79205 0.27611 0.46995 0.0
H704 H 0.70824 0.28364 0.46224 0.0
C705 C 0.79487 0.22702 0.49552 0.0
H706 H 0.75797 0.33287 0.43746 0.0
C707 C 0.76653 0.19813 0.509 0.0
C708 C 0.73505 0.21856 0.49744 0.0
H709 H 0.81888 0.20991 0.50441 0.0
H710 H 0.76922 0.16092 0.5293 0.0
C711 C 0.73224 0.26663 0.4712 0.0
C712 C 0.76236 0.70774 0.96152 0.0
C713 C 0.79427 0.7252 0.97363 0.0
H714 H 0.71025 0.72161 0.96704 0.0
C715 C 0.79817 0.77166 0.00076 0.0
H716 H 0.75886 0.67215 0.94034 0.0
C717 C 0.77045 0.80078 0.01536 0.0
C718 C 0.73855 0.78342 0.00318 0.0
H719 H 0.82256 0.78697 0.00983 0.0
H720 H 0.77395 0.83638 0.03654 0.0
C721 C 0.73465 0.73689 0.9761 0.0
C722 C 0.76956 0.30819 0.96448 0.0
C723 C 0.73813 0.28681 0.97566 0.0
H724 H 0.8219 0.29525 0.96798 0.0
C725 C 0.73521 0.23418 -0.00129 0.0
H726 H 0.77219 0.34845 0.94625 0.0
C727 C 0.76349 0.20287 0.0102 0.0
C728 C 0.79492 0.22424 -0.00098 0.0
H729 H 0.71115 0.21581 0.0067 0.0
H730 H 0.76086 0.1626 0.02842 0.0
C731 C 0.79784 0.27689 0.97598 0.0
C732 C 0.26305 0.30772 0.51055 0.0
C733 C 0.29482 0.28824 0.49979 0.0
H734 H 0.21089 0.29284 0.50549 0.0
C735 C 0.29851 0.23738 0.47557 0.0
H736 H 0.25981 0.34666 0.52959 0.0
C737 C 0.27065 0.20575 0.46262 0.0
C738 C 0.23889 0.22502 0.47356 0.0
H739 H 0.32282 0.22052 0.46777 0.0
H740 H 0.27388 0.16677 0.44361 0.0
C741 C 0.2352 0.27606 0.49764 0.0
C742 C 0.29766 0.73755 0.49978 0.0
C743 C 0.2943 0.78789 0.47511 0.0
H744 H 0.27271 0.66732 0.53149 0.0
C745 C 0.26264 0.80662 0.46322 0.0
H746 H 0.32188 0.7212 0.50848 0.0
C747 C 0.23464 0.77492 0.47556 0.0
C748 C 0.238 0.72447 0.50016 0.0
H749 H 0.2596 0.84511 0.44383 0.0
H750 H 0.21043 0.79124 0.46683 0.0
C751 C 0.26966 0.70585 0.51213 0.0
C752 C 0.02896 0.28021 0.03332 0.0
C753 C 0.04114 0.305 0.06683 0.0
H754 H 0.99659 0.21424 0.00654 0.0
C755 C 0.02915 0.27917 0.10008 0.0
H756 H 0.03781 0.29812 0.00711 0.0
C757 C 1.00562 0.23007 0.09975 0.0
C758 C 0.99348 0.20537 0.06616 0.0
H759 H 0.03827 0.29625 0.12644 0.0
H760 H 0.9966 0.21213 0.12588 0.0
C761 C 1.00554 0.23125 0.03299 0.0
C762 C 0.50527 0.73179 0.10485 0.0
C763 C 0.49314 0.70674 0.07131 0.0
H764 H 0.53813 0.79796 0.13139 0.0
C765 C 0.50547 0.73206 0.03811 0.0
H766 H 0.49608 0.7143 0.131 0.0
C767 C 0.52908 0.78075 0.03833 0.0
C768 C 0.54126 0.80591 0.07177 0.0
H769 H 0.49657 0.71483 0.01169 0.0
H770 H 0.53806 0.79818 0.01207 0.0
C771 C 0.52904 0.78061 0.10507 0.0
C772 C 0.50694 0.78387 0.37629 0.0
C773 C 0.49385 0.81048 0.40886 0.0
H774 H 0.54305 0.72127 0.35247 0.0
C775 C 0.50656 0.78981 0.44295 0.0
H776 H 0.49737 0.79767 0.34952 0.0
C777 C 0.53197 0.74543 0.44458 0.0
C778 C 0.54573 0.71985 0.41221 0.0
H779 H 0.49692 0.808 0.46871 0.0
H780 H 0.54145 0.73215 0.4715 0.0
C781 C 0.53263 0.73901 0.37795 0.0
C782 C 0.02847 0.22112 0.4381 0.0
C783 C 0.0411 0.19805 0.40454 0.0
H784 H 0.99528 0.28442 0.46499 0.0
C785 C 0.02906 0.22411 0.37135 0.0
H786 H 0.03733 0.20295 0.46427 0.0
C787 C 1.00505 0.27184 0.37178 0.0
C788 C 0.99248 0.29483 0.40542 0.0
H789 H 0.03851 0.20833 0.34497 0.0
H790 H 0.99602 0.29004 0.34569 0.0
C791 C 1.00456 0.26868 0.43853 0.0
C792 C 1.00426 0.73049 0.93689 0.0
C793 C 0.99184 0.70575 0.90346 0.0
H794 H 0.03717 0.79572 0.96351 0.0
C795 C 1.00404 0.73104 0.87015 0.0
H796 H 0.9953 0.71304 0.96316 0.0
C797 C 0.02801 0.77948 0.87035 0.0
C798 C 0.04038 0.80411 0.90388 0.0
H799 H 0.99477 0.71401 0.84384 0.0
H800 H 0.03717 0.79698 0.84419 0.0
C801 C 0.02808 0.77879 0.9371 0.0
C802 C 0.52793 0.27944 0.94158 0.0
C803 C 0.53985 0.30558 0.90841 0.0
H804 H 0.49592 0.21213 0.96746 0.0
C805 C 0.52771 0.28089 0.87482 0.0
H806 H 0.53689 0.29643 0.96803 0.0
C807 C 0.5043 0.23156 0.87449 0.0
C808 C 0.49245 0.20547 0.90773 0.0
H809 H 0.53663 0.29904 0.8487 0.0
H810 H 0.49517 0.21449 0.84813 0.0
C811 C 0.50465 0.23024 0.94124 0.0
C812 C 0.52699 0.23754 0.60662 0.0
C813 C 0.53839 0.21135 0.57327 0.0
H814 H 0.49493 0.30473 0.63263 0.0
C815 C 0.52577 0.23557 0.53988 0.0
H816 H 0.53647 0.22087 0.63287 0.0
C817 C 0.50262 0.28439 0.53971 0.0
C818 C 0.49108 0.31063 0.57294 0.0
H819 H 0.53409 0.21736 0.51356 0.0
H820 H 0.49341 0.30092 0.51331 0.0
C821 C 0.50355 0.28644 0.60646 0.0
C822 C 0.02606 0.72616 0.53228 0.0
C823 C 0.0384 0.70186 0.56579 0.0
H824 H 0.99318 0.79056 0.50546 0.0
C825 C 0.02586 0.72668 0.59901 0.0
H826 H 0.03524 0.70901 0.50607 0.0
C827 C 1.00179 0.77443 0.59865 0.0
C828 C 0.98963 0.79887 0.56506 0.0
H829 H 0.03503 0.70996 0.62538 0.0
H830 H 0.99249 0.79177 0.62476 0.0
C831 C 1.00212 0.77379 0.53192 0.0
loop_
_geom_bond_atom_site_label_1
_geom_bond_atom_site_label_2
_geom_bond_distance
_geom_bond_site_symmetry_2
_ccdc_geom_bond_type
Sc0 O3 2.025 . S
Sc0 O10 2.105 . S
Sc0 O13 2.105 . S
Sc0 O16 2.105 . S
Sc0 O19 2.105 . S
Sc1 O3 2.025 . S
Sc1 O11 2.105 . S
Sc1 O15 2.105 . S
Sc1 O17 2.105 . S
Sc1 O21 2.105 . S
Sc2 O3 2.025 . S
Sc2 O12 2.105 . S
Sc2 O14 2.105 . S
Sc2 O18 2.105 . S
Sc2 O20 2.105 . S
O3 Sc0 2.025 . S
O3 Sc1 2.025 . S
O3 Sc2 2.025 . S
C4 O10 1.268 . S
C4 O20 1.268 . S
C5 O11 1.268 . S
C5 O19 1.268 . S
C6 O12 1.268 . S
C6 O21 1.268 . S
C7 O13 1.268 . S
C7 O17 1.268 . S
C8 O14 1.268 . S
C8 O16 1.268 . S
C9 O15 1.268 . S
C9 O18 1.268 . S
O10 Sc0 2.105 . S
O10 C4 1.268 . S
O11 Sc1 2.105 . S
O11 C5 1.268 . S
O12 Sc2 2.105 . S
O12 C6 1.268 . S
O13 Sc0 2.105 . S
O13 C7 1.268 . S
O14 Sc2 2.105 . S
O14 C8 1.268 . S
O15 Sc1 2.105 . S
O15 C9 1.268 . S
O16 Sc0 2.105 . S
O16 C8 1.268 . S
O17 Sc1 2.105 . S
O17 C7 1.268 . S
O18 Sc2 2.105 . S
O18 C9 1.268 . S
O19 Sc0 2.105 . S
O19 C5 1.268 . S
O20 Sc2 2.105 . S
O20 C4 1.268 . S
O21 Sc1 2.105 . S
O21 C6 1.268 . S
Sc22 O25 2.025 . S
Sc22 O32 2.105 . S
Sc22 O35 2.105 . S
Sc22 O38 2.105 . S
Sc22 O41 2.105 . S
Sc23 O25 2.025 . S
Sc23 O33 2.105 . S
Sc23 O37 2.105 . S
Sc23 O39 2.105 . S
Sc23 O43 2.105 . S
Sc24 O25 2.025 . S
Sc24 O34 2.105 . S
Sc24 O36 2.105 . S
Sc24 O40 2.105 . S
Sc24 O42 2.105 . S
O25 Sc22 2.025 . S
O25 Sc23 2.025 . S
O25 Sc24 2.025 . S
C26 O32 1.268 . S
C26 O42 1.268 . S
C27 O33 1.268 . S
C27 O41 1.268 . S
C28 O34 1.268 . S
C28 O43 1.268 . S
C29 O35 1.268 . S
C29 O39 1.268 . S
C30 O36 1.268 . S
C30 O38 1.268 . S
C31 O37 1.268 . S
C31 O40 1.268 . S
O32 Sc22 2.105 . S
O32 C26 1.268 . S
O33 Sc23 2.105 . S
O33 C27 1.268 . S
O34 Sc24 2.105 . S
O34 C28 1.268 . S
O35 Sc22 2.105 . S
O35 C29 1.268 . S
O36 Sc24 2.105 . S
O36 C30 1.268 . S
O37 Sc23 2.105 . S
O37 C31 1.268 . S
O38 Sc22 2.105 . S
O38 C30 1.268 . S
O39 Sc23 2.105 . S
O39 C29 1.268 . S
O40 Sc24 2.105 . S
O40 C31 1.268 . S
O41 Sc22 2.105 . S
O41 C27 1.268 . S
O42 Sc24 2.105 . S
O42 C26 1.268 . S
O43 Sc23 2.105 . S
O43 C28 1.268 . S
Sc44 O47 2.025 . S
Sc44 O54 2.105 . S
Sc44 O57 2.105 . S
Sc44 O60 2.105 . S
Sc44 O63 2.105 . S
Sc45 O47 2.025 . S
Sc45 O55 2.105 . S
Sc45 O59 2.105 . S
Sc45 O61 2.105 . S
Sc45 O65 2.105 . S
Sc46 O47 2.025 . S
Sc46 O56 2.105 . S
Sc46 O58 2.105 . S
Sc46 O62 2.105 . S
Sc46 O64 2.105 . S
O47 Sc44 2.025 . S
O47 Sc45 2.025 . S
O47 Sc46 2.025 . S
C48 O54 1.268 . S
C48 O64 1.268 . S
C49 O55 1.268 . S
C49 O63 1.268 . S
C50 O56 1.268 . S
C50 O65 1.268 . S
C51 O57 1.268 . S
C51 O61 1.268 . S
C52 O58 1.268 . S
C52 O60 1.268 . S
C53 O59 1.268 . S
C53 O62 1.268 . S
O54 Sc44 2.105 . S
O54 C48 1.268 . S
O55 Sc45 2.105 . S
O55 C49 1.268 . S
O56 Sc46 2.105 . S
O56 C50 1.268 . S
O57 Sc44 2.105 . S
O57 C51 1.268 . S
O58 Sc46 2.105 . S
O58 C52 1.268 . S
O59 Sc45 2.105 . S
O59 C53 1.268 . S
O60 Sc44 2.105 . S
O60 C52 1.268 . S
O61 Sc45 2.105 . S
O61 C51 1.268 . S
O62 Sc46 2.105 . S
O62 C53 1.268 . S
O63 Sc44 2.105 . S
O63 C49 1.268 . S
O64 Sc46 2.105 . S
O64 C48 1.268 . S
O65 Sc45 2.105 . S
O65 C50 1.268 . S
Sc66 O69 2.025 . S
Sc66 O76 2.105 . S
Sc66 O79 2.105 . S
Sc66 O82 2.105 . S
Sc66 O85 2.105 . S
Sc67 O69 2.025 . S
Sc67 O77 2.105 . S
Sc67 O81 2.105 . S
Sc67 O83 2.105 . S
Sc67 O87 2.105 . S
Sc68 O69 2.025 . S
Sc68 O78 2.105 . S
Sc68 O80 2.105 . S
Sc68 O84 2.105 . S
Sc68 O86 2.105 . S
O69 Sc66 2.025 . S
O69 Sc67 2.025 . S
O69 Sc68 2.025 . S
C70 O76 1.268 . S
C70 O86 1.268 . S
C71 O77 1.268 . S
C71 O85 1.268 . S
C72 O78 1.268 . S
C72 O87 1.268 . S
C73 O79 1.268 . S
C73 O83 1.268 . S
C74 O80 1.268 . S
C74 O82 1.268 . S
C75 O81 1.268 . S
C75 O84 1.268 . S
O76 Sc66 2.105 . S
O76 C70 1.268 . S
O77 Sc67 2.105 . S
O77 C71 1.268 . S
O78 Sc68 2.105 . S
O78 C72 1.268 . S
O79 Sc66 2.105 . S
O79 C73 1.268 . S
O80 Sc68 2.105 . S
O80 C74 1.268 . S
O81 Sc67 2.105 . S
O81 C75 1.268 . S
O82 Sc66 2.105 . S
O82 C74 1.268 . S
O83 Sc67 2.105 . S
O83 C73 1.268 . S
O84 Sc68 2.105 . S
O84 C75 1.268 . S
O85 Sc66 2.105 . S
O85 C71 1.268 . S
O86 Sc68 2.105 . S
O86 C70 1.268 . S
O87 Sc67 2.105 . S
O87 C72 1.268 . S
Sc88 O91 2.025 . S
Sc88 O98 2.105 . S
Sc88 O101 2.105 . S
Sc88 O104 2.105 . S
Sc88 O107 2.105 . S
Sc89 O91 2.025 . S
Sc89 O99 2.105 . S
Sc89 O103 2.105 . S
Sc89 O105 2.105 . S
Sc89 O109 2.105 . S
Sc90 O91 2.025 . S
Sc90 O100 2.105 . S
Sc90 O102 2.105 . S
Sc90 O106 2.105 . S
Sc90 O108 2.105 . S
O91 Sc88 2.025 . S
O91 Sc89 2.025 . S
O91 Sc90 2.025 . S
C92 O98 1.268 . S
C92 O108 1.268 . S
C93 O99 1.268 . S
C93 O107 1.268 . S
C94 O100 1.268 . S
C94 O109 1.268 . S
C95 O101 1.268 . S
C95 O105 1.268 . S
C96 O102 1.268 . S
C96 O104 1.268 . S
C97 O103 1.268 . S
C97 O106 1.268 . S
O98 Sc88 2.105 . S
O98 C92 1.268 . S
O99 Sc89 2.105 . S
O99 C93 1.268 . S
O100 Sc90 2.105 . S
O100 C94 1.268 . S
O101 Sc88 2.105 . S
O101 C95 1.268 . S
O102 Sc90 2.105 . S
O102 C96 1.268 . S
O103 Sc89 2.105 . S
O103 C97 1.268 . S
O104 Sc88 2.105 . S
O104 C96 1.268 . S
O105 Sc89 2.105 . S
O105 C95 1.268 . S
O106 Sc90 2.105 . S
O106 C97 1.268 . S
O107 Sc88 2.105 . S
O107 C93 1.268 . S
O108 Sc90 2.105 . S
O108 C92 1.268 . S
O109 Sc89 2.105 . S
O109 C94 1.268 . S
Sc110 O113 2.025 . S
Sc110 O120 2.105 . S
Sc110 O123 2.105 . S
Sc110 O126 2.105 . S
Sc110 O129 2.105 . S
Sc111 O113 2.025 . S
Sc111 O121 2.105 . S
Sc111 O125 2.105 . S
Sc111 O127 2.105 . S
Sc111 O131 2.105 . S
Sc112 O113 2.025 . S
Sc112 O122 2.105 . S
Sc112 O124 2.105 . S
Sc112 O128 2.105 . S
Sc112 O130 2.105 . S
O113 Sc110 2.025 . S
O113 Sc111 2.025 . S
O113 Sc112 2.025 . S
C114 O120 1.268 . S
C114 O130 1.268 . S
C115 O121 1.268 . S
C115 O129 1.268 . S
C116 O122 1.268 . S
C116 O131 1.268 . S
C117 O123 1.268 . S
C117 O127 1.268 . S
C118 O124 1.268 . S
C118 O126 1.268 . S
C119 O125 1.268 . S
C119 O128 1.268 . S
O120 Sc110 2.105 . S
O120 C114 1.268 . S
O121 Sc111 2.105 . S
O121 C115 1.268 . S
O122 Sc112 2.105 . S
O122 C116 1.268 . S
O123 Sc110 2.105 . S
O123 C117 1.268 . S
O124 Sc112 2.105 . S
O124 C118 1.268 . S
O125 Sc111 2.105 . S
O125 C119 1.268 . S
O126 Sc110 2.105 . S
O126 C118 1.268 . S
O127 Sc111 2.105 . S
O127 C117 1.268 . S
O128 Sc112 2.105 . S
O128 C119 1.268 . S
O129 Sc110 2.105 . S
O129 C115 1.268 . S
O130 Sc112 2.105 . S
O130 C114 1.268 . S
O131 Sc111 2.105 . S
O131 C116 1.268 . S
Sc132 O135 2.025 . S
Sc132 O142 2.105 . S
Sc132 O145 2.105 . S
Sc132 O148 2.105 . S
Sc132 O151 2.105 . S
Sc133 O135 2.025 . S
Sc133 O143 2.105 . S
Sc133 O147 2.105 . S
Sc133 O149 2.105 . S
Sc133 O153 2.105 . S
Sc134 O135 2.025 . S
Sc134 O144 2.105 . S
Sc134 O146 2.105 . S
Sc134 O150 2.105 . S
Sc134 O152 2.105 . S
O135 Sc132 2.025 . S
O135 Sc133 2.025 . S
O135 Sc134 2.025 . S
C136 O142 1.268 . S
C136 O152 1.268 . S
C137 O143 1.268 . S
C137 O151 1.268 . S
C138 O144 1.268 . S
C138 O153 1.268 . S
C139 O145 1.268 . S
C139 O149 1.268 . S
C140 O146 1.268 . S
C140 O148 1.268 . S
C141 O147 1.268 . S
C141 O150 1.268 . S
O142 Sc132 2.105 . S
O142 C136 1.268 . S
O143 Sc133 2.105 . S
O143 C137 1.268 . S
O144 Sc134 2.105 . S
O144 C138 1.268 . S
O145 Sc132 2.105 . S
O145 C139 1.268 . S
O146 Sc134 2.105 . S
O146 C140 1.268 . S
O147 Sc133 2.105 . S
O147 C141 1.268 . S
O148 Sc132 2.105 . S
O148 C140 1.268 . S
O149 Sc133 2.105 . S
O149 C139 1.268 . S
O150 Sc134 2.105 . S
O150 C141 1.268 . S
O151 Sc132 2.105 . S
O151 C137 1.268 . S
O152 Sc134 2.105 . S
O152 C136 1.268 . S
O153 Sc133 2.105 . S
O153 C138 1.268 . S
Sc154 O157 2.025 . S
Sc154 O164 2.105 . S
Sc154 O167 2.105 . S
Sc154 O170 2.105 . S
Sc154 O173 2.105 . S
Sc155 O157 2.025 . S
Sc155 O165 2.105 . S
Sc155 O169 2.105 . S
Sc155 O171 2.105 . S
Sc155 O175 2.105 . S
Sc156 O157 2.025 . S
Sc156 O166 2.105 . S
Sc156 O168 2.105 . S
Sc156 O172 2.105 . S
Sc156 O174 2.105 . S
O157 Sc154 2.025 . S
O157 Sc155 2.025 . S
O157 Sc156 2.025 . S
C158 O164 1.268 . S
C158 O174 1.268 . S
C159 O165 1.268 . S
C159 O173 1.268 . S
C160 O166 1.268 . S
C160 O175 1.268 . S
C161 O167 1.268 . S
C161 O171 1.268 . S
C162 O168 1.268 . S
C162 O170 1.268 . S
C163 O169 1.268 . S
C163 O172 1.268 . S
O164 Sc154 2.105 . S
O164 C158 1.268 . S
O165 Sc155 2.105 . S
O165 C159 1.268 . S
O166 Sc156 2.105 . S
O166 C160 1.268 . S
O167 Sc154 2.105 . S
O167 C161 1.268 . S
O168 Sc156 2.105 . S
O168 C162 1.268 . S
O169 Sc155 2.105 . S
O169 C163 1.268 . S
O170 Sc154 2.105 . S
O170 C162 1.268 . S
O171 Sc155 2.105 . S
O171 C161 1.268 . S
O172 Sc156 2.105 . S
O172 C163 1.268 . S
O173 Sc154 2.105 . S
O173 C159 1.268 . S
O174 Sc156 2.105 . S
O174 C158 1.268 . S
O175 Sc155 2.105 . S
O175 C160 1.268 . S
Sc176 O179 2.025 . S
Sc176 O186 2.105 . S
Sc176 O189 2.105 . S
Sc176 O192 2.105 . S
Sc176 O195 2.105 . S
Sc177 O179 2.025 . S
Sc177 O187 2.105 . S
Sc177 O191 2.105 . S
Sc177 O193 2.105 . S
Sc177 O197 2.105 . S
Sc178 O179 2.025 . S
Sc178 O188 2.105 . S
Sc178 O190 2.105 . S
Sc178 O194 2.105 . S
Sc178 O196 2.105 . S
O179 Sc176 2.025 . S
O179 Sc177 2.025 . S
O179 Sc178 2.025 . S
C180 O186 1.268 . S
C180 O196 1.268 . S
C181 O187 1.268 . S
C181 O195 1.268 . S
C182 O188 1.268 . S
C182 O197 1.268 . S
C183 O189 1.268 . S
C183 O193 1.268 . S
C184 O190 1.268 . S
C184 O192 1.268 . S
C185 O191 1.268 . S
C185 O194 1.268 . S
O186 Sc176 2.105 . S
O186 C180 1.268 . S
O187 Sc177 2.105 . S
O187 C181 1.268 . S
O188 Sc178 2.105 . S
O188 C182 1.268 . S
O189 Sc176 2.105 . S
O189 C183 1.268 . S
O190 Sc178 2.105 . S
O190 C184 1.268 . S
O191 Sc177 2.105 . S
O191 C185 1.268 . S
O192 Sc176 2.105 . S
O192 C184 1.268 . S
O193 Sc177 2.105 . S
O193 C183 1.268 . S
O194 Sc178 2.105 . S
O194 C185 1.268 . S
O195 Sc176 2.105 . S
O195 C181 1.268 . S
O196 Sc178 2.105 . S
O196 C180 1.268 . S
O197 Sc177 2.105 . S
O197 C182 1.268 . S
Sc198 O201 2.025 . S
Sc198 O208 2.105 . S
Sc198 O211 2.105 . S
Sc198 O214 2.105 . S
Sc198 O217 2.105 . S
Sc199 O201 2.025 . S
Sc199 O209 2.105 . S
Sc199 O213 2.105 . S
Sc199 O215 2.105 . S
Sc199 O219 2.105 . S
Sc200 O201 2.025 . S
Sc200 O210 2.105 . S
Sc200 O212 2.105 . S
Sc200 O216 2.105 . S
Sc200 O218 2.105 . S
O201 Sc198 2.025 . S
O201 Sc199 2.025 . S
O201 Sc200 2.025 . S
C202 O208 1.268 . S
C202 O218 1.268 . S
C203 O209 1.268 . S
C203 O217 1.268 . S
C204 O210 1.268 . S
C204 O219 1.268 . S
C205 O211 1.268 . S
C205 O215 1.268 . S
C206 O212 1.268 . S
C206 O214 1.268 . S
C207 O213 1.268 . S
C207 O216 1.268 . S
O208 Sc198 2.105 . S
O208 C202 1.268 . S
O209 Sc199 2.105 . S
O209 C203 1.268 . S
O210 Sc200 2.105 . S
O210 C204 1.268 . S
O211 Sc198 2.105 . S
O211 C205 1.268 . S
O212 Sc200 2.105 . S
O212 C206 1.268 . S
O213 Sc199 2.105 . S
O213 C207 1.268 . S
O214 Sc198 2.105 . S
O214 C206 1.268 . S
O215 Sc199 2.105 . S
O215 C205 1.268 . S
O216 Sc200 2.105 . S
O216 C207 1.268 . S
O217 Sc198 2.105 . S
O217 C203 1.268 . S
O218 Sc200 2.105 . S
O218 C202 1.268 . S
O219 Sc199 2.105 . S
O219 C204 1.268 . S
Sc220 O223 2.025 . S
Sc220 O230 2.105 . S
Sc220 O233 2.105 . S
Sc220 O236 2.105 . S
Sc220 O239 2.105 . S
Sc221 O223 2.025 . S
Sc221 O231 2.105 . S
Sc221 O235 2.105 . S
Sc221 O237 2.105 . S
Sc221 O241 2.105 . S
Sc222 O223 2.025 . S
Sc222 O232 2.105 . S
Sc222 O234 2.105 . S
Sc222 O238 2.105 . S
Sc222 O240 2.105 . S
O223 Sc220 2.025 . S
O223 Sc221 2.025 . S
O223 Sc222 2.025 . S
C224 O230 1.268 . S
C224 O240 1.268 . S
C225 O231 1.268 . S
C225 O239 1.268 . S
C226 O232 1.268 . S
C226 O241 1.268 . S
C227 O233 1.268 . S
C227 O237 1.268 . S
C228 O234 1.268 . S
C228 O236 1.268 . S
C229 O235 1.268 . S
C229 O238 1.268 . S
O230 Sc220 2.105 . S
O230 C224 1.268 . S
O231 Sc221 2.105 . S
O231 C225 1.268 . S
O232 Sc222 2.105 . S
O232 C226 1.268 . S
O233 Sc220 2.105 . S
O233 C227 1.268 . S
O234 Sc222 2.105 . S
O234 C228 1.268 . S
O235 Sc221 2.105 . S
O235 C229 1.268 . S
O236 Sc220 2.105 . S
O236 C228 1.268 . S
O237 Sc221 2.105 . S
O237 C227 1.268 . S
O238 Sc222 2.105 . S
O238 C229 1.268 . S
O239 Sc220 2.105 . S
O239 C225 1.268 . S
O240 Sc222 2.105 . S
O240 C224 1.268 . S
O241 Sc221 2.105 . S
O241 C226 1.268 . S
Sc242 O245 2.025 . S
Sc242 O252 2.105 . S
Sc242 O255 2.105 . S
Sc242 O258 2.105 . S
Sc242 O261 2.105 . S
Sc243 O245 2.025 . S
Sc243 O253 2.105 . S
Sc243 O257 2.105 . S
Sc243 O259 2.105 . S
Sc243 O263 2.105 . S
Sc244 O245 2.025 . S
Sc244 O254 2.105 . S
Sc244 O256 2.105 . S
Sc244 O260 2.105 . S
Sc244 O262 2.105 . S
O245 Sc242 2.025 . S
O245 Sc243 2.025 . S
O245 Sc244 2.025 . S
C246 O252 1.268 . S
C246 O262 1.268 . S
C247 O253 1.268 . S
C247 O261 1.268 . S
C248 O254 1.268 . S
C248 O263 1.268 . S
C249 O255 1.268 . S
C249 O259 1.268 . S
C250 O256 1.268 . S
C250 O258 1.268 . S
C251 O257 1.268 . S
C251 O260 1.268 . S
O252 Sc242 2.105 . S
O252 C246 1.268 . S
O253 Sc243 2.105 . S
O253 C247 1.268 . S
O254 Sc244 2.105 . S
O254 C248 1.268 . S
O255 Sc242 2.105 . S
O255 C249 1.268 . S
O256 Sc244 2.105 . S
O256 C250 1.268 . S
O257 Sc243 2.105 . S
O257 C251 1.268 . S
O258 Sc242 2.105 . S
O258 C250 1.268 . S
O259 Sc243 2.105 . S
O259 C249 1.268 . S
O260 Sc244 2.105 . S
O260 C251 1.268 . S
O261 Sc242 2.105 . S
O261 C247 1.268 . S
O262 Sc244 2.105 . S
O262 C246 1.268 . S
O263 Sc243 2.105 . S
O263 C248 1.268 . S
Sc264 O267 2.025 . S
Sc264 O274 2.105 . S
Sc264 O277 2.105 . S
Sc264 O280 2.105 . S
Sc264 O283 2.105 . S
Sc265 O267 2.025 . S
Sc265 O275 2.105 . S
Sc265 O279 2.105 . S
Sc265 O281 2.105 . S
Sc265 O285 2.105 . S
Sc266 O267 2.025 . S
Sc266 O276 2.105 . S
Sc266 O278 2.105 . S
Sc266 O282 2.105 . S
Sc266 O284 2.105 . S
O267 Sc264 2.025 . S
O267 Sc265 2.025 . S
O267 Sc266 2.025 . S
C268 O274 1.268 . S
C268 O284 1.268 . S
C269 O275 1.268 . S
C269 O283 1.268 . S
C270 O276 1.268 . S
C270 O285 1.268 . S
C271 O277 1.268 . S
C271 O281 1.268 . S
C272 O278 1.268 . S
C272 O280 1.268 . S
C273 O279 1.268 . S
C273 O282 1.268 . S
O274 Sc264 2.105 . S
O274 C268 1.268 . S
O275 Sc265 2.105 . S
O275 C269 1.268 . S
O276 Sc266 2.105 . S
O276 C270 1.268 . S
O277 Sc264 2.105 . S
O277 C271 1.268 . S
O278 Sc266 2.105 . S
O278 C272 1.268 . S
O279 Sc265 2.105 . S
O279 C273 1.268 . S
O280 Sc264 2.105 . S
O280 C272 1.268 . S
O281 Sc265 2.105 . S
O281 C271 1.268 . S
O282 Sc266 2.105 . S
O282 C273 1.268 . S
O283 Sc264 2.105 . S
O283 C269 1.268 . S
O284 Sc266 2.105 . S
O284 C268 1.268 . S
O285 Sc265 2.105 . S
O285 C270 1.268 . S
Sc286 O289 2.025 . S
Sc286 O296 2.105 . S
Sc286 O299 2.105 . S
Sc286 O302 2.105 . S
Sc286 O305 2.105 . S
Sc287 O289 2.025 . S
Sc287 O297 2.105 . S
Sc287 O301 2.105 . S
Sc287 O303 2.105 . S
Sc287 O307 2.105 . S
Sc288 O289 2.025 . S
Sc288 O298 2.105 . S
Sc288 O300 2.105 . S
Sc288 O304 2.105 . S
Sc288 O306 2.105 . S
O289 Sc286 2.025 . S
O289 Sc287 2.025 . S
O289 Sc288 2.025 . S
C290 O296 1.268 . S
C290 O306 1.268 . S
C291 O297 1.268 . S
C291 O305 1.268 . S
C292 O298 1.268 . S
C292 O307 1.268 . S
C293 O299 1.268 . S
C293 O303 1.268 . S
C294 O300 1.268 . S
C294 O302 1.268 . S
C295 O301 1.268 . S
C295 O304 1.268 . S
O296 Sc286 2.105 . S
O296 C290 1.268 . S
O297 Sc287 2.105 . S
O297 C291 1.268 . S
O298 Sc288 2.105 . S
O298 C292 1.268 . S
O299 Sc286 2.105 . S
O299 C293 1.268 . S
O300 Sc288 2.105 . S
O300 C294 1.268 . S
O301 Sc287 2.105 . S
O301 C295 1.268 . S
O302 Sc286 2.105 . S
O302 C294 1.268 . S
O303 Sc287 2.105 . S
O303 C293 1.268 . S
O304 Sc288 2.105 . S
O304 C295 1.268 . S
O305 Sc286 2.105 . S
O305 C291 1.268 . S
O306 Sc288 2.105 . S
O306 C290 1.268 . S
O307 Sc287 2.105 . S
O307 C292 1.268 . S
Sc308 O311 2.025 . S
Sc308 O318 2.105 . S
Sc308 O321 2.105 . S
Sc308 O324 2.105 . S
Sc308 O327 2.105 . S
Sc309 O311 2.025 . S
Sc309 O319 2.105 . S
Sc309 O323 2.105 . S
Sc309 O325 2.105 . S
Sc309 O329 2.105 . S
Sc310 O311 2.025 . S
Sc310 O320 2.105 . S
Sc310 O322 2.105 . S
Sc310 O326 2.105 . S
Sc310 O328 2.105 . S
O311 Sc308 2.025 . S
O311 Sc309 2.025 . S
O311 Sc310 2.025 . S
C312 O318 1.268 . S
C312 O328 1.268 . S
C313 O319 1.268 . S
C313 O327 1.268 . S
C314 O320 1.268 . S
C314 O329 1.268 . S
C315 O321 1.268 . S
C315 O325 1.268 . S
C316 O322 1.268 . S
C316 O324 1.268 . S
C317 O323 1.268 . S
C317 O326 1.268 . S
O318 Sc308 2.105 . S
O318 C312 1.268 . S
O319 Sc309 2.105 . S
O319 C313 1.268 . S
O320 Sc310 2.105 . S
O320 C314 1.268 . S
O321 Sc308 2.105 . S
O321 C315 1.268 . S
O322 Sc310 2.105 . S
O322 C316 1.268 . S
O323 Sc309 2.105 . S
O323 C317 1.268 . S
O324 Sc308 2.105 . S
O324 C316 1.268 . S
O325 Sc309 2.105 . S
O325 C315 1.268 . S
O326 Sc310 2.105 . S
O326 C317 1.268 . S
O327 Sc308 2.105 . S
O327 C313 1.268 . S
O328 Sc310 2.105 . S
O328 C312 1.268 . S
O329 Sc309 2.105 . S
O329 C314 1.268 . S
Sc330 O333 2.025 . S
Sc330 O340 2.105 . S
Sc330 O343 2.105 . S
Sc330 O346 2.105 . S
Sc330 O349 2.105 . S
Sc331 O333 2.025 . S
Sc331 O341 2.105 . S
Sc331 O345 2.105 . S
Sc331 O347 2.105 . S
Sc331 O351 2.105 . S
Sc332 O333 2.025 . S
Sc332 O342 2.105 . S
Sc332 O344 2.105 . S
Sc332 O348 2.105 . S
Sc332 O350 2.105 . S
O333 Sc330 2.025 . S
O333 Sc331 2.025 . S
O333 Sc332 2.025 . S
C334 O340 1.268 . S
C334 O350 1.268 . S
C335 O341 1.268 . S
C335 O349 1.268 . S
C336 O342 1.268 . S
C336 O351 1.268 . S
C337 O343 1.268 . S
C337 O347 1.268 . S
C338 O344 1.268 . S
C338 O346 1.268 . S
C339 O345 1.268 . S
C339 O348 1.268 . S
O340 Sc330 2.105 . S
O340 C334 1.268 . S
O341 Sc331 2.105 . S
O341 C335 1.268 . S
O342 Sc332 2.105 . S
O342 C336 1.268 . S
O343 Sc330 2.105 . S
O343 C337 1.268 . S
O344 Sc332 2.105 . S
O344 C338 1.268 . S
O345 Sc331 2.105 . S
O345 C339 1.268 . S
O346 Sc330 2.105 . S
O346 C338 1.268 . S
O347 Sc331 2.105 . S
O347 C337 1.268 . S
O348 Sc332 2.105 . S
O348 C339 1.268 . S
O349 Sc330 2.105 . S
O349 C335 1.268 . S
O350 Sc332 2.105 . S
O350 C334 1.268 . S
O351 Sc331 2.105 . S
O351 C336 1.268 . S
C352 C353 1.387 . S
C352 H356 0.950 . S
C352 C361 1.390 1_545 S
C353 C352 1.387 . S
C353 C355 1.387 . S
H354 C361 0.950 . S
C355 C353 1.387 . S
C355 C357 1.390 1_554 S
C355 H359 0.950 . S
H356 C352 0.950 . S
C357 C355 1.390 1_556 S
C357 C358 1.387 1_545 S
C357 H360 0.950 . S
C358 C357 1.387 1_565 S
C358 C361 1.387 1_556 S
H359 C355 0.950 . S
H360 C357 0.950 . S
C361 C352 1.390 1_565 S
C361 H354 0.950 . S
C361 C358 1.387 1_554 S
C362 C363 1.387 1_564 S
C362 H366 0.950 1_565 S
C362 C371 1.390 . S
C363 C362 1.387 1_546 S
C363 C365 1.387 1_546 S
H364 C371 0.950 . S
C365 C363 1.387 1_564 S
C365 C367 1.390 . S
C365 H369 0.950 . S
H366 C362 0.950 1_545 S
C367 C365 1.390 . S
C367 C368 1.387 . S
C367 H370 0.950 . S
C368 C367 1.387 . S
C368 C371 1.387 . S
H369 C365 0.950 . S
H370 C367 0.950 . S
C371 C362 1.390 . S
C371 H364 0.950 . S
C371 C368 1.387 . S
C372 C373 1.387 . S
C372 H376 0.950 . S
C372 C381 1.390 1_545 S
C373 C372 1.387 . S
C373 C375 1.387 1_545 S
H374 C381 0.950 . S
C375 C373 1.387 1_565 S
C375 C377 1.390 . S
C375 H379 0.950 . S
H376 C372 0.950 . S
C377 C375 1.390 . S
C377 C378 1.387 . S
C377 H380 0.950 . S
C378 C377 1.387 . S
C378 C381 1.387 . S
H379 C375 0.950 . S
H380 C377 0.950 . S
C381 C372 1.390 1_565 S
C381 H374 0.950 . S
C381 C378 1.387 . S
C382 C383 1.387 1_545 S
C382 H386 0.950 . S
C382 C391 1.390 . S
C383 C382 1.387 1_565 S
C383 C385 1.387 . S
H384 C391 0.950 . S
C385 C383 1.387 . S
C385 C387 1.390 1_565 S
C385 H389 0.950 . S
H386 C382 0.950 . S
C387 C385 1.390 1_545 S
C387 C388 1.387 . S
C387 H390 0.950 . S
C388 C387 1.387 . S
C388 C391 1.387 . S
H389 C385 0.950 . S
H390 C387 0.950 . S
C391 C382 1.390 . S
C391 H384 0.950 . S
C391 C388 1.387 . S
C392 C393 1.387 1_566 S
C392 H396 0.950 1_556 S
C392 C401 1.390 . S
C393 C392 1.387 1_544 S
C393 C395 1.387 1_544 S
H394 C401 0.950 . S
C395 C393 1.387 1_566 S
C395 C397 1.390 . S
C395 H399 0.950 1_565 S
H396 C392 0.950 1_554 S
C397 C395 1.390 . S
C397 C398 1.387 . S
C397 H400 0.950 . S
C398 C397 1.387 . S
C398 C401 1.387 . S
H399 C395 0.950 1_545 S
H400 C397 0.950 . S
C401 C392 1.390 . S
C401 H394 0.950 . S
C401 C398 1.387 . S
C402 C403 1.387 . S
C402 H406 0.950 . S
C402 C411 1.390 1_556 S
C403 C402 1.387 . S
C403 C405 1.387 . S
H404 C411 0.950 . S
C405 C403 1.387 . S
C405 C407 1.390 . S
C405 H409 0.950 . S
H406 C402 0.950 . S
C407 C405 1.390 . S
C407 C408 1.387 1_546 S
C407 H410 0.950 1_545 S
C408 C407 1.387 1_564 S
C408 C411 1.387 1_565 S
H409 C405 0.950 . S
H410 C407 0.950 1_565 S
C411 C402 1.390 1_554 S
C411 H404 0.950 . S
C411 C408 1.387 1_545 S
C412 C413 1.387 1_545 S
C412 H416 0.950 1_545 S
C412 C421 1.390 . S
C413 C412 1.387 1_565 S
C413 C415 1.387 1_565 S
H414 C421 0.950 . S
C415 C413 1.387 1_545 S
C415 C417 1.390 . S
C415 H419 0.950 . S
H416 C412 0.950 1_565 S
C417 C415 1.390 . S
C417 C418 1.387 . S
C417 H420 0.950 . S
C418 C417 1.387 . S
C418 C421 1.387 . S
H419 C415 0.950 . S
H420 C417 0.950 . S
C421 C412 1.390 . S
C421 H414 0.950 . S
C421 C418 1.387 . S
C422 C423 1.387 . S
C422 H426 0.950 . S
C422 C431 1.390 . S
C423 C422 1.387 . S
C423 C425 1.387 . S
H424 C431 0.950 1_545 S
C425 C423 1.387 . S
C425 C427 1.390 . S
C425 H429 0.950 . S
H426 C422 0.950 . S
C427 C425 1.390 . S
C427 C428 1.387 1_565 S
C427 H430 0.950 . S
C428 C427 1.387 1_545 S
C428 C431 1.387 1_545 S
H429 C425 0.950 . S
H430 C427 0.950 . S
C431 C422 1.390 . S
C431 H424 0.950 1_565 S
C431 C428 1.387 1_565 S
C432 C433 1.387 1_554 S
C432 H436 0.950 . S
C432 C441 1.390 . S
C433 C432 1.387 1_556 S
C433 C435 1.387 1_556 S
H434 C441 0.950 . S
C435 C433 1.387 1_554 S
C435 C437 1.390 . S
C435 H439 0.946 1_554 S
H436 C432 0.950 . S
C437 C435 1.390 . S
C437 C438 1.387 . S
C437 H440 0.950 . S
C438 C437 1.387 . S
C438 C441 1.387 . S
H439 C435 0.946 1_556 S
H440 C437 0.950 . S
C441 C432 1.390 . S
C441 H434 0.950 . S
C441 C438 1.387 . S
C442 C443 1.387 . S
C442 H446 0.950 . S
C442 C451 1.390 . S
C443 C442 1.387 . S
C443 C445 1.387 . S
H444 C451 0.950 . S
C445 C443 1.387 . S
C445 C447 1.390 1_554 S
C445 H449 0.950 . S
H446 C442 0.950 . S
C447 C445 1.390 1_556 S
C447 C448 1.387 . S
C447 H450 0.950 . S
C448 C447 1.387 . S
C448 C451 1.387 1_556 S
H449 C445 0.950 . S
H450 C447 0.950 . S
C451 C442 1.390 . S
C451 H444 0.950 . S
C451 C448 1.387 1_554 S
C452 C453 1.387 . S
C452 H456 0.950 . S
C452 C461 1.390 . S
C453 C452 1.387 . S
C453 C455 1.387 . S
H454 C461 0.950 . S
C455 C453 1.387 . S
C455 C457 1.390 . S
C455 H459 0.950 . S
H456 C452 0.950 . S
C457 C455 1.390 . S
C457 C458 1.387 . S
C457 H460 0.950 . S
C458 C457 1.387 . S
C458 C461 1.387 . S
H459 C455 0.950 . S
H460 C457 0.950 . S
C461 C452 1.390 . S
C461 H454 0.950 . S
C461 C458 1.387 . S
C462 C463 1.387 . S
C462 H466 0.950 . S
C462 C471 1.390 . S
C463 C462 1.387 . S
C463 C465 1.387 . S
H464 C471 0.950 . S
C465 C463 1.387 . S
C465 C467 1.390 . S
C465 H469 0.950 . S
H466 C462 0.950 . S
C467 C465 1.390 . S
C467 C468 1.387 . S
C467 H470 0.950 . S
C468 C467 1.387 . S
C468 C471 1.387 . S
H469 C465 0.950 . S
H470 C467 0.950 . S
C471 C462 1.390 . S
C471 H464 0.950 . S
C471 C468 1.387 . S
C472 C473 1.387 . S
C472 H476 0.950 . S
C472 C481 1.382 1_556 S
C473 C472 1.387 . S
C473 C475 1.387 . S
H474 C481 0.957 . S
C475 C473 1.387 . S
C475 C477 1.390 . S
C475 H479 0.950 . S
H476 C472 0.950 . S
C477 C475 1.390 . S
C477 C478 1.387 1_556 S
C477 H480 0.950 . S
C478 C477 1.387 1_554 S
C478 C481 1.388 . S
H479 C475 0.950 . S
H480 C477 0.950 . S
C481 C472 1.382 1_554 S
C481 H474 0.957 . S
C481 C478 1.388 . S
C482 C483 1.387 1_556 S
C482 H486 0.950 . S
C482 C491 1.390 . S
C483 C482 1.387 1_554 S
C483 C485 1.387 1_554 S
H484 C491 0.950 . S
C485 C483 1.387 1_556 S
C485 C487 1.390 . S
C485 H489 0.950 1_556 S
H486 C482 0.950 . S
C487 C485 1.390 . S
C487 C488 1.387 . S
C487 H490 0.950 . S
C488 C487 1.387 . S
C488 C491 1.387 . S
H489 C485 0.950 1_554 S
H490 C487 0.950 . S
C491 C482 1.390 . S
C491 H484 0.950 . S
C491 C488 1.387 . S
C492 C493 1.387 . S
C492 H496 0.950 . S
C492 C501 1.390 . S
C493 C492 1.387 . S
C493 C495 1.387 . S
H494 C501 0.950 . S
C495 C493 1.387 . S
C495 C497 1.390 . S
C495 H499 0.950 . S
H496 C492 0.950 . S
C497 C495 1.390 . S
C497 C498 1.387 . S
C497 H500 0.950 . S
C498 C497 1.387 . S
C498 C501 1.387 . S
H499 C495 0.950 . S
H500 C497 0.950 . S
C501 C492 1.390 . S
C501 H494 0.950 . S
C501 C498 1.387 . S
C502 C503 1.387 . S
C502 H506 0.950 . S
C502 C511 1.390 . S
C503 C502 1.387 . S
C503 C505 1.387 . S
H504 C511 0.950 . S
C505 C503 1.387 . S
C505 C507 1.390 . S
C505 H509 0.950 . S
H506 C502 0.950 . S
C507 C505 1.390 . S
C507 C508 1.387 . S
C507 H510 0.950 . S
C508 C507 1.387 . S
C508 C511 1.387 . S
H509 C505 0.950 . S
H510 C507 0.950 . S
C511 C502 1.390 . S
C511 H504 0.950 . S
C511 C508 1.387 . S
C512 C513 1.387 . S
C512 H516 0.950 . S
C512 C521 1.390 . S
C513 C512 1.387 . S
C513 C515 1.387 . S
H514 C521 0.950 . S
C515 C513 1.387 . S
C515 C517 1.390 . S
C515 H519 0.950 . S
H516 C512 0.950 . S
C517 C515 1.390 . S
C517 C518 1.387 . S
C517 H520 0.950 . S
C518 C517 1.387 . S
C518 C521 1.387 . S
H519 C515 0.950 . S
H520 C517 0.950 . S
C521 C512 1.390 . S
C521 H514 0.950 . S
C521 C518 1.387 . S
C522 C523 1.387 . S
C522 H526 0.950 . S
C522 C531 1.390 . S
C523 C522 1.387 . S
C523 C525 1.387 . S
H524 C531 0.950 . S
C525 C523 1.387 . S
C525 C527 1.390 . S
C525 H529 0.950 . S
H526 C522 0.950 . S
C527 C525 1.390 . S
C527 C528 1.387 . S
C527 H530 0.950 . S
C528 C527 1.387 . S
C528 C531 1.387 . S
H529 C525 0.950 . S
H530 C527 0.950 . S
C531 C522 1.390 . S
C531 H524 0.950 . S
C531 C528 1.387 . S
C532 C533 1.387 . S
C532 H536 0.950 . S
C532 C541 1.390 . S
C533 C532 1.387 . S
C533 C535 1.387 . S
H534 C541 0.950 . S
C535 C533 1.387 . S
C535 C537 1.390 . S
C535 H539 0.950 . S
H536 C532 0.950 . S
C537 C535 1.390 . S
C537 C538 1.387 . S
C537 H540 0.950 . S
C538 C537 1.387 . S
C538 C541 1.387 . S
H539 C535 0.950 . S
H540 C537 0.950 . S
C541 C532 1.390 . S
C541 H534 0.950 . S
C541 C538 1.387 . S
C542 C543 1.387 . S
C542 H546 0.950 . S
C542 C551 1.390 . S
C543 C542 1.387 . S
C543 C545 1.387 . S
H544 C551 0.950 . S
C545 C543 1.387 . S
C545 C547 1.390 . S
C545 H549 0.950 . S
H546 C542 0.950 . S
C547 C545 1.390 . S
C547 C548 1.387 . S
C547 H550 0.950 . S
C548 C547 1.387 . S
C548 C551 1.387 . S
H549 C545 0.950 . S
H550 C547 0.950 . S
C551 C542 1.390 . S
C551 H544 0.950 . S
C551 C548 1.387 . S
C552 C553 1.387 . S
C552 H556 0.950 . S
C552 C561 1.390 . S
C553 C552 1.387 . S
C553 C555 1.387 . S
H554 C561 0.950 . S
C555 C553 1.387 . S
C555 C557 1.390 . S
C555 H559 0.950 . S
H556 C552 0.950 . S
C557 C555 1.390 . S
C557 C558 1.387 . S
C557 H560 0.950 . S
C558 C557 1.387 . S
C558 C561 1.387 . S
H559 C555 0.950 . S
H560 C557 0.950 . S
C561 C552 1.390 . S
C561 H554 0.950 . S
C561 C558 1.387 . S
C562 C563 1.387 . S
C562 H566 0.950 . S
C562 C571 1.390 . S
C563 C562 1.387 . S
C563 C565 1.387 . S
H564 C571 0.950 . S
C565 C563 1.387 . S
C565 C567 1.390 . S
C565 H569 0.950 . S
H566 C562 0.950 . S
C567 C565 1.390 . S
C567 C568 1.387 . S
C567 H570 0.950 . S
C568 C567 1.387 . S
C568 C571 1.387 . S
H569 C565 0.950 . S
H570 C567 0.950 . S
C571 C562 1.390 . S
C571 H564 0.950 . S
C571 C568 1.387 . S
C572 C573 1.387 . S
C572 H576 0.950 . S
C572 C581 1.390 . S
C573 C572 1.387 . S
C573 C575 1.387 . S
H574 C581 0.950 . S
C575 C573 1.387 . S
C575 C577 1.390 . S
C575 H579 0.950 . S
H576 C572 0.950 . S
C577 C575 1.390 . S
C577 C578 1.387 . S
C577 H580 0.950 . S
C578 C577 1.387 . S
C578 C581 1.387 . S
H579 C575 0.950 . S
H580 C577 0.950 . S
C581 C572 1.390 . S
C581 H574 0.950 . S
C581 C578 1.387 . S
C582 C583 1.387 . S
C582 H586 0.950 . S
C582 C591 1.390 . S
C583 C582 1.387 . S
C583 C585 1.387 . S
H584 C591 0.950 . S
C585 C583 1.387 . S
C585 C587 1.390 . S
C585 H589 0.950 . S
H586 C582 0.950 . S
C587 C585 1.390 . S
C587 C588 1.387 . S
C587 H590 0.950 . S
C588 C587 1.387 . S
C588 C591 1.387 . S
H589 C585 0.950 . S
H590 C587 0.950 . S
C591 C582 1.390 . S
C591 H584 0.950 . S
C591 C588 1.387 . S
C592 C593 1.387 . S
C592 H596 0.950 . S
C592 C601 1.390 . S
C593 C592 1.387 . S
C593 C595 1.387 . S
H594 C601 0.950 . S
C595 C593 1.387 . S
C595 C597 1.390 . S
C595 H599 0.950 . S
H596 C592 0.950 . S
C597 C595 1.390 . S
C597 C598 1.387 . S
C597 H600 0.950 . S
C598 C597 1.387 . S
C598 C601 1.387 . S
H599 C595 0.950 . S
H600 C597 0.950 . S
C601 C592 1.390 . S
C601 H594 0.950 . S
C601 C598 1.387 . S
C602 C603 1.387 . S
C602 H606 0.950 . S
C602 C611 1.390 . S
C603 C602 1.387 . S
C603 C605 1.387 . S
H604 C611 0.950 . S
C605 C603 1.387 . S
C605 C607 1.390 . S
C605 H609 0.950 . S
H606 C602 0.950 . S
C607 C605 1.390 . S
C607 C608 1.387 . S
C607 H610 0.950 . S
C608 C607 1.387 . S
C608 C611 1.387 . S
H609 C605 0.950 . S
H610 C607 0.950 . S
C611 C602 1.390 . S
C611 H604 0.950 . S
C611 C608 1.387 . S
C612 C613 1.387 . S
C612 H616 0.950 . S
C612 C621 1.390 . S
C613 C612 1.387 . S
C613 C615 1.387 . S
H614 C621 0.950 . S
C615 C613 1.387 . S
C615 C617 1.390 . S
C615 H619 0.950 . S
H616 C612 0.950 . S
C617 C615 1.390 . S
C617 C618 1.387 . S
C617 H620 0.950 . S
C618 C617 1.387 . S
C618 C621 1.387 . S
H619 C615 0.950 . S
H620 C617 0.950 . S
C621 C612 1.390 . S
C621 H614 0.950 . S
C621 C618 1.387 . S
C622 C623 1.387 . S
C622 H626 0.950 . S
C622 C631 1.390 . S
C623 C622 1.387 . S
C623 C625 1.387 . S
H624 C631 0.950 . S
C625 C623 1.387 . S
C625 C627 1.390 . S
C625 H629 0.950 . S
H626 C622 0.950 . S
C627 C625 1.390 . S
C627 C628 1.387 . S
C627 H630 0.950 . S
C628 C627 1.387 . S
C628 C631 1.387 . S
H629 C625 0.950 . S
H630 C627 0.950 . S
C631 C622 1.390 . S
C631 H624 0.950 . S
C631 C628 1.387 . S
C632 C633 1.387 . S
C632 H636 0.950 . S
C632 C641 1.390 1_545 S
C633 C632 1.387 . S
C633 C635 1.387 . S
H634 C641 0.950 . S
C635 C633 1.387 . S
C635 C637 1.390 1_545 S
C635 H639 0.950 . S
H636 C632 0.950 . S
C637 C635 1.390 1_565 S
C637 C638 1.387 . S
C637 H640 0.950 . S
C638 C637 1.387 . S
C638 C641 1.387 . S
H639 C635 0.950 . S
H640 C637 0.950 . S
C641 C632 1.390 1_565 S
C641 H634 0.950 . S
C641 C638 1.387 . S
C642 C643 1.387 . S
C642 H646 0.950 . S
C642 C651 1.390 1_545 S
C643 C642 1.387 . S
C643 C645 1.387 . S
H644 C651 0.950 . S
C645 C643 1.387 . S
C645 C647 1.390 1_545 S
C645 H649 0.950 . S
H646 C642 0.950 . S
C647 C645 1.390 1_565 S
C647 C648 1.387 . S
C647 H650 0.950 . S
C648 C647 1.387 . S
C648 C651 1.387 . S
H649 C645 0.950 . S
H650 C647 0.950 . S
C651 C642 1.390 1_565 S
C651 H644 0.950 . S
C651 C648 1.387 . S
C652 C653 1.387 . S
C652 H656 0.950 . S
C652 C661 1.390 1_565 S
C653 C652 1.387 . S
C653 C655 1.387 . S
H654 C661 0.950 . S
C655 C653 1.387 . S
C655 C657 1.390 1_565 S
C655 H659 0.950 . S
H656 C652 0.950 . S
C657 C655 1.390 1_545 S
C657 C658 1.387 . S
C657 H660 0.950 . S
C658 C657 1.387 . S
C658 C661 1.387 . S
H659 C655 0.950 . S
H660 C657 0.950 . S
C661 C652 1.390 1_545 S
C661 H654 0.950 . S
C661 C658 1.387 . S
C662 C663 1.387 . S
C662 H666 0.950 . S
C662 C671 1.390 1_565 S
C663 C662 1.387 . S
C663 C665 1.387 . S
H664 C671 0.950 . S
C665 C663 1.387 . S
C665 C667 1.390 1_565 S
C665 H669 0.950 . S
H666 C662 0.950 . S
C667 C665 1.390 1_545 S
C667 C668 1.387 . S
C667 H670 0.950 . S
C668 C667 1.387 . S
C668 C671 1.387 . S
H669 C665 0.950 . S
H670 C667 0.950 . S
C671 C662 1.390 1_545 S
C671 H664 0.950 . S
C671 C668 1.387 . S
C672 C673 1.379 1_556 S
C672 H676 0.950 . S
C672 C681 1.390 . S
C673 C672 1.379 1_554 S
C673 C675 1.396 . S
H674 C681 0.950 . S
C675 C673 1.396 . S
C675 C677 1.390 . S
C675 H679 0.950 . S
H676 C672 0.950 . S
C677 C675 1.390 . S
C677 C678 1.379 1_554 S
C677 H680 0.950 . S
C678 C677 1.379 1_556 S
C678 C681 1.396 . S
H679 C675 0.950 . S
H680 C677 0.950 . S
C681 C672 1.390 . S
C681 H674 0.950 . S
C681 C678 1.396 . S
C682 C683 1.396 . S
C682 H686 0.950 . S
C682 C691 1.390 . S
C683 C682 1.396 . S
C683 C685 1.379 1_556 S
H684 C691 0.950 . S
C685 C683 1.379 1_554 S
C685 C687 1.390 . S
C685 H689 0.950 . S
H686 C682 0.950 . S
C687 C685 1.390 . S
C687 C688 1.396 . S
C687 H690 0.950 . S
C688 C687 1.396 . S
C688 C691 1.379 1_554 S
H689 C685 0.950 . S
H690 C687 0.950 . S
C691 C682 1.390 . S
C691 H684 0.950 . S
C691 C688 1.379 1_556 S
C692 C693 1.387 . S
C692 H696 0.950 . S
C692 C701 1.390 . S
C693 C692 1.387 . S
C693 C695 1.387 . S
H694 C701 0.950 . S
C695 C693 1.387 . S
C695 C697 1.390 . S
C695 H699 0.950 . S
H696 C692 0.950 . S
C697 C695 1.390 . S
C697 C698 1.387 . S
C697 H700 0.950 . S
C698 C697 1.387 . S
C698 C701 1.387 . S
H699 C695 0.950 . S
H700 C697 0.950 . S
C701 C692 1.390 . S
C701 H694 0.950 . S
C701 C698 1.387 . S
C702 C703 1.387 . S
C702 H706 0.950 . S
C702 C711 1.390 . S
C703 C702 1.387 . S
C703 C705 1.387 . S
H704 C711 0.950 . S
C705 C703 1.387 . S
C705 C707 1.390 . S
C705 H709 0.950 . S
H706 C702 0.950 . S
C707 C705 1.390 . S
C707 C708 1.387 . S
C707 H710 0.950 . S
C708 C707 1.387 . S
C708 C711 1.387 . S
H709 C705 0.950 . S
H710 C707 0.950 . S
C711 C702 1.390 . S
C711 H704 0.950 . S
C711 C708 1.387 . S
C712 C713 1.379 1_556 S
C712 H716 0.950 . S
C712 C721 1.390 . S
C713 C712 1.379 1_554 S
C713 C715 1.396 . S
H714 C721 0.950 . S
C715 C713 1.396 . S
C715 C717 1.390 . S
C715 H719 0.950 . S
H716 C712 0.950 . S
C717 C715 1.390 . S
C717 C718 1.379 1_554 S
C717 H720 0.950 . S
C718 C717 1.379 1_556 S
C718 C721 1.396 . S
H719 C715 0.950 . S
H720 C717 0.950 . S
C721 C712 1.390 . S
C721 H714 0.950 . S
C721 C718 1.396 . S
C722 C723 1.378 1_556 S
C722 H726 0.950 . S
C722 C731 1.390 . S
C723 C722 1.378 1_554 S
C723 C725 1.396 . S
H724 C731 0.950 . S
C725 C723 1.396 . S
C725 C727 1.390 . S
C725 H729 0.950 . S
H726 C722 0.950 . S
C727 C725 1.390 . S
C727 C728 1.378 1_554 S
C727 H730 0.950 . S
C728 C727 1.378 1_556 S
C728 C731 1.396 . S
H729 C725 0.950 . S
H730 C727 0.950 . S
C731 C722 1.390 . S
C731 H724 0.950 . S
C731 C728 1.396 . S
C732 C733 1.387 . S
C732 H736 0.950 . S
C732 C741 1.390 . S
C733 C732 1.387 . S
C733 C735 1.387 . S
H734 C741 0.950 . S
C735 C733 1.387 . S
C735 C737 1.390 . S
C735 H739 0.950 . S
H736 C732 0.950 . S
C737 C735 1.390 . S
C737 C738 1.387 . S
C737 H740 0.950 . S
C738 C737 1.387 . S
C738 C741 1.387 . S
H739 C735 0.950 . S
H740 C737 0.950 . S
C741 C732 1.390 . S
C741 H734 0.950 . S
C741 C738 1.387 . S
C742 C743 1.387 . S
C742 H746 0.950 . S
C742 C751 1.390 . S
C743 C742 1.387 . S
C743 C745 1.387 . S
H744 C751 0.950 . S
C745 C743 1.387 . S
C745 C747 1.390 . S
C745 H749 0.950 . S
H746 C742 0.950 . S
C747 C745 1.390 . S
C747 C748 1.387 . S
C747 H750 0.950 . S
C748 C747 1.387 . S
C748 C751 1.387 . S
H749 C745 0.950 . S
H750 C747 0.950 . S
C751 C742 1.390 . S
C751 H744 0.950 . S
C751 C748 1.387 . S
C752 C753 1.387 . S
C752 H756 0.950 . S
C752 C761 1.390 1_455 S
C753 C752 1.387 . S
C753 C755 1.387 . S
H754 C761 0.950 . S
C755 C753 1.387 . S
C755 C757 1.390 1_455 S
C755 H759 0.950 . S
H756 C752 0.950 . S
C757 C755 1.390 1_655 S
C757 C758 1.387 . S
C757 H760 0.950 . S
C758 C757 1.387 . S
C758 C761 1.387 . S
H759 C755 0.950 . S
H760 C757 0.950 . S
C761 C752 1.390 1_655 S
C761 H754 0.950 . S
C761 C758 1.387 . S
C762 C763 1.387 . S
C762 H766 0.950 . S
C762 C771 1.390 . S
C763 C762 1.387 . S
C763 C765 1.387 . S
H764 C771 0.950 . S
C765 C763 1.387 . S
C765 C767 1.390 . S
C765 H769 0.950 . S
H766 C762 0.950 . S
C767 C765 1.390 . S
C767 C768 1.387 . S
C767 H770 0.950 . S
C768 C767 1.387 . S
C768 C771 1.387 . S
H769 C765 0.950 . S
H770 C767 0.950 . S
C771 C762 1.390 . S
C771 H764 0.950 . S
C771 C768 1.387 . S
C772 C773 1.387 . S
C772 H776 0.950 . S
C772 C781 1.390 . S
C773 C772 1.387 . S
C773 C775 1.387 . S
H774 C781 0.950 . S
C775 C773 1.387 . S
C775 C777 1.390 . S
C775 H779 0.950 . S
H776 C772 0.950 . S
C777 C775 1.390 . S
C777 C778 1.387 . S
C777 H780 0.950 . S
C778 C777 1.387 . S
C778 C781 1.387 . S
H779 C775 0.950 . S
H780 C777 0.950 . S
C781 C772 1.390 . S
C781 H774 0.950 . S
C781 C778 1.387 . S
C782 C783 1.387 . S
C782 H786 0.950 . S
C782 C791 1.390 1_455 S
C783 C782 1.387 . S
C783 C785 1.387 . S
H784 C791 0.950 . S
C785 C783 1.387 . S
C785 C787 1.390 1_455 S
C785 H789 0.950 . S
H786 C782 0.950 . S
C787 C785 1.390 1_655 S
C787 C788 1.387 . S
C787 H790 0.950 . S
C788 C787 1.387 . S
C788 C791 1.387 . S
H789 C785 0.950 . S
H790 C787 0.950 . S
C791 C782 1.390 1_655 S
C791 H784 0.950 . S
C791 C788 1.387 . S
C792 C793 1.387 . S
C792 H796 0.950 . S
C792 C801 1.390 1_655 S
C793 C792 1.387 . S
C793 C795 1.387 . S
H794 C801 0.950 . S
C795 C793 1.387 . S
C795 C797 1.390 1_655 S
C795 H799 0.950 . S
H796 C792 0.950 . S
C797 C795 1.390 1_455 S
C797 C798 1.387 . S
C797 H800 0.950 . S
C798 C797 1.387 . S
C798 C801 1.387 . S
H799 C795 0.950 . S
H800 C797 0.950 . S
C801 C792 1.390 1_455 S
C801 H794 0.950 . S
C801 C798 1.387 . S
C802 C803 1.387 . S
C802 H806 0.950 . S
C802 C811 1.390 . S
C803 C802 1.387 . S
C803 C805 1.387 . S
H804 C811 0.950 . S
C805 C803 1.387 . S
C805 C807 1.390 . S
C805 H809 0.950 . S
H806 C802 0.950 . S
C807 C805 1.390 . S
C807 C808 1.387 . S
C807 H810 0.950 . S
C808 C807 1.387 . S
C808 C811 1.387 . S
H809 C805 0.950 . S
H810 C807 0.950 . S
C811 C802 1.390 . S
C811 H804 0.950 . S
C811 C808 1.387 . S
C812 C813 1.387 . S
C812 H816 0.950 . S
C812 C821 1.390 . S
C813 C812 1.387 . S
C813 C815 1.387 . S
H814 C821 0.950 . S
C815 C813 1.387 . S
C815 C817 1.390 . S
C815 H819 0.950 . S
H816 C812 0.950 . S
C817 C815 1.390 . S
C817 C818 1.387 . S
C817 H820 0.950 . S
C818 C817 1.387 . S
C818 C821 1.387 . S
H819 C815 0.950 . S
H820 C817 0.950 . S
C821 C812 1.390 . S
C821 H814 0.950 . S
C821 C818 1.387 . S
C822 C823 1.387 . S
C822 H826 0.950 . S
C822 C831 1.390 1_455 S
C823 C822 1.387 . S
C823 C825 1.387 . S
H824 C831 0.950 . S
C825 C823 1.387 . S
C825 C827 1.390 1_455 S
C825 H829 0.950 . S
H826 C822 0.950 . S
C827 C825 1.390 1_655 S
C827 C828 1.387 . S
C827 H830 0.950 . S
C828 C827 1.387 . S
C828 C831 1.387 . S
H829 C825 0.950 . S
H830 C827 0.950 . S
C831 C822 1.390 1_655 S
C831 H824 0.950 . S
C831 C828 1.387 . S
C353 C6 1.480 . S
C358 C290 1.611 . S
C363 C268 1.611 . S
C368 C29 1.476 . S
C373 C334 1.611 . S
C378 C50 1.480 . S
C383 C316 1.611 . S
C388 C72 1.479 . S
C393 C202 1.611 . S
C398 C97 1.476 . S
C403 C119 1.480 . S
C408 C184 1.611 . S
C413 C250 1.611 . S
C418 C137 1.477 . S
C423 C163 1.481 . S
C428 C228 1.611 . S
C433 C114 1.611 . S
C438 C182 1.481 . S
C443 C205 1.480 . S
C448 C92 1.611 . S
C453 C158 1.611 . S
C458 C226 1.481 . S
C463 C140 1.611 . S
C468 C248 1.476 . S
C473 C273 1.480 . S
C478 C26 1.611 . S
C483 C8 1.611 . S
C488 C295 1.481 . S
C493 C313 1.476 . S
C498 C74 1.611 . S
C503 C52 1.611 . S
C508 C339 1.478 . S
C513 C225 1.487 . S
C518 C5 1.487 . S
C523 C31 1.489 . S
C528 C247 1.489 . S
C533 C181 1.489 . S
C538 C49 1.489 . S
C543 C207 1.489 . S
C548 C71 1.489 . S
C553 C314 1.487 . S
C558 C95 1.487 . S
C563 C117 1.487 . S
C568 C337 1.487 . S
C573 C138 1.487 . S
C578 C271 1.487 . S
C583 C293 1.489 . S
C588 C161 1.489 . S
C593 C7 1.706 . S
C598 C28 1.706 . S
C603 C51 1.706 . S
C608 C73 1.706 . S
C613 C93 1.706 . S
C618 C115 1.706 . S
C623 C159 1.706 . S
C628 C141 1.706 . S
C633 C204 1.706 . S
C638 C183 1.706 . S
C643 C227 1.706 . S
C648 C249 1.706 . S
C653 C291 1.706 . S
C658 C269 1.706 . S
C663 C317 1.706 . S
C668 C335 1.706 . S
C673 C270 1.022 1_554 S
C678 C9 1.022 1_556 S
C683 C27 1.022 1_556 S
C688 C292 1.022 1_554 S
C693 C53 1.031 . S
C698 C315 1.031 . S
C703 C75 1.031 . S
C708 C336 1.031 . S
C713 C94 1.022 1_554 S
C718 C185 1.022 1_556 S
C723 C116 1.022 1_554 S
C728 C203 1.022 1_556 S
C733 C139 1.027 . S
C738 C229 1.027 . S
C743 C251 1.026 . S
C748 C160 1.026 . S
C753 C4 1.537 . S
C758 C206 1.537 . S
C763 C30 1.536 . S
C768 C180 1.536 . S
C773 C246 1.536 . S
C778 C48 1.536 . S
C783 C224 1.537 . S
C788 C70 1.537 . S
C793 C96 1.536 . S
C798 C294 1.536 . S
C803 C118 1.536 . S
C808 C272 1.536 . S
C813 C338 1.537 . S
C818 C136 1.537 . S
C823 C162 1.536 . S
C828 C312 1.536 . S
