# Generated by pormake.
# Topology ukh, (4)-cn, num edge types: 1
# Building blocks:
#     Node 0, Type 0, BuildingBlock: QUQFOY_clean_sbu_1, # of connection points: 4
#     Node 1, Type 0, BuildingBlock: QUQFOY_clean_sbu_1, # of connection points: 4
#     Node 2, Type 0, BuildingBlock: QUQFOY_clean_sbu_1, # of connection points: 4
#     Node 3, Type 0, BuildingBlock: QUQFOY_clean_sbu_1, # of connection points: 4
#     Node 4, Type 0, BuildingBlock: QUQFOY_clean_sbu_1, # of connection points: 4
#     Node 5, Type 0, BuildingBlock: QUQFOY_clean_sbu_1, # of connection points: 4
#     Node 6, Type 0, BuildingBlock: QUQFOY_clean_sbu_1, # of connection points: 4
#     Node 7, Type 0, BuildingBlock: QUQFOY_clean_sbu_1, # of connection points: 4
#     Node 8, Type 0, BuildingBlock: QUQFOY_clean_sbu_1, # of connection points: 4
#     Node 9, Type 0, BuildingBlock: QUQFOY_clean_sbu_1, # of connection points: 4
#     Node 10, Type 0, BuildingBlock: QUQFOY_clean_sbu_1, # of connection points: 4
#     Node 11, Type 0, BuildingBlock: QUQFOY_clean_sbu_1, # of connection points: 4
#     Edge 12, Type (0, 0), BuildingBlock: AJUNOK_clean_linker_0, # of connection points: 2
#     Edge 13, Type (0, 0), BuildingBlock: AJUNOK_clean_linker_0, # of connection points: 2
#     Edge 14, Type (0, 0), BuildingBlock: AJUNOK_clean_linker_0, # of connection points: 2
#     Edge 15, Type (0, 0), BuildingBlock: AJUNOK_clean_linker_0, # of connection points: 2
#     Edge 16, Type (0, 0), BuildingBlock: AJUNOK_clean_linker_0, # of connection points: 2
#     Edge 17, Type (0, 0), BuildingBlock: AJUNOK_clean_linker_0, # of connection points: 2
#     Edge 18, Type (0, 0), BuildingBlock: AJUNOK_clean_linker_0, # of connection points: 2
#     Edge 19, Type (0, 0), BuildingBlock: AJUNOK_clean_linker_0, # of connection points: 2
#     Edge 20, Type (0, 0), BuildingBlock: AJUNOK_clean_linker_0, # of connection points: 2
#     Edge 21, Type (0, 0), BuildingBlock: AJUNOK_clean_linker_0, # of connection points: 2
#     Edge 22, Type (0, 0), BuildingBlock: AJUNOK_clean_linker_0, # of connection points: 2
#     Edge 23, Type (0, 0), BuildingBlock: AJUNOK_clean_linker_0, # of connection points: 2
#     Edge 24, Type (0, 0), BuildingBlock: AJUNOK_clean_linker_0, # of connection points: 2
#     Edge 25, Type (0, 0), BuildingBlock: AJUNOK_clean_linker_0, # of connection points: 2
#     Edge 26, Type (0, 0), BuildingBlock: AJUNOK_clean_linker_0, # of connection points: 2
#     Edge 27, Type (0, 0), BuildingBlock: AJUNOK_clean_linker_0, # of connection points: 2
#     Edge 28, Type (0, 0), BuildingBlock: AJUNOK_clean_linker_0, # of connection points: 2
#     Edge 29, Type (0, 0), BuildingBlock: AJUNOK_clean_linker_0, # of connection points: 2
#     Edge 30, Type (0, 0), BuildingBlock: AJUNOK_clean_linker_0, # of connection points: 2
#     Edge 31, Type (0, 0), BuildingBlock: AJUNOK_clean_linker_0, # of connection points: 2
#     Edge 32, Type (0, 0), BuildingBlock: AJUNOK_clean_linker_0, # of connection points: 2
#     Edge 33, Type (0, 0), BuildingBlock: AJUNOK_clean_linker_0, # of connection points: 2
#     Edge 34, Type (0, 0), BuildingBlock: AJUNOK_clean_linker_0, # of connection points: 2
#     Edge 35, Type (0, 0), BuildingBlock: AJUNOK_clean_linker_0, # of connection points: 2
# Relax obj value: 0.065
# Max RMSD: 0.077
# Mean RMSD: 0.077
data_MOF--net-ukh--node1-QUQFOY_clean_sbu_1--edge1-AJUNOK_clean_linker_0
_symmetry_space_group_name_H-M    P1
_symmetry_Int_Tables_number       1
_symmetry_cell_setting            triclinic
loop_
_symmetry_equiv_pos_as_xyz
'x, y, z'
_cell_length_a     24.233363
_cell_length_b     24.23897
_cell_length_c     50.020677
_cell_angle_alpha  89.984675
_cell_angle_beta   89.992781
_cell_angle_gamma 119.99622
loop_
_atom_site_label
_atom_site_type_symbol
_atom_site_fract_x
_atom_site_fract_y
_atom_site_fract_z
_atom_type_partial_charge
O0 O 0.33689 0.14075 0.05085 0.0
Cd1 Cd 0.32628 0.20865 0.07126 0.0
Cd2 Cd 0.3997 0.27748 0.02997 0.0
O3 O 0.41369 0.20089 0.02266 0.0
O4 O 0.28044 0.1611 0.10404 0.0
O5 O 0.37748 0.24458 0.10518 0.0
C6 C 0.33015 0.19883 0.11773 0.0
C7 C 0.47489 0.38645 0.03194 0.0
C8 C 0.37605 0.14638 0.03269 0.0
C9 C 0.26598 0.25077 0.03035 0.0
O10 O 0.31437 0.26384 0.01619 0.0
O11 O 0.26419 0.23495 0.05473 0.0
O12 O 0.46247 0.35468 0.00992 0.0
O13 O 0.44928 0.35466 0.0536 0.0
O14 O 0.21677 0.32029 0.38617 0.0
Cd15 Cd 0.13914 0.31079 0.407 0.0
Cd16 Cd 0.14044 0.37906 0.36376 0.0
O17 O 0.23072 0.39265 0.35607 0.0
O18 O 0.14252 0.26557 0.4397 0.0
O19 O 0.15598 0.36248 0.44093 0.0
C20 C 0.15498 0.31536 0.4534 0.0
C21 C 0.10666 0.45428 0.36498 0.0
C22 C 0.24904 0.35725 0.36719 0.0
C23 C 1.03342 0.24615 0.36741 0.0
O24 O 0.06781 0.29212 0.35192 0.0
O25 O 0.04966 0.24763 0.3917 0.0
O26 O 0.12427 0.43975 0.343 0.0
O27 O 0.11455 0.43074 0.38691 0.0
O28 O 0.92159 0.20117 0.71921 0.0
Cd29 Cd 0.85384 0.12151 0.73902 0.0
Cd30 Cd 0.78648 0.12761 0.69705 0.0
O31 O 0.86312 0.21858 0.69038 0.0
O32 O 0.90353 0.12203 0.77082 0.0
O33 O 0.81992 0.13489 0.774 0.0
C34 C 0.86647 0.13279 0.78556 0.0
C35 C 0.67736 0.09311 0.69921 0.0
C36 C 0.9169 0.23551 0.70118 0.0
C37 C 0.81338 1.02081 0.69727 0.0
O38 O 0.80097 0.05659 0.68309 0.0
O39 O 0.82799 0.03392 0.72179 0.0
O40 O 0.70904 0.11306 0.67718 0.0
O41 O 0.7093 0.09912 0.7208 0.0
O42 O 0.74697 0.91131 0.05296 0.0
Cd43 Cd 0.75641 0.84372 0.07424 0.0
Cd44 Cd 0.68692 0.77498 0.03166 0.0
O45 O 0.67289 0.85132 0.02376 0.0
O46 O 0.80095 0.89245 0.10701 0.0
O47 O 0.70398 0.80898 0.10799 0.0
C48 C 0.7508 0.85516 0.12057 0.0
C49 C 0.61189 0.66583 0.03263 0.0
C50 C 0.70933 0.90573 0.03412 0.0
C51 C 0.82027 0.8016 0.03486 0.0
O52 O 0.77383 0.78949 0.01958 0.0
O53 O 0.81941 0.81697 0.05911 0.0
O54 O 0.62652 0.69828 0.01073 0.0
O55 O 0.63518 0.69697 0.05463 0.0
O56 O 0.85659 0.72905 0.38465 0.0
Cd57 Cd 0.9361 0.74101 0.40471 0.0
Cd58 Cd 0.93083 0.66686 0.36326 0.0
O59 O 0.84001 0.65253 0.35633 0.0
O60 O 0.93556 0.78919 0.43687 0.0
O61 O 0.9231 0.69278 0.4394 0.0
C62 C 0.9254 0.74113 0.45133 0.0
C63 C 0.96477 0.59178 0.36501 0.0
C64 C 0.82294 0.68985 0.36653 0.0
C65 C 1.03738 0.80072 0.36311 0.0
O66 O 1.00203 0.75206 0.34913 0.0
O67 O 1.02375 0.80285 0.38752 0.0
O68 O 0.94488 0.60402 0.3431 0.0
O69 O 0.95909 0.61755 0.38672 0.0
O70 O 0.1515 0.84289 0.71952 0.0
Cd71 Cd 0.21889 0.92132 0.74013 0.0
Cd72 Cd 0.28875 0.91682 0.69895 0.0
O73 O 0.21216 0.82621 0.69164 0.0
O74 O 0.17095 0.91887 0.77293 0.0
O75 O 0.25473 0.90581 0.77402 0.0
C76 C 0.20868 0.90681 0.78659 0.0
C77 C 0.3979 0.95057 0.70025 0.0
C78 C 0.15744 0.80935 0.70147 0.0
C79 C 0.26135 1.0236 0.69916 0.0
O80 O 0.27488 0.9884 0.68517 0.0
O81 O 0.2452 1.00969 0.72353 0.0
O82 O 0.36538 0.93113 0.67843 0.0
O83 O 0.36681 0.94456 0.72211 0.0
O84 O 0.92198 0.72406 0.63228 0.0
Cd85 Cd 0.85576 0.73647 0.61135 0.0
Cd86 Cd 0.78621 0.66664 0.65429 0.0
O87 O 0.8625 0.65273 0.66255 0.0
O88 O 0.90778 0.78538 0.57992 0.0
O89 O 0.82325 0.68985 0.57609 0.0
C90 C 0.87066 0.73834 0.56486 0.0
C91 C 0.67768 0.59149 0.65047 0.0
C92 C 0.91646 0.68721 0.65144 0.0
C93 C 0.81348 0.80005 0.65132 0.0
O94 O 0.79976 0.75305 0.66652 0.0
O95 O 0.83021 0.79963 0.62725 0.0
O96 O 0.70676 0.6041 0.67321 0.0
O97 O 0.71192 0.61723 0.62936 0.0
O98 O 0.22042 0.90924 0.96605 0.0
Cd99 Cd 0.14074 0.84113 0.94639 0.0
Cd100 Cd 0.14687 0.77362 0.98779 0.0
O101 O 0.23769 0.85031 0.99469 0.0
O102 O 0.1416 0.88828 0.91358 0.0
O103 O 0.15459 0.80449 0.91236 0.0
C104 C 0.15314 0.85032 0.89982 0.0
C105 C 0.11323 0.66521 0.9833 0.0
C106 C 0.25468 0.90425 0.98404 0.0
C107 C 0.03988 0.80016 0.98819 0.0
O108 O 0.07541 0.78698 1.00214 0.0
O109 O 0.05326 0.81571 0.96373 0.0
O110 O 0.13219 0.69415 1.00599 0.0
O111 O 0.11939 0.69953 0.96248 0.0
O112 O 0.33221 0.2042 0.29856 0.0
Cd113 Cd 0.32261 0.12693 0.27744 0.0
Cd114 Cd 0.39153 0.1273 0.31968 0.0
O115 O 0.40563 0.2175 0.32796 0.0
O116 O 0.27834 0.13107 0.24458 0.0
O117 O 0.37495 0.14361 0.24373 0.0
C118 C 0.32828 0.14309 0.23105 0.0
C119 C 0.46643 0.09361 0.31592 0.0
C120 C 0.36953 0.23585 0.31754 0.0
C121 C 0.25837 1.02085 0.31681 0.0
O122 O 0.30507 0.05466 0.33206 0.0
O123 O 0.25913 0.03752 0.29264 0.0
O124 O 0.45393 0.1103 0.33863 0.0
O125 O 0.44077 0.10208 0.29479 0.0
O126 O 0.15393 0.31916 0.63381 0.0
Cd127 Cd 0.22159 0.30903 0.61292 0.0
Cd128 Cd 0.29 0.37805 0.65517 0.0
O129 O 0.21396 0.39247 0.66325 0.0
O130 O 0.17327 0.26444 0.5801 0.0
O131 O 0.25733 0.36101 0.57912 0.0
C132 C 0.21115 0.31426 0.56651 0.0
C133 C 0.39853 0.45275 0.6509 0.0
C134 C 0.15958 0.35661 0.65273 0.0
C135 C 0.26301 0.24482 0.65262 0.0
O136 O 0.27605 0.29168 0.66779 0.0
O137 O 0.24716 0.24548 0.62842 0.0
O138 O 0.36983 0.44095 0.67371 0.0
O139 O 0.36392 0.42642 0.62995 0.0
O140 O 0.86134 0.14238 0.96562 0.0
Cd141 Cd 0.93955 0.20909 0.94468 0.0
Cd142 Cd 0.9385 0.27765 0.98761 0.0
O143 O 0.84814 0.20139 0.99565 0.0
O144 O 0.93668 0.15699 0.91336 0.0
O145 O 0.92416 0.24061 0.90943 0.0
C146 C 0.92553 0.19327 0.8983 0.0
C147 C 0.97216 0.38614 0.98347 0.0
C148 C 0.82934 0.14754 0.98458 0.0
C149 C 0.04516 0.25134 0.98466 0.0
O150 O 1.01116 0.26386 0.99998 0.0
O151 O 1.0286 0.23559 0.96047 0.0
O152 O 0.95543 0.35733 1.00627 0.0
O153 O 0.96376 0.35166 0.96246 0.0
O154 O 0.74031 0.84463 0.29994 0.0
Cd155 Cd 0.75162 0.92409 0.28014 0.0
Cd156 Cd 0.67863 0.91844 0.32159 0.0
O157 O 0.6645 0.82772 0.32872 0.0
O158 O 0.79802 0.92303 0.24742 0.0
O159 O 0.70122 0.90999 0.24605 0.0
C160 C 0.74861 0.91145 0.2336 0.0
C161 C 0.604 0.95211 0.31673 0.0
C162 C 0.70131 0.81059 0.31804 0.0
C163 C 0.81195 0.0255 0.32166 0.0
O164 O 0.7635 0.99007 0.33578 0.0
O165 O 0.81376 1.0118 0.29723 0.0
O166 O 0.61381 0.93344 0.33952 0.0
O167 O 0.63225 0.94561 0.29602 0.0
C168 C 0.55777 0.55929 0.05609 0.0
C169 C 0.57482 0.59465 0.03212 0.0
C170 C 0.52675 0.49224 0.05594 0.0
C171 C 0.51209 0.45763 0.03183 0.0
H172 H 0.56859 0.58353 0.07519 0.0
H173 H 0.514 0.46741 0.07493 0.0
S174 S 0.54686 0.5272 0.96344 0.0
N175 N 0.57445 0.58937 0.98352 0.0
N176 N 0.5173 0.46441 0.98325 0.0
C177 C 0.52921 0.49248 1.00773 0.0
C178 C 0.56012 0.56055 1.00787 0.0
C179 C 0.05469 0.50846 0.38871 0.0
C180 C 0.07277 0.49156 0.36465 0.0
C181 C 1.01878 0.53962 0.38874 0.0
C182 C 0.99872 0.55456 0.36472 0.0
H183 H 0.06816 0.49739 0.40775 0.0
H184 H 1.00684 0.55221 0.40779 0.0
S185 S 1.03305 0.52042 0.29615 0.0
N186 N 0.06762 0.49248 0.31606 0.0
N187 N 1.00004 0.54989 0.31612 0.0
C188 C 1.01626 0.53764 0.34052 0.0
C189 C 0.0533 0.50659 0.34049 0.0
C190 C 0.50457 1.00453 0.72362 0.0
C191 C 0.46909 0.98446 0.69972 0.0
C192 C 0.57165 0.04053 0.72336 0.0
C193 C 0.60616 0.05878 0.69918 0.0
H194 H 0.4804 0.99256 0.74276 0.0
H195 H 0.59659 0.05409 0.74231 0.0
S196 S 0.5363 1.01854 0.63091 0.0
N197 N 0.4742 0.98556 0.6511 0.0
N198 N 0.59918 0.05334 0.65061 0.0
C199 C 0.5712 0.03915 0.67514 0.0
C200 C 0.50311 1.00198 0.6754 0.0
C201 C 0.57166 0.53822 0.67341 0.0
C202 C 0.60661 0.55394 0.64939 0.0
C203 C 0.50493 0.50738 0.6735 0.0
C204 C 0.46959 0.49018 0.64957 0.0
H205 H 0.59596 0.55051 0.69251 0.0
H206 H 0.48094 0.4963 0.69267 0.0
S207 S 0.53755 0.51987 0.58102 0.0
N208 N 0.60049 0.54993 0.60082 0.0
N209 N 0.47493 0.4911 0.60098 0.0
C210 C 0.50373 0.50532 0.62531 0.0
C211 C 0.57208 0.53729 0.62522 0.0
C212 C 1.02537 0.49239 1.00617 0.0
C213 C 1.00588 0.45719 0.98222 0.0
C214 C 0.06144 0.55908 1.00611 0.0
C215 C 0.07947 0.59416 0.98211 0.0
H216 H 1.01342 0.46829 0.02532 0.0
H217 H 0.07452 0.58327 0.02523 0.0
S218 S 0.04071 0.52554 0.91371 0.0
N219 N 1.00777 0.46282 0.93364 0.0
N220 N 0.07477 0.58835 0.93354 0.0
C221 C 0.06022 0.5598 0.95792 0.0
C222 C 1.0237 0.49146 0.95798 0.0
C223 C 0.51907 0.04043 0.33898 0.0
C224 C 0.5037 0.0598 0.31491 0.0
C225 C 0.54957 1.00424 0.33916 0.0
C226 C 0.56683 0.98597 0.31528 0.0
H227 H 0.50676 0.05257 0.35805 0.0
H228 H 0.56043 0.99127 0.35836 0.0
S229 S 0.53787 1.02435 0.24664 0.0
N230 N 0.50798 0.05755 0.26635 0.0
N231 N 0.56627 0.99031 0.26669 0.0
C232 C 0.55205 1.0051 0.29097 0.0
C233 C 0.52037 0.04175 0.29079 0.0
C234 C 0.27433 0.13821 0.18798 0.0
C235 C 0.33131 0.15731 0.20208 0.0
C236 C 0.2748 0.15259 0.16087 0.0
C237 C 0.33229 0.18771 0.14675 0.0
H238 H 0.22868 0.11143 0.19792 0.0
H239 H 0.22951 0.13619 0.15092 0.0
S240 S 0.49488 0.24961 0.17433 0.0
N241 N 0.44707 0.21325 0.19987 0.0
N242 N 0.44795 0.24125 0.14885 0.0
C243 C 0.38978 0.20769 0.16058 0.0
C244 C 0.38929 0.1921 0.18822 0.0
C245 C 0.14818 0.26031 0.49638 0.0
C246 C 0.16918 0.3177 0.48234 0.0
C247 C 0.16267 0.26003 0.52343 0.0
C248 C 0.19977 0.31713 0.53755 0.0
H249 H 0.11986 0.21493 0.48643 0.0
H250 H 0.14478 0.21445 0.53332 0.0
S251 S 0.26743 0.48052 0.51003 0.0
N252 N 0.22924 0.4334 0.48455 0.0
N253 N 0.25743 0.43289 0.53545 0.0
C254 C 0.22168 0.37502 0.52376 0.0
C255 C 0.206 0.3753 0.49619 0.0
C256 C 0.85935 0.18294 0.82833 0.0
C257 C 0.87968 0.14569 0.81451 0.0
C258 C 0.87572 0.19964 0.85527 0.0
C259 C 0.91206 0.17874 0.86945 0.0
H260 H 0.83162 0.20038 0.81815 0.0
H261 H 0.85896 0.2283 0.86513 0.0
S262 S 0.97622 0.0793 0.8425 0.0
N263 N 0.93788 0.08815 0.81711 0.0
N264 N 0.96778 0.11865 0.8676 0.0
C265 C 0.93219 0.14102 0.85588 0.0
C266 C 0.91622 0.12472 0.82846 0.0
C267 C 0.80468 0.9037 0.1637 0.0
C268 C 0.74769 0.86711 0.14945 0.0
C269 C 0.80417 0.9183 0.19074 0.0
C270 C 0.74665 0.89795 0.20459 0.0
H271 H 0.85035 0.92096 0.15397 0.0
H272 H 0.84946 0.94603 0.20083 0.0
S273 S 0.58402 0.80177 0.17639 0.0
N274 N 0.63189 0.81105 0.15115 0.0
N275 N 0.63092 0.83943 0.20199 0.0
C276 C 0.68915 0.86188 0.19056 0.0
C277 C 0.68967 0.84609 0.16302 0.0
C278 C 0.86155 0.68269 0.52137 0.0
C279 C 0.88402 0.73975 0.53586 0.0
C280 C 0.8767 0.68331 0.4942 0.0
C281 C 0.91388 0.74103 0.48044 0.0
H282 H 0.83278 0.63718 0.53116 0.0
H283 H 0.8581 0.63829 0.48379 0.0
S284 S 0.98422 0.90356 0.50921 0.0
N285 N 0.94566 0.85552 0.53436 0.0
N286 N 0.97319 0.85665 0.48343 0.0
C287 C 0.93645 0.79834 0.4947 0.0
C288 C 0.92177 0.79771 0.52236 0.0
C289 C 0.14587 0.89821 0.85678 0.0
C290 C 0.16662 0.86158 0.8708 0.0
C291 C 0.16031 0.91288 0.8297 0.0
C292 C 0.19715 0.89258 0.81555 0.0
H293 H 0.1179 0.91563 0.86678 0.0
H294 H 0.14267 0.9408 0.81982 0.0
S295 S 0.26381 0.79586 0.84299 0.0
N296 N 0.22595 0.80518 0.8685 0.0
N297 N 0.25405 0.8337 0.81758 0.0
C298 C 0.21867 0.85624 0.82931 0.0
C299 C 0.20303 0.84037 0.8569 0.0
C300 C 0.3118 0.97035 0.02376 0.0
C301 C 0.30627 0.96404 0.99581 0.0
C302 C 0.34146 0.03077 0.03581 0.0
C303 C 0.36756 0.08692 0.02034 0.0
H304 H 0.2873 0.92873 0.03644 0.0
H305 H 0.33919 0.03338 0.05737 0.0
S306 S 0.3778 0.09562 0.94636 0.0
N307 N 0.33843 1.01856 0.95302 0.0
N308 N 0.39514 0.13196 0.97564 0.0
C309 C 0.36955 0.08111 0.99245 0.0
C310 C 0.33854 1.01962 0.98019 0.0
C311 C 0.30458 0.34703 0.32711 0.0
C312 C 0.29975 0.34803 0.35509 0.0
C313 C 0.33406 0.31631 0.31487 0.0
C314 C 0.36056 0.28634 0.33014 0.0
H315 H 0.27991 0.3642 0.31456 0.0
H316 H 0.33144 0.31152 0.2933 0.0
S317 S 0.3731 0.28886 0.40407 0.0
N318 N 0.33336 0.3263 0.39767 0.0
N319 N 0.3895 0.26944 0.37468 0.0
C320 C 0.36321 0.29432 0.35803 0.0
C321 C 0.3325 0.32489 0.37051 0.0
C322 C 0.98351 0.2931 0.6616 0.0
C323 C 0.97695 0.28708 0.68953 0.0
C324 C 0.04404 0.32264 0.64962 0.0
C325 C 0.10008 0.34803 0.66514 0.0
H326 H 0.94196 0.2691 0.64885 0.0
H327 H 0.04677 0.32081 0.62805 0.0
S328 S 0.10818 0.35715 0.73915 0.0
N329 N 1.03117 0.31832 0.7324 0.0
N330 N 0.14478 0.37467 0.70992 0.0
C331 C 0.09406 0.3496 0.69304 0.0
C332 C 1.03244 0.31879 0.70523 0.0
C333 C 0.7449 1.02167 0.03695 0.0
C334 C 0.71811 0.96525 0.02165 0.0
C335 C 0.77416 0.0819 0.02473 0.0
C336 C 0.77847 0.0878 0.99675 0.0
H337 H 0.74794 1.01942 0.0585 0.0
H338 H 0.79915 0.12369 0.03727 0.0
S339 S 0.70417 0.95546 0.94775 0.0
N340 N 0.68831 0.91956 0.97712 0.0
N341 N 0.74402 0.0326 0.95417 0.0
C342 C 0.74536 0.03198 0.98134 0.0
C343 C 0.71489 0.97066 0.99378 0.0
C344 C 0.71098 0.75402 0.35782 0.0
C345 C 0.70967 0.75914 0.32987 0.0
C346 C 0.74193 0.72447 0.36983 0.0
C347 C 0.77166 0.69812 0.35433 0.0
H348 H 0.69413 0.77874 0.37052 0.0
H349 H 0.74724 0.72708 0.39138 0.0
S350 S 0.76861 0.68675 0.28036 0.0
N351 N 0.73112 0.7263 0.28707 0.0
N352 N 0.78817 0.66982 0.30961 0.0
C353 C 0.76329 0.69571 0.32646 0.0
C354 C 0.73261 0.72659 0.31423 0.0
C355 C 0.04152 0.72901 0.7042 0.0
C356 C 0.09817 0.75823 0.68903 0.0
C357 C 0.98146 0.69798 0.69184 0.0
C358 C 0.97597 0.696 0.66384 0.0
H359 H 0.04347 0.73472 0.72573 0.0
H360 H 0.93949 0.68152 0.70427 0.0
S361 S 0.1091 0.75312 0.61522 0.0
N362 N 0.14454 0.77342 0.64467 0.0
N363 N 1.03183 0.71607 0.62144 0.0
C364 C 1.03203 0.71835 0.64859 0.0
C365 C 0.09317 0.74919 0.66119 0.0
C366 C 0.11055 0.25198 0.02345 0.0
C367 C 0.10291 0.25309 0.99557 0.0
C368 C 0.16336 0.25141 0.03449 0.0
C369 C 0.21116 0.25268 0.01813 0.0
H370 H 0.07492 0.25054 0.03697 0.0
H371 H 0.16665 0.25 0.05606 0.0
S372 S 0.21492 0.25779 0.94381 0.0
N373 N 0.14833 0.2567 0.95181 0.0
N374 N 0.24784 0.25611 0.97245 0.0
C375 C 0.20464 0.25477 0.99018 0.0
C376 C 0.15049 0.25478 0.97893 0.0
C377 C 0.91488 0.12838 0.3176 0.0
C378 C 0.8669 0.08201 0.33394 0.0
C379 C 0.96788 0.1815 0.32866 0.0
C380 C 0.97556 0.19018 0.35655 0.0
H381 H 0.91161 0.12379 0.29604 0.0
H382 H 1.00358 0.21557 0.31514 0.0
S383 S 0.86315 0.08313 0.40826 0.0
N384 N 0.83009 0.04876 0.37961 0.0
N385 N 0.93 0.1484 0.40029 0.0
C386 C 0.92782 0.14442 0.37317 0.0
C387 C 0.87345 0.0905 0.3619 0.0
C388 C 0.81012 0.8633 0.69013 0.0
C389 C 0.81184 0.8561 0.66224 0.0
C390 C 0.81055 0.91653 0.70125 0.0
C391 C 0.81194 0.96445 0.68495 0.0
H392 H 0.80935 0.82796 0.70362 0.0
H393 H 0.80964 0.91995 0.72282 0.0
S394 S 0.81536 0.96786 0.61062 0.0
N395 N 0.81412 0.90115 0.61852 0.0
N396 N 0.81445 1.00097 0.63932 0.0
C397 C 0.81285 0.95753 0.65698 0.0
C398 C 0.81298 0.90351 0.64566 0.0
C399 C 0.88418 0.80051 0.99585 0.0
C400 C 0.87603 0.79963 0.02377 0.0
C401 C 0.93703 0.80046 0.98456 0.0
C402 C 0.98366 0.7988 1.0007 0.0
H403 H 0.84989 0.80217 0.98247 0.0
H404 H 0.94122 0.8017 0.96298 0.0
S405 S 0.9839 0.79421 0.07502 0.0
N406 N 0.91856 0.79592 0.06733 0.0
N407 N 1.01771 0.79533 0.04623 0.0
C408 C 0.9757 0.797 0.0287 0.0
C409 C 0.92205 0.79763 0.04019 0.0
C410 C 0.14087 0.90308 0.36694 0.0
C411 C 0.09385 0.85544 0.35071 0.0
C412 C 0.19415 0.9557 0.35574 0.0
C413 C 0.20232 0.96332 0.32783 0.0
H414 H 0.13668 0.89979 0.38852 0.0
H415 H 0.22875 0.99118 0.36917 0.0
S416 S 0.09336 0.85177 0.27638 0.0
N417 N 0.05935 0.81893 0.30513 0.0
N418 N 0.1593 0.91813 0.28418 0.0
C419 C 0.15587 0.91594 0.31132 0.0
C420 C 0.10179 0.86196 0.32273 0.0
C421 C 0.26306 0.12744 0.70291 0.0
C422 C 0.26322 0.08012 0.68674 0.0
C423 C 0.26394 0.18079 0.69165 0.0
C424 C 0.26425 0.18871 0.66372 0.0
H425 H 0.26238 0.12344 0.7245 0.0
H426 H 0.26345 0.21565 0.70504 0.0
S427 S 0.26542 0.07876 0.6124 0.0
N428 N 0.2644 0.04499 0.64118 0.0
N429 N 0.26557 0.14502 0.62013 0.0
C430 C 0.26466 0.14191 0.64727 0.0
C431 C 0.26435 0.08778 0.65874 0.0
loop_
_geom_bond_atom_site_label_1
_geom_bond_atom_site_label_2
_geom_bond_distance
_geom_bond_site_symmetry_2
_ccdc_geom_bond_type
O0 Cd1 2.223 . S
O0 C8 1.315 . S
Cd1 O0 2.223 . S
Cd1 O4 2.297 . S
Cd1 O5 2.439 . S
Cd1 O11 2.240 . S
Cd2 O3 2.240 . S
Cd2 O10 2.223 1_554 S
Cd2 O12 2.297 . S
Cd2 O13 2.439 . S
O3 Cd2 2.240 . S
O3 C8 1.279 . S
O4 Cd1 2.297 . S
O4 C6 1.247 . S
O5 Cd1 2.439 . S
O5 C6 1.208 . S
C6 O4 1.247 . S
C6 O5 1.208 . S
C7 O12 1.247 . S
C7 O13 1.208 . S
C8 O0 1.315 . S
C8 O3 1.279 . S
C9 O10 1.315 1_554 S
C9 O11 1.279 . S
O10 Cd2 2.223 1_556 S
O10 C9 1.315 1_556 S
O11 Cd1 2.240 . S
O11 C9 1.279 . S
O12 Cd2 2.297 . S
O12 C7 1.247 . S
O13 Cd2 2.439 . S
O13 C7 1.208 . S
O14 Cd15 2.223 . S
O14 C22 1.315 . S
Cd15 O14 2.223 . S
Cd15 O18 2.297 . S
Cd15 O19 2.439 . S
Cd15 O25 2.239 1_455 S
Cd16 O17 2.240 . S
Cd16 O24 2.223 . S
Cd16 O26 2.297 . S
Cd16 O27 2.439 . S
O17 Cd16 2.240 . S
O17 C22 1.279 . S
O18 Cd15 2.297 . S
O18 C20 1.247 . S
O19 Cd15 2.439 . S
O19 C20 1.208 . S
C20 O18 1.247 . S
C20 O19 1.208 . S
C21 O26 1.247 . S
C21 O27 1.208 . S
C22 O14 1.315 . S
C22 O17 1.279 . S
C23 O24 1.315 1_655 S
C23 O25 1.279 . S
O24 Cd16 2.223 . S
O24 C23 1.315 1_455 S
O25 Cd15 2.239 1_655 S
O25 C23 1.279 . S
O26 Cd16 2.297 . S
O26 C21 1.247 . S
O27 Cd16 2.439 . S
O27 C21 1.208 . S
O28 Cd29 2.223 . S
O28 C36 1.315 . S
Cd29 O28 2.223 . S
Cd29 O32 2.297 . S
Cd29 O33 2.439 . S
Cd29 O39 2.240 1_545 S
Cd30 O31 2.240 . S
Cd30 O38 2.223 . S
Cd30 O40 2.297 . S
Cd30 O41 2.439 . S
O31 Cd30 2.240 . S
O31 C36 1.279 . S
O32 Cd29 2.297 . S
O32 C34 1.247 . S
O33 Cd29 2.439 . S
O33 C34 1.208 . S
C34 O32 1.247 . S
C34 O33 1.208 . S
C35 O40 1.247 . S
C35 O41 1.208 . S
C36 O28 1.315 . S
C36 O31 1.279 . S
C37 O38 1.315 1_565 S
C37 O39 1.279 . S
O38 Cd30 2.223 . S
O38 C37 1.315 1_545 S
O39 Cd29 2.240 1_565 S
O39 C37 1.279 . S
O40 Cd30 2.297 . S
O40 C35 1.247 . S
O41 Cd30 2.439 . S
O41 C35 1.208 . S
O42 Cd43 2.223 . S
O42 C50 1.315 . S
Cd43 O42 2.223 . S
Cd43 O46 2.297 . S
Cd43 O47 2.439 . S
Cd43 O53 2.240 . S
Cd44 O45 2.240 . S
Cd44 O52 2.223 1_554 S
Cd44 O54 2.297 . S
Cd44 O55 2.439 . S
O45 Cd44 2.240 . S
O45 C50 1.279 . S
O46 Cd43 2.297 . S
O46 C48 1.247 . S
O47 Cd43 2.439 . S
O47 C48 1.208 . S
C48 O46 1.247 . S
C48 O47 1.208 . S
C49 O54 1.247 . S
C49 O55 1.208 . S
C50 O42 1.315 . S
C50 O45 1.279 . S
C51 O52 1.315 1_554 S
C51 O53 1.279 . S
O52 Cd44 2.223 1_556 S
O52 C51 1.315 1_556 S
O53 Cd43 2.240 . S
O53 C51 1.279 . S
O54 Cd44 2.297 . S
O54 C49 1.247 . S
O55 Cd44 2.439 . S
O55 C49 1.208 . S
O56 Cd57 2.223 . S
O56 C64 1.315 . S
Cd57 O56 2.223 . S
Cd57 O60 2.297 . S
Cd57 O61 2.439 . S
Cd57 O67 2.239 1_655 S
Cd58 O59 2.240 . S
Cd58 O66 2.223 . S
Cd58 O68 2.297 . S
Cd58 O69 2.439 . S
O59 Cd58 2.240 . S
O59 C64 1.279 . S
O60 Cd57 2.297 . S
O60 C62 1.247 . S
O61 Cd57 2.439 . S
O61 C62 1.208 . S
C62 O60 1.247 . S
C62 O61 1.208 . S
C63 O68 1.247 . S
C63 O69 1.208 . S
C64 O56 1.315 . S
C64 O59 1.279 . S
C65 O66 1.315 1_455 S
C65 O67 1.279 . S
O66 Cd58 2.223 . S
O66 C65 1.315 1_655 S
O67 Cd57 2.239 1_455 S
O67 C65 1.279 . S
O68 Cd58 2.297 . S
O68 C63 1.247 . S
O69 Cd58 2.439 . S
O69 C63 1.208 . S
O70 Cd71 2.223 . S
O70 C78 1.315 . S
Cd71 O70 2.223 . S
Cd71 O74 2.297 . S
Cd71 O75 2.439 . S
Cd71 O81 2.240 1_565 S
Cd72 O73 2.240 . S
Cd72 O80 2.223 . S
Cd72 O82 2.297 . S
Cd72 O83 2.439 . S
O73 Cd72 2.240 . S
O73 C78 1.279 . S
O74 Cd71 2.297 . S
O74 C76 1.247 . S
O75 Cd71 2.439 . S
O75 C76 1.208 . S
C76 O74 1.247 . S
C76 O75 1.208 . S
C77 O82 1.247 . S
C77 O83 1.208 . S
C78 O70 1.315 . S
C78 O73 1.279 . S
C79 O80 1.315 1_545 S
C79 O81 1.279 . S
O80 Cd72 2.223 . S
O80 C79 1.315 1_565 S
O81 Cd71 2.240 1_545 S
O81 C79 1.279 . S
O82 Cd72 2.297 . S
O82 C77 1.247 . S
O83 Cd72 2.439 . S
O83 C77 1.208 . S
O84 Cd85 2.223 . S
O84 C92 1.315 . S
Cd85 O84 2.223 . S
Cd85 O88 2.297 . S
Cd85 O89 2.439 . S
Cd85 O95 2.240 . S
Cd86 O87 2.240 . S
Cd86 O94 2.223 . S
Cd86 O96 2.297 . S
Cd86 O97 2.439 . S
O87 Cd86 2.240 . S
O87 C92 1.279 . S
O88 Cd85 2.297 . S
O88 C90 1.247 . S
O89 Cd85 2.439 . S
O89 C90 1.208 . S
C90 O88 1.247 . S
C90 O89 1.208 . S
C91 O96 1.247 . S
C91 O97 1.208 . S
C92 O84 1.315 . S
C92 O87 1.279 . S
C93 O94 1.315 . S
C93 O95 1.279 . S
O94 Cd86 2.223 . S
O94 C93 1.315 . S
O95 Cd85 2.240 . S
O95 C93 1.279 . S
O96 Cd86 2.297 . S
O96 C91 1.247 . S
O97 Cd86 2.439 . S
O97 C91 1.208 . S
O98 Cd99 2.223 . S
O98 C106 1.315 . S
Cd99 O98 2.223 . S
Cd99 O102 2.297 . S
Cd99 O103 2.439 . S
Cd99 O109 2.240 1_455 S
Cd100 O101 2.240 . S
Cd100 O108 2.223 1_556 S
Cd100 O110 2.297 . S
Cd100 O111 2.439 . S
O101 Cd100 2.240 . S
O101 C106 1.279 . S
O102 Cd99 2.297 . S
O102 C104 1.247 . S
O103 Cd99 2.439 . S
O103 C104 1.208 . S
C104 O102 1.247 . S
C104 O103 1.208 . S
C105 O110 1.247 . S
C105 O111 1.208 . S
C106 O98 1.315 . S
C106 O101 1.279 . S
C107 O108 1.315 1_656 S
C107 O109 1.279 . S
O108 Cd100 2.223 1_554 S
O108 C107 1.315 1_454 S
O109 Cd99 2.240 1_655 S
O109 C107 1.279 . S
O110 Cd100 2.297 . S
O110 C105 1.247 . S
O111 Cd100 2.439 . S
O111 C105 1.208 . S
O112 Cd113 2.223 . S
O112 C120 1.315 . S
Cd113 O112 2.223 . S
Cd113 O116 2.297 . S
Cd113 O117 2.439 . S
Cd113 O123 2.240 1_545 S
Cd114 O115 2.240 . S
Cd114 O122 2.223 . S
Cd114 O124 2.297 . S
Cd114 O125 2.439 . S
O115 Cd114 2.240 . S
O115 C120 1.279 . S
O116 Cd113 2.297 . S
O116 C118 1.247 . S
O117 Cd113 2.439 . S
O117 C118 1.208 . S
C118 O116 1.247 . S
C118 O117 1.208 . S
C119 O124 1.247 . S
C119 O125 1.208 . S
C120 O112 1.315 . S
C120 O115 1.279 . S
C121 O122 1.315 1_565 S
C121 O123 1.279 . S
O122 Cd114 2.223 . S
O122 C121 1.315 1_545 S
O123 Cd113 2.240 1_565 S
O123 C121 1.279 . S
O124 Cd114 2.297 . S
O124 C119 1.247 . S
O125 Cd114 2.439 . S
O125 C119 1.208 . S
O126 Cd127 2.223 . S
O126 C134 1.315 . S
Cd127 O126 2.223 . S
Cd127 O130 2.297 . S
Cd127 O131 2.439 . S
Cd127 O137 2.240 . S
Cd128 O129 2.240 . S
Cd128 O136 2.223 . S
Cd128 O138 2.297 . S
Cd128 O139 2.439 . S
O129 Cd128 2.240 . S
O129 C134 1.279 . S
O130 Cd127 2.297 . S
O130 C132 1.247 . S
O131 Cd127 2.439 . S
O131 C132 1.208 . S
C132 O130 1.247 . S
C132 O131 1.208 . S
C133 O138 1.247 . S
C133 O139 1.208 . S
C134 O126 1.315 . S
C134 O129 1.279 . S
C135 O136 1.315 . S
C135 O137 1.279 . S
O136 Cd128 2.223 . S
O136 C135 1.315 . S
O137 Cd127 2.240 . S
O137 C135 1.279 . S
O138 Cd128 2.297 . S
O138 C133 1.247 . S
O139 Cd128 2.439 . S
O139 C133 1.208 . S
O140 Cd141 2.223 . S
O140 C148 1.315 . S
Cd141 O140 2.223 . S
Cd141 O144 2.297 . S
Cd141 O145 2.439 . S
Cd141 O151 2.240 1_655 S
Cd142 O143 2.240 . S
Cd142 O150 2.223 1_556 S
Cd142 O152 2.297 . S
Cd142 O153 2.439 . S
O143 Cd142 2.240 . S
O143 C148 1.279 . S
O144 Cd141 2.297 . S
O144 C146 1.247 . S
O145 Cd141 2.439 . S
O145 C146 1.208 . S
C146 O144 1.247 . S
C146 O145 1.208 . S
C147 O152 1.247 . S
C147 O153 1.208 . S
C148 O140 1.315 . S
C148 O143 1.279 . S
C149 O150 1.315 1_456 S
C149 O151 1.279 . S
O150 Cd142 2.223 1_554 S
O150 C149 1.315 1_654 S
O151 Cd141 2.240 1_455 S
O151 C149 1.279 . S
O152 Cd142 2.297 . S
O152 C147 1.247 . S
O153 Cd142 2.439 . S
O153 C147 1.208 . S
O154 Cd155 2.223 . S
O154 C162 1.315 . S
Cd155 O154 2.223 . S
Cd155 O158 2.297 . S
Cd155 O159 2.439 . S
Cd155 O165 2.240 1_565 S
Cd156 O157 2.240 . S
Cd156 O164 2.223 . S
Cd156 O166 2.297 . S
Cd156 O167 2.439 . S
O157 Cd156 2.240 . S
O157 C162 1.279 . S
O158 Cd155 2.297 . S
O158 C160 1.247 . S
O159 Cd155 2.439 . S
O159 C160 1.208 . S
C160 O158 1.247 . S
C160 O159 1.208 . S
C161 O166 1.247 . S
C161 O167 1.208 . S
C162 O154 1.315 . S
C162 O157 1.279 . S
C163 O164 1.315 1_545 S
C163 O165 1.279 . S
O164 Cd156 2.223 . S
O164 C163 1.315 1_565 S
O165 Cd155 2.240 1_545 S
O165 C163 1.279 . S
O166 Cd156 2.297 . S
O166 C161 1.247 . S
O167 Cd156 2.439 . S
O167 C161 1.208 . S
C168 C169 1.369 . S
C168 C170 1.419 . S
C168 H172 0.930 . S
C169 C168 1.369 . S
C169 C178 1.429 . S
C170 C168 1.419 . S
C170 C171 1.363 . S
C170 H173 0.929 . S
C171 C170 1.363 . S
C171 C177 1.428 . S
H172 C168 0.930 . S
H173 C170 0.929 . S
S174 N175 1.613 . S
S174 N176 1.610 . S
N175 S174 1.613 . S
N175 C178 1.350 1_556 S
N176 S174 1.610 . S
N176 C177 1.351 1_556 S
C177 C171 1.428 . S
C177 N176 1.351 1_554 S
C177 C178 1.434 . S
C178 C169 1.429 . S
C178 N175 1.350 1_554 S
C178 C177 1.434 . S
C179 C180 1.369 . S
C179 C181 1.419 1_455 S
C179 H183 0.930 . S
C180 C179 1.369 . S
C180 C189 1.429 . S
C181 C179 1.419 1_655 S
C181 C182 1.363 . S
C181 H184 0.929 . S
C182 C181 1.363 . S
C182 C188 1.428 . S
H183 C179 0.930 . S
H184 C181 0.929 . S
S185 N186 1.613 . S
S185 N187 1.610 1_455 S
N186 S185 1.613 . S
N186 C189 1.350 . S
N187 S185 1.610 1_655 S
N187 C188 1.351 . S
C188 C182 1.428 . S
C188 N187 1.351 . S
C188 C189 1.434 1_655 S
C189 C180 1.429 . S
C189 N186 1.350 . S
C189 C188 1.434 1_455 S
C190 C191 1.369 1_545 S
C190 C192 1.419 . S
C190 H194 0.930 . S
C191 C190 1.369 1_565 S
C191 C200 1.429 . S
C192 C190 1.419 . S
C192 C193 1.363 . S
C192 H195 0.929 . S
C193 C192 1.363 . S
C193 C199 1.428 1_545 S
H194 C190 0.930 . S
H195 C192 0.929 . S
S196 N197 1.613 . S
S196 N198 1.610 . S
N197 S196 1.613 . S
N197 C200 1.350 . S
N198 S196 1.610 . S
N198 C199 1.351 . S
C199 C193 1.428 1_565 S
C199 N198 1.351 . S
C199 C200 1.434 . S
C200 C191 1.429 . S
C200 N197 1.350 . S
C200 C199 1.434 . S
C201 C202 1.369 . S
C201 C203 1.419 . S
C201 H205 0.930 . S
C202 C201 1.369 . S
C202 C211 1.429 . S
C203 C201 1.419 . S
C203 C204 1.363 . S
C203 H206 0.929 . S
C204 C203 1.363 . S
C204 C210 1.428 . S
H205 C201 0.930 . S
H206 C203 0.929 . S
S207 N208 1.613 . S
S207 N209 1.610 . S
N208 S207 1.613 . S
N208 C211 1.350 . S
N209 S207 1.610 . S
N209 C210 1.351 . S
C210 C204 1.428 . S
C210 N209 1.351 . S
C210 C211 1.434 . S
C211 C202 1.429 . S
C211 N208 1.350 . S
C211 C210 1.434 . S
C212 C213 1.369 . S
C212 C214 1.419 . S
C212 H216 0.930 . S
C213 C212 1.369 . S
C213 C222 1.429 1_655 S
C214 C212 1.419 . S
C214 C215 1.363 1_655 S
C214 H217 0.929 . S
C215 C214 1.363 1_455 S
C215 C221 1.428 . S
H216 C212 0.930 . S
H217 C214 0.929 . S
S218 N219 1.613 . S
S218 N220 1.610 . S
N219 S218 1.613 . S
N219 C222 1.350 . S
N220 S218 1.610 . S
N220 C221 1.351 . S
C221 C215 1.428 . S
C221 N220 1.351 . S
C221 C222 1.434 . S
C222 C213 1.429 1_455 S
C222 N219 1.350 . S
C222 C221 1.434 . S
C223 C224 1.369 . S
C223 C225 1.419 . S
C223 H227 0.930 . S
C224 C223 1.369 . S
C224 C233 1.429 1_545 S
C225 C223 1.419 . S
C225 C226 1.363 1_545 S
C225 H228 0.929 . S
C226 C225 1.363 1_565 S
C226 C232 1.428 . S
H227 C223 0.930 . S
H228 C225 0.929 . S
S229 N230 1.613 . S
S229 N231 1.610 . S
N230 S229 1.613 . S
N230 C233 1.350 . S
N231 S229 1.610 . S
N231 C232 1.351 . S
C232 C226 1.428 . S
C232 N231 1.351 . S
C232 C233 1.434 . S
C233 C224 1.429 1_565 S
C233 N230 1.350 . S
C233 C232 1.434 . S
C234 C235 1.369 . S
C234 C236 1.419 . S
C234 H238 0.930 . S
C235 C234 1.369 . S
C235 C244 1.429 . S
C236 C234 1.419 . S
C236 C237 1.363 . S
C236 H239 0.929 . S
C237 C236 1.363 . S
C237 C243 1.428 . S
H238 C234 0.930 . S
H239 C236 0.929 . S
S240 N241 1.613 . S
S240 N242 1.610 . S
N241 S240 1.613 . S
N241 C244 1.350 . S
N242 S240 1.610 . S
N242 C243 1.351 . S
C243 C237 1.428 . S
C243 N242 1.351 . S
C243 C244 1.434 . S
C244 C235 1.429 . S
C244 N241 1.350 . S
C244 C243 1.434 . S
C245 C246 1.369 . S
C245 C247 1.419 . S
C245 H249 0.930 . S
C246 C245 1.369 . S
C246 C255 1.429 . S
C247 C245 1.419 . S
C247 C248 1.363 . S
C247 H250 0.929 . S
C248 C247 1.363 . S
C248 C254 1.428 . S
H249 C245 0.930 . S
H250 C247 0.929 . S
S251 N252 1.613 . S
S251 N253 1.610 . S
N252 S251 1.613 . S
N252 C255 1.350 . S
N253 S251 1.610 . S
N253 C254 1.351 . S
C254 C248 1.428 . S
C254 N253 1.351 . S
C254 C255 1.434 . S
C255 C246 1.429 . S
C255 N252 1.350 . S
C255 C254 1.434 . S
C256 C257 1.369 . S
C256 C258 1.419 . S
C256 H260 0.930 . S
C257 C256 1.369 . S
C257 C266 1.429 . S
C258 C256 1.419 . S
C258 C259 1.363 . S
C258 H261 0.929 . S
C259 C258 1.363 . S
C259 C265 1.428 . S
H260 C256 0.930 . S
H261 C258 0.929 . S
S262 N263 1.613 . S
S262 N264 1.610 . S
N263 S262 1.613 . S
N263 C266 1.350 . S
N264 S262 1.610 . S
N264 C265 1.351 . S
C265 C259 1.428 . S
C265 N264 1.351 . S
C265 C266 1.434 . S
C266 C257 1.429 . S
C266 N263 1.350 . S
C266 C265 1.434 . S
C267 C268 1.369 . S
C267 C269 1.419 . S
C267 H271 0.930 . S
C268 C267 1.369 . S
C268 C277 1.429 . S
C269 C267 1.419 . S
C269 C270 1.363 . S
C269 H272 0.929 . S
C270 C269 1.363 . S
C270 C276 1.428 . S
H271 C267 0.930 . S
H272 C269 0.929 . S
S273 N274 1.613 . S
S273 N275 1.610 . S
N274 S273 1.613 . S
N274 C277 1.350 . S
N275 S273 1.610 . S
N275 C276 1.351 . S
C276 C270 1.428 . S
C276 N275 1.351 . S
C276 C277 1.434 . S
C277 C268 1.429 . S
C277 N274 1.350 . S
C277 C276 1.434 . S
C278 C279 1.369 . S
C278 C280 1.419 . S
C278 H282 0.930 . S
C279 C278 1.369 . S
C279 C288 1.429 . S
C280 C278 1.419 . S
C280 C281 1.363 . S
C280 H283 0.929 . S
C281 C280 1.363 . S
C281 C287 1.428 . S
H282 C278 0.930 . S
H283 C280 0.929 . S
S284 N285 1.613 1_455 S
S284 N286 1.610 1_455 S
N285 S284 1.613 1_655 S
N285 C288 1.350 . S
N286 S284 1.610 1_655 S
N286 C287 1.351 . S
C287 C281 1.428 . S
C287 N286 1.351 . S
C287 C288 1.434 . S
C288 C279 1.429 . S
C288 N285 1.350 . S
C288 C287 1.434 . S
C289 C290 1.369 . S
C289 C291 1.419 . S
C289 H293 0.930 . S
C290 C289 1.369 . S
C290 C299 1.429 . S
C291 C289 1.419 . S
C291 C292 1.363 . S
C291 H294 0.929 . S
C292 C291 1.363 . S
C292 C298 1.428 . S
H293 C289 0.930 . S
H294 C291 0.929 . S
S295 N296 1.613 . S
S295 N297 1.610 . S
N296 S295 1.613 . S
N296 C299 1.350 . S
N297 S295 1.610 . S
N297 C298 1.351 . S
C298 C292 1.428 . S
C298 N297 1.351 . S
C298 C299 1.434 . S
C299 C290 1.429 . S
C299 N296 1.350 . S
C299 C298 1.434 . S
C300 C301 1.369 1_554 S
C300 C302 1.419 1_565 S
C300 H304 0.930 . S
C301 C300 1.369 1_556 S
C301 C310 1.429 . S
C302 C300 1.419 1_545 S
C302 C303 1.363 . S
C302 H305 0.929 . S
C303 C302 1.363 . S
C303 C309 1.428 1_554 S
H304 C300 0.930 . S
H305 C302 0.929 . S
S306 N307 1.613 1_545 S
S306 N308 1.610 . S
N307 S306 1.613 1_565 S
N307 C310 1.350 . S
N308 S306 1.610 . S
N308 C309 1.351 . S
C309 C303 1.428 1_556 S
C309 N308 1.351 . S
C309 C310 1.434 1_545 S
C310 C301 1.429 . S
C310 N307 1.350 . S
C310 C309 1.434 1_565 S
C311 C312 1.369 . S
C311 C313 1.419 . S
C311 H315 0.930 . S
C312 C311 1.369 . S
C312 C321 1.429 . S
C313 C311 1.419 . S
C313 C314 1.363 . S
C313 H316 0.929 . S
C314 C313 1.363 . S
C314 C320 1.428 . S
H315 C311 0.930 . S
H316 C313 0.929 . S
S317 N318 1.613 . S
S317 N319 1.610 . S
N318 S317 1.613 . S
N318 C321 1.350 . S
N319 S317 1.610 . S
N319 C320 1.351 . S
C320 C314 1.428 . S
C320 N319 1.351 . S
C320 C321 1.434 . S
C321 C312 1.429 . S
C321 N318 1.350 . S
C321 C320 1.434 . S
C322 C323 1.369 . S
C322 C324 1.419 1_655 S
C322 H326 0.930 . S
C323 C322 1.369 . S
C323 C332 1.429 . S
C324 C322 1.419 1_455 S
C324 C325 1.363 . S
C324 H327 0.929 . S
C325 C324 1.363 . S
C325 C331 1.428 . S
H326 C322 0.930 . S
H327 C324 0.929 . S
S328 N329 1.613 1_455 S
S328 N330 1.610 . S
N329 S328 1.613 1_655 S
N329 C332 1.350 . S
N330 S328 1.610 . S
N330 C331 1.351 . S
C331 C325 1.428 . S
C331 N330 1.351 . S
C331 C332 1.434 1_455 S
C332 C323 1.429 . S
C332 N329 1.350 . S
C332 C331 1.434 1_655 S
C333 C334 1.369 . S
C333 C335 1.419 1_565 S
C333 H337 0.930 . S
C334 C333 1.369 . S
C334 C343 1.429 1_554 S
C335 C333 1.419 1_545 S
C335 C336 1.363 1_554 S
C335 H338 0.929 . S
C336 C335 1.363 1_556 S
C336 C342 1.428 . S
H337 C333 0.930 . S
H338 C335 0.929 . S
S339 N340 1.613 . S
S339 N341 1.610 1_565 S
N340 S339 1.613 . S
N340 C343 1.350 . S
N341 S339 1.610 1_545 S
N341 C342 1.351 . S
C342 C336 1.428 . S
C342 N341 1.351 . S
C342 C343 1.434 1_545 S
C343 C334 1.429 1_556 S
C343 N340 1.350 . S
C343 C342 1.434 1_565 S
C344 C345 1.369 . S
C344 C346 1.419 . S
C344 H348 0.930 . S
C345 C344 1.369 . S
C345 C354 1.429 . S
C346 C344 1.419 . S
C346 C347 1.363 . S
C346 H349 0.929 . S
C347 C346 1.363 . S
C347 C353 1.428 . S
H348 C344 0.930 . S
H349 C346 0.929 . S
S350 N351 1.613 . S
S350 N352 1.610 . S
N351 S350 1.613 . S
N351 C354 1.350 . S
N352 S350 1.610 . S
N352 C353 1.351 . S
C353 C347 1.428 . S
C353 N352 1.351 . S
C353 C354 1.434 . S
C354 C345 1.429 . S
C354 N351 1.350 . S
C354 C353 1.434 . S
C355 C356 1.369 . S
C355 C357 1.419 1_455 S
C355 H359 0.930 . S
C356 C355 1.369 . S
C356 C365 1.429 . S
C357 C355 1.419 1_655 S
C357 C358 1.363 . S
C357 H360 0.929 . S
C358 C357 1.363 . S
C358 C364 1.428 . S
H359 C355 0.930 . S
H360 C357 0.929 . S
S361 N362 1.613 . S
S361 N363 1.610 1_455 S
N362 S361 1.613 . S
N362 C365 1.350 . S
N363 S361 1.610 1_655 S
N363 C364 1.351 . S
C364 C358 1.428 . S
C364 N363 1.351 . S
C364 C365 1.434 1_655 S
C365 C356 1.429 . S
C365 N362 1.350 . S
C365 C364 1.434 1_455 S
C366 C367 1.369 1_554 S
C366 C368 1.419 . S
C366 H370 0.930 . S
C367 C366 1.369 1_556 S
C367 C376 1.429 . S
C368 C366 1.419 . S
C368 C369 1.363 . S
C368 H371 0.929 . S
C369 C368 1.363 . S
C369 C375 1.428 1_554 S
H370 C366 0.930 . S
H371 C368 0.929 . S
S372 N373 1.613 . S
S372 N374 1.610 . S
N373 S372 1.613 . S
N373 C376 1.350 . S
N374 S372 1.610 . S
N374 C375 1.351 . S
C375 C369 1.428 1_556 S
C375 N374 1.351 . S
C375 C376 1.434 . S
C376 C367 1.429 . S
C376 N373 1.350 . S
C376 C375 1.434 . S
C377 C378 1.369 . S
C377 C379 1.419 . S
C377 H381 0.930 . S
C378 C377 1.369 . S
C378 C387 1.429 . S
C379 C377 1.419 . S
C379 C380 1.363 . S
C379 H382 0.929 . S
C380 C379 1.363 . S
C380 C386 1.428 . S
H381 C377 0.930 . S
H382 C379 0.929 . S
S383 N384 1.613 . S
S383 N385 1.610 . S
N384 S383 1.613 . S
N384 C387 1.350 . S
N385 S383 1.610 . S
N385 C386 1.351 . S
C386 C380 1.428 . S
C386 N385 1.351 . S
C386 C387 1.434 . S
C387 C378 1.429 . S
C387 N384 1.350 . S
C387 C386 1.434 . S
C388 C389 1.369 . S
C388 C390 1.419 . S
C388 H392 0.930 . S
C389 C388 1.369 . S
C389 C398 1.429 . S
C390 C388 1.419 . S
C390 C391 1.363 . S
C390 H393 0.929 . S
C391 C390 1.363 . S
C391 C397 1.428 . S
H392 C388 0.930 . S
H393 C390 0.929 . S
S394 N395 1.613 . S
S394 N396 1.610 . S
N395 S394 1.613 . S
N395 C398 1.350 . S
N396 S394 1.610 . S
N396 C397 1.351 . S
C397 C391 1.428 . S
C397 N396 1.351 . S
C397 C398 1.434 . S
C398 C389 1.429 . S
C398 N395 1.350 . S
C398 C397 1.434 . S
C399 C400 1.369 1_556 S
C399 C401 1.419 . S
C399 H403 0.930 . S
C400 C399 1.369 1_554 S
C400 C409 1.429 . S
C401 C399 1.419 . S
C401 C402 1.363 . S
C401 H404 0.929 . S
C402 C401 1.363 . S
C402 C408 1.428 1_556 S
H403 C399 0.930 . S
H404 C401 0.929 . S
S405 N406 1.613 . S
S405 N407 1.610 . S
N406 S405 1.613 . S
N406 C409 1.350 . S
N407 S405 1.610 . S
N407 C408 1.351 . S
C408 C402 1.428 1_554 S
C408 N407 1.351 . S
C408 C409 1.434 . S
C409 C400 1.429 . S
C409 N406 1.350 . S
C409 C408 1.434 . S
C410 C411 1.369 . S
C410 C412 1.419 . S
C410 H414 0.930 . S
C411 C410 1.369 . S
C411 C420 1.429 . S
C412 C410 1.419 . S
C412 C413 1.363 . S
C412 H415 0.929 . S
C413 C412 1.363 . S
C413 C419 1.428 . S
H414 C410 0.930 . S
H415 C412 0.929 . S
S416 N417 1.613 . S
S416 N418 1.610 . S
N417 S416 1.613 . S
N417 C420 1.350 . S
N418 S416 1.610 . S
N418 C419 1.351 . S
C419 C413 1.428 . S
C419 N418 1.351 . S
C419 C420 1.434 . S
C420 C411 1.429 . S
C420 N417 1.350 . S
C420 C419 1.434 . S
C421 C422 1.369 . S
C421 C423 1.419 . S
C421 H425 0.930 . S
C422 C421 1.369 . S
C422 C431 1.429 . S
C423 C421 1.419 . S
C423 C424 1.363 . S
C423 H426 0.929 . S
C424 C423 1.363 . S
C424 C430 1.428 . S
H425 C421 0.930 . S
H426 C423 0.929 . S
S427 N428 1.613 . S
S427 N429 1.610 . S
N428 S427 1.613 . S
N428 C431 1.350 . S
N429 S427 1.610 . S
N429 C430 1.351 . S
C430 C424 1.428 . S
C430 N429 1.351 . S
C430 C431 1.434 . S
C431 C422 1.429 . S
C431 N428 1.350 . S
C431 C430 1.434 . S
C169 C49 1.373 . S
C171 C7 1.373 . S
C180 C21 1.373 . S
C182 C63 1.373 . S
C191 C77 1.375 . S
C193 C35 1.375 . S
C202 C91 1.376 . S
C204 C133 1.375 . S
C213 C147 1.374 . S
C215 C105 1.374 . S
C224 C119 1.374 . S
C226 C161 1.374 . S
C235 C118 1.578 . S
C237 C6 1.582 . S
C246 C20 1.583 . S
C248 C132 1.581 . S
C257 C34 1.575 . S
C259 C146 1.579 . S
C268 C48 1.582 . S
C270 C160 1.578 . S
C279 C90 1.578 . S
C281 C62 1.576 . S
C290 C104 1.583 . S
C292 C76 1.579 . S
C301 C106 1.598 . S
C303 C8 1.599 . S
C312 C22 1.600 . S
C314 C120 1.598 . S
C323 C36 1.592 . S
C325 C134 1.597 . S
C334 C50 1.598 . S
C336 C148 1.593 . S
C345 C162 1.598 . S
C347 C64 1.599 . S
C356 C78 1.596 . S
C358 C92 1.593 . S
C367 C149 1.507 . S
C369 C9 1.507 . S
C378 C163 1.506 . S
C380 C23 1.506 . S
C389 C93 1.507 . S
C391 C37 1.507 . S
C400 C51 1.506 . S
C402 C107 1.506 . S
C411 C65 1.506 . S
C413 C121 1.506 . S
C422 C79 1.507 . S
C424 C135 1.507 . S
