# Generated by pormake.
# Topology umy, (4)-cn, num edge types: 1
# Building blocks:
#     Node 0, Type 0, BuildingBlock: AZAVOO_clean_sbu_0, # of connection points: 4
#     Node 1, Type 0, BuildingBlock: AZAVOO_clean_sbu_0, # of connection points: 4
#     Node 2, Type 0, BuildingBlock: AZAVOO_clean_sbu_0, # of connection points: 4
#     Node 3, Type 0, BuildingBlock: AZAVOO_clean_sbu_0, # of connection points: 4
#     Node 4, Type 0, BuildingBlock: AZAVOO_clean_sbu_0, # of connection points: 4
#     Node 5, Type 0, BuildingBlock: AZAVOO_clean_sbu_0, # of connection points: 4
#     Node 6, Type 0, BuildingBlock: AZAVOO_clean_sbu_0, # of connection points: 4
#     Node 7, Type 0, BuildingBlock: AZAVOO_clean_sbu_0, # of connection points: 4
#     Node 8, Type 0, BuildingBlock: AZAVOO_clean_sbu_0, # of connection points: 4
#     Node 9, Type 0, BuildingBlock: AZAVOO_clean_sbu_0, # of connection points: 4
#     Node 10, Type 0, BuildingBlock: AZAVOO_clean_sbu_0, # of connection points: 4
#     Node 11, Type 0, BuildingBlock: AZAVOO_clean_sbu_0, # of connection points: 4
#     Edge 12, Type (0, 0), BuildingBlock: ZUJKAS_clean_linker_0, # of connection points: 2
#     Edge 13, Type (0, 0), BuildingBlock: ZUJKAS_clean_linker_0, # of connection points: 2
#     Edge 14, Type (0, 0), BuildingBlock: ZUJKAS_clean_linker_0, # of connection points: 2
#     Edge 15, Type (0, 0), BuildingBlock: ZUJKAS_clean_linker_0, # of connection points: 2
#     Edge 16, Type (0, 0), BuildingBlock: ZUJKAS_clean_linker_0, # of connection points: 2
#     Edge 17, Type (0, 0), BuildingBlock: ZUJKAS_clean_linker_0, # of connection points: 2
#     Edge 18, Type (0, 0), BuildingBlock: ZUJKAS_clean_linker_0, # of connection points: 2
#     Edge 19, Type (0, 0), BuildingBlock: ZUJKAS_clean_linker_0, # of connection points: 2
#     Edge 20, Type (0, 0), BuildingBlock: ZUJKAS_clean_linker_0, # of connection points: 2
#     Edge 21, Type (0, 0), BuildingBlock: ZUJKAS_clean_linker_0, # of connection points: 2
#     Edge 22, Type (0, 0), BuildingBlock: ZUJKAS_clean_linker_0, # of connection points: 2
#     Edge 23, Type (0, 0), BuildingBlock: ZUJKAS_clean_linker_0, # of connection points: 2
#     Edge 24, Type (0, 0), BuildingBlock: ZUJKAS_clean_linker_0, # of connection points: 2
#     Edge 25, Type (0, 0), BuildingBlock: ZUJKAS_clean_linker_0, # of connection points: 2
#     Edge 26, Type (0, 0), BuildingBlock: ZUJKAS_clean_linker_0, # of connection points: 2
#     Edge 27, Type (0, 0), BuildingBlock: ZUJKAS_clean_linker_0, # of connection points: 2
#     Edge 28, Type (0, 0), BuildingBlock: ZUJKAS_clean_linker_0, # of connection points: 2
#     Edge 29, Type (0, 0), BuildingBlock: ZUJKAS_clean_linker_0, # of connection points: 2
#     Edge 30, Type (0, 0), BuildingBlock: ZUJKAS_clean_linker_0, # of connection points: 2
#     Edge 31, Type (0, 0), BuildingBlock: ZUJKAS_clean_linker_0, # of connection points: 2
#     Edge 32, Type (0, 0), BuildingBlock: ZUJKAS_clean_linker_0, # of connection points: 2
#     Edge 33, Type (0, 0), BuildingBlock: ZUJKAS_clean_linker_0, # of connection points: 2
#     Edge 34, Type (0, 0), BuildingBlock: ZUJKAS_clean_linker_0, # of connection points: 2
#     Edge 35, Type (0, 0), BuildingBlock: ZUJKAS_clean_linker_0, # of connection points: 2
# Relax obj value: 0.138
# Max RMSD: 0.148
# Mean RMSD: 0.148
data_MOF--net-umy--node1-AZAVOO_clean_sbu_0--edge1-ZUJKAS_clean_linker_0
_symmetry_space_group_name_H-M    P1
_symmetry_Int_Tables_number       1
_symmetry_cell_setting            triclinic
loop_
_symmetry_equiv_pos_as_xyz
'x, y, z'
_cell_length_a     52.670535
_cell_length_b     52.648032
_cell_length_c     58.856394
_cell_angle_alpha  89.956053
_cell_angle_beta   90.038707
_cell_angle_gamma 119.99511
loop_
_atom_site_label
_atom_site_type_symbol
_atom_site_fract_x
_atom_site_fract_y
_atom_site_fract_z
_atom_type_partial_charge
Mg0 Mg 0.11152 0.35005 0.09106 0.0
O1 O 0.1371 0.35771 0.12409 0.0
O2 O 0.18371 0.39245 0.11885 0.0
Mg3 Mg 0.1881 0.40589 0.08133 0.0
C4 C 0.16304 0.37408 0.13158 0.0
C5 C 0.04752 0.32844 0.10965 0.0
O6 O 0.04837 0.34782 0.09514 0.0
O7 O 0.11215 0.39324 0.09605 0.0
O8 O 0.15889 0.42607 0.08833 0.0
O9 O 0.12277 0.31634 0.08034 0.0
O10 O 0.14948 0.3635 0.07212 0.0
C11 C 0.1328 0.4197 0.09357 0.0
C12 C 0.14613 0.33756 0.07118 0.0
O13 O 0.0695 0.32475 0.1114 0.0
Mg14 Mg 0.73649 0.10987 0.25348 0.0
O15 O 0.75347 0.13788 0.2854 0.0
O16 O 0.76785 0.18461 0.27761 0.0
Mg17 Mg 0.76048 0.18624 0.2393 0.0
C18 C 0.76392 0.16444 0.29163 0.0
C19 C 0.70946 0.04424 0.26934 0.0
O20 O 0.71094 0.03997 0.2475 0.0
O21 O 0.69454 0.11218 0.25515 0.0
O22 O 0.71066 0.15878 0.24515 0.0
O23 O 0.78161 0.11912 0.24546 0.0
O24 O 0.76292 0.14608 0.23329 0.0
C25 C 0.68995 0.13331 0.25081 0.0
C26 C 0.78507 0.14206 0.2346 0.0
O27 O 0.71755 0.06992 0.27646 0.0
Mg28 Mg 0.61318 0.74686 0.42998 0.0
O29 O 0.60397 0.7618 0.46384 0.0
O30 O 0.57258 0.77804 0.45853 0.0
Mg31 Mg 0.56179 0.77336 0.42043 0.0
C32 C 0.58867 0.77252 0.4715 0.0
C33 C 0.64649 0.71279 0.43907 0.0
O34 O 0.6452 0.71131 0.41678 0.0
O35 O 0.56854 0.70546 0.4313 0.0
O36 O 0.53856 0.72302 0.42378 0.0
O37 O 0.64952 0.79214 0.42278 0.0
O38 O 0.60351 0.77518 0.4123 0.0
C39 C 0.54292 0.70162 0.42782 0.0
C40 C 0.63002 0.79676 0.41323 0.0
O41 O 0.63466 0.72538 0.44942 0.0
Mg42 Mg 0.87792 0.6302 0.57461 0.0
O43 O 0.85216 0.62086 0.60771 0.0
O44 O 0.80533 0.58706 0.60197 0.0
Mg45 Mg 0.80115 0.57509 0.56417 0.0
C46 C 0.82613 0.60455 0.61503 0.0
C47 C 0.93024 0.68061 0.60063 0.0
O48 O 0.91768 0.69483 0.59244 0.0
O49 O 0.87717 0.58677 0.57804 0.0
O50 O 0.83015 0.55455 0.57059 0.0
O51 O 0.86648 0.66436 0.56548 0.0
O52 O 0.83992 0.61773 0.55578 0.0
C53 C 0.85621 0.56048 0.57546 0.0
C54 C 0.84308 0.6436 0.55605 0.0
O55 O 0.91968 0.65369 0.59566 0.0
Mg56 Mg 0.22298 0.86229 0.77035 0.0
O57 O 0.20564 0.83593 0.80318 0.0
O58 O 0.19016 0.7888 0.79594 0.0
Mg59 Mg 0.196 0.78499 0.7577 0.0
C60 C 0.19478 0.8094 0.80972 0.0
C61 C 0.26252 0.9283 0.78178 0.0
O62 O 0.26888 0.92845 0.76018 0.0
O63 O 0.26362 0.85782 0.77242 0.0
O64 O 0.24606 0.81083 0.76291 0.0
O65 O 0.17864 0.85506 0.76187 0.0
O66 O 0.19526 0.82585 0.75106 0.0
C67 C 0.26733 0.83608 0.76833 0.0
C68 C 0.1741 0.83144 0.75151 0.0
O69 O 0.24452 0.90416 0.79114 0.0
Mg70 Mg 0.36626 0.25199 0.90851 0.0
O71 O 0.3774 0.23801 0.94203 0.0
O72 O 0.41042 0.22403 0.93589 0.0
Mg73 Mg 0.41919 0.22776 0.89747 0.0
C74 C 0.39402 0.22859 0.94925 0.0
C75 C 0.31742 0.2629 0.92679 0.0
O76 O 0.30249 0.24157 0.91229 0.0
O77 O 0.41035 0.29425 0.90885 0.0
O78 O 0.44102 0.27804 0.89985 0.0
O79 O 0.33056 0.20615 0.90248 0.0
O80 O 0.37615 0.2238 0.8907 0.0
C81 C 0.43603 0.29892 0.90427 0.0
C82 C 0.35003 0.20172 0.89272 0.0
O83 O 0.34483 0.27298 0.92875 0.0
Mg84 Mg 0.61462 0.87712 0.75193 0.0
O85 O 0.60585 0.8515 0.7188 0.0
O86 O 0.57803 0.80359 0.72563 0.0
Mg87 Mg 0.56858 0.79878 0.76392 0.0
C88 C 0.59219 0.82497 0.71196 0.0
C89 C 0.6586 0.93862 0.73319 0.0
O90 O 0.67494 0.93495 0.74823 0.0
O91 O 0.56829 0.86977 0.7513 0.0
O92 O 0.54168 0.82209 0.75989 0.0
O93 O 0.65356 0.87207 0.75866 0.0
O94 O 0.60873 0.84097 0.77055 0.0
C95 C 0.54369 0.84679 0.7553 0.0
C96 C 0.63578 0.8478 0.76891 0.0
O97 O 0.63194 0.91881 0.73099 0.0
Mg98 Mg 0.75841 0.63242 0.89716 0.0
O99 O 0.77361 0.62237 0.86383 0.0
O100 O 0.78466 0.58712 0.86953 0.0
Mg101 Mg 0.7787 0.57645 0.90769 0.0
C102 C 0.78201 0.60501 0.85644 0.0
C103 C 0.73099 0.67168 0.88714 0.0
O104 O 0.73114 0.67239 0.90946 0.0
O105 O 0.71515 0.58939 0.89466 0.0
O106 O 0.72885 0.55672 0.90372 0.0
O107 O 0.80422 0.66634 0.90594 0.0
O108 O 0.78375 0.61966 0.91567 0.0
C109 C 0.70905 0.56311 0.89877 0.0
C110 C 0.80651 0.64549 0.91567 0.0
O111 O 0.74041 0.65671 0.87706 0.0
Mg112 Mg 0.10111 0.73136 0.09176 0.0
O113 O 0.12571 0.7462 0.05814 0.0
O114 O 0.17318 0.76175 0.06352 0.0
Mg115 Mg 0.17894 0.7577 0.10179 0.0
C116 C 0.15168 0.75651 0.05053 0.0
C117 C 0.0427 0.72135 0.07102 0.0
O118 O 0.04983 0.74437 0.08384 0.0
O119 O 0.10431 0.68981 0.091 0.0
O120 O 0.15174 0.7074 0.09881 0.0
O121 O 0.11025 0.77684 0.09815 0.0
O122 O 0.13913 0.76006 0.10949 0.0
C123 C 0.12604 0.68597 0.09476 0.0
C124 C 0.13443 0.78175 0.10771 0.0
O125 O 0.05881 0.70973 0.07131 0.0
Mg126 Mg 0.35676 0.12124 0.22943 0.0
O127 O 0.36883 0.14722 0.19621 0.0
O128 O 0.40271 0.19368 0.20334 0.0
Mg129 Mg 0.41079 0.19765 0.24181 0.0
C130 C 0.38624 0.17336 0.18953 0.0
C131 C 0.32266 0.05449 0.21927 0.0
O132 O 0.32445 0.05408 0.24152 0.0
O133 O 0.40029 0.12186 0.22925 0.0
O134 O 0.43157 0.16836 0.23894 0.0
O135 O 0.32165 0.13215 0.23622 0.0
O136 O 0.36744 0.15885 0.24795 0.0
C137 C 0.4261 0.14241 0.23416 0.0
C138 C 0.34147 0.15531 0.24661 0.0
O139 O 0.33441 0.07902 0.20907 0.0
Mg140 Mg 0.23508 0.35463 0.41468 0.0
O141 O 0.21797 0.36163 0.38104 0.0
O142 O 0.20036 0.39196 0.38593 0.0
Mg143 Mg 0.20532 0.40344 0.42391 0.0
C144 C 0.20623 0.37593 0.37322 0.0
C145 C 0.24753 0.30756 0.39408 0.0
O146 O 0.2242 0.29072 0.40632 0.0
O147 O 0.27494 0.40039 0.41235 0.0
O148 O 0.25549 0.4288 0.41956 0.0
O149 O 0.1908 0.31703 0.42273 0.0
O150 O 0.20587 0.36288 0.4326 0.0
C151 C 0.27755 0.42561 0.41533 0.0
C152 C 0.18513 0.33594 0.43201 0.0
O153 O 0.25811 0.33516 0.39458 0.0
Mg154 Mg 0.86046 0.23512 0.574 0.0
O155 O 0.83618 0.22213 0.54007 0.0
O156 O 0.79009 0.21206 0.54521 0.0
Mg157 Mg 0.78464 0.21727 0.5833 0.0
C158 C 0.81077 0.21466 0.53234 0.0
C159 C 0.91873 0.24059 0.5566 0.0
O160 O 0.90985 0.21802 0.57032 0.0
O161 O 0.86266 0.27933 0.57242 0.0
O162 O 0.81629 0.26694 0.57998 0.0
O163 O 0.84642 0.18839 0.58143 0.0
O164 O 0.82133 0.2099 0.5915 0.0
C165 C 0.84294 0.28624 0.57588 0.0
C166 C 0.82326 0.18648 0.59074 0.0
O167 O 0.90338 0.25293 0.55469 0.0
H168 H 0.0744 0.63377 0.08951 0.0
H169 H 0.06722 0.5841 0.0921 0.0
H170 H 0.1599 0.62032 0.10331 0.0
H171 H 0.16732 0.66973 0.10101 0.0
H172 H 0.09252 0.55762 0.06598 0.0
H173 H 0.12291 0.56343 0.1566 0.0
H174 H 0.11388 0.5891 0.14377 0.0
H175 H 0.15003 0.59395 0.14056 0.0
C176 C 0.09325 0.63116 0.09254 0.0
C177 C 0.12142 0.65579 0.09523 0.0
C178 C 0.08908 0.60278 0.09404 0.0
C179 C 0.11293 0.5986 0.0984 0.0
C180 C 0.14109 0.62309 0.10052 0.0
H181 H 0.1722 0.47829 0.09587 0.0
H182 H 0.16207 0.51859 0.09842 0.0
C183 C 0.14529 0.65136 0.09904 0.0
C184 C 0.10897 0.5688 0.10016 0.0
H185 H 0.12559 0.52657 0.13414 0.0
C186 C 0.09911 0.55047 0.08102 0.0
C187 C 0.11737 0.55949 0.11991 0.0
C188 C 0.12635 0.5774 0.14146 0.0
C189 C 0.0994 0.52394 0.0806 0.0
C190 C 0.10962 0.51564 0.09984 0.0
C191 C 0.11792 0.53316 0.11939 0.0
C192 C 0.11495 0.49067 0.09912 0.0
C193 C 0.09041 0.50575 0.0592 0.0
C194 C 0.09171 0.46161 0.09901 0.0
C195 C 0.0974 0.43837 0.09766 0.0
C196 C 0.12644 0.44394 0.09627 0.0
C197 C 0.14959 0.47316 0.09678 0.0
C198 C 0.14388 0.49625 0.09828 0.0
H199 H 0.08521 0.51647 0.04511 0.0
H200 H 0.10821 0.5017 0.05361 0.0
H201 H 0.07074 0.48413 0.06267 0.0
H202 H 0.06924 0.45696 0.09984 0.0
H203 H 0.07908 0.41613 0.09732 0.0
H204 H 0.63829 0.08075 0.25354 0.0
H205 H 0.5883 0.07302 0.25263 0.0
H206 H 0.62325 0.16645 0.24893 0.0
H207 H 0.67301 0.17449 0.24976 0.0
H208 H 0.57468 0.13046 0.28341 0.0
H209 H 0.55208 0.09189 0.1935 0.0
H210 H 0.56791 0.07689 0.21271 0.0
H211 H 0.58913 0.11434 0.20378 0.0
C212 C 0.63533 0.09966 0.25267 0.0
C213 C 0.65967 0.12825 0.25161 0.0
C214 C 0.60679 0.09516 0.25207 0.0
C215 C 0.60227 0.11918 0.25054 0.0
C216 C 0.62642 0.14767 0.25003 0.0
H217 H 0.48395 0.18109 0.24203 0.0
H218 H 0.52355 0.17042 0.24691 0.0
C219 C 0.65483 0.15219 0.25047 0.0
C220 C 0.5725 0.11514 0.24919 0.0
H221 H 0.51811 0.10189 0.21135 0.0
C222 C 0.56201 0.12373 0.26781 0.0
C223 C 0.55605 0.10612 0.22885 0.0
C224 C 0.5667 0.0968 0.20845 0.0
C225 C 0.536 0.12477 0.2663 0.0
C226 C 0.52057 0.11772 0.24546 0.0
C227 C 0.53014 0.10746 0.22725 0.0
C228 C 0.49628 0.12369 0.24165 0.0
C229 C 0.52564 0.13412 0.28688 0.0
C230 C 0.46802 0.10104 0.23615 0.0
C231 C 0.44518 0.10708 0.23318 0.0
C232 C 0.45038 0.13592 0.23554 0.0
C233 C 0.47902 0.1586 0.2403 0.0
C234 C 0.5017 0.15253 0.24325 0.0
H235 H 0.53402 0.12969 0.30285 0.0
H236 H 0.534 0.15807 0.28595 0.0
H237 H 0.50133 0.12265 0.28765 0.0
H238 H 0.46354 0.07867 0.23459 0.0
H239 H 0.42342 0.08911 0.22945 0.0
H240 H 0.54302 0.64959 0.43109 0.0
H241 H 0.50098 0.59991 0.42725 0.0
H242 H 0.44345 0.63557 0.41971 0.0
H243 H 0.48508 0.68511 0.42324 0.0
H244 H 0.44884 0.57042 0.45285 0.0
H245 H 0.4258 0.58392 0.36318 0.0
H246 H 0.45993 0.60889 0.37702 0.0
H247 H 0.42794 0.61229 0.38135 0.0
C248 C 0.52141 0.64687 0.42869 0.0
C249 C 0.51749 0.6714 0.42725 0.0
C250 C 0.49745 0.61848 0.42648 0.0
C251 C 0.46927 0.61418 0.42268 0.0
C252 C 0.46516 0.6385 0.42204 0.0
H253 H 0.29095 0.48285 0.4156 0.0
H254 H 0.33945 0.52657 0.41637 0.0
C255 C 0.489 0.66681 0.42421 0.0
C256 C 0.44391 0.58435 0.41955 0.0
H257 H 0.38735 0.54331 0.38333 0.0
C258 C 0.43562 0.56423 0.43753 0.0
C259 C 0.4269 0.57635 0.39945 0.0
C260 C 0.43574 0.59639 0.37906 0.0
C261 C 0.40975 0.53689 0.43642 0.0
C262 C 0.39205 0.52955 0.41675 0.0
C263 C 0.40098 0.54916 0.39842 0.0
C264 C 0.36299 0.50271 0.41559 0.0
C265 C 0.40077 0.51658 0.45664 0.0
C266 C 0.36029 0.47486 0.41452 0.0
C267 C 0.33252 0.4497 0.41399 0.0
C268 C 0.30706 0.45208 0.41459 0.0
C269 C 0.31003 0.48015 0.41524 0.0
C270 C 0.33773 0.50519 0.41565 0.0
H271 H 0.41498 0.52716 0.47165 0.0
H272 H 0.37768 0.50916 0.46135 0.0
H273 H 0.40218 0.49685 0.45216 0.0
H274 H 0.37963 0.4726 0.4142 0.0
H275 H 0.33102 0.42843 0.41346 0.0
H276 H 0.81597 0.50266 0.5809 0.0
H277 H 0.82478 0.46154 0.5837 0.0
H278 H 0.9179 0.52072 0.57835 0.0
H279 H 0.90936 0.56244 0.57564 0.0
H280 H 0.89059 0.46834 0.54737 0.0
H281 H 0.86336 0.4413 0.63837 0.0
H282 H 0.83764 0.44794 0.62316 0.0
H283 H 0.87477 0.47723 0.62675 0.0
C284 C 0.83838 0.50708 0.58042 0.0
C285 C 0.86197 0.53585 0.57802 0.0
C286 C 0.84336 0.48354 0.58216 0.0
C287 C 0.87197 0.48821 0.58146 0.0
C288 C 0.89568 0.51681 0.57908 0.0
H289 H 0.89777 0.33476 0.57092 0.0
H290 H 0.91077 0.38642 0.57285 0.0
C291 C 0.89074 0.54055 0.57757 0.0
C292 C 0.87639 0.46267 0.5822 0.0
H293 H 0.85986 0.40266 0.61457 0.0
C294 C 0.88463 0.45424 0.56218 0.0
C295 C 0.86865 0.44453 0.60161 0.0
C296 C 0.86086 0.45328 0.62378 0.0
C297 C 0.88308 0.42688 0.56055 0.0
C298 C 0.87339 0.40787 0.57954 0.0
C299 C 0.8671 0.41725 0.6 0.0
C300 C 0.8662 0.37698 0.57785 0.0
C301 C 0.88986 0.41765 0.53816 0.0
C302 C 0.83692 0.35471 0.58014 0.0
C303 C 0.82942 0.32534 0.57913 0.0
C304 C 0.85111 0.31756 0.57587 0.0
C305 C 0.8805 0.33997 0.57337 0.0
C306 C 0.88799 0.36949 0.5744 0.0
H307 H 0.89354 0.4335 0.52433 0.0
H308 H 0.90994 0.41595 0.53996 0.0
H309 H 0.87164 0.39572 0.53314 0.0
H310 H 0.81979 0.3601 0.58276 0.0
H311 H 0.80658 0.30876 0.5811 0.0
H312 H 0.48715 0.80181 0.7583 0.0
H313 H 0.44271 0.80508 0.76109 0.0
H314 H 0.49417 0.89935 0.75659 0.0
H315 H 0.53892 0.89634 0.75336 0.0
H316 H 0.42971 0.83345 0.79474 0.0
H317 H 0.42982 0.87928 0.70951 0.0
H318 H 0.4525 0.86352 0.71615 0.0
H319 H 0.46282 0.89979 0.7258 0.0
C320 C 0.4891 0.82327 0.75769 0.0
C321 C 0.51665 0.84882 0.7556 0.0
C322 C 0.46364 0.82508 0.75932 0.0
C323 C 0.46514 0.85242 0.75887 0.0
C324 C 0.4925 0.878 0.75656 0.0
H325 H 0.31961 0.88781 0.77129 0.0
H326 H 0.36907 0.89434 0.77078 0.0
C327 C 0.51805 0.87622 0.7548 0.0
C328 C 0.438 0.85389 0.76177 0.0
H329 H 0.3922 0.87256 0.73485 0.0
C330 C 0.42157 0.84212 0.78168 0.0
C331 C 0.42757 0.86539 0.74476 0.0
C332 C 0.44391 0.87752 0.72275 0.0
C333 C 0.39467 0.84101 0.78487 0.0
C334 C 0.38387 0.85173 0.76761 0.0
C335 C 0.40068 0.86441 0.74803 0.0
C336 C 0.35418 0.84796 0.76885 0.0
C337 C 0.37785 0.82815 0.80658 0.0
C338 C 0.32961 0.81974 0.76785 0.0
C339 C 0.30143 0.81591 0.76803 0.0
C340 C 0.29728 0.84027 0.76922 0.0
C341 C 0.32202 0.86857 0.77047 0.0
C342 C 0.35027 0.87238 0.77012 0.0
H343 H 0.39219 0.8278 0.82029 0.0
H344 H 0.36741 0.84077 0.81258 0.0
H345 H 0.36025 0.80524 0.8034 0.0
H346 H 0.33226 0.80067 0.76656 0.0
H347 H 0.28291 0.79382 0.76704 0.0
H348 H 0.43753 0.34913 0.91919 0.0
H349 H 0.47913 0.39946 0.91753 0.0
H350 H 0.53191 0.36795 0.88584 0.0
H351 H 0.49086 0.31786 0.88746 0.0
H352 H 0.53733 0.4194 0.93729 0.0
H353 H 0.54042 0.43633 0.84411 0.0
H354 H 0.50812 0.40894 0.8588 0.0
H355 H 0.53747 0.40205 0.85227 0.0
C356 C 0.45796 0.35294 0.91178 0.0
C357 C 0.46086 0.32945 0.90346 0.0
C358 C 0.48164 0.38167 0.91084 0.0
C359 C 0.50833 0.38735 0.90123 0.0
C360 C 0.51128 0.36401 0.89295 0.0
H361 H 0.6874 0.50642 0.91235 0.0
H362 H 0.63641 0.4673 0.91354 0.0
C363 C 0.48782 0.33536 0.89406 0.0
C364 C 0.53391 0.41734 0.9008 0.0
H365 H 0.58454 0.46808 0.86467 0.0
C366 C 0.54737 0.43039 0.92145 0.0
C367 C 0.54671 0.43171 0.88012 0.0
C368 C 0.53232 0.41921 0.85754 0.0
C369 C 0.57446 0.45653 0.92188 0.0
C370 C 0.58835 0.46969 0.90114 0.0
C371 C 0.57391 0.45775 0.88054 0.0
C372 C 0.61904 0.49394 0.90047 0.0
C373 C 0.58852 0.46937 0.94449 0.0
C374 C 0.62615 0.5217 0.89219 0.0
C375 C 0.65543 0.54429 0.89147 0.0
C376 C 0.67802 0.53925 0.89874 0.0
C377 C 0.67066 0.51115 0.90662 0.0
C378 C 0.64149 0.48877 0.90748 0.0
H379 H 0.57205 0.46167 0.95839 0.0
H380 H 0.6047 0.46239 0.94856 0.0
H381 H 0.60026 0.49371 0.94395 0.0
H382 H 0.60905 0.52594 0.88649 0.0
H383 H 0.66034 0.56564 0.88525 0.0
H384 H 0.14539 0.2855 0.06664 0.0
H385 H 0.17855 0.27594 0.04389 0.0
H386 H 0.2288 0.36764 0.02633 0.0
H387 H 0.19551 0.37733 0.04867 0.0
H388 H 0.21233 0.33111 0.98911 0.0
H389 H 0.26296 0.29487 0.0548 0.0
H390 H 0.22361 0.27551 0.05563 0.0
H391 H 0.24365 0.31414 0.0617 0.0
C392 C 0.16375 0.30372 0.05822 0.0
C393 C 0.16785 0.33219 0.05951 0.0
C394 C 0.18278 0.29823 0.04533 0.0
C395 C 0.20632 0.32115 0.03365 0.0
C396 C 0.21085 0.34969 0.03533 0.0
H397 H 0.34117 0.30446 0.96026 0.0
H398 H 0.31533 0.32052 0.98586 0.0
C399 C 0.19184 0.35519 0.04818 0.0
C400 C 0.2248 0.31501 0.01824 0.0
H401 H 0.26967 0.28563 0.01617 0.0
C402 C 0.22506 0.32139 0.99505 0.0
C403 C 0.2416 0.30261 0.02607 0.0
C404 C 0.24324 0.29662 0.05094 0.0
C405 C 0.24109 0.31498 0.97936 0.0
C406 C 0.25688 0.30143 0.98705 0.0
C407 C 0.2573 0.2958 0.01032 0.0
C408 C 0.2726 0.29236 0.97113 0.0
C409 C 0.24106 0.32286 0.9547 0.0
C410 C 0.25706 0.27114 0.95445 0.0
C411 C 0.27172 0.26196 0.93978 0.0
C412 C 0.30219 0.27372 0.94163 0.0
C413 C 0.31771 0.29505 0.95834 0.0
C414 C 0.303 0.3042 0.97301 0.0
H415 H 0.23476 0.33996 0.95263 0.0
H416 H 0.26296 0.33087 0.94689 0.0
H417 H 0.22492 0.30306 0.94527 0.0
H418 H 0.2335 0.26135 0.953 0.0
H419 H 0.25908 0.24538 0.9272 0.0
H420 H 0.79711 0.18912 0.20784 0.0
H421 H 0.843 0.22189 0.18839 0.0
H422 H 0.8831 0.17555 0.21805 0.0
H423 H 0.83707 0.14235 0.23743 0.0
H424 H 0.89952 0.25897 0.20517 0.0
H425 H 0.8958 0.17177 0.14975 0.0
H426 H 0.86459 0.16672 0.16604 0.0
H427 H 0.89377 0.16412 0.17964 0.0
C428 C 0.81573 0.186 0.2104 0.0
C429 C 0.81343 0.16305 0.22411 0.0
C430 C 0.84193 0.20474 0.19924 0.0
C431 C 0.86625 0.20083 0.2015 0.0
C432 C 0.86435 0.17854 0.21573 0.0
H433 H 0.03902 0.28638 0.14074 0.0
H434 H -0.00453 0.25667 0.16379 0.0
C435 C 0.83811 0.15971 0.22688 0.0
C436 C 0.89339 0.21983 0.18862 0.0
H437 H 0.9384 0.21856 0.1475 0.0
C438 C 0.90804 0.25019 0.19254 0.0
C439 C 0.90431 0.20825 0.1721 0.0
C440 C 0.88871 0.17597 0.16642 0.0
C441 C 0.93366 0.26928 0.18058 0.0
C442 C 0.94456 0.25767 0.16409 0.0
C443 C 0.92995 0.22733 0.16021 0.0
C444 C 0.97116 0.27657 0.15062 0.0
C445 C 0.94911 0.30162 0.18595 0.0
C446 C 0.97179 0.29747 0.13547 0.0
C447 C -0.00334 0.31452 0.12221 0.0
C448 C 0.02125 0.3108 0.12383 0.0
C449 C 0.02048 0.28982 0.13907 0.0
C450 C -0.00437 0.27281 0.15227 0.0
H451 H 0.94206 0.30602 0.20256 0.0
H452 H 0.97325 0.31098 0.18625 0.0
H453 H 0.94391 0.31319 0.17257 0.0
H454 H 0.95288 0.30031 0.13367 0.0
H455 H -0.00348 0.33041 0.1106 0.0
H456 H 0.6831 0.84751 0.41452 0.0
H457 H 0.6972 0.89315 0.39397 0.0
H458 H 0.60943 0.85569 0.36729 0.0
H459 H 0.59505 0.81043 0.38803 0.0
H460 H 0.69698 0.89862 0.3485 0.0
H461 H 0.62515 0.93574 0.38671 0.0
H462 H 0.63095 0.90798 0.3997 0.0
H463 H 0.60479 0.89851 0.37701 0.0
C464 C 0.66667 0.84923 0.40462 0.0
C465 C 0.63794 0.8254 0.40295 0.0
C466 C 0.67477 0.87528 0.39287 0.0
C467 C 0.65427 0.87796 0.37933 0.0
C468 C 0.62542 0.85442 0.37808 0.0
H469 H 0.68862 0.98613 0.26022 0.0
H470 H 0.67566 0.94652 0.2876 0.0
C471 C 0.61728 0.82846 0.38988 0.0
C472 C 0.66355 0.90423 0.36491 0.0
H473 H 0.64626 0.95657 0.35045 0.0
C474 C 0.68612 0.91151 0.3491 0.0
C475 C 0.64958 0.92121 0.36587 0.0
C476 C 0.62649 0.91566 0.38341 0.0
C477 C 0.69447 0.93472 0.33374 0.0
C478 C 0.67936 0.95063 0.33384 0.0
C479 C 0.65748 0.94402 0.35015 0.0
C480 C 0.68609 0.97433 0.31724 0.0
C481 C 0.71956 0.94211 0.31768 0.0
C482 C 0.69518 0.00284 0.32485 0.0
C483 C 0.70225 0.02543 0.30927 0.0
C484 C 0.70035 0.01991 0.28576 0.0
C485 C 0.69056 0.99116 0.27819 0.0
C486 C 0.68333 0.96854 0.29381 0.0
H487 H 0.73394 0.93383 0.32407 0.0
H488 H 0.71065 0.93163 0.30098 0.0
H489 H 0.73309 0.96616 0.31504 0.0
H490 H 0.69727 0.00773 0.34286 0.0
H491 H 0.70967 0.04732 0.31568 0.0
H492 H 0.65533 0.71497 0.48496 0.0
H493 H 0.68684 0.70127 0.50579 0.0
H494 H 0.70749 0.67272 0.44335 0.0
H495 H 0.67629 0.6867 0.42226 0.0
H496 H 0.68601 0.64743 0.50949 0.0
H497 H 0.78811 0.73379 0.46883 0.0
H498 H 0.75375 0.7335 0.46705 0.0
H499 H 0.76027 0.7096 0.44929 0.0
C500 C 0.66643 0.70563 0.47564 0.0
C501 C 0.66354 0.70221 0.4519 0.0
C502 C 0.68439 0.69778 0.48759 0.0
C503 C 0.69984 0.68647 0.47604 0.0
C504 C 0.69616 0.68196 0.45249 0.0
H505 H 0.79397 0.60537 0.53248 0.0
H506 H 0.7582 0.61544 0.51439 0.0
C507 C 0.67822 0.68983 0.4405 0.0
C508 C 0.72037 0.68013 0.4886 0.0
H509 H 0.79261 0.70007 0.49274 0.0
C510 C 0.70933 0.65892 0.50588 0.0
C511 C 0.75081 0.69553 0.48405 0.0
C512 C 0.76407 0.71958 0.46644 0.0
C513 C 0.72793 0.65234 0.51852 0.0
C514 C 0.75824 0.66715 0.5135 0.0
C515 C 0.76932 0.68866 0.49645 0.0
C516 C 0.77894 0.66059 0.52558 0.0
C517 C 0.71507 0.62995 0.53734 0.0
C518 C 0.80269 0.68276 0.53762 0.0
C519 C 0.82327 0.67712 0.54793 0.0
C520 C 0.8205 0.64921 0.54626 0.0
C521 C 0.79655 0.62699 0.53433 0.0
C522 C 0.776 0.63267 0.52403 0.0
H523 H 0.69339 0.62644 0.54292 0.0
H524 H 0.71194 0.60868 0.53113 0.0
H525 H 0.72998 0.63676 0.55225 0.0
H526 H 0.80541 0.70452 0.53887 0.0
H527 H 0.84151 0.69471 0.55694 0.0
H528 H 0.95544 0.65558 0.6261 0.0
H529 H -0.00465 0.67983 0.65367 0.0
H530 H 0.00112 0.76278 0.63891 0.0
H531 H 0.96124 0.73881 0.61135 0.0
H532 H 0.05628 0.76197 0.63894 0.0
H533 H -0.01083 0.71399 0.71682 0.0
H534 H 0.98455 0.68857 0.6946 0.0
H535 H 0.97334 0.7152 0.68988 0.0
C536 C 0.96524 0.679 0.62867 0.0
C537 C 0.95515 0.69528 0.61657 0.0
C538 C -0.01212 0.69275 0.64452 0.0
C539 C 0.00081 0.72296 0.64848 0.0
C540 C -0.0088 0.73938 0.63616 0.0
H541 H 0.12471 0.83624 0.75043 0.0
H542 H 0.08136 0.80851 0.72638 0.0
C543 C 0.96845 0.72564 0.62042 0.0
C544 C 0.02486 0.73764 0.66511 0.0
H545 H 0.04067 0.74245 0.72177 0.0
C546 C 0.05291 0.75775 0.65705 0.0
C547 C 0.02019 0.7322 0.68869 0.0
C548 C -0.00983 0.71149 0.69815 0.0
C549 C 0.07664 0.77228 0.672 0.0
C550 C 0.07211 0.76638 0.69553 0.0
C551 C 0.04398 0.74665 0.70366 0.0
C552 C 0.09656 0.78079 0.71184 0.0
C553 C 0.10636 0.79404 0.66258 0.0
C554 C 0.11887 0.77366 0.71202 0.0
C555 C 0.14353 0.78931 0.72574 0.0
C556 C 0.14629 0.81241 0.73948 0.0
C557 C 0.12324 0.81861 0.74 0.0
C558 C 0.09849 0.80282 0.72631 0.0
H559 H 0.10506 0.8 0.64468 0.0
H560 H 0.11671 0.81434 0.67301 0.0
H561 H 0.12083 0.78434 0.66319 0.0
H562 H 0.11757 0.75653 0.70106 0.0
H563 H 0.16088 0.78399 0.72491 0.0
H564 H 0.25475 0.93531 0.8268 0.0
H565 H 0.27168 0.9814 0.84736 0.0
H566 H 0.31435 0.03003 0.78672 0.0
H567 H 0.29749 0.98409 0.76594 0.0
H568 H 0.33116 0.03136 0.85332 0.0
H569 H 0.25595 0.05821 0.80623 0.0
H570 H 0.25115 0.02177 0.8067 0.0
H571 H 0.27883 0.04962 0.789 0.0
C572 C 0.26789 0.9558 0.81785 0.0
C573 C 0.27455 0.95605 0.79467 0.0
C574 C 0.27758 0.98207 0.82964 0.0
C575 C 0.29391 0.00899 0.81844 0.0
C576 C 0.30143 0.00939 0.79554 0.0
H577 H 0.3859 0.1861 0.8707 0.0
H578 H 0.37258 0.13834 0.85446 0.0
C579 C 0.29184 0.98313 0.78374 0.0
C580 C 0.30217 0.03666 0.83051 0.0
H581 H 0.28954 0.0942 0.83154 0.0
C582 C 0.32209 0.04514 0.84862 0.0
C583 C 0.28994 0.05426 0.82445 0.0
C584 C 0.26759 0.04551 0.80566 0.0
C585 C 0.33055 0.07122 0.86063 0.0
C586 C 0.31881 0.08915 0.85421 0.0
C587 C 0.29854 0.08039 0.83633 0.0
C588 C 0.32744 0.11732 0.86562 0.0
C589 C 0.35167 0.07925 0.88022 0.0
C590 C 0.3064 0.12129 0.87717 0.0
C591 C 0.31393 0.14855 0.88652 0.0
C592 C 0.34261 0.17236 0.88429 0.0
C593 C 0.36372 0.16816 0.87295 0.0
C594 C 0.35618 0.14086 0.86369 0.0
H595 H 0.35343 0.06018 0.88623 0.0
H596 H 0.37375 0.09661 0.87468 0.0
H597 H 0.34481 0.088 0.89467 0.0
H598 H 0.28404 0.10337 0.87869 0.0
H599 H 0.29715 0.15109 0.8951 0.0
H600 H 0.70772 0.7044 0.90318 0.0
H601 H 0.69182 0.73334 0.8811 0.0
H602 H 0.71631 0.70743 0.81913 0.0
H603 H 0.73178 0.67804 0.84099 0.0
H604 H 0.72463 0.77988 0.85219 0.0
H605 H 0.63244 0.68815 0.80603 0.0
H606 H 0.64966 0.68239 0.83048 0.0
H607 H 0.66694 0.6893 0.80307 0.0
C608 C 0.70955 0.7047 0.88485 0.0
C609 C 0.72087 0.6888 0.87384 0.0
C610 C 0.70051 0.72128 0.87227 0.0
C611 C 0.70254 0.7222 0.84848 0.0
C612 C 0.714 0.70652 0.83744 0.0
H613 H 0.69012 0.85328 0.76499 0.0
H614 H 0.70737 0.82264 0.78294 0.0
C615 C 0.72295 0.68985 0.84999 0.0
C616 C 0.6933 0.74015 0.8353 0.0
H617 H 0.64522 0.73629 0.79467 0.0
C618 C 0.70728 0.7704 0.83959 0.0
C619 C 0.6705 0.72761 0.81904 0.0
C620 C 0.6538 0.69505 0.81447 0.0
C621 C 0.69905 0.78849 0.82807 0.0
C622 C 0.67661 0.77604 0.8115 0.0
C623 C 0.66265 0.7458 0.8072 0.0
C624 C 0.66607 0.7937 0.79946 0.0
C625 C 0.71384 0.8206 0.8342 0.0
C626 C 0.63691 0.78695 0.80218 0.0
C627 C 0.62695 0.80418 0.79182 0.0
C628 C 0.64597 0.8285 0.77848 0.0
C629 C 0.675 0.83479 0.77527 0.0
C630 C 0.68492 0.81742 0.7856 0.0
H631 H 0.7255 0.82518 0.85074 0.0
H632 H 0.73018 0.83361 0.82093 0.0
H633 H 0.69765 0.82822 0.83512 0.0
H634 H 0.622 0.76869 0.81278 0.0
H635 H 0.60451 0.79881 0.79474 0.0
H636 H 0.81654 0.60632 0.93874 0.0
H637 H 0.85828 0.61712 0.96308 0.0
H638 H 0.89897 0.70859 0.94507 0.0
H639 H 0.85739 0.69797 0.92033 0.0
H640 H 0.93839 0.68535 0.94775 0.0
H641 H 0.86757 0.66051 0.02403 0.0
H642 H 0.85447 0.63188 0.00309 0.0
H643 H 0.85666 0.66619 0.99627 0.0
C644 C 0.83456 0.62867 0.93958 0.0
C645 C 0.83354 0.65134 0.92772 0.0
C646 C 0.85832 0.6348 0.95362 0.0
C647 C 0.88136 0.6637 0.95615 0.0
C648 C 0.88125 0.68616 0.94339 0.0
H649 H 0.00446 0.74172 0.06603 0.0
H650 H 0.96565 0.72683 0.03771 0.0
C651 C 0.85749 0.68004 0.92929 0.0
C652 C 0.90461 0.67076 0.97318 0.0
H653 H 0.91627 0.67134 0.03027 0.0
C654 C 0.93363 0.68224 0.96579 0.0
C655 C 0.89825 0.667 0.99669 0.0
C656 C 0.86761 0.65596 0.00561 0.0
C657 C 0.95653 0.68991 0.98138 0.0
C658 C 0.95005 0.68565 0.00487 0.0
C659 C 0.92106 0.67431 0.01223 0.0
C660 C 0.97321 0.69394 0.02222 0.0
C661 C 0.98752 0.70316 0.97266 0.0
C662 C -0.01013 0.67991 0.02317 0.0
C663 C 0.01206 0.68832 0.03938 0.0
C664 C 0.01788 0.71086 0.05494 0.0
C665 C 0.00061 0.72434 0.05427 0.0
C666 C 0.97844 0.71589 0.03809 0.0
H667 H -0.01048 0.71091 0.95484 0.0
H668 H 0.00288 0.72189 0.98346 0.0
H669 H -0.00564 0.68636 0.97321 0.0
H670 H 0.98576 0.66251 0.01133 0.0
H671 H 0.02491 0.67744 0.03948 0.0
H672 H 0.31343 0.04798 0.17337 0.0
H673 H 0.28276 0.00256 0.15244 0.0
H674 H 0.263 0.95327 0.21483 0.0
H675 H 0.29337 -0.00145 0.23597 0.0
H676 H 0.286 0.95061 0.14911 0.0
H677 H 0.18184 0.93068 0.1885 0.0
H678 H 0.21536 0.96556 0.19032 0.0
H679 H 0.20975 0.93576 0.20852 0.0
C680 C 0.30265 0.02748 0.18265 0.0
C681 C 0.30563 0.0269 0.20638 0.0
C682 C 0.28517 0.00157 0.17065 0.0
C683 C 0.27028 0.97469 0.18216 0.0
C684 C 0.2739 0.9739 0.20572 0.0
H685 H 0.18518 0.7977 0.13089 0.0
H686 H 0.21911 0.84566 0.14701 0.0
C687 C 0.29137 -0.00022 0.21775 0.0
C688 C 0.25068 0.94751 0.16957 0.0
H689 H 0.17957 0.89226 0.16591 0.0
C690 C 0.26271 0.93787 0.15268 0.0
C691 C 0.22025 0.93127 0.17404 0.0
C692 C 0.2059 0.94142 0.19118 0.0
C693 C 0.24516 0.91192 0.14053 0.0
C694 C 0.21493 0.89509 0.14565 0.0
C695 C 0.20281 0.90513 0.16214 0.0
C696 C 0.19549 0.86664 0.1345 0.0
C697 C 0.25905 0.90286 0.12222 0.0
C698 C 0.17077 0.86246 0.12234 0.0
C699 C 0.15124 0.83501 0.11316 0.0
C700 C 0.15603 0.81124 0.11611 0.0
C701 C 0.18102 0.81562 0.12808 0.0
C702 C 0.20052 0.84306 0.13724 0.0
H703 H 0.28 0.92171 0.11616 0.0
H704 H 0.26388 0.88612 0.12915 0.0
H705 H 0.24406 0.8931 0.10749 0.0
H706 H 0.16643 0.88038 0.12017 0.0
H707 H 0.13216 0.83233 0.10407 0.0
H708 H 0.28836 0.15284 0.24819 0.0
H709 H 0.27538 0.18346 0.27108 0.0
H710 H 0.36516 0.23506 0.29326 0.0
H711 H 0.37823 0.20436 0.27083 0.0
H712 H 0.32553 0.21345 0.32859 0.0
H713 H 0.29144 0.26773 0.26437 0.0
H714 H 0.27382 0.22861 0.26127 0.0
H715 H 0.31276 0.25062 0.25719 0.0
C716 C 0.30546 0.17106 0.25759 0.0
C717 C 0.33433 0.17616 0.25769 0.0
C718 C 0.29803 0.18863 0.27057 0.0
C719 C 0.31938 0.21167 0.2837 0.0
C720 C 0.3484 0.21745 0.28316 0.0
H721 H 0.29221 0.33569 0.36347 0.0
H722 H 0.31124 0.31346 0.33692 0.0
C723 C 0.35583 0.19991 0.27025 0.0
C724 C 0.31098 0.22791 0.29968 0.0
H725 H 0.27893 0.27034 0.30296 0.0
C726 C 0.31556 0.22609 0.32298 0.0
C727 C 0.29821 0.24455 0.29228 0.0
C728 C 0.29399 0.24829 0.2674 0.0
C729 C 0.30703 0.23989 0.33916 0.0
C730 C 0.29321 0.25556 0.33182 0.0
C731 C 0.28933 0.25807 0.3085 0.0
C732 C 0.28213 0.26901 0.34818 0.0
C733 C 0.31295 0.23766 0.36396 0.0
C734 C 0.25942 0.25131 0.36321 0.0
C735 C 0.24852 0.26389 0.3784 0.0
C736 C 0.26008 0.29443 0.37876 0.0
C737 C 0.28293 0.31212 0.3637 0.0
C738 C 0.29376 0.29948 0.34847 0.0
H739 H 0.33011 0.23148 0.36627 0.0
H740 H 0.31998 0.25874 0.37286 0.0
H741 H 0.29254 0.22053 0.37213 0.0
H742 H 0.24988 0.2277 0.36299 0.0
H743 H 0.23082 0.24964 0.38967 0.0
H744 H 0.13634 0.28131 0.43187 0.0
H745 H 0.08973 0.2659 0.45121 0.0
H746 H 0.1217 0.35463 0.47399 0.0
H747 H 0.16842 0.37016 0.45502 0.0
H748 H 0.09867 0.31261 0.50865 0.0
H749 H 0.02225 0.28125 0.4354 0.0
H750 H 0.04511 0.26488 0.43554 0.0
H751 H 0.0615 0.3039 0.43236 0.0
C752 C 0.13331 0.29762 0.44074 0.0
C753 C 0.15605 0.32698 0.44186 0.0
C754 C 0.10662 0.2888 0.45168 0.0
C755 C 0.10221 0.3092 0.46381 0.0
C756 C 0.12466 0.3386 0.4646 0.0
H757 H 0.94157 0.28471 0.52508 0.0
H758 H 0.98629 0.30162 0.50265 0.0
C759 C 0.15131 0.34744 0.45368 0.0
C760 C 0.07501 0.29963 0.477 0.0
H761 H 0.00076 0.26841 0.47216 0.0
C762 C 0.07726 0.30304 0.50069 0.0
C763 C 0.04721 0.28739 0.46649 0.0
C764 C 0.04375 0.28432 0.44103 0.0
C765 C 0.05233 0.29413 0.51423 0.0
C766 C 0.02444 0.28115 0.5038 0.0
C767 C 0.02221 0.27816 0.48008 0.0
C768 C -0.00266 0.27069 0.51728 0.0
C769 C 0.05605 0.299 0.53957 0.0
C770 C -0.01131 0.24753 0.53275 0.0
C771 C 0.9632 0.23781 0.5456 0.0
C772 C 0.94586 0.25106 0.54314 0.0
C773 C 0.9545 0.27413 0.52746 0.0
C774 C 0.97998 0.28377 0.51459 0.0
H775 H 0.079 0.3153 0.5442 0.0
H776 H 0.0413 0.30665 0.54624 0.0
H777 H 0.05029 0.27798 0.54808 0.0
H778 H 0.00161 0.23687 0.5348 0.0
H779 H 0.95708 0.2199 0.55742 0.0
H780 H 0.82284 0.1345 0.59408 0.0
H781 H 0.7885 0.09109 0.61562 0.0
H782 H 0.73793 0.13239 0.63245 0.0
H783 H 0.77254 0.17616 0.61149 0.0
H784 H 0.75193 0.11222 0.66954 0.0
H785 H 0.70579 0.02494 0.60428 0.0
H786 H 0.74512 0.04468 0.6042 0.0
H787 H 0.72549 0.06344 0.59709 0.0
C788 C 0.80411 0.13415 0.602 0.0
C789 C 0.80043 0.1588 0.60106 0.0
C790 C 0.78437 0.10922 0.61419 0.0
C791 C 0.76044 0.10835 0.62541 0.0
C792 C 0.75616 0.13254 0.62381 0.0
H793 H 0.63166 0.95175 0.69904 0.0
H794 H 0.65406 -0.0063 0.67308 0.0
C795 C 0.77595 0.15753 0.61175 0.0
C796 C 0.74171 0.08357 0.64066 0.0
H797 H 0.70036 0.00893 0.64316 0.0
C798 C 0.74034 0.08966 0.66371 0.0
C799 C 0.7263 0.05419 0.633 0.0
C800 C 0.72546 0.04641 0.60824 0.0
C801 C 0.72494 0.0671 0.67946 0.0
C802 C 0.71105 0.03764 0.67203 0.0
C803 C 0.71135 0.03155 0.64885 0.0
C804 C 0.69719 0.01285 0.68821 0.0
C805 C 0.7238 0.07503 0.70392 0.0
C806 C 0.71409 0.0097 0.70522 0.0
C807 C 0.7014 0.98587 0.72009 0.0
C808 C 0.67158 0.96458 0.71812 0.0
C809 C 0.65466 0.96782 0.70107 0.0
C810 C 0.66741 0.99172 0.68619 0.0
H811 H 0.72759 0.0977 0.70549 0.0
H812 H 0.70234 0.05961 0.71178 0.0
H813 H 0.74126 0.07389 0.71365 0.0
H814 H 0.73726 0.02545 0.70676 0.0
H815 H 0.71509 0.98394 0.73292 0.0
H816 H 0.19334 0.41178 0.3479 0.0
H817 H 0.18588 0.41047 0.30681 0.0
H818 H 0.19748 0.33517 0.30161 0.0
H819 H 0.20582 0.33683 0.34251 0.0
H820 H 0.22835 0.37478 0.2698 0.0
H821 H 0.11487 0.35554 0.27023 0.0
H822 H 0.13994 0.38773 0.2858 0.0
H823 H 0.13239 0.35219 0.29549 0.0
C824 C 0.19404 0.39477 0.33805 0.0
C825 C 0.20009 0.37436 0.34852 0.0
C826 C 0.18962 0.39397 0.31455 0.0
C827 C 0.19064 0.37243 0.30115 0.0
C828 C 0.19651 0.35194 0.3116 0.0
H829 H 0.1283 0.33167 0.1621 0.0
H830 H 0.13619 0.3306 0.20288 0.0
C831 C 0.20123 0.35291 0.33501 0.0
C832 C 0.18666 0.37179 0.27614 0.0
H833 H 0.13967 0.36818 0.23464 0.0
C834 C 0.20889 0.37319 0.26211 0.0
C835 C 0.16109 0.3693 0.26611 0.0
C836 C 0.13558 0.3658 0.28018 0.0
C837 C 0.20642 0.37252 0.23834 0.0
C838 C 0.18138 0.37122 0.2283 0.0
C839 C 0.15899 0.36946 0.24234 0.0
C840 C 0.17767 0.3713 0.20329 0.0
C841 C 0.23039 0.37256 0.22427 0.0
C842 C 0.19842 0.39449 0.18989 0.0
C843 C 0.19415 0.39499 0.16647 0.0
C844 C 0.16876 0.37256 0.15607 0.0
C845 C 0.14809 0.34932 0.16954 0.0
C846 C 0.15253 0.34869 0.19289 0.0
H847 H 0.24305 0.3647 0.23423 0.0
H848 H 0.22131 0.35853 0.20896 0.0
H849 H 0.24588 0.39529 0.21864 0.0
H850 H 0.21763 0.41256 0.1976 0.0
H851 H 0.21035 0.41338 0.15665 0.0
H852 H 0.76381 0.20862 0.50775 0.0
H853 H 0.75611 0.20162 0.46674 0.0
H854 H 0.83769 0.20172 0.45992 0.0
H855 H 0.84598 0.20949 0.50076 0.0
H856 H 0.83224 0.23543 0.4279 0.0
H857 H 0.73055 0.12693 0.4315 0.0
H858 H 0.72809 0.15498 0.44696 0.0
H859 H 0.75345 0.14355 0.45605 0.0
C860 C 0.78004 0.20697 0.49756 0.0
C861 C 0.80545 0.20947 0.50759 0.0
C862 C 0.77553 0.20285 0.47411 0.0
C863 C 0.79609 0.20067 0.4603 0.0
C864 C 0.82149 0.20326 0.47025 0.0
H865 H 0.76798 0.13012 0.32456 0.0
H866 H 0.77699 0.1406 0.36503 0.0
C867 C 0.82615 0.20764 0.49363 0.0
C868 C 0.79149 0.19617 0.43542 0.0
H869 H 0.74438 0.14966 0.39533 0.0
C870 C 0.81306 0.21665 0.42075 0.0
C871 C 0.76661 0.17149 0.42614 0.0
C872 C 0.74348 0.14782 0.44096 0.0
C873 C 0.81042 0.21315 0.39706 0.0
C874 C 0.78516 0.18886 0.38778 0.0
C875 C 0.76361 0.1684 0.40246 0.0
C876 C 0.78104 0.18351 0.36294 0.0
C877 C 0.83508 0.23504 0.38226 0.0
C878 C 0.7804 0.20421 0.34824 0.0
C879 C 0.77554 0.19841 0.32495 0.0
C880 C 0.77077 0.17159 0.31602 0.0
C881 C 0.7715 0.15098 0.33083 0.0
C882 C 0.77661 0.1569 0.35401 0.0
H883 H 0.85586 0.24736 0.39197 0.0
H884 H 0.83892 0.22404 0.36766 0.0
H885 H 0.82925 0.25114 0.3755 0.0
H886 H 0.7831 0.22462 0.35482 0.0
H887 H 0.77484 0.21464 0.31405 0.0
H888 H 0.56947 0.77161 0.69067 0.0
H889 H 0.56971 0.76224 0.64998 0.0
H890 H 0.61477 0.85527 0.6368 0.0
H891 H 0.61519 0.86492 0.67736 0.0
H892 H 0.54524 0.77662 0.61475 0.0
H893 H 0.66556 0.82982 0.6032 0.0
H894 H 0.64853 0.82142 0.63087 0.0
H895 H 0.65423 0.85359 0.61578 0.0
C896 C 0.5796 0.7901 0.67915 0.0
C897 C 0.59247 0.81903 0.68735 0.0
C898 C 0.57968 0.7847 0.65589 0.0
C899 C 0.59267 0.80807 0.6404 0.0
C900 C 0.60525 0.83692 0.64849 0.0
H901 H 0.56278 0.79904 0.49445 0.0
H902 H 0.56347 0.80739 0.53538 0.0
C903 C 0.60531 0.84237 0.67172 0.0
C904 C 0.59237 0.8023 0.61571 0.0
H905 H 0.63675 0.81724 0.56947 0.0
C906 C 0.56524 0.78537 0.60485 0.0
C907 C 0.61851 0.81343 0.60289 0.0
C908 C 0.64837 0.83033 0.6138 0.0
C909 C 0.56352 0.77969 0.58142 0.0
C910 C 0.58961 0.79179 0.56845 0.0
C911 C 0.61675 0.80828 0.57939 0.0
C912 C 0.58933 0.78708 0.54358 0.0
C913 C 0.5338 0.76036 0.57088 0.0
C914 C 0.60437 0.7737 0.53452 0.0
C915 C 0.60432 0.7692 0.51114 0.0
C916 C 0.58921 0.77802 0.49627 0.0
C917 C 0.57445 0.79177 0.50539 0.0
C918 C 0.57465 0.79639 0.52881 0.0
H919 H 0.51725 0.74657 0.58383 0.0
H920 H 0.52619 0.77433 0.56264 0.0
H921 H 0.53483 0.74577 0.55774 0.0
H922 H 0.61597 0.76648 0.5456 0.0
H923 H 0.61594 0.75855 0.50477 0.0
H924 H 0.86195 0.64437 0.64672 0.0
H925 H 0.85388 0.6436 0.6876 0.0
H926 H 0.76998 0.56478 0.68023 0.0
H927 H 0.7775 0.56577 0.63916 0.0
H928 H 0.76679 0.60301 0.70873 0.0
H929 H 0.86136 0.58994 0.73265 0.0
H930 H 0.8718 0.62178 0.71542 0.0
H931 H 0.84828 0.58583 0.70379 0.0
C932 C 0.84172 0.62687 0.65375 0.0
C933 C 0.82044 0.605 0.63965 0.0
C934 C 0.83726 0.62636 0.67718 0.0
C935 C 0.81166 0.60373 0.68706 0.0
C936 C 0.79002 0.58231 0.67298 0.0
H937 H 0.78987 0.56493 0.83223 0.0
H938 H 0.79622 0.56374 0.79113 0.0
C939 C 0.79433 0.58295 0.6495 0.0
C940 C 0.80731 0.60261 0.71203 0.0
H941 H 0.83852 0.60162 0.76267 0.0
C942 C 0.78239 0.60254 0.72053 0.0
C943 C 0.8274 0.60146 0.72741 0.0
C944 C 0.85354 0.59944 0.71937 0.0
C945 C 0.77735 0.60206 0.74398 0.0
C946 C 0.7982 0.60241 0.75937 0.0
C947 C 0.82275 0.60175 0.75087 0.0
C948 C 0.79496 0.6035 0.78434 0.0
C949 C 0.74949 0.60072 0.75201 0.0
C950 C 0.79283 0.62661 0.79423 0.0
C951 C 0.789 0.62725 0.81766 0.0
C952 C 0.78767 0.60501 0.83176 0.0
C953 C 0.79079 0.58239 0.82189 0.0
C954 C 0.79438 0.58165 0.79839 0.0
H955 H 0.73224 0.59171 0.73868 0.0
H956 H 0.74081 0.58701 0.76751 0.0
H957 H 0.75411 0.62321 0.75608 0.0
H958 H 0.79408 0.64416 0.78381 0.0
H959 H 0.78701 0.64519 0.82468 0.0
H960 H 0.19134 0.84405 0.84277 0.0
H961 H 0.18391 0.83408 0.88347 0.0
H962 H 0.17803 0.7502 0.87313 0.0
H963 H 0.18454 0.75959 0.83225 0.0
H964 H 0.13722 0.74564 0.90229 0.0
H965 H 0.24457 0.83939 0.92766 0.0
H966 H 0.22311 0.85069 0.91141 0.0
H967 H 0.23557 0.82787 0.89848 0.0
C968 C 0.18841 0.82344 0.84912 0.0
C969 C 0.18874 0.80269 0.83425 0.0
C970 C 0.18439 0.81787 0.87244 0.0
C971 C 0.18117 0.79172 0.88144 0.0
C972 C 0.18072 0.77064 0.86658 0.0
H973 H 0.19971 0.76602 0.02569 0.0
H974 H 0.20669 0.77323 0.98459 0.0
C975 C 0.1844 0.77603 0.84321 0.0
C976 C 0.17795 0.78621 0.9063 0.0
H977 H 0.21 0.81521 0.95744 0.0
C978 C 0.15323 0.76076 0.91435 0.0
C979 C 0.19912 0.80565 0.92202 0.0
C980 C 0.22723 0.83226 0.91446 0.0
C981 C 0.14874 0.75455 0.93768 0.0
C982 C 0.16912 0.77479 0.95345 0.0
C983 C 0.19419 0.79989 0.94538 0.0
C984 C 0.16484 0.77042 0.97838 0.0
C985 C 0.12245 0.7261 0.94512 0.0
C986 C 0.13926 0.76699 0.98862 0.0
C987 C 0.13508 0.76256 0.01203 0.0
C988 C 0.15667 0.76204 0.02579 0.0
C989 C 0.18266 0.76631 0.01559 0.0
C990 C 0.18666 0.7704 0.9921 0.0
H991 H 0.11469 0.70941 0.93138 0.0
H992 H 0.12749 0.71697 0.96035 0.0
H993 H 0.10422 0.73009 0.94937 0.0
H994 H 0.12251 0.76785 0.97852 0.0
H995 H 0.11495 0.75971 0.01935 0.0
H996 H 0.34851 0.13934 0.15603 0.0
H997 H 0.35177 0.14975 0.11539 0.0
H998 H 0.43106 0.23231 0.1264 0.0
H999 H 0.42753 0.22248 0.16723 0.0
H1000 H 0.39512 0.2385 0.09776 0.0
H1001 H 0.40607 0.14384 0.07042 0.0
H1002 H 0.37359 0.13284 0.08693 0.0
H1003 H 0.40908 0.15484 0.09978 0.0
C1004 C 0.3667 0.15972 0.14984 0.0
C1005 C 0.38786 0.18001 0.16491 0.0
C1006 C 0.36864 0.16553 0.12655 0.0
C1007 C 0.39204 0.19149 0.11776 0.0
C1008 C 0.41293 0.21202 0.13278 0.0
H1009 H 0.4333 0.21895 0.97295 0.0
H1010 H 0.43429 0.2114 0.01391 0.0
C1011 C 0.41086 0.20637 0.15613 0.0
C1012 C 0.39431 0.19754 0.09298 0.0
H1013 H 0.39572 0.16895 0.04124 0.0
C1014 C 0.39547 0.22339 0.08541 0.0
C1015 C 0.39531 0.1781 0.07687 0.0
C1016 C 0.39627 0.15102 0.0839 0.0
C1017 C 0.39681 0.22996 0.06217 0.0
C1018 C 0.39617 0.20973 0.04602 0.0
C1019 C 0.39582 0.18427 0.05361 0.0
C1020 C 0.3956 0.21441 0.02119 0.0
C1021 C 0.39932 0.25873 0.05521 0.0
C1022 C 0.37325 0.21811 0.01161 0.0
C1023 C 0.37278 0.2227 0.98828 0.0
C1024 C 0.39438 0.22317 0.97394 0.0
C1025 C 0.41635 0.21873 0.9835 0.0
C1026 C 0.41696 0.21443 0.00691 0.0
H1027 H 0.40876 0.27523 0.06906 0.0
H1028 H 0.4132 0.26788 0.03984 0.0
H1029 H 0.37715 0.25517 0.05135 0.0
H1030 H 0.35604 0.2173 0.02218 0.0
H1031 H 0.35533 0.22568 0.98149 0.0
loop_
_geom_bond_atom_site_label_1
_geom_bond_atom_site_label_2
_geom_bond_distance
_geom_bond_site_symmetry_2
_ccdc_geom_bond_type
Mg0 O1 2.028 . S
Mg0 O7 1.986 . S
Mg0 O9 2.114 . S
Mg0 O10 2.251 . S
Mg0 O13 2.010 . S
O1 Mg0 2.028 . S
O1 C4 1.250 . S
O2 Mg3 2.028 . S
O2 C4 1.248 . S
Mg3 O2 2.028 . S
Mg3 O8 2.032 . S
Mg3 O10 2.079 . S
C4 O1 1.250 . S
C4 O2 1.248 . S
C5 O6 1.264 1_455 S
C5 O13 1.249 . S
O6 C5 1.264 1_655 S
O7 Mg0 1.986 . S
O7 C11 1.246 . S
O8 Mg3 2.032 . S
O8 C11 1.259 . S
O9 Mg0 2.114 . S
O9 C12 1.252 . S
O10 Mg0 2.251 . S
O10 Mg3 2.079 . S
O10 C12 1.273 . S
C11 O7 1.246 . S
C11 O8 1.259 . S
C12 O9 1.252 . S
C12 O10 1.273 . S
O13 Mg0 2.010 . S
O13 C5 1.249 . S
Mg14 O15 2.028 . S
Mg14 O21 1.986 . S
Mg14 O23 2.114 . S
Mg14 O24 2.251 . S
Mg14 O27 2.010 . S
O15 Mg14 2.028 . S
O15 C18 1.250 . S
O16 Mg17 2.028 . S
O16 C18 1.248 . S
Mg17 O16 2.028 . S
Mg17 O22 2.032 . S
Mg17 O24 2.079 . S
C18 O15 1.250 . S
C18 O16 1.248 . S
C19 O20 1.264 1_545 S
C19 O27 1.249 . S
O20 C19 1.264 1_565 S
O21 Mg14 1.986 . S
O21 C25 1.246 . S
O22 Mg17 2.032 . S
O22 C25 1.259 . S
O23 Mg14 2.114 . S
O23 C26 1.252 . S
O24 Mg14 2.251 . S
O24 Mg17 2.079 . S
O24 C26 1.273 . S
C25 O21 1.246 . S
C25 O22 1.259 . S
C26 O23 1.252 . S
C26 O24 1.273 . S
O27 Mg14 2.010 . S
O27 C19 1.249 . S
Mg28 O29 2.028 . S
Mg28 O35 1.986 . S
Mg28 O37 2.114 . S
Mg28 O38 2.251 . S
Mg28 O41 2.010 . S
O29 Mg28 2.028 . S
O29 C32 1.250 . S
O30 Mg31 2.028 . S
O30 C32 1.248 . S
Mg31 O30 2.028 . S
Mg31 O36 2.032 . S
Mg31 O38 2.079 . S
C32 O29 1.250 . S
C32 O30 1.248 . S
C33 O34 1.264 . S
C33 O41 1.249 . S
O34 C33 1.264 . S
O35 Mg28 1.986 . S
O35 C39 1.246 . S
O36 Mg31 2.032 . S
O36 C39 1.259 . S
O37 Mg28 2.114 . S
O37 C40 1.252 . S
O38 Mg28 2.251 . S
O38 Mg31 2.079 . S
O38 C40 1.273 . S
C39 O35 1.246 . S
C39 O36 1.259 . S
C40 O37 1.252 . S
C40 O38 1.273 . S
O41 Mg28 2.010 . S
O41 C33 1.249 . S
Mg42 O43 2.028 . S
Mg42 O49 1.986 . S
Mg42 O51 2.114 . S
Mg42 O52 2.251 . S
Mg42 O55 2.010 . S
O43 Mg42 2.028 . S
O43 C46 1.250 . S
O44 Mg45 2.028 . S
O44 C46 1.248 . S
Mg45 O44 2.028 . S
Mg45 O50 2.032 . S
Mg45 O52 2.079 . S
C46 O43 1.250 . S
C46 O44 1.248 . S
C47 O48 1.264 1_655 S
C47 O55 1.249 . S
O48 C47 1.264 1_455 S
O49 Mg42 1.986 . S
O49 C53 1.246 . S
O50 Mg45 2.032 . S
O50 C53 1.259 . S
O51 Mg42 2.114 . S
O51 C54 1.252 . S
O52 Mg42 2.251 . S
O52 Mg45 2.079 . S
O52 C54 1.273 . S
C53 O49 1.246 . S
C53 O50 1.259 . S
C54 O51 1.252 . S
C54 O52 1.273 . S
O55 Mg42 2.010 . S
O55 C47 1.249 . S
Mg56 O57 2.028 . S
Mg56 O63 1.986 . S
Mg56 O65 2.114 . S
Mg56 O66 2.251 . S
Mg56 O69 2.010 . S
O57 Mg56 2.028 . S
O57 C60 1.250 . S
O58 Mg59 2.028 . S
O58 C60 1.248 . S
Mg59 O58 2.028 . S
Mg59 O64 2.032 . S
Mg59 O66 2.079 . S
C60 O57 1.250 . S
C60 O58 1.248 . S
C61 O62 1.264 1_565 S
C61 O69 1.249 . S
O62 C61 1.264 1_545 S
O63 Mg56 1.986 . S
O63 C67 1.246 . S
O64 Mg59 2.032 . S
O64 C67 1.259 . S
O65 Mg56 2.114 . S
O65 C68 1.252 . S
O66 Mg56 2.251 . S
O66 Mg59 2.079 . S
O66 C68 1.273 . S
C67 O63 1.246 . S
C67 O64 1.259 . S
C68 O65 1.252 . S
C68 O66 1.273 . S
O69 Mg56 2.010 . S
O69 C61 1.249 . S
Mg70 O71 2.028 . S
Mg70 O77 1.986 . S
Mg70 O79 2.114 . S
Mg70 O80 2.251 . S
Mg70 O83 2.010 . S
O71 Mg70 2.028 . S
O71 C74 1.250 . S
O72 Mg73 2.028 . S
O72 C74 1.248 . S
Mg73 O72 2.028 . S
Mg73 O78 2.032 . S
Mg73 O80 2.079 . S
C74 O71 1.250 . S
C74 O72 1.248 . S
C75 O76 1.264 . S
C75 O83 1.249 . S
O76 C75 1.264 . S
O77 Mg70 1.986 . S
O77 C81 1.246 . S
O78 Mg73 2.032 . S
O78 C81 1.259 . S
O79 Mg70 2.114 . S
O79 C82 1.252 . S
O80 Mg70 2.251 . S
O80 Mg73 2.079 . S
O80 C82 1.273 . S
C81 O77 1.246 . S
C81 O78 1.259 . S
C82 O79 1.252 . S
C82 O80 1.273 . S
O83 Mg70 2.010 . S
O83 C75 1.249 . S
Mg84 O85 2.028 . S
Mg84 O91 1.986 . S
Mg84 O93 2.114 . S
Mg84 O94 2.251 . S
Mg84 O97 2.010 . S
O85 Mg84 2.028 . S
O85 C88 1.250 . S
O86 Mg87 2.028 . S
O86 C88 1.248 . S
Mg87 O86 2.028 . S
Mg87 O92 2.032 . S
Mg87 O94 2.079 . S
C88 O85 1.250 . S
C88 O86 1.248 . S
C89 O90 1.264 1_565 S
C89 O97 1.249 . S
O90 C89 1.264 1_545 S
O91 Mg84 1.986 . S
O91 C95 1.246 . S
O92 Mg87 2.032 . S
O92 C95 1.259 . S
O93 Mg84 2.114 . S
O93 C96 1.252 . S
O94 Mg84 2.251 . S
O94 Mg87 2.079 . S
O94 C96 1.273 . S
C95 O91 1.246 . S
C95 O92 1.259 . S
C96 O93 1.252 . S
C96 O94 1.273 . S
O97 Mg84 2.010 . S
O97 C89 1.249 . S
Mg98 O99 2.028 . S
Mg98 O105 1.986 . S
Mg98 O107 2.114 . S
Mg98 O108 2.251 . S
Mg98 O111 2.010 . S
O99 Mg98 2.028 . S
O99 C102 1.250 . S
O100 Mg101 2.028 . S
O100 C102 1.248 . S
Mg101 O100 2.028 . S
Mg101 O106 2.032 . S
Mg101 O108 2.079 . S
C102 O99 1.250 . S
C102 O100 1.248 . S
C103 O104 1.264 . S
C103 O111 1.249 . S
O104 C103 1.264 . S
O105 Mg98 1.986 . S
O105 C109 1.246 . S
O106 Mg101 2.032 . S
O106 C109 1.259 . S
O107 Mg98 2.114 . S
O107 C110 1.252 . S
O108 Mg98 2.251 . S
O108 Mg101 2.079 . S
O108 C110 1.273 . S
C109 O105 1.246 . S
C109 O106 1.259 . S
C110 O107 1.252 . S
C110 O108 1.273 . S
O111 Mg98 2.010 . S
O111 C103 1.249 . S
Mg112 O113 2.028 . S
Mg112 O119 1.986 . S
Mg112 O121 2.114 . S
Mg112 O122 2.251 . S
Mg112 O125 2.010 . S
O113 Mg112 2.028 . S
O113 C116 1.250 . S
O114 Mg115 2.028 . S
O114 C116 1.248 . S
Mg115 O114 2.028 . S
Mg115 O120 2.032 . S
Mg115 O122 2.079 . S
C116 O113 1.250 . S
C116 O114 1.248 . S
C117 O118 1.264 1_455 S
C117 O125 1.249 . S
O118 C117 1.264 1_655 S
O119 Mg112 1.986 . S
O119 C123 1.246 . S
O120 Mg115 2.032 . S
O120 C123 1.259 . S
O121 Mg112 2.114 . S
O121 C124 1.252 . S
O122 Mg112 2.251 . S
O122 Mg115 2.079 . S
O122 C124 1.273 . S
C123 O119 1.246 . S
C123 O120 1.259 . S
C124 O121 1.252 . S
C124 O122 1.273 . S
O125 Mg112 2.010 . S
O125 C117 1.249 . S
Mg126 O127 2.028 . S
Mg126 O133 1.986 . S
Mg126 O135 2.114 . S
Mg126 O136 2.251 . S
Mg126 O139 2.010 . S
O127 Mg126 2.028 . S
O127 C130 1.250 . S
O128 Mg129 2.028 . S
O128 C130 1.248 . S
Mg129 O128 2.028 . S
Mg129 O134 2.032 . S
Mg129 O136 2.079 . S
C130 O127 1.250 . S
C130 O128 1.248 . S
C131 O132 1.264 1_545 S
C131 O139 1.249 . S
O132 C131 1.264 1_565 S
O133 Mg126 1.986 . S
O133 C137 1.246 . S
O134 Mg129 2.032 . S
O134 C137 1.259 . S
O135 Mg126 2.114 . S
O135 C138 1.252 . S
O136 Mg126 2.251 . S
O136 Mg129 2.079 . S
O136 C138 1.273 . S
C137 O133 1.246 . S
C137 O134 1.259 . S
C138 O135 1.252 . S
C138 O136 1.273 . S
O139 Mg126 2.010 . S
O139 C131 1.249 . S
Mg140 O141 2.028 . S
Mg140 O147 1.986 . S
Mg140 O149 2.114 . S
Mg140 O150 2.251 . S
Mg140 O153 2.010 . S
O141 Mg140 2.028 . S
O141 C144 1.250 . S
O142 Mg143 2.028 . S
O142 C144 1.248 . S
Mg143 O142 2.028 . S
Mg143 O148 2.032 . S
Mg143 O150 2.079 . S
C144 O141 1.250 . S
C144 O142 1.248 . S
C145 O146 1.264 . S
C145 O153 1.249 . S
O146 C145 1.264 . S
O147 Mg140 1.986 . S
O147 C151 1.246 . S
O148 Mg143 2.032 . S
O148 C151 1.259 . S
O149 Mg140 2.114 . S
O149 C152 1.252 . S
O150 Mg140 2.251 . S
O150 Mg143 2.079 . S
O150 C152 1.273 . S
C151 O147 1.246 . S
C151 O148 1.259 . S
C152 O149 1.252 . S
C152 O150 1.273 . S
O153 Mg140 2.010 . S
O153 C145 1.249 . S
Mg154 O155 2.028 . S
Mg154 O161 1.986 . S
Mg154 O163 2.114 . S
Mg154 O164 2.251 . S
Mg154 O167 2.010 . S
O155 Mg154 2.028 . S
O155 C158 1.250 . S
O156 Mg157 2.028 . S
O156 C158 1.248 . S
Mg157 O156 2.028 . S
Mg157 O162 2.032 . S
Mg157 O164 2.079 . S
C158 O155 1.250 . S
C158 O156 1.248 . S
C159 O160 1.264 1_655 S
C159 O167 1.249 . S
O160 C159 1.264 1_455 S
O161 Mg154 1.986 . S
O161 C165 1.246 . S
O162 Mg157 2.032 . S
O162 C165 1.259 . S
O163 Mg154 2.114 . S
O163 C166 1.252 . S
O164 Mg154 2.251 . S
O164 Mg157 2.079 . S
O164 C166 1.273 . S
C165 O161 1.246 . S
C165 O162 1.259 . S
C166 O163 1.252 . S
C166 O164 1.273 . S
O167 Mg154 2.010 . S
O167 C159 1.249 . S
H168 C176 0.929 . S
H169 C178 0.930 . S
H170 C180 0.930 . S
H171 C183 0.929 . S
H172 C186 0.930 . S
H173 C188 0.960 . S
H174 C188 0.960 . S
H175 C188 0.960 . S
C176 H168 0.929 . S
C176 C177 1.377 . S
C176 C178 1.384 . S
C177 C176 1.377 . S
C177 C183 1.390 . S
C178 H169 0.930 . S
C178 C176 1.384 . S
C178 C179 1.372 . S
C179 C178 1.372 . S
C179 C180 1.400 . S
C179 C184 1.490 . S
C180 H170 0.930 . S
C180 C179 1.400 . S
C180 C183 1.386 . S
H181 C197 0.930 . S
H182 C198 0.931 . S
C183 H171 0.929 . S
C183 C177 1.390 . S
C183 C180 1.386 . S
C184 C179 1.490 . S
C184 C186 1.395 . S
C184 C187 1.403 . S
H185 C191 0.930 . S
C186 H172 0.930 . S
C186 C184 1.395 . S
C186 C189 1.403 . S
C187 C184 1.403 . S
C187 C188 1.524 . S
C187 C191 1.400 . S
C188 H173 0.960 . S
C188 H174 0.960 . S
C188 H175 0.960 . S
C188 C187 1.524 . S
C189 C186 1.403 . S
C189 C190 1.392 . S
C189 C193 1.495 . S
C190 C189 1.392 . S
C190 C191 1.385 . S
C190 C192 1.478 . S
C191 H185 0.930 . S
C191 C187 1.400 . S
C191 C190 1.385 . S
C192 C190 1.478 . S
C192 C194 1.381 . S
C192 C198 1.383 . S
C193 C189 1.495 . S
C193 H199 0.959 . S
C193 H200 0.961 . S
C193 H201 0.960 . S
C194 C192 1.381 . S
C194 C195 1.394 . S
C194 H202 0.930 . S
C195 C194 1.394 . S
C195 C196 1.383 . S
C195 H203 0.929 . S
C196 C195 1.383 . S
C196 C197 1.377 . S
C197 H181 0.930 . S
C197 C196 1.377 . S
C197 C198 1.379 . S
C198 H182 0.931 . S
C198 C192 1.383 . S
C198 C197 1.379 . S
H199 C193 0.959 . S
H200 C193 0.961 . S
H201 C193 0.960 . S
H202 C194 0.930 . S
H203 C195 0.929 . S
H204 C212 0.929 . S
H205 C214 0.930 . S
H206 C216 0.930 . S
H207 C219 0.929 . S
H208 C222 0.930 . S
H209 C224 0.960 . S
H210 C224 0.960 . S
H211 C224 0.960 . S
C212 H204 0.929 . S
C212 C213 1.377 . S
C212 C214 1.384 . S
C213 C212 1.377 . S
C213 C219 1.390 . S
C214 H205 0.930 . S
C214 C212 1.384 . S
C214 C215 1.372 . S
C215 C214 1.372 . S
C215 C216 1.400 . S
C215 C220 1.490 . S
C216 H206 0.930 . S
C216 C215 1.400 . S
C216 C219 1.386 . S
H217 C233 0.930 . S
H218 C234 0.931 . S
C219 H207 0.929 . S
C219 C213 1.390 . S
C219 C216 1.386 . S
C220 C215 1.490 . S
C220 C222 1.395 . S
C220 C223 1.403 . S
H221 C227 0.930 . S
C222 H208 0.930 . S
C222 C220 1.395 . S
C222 C225 1.403 . S
C223 C220 1.403 . S
C223 C224 1.524 . S
C223 C227 1.400 . S
C224 H209 0.960 . S
C224 H210 0.960 . S
C224 H211 0.960 . S
C224 C223 1.524 . S
C225 C222 1.403 . S
C225 C226 1.392 . S
C225 C229 1.495 . S
C226 C225 1.392 . S
C226 C227 1.385 . S
C226 C228 1.478 . S
C227 H221 0.930 . S
C227 C223 1.400 . S
C227 C226 1.385 . S
C228 C226 1.478 . S
C228 C230 1.381 . S
C228 C234 1.383 . S
C229 C225 1.495 . S
C229 H235 0.959 . S
C229 H236 0.961 . S
C229 H237 0.960 . S
C230 C228 1.381 . S
C230 C231 1.394 . S
C230 H238 0.930 . S
C231 C230 1.394 . S
C231 C232 1.383 . S
C231 H239 0.929 . S
C232 C231 1.383 . S
C232 C233 1.377 . S
C233 H217 0.930 . S
C233 C232 1.377 . S
C233 C234 1.379 . S
C234 H218 0.931 . S
C234 C228 1.383 . S
C234 C233 1.379 . S
H235 C229 0.959 . S
H236 C229 0.961 . S
H237 C229 0.960 . S
H238 C230 0.930 . S
H239 C231 0.929 . S
H240 C248 0.929 . S
H241 C250 0.930 . S
H242 C252 0.930 . S
H243 C255 0.929 . S
H244 C258 0.930 . S
H245 C260 0.960 . S
H246 C260 0.960 . S
H247 C260 0.960 . S
C248 H240 0.929 . S
C248 C249 1.377 . S
C248 C250 1.384 . S
C249 C248 1.377 . S
C249 C255 1.390 . S
C250 H241 0.930 . S
C250 C248 1.384 . S
C250 C251 1.372 . S
C251 C250 1.372 . S
C251 C252 1.400 . S
C251 C256 1.490 . S
C252 H242 0.930 . S
C252 C251 1.400 . S
C252 C255 1.386 . S
H253 C269 0.930 . S
H254 C270 0.931 . S
C255 H243 0.929 . S
C255 C249 1.390 . S
C255 C252 1.386 . S
C256 C251 1.490 . S
C256 C258 1.395 . S
C256 C259 1.403 . S
H257 C263 0.930 . S
C258 H244 0.930 . S
C258 C256 1.395 . S
C258 C261 1.403 . S
C259 C256 1.403 . S
C259 C260 1.524 . S
C259 C263 1.400 . S
C260 H245 0.960 . S
C260 H246 0.960 . S
C260 H247 0.960 . S
C260 C259 1.524 . S
C261 C258 1.403 . S
C261 C262 1.392 . S
C261 C265 1.495 . S
C262 C261 1.392 . S
C262 C263 1.385 . S
C262 C264 1.478 . S
C263 H257 0.930 . S
C263 C259 1.400 . S
C263 C262 1.385 . S
C264 C262 1.478 . S
C264 C266 1.381 . S
C264 C270 1.383 . S
C265 C261 1.495 . S
C265 H271 0.959 . S
C265 H272 0.961 . S
C265 H273 0.960 . S
C266 C264 1.381 . S
C266 C267 1.394 . S
C266 H274 0.930 . S
C267 C266 1.394 . S
C267 C268 1.383 . S
C267 H275 0.929 . S
C268 C267 1.383 . S
C268 C269 1.377 . S
C269 H253 0.930 . S
C269 C268 1.377 . S
C269 C270 1.379 . S
C270 H254 0.931 . S
C270 C264 1.383 . S
C270 C269 1.379 . S
H271 C265 0.959 . S
H272 C265 0.961 . S
H273 C265 0.960 . S
H274 C266 0.930 . S
H275 C267 0.929 . S
H276 C284 0.929 . S
H277 C286 0.930 . S
H278 C288 0.930 . S
H279 C291 0.929 . S
H280 C294 0.930 . S
H281 C296 0.960 . S
H282 C296 0.960 . S
H283 C296 0.960 . S
C284 H276 0.929 . S
C284 C285 1.377 . S
C284 C286 1.384 . S
C285 C284 1.377 . S
C285 C291 1.390 . S
C286 H277 0.930 . S
C286 C284 1.384 . S
C286 C287 1.372 . S
C287 C286 1.372 . S
C287 C288 1.400 . S
C287 C292 1.490 . S
C288 H278 0.930 . S
C288 C287 1.400 . S
C288 C291 1.386 . S
H289 C305 0.930 . S
H290 C306 0.931 . S
C291 H279 0.929 . S
C291 C285 1.390 . S
C291 C288 1.386 . S
C292 C287 1.490 . S
C292 C294 1.395 . S
C292 C295 1.403 . S
H293 C299 0.930 . S
C294 H280 0.930 . S
C294 C292 1.395 . S
C294 C297 1.403 . S
C295 C292 1.403 . S
C295 C296 1.524 . S
C295 C299 1.400 . S
C296 H281 0.960 . S
C296 H282 0.960 . S
C296 H283 0.960 . S
C296 C295 1.524 . S
C297 C294 1.403 . S
C297 C298 1.392 . S
C297 C301 1.495 . S
C298 C297 1.392 . S
C298 C299 1.385 . S
C298 C300 1.478 . S
C299 H293 0.930 . S
C299 C295 1.400 . S
C299 C298 1.385 . S
C300 C298 1.478 . S
C300 C302 1.381 . S
C300 C306 1.383 . S
C301 C297 1.495 . S
C301 H307 0.959 . S
C301 H308 0.961 . S
C301 H309 0.960 . S
C302 C300 1.381 . S
C302 C303 1.394 . S
C302 H310 0.930 . S
C303 C302 1.394 . S
C303 C304 1.383 . S
C303 H311 0.929 . S
C304 C303 1.383 . S
C304 C305 1.377 . S
C305 H289 0.930 . S
C305 C304 1.377 . S
C305 C306 1.379 . S
C306 H290 0.931 . S
C306 C300 1.383 . S
C306 C305 1.379 . S
H307 C301 0.959 . S
H308 C301 0.961 . S
H309 C301 0.960 . S
H310 C302 0.930 . S
H311 C303 0.929 . S
H312 C320 0.929 . S
H313 C322 0.930 . S
H314 C324 0.930 . S
H315 C327 0.929 . S
H316 C330 0.930 . S
H317 C332 0.960 . S
H318 C332 0.960 . S
H319 C332 0.960 . S
C320 H312 0.929 . S
C320 C321 1.377 . S
C320 C322 1.384 . S
C321 C320 1.377 . S
C321 C327 1.390 . S
C322 H313 0.930 . S
C322 C320 1.384 . S
C322 C323 1.372 . S
C323 C322 1.372 . S
C323 C324 1.400 . S
C323 C328 1.490 . S
C324 H314 0.930 . S
C324 C323 1.400 . S
C324 C327 1.386 . S
H325 C341 0.930 . S
H326 C342 0.931 . S
C327 H315 0.929 . S
C327 C321 1.390 . S
C327 C324 1.386 . S
C328 C323 1.490 . S
C328 C330 1.395 . S
C328 C331 1.403 . S
H329 C335 0.930 . S
C330 H316 0.930 . S
C330 C328 1.395 . S
C330 C333 1.403 . S
C331 C328 1.403 . S
C331 C332 1.524 . S
C331 C335 1.400 . S
C332 H317 0.960 . S
C332 H318 0.960 . S
C332 H319 0.960 . S
C332 C331 1.524 . S
C333 C330 1.403 . S
C333 C334 1.392 . S
C333 C337 1.495 . S
C334 C333 1.392 . S
C334 C335 1.385 . S
C334 C336 1.478 . S
C335 H329 0.930 . S
C335 C331 1.400 . S
C335 C334 1.385 . S
C336 C334 1.478 . S
C336 C338 1.381 . S
C336 C342 1.383 . S
C337 C333 1.495 . S
C337 H343 0.959 . S
C337 H344 0.961 . S
C337 H345 0.960 . S
C338 C336 1.381 . S
C338 C339 1.394 . S
C338 H346 0.930 . S
C339 C338 1.394 . S
C339 C340 1.383 . S
C339 H347 0.929 . S
C340 C339 1.383 . S
C340 C341 1.377 . S
C341 H325 0.930 . S
C341 C340 1.377 . S
C341 C342 1.379 . S
C342 H326 0.931 . S
C342 C336 1.383 . S
C342 C341 1.379 . S
H343 C337 0.959 . S
H344 C337 0.961 . S
H345 C337 0.960 . S
H346 C338 0.930 . S
H347 C339 0.929 . S
H348 C356 0.929 . S
H349 C358 0.930 . S
H350 C360 0.930 . S
H351 C363 0.929 . S
H352 C366 0.930 . S
H353 C368 0.960 . S
H354 C368 0.960 . S
H355 C368 0.960 . S
C356 H348 0.929 . S
C356 C357 1.377 . S
C356 C358 1.384 . S
C357 C356 1.377 . S
C357 C363 1.390 . S
C358 H349 0.930 . S
C358 C356 1.384 . S
C358 C359 1.372 . S
C359 C358 1.372 . S
C359 C360 1.400 . S
C359 C364 1.490 . S
C360 H350 0.930 . S
C360 C359 1.400 . S
C360 C363 1.386 . S
H361 C377 0.930 . S
H362 C378 0.931 . S
C363 H351 0.929 . S
C363 C357 1.390 . S
C363 C360 1.386 . S
C364 C359 1.490 . S
C364 C366 1.395 . S
C364 C367 1.403 . S
H365 C371 0.930 . S
C366 H352 0.930 . S
C366 C364 1.395 . S
C366 C369 1.403 . S
C367 C364 1.403 . S
C367 C368 1.524 . S
C367 C371 1.400 . S
C368 H353 0.960 . S
C368 H354 0.960 . S
C368 H355 0.960 . S
C368 C367 1.524 . S
C369 C366 1.403 . S
C369 C370 1.392 . S
C369 C373 1.495 . S
C370 C369 1.392 . S
C370 C371 1.385 . S
C370 C372 1.478 . S
C371 H365 0.930 . S
C371 C367 1.400 . S
C371 C370 1.385 . S
C372 C370 1.478 . S
C372 C374 1.381 . S
C372 C378 1.383 . S
C373 C369 1.495 . S
C373 H379 0.959 . S
C373 H380 0.961 . S
C373 H381 0.960 . S
C374 C372 1.381 . S
C374 C375 1.394 . S
C374 H382 0.930 . S
C375 C374 1.394 . S
C375 C376 1.383 . S
C375 H383 0.929 . S
C376 C375 1.383 . S
C376 C377 1.377 . S
C377 H361 0.930 . S
C377 C376 1.377 . S
C377 C378 1.379 . S
C378 H362 0.931 . S
C378 C372 1.383 . S
C378 C377 1.379 . S
H379 C373 0.959 . S
H380 C373 0.961 . S
H381 C373 0.960 . S
H382 C374 0.930 . S
H383 C375 0.929 . S
H384 C392 0.929 . S
H385 C394 0.930 . S
H386 C396 0.930 . S
H387 C399 0.929 . S
H388 C402 0.930 . S
H389 C404 0.960 . S
H390 C404 0.960 . S
H391 C404 0.960 . S
C392 H384 0.929 . S
C392 C393 1.377 . S
C392 C394 1.384 . S
C393 C392 1.377 . S
C393 C399 1.390 . S
C394 H385 0.930 . S
C394 C392 1.384 . S
C394 C395 1.372 . S
C395 C394 1.372 . S
C395 C396 1.400 . S
C395 C400 1.490 . S
C396 H386 0.930 . S
C396 C395 1.400 . S
C396 C399 1.386 . S
H397 C413 0.930 . S
H398 C414 0.936 . S
C399 H387 0.929 . S
C399 C393 1.390 . S
C399 C396 1.386 . S
C400 C395 1.490 . S
C400 C402 1.395 . S
C400 C403 1.403 . S
H401 C407 0.930 . S
C402 H388 0.930 . S
C402 C400 1.395 . S
C402 C405 1.384 1_554 S
C403 C400 1.403 . S
C403 C404 1.524 . S
C403 C407 1.400 . S
C404 H389 0.960 . S
C404 H390 0.960 . S
C404 H391 0.960 . S
C404 C403 1.524 . S
C405 C402 1.384 1_556 S
C405 C406 1.379 1_556 S
C405 C409 1.529 . S
C406 C405 1.379 1_554 S
C406 C407 1.385 . S
C406 C408 1.478 1_554 S
C407 H401 0.930 . S
C407 C403 1.400 . S
C407 C406 1.385 . S
C408 C406 1.478 1_556 S
C408 C410 1.381 . S
C408 C414 1.383 . S
C409 C405 1.529 . S
C409 H415 0.959 . S
C409 H416 0.961 . S
C409 H417 0.960 . S
C410 C408 1.381 . S
C410 C411 1.394 . S
C410 H418 0.930 . S
C411 C410 1.394 . S
C411 C412 1.383 . S
C411 H419 0.929 . S
C412 C411 1.383 . S
C412 C413 1.377 . S
C413 H397 0.930 . S
C413 C412 1.377 . S
C413 C414 1.379 . S
C414 H398 0.936 . S
C414 C408 1.383 . S
C414 C413 1.379 . S
H415 C409 0.959 . S
H416 C409 0.961 . S
H417 C409 0.960 . S
H418 C410 0.930 . S
H419 C411 0.929 . S
H420 C428 0.929 . S
H421 C430 0.930 . S
H422 C432 0.930 . S
H423 C435 0.929 . S
H424 C438 0.930 . S
H425 C440 0.960 . S
H426 C440 0.960 . S
H427 C440 0.960 . S
C428 H420 0.929 . S
C428 C429 1.377 . S
C428 C430 1.384 . S
C429 C428 1.377 . S
C429 C435 1.390 . S
C430 H421 0.930 . S
C430 C428 1.384 . S
C430 C431 1.372 . S
C431 C430 1.372 . S
C431 C432 1.400 . S
C431 C436 1.490 . S
C432 H422 0.930 . S
C432 C431 1.400 . S
C432 C435 1.386 . S
H433 C449 0.930 1_455 S
H434 C450 0.931 . S
C435 H423 0.929 . S
C435 C429 1.390 . S
C435 C432 1.386 . S
C436 C431 1.490 . S
C436 C438 1.395 . S
C436 C439 1.403 . S
H437 C443 0.930 . S
C438 H424 0.930 . S
C438 C436 1.395 . S
C438 C441 1.403 . S
C439 C436 1.403 . S
C439 C440 1.524 . S
C439 C443 1.400 . S
C440 H425 0.960 . S
C440 H426 0.960 . S
C440 H427 0.960 . S
C440 C439 1.524 . S
C441 C438 1.403 . S
C441 C442 1.392 . S
C441 C445 1.495 . S
C442 C441 1.392 . S
C442 C443 1.385 . S
C442 C444 1.478 . S
C443 H437 0.930 . S
C443 C439 1.400 . S
C443 C442 1.385 . S
C444 C442 1.478 . S
C444 C446 1.381 . S
C444 C450 1.383 . S
C445 C441 1.495 . S
C445 H451 0.959 . S
C445 H452 0.961 . S
C445 H453 0.960 . S
C446 C444 1.381 . S
C446 C447 1.394 . S
C446 H454 0.930 . S
C447 C446 1.394 . S
C447 C448 1.383 . S
C447 H455 0.929 . S
C448 C447 1.383 . S
C448 C449 1.377 . S
C449 H433 0.930 1_655 S
C449 C448 1.377 . S
C449 C450 1.379 . S
C450 H434 0.931 . S
C450 C444 1.383 . S
C450 C449 1.379 . S
H451 C445 0.959 . S
H452 C445 0.961 . S
H453 C445 0.960 . S
H454 C446 0.930 . S
H455 C447 0.929 . S
H456 C464 0.929 . S
H457 C466 0.930 . S
H458 C468 0.930 . S
H459 C471 0.929 . S
H460 C474 0.930 . S
H461 C476 0.960 . S
H462 C476 0.960 . S
H463 C476 0.960 . S
C464 H456 0.929 . S
C464 C465 1.377 . S
C464 C466 1.384 . S
C465 C464 1.377 . S
C465 C471 1.390 . S
C466 H457 0.930 . S
C466 C464 1.384 . S
C466 C467 1.372 . S
C467 C466 1.372 . S
C467 C468 1.400 . S
C467 C472 1.490 . S
C468 H458 0.930 . S
C468 C467 1.400 . S
C468 C471 1.386 . S
H469 C485 0.930 . S
H470 C486 0.931 . S
C471 H459 0.929 . S
C471 C465 1.390 . S
C471 C468 1.386 . S
C472 C467 1.490 . S
C472 C474 1.395 . S
C472 C475 1.403 . S
H473 C479 0.930 . S
C474 H460 0.930 . S
C474 C472 1.395 . S
C474 C477 1.403 . S
C475 C472 1.403 . S
C475 C476 1.524 . S
C475 C479 1.400 . S
C476 H461 0.960 . S
C476 H462 0.960 . S
C476 H463 0.960 . S
C476 C475 1.524 . S
C477 C474 1.403 . S
C477 C478 1.392 . S
C477 C481 1.495 . S
C478 C477 1.392 . S
C478 C479 1.385 . S
C478 C480 1.478 . S
C479 H473 0.930 . S
C479 C475 1.400 . S
C479 C478 1.385 . S
C480 C478 1.478 . S
C480 C482 1.381 . S
C480 C486 1.383 . S
C481 C477 1.495 . S
C481 H487 0.959 . S
C481 H488 0.961 . S
C481 H489 0.960 . S
C482 C480 1.381 . S
C482 C483 1.356 1_565 S
C482 H490 0.930 . S
C483 C482 1.356 1_545 S
C483 C484 1.395 1_545 S
C483 H491 0.957 . S
C484 C483 1.395 1_565 S
C484 C485 1.377 . S
C485 H469 0.930 . S
C485 C484 1.377 . S
C485 C486 1.379 . S
C486 H470 0.931 . S
C486 C480 1.383 . S
C486 C485 1.379 . S
H487 C481 0.959 . S
H488 C481 0.961 . S
H489 C481 0.960 . S
H490 C482 0.930 . S
H491 C483 0.957 . S
H492 C500 0.929 . S
H493 C502 0.930 . S
H494 C504 0.930 . S
H495 C507 0.929 . S
H496 C510 0.930 . S
H497 C512 0.960 . S
H498 C512 0.960 . S
H499 C512 0.960 . S
C500 H492 0.929 . S
C500 C501 1.377 . S
C500 C502 1.384 . S
C501 C500 1.377 . S
C501 C507 1.390 . S
C502 H493 0.930 . S
C502 C500 1.384 . S
C502 C503 1.372 . S
C503 C502 1.372 . S
C503 C504 1.400 . S
C503 C508 1.490 . S
C504 H494 0.930 . S
C504 C503 1.400 . S
C504 C507 1.386 . S
H505 C521 0.930 . S
H506 C522 0.931 . S
C507 H495 0.929 . S
C507 C501 1.390 . S
C507 C504 1.386 . S
C508 C503 1.490 . S
C508 C510 1.395 . S
C508 C511 1.403 . S
H509 C515 0.930 . S
C510 H496 0.930 . S
C510 C508 1.395 . S
C510 C513 1.403 . S
C511 C508 1.403 . S
C511 C512 1.524 . S
C511 C515 1.400 . S
C512 H497 0.960 . S
C512 H498 0.960 . S
C512 H499 0.960 . S
C512 C511 1.524 . S
C513 C510 1.403 . S
C513 C514 1.392 . S
C513 C517 1.495 . S
C514 C513 1.392 . S
C514 C515 1.385 . S
C514 C516 1.478 . S
C515 H509 0.930 . S
C515 C511 1.400 . S
C515 C514 1.385 . S
C516 C514 1.478 . S
C516 C518 1.381 . S
C516 C522 1.383 . S
C517 C513 1.495 . S
C517 H523 0.959 . S
C517 H524 0.961 . S
C517 H525 0.960 . S
C518 C516 1.381 . S
C518 C519 1.394 . S
C518 H526 0.930 . S
C519 C518 1.394 . S
C519 C520 1.383 . S
C519 H527 0.929 . S
C520 C519 1.383 . S
C520 C521 1.377 . S
C521 H505 0.930 . S
C521 C520 1.377 . S
C521 C522 1.379 . S
C522 H506 0.931 . S
C522 C516 1.383 . S
C522 C521 1.379 . S
H523 C517 0.959 . S
H524 C517 0.961 . S
H525 C517 0.960 . S
H526 C518 0.930 . S
H527 C519 0.929 . S
H528 C536 0.929 . S
H529 C538 0.930 . S
H530 C540 0.930 . S
H531 C543 0.929 . S
H532 C546 0.930 . S
H533 C548 0.960 . S
H534 C548 0.960 . S
H535 C548 0.960 . S
C536 H528 0.929 . S
C536 C537 1.377 . S
C536 C538 1.384 . S
C537 C536 1.377 . S
C537 C543 1.390 . S
C538 H529 0.930 . S
C538 C536 1.384 . S
C538 C539 1.372 . S
C539 C538 1.372 . S
C539 C540 1.400 . S
C539 C544 1.490 . S
C540 H530 0.930 . S
C540 C539 1.400 . S
C540 C543 1.386 . S
H541 C557 0.930 . S
H542 C558 0.931 . S
C543 H531 0.929 . S
C543 C537 1.390 . S
C543 C540 1.386 . S
C544 C539 1.490 . S
C544 C546 1.395 . S
C544 C547 1.403 . S
H545 C551 0.930 . S
C546 H532 0.930 . S
C546 C544 1.395 . S
C546 C549 1.403 . S
C547 C544 1.403 . S
C547 C548 1.524 . S
C547 C551 1.400 . S
C548 H533 0.960 . S
C548 H534 0.960 . S
C548 H535 0.960 . S
C548 C547 1.524 . S
C549 C546 1.403 . S
C549 C550 1.392 . S
C549 C553 1.495 . S
C550 C549 1.392 . S
C550 C551 1.385 . S
C550 C552 1.478 . S
C551 H545 0.930 . S
C551 C547 1.400 . S
C551 C550 1.385 . S
C552 C550 1.478 . S
C552 C554 1.381 . S
C552 C558 1.383 . S
C553 C549 1.495 . S
C553 H559 0.959 . S
C553 H560 0.961 . S
C553 H561 0.960 . S
C554 C552 1.381 . S
C554 C555 1.394 . S
C554 H562 0.930 . S
C555 C554 1.394 . S
C555 C556 1.383 . S
C555 H563 0.929 . S
C556 C555 1.383 . S
C556 C557 1.377 . S
C557 H541 0.930 . S
C557 C556 1.377 . S
C557 C558 1.379 . S
C558 H542 0.931 . S
C558 C552 1.383 . S
C558 C557 1.379 . S
H559 C553 0.959 . S
H560 C553 0.961 . S
H561 C553 0.960 . S
H562 C554 0.930 . S
H563 C555 0.929 . S
H564 C572 0.929 1_565 S
H565 C574 0.930 . S
H566 C576 0.930 . S
H567 C579 0.929 . S
H568 C582 0.930 . S
H569 C584 0.960 . S
H570 C584 0.960 . S
H571 C584 0.960 . S
C572 H564 0.929 1_545 S
C572 C573 1.377 . S
C572 C574 1.384 . S
C573 C572 1.377 . S
C573 C579 1.390 . S
C574 H565 0.930 . S
C574 C572 1.384 . S
C574 C575 1.372 . S
C575 C574 1.372 . S
C575 C576 1.400 . S
C575 C580 1.490 . S
C576 H566 0.930 . S
C576 C575 1.400 . S
C576 C579 1.386 . S
H577 C593 0.930 . S
H578 C594 0.931 . S
C579 H567 0.929 . S
C579 C573 1.390 . S
C579 C576 1.386 . S
C580 C575 1.490 . S
C580 C582 1.395 . S
C580 C583 1.403 . S
H581 C587 0.930 . S
C582 H568 0.930 . S
C582 C580 1.395 . S
C582 C585 1.403 . S
C583 C580 1.403 . S
C583 C584 1.524 . S
C583 C587 1.400 . S
C584 H569 0.960 . S
C584 H570 0.960 . S
C584 H571 0.960 . S
C584 C583 1.524 . S
C585 C582 1.403 . S
C585 C586 1.392 . S
C585 C589 1.495 . S
C586 C585 1.392 . S
C586 C587 1.385 . S
C586 C588 1.478 . S
C587 H581 0.930 . S
C587 C583 1.400 . S
C587 C586 1.385 . S
C588 C586 1.478 . S
C588 C590 1.381 . S
C588 C594 1.383 . S
C589 C585 1.495 . S
C589 H595 0.959 . S
C589 H596 0.961 . S
C589 H597 0.960 . S
C590 C588 1.381 . S
C590 C591 1.394 . S
C590 H598 0.930 . S
C591 C590 1.394 . S
C591 C592 1.383 . S
C591 H599 0.929 . S
C592 C591 1.383 . S
C592 C593 1.377 . S
C593 H577 0.930 . S
C593 C592 1.377 . S
C593 C594 1.379 . S
C594 H578 0.931 . S
C594 C588 1.383 . S
C594 C593 1.379 . S
H595 C589 0.959 . S
H596 C589 0.961 . S
H597 C589 0.960 . S
H598 C590 0.930 . S
H599 C591 0.929 . S
H600 C608 0.929 . S
H601 C610 0.930 . S
H602 C612 0.930 . S
H603 C615 0.929 . S
H604 C618 0.930 . S
H605 C620 0.960 . S
H606 C620 0.960 . S
H607 C620 0.960 . S
C608 H600 0.929 . S
C608 C609 1.377 . S
C608 C610 1.384 . S
C609 C608 1.377 . S
C609 C615 1.390 . S
C610 H601 0.930 . S
C610 C608 1.384 . S
C610 C611 1.372 . S
C611 C610 1.372 . S
C611 C612 1.400 . S
C611 C616 1.490 . S
C612 H602 0.930 . S
C612 C611 1.400 . S
C612 C615 1.386 . S
H613 C629 0.930 . S
H614 C630 0.931 . S
C615 H603 0.929 . S
C615 C609 1.390 . S
C615 C612 1.386 . S
C616 C611 1.490 . S
C616 C618 1.395 . S
C616 C619 1.403 . S
H617 C623 0.930 . S
C618 H604 0.930 . S
C618 C616 1.395 . S
C618 C621 1.403 . S
C619 C616 1.403 . S
C619 C620 1.524 . S
C619 C623 1.400 . S
C620 H605 0.960 . S
C620 H606 0.960 . S
C620 H607 0.960 . S
C620 C619 1.524 . S
C621 C618 1.403 . S
C621 C622 1.392 . S
C621 C625 1.495 . S
C622 C621 1.392 . S
C622 C623 1.385 . S
C622 C624 1.478 . S
C623 H617 0.930 . S
C623 C619 1.400 . S
C623 C622 1.385 . S
C624 C622 1.478 . S
C624 C626 1.381 . S
C624 C630 1.383 . S
C625 C621 1.495 . S
C625 H631 0.959 . S
C625 H632 0.961 . S
C625 H633 0.960 . S
C626 C624 1.381 . S
C626 C627 1.394 . S
C626 H634 0.930 . S
C627 C626 1.394 . S
C627 C628 1.383 . S
C627 H635 0.929 . S
C628 C627 1.383 . S
C628 C629 1.377 . S
C629 H613 0.930 . S
C629 C628 1.377 . S
C629 C630 1.379 . S
C630 H614 0.931 . S
C630 C624 1.383 . S
C630 C629 1.379 . S
H631 C625 0.959 . S
H632 C625 0.961 . S
H633 C625 0.960 . S
H634 C626 0.930 . S
H635 C627 0.929 . S
H636 C644 0.929 . S
H637 C646 0.930 . S
H638 C648 0.930 . S
H639 C651 0.929 . S
H640 C654 0.930 . S
H641 C656 0.911 1_554 S
H642 C656 0.979 . S
H643 C656 0.965 . S
C644 H636 0.929 . S
C644 C645 1.377 . S
C644 C646 1.384 . S
C645 C644 1.377 . S
C645 C651 1.390 . S
C646 H637 0.930 . S
C646 C644 1.384 . S
C646 C647 1.372 . S
C647 C646 1.372 . S
C647 C648 1.400 . S
C647 C652 1.490 . S
C648 H638 0.930 . S
C648 C647 1.400 . S
C648 C651 1.386 . S
H649 C665 0.930 . S
H650 C666 0.931 . S
C651 H639 0.929 . S
C651 C645 1.390 . S
C651 C648 1.386 . S
C652 C647 1.490 . S
C652 C654 1.395 . S
C652 C655 1.403 . S
H653 C659 0.930 1_554 S
C654 H640 0.930 . S
C654 C652 1.395 . S
C654 C657 1.403 . S
C655 C652 1.403 . S
C655 C656 1.553 . S
C655 C659 1.400 . S
C656 H641 0.911 1_556 S
C656 H642 0.979 . S
C656 H643 0.965 . S
C656 C655 1.553 . S
C657 C654 1.403 . S
C657 C658 1.392 . S
C657 C661 1.495 . S
C658 C657 1.392 . S
C658 C659 1.385 . S
C658 C660 1.478 . S
C659 H653 0.930 1_556 S
C659 C655 1.400 . S
C659 C658 1.385 . S
C660 C658 1.478 . S
C660 C662 1.381 . S
C660 C666 1.383 1_556 S
C661 C657 1.495 . S
C661 H667 0.959 . S
C661 H668 0.961 . S
C661 H669 0.960 . S
C662 C660 1.381 . S
C662 C663 1.394 1_556 S
C662 H670 0.930 . S
C663 C662 1.394 1_554 S
C663 C664 1.383 . S
C663 H671 0.929 . S
C664 C663 1.383 . S
C664 C665 1.410 . S
C665 H649 0.930 . S
C665 C664 1.410 . S
C665 C666 1.379 . S
C666 H650 0.931 . S
C666 C660 1.383 1_554 S
C666 C665 1.379 . S
H667 C661 0.959 . S
H668 C661 0.961 . S
H669 C661 0.960 . S
H670 C662 0.930 . S
H671 C663 0.929 . S
H672 C680 0.929 1_545 S
H673 C682 0.930 . S
H674 C684 0.930 . S
H675 C687 0.929 . S
H676 C690 0.930 . S
H677 C692 0.960 . S
H678 C692 0.960 . S
H679 C692 0.960 . S
C680 H672 0.929 1_565 S
C680 C681 1.377 . S
C680 C682 1.384 . S
C681 C680 1.377 . S
C681 C687 1.390 . S
C682 H673 0.930 . S
C682 C680 1.384 . S
C682 C683 1.372 . S
C683 C682 1.372 . S
C683 C684 1.400 . S
C683 C688 1.490 . S
C684 H674 0.930 . S
C684 C683 1.400 . S
C684 C687 1.386 . S
H685 C701 0.930 . S
H686 C702 0.931 . S
C687 H675 0.929 . S
C687 C681 1.390 . S
C687 C684 1.386 . S
C688 C683 1.490 . S
C688 C690 1.395 . S
C688 C691 1.403 . S
H689 C695 0.930 . S
C690 H676 0.930 . S
C690 C688 1.395 . S
C690 C693 1.403 . S
C691 C688 1.403 . S
C691 C692 1.524 . S
C691 C695 1.400 . S
C692 H677 0.960 . S
C692 H678 0.960 . S
C692 H679 0.960 . S
C692 C691 1.524 . S
C693 C690 1.403 . S
C693 C694 1.392 . S
C693 C697 1.495 . S
C694 C693 1.392 . S
C694 C695 1.385 . S
C694 C696 1.478 . S
C695 H689 0.930 . S
C695 C691 1.400 . S
C695 C694 1.385 . S
C696 C694 1.478 . S
C696 C698 1.381 . S
C696 C702 1.383 . S
C697 C693 1.495 . S
C697 H703 0.959 . S
C697 H704 0.961 . S
C697 H705 0.960 . S
C698 C696 1.381 . S
C698 C699 1.394 . S
C698 H706 0.930 . S
C699 C698 1.394 . S
C699 C700 1.383 . S
C699 H707 0.929 . S
C700 C699 1.383 . S
C700 C701 1.377 . S
C701 H685 0.930 . S
C701 C700 1.377 . S
C701 C702 1.379 . S
C702 H686 0.931 . S
C702 C696 1.383 . S
C702 C701 1.379 . S
H703 C697 0.959 . S
H704 C697 0.961 . S
H705 C697 0.960 . S
H706 C698 0.930 . S
H707 C699 0.929 . S
H708 C716 0.929 . S
H709 C718 0.930 . S
H710 C720 0.930 . S
H711 C723 0.929 . S
H712 C726 0.930 . S
H713 C728 0.960 . S
H714 C728 0.960 . S
H715 C728 0.960 . S
C716 H708 0.929 . S
C716 C717 1.377 . S
C716 C718 1.384 . S
C717 C716 1.377 . S
C717 C723 1.390 . S
C718 H709 0.930 . S
C718 C716 1.384 . S
C718 C719 1.372 . S
C719 C718 1.372 . S
C719 C720 1.400 . S
C719 C724 1.490 . S
C720 H710 0.930 . S
C720 C719 1.400 . S
C720 C723 1.386 . S
H721 C737 0.930 . S
H722 C738 0.931 . S
C723 H711 0.929 . S
C723 C717 1.390 . S
C723 C720 1.386 . S
C724 C719 1.490 . S
C724 C726 1.395 . S
C724 C727 1.403 . S
H725 C731 0.930 . S
C726 H712 0.930 . S
C726 C724 1.395 . S
C726 C729 1.403 . S
C727 C724 1.403 . S
C727 C728 1.524 . S
C727 C731 1.400 . S
C728 H713 0.960 . S
C728 H714 0.960 . S
C728 H715 0.960 . S
C728 C727 1.524 . S
C729 C726 1.403 . S
C729 C730 1.392 . S
C729 C733 1.495 . S
C730 C729 1.392 . S
C730 C731 1.385 . S
C730 C732 1.478 . S
C731 H725 0.930 . S
C731 C727 1.400 . S
C731 C730 1.385 . S
C732 C730 1.478 . S
C732 C734 1.381 . S
C732 C738 1.383 . S
C733 C729 1.495 . S
C733 H739 0.959 . S
C733 H740 0.961 . S
C733 H741 0.960 . S
C734 C732 1.381 . S
C734 C735 1.394 . S
C734 H742 0.930 . S
C735 C734 1.394 . S
C735 C736 1.383 . S
C735 H743 0.929 . S
C736 C735 1.383 . S
C736 C737 1.377 . S
C737 H721 0.930 . S
C737 C736 1.377 . S
C737 C738 1.379 . S
C738 H722 0.931 . S
C738 C732 1.383 . S
C738 C737 1.379 . S
H739 C733 0.959 . S
H740 C733 0.961 . S
H741 C733 0.960 . S
H742 C734 0.930 . S
H743 C735 0.929 . S
H744 C752 0.929 . S
H745 C754 0.930 . S
H746 C756 0.930 . S
H747 C759 0.929 . S
H748 C762 0.930 . S
H749 C764 0.960 . S
H750 C764 0.960 . S
H751 C764 0.960 . S
C752 H744 0.929 . S
C752 C753 1.377 . S
C752 C754 1.384 . S
C753 C752 1.377 . S
C753 C759 1.390 . S
C754 H745 0.930 . S
C754 C752 1.384 . S
C754 C755 1.372 . S
C755 C754 1.372 . S
C755 C756 1.400 . S
C755 C760 1.490 . S
C756 H746 0.930 . S
C756 C755 1.400 . S
C756 C759 1.386 . S
H757 C773 0.930 . S
H758 C774 0.931 . S
C759 H747 0.929 . S
C759 C753 1.390 . S
C759 C756 1.386 . S
C760 C755 1.490 . S
C760 C762 1.395 . S
C760 C763 1.403 . S
H761 C767 0.930 . S
C762 H748 0.930 . S
C762 C760 1.395 . S
C762 C765 1.403 . S
C763 C760 1.403 . S
C763 C764 1.524 . S
C763 C767 1.400 . S
C764 H749 0.960 . S
C764 H750 0.960 . S
C764 H751 0.960 . S
C764 C763 1.524 . S
C765 C762 1.403 . S
C765 C766 1.392 . S
C765 C769 1.495 . S
C766 C765 1.392 . S
C766 C767 1.385 . S
C766 C768 1.478 . S
C767 H761 0.930 . S
C767 C763 1.400 . S
C767 C766 1.385 . S
C768 C766 1.478 . S
C768 C770 1.381 . S
C768 C774 1.383 . S
C769 C765 1.495 . S
C769 H775 0.959 . S
C769 H776 0.961 . S
C769 H777 0.960 . S
C770 C768 1.381 . S
C770 C771 1.394 . S
C770 H778 0.930 . S
C771 C770 1.394 . S
C771 C772 1.383 . S
C771 H779 0.929 1_455 S
C772 C771 1.383 . S
C772 C773 1.377 . S
C773 H757 0.930 . S
C773 C772 1.377 . S
C773 C774 1.379 . S
C774 H758 0.931 . S
C774 C768 1.383 . S
C774 C773 1.379 . S
H775 C769 0.959 . S
H776 C769 0.961 . S
H777 C769 0.960 . S
H778 C770 0.930 . S
H779 C771 0.929 1_655 S
H780 C788 0.929 . S
H781 C790 0.930 . S
H782 C792 0.930 . S
H783 C795 0.929 . S
H784 C798 0.930 . S
H785 C800 0.960 . S
H786 C800 0.960 . S
H787 C800 0.960 . S
C788 H780 0.929 . S
C788 C789 1.377 . S
C788 C790 1.384 . S
C789 C788 1.377 . S
C789 C795 1.390 . S
C790 H781 0.930 . S
C790 C788 1.384 . S
C790 C791 1.372 . S
C791 C790 1.372 . S
C791 C792 1.400 . S
C791 C796 1.490 . S
C792 H782 0.930 . S
C792 C791 1.400 . S
C792 C795 1.386 . S
H793 C809 0.930 1_565 S
H794 C810 0.931 . S
C795 H783 0.929 . S
C795 C789 1.390 . S
C795 C792 1.386 . S
C796 C791 1.490 . S
C796 C798 1.395 . S
C796 C799 1.403 . S
H797 C803 0.930 . S
C798 H784 0.930 . S
C798 C796 1.395 . S
C798 C801 1.403 . S
C799 C796 1.403 . S
C799 C800 1.524 . S
C799 C803 1.400 . S
C800 H785 0.960 . S
C800 H786 0.960 . S
C800 H787 0.960 . S
C800 C799 1.524 . S
C801 C798 1.403 . S
C801 C802 1.392 . S
C801 C805 1.495 . S
C802 C801 1.392 . S
C802 C803 1.385 . S
C802 C804 1.478 . S
C803 H797 0.930 . S
C803 C799 1.400 . S
C803 C802 1.385 . S
C804 C802 1.478 . S
C804 C806 1.381 . S
C804 C810 1.383 . S
C805 C801 1.495 . S
C805 H811 0.959 . S
C805 H812 0.961 . S
C805 H813 0.960 . S
C806 C804 1.381 . S
C806 C807 1.394 . S
C806 H814 0.930 . S
C807 C806 1.394 . S
C807 C808 1.383 . S
C807 H815 0.929 . S
C808 C807 1.383 . S
C808 C809 1.377 . S
C809 H793 0.930 1_545 S
C809 C808 1.377 . S
C809 C810 1.379 . S
C810 H794 0.931 . S
C810 C804 1.383 . S
C810 C809 1.379 . S
H811 C805 0.959 . S
H812 C805 0.961 . S
H813 C805 0.960 . S
H814 C806 0.930 . S
H815 C807 0.929 . S
H816 C824 0.929 . S
H817 C826 0.930 . S
H818 C828 0.930 . S
H819 C831 0.929 . S
H820 C834 0.930 . S
H821 C836 0.960 . S
H822 C836 0.960 . S
H823 C836 0.960 . S
C824 H816 0.929 . S
C824 C825 1.377 . S
C824 C826 1.384 . S
C825 C824 1.377 . S
C825 C831 1.390 . S
C826 H817 0.930 . S
C826 C824 1.384 . S
C826 C827 1.372 . S
C827 C826 1.372 . S
C827 C828 1.400 . S
C827 C832 1.490 . S
C828 H818 0.930 . S
C828 C827 1.400 . S
C828 C831 1.386 . S
H829 C845 0.930 . S
H830 C846 0.931 . S
C831 H819 0.929 . S
C831 C825 1.390 . S
C831 C828 1.386 . S
C832 C827 1.490 . S
C832 C834 1.395 . S
C832 C835 1.403 . S
H833 C839 0.930 . S
C834 H820 0.930 . S
C834 C832 1.395 . S
C834 C837 1.403 . S
C835 C832 1.403 . S
C835 C836 1.524 . S
C835 C839 1.400 . S
C836 H821 0.960 . S
C836 H822 0.960 . S
C836 H823 0.960 . S
C836 C835 1.524 . S
C837 C834 1.403 . S
C837 C838 1.392 . S
C837 C841 1.495 . S
C838 C837 1.392 . S
C838 C839 1.385 . S
C838 C840 1.478 . S
C839 H833 0.930 . S
C839 C835 1.400 . S
C839 C838 1.385 . S
C840 C838 1.478 . S
C840 C842 1.381 . S
C840 C846 1.383 . S
C841 C837 1.495 . S
C841 H847 0.959 . S
C841 H848 0.961 . S
C841 H849 0.960 . S
C842 C840 1.381 . S
C842 C843 1.394 . S
C842 H850 0.930 . S
C843 C842 1.394 . S
C843 C844 1.383 . S
C843 H851 0.929 . S
C844 C843 1.383 . S
C844 C845 1.377 . S
C845 H829 0.930 . S
C845 C844 1.377 . S
C845 C846 1.379 . S
C846 H830 0.931 . S
C846 C840 1.383 . S
C846 C845 1.379 . S
H847 C841 0.959 . S
H848 C841 0.961 . S
H849 C841 0.960 . S
H850 C842 0.930 . S
H851 C843 0.929 . S
H852 C860 0.929 . S
H853 C862 0.930 . S
H854 C864 0.930 . S
H855 C867 0.929 . S
H856 C870 0.930 . S
H857 C872 0.960 . S
H858 C872 0.960 . S
H859 C872 0.960 . S
C860 H852 0.929 . S
C860 C861 1.377 . S
C860 C862 1.384 . S
C861 C860 1.377 . S
C861 C867 1.390 . S
C862 H853 0.930 . S
C862 C860 1.384 . S
C862 C863 1.372 . S
C863 C862 1.372 . S
C863 C864 1.400 . S
C863 C868 1.490 . S
C864 H854 0.930 . S
C864 C863 1.400 . S
C864 C867 1.386 . S
H865 C881 0.930 . S
H866 C882 0.931 . S
C867 H855 0.929 . S
C867 C861 1.390 . S
C867 C864 1.386 . S
C868 C863 1.490 . S
C868 C870 1.395 . S
C868 C871 1.403 . S
H869 C875 0.930 . S
C870 H856 0.930 . S
C870 C868 1.395 . S
C870 C873 1.403 . S
C871 C868 1.403 . S
C871 C872 1.524 . S
C871 C875 1.400 . S
C872 H857 0.960 . S
C872 H858 0.960 . S
C872 H859 0.960 . S
C872 C871 1.524 . S
C873 C870 1.403 . S
C873 C874 1.392 . S
C873 C877 1.495 . S
C874 C873 1.392 . S
C874 C875 1.385 . S
C874 C876 1.478 . S
C875 H869 0.930 . S
C875 C871 1.400 . S
C875 C874 1.385 . S
C876 C874 1.478 . S
C876 C878 1.381 . S
C876 C882 1.383 . S
C877 C873 1.495 . S
C877 H883 0.959 . S
C877 H884 0.961 . S
C877 H885 0.960 . S
C878 C876 1.381 . S
C878 C879 1.394 . S
C878 H886 0.930 . S
C879 C878 1.394 . S
C879 C880 1.383 . S
C879 H887 0.929 . S
C880 C879 1.383 . S
C880 C881 1.377 . S
C881 H865 0.930 . S
C881 C880 1.377 . S
C881 C882 1.379 . S
C882 H866 0.931 . S
C882 C876 1.383 . S
C882 C881 1.379 . S
H883 C877 0.959 . S
H884 C877 0.961 . S
H885 C877 0.960 . S
H886 C878 0.930 . S
H887 C879 0.929 . S
H888 C896 0.929 . S
H889 C898 0.930 . S
H890 C900 0.930 . S
H891 C903 0.929 . S
H892 C906 0.930 . S
H893 C908 0.960 . S
H894 C908 0.960 . S
H895 C908 0.960 . S
C896 H888 0.929 . S
C896 C897 1.377 . S
C896 C898 1.384 . S
C897 C896 1.377 . S
C897 C903 1.390 . S
C898 H889 0.930 . S
C898 C896 1.384 . S
C898 C899 1.372 . S
C899 C898 1.372 . S
C899 C900 1.400 . S
C899 C904 1.490 . S
C900 H890 0.930 . S
C900 C899 1.400 . S
C900 C903 1.386 . S
H901 C917 0.930 . S
H902 C918 0.931 . S
C903 H891 0.929 . S
C903 C897 1.390 . S
C903 C900 1.386 . S
C904 C899 1.490 . S
C904 C906 1.395 . S
C904 C907 1.403 . S
H905 C911 0.930 . S
C906 H892 0.930 . S
C906 C904 1.395 . S
C906 C909 1.403 . S
C907 C904 1.403 . S
C907 C908 1.524 . S
C907 C911 1.400 . S
C908 H893 0.960 . S
C908 H894 0.960 . S
C908 H895 0.960 . S
C908 C907 1.524 . S
C909 C906 1.403 . S
C909 C910 1.392 . S
C909 C913 1.495 . S
C910 C909 1.392 . S
C910 C911 1.385 . S
C910 C912 1.478 . S
C911 H905 0.930 . S
C911 C907 1.400 . S
C911 C910 1.385 . S
C912 C910 1.478 . S
C912 C914 1.381 . S
C912 C918 1.383 . S
C913 C909 1.495 . S
C913 H919 0.959 . S
C913 H920 0.961 . S
C913 H921 0.960 . S
C914 C912 1.381 . S
C914 C915 1.394 . S
C914 H922 0.930 . S
C915 C914 1.394 . S
C915 C916 1.383 . S
C915 H923 0.929 . S
C916 C915 1.383 . S
C916 C917 1.377 . S
C917 H901 0.930 . S
C917 C916 1.377 . S
C917 C918 1.379 . S
C918 H902 0.931 . S
C918 C912 1.383 . S
C918 C917 1.379 . S
H919 C913 0.959 . S
H920 C913 0.961 . S
H921 C913 0.960 . S
H922 C914 0.930 . S
H923 C915 0.929 . S
H924 C932 0.929 . S
H925 C934 0.930 . S
H926 C936 0.930 . S
H927 C939 0.929 . S
H928 C942 0.930 . S
H929 C944 0.960 . S
H930 C944 0.960 . S
H931 C944 0.960 . S
C932 H924 0.929 . S
C932 C933 1.377 . S
C932 C934 1.384 . S
C933 C932 1.377 . S
C933 C939 1.390 . S
C934 H925 0.930 . S
C934 C932 1.384 . S
C934 C935 1.372 . S
C935 C934 1.372 . S
C935 C936 1.400 . S
C935 C940 1.490 . S
C936 H926 0.930 . S
C936 C935 1.400 . S
C936 C939 1.386 . S
H937 C953 0.930 . S
H938 C954 0.931 . S
C939 H927 0.929 . S
C939 C933 1.390 . S
C939 C936 1.386 . S
C940 C935 1.490 . S
C940 C942 1.395 . S
C940 C943 1.403 . S
H941 C947 0.930 . S
C942 H928 0.930 . S
C942 C940 1.395 . S
C942 C945 1.403 . S
C943 C940 1.403 . S
C943 C944 1.524 . S
C943 C947 1.400 . S
C944 H929 0.960 . S
C944 H930 0.960 . S
C944 H931 0.960 . S
C944 C943 1.524 . S
C945 C942 1.403 . S
C945 C946 1.392 . S
C945 C949 1.495 . S
C946 C945 1.392 . S
C946 C947 1.385 . S
C946 C948 1.478 . S
C947 H941 0.930 . S
C947 C943 1.400 . S
C947 C946 1.385 . S
C948 C946 1.478 . S
C948 C950 1.381 . S
C948 C954 1.383 . S
C949 C945 1.495 . S
C949 H955 0.959 . S
C949 H956 0.961 . S
C949 H957 0.960 . S
C950 C948 1.381 . S
C950 C951 1.394 . S
C950 H958 0.930 . S
C951 C950 1.394 . S
C951 C952 1.383 . S
C951 H959 0.929 . S
C952 C951 1.383 . S
C952 C953 1.377 . S
C953 H937 0.930 . S
C953 C952 1.377 . S
C953 C954 1.379 . S
C954 H938 0.931 . S
C954 C948 1.383 . S
C954 C953 1.379 . S
H955 C949 0.959 . S
H956 C949 0.961 . S
H957 C949 0.960 . S
H958 C950 0.930 . S
H959 C951 0.929 . S
H960 C968 0.929 . S
H961 C970 0.930 . S
H962 C972 0.930 . S
H963 C975 0.929 . S
H964 C978 0.930 . S
H965 C980 0.960 . S
H966 C980 0.960 . S
H967 C980 0.960 . S
C968 H960 0.929 . S
C968 C969 1.377 . S
C968 C970 1.384 . S
C969 C968 1.377 . S
C969 C975 1.390 . S
C970 H961 0.930 . S
C970 C968 1.384 . S
C970 C971 1.372 . S
C971 C970 1.372 . S
C971 C972 1.400 . S
C971 C976 1.490 . S
C972 H962 0.930 . S
C972 C971 1.400 . S
C972 C975 1.386 . S
H973 C989 0.930 . S
H974 C990 0.931 . S
C975 H963 0.929 . S
C975 C969 1.390 . S
C975 C972 1.386 . S
C976 C971 1.490 . S
C976 C978 1.395 . S
C976 C979 1.403 . S
H977 C983 0.930 . S
C978 H964 0.930 . S
C978 C976 1.395 . S
C978 C981 1.403 . S
C979 C976 1.403 . S
C979 C980 1.524 . S
C979 C983 1.400 . S
C980 H965 0.960 . S
C980 H966 0.960 . S
C980 H967 0.960 . S
C980 C979 1.524 . S
C981 C978 1.403 . S
C981 C982 1.392 . S
C981 C985 1.495 . S
C982 C981 1.392 . S
C982 C983 1.385 . S
C982 C984 1.478 . S
C983 H977 0.930 . S
C983 C979 1.400 . S
C983 C982 1.385 . S
C984 C982 1.478 . S
C984 C986 1.381 . S
C984 C990 1.383 . S
C985 C981 1.495 . S
C985 H991 0.959 . S
C985 H992 0.961 . S
C985 H993 0.960 . S
C986 C984 1.381 . S
C986 C987 1.394 . S
C986 H994 0.930 . S
C987 C986 1.394 . S
C987 C988 1.383 . S
C987 H995 0.929 1_556 S
C988 C987 1.383 . S
C988 C989 1.377 . S
C989 H973 0.930 . S
C989 C988 1.377 . S
C989 C990 1.379 . S
C990 H974 0.931 . S
C990 C984 1.383 . S
C990 C989 1.379 . S
H991 C985 0.959 . S
H992 C985 0.961 . S
H993 C985 0.960 . S
H994 C986 0.930 . S
H995 C987 0.929 1_554 S
H996 C1004 0.929 . S
H997 C1006 0.930 . S
H998 C1008 0.930 . S
H999 C1011 0.929 . S
H1000 C1014 0.930 . S
H1001 C1016 0.960 . S
H1002 C1016 0.960 . S
H1003 C1016 0.960 . S
C1004 H996 0.929 . S
C1004 C1005 1.377 . S
C1004 C1006 1.384 . S
C1005 C1004 1.377 . S
C1005 C1011 1.390 . S
C1006 H997 0.930 . S
C1006 C1004 1.384 . S
C1006 C1007 1.372 . S
C1007 C1006 1.372 . S
C1007 C1008 1.400 . S
C1007 C1012 1.490 . S
C1008 H998 0.930 . S
C1008 C1007 1.400 . S
C1008 C1011 1.386 . S
H1009 C1025 0.930 . S
H1010 C1026 0.931 . S
C1011 H999 0.929 . S
C1011 C1005 1.390 . S
C1011 C1008 1.386 . S
C1012 C1007 1.490 . S
C1012 C1014 1.395 . S
C1012 C1015 1.403 . S
H1013 C1019 0.930 . S
C1014 H1000 0.930 . S
C1014 C1012 1.395 . S
C1014 C1017 1.403 . S
C1015 C1012 1.403 . S
C1015 C1016 1.524 . S
C1015 C1019 1.400 . S
C1016 H1001 0.960 . S
C1016 H1002 0.960 . S
C1016 H1003 0.960 . S
C1016 C1015 1.524 . S
C1017 C1014 1.403 . S
C1017 C1018 1.392 . S
C1017 C1021 1.495 . S
C1018 C1017 1.392 . S
C1018 C1019 1.385 . S
C1018 C1020 1.478 . S
C1019 H1013 0.930 . S
C1019 C1015 1.400 . S
C1019 C1018 1.385 . S
C1020 C1018 1.478 . S
C1020 C1022 1.381 . S
C1020 C1026 1.383 . S
C1021 C1017 1.495 . S
C1021 H1027 0.959 . S
C1021 H1028 0.961 . S
C1021 H1029 0.960 . S
C1022 C1020 1.381 . S
C1022 C1023 1.394 . S
C1022 H1030 0.930 . S
C1023 C1022 1.394 . S
C1023 C1024 1.383 . S
C1023 H1031 0.929 1_554 S
C1024 C1023 1.383 . S
C1024 C1025 1.377 . S
C1025 H1009 0.930 . S
C1025 C1024 1.377 . S
C1025 C1026 1.379 . S
C1026 H1010 0.931 . S
C1026 C1020 1.383 . S
C1026 C1025 1.379 . S
H1027 C1021 0.959 . S
H1028 C1021 0.961 . S
H1029 C1021 0.960 . S
H1030 C1022 0.930 . S
H1031 C1023 0.929 1_556 S
C177 C123 1.301 . S
C196 C11 1.317 . S
C213 C25 1.305 . S
C232 C137 1.312 . S
C249 C39 1.305 . S
C268 C151 1.310 . S
C285 C53 1.299 . S
C304 C165 1.303 . S
C321 C95 1.304 . S
C340 C67 1.282 . S
C357 C81 1.305 . S
C376 C109 1.288 . S
C393 C12 1.304 . S
C412 C75 1.150 . S
C429 C26 1.307 . S
C448 C5 1.179 1_655 S
C465 C40 1.302 . S
C484 C19 1.183 1_565 S
C501 C33 1.197 . S
C520 C54 1.289 . S
C537 C47 1.206 1_455 S
C556 C68 1.302 . S
C573 C61 1.205 1_545 S
C592 C82 1.293 . S
C609 C103 1.188 . S
C628 C96 1.311 . S
C645 C110 1.304 . S
C664 C117 1.223 1_655 S
C681 C131 1.205 1_565 S
C700 C124 1.292 . S
C717 C138 1.304 . S
C736 C145 1.148 . S
C753 C152 1.303 . S
C772 C159 1.159 1_455 S
C789 C166 1.306 . S
C808 C89 1.160 1_545 S
C825 C144 1.174 . S
C844 C4 1.154 . S
C861 C158 1.174 . S
C880 C18 1.157 . S
C897 C88 1.179 . S
C916 C32 1.186 . S
C933 C46 1.183 . S
C952 C102 1.195 . S
C969 C60 1.183 . S
C988 C116 1.197 1_556 S
C1005 C130 1.183 . S
C1024 C74 1.197 1_554 S
