# Generated by pormake.
# Topology rob, (6)-cn, num edge types: 1
# Building blocks:
#     Node 0, Type 0, BuildingBlock: INOVEN_clean_sbu_0, # of connection points: 6
#     Node 1, Type 0, BuildingBlock: INOVEN_clean_sbu_0, # of connection points: 6
#     Node 2, Type 0, BuildingBlock: INOVEN_clean_sbu_0, # of connection points: 6
#     Node 3, Type 0, BuildingBlock: INOVEN_clean_sbu_0, # of connection points: 6
#     Edge 4, Type (0, 0), BuildingBlock: FUNLAD_clean_linker_0, # of connection points: 2
#     Edge 5, Type (0, 0), BuildingBlock: FUNLAD_clean_linker_0, # of connection points: 2
#     Edge 6, Type (0, 0), BuildingBlock: FUNLAD_clean_linker_0, # of connection points: 2
#     Edge 7, Type (0, 0), BuildingBlock: FUNLAD_clean_linker_0, # of connection points: 2
#     Edge 8, Type (0, 0), BuildingBlock: FUNLAD_clean_linker_0, # of connection points: 2
#     Edge 9, Type (0, 0), BuildingBlock: FUNLAD_clean_linker_0, # of connection points: 2
#     Edge 10, Type (0, 0), BuildingBlock: FUNLAD_clean_linker_0, # of connection points: 2
#     Edge 11, Type (0, 0), BuildingBlock: FUNLAD_clean_linker_0, # of connection points: 2
#     Edge 12, Type (0, 0), BuildingBlock: FUNLAD_clean_linker_0, # of connection points: 2
#     Edge 13, Type (0, 0), BuildingBlock: FUNLAD_clean_linker_0, # of connection points: 2
#     Edge 14, Type (0, 0), BuildingBlock: FUNLAD_clean_linker_0, # of connection points: 2
#     Edge 15, Type (0, 0), BuildingBlock: FUNLAD_clean_linker_0, # of connection points: 2
# Relax obj value: 0.100
# Max RMSD: 0.173
# Mean RMSD: 0.173
data_MOF--net-rob--node1-INOVEN_clean_sbu_0--edge1-FUNLAD_clean_linker_0
_symmetry_space_group_name_H-M    P1
_symmetry_Int_Tables_number       1
_symmetry_cell_setting            triclinic
loop_
_symmetry_equiv_pos_as_xyz
'x, y, z'
_cell_length_a     18.208388
_cell_length_b     28.303909
_cell_length_c     41.924763
_cell_angle_alpha  90.111961
_cell_angle_beta   122.26996
_cell_angle_gamma 89.988017
loop_
_atom_site_label
_atom_site_type_symbol
_atom_site_fract_x
_atom_site_fract_y
_atom_site_fract_z
_atom_type_partial_charge
Gd0 Gd 0.16861 0.28125 0.99275 0.0
Gd1 Gd 0.32801 0.247 0.99261 0.0
C2 C 0.34202 0.24472 0.07048 0.0
C3 C 0.04523 0.29263 0.00536 0.0
C4 C 0.03794 0.28697 0.03851 0.0
C5 C 0.98943 0.31963 0.045 0.0
C6 C 0.08301 0.251 0.06495 0.0
C7 C 0.03352 0.2815 0.10472 0.0
C8 C 0.08111 0.24838 0.09782 0.0
C9 C 0.98697 0.31687 0.07773 0.0
C10 C 0.27509 0.34971 -0.00416 0.0
C11 C 0.15096 0.28088 0.91446 0.0
C12 C 0.45024 0.23735 0.97895 0.0
C13 C 0.45732 0.24101 0.9454 0.0
C14 C 0.49553 0.20397 0.93694 0.0
C15 C 0.42568 0.2805 0.92139 0.0
C16 C 0.47097 0.24575 0.88118 0.0
C17 C 0.43272 0.2829 0.88972 0.0
C18 C 0.50208 0.20621 0.90517 0.0
C19 C 0.22137 0.1785 0.98921 0.0
O20 O 0.25666 0.24976 0.05046 0.0
O21 O 0.38928 0.24917 0.05527 0.0
O22 O 0.09574 0.32699 0.00759 0.0
O23 O 0.05505 0.25399 0.99078 0.0
O24 O 0.19112 0.35352 0.97708 0.0
O25 O 0.29886 0.31101 0.01335 0.0
O26 O 0.23641 0.27564 0.93386 0.0
O27 O 0.10555 0.27799 0.93052 0.0
O28 O 0.40451 0.20191 0.97921 0.0
O29 O 0.437 0.27649 0.99188 0.0
O30 O 0.30531 0.17425 0.00766 0.0
O31 O 0.19812 0.21739 0.972 0.0
H32 H 0.95464 0.34781 0.02505 0.0
H33 H 0.12037 0.22521 0.06038 0.0
H34 H 0.11676 0.22035 0.11778 0.0
H35 H 0.95045 0.34322 0.08236 0.0
H36 H 0.52045 0.17317 0.95499 0.0
H37 H 0.39518 0.30949 0.92696 0.0
H38 H 0.40719 0.31361 0.87163 0.0
H39 H 0.53276 0.17723 0.89971 0.0
Gd40 Gd 0.66291 0.78633 0.99218 0.0
Gd41 Gd 0.82805 0.74904 -0.00171 0.0
C42 C 0.83305 0.75787 0.07412 0.0
C43 C 0.53576 0.79904 0.00195 0.0
C44 C 0.52655 0.79193 0.03449 0.0
C45 C 0.48339 0.8259 0.04296 0.0
C46 C 0.56553 0.75316 0.05872 0.0
C47 C 0.5203 0.78324 0.10014 0.0
C48 C 0.56231 0.74883 0.09117 0.0
C49 C 0.48021 0.82163 0.07544 0.0
C50 C 0.7697 0.85295 0.99329 0.0
C51 C 0.65558 0.77857 0.91642 0.0
C52 C 0.95319 0.73593 0.98699 0.0
C53 C 0.96051 0.73708 0.95334 0.0
C54 C 0.98466 0.69597 0.94237 0.0
C55 C 0.94146 0.77812 0.93133 0.0
C56 C 0.96883 0.73635 0.88764 0.0
C57 C 0.94591 0.77777 0.89894 0.0
C58 C 0.98845 0.69553 0.90987 0.0
C59 C 0.72127 0.68236 -0.00287 0.0
O60 O 0.74775 0.7617 0.05215 0.0
O61 O 0.88367 0.75749 0.06034 0.0
O62 O 0.58881 0.83289 0.0058 0.0
O63 O 0.54422 0.76092 0.98641 0.0
O64 O 0.68558 0.85638 0.97331 0.0
O65 O 0.79303 0.81601 0.0131 0.0
O66 O 0.74079 0.77268 0.93765 0.0
O67 O 0.60638 0.77901 0.93072 0.0
O68 O 0.90701 0.70139 0.98819 0.0
O69 O 0.94004 0.77613 -0.00129 0.0
O70 O 0.8054 0.67895 0.01708 0.0
O71 O 0.69807 0.71931 0.97731 0.0
H72 H 0.45365 0.85629 0.02482 0.0
H73 H 0.59982 0.72656 0.05298 0.0
H74 H 0.59288 0.7185 0.10923 0.0
H75 H 0.4483 0.8491 0.08169 0.0
H76 H 0.99991 0.66391 0.95882 0.0
H77 H 0.92207 0.81038 0.93879 0.0
H78 H 0.9295 0.80968 0.88227 0.0
H79 H 0.00731 0.66319 0.90227 0.0
Gd80 Gd 0.34205 0.77501 0.49784 0.0
Gd81 Gd 0.1811 0.7389 0.49596 0.0
C82 C 0.17039 0.73958 0.41861 0.0
C83 C 0.4664 0.78844 0.48623 0.0
C84 C 0.47367 0.7868 0.45281 0.0
C85 C 0.51063 0.82518 0.44518 0.0
C86 C 0.44033 0.74864 0.42737 0.0
C87 C 0.47849 0.78815 0.38657 0.0
C88 C 0.44289 0.74929 0.39461 0.0
C89 C 0.51291 0.82593 0.41238 0.0
C90 C 0.23429 0.84223 0.49533 0.0
C91 C 0.35752 0.77037 0.57554 0.0
C92 C 0.05746 0.72883 0.50867 0.0
C93 C 0.05036 0.7342 0.54209 0.0
C94 C 0.00279 0.70107 0.54876 0.0
C95 C 0.09287 0.77107 0.56816 0.0
C96 C 0.04133 0.74103 0.60744 0.0
C97 C 0.08848 0.77442 0.60046 0.0
C98 C 0.99819 0.70443 0.58101 0.0
C99 C 0.28838 0.67147 0.49855 0.0
O100 O 0.25542 0.74603 0.43908 0.0
O101 O 0.12204 0.7416 0.43346 0.0
O102 O 0.41884 0.82273 0.48669 0.0
O103 O 0.45386 0.74827 0.49809 0.0
O104 O 0.31825 0.84628 0.51473 0.0
O105 O 0.21136 0.80401 0.47703 0.0
O106 O 0.27193 0.76568 0.55554 0.0
O107 O 0.40369 0.76877 0.55979 0.0
O108 O 0.10545 0.69373 0.50975 0.0
O109 O 0.06922 0.76747 0.49479 0.0
O110 O 0.20439 0.66695 0.47977 0.0
O111 O 0.31125 0.70989 0.5166 0.0
H112 H 0.53669 0.85497 0.46439 0.0
H113 H 0.41104 0.71865 0.43245 0.0
H114 H 0.41499 0.71989 0.37509 0.0
H115 H 0.54169 0.85611 0.40721 0.0
H116 H 0.96986 0.67219 0.52917 0.0
H117 H 0.13009 0.79717 0.56375 0.0
H118 H 0.12162 0.80344 0.61983 0.0
H119 H 0.96223 0.67771 0.58558 0.0
Gd120 Gd 0.84728 0.27696 0.49876 0.0
Gd121 Gd 0.67842 0.24171 0.49053 0.0
C122 C 0.67498 0.25465 0.41491 0.0
C123 C 0.97743 0.28637 0.49058 0.0
C124 C 0.98431 0.29221 0.45729 0.0
C125 C 0.92682 0.32179 0.42735 0.0
C126 C 0.04466 0.26526 0.45406 0.0
C127 C 0.98778 0.29592 0.39072 0.0
C128 C 0.04649 0.26709 0.42113 0.0
C129 C 0.92868 0.3237 0.39447 0.0
C130 C 0.74211 0.345 0.4972 0.0
C131 C 0.85105 0.26597 0.57356 0.0
C132 C 0.54941 0.23014 0.4995 0.0
C133 C 0.53736 0.23227 0.53175 0.0
C134 C 0.49007 0.19657 0.53613 0.0
C135 C 0.57403 0.26868 0.55875 0.0
C136 C 0.51579 0.23352 0.59399 0.0
C137 C 0.56328 0.26932 0.58947 0.0
C138 C 0.4795 0.19709 0.56686 0.0
C139 C 0.7838 0.17406 0.49175 0.0
O140 O 0.75997 0.26058 0.43687 0.0
O141 O 0.62458 0.25067 0.42867 0.0
O142 O 0.94406 0.32167 0.49894 0.0
O143 O 0.94846 0.24525 0.49332 0.0
O144 O 0.82633 0.3478 0.51748 0.0
O145 O 0.71818 0.30812 0.47722 0.0
O146 O 0.76525 0.26388 0.55178 0.0
O147 O 0.90072 0.26437 0.5595 0.0
O148 O 0.59669 0.19517 0.49976 0.0
O149 O 0.56533 0.27 0.48848 0.0
O150 O 0.69959 0.17156 0.47099 0.0
O151 O 0.80743 0.2106 0.51212 0.0
H152 H 0.87905 0.3427 0.42895 0.0
H153 H 0.08904 0.24188 0.47668 0.0
H154 H 0.09218 0.24481 0.41908 0.0
H155 H 0.88334 0.3468 0.37189 0.0
H156 H 0.46175 0.16794 0.51586 0.0
H157 H 0.61125 0.29663 0.55621 0.0
H158 H 0.59146 0.29822 0.60944 0.0
H159 H 0.44394 0.1684 0.56961 0.0
C160 C 0.69443 0.60747 0.02069 0.0
C161 C 0.66155 0.64614 -0.00401 0.0
C162 C 0.63857 0.57261 0.01948 0.0
C163 C 0.54838 0.57558 0.99329 0.0
C164 C 0.51565 0.61482 0.96909 0.0
C165 C 0.57162 0.64961 0.97025 0.0
C166 C 0.48623 0.53938 0.99094 0.0
C167 C 0.50854 0.49427 0.00262 0.0
C168 C 0.44662 0.4578 0.00021 0.0
C169 C 0.48008 0.41729 0.02293 0.0
C170 C 0.42457 0.38208 0.02161 0.0
C171 C 0.33428 0.38648 -0.00274 0.0
H172 H 0.32708 0.49132 0.95641 0.0
C173 C 0.30056 0.42651 0.97411 0.0
C174 C 0.35596 0.46172 0.9754 0.0
H175 H 0.23116 0.43053 0.95476 0.0
H176 H 0.76349 0.6042 0.04112 0.0
H177 H 0.66649 0.54398 0.03956 0.0
H178 H 0.44651 0.61831 0.94885 0.0
H179 H 0.54452 0.67898 0.95079 0.0
H180 H 0.41945 0.55064 0.9785 0.0
H181 H 0.5754 0.48316 0.0149 0.0
H182 H 0.54952 0.41302 0.04207 0.0
H183 H 0.45234 0.35158 0.0398 0.0
C184 C 0.31632 0.59616 0.47575 0.0
C185 C 0.34864 0.63573 0.49961 0.0
C186 C 0.37295 0.56199 0.47672 0.0
C187 C 0.46341 0.56651 0.50193 0.0
C188 C 0.49545 0.6066 0.52535 0.0
C189 C 0.43872 0.64077 0.52433 0.0
C190 C 0.52653 0.53109 0.5041 0.0
C191 C 0.5054 0.48604 0.49192 0.0
C192 C 0.56835 0.45074 0.49388 0.0
C193 C 0.53629 0.41191 0.46914 0.0
C194 C 0.59274 0.3777 0.47006 0.0
C195 C 0.68253 0.38124 0.49613 0.0
H196 H 0.68582 0.48245 0.54064 0.0
C197 C 0.71489 0.41965 0.52123 0.0
C198 C 0.65847 0.45403 0.52024 0.0
H199 H 0.78385 0.42297 0.54186 0.0
H200 H 0.24711 0.59172 0.45608 0.0
H201 H 0.34519 0.53272 0.45718 0.0
H202 H 0.56468 0.61133 0.5448 0.0
H203 H 0.4654 0.67097 0.54306 0.0
H204 H 0.59315 0.54287 0.51663 0.0
H205 H 0.43889 0.47413 0.47934 0.0
H206 H 0.46725 0.40824 0.44873 0.0
H207 H 0.56603 0.34857 0.45022 0.0
C208 C 0.19483 0.10273 0.01182 0.0
C209 C 0.16173 0.14245 0.9883 0.0
C210 C 0.13878 0.0684 0.01114 0.0
C211 C 0.04814 0.07292 0.98657 0.0
C212 C 0.01537 0.1131 0.96342 0.0
C213 C 0.07151 0.14741 0.96414 0.0
C214 C 0.98553 0.03749 0.98485 0.0
C215 C 0.00671 0.99244 -0.00314 0.0
C216 C 0.94393 0.95729 -0.00475 0.0
C217 C 0.97614 0.91845 0.01987 0.0
C218 C 0.91963 0.88457 0.01936 0.0
C219 C 0.82967 0.88852 -0.00613 0.0
H220 H 0.82612 0.98917 0.949 0.0
C221 C 0.79723 0.92684 0.96881 0.0
C222 C 0.85366 0.96082 0.96936 0.0
H223 H 0.72814 0.93044 0.94857 0.0
H224 H 0.2642 0.09834 0.03105 0.0
H225 H 0.16715 0.03903 0.03043 0.0
H226 H 0.94598 0.11781 0.94444 0.0
H227 H 0.04425 0.17768 0.94564 0.0
H228 H 0.91915 0.04933 0.97282 0.0
H229 H 0.07302 0.98046 0.00903 0.0
H230 H 0.0453 0.91455 0.03988 0.0
H231 H 0.9464 0.85544 0.03909 0.0
C232 C 0.81076 0.09863 0.46857 0.0
C233 C 0.84329 0.13732 0.49339 0.0
C234 C 0.86683 0.06356 0.4702 0.0
C235 C 0.9568 0.06639 0.49693 0.0
C236 C 0.9891 0.10553 0.52137 0.0
C237 C 0.93297 0.14048 0.5198 0.0
C238 C 0.01938 0.03026 0.49961 0.0
C239 C 0.99732 0.98526 0.48743 0.0
C240 C 0.06006 0.94907 0.49025 0.0
C241 C 0.0278 0.90907 0.46672 0.0
C242 C 0.08422 0.87424 0.46832 0.0
C243 C 0.17417 0.87851 0.49375 0.0
H244 H 0.17815 0.98197 0.53581 0.0
C245 C 0.20664 0.91797 0.51774 0.0
C246 C 0.15033 0.9528 0.51618 0.0
H247 H 0.27573 0.92186 0.53793 0.0
H248 H 0.7419 0.09557 0.44769 0.0
H249 H 0.83931 0.03495 0.44999 0.0
H250 H 0.05805 0.1089 0.54203 0.0
H251 H 0.95983 0.16988 0.53936 0.0
H252 H 0.08639 0.04152 0.5127 0.0
H253 H 0.93024 0.97409 0.47437 0.0
H254 H 0.95866 0.90495 0.44671 0.0
H255 H 0.05743 0.84418 0.44945 0.0
C256 C 0.55365 0.23733 0.34808 0.0
C257 C 0.63762 0.25443 0.37375 0.0
C258 C 0.52161 0.23639 0.30934 0.0
C259 C 0.5731 0.25288 0.29578 0.0
C260 C 0.65589 0.27091 0.32145 0.0
C261 C 0.68803 0.27133 0.3599 0.0
C262 C 0.54249 0.25363 0.25517 0.0
C263 C 0.48413 0.22295 0.22975 0.0
C264 C 0.45284 0.22529 0.18906 0.0
C265 C 0.36836 0.2098 0.1628 0.0
C266 C 0.33389 0.21468 0.12426 0.0
C267 C 0.38346 0.23476 0.11108 0.0
H268 H 0.57105 0.25365 0.19536 0.0
C269 C 0.46986 0.24769 0.13718 0.0
C270 C 0.50438 0.24305 0.17591 0.0
H271 H 0.50976 0.26283 0.12777 0.0
H272 H 0.51317 0.22433 0.3579 0.0
H273 H 0.45631 0.22352 0.29019 0.0
H274 H 0.69644 0.28432 0.31177 0.0
H275 H 0.75263 0.28525 0.37874 0.0
H276 H 0.57083 0.28019 0.24624 0.0
H277 H 0.45518 0.19655 0.23851 0.0
H278 H 0.32782 0.19527 0.1721 0.0
H279 H 0.26776 0.20326 0.10478 0.0
C280 C 0.44548 0.79213 0.13588 0.0
C281 C 0.51972 0.77959 0.13546 0.0
C282 C 0.44535 0.78921 0.16916 0.0
C283 C 0.51973 0.7738 0.2029 0.0
C284 C 0.59336 0.7606 0.20235 0.0
C285 C 0.59365 0.76372 0.16913 0.0
C286 C 0.522 0.76973 0.23881 0.0
C287 C 0.47303 0.79661 0.247 0.0
C288 C 0.47646 0.79343 0.2832 0.0
C289 C 0.45292 0.83311 0.29591 0.0
C290 C 0.45428 0.83149 0.32954 0.0
C291 C 0.4781 0.78984 0.35103 0.0
H292 H 0.51593 0.71981 0.29519 0.0
C293 C 0.50045 0.74983 0.33808 0.0
C294 C 0.49972 0.75156 0.30455 0.0
H295 H 0.51912 0.71724 0.35402 0.0
H296 H 0.3868 0.80353 0.11031 0.0
H297 H 0.3863 0.79819 0.16808 0.0
H298 H 0.65139 0.74838 0.22785 0.0
H299 H 0.65238 0.75432 0.17003 0.0
H300 H 0.56923 0.7456 0.25993 0.0
H301 H 0.43206 0.82396 0.22738 0.0
H302 H 0.43376 0.86564 0.27985 0.0
H303 H 0.43532 0.86268 0.33843 0.0
C304 C 0.66753 0.78971 0.86036 0.0
C305 C 0.61527 0.78553 0.87558 0.0
C306 C 0.62988 0.79557 0.82169 0.0
C307 C 0.53899 0.79685 0.79738 0.0
C308 C 0.48694 0.79407 0.81271 0.0
C309 C 0.52462 0.78832 0.85144 0.0
C310 C 0.49597 0.80036 0.75595 0.0
C311 C 0.53286 0.78505 0.73729 0.0
C312 C 0.48622 0.78382 0.69565 0.0
C313 C 0.53441 0.7846 0.67843 0.0
C314 C 0.49271 0.78102 0.63929 0.0
C315 C 0.402 0.77613 0.61673 0.0
H316 H 0.35612 0.7763 0.68524 0.0
C317 C 0.35387 0.77532 0.63402 0.0
C318 C 0.39542 0.77892 0.67303 0.0
H319 H 0.28405 0.77098 0.61755 0.0
H320 H 0.73771 0.78853 0.87828 0.0
H321 H 0.67244 0.79941 0.81121 0.0
H322 H 0.41676 0.79537 0.79457 0.0
H323 H 0.4826 0.78556 0.86233 0.0
H324 H 0.42995 0.81379 0.74036 0.0
H325 H 0.59898 0.77182 0.75268 0.0
H326 H 0.60454 0.78779 0.69532 0.0
H327 H 0.53169 0.78158 0.62682 0.0
C328 C 0.57153 0.24894 0.66279 0.0
C329 C 0.50418 0.23391 0.62677 0.0
C330 C 0.56096 0.24828 0.69358 0.0
C331 C 0.4826 0.23254 0.68914 0.0
C332 C 0.41558 0.21747 0.65325 0.0
C333 C 0.42586 0.21844 0.62246 0.0
C334 C 0.46954 0.22923 0.72135 0.0
C335 C 0.51215 0.25623 0.75275 0.0
C336 C 0.49834 0.25285 0.78476 0.0
C337 C 0.51651 0.29236 0.80821 0.0
C338 C 0.50644 0.2903 0.83906 0.0
C339 C 0.47923 0.24834 0.84765 0.0
H340 H 0.4584 0.17918 0.7766 0.0
C341 C 0.46163 0.20862 0.82437 0.0
C342 C 0.47094 0.21081 0.7933 0.0
H343 H 0.4403 0.17578 0.83009 0.0
H344 H 0.63342 0.26018 0.6675 0.0
H345 H 0.61519 0.25891 0.72094 0.0
H346 H 0.3546 0.20503 0.64891 0.0
H347 H 0.37191 0.20729 0.59517 0.0
H348 H 0.41972 0.20501 0.7181 0.0
H349 H 0.55607 0.28355 0.75453 0.0
H350 H 0.53855 0.32506 0.80263 0.0
H351 H 0.52171 0.32135 0.85667 0.0
C352 C 0.95576 0.74059 0.14061 0.0
C353 C 0.86988 0.75505 0.11517 0.0
C354 C 0.98771 0.73765 0.17927 0.0
C355 C 0.93412 0.74933 0.19299 0.0
C356 C 0.84908 0.76449 0.16753 0.0
C357 C 0.8172 0.76709 0.12916 0.0
C358 C 0.96473 0.74838 0.23362 0.0
C359 C 0.02935 0.72053 0.25905 0.0
C360 C 0.06124 0.72209 0.29982 0.0
C361 C 0.14885 0.71202 0.32587 0.0
C362 C 0.18325 0.71654 0.36443 0.0
C363 C 0.13048 0.73068 0.37789 0.0
H364 H 0.93847 0.74037 0.29394 0.0
C365 C 0.04161 0.73828 0.35198 0.0
C366 C 0.00717 0.73406 0.31322 0.0
H367 H 0.99926 0.74874 0.36155 0.0
H368 H 0.99798 0.73141 0.13068 0.0
H369 H 0.0546 0.72718 0.19823 0.0
H370 H 0.80677 0.77422 0.17733 0.0
H371 H 0.75108 0.7791 0.11053 0.0
H372 H 0.93165 0.77156 0.24266 0.0
H373 H 0.06322 0.69755 0.25029 0.0
H374 H 0.19159 0.70208 0.31635 0.0
H375 H 0.25173 0.70953 0.38368 0.0
C376 C 0.06415 0.29443 0.35525 0.0
C377 C 0.98646 0.2961 0.35487 0.0
C378 C 0.06254 0.29428 0.32149 0.0
C379 C 0.98297 0.29559 0.28649 0.0
C380 C 0.90556 0.29777 0.28617 0.0
C381 C 0.90715 0.29773 0.31987 0.0
C382 C 0.97776 0.29642 0.2498 0.0
C383 C 0.03966 0.27852 0.24481 0.0
C384 C 0.03514 0.27915 0.20819 0.0
C385 C 0.11155 0.27067 0.20848 0.0
C386 C 0.11098 0.27106 0.17499 0.0
C387 C 0.03372 0.27983 0.14025 0.0
H388 H 0.89617 0.29213 0.17119 0.0
C389 C 0.9569 0.2876 0.13977 0.0
C390 C 0.95735 0.28704 0.17323 0.0
H391 H 0.89596 0.29353 0.11337 0.0
H392 H 0.12644 0.29408 0.3817 0.0
H393 H 0.12384 0.29421 0.3231 0.0
H394 H 0.84335 0.29902 0.25968 0.0
H395 H 0.84597 0.29837 0.31841 0.0
H396 H 0.91957 0.3118 0.22616 0.0
H397 H 0.09722 0.26282 0.26866 0.0
H398 H 0.17237 0.2642 0.23482 0.0
H399 H 0.1715 0.26533 0.17642 0.0
C400 C 0.84059 0.27146 0.6305 0.0
C401 C 0.89195 0.27012 0.61472 0.0
C402 C 0.87918 0.27517 0.66944 0.0
C403 C 0.97011 0.27791 0.69337 0.0
C404 C 0.02129 0.27618 0.67758 0.0
C405 C 0.98271 0.27253 0.63865 0.0
C406 C 0.01439 0.28037 0.73492 0.0
C407 C 0.97653 0.29645 0.75298 0.0
C408 C 0.02186 0.29624 0.79461 0.0
C409 C 0.9732 0.29037 0.81133 0.0
C410 C 0.01479 0.28643 0.85045 0.0
C411 C 0.10582 0.28862 0.87346 0.0
H412 H 0.152 0.30756 0.80605 0.0
C413 C 0.15411 0.29685 0.85679 0.0
C414 C 0.11261 0.3009 0.81781 0.0
H415 H 0.22423 0.29972 0.87378 0.0
H416 H 0.77048 0.26922 0.61286 0.0
H417 H 0.83743 0.27473 0.6805 0.0
H418 H 0.0915 0.27778 0.69544 0.0
H419 H 0.02418 0.27145 0.62741 0.0
H420 H 0.08118 0.26813 0.75111 0.0
H421 H 0.9095 0.30825 0.73717 0.0
H422 H 0.90309 0.28734 0.79402 0.0
H423 H 0.97575 0.2805 0.86251 0.0
C424 C 0.96086 0.73344 0.64108 0.0
C425 C 0.03782 0.74408 0.64225 0.0
C426 C 0.95772 0.73605 0.67373 0.0
C427 C 0.03178 0.74919 0.70858 0.0
C428 C 0.10826 0.76034 0.70964 0.0
C429 C 0.11147 0.75764 0.67703 0.0
C430 C 0.03131 0.7531 0.74408 0.0
C431 C 0.97503 0.72973 0.75008 0.0
C432 C 0.97566 0.73255 0.78586 0.0
C433 C 0.93761 0.69565 0.79455 0.0
C434 C 0.9358 0.69683 0.82751 0.0
C435 C 0.97102 0.73535 0.85253 0.0
H436 H 0.03819 0.8012 0.80471 0.0
C437 C 0.00789 0.77275 0.84361 0.0
C438 C 0.01035 0.77139 0.81073 0.0
H439 H 0.03569 0.80293 0.86228 0.0
H440 H 0.90231 0.72385 0.61471 0.0
H441 H 0.89659 0.72866 0.67125 0.0
H442 H 0.16628 0.77079 0.73594 0.0
H443 H 0.17222 0.76557 0.67925 0.0
H444 H 0.08237 0.7742 0.76673 0.0
H445 H 0.92894 0.70537 0.72869 0.0
H446 H 0.90941 0.66553 0.77581 0.0
H447 H 0.9056 0.66778 0.83312 0.0
loop_
_geom_bond_atom_site_label_1
_geom_bond_atom_site_label_2
_geom_bond_distance
_geom_bond_site_symmetry_2
_ccdc_geom_bond_type
Gd0 C3 2.810 1_556 S
Gd0 O20 2.373 1_556 S
Gd0 O22 2.441 1_556 S
Gd0 O23 2.498 1_556 S
Gd0 O24 2.437 1_556 S
Gd0 O25 2.722 . S
Gd0 O27 2.404 . S
Gd0 O31 2.329 1_556 S
Gd1 C12 2.802 1_554 S
Gd1 O21 2.412 . S
Gd1 O25 2.330 1_554 S
Gd1 O26 2.368 1_554 S
Gd1 O28 2.434 1_554 S
Gd1 O29 2.490 1_554 S
Gd1 O30 2.439 1_554 S
Gd1 O31 2.727 . S
C2 O20 1.240 . S
C2 O21 1.240 . S
C3 Gd0 2.810 1_554 S
C3 C4 1.510 . S
C3 O22 1.249 . S
C3 O23 1.252 . S
C4 C3 1.510 . S
C4 C5 1.404 . S
C4 C6 1.352 . S
C5 C4 1.404 . S
C5 C9 1.389 . S
C5 H32 0.930 . S
C6 C4 1.352 . S
C6 C8 1.374 . S
C6 H33 0.931 . S
C7 C8 1.359 . S
C7 C9 1.364 . S
C8 C6 1.374 . S
C8 C7 1.359 . S
C8 H34 0.931 . S
C9 C5 1.389 . S
C9 C7 1.364 . S
C9 H35 0.931 . S
C10 O24 1.256 . S
C10 O25 1.257 1_554 S
C11 O26 1.240 . S
C11 O27 1.240 . S
C12 Gd1 2.802 1_556 S
C12 C13 1.510 . S
C12 O28 1.249 . S
C12 O29 1.252 . S
C13 C12 1.510 . S
C13 C14 1.404 . S
C13 C15 1.352 . S
C14 C13 1.404 . S
C14 C18 1.389 . S
C14 H36 0.930 . S
C15 C13 1.352 . S
C15 C17 1.374 . S
C15 H37 0.931 . S
C16 C17 1.359 . S
C16 C18 1.364 . S
C17 C15 1.374 . S
C17 C16 1.359 . S
C17 H38 0.931 . S
C18 C14 1.389 . S
C18 C16 1.364 . S
C18 H39 0.931 . S
C19 O30 1.256 . S
C19 O31 1.257 1_556 S
O20 Gd0 2.373 1_554 S
O20 C2 1.240 . S
O21 Gd1 2.412 . S
O21 C2 1.240 . S
O22 Gd0 2.441 1_554 S
O22 C3 1.249 . S
O23 Gd0 2.498 1_554 S
O23 C3 1.252 . S
O24 Gd0 2.437 1_554 S
O24 C10 1.256 . S
O25 Gd0 2.722 . S
O25 Gd1 2.330 1_556 S
O25 C10 1.257 1_556 S
O26 Gd1 2.368 1_556 S
O26 C11 1.240 . S
O27 Gd0 2.404 . S
O27 C11 1.240 . S
O28 Gd1 2.434 1_556 S
O28 C12 1.249 . S
O29 Gd1 2.490 1_556 S
O29 C12 1.252 . S
O30 Gd1 2.439 1_556 S
O30 C19 1.256 . S
O31 Gd0 2.329 1_554 S
O31 Gd1 2.727 . S
O31 C19 1.257 1_554 S
H32 C5 0.930 . S
H33 C6 0.931 . S
H34 C8 0.931 . S
H35 C9 0.931 . S
H36 C14 0.930 . S
H37 C15 0.931 . S
H38 C17 0.931 . S
H39 C18 0.931 . S
Gd40 C43 2.810 1_556 S
Gd40 O60 2.373 1_556 S
Gd40 O62 2.441 1_556 S
Gd40 O63 2.498 1_556 S
Gd40 O64 2.437 1_556 S
Gd40 O65 2.722 . S
Gd40 O67 2.404 . S
Gd40 O71 2.329 1_556 S
Gd41 C52 2.802 1_554 S
Gd41 O61 2.412 . S
Gd41 O65 2.330 1_554 S
Gd41 O66 2.368 1_554 S
Gd41 O68 2.434 1_554 S
Gd41 O69 2.490 1_554 S
Gd41 O70 2.439 1_554 S
Gd41 O71 2.727 . S
C42 O60 1.240 . S
C42 O61 1.240 . S
C43 Gd40 2.810 1_554 S
C43 C44 1.510 . S
C43 O62 1.249 . S
C43 O63 1.252 . S
C44 C43 1.510 . S
C44 C45 1.404 . S
C44 C46 1.352 . S
C45 C44 1.404 . S
C45 C49 1.389 . S
C45 H72 0.930 . S
C46 C44 1.352 . S
C46 C48 1.374 . S
C46 H73 0.931 . S
C47 C48 1.359 . S
C47 C49 1.364 . S
C48 C46 1.374 . S
C48 C47 1.359 . S
C48 H74 0.931 . S
C49 C45 1.389 . S
C49 C47 1.364 . S
C49 H75 0.931 . S
C50 O64 1.256 . S
C50 O65 1.257 1_554 S
C51 O66 1.240 . S
C51 O67 1.240 . S
C52 Gd41 2.802 1_556 S
C52 C53 1.510 . S
C52 O68 1.249 . S
C52 O69 1.252 . S
C53 C52 1.510 . S
C53 C54 1.404 . S
C53 C55 1.352 . S
C54 C53 1.404 . S
C54 C58 1.389 . S
C54 H76 0.930 . S
C55 C53 1.352 . S
C55 C57 1.374 . S
C55 H77 0.931 . S
C56 C57 1.359 . S
C56 C58 1.364 . S
C57 C55 1.374 . S
C57 C56 1.359 . S
C57 H78 0.931 . S
C58 C54 1.389 . S
C58 C56 1.364 . S
C58 H79 0.931 . S
C59 O70 1.256 . S
C59 O71 1.257 1_556 S
O60 Gd40 2.373 1_554 S
O60 C42 1.240 . S
O61 Gd41 2.412 . S
O61 C42 1.240 . S
O62 Gd40 2.441 1_554 S
O62 C43 1.249 . S
O63 Gd40 2.498 1_554 S
O63 C43 1.252 . S
O64 Gd40 2.437 1_554 S
O64 C50 1.256 . S
O65 Gd40 2.722 . S
O65 Gd41 2.330 1_556 S
O65 C50 1.257 1_556 S
O66 Gd41 2.368 1_556 S
O66 C51 1.240 . S
O67 Gd40 2.404 . S
O67 C51 1.240 . S
O68 Gd41 2.434 1_556 S
O68 C52 1.249 . S
O69 Gd41 2.490 1_556 S
O69 C52 1.252 . S
O70 Gd41 2.439 1_556 S
O70 C59 1.256 . S
O71 Gd40 2.329 1_554 S
O71 Gd41 2.727 . S
O71 C59 1.257 1_554 S
H72 C45 0.930 . S
H73 C46 0.931 . S
H74 C48 0.931 . S
H75 C49 0.931 . S
H76 C54 0.930 . S
H77 C55 0.931 . S
H78 C57 0.931 . S
H79 C58 0.931 . S
Gd80 C83 2.818 . S
Gd80 O100 2.377 . S
Gd80 O102 2.448 . S
Gd80 O103 2.506 . S
Gd80 O104 2.435 . S
Gd80 O105 2.717 . S
Gd80 O107 2.395 . S
Gd80 O111 2.327 . S
Gd81 C92 2.818 . S
Gd81 O101 2.395 . S
Gd81 O105 2.327 . S
Gd81 O106 2.377 . S
Gd81 O108 2.448 . S
Gd81 O109 2.506 . S
Gd81 O110 2.435 . S
Gd81 O111 2.717 . S
C82 O100 1.240 . S
C82 O101 1.240 . S
C83 Gd80 2.818 . S
C83 C84 1.510 . S
C83 O102 1.249 . S
C83 O103 1.252 . S
C84 C83 1.510 . S
C84 C85 1.404 . S
C84 C86 1.352 . S
C85 C84 1.404 . S
C85 C89 1.389 . S
C85 H112 0.930 . S
C86 C84 1.352 . S
C86 C88 1.374 . S
C86 H113 0.931 . S
C87 C88 1.359 . S
C87 C89 1.364 . S
C88 C86 1.374 . S
C88 C87 1.359 . S
C88 H114 0.931 . S
C89 C85 1.389 . S
C89 C87 1.364 . S
C89 H115 0.931 . S
C90 O104 1.256 . S
C90 O105 1.257 . S
C91 O106 1.240 . S
C91 O107 1.240 . S
C92 Gd81 2.818 . S
C92 C93 1.510 . S
C92 O108 1.249 . S
C92 O109 1.252 . S
C93 C92 1.510 . S
C93 C94 1.404 . S
C93 C95 1.352 . S
C94 C93 1.404 . S
C94 C98 1.389 . S
C94 H116 0.930 . S
C95 C93 1.352 . S
C95 C97 1.374 . S
C95 H117 0.931 . S
C96 C97 1.359 . S
C96 C98 1.364 . S
C97 C95 1.374 . S
C97 C96 1.359 . S
C97 H118 0.931 . S
C98 C94 1.389 . S
C98 C96 1.364 . S
C98 H119 0.931 . S
C99 O110 1.256 . S
C99 O111 1.257 . S
O100 Gd80 2.377 . S
O100 C82 1.240 . S
O101 Gd81 2.395 . S
O101 C82 1.240 . S
O102 Gd80 2.448 . S
O102 C83 1.249 . S
O103 Gd80 2.506 . S
O103 C83 1.252 . S
O104 Gd80 2.435 . S
O104 C90 1.256 . S
O105 Gd80 2.717 . S
O105 Gd81 2.327 . S
O105 C90 1.257 . S
O106 Gd81 2.377 . S
O106 C91 1.240 . S
O107 Gd80 2.395 . S
O107 C91 1.240 . S
O108 Gd81 2.448 . S
O108 C92 1.249 . S
O109 Gd81 2.506 . S
O109 C92 1.252 . S
O110 Gd81 2.435 . S
O110 C99 1.256 . S
O111 Gd80 2.327 . S
O111 Gd81 2.717 . S
O111 C99 1.257 . S
H112 C85 0.930 . S
H113 C86 0.931 . S
H114 C88 0.931 . S
H115 C89 0.931 . S
H116 C94 0.930 . S
H117 C95 0.931 . S
H118 C97 0.931 . S
H119 C98 0.931 . S
Gd120 C123 2.818 . S
Gd120 O140 2.377 . S
Gd120 O142 2.448 . S
Gd120 O143 2.506 . S
Gd120 O144 2.435 . S
Gd120 O145 2.717 . S
Gd120 O147 2.395 . S
Gd120 O151 2.327 . S
Gd121 C132 2.818 . S
Gd121 O141 2.395 . S
Gd121 O145 2.327 . S
Gd121 O146 2.377 . S
Gd121 O148 2.448 . S
Gd121 O149 2.506 . S
Gd121 O150 2.435 . S
Gd121 O151 2.717 . S
C122 O140 1.240 . S
C122 O141 1.240 . S
C123 Gd120 2.818 . S
C123 C124 1.510 . S
C123 O142 1.249 . S
C123 O143 1.252 . S
C124 C123 1.510 . S
C124 C125 1.404 . S
C124 C126 1.352 . S
C125 C124 1.404 . S
C125 C129 1.389 . S
C125 H152 0.930 . S
C126 C124 1.352 . S
C126 C128 1.374 . S
C126 H153 0.931 . S
C127 C128 1.359 . S
C127 C129 1.364 . S
C128 C126 1.374 . S
C128 C127 1.359 . S
C128 H154 0.931 . S
C129 C125 1.389 . S
C129 C127 1.364 . S
C129 H155 0.931 . S
C130 O144 1.256 . S
C130 O145 1.257 . S
C131 O146 1.240 . S
C131 O147 1.240 . S
C132 Gd121 2.818 . S
C132 C133 1.510 . S
C132 O148 1.249 . S
C132 O149 1.252 . S
C133 C132 1.510 . S
C133 C134 1.404 . S
C133 C135 1.352 . S
C134 C133 1.404 . S
C134 C138 1.389 . S
C134 H156 0.930 . S
C135 C133 1.352 . S
C135 C137 1.374 . S
C135 H157 0.931 . S
C136 C137 1.359 . S
C136 C138 1.364 . S
C137 C135 1.374 . S
C137 C136 1.359 . S
C137 H158 0.931 . S
C138 C134 1.389 . S
C138 C136 1.364 . S
C138 H159 0.931 . S
C139 O150 1.256 . S
C139 O151 1.257 . S
O140 Gd120 2.377 . S
O140 C122 1.240 . S
O141 Gd121 2.395 . S
O141 C122 1.240 . S
O142 Gd120 2.448 . S
O142 C123 1.249 . S
O143 Gd120 2.506 . S
O143 C123 1.252 . S
O144 Gd120 2.435 . S
O144 C130 1.256 . S
O145 Gd120 2.717 . S
O145 Gd121 2.327 . S
O145 C130 1.257 . S
O146 Gd121 2.377 . S
O146 C131 1.240 . S
O147 Gd120 2.395 . S
O147 C131 1.240 . S
O148 Gd121 2.448 . S
O148 C132 1.249 . S
O149 Gd121 2.506 . S
O149 C132 1.252 . S
O150 Gd121 2.435 . S
O150 C139 1.256 . S
O151 Gd120 2.327 . S
O151 Gd121 2.717 . S
O151 C139 1.257 . S
H152 C125 0.930 . S
H153 C126 0.931 . S
H154 C128 0.931 . S
H155 C129 0.931 . S
H156 C134 0.930 . S
H157 C135 0.931 . S
H158 C137 0.931 . S
H159 C138 0.931 . S
C160 C161 1.385 . S
C160 C162 1.383 . S
C160 H176 0.951 . S
C161 C160 1.385 . S
C161 C165 1.386 1_556 S
C162 C160 1.383 . S
C162 C163 1.402 1_556 S
C162 H177 0.951 . S
C163 C162 1.402 1_554 S
C163 C164 1.375 . S
C163 C166 1.481 . S
C164 C163 1.375 . S
C164 C165 1.367 . S
C164 H178 0.951 . S
C165 C161 1.386 1_554 S
C165 C164 1.367 . S
C165 H179 0.950 . S
C166 C163 1.481 . S
C166 C167 1.297 . S
C166 H180 0.950 . S
C167 C166 1.297 . S
C167 C168 1.479 . S
C167 H181 0.950 . S
C168 C167 1.479 . S
C168 C169 1.367 1_554 S
C168 C174 1.404 . S
C169 C168 1.367 1_556 S
C169 C170 1.363 . S
C169 H182 0.965 . S
C170 C169 1.363 . S
C170 C171 1.392 1_556 S
C170 H183 0.951 . S
C171 C170 1.392 1_554 S
C171 C173 1.384 . S
H172 C174 0.949 . S
C173 C171 1.384 . S
C173 C174 1.385 . S
C173 H175 0.950 . S
C174 C168 1.404 . S
C174 H172 0.949 . S
C174 C173 1.385 . S
H175 C173 0.950 . S
H176 C160 0.951 . S
H177 C162 0.951 . S
H178 C164 0.951 . S
H179 C165 0.950 . S
H180 C166 0.950 . S
H181 C167 0.950 . S
H182 C169 0.965 . S
H183 C170 0.951 . S
C184 C185 1.386 . S
C184 C186 1.383 . S
C184 H200 0.951 . S
C185 C184 1.386 . S
C185 C189 1.383 . S
C186 C184 1.383 . S
C186 C187 1.402 . S
C186 H201 0.951 . S
C187 C186 1.402 . S
C187 C188 1.375 . S
C187 C190 1.481 . S
C188 C187 1.375 . S
C188 C189 1.367 . S
C188 H202 0.951 . S
C189 C185 1.383 . S
C189 C188 1.367 . S
C189 H203 0.950 . S
C190 C187 1.481 . S
C190 C191 1.297 . S
C190 H204 0.950 . S
C191 C190 1.297 . S
C191 C192 1.479 . S
C191 H205 0.950 . S
C192 C191 1.479 . S
C192 C193 1.375 . S
C192 C198 1.404 . S
C193 C192 1.375 . S
C193 C194 1.369 . S
C193 H206 0.950 . S
C194 C193 1.369 . S
C194 C195 1.392 . S
C194 H207 0.951 . S
C195 C194 1.392 . S
C195 C197 1.384 . S
H196 C198 0.949 . S
C197 C195 1.384 . S
C197 C198 1.385 . S
C197 H199 0.950 . S
C198 C192 1.404 . S
C198 H196 0.949 . S
C198 C197 1.385 . S
H199 C197 0.950 . S
H200 C184 0.951 . S
H201 C186 0.951 . S
H202 C188 0.951 . S
H203 C189 0.950 . S
H204 C190 0.950 . S
H205 C191 0.950 . S
H206 C193 0.950 . S
H207 C194 0.951 . S
C208 C209 1.383 1_556 S
C208 C210 1.383 . S
C208 H224 0.951 . S
C209 C208 1.383 1_554 S
C209 C213 1.388 . S
C210 C208 1.383 . S
C210 C211 1.402 1_556 S
C210 H225 0.951 . S
C211 C210 1.402 1_554 S
C211 C212 1.375 . S
C211 C214 1.481 . S
C212 C211 1.375 . S
C212 C213 1.367 . S
C212 H226 0.951 . S
C213 C209 1.388 . S
C213 C212 1.367 . S
C213 H227 0.950 . S
C214 C211 1.481 . S
C214 C215 1.297 1_545 S
C214 H228 0.950 . S
C215 C214 1.297 1_565 S
C215 C216 1.479 1_455 S
C215 H229 0.949 . S
C216 C215 1.479 1_655 S
C216 C217 1.375 1_554 S
C216 C222 1.404 . S
C217 C216 1.375 1_556 S
C217 C218 1.369 . S
C217 H230 0.950 . S
C218 C217 1.369 . S
C218 C219 1.392 1_556 S
C218 H231 0.951 . S
C219 C218 1.392 1_554 S
C219 C221 1.384 . S
H220 C222 0.949 . S
C221 C219 1.384 . S
C221 C222 1.385 . S
C221 H223 0.950 . S
C222 C216 1.404 . S
C222 H220 0.949 . S
C222 C221 1.385 . S
H223 C221 0.950 . S
H224 C208 0.951 . S
H225 C210 0.951 . S
H226 C212 0.951 . S
H227 C213 0.950 . S
H228 C214 0.950 . S
H229 C215 0.949 . S
H230 C217 0.950 . S
H231 C218 0.951 . S
C232 C233 1.386 . S
C232 C234 1.383 . S
C232 H248 0.951 . S
C233 C232 1.386 . S
C233 C237 1.383 . S
C234 C232 1.383 . S
C234 C235 1.402 . S
C234 H249 0.951 . S
C235 C234 1.402 . S
C235 C236 1.375 . S
C235 C238 1.481 1_655 S
C236 C235 1.375 . S
C236 C237 1.367 . S
C236 H250 0.951 . S
C237 C233 1.383 . S
C237 C236 1.367 . S
C237 H251 0.950 . S
C238 C235 1.481 1_455 S
C238 C239 1.297 . S
C238 H252 0.950 1_545 S
C239 C238 1.297 . S
C239 C240 1.479 1_545 S
C239 H253 0.950 . S
C240 C239 1.479 1_565 S
C240 C241 1.375 . S
C240 C246 1.404 . S
C241 C240 1.375 . S
C241 C242 1.369 . S
C241 H254 0.950 . S
C242 C241 1.369 . S
C242 C243 1.392 . S
C242 H255 0.951 . S
C243 C242 1.392 . S
C243 C245 1.384 . S
H244 C246 0.949 . S
C245 C243 1.384 . S
C245 C246 1.385 . S
C245 H247 0.950 . S
C246 C240 1.404 . S
C246 H244 0.949 . S
C246 C245 1.385 . S
H247 C245 0.950 . S
H248 C232 0.951 . S
H249 C234 0.951 . S
H250 C236 0.951 . S
H251 C237 0.950 . S
H252 C238 0.950 1_565 S
H253 C239 0.950 . S
H254 C241 0.950 . S
H255 C242 0.951 . S
C256 C257 1.386 . S
C256 C258 1.383 . S
C256 H272 0.951 . S
C257 C256 1.386 . S
C257 C261 1.383 . S
C258 C256 1.383 . S
C258 C259 1.402 . S
C258 H273 0.951 . S
C259 C258 1.402 . S
C259 C260 1.375 . S
C259 C262 1.481 . S
C260 C259 1.375 . S
C260 C261 1.367 . S
C260 H274 0.951 . S
C261 C257 1.383 . S
C261 C260 1.367 . S
C261 H275 0.950 . S
C262 C259 1.481 . S
C262 C263 1.297 . S
C262 H276 0.950 . S
C263 C262 1.297 . S
C263 C264 1.479 . S
C263 H277 0.950 . S
C264 C263 1.479 . S
C264 C265 1.375 . S
C264 C270 1.404 . S
C265 C264 1.375 . S
C265 C266 1.369 . S
C265 H278 0.950 . S
C266 C265 1.369 . S
C266 C267 1.392 . S
C266 H279 0.951 . S
C267 C266 1.392 . S
C267 C269 1.384 . S
H268 C270 0.949 . S
C269 C267 1.384 . S
C269 C270 1.385 . S
C269 H271 0.950 . S
C270 C264 1.404 . S
C270 H268 0.949 . S
C270 C269 1.385 . S
H271 C269 0.950 . S
H272 C256 0.951 . S
H273 C258 0.951 . S
H274 C260 0.951 . S
H275 C261 0.950 . S
H276 C262 0.950 . S
H277 C263 0.950 . S
H278 C265 0.950 . S
H279 C266 0.951 . S
C280 C281 1.386 . S
C280 C282 1.383 . S
C280 H296 0.951 . S
C281 C280 1.386 . S
C281 C285 1.383 . S
C282 C280 1.383 . S
C282 C283 1.402 . S
C282 H297 0.951 . S
C283 C282 1.402 . S
C283 C284 1.375 . S
C283 C286 1.481 . S
C284 C283 1.375 . S
C284 C285 1.367 . S
C284 H298 0.951 . S
C285 C281 1.383 . S
C285 C284 1.367 . S
C285 H299 0.950 . S
C286 C283 1.481 . S
C286 C287 1.297 . S
C286 H300 0.950 . S
C287 C286 1.297 . S
C287 C288 1.479 . S
C287 H301 0.950 . S
C288 C287 1.479 . S
C288 C289 1.375 . S
C288 C294 1.404 . S
C289 C288 1.375 . S
C289 C290 1.369 . S
C289 H302 0.950 . S
C290 C289 1.369 . S
C290 C291 1.392 . S
C290 H303 0.951 . S
C291 C290 1.392 . S
C291 C293 1.384 . S
H292 C294 0.949 . S
C293 C291 1.384 . S
C293 C294 1.385 . S
C293 H295 0.950 . S
C294 C288 1.404 . S
C294 H292 0.949 . S
C294 C293 1.385 . S
H295 C293 0.950 . S
H296 C280 0.951 . S
H297 C282 0.951 . S
H298 C284 0.951 . S
H299 C285 0.950 . S
H300 C286 0.950 . S
H301 C287 0.950 . S
H302 C289 0.950 . S
H303 C290 0.951 . S
C304 C305 1.386 . S
C304 C306 1.383 . S
C304 H320 0.951 . S
C305 C304 1.386 . S
C305 C309 1.383 . S
C306 C304 1.383 . S
C306 C307 1.402 . S
C306 H321 0.951 . S
C307 C306 1.402 . S
C307 C308 1.375 . S
C307 C310 1.481 . S
C308 C307 1.375 . S
C308 C309 1.367 . S
C308 H322 0.951 . S
C309 C305 1.383 . S
C309 C308 1.367 . S
C309 H323 0.950 . S
C310 C307 1.481 . S
C310 C311 1.297 . S
C310 H324 0.950 . S
C311 C310 1.297 . S
C311 C312 1.479 . S
C311 H325 0.950 . S
C312 C311 1.479 . S
C312 C313 1.375 . S
C312 C318 1.404 . S
C313 C312 1.375 . S
C313 C314 1.369 . S
C313 H326 0.950 . S
C314 C313 1.369 . S
C314 C315 1.392 . S
C314 H327 0.951 . S
C315 C314 1.392 . S
C315 C317 1.384 . S
H316 C318 0.949 . S
C317 C315 1.384 . S
C317 C318 1.385 . S
C317 H319 0.950 . S
C318 C312 1.404 . S
C318 H316 0.949 . S
C318 C317 1.385 . S
H319 C317 0.950 . S
H320 C304 0.951 . S
H321 C306 0.951 . S
H322 C308 0.951 . S
H323 C309 0.950 . S
H324 C310 0.950 . S
H325 C311 0.950 . S
H326 C313 0.950 . S
H327 C314 0.951 . S
C328 C329 1.386 . S
C328 C330 1.383 . S
C328 H344 0.951 . S
C329 C328 1.386 . S
C329 C333 1.383 . S
C330 C328 1.383 . S
C330 C331 1.402 . S
C330 H345 0.951 . S
C331 C330 1.402 . S
C331 C332 1.375 . S
C331 C334 1.481 . S
C332 C331 1.375 . S
C332 C333 1.367 . S
C332 H346 0.951 . S
C333 C329 1.383 . S
C333 C332 1.367 . S
C333 H347 0.950 . S
C334 C331 1.481 . S
C334 C335 1.297 . S
C334 H348 0.950 . S
C335 C334 1.297 . S
C335 C336 1.479 . S
C335 H349 0.950 . S
C336 C335 1.479 . S
C336 C337 1.375 . S
C336 C342 1.404 . S
C337 C336 1.375 . S
C337 C338 1.369 . S
C337 H350 0.950 . S
C338 C337 1.369 . S
C338 C339 1.392 . S
C338 H351 0.951 . S
C339 C338 1.392 . S
C339 C341 1.384 . S
H340 C342 0.949 . S
C341 C339 1.384 . S
C341 C342 1.385 . S
C341 H343 0.950 . S
C342 C336 1.404 . S
C342 H340 0.949 . S
C342 C341 1.385 . S
H343 C341 0.950 . S
H344 C328 0.951 . S
H345 C330 0.951 . S
H346 C332 0.951 . S
H347 C333 0.950 . S
H348 C334 0.950 . S
H349 C335 0.950 . S
H350 C337 0.950 . S
H351 C338 0.951 . S
C352 C353 1.386 . S
C352 C354 1.383 . S
C352 H368 0.951 1_655 S
C353 C352 1.386 . S
C353 C357 1.383 . S
C354 C352 1.383 . S
C354 C355 1.402 . S
C354 H369 0.951 1_655 S
C355 C354 1.402 . S
C355 C356 1.375 . S
C355 C358 1.481 . S
C356 C355 1.375 . S
C356 C357 1.367 . S
C356 H370 0.951 . S
C357 C353 1.383 . S
C357 C356 1.367 . S
C357 H371 0.950 . S
C358 C355 1.481 . S
C358 C359 1.297 1_655 S
C358 H372 0.950 . S
C359 C358 1.297 1_455 S
C359 C360 1.479 . S
C359 H373 0.950 . S
C360 C359 1.479 . S
C360 C361 1.375 . S
C360 C366 1.404 . S
C361 C360 1.375 . S
C361 C362 1.369 . S
C361 H374 0.950 . S
C362 C361 1.369 . S
C362 C363 1.392 . S
C362 H375 0.951 . S
C363 C362 1.392 . S
C363 C365 1.384 . S
H364 C366 0.949 1_655 S
C365 C363 1.384 . S
C365 C366 1.385 . S
C365 H367 0.950 1_455 S
C366 C360 1.404 . S
C366 H364 0.949 1_455 S
C366 C365 1.385 . S
H367 C365 0.950 1_655 S
H368 C352 0.951 1_455 S
H369 C354 0.951 1_455 S
H370 C356 0.951 . S
H371 C357 0.950 . S
H372 C358 0.950 . S
H373 C359 0.950 . S
H374 C361 0.950 . S
H375 C362 0.951 . S
C376 C377 1.386 1_455 S
C376 C378 1.383 . S
C376 H392 0.951 . S
C377 C376 1.386 1_655 S
C377 C381 1.383 . S
C378 C376 1.383 . S
C378 C379 1.402 1_455 S
C378 H393 0.951 . S
C379 C378 1.402 1_655 S
C379 C380 1.375 . S
C379 C382 1.481 . S
C380 C379 1.375 . S
C380 C381 1.367 . S
C380 H394 0.951 . S
C381 C377 1.383 . S
C381 C380 1.367 . S
C381 H395 0.950 . S
C382 C379 1.481 . S
C382 C383 1.297 1_655 S
C382 H396 0.950 . S
C383 C382 1.297 1_455 S
C383 C384 1.479 . S
C383 H397 0.950 . S
C384 C383 1.479 . S
C384 C385 1.375 . S
C384 C390 1.404 1_455 S
C385 C384 1.375 . S
C385 C386 1.369 . S
C385 H398 0.950 . S
C386 C385 1.369 . S
C386 C387 1.392 . S
C386 H399 0.951 . S
C387 C386 1.392 . S
C387 C389 1.384 1_455 S
H388 C390 0.949 . S
C389 C387 1.384 1_655 S
C389 C390 1.385 . S
C389 H391 0.950 . S
C390 C384 1.404 1_655 S
C390 H388 0.949 . S
C390 C389 1.385 . S
H391 C389 0.950 . S
H392 C376 0.951 . S
H393 C378 0.951 . S
H394 C380 0.951 . S
H395 C381 0.950 . S
H396 C382 0.950 . S
H397 C383 0.950 . S
H398 C385 0.950 . S
H399 C386 0.951 . S
C400 C401 1.386 . S
C400 C402 1.383 . S
C400 H416 0.951 . S
C401 C400 1.386 . S
C401 C405 1.383 . S
C402 C400 1.383 . S
C402 C403 1.402 . S
C402 H417 0.951 . S
C403 C402 1.402 . S
C403 C404 1.375 . S
C403 C406 1.481 1_655 S
C404 C403 1.375 . S
C404 C405 1.367 . S
C404 H418 0.951 1_655 S
C405 C401 1.383 . S
C405 C404 1.367 . S
C405 H419 0.950 . S
C406 C403 1.481 1_455 S
C406 C407 1.297 . S
C406 H420 0.950 . S
C407 C406 1.297 . S
C407 C408 1.479 . S
C407 H421 0.950 . S
C408 C407 1.479 . S
C408 C409 1.375 . S
C408 C414 1.404 . S
C409 C408 1.375 . S
C409 C410 1.369 . S
C409 H422 0.950 . S
C410 C409 1.369 . S
C410 C411 1.392 . S
C410 H423 0.951 . S
C411 C410 1.392 . S
C411 C413 1.384 . S
H412 C414 0.949 . S
C413 C411 1.384 . S
C413 C414 1.385 . S
C413 H415 0.950 . S
C414 C408 1.404 . S
C414 H412 0.949 . S
C414 C413 1.385 . S
H415 C413 0.950 . S
H416 C400 0.951 . S
H417 C402 0.951 . S
H418 C404 0.951 1_455 S
H419 C405 0.950 . S
H420 C406 0.950 . S
H421 C407 0.950 . S
H422 C409 0.950 . S
H423 C410 0.951 . S
C424 C425 1.386 1_655 S
C424 C426 1.383 . S
C424 H440 0.951 . S
C425 C424 1.386 1_455 S
C425 C429 1.383 . S
C426 C424 1.383 . S
C426 C427 1.402 1_655 S
C426 H441 0.951 . S
C427 C426 1.402 1_455 S
C427 C428 1.375 . S
C427 C430 1.481 . S
C428 C427 1.375 . S
C428 C429 1.367 . S
C428 H442 0.951 . S
C429 C425 1.383 . S
C429 C428 1.367 . S
C429 H443 0.950 . S
C430 C427 1.481 . S
C430 C431 1.297 1_455 S
C430 H444 0.950 . S
C431 C430 1.297 1_655 S
C431 C432 1.479 . S
C431 H445 0.950 . S
C432 C431 1.479 . S
C432 C433 1.375 . S
C432 C438 1.404 1_655 S
C433 C432 1.375 . S
C433 C434 1.369 . S
C433 H446 0.950 . S
C434 C433 1.369 . S
C434 C435 1.392 . S
C434 H447 0.951 . S
C435 C434 1.392 . S
C435 C437 1.384 1_655 S
H436 C438 0.949 . S
C437 C435 1.384 1_455 S
C437 C438 1.385 . S
C437 H439 0.950 . S
C438 C432 1.404 1_455 S
C438 H436 0.949 . S
C438 C437 1.385 . S
H439 C437 0.950 . S
H440 C424 0.951 . S
H441 C426 0.951 . S
H442 C428 0.951 . S
H443 C429 0.950 . S
H444 C430 0.950 . S
H445 C431 0.950 . S
H446 C433 0.950 . S
H447 C434 0.951 . S
C161 C59 1.543 . S
C171 C10 1.542 . S
C185 C99 1.549 . S
C195 C130 1.533 . S
C209 C19 1.540 1_554 S
C219 C50 1.546 . S
C233 C139 1.541 . S
C243 C90 1.511 . S
C257 C122 1.550 . S
C267 C2 1.533 . S
C281 C47 0.967 . S
C291 C87 0.942 . S
C305 C51 1.551 . S
C315 C91 1.542 . S
C329 C136 0.996 . S
C339 C16 0.946 . S
C353 C42 1.552 . S
C363 C82 1.531 . S
C377 C127 0.964 . S
C387 C7 0.947 . S
C401 C131 1.566 . S
C411 C11 1.543 . S
C425 C96 0.978 . S
C435 C56 1.020 . S
