# Generated by pormake.
# Topology unc, (4)-cn, num edge types: 1
# Building blocks:
#     Node 0, Type 0, BuildingBlock: UXUYUI_clean_sbu_0, # of connection points: 4
#     Node 1, Type 0, BuildingBlock: UXUYUI_clean_sbu_0, # of connection points: 4
#     Node 2, Type 0, BuildingBlock: UXUYUI_clean_sbu_0, # of connection points: 4
#     Node 3, Type 0, BuildingBlock: UXUYUI_clean_sbu_0, # of connection points: 4
#     Edge 4, Type (0, 0), BuildingBlock: OJICUG_clean_linker_0, # of connection points: 2
#     Edge 5, Type (0, 0), BuildingBlock: OJICUG_clean_linker_0, # of connection points: 2
#     Edge 6, Type (0, 0), BuildingBlock: OJICUG_clean_linker_0, # of connection points: 2
#     Edge 7, Type (0, 0), BuildingBlock: OJICUG_clean_linker_0, # of connection points: 2
#     Edge 8, Type (0, 0), BuildingBlock: OJICUG_clean_linker_0, # of connection points: 2
#     Edge 9, Type (0, 0), BuildingBlock: OJICUG_clean_linker_0, # of connection points: 2
#     Edge 10, Type (0, 0), BuildingBlock: OJICUG_clean_linker_0, # of connection points: 2
#     Edge 11, Type (0, 0), BuildingBlock: OJICUG_clean_linker_0, # of connection points: 2
# Relax obj value: 0.184
# Max RMSD: 0.213
# Mean RMSD: 0.213
data_MOF--net-unc--node1-UXUYUI_clean_sbu_0--edge1-OJICUG_clean_linker_0
_symmetry_space_group_name_H-M    P1
_symmetry_Int_Tables_number       1
_symmetry_cell_setting            triclinic
loop_
_symmetry_equiv_pos_as_xyz
'x, y, z'
_cell_length_a     35.545497
_cell_length_b     35.504669
_cell_length_c     26.83307
_cell_angle_alpha  90.006493
_cell_angle_beta   89.986164
_cell_angle_gamma 90.028765
loop_
_atom_site_label
_atom_site_type_symbol
_atom_site_fract_x
_atom_site_fract_y
_atom_site_fract_z
_atom_type_partial_charge
Li0 Li 0.03283 0.68771 0.0191 0.0
Li1 Li 0.9886 0.6404 0.04527 0.0
Li2 Li 0.01457 0.63834 0.96175 0.0
Li3 Li 0.97047 0.68689 0.98368 0.0
C4 C 0.06302 0.62491 0.06701 0.0
N5 N 0.10516 0.60858 0.15076 0.0
C6 C 0.05939 0.64692 0.10995 0.0
C7 C 0.08807 0.59461 0.06666 0.0
C8 C 0.08094 0.6382 0.1519 0.0
C9 C 0.10914 0.5868 0.10938 0.0
C10 C 0.9524 0.70435 0.08086 0.0
C11 C 0.88818 0.69078 0.10388 0.0
N12 N 0.88801 0.72159 0.13397 0.0
C13 C 0.9516 0.73582 0.11213 0.0
C14 C 0.92044 0.68156 0.07678 0.0
C15 C 0.91879 0.74409 0.13863 0.0
C16 C 0.05993 0.75445 0.06006 0.0
N17 N 0.07168 0.72083 0.04164 0.0
C18 C 0.13572 0.7364 0.05981 0.0
C19 C 0.10875 0.71139 0.04111 0.0
C20 C 0.12438 0.77128 0.0798 0.0
C21 C 0.08578 0.78003 0.0797 0.0
H22 H 0.03029 0.7612 0.05999 0.0
H23 H 0.11741 0.68436 0.02653 0.0
C24 C 0.96995 0.57137 0.08952 0.0
N25 N 0.97449 0.6086 0.09958 0.0
C26 C 0.9641 0.54568 0.12822 0.0
C27 C 0.96675 0.59731 0.18682 0.0
C28 C 0.97267 0.62196 0.14701 0.0
C29 C 0.96302 0.55846 0.17782 0.0
H30 H 0.97217 0.56149 0.05149 0.0
H31 H 0.97696 0.65161 0.15419 0.0
C32 C 0.05099 0.70019 0.92062 0.0
N33 N 0.11548 0.71443 0.86616 0.0
C34 C 0.0519 0.72989 0.88646 0.0
C35 C 0.08288 0.67763 0.9269 0.0
C36 C 0.08476 0.73666 0.85932 0.0
C37 C 0.1152 0.68531 0.89908 0.0
C38 C 0.94011 0.62175 0.9415 0.0
C39 C 0.94346 0.64167 0.89678 0.0
C40 C 0.91534 0.59128 0.94451 0.0
C41 C 0.9219 0.63073 0.85574 0.0
C42 C 0.89426 0.58121 0.90263 0.0
N43 N 0.89796 0.60098 0.85948 0.0
C44 C 0.03305 0.56727 0.92374 0.0
C45 C 0.0299 0.61471 0.86173 0.0
C46 C 0.03841 0.53959 0.88742 0.0
N47 N 0.02848 0.60388 0.91032 0.0
C48 C 0.03532 0.58797 0.82419 0.0
C49 C 0.03899 0.54971 0.83677 0.0
H50 H 0.03134 0.55946 0.96265 0.0
H51 H 0.02539 0.64388 0.8519 0.0
C52 C 0.94338 0.75144 0.93695 0.0
N53 N 0.93165 0.71889 0.95849 0.0
C54 C 0.91745 0.77616 0.9157 0.0
C55 C 0.8675 0.73389 0.94027 0.0
C56 C 0.89454 0.70967 0.96047 0.0
C57 C 0.87879 0.7677 0.91723 0.0
H58 H 0.97305 0.75804 0.9359 0.0
H59 H 0.8859 0.68346 0.9775 0.0
O60 O 0.04206 0.63257 0.02547 0.0
O61 O 0.98445 0.69606 0.05473 0.0
O62 O 0.01888 0.69338 0.94739 0.0
O63 O 0.96111 0.63159 0.9822 0.0
H64 H 0.04012 0.67045 0.11101 0.0
H65 H 0.09115 0.57728 0.03371 0.0
H66 H 0.07838 0.65498 0.18538 0.0
H67 H 0.12864 0.56342 0.10965 0.0
H68 H 0.86327 0.67339 0.101 0.0
H69 H 0.9761 0.75368 0.116 0.0
H70 H 0.92044 0.65694 0.05315 0.0
H71 H 0.9178 0.76838 0.16293 0.0
H72 H 0.1651 0.72849 0.05834 0.0
H73 H 0.07539 0.80609 0.09545 0.0
H74 H 0.96197 0.51599 0.11946 0.0
H75 H 0.96571 0.60852 0.22432 0.0
H76 H 0.02745 0.74753 0.88087 0.0
H77 H 0.0828 0.65435 0.95279 0.0
H78 H 0.08584 0.75957 0.83279 0.0
H79 H 0.14006 0.6681 0.90364 0.0
H80 H 0.96255 0.66527 0.89365 0.0
H81 H 0.9125 0.57554 0.97887 0.0
H82 H 0.92425 0.64588 0.8209 0.0
H83 H 0.87499 0.55766 0.90441 0.0
H84 H 0.04145 0.51049 0.89882 0.0
H85 H 0.03499 0.59699 0.78564 0.0
H86 H 0.9278 0.80136 0.8976 0.0
H87 H 0.83809 0.72626 0.94309 0.0
Li88 Li 0.35862 0.99474 0.28384 0.0
Li89 Li 0.30573 0.03707 0.25418 0.0
Li90 Li 0.31122 0.97166 0.22463 0.0
Li91 Li 0.35755 0.01582 0.19889 0.0
C92 C 0.28488 0.98422 0.33679 0.0
N93 N 0.24681 0.97404 0.42557 0.0
C94 C 0.28174 0.0139 0.37076 0.0
C95 C 0.26844 0.94944 0.34783 0.0
C96 C 0.26244 0.00818 0.41548 0.0
C97 C 0.2494 0.94482 0.39297 0.0
C98 C 0.38489 0.07466 0.24533 0.0
C99 C 0.39808 0.12937 0.19507 0.0
N100 N 0.43458 0.12825 0.21025 0.0
C101 C 0.42245 0.07409 0.26061 0.0
C102 C 0.37249 0.10255 0.21247 0.0
C103 C 0.44717 0.10144 0.24239 0.0
C104 C 0.42655 0.97058 0.32694 0.0
N105 N 0.39193 0.9846 0.33801 0.0
C106 C 0.40888 0.99075 0.42383 0.0
C107 C 0.38269 0.99454 0.38537 0.0
C108 C 0.445 0.97675 0.4134 0.0
C109 C 0.45353 0.96608 0.3643 0.0
H110 H 0.43369 0.96401 0.28875 0.0
H111 H 0.35545 0.00649 0.39314 0.0
C112 C 0.23449 0.06552 0.2794 0.0
N113 N 0.27147 0.07484 0.27587 0.0
C114 C 0.20879 0.09075 0.30027 0.0
C115 C 0.25966 0.13492 0.313 0.0
C116 C 0.2844 0.10878 0.29193 0.0
C117 C 0.22132 0.12588 0.31796 0.0
H118 H 0.22516 0.038 0.26727 0.0
H119 H 0.31411 0.1151 0.28982 0.0
C120 C 0.37574 0.92784 0.23453 0.0
N121 N 0.39416 0.85448 0.25866 0.0
C122 C 0.40181 0.90801 0.2057 0.0
C123 C 0.35913 0.91041 0.27574 0.0
C124 C 0.41072 0.87093 0.21847 0.0
C125 C 0.3688 0.8733 0.2873 0.0
C126 C 0.28115 0.00531 0.14695 0.0
C127 C 0.29684 0.98239 0.11004 0.0
C128 C 0.24259 0.01293 0.14634 0.0
C129 C 0.27352 0.96708 0.07335 0.0
C130 C 0.22022 0.99708 0.10901 0.0
N131 N 0.23601 0.97464 0.07364 0.0
C132 C 0.24265 0.93313 0.21523 0.0
C133 C 0.2936 0.9016 0.17638 0.0
C134 C 0.21729 0.90664 0.19647 0.0
N135 N 0.27992 0.93044 0.20444 0.0
C136 C 0.26929 0.8741 0.15758 0.0
C137 C 0.23053 0.87684 0.16689 0.0
H138 H 0.2325 0.95666 0.23704 0.0
H139 H 0.32312 0.90061 0.16699 0.0
C140 C 0.42814 0.02146 0.15468 0.0
N141 N 0.39117 0.02906 0.14659 0.0
C142 C 0.45451 0.02709 0.11692 0.0
C143 C 0.40425 0.04814 0.06296 0.0
C144 C 0.37888 0.04279 0.10219 0.0
C145 C 0.44252 0.03983 0.07005 0.0
H146 H 0.43694 0.01007 0.19021 0.0
H147 H 0.34929 0.04853 0.09679 0.0
O148 O 0.30292 0.98942 0.29227 0.0
O149 O 0.36047 0.04765 0.26179 0.0
O150 O 0.36684 0.96414 0.22219 0.0
O151 O 0.30332 0.01947 0.18414 0.0
H152 H 0.29436 0.04099 0.3629 0.0
H153 H 0.27033 0.92624 0.32177 0.0
H154 H 0.2599 0.03088 0.44217 0.0
H155 H 0.23661 0.91803 0.40203 0.0
H156 H 0.38896 0.15099 0.16939 0.0
H157 H 0.43245 0.05259 0.28595 0.0
H158 H 0.34351 0.10314 0.20007 0.0
H159 H 0.47637 0.10129 0.2537 0.0
H160 H 0.40111 -0.00082 0.46124 0.0
H161 H 0.48124 0.95581 0.35448 0.0
H162 H 0.17947 0.0827 0.30288 0.0
H163 H 0.27069 0.16137 0.3268 0.0
H164 H 0.41495 0.92118 0.17373 0.0
H165 H 0.33917 0.92533 0.2987 0.0
H166 H 0.43081 0.85523 0.19643 0.0
H167 H 0.35616 0.85947 0.3191 0.0
H168 H 0.3266 0.97593 0.11031 0.0
H169 H 0.23003 0.03062 0.17463 0.0
H170 H 0.28521 0.94902 0.04483 0.0
H171 H 0.19029 0.00252 0.10824 0.0
H172 H 0.18759 0.90961 0.20458 0.0
H173 H 0.28047 0.85178 0.13438 0.0
H174 H 0.48369 0.01988 0.12357 0.0
H175 H 0.39403 0.05802 0.02726 0.0
Li176 Li 0.01113 0.35736 0.54533 0.0
Li177 Li 0.9656 0.31075 0.5207 0.0
Li178 Li 0.0275 0.31056 0.48334 0.0
Li179 Li 0.9836 0.35965 0.46263 0.0
C180 C 0.04647 0.29239 0.57999 0.0
N181 N 0.11103 0.273 0.63126 0.0
C182 C 0.04655 0.26116 0.61165 0.0
C183 C 0.07923 0.31381 0.57445 0.0
C184 C 0.07946 0.2518 0.63725 0.0
C185 C 0.11157 0.30353 0.60067 0.0
C186 C 0.93751 0.3744 0.5694 0.0
C187 C 0.89327 0.41383 0.61318 0.0
N188 N 0.89769 0.39223 0.65462 0.0
C189 C 0.94163 0.35259 0.61243 0.0
C190 C 0.91318 0.40528 0.56973 0.0
C191 C 0.92124 0.36205 0.65513 0.0
C192 C 0.03003 0.42632 0.58914 0.0
N193 N 0.02647 0.38898 0.59919 0.0
C194 C 0.03549 0.40029 0.6862 0.0
C195 C 0.02946 0.37557 0.64649 0.0
C196 C 0.03808 0.43924 0.67726 0.0
C197 C 0.03594 0.45206 0.62775 0.0
H198 H 0.02681 0.43623 0.55125 0.0
H199 H 0.0258 0.34585 0.65371 0.0
C200 C 0.93785 0.24286 0.55711 0.0
N201 N 0.92672 0.27811 0.54415 0.0
C202 C 0.91206 0.21726 0.57691 0.0
C203 C 0.86353 0.26455 0.56917 0.0
C204 C 0.89031 0.28927 0.54935 0.0
C205 C 0.87433 0.228 0.58345 0.0
H206 H 0.96699 0.23479 0.55255 0.0
H207 H 0.88212 0.31744 0.53861 0.0
C208 C 0.05781 0.37554 0.44004 0.0
N209 N 0.09844 0.39621 0.35662 0.0
C210 C 0.05344 0.35572 0.39538 0.0
C211 C 0.08279 0.40587 0.44226 0.0
C212 C 0.07424 0.36661 0.35363 0.0
C213 C 0.1031 0.41588 0.39969 0.0
C214 C 0.94605 0.29785 0.42276 0.0
C215 C 0.94493 0.26856 0.38802 0.0
C216 C 0.914 0.3199 0.43062 0.0
C217 C 0.91169 0.26174 0.36172 0.0
C218 C 0.88131 0.31218 0.4036 0.0
N219 N 0.88084 0.2835 0.37 0.0
C220 C 0.05351 0.24385 0.44061 0.0
C221 C 0.10225 0.28823 0.45426 0.0
C222 C 0.07886 0.21869 0.41894 0.0
N223 N 0.06546 0.27791 0.45739 0.0
C224 C 0.12861 0.26392 0.43275 0.0
C225 C 0.117 0.22863 0.41449 0.0
H226 H 0.02408 0.23643 0.44359 0.0
H227 H 0.11109 0.31546 0.46799 0.0
C228 C 0.9663 0.43091 0.42465 0.0
N229 N 0.9694 0.39411 0.41141 0.0
C230 C 0.96141 0.45861 0.38825 0.0
C231 C 0.96185 0.40988 0.32535 0.0
C232 C 0.96683 0.38313 0.36297 0.0
C233 C 0.95983 0.44831 0.3377 0.0
H234 H 0.96895 0.43884 0.46343 0.0
H235 H 0.97024 0.35378 0.35324 0.0
O236 O 0.01438 0.30165 0.55463 0.0
O237 O 0.95747 0.3661 0.5272 0.0
O238 O 0.03749 0.36579 0.48139 0.0
O239 O 0.97847 0.30464 0.44876 0.0
H240 H 0.02141 0.24432 0.61642 0.0
H241 H 0.07977 0.33818 0.55035 0.0
H242 H 0.07992 0.22769 0.66188 0.0
H243 H 0.13711 0.31985 0.59672 0.0
H244 H 0.87434 0.43767 0.61397 0.0
H245 H 0.96038 0.32863 0.61298 0.0
H246 H 0.90979 0.4225 0.53673 0.0
H247 H 0.92418 0.34544 0.68869 0.0
H248 H 0.03735 0.38905 0.72363 0.0
H249 H 0.03715 0.48182 0.61904 0.0
H250 H 0.92181 0.1896 0.58794 0.0
H251 H 0.83467 0.27388 0.57299 0.0
H252 H 0.03416 0.33224 0.39286 0.0
H253 H 0.08639 0.42154 0.47655 0.0
H254 H 0.07112 0.35154 0.31883 0.0
H255 H 0.12255 0.43931 0.40087 0.0
H256 H 0.96951 0.25128 0.38141 0.0
H257 H 0.91427 0.34281 0.45711 0.0
H258 H 0.91043 0.23915 0.33471 0.0
H259 H 0.85632 0.32901 0.40933 0.0
H260 H 0.0685 0.19204 0.40488 0.0
H261 H 0.15778 0.27257 0.4307 0.0
H262 H 0.95962 0.48785 0.3995 0.0
H263 H 0.96136 0.4007 0.28687 0.0
Li264 Li 0.64005 0.00418 0.78689 0.0
Li265 Li 0.6885 0.96086 0.7637 0.0
Li266 Li 0.689 0.02874 0.7333 0.0
Li267 Li 0.6419 0.98433 0.7032 0.0
C268 C 0.69293 0.02119 0.84935 0.0
N269 N 0.68616 0.04731 0.94583 0.0
C270 C 0.68748 0.99583 0.88852 0.0
C271 C 0.69524 0.05976 0.85916 0.0
C272 C 0.68401 0.00963 0.93706 0.0
C273 C 0.6917 0.07242 0.90824 0.0
C274 C 0.62644 0.91524 0.74902 0.0
C275 C 0.64463 0.85882 0.70506 0.0
N276 N 0.61273 0.84153 0.72119 0.0
C277 C 0.59383 0.8969 0.76515 0.0
C278 C 0.65203 0.89607 0.71864 0.0
C279 C 0.58739 0.85965 0.75066 0.0
C280 C 0.59898 0.05201 0.85421 0.0
N281 N 0.60647 0.01594 0.84021 0.0
C282 C 0.56157 0.99219 0.89846 0.0
C283 C 0.58875 0.98625 0.86188 0.0
C284 C 0.553 0.02904 0.91344 0.0
C285 C 0.57242 0.05923 0.89153 0.0
H286 H 0.61326 0.07511 0.83596 0.0
H287 H 0.59543 0.9579 0.85026 0.0
C288 C 0.7582 0.92457 0.77493 0.0
N289 N 0.72114 0.92204 0.78695 0.0
C290 C 0.784 0.89891 0.79464 0.0
C291 C 0.73285 0.86786 0.83758 0.0
C292 C 0.70811 0.8945 0.81769 0.0
C293 C 0.7714 0.87023 0.82662 0.0
H294 H 0.76778 0.94708 0.75087 0.0
H295 H 0.67862 0.89365 0.82756 0.0
C296 C 0.59723 0.04685 0.72313 0.0
N297 N 0.52253 0.06701 0.71288 0.0
C298 C 0.56879 0.02029 0.73127 0.0
C299 C 0.58761 0.08366 0.70984 0.0
C300 C 0.53123 0.03104 0.72589 0.0
C301 C 0.5497 0.0933 0.70482 0.0
C302 C 0.70675 0.98009 0.64586 0.0
C303 C 0.7019 0.01202 0.6161 0.0
C304 C 0.7216 0.94724 0.62494 0.0
C305 C 0.71146 0.01039 0.56565 0.0
C306 C 0.73084 0.94675 0.57433 0.0
N307 N 0.72559 0.97806 0.54597 0.0
C308 C 0.7586 0.0595 0.70783 0.0
C309 C 0.70843 0.10329 0.70266 0.0
C310 C 0.78365 0.08588 0.68814 0.0
N311 N 0.72176 0.06847 0.71409 0.0
C312 C 0.73255 0.13062 0.68287 0.0
C313 C 0.77064 0.12185 0.67459 0.0
H314 H 0.76826 0.03144 0.7169 0.0
H315 H 0.67888 0.10944 0.70751 0.0
C316 C 0.59198 0.94349 0.63493 0.0
N317 N 0.61162 0.97568 0.64429 0.0
C318 C 0.5665 0.94184 0.5953 0.0
C319 C 0.58231 0.0061 0.57479 0.0
C320 C 0.60762 0.00642 0.61448 0.0
C321 C 0.5608 0.97374 0.56536 0.0
H322 H 0.5947 0.91942 0.65895 0.0
H323 H 0.62298 0.03192 0.62277 0.0
O324 O 0.69538 0.00834 0.80149 0.0
O325 O 0.63318 0.95159 0.76353 0.0
O326 O 0.63434 0.03709 0.72793 0.0
O327 O 0.69759 0.98109 0.69539 0.0
H328 H 0.6855 0.96589 0.88137 0.0
H329 H 0.69935 0.07969 0.8291 0.0
H330 H 0.67952 0.99039 0.96775 0.0
H331 H 0.69321 0.10222 0.91642 0.0
H332 H 0.66423 0.84368 0.68161 0.0
H333 H 0.5736 0.91132 0.78847 0.0
H334 H 0.67727 0.90973 0.70564 0.0
H335 H 0.56225 0.84514 0.76283 0.0
H336 H 0.54744 0.96822 0.91502 0.0
H337 H 0.5664 0.08802 0.90221 0.0
H338 H 0.81351 0.90155 0.78519 0.0
H339 H 0.72216 0.84642 0.86257 0.0
H340 H 0.57552 0.99166 0.7415 0.0
H341 H 0.60922 0.10457 0.70335 0.0
H342 H 0.50898 0.01076 0.73202 0.0
H343 H 0.54188 0.12169 0.6945 0.0
H344 H 0.69062 0.03773 0.63164 0.0
H345 H 0.72617 0.92243 0.64754 0.0
H346 H 0.70764 0.03485 0.54215 0.0
H347 H 0.74228 0.9215 0.55762 0.0
H348 H 0.81285 0.07804 0.68316 0.0
H349 H 0.72122 0.15783 0.67256 0.0
H350 H 0.55021 0.91641 0.58958 0.0
H351 H 0.57908 0.03121 0.55229 0.0
C352 C 0.98186 0.5365 0.26327 0.0
C353 C 0.96023 0.53124 0.21993 0.0
H354 H -0.00106 0.51448 0.33389 0.0
C355 C 0.93726 0.49905 0.21649 0.0
H356 H 0.00045 0.56052 0.26687 0.0
C357 C 0.93651 0.47248 0.25502 0.0
C358 C 0.95861 0.47752 0.29796 0.0
H359 H 0.91984 0.49435 0.18397 0.0
H360 H 0.91861 0.44795 0.25117 0.0
C361 C 0.98102 0.51003 0.30178 0.0
C362 C 0.49838 0.94411 0.45727 0.0
C363 C 0.47425 0.97532 0.45286 0.0
H364 H 0.54471 0.91909 0.49632 0.0
C365 C 0.47883 0.0058 0.48571 0.0
H366 H 0.49539 0.92013 0.43264 0.0
C367 C 0.507 0.00524 0.52193 0.0
C368 C 0.53118 0.97411 0.52637 0.0
H369 H 0.461 0.03044 0.4829 0.0
H370 H 0.50962 0.0291 0.54686 0.0
C371 C 0.52643 0.94341 0.49387 0.0
C372 C 0.06249 0.52613 0.75389 0.0
C373 C 0.04096 0.52041 0.7972 0.0
H374 H 0.07925 0.50471 0.68263 0.0
C375 C 0.0198 0.48711 0.80155 0.0
H376 H 0.07944 0.55128 0.74964 0.0
C377 C 0.01954 0.46054 0.76314 0.0
C378 C 0.04053 0.46649 0.71939 0.0
H379 H 0.00236 0.48211 0.83399 0.0
H380 H 0.00182 0.4359 0.76713 0.0
C381 C 0.06234 0.49945 0.71547 0.0
C382 C 0.4609 0.02219 0.98332 0.0
C383 C 0.46941 0.04108 0.02789 0.0
H384 H 0.48101 0.00342 0.91223 0.0
C385 C 0.50483 0.05828 0.03323 0.0
H386 H 0.43396 0.00839 0.97845 0.0
C387 C 0.53158 0.05581 0.99507 0.0
C388 C 0.52358 0.03544 0.9515 0.0
H389 H 0.512 0.07304 0.06726 0.0
H390 H 0.55901 0.0685 0.00042 0.0
C391 C 0.48785 0.01913 0.94566 0.0
C392 C 0.17201 0.86277 0.11858 0.0
C393 C 0.20384 0.8497 0.14421 0.0
H394 H 0.12297 0.84866 0.07664 0.0
C395 C 0.21004 0.81073 0.14764 0.0
H396 H 0.16693 0.89272 0.11463 0.0
C397 C 0.18443 0.78529 0.12668 0.0
C398 C 0.15233 0.79827 0.10114 0.0
H399 H 0.2343 0.79994 0.16743 0.0
H400 H 0.18949 0.75544 0.13144 0.0
C401 C 0.14674 0.83742 0.09698 0.0
C402 C 0.19707 0.19138 0.33434 0.0
C403 C 0.19479 0.15235 0.34281 0.0
H404 H 0.17415 0.24595 0.34971 0.0
C405 C 0.16711 0.13875 0.37569 0.0
H406 H 0.21776 0.20279 0.30884 0.0
C407 C 0.14217 0.16347 0.39917 0.0
C408 C 0.14424 0.20247 0.39043 0.0
H409 H 0.16503 0.10895 0.3839 0.0
H410 H 0.12151 0.15202 0.42468 0.0
C411 C 0.1721 0.21614 0.35786 0.0
C412 C 0.79515 0.18791 0.6629 0.0
C413 C 0.79647 0.14943 0.65054 0.0
H414 H 0.81887 0.24279 0.65192 0.0
C415 C 0.82278 0.13733 0.61482 0.0
H416 H 0.77545 0.19814 0.69056 0.0
C417 C 0.84757 0.16287 0.59267 0.0
C418 C 0.84673 0.20123 0.60558 0.0
H419 H 0.82402 0.10806 0.60356 0.0
H420 H 0.86729 0.15255 0.56508 0.0
C421 C 0.82 0.21352 0.64068 0.0
C422 C 0.79206 0.80485 0.84957 0.0
C423 C 0.79856 0.84387 0.84992 0.0
H424 H 0.81257 0.75018 0.86902 0.0
C425 C 0.83111 0.85774 0.87317 0.0
H426 H 0.76726 0.79341 0.83161 0.0
C427 C 0.85668 0.83315 0.89561 0.0
C428 C 0.8507 0.79393 0.89465 0.0
H429 H 0.83649 0.88776 0.87472 0.0
H430 H 0.88097 0.84506 0.91416 0.0
C431 C 0.81796 0.78013 0.87134 0.0
loop_
_geom_bond_atom_site_label_1
_geom_bond_atom_site_label_2
_geom_bond_distance
_geom_bond_site_symmetry_2
_ccdc_geom_bond_type
Li0 N17 1.990 . S
Li0 O60 1.956 . S
Li0 O61 1.970 1_455 S
Li0 O62 1.961 1_554 S
Li1 N25 1.990 . S
Li1 O60 1.970 1_655 S
Li1 O61 1.956 . S
Li1 O63 1.961 1_554 S
Li2 N47 1.990 . S
Li2 O60 1.961 1_556 S
Li2 O62 1.956 . S
Li2 O63 1.970 1_455 S
Li3 N53 1.990 . S
Li3 O61 1.961 1_556 S
Li3 O62 1.970 1_655 S
Li3 O63 1.956 . S
C4 C6 1.348 . S
C4 C7 1.356 1_554 S
C4 O60 1.325 . S
N5 C8 1.314 . S
N5 C9 1.279 . S
C6 C4 1.348 . S
C6 C8 1.353 . S
C6 H64 0.929 . S
C7 C4 1.356 1_556 S
C7 C9 1.358 1_556 S
C7 H65 0.930 . S
C8 N5 1.314 . S
C8 C6 1.353 . S
C8 H66 0.930 . S
C9 N5 1.279 . S
C9 C7 1.358 1_554 S
C9 H67 0.930 1_554 S
C10 C13 1.348 1_655 S
C10 C14 1.356 . S
C10 O61 1.325 . S
C11 N12 1.279 . S
C11 C14 1.358 . S
C11 H68 0.930 . S
N12 C11 1.279 . S
N12 C15 1.314 . S
C13 C10 1.348 1_455 S
C13 C15 1.353 1_455 S
C13 H69 0.929 . S
C14 C10 1.356 . S
C14 C11 1.358 . S
C14 H70 0.930 . S
C15 N12 1.314 . S
C15 C13 1.353 1_655 S
C15 H71 0.930 1_655 S
C16 N17 1.314 . S
C16 C21 1.353 . S
C16 H22 0.930 1_554 S
N17 Li0 1.990 . S
N17 C16 1.314 . S
N17 C19 1.279 . S
C18 C19 1.358 . S
C18 C20 1.356 . S
C18 H72 0.930 . S
C19 N17 1.279 . S
C19 C18 1.358 . S
C19 H23 0.930 . S
C20 C18 1.356 . S
C20 C21 1.348 . S
C21 C16 1.353 . S
C21 C20 1.348 . S
C21 H73 0.929 . S
H22 C16 0.930 1_556 S
H23 C19 0.930 . S
C24 N25 1.314 . S
C24 C26 1.353 . S
C24 H30 0.930 . S
N25 Li1 1.990 . S
N25 C24 1.314 . S
N25 C28 1.279 . S
C26 C24 1.353 . S
C26 C29 1.348 . S
C26 H74 0.929 . S
C27 C28 1.358 . S
C27 C29 1.356 . S
C27 H75 0.930 . S
C28 N25 1.279 . S
C28 C27 1.358 . S
C28 H31 0.930 . S
C29 C26 1.348 . S
C29 C27 1.356 . S
H30 C24 0.930 . S
H31 C28 0.930 . S
C32 C34 1.348 1_455 S
C32 C35 1.356 . S
C32 O62 1.325 . S
N33 C36 1.314 . S
N33 C37 1.279 . S
C34 C32 1.348 1_655 S
C34 C36 1.353 1_655 S
C34 H76 0.929 . S
C35 C32 1.356 . S
C35 C37 1.358 . S
C35 H77 0.930 . S
C36 N33 1.314 . S
C36 C34 1.353 1_455 S
C36 H78 0.930 1_455 S
C37 N33 1.279 . S
C37 C35 1.358 . S
C37 H79 0.930 . S
C38 C39 1.348 . S
C38 C40 1.356 1_556 S
C38 O63 1.325 . S
C39 C38 1.348 . S
C39 C41 1.353 . S
C39 H80 0.929 . S
C40 C38 1.356 1_554 S
C40 C42 1.358 1_554 S
C40 H81 0.930 . S
C41 C39 1.353 . S
C41 N43 1.314 . S
C41 H82 0.930 . S
C42 C40 1.358 1_556 S
C42 N43 1.279 . S
C42 H83 0.930 1_556 S
N43 C41 1.314 . S
N43 C42 1.279 . S
C44 C46 1.353 . S
C44 N47 1.314 . S
C44 H50 0.930 . S
C45 N47 1.279 . S
C45 C48 1.358 . S
C45 H51 0.930 . S
C46 C44 1.353 . S
C46 C49 1.348 . S
C46 H84 0.929 . S
N47 Li2 1.990 . S
N47 C44 1.314 . S
N47 C45 1.279 . S
C48 C45 1.358 . S
C48 C49 1.356 . S
C48 H85 0.930 . S
C49 C46 1.348 . S
C49 C48 1.356 . S
H50 C44 0.930 . S
H51 C45 0.930 . S
C52 N53 1.314 . S
C52 C54 1.353 . S
C52 H58 0.930 1_556 S
N53 Li3 1.990 . S
N53 C52 1.314 . S
N53 C56 1.279 . S
C54 C52 1.353 . S
C54 C57 1.348 . S
C54 H86 0.929 . S
C55 C56 1.358 . S
C55 C57 1.356 . S
C55 H87 0.930 . S
C56 N53 1.279 . S
C56 C55 1.358 . S
C56 H59 0.930 . S
C57 C54 1.348 . S
C57 C55 1.356 . S
H58 C52 0.930 1_554 S
H59 C56 0.930 . S
O60 Li0 1.956 . S
O60 Li1 1.970 1_455 S
O60 Li2 1.961 1_554 S
O60 C4 1.325 . S
O61 Li0 1.970 1_655 S
O61 Li1 1.956 . S
O61 Li3 1.961 1_554 S
O61 C10 1.325 . S
O62 Li0 1.961 1_556 S
O62 Li2 1.956 . S
O62 Li3 1.970 1_455 S
O62 C32 1.325 . S
O63 Li1 1.961 1_556 S
O63 Li2 1.970 1_655 S
O63 Li3 1.956 . S
O63 C38 1.325 . S
H64 C6 0.929 . S
H65 C7 0.930 . S
H66 C8 0.930 . S
H67 C9 0.930 1_556 S
H68 C11 0.930 . S
H69 C13 0.929 . S
H70 C14 0.930 . S
H71 C15 0.930 1_455 S
H72 C18 0.930 . S
H73 C21 0.929 . S
H74 C26 0.929 . S
H75 C27 0.930 . S
H76 C34 0.929 . S
H77 C35 0.930 . S
H78 C36 0.930 1_655 S
H79 C37 0.930 . S
H80 C39 0.929 . S
H81 C40 0.930 . S
H82 C41 0.930 . S
H83 C42 0.930 1_554 S
H84 C46 0.929 . S
H85 C48 0.930 . S
H86 C54 0.929 . S
H87 C55 0.930 . S
Li88 N105 1.990 . S
Li88 O148 1.956 . S
Li88 O149 1.970 1_565 S
Li88 O150 1.961 . S
Li89 N113 1.990 . S
Li89 O148 1.970 1_545 S
Li89 O149 1.956 . S
Li89 O151 1.961 . S
Li90 N135 1.990 . S
Li90 O148 1.961 . S
Li90 O150 1.956 . S
Li90 O151 1.970 1_565 S
Li91 N141 1.990 . S
Li91 O149 1.961 . S
Li91 O150 1.970 1_545 S
Li91 O151 1.956 . S
C92 C94 1.348 1_565 S
C92 C95 1.356 . S
C92 O148 1.325 . S
N93 C96 1.314 . S
N93 C97 1.279 . S
C94 C92 1.348 1_545 S
C94 C96 1.353 1_545 S
C94 H152 0.929 . S
C95 C92 1.356 . S
C95 C97 1.358 . S
C95 H153 0.930 . S
C96 N93 1.314 . S
C96 C94 1.353 1_565 S
C96 H154 0.930 1_565 S
C97 N93 1.279 . S
C97 C95 1.358 . S
C97 H155 0.930 . S
C98 C101 1.348 . S
C98 C102 1.356 . S
C98 O149 1.325 . S
C99 N100 1.279 . S
C99 C102 1.358 . S
C99 H156 0.930 . S
N100 C99 1.279 . S
N100 C103 1.314 . S
C101 C98 1.348 . S
C101 C103 1.353 . S
C101 H157 0.929 . S
C102 C98 1.356 . S
C102 C99 1.358 . S
C102 H158 0.930 . S
C103 N100 1.314 . S
C103 C101 1.353 . S
C103 H159 0.930 . S
C104 N105 1.314 . S
C104 C109 1.353 . S
C104 H110 0.930 . S
N105 Li88 1.990 . S
N105 C104 1.314 . S
N105 C107 1.279 . S
C106 C107 1.358 . S
C106 C108 1.356 . S
C106 H160 0.930 . S
C107 N105 1.279 . S
C107 C106 1.358 . S
C107 H111 0.930 . S
C108 C106 1.356 . S
C108 C109 1.348 . S
C109 C104 1.353 . S
C109 C108 1.348 . S
C109 H161 0.929 . S
H110 C104 0.930 . S
H111 C107 0.930 . S
C112 N113 1.314 . S
C112 C114 1.353 . S
C112 H118 0.930 . S
N113 Li89 1.990 . S
N113 C112 1.314 . S
N113 C116 1.279 . S
C114 C112 1.353 . S
C114 C117 1.348 . S
C114 H162 0.929 . S
C115 C116 1.358 . S
C115 C117 1.356 . S
C115 H163 0.930 . S
C116 N113 1.279 . S
C116 C115 1.358 . S
C116 H119 0.930 . S
C117 C114 1.348 . S
C117 C115 1.356 . S
H118 C112 0.930 . S
H119 C116 0.930 . S
C120 C122 1.348 . S
C120 C123 1.356 . S
C120 O150 1.325 . S
N121 C124 1.314 . S
N121 C125 1.279 . S
C122 C120 1.348 . S
C122 C124 1.353 . S
C122 H164 0.929 . S
C123 C120 1.356 . S
C123 C125 1.358 . S
C123 H165 0.930 . S
C124 N121 1.314 . S
C124 C122 1.353 . S
C124 H166 0.930 . S
C125 N121 1.279 . S
C125 C123 1.358 . S
C125 H167 0.930 . S
C126 C127 1.348 1_545 S
C126 C128 1.356 . S
C126 O151 1.325 . S
C127 C126 1.348 1_565 S
C127 C129 1.353 1_565 S
C127 H168 0.929 . S
C128 C126 1.356 . S
C128 C130 1.358 . S
C128 H169 0.930 . S
C129 C127 1.353 1_545 S
C129 N131 1.314 . S
C129 H170 0.930 1_545 S
C130 C128 1.358 . S
C130 N131 1.279 . S
C130 H171 0.930 . S
N131 C129 1.314 . S
N131 C130 1.279 . S
C132 C134 1.353 . S
C132 N135 1.314 . S
C132 H138 0.930 . S
C133 N135 1.279 . S
C133 C136 1.358 . S
C133 H139 0.930 . S
C134 C132 1.353 . S
C134 C137 1.348 . S
C134 H172 0.929 . S
N135 Li90 1.990 . S
N135 C132 1.314 . S
N135 C133 1.279 . S
C136 C133 1.358 . S
C136 C137 1.356 . S
C136 H173 0.930 . S
C137 C134 1.348 . S
C137 C136 1.356 . S
H138 C132 0.930 . S
H139 C133 0.930 . S
C140 N141 1.314 . S
C140 C142 1.353 . S
C140 H146 0.930 . S
N141 Li91 1.990 . S
N141 C140 1.314 . S
N141 C144 1.279 . S
C142 C140 1.353 . S
C142 C145 1.348 . S
C142 H174 0.929 . S
C143 C144 1.358 . S
C143 C145 1.356 . S
C143 H175 0.930 . S
C144 N141 1.279 . S
C144 C143 1.358 . S
C144 H147 0.930 . S
C145 C142 1.348 . S
C145 C143 1.356 . S
H146 C140 0.930 . S
H147 C144 0.930 . S
O148 Li88 1.956 . S
O148 Li89 1.970 1_565 S
O148 Li90 1.961 . S
O148 C92 1.325 . S
O149 Li88 1.970 1_545 S
O149 Li89 1.956 . S
O149 Li91 1.961 . S
O149 C98 1.325 . S
O150 Li88 1.961 . S
O150 Li90 1.956 . S
O150 Li91 1.970 1_565 S
O150 C120 1.325 . S
O151 Li89 1.961 . S
O151 Li90 1.970 1_545 S
O151 Li91 1.956 . S
O151 C126 1.325 . S
H152 C94 0.929 . S
H153 C95 0.930 . S
H154 C96 0.930 1_545 S
H155 C97 0.930 . S
H156 C99 0.930 . S
H157 C101 0.929 . S
H158 C102 0.930 . S
H159 C103 0.930 . S
H160 C106 0.930 . S
H161 C109 0.929 . S
H162 C114 0.929 . S
H163 C115 0.930 . S
H164 C122 0.929 . S
H165 C123 0.930 . S
H166 C124 0.930 . S
H167 C125 0.930 . S
H168 C127 0.929 . S
H169 C128 0.930 . S
H170 C129 0.930 1_565 S
H171 C130 0.930 . S
H172 C134 0.929 . S
H173 C136 0.930 . S
H174 C142 0.929 . S
H175 C143 0.930 . S
Li176 N193 1.990 . S
Li176 O236 1.956 . S
Li176 O237 1.970 1_455 S
Li176 O238 1.961 . S
Li177 N201 1.990 . S
Li177 O236 1.970 1_655 S
Li177 O237 1.956 . S
Li177 O239 1.961 . S
Li178 N223 1.990 . S
Li178 O236 1.961 . S
Li178 O238 1.956 . S
Li178 O239 1.970 1_455 S
Li179 N229 1.990 . S
Li179 O237 1.961 . S
Li179 O238 1.970 1_655 S
Li179 O239 1.956 . S
C180 C182 1.348 1_455 S
C180 C183 1.356 . S
C180 O236 1.325 . S
N181 C184 1.314 . S
N181 C185 1.279 . S
C182 C180 1.348 1_655 S
C182 C184 1.353 1_655 S
C182 H240 0.929 . S
C183 C180 1.356 . S
C183 C185 1.358 . S
C183 H241 0.930 . S
C184 N181 1.314 . S
C184 C182 1.353 1_455 S
C184 H242 0.930 1_455 S
C185 N181 1.279 . S
C185 C183 1.358 . S
C185 H243 0.930 . S
C186 C189 1.348 . S
C186 C190 1.356 . S
C186 O237 1.325 . S
C187 N188 1.279 . S
C187 C190 1.358 . S
C187 H244 0.930 . S
N188 C187 1.279 . S
N188 C191 1.314 . S
C189 C186 1.348 . S
C189 C191 1.353 . S
C189 H245 0.929 . S
C190 C186 1.356 . S
C190 C187 1.358 . S
C190 H246 0.930 . S
C191 N188 1.314 . S
C191 C189 1.353 . S
C191 H247 0.930 . S
C192 N193 1.314 . S
C192 C197 1.353 . S
C192 H198 0.930 . S
N193 Li176 1.990 . S
N193 C192 1.314 . S
N193 C195 1.279 . S
C194 C195 1.358 . S
C194 C196 1.356 . S
C194 H248 0.930 . S
C195 N193 1.279 . S
C195 C194 1.358 . S
C195 H199 0.930 . S
C196 C194 1.356 . S
C196 C197 1.348 . S
C197 C192 1.353 . S
C197 C196 1.348 . S
C197 H249 0.929 . S
H198 C192 0.930 . S
H199 C195 0.930 . S
C200 N201 1.314 . S
C200 C202 1.353 . S
C200 H206 0.930 . S
N201 Li177 1.990 . S
N201 C200 1.314 . S
N201 C204 1.279 . S
C202 C200 1.353 . S
C202 C205 1.348 . S
C202 H250 0.929 . S
C203 C204 1.358 . S
C203 C205 1.356 . S
C203 H251 0.930 . S
C204 N201 1.279 . S
C204 C203 1.358 . S
C204 H207 0.930 . S
C205 C202 1.348 . S
C205 C203 1.356 . S
H206 C200 0.930 . S
H207 C204 0.930 . S
C208 C210 1.348 . S
C208 C211 1.356 . S
C208 O238 1.325 . S
N209 C212 1.314 . S
N209 C213 1.279 . S
C210 C208 1.348 . S
C210 C212 1.353 . S
C210 H252 0.929 . S
C211 C208 1.356 . S
C211 C213 1.358 . S
C211 H253 0.930 . S
C212 N209 1.314 . S
C212 C210 1.353 . S
C212 H254 0.930 . S
C213 N209 1.279 . S
C213 C211 1.358 . S
C213 H255 0.930 . S
C214 C215 1.348 1_655 S
C214 C216 1.356 . S
C214 O239 1.325 . S
C215 C214 1.348 1_455 S
C215 C217 1.353 1_455 S
C215 H256 0.929 . S
C216 C214 1.356 . S
C216 C218 1.358 . S
C216 H257 0.930 . S
C217 C215 1.353 1_655 S
C217 N219 1.314 . S
C217 H258 0.930 1_655 S
C218 C216 1.358 . S
C218 N219 1.279 . S
C218 H259 0.930 . S
N219 C217 1.314 . S
N219 C218 1.279 . S
C220 C222 1.353 . S
C220 N223 1.314 . S
C220 H226 0.930 . S
C221 N223 1.279 . S
C221 C224 1.358 . S
C221 H227 0.930 . S
C222 C220 1.353 . S
C222 C225 1.348 . S
C222 H260 0.929 . S
N223 Li178 1.990 . S
N223 C220 1.314 . S
N223 C221 1.279 . S
C224 C221 1.358 . S
C224 C225 1.356 . S
C224 H261 0.930 . S
C225 C222 1.348 . S
C225 C224 1.356 . S
H226 C220 0.930 . S
H227 C221 0.930 . S
C228 N229 1.314 . S
C228 C230 1.353 . S
C228 H234 0.930 . S
N229 Li179 1.990 . S
N229 C228 1.314 . S
N229 C232 1.279 . S
C230 C228 1.353 . S
C230 C233 1.348 . S
C230 H262 0.929 . S
C231 C232 1.358 . S
C231 C233 1.356 . S
C231 H263 0.930 . S
C232 N229 1.279 . S
C232 C231 1.358 . S
C232 H235 0.930 . S
C233 C230 1.348 . S
C233 C231 1.356 . S
H234 C228 0.930 . S
H235 C232 0.930 . S
O236 Li176 1.956 . S
O236 Li177 1.970 1_455 S
O236 Li178 1.961 . S
O236 C180 1.325 . S
O237 Li176 1.970 1_655 S
O237 Li177 1.956 . S
O237 Li179 1.961 . S
O237 C186 1.325 . S
O238 Li176 1.961 . S
O238 Li178 1.956 . S
O238 Li179 1.970 1_455 S
O238 C208 1.325 . S
O239 Li177 1.961 . S
O239 Li178 1.970 1_655 S
O239 Li179 1.956 . S
O239 C214 1.325 . S
H240 C182 0.929 . S
H241 C183 0.930 . S
H242 C184 0.930 1_655 S
H243 C185 0.930 . S
H244 C187 0.930 . S
H245 C189 0.929 . S
H246 C190 0.930 . S
H247 C191 0.930 . S
H248 C194 0.930 . S
H249 C197 0.929 . S
H250 C202 0.929 . S
H251 C203 0.930 . S
H252 C210 0.929 . S
H253 C211 0.930 . S
H254 C212 0.930 . S
H255 C213 0.930 . S
H256 C215 0.929 . S
H257 C216 0.930 . S
H258 C217 0.930 1_455 S
H259 C218 0.930 . S
H260 C222 0.929 . S
H261 C224 0.930 . S
H262 C230 0.929 . S
H263 C231 0.930 . S
Li264 N281 1.990 . S
Li264 O324 1.956 . S
Li264 O325 1.970 1_545 S
Li264 O326 1.961 . S
Li265 N289 1.990 . S
Li265 O324 1.970 1_565 S
Li265 O325 1.956 . S
Li265 O327 1.961 . S
Li266 N311 1.990 . S
Li266 O324 1.961 . S
Li266 O326 1.956 . S
Li266 O327 1.970 1_545 S
Li267 N317 1.990 . S
Li267 O325 1.961 . S
Li267 O326 1.970 1_565 S
Li267 O327 1.956 . S
C268 C270 1.348 1_545 S
C268 C271 1.356 . S
C268 O324 1.325 . S
N269 C272 1.314 . S
N269 C273 1.279 . S
C270 C268 1.348 1_565 S
C270 C272 1.353 1_565 S
C270 H328 0.929 . S
C271 C268 1.356 . S
C271 C273 1.358 . S
C271 H329 0.930 . S
C272 N269 1.314 . S
C272 C270 1.353 1_545 S
C272 H330 0.930 1_545 S
C273 N269 1.279 . S
C273 C271 1.358 . S
C273 H331 0.930 . S
C274 C277 1.348 . S
C274 C278 1.356 . S
C274 O325 1.325 . S
C275 N276 1.279 . S
C275 C278 1.358 . S
C275 H332 0.930 . S
N276 C275 1.279 . S
N276 C279 1.314 . S
C277 C274 1.348 . S
C277 C279 1.353 . S
C277 H333 0.929 . S
C278 C274 1.356 . S
C278 C275 1.358 . S
C278 H334 0.930 . S
C279 N276 1.314 . S
C279 C277 1.353 . S
C279 H335 0.930 . S
C280 N281 1.314 . S
C280 C285 1.353 . S
C280 H286 0.930 . S
N281 Li264 1.990 . S
N281 C280 1.314 . S
N281 C283 1.279 . S
C282 C283 1.358 . S
C282 C284 1.356 . S
C282 H336 0.930 . S
C283 N281 1.279 . S
C283 C282 1.358 . S
C283 H287 0.930 . S
C284 C282 1.356 . S
C284 C285 1.348 . S
C285 C280 1.353 . S
C285 C284 1.348 . S
C285 H337 0.929 . S
H286 C280 0.930 . S
H287 C283 0.930 . S
C288 N289 1.314 . S
C288 C290 1.353 . S
C288 H294 0.930 . S
N289 Li265 1.990 . S
N289 C288 1.314 . S
N289 C292 1.279 . S
C290 C288 1.353 . S
C290 C293 1.348 . S
C290 H338 0.929 . S
C291 C292 1.358 . S
C291 C293 1.356 . S
C291 H339 0.930 . S
C292 N289 1.279 . S
C292 C291 1.358 . S
C292 H295 0.930 . S
C293 C290 1.348 . S
C293 C291 1.356 . S
H294 C288 0.930 . S
H295 C292 0.930 . S
C296 C298 1.348 . S
C296 C299 1.356 . S
C296 O326 1.325 . S
N297 C300 1.314 . S
N297 C301 1.279 . S
C298 C296 1.348 . S
C298 C300 1.353 . S
C298 H340 0.929 . S
C299 C296 1.356 . S
C299 C301 1.358 . S
C299 H341 0.930 . S
C300 N297 1.314 . S
C300 C298 1.353 . S
C300 H342 0.930 . S
C301 N297 1.279 . S
C301 C299 1.358 . S
C301 H343 0.930 . S
C302 C303 1.348 1_565 S
C302 C304 1.356 . S
C302 O327 1.325 . S
C303 C302 1.348 1_545 S
C303 C305 1.353 1_545 S
C303 H344 0.929 . S
C304 C302 1.356 . S
C304 C306 1.358 . S
C304 H345 0.930 . S
C305 C303 1.353 1_565 S
C305 N307 1.314 . S
C305 H346 0.930 1_565 S
C306 C304 1.358 . S
C306 N307 1.279 . S
C306 H347 0.930 . S
N307 C305 1.314 . S
N307 C306 1.279 . S
C308 C310 1.353 . S
C308 N311 1.314 . S
C308 H314 0.930 . S
C309 N311 1.279 . S
C309 C312 1.358 . S
C309 H315 0.930 . S
C310 C308 1.353 . S
C310 C313 1.348 . S
C310 H348 0.929 . S
N311 Li266 1.990 . S
N311 C308 1.314 . S
N311 C309 1.279 . S
C312 C309 1.358 . S
C312 C313 1.356 . S
C312 H349 0.930 . S
C313 C310 1.348 . S
C313 C312 1.356 . S
H314 C308 0.930 . S
H315 C309 0.930 . S
C316 N317 1.314 . S
C316 C318 1.353 . S
C316 H322 0.930 . S
N317 Li267 1.990 . S
N317 C316 1.314 . S
N317 C320 1.279 . S
C318 C316 1.353 . S
C318 C321 1.348 . S
C318 H350 0.929 . S
C319 C320 1.358 . S
C319 C321 1.356 . S
C319 H351 0.930 . S
C320 N317 1.279 . S
C320 C319 1.358 . S
C320 H323 0.930 . S
C321 C318 1.348 . S
C321 C319 1.356 . S
H322 C316 0.930 . S
H323 C320 0.930 . S
O324 Li264 1.956 . S
O324 Li265 1.970 1_545 S
O324 Li266 1.961 . S
O324 C268 1.325 . S
O325 Li264 1.970 1_565 S
O325 Li265 1.956 . S
O325 Li267 1.961 . S
O325 C274 1.325 . S
O326 Li264 1.961 . S
O326 Li266 1.956 . S
O326 Li267 1.970 1_545 S
O326 C296 1.325 . S
O327 Li265 1.961 . S
O327 Li266 1.970 1_565 S
O327 Li267 1.956 . S
O327 C302 1.325 . S
H328 C270 0.929 . S
H329 C271 0.930 . S
H330 C272 0.930 1_565 S
H331 C273 0.930 . S
H332 C275 0.930 . S
H333 C277 0.929 . S
H334 C278 0.930 . S
H335 C279 0.930 . S
H336 C282 0.930 . S
H337 C285 0.929 . S
H338 C290 0.929 . S
H339 C291 0.930 . S
H340 C298 0.929 . S
H341 C299 0.930 . S
H342 C300 0.930 . S
H343 C301 0.930 . S
H344 C303 0.929 . S
H345 C304 0.930 . S
H346 C305 0.930 1_545 S
H347 C306 0.930 . S
H348 C310 0.929 . S
H349 C312 0.930 . S
H350 C318 0.929 . S
H351 C319 0.930 . S
C352 C353 1.387 . S
C352 H356 0.950 1_655 S
C352 C361 1.390 . S
C353 C352 1.387 . S
C353 C355 1.387 . S
H354 C361 0.950 1_455 S
C355 C353 1.387 . S
C355 C357 1.390 . S
C355 H359 0.950 . S
H356 C352 0.950 1_455 S
C357 C355 1.390 . S
C357 C358 1.387 . S
C357 H360 0.950 . S
C358 C357 1.387 . S
C358 C361 1.387 . S
H359 C355 0.950 . S
H360 C357 0.950 . S
C361 C352 1.390 . S
C361 H354 0.950 1_655 S
C361 C358 1.387 . S
C362 C363 1.387 . S
C362 H366 0.950 . S
C362 C371 1.390 . S
C363 C362 1.387 . S
C363 C365 1.387 . S
H364 C371 0.950 . S
C365 C363 1.387 . S
C365 C367 1.390 . S
C365 H369 0.950 1_565 S
H366 C362 0.950 . S
C367 C365 1.390 . S
C367 C368 1.387 . S
C367 H370 0.950 1_565 S
C368 C367 1.387 . S
C368 C371 1.387 . S
H369 C365 0.950 1_545 S
H370 C367 0.950 1_545 S
C371 C362 1.390 . S
C371 H364 0.950 . S
C371 C368 1.387 . S
C372 C373 1.387 . S
C372 H376 0.950 . S
C372 C381 1.390 . S
C373 C372 1.387 . S
C373 C375 1.387 . S
H374 C381 0.950 . S
C375 C373 1.387 . S
C375 C377 1.390 . S
C375 H379 0.950 1_455 S
H376 C372 0.950 . S
C377 C375 1.390 . S
C377 C378 1.387 . S
C377 H380 0.950 1_455 S
C378 C377 1.387 . S
C378 C381 1.387 . S
H379 C375 0.950 1_655 S
H380 C377 0.950 1_655 S
C381 C372 1.390 . S
C381 H374 0.950 . S
C381 C378 1.387 . S
C382 C383 1.387 . S
C382 H386 0.950 1_545 S
C382 C391 1.390 1_554 S
C383 C382 1.387 . S
C383 C385 1.387 . S
H384 C391 0.950 1_565 S
C385 C383 1.387 . S
C385 C387 1.390 1_554 S
C385 H389 0.950 . S
H386 C382 0.950 1_565 S
C387 C385 1.390 1_556 S
C387 C388 1.387 . S
C387 H390 0.950 . S
C388 C387 1.387 . S
C388 C391 1.387 . S
H389 C385 0.950 . S
H390 C387 0.950 . S
C391 C382 1.390 1_556 S
C391 H384 0.950 1_545 S
C391 C388 1.387 . S
C392 C393 1.387 . S
C392 H396 0.950 . S
C392 C401 1.390 . S
C393 C392 1.387 . S
C393 C395 1.387 . S
H394 C401 0.950 . S
C395 C393 1.387 . S
C395 C397 1.390 . S
C395 H399 0.950 . S
H396 C392 0.950 . S
C397 C395 1.390 . S
C397 C398 1.387 . S
C397 H400 0.950 . S
C398 C397 1.387 . S
C398 C401 1.387 . S
H399 C395 0.950 . S
H400 C397 0.950 . S
C401 C392 1.390 . S
C401 H394 0.950 . S
C401 C398 1.387 . S
C402 C403 1.387 . S
C402 H406 0.950 . S
C402 C411 1.390 . S
C403 C402 1.387 . S
C403 C405 1.387 . S
H404 C411 0.950 . S
C405 C403 1.387 . S
C405 C407 1.390 . S
C405 H409 0.950 . S
H406 C402 0.950 . S
C407 C405 1.390 . S
C407 C408 1.387 . S
C407 H410 0.950 . S
C408 C407 1.387 . S
C408 C411 1.387 . S
H409 C405 0.950 . S
H410 C407 0.950 . S
C411 C402 1.390 . S
C411 H404 0.950 . S
C411 C408 1.387 . S
C412 C413 1.387 . S
C412 H416 0.950 . S
C412 C421 1.390 . S
C413 C412 1.387 . S
C413 C415 1.387 . S
H414 C421 0.950 . S
C415 C413 1.387 . S
C415 C417 1.390 . S
C415 H419 0.950 . S
H416 C412 0.950 . S
C417 C415 1.390 . S
C417 C418 1.387 . S
C417 H420 0.950 . S
C418 C417 1.387 . S
C418 C421 1.387 . S
H419 C415 0.950 . S
H420 C417 0.950 . S
C421 C412 1.390 . S
C421 H414 0.950 . S
C421 C418 1.387 . S
C422 C423 1.387 . S
C422 H426 0.950 . S
C422 C431 1.390 . S
C423 C422 1.387 . S
C423 C425 1.387 . S
H424 C431 0.950 . S
C425 C423 1.387 . S
C425 C427 1.390 . S
C425 H429 0.950 . S
H426 C422 0.950 . S
C427 C425 1.390 . S
C427 C428 1.387 . S
C427 H430 0.950 . S
C428 C427 1.387 . S
C428 C431 1.387 . S
H429 C425 0.950 . S
H430 C427 0.950 . S
C431 C422 1.390 . S
C431 H424 0.950 . S
C431 C428 1.387 . S
C353 C29 1.031 . S
C358 C233 1.029 . S
C363 C108 1.033 . S
C368 C321 1.033 . S
C373 C49 1.033 . S
C378 C196 1.035 . S
C383 C145 1.031 . S
C388 C284 1.031 . S
C393 C137 1.750 . S
C398 C20 1.749 . S
C403 C117 1.748 . S
C408 C225 1.744 . S
C413 C313 1.748 . S
C418 C205 1.748 . S
C423 C293 1.748 . S
C428 C57 1.753 . S
