# Generated by pormake.
# Topology ukm, (4)-cn, num edge types: 1
# Building blocks:
#     Node 0, Type 0, BuildingBlock: TATPOV_clean_sbu_0, # of connection points: 4
#     Node 1, Type 0, BuildingBlock: TATPOV_clean_sbu_0, # of connection points: 4
#     Node 2, Type 0, BuildingBlock: TATPOV_clean_sbu_0, # of connection points: 4
#     Node 3, Type 0, BuildingBlock: TATPOV_clean_sbu_0, # of connection points: 4
#     Node 4, Type 0, BuildingBlock: TATPOV_clean_sbu_0, # of connection points: 4
#     Node 5, Type 0, BuildingBlock: TATPOV_clean_sbu_0, # of connection points: 4
#     Node 6, Type 0, BuildingBlock: TATPOV_clean_sbu_0, # of connection points: 4
#     Node 7, Type 0, BuildingBlock: TATPOV_clean_sbu_0, # of connection points: 4
#     Node 8, Type 0, BuildingBlock: TATPOV_clean_sbu_0, # of connection points: 4
#     Node 9, Type 0, BuildingBlock: TATPOV_clean_sbu_0, # of connection points: 4
#     Node 10, Type 0, BuildingBlock: TATPOV_clean_sbu_0, # of connection points: 4
#     Node 11, Type 0, BuildingBlock: TATPOV_clean_sbu_0, # of connection points: 4
#     Node 12, Type 0, BuildingBlock: TATPOV_clean_sbu_0, # of connection points: 4
#     Node 13, Type 0, BuildingBlock: TATPOV_clean_sbu_0, # of connection points: 4
#     Node 14, Type 0, BuildingBlock: TATPOV_clean_sbu_0, # of connection points: 4
#     Node 15, Type 0, BuildingBlock: TATPOV_clean_sbu_0, # of connection points: 4
#     Node 16, Type 0, BuildingBlock: TATPOV_clean_sbu_0, # of connection points: 4
#     Node 17, Type 0, BuildingBlock: TATPOV_clean_sbu_0, # of connection points: 4
#     Node 18, Type 0, BuildingBlock: TATPOV_clean_sbu_0, # of connection points: 4
#     Node 19, Type 0, BuildingBlock: TATPOV_clean_sbu_0, # of connection points: 4
#     Node 20, Type 0, BuildingBlock: TATPOV_clean_sbu_0, # of connection points: 4
#     Node 21, Type 0, BuildingBlock: TATPOV_clean_sbu_0, # of connection points: 4
#     Node 22, Type 0, BuildingBlock: TATPOV_clean_sbu_0, # of connection points: 4
#     Node 23, Type 0, BuildingBlock: TATPOV_clean_sbu_0, # of connection points: 4
#     Node 24, Type 0, BuildingBlock: TATPOV_clean_sbu_0, # of connection points: 4
#     Node 25, Type 0, BuildingBlock: TATPOV_clean_sbu_0, # of connection points: 4
#     Node 26, Type 0, BuildingBlock: TATPOV_clean_sbu_0, # of connection points: 4
#     Node 27, Type 0, BuildingBlock: TATPOV_clean_sbu_0, # of connection points: 4
#     Node 28, Type 0, BuildingBlock: TATPOV_clean_sbu_0, # of connection points: 4
#     Node 29, Type 0, BuildingBlock: TATPOV_clean_sbu_0, # of connection points: 4
#     Node 30, Type 0, BuildingBlock: TATPOV_clean_sbu_0, # of connection points: 4
#     Node 31, Type 0, BuildingBlock: TATPOV_clean_sbu_0, # of connection points: 4
#     Edge 32, Type (0, 0), BuildingBlock: AJUNOK_clean_linker_0, # of connection points: 2
#     Edge 33, Type (0, 0), BuildingBlock: AJUNOK_clean_linker_0, # of connection points: 2
#     Edge 34, Type (0, 0), BuildingBlock: AJUNOK_clean_linker_0, # of connection points: 2
#     Edge 35, Type (0, 0), BuildingBlock: AJUNOK_clean_linker_0, # of connection points: 2
#     Edge 36, Type (0, 0), BuildingBlock: AJUNOK_clean_linker_0, # of connection points: 2
#     Edge 37, Type (0, 0), BuildingBlock: AJUNOK_clean_linker_0, # of connection points: 2
#     Edge 38, Type (0, 0), BuildingBlock: AJUNOK_clean_linker_0, # of connection points: 2
#     Edge 39, Type (0, 0), BuildingBlock: AJUNOK_clean_linker_0, # of connection points: 2
#     Edge 40, Type (0, 0), BuildingBlock: AJUNOK_clean_linker_0, # of connection points: 2
#     Edge 41, Type (0, 0), BuildingBlock: AJUNOK_clean_linker_0, # of connection points: 2
#     Edge 42, Type (0, 0), BuildingBlock: AJUNOK_clean_linker_0, # of connection points: 2
#     Edge 43, Type (0, 0), BuildingBlock: AJUNOK_clean_linker_0, # of connection points: 2
#     Edge 44, Type (0, 0), BuildingBlock: AJUNOK_clean_linker_0, # of connection points: 2
#     Edge 45, Type (0, 0), BuildingBlock: AJUNOK_clean_linker_0, # of connection points: 2
#     Edge 46, Type (0, 0), BuildingBlock: AJUNOK_clean_linker_0, # of connection points: 2
#     Edge 47, Type (0, 0), BuildingBlock: AJUNOK_clean_linker_0, # of connection points: 2
#     Edge 48, Type (0, 0), BuildingBlock: AJUNOK_clean_linker_0, # of connection points: 2
#     Edge 49, Type (0, 0), BuildingBlock: AJUNOK_clean_linker_0, # of connection points: 2
#     Edge 50, Type (0, 0), BuildingBlock: AJUNOK_clean_linker_0, # of connection points: 2
#     Edge 51, Type (0, 0), BuildingBlock: AJUNOK_clean_linker_0, # of connection points: 2
#     Edge 52, Type (0, 0), BuildingBlock: AJUNOK_clean_linker_0, # of connection points: 2
#     Edge 53, Type (0, 0), BuildingBlock: AJUNOK_clean_linker_0, # of connection points: 2
#     Edge 54, Type (0, 0), BuildingBlock: AJUNOK_clean_linker_0, # of connection points: 2
#     Edge 55, Type (0, 0), BuildingBlock: AJUNOK_clean_linker_0, # of connection points: 2
#     Edge 56, Type (0, 0), BuildingBlock: AJUNOK_clean_linker_0, # of connection points: 2
#     Edge 57, Type (0, 0), BuildingBlock: AJUNOK_clean_linker_0, # of connection points: 2
#     Edge 58, Type (0, 0), BuildingBlock: AJUNOK_clean_linker_0, # of connection points: 2
#     Edge 59, Type (0, 0), BuildingBlock: AJUNOK_clean_linker_0, # of connection points: 2
#     Edge 60, Type (0, 0), BuildingBlock: AJUNOK_clean_linker_0, # of connection points: 2
#     Edge 61, Type (0, 0), BuildingBlock: AJUNOK_clean_linker_0, # of connection points: 2
#     Edge 62, Type (0, 0), BuildingBlock: AJUNOK_clean_linker_0, # of connection points: 2
#     Edge 63, Type (0, 0), BuildingBlock: AJUNOK_clean_linker_0, # of connection points: 2
#     Edge 64, Type (0, 0), BuildingBlock: AJUNOK_clean_linker_0, # of connection points: 2
#     Edge 65, Type (0, 0), BuildingBlock: AJUNOK_clean_linker_0, # of connection points: 2
#     Edge 66, Type (0, 0), BuildingBlock: AJUNOK_clean_linker_0, # of connection points: 2
#     Edge 67, Type (0, 0), BuildingBlock: AJUNOK_clean_linker_0, # of connection points: 2
#     Edge 68, Type (0, 0), BuildingBlock: AJUNOK_clean_linker_0, # of connection points: 2
#     Edge 69, Type (0, 0), BuildingBlock: AJUNOK_clean_linker_0, # of connection points: 2
#     Edge 70, Type (0, 0), BuildingBlock: AJUNOK_clean_linker_0, # of connection points: 2
#     Edge 71, Type (0, 0), BuildingBlock: AJUNOK_clean_linker_0, # of connection points: 2
#     Edge 72, Type (0, 0), BuildingBlock: AJUNOK_clean_linker_0, # of connection points: 2
#     Edge 73, Type (0, 0), BuildingBlock: AJUNOK_clean_linker_0, # of connection points: 2
#     Edge 74, Type (0, 0), BuildingBlock: AJUNOK_clean_linker_0, # of connection points: 2
#     Edge 75, Type (0, 0), BuildingBlock: AJUNOK_clean_linker_0, # of connection points: 2
#     Edge 76, Type (0, 0), BuildingBlock: AJUNOK_clean_linker_0, # of connection points: 2
#     Edge 77, Type (0, 0), BuildingBlock: AJUNOK_clean_linker_0, # of connection points: 2
#     Edge 78, Type (0, 0), BuildingBlock: AJUNOK_clean_linker_0, # of connection points: 2
#     Edge 79, Type (0, 0), BuildingBlock: AJUNOK_clean_linker_0, # of connection points: 2
#     Edge 80, Type (0, 0), BuildingBlock: AJUNOK_clean_linker_0, # of connection points: 2
#     Edge 81, Type (0, 0), BuildingBlock: AJUNOK_clean_linker_0, # of connection points: 2
#     Edge 82, Type (0, 0), BuildingBlock: AJUNOK_clean_linker_0, # of connection points: 2
#     Edge 83, Type (0, 0), BuildingBlock: AJUNOK_clean_linker_0, # of connection points: 2
#     Edge 84, Type (0, 0), BuildingBlock: AJUNOK_clean_linker_0, # of connection points: 2
#     Edge 85, Type (0, 0), BuildingBlock: AJUNOK_clean_linker_0, # of connection points: 2
#     Edge 86, Type (0, 0), BuildingBlock: AJUNOK_clean_linker_0, # of connection points: 2
#     Edge 87, Type (0, 0), BuildingBlock: AJUNOK_clean_linker_0, # of connection points: 2
#     Edge 88, Type (0, 0), BuildingBlock: AJUNOK_clean_linker_0, # of connection points: 2
#     Edge 89, Type (0, 0), BuildingBlock: AJUNOK_clean_linker_0, # of connection points: 2
#     Edge 90, Type (0, 0), BuildingBlock: AJUNOK_clean_linker_0, # of connection points: 2
#     Edge 91, Type (0, 0), BuildingBlock: AJUNOK_clean_linker_0, # of connection points: 2
#     Edge 92, Type (0, 0), BuildingBlock: AJUNOK_clean_linker_0, # of connection points: 2
#     Edge 93, Type (0, 0), BuildingBlock: AJUNOK_clean_linker_0, # of connection points: 2
#     Edge 94, Type (0, 0), BuildingBlock: AJUNOK_clean_linker_0, # of connection points: 2
#     Edge 95, Type (0, 0), BuildingBlock: AJUNOK_clean_linker_0, # of connection points: 2
# Relax obj value: 0.257
# Max RMSD: 0.205
# Mean RMSD: 0.204
data_MOF--net-ukm--node1-TATPOV_clean_sbu_0--edge1-AJUNOK_clean_linker_0
_symmetry_space_group_name_H-M    P1
_symmetry_Int_Tables_number       1
_symmetry_cell_setting            triclinic
loop_
_symmetry_equiv_pos_as_xyz
'x, y, z'
_cell_length_a     21.903454
_cell_length_b     74.881876
_cell_length_c     27.382848
_cell_angle_alpha  90.120859
_cell_angle_beta   89.962884
_cell_angle_gamma 89.99921
loop_
_atom_site_label
_atom_site_type_symbol
_atom_site_fract_x
_atom_site_fract_y
_atom_site_fract_z
_atom_type_partial_charge
Zn0 Zn 0.0179 0.30059 0.2821 0.0
Zn1 Zn 0.13193 0.29095 0.28906 0.0
O2 O 0.08279 0.26791 0.26978 0.0
O3 O 0.98655 0.27631 0.26707 0.0
O4 O 0.21916 0.28337 0.30638 0.0
O5 O 0.01068 0.31199 0.34747 0.0
O6 O 0.10993 0.30869 0.34399 0.0
C7 C 0.0266 0.26435 0.26134 0.0
C8 C 0.09853 0.31578 0.2087 0.0
O9 O 0.13885 0.30595 0.22856 0.0
O10 O 0.04441 0.31606 0.22512 0.0
C11 C 0.26235 0.29469 0.30223 0.0
O12 O 0.24953 0.31064 0.28516 0.0
C13 C 0.06315 0.31592 0.36339 0.0
Zn14 Zn 0.27546 0.91989 0.27026 0.0
Zn15 Zn 0.13787 0.92293 0.30236 0.0
O16 O 0.1839 0.93877 0.35037 0.0
O17 O 0.27689 0.93167 0.3371 0.0
O18 O 0.04898 0.92269 0.32521 0.0
O19 O 0.25686 0.89346 0.27054 0.0
O20 O 0.16244 0.89651 0.29861 0.0
C21 C 0.23709 0.94385 0.33849 0.0
C22 C 0.18291 0.93692 0.20358 0.0
O23 O 0.14093 0.93348 0.23449 0.0
O24 O 0.23838 0.93297 0.21198 0.0
C25 C 0.01157 0.93549 0.31887 0.0
O26 O 0.03034 0.94983 0.29574 0.0
C27 C 0.20664 0.88666 0.28432 0.0
Zn28 Zn 0.99049 0.91917 0.95722 0.0
Zn29 Zn 0.11476 0.92564 0.90436 0.0
O30 O 0.0579 0.94485 0.87665 0.0
O31 O 0.97608 0.93018 0.89137 0.0
O32 O 0.19502 0.92732 0.86586 0.0
O33 O 0.01152 0.89323 0.95152 0.0
O34 O 0.09103 0.89887 0.90366 0.0
C35 C 1.00233 0.94513 0.88969 0.0
C36 C 0.09643 0.93668 0.00973 0.0
O37 O 0.13177 0.93346 0.97372 0.0
O38 O 0.03993 0.93282 0.00818 0.0
C39 C 0.24716 0.92543 0.88585 0.0
O40 O 0.24959 0.92251 0.9331 0.0
C41 C 0.05481 0.88784 0.92449 0.0
Zn42 Zn 0.23526 0.30702 0.93584 0.0
Zn43 Zn 0.11862 0.30127 0.92216 0.0
O44 O 0.15885 0.27696 0.93967 0.0
O45 O 0.25774 0.28138 0.94623 0.0
O46 O 0.03237 0.29566 0.89828 0.0
O47 O 0.2505 0.32081 0.87456 0.0
O48 O 0.15038 0.31994 0.87342 0.0
C49 C 0.21216 0.27108 0.94969 0.0
C50 C 0.15254 0.32155 0.01067 0.0
O51 O 0.11024 0.31424 -0.01419 0.0
O52 O 0.20748 0.32071 -0.00383 0.0
C53 C 0.9889 0.30669 0.90513 0.0
O54 O 1.00026 0.32153 0.92914 0.0
C55 C 0.20039 0.32645 0.85769 0.0
Zn56 Zn 0.95741 0.66109 0.68716 0.0
Zn57 Zn 0.84573 0.66625 0.67724 0.0
O58 O 0.8933 0.69072 0.67316 0.0
O59 O 0.99128 0.6847 0.66981 0.0
O60 O 0.75793 0.66972 0.65292 0.0
O61 O 0.97109 0.63931 0.64841 0.0
O62 O 0.87123 0.64131 0.64989 0.0
C63 C 0.9488 0.69609 0.67156 0.0
C64 C 0.88386 0.65847 0.77653 0.0
O65 O 0.83862 0.6621 0.74919 0.0
O66 O 0.93703 0.65739 0.7585 0.0
C67 C 0.73918 0.68191 0.62423 0.0
O68 O 0.7784 0.69388 0.6086 0.0
C69 C 0.91948 0.63228 0.64114 0.0
Zn70 Zn 0.7931 0.04412 0.66556 0.0
Zn71 Zn 0.90209 0.03767 0.66017 0.0
O72 O 0.85103 0.01347 0.65754 0.0
O73 O 0.75484 0.02125 0.65064 0.0
O74 O 0.99112 0.03347 0.63833 0.0
O75 O 0.78008 0.06494 0.62427 0.0
O76 O 0.87948 0.06281 0.63156 0.0
C77 C 0.79437 0.00913 0.65506 0.0
C78 C 0.86092 0.04741 0.75701 0.0
O79 O 0.90676 0.0426 0.73168 0.0
O80 O 0.80908 0.04906 0.73706 0.0
C81 C 0.02821 0.02279 0.65912 0.0
O82 O 0.00824 0.01286 0.69525 0.0
C83 C 0.83226 0.07188 0.6199 0.0
Zn84 Zn 0.95222 0.03083 0.05389 0.0
Zn85 Zn 0.84412 0.02842 0.05647 0.0
O86 O 0.88824 0.00416 0.03886 0.0
O87 O 0.98497 0.00632 0.05853 0.0
O88 O 0.76003 0.02371 0.0872 0.0
O89 O 0.97707 0.05052 0.09733 0.0
O90 O 0.87809 0.05232 0.08565 0.0
C91 C 0.94172 -0.00271 0.04049 0.0
C92 C 0.87959 0.04079 0.96495 0.0
O93 O 0.8319 0.037 -0.01076 0.0
O94 O 0.93203 0.03899 0.98413 0.0
C95 C 0.71016 0.02752 0.06552 0.0
O96 O 0.71264 0.03416 0.02121 0.0
C97 C 0.92837 0.05954 0.09874 0.0
Zn98 Zn 0.78866 0.68584 0.06701 0.0
Zn99 Zn 0.89509 0.69158 0.06358 0.0
O100 O 0.84229 0.71315 0.03783 0.0
O101 O 0.74769 0.7091 0.0615 0.0
O102 O 0.98021 0.69924 0.08482 0.0
O103 O 0.7748 0.66961 0.12255 0.0
O104 O 0.87175 0.66898 0.10339 0.0
C105 C 0.78644 0.71819 0.03816 0.0
C106 C 0.85988 0.67244 0.98063 0.0
O107 O 0.90654 0.67939 0.00062 0.0
O108 O 0.80785 0.67361 0.00102 0.0
C109 C 0.99589 0.69988 0.12954 0.0
O110 O 0.95437 0.69683 0.16313 0.0
C111 C 0.82558 0.66164 0.12342 0.0
Zn112 Zn 0.01353 0.80313 0.76226 0.0
Zn113 Zn 0.12655 0.79181 0.77632 0.0
O114 O 0.07666 0.7687 0.75914 0.0
O115 O 0.98317 0.77862 0.74737 0.0
O116 O 0.214 0.78454 0.79324 0.0
O117 O 0.00592 0.81453 0.82777 0.0
O118 O 0.1041 0.80896 0.83242 0.0
C119 C 0.02096 0.76586 0.74711 0.0
C120 C 0.09984 0.8166 0.69215 0.0
O121 O 0.13658 0.80648 0.71513 0.0
O122 O 0.04488 0.818 0.70602 0.0
C123 C 0.2281 0.7782 0.83484 0.0
O124 O 0.18435 0.77518 0.8666 0.0
C125 C 0.0567 0.81682 0.84877 0.0
Zn126 Zn 0.27439 0.43334 0.77228 0.0
Zn127 Zn 0.13864 0.43689 0.80702 0.0
O128 O 0.18463 0.45736 0.84046 0.0
O129 O 0.27814 0.45032 0.83049 0.0
O130 O 0.05241 0.43711 0.83621 0.0
O131 O 0.26292 0.40729 0.78747 0.0
O132 O 0.16857 0.41092 0.81496 0.0
C133 C 0.23686 0.4619 0.82472 0.0
C134 C 0.17279 0.44309 0.70112 0.0
O135 O 0.13283 0.44188 0.73485 0.0
O136 O 0.22914 0.44051 0.70978 0.0
C137 C 0.00639 0.44479 0.81707 0.0
O138 O 0.01357 0.45322 0.77544 0.0
C139 C 0.2141 0.40084 0.80498 0.0
Zn140 Zn 0.9957 0.42243 0.43862 0.0
Zn141 Zn 0.12939 0.42668 0.39955 0.0
O142 O 0.08062 0.44575 0.36264 0.0
O143 O 0.99296 0.4336 0.37166 0.0
O144 O 0.21678 0.42709 0.37185 0.0
O145 O 0.01504 0.39628 0.43644 0.0
O146 O 0.10352 0.40009 0.39837 0.0
C147 C 0.0243 0.44772 0.37202 0.0
C148 C 0.09391 0.43833 0.5024 0.0
O149 O 0.13377 0.43473 0.46986 0.0
O150 O 0.03744 0.43539 0.49514 0.0
C151 C 0.25878 0.43796 0.38447 0.0
O152 O 0.24643 0.4502 0.41745 0.0
C153 C 0.0622 0.38987 0.41597 0.0
Zn154 Zn 0.24149 0.79842 0.42437 0.0
Zn155 Zn 0.12198 0.79184 0.41413 0.0
O156 O 0.16038 0.76726 0.43148 0.0
O157 O 0.25879 0.77272 0.4386 0.0
O158 O 0.03141 0.78805 0.40077 0.0
O159 O 0.24912 0.80949 0.35826 0.0
O160 O 0.14931 0.80744 0.35694 0.0
C161 C 0.21437 0.76199 0.44179 0.0
C162 C 0.16488 0.81559 0.49639 0.0
O163 O 0.12246 0.8072 0.47442 0.0
O164 O 0.21965 0.81435 0.48181 0.0
C165 C 0.0107 0.77945 0.36424 0.0
O166 O 0.04935 0.77142 0.33478 0.0
C167 C 0.19859 0.81359 0.33894 0.0
Zn168 Zn 0.96962 0.16391 0.1545 0.0
Zn169 Zn 0.85699 0.16836 0.15291 0.0
O170 O 0.90312 0.19281 0.16066 0.0
O171 O 1.00112 0.18863 0.14837 0.0
O172 O 0.76966 0.17295 0.12809 0.0
O173 O 0.98374 0.14458 0.10625 0.0
O174 O 0.88495 0.14496 0.11889 0.0
C175 C 0.95758 0.19899 0.15923 0.0
C176 C 0.90012 0.15515 0.24464 0.0
O177 O 0.85251 0.16012 0.22179 0.0
O178 O 0.95201 0.15566 0.22402 0.0
C179 C 0.72303 0.17475 0.15562 0.0
O180 O 0.73082 0.17447 0.20316 0.0
C181 C 0.93246 0.13694 0.10311 0.0
Zn182 Zn 0.81441 0.55486 0.16641 0.0
Zn183 Zn 0.92304 0.55291 0.16589 0.0
O184 O 0.87943 0.52786 0.17408 0.0
O185 O 0.78274 0.53061 0.15489 0.0
O186 O 0.01003 0.55005 0.13959 0.0
O187 O 0.79179 0.57503 0.12475 0.0
O188 O 0.88983 0.57721 0.13917 0.0
C189 C 0.82616 0.52096 0.1698 0.0
C190 C 0.88231 0.56223 0.25949 0.0
O191 O 0.93107 0.55934 0.23553 0.0
O192 O 0.83088 0.56105 0.23831 0.0
C193 C 0.04578 0.53717 0.14983 0.0
O194 O 0.02573 0.52422 0.17786 0.0
C195 C 0.83978 0.58434 0.1253 0.0
Zn196 Zn 0.95434 0.53336 0.54866 0.0
Zn197 Zn 0.84565 0.52787 0.54245 0.0
O198 O 0.89436 0.5047 0.52058 0.0
O199 O 0.98998 0.50949 0.54026 0.0
O200 O 0.75758 0.52242 0.56148 0.0
O201 O 0.96629 0.54788 0.60835 0.0
O202 O 0.86982 0.54893 0.58813 0.0
C203 C 0.95026 0.49962 0.52059 0.0
C204 C 0.88891 0.54862 0.46311 0.0
O205 O 0.84154 0.54098 0.47993 0.0
O206 O 0.93954 0.54732 0.48541 0.0
C207 C 0.7224 0.51003 0.54669 0.0
O208 O 0.74379 0.4979 0.51646 0.0
C209 C 0.91506 0.55557 0.6111 0.0
Zn210 Zn 0.8046 0.17217 0.53388 0.0
Zn211 Zn 0.91331 0.17781 0.53703 0.0
O212 O 0.86519 0.20075 0.51536 0.0
O213 O 0.7672 0.19589 0.52564 0.0
O214 O 0.99461 0.18508 0.56753 0.0
O215 O 0.78686 0.1564 0.58991 0.0
O216 O 0.88541 0.15579 0.57708 0.0
C217 C 0.80981 0.20599 0.51147 0.0
C218 C 0.88225 0.15918 0.451 0.0
O219 O 0.92753 0.16624 0.47282 0.0
O220 O 0.82945 0.15989 0.47008 0.0
C221 C 0.04591 0.18447 0.54566 0.0
O222 O 0.04724 0.17985 0.49937 0.0
C223 C 0.83776 0.14873 0.59551 0.0
Zn224 Zn 0.50431 0.31515 0.7765 0.0
Zn225 Zn 0.61891 0.3108 0.80351 0.0
O226 O 0.57531 0.28648 0.80779 0.0
O227 O 0.47711 0.29079 0.79674 0.0
O228 O 0.70185 0.3085 0.83657 0.0
O229 O 0.48774 0.33781 0.8125 0.0
O230 O 0.58563 0.33482 0.82814 0.0
C231 C 0.52141 0.28022 0.80332 0.0
C232 C 0.59741 0.3154 0.6988 0.0
O233 O 0.63651 0.31348 0.73261 0.0
O234 O 0.54103 0.31665 0.70885 0.0
C235 C 0.74467 0.29844 0.82119 0.0
O236 O 0.73457 0.28825 0.78294 0.0
C237 C 0.53681 0.34407 0.82966 0.0
Zn238 Zn 0.72423 0.90503 0.76062 0.0
Zn239 Zn 0.61158 0.91595 0.77426 0.0
O240 O 0.66075 0.93861 0.75284 0.0
O241 O 0.75464 0.929 0.74092 0.0
O242 O 0.52745 0.92371 0.79942 0.0
O243 O 0.73725 0.89501 0.82702 0.0
O244 O 0.63847 0.89932 0.82958 0.0
C245 C 0.71584 0.94148 0.7392 0.0
C246 C 0.63509 0.88997 0.69332 0.0
O247 O 0.59794 0.90055 0.71451 0.0
O248 O 0.69001 0.88896 0.70768 0.0
C249 C 0.47703 0.92266 0.77637 0.0
O250 O 0.47758 0.91761 0.73042 0.0
C251 C 0.68634 0.89224 0.84735 0.0
Zn252 Zn 0.52498 0.91199 0.42399 0.0
Zn253 Zn 0.64467 0.91727 0.42369 0.0
O254 O 0.60751 0.94121 0.44772 0.0
O255 O 0.50816 0.9368 0.44704 0.0
O256 O 0.73605 0.92106 0.41323 0.0
O257 O 0.52022 0.90408 0.35434 0.0
O258 O 0.61984 0.90432 0.36101 0.0
C259 C 0.55343 0.94662 0.45719 0.0
C260 C 0.59103 0.89134 0.49594 0.0
O261 O 0.63714 0.89981 0.47949 0.0
O262 O 0.53883 0.89357 0.47698 0.0
C263 C 0.75582 0.93193 0.38121 0.0
O264 O 0.71628 0.94181 0.35737 0.0
C265 C 0.57205 0.89988 0.33753 0.0
Zn266 Zn 0.74223 0.30211 0.41023 0.0
Zn267 Zn 0.6346 0.29735 0.39712 0.0
O268 O 0.68455 0.2734 0.39988 0.0
O269 O 0.78205 0.27946 0.39207 0.0
O270 O 0.55314 0.29428 0.36162 0.0
O271 O 0.76298 0.32519 0.38018 0.0
O272 O 0.66322 0.32344 0.38425 0.0
C273 C 0.74011 0.26812 0.39817 0.0
C274 C 0.65816 0.30337 0.49641 0.0
O275 O 0.6148 0.30017 0.46684 0.0
O276 O 0.71277 0.30438 0.48108 0.0
C277 C 0.50998 0.28439 0.3772 0.0
O278 O 0.51942 0.27461 0.41623 0.0
C279 C 0.7115 0.3328 0.37933 0.0
Zn280 Zn 0.49706 0.6798 0.1782 0.0
Zn281 Zn 0.38087 0.68787 0.16725 0.0
O282 O 0.42316 0.71088 0.19281 0.0
O283 O 0.52092 0.70449 0.19749 0.0
O284 O 0.29326 0.69453 0.15037 0.0
O285 O 0.50827 0.66961 0.1115 0.0
O286 O 0.40863 0.67249 0.109 0.0
C287 C 0.47753 0.71535 0.20449 0.0
C288 C 0.4147 0.66208 0.24576 0.0
O289 O 0.37376 0.67118 0.22422 0.0
O290 O 0.47011 0.66324 0.23272 0.0
C291 C 0.25415 0.69876 0.18282 0.0
O292 O 0.27188 0.69969 0.22857 0.0
C293 C 0.45785 0.66617 0.09112 0.0
Zn294 Zn 0.23926 0.03962 0.20886 0.0
Zn295 Zn 0.34511 0.03523 0.17688 0.0
O296 O 0.30593 0.01044 0.1937 0.0
O297 O 0.20866 0.01477 0.2086 0.0
O298 O 0.4245 0.03101 0.13914 0.0
O299 O 0.20677 0.05862 0.16671 0.0
O300 O 0.30409 0.05798 0.14767 0.0
C301 C 0.25372 0.00426 0.20611 0.0
C302 C 0.339 0.04895 0.27571 0.0
O303 O 0.37378 0.04405 0.24118 0.0
O304 O 0.2815 0.04817 0.27064 0.0
C305 C 0.47068 0.02434 0.16085 0.0
O306 O 0.46434 0.01908 0.2063 0.0
C307 C 0.25238 0.06592 0.14686 0.0
Zn308 Zn 0.5133 0.04788 0.55099 0.0
Zn309 Zn 0.40255 0.04223 0.57241 0.0
O310 O 0.44925 0.01768 0.56795 0.0
O311 O 0.5469 0.02391 0.56122 0.0
O312 O 0.31503 0.03851 0.59872 0.0
O313 O 0.53358 0.06813 0.59332 0.0
O314 O 0.43408 0.0662 0.60221 0.0
C315 C 0.50464 0.01248 0.56271 0.0
C316 C 0.42778 0.05303 0.47145 0.0
O317 O 0.38805 0.04854 0.50294 0.0
O318 O 0.48375 0.05373 0.48287 0.0
C319 C 0.28862 0.02367 0.60745 0.0
O320 O 0.31954 0.00878 0.60171 0.0
C321 C 0.48386 0.07492 0.6074 0.0
Zn322 Zn 0.25432 0.65572 0.51558 0.0
Zn323 Zn 0.36534 0.66266 0.54019 0.0
O324 O 0.31957 0.68719 0.53443 0.0
O325 O 0.22366 0.68052 0.51912 0.0
O326 O 0.44996 0.66755 0.56932 0.0
O327 O 0.23572 0.63768 0.56572 0.0
O328 O 0.33415 0.64055 0.57862 0.0
C329 C 0.26482 0.69213 0.52514 0.0
C330 C 0.34401 0.64844 0.44006 0.0
O331 O 0.38188 0.65445 0.47129 0.0
O332 O 0.28789 0.64732 0.4508 0.0
C333 C 0.4869 0.6791 0.55218 0.0
O334 O 0.46931 0.68886 0.51494 0.0
C335 C 0.28414 0.63217 0.58562 0.0
Zn336 Zn 0.48798 0.79546 0.2696 0.0
Zn337 Zn 0.62595 0.79165 0.30136 0.0
O338 O 0.58151 0.77614 0.35125 0.0
O339 O 0.49264 0.7869 0.33969 0.0
O340 O 0.71569 0.79147 0.32161 0.0
O341 O 0.50991 0.82145 0.26325 0.0
O342 O 0.60231 0.81819 0.29517 0.0
C343 C 0.52567 0.77315 0.34248 0.0
C344 C 0.57788 0.77614 0.205 0.0
O345 O 0.62069 0.78017 0.23458 0.0
O346 O 0.52273 0.78035 0.21388 0.0
C347 C 0.75135 0.77845 0.31244 0.0
O348 O 0.72975 0.76456 0.2887 0.0
C349 C 0.55987 0.82811 0.27799 0.0
Zn350 Zn 0.75743 0.42558 0.32032 0.0
Zn351 Zn 0.64289 0.43386 0.31366 0.0
O352 O 0.69326 0.45647 0.29221 0.0
O353 O 0.78992 0.449 0.3004 0.0
O354 O 0.5529 0.44047 0.32705 0.0
O355 O 0.75901 0.41693 0.38914 0.0
O356 O 0.66396 0.41551 0.36602 0.0
C357 C 0.75006 0.46019 0.28731 0.0
C358 C 0.68808 0.40732 0.24342 0.0
O359 O 0.64479 0.41784 0.25533 0.0
O360 O 0.73876 0.40773 0.26581 0.0
C361 C 0.51056 0.42955 0.31525 0.0
O362 O 0.52566 0.41461 0.29318 0.0
C363 C 0.70732 0.40953 0.39217 0.0
Zn364 Zn 0.55518 0.42683 -0.00076 0.0
Zn365 Zn 0.66433 0.43282 0.97327 0.0
O366 O 0.63335 0.45762 -0.00121 0.0
O367 O 0.54393 0.45064 0.02976 0.0
O368 O 0.75028 0.43645 0.94573 0.0
O369 O 0.52032 0.42062 0.93477 0.0
O370 O 0.61841 0.41851 0.92023 0.0
C371 C 0.58582 0.46197 0.02333 0.0
C372 C 0.63993 0.40572 0.05172 0.0
O373 O 0.67764 0.41609 0.03049 0.0
O374 O 0.58377 0.40666 0.04138 0.0
C375 C 0.76092 0.44212 0.90275 0.0
O376 O 0.71453 0.4467 0.87507 0.0
C377 C 0.56341 0.41477 0.90863 0.0
Zn378 Zn 0.74779 0.78843 0.94131 0.0
Zn379 Zn 0.61106 0.78447 0.90426 0.0
O380 O 0.656 0.76501 0.86582 0.0
O381 O 0.74221 0.77782 0.8734 0.0
O382 O 0.52247 0.78442 0.8801 0.0
O383 O 0.72992 0.81451 0.93865 0.0
O384 O 0.64041 0.81076 0.90171 0.0
C385 C 0.71223 0.76349 0.87557 0.0
C386 C 0.6492 0.77337 0.00711 0.0
O387 O 0.60898 0.77665 0.97472 0.0
O388 O 0.70552 0.77641 -0.00062 0.0
C389 C 0.48388 0.77306 0.89582 0.0
O390 O 0.50226 0.76104 0.92743 0.0
C391 C 0.68286 0.8209 0.91812 0.0
Zn392 Zn 0.50487 0.17275 0.71313 0.0
Zn393 Zn 0.39828 0.18046 0.68337 0.0
O394 O 0.43967 0.20447 0.70401 0.0
O395 O 0.53259 0.19736 0.7271 0.0
O396 O 0.32228 0.18594 0.64299 0.0
O397 O 0.53641 0.15766 0.65905 0.0
O398 O 0.43765 0.15916 0.64768 0.0
C399 C 0.49132 0.20898 0.72202 0.0
C400 C 0.40319 0.16058 0.77446 0.0
O401 O 0.36928 0.16924 0.74521 0.0
O402 O 0.46032 0.15986 0.76739 0.0
C403 C 0.26967 0.18835 0.66171 0.0
O404 O 0.26445 0.18857 0.70951 0.0
C405 C 0.48845 0.15134 0.64006 0.0
Zn406 Zn 0.20955 0.52651 0.67915 0.0
Zn407 Zn 0.34645 0.52131 0.64048 0.0
O408 O 0.3034 0.49879 0.61594 0.0
O409 O 0.21275 0.50869 0.62357 0.0
O410 O 0.43506 0.52081 0.6172 0.0
O411 O 0.22425 0.55167 0.65682 0.0
O412 O 0.31534 0.54651 0.62382 0.0
C413 C 0.25028 0.49641 0.63307 0.0
C414 C 0.31392 0.52082 0.74926 0.0
O415 O 0.35085 0.52047 0.71335 0.0
O416 O 0.25659 0.52223 0.74283 0.0
C417 C 0.46515 0.50692 0.60528 0.0
O418 O 0.43777 0.49131 0.60644 0.0
C419 C 0.27127 0.55708 0.63411 0.0
Zn420 Zn 0.50821 0.56172 -0.01088 0.0
Zn421 Zn 0.40547 0.55652 0.03606 0.0
O422 O 0.46736 0.53767 0.06119 0.0
O423 O 0.55685 0.54612 0.03322 0.0
O424 O 0.32581 0.5539 0.07438 0.0
O425 O 0.50781 0.58815 -0.00494 0.0
O426 O 0.42473 0.58376 0.0385 0.0
C427 C 0.52486 0.5351 0.05704 0.0
C428 C 0.41328 0.54511 0.93164 0.0
O429 O 0.38042 0.54808 0.96899 0.0
O430 O 0.46904 0.54963 0.93151 0.0
C431 C 0.29743 0.53908 0.07735 0.0
O432 O 0.3224 0.52475 0.05807 0.0
C433 C 0.46424 0.59436 0.02007 0.0
Zn434 Zn 0.22928 0.16641 0.04273 0.0
Zn435 Zn 0.34356 0.17134 0.06352 0.0
O436 O 0.30319 0.19648 0.05308 0.0
O437 O 0.2047 0.19183 0.04406 0.0
O438 O 0.42934 0.17513 0.09302 0.0
O439 O 0.20749 0.14891 0.09388 0.0
O440 O 0.30741 0.14966 0.10055 0.0
C441 C 0.24938 0.2025 0.04518 0.0
C442 C 0.31579 0.15584 0.96711 0.0
O443 O 0.3562 0.16159 -0.00349 0.0
O444 O 0.25964 0.15651 0.9782 0.0
C445 C 0.47837 0.1753 0.06777 0.0
O446 O 0.47431 0.17374 0.02009 0.0
C447 C 0.25639 0.14212 0.10969 0.0
C448 C 0.01629 0.35937 0.42025 0.0
C449 C 0.06779 0.37019 0.41169 0.0
C450 C 0.01736 0.34106 0.41024 0.0
C451 C 0.06997 0.33279 0.39127 0.0
H452 H 0.97351 0.3652 0.43213 0.0
H453 H 0.97516 0.33362 0.41387 0.0
S454 S 0.22117 0.35438 0.37332 0.0
N455 N 0.17592 0.37076 0.39128 0.0
N456 N 0.17817 0.33628 0.3726 0.0
C457 C 0.12381 0.34306 0.38789 0.0
C458 C 0.12255 0.36179 0.39773 0.0
C459 C 0.2537 0.85628 0.28386 0.0
C460 C 0.20089 0.86696 0.28613 0.0
C461 C 0.25141 0.83804 0.29442 0.0
C462 C 0.19622 0.82977 0.30789 0.0
H463 H 0.29794 0.86223 0.27726 0.0
H464 H 0.29414 0.83077 0.29633 0.0
S465 S 0.04248 0.85077 0.30509 0.0
N466 N 0.09005 0.86721 0.29237 0.0
N467 N 0.08551 0.83286 0.31211 0.0
C468 C 0.14192 0.83977 0.30361 0.0
C469 C 0.14436 0.85842 0.29314 0.0
C470 C 0.00909 0.85739 0.9196 0.0
C471 C 0.06065 0.86847 0.91491 0.0
C472 C 0.01015 0.8397 0.9031 0.0
C473 C 0.06296 0.83238 0.88175 0.0
H474 H 0.96626 0.86271 0.93308 0.0
H475 H 0.96796 0.83214 0.90379 0.0
S476 S 0.21399 0.85468 0.87142 0.0
N477 N 0.16868 0.87007 0.89496 0.0
N478 N 0.17111 0.83672 0.86438 0.0
C479 C 0.11678 0.8427 0.88202 0.0
C480 C 0.11542 0.86082 0.89823 0.0
C481 C 0.15622 0.37413 0.83406 0.0
C482 C 0.20898 0.38125 0.81221 0.0
C483 C 0.15136 0.35588 0.84411 0.0
C484 C 0.19939 0.34402 0.83327 0.0
H485 H 0.11897 0.38276 0.84508 0.0
H486 H 0.11125 0.35132 0.86362 0.0
S487 S 0.34195 0.35505 0.76701 0.0
N488 N 0.30635 0.37437 0.77299 0.0
N489 N 0.29758 0.34012 0.79358 0.0
C490 C 0.25044 0.35065 0.80824 0.0
C491 C 0.25521 0.36925 0.79737 0.0
C492 C 0.96788 0.58382 0.63379 0.0
C493 C 0.91272 0.57458 0.62635 0.0
C494 C 0.96948 0.60243 0.63652 0.0
C495 C 0.9159 0.61273 0.63268 0.0
H496 H 0.01091 0.57671 0.63553 0.0
H497 H 0.01345 0.60875 0.64199 0.0
S498 S 0.75867 0.59507 0.61684 0.0
N499 N 0.8024 0.57712 0.61772 0.0
N500 N 0.80536 0.61221 0.62358 0.0
C501 C 0.85999 0.60369 0.62694 0.0
C502 C 0.85838 0.58463 0.62387 0.0
C503 C 0.78218 0.10155 0.61203 0.0
C504 C 0.83638 0.09142 0.61225 0.0
C505 C 0.7834 0.12017 0.6108 0.0
C506 C 0.83888 0.12959 0.60889 0.0
H507 H 0.73793 0.0951 0.61327 0.0
H508 H 0.74011 0.12714 0.6094 0.0
S509 S 0.99412 0.10959 0.61115 0.0
N510 N 0.94747 0.09228 0.61268 0.0
N511 N 0.94984 0.12741 0.60945 0.0
C512 C 0.89365 0.11971 0.61022 0.0
C513 C 0.89239 0.10063 0.61184 0.0
C514 C 0.87892 0.10771 0.11239 0.0
C515 C 0.9301 0.11734 0.09556 0.0
C516 C 0.87961 0.08904 0.11525 0.0
C517 C 0.93163 0.07923 0.10185 0.0
H518 H 0.8384 0.11462 0.12498 0.0
H519 H 0.83905 0.08223 0.12814 0.0
S520 S 0.07457 0.09777 0.04891 0.0
N521 N 0.03216 0.11547 0.06088 0.0
N522 N 0.03375 0.08041 0.06657 0.0
C523 C 0.98251 0.08862 0.08346 0.0
C524 C 0.98155 0.10763 0.08005 0.0
C525 C 0.88775 0.61462 0.12811 0.0
C526 C 0.83508 0.60405 0.12223 0.0
C527 C 0.88391 0.63323 0.13221 0.0
C528 C 0.82723 0.64207 0.13101 0.0
H529 H 0.93249 0.60849 0.12985 0.0
H530 H 0.92594 0.64079 0.13512 0.0
S531 S 0.67507 0.6206 0.11715 0.0
N532 N 0.72408 0.60389 0.11581 0.0
N533 N 0.71685 0.63874 0.12424 0.0
C534 C 0.77399 0.63164 0.12612 0.0
C535 C 0.77795 0.61272 0.12122 0.0
C536 C 0.60248 0.38951 0.85878 0.0
C537 C 0.55201 0.39906 0.87696 0.0
C538 C 0.59673 0.37177 0.84366 0.0
C539 C 0.54014 0.36292 0.84531 0.0
H540 H 0.64777 0.39533 0.85916 0.0
H541 H 0.63743 0.36487 0.83136 0.0
S542 S 0.39178 0.38273 0.88197 0.0
N543 N 0.44176 0.399 0.88968 0.0
N544 N 0.43134 0.36554 0.86131 0.0
C545 C 0.48831 0.37269 0.85949 0.0
C546 C 0.49409 0.39082 0.87499 0.0
C547 C 0.73361 0.8506 0.91234 0.0
C548 C 0.6796 0.84043 0.91083 0.0
C549 C 0.73414 0.86842 0.8974 0.0
C550 C 0.68067 0.87675 0.88048 0.0
H551 H 0.77677 0.84448 0.92195 0.0
H552 H 0.77773 0.87523 0.89535 0.0
S553 S 0.52453 0.8573 0.88223 0.0
N554 N 0.56937 0.8409 0.90045 0.0
N555 N 0.56999 0.87452 0.87268 0.0
C556 C 0.62501 0.86741 0.88484 0.0
C557 C 0.62463 0.84915 0.8996 0.0
C558 C 0.62299 0.85524 0.29433 0.0
C559 C 0.56749 0.84779 0.27847 0.0
C560 C 0.62735 0.87338 0.306 0.0
C561 C 0.5759 0.88463 0.30324 0.0
H562 H 0.66229 0.84683 0.30117 0.0
H563 H 0.66943 0.87802 0.32247 0.0
S564 S 0.42658 0.87309 0.24799 0.0
N565 N 0.46487 0.8541 0.24841 0.0
N566 N 0.47306 0.88817 0.27154 0.0
C567 C 0.52327 0.87799 0.28023 0.0
C568 C 0.51888 0.85952 0.26785 0.0
C569 C 0.76216 0.36216 0.39382 0.0
C570 C 0.70823 0.35247 0.38479 0.0
C571 C 0.76081 0.38052 0.403 0.0
C572 C 0.70551 0.39012 0.40266 0.0
H573 H 0.8062 0.35558 0.39348 0.0
H574 H 0.8041 0.38737 0.40698 0.0
S575 S 0.55049 0.37072 0.38804 0.0
N576 N 0.59714 0.35357 0.3815 0.0
N577 N 0.59472 0.38816 0.39849 0.0
C578 C 0.65084 0.38039 0.39726 0.0
C579 C 0.65218 0.36164 0.3879 0.0
C580 C 0.40601 0.62117 0.04814 0.0
C581 C 0.45999 0.61387 0.02878 0.0
C582 C 0.40314 0.63909 0.06255 0.0
C583 C 0.45456 0.65031 0.059 0.0
H584 H 0.36635 0.61282 0.05421 0.0
H585 H 0.36189 0.64365 0.08051 0.0
S586 S 0.60298 0.63878 0.00199 0.0
N587 N 0.56312 0.62008 -0.0003 0.0
N588 N 0.55779 0.65367 0.02797 0.0
C589 C 0.50685 0.64367 0.03547 0.0
C590 C 0.50964 0.62545 0.02022 0.0
C591 C 0.30557 0.11224 0.11187 0.0
C592 C 0.25573 0.12317 0.12455 0.0
C593 C 0.30259 0.09367 0.11653 0.0
C594 C 0.24986 0.0852 0.13451 0.0
H595 H 0.34675 0.11798 0.09659 0.0
H596 H 0.34248 0.08592 0.1065 0.0
S597 S 0.108 0.10806 0.17608 0.0
N598 N 0.15279 0.12439 0.15732 0.0
N599 N 0.14706 0.08948 0.16711 0.0
C600 C 0.19974 0.09605 0.14794 0.0
C601 C 0.20281 0.115 0.14289 0.0
C602 C 0.53775 0.10321 0.62841 0.0
C603 C 0.48273 0.0943 0.61791 0.0
C604 C 0.54029 0.12184 0.63156 0.0
C605 C 0.48785 0.13239 0.62437 0.0
H606 H 0.57949 0.09573 0.63414 0.0
H607 H 0.58345 0.12792 0.6414 0.0
S608 S 0.33343 0.11571 0.59124 0.0
N609 N 0.37522 0.09751 0.59711 0.0
N610 N 0.37993 0.13252 0.60281 0.0
C611 C 0.43289 0.12368 0.61209 0.0
C612 C 0.43022 0.10466 0.60928 0.0
C613 C 0.22799 0.60561 0.61654 0.0
C614 C 0.28417 0.61395 0.60648 0.0
C615 C 0.22444 0.58726 0.62517 0.0
C616 C 0.27688 0.57642 0.62389 0.0
H617 H 0.18588 0.6132 0.61593 0.0
H618 H 0.17986 0.58148 0.63184 0.0
S619 S 0.43617 0.59192 0.60464 0.0
N620 N 0.39431 0.61016 0.59966 0.0
N621 N 0.3876 0.5756 0.61605 0.0
C622 C 0.33383 0.58468 0.61618 0.0
C623 C 0.33752 0.60346 0.60772 0.0
C624 C 0.43335 0.29979 0.32357 0.0
C625 C 0.44777 0.28557 0.35509 0.0
C626 C 0.37378 0.30231 0.30597 0.0
C627 C 0.32586 0.29063 0.3186 0.0
H628 H 0.46793 0.30944 0.31344 0.0
H629 H 0.36519 0.31372 0.28273 0.0
S630 S 0.33999 0.25047 0.39714 0.0
N631 N 0.40943 0.25904 0.39619 0.0
N632 N 0.2978 0.26371 0.36278 0.0
C633 C 0.34001 0.27595 0.3486 0.0
C634 C 0.40073 0.27345 0.36692 0.0
C635 C 0.90535 0.94795 0.32522 0.0
C636 C 0.94721 0.93431 0.33676 0.0
C637 C 0.84417 0.94715 0.34041 0.0
C638 C 0.82196 0.93276 0.36825 0.0
H639 H 0.91963 0.95934 0.30372 0.0
H640 H 0.81398 0.95794 0.32997 0.0
S641 S 0.91247 0.89355 0.4089 0.0
N642 N 0.96173 0.9059 0.37827 0.0
N643 N 0.84708 0.9045 0.40703 0.0
C644 C 0.86339 0.91911 0.38072 0.0
C645 C 0.92576 0.91985 0.3649 0.0
C646 C 0.41684 0.92434 0.8544 0.0
C647 C 0.41793 0.92489 0.80299 0.0
C648 C 0.36166 0.92478 0.88052 0.0
C649 C 0.30483 0.92592 0.85658 0.0
H650 H 0.45894 0.92308 0.87483 0.0
H651 H 0.3638 0.92398 0.91997 0.0
S652 S 0.28233 0.92911 0.72238 0.0
N653 N 0.35705 0.92756 0.7291 0.0
N654 N 0.25354 0.92853 0.77809 0.0
C655 C 0.30525 0.92706 0.80519 0.0
C656 C 0.3616 0.92649 0.7785 0.0
C657 C 0.81936 0.31267 0.87892 0.0
C658 C 0.80652 0.29936 0.84397 0.0
C659 C 0.87799 0.31468 0.8988 0.0
C660 C 0.92657 0.30342 0.885 0.0
H661 H 0.78412 0.3219 0.8905 0.0
H662 H 0.88524 0.32533 0.92501 0.0
S663 S 0.91692 0.26585 0.79651 0.0
N664 N 0.8473 0.27428 0.79758 0.0
N665 N 0.95723 0.27802 0.83514 0.0
C666 C 0.91416 0.28974 0.85099 0.0
C667 C 0.85435 0.28775 0.83046 0.0
C668 C 0.6338 0.66839 0.62146 0.0
C669 C 0.67427 0.68206 0.60709 0.0
C670 C 0.57328 0.66775 0.60439 0.0
C671 C 0.55032 0.68072 0.57198 0.0
H672 H 0.64909 0.6579 0.6457 0.0
H673 H 0.54463 0.65678 0.6161 0.0
S674 S 0.63591 0.72001 0.52531 0.0
N675 N 0.68563 0.7094 0.55999 0.0
N676 N 0.57247 0.70816 0.52797 0.0
C677 C 0.58982 0.69469 0.55812 0.0
C678 C 0.65146 0.69537 0.57562 0.0
C679 C 0.12103 0.03723 0.62145 0.0
C680 C 0.09431 0.02248 0.6452 0.0
C681 C 0.18378 0.03762 0.61018 0.0
C682 C 0.22252 0.02315 0.62132 0.0
H683 H 0.09346 0.04874 0.61215 0.0
H684 H 0.20189 0.04932 0.59202 0.0
S685 S 0.17544 0.98115 0.6828 0.0
N686 N 0.11195 -0.00703 0.67933 0.0
N687 N 0.22903 -0.00643 0.65741 0.0
C688 C 0.19626 0.00824 0.64463 0.0
C689 C 0.13256 0.00795 0.65676 0.0
C690 C 0.53839 0.02961 0.08805 0.0
C691 C 0.53188 0.02386 0.13668 0.0
C692 C 0.59586 0.03039 0.06537 0.0
C693 C 0.64969 0.02549 0.09022 0.0
H694 H 0.49884 0.03382 0.06733 0.0
H695 H 0.59795 0.03515 0.02809 0.0
S696 S 0.658 0.00882 0.21772 0.0
N697 N 0.58467 0.01263 0.20865 0.0
N698 N 0.69228 0.01413 0.16606 0.0
C699 C 0.64382 0.01934 0.13857 0.0
C700 C 0.58517 0.01852 0.16172 0.0
C701 C 0.10734 0.69872 0.10804 0.0
C702 C 0.06148 0.70167 0.14323 0.0
C703 C 0.16938 0.69832 0.12093 0.0
C704 C 0.18846 0.70097 0.16956 0.0
H705 H 0.09526 0.69606 0.07036 0.0
H706 H 0.20248 0.69547 0.09256 0.0
S707 S 0.08697 0.71134 0.27475 0.0
N708 N 0.03989 0.70875 0.22822 0.0
N709 N 0.15614 0.70813 0.25243 0.0
C710 C 0.14322 0.70478 0.20474 0.0
C711 C 0.07995 0.7051 0.1916 0.0
C712 C 0.40105 0.7843 0.83983 0.0
C713 C 0.41875 0.77358 0.87962 0.0
C714 C 0.33977 0.7853 0.82466 0.0
C715 C 0.29334 0.77581 0.84905 0.0
H716 H 0.43476 0.79208 0.82022 0.0
H717 H 0.32857 0.79394 0.79429 0.0
S718 S 0.31517 0.74529 0.95432 0.0
N719 N 0.38437 0.75279 0.94216 0.0
N720 N 0.26974 0.75486 0.91406 0.0
C721 C 0.31045 0.76485 0.88844 0.0
C722 C 0.37288 0.76368 0.90357 0.0
C723 C 0.8356 0.45138 0.8379 0.0
C724 C 0.82451 0.44298 0.88303 0.0
C725 C 0.89432 0.45198 0.81735 0.0
C726 C 0.94488 0.44412 0.84076 0.0
H727 H 0.79852 0.45756 0.81797 0.0
H728 H 0.89981 0.45859 0.78248 0.0
S729 S 0.94103 0.42045 0.95991 0.0
N730 N 0.86964 0.42667 0.95079 0.0
N731 N 0.97972 0.42772 0.91217 0.0
C732 C 0.93464 0.43575 0.88613 0.0
C733 C 0.8747 0.43521 0.90722 0.0
C734 C 0.43103 0.44418 0.36866 0.0
C735 C 0.44559 0.4327 0.32956 0.0
C736 C 0.3706 0.44598 0.38554 0.0
C737 C 0.32195 0.43644 0.36398 0.0
H738 H 0.46682 0.45145 0.3874 0.0
H739 H 0.36229 0.45468 0.4165 0.0
S740 S 0.33462 0.40619 0.25676 0.0
N741 N 0.4054 0.41271 0.26724 0.0
N742 N 0.29241 0.41612 0.29874 0.0
C743 C 0.33564 0.42543 0.32366 0.0
C744 C 0.39716 0.42357 0.30655 0.0
C745 C 0.85825 0.7665 0.30733 0.0
C746 C 0.81685 0.77892 0.32735 0.0
C747 C 0.92043 0.76671 0.31978 0.0
C748 C 0.94399 0.7792 0.35332 0.0
H749 H 0.84278 0.75661 0.28119 0.0
H750 H 0.95024 0.75694 0.30287 0.0
S751 S 0.85497 0.81449 0.41708 0.0
N752 N 0.8041 0.80404 0.38296 0.0
N753 N 0.92058 0.80432 0.40671 0.0
C754 C 0.90303 0.79158 0.37417 0.0
C755 C 0.8397 0.79149 0.36107 0.0
C756 C 0.65168 0.17431 0.08346 0.0
C757 C 0.66021 0.17598 0.13425 0.0
C758 C 0.59307 0.17442 0.06257 0.0
C759 C 0.53997 0.17619 0.09137 0.0
H760 H 0.69058 0.17262 0.05946 0.0
H761 H 0.58955 0.17281 0.02335 0.0
S762 S 0.53671 0.18202 0.22611 0.0
N763 N 0.60996 0.18023 0.21278 0.0
N764 N 0.50026 0.18039 0.17355 0.0
C765 C 0.54778 0.17828 0.14214 0.0
C766 C 0.6076 0.17818 0.16349 0.0
C767 C 0.19828 0.55386 0.1001 0.0
C768 C 0.23442 0.53831 0.09797 0.0
C769 C 0.13741 0.55331 0.11638 0.0
C770 C 0.11023 0.53725 0.13204 0.0
H771 H 0.21669 0.56654 0.08816 0.0
H772 H 0.1116 0.56565 0.11698 0.0
S773 S 0.18563 0.49282 0.13513 0.0
N774 N 0.23862 0.50639 0.11367 0.0
N775 N 0.12493 0.5054 0.14496 0.0
C776 C 0.14618 0.52164 0.13083 0.0
C777 C 0.20794 0.52216 0.11362 0.0
C778 C 0.62196 0.49407 0.55547 0.0
C779 C 0.65711 0.50962 0.56236 0.0
C780 C 0.56029 0.49334 0.56956 0.0
C781 C 0.5307 0.5082 0.59063 0.0
H782 H 0.64228 0.48227 0.53932 0.0
H783 H 0.53558 0.481 0.56353 0.0
S784 S 0.60175 0.55234 0.6158 0.0
N785 N 0.65728 0.54037 0.59145 0.0
N786 N 0.54167 0.53905 0.61739 0.0
C787 C 0.5652 0.5239 0.59745 0.0
C788 C 0.6282 0.52458 0.58353 0.0
C789 C 0.10203 0.18899 0.62472 0.0
C790 C 0.10377 0.18715 0.57354 0.0
C791 C 0.15576 0.18991 0.65252 0.0
C792 C 0.21385 0.18907 0.6305 0.0
H793 H 0.05874 0.18926 0.64386 0.0
H794 H 0.15143 0.19087 0.69184 0.0
S795 S 0.24412 0.1859 0.49721 0.0
N796 N 0.16896 0.18572 0.50159 0.0
N797 N 0.2697 0.18744 0.55375 0.0
C798 C 0.21639 0.18793 0.57915 0.0
C799 C 0.16154 0.18698 0.55076 0.0
C800 C 0.03286 0.22299 0.18082 0.0
C801 C 0.97213 0.2167 0.18129 0.0
C802 C 0.05066 0.23793 0.20838 0.0
C803 C 0.00847 0.24732 0.23743 0.0
H804 H 0.06747 0.21612 0.15964 0.0
H805 H 0.09769 0.24234 0.20613 0.0
S806 S 0.8441 0.23643 0.25248 0.0
N807 N 0.86981 0.22116 0.21406 0.0
N808 N 0.90326 0.24923 0.26539 0.0
C809 C 0.94753 0.24132 0.23805 0.0
C810 C 0.92934 0.22609 0.21002 0.0
C811 C 0.18968 0.96807 0.28746 0.0
C812 C 0.24163 0.9581 0.30059 0.0
C813 C 0.19301 0.9818 0.25292 0.0
C814 C 0.2488 -0.01338 0.23083 0.0
H815 H 0.14595 0.96543 0.3044 0.0
H816 H 0.15178 -0.01069 0.24554 0.0
S817 S 0.39813 0.96427 0.25056 0.0
N818 N 0.35051 0.9536 0.28698 0.0
N819 N 0.35672 0.97953 0.22252 0.0
C820 C 0.30074 0.97635 0.24214 0.0
C821 C 0.29733 0.96225 0.27722 0.0
C822 C 0.0164 0.98095 -0.0119 0.0
C823 C 0.95693 0.9821 0.00761 0.0
C824 C 0.03016 0.96951 0.94914 0.0
C825 C 0.98556 0.95821 0.92867 0.0
H826 H 0.05248 -0.01046 0.00154 0.0
H827 H 0.07657 0.96943 0.93547 0.0
S828 S 0.82322 0.95547 0.96743 0.0
N829 N 0.85317 0.97072 0.00388 0.0
N830 N 0.87936 0.9487 0.93161 0.0
C831 C 0.92616 0.95888 0.94856 0.0
C832 C 0.91189 0.97083 -0.01217 0.0
C833 C 0.28875 0.23007 0.0042 0.0
C834 C 0.2401 0.22093 0.02662 0.0
C835 C 0.27897 0.24596 0.97819 0.0
C836 C 0.22011 0.25336 0.97332 0.0
H837 H 0.33454 0.22462 0.00522 0.0
H838 H 0.31797 0.25243 0.96153 0.0
S839 S 0.07807 0.23555 0.02942 0.0
N840 N 0.13148 0.22113 0.04517 0.0
N841 N 0.11302 0.25085 -0.0037 0.0
C842 C 0.17128 0.24459 -0.00329 0.0
C843 C 0.18133 0.22848 0.02344 0.0
C844 C 0.02697 0.71977 0.68846 0.0
C845 C 0.96491 0.71491 0.68402 0.0
C846 C 0.04466 0.73601 0.70986 0.0
C847 C 1.00114 0.74823 0.72745 0.0
H848 H 0.06264 0.7107 0.67672 0.0
H849 H 0.09294 0.739 0.71243 0.0
S850 S 0.83253 0.74256 0.72264 0.0
N851 N 0.85974 0.72415 0.69755 0.0
N852 N 0.89279 0.75463 0.73744 0.0
C853 C 0.93883 0.74384 0.72191 0.0
C854 C 0.9208 0.72727 0.70016 0.0
C855 C 0.79667 0.96248 0.70907 0.0
C856 C 0.73426 0.95872 0.71672 0.0
C857 C 0.81579 0.97826 0.68611 0.0
C858 C 0.77334 -0.00904 0.66954 0.0
H859 H 0.8314 0.95327 0.72156 0.0
H860 H 0.86434 0.98076 0.68291 0.0
S861 S 0.60403 -0.01317 0.67691 0.0
N862 N 0.62991 0.9685 0.70298 0.0
N863 N 0.66523 -0.00188 0.66019 0.0
C864 C 0.71055 -0.01296 0.67536 0.0
C865 C 0.6912 0.971 0.69897 0.0
C866 C 0.79002 0.75143 0.93388 0.0
C867 C 0.72962 0.75115 0.91597 0.0
C868 C 0.80723 0.74155 0.97505 0.0
C869 C 0.76486 0.73092 0.00031 0.0
H870 H 0.82446 0.75954 0.91616 0.0
H871 H 0.85445 0.74205 -0.01329 0.0
S872 S 0.60138 0.72464 0.96733 0.0
N873 N 0.62798 0.73844 0.92556 0.0
N874 N 0.65961 0.72035 0.00361 0.0
C875 C 0.70429 0.73035 0.98263 0.0
C876 C 0.68705 0.74015 0.94007 0.0
C877 C 0.29745 0.48029 0.7044 0.0
C878 C 0.24575 0.48806 0.68247 0.0
C879 C 0.29454 0.47274 0.75115 0.0
C880 C 0.2394 0.47209 0.77781 0.0
H881 H 0.34086 0.48006 0.68546 0.0
H882 H 0.33581 0.46689 0.76587 0.0
S883 S 0.09105 0.49116 0.73789 0.0
N884 N 0.13763 0.4949 0.69166 0.0
N885 N 0.13263 0.48108 0.77984 0.0
C886 C 0.18776 0.48036 0.7571 0.0
C887 C 0.1906 0.48797 0.70922 0.0
C888 C 0.94574 0.46267 0.42495 0.0
C889 C 0.00721 0.46121 0.40996 0.0
C890 C 0.92796 0.47437 0.46256 0.0
C891 C 0.97095 0.48498 0.48739 0.0
H892 H 0.91074 0.45477 0.40717 0.0
H893 H 0.87989 0.47534 0.47149 0.0
S894 S 0.1383 0.48609 0.46311 0.0
N895 N 0.11117 0.47174 0.42287 0.0
N896 N 0.07864 0.49287 0.49486 0.0
C897 C 0.0329 0.4834 0.47342 0.0
C898 C 0.05071 0.47188 0.43421 0.0
C899 C 0.29851 0.72161 0.4922 0.0
C900 C 0.25137 0.7108 0.51059 0.0
C901 C 0.2858 0.73787 0.46905 0.0
C902 C 0.2254 0.74406 0.46334 0.0
H903 H 0.34555 0.71719 0.49387 0.0
H904 H 0.32386 0.74557 0.45512 0.0
S905 S 0.0858 0.72159 0.50966 0.0
N906 N 0.14207 0.708 0.52465 0.0
N907 N 0.11821 0.73856 0.48132 0.0
C908 C 0.17791 0.73364 0.48299 0.0
C909 C 0.1909 0.71708 0.50667 0.0
C910 C 0.73027 0.48397 0.22516 0.0
C911 C 0.77018 0.47601 0.25888 0.0
C912 C 0.75017 0.49759 0.19385 0.0
C913 C 0.81081 0.50395 0.19506 0.0
H914 H 0.68336 0.4795 0.22234 0.0
H915 H 0.71704 0.5035 0.16938 0.0
S916 S 0.93392 0.48734 0.2766 0.0
N917 N 0.87363 0.47527 0.29127 0.0
N918 N 0.91096 0.50083 0.23272 0.0
C919 C 0.85158 0.49583 0.22805 0.0
C920 C 0.83125 0.48196 0.25997 0.0
C921 C 0.73336 0.22823 0.48192 0.0
C922 C 0.79403 0.22201 0.48219 0.0
C923 C 0.71503 0.24217 0.45127 0.0
C924 C 0.75663 0.2506 0.41962 0.0
H925 H 0.69953 0.22236 0.50588 0.0
H926 H 0.66841 0.24688 0.45426 0.0
S927 S 0.91917 0.23812 0.40179 0.0
N928 N 0.89462 0.22443 0.44473 0.0
N929 N 0.86017 0.25079 0.38752 0.0
C930 C 0.81688 0.24408 0.41799 0.0
C931 C 0.83564 0.22984 0.44928 0.0
C932 C 0.45621 0.25507 0.77319 0.0
C933 C 0.51312 0.26102 0.79098 0.0
C934 C 0.44998 0.23848 0.74995 0.0
C935 C 0.50026 0.22702 0.74369 0.0
H936 H 0.41633 0.26359 0.77538 0.0
H937 H 0.40522 0.23466 0.73676 0.0
S938 S 0.65859 0.2355 0.787 0.0
N939 N 0.62014 0.25349 0.80335 0.0
N940 N 0.60858 0.22241 0.7596 0.0
C941 C 0.55704 0.23247 0.76292 0.0
C942 C 0.56335 0.24936 0.78675 0.0
C943 C 0.47053 -0.01627 0.52524 0.0
C944 C 0.51818 -0.00577 0.54425 0.0
C945 C 0.4826 0.96863 0.49654 0.0
C946 C 0.54286 0.96324 0.4858 0.0
H947 H 0.42336 -0.01235 0.53044 0.0
H948 H 0.44403 0.96125 0.48219 0.0
S949 S 0.68427 -0.01506 0.53149 0.0
N950 N 0.62831 -0.00262 0.55325 0.0
N951 N 0.65082 0.96883 0.50018 0.0
C952 C 0.59101 0.97311 0.50654 0.0
C953 C 0.57872 -0.01144 0.53566 0.0
C954 C 0.55886 0.74719 0.29041 0.0
C955 C 0.51198 0.75852 0.30712 0.0
C956 C 0.54782 0.73413 0.25486 0.0
C957 C 0.48903 0.7314 0.23524 0.0
H958 H 0.60495 0.74853 0.30423 0.0
H959 H 0.58576 0.72578 0.24372 0.0
S960 S 0.34937 0.75682 0.26853 0.0
N961 N 0.40374 0.76575 0.30238 0.0
N962 N 0.38291 0.74104 0.23598 0.0
C963 C 0.44149 0.74253 0.25186 0.0
C964 C 0.45283 0.75596 0.28794 0.0
C965 C 0.6174 0.49411 0.02876 0.0
C966 C 0.57745 0.48037 0.04273 0.0
C967 C 0.60415 0.51199 0.03959 0.0
C968 C 0.54992 0.51685 0.06422 0.0
H969 H 0.65726 0.49119 0.0067 0.0
H970 H 0.63405 0.52211 0.02456 0.0
S971 S 0.43939 0.48559 0.12079 0.0
N972 N 0.48845 0.47257 0.09196 0.0
N973 N 0.46317 0.5062 0.11121 0.0
C974 C 0.5138 0.5031 0.08371 0.0
C975 C 0.52746 0.48487 0.07301 0.0
C976 C 0.06481 0.32576 0.1269 0.0
C977 C 0.1119 0.32415 0.16144 0.0
C978 C 0.0783 0.32735 0.07728 0.0
C979 C 0.1392 0.32746 0.06096 0.0
H980 H 0.01756 0.32386 0.1374 0.0
H981 H 0.0409 0.32668 0.05146 0.0
S982 S 0.27741 0.3302 0.13917 0.0
N983 N 0.22029 0.32753 0.17782 0.0
N984 N 0.24609 0.3308 0.08436 0.0
C985 C 0.18604 0.32901 0.09595 0.0
C986 C 0.17222 0.32721 0.14645 0.0
C987 C 0.1841 0.93906 0.06688 0.0
C988 C 0.1224 0.94255 0.0567 0.0
C989 C 0.2055 0.93921 0.11491 0.0
C990 C 0.16577 0.94281 0.15414 0.0
H991 H 0.21482 0.9346 0.03833 0.0
H992 H 0.25196 0.93486 0.1214 0.0
S993 S 0.0059 0.95873 0.14478 0.0
N994 N 0.02602 0.95407 0.08805 0.0
N995 N 0.06644 0.95433 0.17858 0.0
C996 C 0.10657 0.94891 0.14369 0.0
C997 C 0.08477 0.94877 0.09477 0.0
C998 C 0.81904 0.66207 0.85048 0.0
C999 C 0.87611 0.65787 0.82995 0.0
C1000 C 0.81328 0.66552 0.90035 0.0
C1001 C 0.86448 0.66498 0.93122 0.0
H1002 H 0.77914 0.66377 0.8276 0.0
H1003 H 0.76922 0.6698 0.91407 0.0
S1004 S 0.02098 0.65067 0.89777 0.0
N1005 N 0.98263 0.65029 0.84592 0.0
N1006 N 0.97154 0.65708 0.93979 0.0
C1007 C 0.92045 0.65912 0.91217 0.0
C1008 C 0.92632 0.65545 0.86143 0.0
C1009 C 0.92267 0.04541 0.83272 0.0
C1010 C 0.86643 0.04914 0.81036 0.0
C1011 C 0.92703 0.04372 0.88323 0.0
C1012 C 0.87525 0.04563 0.91317 0.0
H1013 H 0.9632 0.04292 0.81105 0.0
H1014 H 0.97079 0.03997 0.89852 0.0
S1015 S 0.71984 0.05882 0.87364 0.0
N1016 N 0.75956 0.05725 0.82256 0.0
N1017 N 0.76805 0.0539 0.91789 0.0
C1018 C 0.8198 0.05077 0.89179 0.0
C1019 C 0.81533 0.0526 0.84024 0.0
C1020 C 0.18021 0.8225 0.63034 0.0
C1021 C 0.11853 0.82377 0.64429 0.0
C1022 C 0.19671 0.8224 0.58108 0.0
C1023 C 0.15184 0.82342 0.54454 0.0
H1024 H 0.21526 0.81978 0.65722 0.0
H1025 H 0.24375 0.81943 0.57186 0.0
S1026 S 0.98763 0.83334 0.56232 0.0
N1027 N 0.01504 0.831 0.61811 0.0
N1028 N 0.04635 0.83053 0.52526 0.0
C1029 C 0.09184 0.82773 0.55813 0.0
C1030 C 0.07503 0.82801 0.60831 0.0
C1031 C 0.09054 0.44498 0.63869 0.0
C1032 C 0.15291 0.44612 0.65031 0.0
C1033 C 0.07129 0.44394 0.59019 0.0
C1034 C 0.11371 0.44401 0.55156 0.0
H1035 H 0.05643 0.44375 0.66714 0.0
H1036 H 0.02308 0.44191 0.58332 0.0
S1037 S 0.28051 0.45183 0.56223 0.0
N1038 N 0.25592 0.45081 0.61912 0.0
N1039 N 0.21941 0.44908 0.52783 0.0
C1040 C 0.1754 0.44732 0.56249 0.0
C1041 C 0.1951 0.44829 0.61196 0.0
C1042 C 0.94947 0.15365 0.32594 0.0
C1043 C 0.89696 0.15126 0.2971 0.0
C1044 C 0.94532 0.15452 0.3767 0.0
C1045 C 0.88859 0.1529 0.40022 0.0
H1046 H 0.99343 0.15628 0.30927 0.0
H1047 H 0.98616 0.15778 0.39717 0.0
S1048 S 0.74071 0.14143 0.34139 0.0
N1049 N 0.78907 0.14373 0.2956 0.0
N1050 N 0.78098 0.14502 0.39139 0.0
C1051 C 0.83715 0.14819 0.37206 0.0
C1052 C 0.84137 0.14749 0.32028 0.0
C1053 C 0.94176 0.55794 0.38729 0.0
C1054 C 0.88745 0.55684 0.41451 0.0
C1055 C 0.9403 0.56141 0.3373 0.0
C1056 C 0.88449 0.56397 0.31303 0.0
H1057 H 0.98538 0.55474 0.40373 0.0
H1058 H 0.98282 0.56075 0.31715 0.0
S1059 S 0.73146 0.56742 0.37094 0.0
N1060 N 0.77795 0.56212 0.41605 0.0
N1061 N 0.77493 0.56892 0.32186 0.0
C1062 C 0.83069 0.56517 0.34108 0.0
C1063 C 0.83222 0.56148 0.39197 0.0
C1064 C 0.5852 0.31132 0.56209 0.0
C1065 C 0.64493 0.30687 0.5481 0.0
C1066 C 0.57108 0.3149 0.61071 0.0
C1067 C 0.61605 0.31403 0.64729 0.0
H1068 H 0.54887 0.31205 0.53534 0.0
H1069 H 0.52404 0.31797 0.61966 0.0
S1070 S 0.78022 0.30346 0.62923 0.0
N1071 N 0.75007 0.30222 0.57412 0.0
N1072 N 0.72344 0.30892 0.66595 0.0
C1073 C 0.67646 0.31001 0.63364 0.0
C1074 C 0.69089 0.3064 0.58393 0.0
C1075 C 0.65477 0.87865 0.56192 0.0
C1076 C 0.59627 0.88258 0.54391 0.0
C1077 C 0.66585 0.87834 0.61211 0.0
C1078 C 0.61878 0.8822 0.64555 0.0
H1079 H 0.69346 0.87784 0.53731 0.0
H1080 H 0.71281 0.87727 0.62414 0.0
S1081 S 0.45403 0.88626 0.61707 0.0
N1082 N 0.48789 0.88498 0.56327 0.0
N1083 N 0.50918 0.88467 0.6579 0.0
C1084 C 0.55851 0.88275 0.6282 0.0
C1085 C 0.54706 0.88285 0.57703 0.0
C1086 C 0.42544 0.64833 0.37675 0.0
C1087 C 0.36361 0.6459 0.38894 0.0
C1088 C 0.44296 0.65166 0.32858 0.0
C1089 C 0.3991 0.65278 0.29128 0.0
H1090 H 0.45999 0.64913 0.40496 0.0
H1091 H 0.49027 0.65501 0.32154 0.0
S1092 S 0.2343 0.6423 0.30166 0.0
N1093 N 0.26055 0.64084 0.35801 0.0
N1094 N 0.29383 0.64743 0.26749 0.0
C1095 C 0.3386 0.64801 0.30183 0.0
C1096 C 0.32074 0.64443 0.35078 0.0
C1097 C 0.34651 0.05811 0.4104 0.0
C1098 C 0.40876 0.05572 0.42064 0.0
C1099 C 0.3249 0.05717 0.36269 0.0
C1100 C 0.36477 0.05369 0.32356 0.0
H1101 H 0.31367 0.05989 0.43962 0.0
H1102 H 0.2761 0.05822 0.35696 0.0
S1103 S 0.53353 0.0496 0.3303 0.0
N1104 N 0.51132 0.05215 0.38749 0.0
N1105 N 0.47056 0.05038 0.29734 0.0
C1106 C 0.4279 0.0529 0.33279 0.0
C1107 C 0.44998 0.05393 0.38154 0.0
C1108 C 0.56756 0.7699 0.06949 0.0
C1109 C 0.62941 0.76814 0.05658 0.0
C1110 C 0.54984 0.77041 0.11844 0.0
C1111 C 0.59342 0.76922 0.15603 0.0
H1112 H 0.53314 0.77245 0.04198 0.0
H1113 H 0.50249 0.77339 0.12656 0.0
S1114 S 0.75727 0.7579 0.14096 0.0
N1115 N 0.73154 0.76043 0.08475 0.0
N1116 N 0.69798 0.76135 0.17701 0.0
C1117 C 0.65365 0.76461 0.14349 0.0
C1118 C 0.67175 0.7641 0.09357 0.0
C1119 C 0.7188 0.39862 0.11343 0.0
C1120 C 0.65853 0.39641 0.09672 0.0
C1121 C 0.7311 0.39919 0.16345 0.0
C1122 C 0.6833 0.39757 0.19732 0.0
H1123 H 0.7549 0.4024 0.08842 0.0
H1124 H 0.77605 0.40348 0.17513 0.0
S1125 S 0.52491 0.38326 0.17197 0.0
N1126 N 0.55608 0.38605 0.11756 0.0
N1127 N 0.57934 0.38777 0.21183 0.0
C1128 C 0.6264 0.3915 0.18112 0.0
C1129 C 0.61399 0.39063 0.13032 0.0
C1130 C 0.31557 0.15661 0.83091 0.0
C1131 C 0.37766 0.15374 0.82048 0.0
C1132 C 0.29381 0.15533 0.87863 0.0
C1133 C 0.33368 0.15125 0.91717 0.0
H1134 H 0.28452 0.16128 0.80292 0.0
H1135 H 0.24698 0.1592 0.88578 0.0
S1136 S 0.49532 0.13722 0.90703 0.0
N1137 N 0.47515 0.14251 0.85081 0.0
N1138 N 0.43391 0.14045 0.94089 0.0
C1139 C 0.39355 0.14597 0.90636 0.0
C1140 C 0.41568 0.14709 0.85772 0.0
C1141 C 0.42531 0.53337 0.84737 0.0
C1142 C 0.38742 0.53637 0.88798 0.0
C1143 C 0.40184 0.52673 0.80376 0.0
C1144 C 0.33923 0.52296 0.7988 0.0
H1145 H 0.47343 0.53678 0.84842 0.0
H1146 H 0.43261 0.52561 0.77298 0.0
S1147 S 0.22301 0.52469 0.89738 0.0
N1148 N 0.28606 0.53231 0.92306 0.0
N1149 N 0.24156 0.51984 0.84044 0.0
C1150 C 0.30178 0.52429 0.84036 0.0
C1151 C 0.32581 0.53105 0.88511 0.0
loop_
_geom_bond_atom_site_label_1
_geom_bond_atom_site_label_2
_geom_bond_distance
_geom_bond_site_symmetry_2
_ccdc_geom_bond_type
Zn0 O3 2.031 . S
Zn0 O5 2.049 . S
Zn0 O10 2.067 . S
Zn1 O2 1.962 . S
Zn1 O4 1.986 . S
Zn1 O6 1.996 . S
Zn1 O9 1.943 . S
O2 Zn1 1.962 . S
O2 C7 1.254 . S
O3 Zn0 2.031 . S
O3 C7 1.269 . S
O4 Zn1 1.986 . S
O4 C11 1.262 . S
O5 Zn0 2.049 . S
O5 C13 1.260 . S
O6 Zn1 1.996 . S
O6 C13 1.257 . S
C7 O2 1.254 . S
C7 O3 1.269 . S
C8 O9 1.249 . S
C8 O10 1.270 . S
O9 Zn1 1.943 . S
O9 C8 1.249 . S
O10 Zn0 2.067 . S
O10 C8 1.270 . S
C11 O4 1.262 . S
C11 O12 1.232 . S
O12 C11 1.232 . S
C13 O5 1.260 . S
C13 O6 1.257 . S
Zn14 O17 2.031 . S
Zn14 O19 2.049 . S
Zn14 O24 2.067 . S
Zn15 O16 1.962 . S
Zn15 O18 1.986 . S
Zn15 O20 1.996 . S
Zn15 O23 1.943 . S
O16 Zn15 1.962 . S
O16 C21 1.254 . S
O17 Zn14 2.031 . S
O17 C21 1.269 . S
O18 Zn15 1.986 . S
O18 C25 1.262 . S
O19 Zn14 2.049 . S
O19 C27 1.260 . S
O20 Zn15 1.996 . S
O20 C27 1.257 . S
C21 O16 1.254 . S
C21 O17 1.269 . S
C22 O23 1.249 . S
C22 O24 1.270 . S
O23 Zn15 1.943 . S
O23 C22 1.249 . S
O24 Zn14 2.067 . S
O24 C22 1.270 . S
C25 O18 1.262 . S
C25 O26 1.232 . S
O26 C25 1.232 . S
C27 O19 1.260 . S
C27 O20 1.257 . S
Zn28 O31 2.031 . S
Zn28 O33 2.049 . S
Zn28 O38 2.067 1_556 S
Zn29 O30 1.962 . S
Zn29 O32 1.986 . S
Zn29 O34 1.996 . S
Zn29 O37 1.943 . S
O30 Zn29 1.962 . S
O30 C35 1.254 . S
O31 Zn28 2.031 . S
O31 C35 1.269 . S
O32 Zn29 1.986 . S
O32 C39 1.262 . S
O33 Zn28 2.049 . S
O33 C41 1.260 . S
O34 Zn29 1.996 . S
O34 C41 1.257 . S
C35 O30 1.254 . S
C35 O31 1.269 . S
C36 O37 1.249 1_554 S
C36 O38 1.270 . S
O37 Zn29 1.943 . S
O37 C36 1.249 1_556 S
O38 Zn28 2.067 1_554 S
O38 C36 1.270 . S
C39 O32 1.262 . S
C39 O40 1.232 . S
O40 C39 1.232 . S
C41 O33 1.260 . S
C41 O34 1.257 . S
Zn42 O45 2.031 . S
Zn42 O47 2.049 . S
Zn42 O52 2.067 1_556 S
Zn43 O44 1.962 . S
Zn43 O46 1.986 . S
Zn43 O48 1.996 . S
Zn43 O51 1.943 . S
O44 Zn43 1.962 . S
O44 C49 1.254 . S
O45 Zn42 2.031 . S
O45 C49 1.269 . S
O46 Zn43 1.986 . S
O46 C53 1.262 . S
O47 Zn42 2.049 . S
O47 C55 1.260 . S
O48 Zn43 1.996 . S
O48 C55 1.257 . S
C49 O44 1.254 . S
C49 O45 1.269 . S
C50 O51 1.249 1_554 S
C50 O52 1.270 . S
O51 Zn43 1.943 . S
O51 C50 1.249 1_556 S
O52 Zn42 2.067 1_554 S
O52 C50 1.270 . S
C53 O46 1.262 . S
C53 O54 1.232 . S
O54 C53 1.232 . S
C55 O47 1.260 . S
C55 O48 1.257 . S
Zn56 O59 2.031 . S
Zn56 O61 2.049 . S
Zn56 O66 2.067 . S
Zn57 O58 1.962 . S
Zn57 O60 1.986 . S
Zn57 O62 1.996 . S
Zn57 O65 1.943 . S
O58 Zn57 1.962 . S
O58 C63 1.254 . S
O59 Zn56 2.031 . S
O59 C63 1.269 . S
O60 Zn57 1.986 . S
O60 C67 1.262 . S
O61 Zn56 2.049 . S
O61 C69 1.260 . S
O62 Zn57 1.996 . S
O62 C69 1.257 . S
C63 O58 1.254 . S
C63 O59 1.269 . S
C64 O65 1.249 . S
C64 O66 1.270 . S
O65 Zn57 1.943 . S
O65 C64 1.249 . S
O66 Zn56 2.067 . S
O66 C64 1.270 . S
C67 O60 1.262 . S
C67 O68 1.232 . S
O68 C67 1.232 . S
C69 O61 1.260 . S
C69 O62 1.257 . S
Zn70 O73 2.031 . S
Zn70 O75 2.049 . S
Zn70 O80 2.067 . S
Zn71 O72 1.962 . S
Zn71 O74 1.986 . S
Zn71 O76 1.996 . S
Zn71 O79 1.943 . S
O72 Zn71 1.962 . S
O72 C77 1.254 . S
O73 Zn70 2.031 . S
O73 C77 1.269 . S
O74 Zn71 1.986 . S
O74 C81 1.262 . S
O75 Zn70 2.049 . S
O75 C83 1.260 . S
O76 Zn71 1.996 . S
O76 C83 1.257 . S
C77 O72 1.254 . S
C77 O73 1.269 . S
C78 O79 1.249 . S
C78 O80 1.270 . S
O79 Zn71 1.943 . S
O79 C78 1.249 . S
O80 Zn70 2.067 . S
O80 C78 1.270 . S
C81 O74 1.262 . S
C81 O82 1.232 . S
O82 C81 1.232 . S
C83 O75 1.260 . S
C83 O76 1.257 . S
Zn84 O87 2.031 . S
Zn84 O89 2.049 . S
Zn84 O94 2.067 1_554 S
Zn85 O86 1.962 . S
Zn85 O88 1.986 . S
Zn85 O90 1.996 . S
Zn85 O93 1.943 . S
O86 Zn85 1.962 . S
O86 C91 1.254 . S
O87 Zn84 2.031 . S
O87 C91 1.269 . S
O88 Zn85 1.986 . S
O88 C95 1.262 . S
O89 Zn84 2.049 . S
O89 C97 1.260 . S
O90 Zn85 1.996 . S
O90 C97 1.257 . S
C91 O86 1.254 . S
C91 O87 1.269 . S
C92 O93 1.249 1_556 S
C92 O94 1.270 . S
O93 Zn85 1.943 . S
O93 C92 1.249 1_554 S
O94 Zn84 2.067 1_556 S
O94 C92 1.270 . S
C95 O88 1.262 . S
C95 O96 1.232 . S
O96 C95 1.232 . S
C97 O89 1.260 . S
C97 O90 1.257 . S
Zn98 O101 2.031 . S
Zn98 O103 2.049 . S
Zn98 O108 2.067 1_554 S
Zn99 O100 1.962 . S
Zn99 O102 1.986 . S
Zn99 O104 1.996 . S
Zn99 O107 1.943 . S
O100 Zn99 1.962 . S
O100 C105 1.254 . S
O101 Zn98 2.031 . S
O101 C105 1.269 . S
O102 Zn99 1.986 . S
O102 C109 1.262 . S
O103 Zn98 2.049 . S
O103 C111 1.260 . S
O104 Zn99 1.996 . S
O104 C111 1.257 . S
C105 O100 1.254 . S
C105 O101 1.269 . S
C106 O107 1.249 1_556 S
C106 O108 1.270 . S
O107 Zn99 1.943 . S
O107 C106 1.249 1_554 S
O108 Zn98 2.067 1_556 S
O108 C106 1.270 . S
C109 O102 1.262 . S
C109 O110 1.232 . S
O110 C109 1.232 . S
C111 O103 1.260 . S
C111 O104 1.257 . S
Zn112 O115 2.031 . S
Zn112 O117 2.049 . S
Zn112 O122 2.067 . S
Zn113 O114 1.962 . S
Zn113 O116 1.986 . S
Zn113 O118 1.996 . S
Zn113 O121 1.943 . S
O114 Zn113 1.962 . S
O114 C119 1.254 . S
O115 Zn112 2.031 . S
O115 C119 1.269 . S
O116 Zn113 1.986 . S
O116 C123 1.262 . S
O117 Zn112 2.049 . S
O117 C125 1.260 . S
O118 Zn113 1.996 . S
O118 C125 1.257 . S
C119 O114 1.254 . S
C119 O115 1.269 . S
C120 O121 1.249 . S
C120 O122 1.270 . S
O121 Zn113 1.943 . S
O121 C120 1.249 . S
O122 Zn112 2.067 . S
O122 C120 1.270 . S
C123 O116 1.262 . S
C123 O124 1.232 . S
O124 C123 1.232 . S
C125 O117 1.260 . S
C125 O118 1.257 . S
Zn126 O129 2.031 . S
Zn126 O131 2.049 . S
Zn126 O136 2.067 . S
Zn127 O128 1.962 . S
Zn127 O130 1.986 . S
Zn127 O132 1.996 . S
Zn127 O135 1.943 . S
O128 Zn127 1.962 . S
O128 C133 1.254 . S
O129 Zn126 2.031 . S
O129 C133 1.269 . S
O130 Zn127 1.986 . S
O130 C137 1.262 . S
O131 Zn126 2.049 . S
O131 C139 1.260 . S
O132 Zn127 1.996 . S
O132 C139 1.257 . S
C133 O128 1.254 . S
C133 O129 1.269 . S
C134 O135 1.249 . S
C134 O136 1.270 . S
O135 Zn127 1.943 . S
O135 C134 1.249 . S
O136 Zn126 2.067 . S
O136 C134 1.270 . S
C137 O130 1.262 . S
C137 O138 1.232 . S
O138 C137 1.232 . S
C139 O131 1.260 . S
C139 O132 1.257 . S
Zn140 O143 2.031 . S
Zn140 O145 2.049 . S
Zn140 O150 2.067 . S
Zn141 O142 1.962 . S
Zn141 O144 1.986 . S
Zn141 O146 1.996 . S
Zn141 O149 1.943 . S
O142 Zn141 1.962 . S
O142 C147 1.254 . S
O143 Zn140 2.031 . S
O143 C147 1.269 . S
O144 Zn141 1.986 . S
O144 C151 1.262 . S
O145 Zn140 2.049 . S
O145 C153 1.260 . S
O146 Zn141 1.996 . S
O146 C153 1.257 . S
C147 O142 1.254 . S
C147 O143 1.269 . S
C148 O149 1.249 . S
C148 O150 1.270 . S
O149 Zn141 1.943 . S
O149 C148 1.249 . S
O150 Zn140 2.067 . S
O150 C148 1.270 . S
C151 O144 1.262 . S
C151 O152 1.232 . S
O152 C151 1.232 . S
C153 O145 1.260 . S
C153 O146 1.257 . S
Zn154 O157 2.031 . S
Zn154 O159 2.049 . S
Zn154 O164 2.067 . S
Zn155 O156 1.962 . S
Zn155 O158 1.986 . S
Zn155 O160 1.996 . S
Zn155 O163 1.943 . S
O156 Zn155 1.962 . S
O156 C161 1.254 . S
O157 Zn154 2.031 . S
O157 C161 1.269 . S
O158 Zn155 1.986 . S
O158 C165 1.262 . S
O159 Zn154 2.049 . S
O159 C167 1.260 . S
O160 Zn155 1.996 . S
O160 C167 1.257 . S
C161 O156 1.254 . S
C161 O157 1.269 . S
C162 O163 1.249 . S
C162 O164 1.270 . S
O163 Zn155 1.943 . S
O163 C162 1.249 . S
O164 Zn154 2.067 . S
O164 C162 1.270 . S
C165 O158 1.262 . S
C165 O166 1.232 . S
O166 C165 1.232 . S
C167 O159 1.260 . S
C167 O160 1.257 . S
Zn168 O171 2.031 . S
Zn168 O173 2.049 . S
Zn168 O178 2.067 . S
Zn169 O170 1.962 . S
Zn169 O172 1.986 . S
Zn169 O174 1.996 . S
Zn169 O177 1.943 . S
O170 Zn169 1.962 . S
O170 C175 1.254 . S
O171 Zn168 2.031 . S
O171 C175 1.269 . S
O172 Zn169 1.986 . S
O172 C179 1.262 . S
O173 Zn168 2.049 . S
O173 C181 1.260 . S
O174 Zn169 1.996 . S
O174 C181 1.257 . S
C175 O170 1.254 . S
C175 O171 1.269 . S
C176 O177 1.249 . S
C176 O178 1.270 . S
O177 Zn169 1.943 . S
O177 C176 1.249 . S
O178 Zn168 2.067 . S
O178 C176 1.270 . S
C179 O172 1.262 . S
C179 O180 1.232 . S
O180 C179 1.232 . S
C181 O173 1.260 . S
C181 O174 1.257 . S
Zn182 O185 2.031 . S
Zn182 O187 2.049 . S
Zn182 O192 2.067 . S
Zn183 O184 1.962 . S
Zn183 O186 1.986 . S
Zn183 O188 1.996 . S
Zn183 O191 1.943 . S
O184 Zn183 1.962 . S
O184 C189 1.254 . S
O185 Zn182 2.031 . S
O185 C189 1.269 . S
O186 Zn183 1.986 . S
O186 C193 1.262 . S
O187 Zn182 2.049 . S
O187 C195 1.260 . S
O188 Zn183 1.996 . S
O188 C195 1.257 . S
C189 O184 1.254 . S
C189 O185 1.269 . S
C190 O191 1.249 . S
C190 O192 1.270 . S
O191 Zn183 1.943 . S
O191 C190 1.249 . S
O192 Zn182 2.067 . S
O192 C190 1.270 . S
C193 O186 1.262 . S
C193 O194 1.232 . S
O194 C193 1.232 . S
C195 O187 1.260 . S
C195 O188 1.257 . S
Zn196 O199 2.031 . S
Zn196 O201 2.049 . S
Zn196 O206 2.067 . S
Zn197 O198 1.962 . S
Zn197 O200 1.986 . S
Zn197 O202 1.996 . S
Zn197 O205 1.943 . S
O198 Zn197 1.962 . S
O198 C203 1.254 . S
O199 Zn196 2.031 . S
O199 C203 1.269 . S
O200 Zn197 1.986 . S
O200 C207 1.262 . S
O201 Zn196 2.049 . S
O201 C209 1.260 . S
O202 Zn197 1.996 . S
O202 C209 1.257 . S
C203 O198 1.254 . S
C203 O199 1.269 . S
C204 O205 1.249 . S
C204 O206 1.270 . S
O205 Zn197 1.943 . S
O205 C204 1.249 . S
O206 Zn196 2.067 . S
O206 C204 1.270 . S
C207 O200 1.262 . S
C207 O208 1.232 . S
O208 C207 1.232 . S
C209 O201 1.260 . S
C209 O202 1.257 . S
Zn210 O213 2.031 . S
Zn210 O215 2.049 . S
Zn210 O220 2.067 . S
Zn211 O212 1.962 . S
Zn211 O214 1.986 . S
Zn211 O216 1.996 . S
Zn211 O219 1.943 . S
O212 Zn211 1.962 . S
O212 C217 1.254 . S
O213 Zn210 2.031 . S
O213 C217 1.269 . S
O214 Zn211 1.986 . S
O214 C221 1.262 . S
O215 Zn210 2.049 . S
O215 C223 1.260 . S
O216 Zn211 1.996 . S
O216 C223 1.257 . S
C217 O212 1.254 . S
C217 O213 1.269 . S
C218 O219 1.249 . S
C218 O220 1.270 . S
O219 Zn211 1.943 . S
O219 C218 1.249 . S
O220 Zn210 2.067 . S
O220 C218 1.270 . S
C221 O214 1.262 . S
C221 O222 1.232 . S
O222 C221 1.232 . S
C223 O215 1.260 . S
C223 O216 1.257 . S
Zn224 O227 2.031 . S
Zn224 O229 2.049 . S
Zn224 O234 2.067 . S
Zn225 O226 1.962 . S
Zn225 O228 1.986 . S
Zn225 O230 1.996 . S
Zn225 O233 1.943 . S
O226 Zn225 1.962 . S
O226 C231 1.254 . S
O227 Zn224 2.031 . S
O227 C231 1.269 . S
O228 Zn225 1.986 . S
O228 C235 1.262 . S
O229 Zn224 2.049 . S
O229 C237 1.260 . S
O230 Zn225 1.996 . S
O230 C237 1.257 . S
C231 O226 1.254 . S
C231 O227 1.269 . S
C232 O233 1.249 . S
C232 O234 1.270 . S
O233 Zn225 1.943 . S
O233 C232 1.249 . S
O234 Zn224 2.067 . S
O234 C232 1.270 . S
C235 O228 1.262 . S
C235 O236 1.232 . S
O236 C235 1.232 . S
C237 O229 1.260 . S
C237 O230 1.257 . S
Zn238 O241 2.031 . S
Zn238 O243 2.049 . S
Zn238 O248 2.067 . S
Zn239 O240 1.962 . S
Zn239 O242 1.986 . S
Zn239 O244 1.996 . S
Zn239 O247 1.943 . S
O240 Zn239 1.962 . S
O240 C245 1.254 . S
O241 Zn238 2.031 . S
O241 C245 1.269 . S
O242 Zn239 1.986 . S
O242 C249 1.262 . S
O243 Zn238 2.049 . S
O243 C251 1.260 . S
O244 Zn239 1.996 . S
O244 C251 1.257 . S
C245 O240 1.254 . S
C245 O241 1.269 . S
C246 O247 1.249 . S
C246 O248 1.270 . S
O247 Zn239 1.943 . S
O247 C246 1.249 . S
O248 Zn238 2.067 . S
O248 C246 1.270 . S
C249 O242 1.262 . S
C249 O250 1.232 . S
O250 C249 1.232 . S
C251 O243 1.260 . S
C251 O244 1.257 . S
Zn252 O255 2.031 . S
Zn252 O257 2.049 . S
Zn252 O262 2.067 . S
Zn253 O254 1.962 . S
Zn253 O256 1.986 . S
Zn253 O258 1.996 . S
Zn253 O261 1.943 . S
O254 Zn253 1.962 . S
O254 C259 1.254 . S
O255 Zn252 2.031 . S
O255 C259 1.269 . S
O256 Zn253 1.986 . S
O256 C263 1.262 . S
O257 Zn252 2.049 . S
O257 C265 1.260 . S
O258 Zn253 1.996 . S
O258 C265 1.257 . S
C259 O254 1.254 . S
C259 O255 1.269 . S
C260 O261 1.249 . S
C260 O262 1.270 . S
O261 Zn253 1.943 . S
O261 C260 1.249 . S
O262 Zn252 2.067 . S
O262 C260 1.270 . S
C263 O256 1.262 . S
C263 O264 1.232 . S
O264 C263 1.232 . S
C265 O257 1.260 . S
C265 O258 1.257 . S
Zn266 O269 2.031 . S
Zn266 O271 2.049 . S
Zn266 O276 2.067 . S
Zn267 O268 1.962 . S
Zn267 O270 1.986 . S
Zn267 O272 1.996 . S
Zn267 O275 1.943 . S
O268 Zn267 1.962 . S
O268 C273 1.254 . S
O269 Zn266 2.031 . S
O269 C273 1.269 . S
O270 Zn267 1.986 . S
O270 C277 1.262 . S
O271 Zn266 2.049 . S
O271 C279 1.260 . S
O272 Zn267 1.996 . S
O272 C279 1.257 . S
C273 O268 1.254 . S
C273 O269 1.269 . S
C274 O275 1.249 . S
C274 O276 1.270 . S
O275 Zn267 1.943 . S
O275 C274 1.249 . S
O276 Zn266 2.067 . S
O276 C274 1.270 . S
C277 O270 1.262 . S
C277 O278 1.232 . S
O278 C277 1.232 . S
C279 O271 1.260 . S
C279 O272 1.257 . S
Zn280 O283 2.031 . S
Zn280 O285 2.049 . S
Zn280 O290 2.067 . S
Zn281 O282 1.962 . S
Zn281 O284 1.986 . S
Zn281 O286 1.996 . S
Zn281 O289 1.943 . S
O282 Zn281 1.962 . S
O282 C287 1.254 . S
O283 Zn280 2.031 . S
O283 C287 1.269 . S
O284 Zn281 1.986 . S
O284 C291 1.262 . S
O285 Zn280 2.049 . S
O285 C293 1.260 . S
O286 Zn281 1.996 . S
O286 C293 1.257 . S
C287 O282 1.254 . S
C287 O283 1.269 . S
C288 O289 1.249 . S
C288 O290 1.270 . S
O289 Zn281 1.943 . S
O289 C288 1.249 . S
O290 Zn280 2.067 . S
O290 C288 1.270 . S
C291 O284 1.262 . S
C291 O292 1.232 . S
O292 C291 1.232 . S
C293 O285 1.260 . S
C293 O286 1.257 . S
Zn294 O297 2.031 . S
Zn294 O299 2.049 . S
Zn294 O304 2.067 . S
Zn295 O296 1.962 . S
Zn295 O298 1.986 . S
Zn295 O300 1.996 . S
Zn295 O303 1.943 . S
O296 Zn295 1.962 . S
O296 C301 1.254 . S
O297 Zn294 2.031 . S
O297 C301 1.269 . S
O298 Zn295 1.986 . S
O298 C305 1.262 . S
O299 Zn294 2.049 . S
O299 C307 1.260 . S
O300 Zn295 1.996 . S
O300 C307 1.257 . S
C301 O296 1.254 . S
C301 O297 1.269 . S
C302 O303 1.249 . S
C302 O304 1.270 . S
O303 Zn295 1.943 . S
O303 C302 1.249 . S
O304 Zn294 2.067 . S
O304 C302 1.270 . S
C305 O298 1.262 . S
C305 O306 1.232 . S
O306 C305 1.232 . S
C307 O299 1.260 . S
C307 O300 1.257 . S
Zn308 O311 2.031 . S
Zn308 O313 2.049 . S
Zn308 O318 2.067 . S
Zn309 O310 1.962 . S
Zn309 O312 1.986 . S
Zn309 O314 1.996 . S
Zn309 O317 1.943 . S
O310 Zn309 1.962 . S
O310 C315 1.254 . S
O311 Zn308 2.031 . S
O311 C315 1.269 . S
O312 Zn309 1.986 . S
O312 C319 1.262 . S
O313 Zn308 2.049 . S
O313 C321 1.260 . S
O314 Zn309 1.996 . S
O314 C321 1.257 . S
C315 O310 1.254 . S
C315 O311 1.269 . S
C316 O317 1.249 . S
C316 O318 1.270 . S
O317 Zn309 1.943 . S
O317 C316 1.249 . S
O318 Zn308 2.067 . S
O318 C316 1.270 . S
C319 O312 1.262 . S
C319 O320 1.232 . S
O320 C319 1.232 . S
C321 O313 1.260 . S
C321 O314 1.257 . S
Zn322 O325 2.031 . S
Zn322 O327 2.049 . S
Zn322 O332 2.067 . S
Zn323 O324 1.962 . S
Zn323 O326 1.986 . S
Zn323 O328 1.996 . S
Zn323 O331 1.943 . S
O324 Zn323 1.962 . S
O324 C329 1.254 . S
O325 Zn322 2.031 . S
O325 C329 1.269 . S
O326 Zn323 1.986 . S
O326 C333 1.262 . S
O327 Zn322 2.049 . S
O327 C335 1.260 . S
O328 Zn323 1.996 . S
O328 C335 1.257 . S
C329 O324 1.254 . S
C329 O325 1.269 . S
C330 O331 1.249 . S
C330 O332 1.270 . S
O331 Zn323 1.943 . S
O331 C330 1.249 . S
O332 Zn322 2.067 . S
O332 C330 1.270 . S
C333 O326 1.262 . S
C333 O334 1.232 . S
O334 C333 1.232 . S
C335 O327 1.260 . S
C335 O328 1.257 . S
Zn336 O339 2.031 . S
Zn336 O341 2.049 . S
Zn336 O346 2.067 . S
Zn337 O338 1.962 . S
Zn337 O340 1.986 . S
Zn337 O342 1.996 . S
Zn337 O345 1.943 . S
O338 Zn337 1.962 . S
O338 C343 1.254 . S
O339 Zn336 2.031 . S
O339 C343 1.269 . S
O340 Zn337 1.986 . S
O340 C347 1.262 . S
O341 Zn336 2.049 . S
O341 C349 1.260 . S
O342 Zn337 1.996 . S
O342 C349 1.257 . S
C343 O338 1.254 . S
C343 O339 1.269 . S
C344 O345 1.249 . S
C344 O346 1.270 . S
O345 Zn337 1.943 . S
O345 C344 1.249 . S
O346 Zn336 2.067 . S
O346 C344 1.270 . S
C347 O340 1.262 . S
C347 O348 1.232 . S
O348 C347 1.232 . S
C349 O341 1.260 . S
C349 O342 1.257 . S
Zn350 O353 2.031 . S
Zn350 O355 2.049 . S
Zn350 O360 2.067 . S
Zn351 O352 1.962 . S
Zn351 O354 1.986 . S
Zn351 O356 1.996 . S
Zn351 O359 1.943 . S
O352 Zn351 1.962 . S
O352 C357 1.254 . S
O353 Zn350 2.031 . S
O353 C357 1.269 . S
O354 Zn351 1.986 . S
O354 C361 1.262 . S
O355 Zn350 2.049 . S
O355 C363 1.260 . S
O356 Zn351 1.996 . S
O356 C363 1.257 . S
C357 O352 1.254 . S
C357 O353 1.269 . S
C358 O359 1.249 . S
C358 O360 1.270 . S
O359 Zn351 1.943 . S
O359 C358 1.249 . S
O360 Zn350 2.067 . S
O360 C358 1.270 . S
C361 O354 1.262 . S
C361 O362 1.232 . S
O362 C361 1.232 . S
C363 O355 1.260 . S
C363 O356 1.257 . S
Zn364 O367 2.031 . S
Zn364 O369 2.049 . S
Zn364 O374 2.067 1_556 S
Zn365 O366 1.962 . S
Zn365 O368 1.986 . S
Zn365 O370 1.996 . S
Zn365 O373 1.943 . S
O366 Zn365 1.962 . S
O366 C371 1.254 . S
O367 Zn364 2.031 . S
O367 C371 1.269 . S
O368 Zn365 1.986 . S
O368 C375 1.262 . S
O369 Zn364 2.049 . S
O369 C377 1.260 . S
O370 Zn365 1.996 . S
O370 C377 1.257 . S
C371 O366 1.254 . S
C371 O367 1.269 . S
C372 O373 1.249 1_554 S
C372 O374 1.270 . S
O373 Zn365 1.943 . S
O373 C372 1.249 1_556 S
O374 Zn364 2.067 1_554 S
O374 C372 1.270 . S
C375 O368 1.262 . S
C375 O376 1.232 . S
O376 C375 1.232 . S
C377 O369 1.260 . S
C377 O370 1.257 . S
Zn378 O381 2.031 . S
Zn378 O383 2.049 . S
Zn378 O388 2.067 1_556 S
Zn379 O380 1.962 . S
Zn379 O382 1.986 . S
Zn379 O384 1.996 . S
Zn379 O387 1.943 . S
O380 Zn379 1.962 . S
O380 C385 1.254 . S
O381 Zn378 2.031 . S
O381 C385 1.269 . S
O382 Zn379 1.986 . S
O382 C389 1.262 . S
O383 Zn378 2.049 . S
O383 C391 1.260 . S
O384 Zn379 1.996 . S
O384 C391 1.257 . S
C385 O380 1.254 . S
C385 O381 1.269 . S
C386 O387 1.249 1_554 S
C386 O388 1.270 . S
O387 Zn379 1.943 . S
O387 C386 1.249 1_556 S
O388 Zn378 2.067 1_554 S
O388 C386 1.270 . S
C389 O382 1.262 . S
C389 O390 1.232 . S
O390 C389 1.232 . S
C391 O383 1.260 . S
C391 O384 1.257 . S
Zn392 O395 2.031 . S
Zn392 O397 2.049 . S
Zn392 O402 2.067 . S
Zn393 O394 1.962 . S
Zn393 O396 1.986 . S
Zn393 O398 1.996 . S
Zn393 O401 1.943 . S
O394 Zn393 1.962 . S
O394 C399 1.254 . S
O395 Zn392 2.031 . S
O395 C399 1.269 . S
O396 Zn393 1.986 . S
O396 C403 1.262 . S
O397 Zn392 2.049 . S
O397 C405 1.260 . S
O398 Zn393 1.996 . S
O398 C405 1.257 . S
C399 O394 1.254 . S
C399 O395 1.269 . S
C400 O401 1.249 . S
C400 O402 1.270 . S
O401 Zn393 1.943 . S
O401 C400 1.249 . S
O402 Zn392 2.067 . S
O402 C400 1.270 . S
C403 O396 1.262 . S
C403 O404 1.232 . S
O404 C403 1.232 . S
C405 O397 1.260 . S
C405 O398 1.257 . S
Zn406 O409 2.031 . S
Zn406 O411 2.049 . S
Zn406 O416 2.067 . S
Zn407 O408 1.962 . S
Zn407 O410 1.986 . S
Zn407 O412 1.996 . S
Zn407 O415 1.943 . S
O408 Zn407 1.962 . S
O408 C413 1.254 . S
O409 Zn406 2.031 . S
O409 C413 1.269 . S
O410 Zn407 1.986 . S
O410 C417 1.262 . S
O411 Zn406 2.049 . S
O411 C419 1.260 . S
O412 Zn407 1.996 . S
O412 C419 1.257 . S
C413 O408 1.254 . S
C413 O409 1.269 . S
C414 O415 1.249 . S
C414 O416 1.270 . S
O415 Zn407 1.943 . S
O415 C414 1.249 . S
O416 Zn406 2.067 . S
O416 C414 1.270 . S
C417 O410 1.262 . S
C417 O418 1.232 . S
O418 C417 1.232 . S
C419 O411 1.260 . S
C419 O412 1.257 . S
Zn420 O423 2.031 . S
Zn420 O425 2.049 . S
Zn420 O430 2.067 1_554 S
Zn421 O422 1.962 . S
Zn421 O424 1.986 . S
Zn421 O426 1.996 . S
Zn421 O429 1.943 . S
O422 Zn421 1.962 . S
O422 C427 1.254 . S
O423 Zn420 2.031 . S
O423 C427 1.269 . S
O424 Zn421 1.986 . S
O424 C431 1.262 . S
O425 Zn420 2.049 . S
O425 C433 1.260 . S
O426 Zn421 1.996 . S
O426 C433 1.257 . S
C427 O422 1.254 . S
C427 O423 1.269 . S
C428 O429 1.249 1_556 S
C428 O430 1.270 . S
O429 Zn421 1.943 . S
O429 C428 1.249 1_554 S
O430 Zn420 2.067 1_556 S
O430 C428 1.270 . S
C431 O424 1.262 . S
C431 O432 1.232 . S
O432 C431 1.232 . S
C433 O425 1.260 . S
C433 O426 1.257 . S
Zn434 O437 2.031 . S
Zn434 O439 2.049 . S
Zn434 O444 2.067 1_554 S
Zn435 O436 1.962 . S
Zn435 O438 1.986 . S
Zn435 O440 1.996 . S
Zn435 O443 1.943 . S
O436 Zn435 1.962 . S
O436 C441 1.254 . S
O437 Zn434 2.031 . S
O437 C441 1.269 . S
O438 Zn435 1.986 . S
O438 C445 1.262 . S
O439 Zn434 2.049 . S
O439 C447 1.260 . S
O440 Zn435 1.996 . S
O440 C447 1.257 . S
C441 O436 1.254 . S
C441 O437 1.269 . S
C442 O443 1.249 1_556 S
C442 O444 1.270 . S
O443 Zn435 1.943 . S
O443 C442 1.249 1_554 S
O444 Zn434 2.067 1_556 S
O444 C442 1.270 . S
C445 O438 1.262 . S
C445 O446 1.232 . S
O446 C445 1.232 . S
C447 O439 1.260 . S
C447 O440 1.257 . S
C448 C449 1.369 . S
C448 C450 1.419 . S
C448 H452 0.930 . S
C449 C448 1.369 . S
C449 C458 1.429 . S
C450 C448 1.419 . S
C450 C451 1.363 . S
C450 H453 0.929 . S
C451 C450 1.363 . S
C451 C457 1.428 . S
H452 C448 0.930 . S
H453 C450 0.929 . S
S454 N455 1.613 . S
S454 N456 1.610 . S
N455 S454 1.613 . S
N455 C458 1.350 . S
N456 S454 1.610 . S
N456 C457 1.351 . S
C457 C451 1.428 . S
C457 N456 1.351 . S
C457 C458 1.434 . S
C458 C449 1.429 . S
C458 N455 1.350 . S
C458 C457 1.434 . S
C459 C460 1.369 . S
C459 C461 1.419 . S
C459 H463 0.930 . S
C460 C459 1.369 . S
C460 C469 1.429 . S
C461 C459 1.419 . S
C461 C462 1.363 . S
C461 H464 0.929 . S
C462 C461 1.363 . S
C462 C468 1.428 . S
H463 C459 0.930 . S
H464 C461 0.929 . S
S465 N466 1.613 . S
S465 N467 1.610 . S
N466 S465 1.613 . S
N466 C469 1.350 . S
N467 S465 1.610 . S
N467 C468 1.351 . S
C468 C462 1.428 . S
C468 N467 1.351 . S
C468 C469 1.434 . S
C469 C460 1.429 . S
C469 N466 1.350 . S
C469 C468 1.434 . S
C470 C471 1.369 . S
C470 C472 1.419 . S
C470 H474 0.930 . S
C471 C470 1.369 . S
C471 C480 1.429 . S
C472 C470 1.419 . S
C472 C473 1.363 . S
C472 H475 0.929 . S
C473 C472 1.363 . S
C473 C479 1.428 . S
H474 C470 0.930 . S
H475 C472 0.929 . S
S476 N477 1.613 . S
S476 N478 1.610 . S
N477 S476 1.613 . S
N477 C480 1.350 . S
N478 S476 1.610 . S
N478 C479 1.351 . S
C479 C473 1.428 . S
C479 N478 1.351 . S
C479 C480 1.434 . S
C480 C471 1.429 . S
C480 N477 1.350 . S
C480 C479 1.434 . S
C481 C482 1.369 . S
C481 C483 1.419 . S
C481 H485 0.930 . S
C482 C481 1.369 . S
C482 C491 1.429 . S
C483 C481 1.419 . S
C483 C484 1.363 . S
C483 H486 0.929 . S
C484 C483 1.363 . S
C484 C490 1.428 . S
H485 C481 0.930 . S
H486 C483 0.929 . S
S487 N488 1.613 . S
S487 N489 1.610 . S
N488 S487 1.613 . S
N488 C491 1.350 . S
N489 S487 1.610 . S
N489 C490 1.351 . S
C490 C484 1.428 . S
C490 N489 1.351 . S
C490 C491 1.434 . S
C491 C482 1.429 . S
C491 N488 1.350 . S
C491 C490 1.434 . S
C492 C493 1.369 . S
C492 C494 1.419 . S
C492 H496 0.930 . S
C493 C492 1.369 . S
C493 C502 1.429 . S
C494 C492 1.419 . S
C494 C495 1.363 . S
C494 H497 0.929 . S
C495 C494 1.363 . S
C495 C501 1.428 . S
H496 C492 0.930 . S
H497 C494 0.929 . S
S498 N499 1.613 . S
S498 N500 1.610 . S
N499 S498 1.613 . S
N499 C502 1.350 . S
N500 S498 1.610 . S
N500 C501 1.351 . S
C501 C495 1.428 . S
C501 N500 1.351 . S
C501 C502 1.434 . S
C502 C493 1.429 . S
C502 N499 1.350 . S
C502 C501 1.434 . S
C503 C504 1.369 . S
C503 C505 1.419 . S
C503 H507 0.930 . S
C504 C503 1.369 . S
C504 C513 1.429 . S
C505 C503 1.419 . S
C505 C506 1.363 . S
C505 H508 0.929 . S
C506 C505 1.363 . S
C506 C512 1.428 . S
H507 C503 0.930 . S
H508 C505 0.929 . S
S509 N510 1.613 . S
S509 N511 1.610 . S
N510 S509 1.613 . S
N510 C513 1.350 . S
N511 S509 1.610 . S
N511 C512 1.351 . S
C512 C506 1.428 . S
C512 N511 1.351 . S
C512 C513 1.434 . S
C513 C504 1.429 . S
C513 N510 1.350 . S
C513 C512 1.434 . S
C514 C515 1.369 . S
C514 C516 1.419 . S
C514 H518 0.930 . S
C515 C514 1.369 . S
C515 C524 1.429 . S
C516 C514 1.419 . S
C516 C517 1.363 . S
C516 H519 0.929 . S
C517 C516 1.363 . S
C517 C523 1.428 . S
H518 C514 0.930 . S
H519 C516 0.929 . S
S520 N521 1.613 . S
S520 N522 1.610 . S
N521 S520 1.613 . S
N521 C524 1.350 . S
N522 S520 1.610 . S
N522 C523 1.351 . S
C523 C517 1.428 . S
C523 N522 1.351 . S
C523 C524 1.434 . S
C524 C515 1.429 . S
C524 N521 1.350 . S
C524 C523 1.434 . S
C525 C526 1.369 . S
C525 C527 1.419 . S
C525 H529 0.930 . S
C526 C525 1.369 . S
C526 C535 1.429 . S
C527 C525 1.419 . S
C527 C528 1.363 . S
C527 H530 0.929 . S
C528 C527 1.363 . S
C528 C534 1.428 . S
H529 C525 0.930 . S
H530 C527 0.929 . S
S531 N532 1.613 . S
S531 N533 1.610 . S
N532 S531 1.613 . S
N532 C535 1.350 . S
N533 S531 1.610 . S
N533 C534 1.351 . S
C534 C528 1.428 . S
C534 N533 1.351 . S
C534 C535 1.434 . S
C535 C526 1.429 . S
C535 N532 1.350 . S
C535 C534 1.434 . S
C536 C537 1.369 . S
C536 C538 1.419 . S
C536 H540 0.930 . S
C537 C536 1.369 . S
C537 C546 1.429 . S
C538 C536 1.419 . S
C538 C539 1.363 . S
C538 H541 0.929 . S
C539 C538 1.363 . S
C539 C545 1.428 . S
H540 C536 0.930 . S
H541 C538 0.929 . S
S542 N543 1.613 . S
S542 N544 1.610 . S
N543 S542 1.613 . S
N543 C546 1.350 . S
N544 S542 1.610 . S
N544 C545 1.351 . S
C545 C539 1.428 . S
C545 N544 1.351 . S
C545 C546 1.434 . S
C546 C537 1.429 . S
C546 N543 1.350 . S
C546 C545 1.434 . S
C547 C548 1.369 . S
C547 C549 1.419 . S
C547 H551 0.930 . S
C548 C547 1.369 . S
C548 C557 1.429 . S
C549 C547 1.419 . S
C549 C550 1.363 . S
C549 H552 0.929 . S
C550 C549 1.363 . S
C550 C556 1.428 . S
H551 C547 0.930 . S
H552 C549 0.929 . S
S553 N554 1.613 . S
S553 N555 1.610 . S
N554 S553 1.613 . S
N554 C557 1.350 . S
N555 S553 1.610 . S
N555 C556 1.351 . S
C556 C550 1.428 . S
C556 N555 1.351 . S
C556 C557 1.434 . S
C557 C548 1.429 . S
C557 N554 1.350 . S
C557 C556 1.434 . S
C558 C559 1.369 . S
C558 C560 1.419 . S
C558 H562 0.930 . S
C559 C558 1.369 . S
C559 C568 1.429 . S
C560 C558 1.419 . S
C560 C561 1.363 . S
C560 H563 0.929 . S
C561 C560 1.363 . S
C561 C567 1.428 . S
H562 C558 0.930 . S
H563 C560 0.929 . S
S564 N565 1.613 . S
S564 N566 1.610 . S
N565 S564 1.613 . S
N565 C568 1.350 . S
N566 S564 1.610 . S
N566 C567 1.351 . S
C567 C561 1.428 . S
C567 N566 1.351 . S
C567 C568 1.434 . S
C568 C559 1.429 . S
C568 N565 1.350 . S
C568 C567 1.434 . S
C569 C570 1.369 . S
C569 C571 1.419 . S
C569 H573 0.930 . S
C570 C569 1.369 . S
C570 C579 1.429 . S
C571 C569 1.419 . S
C571 C572 1.363 . S
C571 H574 0.929 . S
C572 C571 1.363 . S
C572 C578 1.428 . S
H573 C569 0.930 . S
H574 C571 0.929 . S
S575 N576 1.613 . S
S575 N577 1.610 . S
N576 S575 1.613 . S
N576 C579 1.350 . S
N577 S575 1.610 . S
N577 C578 1.351 . S
C578 C572 1.428 . S
C578 N577 1.351 . S
C578 C579 1.434 . S
C579 C570 1.429 . S
C579 N576 1.350 . S
C579 C578 1.434 . S
C580 C581 1.369 . S
C580 C582 1.419 . S
C580 H584 0.930 . S
C581 C580 1.369 . S
C581 C590 1.429 . S
C582 C580 1.419 . S
C582 C583 1.363 . S
C582 H585 0.929 . S
C583 C582 1.363 . S
C583 C589 1.428 . S
H584 C580 0.930 . S
H585 C582 0.929 . S
S586 N587 1.613 . S
S586 N588 1.610 . S
N587 S586 1.613 . S
N587 C590 1.350 . S
N588 S586 1.610 . S
N588 C589 1.351 . S
C589 C583 1.428 . S
C589 N588 1.351 . S
C589 C590 1.434 . S
C590 C581 1.429 . S
C590 N587 1.350 . S
C590 C589 1.434 . S
C591 C592 1.369 . S
C591 C593 1.419 . S
C591 H595 0.930 . S
C592 C591 1.369 . S
C592 C601 1.429 . S
C593 C591 1.419 . S
C593 C594 1.363 . S
C593 H596 0.929 . S
C594 C593 1.363 . S
C594 C600 1.428 . S
H595 C591 0.930 . S
H596 C593 0.929 . S
S597 N598 1.613 . S
S597 N599 1.610 . S
N598 S597 1.613 . S
N598 C601 1.350 . S
N599 S597 1.610 . S
N599 C600 1.351 . S
C600 C594 1.428 . S
C600 N599 1.351 . S
C600 C601 1.434 . S
C601 C592 1.429 . S
C601 N598 1.350 . S
C601 C600 1.434 . S
C602 C603 1.369 . S
C602 C604 1.419 . S
C602 H606 0.930 . S
C603 C602 1.369 . S
C603 C612 1.429 . S
C604 C602 1.419 . S
C604 C605 1.363 . S
C604 H607 0.929 . S
C605 C604 1.363 . S
C605 C611 1.428 . S
H606 C602 0.930 . S
H607 C604 0.929 . S
S608 N609 1.613 . S
S608 N610 1.610 . S
N609 S608 1.613 . S
N609 C612 1.350 . S
N610 S608 1.610 . S
N610 C611 1.351 . S
C611 C605 1.428 . S
C611 N610 1.351 . S
C611 C612 1.434 . S
C612 C603 1.429 . S
C612 N609 1.350 . S
C612 C611 1.434 . S
C613 C614 1.369 . S
C613 C615 1.419 . S
C613 H617 0.930 . S
C614 C613 1.369 . S
C614 C623 1.429 . S
C615 C613 1.419 . S
C615 C616 1.363 . S
C615 H618 0.929 . S
C616 C615 1.363 . S
C616 C622 1.428 . S
H617 C613 0.930 . S
H618 C615 0.929 . S
S619 N620 1.613 . S
S619 N621 1.610 . S
N620 S619 1.613 . S
N620 C623 1.350 . S
N621 S619 1.610 . S
N621 C622 1.351 . S
C622 C616 1.428 . S
C622 N621 1.351 . S
C622 C623 1.434 . S
C623 C614 1.429 . S
C623 N620 1.350 . S
C623 C622 1.434 . S
C624 C625 1.369 . S
C624 C626 1.419 . S
C624 H628 0.930 . S
C625 C624 1.369 . S
C625 C634 1.429 . S
C626 C624 1.419 . S
C626 C627 1.363 . S
C626 H629 0.929 . S
C627 C626 1.363 . S
C627 C633 1.428 . S
H628 C624 0.930 . S
H629 C626 0.929 . S
S630 N631 1.613 . S
S630 N632 1.610 . S
N631 S630 1.613 . S
N631 C634 1.350 . S
N632 S630 1.610 . S
N632 C633 1.351 . S
C633 C627 1.428 . S
C633 N632 1.351 . S
C633 C634 1.434 . S
C634 C625 1.429 . S
C634 N631 1.350 . S
C634 C633 1.434 . S
C635 C636 1.369 . S
C635 C637 1.419 . S
C635 H639 0.930 . S
C636 C635 1.369 . S
C636 C645 1.429 . S
C637 C635 1.419 . S
C637 C638 1.363 . S
C637 H640 0.929 . S
C638 C637 1.363 . S
C638 C644 1.428 . S
H639 C635 0.930 . S
H640 C637 0.929 . S
S641 N642 1.613 . S
S641 N643 1.610 . S
N642 S641 1.613 . S
N642 C645 1.350 . S
N643 S641 1.610 . S
N643 C644 1.351 . S
C644 C638 1.428 . S
C644 N643 1.351 . S
C644 C645 1.434 . S
C645 C636 1.429 . S
C645 N642 1.350 . S
C645 C644 1.434 . S
C646 C647 1.369 . S
C646 C648 1.419 . S
C646 H650 0.930 . S
C647 C646 1.369 . S
C647 C656 1.429 . S
C648 C646 1.419 . S
C648 C649 1.363 . S
C648 H651 0.929 . S
C649 C648 1.363 . S
C649 C655 1.428 . S
H650 C646 0.930 . S
H651 C648 0.929 . S
S652 N653 1.613 . S
S652 N654 1.610 . S
N653 S652 1.613 . S
N653 C656 1.350 . S
N654 S652 1.610 . S
N654 C655 1.351 . S
C655 C649 1.428 . S
C655 N654 1.351 . S
C655 C656 1.434 . S
C656 C647 1.429 . S
C656 N653 1.350 . S
C656 C655 1.434 . S
C657 C658 1.369 . S
C657 C659 1.419 . S
C657 H661 0.930 . S
C658 C657 1.369 . S
C658 C667 1.429 . S
C659 C657 1.419 . S
C659 C660 1.363 . S
C659 H662 0.929 . S
C660 C659 1.363 . S
C660 C666 1.428 . S
H661 C657 0.930 . S
H662 C659 0.929 . S
S663 N664 1.613 . S
S663 N665 1.610 . S
N664 S663 1.613 . S
N664 C667 1.350 . S
N665 S663 1.610 . S
N665 C666 1.351 . S
C666 C660 1.428 . S
C666 N665 1.351 . S
C666 C667 1.434 . S
C667 C658 1.429 . S
C667 N664 1.350 . S
C667 C666 1.434 . S
C668 C669 1.369 . S
C668 C670 1.419 . S
C668 H672 0.930 . S
C669 C668 1.369 . S
C669 C678 1.429 . S
C670 C668 1.419 . S
C670 C671 1.363 . S
C670 H673 0.929 . S
C671 C670 1.363 . S
C671 C677 1.428 . S
H672 C668 0.930 . S
H673 C670 0.929 . S
S674 N675 1.613 . S
S674 N676 1.610 . S
N675 S674 1.613 . S
N675 C678 1.350 . S
N676 S674 1.610 . S
N676 C677 1.351 . S
C677 C671 1.428 . S
C677 N676 1.351 . S
C677 C678 1.434 . S
C678 C669 1.429 . S
C678 N675 1.350 . S
C678 C677 1.434 . S
C679 C680 1.369 . S
C679 C681 1.419 . S
C679 H683 0.930 . S
C680 C679 1.369 . S
C680 C689 1.429 . S
C681 C679 1.419 . S
C681 C682 1.363 . S
C681 H684 0.929 . S
C682 C681 1.363 . S
C682 C688 1.428 . S
H683 C679 0.930 . S
H684 C681 0.929 . S
S685 N686 1.610 1_565 S
S685 N687 1.607 1_565 S
N686 S685 1.610 1_545 S
N686 C689 1.350 . S
N687 S685 1.607 1_545 S
N687 C688 1.351 . S
C688 C682 1.428 . S
C688 N687 1.351 . S
C688 C689 1.434 . S
C689 C680 1.429 . S
C689 N686 1.350 . S
C689 C688 1.434 . S
C690 C691 1.369 . S
C690 C692 1.419 . S
C690 H694 0.930 . S
C691 C690 1.369 . S
C691 C700 1.429 . S
C692 C690 1.419 . S
C692 C693 1.363 . S
C692 H695 0.929 . S
C693 C692 1.363 . S
C693 C699 1.428 . S
H694 C690 0.930 . S
H695 C692 0.929 . S
S696 N697 1.613 . S
S696 N698 1.610 . S
N697 S696 1.613 . S
N697 C700 1.350 . S
N698 S696 1.610 . S
N698 C699 1.351 . S
C699 C693 1.428 . S
C699 N698 1.351 . S
C699 C700 1.434 . S
C700 C691 1.429 . S
C700 N697 1.350 . S
C700 C699 1.434 . S
C701 C702 1.369 . S
C701 C703 1.419 . S
C701 H705 0.930 . S
C702 C701 1.369 . S
C702 C711 1.429 . S
C703 C701 1.419 . S
C703 C704 1.363 . S
C703 H706 0.929 . S
C704 C703 1.363 . S
C704 C710 1.428 . S
H705 C701 0.930 . S
H706 C703 0.929 . S
S707 N708 1.613 . S
S707 N709 1.610 . S
N708 S707 1.613 . S
N708 C711 1.350 . S
N709 S707 1.610 . S
N709 C710 1.351 . S
C710 C704 1.428 . S
C710 N709 1.351 . S
C710 C711 1.434 . S
C711 C702 1.429 . S
C711 N708 1.350 . S
C711 C710 1.434 . S
C712 C713 1.369 . S
C712 C714 1.419 . S
C712 H716 0.930 . S
C713 C712 1.369 . S
C713 C722 1.429 . S
C714 C712 1.419 . S
C714 C715 1.363 . S
C714 H717 0.929 . S
C715 C714 1.363 . S
C715 C721 1.428 . S
H716 C712 0.930 . S
H717 C714 0.929 . S
S718 N719 1.613 . S
S718 N720 1.610 . S
N719 S718 1.613 . S
N719 C722 1.350 . S
N720 S718 1.610 . S
N720 C721 1.351 . S
C721 C715 1.428 . S
C721 N720 1.351 . S
C721 C722 1.434 . S
C722 C713 1.429 . S
C722 N719 1.350 . S
C722 C721 1.434 . S
C723 C724 1.369 . S
C723 C725 1.419 . S
C723 H727 0.930 . S
C724 C723 1.369 . S
C724 C733 1.429 . S
C725 C723 1.419 . S
C725 C726 1.363 . S
C725 H728 0.929 . S
C726 C725 1.363 . S
C726 C732 1.428 . S
H727 C723 0.930 . S
H728 C725 0.929 . S
S729 N730 1.613 . S
S729 N731 1.610 . S
N730 S729 1.613 . S
N730 C733 1.350 . S
N731 S729 1.610 . S
N731 C732 1.351 . S
C732 C726 1.428 . S
C732 N731 1.351 . S
C732 C733 1.434 . S
C733 C724 1.429 . S
C733 N730 1.350 . S
C733 C732 1.434 . S
C734 C735 1.369 . S
C734 C736 1.419 . S
C734 H738 0.930 . S
C735 C734 1.369 . S
C735 C744 1.429 . S
C736 C734 1.419 . S
C736 C737 1.363 . S
C736 H739 0.929 . S
C737 C736 1.363 . S
C737 C743 1.428 . S
H738 C734 0.930 . S
H739 C736 0.929 . S
S740 N741 1.613 . S
S740 N742 1.610 . S
N741 S740 1.613 . S
N741 C744 1.350 . S
N742 S740 1.610 . S
N742 C743 1.351 . S
C743 C737 1.428 . S
C743 N742 1.351 . S
C743 C744 1.434 . S
C744 C735 1.429 . S
C744 N741 1.350 . S
C744 C743 1.434 . S
C745 C746 1.369 . S
C745 C747 1.419 . S
C745 H749 0.930 . S
C746 C745 1.369 . S
C746 C755 1.429 . S
C747 C745 1.419 . S
C747 C748 1.363 . S
C747 H750 0.929 . S
C748 C747 1.363 . S
C748 C754 1.428 . S
H749 C745 0.930 . S
H750 C747 0.929 . S
S751 N752 1.613 . S
S751 N753 1.610 . S
N752 S751 1.613 . S
N752 C755 1.350 . S
N753 S751 1.610 . S
N753 C754 1.351 . S
C754 C748 1.428 . S
C754 N753 1.351 . S
C754 C755 1.434 . S
C755 C746 1.429 . S
C755 N752 1.350 . S
C755 C754 1.434 . S
C756 C757 1.369 . S
C756 C758 1.419 . S
C756 H760 0.930 . S
C757 C756 1.369 . S
C757 C766 1.429 . S
C758 C756 1.419 . S
C758 C759 1.363 . S
C758 H761 0.929 . S
C759 C758 1.363 . S
C759 C765 1.428 . S
H760 C756 0.930 . S
H761 C758 0.929 . S
S762 N763 1.613 . S
S762 N764 1.610 . S
N763 S762 1.613 . S
N763 C766 1.350 . S
N764 S762 1.610 . S
N764 C765 1.351 . S
C765 C759 1.428 . S
C765 N764 1.351 . S
C765 C766 1.434 . S
C766 C757 1.429 . S
C766 N763 1.350 . S
C766 C765 1.434 . S
C767 C768 1.369 . S
C767 C769 1.419 . S
C767 H771 0.930 . S
C768 C767 1.369 . S
C768 C777 1.429 . S
C769 C767 1.419 . S
C769 C770 1.363 . S
C769 H772 0.929 . S
C770 C769 1.363 . S
C770 C776 1.428 . S
H771 C767 0.930 . S
H772 C769 0.929 . S
S773 N774 1.613 . S
S773 N775 1.610 . S
N774 S773 1.613 . S
N774 C777 1.350 . S
N775 S773 1.610 . S
N775 C776 1.351 . S
C776 C770 1.428 . S
C776 N775 1.351 . S
C776 C777 1.434 . S
C777 C768 1.429 . S
C777 N774 1.350 . S
C777 C776 1.434 . S
C778 C779 1.369 . S
C778 C780 1.419 . S
C778 H782 0.930 . S
C779 C778 1.369 . S
C779 C788 1.429 . S
C780 C778 1.419 . S
C780 C781 1.363 . S
C780 H783 0.929 . S
C781 C780 1.363 . S
C781 C787 1.428 . S
H782 C778 0.930 . S
H783 C780 0.929 . S
S784 N785 1.613 . S
S784 N786 1.610 . S
N785 S784 1.613 . S
N785 C788 1.350 . S
N786 S784 1.610 . S
N786 C787 1.351 . S
C787 C781 1.428 . S
C787 N786 1.351 . S
C787 C788 1.434 . S
C788 C779 1.429 . S
C788 N785 1.350 . S
C788 C787 1.434 . S
C789 C790 1.369 . S
C789 C791 1.419 . S
C789 H793 0.930 . S
C790 C789 1.369 . S
C790 C799 1.429 . S
C791 C789 1.419 . S
C791 C792 1.363 . S
C791 H794 0.929 . S
C792 C791 1.363 . S
C792 C798 1.428 . S
H793 C789 0.930 . S
H794 C791 0.929 . S
S795 N796 1.613 . S
S795 N797 1.610 . S
N796 S795 1.613 . S
N796 C799 1.350 . S
N797 S795 1.610 . S
N797 C798 1.351 . S
C798 C792 1.428 . S
C798 N797 1.351 . S
C798 C799 1.434 . S
C799 C790 1.429 . S
C799 N796 1.350 . S
C799 C798 1.434 . S
C800 C801 1.369 1_455 S
C800 C802 1.419 . S
C800 H804 0.930 . S
C801 C800 1.369 1_655 S
C801 C810 1.429 . S
C802 C800 1.419 . S
C802 C803 1.363 . S
C802 H805 0.929 . S
C803 C802 1.363 . S
C803 C809 1.428 1_455 S
H804 C800 0.930 . S
H805 C802 0.929 . S
S806 N807 1.613 . S
S806 N808 1.610 . S
N807 S806 1.613 . S
N807 C810 1.350 . S
N808 S806 1.610 . S
N808 C809 1.351 . S
C809 C803 1.428 1_655 S
C809 N808 1.351 . S
C809 C810 1.434 . S
C810 C801 1.429 . S
C810 N807 1.350 . S
C810 C809 1.434 . S
C811 C812 1.369 . S
C811 C813 1.419 . S
C811 H815 0.930 . S
C812 C811 1.369 . S
C812 C821 1.429 1_565 S
C813 C811 1.419 . S
C813 C814 1.363 1_565 S
C813 H816 0.929 . S
C814 C813 1.363 1_545 S
C814 C820 1.428 . S
H815 C811 0.930 . S
H816 C813 0.929 . S
S817 N818 1.613 . S
S817 N819 1.610 . S
N818 S817 1.613 . S
N818 C821 1.350 . S
N819 S817 1.610 . S
N819 C820 1.351 . S
C820 C814 1.428 . S
C820 N819 1.351 . S
C820 C821 1.434 . S
C821 C812 1.429 1_545 S
C821 N818 1.350 . S
C821 C820 1.434 . S
C822 C823 1.369 1_455 S
C822 C824 1.419 1_554 S
C822 H826 0.930 . S
C823 C822 1.369 1_655 S
C823 C832 1.429 1_545 S
C824 C822 1.419 1_556 S
C824 C825 1.363 1_545 S
C824 H827 0.929 . S
C825 C824 1.363 1_565 S
C825 C831 1.428 1_455 S
H826 C822 0.930 . S
H827 C824 0.929 . S
S828 N829 1.613 . S
S828 N830 1.610 1_554 S
N829 S828 1.613 . S
N829 C832 1.350 . S
N830 S828 1.610 1_556 S
N830 C831 1.351 . S
C831 C825 1.428 1_655 S
C831 N830 1.351 . S
C831 C832 1.434 1_556 S
C832 C823 1.429 1_565 S
C832 N829 1.350 . S
C832 C831 1.434 1_554 S
C833 C834 1.369 . S
C833 C835 1.419 1_554 S
C833 H837 0.930 . S
C834 C833 1.369 . S
C834 C843 1.429 . S
C835 C833 1.419 1_556 S
C835 C836 1.363 . S
C835 H838 0.929 . S
C836 C835 1.363 . S
C836 C842 1.428 . S
H837 C833 0.930 . S
H838 C835 0.929 . S
S839 N840 1.613 . S
S839 N841 1.610 1_554 S
N840 S839 1.613 . S
N840 C843 1.350 . S
N841 S839 1.610 1_556 S
N841 C842 1.351 . S
C842 C836 1.428 . S
C842 N841 1.351 . S
C842 C843 1.434 1_556 S
C843 C834 1.429 . S
C843 N840 1.350 . S
C843 C842 1.434 1_554 S
C844 C845 1.369 1_455 S
C844 C846 1.419 . S
C844 H848 0.930 . S
C845 C844 1.369 1_655 S
C845 C854 1.429 . S
C846 C844 1.419 . S
C846 C847 1.363 . S
C846 H849 0.929 . S
C847 C846 1.363 . S
C847 C853 1.428 1_455 S
H848 C844 0.930 . S
H849 C846 0.929 . S
S850 N851 1.613 . S
S850 N852 1.610 . S
N851 S850 1.613 . S
N851 C854 1.350 . S
N852 S850 1.610 . S
N852 C853 1.351 . S
C853 C847 1.428 1_655 S
C853 N852 1.351 . S
C853 C854 1.434 . S
C854 C845 1.429 . S
C854 N851 1.350 . S
C854 C853 1.434 . S
C855 C856 1.369 . S
C855 C857 1.402 1_565 S
C855 H859 0.930 . S
C856 C855 1.369 . S
C856 C865 1.443 . S
C857 C855 1.402 1_545 S
C857 C858 1.380 . S
C857 H860 0.929 . S
C858 C857 1.380 . S
C858 C864 1.428 . S
H859 C855 0.930 . S
H860 C857 0.929 . S
S861 N862 1.612 . S
S861 N863 1.610 . S
N862 S861 1.612 . S
N862 C865 1.349 1_545 S
N863 S861 1.610 . S
N863 C864 1.351 . S
C864 C858 1.428 . S
C864 N863 1.351 . S
C864 C865 1.419 1_545 S
C865 C856 1.443 . S
C865 N862 1.349 1_565 S
C865 C864 1.419 1_565 S
C866 C867 1.369 1_554 S
C866 C868 1.419 . S
C866 H870 0.930 . S
C867 C866 1.369 1_556 S
C867 C876 1.429 . S
C868 C866 1.419 . S
C868 C869 1.363 . S
C868 H871 0.929 . S
C869 C868 1.363 . S
C869 C875 1.428 1_554 S
H870 C866 0.930 . S
H871 C868 0.929 . S
S872 N873 1.613 . S
S872 N874 1.610 . S
N873 S872 1.613 . S
N873 C876 1.350 . S
N874 S872 1.610 . S
N874 C875 1.351 . S
C875 C869 1.428 1_556 S
C875 N874 1.351 . S
C875 C876 1.434 . S
C876 C867 1.429 . S
C876 N873 1.350 . S
C876 C875 1.434 . S
C877 C878 1.369 . S
C877 C879 1.419 . S
C877 H881 0.930 . S
C878 C877 1.369 . S
C878 C887 1.429 . S
C879 C877 1.419 . S
C879 C880 1.363 . S
C879 H882 0.929 . S
C880 C879 1.363 . S
C880 C886 1.428 . S
H881 C877 0.930 . S
H882 C879 0.929 . S
S883 N884 1.613 . S
S883 N885 1.610 . S
N884 S883 1.613 . S
N884 C887 1.350 . S
N885 S883 1.610 . S
N885 C886 1.351 . S
C886 C880 1.428 . S
C886 N885 1.351 . S
C886 C887 1.434 . S
C887 C878 1.429 . S
C887 N884 1.350 . S
C887 C886 1.434 . S
C888 C889 1.369 . S
C888 C890 1.419 1_455 S
C888 H892 0.930 . S
C889 C888 1.369 . S
C889 C898 1.429 . S
C890 C888 1.419 1_655 S
C890 C891 1.363 . S
C890 H893 0.929 . S
C891 C890 1.363 . S
C891 C897 1.428 . S
H892 C888 0.930 . S
H893 C890 0.929 . S
S894 N895 1.613 1_655 S
S894 N896 1.610 . S
N895 S894 1.613 1_455 S
N895 C898 1.350 . S
N896 S894 1.610 . S
N896 C897 1.351 . S
C897 C891 1.428 . S
C897 N896 1.351 . S
C897 C898 1.434 1_655 S
C898 C889 1.429 . S
C898 N895 1.350 . S
C898 C897 1.434 1_455 S
C899 C900 1.369 . S
C899 C901 1.419 . S
C899 H903 0.930 . S
C900 C899 1.369 . S
C900 C909 1.429 . S
C901 C899 1.419 . S
C901 C902 1.363 . S
C901 H904 0.929 . S
C902 C901 1.363 . S
C902 C908 1.428 . S
H903 C899 0.930 . S
H904 C901 0.929 . S
S905 N906 1.613 . S
S905 N907 1.610 . S
N906 S905 1.613 . S
N906 C909 1.350 . S
N907 S905 1.610 . S
N907 C908 1.351 . S
C908 C902 1.428 . S
C908 N907 1.351 . S
C908 C909 1.434 . S
C909 C900 1.429 . S
C909 N906 1.350 . S
C909 C908 1.434 . S
C910 C911 1.369 . S
C910 C912 1.419 . S
C910 H914 0.930 . S
C911 C910 1.369 . S
C911 C920 1.429 . S
C912 C910 1.419 . S
C912 C913 1.363 . S
C912 H915 0.929 . S
C913 C912 1.363 . S
C913 C919 1.428 . S
H914 C910 0.930 . S
H915 C912 0.929 . S
S916 N917 1.613 . S
S916 N918 1.610 . S
N917 S916 1.613 . S
N917 C920 1.350 . S
N918 S916 1.610 . S
N918 C919 1.351 . S
C919 C913 1.428 . S
C919 N918 1.351 . S
C919 C920 1.434 . S
C920 C911 1.429 . S
C920 N917 1.350 . S
C920 C919 1.434 . S
C921 C922 1.369 . S
C921 C923 1.419 . S
C921 H925 0.930 . S
C922 C921 1.369 . S
C922 C931 1.429 . S
C923 C921 1.419 . S
C923 C924 1.363 . S
C923 H926 0.929 . S
C924 C923 1.363 . S
C924 C930 1.428 . S
H925 C921 0.930 . S
H926 C923 0.929 . S
S927 N928 1.613 . S
S927 N929 1.610 . S
N928 S927 1.613 . S
N928 C931 1.350 . S
N929 S927 1.610 . S
N929 C930 1.351 . S
C930 C924 1.428 . S
C930 N929 1.351 . S
C930 C931 1.434 . S
C931 C922 1.429 . S
C931 N928 1.350 . S
C931 C930 1.434 . S
C932 C933 1.369 . S
C932 C934 1.419 . S
C932 H936 0.930 . S
C933 C932 1.369 . S
C933 C942 1.429 . S
C934 C932 1.419 . S
C934 C935 1.363 . S
C934 H937 0.929 . S
C935 C934 1.363 . S
C935 C941 1.428 . S
H936 C932 0.930 . S
H937 C934 0.929 . S
S938 N939 1.613 . S
S938 N940 1.610 . S
N939 S938 1.613 . S
N939 C942 1.350 . S
N940 S938 1.610 . S
N940 C941 1.351 . S
C941 C935 1.428 . S
C941 N940 1.351 . S
C941 C942 1.434 . S
C942 C933 1.429 . S
C942 N939 1.350 . S
C942 C941 1.434 . S
C943 C944 1.369 1_565 S
C943 C945 1.419 . S
C943 H947 0.930 . S
C944 C943 1.369 1_545 S
C944 C953 1.429 . S
C945 C943 1.419 . S
C945 C946 1.363 . S
C945 H948 0.929 . S
C946 C945 1.363 . S
C946 C952 1.428 1_565 S
H947 C943 0.930 . S
H948 C945 0.929 . S
S949 N950 1.613 . S
S949 N951 1.610 . S
N950 S949 1.613 . S
N950 C953 1.350 . S
N951 S949 1.610 . S
N951 C952 1.351 . S
C952 C946 1.428 1_545 S
C952 N951 1.351 . S
C952 C953 1.434 . S
C953 C944 1.429 . S
C953 N950 1.350 . S
C953 C952 1.434 . S
C954 C955 1.369 . S
C954 C956 1.419 . S
C954 H958 0.930 . S
C955 C954 1.369 . S
C955 C964 1.429 . S
C956 C954 1.419 . S
C956 C957 1.363 . S
C956 H959 0.929 . S
C957 C956 1.363 . S
C957 C963 1.428 . S
H958 C954 0.930 . S
H959 C956 0.929 . S
S960 N961 1.613 . S
S960 N962 1.610 . S
N961 S960 1.613 . S
N961 C964 1.350 . S
N962 S960 1.610 . S
N962 C963 1.351 . S
C963 C957 1.428 . S
C963 N962 1.351 . S
C963 C964 1.434 . S
C964 C955 1.429 . S
C964 N961 1.350 . S
C964 C963 1.434 . S
C965 C966 1.369 . S
C965 C967 1.419 . S
C965 H969 0.930 . S
C966 C965 1.369 . S
C966 C975 1.429 1_556 S
C967 C965 1.419 . S
C967 C968 1.363 1_556 S
C967 H970 0.929 . S
C968 C967 1.363 1_554 S
C968 C974 1.428 . S
H969 C965 0.930 . S
H970 C967 0.929 . S
S971 N972 1.613 . S
S971 N973 1.610 . S
N972 S971 1.613 . S
N972 C975 1.350 . S
N973 S971 1.610 . S
N973 C974 1.351 . S
C974 C968 1.428 . S
C974 N973 1.351 . S
C974 C975 1.434 . S
C975 C966 1.429 1_554 S
C975 N972 1.350 . S
C975 C974 1.434 . S
C976 C977 1.369 . S
C976 C978 1.419 . S
C976 H980 0.930 . S
C977 C976 1.369 . S
C977 C986 1.429 . S
C978 C976 1.419 . S
C978 C979 1.363 . S
C978 H981 0.929 . S
C979 C978 1.363 . S
C979 C985 1.428 . S
H980 C976 0.930 . S
H981 C978 0.929 . S
S982 N983 1.613 . S
S982 N984 1.610 . S
N983 S982 1.613 . S
N983 C986 1.350 . S
N984 S982 1.610 . S
N984 C985 1.351 . S
C985 C979 1.428 . S
C985 N984 1.351 . S
C985 C986 1.434 . S
C986 C977 1.429 . S
C986 N983 1.350 . S
C986 C985 1.434 . S
C987 C988 1.369 . S
C987 C989 1.419 . S
C987 H991 0.930 . S
C988 C987 1.369 . S
C988 C997 1.429 . S
C989 C987 1.419 . S
C989 C990 1.363 . S
C989 H992 0.929 . S
C990 C989 1.363 . S
C990 C996 1.428 . S
H991 C987 0.930 . S
H992 C989 0.929 . S
S993 N994 1.613 . S
S993 N995 1.610 . S
N994 S993 1.613 . S
N994 C997 1.350 . S
N995 S993 1.610 . S
N995 C996 1.351 . S
C996 C990 1.428 . S
C996 N995 1.351 . S
C996 C997 1.434 . S
C997 C988 1.429 . S
C997 N994 1.350 . S
C997 C996 1.434 . S
C998 C999 1.369 . S
C998 C1000 1.419 . S
C998 H1002 0.930 . S
C999 C998 1.369 . S
C999 C1008 1.429 . S
C1000 C998 1.419 . S
C1000 C1001 1.363 . S
C1000 H1003 0.929 . S
C1001 C1000 1.363 . S
C1001 C1007 1.428 . S
H1002 C998 0.930 . S
H1003 C1000 0.929 . S
S1004 N1005 1.613 . S
S1004 N1006 1.610 . S
N1005 S1004 1.613 . S
N1005 C1008 1.350 . S
N1006 S1004 1.610 . S
N1006 C1007 1.351 . S
C1007 C1001 1.428 . S
C1007 N1006 1.351 . S
C1007 C1008 1.434 . S
C1008 C999 1.429 . S
C1008 N1005 1.350 . S
C1008 C1007 1.434 . S
C1009 C1010 1.369 . S
C1009 C1011 1.419 . S
C1009 H1013 0.930 . S
C1010 C1009 1.369 . S
C1010 C1019 1.429 . S
C1011 C1009 1.419 . S
C1011 C1012 1.363 . S
C1011 H1014 0.929 . S
C1012 C1011 1.363 . S
C1012 C1018 1.428 . S
H1013 C1009 0.930 . S
H1014 C1011 0.929 . S
S1015 N1016 1.613 . S
S1015 N1017 1.610 . S
N1016 S1015 1.613 . S
N1016 C1019 1.350 . S
N1017 S1015 1.610 . S
N1017 C1018 1.351 . S
C1018 C1012 1.428 . S
C1018 N1017 1.351 . S
C1018 C1019 1.434 . S
C1019 C1010 1.429 . S
C1019 N1016 1.350 . S
C1019 C1018 1.434 . S
C1020 C1021 1.369 . S
C1020 C1022 1.419 . S
C1020 H1024 0.930 . S
C1021 C1020 1.369 . S
C1021 C1030 1.429 . S
C1022 C1020 1.419 . S
C1022 C1023 1.363 . S
C1022 H1025 0.929 . S
C1023 C1022 1.363 . S
C1023 C1029 1.428 . S
H1024 C1020 0.930 . S
H1025 C1022 0.929 . S
S1026 N1027 1.613 1_655 S
S1026 N1028 1.610 1_655 S
N1027 S1026 1.613 1_455 S
N1027 C1030 1.350 . S
N1028 S1026 1.610 1_455 S
N1028 C1029 1.351 . S
C1029 C1023 1.428 . S
C1029 N1028 1.351 . S
C1029 C1030 1.434 . S
C1030 C1021 1.429 . S
C1030 N1027 1.350 . S
C1030 C1029 1.434 . S
C1031 C1032 1.369 . S
C1031 C1033 1.419 . S
C1031 H1035 0.930 . S
C1032 C1031 1.369 . S
C1032 C1041 1.429 . S
C1033 C1031 1.419 . S
C1033 C1034 1.363 . S
C1033 H1036 0.929 . S
C1034 C1033 1.363 . S
C1034 C1040 1.428 . S
H1035 C1031 0.930 . S
H1036 C1033 0.929 . S
S1037 N1038 1.613 . S
S1037 N1039 1.610 . S
N1038 S1037 1.613 . S
N1038 C1041 1.350 . S
N1039 S1037 1.610 . S
N1039 C1040 1.351 . S
C1040 C1034 1.428 . S
C1040 N1039 1.351 . S
C1040 C1041 1.434 . S
C1041 C1032 1.429 . S
C1041 N1038 1.350 . S
C1041 C1040 1.434 . S
C1042 C1043 1.369 . S
C1042 C1044 1.419 . S
C1042 H1046 0.930 . S
C1043 C1042 1.369 . S
C1043 C1052 1.429 . S
C1044 C1042 1.419 . S
C1044 C1045 1.363 . S
C1044 H1047 0.929 . S
C1045 C1044 1.363 . S
C1045 C1051 1.428 . S
H1046 C1042 0.930 . S
H1047 C1044 0.929 . S
S1048 N1049 1.613 . S
S1048 N1050 1.610 . S
N1049 S1048 1.613 . S
N1049 C1052 1.350 . S
N1050 S1048 1.610 . S
N1050 C1051 1.351 . S
C1051 C1045 1.428 . S
C1051 N1050 1.351 . S
C1051 C1052 1.434 . S
C1052 C1043 1.429 . S
C1052 N1049 1.350 . S
C1052 C1051 1.434 . S
C1053 C1054 1.369 . S
C1053 C1055 1.419 . S
C1053 H1057 0.930 . S
C1054 C1053 1.369 . S
C1054 C1063 1.429 . S
C1055 C1053 1.419 . S
C1055 C1056 1.363 . S
C1055 H1058 0.929 . S
C1056 C1055 1.363 . S
C1056 C1062 1.428 . S
H1057 C1053 0.930 . S
H1058 C1055 0.929 . S
S1059 N1060 1.613 . S
S1059 N1061 1.610 . S
N1060 S1059 1.613 . S
N1060 C1063 1.350 . S
N1061 S1059 1.610 . S
N1061 C1062 1.351 . S
C1062 C1056 1.428 . S
C1062 N1061 1.351 . S
C1062 C1063 1.434 . S
C1063 C1054 1.429 . S
C1063 N1060 1.350 . S
C1063 C1062 1.434 . S
C1064 C1065 1.369 . S
C1064 C1066 1.419 . S
C1064 H1068 0.930 . S
C1065 C1064 1.369 . S
C1065 C1074 1.429 . S
C1066 C1064 1.419 . S
C1066 C1067 1.363 . S
C1066 H1069 0.929 . S
C1067 C1066 1.363 . S
C1067 C1073 1.428 . S
H1068 C1064 0.930 . S
H1069 C1066 0.929 . S
S1070 N1071 1.613 . S
S1070 N1072 1.610 . S
N1071 S1070 1.613 . S
N1071 C1074 1.350 . S
N1072 S1070 1.610 . S
N1072 C1073 1.351 . S
C1073 C1067 1.428 . S
C1073 N1072 1.351 . S
C1073 C1074 1.434 . S
C1074 C1065 1.429 . S
C1074 N1071 1.350 . S
C1074 C1073 1.434 . S
C1075 C1076 1.369 . S
C1075 C1077 1.419 . S
C1075 H1079 0.930 . S
C1076 C1075 1.369 . S
C1076 C1085 1.429 . S
C1077 C1075 1.419 . S
C1077 C1078 1.363 . S
C1077 H1080 0.929 . S
C1078 C1077 1.363 . S
C1078 C1084 1.428 . S
H1079 C1075 0.930 . S
H1080 C1077 0.929 . S
S1081 N1082 1.613 . S
S1081 N1083 1.610 . S
N1082 S1081 1.613 . S
N1082 C1085 1.350 . S
N1083 S1081 1.610 . S
N1083 C1084 1.351 . S
C1084 C1078 1.428 . S
C1084 N1083 1.351 . S
C1084 C1085 1.434 . S
C1085 C1076 1.429 . S
C1085 N1082 1.350 . S
C1085 C1084 1.434 . S
C1086 C1087 1.369 . S
C1086 C1088 1.419 . S
C1086 H1090 0.930 . S
C1087 C1086 1.369 . S
C1087 C1096 1.429 . S
C1088 C1086 1.419 . S
C1088 C1089 1.363 . S
C1088 H1091 0.929 . S
C1089 C1088 1.363 . S
C1089 C1095 1.428 . S
H1090 C1086 0.930 . S
H1091 C1088 0.929 . S
S1092 N1093 1.613 . S
S1092 N1094 1.610 . S
N1093 S1092 1.613 . S
N1093 C1096 1.350 . S
N1094 S1092 1.610 . S
N1094 C1095 1.351 . S
C1095 C1089 1.428 . S
C1095 N1094 1.351 . S
C1095 C1096 1.434 . S
C1096 C1087 1.429 . S
C1096 N1093 1.350 . S
C1096 C1095 1.434 . S
C1097 C1098 1.369 . S
C1097 C1099 1.419 . S
C1097 H1101 0.930 . S
C1098 C1097 1.369 . S
C1098 C1107 1.429 . S
C1099 C1097 1.419 . S
C1099 C1100 1.363 . S
C1099 H1102 0.929 . S
C1100 C1099 1.363 . S
C1100 C1106 1.428 . S
H1101 C1097 0.930 . S
H1102 C1099 0.929 . S
S1103 N1104 1.613 . S
S1103 N1105 1.610 . S
N1104 S1103 1.613 . S
N1104 C1107 1.350 . S
N1105 S1103 1.610 . S
N1105 C1106 1.351 . S
C1106 C1100 1.428 . S
C1106 N1105 1.351 . S
C1106 C1107 1.434 . S
C1107 C1098 1.429 . S
C1107 N1104 1.350 . S
C1107 C1106 1.434 . S
C1108 C1109 1.369 . S
C1108 C1110 1.419 . S
C1108 H1112 0.930 . S
C1109 C1108 1.369 . S
C1109 C1118 1.429 . S
C1110 C1108 1.419 . S
C1110 C1111 1.363 . S
C1110 H1113 0.929 . S
C1111 C1110 1.363 . S
C1111 C1117 1.428 . S
H1112 C1108 0.930 . S
H1113 C1110 0.929 . S
S1114 N1115 1.613 . S
S1114 N1116 1.610 . S
N1115 S1114 1.613 . S
N1115 C1118 1.350 . S
N1116 S1114 1.610 . S
N1116 C1117 1.351 . S
C1117 C1111 1.428 . S
C1117 N1116 1.351 . S
C1117 C1118 1.434 . S
C1118 C1109 1.429 . S
C1118 N1115 1.350 . S
C1118 C1117 1.434 . S
C1119 C1120 1.369 . S
C1119 C1121 1.419 . S
C1119 H1123 0.930 . S
C1120 C1119 1.369 . S
C1120 C1129 1.429 . S
C1121 C1119 1.419 . S
C1121 C1122 1.363 . S
C1121 H1124 0.929 . S
C1122 C1121 1.363 . S
C1122 C1128 1.428 . S
H1123 C1119 0.930 . S
H1124 C1121 0.929 . S
S1125 N1126 1.613 . S
S1125 N1127 1.610 . S
N1126 S1125 1.613 . S
N1126 C1129 1.350 . S
N1127 S1125 1.610 . S
N1127 C1128 1.351 . S
C1128 C1122 1.428 . S
C1128 N1127 1.351 . S
C1128 C1129 1.434 . S
C1129 C1120 1.429 . S
C1129 N1126 1.350 . S
C1129 C1128 1.434 . S
C1130 C1131 1.369 . S
C1130 C1132 1.419 . S
C1130 H1134 0.930 . S
C1131 C1130 1.369 . S
C1131 C1140 1.429 . S
C1132 C1130 1.419 . S
C1132 C1133 1.363 . S
C1132 H1135 0.929 . S
C1133 C1132 1.363 . S
C1133 C1139 1.428 . S
H1134 C1130 0.930 . S
H1135 C1132 0.929 . S
S1136 N1137 1.613 . S
S1136 N1138 1.610 . S
N1137 S1136 1.613 . S
N1137 C1140 1.350 . S
N1138 S1136 1.610 . S
N1138 C1139 1.351 . S
C1139 C1133 1.428 . S
C1139 N1138 1.351 . S
C1139 C1140 1.434 . S
C1140 C1131 1.429 . S
C1140 N1137 1.350 . S
C1140 C1139 1.434 . S
C1141 C1142 1.369 . S
C1141 C1143 1.419 . S
C1141 H1145 0.930 . S
C1142 C1141 1.369 . S
C1142 C1151 1.429 . S
C1143 C1141 1.419 . S
C1143 C1144 1.363 . S
C1143 H1146 0.929 . S
C1144 C1143 1.363 . S
C1144 C1150 1.428 . S
H1145 C1141 0.930 . S
H1146 C1143 0.929 . S
S1147 N1148 1.613 . S
S1147 N1149 1.610 . S
N1148 S1147 1.613 . S
N1148 C1151 1.350 . S
N1149 S1147 1.610 . S
N1149 C1150 1.351 . S
C1150 C1144 1.428 . S
C1150 N1149 1.351 . S
C1150 C1151 1.434 . S
C1151 C1142 1.429 . S
C1151 N1148 1.350 . S
C1151 C1150 1.434 . S
C449 C153 1.337 . S
C451 C13 1.332 . S
C460 C27 1.339 . S
C462 C167 1.337 . S
C471 C41 1.338 . S
C473 C125 1.332 . S
C482 C139 1.332 . S
C484 C55 1.337 . S
C493 C209 1.339 . S
C495 C69 1.334 . S
C504 C83 1.340 . S
C506 C223 1.336 . S
C515 C181 1.337 . S
C517 C97 1.331 . S
C526 C195 1.338 . S
C528 C111 1.332 . S
C537 C377 1.330 . S
C539 C237 1.331 . S
C548 C391 1.340 . S
C550 C251 1.334 . S
C559 C349 1.330 . S
C561 C265 1.336 . S
C570 C279 1.333 . S
C572 C363 1.338 . S
C581 C433 1.333 . S
C583 C293 1.330 . S
C592 C447 1.336 . S
C594 C307 1.331 . S
C603 C321 1.337 . S
C605 C405 1.337 . S
C614 C335 1.338 . S
C616 C419 1.338 . S
C625 C277 1.507 . S
C627 C11 1.509 . S
C636 C25 1.506 1_655 S
C638 C263 1.509 . S
C647 C249 1.507 . S
C649 C39 1.509 . S
C658 C235 1.506 . S
C660 C53 1.509 1_655 S
C669 C67 1.509 . S
C671 C333 1.508 . S
C680 C81 1.507 1_455 S
C682 C319 1.509 . S
C691 C305 1.506 . S
C693 C95 1.509 . S
C702 C109 1.509 1_455 S
C704 C291 1.508 . S
C713 C389 1.509 . S
C715 C123 1.508 . S
C724 C375 1.507 . S
C726 C137 1.509 1_655 S
C735 C361 1.507 . S
C737 C151 1.509 . S
C746 C347 1.508 . S
C748 C165 1.507 1_655 S
C757 C179 1.506 . S
C759 C445 1.509 . S
C768 C431 1.508 . S
C770 C193 1.508 1_455 S
C779 C207 1.507 . S
C781 C417 1.508 . S
C790 C221 1.506 1_455 S
C792 C403 1.509 . S
C801 C175 1.449 . S
C803 C7 1.439 . S
C812 C21 1.453 . S
C814 C301 1.440 . S
C823 C91 1.449 . S
C825 C35 1.439 . S
C834 C441 1.444 . S
C836 C49 1.446 . S
C845 C63 1.444 . S
C847 C119 1.444 . S
C856 C245 1.442 . S
C858 C77 1.449 . S
C867 C385 1.451 . S
C869 C105 1.442 . S
C878 C413 1.444 . S
C880 C133 1.447 . S
C889 C147 1.449 . S
C891 C203 1.439 . S
C900 C329 1.445 . S
C902 C161 1.446 . S
C911 C357 1.444 . S
C913 C189 1.448 . S
C922 C217 1.444 . S
C924 C273 1.448 . S
C933 C231 1.445 . S
C935 C399 1.442 . S
C944 C315 1.437 . S
C946 C259 1.448 . S
C955 C343 1.438 . S
C957 C287 1.448 . S
C966 C371 1.439 . S
C968 C427 1.448 . S
C977 C8 1.093 . S
C979 C50 1.094 . S
C988 C36 1.098 . S
C990 C22 1.099 . S
C999 C64 1.093 . S
C1001 C106 1.094 . S
C1010 C78 1.093 . S
C1012 C92 1.097 . S
C1021 C120 1.094 . S
C1023 C162 1.098 . S
C1032 C134 1.098 . S
C1034 C148 1.099 . S
C1043 C176 1.099 . S
C1045 C218 1.097 . S
C1054 C204 1.099 . S
C1056 C190 1.098 . S
C1065 C274 1.098 . S
C1067 C232 1.098 . S
C1076 C260 1.094 . S
C1078 C246 1.098 . S
C1087 C330 1.093 . S
C1089 C288 1.095 . S
C1098 C316 1.096 . S
C1100 C302 1.099 . S
C1109 C386 1.098 . S
C1111 C344 1.099 . S
C1120 C372 1.094 . S
C1122 C358 1.098 . S
C1131 C400 1.093 . S
C1133 C442 1.095 . S
C1142 C428 1.099 . S
C1144 C414 1.097 . S
