# Generated by pormake.
# Topology crb, (4)-cn, num edge types: 1
# Building blocks:
#     Node 0, Type 0, BuildingBlock: UXUYUI_clean_sbu_0, # of connection points: 4
#     Node 1, Type 0, BuildingBlock: UXUYUI_clean_sbu_0, # of connection points: 4
#     Node 2, Type 0, BuildingBlock: UXUYUI_clean_sbu_0, # of connection points: 4
#     Node 3, Type 0, BuildingBlock: UXUYUI_clean_sbu_0, # of connection points: 4
#     Node 4, Type 0, BuildingBlock: UXUYUI_clean_sbu_0, # of connection points: 4
#     Node 5, Type 0, BuildingBlock: UXUYUI_clean_sbu_0, # of connection points: 4
#     Node 6, Type 0, BuildingBlock: UXUYUI_clean_sbu_0, # of connection points: 4
#     Node 7, Type 0, BuildingBlock: UXUYUI_clean_sbu_0, # of connection points: 4
#     Edge 8, Type (0, 0), BuildingBlock: ZUJKAS_clean_linker_0, # of connection points: 2
#     Edge 9, Type (0, 0), BuildingBlock: ZUJKAS_clean_linker_0, # of connection points: 2
#     Edge 10, Type (0, 0), BuildingBlock: ZUJKAS_clean_linker_0, # of connection points: 2
#     Edge 11, Type (0, 0), BuildingBlock: ZUJKAS_clean_linker_0, # of connection points: 2
#     Edge 12, Type (0, 0), BuildingBlock: ZUJKAS_clean_linker_0, # of connection points: 2
#     Edge 13, Type (0, 0), BuildingBlock: ZUJKAS_clean_linker_0, # of connection points: 2
#     Edge 14, Type (0, 0), BuildingBlock: ZUJKAS_clean_linker_0, # of connection points: 2
#     Edge 15, Type (0, 0), BuildingBlock: ZUJKAS_clean_linker_0, # of connection points: 2
#     Edge 16, Type (0, 0), BuildingBlock: ZUJKAS_clean_linker_0, # of connection points: 2
#     Edge 17, Type (0, 0), BuildingBlock: ZUJKAS_clean_linker_0, # of connection points: 2
#     Edge 18, Type (0, 0), BuildingBlock: ZUJKAS_clean_linker_0, # of connection points: 2
#     Edge 19, Type (0, 0), BuildingBlock: ZUJKAS_clean_linker_0, # of connection points: 2
#     Edge 20, Type (0, 0), BuildingBlock: ZUJKAS_clean_linker_0, # of connection points: 2
#     Edge 21, Type (0, 0), BuildingBlock: ZUJKAS_clean_linker_0, # of connection points: 2
#     Edge 22, Type (0, 0), BuildingBlock: ZUJKAS_clean_linker_0, # of connection points: 2
#     Edge 23, Type (0, 0), BuildingBlock: ZUJKAS_clean_linker_0, # of connection points: 2
# Relax obj value: 0.060
# Max RMSD: 0.078
# Mean RMSD: 0.078
data_MOF--net-crb--node1-UXUYUI_clean_sbu_0--edge1-ZUJKAS_clean_linker_0
_symmetry_space_group_name_H-M    P1
_symmetry_Int_Tables_number       1
_symmetry_cell_setting            triclinic
loop_
_symmetry_equiv_pos_as_xyz
'x, y, z'
_cell_length_a     74.510076
_cell_length_b     74.494292
_cell_length_c     44.519688
_cell_angle_alpha  89.992791
_cell_angle_beta   90.031338
_cell_angle_gamma 90.009071
loop_
_atom_site_label
_atom_site_type_symbol
_atom_site_fract_x
_atom_site_fract_y
_atom_site_fract_z
_atom_type_partial_charge
Li0 Li 0.31438 0.31467 0.0335 0.0
Li1 Li 0.34183 0.31887 0.00387 0.0
Li2 Li 0.31807 0.34285 0.00439 0.0
Li3 Li 0.31413 0.31462 0.97665 0.0
C4 C 0.33418 0.34092 0.06614 0.0
N5 N 0.3365 0.35597 0.12279 0.0
C6 C 0.34913 0.33756 0.08429 0.0
C7 C 0.32059 0.35222 0.07664 0.0
C8 C 0.35 0.3452 0.11291 0.0
C9 C 0.32196 0.35963 0.10537 0.0
C10 C 0.33801 0.28381 0.00695 0.0
C11 C 0.36069 0.26506 0.98441 0.0
N12 N 0.36341 0.25692 0.01137 0.0
C13 C 0.34091 0.27515 0.03437 0.0
C14 C 0.34786 0.27864 0.98169 0.0
C15 C 0.35384 0.26162 0.03617 0.0
C16 C 0.28722 0.29857 0.06911 0.0
N17 N 0.30455 0.3043 0.06919 0.0
C18 C 0.308 0.29535 0.12046 0.0
C19 C 0.31502 0.3026 0.09405 0.0
C20 C 0.29004 0.28962 0.12129 0.0
C21 C 0.27964 0.29121 0.09506 0.0
H22 H 0.27925 0.29982 0.04892 0.0
H23 H 0.32892 0.30666 0.09329 0.0
C24 C 0.37705 0.32081 0.98029 0.0
N25 N 0.36717 0.31504 0.00405 0.0
C26 C 0.3957 0.31894 0.98041 0.0
C27 C 0.39369 0.30523 0.02951 0.0
C28 C 0.37506 0.30727 0.02834 0.0
C29 C 0.40427 0.31122 0.00539 0.0
H30 H 0.3705 0.32719 0.96146 0.0
H31 H 0.3669 0.30283 0.04698 0.0
C32 C 0.28098 0.33448 0.0106 0.0
N33 N 0.24836 0.35093 0.02162 0.0
C34 C 0.26885 0.3374 0.98713 0.0
C35 C 0.27632 0.33961 0.03978 0.0
C36 C 0.25249 0.34583 0.99312 0.0
C37 C 0.25983 0.34798 0.04488 0.0
C38 C 0.33266 0.33609 0.9398 0.0
C39 C 0.32494 0.35146 0.92726 0.0
C40 C 0.34034 0.32316 0.92103 0.0
C41 C 0.3248 0.35352 0.89606 0.0
C42 C 0.3399 0.32569 0.88994 0.0
N43 N 0.33219 0.34068 0.87821 0.0
C44 C 0.32787 0.37838 0.01629 0.0
C45 C 0.29981 0.37601 0.99158 0.0
C46 C 0.32665 0.39707 0.01637 0.0
N47 N 0.31451 0.36826 0.00423 0.0
C48 C 0.29808 0.39469 0.99101 0.0
C49 C 0.31164 0.40551 0.00345 0.0
H50 H 0.33956 0.3719 0.02576 0.0
H51 H 0.28964 0.36776 0.98124 0.0
C52 C 0.30498 0.28636 0.93661 0.0
N53 N 0.30349 0.30431 0.94149 0.0
C54 C 0.29793 0.27868 0.91049 0.0
C55 C 0.28778 0.30807 0.89505 0.0
C56 C 0.29495 0.31515 0.92149 0.0
C57 C 0.28928 0.2896 0.88918 0.0
H58 H 0.31176 0.278 0.9529 0.0
H59 H 0.29386 0.32936 0.92592 0.0
O60 O 0.33311 0.3335 0.03804 0.0
O61 O 0.32561 0.2973 0.00487 0.0
O62 O 0.29705 0.32619 0.00509 0.0
O63 O 0.33271 0.33374 0.97029 0.0
H64 H 0.35991 0.32908 0.07646 0.0
H65 H 0.30924 0.3555 0.06261 0.0
H66 H 0.36143 0.34259 0.12726 0.0
H67 H 0.31151 0.36837 0.11374 0.0
H68 H 0.3685 0.26102 0.96508 0.0
H69 H 0.33334 0.2789 0.0541 0.0
H70 H 0.34571 0.28511 0.96026 0.0
H71 H 0.3563 0.25487 0.05729 0.0
H72 H 0.31664 0.294 0.1399 0.0
H73 H 0.26571 0.28706 0.09469 0.0
H74 H 0.40337 0.32397 0.96154 0.0
H75 H 0.39974 0.29907 0.04907 0.0
H76 H 0.27204 0.3333 0.9645 0.0
H77 H 0.28521 0.33694 0.05842 0.0
H78 H 0.24305 0.34829 0.9751 0.0
H79 H 0.25611 0.35205 0.06735 0.0
H80 H 0.31903 0.36165 0.94141 0.0
H81 H 0.34644 0.31124 0.93033 0.0
H82 H 0.31878 0.3653 0.88605 0.0
H83 H 0.34567 0.31573 0.87515 0.0
H84 H 0.33736 0.4048 0.02653 0.0
H85 H 0.28645 0.40059 0.98026 0.0
H86 H 0.29951 0.2644 0.90679 0.0
H87 H 0.281 0.31695 0.87949 0.0
Li88 Li 0.68375 0.34303 1.00097 0.0
Li89 Li 0.68875 0.31626 0.03146 0.0
Li90 Li 0.68716 0.31508 0.97496 0.0
Li91 Li 0.65998 0.32025 0.00403 0.0
C92 C 0.71823 0.33993 1.0026 0.0
N93 N 0.74357 0.36695 0.00548 0.0
C94 C 0.72504 0.34543 0.03036 0.0
C95 C 0.72444 0.34804 0.97627 0.0
C96 C 0.73782 0.35914 0.03136 0.0
C97 C 0.73722 0.36172 0.97821 0.0
C98 C 0.66058 0.33237 0.06289 0.0
C99 C 0.64682 0.31237 0.09873 0.0
N100 N 0.64076 0.32679 0.11447 0.0
C101 C 0.65421 0.34699 0.0794 0.0
C102 C 0.65686 0.31491 0.07259 0.0
C103 C 0.64422 0.34389 0.10543 0.0
C104 C 0.68605 0.37788 0.97478 0.0
N105 N 0.68779 0.36836 1.00066 0.0
C106 C 0.69403 0.39522 0.0282 0.0
C107 C 0.6917 0.37661 0.02711 0.0
C108 C 0.69217 0.40544 1.00184 0.0
C109 C 0.68825 0.39649 0.97483 0.0
H110 H 0.68271 0.37108 0.95413 0.0
H111 H 0.69278 0.36873 0.04744 0.0
C112 C 0.70668 0.28986 0.06595 0.0
N113 N 0.69987 0.30677 0.06671 0.0
C114 C 0.71432 0.2823 0.09169 0.0
C115 C 0.70831 0.30993 0.11827 0.0
C116 C 0.70069 0.3169 0.09207 0.0
C117 C 0.71514 0.29232 0.11845 0.0
H118 H 0.70609 0.28221 0.04534 0.0
H119 H 0.69542 0.33043 0.09196 0.0
C120 C 0.66585 0.33372 0.93789 0.0
N121 N 0.66094 0.33333 0.87632 0.0
C122 C 0.64976 0.32741 0.92562 0.0
C123 C 0.67938 0.33996 0.9188 0.0
C124 C 0.64755 0.32729 0.89445 0.0
C125 C 0.67666 0.33961 0.88776 0.0
C126 C 0.66717 0.2832 0.9979 0.0
C127 C 0.65574 0.28264 0.97305 0.0
C128 C 0.66912 0.26795 0.01591 0.0
C129 C 0.6467 0.26673 0.96623 0.0
C130 C 0.65985 0.25228 0.00838 0.0
N131 N 0.64894 0.25199 0.98388 0.0
C132 C 0.71566 0.30322 0.9381 0.0
C133 C 0.68703 0.29629 0.9182 0.0
C134 C 0.72404 0.29583 0.91286 0.0
N135 N 0.69745 0.30349 0.94022 0.0
C136 C 0.69482 0.28882 0.89257 0.0
C137 C 0.71358 0.2886 0.88952 0.0
H138 H 0.72372 0.30884 0.95597 0.0
H139 H 0.67262 0.29668 0.91998 0.0
C140 C 0.62451 0.33117 0.99638 0.0
N141 N 0.63455 0.31724 0.00666 0.0
C142 C 0.60581 0.33023 0.99691 0.0
C143 C 0.60805 0.30081 0.01946 0.0
C144 C 0.62674 0.30235 0.01858 0.0
C145 C 0.5973 0.31483 0.0083 0.0
H146 H 0.63109 0.343 0.98759 0.0
H147 H 0.63496 0.29162 0.02734 0.0
O148 O 0.70532 0.32689 1.00125 0.0
O149 O 0.67029 0.33525 0.03728 0.0
O150 O 0.66829 0.33388 0.96839 0.0
O151 O 0.67578 0.29879 0.00541 0.0
H152 H 0.72036 0.33932 0.05095 0.0
H153 H 0.71939 0.34389 0.95459 0.0
H154 H 0.74312 0.36361 0.05271 0.0
H155 H 0.74206 0.36819 0.95803 0.0
H156 H 0.64385 0.29894 0.10649 0.0
H157 H 0.65697 0.36059 0.07214 0.0
H158 H 0.66167 0.30343 0.06012 0.0
H159 H 0.6392 0.35508 0.11844 0.0
H160 H 0.6968 0.40155 0.0496 0.0
H161 H 0.68687 0.40379 0.95392 0.0
H162 H 0.71924 0.26864 0.09072 0.0
H163 H 0.70896 0.31832 0.1381 0.0
H164 H 0.63912 0.32251 0.93993 0.0
H165 H 0.69196 0.34475 0.92781 0.0
H166 H 0.63521 0.32236 0.88468 0.0
H167 H 0.68709 0.34426 0.87275 0.0
H168 H 0.65347 0.29452 0.95972 0.0
H169 H 0.67757 0.26823 0.03566 0.0
H170 H 0.63777 0.26615 0.94709 0.0
H171 H 0.66126 0.24038 0.0221 0.0
H172 H 0.73855 0.29571 0.91175 0.0
H173 H 0.68618 0.28366 0.87501 0.0
H174 H 0.59811 0.34155 0.9887 0.0
H175 H 0.60212 0.28866 0.02836 0.0
Li176 Li 0.66174 0.6853 0.00384 0.0
Li177 Li 0.68999 0.68914 0.03176 0.0
Li178 Li 0.69013 0.68819 0.97504 0.0
Li179 Li 0.68539 0.66111 0.00564 0.0
C180 C 0.6711 0.72213 0.99526 0.0
N181 N 0.65582 0.75476 0.98037 0.0
C182 C 0.66924 0.73554 0.01699 0.0
C183 C 0.66545 0.72544 0.96583 0.0
C184 C 0.6614 0.75191 0.00906 0.0
C185 C 0.65769 0.74198 0.95877 0.0
C186 C 0.66795 0.6719 0.06899 0.0
C187 C 0.67759 0.66532 0.11954 0.0
N188 N 0.66297 0.67413 0.13037 0.0
C189 C 0.65295 0.68076 0.08061 0.0
C190 C 0.6803 0.66398 0.08857 0.0
C191 C 0.6507 0.68178 0.11172 0.0
C192 C 0.62613 0.67501 0.99491 0.0
N193 N 0.6364 0.68921 0.00341 0.0
C194 C 0.61019 0.70708 0.01155 0.0
C195 C 0.62883 0.70502 0.01188 0.0
C196 C 0.59921 0.69267 1.00269 0.0
C197 C 0.60746 0.67645 0.99432 0.0
H198 H 0.6325 0.66249 0.98873 0.0
H199 H 0.63718 0.716 0.01924 0.0
C200 C 0.71799 0.69758 0.07271 0.0
N201 N 0.70028 0.70005 0.06667 0.0
C202 C 0.72556 0.70469 0.09887 0.0
C203 C 0.69658 0.71694 0.11194 0.0
C204 C 0.6896 0.70969 0.08546 0.0
C205 C 0.71478 0.71439 0.11903 0.0
H206 H 0.72623 0.68996 0.05735 0.0
H207 H 0.67559 0.71157 0.08008 0.0
C208 C 0.66389 0.66761 0.94289 0.0
N209 N 0.64933 0.66319 0.88624 0.0
C210 C 0.66819 0.65248 0.92577 0.0
C211 C 0.65191 0.6803 0.9314 0.0
C212 C 0.66078 0.65054 0.89712 0.0
C213 C 0.64476 0.67788 0.90268 0.0
C214 C 0.72063 0.66455 1.00274 0.0
C215 C 0.7298 0.66173 0.97577 0.0
C216 C 0.72526 0.65454 0.02815 0.0
C217 C 0.74331 0.64875 0.97458 0.0
C218 C 0.73882 0.64166 0.02603 0.0
N219 N 0.74749 0.63905 0.99951 0.0
C220 C 0.70655 0.71496 0.93922 0.0
C221 C 0.70244 0.68714 0.91443 0.0
C222 C 0.71395 0.72249 0.91328 0.0
N223 N 0.70073 0.69766 0.93921 0.0
C224 C 0.70978 0.6941 0.88801 0.0
C225 C 0.71556 0.71205 0.8871 0.0
H226 H 0.70529 0.72298 0.95935 0.0
H227 H 0.69831 0.67326 0.91523 0.0
C228 C 0.68171 0.62639 0.0304 0.0
N229 N 0.68875 0.63568 0.00692 0.0
C230 C 0.68343 0.60775 0.03183 0.0
C231 C 0.69964 0.60851 0.98486 0.0
C232 C 0.69758 0.62715 0.98433 0.0
C233 C 0.69242 0.59853 0.00877 0.0
H234 H 0.6746 0.63345 0.04794 0.0
H235 H 0.70291 0.63481 0.96574 0.0
O236 O 0.67872 0.70601 1.00272 0.0
O237 O 0.67052 0.671 0.03861 0.0
O238 O 0.67102 0.66966 0.97105 0.0
O239 O 0.70721 0.67703 0.00423 0.0
H240 H 0.67373 0.73334 0.03978 0.0
H241 H 0.66725 0.71547 0.94851 0.0
H242 H 0.65978 0.76236 0.02572 0.0
H243 H 0.65324 0.7447 0.93609 0.0
H244 H 0.68712 0.65938 0.13495 0.0
H245 H 0.64323 0.68692 0.06581 0.0
H246 H 0.69194 0.65702 0.07996 0.0
H247 H 0.63921 0.68869 0.12104 0.0
H248 H 0.60447 0.71987 0.01801 0.0
H249 H 0.59957 0.66485 0.98791 0.0
H250 H 0.73962 0.70229 0.10354 0.0
H251 H 0.68783 0.72454 0.1266 0.0
H252 H 0.67725 0.64239 0.93439 0.0
H253 H 0.64795 0.69179 0.9446 0.0
H254 H 0.66411 0.63897 0.88354 0.0
H255 H 0.6355 0.68763 0.89351 0.0
H256 H 0.72647 0.66942 0.95594 0.0
H257 H 0.71833 0.65659 0.04921 0.0
H258 H 0.75046 0.64636 0.95382 0.0
H259 H 0.74245 0.63373 0.04547 0.0
H260 H 0.71812 0.73641 0.91361 0.0
H261 H 0.71113 0.68542 0.86863 0.0
H262 H 0.67781 0.60064 0.05084 0.0
H263 H 0.70646 0.60197 0.96638 0.0
Li264 Li 0.31942 0.66124 0.0035 0.0
Li265 Li 0.31543 0.68919 0.03203 0.0
Li266 Li 0.31582 0.68956 0.97515 0.0
Li267 Li 0.34346 0.68522 0.00481 0.0
C268 C 0.28286 0.66846 0.99897 0.0
N269 N 0.25138 0.64947 0.9906 0.0
C270 C 0.27145 0.66512 0.02325 0.0
C271 C 0.27808 0.66243 0.97034 0.0
C272 C 0.25565 0.65541 0.01859 0.0
C273 C 0.26216 0.65278 0.96659 0.0
C274 C 0.33531 0.66792 0.06833 0.0
C275 C 0.34513 0.67849 0.11684 0.0
N276 N 0.33777 0.6637 0.12986 0.0
C277 C 0.32801 0.65273 0.08214 0.0
C278 C 0.34409 0.68082 0.08575 0.0
C279 C 0.32934 0.65088 0.1133 0.0
C280 C 0.32737 0.62587 0.98644 0.0
N281 N 0.31566 0.63585 1.00282 0.0
C282 C 0.3004 0.60931 0.01905 0.0
C283 C 0.30239 0.62797 0.01912 0.0
C284 C 0.31225 0.59864 1.00216 0.0
C285 C 0.32582 0.60722 0.98557 0.0
H286 H 0.33808 0.63239 0.97424 0.0
H287 H 0.29363 0.6361 0.03281 0.0
C288 C 0.3048 0.71761 0.07032 0.0
N289 N 0.30479 0.69946 0.06715 0.0
C290 C 0.29755 0.72554 0.09604 0.0
C291 C 0.29028 0.69596 0.11471 0.0
C292 C 0.29751 0.68863 0.08851 0.0
C293 C 0.29028 0.71466 0.11876 0.0
H294 H 0.31049 0.72595 0.05289 0.0
H295 H 0.29734 0.67426 0.08526 0.0
C296 C 0.33705 0.66577 0.94115 0.0
N297 N 0.342 0.65566 0.88201 0.0
C298 C 0.35257 0.67092 0.92576 0.0
C299 C 0.3242 0.65523 0.9266 0.0
C300 C 0.35478 0.66575 0.89582 0.0
C301 C 0.3269 0.65032 0.89667 0.0
C302 C 0.33844 0.72104 1.00314 0.0
C303 C 0.3407 0.73056 0.97635 0.0
C304 C 0.34769 0.72646 0.02891 0.0
C305 C 0.35245 0.74517 0.97566 0.0
C306 C 0.35934 0.74112 0.0273 0.0
N307 N 0.36147 0.75008 1.00092 0.0
C308 C 0.28808 0.70457 0.9397 0.0
C309 C 0.31626 0.70314 0.91528 0.0
C310 C 0.28018 0.71203 0.91409 0.0
N311 N 0.30577 0.7001 0.93973 0.0
C312 C 0.30893 0.71047 0.88916 0.0
C313 C 0.29062 0.715 0.88824 0.0
H314 H 0.28009 0.70234 0.95962 0.0
H315 H 0.33039 0.69999 0.91606 0.0
C316 C 0.37849 0.67943 0.02627 0.0
N317 N 0.36886 0.68879 0.00559 0.0
C318 C 0.39716 0.68089 0.02722 0.0
C319 C 0.39575 0.70163 0.98556 0.0
C320 C 0.3771 0.69969 0.98531 0.0
C321 C 0.40604 0.69205 0.00661 0.0
H322 H 0.37169 0.67062 0.04182 0.0
H323 H 0.36923 0.70661 0.96855 0.0
O324 O 0.29841 0.67792 1.00315 0.0
O325 O 0.33395 0.67007 0.03789 0.0
O326 O 0.33464 0.67081 0.97044 0.0
O327 O 0.32708 0.70662 0.00418 0.0
H328 H 0.27481 0.66987 0.04549 0.0
H329 H 0.28646 0.66532 0.95116 0.0
H330 H 0.24677 0.65261 0.03723 0.0
H331 H 0.25834 0.64798 0.94456 0.0
H332 H 0.35179 0.68842 0.13061 0.0
H333 H 0.3213 0.64255 0.069 0.0
H334 H 0.35004 0.6925 0.07539 0.0
H335 H 0.32366 0.63925 0.12431 0.0
H336 H 0.28998 0.6033 0.03269 0.0
H337 H 0.33516 0.59962 0.97197 0.0
H338 H 0.29789 0.74001 0.09834 0.0
H339 H 0.28456 0.68711 0.13146 0.0
H340 H 0.36275 0.67892 0.93673 0.0
H341 H 0.31237 0.65071 0.93838 0.0
H342 H 0.36667 0.66974 0.88359 0.0
H343 H 0.31703 0.6422 0.88513 0.0
H344 H 0.33353 0.72667 0.95628 0.0
H345 H 0.34589 0.71943 0.04991 0.0
H346 H 0.35441 0.75259 0.95503 0.0
H347 H 0.36666 0.74539 0.04703 0.0
H348 H 0.26611 0.71563 0.91471 0.0
H349 H 0.31751 0.71237 0.8698 0.0
H350 H 0.40455 0.67336 0.04396 0.0
H351 H 0.40208 0.71016 0.96895 0.0
Li352 Li 0.81502 0.81529 0.53095 0.0
Li353 Li 0.84252 0.81973 0.50349 0.0
Li354 Li 0.81961 0.84288 0.50363 0.0
Li355 Li 0.81479 0.81526 0.47644 0.0
C356 C 0.82981 0.84389 0.56303 0.0
N357 N 0.82196 0.86435 0.61309 0.0
C358 C 0.84364 0.85034 0.58129 0.0
C359 C 0.81198 0.84784 0.57024 0.0
C360 C 0.8394 0.86066 0.6065 0.0
C361 C 0.80829 0.8582 0.59564 0.0
C362 C 0.83456 0.78442 0.52007 0.0
C363 C 0.83891 0.75288 0.5299 0.0
N364 N 0.84955 0.75709 0.55372 0.0
C365 C 0.84555 0.78843 0.54463 0.0
C366 C 0.83122 0.76651 0.5126 0.0
C367 C 0.85299 0.77443 0.56137 0.0
C368 C 0.78805 0.79754 0.56453 0.0
N369 N 0.80482 0.80465 0.56614 0.0
C370 C 0.80713 0.7965 0.61795 0.0
C371 C 0.8144 0.80425 0.59214 0.0
C372 C 0.78982 0.78903 0.61707 0.0
C373 C 0.78023 0.78965 0.58986 0.0
H374 H 0.78077 0.79796 0.54351 0.0
H375 H 0.82771 0.81001 0.59293 0.0
C376 C 0.87791 0.83038 0.51316 0.0
N377 N 0.86788 0.81644 0.50295 0.0
C378 C 0.89661 0.82935 0.51295 0.0
C379 C 0.89433 0.79958 0.49167 0.0
C380 C 0.87564 0.80119 0.49232 0.0
C381 C 0.90509 0.81382 0.50199 0.0
H382 H 0.87134 0.84236 0.52137 0.0
H383 H 0.86735 0.79034 0.48412 0.0
C384 C 0.78417 0.83513 0.48735 0.0
N385 N 0.7569 0.85021 0.45369 0.0
C386 C 0.78821 0.84579 0.46241 0.0
C387 C 0.76626 0.83215 0.49518 0.0
C388 C 0.77424 0.85329 0.44568 0.0
C389 C 0.75266 0.8399 0.47788 0.0
C390 C 0.84347 0.8299 0.44402 0.0
C391 C 0.85031 0.84378 0.42628 0.0
C392 C 0.847 0.81206 0.43627 0.0
C393 C 0.86059 0.83957 0.40101 0.0
C394 C 0.85734 0.80841 0.41084 0.0
N395 N 0.86386 0.82212 0.39387 0.0
C396 C 0.83106 0.87804 0.49451 0.0
C397 C 0.80123 0.87642 0.51273 0.0
C398 C 0.83026 0.89675 0.49385 0.0
N399 N 0.81666 0.86831 0.50371 0.0
C400 C 0.7998 0.89513 0.51231 0.0
C401 C 0.81445 0.90558 0.5027 0.0
H402 H 0.84323 0.87121 0.48781 0.0
H403 H 0.79 0.86837 0.52018 0.0
C404 C 0.7967 0.78826 0.44343 0.0
N405 N 0.80401 0.80494 0.44144 0.0
C406 C 0.789 0.7802 0.41815 0.0
C407 C 0.79643 0.80666 0.38932 0.0
C408 C 0.80391 0.81422 0.41513 0.0
C409 C 0.7889 0.78938 0.39056 0.0
H410 H 0.79695 0.7812 0.46466 0.0
H411 H 0.8097 0.82751 0.4141 0.0
O412 O 0.83384 0.83382 0.53823 0.0
O413 O 0.82702 0.79785 0.50332 0.0
O414 O 0.79757 0.82753 0.50409 0.0
O415 O 0.83344 0.83389 0.46888 0.0
H416 H 0.85751 0.84738 0.57602 0.0
H417 H 0.80108 0.84294 0.55647 0.0
H418 H 0.84997 0.86574 0.62083 0.0
H419 H 0.79456 0.86136 0.60147 0.0
H420 H 0.83643 0.73896 0.52438 0.0
H421 H 0.84834 0.80219 0.55074 0.0
H422 H 0.82275 0.76319 0.49363 0.0
H423 H 0.86151 0.77734 0.58044 0.0
H424 H 0.81492 0.79657 0.63849 0.0
H425 H 0.76694 0.78388 0.58803 0.0
H426 H 0.90433 0.84055 0.5215 0.0
H427 H 0.90027 0.78746 0.48268 0.0
H428 H 0.80198 0.84831 0.45604 0.0
H429 H 0.76291 0.82394 0.51444 0.0
H430 H 0.77718 0.86157 0.42633 0.0
H431 H 0.73873 0.8377 0.48368 0.0
H432 H 0.84769 0.85766 0.43199 0.0
H433 H 0.84181 0.80114 0.44968 0.0
H434 H 0.86597 0.85017 0.38706 0.0
H435 H 0.86017 0.79467 0.40458 0.0
H436 H 0.84201 0.90421 0.48684 0.0
H437 H 0.78729 0.9013 0.51907 0.0
H438 H 0.78348 0.7668 0.42007 0.0
H439 H 0.79641 0.81434 0.36867 0.0
Li440 Li 0.18509 0.84335 0.50225 0.0
Li441 Li 0.18898 0.81552 0.53147 0.0
Li442 Li 0.18914 0.81554 0.47466 0.0
Li443 Li 0.16088 0.81957 0.50238 0.0
C444 C 0.22076 0.83822 0.50456 0.0
N445 N 0.24969 0.86135 0.50754 0.0
C446 C 0.23049 0.83993 0.53125 0.0
C447 C 0.22587 0.84809 0.47928 0.0
C448 C 0.24505 0.85174 0.53232 0.0
C449 C 0.24049 0.85977 0.48127 0.0
C450 C 0.16403 0.83671 0.56458 0.0
C451 C 0.14584 0.82697 0.60632 0.0
N452 N 0.15123 0.84158 0.62227 0.0
C453 C 0.1692 0.85176 0.58124 0.0
C454 C 0.15209 0.82432 0.57708 0.0
C455 C 0.16267 0.85392 0.61042 0.0
C456 C 0.1798 0.87868 0.48185 0.0
N457 N 0.18883 0.8687 0.50245 0.0
C458 C 0.2016 0.89518 0.52404 0.0
C459 C 0.19951 0.87655 0.52344 0.0
C460 C 0.19235 0.90591 0.50314 0.0
C461 C 0.18135 0.89736 0.4818 0.0
H462 H 0.17109 0.87216 0.46579 0.0
H463 H 0.20624 0.86837 0.54002 0.0
C464 C 0.20406 0.78773 0.56685 0.0
N465 N 0.19918 0.80532 0.56699 0.0
C466 C 0.21142 0.77986 0.59256 0.0
C467 C 0.20889 0.80842 0.61794 0.0
C468 C 0.20168 0.81574 0.59171 0.0
C469 C 0.21382 0.79022 0.61863 0.0
H470 H 0.2022 0.77979 0.54675 0.0
H471 H 0.19833 0.82982 0.59097 0.0
C472 C 0.16792 0.83507 0.43813 0.0
N473 N 0.16341 0.83644 0.37658 0.0
C474 C 0.15293 0.82709 0.42481 0.0
C475 C 0.18049 0.84397 0.42021 0.0
C476 C 0.15092 0.82788 0.39363 0.0
C477 C 0.17801 0.84444 0.38912 0.0
C478 C 0.16863 0.78261 0.50811 0.0
C479 C 0.16622 0.77025 0.48483 0.0
C480 C 0.16236 0.77854 0.53688 0.0
C481 C 0.15722 0.75416 0.49062 0.0
C482 C 0.15344 0.76231 0.54178 0.0
N483 N 0.15105 0.75057 0.51873 0.0
C484 C 0.21759 0.80563 0.43581 0.0
C485 C 0.18871 0.79694 0.41894 0.0
C486 C 0.22548 0.7983 0.41012 0.0
N487 N 0.1995 0.80494 0.43962 0.0
C488 C 0.196 0.78961 0.39278 0.0
C489 C 0.21463 0.79026 0.38809 0.0
H490 H 0.22592 0.81188 0.45272 0.0
H491 H 0.1744 0.79626 0.42273 0.0
C492 C 0.12551 0.82974 0.51418 0.0
N493 N 0.13548 0.81625 0.50222 0.0
C494 C 0.1068 0.82874 0.51418 0.0
C495 C 0.10888 0.79999 0.48928 0.0
C496 C 0.12757 0.80158 0.48971 0.0
C497 C 0.09823 0.81373 0.50153 0.0
H498 H 0.13212 0.84139 0.52358 0.0
H499 H 0.13571 0.7913 0.47945 0.0
O500 O 0.2064 0.82681 0.50314 0.0
O501 O 0.17032 0.8344 0.53597 0.0
O502 O 0.17021 0.83428 0.46859 0.0
O503 O 0.17738 0.79844 0.50277 0.0
H504 H 0.22681 0.83229 0.55095 0.0
H505 H 0.2186 0.84678 0.45838 0.0
H506 H 0.25265 0.85328 0.55288 0.0
H507 H 0.24453 0.86757 0.46192 0.0
H508 H 0.13663 0.81745 0.61628 0.0
H509 H 0.17828 0.86158 0.57183 0.0
H510 H 0.14753 0.81289 0.56425 0.0
H511 H 0.16668 0.86543 0.62365 0.0
H512 H 0.21036 0.90108 0.54074 0.0
H513 H 0.17363 0.90502 0.46565 0.0
H514 H 0.21499 0.76577 0.59215 0.0
H515 H 0.21087 0.81699 0.63731 0.0
H516 H 0.14303 0.82023 0.43836 0.0
H517 H 0.19205 0.8504 0.4302 0.0
H518 H 0.13944 0.82166 0.38299 0.0
H519 H 0.18769 0.85118 0.37496 0.0
H520 H 0.17116 0.77308 0.4625 0.0
H521 H 0.16452 0.78771 0.55532 0.0
H522 H 0.15516 0.74453 0.47277 0.0
H523 H 0.14847 0.75901 0.56394 0.0
H524 H 0.2399 0.79916 0.40731 0.0
H525 H 0.18717 0.7833 0.37658 0.0
H526 H 0.09914 0.83958 0.52408 0.0
H527 H 0.10283 0.78835 0.47881 0.0
Li528 Li 0.18791 0.1894 0.53223 0.0
Li529 Li 0.16071 0.18438 0.50399 0.0
Li530 Li 0.18389 0.16155 0.50529 0.0
Li531 Li 0.18865 0.18897 0.47777 0.0
C532 C 0.1729 0.16077 0.56442 0.0
N533 N 0.18002 0.14065 0.61519 0.0
C534 C 0.1588 0.15381 0.58152 0.0
C535 C 0.19062 0.15751 0.57316 0.0
C536 C 0.16268 0.14367 0.60711 0.0
C537 C 0.19395 0.14731 0.59889 0.0
C538 C 0.16805 0.21989 0.52022 0.0
C539 C 0.16294 0.25141 0.52914 0.0
N540 N 0.15228 0.24718 0.5529 0.0
C541 C 0.15704 0.21586 0.54471 0.0
C542 C 0.17103 0.2378 0.51233 0.0
C543 C 0.14919 0.22984 0.56096 0.0
C544 C 0.21459 0.20738 0.56598 0.0
N545 N 0.1978 0.2003 0.56745 0.0
C546 C 0.19555 0.20807 0.61942 0.0
C547 C 0.1882 0.20062 0.59342 0.0
C548 C 0.21295 0.21533 0.61874 0.0
C549 C 0.22246 0.21503 0.59147 0.0
H550 H 0.22192 0.20694 0.54503 0.0
H551 H 0.17484 0.19497 0.59404 0.0
C552 C 0.12546 0.17304 0.51233 0.0
N553 N 0.1353 0.18729 0.5028 0.0
C554 C 0.10675 0.17376 0.51194 0.0
C555 C 0.1086 0.20385 0.49183 0.0
C556 C 0.12731 0.20253 0.49257 0.0
C557 C 0.09805 0.18932 0.50157 0.0
H558 H 0.1322 0.16107 0.5202 0.0
H559 H 0.13545 0.21363 0.48485 0.0
C560 C 0.21939 0.1695 0.49013 0.0
N561 N 0.24722 0.15433 0.45794 0.0
C562 C 0.21576 0.15843 0.46552 0.0
C563 C 0.23717 0.17283 0.4984 0.0
C564 C 0.23001 0.15089 0.44952 0.0
C565 C 0.25106 0.16505 0.48183 0.0
C566 C 0.1606 0.17411 0.4446 0.0
C567 C 0.15448 0.16027 0.42606 0.0
C568 C 0.15679 0.19194 0.43714 0.0
C569 C 0.14459 0.1645 0.40034 0.0
C570 C 0.14686 0.19562 0.41125 0.0
N571 N 0.14101 0.18194 0.39353 0.0
C572 C 0.17429 0.12605 0.49324 0.0
C573 C 0.2022 0.1286 0.51851 0.0
C574 C 0.17578 0.10737 0.49276 0.0
N575 N 0.18741 0.13621 0.5059 0.0
C576 C 0.20416 0.10994 0.51879 0.0
C577 C 0.19085 0.09909 0.50571 0.0
H578 H 0.16262 0.13248 0.48362 0.0
H579 H 0.21248 0.13699 0.52832 0.0
C580 C 0.20638 0.21606 0.44441 0.0
N581 N 0.19965 0.19912 0.44288 0.0
C582 C 0.21426 0.22394 0.41913 0.0
C583 C 0.20823 0.19675 0.39129 0.0
C584 C 0.20047 0.18942 0.41705 0.0
C585 C 0.21525 0.21425 0.39206 0.0
H586 H 0.20561 0.22344 0.46529 0.0
H587 H 0.19498 0.176 0.41631 0.0
O588 O 0.16923 0.17069 0.53929 0.0
O589 O 0.17597 0.20648 0.50392 0.0
O590 O 0.20571 0.1771 0.5062 0.0
O591 O 0.17028 0.17009 0.46986 0.0
H592 H 0.145 0.15623 0.57507 0.0
H593 H 0.20172 0.16282 0.56029 0.0
H594 H 0.15189 0.1382 0.62056 0.0
H595 H 0.2076 0.14469 0.6059 0.0
H596 H 0.16513 0.26533 0.52329 0.0
H597 H 0.1545 0.20209 0.55111 0.0
H598 H 0.17951 0.24114 0.4934 0.0
H599 H 0.14064 0.2269 0.57996 0.0
H600 H 0.18763 0.20826 0.6398 0.0
H601 H 0.23597 0.22032 0.58998 0.0
H602 H 0.09918 0.16233 0.52 0.0
H603 H 0.10247 0.21601 0.48331 0.0
H604 H 0.2021 0.15563 0.4588 0.0
H605 H 0.24021 0.18135 0.51743 0.0
H606 H 0.22739 0.14231 0.43042 0.0
H607 H 0.26489 0.16752 0.48798 0.0
H608 H 0.15735 0.1464 0.43146 0.0
H609 H 0.16147 0.20285 0.45109 0.0
H610 H 0.13976 0.15392 0.38579 0.0
H611 H 0.14381 0.20935 0.40522 0.0
H612 H 0.16512 0.09949 0.4828 0.0
H613 H 0.21604 0.10407 0.52878 0.0
H614 H 0.21969 0.23738 0.42086 0.0
H615 H 0.20844 0.18887 0.37085 0.0
Li616 Li 0.81534 0.19014 0.53172 0.0
Li617 Li 0.81999 0.16174 0.5027 0.0
Li618 Li 0.84191 0.18496 0.50243 0.0
Li619 Li 0.81472 0.18959 0.4751 0.0
C620 C 0.84833 0.17144 0.55577 0.0
N621 N 0.87898 0.17267 0.59072 0.0
C622 C 0.86027 0.15698 0.55592 0.0
C623 C 0.85195 0.18651 0.57349 0.0
C624 C 0.87571 0.15787 0.57369 0.0
C625 C 0.8675 0.18687 0.59102 0.0
C626 C 0.78432 0.17044 0.52081 0.0
C627 C 0.75275 0.16542 0.52932 0.0
N628 N 0.75673 0.15663 0.55526 0.0
C629 C 0.7881 0.16133 0.54754 0.0
C630 C 0.7665 0.17251 0.51161 0.0
C631 C 0.77397 0.15446 0.56464 0.0
C632 C 0.79559 0.21614 0.56443 0.0
N633 N 0.80504 0.2006 0.56685 0.0
C634 C 0.80014 0.19985 0.61989 0.0
C635 C 0.80729 0.19233 0.59381 0.0
C636 C 0.79044 0.21599 0.61822 0.0
C637 C 0.78809 0.2241 0.58996 0.0
H638 H 0.79398 0.22239 0.54266 0.0
H639 H 0.8147 0.17987 0.59509 0.0
C640 C 0.83224 0.1264 0.49964 0.0
N641 N 0.81687 0.13617 0.50155 0.0
C642 C 0.83159 0.10767 0.49884 0.0
C643 C 0.79924 0.10932 0.50105 0.0
C644 C 0.80051 0.12803 0.50153 0.0
C645 C 0.81492 0.09888 0.49989 0.0
H646 H 0.84503 0.1332 0.49855 0.0
H647 H 0.78841 0.13596 0.50159 0.0
C648 C 0.83713 0.22137 0.4993 0.0
N649 N 0.85912 0.25092 0.49246 0.0
C650 C 0.8464 0.22404 0.4724 0.0
C651 C 0.83892 0.23377 0.52266 0.0
C652 C 0.8575 0.23905 0.46941 0.0
C653 C 0.85013 0.24862 0.51877 0.0
C654 C 0.82821 0.16145 0.44266 0.0
C655 C 0.84096 0.15641 0.42124 0.0
C656 C 0.81023 0.15665 0.43853 0.0
C657 C 0.83552 0.14661 0.39608 0.0
C658 C 0.80533 0.14684 0.41308 0.0
N659 N 0.81797 0.14206 0.39256 0.0
C660 C 0.87708 0.17658 0.48504 0.0
C661 C 0.8758 0.20169 0.51756 0.0
C662 C 0.89579 0.17757 0.48411 0.0
N663 N 0.86748 0.18856 0.50152 0.0
C664 C 0.89447 0.20319 0.51727 0.0
C665 C 0.90475 0.19099 0.50045 0.0
H666 H 0.8702 0.16601 0.47304 0.0
H667 H 0.86801 0.21084 0.53108 0.0
C668 C 0.78656 0.20478 0.4403 0.0
N669 N 0.80415 0.2 0.44018 0.0
C670 C 0.77868 0.21215 0.41457 0.0
C671 C 0.80725 0.20967 0.38924 0.0
C672 C 0.81452 0.20227 0.41537 0.0
C673 C 0.78906 0.21469 0.3885 0.0
H674 H 0.77863 0.20281 0.46036 0.0
H675 H 0.82848 0.19831 0.41584 0.0
O676 O 0.8333 0.17098 0.53808 0.0
O677 O 0.7979 0.17753 0.50387 0.0
O678 O 0.82627 0.20674 0.50278 0.0
O679 O 0.83345 0.17108 0.46736 0.0
H680 H 0.85771 0.1452 0.54244 0.0
H681 H 0.84307 0.19799 0.57322 0.0
H682 H 0.8851 0.1468 0.57392 0.0
H683 H 0.87052 0.1985 0.60466 0.0
H684 H 0.7389 0.16692 0.52246 0.0
H685 H 0.80179 0.15942 0.5549 0.0
H686 H 0.76333 0.1795 0.49097 0.0
H687 H 0.77671 0.14737 0.58535 0.0
H688 H 0.80203 0.19301 0.64112 0.0
H689 H 0.78081 0.2366 0.5877 0.0
H690 H 0.84401 0.10015 0.49786 0.0
H691 H 0.78611 0.10308 0.50115 0.0
H692 H 0.84526 0.21448 0.45423 0.0
H693 H 0.83182 0.23186 0.54363 0.0
H694 H 0.86486 0.24123 0.44879 0.0
H695 H 0.85171 0.25831 0.53669 0.0
H696 H 0.85492 0.16007 0.42399 0.0
H697 H 0.80011 0.16043 0.45468 0.0
H698 H 0.84526 0.14262 0.37934 0.0
H699 H 0.79147 0.14303 0.40963 0.0
H700 H 0.90316 0.16766 0.47129 0.0
H701 H 0.90078 0.21382 0.53008 0.0
H702 H 0.76457 0.21558 0.41502 0.0
H703 H 0.81587 0.2116 0.36995 0.0
H704 H 0.28182 0.42663 0.01163 0.0
H705 H 0.27995 0.45941 0.00942 0.0
H706 H 0.33683 0.4623 0.9922 0.0
H707 H 0.33869 0.42963 0.993 0.0
H708 H 0.29664 0.48455 0.04444 0.0
H709 H 0.31689 0.49344 0.9257 0.0
H710 H 0.31063 0.47188 0.94097 0.0
H711 H 0.33289 0.48061 0.94681 0.0
C712 C 0.29388 0.43422 0.0069 0.0
C713 C 0.3104 0.42545 1.00239 0.0
C714 C 0.29281 0.45297 0.00585 0.0
C715 C 0.30819 0.46329 1.00014 0.0
C716 C 0.32471 0.4546 0.99598 0.0
H717 H 0.33957 0.574 1.00277 0.0
H718 H 0.33723 0.54131 1.00199 0.0
C719 C 0.32579 0.4359 0.99689 0.0
C720 C 0.30716 0.48318 0.99944 0.0
H721 H 0.31749 0.51976 0.95651 0.0
C722 C 0.30099 0.49226 0.02509 0.0
C723 C 0.31277 0.49321 0.97411 0.0
C724 C 0.31849 0.48429 0.94524 0.0
C725 C 0.30093 0.5111 0.02649 0.0
C726 C 0.30709 0.52106 1.00153 0.0
C727 C 0.31289 0.51203 0.97567 0.0
C728 C 0.30822 0.54089 1.00217 0.0
C729 C 0.29484 0.52025 0.05494 0.0
C730 C 0.29264 0.55145 1.00232 0.0
C731 C 0.29391 0.5702 1.00239 0.0
C732 C 0.31079 0.5787 1.00232 0.0
C733 C 0.32635 0.56797 1.00229 0.0
C734 C 0.32506 0.54927 1.00205 0.0
H735 H 0.29313 0.51062 0.07378 0.0
H736 H 0.30464 0.53072 0.06175 0.0
H737 H 0.28178 0.52697 0.05084 0.0
H738 H 0.27952 0.54519 1.00203 0.0
H739 H 0.28166 0.57801 1.00198 0.0
H740 H 0.42619 0.3192 0.05282 0.0
H741 H 0.45905 0.31867 0.05415 0.0
H742 H 0.46019 0.30044 0.96228 0.0
H743 H 0.4273 0.30074 0.96082 0.0
H744 H 0.48408 0.28149 0.0058 0.0
H745 H 0.49071 0.35592 0.006 0.0
H746 H 0.47554 0.34641 0.03314 0.0
H747 H 0.4705 0.34464 0.99383 0.0
C748 C 0.43342 0.31487 0.03301 0.0
C749 C 0.42416 0.31006 0.00667 0.0
C750 C 0.45218 0.31471 0.03375 0.0
C751 C 0.46199 0.30969 0.00823 0.0
C752 C 0.45282 0.30444 0.98215 0.0
H753 H 0.57382 0.32612 0.96486 0.0
H754 H 0.54107 0.32438 0.96539 0.0
C755 C 0.43406 0.30471 0.98131 0.0
C756 C 0.48184 0.31024 0.00854 0.0
H757 H 0.51741 0.3391 0.01102 0.0
C758 C 0.49141 0.29406 0.00699 0.0
C759 C 0.49127 0.32669 0.0098 0.0
C760 C 0.48156 0.34446 0.01058 0.0
C761 C 0.51026 0.29389 0.00698 0.0
C762 C 0.51969 0.31033 0.00867 0.0
C763 C 0.5101 0.32652 0.00992 0.0
C764 C 0.53955 0.31108 0.00848 0.0
C765 C 0.51999 0.27619 0.00465 0.0
C766 C 0.54951 0.30429 0.03268 0.0
C767 C 0.56826 0.30544 0.03264 0.0
C768 C 0.57737 0.31341 0.00837 0.0
C769 C 0.56726 0.32015 0.98413 0.0
C770 C 0.54855 0.31907 0.98428 0.0
H771 H 0.51088 0.26512 0.99769 0.0
H772 H 0.5312 0.27712 0.98829 0.0
H773 H 0.52578 0.27271 0.02687 0.0
H774 H 0.54278 0.29833 0.0518 0.0
H775 H 0.57557 0.30037 0.05188 0.0
H776 H 0.67136 0.4301 0.97248 0.0
H777 H 0.67373 0.46279 0.97403 0.0
H778 H 0.71858 0.45869 0.03489 0.0
H779 H 0.7164 0.42588 0.0333 0.0
H780 H 0.69284 0.48355 0.05313 0.0
H781 H 0.71174 0.49446 0.93409 0.0
H782 H 0.6918 0.4812 0.93861 0.0
H783 H 0.71296 0.47272 0.9519 0.0
C784 C 0.68192 0.43612 0.98584 0.0
C785 C 0.69378 0.42535 1.0026 0.0
C786 C 0.68324 0.45482 0.98671 0.0
C787 C 0.69651 0.46316 0.00418 0.0
C788 C 0.70829 0.4525 0.02115 0.0
H789 H 0.72135 0.57771 0.99324 0.0
H790 H 0.72336 0.54489 0.99334 0.0
C791 C 0.70697 0.43377 0.02031 0.0
C792 C 0.69767 0.48302 0.00545 0.0
H793 H 0.7026 0.52035 0.96169 0.0
C794 C 0.69512 0.4916 0.03319 0.0
C795 C 0.70088 0.4935 0.97949 0.0
C796 C 0.70468 0.48502 0.94938 0.0
C797 C 0.69511 0.51041 0.0355 0.0
C798 C 0.69747 0.52088 0.00928 0.0
C799 C 0.70061 0.5123 0.98171 0.0
C800 C 0.69637 0.54076 0.00984 0.0
C801 C 0.69267 0.51888 0.066 0.0
C802 C 0.68046 0.54931 0.01874 0.0
C803 C 0.67924 0.56803 0.01859 0.0
C804 C 0.69388 0.5786 0.00933 0.0
C805 C 0.70977 0.56997 1.00024 0.0
C806 C 0.71098 0.55123 1.00042 0.0
H807 H 0.69611 0.50939 0.08437 0.0
H808 H 0.70109 0.5311 0.06838 0.0
H809 H 0.67841 0.52284 0.0688 0.0
H810 H 0.66886 0.54149 0.02537 0.0
H811 H 0.66668 0.57421 0.02514 0.0
H812 H 0.43025 0.66473 0.01239 0.0
H813 H 0.46298 0.66671 0.01248 0.0
H814 H 0.45967 0.72408 1.00073 0.0
H815 H 0.42683 0.72218 1.00043 0.0
H816 H 0.48441 0.70882 0.96341 0.0
H817 H 0.49483 0.68476 0.07984 0.0
H818 H 0.48186 0.66944 0.05758 0.0
H819 H 0.47308 0.6914 0.06585 0.0
C820 C 0.43648 0.6778 0.01018 0.0
C821 C 0.42595 0.69332 0.00666 0.0
C822 C 0.4552 0.67891 0.01027 0.0
C823 C 0.46378 0.69558 0.00721 0.0
C824 C 0.45332 0.71109 1.00329 0.0
H825 H 0.57793 0.71009 0.04365 0.0
H826 H 0.54521 0.71243 0.04389 0.0
C827 C 0.43458 0.70998 1.00303 0.0
C828 C 0.48366 0.69673 0.00733 0.0
H829 H 0.52078 0.68579 0.04845 0.0
C830 C 0.49237 0.70392 0.98209 0.0
C831 C 0.49403 0.69059 0.03192 0.0
C832 C 0.48548 0.68379 0.06046 0.0
C833 C 0.51118 0.70465 0.9804 0.0
C834 C 0.52155 0.69766 0.00435 0.0
C835 C 0.51283 0.69096 0.02995 0.0
C836 C 0.54145 0.69696 1.00324 0.0
C837 C 0.51974 0.71307 0.95311 0.0
C838 C 0.55023 0.68742 0.98037 0.0
C839 C 0.56895 0.68624 0.97995 0.0
C840 C 0.5793 0.69439 1.00263 0.0
C841 C 0.57043 0.7039 0.02556 0.0
C842 C 0.55171 0.70514 0.02587 0.0
H843 H 0.51039 0.72245 0.94162 0.0
H844 H 0.53214 0.7205 0.9592 0.0
H845 H 0.52336 0.70236 0.93689 0.0
H846 H 0.54259 0.68067 0.96303 0.0
H847 H 0.57531 0.67895 0.96181 0.0
H848 H 0.79812 0.92798 0.54334 0.0
H849 H 0.79649 0.96076 0.54204 0.0
H850 H 0.82738 0.96123 0.46015 0.0
H851 H 0.82835 0.92849 0.46047 0.0
H852 H 0.82367 0.98502 0.54413 0.0
H853 H 0.78583 0.99337 0.43786 0.0
H854 H 0.78772 0.97202 0.45675 0.0
H855 H 0.80572 0.98008 0.43342 0.0
C856 C 0.80428 0.93502 0.52474 0.0
C857 C 0.8133 0.92554 0.50194 0.0
C858 C 0.80345 0.95378 0.52416 0.0
C859 C 0.81156 0.96345 0.50075 0.0
C860 C 0.82067 0.95405 0.47809 0.0
H861 H 0.83375 0.07538 0.46471 0.0
H862 H 0.83254 0.0425 0.46558 0.0
C863 C 0.82144 0.93531 0.47856 0.0
C864 C 0.8111 0.98337 0.50063 0.0
H865 H 0.79956 0.01974 0.45798 0.0
C866 C 0.81825 0.99261 0.52541 0.0
C867 C 0.804 0.99327 0.4762 0.0
C868 C 0.79522 0.98419 0.44969 0.0
C869 C 0.81888 0.01144 0.52609 0.0
C870 C 0.8121 0.02127 0.50143 0.0
C871 C 0.80482 0.01211 0.47677 0.0
C872 C 0.8126 0.04113 0.50078 0.0
C873 C 0.82716 0.02073 0.55283 0.0
C874 C 0.80162 0.05118 0.52006 0.0
C875 C 0.80225 0.06994 0.51957 0.0
C876 C 0.81392 0.07897 0.49986 0.0
C877 C 0.82479 0.06881 0.48039 0.0
C878 C 0.82404 0.05006 0.48074 0.0
H879 H 0.83452 0.01122 0.5676 0.0
H880 H 0.83655 0.03141 0.54537 0.0
H881 H 0.81641 0.02719 0.56627 0.0
H882 H 0.79259 0.0445 0.53551 0.0
H883 H 0.79382 0.07739 0.53497 0.0
H884 H 0.07697 0.78448 0.5129 0.0
H885 H 0.04412 0.78285 0.51133 0.0
H886 H 0.04168 0.83887 0.48732 0.0
H887 H 0.07444 0.84052 0.48816 0.0
H888 H 0.01932 0.80355 0.5456 0.0
H889 H 0.0104 0.81411 0.4231 0.0
H890 H 0.03164 0.80773 0.43949 0.0
H891 H 0.0242 0.83066 0.4412 0.0
C892 C 0.06944 0.79639 0.50694 0.0
C893 C 0.07832 0.81262 0.5006 0.0
C894 C 0.05069 0.79546 0.50622 0.0
C895 C 0.04051 0.81067 0.49883 0.0
C896 C 0.04931 0.8269 0.4926 0.0
H897 H 0.92905 0.8401 0.48651 0.0
H898 H 0.96179 0.83838 0.48639 0.0
C899 C 0.06803 0.82786 0.49343 0.0
C900 C 0.02064 0.8098 0.49846 0.0
H901 H 0.98412 0.81596 0.45327 0.0
C902 C 0.01159 0.80609 0.52539 0.0
C903 C 0.01064 0.81315 0.47204 0.0
C904 C 0.01968 0.81648 0.44223 0.0
C905 C 0.99276 0.80623 0.52683 0.0
C906 C 0.98275 0.80982 0.50048 0.0
C907 C 0.99182 0.81324 0.47345 0.0
C908 C 0.96287 0.81063 0.50062 0.0
C909 C 0.98376 0.80315 0.55675 0.0
C910 C 0.95259 0.79553 0.50832 0.0
C911 C 0.93384 0.79651 0.50868 0.0
C912 C 0.92501 0.8126 0.50116 0.0
C913 C 0.93539 0.8276 0.49296 0.0
C914 C 0.95411 0.82661 0.49265 0.0
H915 H 0.99324 0.80494 0.57579 0.0
H916 H 0.97228 0.81246 0.55985 0.0
H917 H 0.97855 0.7892 0.55762 0.0
H918 H 0.95907 0.78297 0.51402 0.0
H919 H 0.92627 0.78473 0.51526 0.0
H920 H 0.20083 0.07732 0.5523 0.0
H921 H 0.20273 0.04444 0.55251 0.0
H922 H 0.18641 0.04319 0.45962 0.0
H923 H 0.18455 0.07603 0.45916 0.0
H924 H 0.17196 0.02001 0.5346 0.0
H925 H 0.23409 0.01189 0.46664 0.0
H926 H 0.22905 0.03227 0.48698 0.0
H927 H 0.21745 0.02731 0.45266 0.0
C928 C 0.19785 0.07004 0.53184 0.0
C929 C 0.19255 0.07924 0.5057 0.0
C930 C 0.19886 0.05129 0.53205 0.0
C931 C 0.19484 0.04147 0.50603 0.0
C932 C 0.18971 0.05059 0.47984 0.0
H933 H 0.19301 0.92946 0.45568 0.0
H934 H 0.19346 0.96222 0.45746 0.0
C935 C 0.18854 0.06931 0.47968 0.0
C936 C 0.19536 0.02163 0.50648 0.0
H937 H 0.21805 0.98549 0.47869 0.0
C938 C 0.18207 0.01241 0.52257 0.0
C939 C 0.2085 0.01186 0.49052 0.0
C940 C 0.22319 0.02126 0.47332 0.0
C941 C 0.18133 0.99357 0.52258 0.0
C942 C 0.19457 0.98373 0.50677 0.0
C943 C 0.20794 0.99302 0.49085 0.0
C944 C 0.19459 0.9638 0.50596 0.0
C945 C 0.16601 0.98446 0.53869 0.0
C946 C 0.19537 0.95376 0.5326 0.0
C947 C 0.19478 0.93501 0.53171 0.0
C948 C 0.19368 0.92587 0.50408 0.0
C949 C 0.19347 0.936 0.47738 0.0
C950 C 0.1939 0.95475 0.47833 0.0
H951 H 0.15448 0.99371 0.54202 0.0
H952 H 0.16125 0.97251 0.52609 0.0
H953 H 0.17063 0.98 0.56118 0.0
H954 H 0.19635 0.96042 0.55415 0.0
H955 H 0.19482 0.92772 0.55275 0.0
H956 H 0.92703 0.19793 0.54802 0.0
H957 H 0.95983 0.1993 0.54805 0.0
H958 H 0.96046 0.18691 0.45345 0.0
H959 H 0.92765 0.18612 0.45296 0.0
H960 H 0.98366 0.17231 0.53369 0.0
H961 H 0.99308 0.23089 0.45838 0.0
H962 H 0.97173 0.2255 0.47529 0.0
H963 H 0.97929 0.2135 0.44262 0.0
C964 C 0.93412 0.1958 0.52709 0.0
C965 C 0.92469 0.19202 0.50044 0.0
C966 C 0.95287 0.19647 0.52721 0.0
C967 C 0.96257 0.19346 0.50068 0.0
C968 C 0.95324 0.18961 0.47406 0.0
H969 H 0.07437 0.16312 0.48461 0.0
H970 H 0.04159 0.16442 0.48499 0.0
C971 C 0.93448 0.18895 0.47391 0.0
C972 C 0.98248 0.19366 0.50114 0.0
H973 H 0.01921 0.21384 0.47004 0.0
C974 C 0.99144 0.18145 0.51988 0.0
C975 C 0.99259 0.20574 0.48338 0.0
C976 C 0.98371 0.21978 0.46398 0.0
C977 C 0.01026 0.18072 0.5209 0.0
C978 C 0.02037 0.19233 0.5023 0.0
C979 C 0.01142 0.20482 0.48404 0.0
C980 C 0.04025 0.1917 0.50151 0.0
C981 C 0.01914 0.16767 0.54215 0.0
C982 C 0.05038 0.20678 0.50987 0.0
C983 C 0.06914 0.20608 0.50966 0.0
C984 C 0.07812 0.1903 0.50097 0.0
C985 C 0.06789 0.17535 0.49202 0.0
C986 C 0.04915 0.17607 0.49221 0.0
H987 H 0.00985 0.16327 0.56021 0.0
H988 H 0.0234 0.15559 0.52946 0.0
H989 H 0.03124 0.17372 0.55267 0.0
H990 H 0.04375 0.219 0.51702 0.0
H991 H 0.0766 0.21779 0.51691 0.0
H992 H 0.21184 0.24878 0.37138 0.0
H993 H 0.22476 0.26176 0.32577 0.0
H994 H 0.24949 0.21098 0.30469 0.0
H995 H 0.23714 0.19805 0.35074 0.0
H996 H 0.2725 0.23994 0.29729 0.0
H997 H 0.20741 0.25203 0.24002 0.0
H998 H 0.20908 0.26194 0.27669 0.0
H999 H 0.20943 0.23792 0.27282 0.0
C1000 C 0.22017 0.24041 0.35721 0.0
C1001 C 0.22337 0.22233 0.36466 0.0
C1002 C 0.22737 0.2478 0.33095 0.0
C1003 C 0.23782 0.23725 0.31157 0.0
C1004 C 0.24133 0.21932 0.31921 0.0
H1005 H 0.26745 0.26074 0.12695 0.0
H1006 H 0.25501 0.24806 0.17319 0.0
C1007 C 0.23415 0.21192 0.34544 0.0
C1008 C 0.24526 0.24491 0.28344 0.0
H1009 H 0.23338 0.26404 0.21659 0.0
C1010 C 0.26396 0.24519 0.27962 0.0
C1011 C 0.23407 0.25151 0.26024 0.0
C1012 C 0.21388 0.25072 0.26241 0.0
C1013 C 0.27179 0.25215 0.25339 0.0
C1014 C 0.26062 0.25926 0.23059 0.0
C1015 C 0.24192 0.25873 0.23422 0.0
C1016 C 0.26808 0.26712 0.20263 0.0
C1017 C 0.29194 0.25152 0.2501 0.0
C1018 C 0.27933 0.28221 0.20381 0.0
C1019 C 0.28642 0.28952 0.17744 0.0
C1020 C 0.28229 0.28196 0.1493 0.0
C1021 C 0.27078 0.267 0.14819 0.0
C1022 C 0.26372 0.25968 0.1746 0.0
H1023 H 0.29809 0.2416 0.26564 0.0
H1024 H 0.29583 0.24806 0.22673 0.0
H1025 H 0.29759 0.26492 0.25547 0.0
H1026 H 0.28254 0.28842 0.22515 0.0
H1027 H 0.29496 0.30125 0.17906 0.0
H1028 H 0.7037 0.2968 0.17657 0.0
H1029 H 0.71672 0.28418 0.22228 0.0
H1030 H 0.75652 0.25651 0.16941 0.0
H1031 H 0.74421 0.26981 0.12371 0.0
H1032 H 0.72012 0.24961 0.23941 0.0
H1033 H 0.7876 0.2806 0.23154 0.0
H1034 H 0.76907 0.28769 0.2083 0.0
H1035 H 0.78168 0.26789 0.19878 0.0
C1036 C 0.71544 0.28831 0.17463 0.0
C1037 C 0.72297 0.28447 0.14635 0.0
C1038 C 0.72277 0.28097 0.20082 0.0
C1039 C 0.73778 0.26963 0.19937 0.0
C1040 C 0.74518 0.26555 0.17119 0.0
H1041 H 0.79583 0.20551 0.32985 0.0
H1042 H 0.78319 0.21891 0.28438 0.0
C1043 C 0.73795 0.27297 0.14499 0.0
C1044 C 0.74536 0.26171 0.22728 0.0
H1045 H 0.78391 0.25773 0.26841 0.0
C1046 C 0.73404 0.25149 0.24584 0.0
C1047 C 0.76353 0.26418 0.2357 0.0
C1048 C 0.77614 0.27583 0.2177 0.0
C1049 C 0.74046 0.24343 0.27226 0.0
C1050 C 0.75865 0.24573 0.28041 0.0
C1051 C 0.76998 0.25594 0.26196 0.0
C1052 C 0.76617 0.23764 0.30809 0.0
C1053 C 0.72787 0.23224 0.29106 0.0
C1054 C 0.76087 0.24386 0.33646 0.0
C1055 C 0.76823 0.2364 0.36255 0.0
C1056 C 0.78103 0.22253 0.36075 0.0
C1057 C 0.78624 0.21633 0.33216 0.0
C1058 C 0.77895 0.22389 0.30612 0.0
H1059 H 0.71524 0.22905 0.27892 0.0
H1060 H 0.73443 0.21948 0.29789 0.0
H1061 H 0.72439 0.23973 0.31179 0.0
H1062 H 0.7512 0.25465 0.33841 0.0
H1063 H 0.76412 0.24174 0.38409 0.0
H1064 H 0.80243 0.78987 0.33345 0.0
H1065 H 0.7893 0.77672 0.28811 0.0
H1066 H 0.74496 0.75645 0.34024 0.0
H1067 H 0.7578 0.7699 0.38565 0.0
H1068 H 0.78049 0.73992 0.2772 0.0
H1069 H 0.72073 0.78444 0.27082 0.0
H1070 H 0.74011 0.78977 0.2935 0.0
H1071 H 0.72415 0.7734 0.30626 0.0
C1072 C 0.78979 0.78277 0.33524 0.0
C1073 C 0.7811 0.78104 0.36314 0.0
C1074 C 0.78237 0.77517 0.30934 0.0
C1075 C 0.76606 0.76582 0.31076 0.0
C1076 C 0.75744 0.76385 0.33859 0.0
H1077 H 0.69966 0.71419 0.17507 0.0
H1078 H 0.71227 0.72616 0.22173 0.0
C1079 C 0.76488 0.77139 0.36456 0.0
C1080 C 0.75822 0.75797 0.28311 0.0
H1081 H 0.72226 0.76069 0.23573 0.0
C1082 C 0.76777 0.74446 0.26807 0.0
C1083 C 0.74161 0.7639 0.27136 0.0
C1084 C 0.73107 0.77878 0.28611 0.0
C1085 C 0.76105 0.73655 0.24172 0.0
C1086 C 0.74453 0.74262 0.22974 0.0
C1087 C 0.73493 0.75606 0.24492 0.0
C1088 C 0.73701 0.73529 0.20138 0.0
C1089 C 0.77155 0.72153 0.2273 0.0
C1090 C 0.74661 0.73667 0.17436 0.0
C1091 C 0.73944 0.72985 0.14766 0.0
C1092 C 0.72241 0.72169 0.14739 0.0
C1093 C 0.71273 0.72054 0.17445 0.0
C1094 C 0.71995 0.7273 0.20115 0.0
H1095 H 0.78095 0.71513 0.24348 0.0
H1096 H 0.76246 0.71105 0.21817 0.0
H1097 H 0.77962 0.72702 0.20848 0.0
H1098 H 0.7596 0.7432 0.17384 0.0
H1099 H 0.74711 0.73122 0.12713 0.0
H1100 H 0.20286 0.794 0.33023 0.0
H1101 H 0.21607 0.78113 0.2846 0.0
H1102 H 0.25768 0.75641 0.33763 0.0
H1103 H 0.24456 0.76917 0.38342 0.0
H1104 H 0.25787 0.78504 0.26761 0.0
H1105 H 0.22991 0.71617 0.28193 0.0
H1106 H 0.21879 0.73574 0.29709 0.0
H1107 H 0.23898 0.72762 0.31424 0.0
C1108 C 0.21477 0.78574 0.33219 0.0
C1109 C 0.22266 0.78257 0.36041 0.0
C1110 C 0.22232 0.77849 0.30613 0.0
C1111 C 0.23777 0.76781 0.30789 0.0
C1112 C 0.24572 0.76461 0.33593 0.0
H1113 H 0.29537 0.70369 0.17675 0.0
H1114 H 0.28305 0.71705 0.22254 0.0
C1115 C 0.23827 0.77198 0.36199 0.0
C1116 C 0.24564 0.76003 0.28034 0.0
H1117 H 0.24874 0.72111 0.24031 0.0
C1118 C 0.25589 0.77108 0.26152 0.0
C1119 C 0.2431 0.74181 0.27278 0.0
C1120 C 0.23205 0.72954 0.29239 0.0
C1121 C 0.26387 0.7643 0.23528 0.0
C1122 C 0.26107 0.7461 0.22732 0.0
C1123 C 0.25084 0.73505 0.24635 0.0
C1124 C 0.26866 0.73819 0.19945 0.0
C1125 C 0.27557 0.7766 0.21679 0.0
C1126 C 0.2645 0.74549 0.17119 0.0
C1127 C 0.27161 0.73793 0.14502 0.0
C1128 C 0.28278 0.72275 0.14655 0.0
C1129 C 0.2867 0.7153 0.17483 0.0
C1130 C 0.27971 0.72296 0.20101 0.0
H1131 H 0.28062 0.78809 0.23029 0.0
H1132 H 0.28725 0.76928 0.20731 0.0
H1133 H 0.26758 0.78214 0.19791 0.0
H1134 H 0.2556 0.75692 0.16933 0.0
H1135 H 0.26811 0.74379 0.12353 0.0
H1136 H 0.20252 0.7948 0.67656 0.0
H1137 H 0.21551 0.78196 0.72223 0.0
H1138 H 0.25555 0.75477 0.66913 0.0
H1139 H 0.2425 0.76742 0.62331 0.0
H1140 H 0.24128 0.73291 0.71166 0.0
H1141 H 0.26142 0.79758 0.7632 0.0
H1142 H 0.23798 0.79657 0.75409 0.0
H1143 H 0.25441 0.79581 0.72451 0.0
C1144 C 0.21418 0.7862 0.67464 0.0
C1145 C 0.22155 0.78221 0.64633 0.0
C1146 C 0.22162 0.7789 0.70076 0.0
C1147 C 0.23672 0.76768 0.69916 0.0
C1148 C 0.24394 0.76345 0.67091 0.0
H1149 H 0.30561 0.73919 0.84909 0.0
H1150 H 0.29266 0.75119 0.80288 0.0
C1151 C 0.23644 0.77064 0.64474 0.0
C1152 C 0.24483 0.76011 0.72689 0.0
H1153 H 0.26335 0.77171 0.79434 0.0
C1154 C 0.24616 0.74139 0.7297 0.0
C1155 C 0.25144 0.77119 0.75023 0.0
C1156 C 0.25143 0.7914 0.74781 0.0
C1157 C 0.25369 0.73343 0.75539 0.0
C1158 C 0.25968 0.7445 0.77923 0.0
C1159 C 0.25857 0.76323 0.77622 0.0
C1160 C 0.26747 0.73696 0.80724 0.0
C1161 C 0.25551 0.71326 0.75643 0.0
C1162 C 0.25755 0.72512 0.82529 0.0
C1163 C 0.26503 0.71801 0.85155 0.0
C1164 C 0.28252 0.72276 0.86051 0.0
C1165 C 0.29226 0.73493 0.84263 0.0
C1166 C 0.28481 0.74194 0.8163 0.0
H1167 H 0.25515 0.70729 0.73356 0.0
H1168 H 0.26821 0.70919 0.76755 0.0
H1169 H 0.24414 0.70755 0.76939 0.0
H1170 H 0.24399 0.7214 0.81913 0.0
H1171 H 0.25716 0.70859 0.86459 0.0
H1172 H 0.27073 0.2581 0.8822 0.0
H1173 H 0.25851 0.24545 0.83572 0.0
H1174 H 0.27839 0.29102 0.78614 0.0
H1175 H 0.29103 0.30356 0.83234 0.0
H1176 H 0.23301 0.26148 0.79664 0.0
H1177 H 0.29744 0.24767 0.73832 0.0
H1178 H 0.29615 0.25185 0.77822 0.0
H1179 H 0.29495 0.2702 0.7521 0.0
C1180 C 0.27271 0.26532 0.86135 0.0
C1181 C 0.2819 0.28182 0.86098 0.0
C1182 C 0.26562 0.25813 0.83485 0.0
C1183 C 0.26774 0.26719 0.80745 0.0
C1184 C 0.27685 0.28367 0.80698 0.0
H1185 H 0.23312 0.24598 0.62414 0.0
H1186 H 0.2462 0.25867 0.66994 0.0
C1187 C 0.28389 0.2909 0.83346 0.0
C1188 C 0.25995 0.25965 0.7795 0.0
H1189 H 0.27083 0.24384 0.70984 0.0
C1190 C 0.24127 0.25755 0.77769 0.0
C1191 C 0.27077 0.25462 0.75479 0.0
C1192 C 0.29096 0.25603 0.7559 0.0
C1193 C 0.23306 0.25079 0.75163 0.0
C1194 C 0.24388 0.24564 0.72697 0.0
C1195 C 0.26257 0.2478 0.72876 0.0
C1196 C 0.23607 0.23783 0.69922 0.0
C1197 C 0.21285 0.24959 0.75053 0.0
C1198 C 0.22629 0.22174 0.7004 0.0
C1199 C 0.21883 0.21445 0.67431 0.0
C1200 C 0.22112 0.22302 0.6464 0.0
C1201 C 0.23121 0.23898 0.64521 0.0
C1202 C 0.23863 0.24628 0.67137 0.0
H1203 H 0.20647 0.25851 0.76743 0.0
H1204 H 0.20769 0.25323 0.72792 0.0
H1205 H 0.20868 0.2356 0.75549 0.0
H1206 H 0.22453 0.21474 0.72152 0.0
H1207 H 0.21146 0.20196 0.67593 0.0
H1208 H 0.70361 0.25873 0.85755 0.0
H1209 H 0.71706 0.247 0.81154 0.0
H1210 H 0.75659 0.28926 0.81345 0.0
H1211 H 0.74278 0.30154 0.85884 0.0
H1212 H 0.74203 0.28462 0.75742 0.0
H1213 H 0.76369 0.21914 0.80418 0.0
H1214 H 0.7402 0.2235 0.80927 0.0
H1215 H 0.75651 0.23753 0.82764 0.0
C1216 C 0.7151 0.26562 0.84813 0.0
C1217 C 0.72213 0.28107 0.86201 0.0
C1218 C 0.72291 0.25875 0.82199 0.0
C1219 C 0.73802 0.26707 0.80932 0.0
C1220 C 0.74502 0.28254 0.82298 0.0
H1221 H 0.80671 0.21973 0.67292 0.0
H1222 H 0.79419 0.23282 0.71872 0.0
C1223 C 0.73719 0.28945 0.84908 0.0
C1224 C 0.74625 0.25988 0.78143 0.0
H1225 H 0.76531 0.22236 0.75107 0.0
C1226 C 0.7472 0.27103 0.75604 0.0
C1227 C 0.75321 0.24224 0.77979 0.0
C1228 C 0.75354 0.22995 0.80675 0.0
C1229 C 0.75462 0.26491 0.7289 0.0
C1230 C 0.76095 0.24704 0.72694 0.0
C1231 C 0.76029 0.236 0.75249 0.0
C1232 C 0.76857 0.23954 0.69877 0.0
C1233 C 0.75591 0.27777 0.70279 0.0
C1234 C 0.7583 0.23886 0.67233 0.0
C1235 C 0.76545 0.23142 0.64606 0.0
C1236 C 0.78293 0.2243 0.64585 0.0
C1237 C 0.79314 0.22493 0.67242 0.0
C1238 C 0.78603 0.23246 0.69858 0.0
H1239 H 0.7553 0.29197 0.71034 0.0
H1240 H 0.76855 0.27573 0.69004 0.0
H1241 H 0.74446 0.27542 0.68734 0.0
H1242 H 0.74464 0.24382 0.6721 0.0
H1243 H 0.75715 0.23088 0.6261 0.0
H1244 H 0.70413 0.70689 0.82922 0.0
H1245 H 0.71677 0.71958 0.78319 0.0
H1246 H 0.75667 0.74765 0.83528 0.0
H1247 H 0.74423 0.73491 0.88145 0.0
H1248 H 0.73998 0.76917 0.79206 0.0
H1249 H 0.76401 0.70517 0.7425 0.0
H1250 H 0.74072 0.70511 0.75288 0.0
H1251 H 0.75763 0.70718 0.78147 0.0
C1252 C 0.71574 0.71558 0.83089 0.0
C1253 C 0.72321 0.7198 0.85906 0.0
C1254 C 0.72293 0.72283 0.80454 0.0
C1255 C 0.73781 0.73436 0.80578 0.0
C1256 C 0.74521 0.73875 0.83383 0.0
H1257 H 0.80646 0.76763 0.65866 0.0
H1258 H 0.79368 0.75483 0.70448 0.0
C1259 C 0.73802 0.73152 0.8602 0.0
C1260 C 0.74548 0.7421 0.77788 0.0
H1261 H 0.76524 0.73095 0.71122 0.0
C1262 C 0.74553 0.76083 0.77439 0.0
C1263 C 0.7529 0.73119 0.75502 0.0
C1264 C 0.754 0.71105 0.75816 0.0
C1265 C 0.75259 0.76895 0.74848 0.0
C1266 C 0.75955 0.75801 0.72525 0.0
C1267 C 0.75972 0.73929 0.72892 0.0
C1268 C 0.76712 0.76575 0.69727 0.0
C1269 C 0.75285 0.78916 0.74644 0.0
C1270 C 0.75637 0.77595 0.67778 0.0
C1271 C 0.76367 0.7834 0.65165 0.0
C1272 C 0.78187 0.78072 0.64443 0.0
C1273 C 0.79249 0.77022 0.66378 0.0
C1274 C 0.78518 0.76278 0.68988 0.0
H1275 H 0.75124 0.79553 0.76885 0.0
H1276 H 0.76558 0.79398 0.73628 0.0
H1277 H 0.74159 0.7937 0.73199 0.0
H1278 H 0.74232 0.77815 0.68278 0.0
H1279 H 0.75513 0.7915 0.63737 0.0
loop_
_geom_bond_atom_site_label_1
_geom_bond_atom_site_label_2
_geom_bond_distance
_geom_bond_site_symmetry_2
_ccdc_geom_bond_type
Li0 N17 1.990 . S
Li0 O60 1.956 . S
Li0 O61 1.981 . S
Li0 O62 1.956 1_554 S
Li1 N25 1.991 . S
Li1 O60 1.961 1_556 S
Li1 O61 1.956 1_556 S
Li1 O63 1.970 . S
Li2 N47 1.991 . S
Li2 O60 1.976 . S
Li2 O62 1.956 1_554 S
Li2 O63 1.955 1_554 S
Li3 N53 1.990 . S
Li3 O61 1.950 1_556 S
Li3 O62 1.975 . S
Li3 O63 1.956 . S
C4 C6 1.348 . S
C4 C7 1.356 . S
C4 O60 1.325 . S
N5 C8 1.314 . S
N5 C9 1.279 . S
C6 C4 1.348 . S
C6 C8 1.353 . S
C6 H64 0.929 . S
C7 C4 1.356 . S
C7 C9 1.358 . S
C7 H65 0.930 . S
C8 N5 1.314 . S
C8 C6 1.353 . S
C8 H66 0.930 . S
C9 N5 1.279 . S
C9 C7 1.358 . S
C9 H67 0.930 . S
C10 C13 1.345 . S
C10 C14 1.358 1_554 S
C10 O61 1.325 . S
C11 N12 1.279 . S
C11 C14 1.358 . S
C11 H68 0.930 . S
N12 C11 1.279 . S
N12 C15 1.314 1_556 S
C13 C10 1.345 . S
C13 C15 1.353 . S
C13 H69 0.929 . S
C14 C10 1.358 1_556 S
C14 C11 1.358 . S
C14 H70 0.930 . S
C15 N12 1.314 1_554 S
C15 C13 1.353 . S
C15 H71 0.930 . S
C16 N17 1.314 . S
C16 C21 1.353 . S
C16 H22 0.930 . S
N17 Li0 1.990 . S
N17 C16 1.314 . S
N17 C19 1.279 . S
C18 C19 1.358 . S
C18 C20 1.356 . S
C18 H72 0.930 . S
C19 N17 1.279 . S
C19 C18 1.358 . S
C19 H23 0.930 . S
C20 C18 1.356 . S
C20 C21 1.348 . S
C21 C16 1.353 . S
C21 C20 1.348 . S
C21 H73 0.929 . S
H22 C16 0.930 . S
H23 C19 0.930 . S
C24 N25 1.314 . S
C24 C26 1.353 . S
C24 H30 0.930 . S
N25 Li1 1.991 . S
N25 C24 1.314 . S
N25 C28 1.279 1_556 S
C26 C24 1.353 . S
C26 C29 1.346 1_556 S
C26 H74 0.929 . S
C27 C28 1.358 . S
C27 C29 1.357 . S
C27 H75 0.930 . S
C28 N25 1.279 1_554 S
C28 C27 1.358 . S
C28 H31 0.930 . S
C29 C26 1.346 1_554 S
C29 C27 1.357 . S
H30 C24 0.930 . S
H31 C28 0.930 . S
C32 C34 1.345 1_554 S
C32 C35 1.358 . S
C32 O62 1.325 1_554 S
N33 C36 1.314 1_554 S
N33 C37 1.279 . S
C34 C32 1.345 1_556 S
C34 C36 1.353 . S
C34 H76 0.929 . S
C35 C32 1.358 . S
C35 C37 1.358 . S
C35 H77 0.930 . S
C36 N33 1.314 1_556 S
C36 C34 1.353 . S
C36 H78 0.930 . S
C37 N33 1.279 . S
C37 C35 1.358 . S
C37 H79 0.930 . S
C38 C39 1.348 . S
C38 C40 1.356 . S
C38 O63 1.325 . S
C39 C38 1.348 . S
C39 C41 1.353 . S
C39 H80 0.929 . S
C40 C38 1.356 . S
C40 C42 1.358 . S
C40 H81 0.930 . S
C41 C39 1.353 . S
C41 N43 1.314 . S
C41 H82 0.930 . S
C42 C40 1.358 . S
C42 N43 1.279 . S
C42 H83 0.930 . S
N43 C41 1.314 . S
N43 C42 1.279 . S
C44 C46 1.353 . S
C44 N47 1.314 . S
C44 H50 0.930 . S
C45 N47 1.279 1_556 S
C45 C48 1.358 . S
C45 H51 0.930 . S
C46 C44 1.353 . S
C46 C49 1.349 1_554 S
C46 H84 0.929 . S
N47 Li2 1.991 . S
N47 C44 1.314 . S
N47 C45 1.279 1_554 S
C48 C45 1.358 . S
C48 C49 1.355 . S
C48 H85 0.930 . S
C49 C46 1.349 1_556 S
C49 C48 1.355 . S
H50 C44 0.930 . S
H51 C45 0.930 . S
C52 N53 1.314 . S
C52 C54 1.353 . S
C52 H58 0.930 . S
N53 Li3 1.990 . S
N53 C52 1.314 . S
N53 C56 1.279 . S
C54 C52 1.353 . S
C54 C57 1.348 . S
C54 H86 0.929 . S
C55 C56 1.358 . S
C55 C57 1.356 . S
C55 H87 0.930 . S
C56 N53 1.279 . S
C56 C55 1.358 . S
C56 H59 0.930 . S
C57 C54 1.348 . S
C57 C55 1.356 . S
H58 C52 0.930 . S
H59 C56 0.930 . S
O60 Li0 1.956 . S
O60 Li1 1.961 1_554 S
O60 Li2 1.976 . S
O60 C4 1.325 . S
O61 Li0 1.981 . S
O61 Li1 1.956 1_554 S
O61 Li3 1.950 1_554 S
O61 C10 1.325 . S
O62 Li0 1.956 1_556 S
O62 Li2 1.956 1_556 S
O62 Li3 1.975 . S
O62 C32 1.325 1_556 S
O63 Li1 1.970 . S
O63 Li2 1.955 1_556 S
O63 Li3 1.956 . S
O63 C38 1.325 . S
H64 C6 0.929 . S
H65 C7 0.930 . S
H66 C8 0.930 . S
H67 C9 0.930 . S
H68 C11 0.930 . S
H69 C13 0.929 . S
H70 C14 0.930 . S
H71 C15 0.930 . S
H72 C18 0.930 . S
H73 C21 0.929 . S
H74 C26 0.929 . S
H75 C27 0.930 . S
H76 C34 0.929 . S
H77 C35 0.930 . S
H78 C36 0.930 . S
H79 C37 0.930 . S
H80 C39 0.929 . S
H81 C40 0.930 . S
H82 C41 0.930 . S
H83 C42 0.930 . S
H84 C46 0.929 . S
H85 C48 0.930 . S
H86 C54 0.929 . S
H87 C55 0.930 . S
Li88 N105 1.991 . S
Li88 O148 1.956 1_556 S
Li88 O149 1.961 1_556 S
Li88 O150 1.970 . S
Li89 N113 1.990 . S
Li89 O148 1.981 . S
Li89 O149 1.956 . S
Li89 O151 1.956 1_554 S
Li90 N135 1.990 . S
Li90 O148 1.950 1_556 S
Li90 O150 1.956 . S
Li90 O151 1.975 . S
Li91 N141 1.991 . S
Li91 O149 1.976 . S
Li91 O150 1.955 1_554 S
Li91 O151 1.956 1_554 S
C92 C94 1.345 . S
C92 C95 1.358 1_554 S
C92 O148 1.325 . S
N93 C96 1.314 1_556 S
N93 C97 1.279 . S
C94 C92 1.345 . S
C94 C96 1.353 . S
C94 H152 0.929 . S
C95 C92 1.358 1_556 S
C95 C97 1.358 . S
C95 H153 0.930 . S
C96 N93 1.314 1_554 S
C96 C94 1.353 . S
C96 H154 0.930 . S
C97 N93 1.279 . S
C97 C95 1.358 . S
C97 H155 0.930 . S
C98 C101 1.348 . S
C98 C102 1.356 . S
C98 O149 1.325 . S
C99 N100 1.279 . S
C99 C102 1.358 . S
C99 H156 0.930 . S
N100 C99 1.279 . S
N100 C103 1.314 . S
C101 C98 1.348 . S
C101 C103 1.353 . S
C101 H157 0.929 . S
C102 C98 1.356 . S
C102 C99 1.358 . S
C102 H158 0.930 . S
C103 N100 1.314 . S
C103 C101 1.353 . S
C103 H159 0.930 . S
C104 N105 1.314 . S
C104 C109 1.353 . S
C104 H110 0.930 . S
N105 Li88 1.991 . S
N105 C104 1.314 . S
N105 C107 1.279 1_556 S
C106 C107 1.358 . S
C106 C108 1.357 . S
C106 H160 0.930 . S
C107 N105 1.279 1_554 S
C107 C106 1.358 . S
C107 H111 0.930 . S
C108 C106 1.357 . S
C108 C109 1.346 1_554 S
C109 C104 1.353 . S
C109 C108 1.346 1_556 S
C109 H161 0.929 . S
H110 C104 0.930 . S
H111 C107 0.930 . S
C112 N113 1.314 . S
C112 C114 1.353 . S
C112 H118 0.930 . S
N113 Li89 1.990 . S
N113 C112 1.314 . S
N113 C116 1.279 . S
C114 C112 1.353 . S
C114 C117 1.348 . S
C114 H162 0.929 . S
C115 C116 1.358 . S
C115 C117 1.356 . S
C115 H163 0.930 . S
C116 N113 1.279 . S
C116 C115 1.358 . S
C116 H119 0.930 . S
C117 C114 1.348 . S
C117 C115 1.356 . S
H118 C112 0.930 . S
H119 C116 0.930 . S
C120 C122 1.348 . S
C120 C123 1.356 . S
C120 O150 1.325 . S
N121 C124 1.314 . S
N121 C125 1.279 . S
C122 C120 1.348 . S
C122 C124 1.353 . S
C122 H164 0.929 . S
C123 C120 1.356 . S
C123 C125 1.358 . S
C123 H165 0.930 . S
C124 N121 1.314 . S
C124 C122 1.353 . S
C124 H166 0.930 . S
C125 N121 1.279 . S
C125 C123 1.358 . S
C125 H167 0.930 . S
C126 C127 1.345 1_554 S
C126 C128 1.358 . S
C126 O151 1.325 1_554 S
C127 C126 1.345 1_556 S
C127 C129 1.353 . S
C127 H168 0.929 . S
C128 C126 1.358 . S
C128 C130 1.358 . S
C128 H169 0.930 . S
C129 C127 1.353 . S
C129 N131 1.314 1_556 S
C129 H170 0.930 . S
C130 C128 1.358 . S
C130 N131 1.279 . S
C130 H171 0.930 . S
N131 C129 1.314 1_554 S
N131 C130 1.279 . S
C132 C134 1.353 . S
C132 N135 1.314 . S
C132 H138 0.930 . S
C133 N135 1.279 . S
C133 C136 1.358 . S
C133 H139 0.930 . S
C134 C132 1.353 . S
C134 C137 1.348 . S
C134 H172 0.929 . S
N135 Li90 1.990 . S
N135 C132 1.314 . S
N135 C133 1.279 . S
C136 C133 1.358 . S
C136 C137 1.356 . S
C136 H173 0.930 . S
C137 C134 1.348 . S
C137 C136 1.356 . S
H138 C132 0.930 . S
H139 C133 0.930 . S
C140 N141 1.314 . S
C140 C142 1.353 . S
C140 H146 0.930 . S
N141 Li91 1.991 . S
N141 C140 1.314 . S
N141 C144 1.279 1_554 S
C142 C140 1.353 . S
C142 C145 1.349 1_554 S
C142 H174 0.929 . S
C143 C144 1.358 . S
C143 C145 1.355 . S
C143 H175 0.930 . S
C144 N141 1.279 1_556 S
C144 C143 1.358 . S
C144 H147 0.930 . S
C145 C142 1.349 1_556 S
C145 C143 1.355 . S
H146 C140 0.930 . S
H147 C144 0.930 . S
O148 Li88 1.956 1_554 S
O148 Li89 1.981 . S
O148 Li90 1.950 1_554 S
O148 C92 1.325 . S
O149 Li88 1.961 1_554 S
O149 Li89 1.956 . S
O149 Li91 1.976 . S
O149 C98 1.325 . S
O150 Li88 1.970 . S
O150 Li90 1.956 . S
O150 Li91 1.955 1_556 S
O150 C120 1.325 . S
O151 Li89 1.956 1_556 S
O151 Li90 1.975 . S
O151 Li91 1.956 1_556 S
O151 C126 1.325 1_556 S
H152 C94 0.929 . S
H153 C95 0.930 . S
H154 C96 0.930 . S
H155 C97 0.930 . S
H156 C99 0.930 . S
H157 C101 0.929 . S
H158 C102 0.930 . S
H159 C103 0.930 . S
H160 C106 0.930 . S
H161 C109 0.929 . S
H162 C114 0.929 . S
H163 C115 0.930 . S
H164 C122 0.929 . S
H165 C123 0.930 . S
H166 C124 0.930 . S
H167 C125 0.930 . S
H168 C127 0.929 . S
H169 C128 0.930 . S
H170 C129 0.930 . S
H171 C130 0.930 . S
H172 C134 0.929 . S
H173 C136 0.930 . S
H174 C142 0.929 . S
H175 C143 0.930 . S
Li176 N193 1.991 . S
Li176 O236 1.956 1_556 S
Li176 O237 1.961 1_556 S
Li176 O238 1.970 . S
Li177 N201 1.990 . S
Li177 O236 1.981 . S
Li177 O237 1.956 . S
Li177 O239 1.956 1_554 S
Li178 N223 1.990 . S
Li178 O236 1.950 1_556 S
Li178 O238 1.956 . S
Li178 O239 1.975 . S
Li179 N229 1.991 . S
Li179 O237 1.976 . S
Li179 O238 1.955 1_554 S
Li179 O239 1.956 1_554 S
C180 C182 1.345 . S
C180 C183 1.358 1_554 S
C180 O236 1.325 . S
N181 C184 1.314 1_556 S
N181 C185 1.279 . S
C182 C180 1.345 . S
C182 C184 1.353 . S
C182 H240 0.929 . S
C183 C180 1.358 1_556 S
C183 C185 1.358 . S
C183 H241 0.930 . S
C184 N181 1.314 1_554 S
C184 C182 1.353 . S
C184 H242 0.930 . S
C185 N181 1.279 . S
C185 C183 1.358 . S
C185 H243 0.930 . S
C186 C189 1.348 . S
C186 C190 1.356 . S
C186 O237 1.325 . S
C187 N188 1.279 . S
C187 C190 1.358 . S
C187 H244 0.930 . S
N188 C187 1.279 . S
N188 C191 1.314 . S
C189 C186 1.348 . S
C189 C191 1.353 . S
C189 H245 0.929 . S
C190 C186 1.356 . S
C190 C187 1.358 . S
C190 H246 0.930 . S
C191 N188 1.314 . S
C191 C189 1.353 . S
C191 H247 0.930 . S
C192 N193 1.314 . S
C192 C197 1.353 . S
C192 H198 0.930 . S
N193 Li176 1.991 . S
N193 C192 1.314 . S
N193 C195 1.279 1_556 S
C194 C195 1.358 . S
C194 C196 1.357 . S
C194 H248 0.930 . S
C195 N193 1.279 1_554 S
C195 C194 1.358 . S
C195 H199 0.930 . S
C196 C194 1.357 . S
C196 C197 1.346 1_554 S
C197 C192 1.353 . S
C197 C196 1.346 1_556 S
C197 H249 0.929 . S
H198 C192 0.930 . S
H199 C195 0.930 . S
C200 N201 1.314 . S
C200 C202 1.353 . S
C200 H206 0.930 . S
N201 Li177 1.990 . S
N201 C200 1.314 . S
N201 C204 1.279 . S
C202 C200 1.353 . S
C202 C205 1.348 . S
C202 H250 0.929 . S
C203 C204 1.358 . S
C203 C205 1.356 . S
C203 H251 0.930 . S
C204 N201 1.279 . S
C204 C203 1.358 . S
C204 H207 0.930 . S
C205 C202 1.348 . S
C205 C203 1.356 . S
H206 C200 0.930 . S
H207 C204 0.930 . S
C208 C210 1.348 . S
C208 C211 1.356 . S
C208 O238 1.325 . S
N209 C212 1.314 . S
N209 C213 1.279 . S
C210 C208 1.348 . S
C210 C212 1.353 . S
C210 H252 0.929 . S
C211 C208 1.356 . S
C211 C213 1.358 . S
C211 H253 0.930 . S
C212 N209 1.314 . S
C212 C210 1.353 . S
C212 H254 0.930 . S
C213 N209 1.279 . S
C213 C211 1.358 . S
C213 H255 0.930 . S
C214 C215 1.345 1_554 S
C214 C216 1.358 . S
C214 O239 1.325 1_554 S
C215 C214 1.345 1_556 S
C215 C217 1.353 . S
C215 H256 0.929 . S
C216 C214 1.358 . S
C216 C218 1.358 . S
C216 H257 0.930 . S
C217 C215 1.353 . S
C217 N219 1.314 1_556 S
C217 H258 0.930 . S
C218 C216 1.358 . S
C218 N219 1.279 . S
C218 H259 0.930 . S
N219 C217 1.314 1_554 S
N219 C218 1.279 . S
C220 C222 1.353 . S
C220 N223 1.314 . S
C220 H226 0.930 . S
C221 N223 1.279 . S
C221 C224 1.358 . S
C221 H227 0.930 . S
C222 C220 1.353 . S
C222 C225 1.348 . S
C222 H260 0.929 . S
N223 Li178 1.990 . S
N223 C220 1.314 . S
N223 C221 1.279 . S
C224 C221 1.358 . S
C224 C225 1.356 . S
C224 H261 0.930 . S
C225 C222 1.348 . S
C225 C224 1.356 . S
H226 C220 0.930 . S
H227 C221 0.930 . S
C228 N229 1.314 . S
C228 C230 1.353 . S
C228 H234 0.930 . S
N229 Li179 1.991 . S
N229 C228 1.314 . S
N229 C232 1.279 1_554 S
C230 C228 1.353 . S
C230 C233 1.349 1_554 S
C230 H262 0.929 . S
C231 C232 1.358 . S
C231 C233 1.355 . S
C231 H263 0.930 . S
C232 N229 1.279 1_556 S
C232 C231 1.358 . S
C232 H235 0.930 . S
C233 C230 1.349 1_556 S
C233 C231 1.355 . S
H234 C228 0.930 . S
H235 C232 0.930 . S
O236 Li176 1.956 1_554 S
O236 Li177 1.981 . S
O236 Li178 1.950 1_554 S
O236 C180 1.325 . S
O237 Li176 1.961 1_554 S
O237 Li177 1.956 . S
O237 Li179 1.976 . S
O237 C186 1.325 . S
O238 Li176 1.970 . S
O238 Li178 1.956 . S
O238 Li179 1.955 1_556 S
O238 C208 1.325 . S
O239 Li177 1.956 1_556 S
O239 Li178 1.975 . S
O239 Li179 1.956 1_556 S
O239 C214 1.325 1_556 S
H240 C182 0.929 . S
H241 C183 0.930 . S
H242 C184 0.930 . S
H243 C185 0.930 . S
H244 C187 0.930 . S
H245 C189 0.929 . S
H246 C190 0.930 . S
H247 C191 0.930 . S
H248 C194 0.930 . S
H249 C197 0.929 . S
H250 C202 0.929 . S
H251 C203 0.930 . S
H252 C210 0.929 . S
H253 C211 0.930 . S
H254 C212 0.930 . S
H255 C213 0.930 . S
H256 C215 0.929 . S
H257 C216 0.930 . S
H258 C217 0.930 . S
H259 C218 0.930 . S
H260 C222 0.929 . S
H261 C224 0.930 . S
H262 C230 0.929 . S
H263 C231 0.930 . S
Li264 N281 1.991 . S
Li264 O324 1.956 1_556 S
Li264 O325 1.961 1_556 S
Li264 O326 1.970 . S
Li265 N289 1.990 . S
Li265 O324 1.981 . S
Li265 O325 1.956 . S
Li265 O327 1.956 1_554 S
Li266 N311 1.990 . S
Li266 O324 1.950 1_556 S
Li266 O326 1.956 . S
Li266 O327 1.975 . S
Li267 N317 1.991 . S
Li267 O325 1.976 . S
Li267 O326 1.955 1_554 S
Li267 O327 1.956 1_554 S
C268 C270 1.345 . S
C268 C271 1.358 1_554 S
C268 O324 1.325 . S
N269 C272 1.314 1_556 S
N269 C273 1.279 . S
C270 C268 1.345 . S
C270 C272 1.353 . S
C270 H328 0.929 . S
C271 C268 1.358 1_556 S
C271 C273 1.358 . S
C271 H329 0.930 . S
C272 N269 1.314 1_554 S
C272 C270 1.353 . S
C272 H330 0.930 . S
C273 N269 1.279 . S
C273 C271 1.358 . S
C273 H331 0.930 . S
C274 C277 1.348 . S
C274 C278 1.356 . S
C274 O325 1.325 . S
C275 N276 1.279 . S
C275 C278 1.358 . S
C275 H332 0.930 . S
N276 C275 1.279 . S
N276 C279 1.314 . S
C277 C274 1.348 . S
C277 C279 1.353 . S
C277 H333 0.929 . S
C278 C274 1.356 . S
C278 C275 1.358 . S
C278 H334 0.930 . S
C279 N276 1.314 . S
C279 C277 1.353 . S
C279 H335 0.930 . S
C280 N281 1.314 . S
C280 C285 1.353 . S
C280 H286 0.930 . S
N281 Li264 1.991 . S
N281 C280 1.314 . S
N281 C283 1.279 1_556 S
C282 C283 1.358 . S
C282 C284 1.357 . S
C282 H336 0.930 . S
C283 N281 1.279 1_554 S
C283 C282 1.358 . S
C283 H287 0.930 . S
C284 C282 1.357 . S
C284 C285 1.346 1_554 S
C285 C280 1.353 . S
C285 C284 1.346 1_556 S
C285 H337 0.929 . S
H286 C280 0.930 . S
H287 C283 0.930 . S
C288 N289 1.314 . S
C288 C290 1.353 . S
C288 H294 0.930 . S
N289 Li265 1.990 . S
N289 C288 1.314 . S
N289 C292 1.279 . S
C290 C288 1.353 . S
C290 C293 1.348 . S
C290 H338 0.929 . S
C291 C292 1.358 . S
C291 C293 1.356 . S
C291 H339 0.930 . S
C292 N289 1.279 . S
C292 C291 1.358 . S
C292 H295 0.930 . S
C293 C290 1.348 . S
C293 C291 1.356 . S
H294 C288 0.930 . S
H295 C292 0.930 . S
C296 C298 1.348 . S
C296 C299 1.356 . S
C296 O326 1.325 . S
N297 C300 1.314 . S
N297 C301 1.279 . S
C298 C296 1.348 . S
C298 C300 1.353 . S
C298 H340 0.929 . S
C299 C296 1.356 . S
C299 C301 1.358 . S
C299 H341 0.930 . S
C300 N297 1.314 . S
C300 C298 1.353 . S
C300 H342 0.930 . S
C301 N297 1.279 . S
C301 C299 1.358 . S
C301 H343 0.930 . S
C302 C303 1.345 1_554 S
C302 C304 1.358 . S
C302 O327 1.325 1_554 S
C303 C302 1.345 1_556 S
C303 C305 1.353 . S
C303 H344 0.929 . S
C304 C302 1.358 . S
C304 C306 1.358 . S
C304 H345 0.930 . S
C305 C303 1.353 . S
C305 N307 1.314 1_556 S
C305 H346 0.930 . S
C306 C304 1.358 . S
C306 N307 1.279 . S
C306 H347 0.930 . S
N307 C305 1.314 1_554 S
N307 C306 1.279 . S
C308 C310 1.353 . S
C308 N311 1.314 . S
C308 H314 0.930 . S
C309 N311 1.279 . S
C309 C312 1.358 . S
C309 H315 0.930 . S
C310 C308 1.353 . S
C310 C313 1.348 . S
C310 H348 0.929 . S
N311 Li266 1.990 . S
N311 C308 1.314 . S
N311 C309 1.279 . S
C312 C309 1.358 . S
C312 C313 1.356 . S
C312 H349 0.930 . S
C313 C310 1.348 . S
C313 C312 1.356 . S
H314 C308 0.930 . S
H315 C309 0.930 . S
C316 N317 1.314 . S
C316 C318 1.353 . S
C316 H322 0.930 . S
N317 Li267 1.991 . S
N317 C316 1.314 . S
N317 C320 1.279 1_554 S
C318 C316 1.353 . S
C318 C321 1.349 1_554 S
C318 H350 0.929 . S
C319 C320 1.358 . S
C319 C321 1.355 . S
C319 H351 0.930 . S
C320 N317 1.279 1_556 S
C320 C319 1.358 . S
C320 H323 0.930 . S
C321 C318 1.349 1_556 S
C321 C319 1.355 . S
H322 C316 0.930 . S
H323 C320 0.930 . S
O324 Li264 1.956 1_554 S
O324 Li265 1.981 . S
O324 Li266 1.950 1_554 S
O324 C268 1.325 . S
O325 Li264 1.961 1_554 S
O325 Li265 1.956 . S
O325 Li267 1.976 . S
O325 C274 1.325 . S
O326 Li264 1.970 . S
O326 Li266 1.956 . S
O326 Li267 1.955 1_556 S
O326 C296 1.325 . S
O327 Li265 1.956 1_556 S
O327 Li266 1.975 . S
O327 Li267 1.956 1_556 S
O327 C302 1.325 1_556 S
H328 C270 0.929 . S
H329 C271 0.930 . S
H330 C272 0.930 . S
H331 C273 0.930 . S
H332 C275 0.930 . S
H333 C277 0.929 . S
H334 C278 0.930 . S
H335 C279 0.930 . S
H336 C282 0.930 . S
H337 C285 0.929 . S
H338 C290 0.929 . S
H339 C291 0.930 . S
H340 C298 0.929 . S
H341 C299 0.930 . S
H342 C300 0.930 . S
H343 C301 0.930 . S
H344 C303 0.929 . S
H345 C304 0.930 . S
H346 C305 0.930 . S
H347 C306 0.930 . S
H348 C310 0.929 . S
H349 C312 0.930 . S
H350 C318 0.929 . S
H351 C319 0.930 . S
Li352 N369 1.990 . S
Li352 O412 1.956 . S
Li352 O413 1.970 . S
Li352 O414 1.961 . S
Li353 N377 1.990 . S
Li353 O412 1.970 . S
Li353 O413 1.956 . S
Li353 O415 1.961 . S
Li354 N399 1.990 . S
Li354 O412 1.961 . S
Li354 O414 1.956 . S
Li354 O415 1.970 . S
Li355 N405 1.990 . S
Li355 O413 1.961 . S
Li355 O414 1.970 . S
Li355 O415 1.956 . S
C356 C358 1.348 . S
C356 C359 1.356 . S
C356 O412 1.325 . S
N357 C360 1.314 . S
N357 C361 1.279 . S
C358 C356 1.348 . S
C358 C360 1.353 . S
C358 H416 0.929 . S
C359 C356 1.356 . S
C359 C361 1.358 . S
C359 H417 0.930 . S
C360 N357 1.314 . S
C360 C358 1.353 . S
C360 H418 0.930 . S
C361 N357 1.279 . S
C361 C359 1.358 . S
C361 H419 0.930 . S
C362 C365 1.348 . S
C362 C366 1.356 . S
C362 O413 1.325 . S
C363 N364 1.279 . S
C363 C366 1.358 . S
C363 H420 0.930 . S
N364 C363 1.279 . S
N364 C367 1.314 . S
C365 C362 1.348 . S
C365 C367 1.353 . S
C365 H421 0.929 . S
C366 C362 1.356 . S
C366 C363 1.358 . S
C366 H422 0.930 . S
C367 N364 1.314 . S
C367 C365 1.353 . S
C367 H423 0.930 . S
C368 N369 1.314 . S
C368 C373 1.353 . S
C368 H374 0.930 . S
N369 Li352 1.990 . S
N369 C368 1.314 . S
N369 C371 1.279 . S
C370 C371 1.358 . S
C370 C372 1.356 . S
C370 H424 0.930 . S
C371 N369 1.279 . S
C371 C370 1.358 . S
C371 H375 0.930 . S
C372 C370 1.356 . S
C372 C373 1.348 . S
C373 C368 1.353 . S
C373 C372 1.348 . S
C373 H425 0.929 . S
H374 C368 0.930 . S
H375 C371 0.930 . S
C376 N377 1.314 . S
C376 C378 1.353 . S
C376 H382 0.930 . S
N377 Li353 1.990 . S
N377 C376 1.314 . S
N377 C380 1.279 . S
C378 C376 1.353 . S
C378 C381 1.348 . S
C378 H426 0.929 . S
C379 C380 1.358 . S
C379 C381 1.356 . S
C379 H427 0.930 . S
C380 N377 1.279 . S
C380 C379 1.358 . S
C380 H383 0.930 . S
C381 C378 1.348 . S
C381 C379 1.356 . S
H382 C376 0.930 . S
H383 C380 0.930 . S
C384 C386 1.348 . S
C384 C387 1.356 . S
C384 O414 1.325 . S
N385 C388 1.314 . S
N385 C389 1.279 . S
C386 C384 1.348 . S
C386 C388 1.353 . S
C386 H428 0.929 . S
C387 C384 1.356 . S
C387 C389 1.358 . S
C387 H429 0.930 . S
C388 N385 1.314 . S
C388 C386 1.353 . S
C388 H430 0.930 . S
C389 N385 1.279 . S
C389 C387 1.358 . S
C389 H431 0.930 . S
C390 C391 1.348 . S
C390 C392 1.356 . S
C390 O415 1.325 . S
C391 C390 1.348 . S
C391 C393 1.353 . S
C391 H432 0.929 . S
C392 C390 1.356 . S
C392 C394 1.358 . S
C392 H433 0.930 . S
C393 C391 1.353 . S
C393 N395 1.314 . S
C393 H434 0.930 . S
C394 C392 1.358 . S
C394 N395 1.279 . S
C394 H435 0.930 . S
N395 C393 1.314 . S
N395 C394 1.279 . S
C396 C398 1.353 . S
C396 N399 1.314 . S
C396 H402 0.930 . S
C397 N399 1.279 . S
C397 C400 1.358 . S
C397 H403 0.930 . S
C398 C396 1.353 . S
C398 C401 1.348 . S
C398 H436 0.929 . S
N399 Li354 1.990 . S
N399 C396 1.314 . S
N399 C397 1.279 . S
C400 C397 1.358 . S
C400 C401 1.356 . S
C400 H437 0.930 . S
C401 C398 1.348 . S
C401 C400 1.356 . S
H402 C396 0.930 . S
H403 C397 0.930 . S
C404 N405 1.314 . S
C404 C406 1.353 . S
C404 H410 0.930 . S
N405 Li355 1.990 . S
N405 C404 1.314 . S
N405 C408 1.279 . S
C406 C404 1.353 . S
C406 C409 1.348 . S
C406 H438 0.929 . S
C407 C408 1.358 . S
C407 C409 1.356 . S
C407 H439 0.930 . S
C408 N405 1.279 . S
C408 C407 1.358 . S
C408 H411 0.930 . S
C409 C406 1.348 . S
C409 C407 1.356 . S
H410 C404 0.930 . S
H411 C408 0.930 . S
O412 Li352 1.956 . S
O412 Li353 1.970 . S
O412 Li354 1.961 . S
O412 C356 1.325 . S
O413 Li352 1.970 . S
O413 Li353 1.956 . S
O413 Li355 1.961 . S
O413 C362 1.325 . S
O414 Li352 1.961 . S
O414 Li354 1.956 . S
O414 Li355 1.970 . S
O414 C384 1.325 . S
O415 Li353 1.961 . S
O415 Li354 1.970 . S
O415 Li355 1.956 . S
O415 C390 1.325 . S
H416 C358 0.929 . S
H417 C359 0.930 . S
H418 C360 0.930 . S
H419 C361 0.930 . S
H420 C363 0.930 . S
H421 C365 0.929 . S
H422 C366 0.930 . S
H423 C367 0.930 . S
H424 C370 0.930 . S
H425 C373 0.929 . S
H426 C378 0.929 . S
H427 C379 0.930 . S
H428 C386 0.929 . S
H429 C387 0.930 . S
H430 C388 0.930 . S
H431 C389 0.930 . S
H432 C391 0.929 . S
H433 C392 0.930 . S
H434 C393 0.930 . S
H435 C394 0.930 . S
H436 C398 0.929 . S
H437 C400 0.930 . S
H438 C406 0.929 . S
H439 C407 0.930 . S
Li440 N457 1.990 . S
Li440 O500 1.956 . S
Li440 O501 1.970 . S
Li440 O502 1.961 . S
Li441 N465 1.990 . S
Li441 O500 1.970 . S
Li441 O501 1.956 . S
Li441 O503 1.961 . S
Li442 N487 1.990 . S
Li442 O500 1.961 . S
Li442 O502 1.956 . S
Li442 O503 1.970 . S
Li443 N493 1.990 . S
Li443 O501 1.961 . S
Li443 O502 1.970 . S
Li443 O503 1.956 . S
C444 C446 1.348 . S
C444 C447 1.356 . S
C444 O500 1.325 . S
N445 C448 1.314 . S
N445 C449 1.279 . S
C446 C444 1.348 . S
C446 C448 1.353 . S
C446 H504 0.929 . S
C447 C444 1.356 . S
C447 C449 1.358 . S
C447 H505 0.930 . S
C448 N445 1.314 . S
C448 C446 1.353 . S
C448 H506 0.930 . S
C449 N445 1.279 . S
C449 C447 1.358 . S
C449 H507 0.930 . S
C450 C453 1.348 . S
C450 C454 1.356 . S
C450 O501 1.325 . S
C451 N452 1.279 . S
C451 C454 1.358 . S
C451 H508 0.930 . S
N452 C451 1.279 . S
N452 C455 1.314 . S
C453 C450 1.348 . S
C453 C455 1.353 . S
C453 H509 0.929 . S
C454 C450 1.356 . S
C454 C451 1.358 . S
C454 H510 0.930 . S
C455 N452 1.314 . S
C455 C453 1.353 . S
C455 H511 0.930 . S
C456 N457 1.314 . S
C456 C461 1.353 . S
C456 H462 0.930 . S
N457 Li440 1.990 . S
N457 C456 1.314 . S
N457 C459 1.279 . S
C458 C459 1.358 . S
C458 C460 1.356 . S
C458 H512 0.930 . S
C459 N457 1.279 . S
C459 C458 1.358 . S
C459 H463 0.930 . S
C460 C458 1.356 . S
C460 C461 1.348 . S
C461 C456 1.353 . S
C461 C460 1.348 . S
C461 H513 0.929 . S
H462 C456 0.930 . S
H463 C459 0.930 . S
C464 N465 1.314 . S
C464 C466 1.353 . S
C464 H470 0.930 . S
N465 Li441 1.990 . S
N465 C464 1.314 . S
N465 C468 1.279 . S
C466 C464 1.353 . S
C466 C469 1.348 . S
C466 H514 0.929 . S
C467 C468 1.358 . S
C467 C469 1.356 . S
C467 H515 0.930 . S
C468 N465 1.279 . S
C468 C467 1.358 . S
C468 H471 0.930 . S
C469 C466 1.348 . S
C469 C467 1.356 . S
H470 C464 0.930 . S
H471 C468 0.930 . S
C472 C474 1.348 . S
C472 C475 1.356 . S
C472 O502 1.325 . S
N473 C476 1.314 . S
N473 C477 1.279 . S
C474 C472 1.348 . S
C474 C476 1.353 . S
C474 H516 0.929 . S
C475 C472 1.356 . S
C475 C477 1.358 . S
C475 H517 0.930 . S
C476 N473 1.314 . S
C476 C474 1.353 . S
C476 H518 0.930 . S
C477 N473 1.279 . S
C477 C475 1.358 . S
C477 H519 0.930 . S
C478 C479 1.348 . S
C478 C480 1.356 . S
C478 O503 1.325 . S
C479 C478 1.348 . S
C479 C481 1.353 . S
C479 H520 0.929 . S
C480 C478 1.356 . S
C480 C482 1.358 . S
C480 H521 0.930 . S
C481 C479 1.353 . S
C481 N483 1.314 . S
C481 H522 0.930 . S
C482 C480 1.358 . S
C482 N483 1.279 . S
C482 H523 0.930 . S
N483 C481 1.314 . S
N483 C482 1.279 . S
C484 C486 1.353 . S
C484 N487 1.314 . S
C484 H490 0.930 . S
C485 N487 1.279 . S
C485 C488 1.358 . S
C485 H491 0.930 . S
C486 C484 1.353 . S
C486 C489 1.348 . S
C486 H524 0.929 . S
N487 Li442 1.990 . S
N487 C484 1.314 . S
N487 C485 1.279 . S
C488 C485 1.358 . S
C488 C489 1.356 . S
C488 H525 0.930 . S
C489 C486 1.348 . S
C489 C488 1.356 . S
H490 C484 0.930 . S
H491 C485 0.930 . S
C492 N493 1.314 . S
C492 C494 1.353 . S
C492 H498 0.930 . S
N493 Li443 1.990 . S
N493 C492 1.314 . S
N493 C496 1.279 . S
C494 C492 1.353 . S
C494 C497 1.348 . S
C494 H526 0.929 . S
C495 C496 1.358 . S
C495 C497 1.356 . S
C495 H527 0.930 . S
C496 N493 1.279 . S
C496 C495 1.358 . S
C496 H499 0.930 . S
C497 C494 1.348 . S
C497 C495 1.356 . S
H498 C492 0.930 . S
H499 C496 0.930 . S
O500 Li440 1.956 . S
O500 Li441 1.970 . S
O500 Li442 1.961 . S
O500 C444 1.325 . S
O501 Li440 1.970 . S
O501 Li441 1.956 . S
O501 Li443 1.961 . S
O501 C450 1.325 . S
O502 Li440 1.961 . S
O502 Li442 1.956 . S
O502 Li443 1.970 . S
O502 C472 1.325 . S
O503 Li441 1.961 . S
O503 Li442 1.970 . S
O503 Li443 1.956 . S
O503 C478 1.325 . S
H504 C446 0.929 . S
H505 C447 0.930 . S
H506 C448 0.930 . S
H507 C449 0.930 . S
H508 C451 0.930 . S
H509 C453 0.929 . S
H510 C454 0.930 . S
H511 C455 0.930 . S
H512 C458 0.930 . S
H513 C461 0.929 . S
H514 C466 0.929 . S
H515 C467 0.930 . S
H516 C474 0.929 . S
H517 C475 0.930 . S
H518 C476 0.930 . S
H519 C477 0.930 . S
H520 C479 0.929 . S
H521 C480 0.930 . S
H522 C481 0.930 . S
H523 C482 0.930 . S
H524 C486 0.929 . S
H525 C488 0.930 . S
H526 C494 0.929 . S
H527 C495 0.930 . S
Li528 N545 1.990 . S
Li528 O588 1.956 . S
Li528 O589 1.970 . S
Li528 O590 1.961 . S
Li529 N553 1.990 . S
Li529 O588 1.970 . S
Li529 O589 1.956 . S
Li529 O591 1.961 . S
Li530 N575 1.990 . S
Li530 O588 1.961 . S
Li530 O590 1.956 . S
Li530 O591 1.970 . S
Li531 N581 1.990 . S
Li531 O589 1.961 . S
Li531 O590 1.970 . S
Li531 O591 1.956 . S
C532 C534 1.348 . S
C532 C535 1.356 . S
C532 O588 1.325 . S
N533 C536 1.314 . S
N533 C537 1.279 . S
C534 C532 1.348 . S
C534 C536 1.353 . S
C534 H592 0.929 . S
C535 C532 1.356 . S
C535 C537 1.358 . S
C535 H593 0.930 . S
C536 N533 1.314 . S
C536 C534 1.353 . S
C536 H594 0.930 . S
C537 N533 1.279 . S
C537 C535 1.358 . S
C537 H595 0.930 . S
C538 C541 1.348 . S
C538 C542 1.356 . S
C538 O589 1.325 . S
C539 N540 1.279 . S
C539 C542 1.358 . S
C539 H596 0.930 . S
N540 C539 1.279 . S
N540 C543 1.314 . S
C541 C538 1.348 . S
C541 C543 1.353 . S
C541 H597 0.929 . S
C542 C538 1.356 . S
C542 C539 1.358 . S
C542 H598 0.930 . S
C543 N540 1.314 . S
C543 C541 1.353 . S
C543 H599 0.930 . S
C544 N545 1.314 . S
C544 C549 1.353 . S
C544 H550 0.930 . S
N545 Li528 1.990 . S
N545 C544 1.314 . S
N545 C547 1.279 . S
C546 C547 1.358 . S
C546 C548 1.356 . S
C546 H600 0.930 . S
C547 N545 1.279 . S
C547 C546 1.358 . S
C547 H551 0.930 . S
C548 C546 1.356 . S
C548 C549 1.348 . S
C549 C544 1.353 . S
C549 C548 1.348 . S
C549 H601 0.929 . S
H550 C544 0.930 . S
H551 C547 0.930 . S
C552 N553 1.314 . S
C552 C554 1.353 . S
C552 H558 0.930 . S
N553 Li529 1.990 . S
N553 C552 1.314 . S
N553 C556 1.279 . S
C554 C552 1.353 . S
C554 C557 1.348 . S
C554 H602 0.929 . S
C555 C556 1.358 . S
C555 C557 1.356 . S
C555 H603 0.930 . S
C556 N553 1.279 . S
C556 C555 1.358 . S
C556 H559 0.930 . S
C557 C554 1.348 . S
C557 C555 1.356 . S
H558 C552 0.930 . S
H559 C556 0.930 . S
C560 C562 1.348 . S
C560 C563 1.356 . S
C560 O590 1.325 . S
N561 C564 1.314 . S
N561 C565 1.279 . S
C562 C560 1.348 . S
C562 C564 1.353 . S
C562 H604 0.929 . S
C563 C560 1.356 . S
C563 C565 1.358 . S
C563 H605 0.930 . S
C564 N561 1.314 . S
C564 C562 1.353 . S
C564 H606 0.930 . S
C565 N561 1.279 . S
C565 C563 1.358 . S
C565 H607 0.930 . S
C566 C567 1.348 . S
C566 C568 1.356 . S
C566 O591 1.325 . S
C567 C566 1.348 . S
C567 C569 1.353 . S
C567 H608 0.929 . S
C568 C566 1.356 . S
C568 C570 1.358 . S
C568 H609 0.930 . S
C569 C567 1.353 . S
C569 N571 1.314 . S
C569 H610 0.930 . S
C570 C568 1.358 . S
C570 N571 1.279 . S
C570 H611 0.930 . S
N571 C569 1.314 . S
N571 C570 1.279 . S
C572 C574 1.353 . S
C572 N575 1.314 . S
C572 H578 0.930 . S
C573 N575 1.279 . S
C573 C576 1.358 . S
C573 H579 0.930 . S
C574 C572 1.353 . S
C574 C577 1.348 . S
C574 H612 0.929 . S
N575 Li530 1.990 . S
N575 C572 1.314 . S
N575 C573 1.279 . S
C576 C573 1.358 . S
C576 C577 1.356 . S
C576 H613 0.930 . S
C577 C574 1.348 . S
C577 C576 1.356 . S
H578 C572 0.930 . S
H579 C573 0.930 . S
C580 N581 1.314 . S
C580 C582 1.353 . S
C580 H586 0.930 . S
N581 Li531 1.990 . S
N581 C580 1.314 . S
N581 C584 1.279 . S
C582 C580 1.353 . S
C582 C585 1.348 . S
C582 H614 0.929 . S
C583 C584 1.358 . S
C583 C585 1.356 . S
C583 H615 0.930 . S
C584 N581 1.279 . S
C584 C583 1.358 . S
C584 H587 0.930 . S
C585 C582 1.348 . S
C585 C583 1.356 . S
H586 C580 0.930 . S
H587 C584 0.930 . S
O588 Li528 1.956 . S
O588 Li529 1.970 . S
O588 Li530 1.961 . S
O588 C532 1.325 . S
O589 Li528 1.970 . S
O589 Li529 1.956 . S
O589 Li531 1.961 . S
O589 C538 1.325 . S
O590 Li528 1.961 . S
O590 Li530 1.956 . S
O590 Li531 1.970 . S
O590 C560 1.325 . S
O591 Li529 1.961 . S
O591 Li530 1.970 . S
O591 Li531 1.956 . S
O591 C566 1.325 . S
H592 C534 0.929 . S
H593 C535 0.930 . S
H594 C536 0.930 . S
H595 C537 0.930 . S
H596 C539 0.930 . S
H597 C541 0.929 . S
H598 C542 0.930 . S
H599 C543 0.930 . S
H600 C546 0.930 . S
H601 C549 0.929 . S
H602 C554 0.929 . S
H603 C555 0.930 . S
H604 C562 0.929 . S
H605 C563 0.930 . S
H606 C564 0.930 . S
H607 C565 0.930 . S
H608 C567 0.929 . S
H609 C568 0.930 . S
H610 C569 0.930 . S
H611 C570 0.930 . S
H612 C574 0.929 . S
H613 C576 0.930 . S
H614 C582 0.929 . S
H615 C583 0.930 . S
Li616 N633 1.990 . S
Li616 O676 1.956 . S
Li616 O677 1.970 . S
Li616 O678 1.961 . S
Li617 N641 1.990 . S
Li617 O676 1.970 . S
Li617 O677 1.956 . S
Li617 O679 1.961 . S
Li618 N663 1.990 . S
Li618 O676 1.961 . S
Li618 O678 1.956 . S
Li618 O679 1.970 . S
Li619 N669 1.990 . S
Li619 O677 1.961 . S
Li619 O678 1.970 . S
Li619 O679 1.956 . S
C620 C622 1.348 . S
C620 C623 1.356 . S
C620 O676 1.325 . S
N621 C624 1.314 . S
N621 C625 1.279 . S
C622 C620 1.348 . S
C622 C624 1.353 . S
C622 H680 0.929 . S
C623 C620 1.356 . S
C623 C625 1.358 . S
C623 H681 0.930 . S
C624 N621 1.314 . S
C624 C622 1.353 . S
C624 H682 0.930 . S
C625 N621 1.279 . S
C625 C623 1.358 . S
C625 H683 0.930 . S
C626 C629 1.348 . S
C626 C630 1.356 . S
C626 O677 1.325 . S
C627 N628 1.279 . S
C627 C630 1.358 . S
C627 H684 0.930 . S
N628 C627 1.279 . S
N628 C631 1.314 . S
C629 C626 1.348 . S
C629 C631 1.353 . S
C629 H685 0.929 . S
C630 C626 1.356 . S
C630 C627 1.358 . S
C630 H686 0.930 . S
C631 N628 1.314 . S
C631 C629 1.353 . S
C631 H687 0.930 . S
C632 N633 1.314 . S
C632 C637 1.353 . S
C632 H638 0.930 . S
N633 Li616 1.990 . S
N633 C632 1.314 . S
N633 C635 1.279 . S
C634 C635 1.358 . S
C634 C636 1.356 . S
C634 H688 0.930 . S
C635 N633 1.279 . S
C635 C634 1.358 . S
C635 H639 0.930 . S
C636 C634 1.356 . S
C636 C637 1.348 . S
C637 C632 1.353 . S
C637 C636 1.348 . S
C637 H689 0.929 . S
H638 C632 0.930 . S
H639 C635 0.930 . S
C640 N641 1.314 . S
C640 C642 1.353 . S
C640 H646 0.930 . S
N641 Li617 1.990 . S
N641 C640 1.314 . S
N641 C644 1.279 . S
C642 C640 1.353 . S
C642 C645 1.348 . S
C642 H690 0.929 . S
C643 C644 1.358 . S
C643 C645 1.356 . S
C643 H691 0.930 . S
C644 N641 1.279 . S
C644 C643 1.358 . S
C644 H647 0.930 . S
C645 C642 1.348 . S
C645 C643 1.356 . S
H646 C640 0.930 . S
H647 C644 0.930 . S
C648 C650 1.348 . S
C648 C651 1.356 . S
C648 O678 1.325 . S
N649 C652 1.314 . S
N649 C653 1.279 . S
C650 C648 1.348 . S
C650 C652 1.353 . S
C650 H692 0.929 . S
C651 C648 1.356 . S
C651 C653 1.358 . S
C651 H693 0.930 . S
C652 N649 1.314 . S
C652 C650 1.353 . S
C652 H694 0.930 . S
C653 N649 1.279 . S
C653 C651 1.358 . S
C653 H695 0.930 . S
C654 C655 1.348 . S
C654 C656 1.356 . S
C654 O679 1.325 . S
C655 C654 1.348 . S
C655 C657 1.353 . S
C655 H696 0.929 . S
C656 C654 1.356 . S
C656 C658 1.358 . S
C656 H697 0.930 . S
C657 C655 1.353 . S
C657 N659 1.314 . S
C657 H698 0.930 . S
C658 C656 1.358 . S
C658 N659 1.279 . S
C658 H699 0.930 . S
N659 C657 1.314 . S
N659 C658 1.279 . S
C660 C662 1.353 . S
C660 N663 1.314 . S
C660 H666 0.930 . S
C661 N663 1.279 . S
C661 C664 1.358 . S
C661 H667 0.930 . S
C662 C660 1.353 . S
C662 C665 1.348 . S
C662 H700 0.929 . S
N663 Li618 1.990 . S
N663 C660 1.314 . S
N663 C661 1.279 . S
C664 C661 1.358 . S
C664 C665 1.356 . S
C664 H701 0.930 . S
C665 C662 1.348 . S
C665 C664 1.356 . S
H666 C660 0.930 . S
H667 C661 0.930 . S
C668 N669 1.314 . S
C668 C670 1.353 . S
C668 H674 0.930 . S
N669 Li619 1.990 . S
N669 C668 1.314 . S
N669 C672 1.279 . S
C670 C668 1.353 . S
C670 C673 1.348 . S
C670 H702 0.929 . S
C671 C672 1.358 . S
C671 C673 1.356 . S
C671 H703 0.930 . S
C672 N669 1.279 . S
C672 C671 1.358 . S
C672 H675 0.930 . S
C673 C670 1.348 . S
C673 C671 1.356 . S
H674 C668 0.930 . S
H675 C672 0.930 . S
O676 Li616 1.956 . S
O676 Li617 1.970 . S
O676 Li618 1.961 . S
O676 C620 1.325 . S
O677 Li616 1.970 . S
O677 Li617 1.956 . S
O677 Li619 1.961 . S
O677 C626 1.325 . S
O678 Li616 1.961 . S
O678 Li618 1.956 . S
O678 Li619 1.970 . S
O678 C648 1.325 . S
O679 Li617 1.961 . S
O679 Li618 1.970 . S
O679 Li619 1.956 . S
O679 C654 1.325 . S
H680 C622 0.929 . S
H681 C623 0.930 . S
H682 C624 0.930 . S
H683 C625 0.930 . S
H684 C627 0.930 . S
H685 C629 0.929 . S
H686 C630 0.930 . S
H687 C631 0.930 . S
H688 C634 0.930 . S
H689 C637 0.929 . S
H690 C642 0.929 . S
H691 C643 0.930 . S
H692 C650 0.929 . S
H693 C651 0.930 . S
H694 C652 0.930 . S
H695 C653 0.930 . S
H696 C655 0.929 . S
H697 C656 0.930 . S
H698 C657 0.930 . S
H699 C658 0.930 . S
H700 C662 0.929 . S
H701 C664 0.930 . S
H702 C670 0.929 . S
H703 C671 0.930 . S
H704 C712 0.929 . S
H705 C714 0.930 . S
H706 C716 0.930 . S
H707 C719 0.929 . S
H708 C722 0.930 . S
H709 C724 0.960 . S
H710 C724 0.960 . S
H711 C724 0.960 . S
C712 H704 0.929 . S
C712 C713 1.373 1_554 S
C712 C714 1.384 . S
C713 C712 1.373 1_556 S
C713 C719 1.395 . S
C714 H705 0.930 . S
C714 C712 1.384 . S
C714 C715 1.372 1_554 S
C715 C714 1.372 1_556 S
C715 C716 1.399 . S
C715 C720 1.490 1_556 S
C716 H706 0.930 . S
C716 C715 1.399 . S
C716 C719 1.386 . S
H717 C733 0.928 1_556 S
H718 C734 0.933 . S
C719 H707 0.929 . S
C719 C713 1.395 . S
C719 C716 1.386 . S
C720 C715 1.490 1_554 S
C720 C722 1.395 . S
C720 C723 1.403 1_554 S
H721 C727 0.930 . S
C722 H708 0.930 . S
C722 C720 1.395 . S
C722 C725 1.403 . S
C723 C720 1.403 1_556 S
C723 C724 1.524 . S
C723 C727 1.400 . S
C724 H709 0.960 . S
C724 H710 0.960 . S
C724 H711 0.960 . S
C724 C723 1.524 . S
C725 C722 1.403 . S
C725 C726 1.392 . S
C725 C729 1.495 . S
C726 C725 1.392 . S
C726 C727 1.385 1_554 S
C726 C728 1.478 . S
C727 H721 0.930 . S
C727 C723 1.400 . S
C727 C726 1.385 1_556 S
C728 C726 1.478 . S
C728 C730 1.381 . S
C728 C734 1.383 . S
C729 C725 1.495 . S
C729 H735 0.959 . S
C729 H736 0.961 . S
C729 H737 0.960 . S
C730 C728 1.381 . S
C730 C731 1.394 . S
C730 H738 0.930 . S
C731 C730 1.394 . S
C731 C732 1.383 . S
C731 H739 0.929 . S
C732 C731 1.383 . S
C732 C733 1.378 . S
C733 H717 0.928 1_554 S
C733 C732 1.378 . S
C733 C734 1.380 . S
C734 H718 0.933 . S
C734 C728 1.383 . S
C734 C733 1.380 . S
H735 C729 0.959 . S
H736 C729 0.961 . S
H737 C729 0.960 . S
H738 C730 0.930 . S
H739 C731 0.929 . S
H740 C748 0.929 . S
H741 C750 0.930 . S
H742 C752 0.930 . S
H743 C755 0.929 . S
H744 C758 0.930 . S
H745 C760 0.960 . S
H746 C760 0.960 . S
H747 C760 0.960 1_556 S
C748 H740 0.929 . S
C748 C749 1.377 . S
C748 C750 1.384 . S
C749 C748 1.377 . S
C749 C755 1.390 1_554 S
C750 H741 0.930 . S
C750 C748 1.384 . S
C750 C751 1.372 . S
C751 C750 1.372 . S
C751 C752 1.400 1_554 S
C751 C756 1.490 . S
C752 H742 0.930 . S
C752 C751 1.400 1_556 S
C752 C755 1.386 . S
H753 C769 0.930 . S
H754 C770 0.931 . S
C755 H743 0.929 . S
C755 C749 1.390 1_556 S
C755 C752 1.386 . S
C756 C751 1.490 . S
C756 C758 1.395 . S
C756 C759 1.403 . S
H757 C763 0.930 . S
C758 H744 0.930 . S
C758 C756 1.395 . S
C758 C761 1.403 1_554 S
C759 C756 1.403 . S
C759 C760 1.524 . S
C759 C763 1.400 . S
C760 H745 0.960 . S
C760 H746 0.960 . S
C760 H747 0.960 1_554 S
C760 C759 1.524 . S
C761 C758 1.403 1_556 S
C761 C762 1.392 1_556 S
C761 C765 1.495 . S
C762 C761 1.392 1_554 S
C762 C763 1.386 . S
C762 C764 1.477 1_554 S
C763 H757 0.930 . S
C763 C759 1.400 . S
C763 C762 1.386 . S
C764 C762 1.477 1_556 S
C764 C766 1.373 1_556 S
C764 C770 1.390 . S
C765 C761 1.495 . S
C765 H771 0.959 . S
C765 H772 0.961 . S
C765 H773 0.960 1_556 S
C766 C764 1.373 1_554 S
C766 C767 1.394 . S
C766 H774 0.930 . S
C767 C766 1.394 . S
C767 C768 1.363 1_554 S
C767 H775 0.929 . S
C768 C767 1.363 1_556 S
C768 C769 1.397 . S
C769 H753 0.930 . S
C769 C768 1.397 . S
C769 C770 1.379 . S
C770 H754 0.931 . S
C770 C764 1.390 . S
C770 C769 1.379 . S
H771 C765 0.959 . S
H772 C765 0.961 . S
H773 C765 0.960 1_554 S
H774 C766 0.930 . S
H775 C767 0.929 . S
H776 C784 0.929 . S
H777 C786 0.930 . S
H778 C788 0.930 . S
H779 C791 0.929 . S
H780 C794 0.930 . S
H781 C796 0.960 . S
H782 C796 0.960 . S
H783 C796 0.960 . S
C784 H776 0.929 . S
C784 C785 1.377 1_556 S
C784 C786 1.384 . S
C785 C784 1.377 1_554 S
C785 C791 1.390 . S
C786 H777 0.930 . S
C786 C784 1.384 . S
C786 C787 1.372 . S
C787 C786 1.372 . S
C787 C788 1.400 1_556 S
C787 C792 1.490 1_556 S
C788 H778 0.930 . S
C788 C787 1.400 1_554 S
C788 C791 1.386 . S
H789 C805 0.930 . S
H790 C806 0.931 . S
C791 H779 0.929 . S
C791 C785 1.390 . S
C791 C788 1.386 . S
C792 C787 1.490 1_554 S
C792 C794 1.415 . S
C792 C795 1.383 1_554 S
H793 C799 0.930 . S
C794 H780 0.930 . S
C794 C792 1.415 . S
C794 C797 1.403 . S
C795 C792 1.383 1_556 S
C795 C796 1.524 . S
C795 C799 1.400 . S
C796 H781 0.960 . S
C796 H782 0.960 . S
C796 H783 0.960 . S
C796 C795 1.524 . S
C797 C794 1.403 . S
C797 C798 1.392 . S
C797 C801 1.495 . S
C798 C797 1.392 . S
C798 C799 1.385 1_554 S
C798 C800 1.478 . S
C799 H793 0.930 . S
C799 C795 1.400 . S
C799 C798 1.385 1_556 S
C800 C798 1.478 . S
C800 C802 1.379 1_554 S
C800 C806 1.383 . S
C801 C797 1.495 . S
C801 H807 0.959 . S
C801 H808 0.961 . S
C801 H809 0.960 . S
C802 C800 1.379 1_556 S
C802 C803 1.395 . S
C802 H810 0.931 . S
C803 C802 1.395 . S
C803 C804 1.383 1_556 S
C803 H811 0.929 . S
C804 C803 1.383 1_554 S
C804 C805 1.377 . S
C805 H789 0.930 . S
C805 C804 1.377 . S
C805 C806 1.379 . S
C806 H790 0.931 . S
C806 C800 1.383 . S
C806 C805 1.379 . S
H807 C801 0.959 . S
H808 C801 0.961 . S
H809 C801 0.960 . S
H810 C802 0.931 . S
H811 C803 0.929 . S
H812 C820 0.929 . S
H813 C822 0.930 . S
H814 C824 0.930 . S
H815 C827 0.929 . S
H816 C830 0.930 . S
H817 C832 0.960 . S
H818 C832 0.960 . S
H819 C832 0.960 . S
C820 H812 0.929 . S
C820 C821 1.381 . S
C820 C822 1.384 . S
C821 C820 1.381 . S
C821 C827 1.386 1_556 S
C822 H813 0.930 . S
C822 C820 1.384 . S
C822 C823 1.391 . S
C823 C822 1.391 . S
C823 C824 1.381 1_556 S
C823 C828 1.491 . S
C824 H814 0.930 . S
C824 C823 1.381 1_554 S
C824 C827 1.386 . S
H825 C841 0.930 . S
H826 C842 0.931 . S
C827 H815 0.929 . S
C827 C821 1.386 1_554 S
C827 C824 1.386 . S
C828 C823 1.491 . S
C828 C830 1.395 . S
C828 C831 1.403 1_556 S
H829 C835 0.930 . S
C830 H816 0.930 . S
C830 C828 1.395 . S
C830 C833 1.403 . S
C831 C828 1.403 1_554 S
C831 C832 1.524 . S
C831 C835 1.400 . S
C832 H817 0.960 . S
C832 H818 0.960 . S
C832 H819 0.960 . S
C832 C831 1.524 . S
C833 C830 1.403 . S
C833 C834 1.392 . S
C833 C837 1.495 . S
C834 C833 1.392 . S
C834 C835 1.385 1_556 S
C834 C836 1.478 . S
C835 H829 0.930 . S
C835 C831 1.400 . S
C835 C834 1.385 1_554 S
C836 C834 1.478 . S
C836 C838 1.381 . S
C836 C842 1.383 1_556 S
C837 C833 1.495 . S
C837 H843 0.959 . S
C837 H844 0.961 . S
C837 H845 0.960 . S
C838 C836 1.381 . S
C838 C839 1.394 . S
C838 H846 0.930 . S
C839 C838 1.394 . S
C839 C840 1.383 . S
C839 H847 0.929 . S
C840 C839 1.383 . S
C840 C841 1.377 1_556 S
C841 H825 0.930 . S
C841 C840 1.377 1_554 S
C841 C842 1.379 . S
C842 H826 0.931 . S
C842 C836 1.383 1_554 S
C842 C841 1.379 . S
H843 C837 0.959 . S
H844 C837 0.961 . S
H845 C837 0.960 . S
H846 C838 0.930 . S
H847 C839 0.929 . S
H848 C856 0.929 . S
H849 C858 0.930 . S
H850 C860 0.930 . S
H851 C863 0.929 . S
H852 C866 0.930 . S
H853 C868 0.960 . S
H854 C868 0.960 . S
H855 C868 0.960 . S
C856 H848 0.929 . S
C856 C857 1.377 . S
C856 C858 1.384 . S
C857 C856 1.377 . S
C857 C863 1.390 . S
C858 H849 0.930 . S
C858 C856 1.384 . S
C858 C859 1.372 . S
C859 C858 1.372 . S
C859 C860 1.400 . S
C859 C864 1.490 . S
C860 H850 0.930 . S
C860 C859 1.400 . S
C860 C863 1.386 . S
H861 C877 0.930 . S
H862 C878 0.931 . S
C863 H851 0.929 . S
C863 C857 1.390 . S
C863 C860 1.386 . S
C864 C859 1.490 . S
C864 C866 1.395 . S
C864 C867 1.403 . S
H865 C871 0.930 . S
C866 H852 0.930 . S
C866 C864 1.395 . S
C866 C869 1.403 1_565 S
C867 C864 1.403 . S
C867 C868 1.524 . S
C867 C871 1.400 1_565 S
C868 H853 0.960 . S
C868 H854 0.960 . S
C868 H855 0.960 . S
C868 C867 1.524 . S
C869 C866 1.403 1_545 S
C869 C870 1.392 . S
C869 C873 1.495 . S
C870 C869 1.392 . S
C870 C871 1.385 . S
C870 C872 1.478 . S
C871 H865 0.930 . S
C871 C867 1.400 1_545 S
C871 C870 1.385 . S
C872 C870 1.478 . S
C872 C874 1.381 . S
C872 C878 1.383 . S
C873 C869 1.495 . S
C873 H879 0.959 . S
C873 H880 0.961 . S
C873 H881 0.960 . S
C874 C872 1.381 . S
C874 C875 1.394 . S
C874 H882 0.930 . S
C875 C874 1.394 . S
C875 C876 1.383 . S
C875 H883 0.929 . S
C876 C875 1.383 . S
C876 C877 1.377 . S
C877 H861 0.930 . S
C877 C876 1.377 . S
C877 C878 1.379 . S
C878 H862 0.931 . S
C878 C872 1.383 . S
C878 C877 1.379 . S
H879 C873 0.959 . S
H880 C873 0.961 . S
H881 C873 0.960 . S
H882 C874 0.930 . S
H883 C875 0.929 . S
H884 C892 0.929 . S
H885 C894 0.930 . S
H886 C896 0.930 . S
H887 C899 0.929 . S
H888 C902 0.930 . S
H889 C904 0.960 . S
H890 C904 0.960 . S
H891 C904 0.960 . S
C892 H884 0.929 . S
C892 C893 1.377 . S
C892 C894 1.384 . S
C893 C892 1.377 . S
C893 C899 1.390 . S
C894 H885 0.930 . S
C894 C892 1.384 . S
C894 C895 1.372 . S
C895 C894 1.372 . S
C895 C896 1.400 . S
C895 C900 1.490 . S
C896 H886 0.930 . S
C896 C895 1.400 . S
C896 C899 1.386 . S
H897 C913 0.930 . S
H898 C914 0.931 . S
C899 H887 0.929 . S
C899 C893 1.390 . S
C899 C896 1.386 . S
C900 C895 1.490 . S
C900 C902 1.395 . S
C900 C903 1.403 . S
H901 C907 0.930 . S
C902 H888 0.930 . S
C902 C900 1.395 . S
C902 C905 1.403 1_455 S
C903 C900 1.403 . S
C903 C904 1.524 . S
C903 C907 1.400 1_455 S
C904 H889 0.960 . S
C904 H890 0.960 . S
C904 H891 0.960 . S
C904 C903 1.524 . S
C905 C902 1.403 1_655 S
C905 C906 1.392 . S
C905 C909 1.495 . S
C906 C905 1.392 . S
C906 C907 1.385 . S
C906 C908 1.478 . S
C907 H901 0.930 . S
C907 C903 1.400 1_655 S
C907 C906 1.385 . S
C908 C906 1.478 . S
C908 C910 1.381 . S
C908 C914 1.383 . S
C909 C905 1.495 . S
C909 H915 0.959 . S
C909 H916 0.961 . S
C909 H917 0.960 . S
C910 C908 1.381 . S
C910 C911 1.394 . S
C910 H918 0.930 . S
C911 C910 1.394 . S
C911 C912 1.383 . S
C911 H919 0.929 . S
C912 C911 1.383 . S
C912 C913 1.377 . S
C913 H897 0.930 . S
C913 C912 1.377 . S
C913 C914 1.379 . S
C914 H898 0.931 . S
C914 C908 1.383 . S
C914 C913 1.379 . S
H915 C909 0.959 . S
H916 C909 0.961 . S
H917 C909 0.960 . S
H918 C910 0.930 . S
H919 C911 0.929 . S
H920 C928 0.929 . S
H921 C930 0.930 . S
H922 C932 0.930 . S
H923 C935 0.929 . S
H924 C938 0.930 . S
H925 C940 0.960 . S
H926 C940 0.960 . S
H927 C940 0.960 . S
C928 H920 0.929 . S
C928 C929 1.377 . S
C928 C930 1.384 . S
C929 C928 1.377 . S
C929 C935 1.390 . S
C930 H921 0.930 . S
C930 C928 1.384 . S
C930 C931 1.372 . S
C931 C930 1.372 . S
C931 C932 1.400 . S
C931 C936 1.490 . S
C932 H922 0.930 . S
C932 C931 1.400 . S
C932 C935 1.386 . S
H933 C949 0.930 . S
H934 C950 0.931 . S
C935 H923 0.929 . S
C935 C929 1.390 . S
C935 C932 1.386 . S
C936 C931 1.490 . S
C936 C938 1.395 . S
C936 C939 1.403 . S
H937 C943 0.930 . S
C938 H924 0.930 . S
C938 C936 1.395 . S
C938 C941 1.403 1_545 S
C939 C936 1.403 . S
C939 C940 1.524 . S
C939 C943 1.400 1_545 S
C940 H925 0.960 . S
C940 H926 0.960 . S
C940 H927 0.960 . S
C940 C939 1.524 . S
C941 C938 1.403 1_565 S
C941 C942 1.392 . S
C941 C945 1.495 . S
C942 C941 1.392 . S
C942 C943 1.385 . S
C942 C944 1.478 . S
C943 H937 0.930 . S
C943 C939 1.400 1_565 S
C943 C942 1.385 . S
C944 C942 1.478 . S
C944 C946 1.381 . S
C944 C950 1.383 . S
C945 C941 1.495 . S
C945 H951 0.959 . S
C945 H952 0.961 . S
C945 H953 0.960 . S
C946 C944 1.381 . S
C946 C947 1.394 . S
C946 H954 0.930 . S
C947 C946 1.394 . S
C947 C948 1.383 . S
C947 H955 0.929 . S
C948 C947 1.383 . S
C948 C949 1.377 . S
C949 H933 0.930 . S
C949 C948 1.377 . S
C949 C950 1.379 . S
C950 H934 0.931 . S
C950 C944 1.383 . S
C950 C949 1.379 . S
H951 C945 0.959 . S
H952 C945 0.961 . S
H953 C945 0.960 . S
H954 C946 0.930 . S
H955 C947 0.929 . S
H956 C964 0.929 . S
H957 C966 0.930 . S
H958 C968 0.930 . S
H959 C971 0.929 . S
H960 C974 0.930 . S
H961 C976 0.960 . S
H962 C976 0.960 . S
H963 C976 0.960 . S
C964 H956 0.929 . S
C964 C965 1.377 . S
C964 C966 1.384 . S
C965 C964 1.377 . S
C965 C971 1.390 . S
C966 H957 0.930 . S
C966 C964 1.384 . S
C966 C967 1.372 . S
C967 C966 1.372 . S
C967 C968 1.400 . S
C967 C972 1.490 . S
C968 H958 0.930 . S
C968 C967 1.400 . S
C968 C971 1.386 . S
H969 C985 0.930 . S
H970 C986 0.931 . S
C971 H959 0.929 . S
C971 C965 1.390 . S
C971 C968 1.386 . S
C972 C967 1.490 . S
C972 C974 1.395 . S
C972 C975 1.403 . S
H973 C979 0.930 . S
C974 H960 0.930 . S
C974 C972 1.395 . S
C974 C977 1.403 1_655 S
C975 C972 1.403 . S
C975 C976 1.524 . S
C975 C979 1.400 1_655 S
C976 H961 0.960 . S
C976 H962 0.960 . S
C976 H963 0.960 . S
C976 C975 1.524 . S
C977 C974 1.403 1_455 S
C977 C978 1.392 . S
C977 C981 1.495 . S
C978 C977 1.392 . S
C978 C979 1.385 . S
C978 C980 1.478 . S
C979 H973 0.930 . S
C979 C975 1.400 1_455 S
C979 C978 1.385 . S
C980 C978 1.478 . S
C980 C982 1.381 . S
C980 C986 1.383 . S
C981 C977 1.495 . S
C981 H987 0.959 . S
C981 H988 0.961 . S
C981 H989 0.960 . S
C982 C980 1.381 . S
C982 C983 1.394 . S
C982 H990 0.930 . S
C983 C982 1.394 . S
C983 C984 1.383 . S
C983 H991 0.929 . S
C984 C983 1.383 . S
C984 C985 1.377 . S
C985 H969 0.930 . S
C985 C984 1.377 . S
C985 C986 1.379 . S
C986 H970 0.931 . S
C986 C980 1.383 . S
C986 C985 1.379 . S
H987 C981 0.959 . S
H988 C981 0.961 . S
H989 C981 0.960 . S
H990 C982 0.930 . S
H991 C983 0.929 . S
H992 C1000 0.929 . S
H993 C1002 0.930 . S
H994 C1004 0.930 . S
H995 C1007 0.929 . S
H996 C1010 0.930 . S
H997 C1012 0.960 . S
H998 C1012 0.960 . S
H999 C1012 0.960 . S
C1000 H992 0.929 . S
C1000 C1001 1.377 . S
C1000 C1002 1.384 . S
C1001 C1000 1.377 . S
C1001 C1007 1.390 . S
C1002 H993 0.930 . S
C1002 C1000 1.384 . S
C1002 C1003 1.372 . S
C1003 C1002 1.372 . S
C1003 C1004 1.400 . S
C1003 C1008 1.490 . S
C1004 H994 0.930 . S
C1004 C1003 1.400 . S
C1004 C1007 1.386 . S
H1005 C1021 0.930 . S
H1006 C1022 0.931 . S
C1007 H995 0.929 . S
C1007 C1001 1.390 . S
C1007 C1004 1.386 . S
C1008 C1003 1.490 . S
C1008 C1010 1.395 . S
C1008 C1011 1.403 . S
H1009 C1015 0.930 . S
C1010 H996 0.930 . S
C1010 C1008 1.395 . S
C1010 C1013 1.403 . S
C1011 C1008 1.403 . S
C1011 C1012 1.524 . S
C1011 C1015 1.400 . S
C1012 H997 0.960 . S
C1012 H998 0.960 . S
C1012 H999 0.960 . S
C1012 C1011 1.524 . S
C1013 C1010 1.403 . S
C1013 C1014 1.392 . S
C1013 C1017 1.495 . S
C1014 C1013 1.392 . S
C1014 C1015 1.385 . S
C1014 C1016 1.478 . S
C1015 H1009 0.930 . S
C1015 C1011 1.400 . S
C1015 C1014 1.385 . S
C1016 C1014 1.478 . S
C1016 C1018 1.381 . S
C1016 C1022 1.383 . S
C1017 C1013 1.495 . S
C1017 H1023 0.959 . S
C1017 H1024 0.961 . S
C1017 H1025 0.960 . S
C1018 C1016 1.381 . S
C1018 C1019 1.394 . S
C1018 H1026 0.930 . S
C1019 C1018 1.394 . S
C1019 C1020 1.383 . S
C1019 H1027 0.929 . S
C1020 C1019 1.383 . S
C1020 C1021 1.377 . S
C1021 H1005 0.930 . S
C1021 C1020 1.377 . S
C1021 C1022 1.379 . S
C1022 H1006 0.931 . S
C1022 C1016 1.383 . S
C1022 C1021 1.379 . S
H1023 C1017 0.959 . S
H1024 C1017 0.961 . S
H1025 C1017 0.960 . S
H1026 C1018 0.930 . S
H1027 C1019 0.929 . S
H1028 C1036 0.929 . S
H1029 C1038 0.930 . S
H1030 C1040 0.930 . S
H1031 C1043 0.929 . S
H1032 C1046 0.930 . S
H1033 C1048 0.960 . S
H1034 C1048 0.960 . S
H1035 C1048 0.960 . S
C1036 H1028 0.929 . S
C1036 C1037 1.377 . S
C1036 C1038 1.384 . S
C1037 C1036 1.377 . S
C1037 C1043 1.390 . S
C1038 H1029 0.930 . S
C1038 C1036 1.384 . S
C1038 C1039 1.372 . S
C1039 C1038 1.372 . S
C1039 C1040 1.400 . S
C1039 C1044 1.490 . S
C1040 H1030 0.930 . S
C1040 C1039 1.400 . S
C1040 C1043 1.386 . S
H1041 C1057 0.930 . S
H1042 C1058 0.931 . S
C1043 H1031 0.929 . S
C1043 C1037 1.390 . S
C1043 C1040 1.386 . S
C1044 C1039 1.490 . S
C1044 C1046 1.395 . S
C1044 C1047 1.403 . S
H1045 C1051 0.930 . S
C1046 H1032 0.930 . S
C1046 C1044 1.395 . S
C1046 C1049 1.403 . S
C1047 C1044 1.403 . S
C1047 C1048 1.524 . S
C1047 C1051 1.400 . S
C1048 H1033 0.960 . S
C1048 H1034 0.960 . S
C1048 H1035 0.960 . S
C1048 C1047 1.524 . S
C1049 C1046 1.403 . S
C1049 C1050 1.392 . S
C1049 C1053 1.495 . S
C1050 C1049 1.392 . S
C1050 C1051 1.385 . S
C1050 C1052 1.478 . S
C1051 H1045 0.930 . S
C1051 C1047 1.400 . S
C1051 C1050 1.385 . S
C1052 C1050 1.478 . S
C1052 C1054 1.381 . S
C1052 C1058 1.383 . S
C1053 C1049 1.495 . S
C1053 H1059 0.959 . S
C1053 H1060 0.961 . S
C1053 H1061 0.960 . S
C1054 C1052 1.381 . S
C1054 C1055 1.394 . S
C1054 H1062 0.930 . S
C1055 C1054 1.394 . S
C1055 C1056 1.383 . S
C1055 H1063 0.929 . S
C1056 C1055 1.383 . S
C1056 C1057 1.377 . S
C1057 H1041 0.930 . S
C1057 C1056 1.377 . S
C1057 C1058 1.379 . S
C1058 H1042 0.931 . S
C1058 C1052 1.383 . S
C1058 C1057 1.379 . S
H1059 C1053 0.959 . S
H1060 C1053 0.961 . S
H1061 C1053 0.960 . S
H1062 C1054 0.930 . S
H1063 C1055 0.929 . S
H1064 C1072 0.929 . S
H1065 C1074 0.930 . S
H1066 C1076 0.930 . S
H1067 C1079 0.929 . S
H1068 C1082 0.930 . S
H1069 C1084 0.960 . S
H1070 C1084 0.960 . S
H1071 C1084 0.960 . S
C1072 H1064 0.929 . S
C1072 C1073 1.377 . S
C1072 C1074 1.384 . S
C1073 C1072 1.377 . S
C1073 C1079 1.390 . S
C1074 H1065 0.930 . S
C1074 C1072 1.384 . S
C1074 C1075 1.372 . S
C1075 C1074 1.372 . S
C1075 C1076 1.400 . S
C1075 C1080 1.490 . S
C1076 H1066 0.930 . S
C1076 C1075 1.400 . S
C1076 C1079 1.386 . S
H1077 C1093 0.930 . S
H1078 C1094 0.931 . S
C1079 H1067 0.929 . S
C1079 C1073 1.390 . S
C1079 C1076 1.386 . S
C1080 C1075 1.490 . S
C1080 C1082 1.395 . S
C1080 C1083 1.403 . S
H1081 C1087 0.930 . S
C1082 H1068 0.930 . S
C1082 C1080 1.395 . S
C1082 C1085 1.403 . S
C1083 C1080 1.403 . S
C1083 C1084 1.524 . S
C1083 C1087 1.400 . S
C1084 H1069 0.960 . S
C1084 H1070 0.960 . S
C1084 H1071 0.960 . S
C1084 C1083 1.524 . S
C1085 C1082 1.403 . S
C1085 C1086 1.392 . S
C1085 C1089 1.495 . S
C1086 C1085 1.392 . S
C1086 C1087 1.385 . S
C1086 C1088 1.478 . S
C1087 H1081 0.930 . S
C1087 C1083 1.400 . S
C1087 C1086 1.385 . S
C1088 C1086 1.478 . S
C1088 C1090 1.381 . S
C1088 C1094 1.383 . S
C1089 C1085 1.495 . S
C1089 H1095 0.959 . S
C1089 H1096 0.961 . S
C1089 H1097 0.960 . S
C1090 C1088 1.381 . S
C1090 C1091 1.394 . S
C1090 H1098 0.930 . S
C1091 C1090 1.394 . S
C1091 C1092 1.383 . S
C1091 H1099 0.929 . S
C1092 C1091 1.383 . S
C1092 C1093 1.377 . S
C1093 H1077 0.930 . S
C1093 C1092 1.377 . S
C1093 C1094 1.379 . S
C1094 H1078 0.931 . S
C1094 C1088 1.383 . S
C1094 C1093 1.379 . S
H1095 C1089 0.959 . S
H1096 C1089 0.961 . S
H1097 C1089 0.960 . S
H1098 C1090 0.930 . S
H1099 C1091 0.929 . S
H1100 C1108 0.929 . S
H1101 C1110 0.930 . S
H1102 C1112 0.930 . S
H1103 C1115 0.929 . S
H1104 C1118 0.930 . S
H1105 C1120 0.960 . S
H1106 C1120 0.960 . S
H1107 C1120 0.960 . S
C1108 H1100 0.929 . S
C1108 C1109 1.377 . S
C1108 C1110 1.384 . S
C1109 C1108 1.377 . S
C1109 C1115 1.390 . S
C1110 H1101 0.930 . S
C1110 C1108 1.384 . S
C1110 C1111 1.372 . S
C1111 C1110 1.372 . S
C1111 C1112 1.400 . S
C1111 C1116 1.490 . S
C1112 H1102 0.930 . S
C1112 C1111 1.400 . S
C1112 C1115 1.386 . S
H1113 C1129 0.930 . S
H1114 C1130 0.931 . S
C1115 H1103 0.929 . S
C1115 C1109 1.390 . S
C1115 C1112 1.386 . S
C1116 C1111 1.490 . S
C1116 C1118 1.395 . S
C1116 C1119 1.403 . S
H1117 C1123 0.930 . S
C1118 H1104 0.930 . S
C1118 C1116 1.395 . S
C1118 C1121 1.403 . S
C1119 C1116 1.403 . S
C1119 C1120 1.524 . S
C1119 C1123 1.400 . S
C1120 H1105 0.960 . S
C1120 H1106 0.960 . S
C1120 H1107 0.960 . S
C1120 C1119 1.524 . S
C1121 C1118 1.403 . S
C1121 C1122 1.392 . S
C1121 C1125 1.495 . S
C1122 C1121 1.392 . S
C1122 C1123 1.385 . S
C1122 C1124 1.478 . S
C1123 H1117 0.930 . S
C1123 C1119 1.400 . S
C1123 C1122 1.385 . S
C1124 C1122 1.478 . S
C1124 C1126 1.381 . S
C1124 C1130 1.383 . S
C1125 C1121 1.495 . S
C1125 H1131 0.959 . S
C1125 H1132 0.961 . S
C1125 H1133 0.960 . S
C1126 C1124 1.381 . S
C1126 C1127 1.394 . S
C1126 H1134 0.930 . S
C1127 C1126 1.394 . S
C1127 C1128 1.383 . S
C1127 H1135 0.929 . S
C1128 C1127 1.383 . S
C1128 C1129 1.377 . S
C1129 H1113 0.930 . S
C1129 C1128 1.377 . S
C1129 C1130 1.379 . S
C1130 H1114 0.931 . S
C1130 C1124 1.383 . S
C1130 C1129 1.379 . S
H1131 C1125 0.959 . S
H1132 C1125 0.961 . S
H1133 C1125 0.960 . S
H1134 C1126 0.930 . S
H1135 C1127 0.929 . S
H1136 C1144 0.929 . S
H1137 C1146 0.930 . S
H1138 C1148 0.930 . S
H1139 C1151 0.929 . S
H1140 C1154 0.930 . S
H1141 C1156 0.960 . S
H1142 C1156 0.960 . S
H1143 C1156 0.960 . S
C1144 H1136 0.929 . S
C1144 C1145 1.377 . S
C1144 C1146 1.384 . S
C1145 C1144 1.377 . S
C1145 C1151 1.390 . S
C1146 H1137 0.930 . S
C1146 C1144 1.384 . S
C1146 C1147 1.372 . S
C1147 C1146 1.372 . S
C1147 C1148 1.400 . S
C1147 C1152 1.490 . S
C1148 H1138 0.930 . S
C1148 C1147 1.400 . S
C1148 C1151 1.386 . S
H1149 C1165 0.930 . S
H1150 C1166 0.931 . S
C1151 H1139 0.929 . S
C1151 C1145 1.390 . S
C1151 C1148 1.386 . S
C1152 C1147 1.490 . S
C1152 C1154 1.395 . S
C1152 C1155 1.403 . S
H1153 C1159 0.930 . S
C1154 H1140 0.930 . S
C1154 C1152 1.395 . S
C1154 C1157 1.403 . S
C1155 C1152 1.403 . S
C1155 C1156 1.524 . S
C1155 C1159 1.400 . S
C1156 H1141 0.960 . S
C1156 H1142 0.960 . S
C1156 H1143 0.960 . S
C1156 C1155 1.524 . S
C1157 C1154 1.403 . S
C1157 C1158 1.392 . S
C1157 C1161 1.495 . S
C1158 C1157 1.392 . S
C1158 C1159 1.385 . S
C1158 C1160 1.478 . S
C1159 H1153 0.930 . S
C1159 C1155 1.400 . S
C1159 C1158 1.385 . S
C1160 C1158 1.478 . S
C1160 C1162 1.381 . S
C1160 C1166 1.383 . S
C1161 C1157 1.495 . S
C1161 H1167 0.959 . S
C1161 H1168 0.961 . S
C1161 H1169 0.960 . S
C1162 C1160 1.381 . S
C1162 C1163 1.394 . S
C1162 H1170 0.930 . S
C1163 C1162 1.394 . S
C1163 C1164 1.383 . S
C1163 H1171 0.929 . S
C1164 C1163 1.383 . S
C1164 C1165 1.377 . S
C1165 H1149 0.930 . S
C1165 C1164 1.377 . S
C1165 C1166 1.379 . S
C1166 H1150 0.931 . S
C1166 C1160 1.383 . S
C1166 C1165 1.379 . S
H1167 C1161 0.959 . S
H1168 C1161 0.961 . S
H1169 C1161 0.960 . S
H1170 C1162 0.930 . S
H1171 C1163 0.929 . S
H1172 C1180 0.929 . S
H1173 C1182 0.930 . S
H1174 C1184 0.930 . S
H1175 C1187 0.929 . S
H1176 C1190 0.930 . S
H1177 C1192 0.960 . S
H1178 C1192 0.960 . S
H1179 C1192 0.960 . S
C1180 H1172 0.929 . S
C1180 C1181 1.377 . S
C1180 C1182 1.384 . S
C1181 C1180 1.377 . S
C1181 C1187 1.390 . S
C1182 H1173 0.930 . S
C1182 C1180 1.384 . S
C1182 C1183 1.372 . S
C1183 C1182 1.372 . S
C1183 C1184 1.400 . S
C1183 C1188 1.490 . S
C1184 H1174 0.930 . S
C1184 C1183 1.400 . S
C1184 C1187 1.386 . S
H1185 C1201 0.930 . S
H1186 C1202 0.931 . S
C1187 H1175 0.929 . S
C1187 C1181 1.390 . S
C1187 C1184 1.386 . S
C1188 C1183 1.490 . S
C1188 C1190 1.395 . S
C1188 C1191 1.403 . S
H1189 C1195 0.930 . S
C1190 H1176 0.930 . S
C1190 C1188 1.395 . S
C1190 C1193 1.403 . S
C1191 C1188 1.403 . S
C1191 C1192 1.524 . S
C1191 C1195 1.400 . S
C1192 H1177 0.960 . S
C1192 H1178 0.960 . S
C1192 H1179 0.960 . S
C1192 C1191 1.524 . S
C1193 C1190 1.403 . S
C1193 C1194 1.392 . S
C1193 C1197 1.495 . S
C1194 C1193 1.392 . S
C1194 C1195 1.385 . S
C1194 C1196 1.478 . S
C1195 H1189 0.930 . S
C1195 C1191 1.400 . S
C1195 C1194 1.385 . S
C1196 C1194 1.478 . S
C1196 C1198 1.381 . S
C1196 C1202 1.383 . S
C1197 C1193 1.495 . S
C1197 H1203 0.959 . S
C1197 H1204 0.961 . S
C1197 H1205 0.960 . S
C1198 C1196 1.381 . S
C1198 C1199 1.394 . S
C1198 H1206 0.930 . S
C1199 C1198 1.394 . S
C1199 C1200 1.383 . S
C1199 H1207 0.929 . S
C1200 C1199 1.383 . S
C1200 C1201 1.377 . S
C1201 H1185 0.930 . S
C1201 C1200 1.377 . S
C1201 C1202 1.379 . S
C1202 H1186 0.931 . S
C1202 C1196 1.383 . S
C1202 C1201 1.379 . S
H1203 C1197 0.959 . S
H1204 C1197 0.961 . S
H1205 C1197 0.960 . S
H1206 C1198 0.930 . S
H1207 C1199 0.929 . S
H1208 C1216 0.929 . S
H1209 C1218 0.930 . S
H1210 C1220 0.930 . S
H1211 C1223 0.929 . S
H1212 C1226 0.930 . S
H1213 C1228 0.960 . S
H1214 C1228 0.960 . S
H1215 C1228 0.960 . S
C1216 H1208 0.929 . S
C1216 C1217 1.377 . S
C1216 C1218 1.384 . S
C1217 C1216 1.377 . S
C1217 C1223 1.390 . S
C1218 H1209 0.930 . S
C1218 C1216 1.384 . S
C1218 C1219 1.372 . S
C1219 C1218 1.372 . S
C1219 C1220 1.400 . S
C1219 C1224 1.490 . S
C1220 H1210 0.930 . S
C1220 C1219 1.400 . S
C1220 C1223 1.386 . S
H1221 C1237 0.930 . S
H1222 C1238 0.931 . S
C1223 H1211 0.929 . S
C1223 C1217 1.390 . S
C1223 C1220 1.386 . S
C1224 C1219 1.490 . S
C1224 C1226 1.395 . S
C1224 C1227 1.403 . S
H1225 C1231 0.930 . S
C1226 H1212 0.930 . S
C1226 C1224 1.395 . S
C1226 C1229 1.403 . S
C1227 C1224 1.403 . S
C1227 C1228 1.524 . S
C1227 C1231 1.400 . S
C1228 H1213 0.960 . S
C1228 H1214 0.960 . S
C1228 H1215 0.960 . S
C1228 C1227 1.524 . S
C1229 C1226 1.403 . S
C1229 C1230 1.392 . S
C1229 C1233 1.495 . S
C1230 C1229 1.392 . S
C1230 C1231 1.385 . S
C1230 C1232 1.478 . S
C1231 H1225 0.930 . S
C1231 C1227 1.400 . S
C1231 C1230 1.385 . S
C1232 C1230 1.478 . S
C1232 C1234 1.381 . S
C1232 C1238 1.383 . S
C1233 C1229 1.495 . S
C1233 H1239 0.959 . S
C1233 H1240 0.961 . S
C1233 H1241 0.960 . S
C1234 C1232 1.381 . S
C1234 C1235 1.394 . S
C1234 H1242 0.930 . S
C1235 C1234 1.394 . S
C1235 C1236 1.383 . S
C1235 H1243 0.929 . S
C1236 C1235 1.383 . S
C1236 C1237 1.377 . S
C1237 H1221 0.930 . S
C1237 C1236 1.377 . S
C1237 C1238 1.379 . S
C1238 H1222 0.931 . S
C1238 C1232 1.383 . S
C1238 C1237 1.379 . S
H1239 C1233 0.959 . S
H1240 C1233 0.961 . S
H1241 C1233 0.960 . S
H1242 C1234 0.930 . S
H1243 C1235 0.929 . S
H1244 C1252 0.929 . S
H1245 C1254 0.930 . S
H1246 C1256 0.930 . S
H1247 C1259 0.929 . S
H1248 C1262 0.930 . S
H1249 C1264 0.960 . S
H1250 C1264 0.960 . S
H1251 C1264 0.960 . S
C1252 H1244 0.929 . S
C1252 C1253 1.377 . S
C1252 C1254 1.384 . S
C1253 C1252 1.377 . S
C1253 C1259 1.390 . S
C1254 H1245 0.930 . S
C1254 C1252 1.384 . S
C1254 C1255 1.372 . S
C1255 C1254 1.372 . S
C1255 C1256 1.400 . S
C1255 C1260 1.490 . S
C1256 H1246 0.930 . S
C1256 C1255 1.400 . S
C1256 C1259 1.386 . S
H1257 C1273 0.930 . S
H1258 C1274 0.931 . S
C1259 H1247 0.929 . S
C1259 C1253 1.390 . S
C1259 C1256 1.386 . S
C1260 C1255 1.490 . S
C1260 C1262 1.395 . S
C1260 C1263 1.403 . S
H1261 C1267 0.930 . S
C1262 H1248 0.930 . S
C1262 C1260 1.395 . S
C1262 C1265 1.403 . S
C1263 C1260 1.403 . S
C1263 C1264 1.524 . S
C1263 C1267 1.400 . S
C1264 H1249 0.960 . S
C1264 H1250 0.960 . S
C1264 H1251 0.960 . S
C1264 C1263 1.524 . S
C1265 C1262 1.403 . S
C1265 C1266 1.392 . S
C1265 C1269 1.495 . S
C1266 C1265 1.392 . S
C1266 C1267 1.385 . S
C1266 C1268 1.478 . S
C1267 H1261 0.930 . S
C1267 C1263 1.400 . S
C1267 C1266 1.385 . S
C1268 C1266 1.478 . S
C1268 C1270 1.381 . S
C1268 C1274 1.383 . S
C1269 C1265 1.495 . S
C1269 H1275 0.959 . S
C1269 H1276 0.961 . S
C1269 H1277 0.960 . S
C1270 C1268 1.381 . S
C1270 C1271 1.394 . S
C1270 H1278 0.930 . S
C1271 C1270 1.394 . S
C1271 C1272 1.383 . S
C1271 H1279 0.929 . S
C1272 C1271 1.383 . S
C1272 C1273 1.377 . S
C1273 H1257 0.930 . S
C1273 C1272 1.377 . S
C1273 C1274 1.379 . S
C1274 H1258 0.931 . S
C1274 C1268 1.383 . S
C1274 C1273 1.379 . S
H1275 C1269 0.959 . S
H1276 C1269 0.961 . S
H1277 C1269 0.960 . S
H1278 C1270 0.930 . S
H1279 C1271 0.929 . S
C713 C49 1.481 . S
C732 C284 1.480 . S
C749 C29 1.480 . S
C768 C145 1.484 . S
C785 C108 1.479 . S
C804 C233 1.473 1_554 S
C821 C321 1.479 . S
C840 C196 1.477 1_556 S
C857 C401 1.482 . S
C876 C645 1.479 . S
C893 C497 1.482 . S
C912 C381 1.478 . S
C929 C577 1.482 . S
C948 C460 1.475 . S
C965 C665 1.482 . S
C984 C557 1.476 . S
C1001 C585 1.314 . S
C1020 C20 1.302 . S
C1037 C117 1.313 . S
C1056 C673 1.308 . S
C1073 C409 1.313 . S
C1092 C205 1.307 . S
C1109 C489 1.313 . S
C1128 C293 1.307 . S
C1145 C469 1.313 . S
C1164 C313 1.312 . S
C1181 C57 1.314 . S
C1200 C548 1.313 . S
C1217 C137 1.315 . S
C1236 C636 1.321 . S
C1253 C225 1.313 . S
C1272 C372 1.312 . S
