# Generated by pormake.
# Topology wke, (5)-cn, num edge types: 1
# Building blocks:
#     Node 0, Type 0, BuildingBlock: XOMCOT_clean_sbu_0, # of connection points: 5
#     Node 1, Type 0, BuildingBlock: XOMCOT_clean_sbu_0, # of connection points: 5
#     Node 2, Type 0, BuildingBlock: XOMCOT_clean_sbu_0, # of connection points: 5
#     Node 3, Type 0, BuildingBlock: XOMCOT_clean_sbu_0, # of connection points: 5
#     Node 4, Type 0, BuildingBlock: XOMCOT_clean_sbu_0, # of connection points: 5
#     Node 5, Type 0, BuildingBlock: XOMCOT_clean_sbu_0, # of connection points: 5
#     Node 6, Type 0, BuildingBlock: XOMCOT_clean_sbu_0, # of connection points: 5
#     Node 7, Type 0, BuildingBlock: XOMCOT_clean_sbu_0, # of connection points: 5
#     Node 8, Type 0, BuildingBlock: XOMCOT_clean_sbu_0, # of connection points: 5
#     Node 9, Type 0, BuildingBlock: XOMCOT_clean_sbu_0, # of connection points: 5
#     Node 10, Type 0, BuildingBlock: XOMCOT_clean_sbu_0, # of connection points: 5
#     Node 11, Type 0, BuildingBlock: XOMCOT_clean_sbu_0, # of connection points: 5
#     Edge 12, Type (0, 0), BuildingBlock: XIVTED_clean_linker_0, # of connection points: 2
#     Edge 13, Type (0, 0), BuildingBlock: XIVTED_clean_linker_0, # of connection points: 2
#     Edge 14, Type (0, 0), BuildingBlock: XIVTED_clean_linker_0, # of connection points: 2
#     Edge 15, Type (0, 0), BuildingBlock: XIVTED_clean_linker_0, # of connection points: 2
#     Edge 16, Type (0, 0), BuildingBlock: XIVTED_clean_linker_0, # of connection points: 2
#     Edge 17, Type (0, 0), BuildingBlock: XIVTED_clean_linker_0, # of connection points: 2
#     Edge 18, Type (0, 0), BuildingBlock: XIVTED_clean_linker_0, # of connection points: 2
#     Edge 19, Type (0, 0), BuildingBlock: XIVTED_clean_linker_0, # of connection points: 2
#     Edge 20, Type (0, 0), BuildingBlock: XIVTED_clean_linker_0, # of connection points: 2
#     Edge 21, Type (0, 0), BuildingBlock: XIVTED_clean_linker_0, # of connection points: 2
#     Edge 22, Type (0, 0), BuildingBlock: XIVTED_clean_linker_0, # of connection points: 2
#     Edge 23, Type (0, 0), BuildingBlock: XIVTED_clean_linker_0, # of connection points: 2
#     Edge 24, Type (0, 0), BuildingBlock: XIVTED_clean_linker_0, # of connection points: 2
#     Edge 25, Type (0, 0), BuildingBlock: XIVTED_clean_linker_0, # of connection points: 2
#     Edge 26, Type (0, 0), BuildingBlock: XIVTED_clean_linker_0, # of connection points: 2
#     Edge 27, Type (0, 0), BuildingBlock: XIVTED_clean_linker_0, # of connection points: 2
#     Edge 28, Type (0, 0), BuildingBlock: XIVTED_clean_linker_0, # of connection points: 2
#     Edge 29, Type (0, 0), BuildingBlock: XIVTED_clean_linker_0, # of connection points: 2
#     Edge 30, Type (0, 0), BuildingBlock: XIVTED_clean_linker_0, # of connection points: 2
#     Edge 31, Type (0, 0), BuildingBlock: XIVTED_clean_linker_0, # of connection points: 2
#     Edge 32, Type (0, 0), BuildingBlock: XIVTED_clean_linker_0, # of connection points: 2
#     Edge 33, Type (0, 0), BuildingBlock: XIVTED_clean_linker_0, # of connection points: 2
#     Edge 34, Type (0, 0), BuildingBlock: XIVTED_clean_linker_0, # of connection points: 2
#     Edge 35, Type (0, 0), BuildingBlock: XIVTED_clean_linker_0, # of connection points: 2
#     Edge 36, Type (0, 0), BuildingBlock: XIVTED_clean_linker_0, # of connection points: 2
#     Edge 37, Type (0, 0), BuildingBlock: XIVTED_clean_linker_0, # of connection points: 2
#     Edge 38, Type (0, 0), BuildingBlock: XIVTED_clean_linker_0, # of connection points: 2
#     Edge 39, Type (0, 0), BuildingBlock: XIVTED_clean_linker_0, # of connection points: 2
#     Edge 40, Type (0, 0), BuildingBlock: XIVTED_clean_linker_0, # of connection points: 2
#     Edge 41, Type (0, 0), BuildingBlock: XIVTED_clean_linker_0, # of connection points: 2
# Relax obj value: 0.148
# Max RMSD: 0.150
# Mean RMSD: 0.150
data_MOF--net-wke--node1-XOMCOT_clean_sbu_0--edge1-XIVTED_clean_linker_0
_symmetry_space_group_name_H-M    P1
_symmetry_Int_Tables_number       1
_symmetry_cell_setting            triclinic
loop_
_symmetry_equiv_pos_as_xyz
'x, y, z'
_cell_length_a     71.595335
_cell_length_b     71.621614
_cell_length_c     17.714182
_cell_angle_alpha  90.012301
_cell_angle_beta   89.985316
_cell_angle_gamma 119.99854
loop_
_atom_site_label
_atom_site_type_symbol
_atom_site_fract_x
_atom_site_fract_y
_atom_site_fract_z
_atom_type_partial_charge
Co0 Co 0.10462 0.41675 0.30251 0.0
C1 C 0.10072 0.41409 0.13422 0.0
C2 C 0.07874 0.38431 0.18792 0.0
C3 C 0.07678 0.38125 0.11101 0.0
N4 N 0.09333 0.40509 0.20278 0.0
N5 N 0.09063 0.40003 0.07724 0.0
H6 H 0.11428 0.42999 0.12557 0.0
H7 H 0.07057 0.37193 0.23014 0.0
C8 C 0.05716 0.39408 0.32633 0.0
O9 O 0.05579 0.40375 0.26524 0.0
N10 N 0.11601 0.4278 0.4016 0.0
C11 C 0.13221 0.44776 0.41769 0.0
C12 C 0.13446 0.4499 0.49487 0.0
C13 C 0.10869 0.41799 0.46885 0.0
N14 N 0.11961 0.4312 0.52703 0.0
C15 C 0.1094 0.45584 0.2389 0.0
C16 C 0.08278 0.46085 0.33965 0.0
C17 C 0.09309 0.4764 0.28314 0.0
C18 C 0.10675 0.47378 0.23293 0.0
C19 C 0.08608 0.44323 0.344 0.0
N20 N 0.09837 0.44023 0.29153 0.0
H21 H 0.12134 0.45528 0.20377 0.0
H22 H 0.07913 0.43232 0.39108 0.0
H23 H 0.14142 0.46005 0.37619 0.0
H24 H 0.0952 0.4018 0.47511 0.0
O25 O 0.13343 0.4311 0.26272 0.0
O26 O 0.11655 0.39773 0.30778 0.0
O27 O 0.07544 0.39714 0.34866 0.0
C28 C 0.13388 0.41359 0.27793 0.0
H29 H 0.06623 0.36624 0.08245 0.0
H30 H 0.14609 0.46419 0.52485 0.0
H31 H 0.07244 0.46234 0.38092 0.0
H32 H 0.1161 0.48595 0.19113 0.0
Co33 Co 0.68666 0.10954 0.81972 0.0
C34 C 0.68615 0.10639 0.65165 0.0
C35 C 0.69283 0.08352 0.7045 0.0
C36 C 0.69437 0.08199 0.62758 0.0
N37 N 0.68693 0.09832 0.71981 0.0
N38 N 0.69021 0.09645 0.59445 0.0
H39 H 0.68392 0.12003 0.64358 0.0
H40 H 0.69677 0.07508 0.74645 0.0
C41 C 0.6619 0.06194 0.8432 0.0
O42 O 0.65125 0.06031 0.78081 0.0
N43 N 0.68728 0.12091 0.91887 0.0
C44 C 0.68293 0.13661 0.9368 0.0
C45 C 0.68395 0.13899 0.01412 0.0
C46 C 0.69106 0.11406 0.98484 0.0
N47 N 0.68897 0.12472 0.04421 0.0
C48 C 0.65192 0.1139 0.75576 0.0
C49 C 0.62146 0.08911 0.86291 0.0
C50 C 0.61583 0.0989 0.80597 0.0
C51 C 0.63129 0.11136 0.75171 0.0
C52 C 0.64213 0.09171 0.86392 0.0
N53 N 0.65696 0.10345 0.80938 0.0
H54 H 0.66408 0.12536 0.71856 0.0
H55 H 0.64643 0.08501 0.91087 0.0
H56 H 0.67875 0.1453 0.8966 0.0
H57 H 0.69516 0.10149 0.98918 0.0
O58 O 0.70153 0.13847 0.78049 0.0
O59 O 0.71743 0.12093 0.82514 0.0
O60 O 0.67677 0.08035 0.86598 0.0
C61 C 0.7193 0.13849 0.79606 0.0
H62 H 0.69928 0.07183 0.59862 0.0
H63 H 0.68053 0.14986 0.04573 0.0
H64 H 0.61011 0.07983 0.90705 0.0
H65 H 0.6278 0.11998 0.70886 0.0
Co66 Co 0.56816 0.68276 0.31756 0.0
C67 C 0.57056 0.68178 0.15198 0.0
C68 C 0.60022 0.6878 0.2034 0.0
C69 C 0.60259 0.68825 0.12608 0.0
N70 N 0.58011 0.68365 0.21924 0.0
N71 N 0.58395 0.68456 0.09396 0.0
H72 H 0.55417 0.67857 0.14589 0.0
H73 H 0.61247 0.69081 0.24498 0.0
C74 C 0.5809 0.6552 0.40353 0.0
O75 O 0.56058 0.64319 0.42301 0.0
N76 N 0.55673 0.68282 0.4178 0.0
C77 C 0.53955 0.68495 0.4358 0.0
C78 C 0.53844 0.68632 0.51295 0.0
C79 C 0.56654 0.68441 0.48465 0.0
N80 N 0.55539 0.68583 0.54371 0.0
C81 C 0.52415 0.64876 0.30319 0.0
C82 C 0.53275 0.61691 0.25772 0.0
C83 C 0.51142 0.61144 0.27318 0.0
C84 C 0.50716 0.62779 0.29386 0.0
C85 C 0.54936 0.63818 0.26868 0.0
N86 N 0.54502 0.65349 0.29618 0.0
H87 H 0.52036 0.66117 0.31513 0.0
H88 H 0.56579 0.64218 0.25751 0.0
H89 H 0.52903 0.68664 0.3962 0.0
H90 H 0.58212 0.68562 0.49008 0.0
O91 O 0.55462 0.69799 0.27814 0.0
O92 O 0.5875 0.71355 0.32767 0.0
O93 O 0.58703 0.67196 0.36248 0.0
C94 C 0.5721 0.71561 0.29674 0.0
H95 H 0.61715 0.69177 0.09597 0.0
H96 H 0.52619 0.68782 0.54365 0.0
H97 H 0.53662 0.60479 0.2396 0.0
H98 H 0.49077 0.62441 0.30235 0.0
Co99 Co 0.88795 0.57823 0.79713 0.0
C100 C 0.89279 0.58146 0.62908 0.0
C101 C 0.90765 0.61233 0.68307 0.0
C102 C 0.90967 0.61545 0.60612 0.0
N103 N 0.89737 0.59099 0.69764 0.0
N104 N 0.90029 0.59598 0.57223 0.0
H105 H 0.88323 0.56439 0.61997 0.0
H106 H 0.913 0.62478 0.72567 0.0
C107 C 0.93613 0.60501 0.8106 0.0
O108 O 0.93819 0.60022 0.74066 0.0
N109 N 0.87847 0.5661 0.89632 0.0
C110 C 0.86433 0.54544 0.91374 0.0
C111 C 0.86285 0.54349 0.9912 0.0
C112 C 0.88524 0.57649 0.96281 0.0
N113 N 0.87603 0.56303 0.02191 0.0
C114 C 0.88078 0.53878 0.73039 0.0
C115 C 0.91243 0.53548 0.80821 0.0
C116 C 0.8986 0.51861 0.76038 0.0
C117 C 0.88278 0.52057 0.7206 0.0
C118 C 0.90986 0.5535 0.81639 0.0
N119 N 0.89457 0.55537 0.77601 0.0
H120 H 0.86734 0.53892 0.70369 0.0
H121 H 0.91934 0.56513 0.85901 0.0
H122 H 0.85587 0.53267 0.87303 0.0
H123 H 0.89703 0.59345 0.96773 0.0
O124 O 0.85852 0.56387 0.76338 0.0
O125 O 0.87562 0.59666 0.81307 0.0
O126 O 0.91749 0.59773 0.84009 0.0
C127 C 0.85797 0.58094 0.78452 0.0
H128 H 0.91727 0.63087 0.57759 0.0
H129 H 0.85277 0.52882 0.02239 0.0
H130 H 0.92431 0.53424 0.84233 0.0
H131 H 0.87153 0.5078 0.68381 0.0
Co132 Co 0.30595 0.89011 0.30293 0.0
C133 C 0.30741 0.89442 0.13524 0.0
C134 C 0.29381 0.91176 0.18836 0.0
C135 C 0.29242 0.91331 0.11126 0.0
N136 N 0.30365 0.90028 0.20351 0.0
N137 N 0.30088 0.90227 0.07807 0.0
H138 H 0.31403 0.88403 0.1267 0.0
H139 H 0.28746 0.91799 0.23064 0.0
C140 C 0.32876 0.93821 0.31865 0.0
O141 O 0.33625 0.94015 0.24968 0.0
N142 N 0.30753 0.87982 0.40183 0.0
C143 C 0.31292 0.86482 0.41914 0.0
C144 C 0.31283 0.86293 0.49658 0.0
C145 C 0.30412 0.88676 0.4683 0.0
N146 N 0.30735 0.87679 0.52742 0.0
C147 C 0.33845 0.88266 0.2372 0.0
C148 C 0.37276 0.91351 0.31973 0.0
C149 C 0.37641 0.90068 0.26896 0.0
C150 C 0.3589 0.88506 0.22744 0.0
C151 C 0.35209 0.91061 0.32755 0.0
N152 N 0.33531 0.89597 0.28419 0.0
H153 H 0.325 0.86934 0.20946 0.0
H154 H 0.34958 0.91948 0.37161 0.0
H155 H 0.31694 0.85614 0.37839 0.0
H156 H 0.29928 0.8988 0.47305 0.0
O157 O 0.29005 0.86088 0.26617 0.0
O158 O 0.27544 0.87892 0.31742 0.0
O159 O 0.31662 0.91962 0.34735 0.0
C160 C 0.27281 0.86126 0.28675 0.0
H161 H 0.28486 0.92107 0.08207 0.0
H162 H 0.31702 0.85253 0.52761 0.0
H163 H 0.38568 0.92542 0.35446 0.0
H164 H 0.36075 0.87408 0.19025 0.0
Co165 Co 0.41614 0.30642 0.78744 0.0
C166 C 0.41347 0.3077 0.62211 0.0
C167 C 0.38497 0.30461 0.67411 0.0
C168 C 0.38258 0.30423 0.59665 0.0
N169 N 0.40436 0.3068 0.68968 0.0
N170 N 0.40052 0.30614 0.56396 0.0
H171 H 0.42901 0.30878 0.61599 0.0
H172 H 0.37326 0.30301 0.71597 0.0
C173 C 0.4092 0.33619 0.88405 0.0
O174 O 0.42958 0.34472 0.90343 0.0
N175 N 0.42755 0.30525 0.88667 0.0
C176 C 0.44641 0.30637 0.90447 0.0
C177 C 0.44756 0.30477 0.9816 0.0
C178 C 0.41706 0.30172 0.95344 0.0
N179 N 0.42918 0.30212 0.01266 0.0
C180 C 0.46081 0.33476 0.75107 0.0
C181 C 0.45838 0.37184 0.735 0.0
C182 C 0.47874 0.37345 0.73339 0.0
C183 C 0.47961 0.35433 0.73793 0.0
C184 C 0.43994 0.35179 0.74684 0.0
N185 N 0.44156 0.33393 0.76194 0.0
H186 H 0.46179 0.32024 0.75175 0.0
H187 H 0.42439 0.3508 0.74578 0.0
H188 H 0.45848 0.30772 0.86514 0.0
H189 H 0.40104 0.29953 0.9586 0.0
O190 O 0.42534 0.28738 0.74722 0.0
O191 O 0.39369 0.27681 0.80227 0.0
O192 O 0.40108 0.32109 0.83481 0.0
C193 C 0.40678 0.2717 0.7693 0.0
H194 H 0.36864 0.30262 0.56695 0.0
H195 H 0.46091 0.30533 0.01216 0.0
H196 H 0.45662 0.38593 0.72935 0.0
H197 H 0.49469 0.35442 0.73155 0.0
Co198 Co 0.57386 0.8861 0.20384 0.0
C199 C 0.5768 0.89026 0.37217 0.0
C200 C 0.6074 0.90896 0.31806 0.0
C201 C 0.61056 0.91076 0.39497 0.0
N202 N 0.58614 0.89654 0.30351 0.0
N203 N 0.59128 0.89891 0.42891 0.0
H204 H 0.56 0.87896 0.38124 0.0
H205 H 0.6199 0.91565 0.27551 0.0
C206 C 0.59947 0.9339 0.18448 0.0
O207 O 0.59202 0.93594 0.24992 0.0
N208 N 0.56224 0.87555 0.10471 0.0
C209 C 0.54173 0.8608 0.08775 0.0
C210 C 0.53987 0.85852 0.01047 0.0
C211 C 0.57262 0.88196 0.03805 0.0
N212 N 0.5593 0.87188 0.97924 0.0
C213 C 0.53495 0.88154 0.26843 0.0
C214 C 0.5318 0.91078 0.1754 0.0
C215 C 0.51565 0.89959 0.22921 0.0
C216 C 0.51737 0.88476 0.27594 0.0
C217 C 0.5492 0.90715 0.17012 0.0
N218 N 0.55118 0.89335 0.21854 0.0
H219 H 0.53473 0.86859 0.29987 0.0
H220 H 0.56049 0.91478 0.12451 0.0
H221 H 0.52894 0.85262 0.12865 0.0
H222 H 0.58958 0.89372 0.03287 0.0
O223 O 0.55895 0.85705 0.2416 0.0
O224 O 0.59211 0.87341 0.19452 0.0
O225 O 0.59396 0.9152 0.15856 0.0
C226 C 0.57612 0.85616 0.22411 0.0
H227 H 0.62596 0.91928 0.42352 0.0
H228 H 0.52517 0.84825 0.97975 0.0
H229 H 0.53085 0.92198 0.13669 0.0
H230 H 0.5047 0.87492 0.31558 0.0
Co231 Co 0.68626 0.57798 0.71341 0.0
C232 C 0.68474 0.58104 0.88199 0.0
C233 C 0.69702 0.61158 0.82725 0.0
C234 C 0.6982 0.61483 0.90409 0.0
N235 N 0.6881 0.5903 0.81308 0.0
N236 N 0.69047 0.59558 0.93853 0.0
H237 H 0.6796 0.56435 0.89149 0.0
H238 H 0.70277 0.624 0.78442 0.0
C239 C 0.66275 0.60236 0.69681 0.0
O240 O 0.65421 0.59533 0.76375 0.0
N241 N 0.68521 0.56634 0.61423 0.0
C242 C 0.68039 0.54607 0.59777 0.0
C243 C 0.6801 0.54389 0.52048 0.0
C244 C 0.68798 0.5763 0.54717 0.0
N245 N 0.68482 0.5629 0.48873 0.0
C246 C 0.65342 0.5384 0.77843 0.0
C247 C 0.6204 0.53283 0.6837 0.0
C248 C 0.61665 0.51636 0.73479 0.0
C249 C 0.63343 0.51961 0.78359 0.0
C250 C 0.64058 0.55161 0.68139 0.0
N251 N 0.65678 0.55451 0.72955 0.0
H252 H 0.66655 0.53914 0.81033 0.0
H253 H 0.6435 0.56301 0.63689 0.0
H254 H 0.67698 0.53364 0.6391 0.0
H255 H 0.69164 0.59283 0.54132 0.0
O256 O 0.70145 0.56407 0.75031 0.0
O257 O 0.71707 0.59708 0.70233 0.0
O258 O 0.67589 0.59708 0.66878 0.0
C259 C 0.7191 0.58151 0.73172 0.0
H260 H 0.70456 0.63025 0.93214 0.0
H261 H 0.67667 0.5294 0.49013 0.0
H262 H 0.6083 0.5308 0.64273 0.0
H263 H 0.63151 0.50738 0.82378 0.0
Co264 Co 0.11013 0.68857 0.19517 0.0
C265 C 0.10656 0.68806 0.361 0.0
C266 C 0.08159 0.69176 0.30834 0.0
C267 C 0.07938 0.69206 0.38564 0.0
N268 N 0.09856 0.68914 0.29322 0.0
N269 N 0.09515 0.68981 0.41864 0.0
H270 H 0.12044 0.68599 0.36776 0.0
H271 H 0.07173 0.69367 0.26627 0.0
C272 C 0.07062 0.65834 0.10944 0.0
O273 O 0.08003 0.64714 0.09284 0.0
N274 N 0.12208 0.68893 0.09529 0.0
C275 C 0.14205 0.69264 0.07817 0.0
C276 C 0.1447 0.69402 1.00104 0.0
C277 C 0.11353 0.68954 0.02775 0.0
N278 N 0.12667 0.69196 0.96919 0.0
C279 C 0.12322 0.65679 0.21316 0.0
C280 C 0.08372 0.62361 0.26096 0.0
C281 C 0.10041 0.61931 0.246 0.0
C282 C 0.12054 0.63634 0.22408 0.0
C283 C 0.08706 0.64434 0.24822 0.0
N284 N 0.10624 0.66028 0.21974 0.0
H285 H 0.13904 0.66979 0.19995 0.0
H286 H 0.07392 0.64737 0.2585 0.0
H287 H 0.15452 0.69549 0.11837 0.0
H288 H 0.0985 0.68946 0.02148 0.0
O289 O 0.13872 0.70616 0.23517 0.0
O290 O 0.11908 0.71862 0.18092 0.0
O291 O 0.0803 0.67543 0.14962 0.0
C292 C 0.13696 0.72258 0.21385 0.0
H293 H 0.06744 0.69436 0.41515 0.0
H294 H 0.15902 0.69674 0.97115 0.0
H295 H 0.06806 0.61094 0.27965 0.0
H296 H 0.13412 0.63384 0.21549 0.0
Co297 Co 0.41766 0.10942 0.71575 0.0
C298 C 0.41433 0.10638 0.88111 0.0
C299 C 0.38555 0.08142 0.82903 0.0
C300 C 0.38299 0.07959 0.90643 0.0
N301 N 0.40523 0.09817 0.81358 0.0
N302 N 0.40109 0.09537 0.93906 0.0
H303 H 0.43036 0.12015 0.88738 0.0
H304 H 0.37377 0.07147 0.78711 0.0
C305 C 0.40918 0.0708 0.62659 0.0
O306 O 0.42972 0.08097 0.6084 0.0
N307 N 0.42964 0.12093 0.61628 0.0
C308 C 0.44841 0.13865 0.5975 0.0
C309 C 0.44941 0.14099 0.52014 0.0
C310 C 0.41914 0.11347 0.54995 0.0
N311 N 0.43103 0.125 0.4902 0.0
C312 C 0.46207 0.12403 0.75241 0.0
C313 C 0.45698 0.08374 0.77931 0.0
C314 C 0.47777 0.10174 0.77942 0.0
C315 C 0.48015 0.12218 0.76877 0.0
C316 C 0.43932 0.08643 0.76433 0.0
N317 N 0.4422 0.10615 0.74427 0.0
H318 H 0.46407 0.1399 0.74735 0.0
H319 H 0.42333 0.0725 0.76725 0.0
H320 H 0.46039 0.14975 0.63627 0.0
H321 H 0.40286 0.10003 0.54564 0.0
O322 O 0.42785 0.13816 0.75336 0.0
O323 O 0.39616 0.11767 0.69774 0.0
O324 O 0.40156 0.0795 0.67068 0.0
C325 C 0.40958 0.13584 0.73006 0.0
H326 H 0.36866 0.06791 0.93615 0.0
H327 H 0.46274 0.1535 0.48859 0.0
H328 H 0.45442 0.06777 0.79082 0.0
H329 H 0.49589 0.13658 0.77136 0.0
Co330 Co 0.30336 0.41266 0.19215 0.0
C331 C 0.30362 0.40937 0.36097 0.0
C332 C 0.28866 0.37863 0.30603 0.0
C333 C 0.28719 0.37531 0.3828 0.0
N334 N 0.29933 0.40001 0.29214 0.0
N335 N 0.29663 0.39468 0.4173 0.0
H336 H 0.3107 0.42639 0.37056 0.0
H337 H 0.28217 0.36626 0.26299 0.0
C338 C 0.3257 0.38725 0.18654 0.0
O339 O 0.33319 0.39501 0.25402 0.0
N340 N 0.30656 0.42466 0.09259 0.0
C341 C 0.31295 0.44533 0.07569 0.0
C342 C 0.31381 0.44752 0.99841 0.0
C343 C 0.30341 0.41448 0.02589 0.0
N344 N 0.30783 0.42812 0.96722 0.0
C345 C 0.3366 0.45156 0.26088 0.0
C346 C 0.3707 0.45392 0.17996 0.0
C347 C 0.37479 0.47022 0.2322 0.0
C348 C 0.35733 0.46894 0.27247 0.0
C349 C 0.34969 0.43689 0.16992 0.0
N350 N 0.33302 0.43516 0.21301 0.0
H351 H 0.32331 0.45195 0.28784 0.0
H352 H 0.34685 0.42562 0.12497 0.0
H353 H 0.31686 0.45793 0.11675 0.0
H354 H 0.2984 0.39757 0.02054 0.0
O355 O 0.28873 0.42766 0.22384 0.0
O356 O 0.27261 0.39465 0.17562 0.0
O357 O 0.31316 0.39246 0.15297 0.0
C358 C 0.27096 0.41064 0.20317 0.0
H359 H 0.27969 0.35981 0.41079 0.0
H360 H 0.3183 0.46222 0.96764 0.0
H361 H 0.38354 0.45445 0.146 0.0
H362 H 0.35946 0.48174 0.31032 0.0
Co363 Co 0.88958 0.30856 0.72285 0.0
C364 C 0.89196 0.30766 0.89101 0.0
C365 C 0.91535 0.30183 0.83765 0.0
C366 C 0.91681 0.30004 0.91447 0.0
N367 N 0.90025 0.30734 0.82277 0.0
N368 N 0.90205 0.3037 0.94791 0.0
H369 H 0.87819 0.30967 0.89934 0.0
H370 H 0.92416 0.29842 0.7955 0.0
C371 C 0.93716 0.33331 0.70018 0.0
O372 O 0.93855 0.34445 0.761 0.0
N373 N 0.87889 0.30898 0.62344 0.0
C374 C 0.86342 0.31365 0.60543 0.0
C375 C 0.86119 0.31281 0.52807 0.0
C376 C 0.88579 0.30525 0.55747 0.0
N377 N 0.87533 0.3076 0.49806 0.0
C378 C 0.88518 0.34269 0.78983 0.0
C379 C 0.91094 0.37449 0.68811 0.0
C380 C 0.90027 0.37927 0.74453 0.0
C381 C 0.88736 0.36308 0.79602 0.0
C382 C 0.90825 0.35379 0.68386 0.0
N383 N 0.89611 0.33832 0.73611 0.0
H384 H 0.87354 0.33016 0.82542 0.0
H385 H 0.91522 0.35 0.63636 0.0
H386 H 0.85468 0.31777 0.64566 0.0
H387 H 0.8982 0.30089 0.55317 0.0
O388 O 0.86053 0.29425 0.76026 0.0
O389 O 0.87725 0.2776 0.71492 0.0
O390 O 0.91888 0.31806 0.678 0.0
C391 C 0.85979 0.27625 0.74317 0.0
H392 H 0.92726 0.29546 0.94315 0.0
H393 H 0.85041 0.31637 0.49641 0.0
H394 H 0.92039 0.38627 0.64533 0.0
H395 H 0.87843 0.3659 0.83954 0.0
H396 H 0.02606 0.40455 0.35024 0.0
H397 H 0.94795 0.30924 0.60958 0.0
H398 H 0.04635 0.35967 0.41943 0.0
H399 H 0.96812 0.37475 0.67354 0.0
H400 H 0.97756 0.32299 0.51669 0.0
H401 H -0.00287 0.38895 0.44458 0.0
C402 C 0.02416 0.39115 0.38436 0.0
C403 C 0.03847 0.38327 0.37717 0.0
C404 C 0.9755 0.33422 0.55177 0.0
C405 C 0.00551 0.36541 0.48382 0.0
C406 C 0.95873 0.32646 0.60444 0.0
C407 C 0.95584 0.34093 0.64949 0.0
C408 C 0.98878 0.35653 0.54262 0.0
C409 C 0.97004 0.3631 0.64052 0.0
C410 C 0.00784 0.38245 0.43837 0.0
C411 C 0.03556 0.36613 0.42353 0.0
N412 N 0.98573 0.37026 0.58713 0.0
N413 N 0.01922 0.35757 0.47477 0.0
H414 H 0.63713 0.01949 0.80384 0.0
H415 H 0.61998 0.97645 0.22539 0.0
H416 H 0.67115 0.06082 0.99233 0.0
H417 H 0.60635 0.93477 0.03237 0.0
H418 H 0.63746 0.00775 0.14151 0.0
H419 H 0.62414 0.98815 0.88706 0.0
C420 C 0.64196 0.02196 0.8626 0.0
C421 C 0.65519 0.04278 0.89125 0.0
C422 C 0.63082 0.99174 0.11773 0.0
C423 C 0.64023 0.00709 0.98678 0.0
C424 C 0.62081 0.97389 0.1655 0.0
C425 C 0.61167 0.95298 0.13582 0.0
C426 C 0.63135 0.98863 0.03964 0.0
C427 C 0.61324 0.95059 0.05776 0.0
C428 C 0.63461 0.00408 0.90997 0.0
C429 C 0.66103 0.04505 0.96781 0.0
N430 N 0.62267 0.96819 0.01226 0.0
N431 N 0.65332 0.02744 0.01313 0.0
H432 H 0.64912 0.63003 0.74182 0.0
H433 H 0.58244 0.61856 0.38354 0.0
H434 H 0.65751 0.59979 0.54411 0.0
H435 H 0.61432 0.67988 0.49775 0.0
H436 H 0.60612 0.60822 0.44949 0.0
H437 H 0.63252 0.64592 0.66224 0.0
C438 C 0.64763 0.62693 0.68163 0.0
C439 C 0.65465 0.61364 0.64928 0.0
C440 C 0.60811 0.62405 0.45912 0.0
C441 C 0.6354 0.63121 0.5591 0.0
C442 C 0.59467 0.6299 0.42178 0.0
C443 C 0.59671 0.65009 0.43516 0.0
C444 C 0.62305 0.63821 0.5121 0.0
C445 C 0.61253 0.66425 0.48569 0.0
C446 C 0.6383 0.63604 0.63644 0.0
C447 C 0.6524 0.61007 0.57106 0.0
N448 N 0.62489 0.65787 0.52369 0.0
N449 N 0.64256 0.61848 0.5287 0.0
H450 H 0.0596 0.6846 0.0341 0.0
H451 H 0.93816 0.59757 0.96015 0.0
H452 H 0.03508 0.61859 0.10217 0.0
H453 H 0.97743 0.6355 0.77306 0.0
H454 H 0.9706 0.61209 0.03899 0.0
H455 H 0.02604 0.67332 0.96279 0.0
C456 C 0.04696 0.66784 0.03507 0.0
C457 C 0.04989 0.65242 0.07378 0.0
C458 C 0.97197 0.61738 0.98092 0.0
C459 C 0.01182 0.63971 0.99459 0.0
C460 C 0.95356 0.60924 0.93606 0.0
C461 C 0.95523 0.61533 0.85995 0.0
C462 C 0.99201 0.63216 0.95005 0.0
C463 C 0.97557 0.63035 0.83139 0.0
C464 C 0.02803 0.66146 0.99422 0.0
C465 C 0.0333 0.63087 0.0728 0.0
N466 N 0.99326 0.63839 0.87671 0.0
N467 N 0.01481 0.62513 0.03422 0.0
H468 H 0.41403 0.03564 0.62118 0.0
H469 H 0.34038 0.97954 0.2798 0.0
H470 H 0.37231 0.05945 0.54861 0.0
H471 H 0.33729 0.94015 0.46901 0.0
H472 H 0.35752 0.01151 0.3622 0.0
H473 H 0.3915 0.0021 0.5507 0.0
C474 C 0.39999 0.03364 0.59089 0.0
C475 C 0.39476 0.05003 0.59083 0.0
C476 C 0.35282 0.99577 0.38541 0.0
C477 C 0.3697 0.0125 0.50881 0.0
C478 C 0.34318 0.97765 0.33867 0.0
C479 C 0.33744 0.95729 0.3679 0.0
C480 C 0.35734 0.99347 0.46074 0.0
C481 C 0.34138 0.95558 0.44451 0.0
C482 C 0.38722 0.01463 0.55106 0.0
C483 C 0.3766 0.04695 0.55042 0.0
N484 N 0.3515 0.97354 0.48811 0.0
N485 N 0.36486 0.02862 0.5096 0.0
H486 H 0.36871 0.32884 0.84682 0.0
H487 H 0.35575 0.37739 0.23645 0.0
H488 H 0.41808 0.35737 0.01798 0.0
H489 H 0.31732 0.37186 0.04074 0.0
H490 H 0.37458 0.36325 0.16261 0.0
H491 H 0.34606 0.33878 0.92194 0.0
C492 C 0.37478 0.3372 0.89997 0.0
C493 C 0.39536 0.34245 0.92596 0.0
C494 C 0.36195 0.36502 0.13587 0.0
C495 C 0.36954 0.35339 0.01215 0.0
C496 C 0.35109 0.373 0.17811 0.0
C497 C 0.33508 0.37605 0.14455 0.0
C498 C 0.35673 0.35991 0.05946 0.0
C499 C 0.32967 0.3699 0.06875 0.0
C500 C 0.36188 0.34284 0.94264 0.0
C501 C 0.40244 0.35321 0.99527 0.0
N502 N 0.34058 0.36221 0.02847 0.0
N503 N 0.38952 0.35822 0.03599 0.0
H504 H 0.10998 0.59821 0.1393 0.0
H505 H 0.08934 0.49983 0.3999 0.0
H506 H 0.0829 0.59024 0.3624 0.0
H507 H 0.09173 0.49774 0.1565 0.0
H508 H 0.08839 0.5334 0.3906 0.0
H509 H 0.10558 0.56219 0.14763 0.0
C510 C 0.1031 0.58881 0.19009 0.0
C511 C 0.09691 0.59718 0.25046 0.0
C512 C 0.08893 0.52544 0.33933 0.0
C513 C 0.09188 0.556 0.26058 0.0
C514 C 0.08936 0.50619 0.34445 0.0
C515 C 0.09081 0.49593 0.27883 0.0
C516 C 0.09023 0.53464 0.26823 0.0
C517 C 0.09114 0.50526 0.20873 0.0
C518 C 0.10046 0.56822 0.19465 0.0
C519 C 0.08783 0.58428 0.31466 0.0
N520 N 0.09108 0.52416 0.20535 0.0
N521 N 0.08579 0.56436 0.31845 0.0
H522 H 0.48744 0.0749 0.70137 0.0
H523 H 0.5965 0.10768 0.9225 0.0
H524 H 0.51166 0.12306 0.87695 0.0
H525 H 0.587 0.0872 0.68989 0.0
H526 H 0.56185 0.10694 0.92012 0.0
H527 H 0.52047 0.07267 0.71032 0.0
C528 C 0.49962 0.0848 0.74241 0.0
C529 C 0.49692 0.09921 0.78844 0.0
C530 C 0.56734 0.10253 0.86979 0.0
C531 C 0.53451 0.09668 0.79913 0.0
C532 C 0.58697 0.10282 0.87123 0.0
C533 C 0.59451 0.09749 0.80624 0.0
C534 C 0.55503 0.09648 0.80334 0.0
C535 C 0.58173 0.09151 0.74097 0.0
C536 C 0.51847 0.08363 0.74709 0.0
C537 C 0.51324 0.11186 0.84019 0.0
N538 N 0.56252 0.09106 0.74123 0.0
N539 N 0.53135 0.11024 0.84438 0.0
H540 H 0.50162 0.58213 0.15854 0.0
H541 H 0.39433 0.4919 0.36239 0.0
H542 H 0.4805 0.58967 0.37867 0.0
H543 H 0.40549 0.49188 0.12278 0.0
H544 H 0.42924 0.52477 0.37481 0.0
H545 H 0.46978 0.54584 0.15036 0.0
C546 C 0.4904 0.57602 0.20538 0.0
C547 C 0.49348 0.5889 0.26901 0.0
C548 C 0.42409 0.51749 0.31959 0.0
C549 C 0.45729 0.54767 0.2603 0.0
C550 C 0.40411 0.49876 0.31237 0.0
C551 C 0.39679 0.48917 0.24132 0.0
C552 C 0.43697 0.52672 0.25538 0.0
C553 C 0.41047 0.49856 0.17881 0.0
C554 C 0.47223 0.55542 0.20059 0.0
C555 C 0.4785 0.58033 0.32816 0.0
N556 N 0.42984 0.51689 0.18723 0.0
N557 N 0.46104 0.56029 0.32231 0.0
H558 H 0.86454 0.47753 0.76343 0.0
H559 H 0.93536 0.4199 0.72609 0.0
H560 H 0.93405 0.51327 0.7511 0.0
H561 H 0.86667 0.38652 0.76511 0.0
H562 H 0.93562 0.45432 0.72894 0.0
H563 H 0.86539 0.44405 0.75788 0.0
C564 C 0.88002 0.47834 0.75884 0.0
C565 C 0.89925 0.49825 0.75697 0.0
C566 C 0.92053 0.43944 0.73711 0.0
C567 C 0.90038 0.45979 0.75171 0.0
C568 C 0.92037 0.41982 0.73517 0.0
C569 C 0.901 0.40034 0.74608 0.0
C570 C 0.90116 0.43949 0.74933 0.0
C571 C 0.88204 0.40115 0.75788 0.0
C572 C 0.88051 0.45917 0.75626 0.0
C573 C 0.91885 0.49825 0.7529 0.0
N574 N 0.88261 0.42035 0.75908 0.0
N575 N 0.91892 0.47929 0.75015 0.0
H576 H 0.49204 0.90246 0.11243 0.0
H577 H 0.40439 0.90606 0.38353 0.0
H578 H 0.49513 0.90229 0.35571 0.0
H579 H 0.39745 0.89928 0.14145 0.0
H580 H 0.43926 0.90792 0.37347 0.0
H581 H 0.45907 0.90459 0.12113 0.0
C582 C 0.48593 0.90313 0.1677 0.0
C583 C 0.49635 0.90216 0.23349 0.0
C584 C 0.43017 0.9061 0.32247 0.0
C585 C 0.45847 0.90434 0.24384 0.0
C586 C 0.4103 0.9052 0.32811 0.0
C587 C 0.39797 0.90254 0.26317 0.0
C588 C 0.43785 0.90438 0.25136 0.0
C589 C 0.40632 0.90111 0.19304 0.0
C590 C 0.46701 0.90418 0.17261 0.0
C591 C 0.48749 0.90275 0.30356 0.0
N592 N 0.42573 0.90203 0.18899 0.0
N593 N 0.46906 0.90376 0.30688 0.0
H594 H 0.48607 0.41055 0.65896 0.0
H595 H 0.61115 0.47597 0.75689 0.0
H596 H 0.5177 0.38536 0.79974 0.0
H597 H 0.57531 0.50829 0.70652 0.0
H598 H 0.57767 0.44162 0.75507 0.0
H599 H 0.51933 0.44561 0.65868 0.0
C600 C 0.49989 0.4123 0.68994 0.0
C601 C 0.49895 0.39478 0.72928 0.0
C602 C 0.57713 0.45624 0.74472 0.0
C603 C 0.53714 0.43479 0.72763 0.0
C604 C 0.59625 0.47596 0.74638 0.0
C605 C 0.59615 0.49526 0.73313 0.0
C606 C 0.55765 0.4556 0.72848 0.0
C607 C 0.57627 0.4939 0.71676 0.0
C608 C 0.51888 0.43232 0.68943 0.0
C609 C 0.51763 0.3981 0.76715 0.0
N610 N 0.55781 0.47439 0.71479 0.0
N611 N 0.53591 0.41763 0.76511 0.0
H612 H 0.12872 0.46019 0.63999 0.0
H613 H 0.08283 0.37074 0.96575 0.0
H614 H 0.10102 0.3921 0.59682 0.0
H615 H 0.10757 0.4386 1.00513 0.0
H616 H 0.08965 0.37811 0.83096 0.0
H617 H 0.12177 0.45251 0.77425 0.0
C618 C 0.12132 0.44362 0.65865 0.0
C619 C 0.11555 0.42678 0.60671 0.0
C620 C 0.09359 0.39139 0.86914 0.0
C621 C 0.10727 0.41782 0.76107 0.0
C622 C 0.08959 0.38718 0.94625 0.0
C623 C 0.09464 0.40408 0.99733 0.0
C624 C 0.10271 0.41265 0.84262 0.0
C625 C 0.10369 0.42509 0.96835 0.0
C626 C 0.11721 0.43922 0.73549 0.0
C627 C 0.10558 0.40558 0.63452 0.0
N628 N 0.10742 0.42876 0.89311 0.0
N629 N 0.1018 0.40171 0.70977 0.0
H630 H 0.69927 0.13446 0.52887 0.0
H631 H 0.68238 0.08747 0.109 0.0
H632 H 0.68328 0.0692 0.47765 0.0
H633 H 0.69851 0.15274 0.16071 0.0
H634 H 0.68374 0.08078 0.24331 0.0
H635 H 0.69971 0.14162 0.39419 0.0
C636 C 0.69572 0.12157 0.48946 0.0
C637 C 0.69109 0.10112 0.5149 0.0
C638 C 0.68704 0.0966 0.22529 0.0
C639 C 0.69184 0.10933 0.36002 0.0
C640 C 0.68642 0.10048 0.14839 0.0
C641 C 0.69034 0.12073 0.12325 0.0
C642 C 0.69163 0.11306 0.27768 0.0
C643 C 0.6951 0.13682 0.17741 0.0
C644 C 0.69613 0.12573 0.41236 0.0
C645 C 0.68711 0.08523 0.46071 0.0
N646 N 0.69559 0.13263 0.25198 0.0
N647 N 0.6875 0.08965 0.38591 0.0
H648 H 0.58057 0.67185 0.60939 0.0
H649 H 0.5562 0.6952 0.02884 0.0
H650 H 0.54167 0.70084 0.6601 0.0
H651 H 0.60207 0.67465 0.97735 0.0
H652 H 0.54952 0.69589 0.89405 0.0
H653 H 0.58799 0.67189 0.74369 0.0
C654 C 0.57373 0.67843 0.64844 0.0
C655 C 0.56046 0.68639 0.62287 0.0
C656 C 0.56106 0.69124 0.91218 0.0
C657 C 0.56863 0.6861 0.77745 0.0
C658 C 0.56476 0.69068 0.98925 0.0
C659 C 0.57969 0.6848 0.01454 0.0
C660 C 0.57228 0.68577 0.8598 0.0
C661 C 0.59059 0.67947 0.96039 0.0
C662 C 0.57789 0.67831 0.72536 0.0
C663 C 0.55175 0.69429 0.67683 0.0
N664 N 0.58662 0.68003 0.88561 0.0
N665 N 0.55595 0.69389 0.75144 0.0
H666 H 0.89333 0.55928 0.50182 0.0
H667 H 0.88887 0.60184 0.08816 0.0
H668 H 0.9013 0.6222 0.45875 0.0
H669 H 0.87231 0.5363 0.13691 0.0
H670 H 0.8957 0.61039 0.22249 0.0
H671 H 0.88758 0.55133 0.36736 0.0
C672 C 0.89377 0.57142 0.46435 0.0
C673 C 0.89765 0.59142 0.49225 0.0
C674 C 0.89055 0.59413 0.20378 0.0
C675 C 0.89137 0.58246 0.33728 0.0
C676 C 0.88676 0.58926 0.12698 0.0
C677 C 0.87996 0.56829 0.10106 0.0
C678 C 0.88765 0.57796 0.25514 0.0
C679 C 0.87723 0.55259 0.15429 0.0
C680 C 0.89059 0.56688 0.38731 0.0
C681 C 0.89854 0.60665 0.44017 0.0
N682 N 0.88112 0.55776 0.22865 0.0
N683 N 0.89538 0.60184 0.36531 0.0
H684 H 0.31095 0.91293 0.59253 0.0
H685 H 0.29945 0.86727 0.01247 0.0
H686 H 0.30065 0.84956 0.64446 0.0
H687 H 0.30336 0.92803 0.96144 0.0
H688 H 0.30089 0.86106 0.87787 0.0
H689 H 0.30881 0.9191 0.72692 0.0
C690 C 0.30807 0.90022 0.63191 0.0
C691 C 0.30595 0.88064 0.6067 0.0
C692 C 0.30143 0.87576 0.89598 0.0
C693 C 0.30379 0.88779 0.76126 0.0
C694 C 0.30077 0.87941 0.97303 0.0
C695 C 0.30143 0.8983 0.99848 0.0
C696 C 0.30283 0.89113 0.84363 0.0
C697 C 0.30265 0.91319 0.94436 0.0
C698 C 0.30697 0.90383 0.70885 0.0
C699 C 0.30265 0.86499 0.661 0.0
N700 N 0.30339 0.90933 0.86952 0.0
N701 N 0.3017 0.86891 0.73555 0.0
H702 H 0.43955 0.32201 0.49491 0.0
H703 H 0.38968 0.28645 0.07935 0.0
H704 H 0.37118 0.28939 0.44928 0.0
H705 H 0.45773 0.31731 0.12946 0.0
H706 H 0.38241 0.28753 0.2137 0.0
H707 H 0.44629 0.32042 0.36088 0.0
C708 C 0.4259 0.3144 0.457 0.0
C709 C 0.40472 0.30575 0.48414 0.0
C710 C 0.39892 0.29399 0.1952 0.0
C711 C 0.41242 0.30408 0.3293 0.0
C712 C 0.40312 0.29345 0.11824 0.0
C713 C 0.42439 0.30174 0.09233 0.0
C714 C 0.4161 0.30294 0.24697 0.0
C715 C 0.44105 0.3104 0.14622 0.0
C716 C 0.42979 0.3136 0.3801 0.0
C717 C 0.38779 0.29648 0.43134 0.0
N718 N 0.43655 0.3108 0.22059 0.0
N719 N 0.392 0.29587 0.35666 0.0
H720 H 0.61458 0.92554 0.54372 0.0
H721 H 0.5384 0.84405 0.86412 0.0
H722 H 0.55871 0.86358 0.49733 0.0
H723 H 0.5918 0.90757 0.9118 0.0
H724 H 0.54638 0.85057 0.72974 0.0
H725 H 0.60743 0.91882 0.67893 0.0
C726 C 0.60087 0.91049 0.56189 0.0
C727 C 0.5872 0.89515 0.50885 0.0
C728 C 0.55639 0.86309 0.76958 0.0
C729 C 0.57883 0.88738 0.66371 0.0
C730 C 0.55177 0.8594 0.84649 0.0
C731 C 0.56438 0.87529 0.89974 0.0
C732 C 0.57377 0.88282 0.74531 0.0
C733 C 0.58176 0.89474 0.87318 0.0
C734 C 0.59673 0.90671 0.63912 0.0
C735 C 0.5695 0.87603 0.53582 0.0
N736 N 0.5859 0.89796 0.79791 0.0
N737 N 0.56586 0.8727 0.61123 0.0
H738 H 0.66335 0.53456 0.37557 0.0
H739 H 0.71408 0.62383 0.05022 0.0
H740 H 0.70753 0.60191 0.41957 0.0
H741 H 0.6648 0.55771 0.01121 0.0
H742 H 0.71249 0.61615 0.18503 0.0
H743 H 0.66464 0.54266 0.24136 0.0
C744 C 0.67345 0.55105 0.35707 0.0
C745 C 0.68542 0.56756 0.40919 0.0
C746 C 0.70202 0.60333 0.14691 0.0
C747 C 0.6868 0.57701 0.25502 0.0
C748 C 0.70283 0.60773 0.06974 0.0
C749 C 0.6896 0.59139 0.01868 0.0
C750 C 0.68791 0.58243 0.17352 0.0
C751 C 0.67557 0.57076 0.04785 0.0
C752 C 0.67405 0.55569 0.28031 0.0
C753 C 0.69789 0.58869 0.38169 0.0
N754 N 0.67513 0.56688 0.12311 0.0
N755 N 0.6983 0.5928 0.30653 0.0
H756 H 0.06626 0.67782 0.53368 0.0
H757 H 0.15591 0.70877 0.85437 0.0
H758 H 0.13371 0.70243 0.48662 0.0
H759 H 0.08753 0.67614 0.90057 0.0
H760 H 0.14818 0.70817 0.72017 0.0
H761 H 0.07386 0.67883 0.66871 0.0
C762 C 0.08268 0.68351 0.55167 0.0
C763 C 0.09935 0.69002 0.49849 0.0
C764 C 0.13487 0.70116 0.75969 0.0
C765 C 0.10819 0.69116 0.6533 0.0
C766 C 0.13926 0.70141 0.83663 0.0
C767 C 0.12238 0.69244 0.88957 0.0
C768 C 0.11342 0.69193 0.73497 0.0
C769 C 0.10114 0.68349 0.86244 0.0
C770 C 0.08699 0.68398 0.62883 0.0
C771 C 0.12029 0.69699 0.5253 0.0
N772 N 0.09728 0.68345 0.7872 0.0
N773 N 0.12411 0.69743 0.60069 0.0
H774 H 0.42857 0.13389 1.00473 0.0
H775 H 0.40289 0.08652 0.4255 0.0
H776 H 0.38293 0.06742 0.05639 0.0
H777 H 0.44688 0.15338 0.37305 0.0
H778 H 0.39494 0.07926 0.29116 0.0
H779 H 0.43543 0.14124 0.13938 0.0
C780 C 0.42007 0.12077 0.04421 0.0
C781 C 0.40519 0.09995 0.01876 0.0
C782 C 0.40628 0.09554 0.30906 0.0
C783 C 0.41283 0.10836 0.17388 0.0
C784 C 0.41074 0.09975 0.386 0.0
C785 C 0.4256 0.12064 0.41109 0.0
C786 C 0.41676 0.11231 0.25642 0.0
C787 C 0.43553 0.13699 0.35663 0.0
C788 C 0.4239 0.12503 0.12134 0.0
C789 C 0.39438 0.08375 0.07316 0.0
N790 N 0.43095 0.13248 0.28208 0.0
N791 N 0.39845 0.08828 0.14799 0.0
H792 H 0.33119 0.45539 0.85414 0.0
H793 H 0.2715 0.36772 0.52928 0.0
H794 H 0.28205 0.38962 0.89876 0.0
H795 H 0.32575 0.43133 0.4894 0.0
H796 H 0.27462 0.37546 0.66432 0.0
H797 H 0.32867 0.44704 0.71979 0.0
C798 C 0.31978 0.43921 0.83568 0.0
C799 C 0.30674 0.42321 0.88789 0.0
C800 C 0.28585 0.38771 0.62596 0.0
C801 C 0.30388 0.41345 0.73382 0.0
C802 C 0.28415 0.38327 0.54871 0.0
C803 C 0.29834 0.39891 0.49742 0.0
C804 C 0.30182 0.40796 0.65233 0.0
C805 C 0.31421 0.41888 0.52632 0.0
C806 C 0.31845 0.4344 0.75891 0.0
C807 C 0.29254 0.4024 0.86067 0.0
N808 N 0.31548 0.42283 0.60168 0.0
N809 N 0.29143 0.39814 0.78547 0.0
H810 H 0.91233 0.31358 0.43291 0.0
H811 H 0.86406 0.29436 0.0144 0.0
H812 H 0.84709 0.29784 0.3822 0.0
H813 H 0.92966 0.31119 0.06404 0.0
H814 H 0.85728 0.29453 0.14915 0.0
H815 H 0.9186 0.31139 0.29863 0.0
C816 C 0.89924 0.30947 0.39372 0.0
C817 C 0.87912 0.30589 0.41908 0.0
C818 C 0.87316 0.29815 0.13063 0.0
C819 C 0.8863 0.30362 0.26482 0.0
C820 C 0.87709 0.2982 0.05348 0.0
C821 C 0.89754 0.30292 0.02757 0.0
C822 C 0.88977 0.30289 0.18252 0.0
C823 C 0.91362 0.30728 0.08135 0.0
C824 C 0.90289 0.30836 0.31688 0.0
C825 C 0.86292 0.301 0.36527 0.0
N826 N 0.90942 0.30724 0.1562 0.0
N827 N 0.86687 0.30002 0.29077 0.0
H828 H 0.17326 0.44635 0.23711 0.0
H829 H 0.23012 0.37533 0.19562 0.0
H830 H 0.13925 0.37813 0.28534 0.0
H831 H 0.26439 0.44427 0.2286 0.0
H832 H 0.19585 0.37511 0.21169 0.0
H833 H 0.20606 0.4449 0.21575 0.0
C834 C 0.17267 0.43101 0.243 0.0
C835 C 0.15352 0.41234 0.26337 0.0
C836 C 0.21092 0.39023 0.21537 0.0
C837 C 0.19114 0.41057 0.23876 0.0
C838 C 0.23042 0.39039 0.20591 0.0
C839 C 0.25007 0.40985 0.2109 0.0
C840 C 0.21122 0.40971 0.22864 0.0
C841 C 0.24962 0.42889 0.22462 0.0
C842 C 0.19145 0.43022 0.23102 0.0
C843 C 0.15374 0.39292 0.2701 0.0
N844 N 0.23052 0.42835 0.23269 0.0
N845 N 0.17231 0.3925 0.25767 0.0
H846 H 0.82016 0.27043 0.77468 0.0
H847 H 0.75946 0.14251 0.80479 0.0
H848 H 0.85327 0.23505 0.73147 0.0
H849 H 0.72733 0.17882 0.76132 0.0
H850 H 0.7944 0.17582 0.79088 0.0
H851 H 0.78633 0.23654 0.78525 0.0
C852 C 0.82034 0.25549 0.76773 0.0
C853 C 0.83956 0.25554 0.75208 0.0
C854 C 0.77966 0.17638 0.78402 0.0
C855 C 0.80075 0.21658 0.76413 0.0
C856 C 0.75976 0.15745 0.79208 0.0
C857 C 0.7405 0.15795 0.78436 0.0
C858 C 0.78018 0.19591 0.76938 0.0
C859 C 0.74177 0.17768 0.76771 0.0
C860 C 0.80097 0.23614 0.77336 0.0
C861 C 0.83877 0.23568 0.74341 0.0
N862 N 0.76125 0.19588 0.76137 0.0
N863 N 0.81963 0.21691 0.74986 0.0
H864 H 0.61124 0.85031 0.21606 0.0
H865 H 0.53953 0.72294 0.26107 0.0
H866 H 0.54272 0.81657 0.25912 0.0
H867 H 0.60793 0.75621 0.30629 0.0
H868 H 0.54135 0.75747 0.2437 0.0
H869 H 0.6113 0.81627 0.23444 0.0
C870 C 0.59626 0.83578 0.22937 0.0
C871 C 0.57693 0.83621 0.23598 0.0
C872 C 0.55599 0.75728 0.25754 0.0
C873 C 0.57688 0.79749 0.25621 0.0
C874 C 0.55499 0.73755 0.26714 0.0
C875 C 0.57362 0.73672 0.28531 0.0
C876 C 0.5758 0.77643 0.26532 0.0
C877 C 0.59319 0.7562 0.29262 0.0
C878 C 0.59633 0.81644 0.24007 0.0
C879 C 0.55799 0.81699 0.25357 0.0
N880 N 0.59381 0.77536 0.28228 0.0
N881 N 0.55843 0.79843 0.26258 0.0
H882 H 0.81785 0.54758 0.75672 0.0
H883 H 0.75967 0.61712 0.71866 0.0
H884 H 0.85247 0.61625 0.79609 0.0
H885 H 0.72648 0.54895 0.76754 0.0
H886 H 0.79431 0.61801 0.73324 0.0
H887 H 0.78453 0.54859 0.74513 0.0
C888 C 0.81844 0.56292 0.7628 0.0
C889 C 0.83793 0.58187 0.77751 0.0
C890 C 0.77939 0.60293 0.74104 0.0
C891 C 0.79974 0.58314 0.76404 0.0
C892 C 0.75968 0.6024 0.73252 0.0
C893 C 0.74021 0.58292 0.74177 0.0
C894 C 0.77947 0.5838 0.75768 0.0
C895 C 0.74108 0.56432 0.75993 0.0
C896 C 0.79938 0.56346 0.75649 0.0
C897 C 0.83772 0.60127 0.78504 0.0
N898 N 0.76035 0.5652 0.76677 0.0
N899 N 0.81886 0.60146 0.77782 0.0
H900 H 0.23846 0.84564 0.38238 0.0
H901 H 0.15297 0.75586 0.11367 0.0
H902 H 0.25858 0.83435 0.16591 0.0
H903 H 0.16148 0.73891 0.33948 0.0
H904 H 0.18542 0.79156 0.13046 0.0
H905 H 0.20327 0.8126 0.36531 0.0
C906 C 0.23531 0.83634 0.33097 0.0
C907 C 0.2513 0.84245 0.2756 0.0
C908 C 0.1799 0.78004 0.17641 0.0
C909 C 0.21136 0.80551 0.2551 0.0
C910 C 0.16147 0.75986 0.1671 0.0
C911 C 0.1548 0.74462 0.22531 0.0
C912 C 0.1911 0.78505 0.24514 0.0
C913 C 0.16633 0.75032 0.29332 0.0
C914 C 0.21539 0.8176 0.32147 0.0
C915 C 0.24663 0.82993 0.21004 0.0
N916 N 0.18393 0.77021 0.30169 0.0
N917 N 0.22695 0.81205 0.20122 0.0
H918 H 0.41268 0.2534 0.64447 0.0
H919 H 0.41917 0.16273 0.84985 0.0
H920 H 0.39001 0.23969 0.87429 0.0
H921 H 0.38913 0.14855 0.63036 0.0
H922 H 0.41333 0.19366 0.86017 0.0
H923 H 0.40858 0.2173 0.63512 0.0
C924 C 0.40654 0.2426 0.69247 0.0
C925 C 0.40156 0.24927 0.7601 0.0
C926 C 0.40778 0.18356 0.81031 0.0
C927 C 0.39757 0.20866 0.75065 0.0
C928 C 0.41122 0.1661 0.80417 0.0
C929 C 0.40463 0.15326 0.73913 0.0
C930 C 0.39841 0.18855 0.74984 0.0
C931 C 0.39434 0.15812 0.68146 0.0
C932 C 0.40416 0.2221 0.68705 0.0
C933 C 0.39379 0.23491 0.82106 0.0
N934 N 0.39194 0.17573 0.68739 0.0
N935 N 0.39249 0.21535 0.81554 0.0
loop_
_geom_bond_atom_site_label_1
_geom_bond_atom_site_label_2
_geom_bond_distance
_geom_bond_site_symmetry_2
_ccdc_geom_bond_type
Co0 N4 2.148 . S
Co0 N10 2.128 . S
Co0 N20 2.194 . S
Co0 O25 2.351 . S
Co0 O26 2.155 . S
Co0 O27 2.096 . S
C1 N4 1.301 . S
C1 N5 1.328 . S
C1 H6 0.930 . S
C2 C3 1.333 . S
C2 N4 1.317 . S
C2 H7 0.930 . S
C3 C2 1.333 . S
C3 N5 1.350 . S
C3 H29 0.931 . S
N4 Co0 2.148 . S
N4 C1 1.301 . S
N4 C2 1.317 . S
N5 C1 1.328 . S
N5 C3 1.350 . S
H6 C1 0.930 . S
H7 C2 0.930 . S
C8 O9 1.224 . S
C8 O27 1.247 . S
O9 C8 1.224 . S
N10 Co0 2.128 . S
N10 C11 1.355 . S
N10 C13 1.311 . S
C11 N10 1.355 . S
C11 C12 1.363 . S
C11 H23 0.929 . S
C12 C11 1.363 . S
C12 N14 1.375 . S
C12 H30 0.931 . S
C13 N10 1.311 . S
C13 N14 1.347 . S
C13 H24 0.929 . S
N14 C12 1.375 . S
N14 C13 1.347 . S
C15 C18 1.365 . S
C15 N20 1.328 . S
C15 H21 0.929 . S
C16 C17 1.362 . S
C16 C19 1.378 . S
C16 H31 0.929 . S
C17 C16 1.362 . S
C17 C18 1.366 . S
C18 C15 1.365 . S
C18 C17 1.366 . S
C18 H32 0.930 . S
C19 C16 1.378 . S
C19 N20 1.315 . S
C19 H22 0.930 . S
N20 Co0 2.194 . S
N20 C15 1.328 . S
N20 C19 1.315 . S
H21 C15 0.929 . S
H22 C19 0.930 . S
H23 C11 0.929 . S
H24 C13 0.929 . S
O25 Co0 2.351 . S
O25 C28 1.244 . S
O26 Co0 2.155 . S
O26 C28 1.240 . S
O27 Co0 2.096 . S
O27 C8 1.247 . S
C28 O25 1.244 . S
C28 O26 1.240 . S
H29 C3 0.931 . S
H30 C12 0.931 . S
H31 C16 0.929 . S
H32 C18 0.930 . S
Co33 N37 2.148 . S
Co33 N43 2.128 . S
Co33 N53 2.194 . S
Co33 O58 2.351 . S
Co33 O59 2.155 . S
Co33 O60 2.096 . S
C34 N37 1.301 . S
C34 N38 1.328 . S
C34 H39 0.930 . S
C35 C36 1.333 . S
C35 N37 1.317 . S
C35 H40 0.930 . S
C36 C35 1.333 . S
C36 N38 1.350 . S
C36 H62 0.931 . S
N37 Co33 2.148 . S
N37 C34 1.301 . S
N37 C35 1.317 . S
N38 C34 1.328 . S
N38 C36 1.350 . S
H39 C34 0.930 . S
H40 C35 0.930 . S
C41 O42 1.224 . S
C41 O60 1.247 . S
O42 C41 1.224 . S
N43 Co33 2.128 . S
N43 C44 1.355 . S
N43 C46 1.311 1_556 S
C44 N43 1.355 . S
C44 C45 1.363 1_556 S
C44 H56 0.929 . S
C45 C44 1.363 1_554 S
C45 N47 1.375 . S
C45 H63 0.931 . S
C46 N43 1.311 1_554 S
C46 N47 1.347 . S
C46 H57 0.929 . S
N47 C45 1.375 . S
N47 C46 1.347 . S
C48 C51 1.365 . S
C48 N53 1.328 . S
C48 H54 0.929 . S
C49 C50 1.362 . S
C49 C52 1.378 . S
C49 H64 0.929 . S
C50 C49 1.362 . S
C50 C51 1.366 . S
C51 C48 1.365 . S
C51 C50 1.366 . S
C51 H65 0.930 . S
C52 C49 1.378 . S
C52 N53 1.315 . S
C52 H55 0.930 . S
N53 Co33 2.194 . S
N53 C48 1.328 . S
N53 C52 1.315 . S
H54 C48 0.929 . S
H55 C52 0.930 . S
H56 C44 0.929 . S
H57 C46 0.929 . S
O58 Co33 2.351 . S
O58 C61 1.244 . S
O59 Co33 2.155 . S
O59 C61 1.240 . S
O60 Co33 2.096 . S
O60 C41 1.247 . S
C61 O58 1.244 . S
C61 O59 1.240 . S
H62 C36 0.931 . S
H63 C45 0.931 . S
H64 C49 0.929 . S
H65 C51 0.930 . S
Co66 N70 2.148 . S
Co66 N76 2.128 . S
Co66 N86 2.194 . S
Co66 O91 2.351 . S
Co66 O92 2.155 . S
Co66 O93 2.096 . S
C67 N70 1.301 . S
C67 N71 1.328 . S
C67 H72 0.930 . S
C68 C69 1.333 . S
C68 N70 1.317 . S
C68 H73 0.930 . S
C69 C68 1.333 . S
C69 N71 1.350 . S
C69 H95 0.931 . S
N70 Co66 2.148 . S
N70 C67 1.301 . S
N70 C68 1.317 . S
N71 C67 1.328 . S
N71 C69 1.350 . S
H72 C67 0.930 . S
H73 C68 0.930 . S
C74 O75 1.224 . S
C74 O93 1.247 . S
O75 C74 1.224 . S
N76 Co66 2.128 . S
N76 C77 1.355 . S
N76 C79 1.311 . S
C77 N76 1.355 . S
C77 C78 1.363 . S
C77 H89 0.929 . S
C78 C77 1.363 . S
C78 N80 1.375 . S
C78 H96 0.931 . S
C79 N76 1.311 . S
C79 N80 1.347 . S
C79 H90 0.929 . S
N80 C78 1.375 . S
N80 C79 1.347 . S
C81 C84 1.365 . S
C81 N86 1.328 . S
C81 H87 0.929 . S
C82 C83 1.362 . S
C82 C85 1.378 . S
C82 H97 0.929 . S
C83 C82 1.362 . S
C83 C84 1.366 . S
C84 C81 1.365 . S
C84 C83 1.366 . S
C84 H98 0.930 . S
C85 C82 1.378 . S
C85 N86 1.315 . S
C85 H88 0.930 . S
N86 Co66 2.194 . S
N86 C81 1.328 . S
N86 C85 1.315 . S
H87 C81 0.929 . S
H88 C85 0.930 . S
H89 C77 0.929 . S
H90 C79 0.929 . S
O91 Co66 2.351 . S
O91 C94 1.244 . S
O92 Co66 2.155 . S
O92 C94 1.240 . S
O93 Co66 2.096 . S
O93 C74 1.247 . S
C94 O91 1.244 . S
C94 O92 1.240 . S
H95 C69 0.931 . S
H96 C78 0.931 . S
H97 C82 0.929 . S
H98 C84 0.930 . S
Co99 N103 2.148 . S
Co99 N109 2.128 . S
Co99 N119 2.194 . S
Co99 O124 2.351 . S
Co99 O125 2.155 . S
Co99 O126 2.096 . S
C100 N103 1.301 . S
C100 N104 1.328 . S
C100 H105 0.930 . S
C101 C102 1.333 . S
C101 N103 1.317 . S
C101 H106 0.930 . S
C102 C101 1.333 . S
C102 N104 1.350 . S
C102 H128 0.931 . S
N103 Co99 2.148 . S
N103 C100 1.301 . S
N103 C101 1.317 . S
N104 C100 1.328 . S
N104 C102 1.350 . S
H105 C100 0.930 . S
H106 C101 0.930 . S
C107 O108 1.224 . S
C107 O126 1.247 . S
O108 C107 1.224 . S
N109 Co99 2.128 . S
N109 C110 1.355 . S
N109 C112 1.311 1_556 S
C110 N109 1.355 . S
C110 C111 1.363 1_556 S
C110 H122 0.929 . S
C111 C110 1.363 1_554 S
C111 N113 1.375 . S
C111 H129 0.931 . S
C112 N109 1.311 1_554 S
C112 N113 1.347 . S
C112 H123 0.929 . S
N113 C111 1.375 . S
N113 C112 1.347 . S
C114 C117 1.365 . S
C114 N119 1.328 . S
C114 H120 0.929 . S
C115 C116 1.362 . S
C115 C118 1.378 . S
C115 H130 0.929 . S
C116 C115 1.362 . S
C116 C117 1.366 . S
C117 C114 1.365 . S
C117 C116 1.366 . S
C117 H131 0.930 . S
C118 C115 1.378 . S
C118 N119 1.315 . S
C118 H121 0.930 . S
N119 Co99 2.194 . S
N119 C114 1.328 . S
N119 C118 1.315 . S
H120 C114 0.929 . S
H121 C118 0.930 . S
H122 C110 0.929 . S
H123 C112 0.929 . S
O124 Co99 2.351 . S
O124 C127 1.244 . S
O125 Co99 2.155 . S
O125 C127 1.240 . S
O126 Co99 2.096 . S
O126 C107 1.247 . S
C127 O124 1.244 . S
C127 O125 1.240 . S
H128 C102 0.931 . S
H129 C111 0.931 . S
H130 C115 0.929 . S
H131 C117 0.930 . S
Co132 N136 2.148 . S
Co132 N142 2.128 . S
Co132 N152 2.194 . S
Co132 O157 2.351 . S
Co132 O158 2.155 . S
Co132 O159 2.096 . S
C133 N136 1.301 . S
C133 N137 1.328 . S
C133 H138 0.930 . S
C134 C135 1.333 . S
C134 N136 1.317 . S
C134 H139 0.930 . S
C135 C134 1.333 . S
C135 N137 1.350 . S
C135 H161 0.931 . S
N136 Co132 2.148 . S
N136 C133 1.301 . S
N136 C134 1.317 . S
N137 C133 1.328 . S
N137 C135 1.350 . S
H138 C133 0.930 . S
H139 C134 0.930 . S
C140 O141 1.224 . S
C140 O159 1.247 . S
O141 C140 1.224 . S
N142 Co132 2.128 . S
N142 C143 1.355 . S
N142 C145 1.311 . S
C143 N142 1.355 . S
C143 C144 1.363 . S
C143 H155 0.929 . S
C144 C143 1.363 . S
C144 N146 1.375 . S
C144 H162 0.931 . S
C145 N142 1.311 . S
C145 N146 1.347 . S
C145 H156 0.929 . S
N146 C144 1.375 . S
N146 C145 1.347 . S
C147 C150 1.365 . S
C147 N152 1.328 . S
C147 H153 0.929 . S
C148 C149 1.362 . S
C148 C151 1.378 . S
C148 H163 0.929 . S
C149 C148 1.362 . S
C149 C150 1.366 . S
C150 C147 1.365 . S
C150 C149 1.366 . S
C150 H164 0.930 . S
C151 C148 1.378 . S
C151 N152 1.315 . S
C151 H154 0.930 . S
N152 Co132 2.194 . S
N152 C147 1.328 . S
N152 C151 1.315 . S
H153 C147 0.929 . S
H154 C151 0.930 . S
H155 C143 0.929 . S
H156 C145 0.929 . S
O157 Co132 2.351 . S
O157 C160 1.244 . S
O158 Co132 2.155 . S
O158 C160 1.240 . S
O159 Co132 2.096 . S
O159 C140 1.247 . S
C160 O157 1.244 . S
C160 O158 1.240 . S
H161 C135 0.931 . S
H162 C144 0.931 . S
H163 C148 0.929 . S
H164 C150 0.930 . S
Co165 N169 2.148 . S
Co165 N175 2.128 . S
Co165 N185 2.194 . S
Co165 O190 2.351 . S
Co165 O191 2.155 . S
Co165 O192 2.096 . S
C166 N169 1.301 . S
C166 N170 1.328 . S
C166 H171 0.930 . S
C167 C168 1.333 . S
C167 N169 1.317 . S
C167 H172 0.930 . S
C168 C167 1.333 . S
C168 N170 1.350 . S
C168 H194 0.931 . S
N169 Co165 2.148 . S
N169 C166 1.301 . S
N169 C167 1.317 . S
N170 C166 1.328 . S
N170 C168 1.350 . S
H171 C166 0.930 . S
H172 C167 0.930 . S
C173 O174 1.224 . S
C173 O192 1.247 . S
O174 C173 1.224 . S
N175 Co165 2.128 . S
N175 C176 1.355 . S
N175 C178 1.311 1_556 S
C176 N175 1.355 . S
C176 C177 1.363 1_556 S
C176 H188 0.929 . S
C177 C176 1.363 1_554 S
C177 N179 1.375 . S
C177 H195 0.931 . S
C178 N175 1.311 1_554 S
C178 N179 1.347 . S
C178 H189 0.929 . S
N179 C177 1.375 . S
N179 C178 1.347 . S
C180 C183 1.365 . S
C180 N185 1.328 . S
C180 H186 0.929 . S
C181 C182 1.362 . S
C181 C184 1.378 . S
C181 H196 0.929 . S
C182 C181 1.362 . S
C182 C183 1.366 . S
C183 C180 1.365 . S
C183 C182 1.366 . S
C183 H197 0.930 . S
C184 C181 1.378 . S
C184 N185 1.315 . S
C184 H187 0.930 . S
N185 Co165 2.194 . S
N185 C180 1.328 . S
N185 C184 1.315 . S
H186 C180 0.929 . S
H187 C184 0.930 . S
H188 C176 0.929 . S
H189 C178 0.929 . S
O190 Co165 2.351 . S
O190 C193 1.244 . S
O191 Co165 2.155 . S
O191 C193 1.240 . S
O192 Co165 2.096 . S
O192 C173 1.247 . S
C193 O190 1.244 . S
C193 O191 1.240 . S
H194 C168 0.931 . S
H195 C177 0.931 . S
H196 C181 0.929 . S
H197 C183 0.930 . S
Co198 N202 2.148 . S
Co198 N208 2.128 . S
Co198 N218 2.194 . S
Co198 O223 2.351 . S
Co198 O224 2.155 . S
Co198 O225 2.096 . S
C199 N202 1.301 . S
C199 N203 1.328 . S
C199 H204 0.930 . S
C200 C201 1.333 . S
C200 N202 1.317 . S
C200 H205 0.930 . S
C201 C200 1.333 . S
C201 N203 1.350 . S
C201 H227 0.931 . S
N202 Co198 2.148 . S
N202 C199 1.301 . S
N202 C200 1.317 . S
N203 C199 1.328 . S
N203 C201 1.350 . S
H204 C199 0.930 . S
H205 C200 0.930 . S
C206 O207 1.224 . S
C206 O225 1.247 . S
O207 C206 1.224 . S
N208 Co198 2.128 . S
N208 C209 1.355 . S
N208 C211 1.311 1_554 S
C209 N208 1.355 . S
C209 C210 1.363 1_554 S
C209 H221 0.929 . S
C210 C209 1.363 1_556 S
C210 N212 1.375 . S
C210 H228 0.931 . S
C211 N208 1.311 1_556 S
C211 N212 1.347 . S
C211 H222 0.929 . S
N212 C210 1.375 . S
N212 C211 1.347 . S
C213 C216 1.365 . S
C213 N218 1.328 . S
C213 H219 0.929 . S
C214 C215 1.362 . S
C214 C217 1.378 . S
C214 H229 0.929 . S
C215 C214 1.362 . S
C215 C216 1.366 . S
C216 C213 1.365 . S
C216 C215 1.366 . S
C216 H230 0.930 . S
C217 C214 1.378 . S
C217 N218 1.315 . S
C217 H220 0.930 . S
N218 Co198 2.194 . S
N218 C213 1.328 . S
N218 C217 1.315 . S
H219 C213 0.929 . S
H220 C217 0.930 . S
H221 C209 0.929 . S
H222 C211 0.929 . S
O223 Co198 2.351 . S
O223 C226 1.244 . S
O224 Co198 2.155 . S
O224 C226 1.240 . S
O225 Co198 2.096 . S
O225 C206 1.247 . S
C226 O223 1.244 . S
C226 O224 1.240 . S
H227 C201 0.931 . S
H228 C210 0.931 . S
H229 C214 0.929 . S
H230 C216 0.930 . S
Co231 N235 2.148 . S
Co231 N241 2.128 . S
Co231 N251 2.194 . S
Co231 O256 2.351 . S
Co231 O257 2.155 . S
Co231 O258 2.096 . S
C232 N235 1.301 . S
C232 N236 1.328 . S
C232 H237 0.930 . S
C233 C234 1.333 . S
C233 N235 1.317 . S
C233 H238 0.930 . S
C234 C233 1.333 . S
C234 N236 1.350 . S
C234 H260 0.931 . S
N235 Co231 2.148 . S
N235 C232 1.301 . S
N235 C233 1.317 . S
N236 C232 1.328 . S
N236 C234 1.350 . S
H237 C232 0.930 . S
H238 C233 0.930 . S
C239 O240 1.224 . S
C239 O258 1.247 . S
O240 C239 1.224 . S
N241 Co231 2.128 . S
N241 C242 1.355 . S
N241 C244 1.311 . S
C242 N241 1.355 . S
C242 C243 1.363 . S
C242 H254 0.929 . S
C243 C242 1.363 . S
C243 N245 1.375 . S
C243 H261 0.931 . S
C244 N241 1.311 . S
C244 N245 1.347 . S
C244 H255 0.929 . S
N245 C243 1.375 . S
N245 C244 1.347 . S
C246 C249 1.365 . S
C246 N251 1.328 . S
C246 H252 0.929 . S
C247 C248 1.362 . S
C247 C250 1.378 . S
C247 H262 0.929 . S
C248 C247 1.362 . S
C248 C249 1.366 . S
C249 C246 1.365 . S
C249 C248 1.366 . S
C249 H263 0.930 . S
C250 C247 1.378 . S
C250 N251 1.315 . S
C250 H253 0.930 . S
N251 Co231 2.194 . S
N251 C246 1.328 . S
N251 C250 1.315 . S
H252 C246 0.929 . S
H253 C250 0.930 . S
H254 C242 0.929 . S
H255 C244 0.929 . S
O256 Co231 2.351 . S
O256 C259 1.244 . S
O257 Co231 2.155 . S
O257 C259 1.240 . S
O258 Co231 2.096 . S
O258 C239 1.247 . S
C259 O256 1.244 . S
C259 O257 1.240 . S
H260 C234 0.931 . S
H261 C243 0.931 . S
H262 C247 0.929 . S
H263 C249 0.930 . S
Co264 N268 2.148 . S
Co264 N274 2.128 . S
Co264 N284 2.194 . S
Co264 O289 2.351 . S
Co264 O290 2.155 . S
Co264 O291 2.096 . S
C265 N268 1.301 . S
C265 N269 1.328 . S
C265 H270 0.930 . S
C266 C267 1.333 . S
C266 N268 1.317 . S
C266 H271 0.930 . S
C267 C266 1.333 . S
C267 N269 1.350 . S
C267 H293 0.931 . S
N268 Co264 2.148 . S
N268 C265 1.301 . S
N268 C266 1.317 . S
N269 C265 1.328 . S
N269 C267 1.350 . S
H270 C265 0.930 . S
H271 C266 0.930 . S
C272 O273 1.224 . S
C272 O291 1.247 . S
O273 C272 1.224 . S
N274 Co264 2.128 . S
N274 C275 1.355 . S
N274 C277 1.311 1_554 S
C275 N274 1.355 . S
C275 C276 1.363 1_554 S
C275 H287 0.929 . S
C276 C275 1.363 1_556 S
C276 N278 1.375 . S
C276 H294 0.931 . S
C277 N274 1.311 1_556 S
C277 N278 1.347 . S
C277 H288 0.929 . S
N278 C276 1.375 . S
N278 C277 1.347 . S
C279 C282 1.365 . S
C279 N284 1.328 . S
C279 H285 0.929 . S
C280 C281 1.362 . S
C280 C283 1.378 . S
C280 H295 0.929 . S
C281 C280 1.362 . S
C281 C282 1.366 . S
C282 C279 1.365 . S
C282 C281 1.366 . S
C282 H296 0.930 . S
C283 C280 1.378 . S
C283 N284 1.315 . S
C283 H286 0.930 . S
N284 Co264 2.194 . S
N284 C279 1.328 . S
N284 C283 1.315 . S
H285 C279 0.929 . S
H286 C283 0.930 . S
H287 C275 0.929 . S
H288 C277 0.929 . S
O289 Co264 2.351 . S
O289 C292 1.244 . S
O290 Co264 2.155 . S
O290 C292 1.240 . S
O291 Co264 2.096 . S
O291 C272 1.247 . S
C292 O289 1.244 . S
C292 O290 1.240 . S
H293 C267 0.931 . S
H294 C276 0.931 . S
H295 C280 0.929 . S
H296 C282 0.930 . S
Co297 N301 2.148 . S
Co297 N307 2.128 . S
Co297 N317 2.194 . S
Co297 O322 2.351 . S
Co297 O323 2.155 . S
Co297 O324 2.096 . S
C298 N301 1.301 . S
C298 N302 1.328 . S
C298 H303 0.930 . S
C299 C300 1.333 . S
C299 N301 1.317 . S
C299 H304 0.930 . S
C300 C299 1.333 . S
C300 N302 1.350 . S
C300 H326 0.931 . S
N301 Co297 2.148 . S
N301 C298 1.301 . S
N301 C299 1.317 . S
N302 C298 1.328 . S
N302 C300 1.350 . S
H303 C298 0.930 . S
H304 C299 0.930 . S
C305 O306 1.224 . S
C305 O324 1.247 . S
O306 C305 1.224 . S
N307 Co297 2.128 . S
N307 C308 1.355 . S
N307 C310 1.311 . S
C308 N307 1.355 . S
C308 C309 1.363 . S
C308 H320 0.929 . S
C309 C308 1.363 . S
C309 N311 1.375 . S
C309 H327 0.931 . S
C310 N307 1.311 . S
C310 N311 1.347 . S
C310 H321 0.929 . S
N311 C309 1.375 . S
N311 C310 1.347 . S
C312 C315 1.365 . S
C312 N317 1.328 . S
C312 H318 0.929 . S
C313 C314 1.362 . S
C313 C316 1.378 . S
C313 H328 0.929 . S
C314 C313 1.362 . S
C314 C315 1.366 . S
C315 C312 1.365 . S
C315 C314 1.366 . S
C315 H329 0.930 . S
C316 C313 1.378 . S
C316 N317 1.315 . S
C316 H319 0.930 . S
N317 Co297 2.194 . S
N317 C312 1.328 . S
N317 C316 1.315 . S
H318 C312 0.929 . S
H319 C316 0.930 . S
H320 C308 0.929 . S
H321 C310 0.929 . S
O322 Co297 2.351 . S
O322 C325 1.244 . S
O323 Co297 2.155 . S
O323 C325 1.240 . S
O324 Co297 2.096 . S
O324 C305 1.247 . S
C325 O322 1.244 . S
C325 O323 1.240 . S
H326 C300 0.931 . S
H327 C309 0.931 . S
H328 C313 0.929 . S
H329 C315 0.930 . S
Co330 N334 2.148 . S
Co330 N340 2.128 . S
Co330 N350 2.194 . S
Co330 O355 2.351 . S
Co330 O356 2.155 . S
Co330 O357 2.096 . S
C331 N334 1.301 . S
C331 N335 1.328 . S
C331 H336 0.930 . S
C332 C333 1.333 . S
C332 N334 1.317 . S
C332 H337 0.930 . S
C333 C332 1.333 . S
C333 N335 1.350 . S
C333 H359 0.931 . S
N334 Co330 2.148 . S
N334 C331 1.301 . S
N334 C332 1.317 . S
N335 C331 1.328 . S
N335 C333 1.350 . S
H336 C331 0.930 . S
H337 C332 0.930 . S
C338 O339 1.224 . S
C338 O357 1.247 . S
O339 C338 1.224 . S
N340 Co330 2.128 . S
N340 C341 1.355 . S
N340 C343 1.311 1_554 S
C341 N340 1.355 . S
C341 C342 1.363 1_554 S
C341 H353 0.929 . S
C342 C341 1.363 1_556 S
C342 N344 1.375 . S
C342 H360 0.931 . S
C343 N340 1.311 1_556 S
C343 N344 1.347 . S
C343 H354 0.929 . S
N344 C342 1.375 . S
N344 C343 1.347 . S
C345 C348 1.365 . S
C345 N350 1.328 . S
C345 H351 0.929 . S
C346 C347 1.362 . S
C346 C349 1.378 . S
C346 H361 0.929 . S
C347 C346 1.362 . S
C347 C348 1.366 . S
C348 C345 1.365 . S
C348 C347 1.366 . S
C348 H362 0.930 . S
C349 C346 1.378 . S
C349 N350 1.315 . S
C349 H352 0.930 . S
N350 Co330 2.194 . S
N350 C345 1.328 . S
N350 C349 1.315 . S
H351 C345 0.929 . S
H352 C349 0.930 . S
H353 C341 0.929 . S
H354 C343 0.929 . S
O355 Co330 2.351 . S
O355 C358 1.244 . S
O356 Co330 2.155 . S
O356 C358 1.240 . S
O357 Co330 2.096 . S
O357 C338 1.247 . S
C358 O355 1.244 . S
C358 O356 1.240 . S
H359 C333 0.931 . S
H360 C342 0.931 . S
H361 C346 0.929 . S
H362 C348 0.930 . S
Co363 N367 2.148 . S
Co363 N373 2.128 . S
Co363 N383 2.194 . S
Co363 O388 2.351 . S
Co363 O389 2.155 . S
Co363 O390 2.096 . S
C364 N367 1.301 . S
C364 N368 1.328 . S
C364 H369 0.930 . S
C365 C366 1.333 . S
C365 N367 1.317 . S
C365 H370 0.930 . S
C366 C365 1.333 . S
C366 N368 1.350 . S
C366 H392 0.931 . S
N367 Co363 2.148 . S
N367 C364 1.301 . S
N367 C365 1.317 . S
N368 C364 1.328 . S
N368 C366 1.350 . S
H369 C364 0.930 . S
H370 C365 0.930 . S
C371 O372 1.224 . S
C371 O390 1.247 . S
O372 C371 1.224 . S
N373 Co363 2.128 . S
N373 C374 1.355 . S
N373 C376 1.311 . S
C374 N373 1.355 . S
C374 C375 1.363 . S
C374 H386 0.929 . S
C375 C374 1.363 . S
C375 N377 1.375 . S
C375 H393 0.931 . S
C376 N373 1.311 . S
C376 N377 1.347 . S
C376 H387 0.929 . S
N377 C375 1.375 . S
N377 C376 1.347 . S
C378 C381 1.365 . S
C378 N383 1.328 . S
C378 H384 0.929 . S
C379 C380 1.362 . S
C379 C382 1.378 . S
C379 H394 0.929 . S
C380 C379 1.362 . S
C380 C381 1.366 . S
C381 C378 1.365 . S
C381 C380 1.366 . S
C381 H395 0.930 . S
C382 C379 1.378 . S
C382 N383 1.315 . S
C382 H385 0.930 . S
N383 Co363 2.194 . S
N383 C378 1.328 . S
N383 C382 1.315 . S
H384 C378 0.929 . S
H385 C382 0.930 . S
H386 C374 0.929 . S
H387 C376 0.929 . S
O388 Co363 2.351 . S
O388 C391 1.244 . S
O389 Co363 2.155 . S
O389 C391 1.240 . S
O390 Co363 2.096 . S
O390 C371 1.247 . S
C391 O388 1.244 . S
C391 O389 1.240 . S
H392 C366 0.931 . S
H393 C375 0.931 . S
H394 C379 0.929 . S
H395 C381 0.930 . S
H396 C402 0.930 . S
H397 C406 0.930 . S
H398 C411 0.929 . S
H399 C409 0.929 . S
H400 C404 0.929 . S
H401 C410 0.929 . S
C402 H396 0.930 . S
C402 C403 1.367 . S
C402 C410 1.378 . S
C403 C402 1.367 . S
C403 C411 1.433 . S
C404 H400 0.929 . S
C404 C406 1.378 . S
C404 C408 1.350 . S
C405 C408 1.463 1_455 S
C405 C410 1.350 . S
C405 N413 1.427 . S
C406 H397 0.930 . S
C406 C404 1.378 . S
C406 C407 1.367 . S
C407 C406 1.367 . S
C407 C409 1.433 . S
C408 C404 1.350 . S
C408 C405 1.463 1_655 S
C408 N412 1.427 . S
C409 H399 0.929 . S
C409 C407 1.433 . S
C409 N412 1.384 . S
C410 H401 0.929 . S
C410 C402 1.378 . S
C410 C405 1.350 . S
C411 H398 0.929 . S
C411 C403 1.433 . S
C411 N413 1.384 . S
N412 C408 1.427 . S
N412 C409 1.384 . S
N413 C405 1.427 . S
N413 C411 1.384 . S
H414 C420 0.930 . S
H415 C424 0.930 . S
H416 C429 0.929 1_554 S
H417 C427 0.929 1_556 S
H418 C422 0.929 1_545 S
H419 C428 0.929 1_565 S
C420 H414 0.930 . S
C420 C421 1.367 . S
C420 C428 1.378 . S
C421 C420 1.367 . S
C421 C429 1.433 . S
C422 H418 0.929 1_565 S
C422 C424 1.378 . S
C422 C426 1.350 . S
C423 C426 1.463 1_546 S
C423 C428 1.350 . S
C423 N431 1.427 1_556 S
C424 H415 0.930 . S
C424 C422 1.378 . S
C424 C425 1.367 . S
C425 C424 1.367 . S
C425 C427 1.433 . S
C426 C422 1.350 . S
C426 C423 1.463 1_564 S
C426 N430 1.427 1_554 S
C427 H417 0.929 1_554 S
C427 C425 1.433 . S
C427 N430 1.384 1_554 S
C428 H419 0.929 1_545 S
C428 C420 1.378 . S
C428 C423 1.350 . S
C429 H416 0.929 1_556 S
C429 C421 1.433 . S
C429 N431 1.384 1_556 S
N430 C426 1.427 1_556 S
N430 C427 1.384 1_556 S
N431 C423 1.427 1_554 S
N431 C429 1.384 1_554 S
H432 C438 0.930 . S
H433 C442 0.930 . S
H434 C447 0.929 . S
H435 C445 0.929 . S
H436 C440 0.929 . S
H437 C446 0.929 . S
C438 H432 0.930 . S
C438 C439 1.367 . S
C438 C446 1.378 . S
C439 C438 1.367 . S
C439 C447 1.433 . S
C440 H436 0.929 . S
C440 C442 1.378 . S
C440 C444 1.350 . S
C441 C444 1.463 . S
C441 C446 1.350 . S
C441 N449 1.427 . S
C442 H433 0.930 . S
C442 C440 1.378 . S
C442 C443 1.367 . S
C443 C442 1.367 . S
C443 C445 1.433 . S
C444 C440 1.350 . S
C444 C441 1.463 . S
C444 N448 1.427 . S
C445 H435 0.929 . S
C445 C443 1.433 . S
C445 N448 1.384 . S
C446 H437 0.929 . S
C446 C438 1.378 . S
C446 C441 1.350 . S
C447 H434 0.929 . S
C447 C439 1.433 . S
C447 N449 1.384 . S
N448 C444 1.427 . S
N448 C445 1.384 . S
N449 C441 1.427 . S
N449 C447 1.384 . S
H450 C456 0.930 . S
H451 C460 0.930 . S
H452 C465 0.929 . S
H453 C463 0.929 . S
H454 C458 0.929 1_554 S
H455 C464 0.929 1_556 S
C456 H450 0.930 . S
C456 C457 1.367 . S
C456 C464 1.378 . S
C457 C456 1.367 . S
C457 C465 1.433 . S
C458 H454 0.929 1_556 S
C458 C460 1.378 . S
C458 C462 1.350 . S
C459 C462 1.463 1_454 S
C459 C464 1.350 . S
C459 N467 1.427 . S
C460 H451 0.930 . S
C460 C458 1.378 . S
C460 C461 1.367 . S
C461 C460 1.367 . S
C461 C463 1.433 . S
C462 C458 1.350 . S
C462 C459 1.463 1_656 S
C462 N466 1.427 . S
C463 H453 0.929 . S
C463 C461 1.433 . S
C463 N466 1.384 . S
C464 H455 0.929 1_554 S
C464 C456 1.378 . S
C464 C459 1.350 . S
C465 H452 0.929 . S
C465 C457 1.433 . S
C465 N467 1.384 . S
N466 C462 1.427 . S
N466 C463 1.384 . S
N467 C459 1.427 . S
N467 C465 1.384 . S
H468 C474 0.930 . S
H469 C478 0.930 . S
H470 C483 0.929 . S
H471 C481 0.929 . S
H472 C476 0.929 . S
H473 C482 0.929 . S
C474 H468 0.930 . S
C474 C475 1.367 . S
C474 C482 1.378 . S
C475 C474 1.367 . S
C475 C483 1.433 . S
C476 H472 0.929 . S
C476 C478 1.378 . S
C476 C480 1.350 . S
C477 C480 1.463 1_545 S
C477 C482 1.350 . S
C477 N485 1.427 . S
C478 H469 0.930 . S
C478 C476 1.378 . S
C478 C479 1.367 . S
C479 C478 1.367 . S
C479 C481 1.433 . S
C480 C476 1.350 . S
C480 C477 1.463 1_565 S
C480 N484 1.427 . S
C481 H471 0.929 . S
C481 C479 1.433 . S
C481 N484 1.384 . S
C482 H473 0.929 . S
C482 C474 1.378 . S
C482 C477 1.350 . S
C483 H470 0.929 . S
C483 C475 1.433 . S
C483 N485 1.384 . S
N484 C480 1.427 . S
N484 C481 1.384 . S
N485 C477 1.427 . S
N485 C483 1.384 . S
H486 C492 0.930 . S
H487 C496 0.930 . S
H488 C501 0.929 . S
H489 C499 0.929 . S
H490 C494 0.929 . S
H491 C500 0.929 . S
C492 H486 0.930 . S
C492 C493 1.367 . S
C492 C500 1.378 . S
C493 C492 1.367 . S
C493 C501 1.433 . S
C494 H490 0.929 . S
C494 C496 1.378 . S
C494 C498 1.350 . S
C495 C498 1.463 1_556 S
C495 C500 1.350 . S
C495 N503 1.427 1_556 S
C496 H487 0.930 . S
C496 C494 1.378 . S
C496 C497 1.367 . S
C497 C496 1.367 . S
C497 C499 1.433 . S
C498 C494 1.350 . S
C498 C495 1.463 1_554 S
C498 N502 1.427 1_554 S
C499 H489 0.929 . S
C499 C497 1.433 . S
C499 N502 1.384 1_554 S
C500 H491 0.929 . S
C500 C492 1.378 . S
C500 C495 1.350 . S
C501 H488 0.929 . S
C501 C493 1.433 . S
C501 N503 1.384 1_556 S
N502 C498 1.427 1_556 S
N502 C499 1.384 1_556 S
N503 C495 1.427 1_554 S
N503 C501 1.384 1_554 S
H504 C510 0.930 . S
H505 C514 0.930 . S
H506 C519 0.929 . S
H507 C517 0.929 . S
H508 C512 0.929 . S
H509 C518 0.929 . S
C510 H504 0.930 . S
C510 C511 1.367 . S
C510 C518 1.378 . S
C511 C510 1.367 . S
C511 C519 1.433 . S
C512 H508 0.929 . S
C512 C514 1.378 . S
C512 C516 1.350 . S
C513 C516 1.463 . S
C513 C518 1.350 . S
C513 N521 1.427 . S
C514 H505 0.930 . S
C514 C512 1.378 . S
C514 C515 1.367 . S
C515 C514 1.367 . S
C515 C517 1.433 . S
C516 C512 1.350 . S
C516 C513 1.463 . S
C516 N520 1.427 . S
C517 H507 0.929 . S
C517 C515 1.433 . S
C517 N520 1.384 . S
C518 H509 0.929 . S
C518 C510 1.378 . S
C518 C513 1.350 . S
C519 H506 0.929 . S
C519 C511 1.433 . S
C519 N521 1.384 . S
N520 C516 1.427 . S
N520 C517 1.384 . S
N521 C513 1.427 . S
N521 C519 1.384 . S
H522 C528 0.930 . S
H523 C532 0.930 . S
H524 C537 0.929 . S
H525 C535 0.929 . S
H526 C530 0.929 . S
H527 C536 0.929 . S
C528 H522 0.930 . S
C528 C529 1.367 . S
C528 C536 1.378 . S
C529 C528 1.367 . S
C529 C537 1.433 . S
C530 H526 0.929 . S
C530 C532 1.378 . S
C530 C534 1.350 . S
C531 C534 1.463 . S
C531 C536 1.350 . S
C531 N539 1.427 . S
C532 H523 0.930 . S
C532 C530 1.378 . S
C532 C533 1.367 . S
C533 C532 1.367 . S
C533 C535 1.433 . S
C534 C530 1.350 . S
C534 C531 1.463 . S
C534 N538 1.427 . S
C535 H525 0.929 . S
C535 C533 1.433 . S
C535 N538 1.384 . S
C536 H527 0.929 . S
C536 C528 1.378 . S
C536 C531 1.350 . S
C537 H524 0.929 . S
C537 C529 1.433 . S
C537 N539 1.384 . S
N538 C534 1.427 . S
N538 C535 1.384 . S
N539 C531 1.427 . S
N539 C537 1.384 . S
H540 C546 0.930 . S
H541 C550 0.930 . S
H542 C555 0.929 . S
H543 C553 0.929 . S
H544 C548 0.929 . S
H545 C554 0.929 . S
C546 H540 0.930 . S
C546 C547 1.367 . S
C546 C554 1.378 . S
C547 C546 1.367 . S
C547 C555 1.433 . S
C548 H544 0.929 . S
C548 C550 1.378 . S
C548 C552 1.350 . S
C549 C552 1.463 . S
C549 C554 1.350 . S
C549 N557 1.427 . S
C550 H541 0.930 . S
C550 C548 1.378 . S
C550 C551 1.367 . S
C551 C550 1.367 . S
C551 C553 1.433 . S
C552 C548 1.350 . S
C552 C549 1.463 . S
C552 N556 1.427 . S
C553 H543 0.929 . S
C553 C551 1.433 . S
C553 N556 1.384 . S
C554 H545 0.929 . S
C554 C546 1.378 . S
C554 C549 1.350 . S
C555 H542 0.929 . S
C555 C547 1.433 . S
C555 N557 1.384 . S
N556 C552 1.427 . S
N556 C553 1.384 . S
N557 C549 1.427 . S
N557 C555 1.384 . S
H558 C564 0.930 . S
H559 C568 0.930 . S
H560 C573 0.929 . S
H561 C571 0.929 . S
H562 C566 0.929 . S
H563 C572 0.929 . S
C564 H558 0.930 . S
C564 C565 1.367 . S
C564 C572 1.378 . S
C565 C564 1.367 . S
C565 C573 1.433 . S
C566 H562 0.929 . S
C566 C568 1.378 . S
C566 C570 1.350 . S
C567 C570 1.463 . S
C567 C572 1.350 . S
C567 N575 1.427 . S
C568 H559 0.930 . S
C568 C566 1.378 . S
C568 C569 1.367 . S
C569 C568 1.367 . S
C569 C571 1.433 . S
C570 C566 1.350 . S
C570 C567 1.463 . S
C570 N574 1.427 . S
C571 H561 0.929 . S
C571 C569 1.433 . S
C571 N574 1.384 . S
C572 H563 0.929 . S
C572 C564 1.378 . S
C572 C567 1.350 . S
C573 H560 0.929 . S
C573 C565 1.433 . S
C573 N575 1.384 . S
N574 C570 1.427 . S
N574 C571 1.384 . S
N575 C567 1.427 . S
N575 C573 1.384 . S
H576 C582 0.930 . S
H577 C586 0.930 . S
H578 C591 0.929 . S
H579 C589 0.929 . S
H580 C584 0.929 . S
H581 C590 0.929 . S
C582 H576 0.930 . S
C582 C583 1.367 . S
C582 C590 1.378 . S
C583 C582 1.367 . S
C583 C591 1.433 . S
C584 H580 0.929 . S
C584 C586 1.378 . S
C584 C588 1.350 . S
C585 C588 1.463 . S
C585 C590 1.350 . S
C585 N593 1.427 . S
C586 H577 0.930 . S
C586 C584 1.378 . S
C586 C587 1.367 . S
C587 C586 1.367 . S
C587 C589 1.433 . S
C588 C584 1.350 . S
C588 C585 1.463 . S
C588 N592 1.427 . S
C589 H579 0.929 . S
C589 C587 1.433 . S
C589 N592 1.384 . S
C590 H581 0.929 . S
C590 C582 1.378 . S
C590 C585 1.350 . S
C591 H578 0.929 . S
C591 C583 1.433 . S
C591 N593 1.384 . S
N592 C588 1.427 . S
N592 C589 1.384 . S
N593 C585 1.427 . S
N593 C591 1.384 . S
H594 C600 0.930 . S
H595 C604 0.930 . S
H596 C609 0.929 . S
H597 C607 0.929 . S
H598 C602 0.929 . S
H599 C608 0.929 . S
C600 H594 0.930 . S
C600 C601 1.367 . S
C600 C608 1.378 . S
C601 C600 1.367 . S
C601 C609 1.433 . S
C602 H598 0.929 . S
C602 C604 1.378 . S
C602 C606 1.350 . S
C603 C606 1.463 . S
C603 C608 1.350 . S
C603 N611 1.427 . S
C604 H595 0.930 . S
C604 C602 1.378 . S
C604 C605 1.367 . S
C605 C604 1.367 . S
C605 C607 1.433 . S
C606 C602 1.350 . S
C606 C603 1.463 . S
C606 N610 1.427 . S
C607 H597 0.929 . S
C607 C605 1.433 . S
C607 N610 1.384 . S
C608 H599 0.929 . S
C608 C600 1.378 . S
C608 C603 1.350 . S
C609 H596 0.929 . S
C609 C601 1.433 . S
C609 N611 1.384 . S
N610 C606 1.427 . S
N610 C607 1.384 . S
N611 C603 1.427 . S
N611 C609 1.384 . S
H612 C618 0.930 . S
H613 C622 0.930 . S
H614 C627 0.929 . S
H615 C625 0.929 1_554 S
H616 C620 0.929 . S
H617 C626 0.929 . S
C618 H612 0.930 . S
C618 C619 1.367 . S
C618 C626 1.378 . S
C619 C618 1.367 . S
C619 C627 1.433 . S
C620 H616 0.929 . S
C620 C622 1.378 . S
C620 C624 1.350 . S
C621 C624 1.463 . S
C621 C626 1.350 . S
C621 N629 1.427 . S
C622 H613 0.930 . S
C622 C620 1.378 . S
C622 C623 1.367 1_556 S
C623 C622 1.367 1_554 S
C623 C625 1.433 1_554 S
C624 C620 1.350 . S
C624 C621 1.463 . S
C624 N628 1.427 . S
C625 H615 0.929 1_556 S
C625 C623 1.433 1_556 S
C625 N628 1.384 . S
C626 H617 0.929 . S
C626 C618 1.378 . S
C626 C621 1.350 . S
C627 H614 0.929 . S
C627 C619 1.433 . S
C627 N629 1.384 . S
N628 C624 1.427 . S
N628 C625 1.384 . S
N629 C621 1.427 . S
N629 C627 1.384 . S
H630 C636 0.930 . S
H631 C640 0.930 . S
H632 C645 0.929 . S
H633 C643 0.929 . S
H634 C638 0.929 . S
H635 C644 0.929 . S
C636 H630 0.930 . S
C636 C637 1.367 . S
C636 C644 1.378 . S
C637 C636 1.367 . S
C637 C645 1.433 . S
C638 H634 0.929 . S
C638 C640 1.378 . S
C638 C642 1.350 . S
C639 C642 1.463 . S
C639 C644 1.350 . S
C639 N647 1.427 . S
C640 H631 0.930 . S
C640 C638 1.378 . S
C640 C641 1.367 . S
C641 C640 1.367 . S
C641 C643 1.433 . S
C642 C638 1.350 . S
C642 C639 1.463 . S
C642 N646 1.427 . S
C643 H633 0.929 . S
C643 C641 1.433 . S
C643 N646 1.384 . S
C644 H635 0.929 . S
C644 C636 1.378 . S
C644 C639 1.350 . S
C645 H632 0.929 . S
C645 C637 1.433 . S
C645 N647 1.384 . S
N646 C642 1.427 . S
N646 C643 1.384 . S
N647 C639 1.427 . S
N647 C645 1.384 . S
H648 C654 0.930 . S
H649 C658 0.930 1_554 S
H650 C663 0.929 . S
H651 C661 0.929 1_554 S
H652 C656 0.929 . S
H653 C662 0.929 . S
C654 H648 0.930 . S
C654 C655 1.367 . S
C654 C662 1.378 . S
C655 C654 1.367 . S
C655 C663 1.433 . S
C656 H652 0.929 . S
C656 C658 1.378 . S
C656 C660 1.350 . S
C657 C660 1.463 . S
C657 C662 1.350 . S
C657 N665 1.427 . S
C658 H649 0.930 1_556 S
C658 C656 1.378 . S
C658 C659 1.367 1_556 S
C659 C658 1.367 1_554 S
C659 C661 1.433 1_554 S
C660 C656 1.350 . S
C660 C657 1.463 . S
C660 N664 1.427 . S
C661 H651 0.929 1_556 S
C661 C659 1.433 1_556 S
C661 N664 1.384 . S
C662 H653 0.929 . S
C662 C654 1.378 . S
C662 C657 1.350 . S
C663 H650 0.929 . S
C663 C655 1.433 . S
C663 N665 1.384 . S
N664 C660 1.427 . S
N664 C661 1.384 . S
N665 C657 1.427 . S
N665 C663 1.384 . S
H666 C672 0.930 . S
H667 C676 0.930 . S
H668 C681 0.929 . S
H669 C679 0.929 . S
H670 C674 0.929 . S
H671 C680 0.929 . S
C672 H666 0.930 . S
C672 C673 1.367 . S
C672 C680 1.378 . S
C673 C672 1.367 . S
C673 C681 1.433 . S
C674 H670 0.929 . S
C674 C676 1.378 . S
C674 C678 1.350 . S
C675 C678 1.463 . S
C675 C680 1.350 . S
C675 N683 1.427 . S
C676 H667 0.930 . S
C676 C674 1.378 . S
C676 C677 1.367 . S
C677 C676 1.367 . S
C677 C679 1.433 . S
C678 C674 1.350 . S
C678 C675 1.463 . S
C678 N682 1.427 . S
C679 H669 0.929 . S
C679 C677 1.433 . S
C679 N682 1.384 . S
C680 H671 0.929 . S
C680 C672 1.378 . S
C680 C675 1.350 . S
C681 H668 0.929 . S
C681 C673 1.433 . S
C681 N683 1.384 . S
N682 C678 1.427 . S
N682 C679 1.384 . S
N683 C675 1.427 . S
N683 C681 1.384 . S
H684 C690 0.930 . S
H685 C694 0.930 1_554 S
H686 C699 0.929 . S
H687 C697 0.929 . S
H688 C692 0.929 . S
H689 C698 0.929 . S
C690 H684 0.930 . S
C690 C691 1.367 . S
C690 C698 1.378 . S
C691 C690 1.367 . S
C691 C699 1.433 . S
C692 H688 0.929 . S
C692 C694 1.378 . S
C692 C696 1.350 . S
C693 C696 1.463 . S
C693 C698 1.350 . S
C693 N701 1.427 . S
C694 H685 0.930 1_556 S
C694 C692 1.378 . S
C694 C695 1.367 1_556 S
C695 C694 1.367 1_554 S
C695 C697 1.433 1_554 S
C696 C692 1.350 . S
C696 C693 1.463 . S
C696 N700 1.427 . S
C697 H687 0.929 . S
C697 C695 1.433 1_556 S
C697 N700 1.384 . S
C698 H689 0.929 . S
C698 C690 1.378 . S
C698 C693 1.350 . S
C699 H686 0.929 . S
C699 C691 1.433 . S
C699 N701 1.384 . S
N700 C696 1.427 . S
N700 C697 1.384 . S
N701 C693 1.427 . S
N701 C699 1.384 . S
H702 C708 0.930 . S
H703 C712 0.930 . S
H704 C717 0.929 . S
H705 C715 0.929 . S
H706 C710 0.929 . S
H707 C716 0.929 . S
C708 H702 0.930 . S
C708 C709 1.367 . S
C708 C716 1.378 . S
C709 C708 1.367 . S
C709 C717 1.433 . S
C710 H706 0.929 . S
C710 C712 1.378 . S
C710 C714 1.350 . S
C711 C714 1.463 . S
C711 C716 1.350 . S
C711 N719 1.427 . S
C712 H703 0.930 . S
C712 C710 1.378 . S
C712 C713 1.367 . S
C713 C712 1.367 . S
C713 C715 1.433 . S
C714 C710 1.350 . S
C714 C711 1.463 . S
C714 N718 1.427 . S
C715 H705 0.929 . S
C715 C713 1.433 . S
C715 N718 1.384 . S
C716 H707 0.929 . S
C716 C708 1.378 . S
C716 C711 1.350 . S
C717 H704 0.929 . S
C717 C709 1.433 . S
C717 N719 1.384 . S
N718 C714 1.427 . S
N718 C715 1.384 . S
N719 C711 1.427 . S
N719 C717 1.384 . S
H720 C726 0.930 . S
H721 C730 0.930 . S
H722 C735 0.929 . S
H723 C733 0.929 . S
H724 C728 0.929 . S
H725 C734 0.929 . S
C726 H720 0.930 . S
C726 C727 1.367 . S
C726 C734 1.378 . S
C727 C726 1.367 . S
C727 C735 1.433 . S
C728 H724 0.929 . S
C728 C730 1.378 . S
C728 C732 1.350 . S
C729 C732 1.463 . S
C729 C734 1.350 . S
C729 N737 1.427 . S
C730 H721 0.930 . S
C730 C728 1.378 . S
C730 C731 1.367 . S
C731 C730 1.367 . S
C731 C733 1.433 . S
C732 C728 1.350 . S
C732 C729 1.463 . S
C732 N736 1.427 . S
C733 H723 0.929 . S
C733 C731 1.433 . S
C733 N736 1.384 . S
C734 H725 0.929 . S
C734 C726 1.378 . S
C734 C729 1.350 . S
C735 H722 0.929 . S
C735 C727 1.433 . S
C735 N737 1.384 . S
N736 C732 1.427 . S
N736 C733 1.384 . S
N737 C729 1.427 . S
N737 C735 1.384 . S
H738 C744 0.930 . S
H739 C748 0.930 . S
H740 C753 0.929 . S
H741 C751 0.929 1_556 S
H742 C746 0.929 . S
H743 C752 0.929 . S
C744 H738 0.930 . S
C744 C745 1.367 . S
C744 C752 1.378 . S
C745 C744 1.367 . S
C745 C753 1.433 . S
C746 H742 0.929 . S
C746 C748 1.378 . S
C746 C750 1.350 . S
C747 C750 1.463 . S
C747 C752 1.350 . S
C747 N755 1.427 . S
C748 H739 0.930 . S
C748 C746 1.378 . S
C748 C749 1.367 1_554 S
C749 C748 1.367 1_556 S
C749 C751 1.433 1_556 S
C750 C746 1.350 . S
C750 C747 1.463 . S
C750 N754 1.427 . S
C751 H741 0.929 1_554 S
C751 C749 1.433 1_554 S
C751 N754 1.384 . S
C752 H743 0.929 . S
C752 C744 1.378 . S
C752 C747 1.350 . S
C753 H740 0.929 . S
C753 C745 1.433 . S
C753 N755 1.384 . S
N754 C750 1.427 . S
N754 C751 1.384 . S
N755 C747 1.427 . S
N755 C753 1.384 . S
H756 C762 0.930 . S
H757 C766 0.930 . S
H758 C771 0.929 . S
H759 C769 0.929 . S
H760 C764 0.929 . S
H761 C770 0.929 . S
C762 H756 0.930 . S
C762 C763 1.367 . S
C762 C770 1.378 . S
C763 C762 1.367 . S
C763 C771 1.433 . S
C764 H760 0.929 . S
C764 C766 1.378 . S
C764 C768 1.350 . S
C765 C768 1.463 . S
C765 C770 1.350 . S
C765 N773 1.427 . S
C766 H757 0.930 . S
C766 C764 1.378 . S
C766 C767 1.367 . S
C767 C766 1.367 . S
C767 C769 1.433 . S
C768 C764 1.350 . S
C768 C765 1.463 . S
C768 N772 1.427 . S
C769 H759 0.929 . S
C769 C767 1.433 . S
C769 N772 1.384 . S
C770 H761 0.929 . S
C770 C762 1.378 . S
C770 C765 1.350 . S
C771 H758 0.929 . S
C771 C763 1.433 . S
C771 N773 1.384 . S
N772 C768 1.427 . S
N772 C769 1.384 . S
N773 C765 1.427 . S
N773 C771 1.384 . S
H774 C780 0.930 1_556 S
H775 C784 0.930 . S
H776 C789 0.929 1_556 S
H777 C787 0.929 . S
H778 C782 0.929 . S
H779 C788 0.929 . S
C780 H774 0.930 1_554 S
C780 C781 1.367 1_554 S
C780 C788 1.378 . S
C781 C780 1.367 1_556 S
C781 C789 1.433 1_556 S
C782 H778 0.929 . S
C782 C784 1.378 . S
C782 C786 1.350 . S
C783 C786 1.463 . S
C783 C788 1.350 . S
C783 N791 1.427 . S
C784 H775 0.930 . S
C784 C782 1.378 . S
C784 C785 1.367 . S
C785 C784 1.367 . S
C785 C787 1.433 . S
C786 C782 1.350 . S
C786 C783 1.463 . S
C786 N790 1.427 . S
C787 H777 0.929 . S
C787 C785 1.433 . S
C787 N790 1.384 . S
C788 H779 0.929 . S
C788 C780 1.378 . S
C788 C783 1.350 . S
C789 H776 0.929 1_554 S
C789 C781 1.433 1_554 S
C789 N791 1.384 . S
N790 C786 1.427 . S
N790 C787 1.384 . S
N791 C783 1.427 . S
N791 C789 1.384 . S
H792 C798 0.930 . S
H793 C802 0.930 . S
H794 C807 0.929 . S
H795 C805 0.929 . S
H796 C800 0.929 . S
H797 C806 0.929 . S
C798 H792 0.930 . S
C798 C799 1.367 . S
C798 C806 1.378 . S
C799 C798 1.367 . S
C799 C807 1.433 . S
C800 H796 0.929 . S
C800 C802 1.378 . S
C800 C804 1.350 . S
C801 C804 1.463 . S
C801 C806 1.350 . S
C801 N809 1.427 . S
C802 H793 0.930 . S
C802 C800 1.378 . S
C802 C803 1.367 . S
C803 C802 1.367 . S
C803 C805 1.433 . S
C804 C800 1.350 . S
C804 C801 1.463 . S
C804 N808 1.427 . S
C805 H795 0.929 . S
C805 C803 1.433 . S
C805 N808 1.384 . S
C806 H797 0.929 . S
C806 C798 1.378 . S
C806 C801 1.350 . S
C807 H794 0.929 . S
C807 C799 1.433 . S
C807 N809 1.384 . S
N808 C804 1.427 . S
N808 C805 1.384 . S
N809 C801 1.427 . S
N809 C807 1.384 . S
H810 C816 0.930 . S
H811 C820 0.930 1_556 S
H812 C825 0.929 . S
H813 C823 0.929 1_556 S
H814 C818 0.929 . S
H815 C824 0.929 . S
C816 H810 0.930 . S
C816 C817 1.367 . S
C816 C824 1.378 . S
C817 C816 1.367 . S
C817 C825 1.433 . S
C818 H814 0.929 . S
C818 C820 1.378 . S
C818 C822 1.350 . S
C819 C822 1.463 . S
C819 C824 1.350 . S
C819 N827 1.427 . S
C820 H811 0.930 1_554 S
C820 C818 1.378 . S
C820 C821 1.367 1_554 S
C821 C820 1.367 1_556 S
C821 C823 1.433 1_556 S
C822 C818 1.350 . S
C822 C819 1.463 . S
C822 N826 1.427 . S
C823 H813 0.929 1_554 S
C823 C821 1.433 1_554 S
C823 N826 1.384 . S
C824 H815 0.929 . S
C824 C816 1.378 . S
C824 C819 1.350 . S
C825 H812 0.929 . S
C825 C817 1.433 . S
C825 N827 1.384 . S
N826 C822 1.427 . S
N826 C823 1.384 . S
N827 C819 1.427 . S
N827 C825 1.384 . S
H828 C834 0.930 . S
H829 C838 0.930 . S
H830 C843 0.929 . S
H831 C841 0.929 . S
H832 C836 0.929 . S
H833 C842 0.929 . S
C834 H828 0.930 . S
C834 C835 1.367 . S
C834 C842 1.378 . S
C835 C834 1.367 . S
C835 C843 1.433 . S
C836 H832 0.929 . S
C836 C838 1.378 . S
C836 C840 1.350 . S
C837 C840 1.463 . S
C837 C842 1.350 . S
C837 N845 1.427 . S
C838 H829 0.930 . S
C838 C836 1.378 . S
C838 C839 1.367 . S
C839 C838 1.367 . S
C839 C841 1.433 . S
C840 C836 1.350 . S
C840 C837 1.463 . S
C840 N844 1.427 . S
C841 H831 0.929 . S
C841 C839 1.433 . S
C841 N844 1.384 . S
C842 H833 0.929 . S
C842 C834 1.378 . S
C842 C837 1.350 . S
C843 H830 0.929 . S
C843 C835 1.433 . S
C843 N845 1.384 . S
N844 C840 1.427 . S
N844 C841 1.384 . S
N845 C837 1.427 . S
N845 C843 1.384 . S
H846 C852 0.930 . S
H847 C856 0.930 . S
H848 C861 0.929 . S
H849 C859 0.929 . S
H850 C854 0.929 . S
H851 C860 0.929 . S
C852 H846 0.930 . S
C852 C853 1.367 . S
C852 C860 1.378 . S
C853 C852 1.367 . S
C853 C861 1.433 . S
C854 H850 0.929 . S
C854 C856 1.378 . S
C854 C858 1.350 . S
C855 C858 1.463 . S
C855 C860 1.350 . S
C855 N863 1.427 . S
C856 H847 0.930 . S
C856 C854 1.378 . S
C856 C857 1.367 . S
C857 C856 1.367 . S
C857 C859 1.433 . S
C858 C854 1.350 . S
C858 C855 1.463 . S
C858 N862 1.427 . S
C859 H849 0.929 . S
C859 C857 1.433 . S
C859 N862 1.384 . S
C860 H851 0.929 . S
C860 C852 1.378 . S
C860 C855 1.350 . S
C861 H848 0.929 . S
C861 C853 1.433 . S
C861 N863 1.384 . S
N862 C858 1.427 . S
N862 C859 1.384 . S
N863 C855 1.427 . S
N863 C861 1.384 . S
H864 C870 0.930 . S
H865 C874 0.930 . S
H866 C879 0.929 . S
H867 C877 0.929 . S
H868 C872 0.929 . S
H869 C878 0.929 . S
C870 H864 0.930 . S
C870 C871 1.367 . S
C870 C878 1.378 . S
C871 C870 1.367 . S
C871 C879 1.433 . S
C872 H868 0.929 . S
C872 C874 1.378 . S
C872 C876 1.350 . S
C873 C876 1.463 . S
C873 C878 1.350 . S
C873 N881 1.427 . S
C874 H865 0.930 . S
C874 C872 1.378 . S
C874 C875 1.367 . S
C875 C874 1.367 . S
C875 C877 1.433 . S
C876 C872 1.350 . S
C876 C873 1.463 . S
C876 N880 1.427 . S
C877 H867 0.929 . S
C877 C875 1.433 . S
C877 N880 1.384 . S
C878 H869 0.929 . S
C878 C870 1.378 . S
C878 C873 1.350 . S
C879 H866 0.929 . S
C879 C871 1.433 . S
C879 N881 1.384 . S
N880 C876 1.427 . S
N880 C877 1.384 . S
N881 C873 1.427 . S
N881 C879 1.384 . S
H882 C888 0.930 . S
H883 C892 0.930 . S
H884 C897 0.929 . S
H885 C895 0.929 . S
H886 C890 0.929 . S
H887 C896 0.929 . S
C888 H882 0.930 . S
C888 C889 1.367 . S
C888 C896 1.378 . S
C889 C888 1.367 . S
C889 C897 1.433 . S
C890 H886 0.929 . S
C890 C892 1.378 . S
C890 C894 1.350 . S
C891 C894 1.463 . S
C891 C896 1.350 . S
C891 N899 1.427 . S
C892 H883 0.930 . S
C892 C890 1.378 . S
C892 C893 1.367 . S
C893 C892 1.367 . S
C893 C895 1.433 . S
C894 C890 1.350 . S
C894 C891 1.463 . S
C894 N898 1.427 . S
C895 H885 0.929 . S
C895 C893 1.433 . S
C895 N898 1.384 . S
C896 H887 0.929 . S
C896 C888 1.378 . S
C896 C891 1.350 . S
C897 H884 0.929 . S
C897 C889 1.433 . S
C897 N899 1.384 . S
N898 C894 1.427 . S
N898 C895 1.384 . S
N899 C891 1.427 . S
N899 C897 1.384 . S
H900 C906 0.930 . S
H901 C910 0.930 . S
H902 C915 0.929 . S
H903 C913 0.929 . S
H904 C908 0.929 . S
H905 C914 0.929 . S
C906 H900 0.930 . S
C906 C907 1.367 . S
C906 C914 1.378 . S
C907 C906 1.367 . S
C907 C915 1.433 . S
C908 H904 0.929 . S
C908 C910 1.378 . S
C908 C912 1.350 . S
C909 C912 1.463 . S
C909 C914 1.350 . S
C909 N917 1.427 . S
C910 H901 0.930 . S
C910 C908 1.378 . S
C910 C911 1.367 . S
C911 C910 1.367 . S
C911 C913 1.433 . S
C912 C908 1.350 . S
C912 C909 1.463 . S
C912 N916 1.427 . S
C913 H903 0.929 . S
C913 C911 1.433 . S
C913 N916 1.384 . S
C914 H905 0.929 . S
C914 C906 1.378 . S
C914 C909 1.350 . S
C915 H902 0.929 . S
C915 C907 1.433 . S
C915 N917 1.384 . S
N916 C912 1.427 . S
N916 C913 1.384 . S
N917 C909 1.427 . S
N917 C915 1.384 . S
H918 C924 0.930 . S
H919 C928 0.930 . S
H920 C933 0.929 . S
H921 C931 0.929 . S
H922 C926 0.929 . S
H923 C932 0.929 . S
C924 H918 0.930 . S
C924 C925 1.367 . S
C924 C932 1.378 . S
C925 C924 1.367 . S
C925 C933 1.433 . S
C926 H922 0.929 . S
C926 C928 1.378 . S
C926 C930 1.350 . S
C927 C930 1.463 . S
C927 C932 1.350 . S
C927 N935 1.427 . S
C928 H919 0.930 . S
C928 C926 1.378 . S
C928 C929 1.367 . S
C929 C928 1.367 . S
C929 C931 1.433 . S
C930 C926 1.350 . S
C930 C927 1.463 . S
C930 N934 1.427 . S
C931 H921 0.929 . S
C931 C929 1.433 . S
C931 N934 1.384 . S
C932 H923 0.929 . S
C932 C924 1.378 . S
C932 C927 1.350 . S
C933 H920 0.929 . S
C933 C925 1.433 . S
C933 N935 1.384 . S
N934 C930 1.427 . S
N934 C931 1.384 . S
N935 C927 1.427 . S
N935 C933 1.384 . S
C403 C8 1.158 . S
C407 C371 1.172 . S
C421 C41 1.171 . S
C425 C206 1.168 . S
C439 C239 1.174 . S
C443 C74 1.161 . S
C457 C272 1.169 . S
C461 C107 1.157 . S
C475 C305 1.160 . S
C479 C140 1.173 . S
C493 C173 1.165 . S
C497 C338 1.173 . S
C511 C281 1.612 . S
C515 C17 1.611 . S
C529 C314 1.611 . S
C533 C50 1.613 . S
C547 C83 1.607 . S
C551 C347 1.609 . S
C565 C116 1.610 . S
C569 C380 1.607 . S
C583 C215 1.611 . S
C587 C149 1.613 . S
C601 C182 1.607 . S
C605 C248 1.610 . S
C619 N14 1.355 . S
C623 N5 1.357 . S
C637 N38 1.359 . S
C641 N47 1.358 . S
C655 N80 1.358 . S
C659 N71 1.359 . S
C673 N104 1.357 . S
C677 N113 1.357 . S
C691 N146 1.358 . S
C695 N137 1.359 . S
C709 N170 1.356 . S
C713 N179 1.355 . S
C727 N203 1.352 . S
C731 N212 1.352 . S
C745 N245 1.355 . S
C749 N236 1.357 . S
C763 N269 1.352 . S
C767 N278 1.351 . S
C781 N302 1.359 . S
C785 N311 1.358 . S
C799 N344 1.357 . S
C803 N335 1.358 . S
C817 N377 1.358 . S
C821 N368 1.359 . S
C835 C28 1.247 . S
C839 C358 1.250 . S
C853 C391 1.247 . S
C857 C61 1.250 . S
C871 C226 1.248 . S
C875 C94 1.246 . S
C889 C127 1.247 . S
C893 C259 1.250 . S
C907 C160 1.248 . S
C911 C292 1.247 . S
C925 C193 1.249 . S
C929 C325 1.249 . S
