# Generated by pormake.
# Topology oof, (8)-cn, num edge types: 1
# Building blocks:
#     Node 0, Type 0, BuildingBlock: AJUNOK_clean_sbu_0, # of connection points: 8
#     Node 1, Type 0, BuildingBlock: AJUNOK_clean_sbu_0, # of connection points: 8
#     Node 2, Type 0, BuildingBlock: AJUNOK_clean_sbu_0, # of connection points: 8
#     Node 3, Type 0, BuildingBlock: AJUNOK_clean_sbu_0, # of connection points: 8
#     Edge 4, Type (0, 0), BuildingBlock: EZIPEK_clean_linker_0, # of connection points: 2
#     Edge 5, Type (0, 0), BuildingBlock: EZIPEK_clean_linker_0, # of connection points: 2
#     Edge 6, Type (0, 0), BuildingBlock: EZIPEK_clean_linker_0, # of connection points: 2
#     Edge 7, Type (0, 0), BuildingBlock: EZIPEK_clean_linker_0, # of connection points: 2
#     Edge 8, Type (0, 0), BuildingBlock: EZIPEK_clean_linker_0, # of connection points: 2
#     Edge 9, Type (0, 0), BuildingBlock: EZIPEK_clean_linker_0, # of connection points: 2
#     Edge 10, Type (0, 0), BuildingBlock: EZIPEK_clean_linker_0, # of connection points: 2
#     Edge 11, Type (0, 0), BuildingBlock: EZIPEK_clean_linker_0, # of connection points: 2
#     Edge 12, Type (0, 0), BuildingBlock: EZIPEK_clean_linker_0, # of connection points: 2
#     Edge 13, Type (0, 0), BuildingBlock: EZIPEK_clean_linker_0, # of connection points: 2
#     Edge 14, Type (0, 0), BuildingBlock: EZIPEK_clean_linker_0, # of connection points: 2
#     Edge 15, Type (0, 0), BuildingBlock: EZIPEK_clean_linker_0, # of connection points: 2
#     Edge 16, Type (0, 0), BuildingBlock: EZIPEK_clean_linker_0, # of connection points: 2
#     Edge 17, Type (0, 0), BuildingBlock: EZIPEK_clean_linker_0, # of connection points: 2
#     Edge 18, Type (0, 0), BuildingBlock: EZIPEK_clean_linker_0, # of connection points: 2
#     Edge 19, Type (0, 0), BuildingBlock: EZIPEK_clean_linker_0, # of connection points: 2
# Relax obj value: 0.055
# Max RMSD: 0.149
# Mean RMSD: 0.148
data_MOF--net-oof--node1-AJUNOK_clean_sbu_0--edge1-EZIPEK_clean_linker_0
_symmetry_space_group_name_H-M    P1
_symmetry_Int_Tables_number       1
_symmetry_cell_setting            triclinic
loop_
_symmetry_equiv_pos_as_xyz
'x, y, z'
_cell_length_a     9.9931526
_cell_length_b     51.583998
_cell_length_c     17.009209
_cell_angle_alpha  103.75402
_cell_angle_beta   92.322169
_cell_angle_gamma 82.718283
loop_
_atom_site_label
_atom_site_type_symbol
_atom_site_fract_x
_atom_site_fract_y
_atom_site_fract_z
_atom_type_partial_charge
Cd0 Cd 0.83371 0.0914 0.20142 0.0
Cd1 Cd 0.88898 0.1762 0.36737 0.0
C2 C 0.93872 0.10259 0.03825 0.0
N3 N 0.83411 0.11038 0.09074 0.0
C4 C 0.71467 0.13585 0.00408 0.0
C5 C 0.82119 0.12805 0.94908 0.0
C6 C 0.93468 0.11142 0.9667 0.0
C7 C 0.72332 0.12667 0.07522 0.0
H8 H 0.02376 0.08897 0.05092 0.0
H9 H 0.64005 0.13171 0.11679 0.0
C10 C 0.61863 0.1495 0.31736 0.0
C11 C 0.7398 0.17947 0.53726 0.0
C12 C 0.724 0.17384 0.61251 0.0
C13 C 0.82509 0.15693 0.64156 0.0
C14 C 0.93881 0.14567 0.59418 0.0
C15 C 0.94921 0.15143 0.51886 0.0
N16 N 0.85069 0.16804 0.49214 0.0
H17 H 0.66401 0.19299 0.51512 0.0
H18 H 0.03644 0.14288 0.48169 0.0
C19 C 0.70756 0.21832 0.27582 0.0
N20 N 0.82402 0.20129 0.27293 0.0
C21 C 0.8913 0.21201 0.15267 0.0
C22 C 0.77108 0.22917 0.15286 0.0
C23 C 0.67826 0.23249 0.21528 0.0
C24 C 0.91541 0.19806 0.21347 0.0
H25 H 0.63744 0.22079 0.32462 0.0
H26 H 0.00772 0.18476 0.21406 0.0
C27 C 0.08404 0.11857 0.25295 0.0
C28 C 0.72472 0.0459 0.11398 0.0
N29 N 0.92337 0.0696 0.30002 0.0
C30 C 0.0157 0.04777 0.27372 0.0
C31 C 0.06642 0.03172 0.32603 0.0
C32 C 0.01936 0.03794 0.40558 0.0
C33 C 0.92578 0.06086 0.43187 0.0
C34 C 0.87869 0.07659 0.37754 0.0
C35 C 0.11071 0.20377 0.42352 0.0
O36 O 0.71587 0.13279 0.28436 0.0
O37 O 0.64463 0.17204 0.36035 0.0
O38 O 0.97618 0.13289 0.28133 0.0
O39 O 0.07401 0.09568 0.20721 0.0
O40 O 0.65406 0.06172 0.17037 0.0
O41 O 0.83801 0.05216 0.09926 0.0
O42 O 0.12658 0.17936 0.38477 0.0
O43 O -0.00907 0.21547 0.43654 0.0
H44 H 0.04767 0.04251 0.21134 0.0
H45 H 0.80418 0.0939 0.39642 0.0
H46 H 0.62476 0.14825 0.99103 0.0
H47 H 0.01767 0.10492 0.92473 0.0
H48 H 0.63523 0.18279 0.6481 0.0
H49 H 0.01807 0.13249 0.61519 0.0
H50 H 0.96534 0.20938 0.10578 0.0
H51 H 0.58486 0.24579 0.21693 0.0
H52 H 0.13818 0.01412 0.30402 0.0
H53 H 0.88752 0.06611 0.49302 0.0
Cd54 Cd 0.08074 0.82183 0.6253 0.0
Cd55 Cd 0.11668 0.91456 0.83606 0.0
C56 C 0.28939 0.82067 0.47873 0.0
N57 N 0.15914 0.82807 0.50338 0.0
C58 C 0.10813 0.84867 0.39208 0.0
C59 C 0.24253 0.84197 0.36661 0.0
C60 C 0.33417 0.82795 0.411 0.0
C61 C 0.06872 0.8417 0.46138 0.0
H62 H 0.35976 0.8099 0.51305 0.0
H63 H 0.96639 0.84765 0.4828 0.0
C64 C 0.87724 0.87744 0.75046 0.0
C65 C 0.15051 0.87911 0.95795 0.0
C66 C 0.18207 0.86915 0.02639 0.0
C67 C 0.29012 0.87795 0.07629 0.0
C68 C 0.36921 0.89564 0.05364 0.0
C69 C 0.33268 0.90546 0.98456 0.0
N70 N 0.22348 0.8973 0.93942 0.0
H71 H 0.06366 0.87326 0.92107 0.0
H72 H 0.38785 0.92022 0.96885 0.0
C73 C 0.03822 0.94627 0.71061 0.0
N74 N 0.15924 0.93831 0.74184 0.0
C75 C 0.27344 0.95939 0.65766 0.0
C76 C 0.14801 0.96883 0.62735 0.0
C77 C 0.02985 0.962 0.65444 0.0
C78 C 0.27678 0.9442 0.71639 0.0
H79 H 0.9476 0.94026 0.72976 0.0
H80 H 0.37207 0.93713 0.74122 0.0
C81 C 0.32007 0.859 0.70527 0.0
C82 C 0.84361 0.80158 0.56118 0.0
N83 N 0.14531 0.7936 0.71386 0.0
C84 C 0.27118 0.79226 0.74762 0.0
C85 C 0.30083 0.77877 0.80946 0.0
C86 C 0.19995 0.76657 0.83654 0.0
C87 C 0.07235 0.76747 0.79934 0.0
C88 C 0.04692 0.78128 0.73789 0.0
C89 C 0.92883 0.95313 0.92926 0.0
O90 O 0.9784 0.86231 0.71611 0.0
O91 O 0.8972 0.89889 0.80071 0.0
O92 O 0.21744 0.8736 0.74041 0.0
O93 O 0.30325 0.83725 0.6547 0.0
O94 O 0.84277 0.82606 0.59828 0.0
O95 O 0.95648 0.78667 0.55081 0.0
O96 O 0.05225 0.95739 0.92922 0.0
O97 O 0.89559 0.93096 0.88757 0.0
H98 H 0.34828 0.80214 0.72843 0.0
H99 H 0.94737 0.7829 0.71111 0.0
H100 H 0.0352 0.85973 0.35961 0.0
H101 H 0.43902 0.82292 0.39365 0.0
H102 H 0.11937 0.85551 0.04207 0.0
H103 H 0.45358 0.90272 0.09104 0.0
H104 H 0.36666 0.96401 0.63688 0.0
H105 H 0.93178 0.96857 0.63155 0.0
H106 H 0.40037 0.77838 0.83719 0.0
H107 H -0.00749 0.75821 0.81919 0.0
Cd108 Cd 0.36962 0.58757 0.1787 0.0
Cd109 Cd 0.38732 0.68084 0.36369 0.0
C110 C 0.36184 0.62142 0.05363 0.0
N111 N 0.29318 0.60129 0.06311 0.0
C112 C 0.21481 0.59414 0.92581 0.0
C113 C 0.29052 0.61406 0.914 0.0
C114 C 0.36234 0.62806 0.97914 0.0
C115 C 0.21888 0.58775 0.00168 0.0
H116 H 0.42291 0.63122 0.10303 0.0
H117 H 0.17001 0.57106 0.01001 0.0
C118 C 0.17121 0.6426 0.29957 0.0
C119 C 0.3781 0.63592 0.46746 0.0
C120 C 0.36392 0.62595 0.5358 0.0
C121 C 0.38909 0.64189 0.61272 0.0
C122 C 0.43478 0.66691 0.61854 0.0
C123 C 0.44193 0.67647 0.54883 0.0
N124 N 0.40843 0.66135 0.47551 0.0
H125 H 0.36125 0.62374 0.40811 0.0
H126 H 0.47103 0.6962 0.55343 0.0
C127 C 0.22256 0.69519 0.20541 0.0
N128 N 0.34606 0.69449 0.24208 0.0
C129 C 0.42969 0.71653 0.1487 0.0
C130 C 0.30445 0.71676 0.10839 0.0
C131 C 0.20087 0.70539 0.13629 0.0
C132 C 0.44945 0.70456 0.21442 0.0
H133 H 0.13954 0.68856 0.23072 0.0
H134 H 0.54596 0.70425 0.24553 0.0
C135 C 0.6232 0.62524 0.25325 0.0
C136 C 0.55301 0.54488 0.09998 0.0
N137 N 0.31459 0.56601 0.27539 0.0
C138 C 0.41437 0.56785 0.33233 0.0
C139 C 0.42495 0.55166 0.38742 0.0
C140 C 0.33223 0.53323 0.38362 0.0
C141 C 0.22499 0.53266 0.32715 0.0
C142 C 0.21882 0.54924 0.27217 0.0
C143 C 0.47041 0.7306 0.44152 0.0
O144 O 0.28366 0.6308 0.26948 0.0
O145 O 0.16783 0.66565 0.34771 0.0
O146 O 0.5409 0.64432 0.29114 0.0
O147 O 0.58312 0.6039 0.21153 0.0
O148 O 0.4263 0.54333 0.09243 0.0
O149 O 0.5926 0.56595 0.14508 0.0
O150 O 0.55305 0.71045 0.40915 0.0
O151 O 0.3458 0.72765 0.44027 0.0
H152 H 0.49089 0.58085 0.33165 0.0
H153 H 0.14299 0.54762 0.22459 0.0
H154 H 0.1599 0.58275 0.87594 0.0
H155 H 0.42401 0.64293 0.97106 0.0
H156 H 0.33148 0.60628 0.52893 0.0
H157 H 0.45974 0.67934 0.67649 0.0
H158 H 0.51126 0.72542 0.12918 0.0
H159 H 0.10245 0.7056 0.10713 0.0
H160 H 0.50861 0.55261 0.43018 0.0
H161 H 0.15197 0.51855 0.32287 0.0
Cd162 Cd 0.62702 0.31921 0.63534 0.0
Cd163 Cd 0.65936 0.40663 0.80026 0.0
C164 C 0.6883 0.31449 0.44891 0.0
N165 N 0.6612 0.33357 0.51858 0.0
C166 C 0.64446 0.36846 0.44686 0.0
C167 C 0.66427 0.34906 0.3737 0.0
C168 C 0.69006 0.32184 0.37518 0.0
C169 C 0.64363 0.36018 0.51929 0.0
H170 H 0.70365 0.29347 0.45016 0.0
H171 H 0.62525 0.37488 0.57581 0.0
C172 C 0.41793 0.37557 0.75027 0.0
C173 C 0.57523 0.4122 0.98535 0.0
C174 C 0.57045 0.40538 0.05985 0.0
C175 C 0.61514 0.37898 0.06525 0.0
C176 C 0.65616 0.35967 0.99495 0.0
C177 C 0.65841 0.36732 0.92169 0.0
N178 N 0.6219 0.39332 0.91868 0.0
H179 H 0.54589 0.43275 0.9814 0.0
H180 H 0.69179 0.35272 0.86747 0.0
C181 C 0.4522 0.44048 0.70202 0.0
N182 N 0.58042 0.4276 0.69591 0.0
C183 C 0.62097 0.4457 0.58306 0.0
C184 C 0.48936 0.4593 0.58891 0.0
C185 C 0.40378 0.4561 0.64812 0.0
C186 C 0.66485 0.42983 0.6377 0.0
H187 H 0.38847 0.43967 0.75088 0.0
H188 H 0.76729 0.41995 0.63528 0.0
C189 C 0.88253 0.3474 0.68903 0.0
C190 C 0.48658 0.27669 0.55612 0.0
N191 N 0.67005 0.30156 0.74851 0.0
C192 C 0.78622 0.28542 0.75598 0.0
C193 C 0.80601 0.27373 0.82233 0.0
C194 C 0.70553 0.27898 0.88115 0.0
C195 C 0.58665 0.2956 0.87183 0.0
C196 C 0.57029 0.30652 0.804 0.0
C197 C 0.75534 0.45328 0.89312 0.0
O198 O 0.52446 0.36147 0.7197 0.0
O199 O 0.42812 0.39817 0.79763 0.0
O200 O 0.78247 0.36407 0.71935 0.0
O201 O 0.86213 0.32451 0.64582 0.0
O202 O 0.42474 0.30001 0.58434 0.0
O203 O 0.61406 0.27322 0.56427 0.0
O204 O 0.83944 0.43216 0.8729 0.0
O205 O 0.63569 0.45228 0.86643 0.0
H206 H 0.86236 0.28126 0.70978 0.0
H207 H 0.47783 0.31888 0.7952 0.0
H208 H 0.62668 0.38964 0.44755 0.0
H209 H 0.70649 0.30645 0.31964 0.0
H210 H 0.53754 0.42071 0.11321 0.0
H211 H 0.68793 0.33908 0.99732 0.0
H212 H 0.68968 0.44788 0.53806 0.0
H213 H 0.30219 0.46651 0.65462 0.0
H214 H 0.89804 0.26066 0.82766 0.0
H215 H 0.50688 0.29974 0.91597 0.0
C216 C 0.85526 0.16131 0.86778 0.0
C217 C 0.81254 0.13642 0.87135 0.0
C218 C 0.77401 0.12532 0.72452 0.0
C219 C 0.81248 0.15062 0.72131 0.0
N220 N 0.87149 0.19439 0.7893 0.0
N221 N 0.71257 0.0964 0.80745 0.0
C222 C 0.84688 0.16921 0.79296 0.0
C223 C 0.7663 0.1189 0.80087 0.0
N224 N 0.90884 0.17682 0.9354 0.0
N225 N 0.74762 0.10724 0.65429 0.0
H226 H 0.70758 0.09081 0.86222 0.0
H227 H 0.6641 0.08421 0.76012 0.0
H228 H 0.74384 0.1118 0.59762 0.0
H229 H 0.73636 0.08724 0.65118 0.0
H230 H 0.95522 0.19379 0.93554 0.0
H231 H 0.91427 0.17182 0.99143 0.0
H232 H 0.8826 0.20987 0.84006 0.0
H233 H 0.87234 0.20053 0.7352 0.0
C234 C 0.3236 0.83223 0.22201 0.0
C235 C 0.28612 0.85102 0.29574 0.0
C236 C 0.276 0.88823 0.22841 0.0
C237 C 0.3116 0.86955 0.15424 0.0
N238 N 0.40381 0.82504 0.0843 0.0
N239 N 0.27599 0.89664 0.37459 0.0
C240 C 0.34784 0.84191 0.15264 0.0
C241 C 0.2787 0.87896 0.30064 0.0
N242 N 0.32974 0.80529 0.21723 0.0
N243 N 0.23048 0.91445 0.22953 0.0
H244 H 0.27909 0.89044 0.42883 0.0
H245 H 0.28602 0.91694 0.38187 0.0
H246 H 0.22444 0.92223 0.17816 0.0
H247 H 0.18842 0.92801 0.28057 0.0
H248 H 0.34954 0.79057 0.16421 0.0
H249 H 0.3078 0.79745 0.26565 0.0
H250 H 0.44239 0.80508 0.08043 0.0
H251 H 0.4228 0.83181 0.03313 0.0
C252 C 0.22747 0.64139 0.81144 0.0
C253 C 0.30588 0.61911 0.83255 0.0
C254 C 0.44013 0.6113 0.70896 0.0
C255 C 0.35928 0.63333 0.6873 0.0
N256 N 0.15877 0.66552 0.70772 0.0
N257 N 0.48739 0.58282 0.80503 0.0
C258 C 0.2481 0.6473 0.73574 0.0
C259 C 0.4114 0.60378 0.78156 0.0
N260 N 0.13662 0.65756 0.86534 0.0
N261 N 0.54484 0.59787 0.66024 0.0
H262 H 0.46826 0.57673 0.85728 0.0
H263 H 0.57012 0.57124 0.77411 0.0
H264 H 0.57335 0.60387 0.60965 0.0
H265 H 0.60481 0.58075 0.66858 0.0
H266 H 0.09067 0.67623 0.85895 0.0
H267 H 0.11372 0.65319 0.91975 0.0
H268 H 0.06835 0.67435 0.73613 0.0
H269 H 0.16857 0.67019 0.65201 0.0
C270 C 0.529 0.35697 0.16688 0.0
C271 C 0.62612 0.37175 0.14498 0.0
C272 C 0.75344 0.37011 0.27071 0.0
C273 C 0.65116 0.35708 0.29516 0.0
N274 N 0.43114 0.34182 0.27367 0.0
N275 N 0.82391 0.39486 0.1781 0.0
C276 C 0.53617 0.35143 0.24505 0.0
C277 C 0.73607 0.37915 0.19774 0.0
N278 N 0.4306 0.34802 0.11262 0.0
N279 N 0.86986 0.37277 0.31552 0.0
H280 H 0.821 0.40031 0.12279 0.0
H281 H 0.89505 0.40387 0.21836 0.0
H282 H 0.88631 0.36633 0.36918 0.0
H283 H 0.95463 0.37938 0.29674 0.0
H284 H 0.36784 0.33424 0.12067 0.0
H285 H 0.41688 0.353 0.05666 0.0
H286 H 0.33861 0.33997 0.2438 0.0
H287 H 0.43168 0.33775 0.3309 0.0
C288 C 0.3996 0.15137 0.2418 0.0
C289 C 0.47849 0.14314 0.30466 0.0
C290 C 0.2935 0.1208 0.33864 0.0
C291 C 0.21782 0.12778 0.27255 0.0
N292 N 0.20397 0.14566 0.1534 0.0
N293 N 0.50049 0.12322 0.41965 0.0
C294 C 0.27191 0.1421 0.22221 0.0
C295 C 0.42542 0.12867 0.35506 0.0
N296 N 0.44526 0.16873 0.20246 0.0
N297 N 0.23978 0.10605 0.38388 0.0
H298 H 0.59659 0.12903 0.43343 0.0
H299 H 0.46765 0.11396 0.46205 0.0
H300 H 0.1426 0.1005 0.37423 0.0
H301 H 0.29051 0.09863 0.42995 0.0
H302 H 0.38612 0.17805 0.16287 0.0
H303 H 0.53982 0.17545 0.21386 0.0
H304 H 0.24503 0.15299 0.10894 0.0
H305 H 0.10879 0.13962 0.13781 0.0
C306 C 0.65971 0.88041 0.67334 0.0
C307 C 0.73717 0.87106 0.73503 0.0
C308 C 0.53439 0.85842 0.78588 0.0
C309 C 0.45865 0.86621 0.72111 0.0
N310 N 0.44869 0.88167 0.59769 0.0
N311 N 0.75566 0.84848 0.84426 0.0
C312 C 0.52123 0.87641 0.66328 0.0
C313 C 0.67635 0.8594 0.78999 0.0
N314 N 0.71806 0.89374 0.62577 0.0
N315 N 0.47011 0.8501 0.84331 0.0
H316 H 0.86002 0.84869 0.84806 0.0
H317 H 0.72092 0.83735 0.88108 0.0
H318 H 0.36703 0.84842 0.84065 0.0
H319 H 0.51585 0.84663 0.89649 0.0
H320 H 0.66403 0.90392 0.58636 0.0
H321 H 0.82066 0.89594 0.62891 0.0
H322 H 0.49168 0.88586 0.54806 0.0
H323 H 0.34521 0.8805 0.59077 0.0
C324 C 0.83516 0.62357 0.33341 0.0
C325 C 0.76792 0.62677 0.26088 0.0
C326 C 0.97732 0.6337 0.2044 0.0
C327 C 0.04412 0.63102 0.27767 0.0
N328 N 0.04958 0.61477 0.399 0.0
N329 N 0.77601 0.62873 0.12067 0.0
C330 C 0.97676 0.62329 0.33837 0.0
C331 C 0.83965 0.62963 0.19386 0.0
N332 N 0.76376 0.621 0.39756 0.0
N333 N 0.04338 0.6416 0.14705 0.0
H334 H 0.6731 0.62735 0.11174 0.0
H335 H 0.82656 0.62755 0.06738 0.0
H336 H 0.14562 0.64377 0.15188 0.0
H337 H -0.00364 0.6473 0.09699 0.0
H338 H 0.80536 0.62185 0.45511 0.0
H339 H 0.66039 0.61961 0.39484 0.0
H340 H 0.00837 0.60684 0.44209 0.0
H341 H 0.15434 0.61251 0.39958 0.0
C342 C 0.09507 0.35762 0.63928 0.0
C343 C 0.02082 0.3539 0.70422 0.0
C344 C 0.21209 0.36189 0.79719 0.0
C345 C 0.28519 0.36633 0.73289 0.0
N346 N 0.30545 0.36725 0.59275 0.0
N347 N 0.00166 0.35246 0.84387 0.0
C348 C 0.22967 0.36364 0.65364 0.0
C349 C 0.07735 0.35607 0.78299 0.0
N350 N 0.03359 0.35693 0.56542 0.0
N351 N 0.27456 0.36188 0.8704 0.0
H352 H 0.90949 0.34482 0.83321 0.0
H353 H 0.02763 0.35743 0.90496 0.0
H354 H 0.37457 0.36544 0.88225 0.0
H355 H 0.23196 0.35663 0.91828 0.0
H356 H 0.07697 0.36147 0.51662 0.0
H357 H 0.93422 0.35297 0.55309 0.0
H358 H 0.27928 0.36251 0.5317 0.0
H359 H 0.39849 0.37454 0.60295 0.0
C360 C 0.38802 0.2347 0.5567 0.0
C361 C 0.41212 0.25442 0.51495 0.0
C362 C 0.26521 0.23562 0.40305 0.0
C363 C 0.22736 0.21845 0.44973 0.0
N364 N 0.27503 0.19567 0.55766 0.0
N365 N 0.38515 0.27321 0.39753 0.0
C366 C 0.29651 0.21601 0.52242 0.0
C367 C 0.35557 0.25448 0.43714 0.0
N368 N 0.4465 0.235 0.63106 0.0
N369 N 0.21728 0.23318 0.32546 0.0
H370 H 0.45581 0.28649 0.41936 0.0
H371 H 0.3374 0.27638 0.34458 0.0
H372 H 0.15269 0.21911 0.29886 0.0
H373 H 0.24892 0.24335 0.28497 0.0
H374 H 0.4234 0.22309 0.6689 0.0
H375 H 0.51623 0.24806 0.6571 0.0
H376 H 0.33 0.1911 0.60685 0.0
H377 H 0.20732 0.18191 0.53398 0.0
C378 C 0.79856 0.27759 0.01962 0.0
C379 C 0.72163 0.2662 0.95097 0.0
C380 C 0.67277 0.2308 0.01597 0.0
C381 C 0.74349 0.24313 0.08616 0.0
N382 N 0.8536 0.28041 0.16141 0.0
N383 N 0.57759 0.23328 0.88391 0.0
C384 C 0.80026 0.26722 0.08995 0.0
C385 C 0.65589 0.24321 0.94934 0.0
N386 N 0.87378 0.2977 0.01657 0.0
N387 N 0.62565 0.20676 0.01233 0.0
H388 H 0.57029 0.24065 0.83166 0.0
H389 H 0.51475 0.21855 0.88218 0.0
H390 H 0.63152 0.19767 0.06116 0.0
H391 H 0.58746 0.19498 0.95998 0.0
H392 H 0.94271 0.30498 0.06139 0.0
H393 H 0.87558 0.30581 0.96607 0.0
H394 H 0.8821 0.29966 0.17104 0.0
H395 H 0.85878 0.27306 0.21368 0.0
C396 C 0.5777 0.76901 0.42226 0.0
C397 C 0.52092 0.75647 0.47608 0.0
C398 C 0.63894 0.78263 0.59003 0.0
C399 C 0.71733 0.79038 0.53372 0.0
N400 N 0.75471 0.79429 0.3983 0.0
N401 N 0.47925 0.75324 0.61125 0.0
C402 C 0.68323 0.78494 0.45035 0.0
C403 C 0.54351 0.76438 0.56046 0.0
N404 N 0.52922 0.76553 0.34469 0.0
N405 N 0.65733 0.79246 0.67121 0.0
H406 H 0.3993 0.74204 0.59168 0.0
H407 H 0.50607 0.75466 0.67174 0.0
H408 H 0.72752 0.8057 0.69435 0.0
H409 H 0.59722 0.78917 0.71555 0.0
H410 H 0.56017 0.77513 0.30248 0.0
H411 H 0.44704 0.75491 0.32539 0.0
H412 H 0.74449 0.78884 0.33562 0.0
H413 H 0.82825 0.80712 0.41822 0.0
C414 C 0.19274 0.7544 0.04856 0.0
C415 C 0.27982 0.72983 0.03904 0.0
C416 C 0.30519 0.72842 0.89513 0.0
C417 C 0.22663 0.75384 0.90615 0.0
N418 N 0.11575 0.79349 0.99568 0.0
N419 N 0.43713 0.69567 0.9567 0.0
C420 C 0.17549 0.7675 0.9835 0.0
C421 C 0.34179 0.71753 0.96335 0.0
N422 N 0.12655 0.76531 0.11983 0.0
N423 N 0.34087 0.71419 0.81892 0.0
H424 H 0.46439 0.68654 0.00429 0.0
H425 H 0.49733 0.6878 0.90599 0.0
H426 H 0.31659 0.72148 0.76727 0.0
H427 H 0.38404 0.69425 0.80641 0.0
H428 H 0.04836 0.78104 0.12664 0.0
H429 H 0.14576 0.75802 0.17181 0.0
H430 H 0.09103 0.80565 0.05264 0.0
H431 H 0.10122 0.8038 0.94958 0.0
C432 C 0.68083 0.01591 0.98554 0.0
C433 C 0.68877 0.01968 0.07011 0.0
C434 C 0.80372 0.97431 0.05706 0.0
C435 C 0.82589 0.97348 0.97462 0.0
N436 N 0.7664 0.99013 0.85517 0.0
N437 N 0.71365 0.00109 0.18646 0.0
C438 C 0.75541 0.99296 0.93662 0.0
C439 C 0.73258 0.99794 0.10556 0.0
N440 N 0.60838 0.03541 0.95403 0.0
N441 N 0.85513 0.95304 0.08858 0.0
H442 H 0.65969 0.01847 0.22086 0.0
H443 H 0.74593 0.98665 0.21875 0.0
H444 H 0.9066 0.93552 0.05336 0.0
H445 H 0.84445 0.95218 0.1484 0.0
H446 H 0.59291 0.03417 0.89248 0.0
H447 H 0.55594 0.05234 0.99169 0.0
H448 H 0.72788 0.00466 0.82439 0.0
H449 H 0.8162 0.97294 0.81789 0.0
C450 C 0.02251 0.9934 0.44197 0.0
C451 C 0.06295 0.0196 0.45976 0.0
C452 C 0.16826 0.01224 0.58663 0.0
C453 C 0.1358 0.98539 0.56603 0.0
N454 N 0.06083 0.94853 0.46534 0.0
N455 N 0.20005 0.05177 0.53913 0.0
C456 C 0.07251 0.97537 0.49058 0.0
C457 C 0.14411 0.02833 0.52904 0.0
N458 N 0.93091 0.98617 0.38125 0.0
N459 N 0.21471 0.02295 0.6626 0.0
H460 H 0.18482 0.06402 0.49803 0.0
H461 H 0.27128 0.05775 0.58405 0.0
H462 H 0.2322 0.01209 0.70718 0.0
H463 H 0.22515 0.04329 0.68363 0.0
H464 H 0.88705 0.96837 0.37122 0.0
H465 H 0.88853 0.99904 0.34564 0.0
H466 H 0.02622 0.93966 0.40785 0.0
H467 H 0.09884 0.93466 0.49889 0.0
C468 C 0.68758 0.49984 0.08557 0.0
C469 C 0.65137 0.52324 0.05584 0.0
C470 C 0.7653 0.50187 0.92834 0.0
C471 C 0.78339 0.47749 0.95367 0.0
N472 N 0.81053 0.45485 0.06196 0.0
N473 N 0.68694 0.54973 0.96087 0.0
C474 C 0.76293 0.47725 0.03511 0.0
C475 C 0.70252 0.52544 0.98139 0.0
N476 N 0.64436 0.49892 0.16002 0.0
N477 N 0.79876 0.50156 0.85104 0.0
H478 H 0.63825 0.56717 0.99796 0.0
H479 H 0.72904 0.55311 0.90982 0.0
H480 H 0.84868 0.48434 0.81331 0.0
H481 H 0.77578 0.51769 0.82401 0.0
H482 H 0.65508 0.48159 0.18207 0.0
H483 H 0.5929 0.51556 0.19922 0.0
H484 H 0.80537 0.45346 0.12176 0.0
H485 H 0.8658 0.43831 0.02452 0.0
C486 C 0.41217 0.50592 0.57044 0.0
C487 C 0.44237 0.47793 0.53596 0.0
C488 C 0.39913 0.48599 0.40041 0.0
C489 C 0.3563 0.51354 0.43551 0.0
N490 N 0.29503 0.54851 0.55455 0.0
N491 N 0.43445 0.44063 0.42 0.0
C492 C 0.35406 0.52309 0.52089 0.0
C493 C 0.42665 0.46773 0.45142 0.0
N494 N 0.44479 0.51633 0.64952 0.0
N495 N 0.42067 0.47743 0.31898 0.0
H496 H 0.45048 0.42669 0.4559 0.0
H497 H 0.41149 0.43217 0.35978 0.0
H498 H 0.40469 0.49012 0.27923 0.0
H499 H 0.46633 0.45824 0.29192 0.0
H500 H 0.43736 0.53689 0.67531 0.0
H501 H 0.49183 0.50462 0.68732 0.0
H502 H 0.27993 0.55581 0.61652 0.0
H503 H 0.24892 0.56136 0.51975 0.0
loop_
_geom_bond_atom_site_label_1
_geom_bond_atom_site_label_2
_geom_bond_distance
_geom_bond_site_symmetry_2
_ccdc_geom_bond_type
Cd0 N3 2.334 1_455 S
Cd0 N29 2.304 . S
Cd0 O36 2.268 1_455 S
Cd0 O39 2.273 . S
Cd0 O40 2.417 1_455 S
Cd0 O41 2.330 . S
Cd1 N16 2.304 1_655 S
Cd1 N20 2.334 . S
Cd1 O37 2.273 . S
Cd1 O38 2.268 1_655 S
Cd1 O42 2.417 1_655 S
Cd1 O43 2.330 . S
C2 N3 1.332 1_455 S
C2 C6 1.381 1_554 S
C2 H8 0.931 . S
N3 Cd0 2.334 1_655 S
N3 C2 1.332 1_655 S
N3 C7 1.328 . S
C4 C5 1.396 . S
C4 C7 1.378 1_556 S
C4 H46 0.931 . S
C5 C4 1.396 . S
C5 C6 1.382 1_655 S
C6 C2 1.381 1_556 S
C6 C5 1.382 1_455 S
C6 H47 0.930 . S
C7 N3 1.328 . S
C7 C4 1.378 1_554 S
C7 H9 0.930 . S
H8 C2 0.931 . S
H9 C7 0.930 . S
C10 O36 1.238 . S
C10 O37 1.253 . S
C11 C12 1.379 . S
C11 N16 1.337 1_655 S
C11 H17 0.929 . S
C12 C11 1.379 . S
C12 C13 1.380 1_655 S
C12 H48 0.929 . S
C13 C12 1.380 1_455 S
C13 C14 1.399 . S
C14 C13 1.399 . S
C14 C15 1.376 . S
C14 H49 0.931 . S
C15 C14 1.376 . S
C15 N16 1.338 . S
C15 H18 0.930 . S
N16 Cd1 2.304 1_455 S
N16 C11 1.337 1_455 S
N16 C15 1.338 . S
H17 C11 0.929 . S
H18 C15 0.930 . S
C19 N20 1.332 . S
C19 C23 1.381 . S
C19 H25 0.931 . S
N20 Cd1 2.334 . S
N20 C19 1.332 . S
N20 C24 1.328 1_655 S
C21 C22 1.396 1_455 S
C21 C24 1.378 . S
C21 H50 0.931 . S
C22 C21 1.396 1_655 S
C22 C23 1.382 . S
C23 C19 1.381 . S
C23 C22 1.382 . S
C23 H51 0.930 . S
C24 N20 1.328 1_455 S
C24 C21 1.378 . S
C24 H26 0.930 . S
H25 C19 0.931 . S
H26 C24 0.930 . S
C27 O38 1.238 . S
C27 O39 1.253 . S
C28 O40 1.239 . S
C28 O41 1.230 1_655 S
N29 Cd0 2.304 . S
N29 C30 1.337 . S
N29 C34 1.338 1_455 S
C30 N29 1.337 . S
C30 C31 1.379 . S
C30 H44 0.929 . S
C31 C30 1.379 . S
C31 C32 1.380 . S
C31 H52 0.929 . S
C32 C31 1.380 . S
C32 C33 1.399 1_455 S
C33 C32 1.399 1_655 S
C33 C34 1.376 . S
C33 H53 0.931 . S
C34 N29 1.338 1_655 S
C34 C33 1.376 . S
C34 H45 0.930 . S
C35 O42 1.239 . S
C35 O43 1.230 1_455 S
O36 Cd0 2.268 1_655 S
O36 C10 1.238 . S
O37 Cd1 2.273 . S
O37 C10 1.253 . S
O38 Cd1 2.268 1_455 S
O38 C27 1.238 . S
O39 Cd0 2.273 . S
O39 C27 1.253 . S
O40 Cd0 2.417 1_655 S
O40 C28 1.239 . S
O41 Cd0 2.330 . S
O41 C28 1.230 1_455 S
O42 Cd1 2.417 1_455 S
O42 C35 1.239 . S
O43 Cd1 2.330 . S
O43 C35 1.230 1_655 S
H44 C30 0.929 . S
H45 C34 0.930 . S
H46 C4 0.931 . S
H47 C6 0.930 . S
H48 C12 0.929 . S
H49 C14 0.931 . S
H50 C21 0.931 . S
H51 C23 0.930 . S
H52 C31 0.929 . S
H53 C33 0.931 . S
Cd54 N57 2.334 . S
Cd54 N83 2.304 . S
Cd54 O90 2.268 1_455 S
Cd54 O93 2.273 . S
Cd54 O94 2.417 1_455 S
Cd54 O95 2.330 . S
Cd55 N70 2.304 . S
Cd55 N74 2.334 1_455 S
Cd55 O91 2.273 1_455 S
Cd55 O92 2.268 . S
Cd55 O96 2.417 . S
Cd55 O97 2.330 1_455 S
C56 N57 1.332 . S
C56 C60 1.381 . S
C56 H62 0.931 . S
N57 Cd54 2.334 . S
N57 C56 1.332 . S
N57 C61 1.328 1_455 S
C58 C59 1.396 1_655 S
C58 C61 1.378 . S
C58 H100 0.931 . S
C59 C58 1.396 1_455 S
C59 C60 1.382 . S
C60 C56 1.381 . S
C60 C59 1.382 . S
C60 H101 0.930 . S
C61 N57 1.328 1_655 S
C61 C58 1.378 . S
C61 H63 0.930 . S
H62 C56 0.931 . S
H63 C61 0.930 . S
C64 O90 1.238 . S
C64 O91 1.253 . S
C65 C66 1.379 1_556 S
C65 N70 1.337 1_655 S
C65 H71 0.929 . S
C66 C65 1.379 1_554 S
C66 C67 1.380 1_655 S
C66 H102 0.929 . S
C67 C66 1.380 1_455 S
C67 C68 1.399 . S
C68 C67 1.399 . S
C68 C69 1.376 1_554 S
C68 H103 0.931 . S
C69 C68 1.376 1_556 S
C69 N70 1.338 . S
C69 H72 0.930 . S
N70 Cd55 2.304 . S
N70 C65 1.337 1_455 S
N70 C69 1.338 . S
H71 C65 0.929 . S
H72 C69 0.930 . S
C73 N74 1.332 . S
C73 C77 1.381 . S
C73 H79 0.931 . S
N74 Cd55 2.334 1_655 S
N74 C73 1.332 . S
N74 C78 1.328 1_655 S
C75 C76 1.396 1_455 S
C75 C78 1.378 . S
C75 H104 0.931 . S
C76 C75 1.396 1_655 S
C76 C77 1.382 . S
C77 C73 1.381 . S
C77 C76 1.382 . S
C77 H105 0.930 . S
C78 N74 1.328 1_455 S
C78 C75 1.378 . S
C78 H80 0.930 . S
H79 C73 0.931 . S
H80 C78 0.930 . S
C81 O92 1.238 . S
C81 O93 1.253 . S
C82 O94 1.239 . S
C82 O95 1.230 1_655 S
N83 Cd54 2.304 . S
N83 C84 1.337 . S
N83 C88 1.338 1_455 S
C84 N83 1.337 . S
C84 C85 1.379 . S
C84 H98 0.929 . S
C85 C84 1.379 . S
C85 C86 1.380 . S
C85 H106 0.929 . S
C86 C85 1.380 . S
C86 C87 1.399 1_455 S
C87 C86 1.399 1_655 S
C87 C88 1.376 . S
C87 H107 0.931 . S
C88 N83 1.338 1_655 S
C88 C87 1.376 . S
C88 H99 0.930 . S
C89 O96 1.239 . S
C89 O97 1.230 1_455 S
O90 Cd54 2.268 1_655 S
O90 C64 1.238 . S
O91 Cd55 2.273 1_655 S
O91 C64 1.253 . S
O92 Cd55 2.268 . S
O92 C81 1.238 . S
O93 Cd54 2.273 . S
O93 C81 1.253 . S
O94 Cd54 2.417 1_655 S
O94 C82 1.239 . S
O95 Cd54 2.330 . S
O95 C82 1.230 1_455 S
O96 Cd55 2.417 . S
O96 C89 1.239 . S
O97 Cd55 2.330 1_655 S
O97 C89 1.230 1_655 S
H98 C84 0.929 . S
H99 C88 0.930 . S
H100 C58 0.931 . S
H101 C60 0.930 . S
H102 C66 0.929 . S
H103 C68 0.931 . S
H104 C75 0.931 . S
H105 C77 0.930 . S
H106 C85 0.929 . S
H107 C87 0.931 . S
Cd108 N111 2.334 . S
Cd108 N137 2.304 . S
Cd108 O144 2.268 . S
Cd108 O147 2.273 . S
Cd108 O148 2.417 . S
Cd108 O149 2.330 . S
Cd109 N124 2.304 . S
Cd109 N128 2.334 . S
Cd109 O145 2.273 . S
Cd109 O146 2.268 . S
Cd109 O150 2.417 . S
Cd109 O151 2.330 . S
C110 N111 1.332 . S
C110 C114 1.381 1_554 S
C110 H116 0.931 . S
N111 Cd108 2.334 . S
N111 C110 1.332 . S
N111 C115 1.328 . S
C112 C113 1.396 . S
C112 C115 1.378 1_556 S
C112 H154 0.931 . S
C113 C112 1.396 . S
C113 C114 1.382 . S
C114 C110 1.381 1_556 S
C114 C113 1.382 . S
C114 H155 0.930 . S
C115 N111 1.328 . S
C115 C112 1.378 1_554 S
C115 H117 0.930 . S
H116 C110 0.931 . S
H117 C115 0.930 . S
C118 O144 1.238 . S
C118 O145 1.253 . S
C119 C120 1.379 . S
C119 N124 1.337 . S
C119 H125 0.929 . S
C120 C119 1.379 . S
C120 C121 1.380 . S
C120 H156 0.929 . S
C121 C120 1.380 . S
C121 C122 1.399 . S
C122 C121 1.399 . S
C122 C123 1.376 . S
C122 H157 0.931 . S
C123 C122 1.376 . S
C123 N124 1.338 . S
C123 H126 0.930 . S
N124 Cd109 2.304 . S
N124 C119 1.337 . S
N124 C123 1.338 . S
H125 C119 0.929 . S
H126 C123 0.930 . S
C127 N128 1.332 . S
C127 C131 1.381 . S
C127 H133 0.931 . S
N128 Cd109 2.334 . S
N128 C127 1.332 . S
N128 C132 1.328 . S
C129 C130 1.396 . S
C129 C132 1.378 . S
C129 H158 0.931 . S
C130 C129 1.396 . S
C130 C131 1.382 . S
C131 C127 1.381 . S
C131 C130 1.382 . S
C131 H159 0.930 . S
C132 N128 1.328 . S
C132 C129 1.378 . S
C132 H134 0.930 . S
H133 C127 0.931 . S
H134 C132 0.930 . S
C135 O146 1.238 . S
C135 O147 1.253 . S
C136 O148 1.239 . S
C136 O149 1.230 . S
N137 Cd108 2.304 . S
N137 C138 1.337 . S
N137 C142 1.338 . S
C138 N137 1.337 . S
C138 C139 1.379 . S
C138 H152 0.929 . S
C139 C138 1.379 . S
C139 C140 1.380 . S
C139 H160 0.929 . S
C140 C139 1.380 . S
C140 C141 1.399 . S
C141 C140 1.399 . S
C141 C142 1.376 . S
C141 H161 0.931 . S
C142 N137 1.338 . S
C142 C141 1.376 . S
C142 H153 0.930 . S
C143 O150 1.239 . S
C143 O151 1.230 . S
O144 Cd108 2.268 . S
O144 C118 1.238 . S
O145 Cd109 2.273 . S
O145 C118 1.253 . S
O146 Cd109 2.268 . S
O146 C135 1.238 . S
O147 Cd108 2.273 . S
O147 C135 1.253 . S
O148 Cd108 2.417 . S
O148 C136 1.239 . S
O149 Cd108 2.330 . S
O149 C136 1.230 . S
O150 Cd109 2.417 . S
O150 C143 1.239 . S
O151 Cd109 2.330 . S
O151 C143 1.230 . S
H152 C138 0.929 . S
H153 C142 0.930 . S
H154 C112 0.931 . S
H155 C114 0.930 . S
H156 C120 0.929 . S
H157 C122 0.931 . S
H158 C129 0.931 . S
H159 C131 0.930 . S
H160 C139 0.929 . S
H161 C141 0.931 . S
Cd162 N165 2.334 . S
Cd162 N191 2.304 . S
Cd162 O198 2.268 . S
Cd162 O201 2.273 . S
Cd162 O202 2.417 . S
Cd162 O203 2.330 . S
Cd163 N178 2.304 . S
Cd163 N182 2.334 . S
Cd163 O199 2.273 . S
Cd163 O200 2.268 . S
Cd163 O204 2.417 . S
Cd163 O205 2.330 . S
C164 N165 1.332 . S
C164 C168 1.381 . S
C164 H170 0.931 . S
N165 Cd162 2.334 . S
N165 C164 1.332 . S
N165 C169 1.328 . S
C166 C167 1.396 . S
C166 C169 1.378 . S
C166 H208 0.931 . S
C167 C166 1.396 . S
C167 C168 1.382 . S
C168 C164 1.381 . S
C168 C167 1.382 . S
C168 H209 0.930 . S
C169 N165 1.328 . S
C169 C166 1.378 . S
C169 H171 0.930 . S
H170 C164 0.931 . S
H171 C169 0.930 . S
C172 O198 1.238 . S
C172 O199 1.253 . S
C173 C174 1.379 1_556 S
C173 N178 1.337 . S
C173 H179 0.929 . S
C174 C173 1.379 1_554 S
C174 C175 1.380 . S
C174 H210 0.929 . S
C175 C174 1.380 . S
C175 C176 1.399 . S
C176 C175 1.399 . S
C176 C177 1.376 1_554 S
C176 H211 0.931 . S
C177 C176 1.376 1_556 S
C177 N178 1.338 . S
C177 H180 0.930 . S
N178 Cd163 2.304 . S
N178 C173 1.337 . S
N178 C177 1.338 . S
H179 C173 0.929 . S
H180 C177 0.930 . S
C181 N182 1.332 . S
C181 C185 1.381 . S
C181 H187 0.931 . S
N182 Cd163 2.334 . S
N182 C181 1.332 . S
N182 C186 1.328 . S
C183 C184 1.396 . S
C183 C186 1.378 . S
C183 H212 0.931 . S
C184 C183 1.396 . S
C184 C185 1.382 . S
C185 C181 1.381 . S
C185 C184 1.382 . S
C185 H213 0.930 . S
C186 N182 1.328 . S
C186 C183 1.378 . S
C186 H188 0.930 . S
H187 C181 0.931 . S
H188 C186 0.930 . S
C189 O200 1.238 . S
C189 O201 1.253 . S
C190 O202 1.239 . S
C190 O203 1.230 . S
N191 Cd162 2.304 . S
N191 C192 1.337 . S
N191 C196 1.338 . S
C192 N191 1.337 . S
C192 C193 1.379 . S
C192 H206 0.929 . S
C193 C192 1.379 . S
C193 C194 1.380 . S
C193 H214 0.929 . S
C194 C193 1.380 . S
C194 C195 1.399 . S
C195 C194 1.399 . S
C195 C196 1.376 . S
C195 H215 0.931 . S
C196 N191 1.338 . S
C196 C195 1.376 . S
C196 H207 0.930 . S
C197 O204 1.239 . S
C197 O205 1.230 . S
O198 Cd162 2.268 . S
O198 C172 1.238 . S
O199 Cd163 2.273 . S
O199 C172 1.253 . S
O200 Cd163 2.268 . S
O200 C189 1.238 . S
O201 Cd162 2.273 . S
O201 C189 1.253 . S
O202 Cd162 2.417 . S
O202 C190 1.239 . S
O203 Cd162 2.330 . S
O203 C190 1.230 . S
O204 Cd163 2.417 . S
O204 C197 1.239 . S
O205 Cd163 2.330 . S
O205 C197 1.230 . S
H206 C192 0.929 . S
H207 C196 0.930 . S
H208 C166 0.931 . S
H209 C168 0.930 . S
H210 C174 0.929 . S
H211 C176 0.931 . S
H212 C183 0.931 . S
H213 C185 0.930 . S
H214 C193 0.929 . S
H215 C195 0.931 . S
C216 C217 1.363 . S
C216 C222 1.379 . S
C216 N224 1.356 . S
C217 C216 1.363 . S
C217 C223 1.363 1_655 S
C218 C219 1.363 . S
C218 C223 1.379 . S
C218 N225 1.356 . S
C219 C218 1.363 . S
C219 C222 1.363 1_455 S
N220 C222 1.356 . S
N220 H232 0.984 . S
N220 H233 0.985 . S
N221 C223 1.356 . S
N221 H226 0.984 . S
N221 H227 0.985 . S
C222 C216 1.379 . S
C222 C219 1.363 1_655 S
C222 N220 1.356 . S
C223 C217 1.363 1_455 S
C223 C218 1.379 . S
C223 N221 1.356 . S
N224 C216 1.356 . S
N224 H230 0.984 . S
N224 H231 0.984 . S
N225 C218 1.356 . S
N225 H228 0.984 . S
N225 H229 0.985 . S
H226 N221 0.984 . S
H227 N221 0.985 . S
H228 N225 0.984 . S
H229 N225 0.985 . S
H230 N224 0.984 . S
H231 N224 0.984 . S
H232 N220 0.984 . S
H233 N220 0.985 . S
C234 C235 1.363 . S
C234 C240 1.379 . S
C234 N242 1.356 . S
C235 C234 1.363 . S
C235 C241 1.363 1_455 S
C236 C237 1.363 1_655 S
C236 C241 1.379 . S
C236 N243 1.356 . S
C237 C236 1.363 1_455 S
C237 C240 1.363 . S
N238 C240 1.356 . S
N238 H250 0.984 . S
N238 H251 0.985 . S
N239 C241 1.356 . S
N239 H244 0.984 . S
N239 H245 0.985 . S
C240 C234 1.379 . S
C240 C237 1.363 . S
C240 N238 1.356 . S
C241 C235 1.363 1_655 S
C241 C236 1.379 . S
C241 N239 1.356 . S
N242 C234 1.356 . S
N242 H248 0.984 . S
N242 H249 0.984 . S
N243 C236 1.356 . S
N243 H246 0.984 . S
N243 H247 0.985 . S
H244 N239 0.984 . S
H245 N239 0.985 . S
H246 N243 0.984 . S
H247 N243 0.985 . S
H248 N242 0.984 . S
H249 N242 0.984 . S
H250 N238 0.984 . S
H251 N238 0.985 . S
C252 C253 1.363 . S
C252 C258 1.379 . S
C252 N260 1.356 . S
C253 C252 1.363 . S
C253 C259 1.363 . S
C254 C255 1.363 . S
C254 C259 1.379 . S
C254 N261 1.356 . S
C255 C254 1.363 . S
C255 C258 1.363 . S
N256 C258 1.356 . S
N256 H268 0.984 . S
N256 H269 0.985 . S
N257 C259 1.356 . S
N257 H262 0.984 . S
N257 H263 0.985 . S
C258 C252 1.379 . S
C258 C255 1.363 . S
C258 N256 1.356 . S
C259 C253 1.363 . S
C259 C254 1.379 . S
C259 N257 1.356 . S
N260 C252 1.356 . S
N260 H266 0.984 . S
N260 H267 0.984 . S
N261 C254 1.356 . S
N261 H264 0.984 . S
N261 H265 0.985 . S
H262 N257 0.984 . S
H263 N257 0.985 . S
H264 N261 0.984 . S
H265 N261 0.985 . S
H266 N260 0.984 . S
H267 N260 0.984 . S
H268 N256 0.984 . S
H269 N256 0.985 . S
C270 C271 1.363 . S
C270 C276 1.379 . S
C270 N278 1.356 . S
C271 C270 1.363 . S
C271 C277 1.363 . S
C272 C273 1.363 . S
C272 C277 1.379 . S
C272 N279 1.356 . S
C273 C272 1.363 . S
C273 C276 1.363 . S
N274 C276 1.356 . S
N274 H286 0.984 . S
N274 H287 0.985 . S
N275 C277 1.356 . S
N275 H280 0.984 . S
N275 H281 0.985 . S
C276 C270 1.379 . S
C276 C273 1.363 . S
C276 N274 1.356 . S
C277 C271 1.363 . S
C277 C272 1.379 . S
C277 N275 1.356 . S
N278 C270 1.356 . S
N278 H284 0.984 . S
N278 H285 0.984 . S
N279 C272 1.356 . S
N279 H282 0.984 . S
N279 H283 0.985 . S
H280 N275 0.984 . S
H281 N275 0.985 . S
H282 N279 0.984 . S
H283 N279 0.985 . S
H284 N278 0.984 . S
H285 N278 0.984 . S
H286 N274 0.984 . S
H287 N274 0.985 . S
C288 C289 1.363 . S
C288 C294 1.379 . S
C288 N296 1.356 . S
C289 C288 1.363 . S
C289 C295 1.363 . S
C290 C291 1.363 . S
C290 C295 1.379 . S
C290 N297 1.356 . S
C291 C290 1.363 . S
C291 C294 1.363 . S
N292 C294 1.356 . S
N292 H304 0.984 . S
N292 H305 0.985 . S
N293 C295 1.356 . S
N293 H298 0.984 . S
N293 H299 0.985 . S
C294 C288 1.379 . S
C294 C291 1.363 . S
C294 N292 1.356 . S
C295 C289 1.363 . S
C295 C290 1.379 . S
C295 N293 1.356 . S
N296 C288 1.356 . S
N296 H302 0.984 . S
N296 H303 0.984 . S
N297 C290 1.356 . S
N297 H300 0.984 . S
N297 H301 0.985 . S
H298 N293 0.984 . S
H299 N293 0.985 . S
H300 N297 0.984 . S
H301 N297 0.985 . S
H302 N296 0.984 . S
H303 N296 0.984 . S
H304 N292 0.984 . S
H305 N292 0.985 . S
C306 C307 1.363 . S
C306 C312 1.379 . S
C306 N314 1.356 . S
C307 C306 1.363 . S
C307 C313 1.363 . S
C308 C309 1.363 . S
C308 C313 1.379 . S
C308 N315 1.356 . S
C309 C308 1.363 . S
C309 C312 1.363 . S
N310 C312 1.356 . S
N310 H322 0.984 . S
N310 H323 0.985 . S
N311 C313 1.356 . S
N311 H316 0.984 . S
N311 H317 0.985 . S
C312 C306 1.379 . S
C312 C309 1.363 . S
C312 N310 1.356 . S
C313 C307 1.363 . S
C313 C308 1.379 . S
C313 N311 1.356 . S
N314 C306 1.356 . S
N314 H320 0.984 . S
N314 H321 0.984 . S
N315 C308 1.356 . S
N315 H318 0.984 . S
N315 H319 0.985 . S
H316 N311 0.984 . S
H317 N311 0.985 . S
H318 N315 0.984 . S
H319 N315 0.985 . S
H320 N314 0.984 . S
H321 N314 0.984 . S
H322 N310 0.984 . S
H323 N310 0.985 . S
C324 C325 1.363 . S
C324 C330 1.379 1_655 S
C324 N332 1.356 . S
C325 C324 1.363 . S
C325 C331 1.363 . S
C326 C327 1.363 . S
C326 C331 1.379 1_455 S
C326 N333 1.356 . S
C327 C326 1.363 . S
C327 C330 1.363 . S
N328 C330 1.356 . S
N328 H340 0.984 . S
N328 H341 0.985 . S
N329 C331 1.356 . S
N329 H334 0.984 . S
N329 H335 0.985 . S
C330 C324 1.379 1_455 S
C330 C327 1.363 . S
C330 N328 1.356 . S
C331 C325 1.363 . S
C331 C326 1.379 1_655 S
C331 N329 1.356 . S
N332 C324 1.356 . S
N332 H338 0.984 . S
N332 H339 0.984 . S
N333 C326 1.356 . S
N333 H336 0.984 . S
N333 H337 0.985 . S
H334 N329 0.984 . S
H335 N329 0.985 . S
H336 N333 0.984 . S
H337 N333 0.985 . S
H338 N332 0.984 . S
H339 N332 0.984 . S
H340 N328 0.984 . S
H341 N328 0.985 . S
C342 C343 1.363 . S
C342 C348 1.379 1_655 S
C342 N350 1.356 . S
C343 C342 1.363 . S
C343 C349 1.363 . S
C344 C345 1.363 . S
C344 C349 1.379 1_455 S
C344 N351 1.356 . S
C345 C344 1.363 . S
C345 C348 1.363 . S
N346 C348 1.356 . S
N346 H358 0.984 . S
N346 H359 0.985 . S
N347 C349 1.356 . S
N347 H352 0.984 . S
N347 H353 0.985 . S
C348 C342 1.379 1_455 S
C348 C345 1.363 . S
C348 N346 1.356 . S
C349 C343 1.363 . S
C349 C344 1.379 1_655 S
C349 N347 1.356 . S
N350 C342 1.356 . S
N350 H356 0.984 . S
N350 H357 0.984 . S
N351 C344 1.356 . S
N351 H354 0.984 . S
N351 H355 0.985 . S
H352 N347 0.984 . S
H353 N347 0.985 . S
H354 N351 0.984 . S
H355 N351 0.985 . S
H356 N350 0.984 . S
H357 N350 0.984 . S
H358 N346 0.984 . S
H359 N346 0.985 . S
C360 C361 1.363 . S
C360 C366 1.379 . S
C360 N368 1.356 . S
C361 C360 1.363 . S
C361 C367 1.363 . S
C362 C363 1.363 . S
C362 C367 1.379 . S
C362 N369 1.356 . S
C363 C362 1.363 . S
C363 C366 1.363 . S
N364 C366 1.356 . S
N364 H376 0.984 . S
N364 H377 0.985 . S
N365 C367 1.356 . S
N365 H370 0.984 . S
N365 H371 0.985 . S
C366 C360 1.379 . S
C366 C363 1.363 . S
C366 N364 1.356 . S
C367 C361 1.363 . S
C367 C362 1.379 . S
C367 N365 1.356 . S
N368 C360 1.356 . S
N368 H374 0.984 . S
N368 H375 0.984 . S
N369 C362 1.356 . S
N369 H372 0.984 . S
N369 H373 0.985 . S
H370 N365 0.984 . S
H371 N365 0.985 . S
H372 N369 0.984 . S
H373 N369 0.985 . S
H374 N368 0.984 . S
H375 N368 0.984 . S
H376 N364 0.984 . S
H377 N364 0.985 . S
C378 C379 1.363 1_554 S
C378 C384 1.379 . S
C378 N386 1.356 . S
C379 C378 1.363 1_556 S
C379 C385 1.363 . S
C380 C381 1.363 1_556 S
C380 C385 1.379 . S
C380 N387 1.356 . S
C381 C380 1.363 1_554 S
C381 C384 1.363 . S
N382 C384 1.356 . S
N382 H394 0.987 . S
N382 H395 0.985 1_655 S
N383 C385 1.356 . S
N383 H388 0.984 . S
N383 H389 0.985 . S
C384 C378 1.379 . S
C384 C381 1.363 . S
C384 N382 1.356 . S
C385 C379 1.363 . S
C385 C380 1.379 . S
C385 N383 1.356 . S
N386 C378 1.356 . S
N386 H392 0.984 . S
N386 H393 0.984 . S
N387 C380 1.356 . S
N387 H390 0.984 . S
N387 H391 0.985 . S
H388 N383 0.984 . S
H389 N383 0.985 . S
H390 N387 0.984 . S
H391 N387 0.985 . S
H392 N386 0.984 . S
H393 N386 0.984 . S
H394 N382 0.987 . S
H395 N382 0.985 1_455 S
C396 C397 1.363 . S
C396 C402 1.379 . S
C396 N404 1.356 . S
C397 C396 1.363 . S
C397 C403 1.363 . S
C398 C399 1.363 . S
C398 C403 1.379 . S
C398 N405 1.356 . S
C399 C398 1.363 . S
C399 C402 1.363 . S
N400 C402 1.356 . S
N400 H412 0.984 1_655 S
N400 H413 0.985 1_655 S
N401 C403 1.356 . S
N401 H406 0.984 . S
N401 H407 0.985 . S
C402 C396 1.379 . S
C402 C399 1.363 . S
C402 N400 1.356 . S
C403 C397 1.363 . S
C403 C398 1.379 . S
C403 N401 1.356 . S
N404 C396 1.356 . S
N404 H410 0.984 . S
N404 H411 0.984 . S
N405 C398 1.356 . S
N405 H408 0.984 . S
N405 H409 0.985 . S
H406 N401 0.984 . S
H407 N401 0.985 . S
H408 N405 0.984 . S
H409 N405 0.985 . S
H410 N404 0.984 . S
H411 N404 0.984 . S
H412 N400 0.984 1_455 S
H413 N400 0.985 1_455 S
C414 C415 1.363 . S
C414 C420 1.379 . S
C414 N422 1.356 . S
C415 C414 1.363 . S
C415 C421 1.363 1_554 S
C416 C417 1.363 . S
C416 C421 1.379 . S
C416 N423 1.356 . S
C417 C416 1.363 . S
C417 C420 1.363 1_556 S
N418 C420 1.356 . S
N418 H430 0.984 . S
N418 H431 0.985 . S
N419 C421 1.356 . S
N419 H424 0.984 . S
N419 H425 0.985 . S
C420 C414 1.379 . S
C420 C417 1.363 1_554 S
C420 N418 1.356 . S
C421 C415 1.363 1_556 S
C421 C416 1.379 . S
C421 N419 1.356 . S
N422 C414 1.356 . S
N422 H428 0.984 . S
N422 H429 0.984 . S
N423 C416 1.356 . S
N423 H426 0.984 . S
N423 H427 0.985 . S
H424 N419 0.984 . S
H425 N419 0.985 . S
H426 N423 0.984 . S
H427 N423 0.985 . S
H428 N422 0.984 . S
H429 N422 0.984 . S
H430 N418 0.984 . S
H431 N418 0.985 . S
C432 C433 1.363 1_556 S
C432 C438 1.379 1_545 S
C432 N440 1.356 . S
C433 C432 1.363 1_554 S
C433 C439 1.363 1_655 S
C434 C435 1.363 1_554 S
C434 C439 1.379 1_565 S
C434 N441 1.356 . S
C435 C434 1.363 1_556 S
C435 C438 1.363 1_455 S
N436 C438 1.356 . S
N436 H448 0.984 . S
N436 H449 0.985 . S
N437 C439 1.356 . S
N437 H442 0.984 . S
N437 H443 0.985 . S
C438 C432 1.379 1_565 S
C438 C435 1.363 1_655 S
C438 N436 1.356 . S
C439 C433 1.363 1_455 S
C439 C434 1.379 1_545 S
C439 N437 1.356 . S
N440 C432 1.356 . S
N440 H446 0.984 . S
N440 H447 0.984 1_556 S
N441 C434 1.356 . S
N441 H444 0.984 1_554 S
N441 H445 0.985 . S
H442 N437 0.984 . S
H443 N437 0.985 . S
H444 N441 0.984 1_556 S
H445 N441 0.985 . S
H446 N440 0.984 . S
H447 N440 0.984 1_554 S
H448 N436 0.984 . S
H449 N436 0.985 . S
C450 C451 1.363 1_655 S
C450 C456 1.379 1_545 S
C450 N458 1.356 . S
C451 C450 1.363 1_455 S
C451 C457 1.363 . S
C452 C453 1.363 1_455 S
C452 C457 1.379 1_565 S
C452 N459 1.356 . S
C453 C452 1.363 1_655 S
C453 C456 1.363 . S
N454 C456 1.356 . S
N454 H466 0.984 . S
N454 H467 0.985 . S
N455 C457 1.356 . S
N455 H460 0.984 . S
N455 H461 0.985 . S
C456 C450 1.379 1_565 S
C456 C453 1.363 . S
C456 N454 1.356 . S
C457 C451 1.363 . S
C457 C452 1.379 1_545 S
C457 N455 1.356 . S
N458 C450 1.356 . S
N458 H464 0.984 . S
N458 H465 0.984 . S
N459 C452 1.356 . S
N459 H462 0.984 . S
N459 H463 0.985 . S
H460 N455 0.984 . S
H461 N455 0.985 . S
H462 N459 0.984 . S
H463 N459 0.985 . S
H464 N458 0.984 . S
H465 N458 0.984 . S
H466 N454 0.984 . S
H467 N454 0.985 . S
C468 C469 1.363 . S
C468 C474 1.379 . S
C468 N476 1.356 . S
C469 C468 1.363 . S
C469 C475 1.363 1_554 S
C470 C471 1.363 . S
C470 C475 1.379 . S
C470 N477 1.356 . S
C471 C470 1.363 . S
C471 C474 1.363 1_556 S
N472 C474 1.356 . S
N472 H484 0.984 . S
N472 H485 0.985 1_554 S
N473 C475 1.356 . S
N473 H478 0.984 1_556 S
N473 H479 0.985 . S
C474 C468 1.379 . S
C474 C471 1.363 1_554 S
C474 N472 1.356 . S
C475 C469 1.363 1_556 S
C475 C470 1.379 . S
C475 N473 1.356 . S
N476 C468 1.356 . S
N476 H482 0.984 . S
N476 H483 0.984 . S
N477 C470 1.356 . S
N477 H480 0.984 . S
N477 H481 0.985 . S
H478 N473 0.984 1_554 S
H479 N473 0.985 . S
H480 N477 0.984 . S
H481 N477 0.985 . S
H482 N476 0.984 . S
H483 N476 0.984 . S
H484 N472 0.984 . S
H485 N472 0.985 1_556 S
C486 C487 1.363 . S
C486 C492 1.379 . S
C486 N494 1.356 . S
C487 C486 1.363 . S
C487 C493 1.363 . S
C488 C489 1.363 . S
C488 C493 1.379 . S
C488 N495 1.356 . S
C489 C488 1.363 . S
C489 C492 1.363 . S
N490 C492 1.356 . S
N490 H502 0.984 . S
N490 H503 0.985 . S
N491 C493 1.356 . S
N491 H496 0.984 . S
N491 H497 0.985 . S
C492 C486 1.379 . S
C492 C489 1.363 . S
C492 N490 1.356 . S
C493 C487 1.363 . S
C493 C488 1.379 . S
C493 N491 1.356 . S
N494 C486 1.356 . S
N494 H500 0.984 . S
N494 H501 0.984 . S
N495 C488 1.356 . S
N495 H498 0.984 . S
N495 H499 0.985 . S
H496 N491 0.984 . S
H497 N491 0.985 . S
H498 N495 0.984 . S
H499 N495 0.985 . S
H500 N494 0.984 . S
H501 N494 0.984 . S
H502 N490 0.984 . S
H503 N490 0.985 . S
C217 C5 1.787 . S
C219 C13 1.788 . S
C235 C59 1.787 . S
C237 C67 1.789 . S
C253 C113 1.787 . S
C255 C121 1.788 . S
C271 C175 1.789 . S
C273 C167 1.787 . S
C289 C10 0.952 . S
C291 C27 0.952 . S
C307 C64 0.952 . S
C309 C81 0.952 . S
C325 C135 0.953 . S
C327 C118 0.953 . S
C343 C189 0.952 . S
C345 C172 0.952 . S
C361 C190 1.688 . S
C363 C35 1.687 . S
C379 C194 2.034 . S
C381 C22 2.028 . S
C397 C143 1.688 . S
C399 C82 1.688 . S
C415 C130 2.027 . S
C417 C86 2.034 . S
C433 C28 0.848 . S
C435 C89 0.848 . S
C451 C32 1.889 . S
C453 C76 1.892 . S
C469 C136 0.848 . S
C471 C197 0.848 . S
C487 C184 1.892 . S
C489 C140 1.889 . S
