# Generated by pormake.
# Topology nfc, (4)-cn, num edge types: 1
# Building blocks:
#     Node 0, Type 0, BuildingBlock: NAWXER_clean_sbu_0, # of connection points: 4
#     Node 1, Type 0, BuildingBlock: NAWXER_clean_sbu_0, # of connection points: 4
#     Node 2, Type 0, BuildingBlock: NAWXER_clean_sbu_0, # of connection points: 4
#     Node 3, Type 0, BuildingBlock: NAWXER_clean_sbu_0, # of connection points: 4
#     Node 4, Type 0, BuildingBlock: NAWXER_clean_sbu_0, # of connection points: 4
#     Node 5, Type 0, BuildingBlock: NAWXER_clean_sbu_0, # of connection points: 4
#     Node 6, Type 0, BuildingBlock: NAWXER_clean_sbu_0, # of connection points: 4
#     Node 7, Type 0, BuildingBlock: NAWXER_clean_sbu_0, # of connection points: 4
#     Node 8, Type 0, BuildingBlock: NAWXER_clean_sbu_0, # of connection points: 4
#     Node 9, Type 0, BuildingBlock: NAWXER_clean_sbu_0, # of connection points: 4
#     Node 10, Type 0, BuildingBlock: NAWXER_clean_sbu_0, # of connection points: 4
#     Node 11, Type 0, BuildingBlock: NAWXER_clean_sbu_0, # of connection points: 4
#     Node 12, Type 0, BuildingBlock: NAWXER_clean_sbu_0, # of connection points: 4
#     Node 13, Type 0, BuildingBlock: NAWXER_clean_sbu_0, # of connection points: 4
#     Node 14, Type 0, BuildingBlock: NAWXER_clean_sbu_0, # of connection points: 4
#     Node 15, Type 0, BuildingBlock: NAWXER_clean_sbu_0, # of connection points: 4
#     Edge 16, Type (0, 0), BuildingBlock: ZUJKAS_clean_linker_0, # of connection points: 2
#     Edge 17, Type (0, 0), BuildingBlock: ZUJKAS_clean_linker_0, # of connection points: 2
#     Edge 18, Type (0, 0), BuildingBlock: ZUJKAS_clean_linker_0, # of connection points: 2
#     Edge 19, Type (0, 0), BuildingBlock: ZUJKAS_clean_linker_0, # of connection points: 2
#     Edge 20, Type (0, 0), BuildingBlock: ZUJKAS_clean_linker_0, # of connection points: 2
#     Edge 21, Type (0, 0), BuildingBlock: ZUJKAS_clean_linker_0, # of connection points: 2
#     Edge 22, Type (0, 0), BuildingBlock: ZUJKAS_clean_linker_0, # of connection points: 2
#     Edge 23, Type (0, 0), BuildingBlock: ZUJKAS_clean_linker_0, # of connection points: 2
#     Edge 24, Type (0, 0), BuildingBlock: ZUJKAS_clean_linker_0, # of connection points: 2
#     Edge 25, Type (0, 0), BuildingBlock: ZUJKAS_clean_linker_0, # of connection points: 2
#     Edge 26, Type (0, 0), BuildingBlock: ZUJKAS_clean_linker_0, # of connection points: 2
#     Edge 27, Type (0, 0), BuildingBlock: ZUJKAS_clean_linker_0, # of connection points: 2
#     Edge 28, Type (0, 0), BuildingBlock: ZUJKAS_clean_linker_0, # of connection points: 2
#     Edge 29, Type (0, 0), BuildingBlock: ZUJKAS_clean_linker_0, # of connection points: 2
#     Edge 30, Type (0, 0), BuildingBlock: ZUJKAS_clean_linker_0, # of connection points: 2
#     Edge 31, Type (0, 0), BuildingBlock: ZUJKAS_clean_linker_0, # of connection points: 2
#     Edge 32, Type (0, 0), BuildingBlock: ZUJKAS_clean_linker_0, # of connection points: 2
#     Edge 33, Type (0, 0), BuildingBlock: ZUJKAS_clean_linker_0, # of connection points: 2
#     Edge 34, Type (0, 0), BuildingBlock: ZUJKAS_clean_linker_0, # of connection points: 2
#     Edge 35, Type (0, 0), BuildingBlock: ZUJKAS_clean_linker_0, # of connection points: 2
#     Edge 36, Type (0, 0), BuildingBlock: ZUJKAS_clean_linker_0, # of connection points: 2
#     Edge 37, Type (0, 0), BuildingBlock: ZUJKAS_clean_linker_0, # of connection points: 2
#     Edge 38, Type (0, 0), BuildingBlock: ZUJKAS_clean_linker_0, # of connection points: 2
#     Edge 39, Type (0, 0), BuildingBlock: ZUJKAS_clean_linker_0, # of connection points: 2
#     Edge 40, Type (0, 0), BuildingBlock: ZUJKAS_clean_linker_0, # of connection points: 2
#     Edge 41, Type (0, 0), BuildingBlock: ZUJKAS_clean_linker_0, # of connection points: 2
#     Edge 42, Type (0, 0), BuildingBlock: ZUJKAS_clean_linker_0, # of connection points: 2
#     Edge 43, Type (0, 0), BuildingBlock: ZUJKAS_clean_linker_0, # of connection points: 2
#     Edge 44, Type (0, 0), BuildingBlock: ZUJKAS_clean_linker_0, # of connection points: 2
#     Edge 45, Type (0, 0), BuildingBlock: ZUJKAS_clean_linker_0, # of connection points: 2
#     Edge 46, Type (0, 0), BuildingBlock: ZUJKAS_clean_linker_0, # of connection points: 2
#     Edge 47, Type (0, 0), BuildingBlock: ZUJKAS_clean_linker_0, # of connection points: 2
# Relax obj value: 0.157
# Max RMSD: 0.167
# Mean RMSD: 0.167
data_MOF--net-nfc--node1-NAWXER_clean_sbu_0--edge1-ZUJKAS_clean_linker_0
_symmetry_space_group_name_H-M    P1
_symmetry_Int_Tables_number       1
_symmetry_cell_setting            triclinic
loop_
_symmetry_equiv_pos_as_xyz
'x, y, z'
_cell_length_a     48.130522
_cell_length_b     48.071489
_cell_length_c     35.708135
_cell_angle_alpha  90.022044
_cell_angle_beta   89.881234
_cell_angle_gamma 90.002364
loop_
_atom_site_label
_atom_site_type_symbol
_atom_site_fract_x
_atom_site_fract_y
_atom_site_fract_z
_atom_type_partial_charge
C0 C 0.10655 0.07285 -0.00482 0.0
C1 C 0.03845 1.00895 0.94084 0.0
O2 O 0.08408 0.07889 0.9784 0.0
Zn3 Zn 0.07191 0.04128 0.96835 0.0
O4 O 0.11332 0.04723 -0.00065 0.0
Zn5 Zn 0.09644 1.00706 0.98597 0.0
O6 O 0.12421 0.99085 0.95385 0.0
O7 O 0.10172 0.02615 0.92837 0.0
O8 O 0.05896 0.99639 0.95631 0.0
O9 O 0.03732 0.03537 0.94186 0.0
O10 O 0.06244 0.02586 0.02313 0.0
O11 O 0.09083 0.99083 0.03455 0.0
C12 C 0.12005 1.00683 0.92608 0.0
C13 C 0.07119 1.00669 0.04507 0.0
C14 C 0.23132 0.73942 0.28565 0.0
C15 C 0.30193 0.67927 0.2278 0.0
O16 O 0.22113 0.71702 0.27188 0.0
Zn17 Zn 0.23557 0.6808 0.2431 0.0
O18 O 0.25727 0.74383 0.28288 0.0
Zn19 Zn 0.26753 0.70991 0.25646 0.0
O20 O 0.24975 0.71457 0.20212 0.0
O21 O 0.21737 0.68251 0.19502 0.0
O22 O 0.30603 0.70296 0.24281 0.0
O23 O 0.27721 0.66928 0.22656 0.0
O24 O 0.22591 0.6512 0.27744 0.0
O25 O 0.26098 0.67739 0.29652 0.0
C26 C 0.23126 0.70277 0.18182 0.0
C27 C 0.24482 0.65648 0.30118 0.0
C28 C 0.49624 1.00274 0.55526 0.0
C29 C 0.45501 0.99513 0.43244 0.0
O30 O 0.47885 0.01869 0.53945 0.0
Zn31 Zn 0.47721 0.99965 0.49279 0.0
O32 O 0.50658 0.98218 0.53698 0.0
Zn33 Zn 0.50201 0.96447 0.48169 0.0
O34 O 0.53853 0.96937 0.45889 0.0
O35 O 0.51649 1.00899 0.4674 0.0
O36 O 0.47335 0.9761 0.43769 0.0
O37 O 0.45094 0.01338 0.45753 0.0
O38 O 0.45925 0.96028 0.5088 0.0
O39 O 0.48924 0.92725 0.49435 0.0
C40 C 0.53797 0.99571 0.45591 0.0
C41 C 0.46589 0.93443 0.50808 0.0
C42 C 0.25428 0.27969 0.79039 0.0
C43 C 0.19272 0.34827 0.73253 0.0
O44 O 0.26763 0.29999 0.77552 0.0
Zn45 Zn 0.25816 0.33732 0.74479 0.0
O46 O 0.22795 0.27903 0.78797 0.0
Zn47 Zn 0.22319 0.31357 0.76083 0.0
O48 O 0.23947 0.30415 0.70624 0.0
O49 O 0.27565 0.3315 0.69718 0.0
O50 O 0.18598 0.32584 0.74909 0.0
O51 O 0.21849 0.35472 0.72936 0.0
O52 O 0.27347 0.3656 0.77647 0.0
O53 O 0.23683 0.34445 0.80064 0.0
C54 C 0.25945 0.31263 0.68534 0.0
C55 C 0.25617 0.36276 0.8031 0.0
C56 C 0.97976 0.99458 0.53148 0.0
C57 C 0.04878 0.93293 0.47294 0.0
O58 O 0.97749 0.96878 0.52433 0.0
Zn59 Zn 0.01406 0.96317 0.502 0.0
O60 O 1.00229 1.00723 0.52269 0.0
Zn61 Zn 0.04131 0.99737 0.49698 0.0
O62 O 0.04189 0.01991 0.45294 0.0
O63 O 0.0119 0.98529 0.44961 0.0
O64 O 0.05712 0.95818 0.4762 0.0
O65 O 0.0246 0.92639 0.48446 0.0
O66 O 0.04277 0.96895 0.54795 0.0
O67 O 0.06753 1.00645 0.53506 0.0
C68 C 0.02385 1.00637 0.43454 0.0
C69 C 0.06205 0.98623 0.55669 0.0
C70 C 0.28292 0.7017 0.79379 0.0
C71 C 0.27391 0.65682 0.67232 0.0
O72 O 0.2643 0.71292 0.77313 0.0
Zn73 Zn 0.2475 0.70806 0.71834 0.0
O74 O 0.29769 0.682 0.78079 0.0
Zn75 Zn 0.28033 0.67991 0.73212 0.0
O76 O 0.29363 0.71696 0.7041 0.0
O77 O 0.25673 0.74284 0.6933 0.0
O78 O 0.29173 0.6512 0.69745 0.0
O79 O 0.257 0.67715 0.67703 0.0
O80 O 0.20908 0.69889 0.73048 0.0
O81 O 0.23916 0.66643 0.7468 0.0
C82 C 0.28283 0.73918 0.69065 0.0
C83 C 0.21404 0.67522 0.74503 0.0
C84 C 0.48085 1.00988 0.04592 0.0
C85 C 0.41476 0.0725 0.98485 0.0
O86 O 0.48252 0.03618 0.04275 0.0
Zn87 Zn 0.44835 0.04155 0.01512 0.0
O88 O 0.46007 0.99705 0.03154 0.0
Zn89 Zn 0.42289 1.00706 0.00084 0.0
O90 O 0.4282 0.98797 0.95398 0.0
O91 O 0.45789 0.02241 0.96261 0.0
O92 O 0.40715 0.04693 0.9834 0.0
O93 O 0.43754 0.07874 0.00071 0.0
O94 O 0.41746 0.03018 0.05573 0.0
O95 O 0.39467 0.99346 0.03451 0.0
C96 C 0.44871 1.00231 0.94257 0.0
C97 C 0.39862 0.01156 0.05988 0.0
C98 C 0.32961 0.34235 0.25814 0.0
C99 C 0.26819 0.27729 0.19292 0.0
O100 O 0.30419 0.35042 0.25762 0.0
Zn101 Zn 0.26475 0.33537 0.23737 0.0
O102 O 0.3361 0.31921 0.24322 0.0
Zn103 Zn 0.29927 0.30922 0.22638 0.0
O104 O 0.29113 0.34089 0.18517 0.0
O105 O 0.25368 0.36408 0.2031 0.0
O106 O 0.29414 0.27492 0.19859 0.0
O107 O 0.25526 0.29851 0.206 0.0
O108 O 0.24363 0.33115 0.28268 0.0
O109 O 0.27833 0.30134 0.27835 0.0
C110 C 0.27324 0.36024 0.17972 0.0
C111 C 0.25756 0.31124 0.29652 0.0
C112 C 0.71579 0.24569 0.75588 0.0
C113 C 0.78242 0.17872 0.70333 0.0
O114 O 0.70998 0.22291 0.73945 0.0
Zn115 Zn 0.74818 0.21218 0.7286 0.0
O116 O 0.74125 0.2533 0.75868 0.0
Zn117 Zn 0.78203 0.23811 0.7445 0.0
O118 O 0.79599 0.26637 0.71137 0.0
O119 O 0.76047 0.2429 0.68821 0.0
O120 O 0.7941 0.20027 0.71746 0.0
O121 O 0.75608 0.17684 0.70404 0.0
O122 O 0.76302 0.20653 0.78458 0.0
O123 O 0.79821 0.23523 0.79347 0.0
C124 C 0.77877 0.26219 0.68507 0.0
C125 C 0.78168 0.21684 0.80606 0.0
C126 C 0.75485 0.78256 0.29257 0.0
C127 C 0.68872 0.84659 0.23435 0.0
O128 O 0.76658 0.8046 0.27979 0.0
Zn129 Zn 0.75439 0.8418 0.25019 0.0
O130 O 0.72885 0.77931 0.28824 0.0
Zn131 Zn 0.72152 0.814 0.26282 0.0
O132 O 0.74052 0.80795 0.20915 0.0
O133 O 0.77387 0.83914 0.20336 0.0
O134 O 0.6836 0.82315 0.24934 0.0
O135 O 0.71383 0.85546 0.23315 0.0
O136 O 0.76511 0.87095 0.28408 0.0
O137 O 0.73102 0.8444 0.30519 0.0
C138 C 0.76011 0.81897 0.18984 0.0
C139 C 0.74784 0.86484 0.30974 0.0
C140 C 0.75874 0.25992 0.31409 0.0
C141 C 0.73134 0.22089 0.19477 0.0
O142 O 0.73799 0.26682 0.29426 0.0
Zn143 Zn 0.74314 0.2392 0.25595 0.0
O144 O 0.77368 0.23892 0.30478 0.0
Zn145 Zn 0.77502 0.20861 0.26059 0.0
O146 O 0.81191 0.21516 0.23987 0.0
O147 O 0.78295 0.25038 0.2326 0.0
O148 O 0.75125 0.20739 0.21012 0.0
O149 O 0.72007 0.24111 0.21199 0.0
O150 O 0.73027 0.20152 0.28265 0.0
O151 O 0.76626 0.17328 0.28463 0.0
C152 C 0.80712 0.23965 0.2279 0.0
C153 C 0.74084 0.17803 0.29189 0.0
C154 C 0.76425 0.78101 0.69546 0.0
C155 C 0.83088 0.84478 0.75312 0.0
O156 O 0.75262 0.80306 0.70839 0.0
Zn157 Zn 0.76509 0.84023 0.73791 0.0
O158 O 0.79027 0.77773 0.69953 0.0
Zn159 Zn 0.7978 0.8124 0.72489 0.0
O160 O 0.77918 0.80643 0.77884 0.0
O161 O 0.74586 0.83763 0.7849 0.0
O162 O 0.83581 0.82136 0.73794 0.0
O163 O 0.80582 0.85377 0.75464 0.0
O164 O 0.75426 0.86945 0.70426 0.0
O165 O 0.78816 0.84286 0.68269 0.0
C166 C 0.75971 0.8175 0.79835 0.0
C167 C 0.77136 0.86335 0.67839 0.0
C168 C 0.53435 0.51233 0.44235 0.0
C169 C 0.60049 0.57635 0.50068 0.0
O170 O 0.53275 0.5387 0.44421 0.0
Zn171 Zn 0.56695 0.54475 0.47167 0.0
O172 O 0.55501 0.49986 0.45753 0.0
Zn173 Zn 0.592 0.51052 0.48803 0.0
O174 O 0.58625 0.49285 0.53573 0.0
O175 O 0.55728 0.52758 0.52543 0.0
O176 O 0.6079 0.5508 0.5036 0.0
O177 O 0.57793 0.5823 0.48405 0.0
O178 O 0.598 0.53192 0.43193 0.0
O179 O 0.6203 0.4957 0.45549 0.0
C180 C 0.56614 0.50797 0.54658 0.0
C181 C 0.61668 0.513 0.42906 0.0
C182 C 0.98722 0.50297 0.04629 0.0
C183 C 0.93778 0.48598 0.93083 0.0
O184 O 0.96656 0.51583 0.03267 0.0
Zn185 Zn 0.96348 0.49483 0.98766 0.0
O186 O 0.99876 0.48338 0.02742 0.0
Zn187 Zn 0.9925 0.46389 0.97344 0.0
O188 O 0.02557 0.47375 0.94527 0.0
O189 O 0.99804 0.50956 0.95523 0.0
O190 O 0.95926 0.47024 0.93352 0.0
O191 O 0.93242 0.5033 0.95666 0.0
O192 O 0.95409 0.45345 0.008 0.0
O193 O 0.98733 0.42549 0.98807 0.0
C194 C 0.02029 0.49943 0.94094 0.0
C195 C 0.9649 0.42906 0.00632 0.0
C196 C 0.49998 0.50543 0.03754 0.0
C197 C 0.55475 0.43318 0.97506 0.0
O198 O 0.49417 0.47984 0.03338 0.0
Zn199 Zn 0.52739 0.46899 0.00646 0.0
O200 O 0.52278 0.51491 0.02395 0.0
Zn201 Zn 0.55775 0.49892 -0.00681 0.0
O202 O 0.55663 0.51926 0.94734 0.0
O203 O 0.52267 0.48869 0.95255 0.0
O204 O 0.56645 0.45717 0.97405 0.0
O205 O 0.53156 0.43044 0.99176 0.0
O206 O 0.55994 0.47438 0.04762 0.0
O207 O 0.58824 0.50666 0.02567 0.0
C208 C 0.53546 0.50738 0.93351 0.0
C209 C 0.58179 0.48949 0.05123 0.0
C210 C 0.98985 0.51678 0.54282 0.0
C211 C 0.92274 0.57907 0.48323 0.0
O212 O 0.99109 0.54312 0.54017 0.0
Zn213 Zn 0.95675 0.54832 0.51254 0.0
O214 O 0.96945 0.50379 0.52781 0.0
Zn215 Zn 0.93263 0.51343 0.49666 0.0
O216 O 0.93905 0.49523 0.44962 0.0
O217 O 0.96633 0.53149 0.4584 0.0
O218 O 0.91591 0.55333 0.48032 0.0
O219 O 0.94504 0.58557 0.50014 0.0
O220 O 0.92564 0.53519 0.55223 0.0
O221 O 0.90436 0.49831 0.52877 0.0
C222 C 0.95811 0.51126 0.43781 0.0
C223 C 0.90734 0.51588 0.55502 0.0
H224 H 0.0219 0.02747 0.07031 0.0
H225 H 1.00465 0.02784 0.13477 0.0
H226 H 0.07728 0.98245 0.17038 0.0
H227 H 0.09413 0.98108 0.10579 0.0
H228 H 0.03144 0.96406 0.20494 0.0
H229 H 0.03553 0.07942 0.213 0.0
H230 H 0.01319 0.06622 0.17697 0.0
H231 H 0.05004 0.06025 0.17423 0.0
C232 C 0.03406 0.01735 0.09186 0.0
C233 C 0.05951 1.00448 0.08315 0.0
C234 C 0.02426 0.01776 0.12868 0.0
C235 C 0.04004 1.00583 0.15748 0.0
C236 C 0.06486 0.99194 0.14858 0.0
H237 H 0.05615 0.03818 0.3887 0.0
H238 H 0.05478 0.03957 0.32051 0.0
C239 C 0.07447 0.99115 0.11168 0.0
C240 C 0.03134 1.00843 0.19711 0.0
H241 H 0.01957 0.05579 0.26664 0.0
C242 C 0.02863 0.98409 0.21843 0.0
C243 C 0.02794 0.03466 0.2146 0.0
C244 C 0.03206 0.06165 0.19367 0.0
C245 C 0.02354 0.9852 0.25706 0.0
C246 C 0.02009 0.01143 0.27457 0.0
C247 C 0.0219 0.03575 0.25302 0.0
C248 C 0.01784 0.0141 0.31576 0.0
C249 C 0.02346 0.95833 0.27898 0.0
C250 C 0.99673 1.0005 0.33578 0.0
C251 C 0.9977 0.99931 0.37484 0.0
C252 C 0.01949 0.01223 0.39443 0.0
C253 C 0.03915 0.02794 0.37443 0.0
C254 C 0.0384 0.02874 0.33541 0.0
H255 H 0.03268 0.94088 0.26274 0.0
H256 H 0.03523 0.96059 0.30552 0.0
H257 H 1.00174 0.95261 0.286 0.0
H258 H 0.98019 0.98979 0.32115 0.0
H259 H 0.98203 0.98736 0.38957 0.0
H260 H 0.29302 0.63415 0.32471 0.0
H261 H 0.30241 0.61381 0.38612 0.0
H262 H 0.21561 0.62206 0.41498 0.0
H263 H 0.20605 0.64079 0.35259 0.0
H264 H 0.29763 0.64432 0.44367 0.0
H265 H 0.23219 0.55252 0.47026 0.0
H266 H 0.23782 0.56585 0.42357 0.0
H267 H 0.21103 0.58036 0.45313 0.0
C268 C 0.27584 0.63054 0.34378 0.0
C269 C 0.24886 0.63897 0.33431 0.0
C270 C 0.28118 0.61892 0.37878 0.0
C271 C 0.25975 0.61624 0.40527 0.0
C272 C 0.23241 0.62312 0.39483 0.0
H273 H 0.23085 0.65426 0.62372 0.0
H274 H 0.2311 0.63521 0.56056 0.0
C275 C 0.22694 0.63407 0.35931 0.0
C276 C 0.26675 0.61183 0.44529 0.0
H277 H 0.24372 0.58084 0.52556 0.0
C278 C 0.2865 0.62974 0.46135 0.0
C279 C 0.25226 0.59286 0.46849 0.0
C280 C 0.23238 0.57164 0.45278 0.0
C281 C 0.29049 0.63083 0.50011 0.0
C282 C 0.27441 0.61342 0.5235 0.0
C283 C 0.25601 0.59416 0.50746 0.0
C284 C 0.27284 0.6188 0.56414 0.0
C285 C 0.31024 0.65224 0.51594 0.0
C286 C 0.29594 0.61492 0.58753 0.0
C287 C 0.29592 0.62594 0.62385 0.0
C288 C 0.27285 0.64108 0.63689 0.0
C289 C 0.2491 0.64309 0.61423 0.0
C290 C 0.24909 0.63198 0.57825 0.0
H291 H 0.31917 0.66592 0.49393 0.0
H292 H 0.2994 0.66547 0.53688 0.0
H293 H 0.32762 0.64154 0.53037 0.0
H294 H 0.31443 0.60467 0.57705 0.0
H295 H 0.31443 0.62396 0.64083 0.0
H296 H 0.50122 0.01486 0.91995 0.0
H297 H 0.52009 0.01195 0.85642 0.0
H298 H 0.44269 0.97699 0.81778 0.0
H299 H 0.4242 0.97863 0.8816 0.0
H300 H 0.48589 0.9533 0.78334 0.0
H301 H 0.49784 0.06829 0.77954 0.0
H302 H 0.51782 0.05141 0.81528 0.0
H303 H 0.48046 0.05064 0.81741 0.0
C304 C 0.48839 1.00621 0.89794 0.0
C305 C 0.46113 0.9973 0.90547 0.0
C306 C 0.49913 1.00473 0.86167 0.0
C307 C 0.48251 0.99504 0.83221 0.0
C308 C 0.45581 0.98472 0.84009 0.0
H309 H 0.46905 0.03599 0.60503 0.0
H310 H 0.47176 0.03412 0.67301 0.0
C311 C 0.44526 0.98567 0.87651 0.0
C312 C 0.49204 0.99706 0.79286 0.0
H313 H 0.51018 0.04379 0.72515 0.0
C314 C 0.49145 0.97302 0.77061 0.0
C315 C 0.4991 0.02292 0.77638 0.0
C316 C 0.49864 0.04983 0.79824 0.0
C317 C 0.49654 0.97426 0.73196 0.0
C318 C 0.50336 1.00016 0.71544 0.0
C319 C 0.50519 0.02397 0.73801 0.0
C320 C 0.50494 1.0037 0.67432 0.0
C321 C 0.49287 0.94815 0.70896 0.0
C322 C 0.52352 0.98812 0.65245 0.0
C323 C 0.52176 0.98884 0.61339 0.0
C324 C 0.5017 1.00556 0.59573 0.0
C325 C 0.48466 0.02279 0.61774 0.0
C326 C 0.48618 0.02176 0.65666 0.0
H327 H 0.4819 0.93156 0.72483 0.0
H328 H 0.48094 0.95253 0.68304 0.0
H329 H 0.51357 0.94 0.70076 0.0
H330 H 0.53871 0.97466 0.66555 0.0
H331 H 0.5354 0.97558 0.59713 0.0
H332 H 0.21726 0.37128 0.85725 0.0
H333 H 0.22516 0.38892 0.9204 0.0
H334 H 0.31051 0.40663 0.89225 0.0
H335 H 0.30273 0.38917 0.82865 0.0
H336 H 0.30082 0.36638 0.95005 0.0
H337 H 0.24165 0.46336 0.9762 0.0
H338 H 0.22273 0.43722 0.95085 0.0
H339 H 0.25295 0.45281 0.92996 0.0
C340 C 0.23751 0.37968 0.86414 0.0
C341 C 0.25949 0.37853 0.83823 0.0
C342 C 0.2419 0.39005 0.90011 0.0
C343 C 0.26834 0.39931 0.91079 0.0
C344 C 0.28987 0.39989 0.88427 0.0
H345 H 0.31935 0.37868 0.14367 0.0
H346 H 0.32187 0.39683 0.07968 0.0
C347 C 0.28541 0.38983 0.84805 0.0
C348 C 0.27452 0.40251 0.95101 0.0
H349 H 0.25288 0.4357 0.03031 0.0
C350 C 0.29098 0.38195 0.96765 0.0
C351 C 0.26125 0.42262 0.97363 0.0
C352 C 0.24382 0.44543 0.95677 0.0
C353 C 0.29294 0.37961 0.00661 0.0
C354 C 0.27895 0.39923 0.02954 0.0
C355 C 0.26369 0.42079 0.01274 0.0
C356 C 0.27742 0.39557 0.07067 0.0
C357 C 0.30817 0.35481 0.02258 0.0
C358 C 0.25148 0.39133 0.08786 0.0
C359 C 0.24998 0.3819 0.12481 0.0
C360 C 0.27442 0.37616 0.14467 0.0
C361 C 0.30025 0.38258 0.12854 0.0
C362 C 0.3017 0.39279 0.09202 0.0
H363 H 0.31192 0.33846 0.00115 0.0
H364 H 0.32869 0.36159 0.03334 0.0
H365 H 0.2963 0.34534 0.04603 0.0
H366 H 0.23245 0.39352 0.07197 0.0
H367 H 0.22984 0.37709 0.13676 0.0
H368 H 0.09315 0.02492 0.59354 0.0
H369 H 0.11652 0.01964 0.65365 0.0
H370 H 0.0909 0.93367 0.65843 0.0
H371 H 0.06646 0.93918 0.59893 0.0
H372 H 0.07809 0.95868 0.71993 0.0
H373 H 0.18705 0.98567 0.68921 0.0
H374 H 0.16452 0.01272 0.67296 0.0
H375 H 0.16225 0.97845 0.65259 0.0
C376 C 0.09281 1.00479 0.60716 0.0
C377 C 0.07781 0.98252 0.59172 0.0
C378 C 0.1065 1.00169 0.64132 0.0
C379 C 0.10604 0.97607 0.66022 0.0
C380 C 0.09174 0.95356 0.64421 0.0
H381 H 0.13895 0.9568 0.90009 0.0
H382 H 0.14426 0.9442 0.83394 0.0
C383 C 0.07766 0.95678 0.61035 0.0
C384 C 0.11717 0.97399 0.69879 0.0
H385 H 0.17179 0.99342 0.75387 0.0
C386 C 0.09888 0.96547 0.72722 0.0
C387 C 0.14434 0.98279 0.70834 0.0
C388 C 0.16571 0.99011 0.67902 0.0
C389 C 0.10623 0.9675 0.76501 0.0
C390 C 0.13263 0.9782 0.7746 0.0
C391 C 0.15158 0.98522 0.74629 0.0
C392 C 0.13864 0.98618 0.8136 0.0
C393 C 0.08496 0.96001 0.79453 0.0
C394 C 0.1355 0.01414 0.82383 0.0
C395 C 0.13226 0.02135 0.86138 0.0
C396 C 0.13232 1.00069 0.88918 0.0
C397 C 0.13882 0.97314 0.87922 0.0
C398 C 0.14181 0.96589 0.84149 0.0
H399 H 0.0646 0.95415 0.78224 0.0
H400 H 0.09267 0.94219 0.8113 0.0
H401 H 0.08171 0.97779 0.81392 0.0
H402 H 0.13299 0.03005 0.8026 0.0
H403 H 0.12753 0.04278 0.86835 0.0
H404 H 0.72315 0.28332 0.36437 0.0
H405 H 0.73499 0.30172 0.42607 0.0
H406 H 0.82223 0.29131 0.40117 0.0
H407 H 0.81023 0.27119 0.34045 0.0
H408 H 0.81147 0.26629 0.46088 0.0
H409 H 0.76286 0.36902 0.47649 0.0
H410 H 0.73698 0.34506 0.46064 0.0
H411 H 0.76663 0.3526 0.43126 0.0
C412 C 0.74483 0.2856 0.37185 0.0
C413 C 0.76579 0.27554 0.34813 0.0
C414 C 0.75165 0.29648 0.40693 0.0
C415 C 0.77958 0.2983 0.41825 0.0
C416 C 0.80056 0.29016 0.39315 0.0
H417 H 0.82311 0.29168 0.65762 0.0
H418 H 0.82812 0.31017 0.59386 0.0
C419 C 0.79371 0.27856 0.35858 0.0
C420 C 0.78642 0.30346 0.45816 0.0
H421 H 0.76595 0.34095 0.53462 0.0
C422 C 0.80235 0.28325 0.47673 0.0
C423 C 0.77469 0.3256 0.47904 0.0
C424 C 0.75962 0.34941 0.46059 0.0
C425 C 0.80468 0.28309 0.51575 0.0
C426 C 0.79066 0.30365 0.53678 0.0
C427 C 0.77654 0.32513 0.51828 0.0
C428 C 0.78621 0.29969 0.57725 0.0
C429 C 0.82012 0.25952 0.53442 0.0
C430 C 0.76069 0.28879 0.58914 0.0
C431 C 0.75788 0.27797 0.6251 0.0
C432 C 0.78052 0.27808 0.64986 0.0
C433 C 0.80537 0.29121 0.639 0.0
C434 C 0.80825 0.30184 0.60273 0.0
H435 H 0.82864 0.24437 0.5139 0.0
H436 H 0.83764 0.26802 0.55104 0.0
H437 H 0.8061 0.24827 0.55397 0.0
H438 H 0.74352 0.28686 0.56973 0.0
H439 H 0.73835 0.26834 0.63289 0.0
H440 H 0.39016 0.96443 0.09995 0.0
H441 H 0.384 0.96235 0.1677 0.0
H442 H 0.37093 0.05119 0.17066 0.0
H443 H 0.3788 0.05342 0.10309 0.0
H444 H 0.41382 0.03819 0.20943 0.0
H445 H 0.33051 0.96608 0.25235 0.0
H446 H 0.35299 0.9497 0.21893 0.0
H447 H 0.33287 0.97967 0.2053 0.0
C448 C 0.3847 0.98329 0.11489 0.0
C449 C 0.38514 1.00911 0.09662 0.0
C450 C 0.38103 0.98209 0.15369 0.0
C451 C 0.37698 1.00663 0.17442 0.0
C452 C 0.37411 0.032 0.1553 0.0
H453 H 0.41724 0.03433 0.4106 0.0
H454 H 0.39325 0.03744 0.35041 0.0
C455 C 0.37853 0.03328 0.11673 0.0
C456 C 0.38211 1.00674 0.21535 0.0
H457 H 0.3687 0.97186 0.29675 0.0
C458 C 0.40335 0.02419 0.22864 0.0
C459 C 0.36879 0.98824 0.24045 0.0
C460 C 0.34484 0.97009 0.22851 0.0
C461 C 0.41247 0.02279 0.26573 0.0
C462 C 0.40003 1.00346 0.29026 0.0
C463 C 0.3782 0.98658 0.27762 0.0
C464 C 0.41103 0.99951 0.32835 0.0
C465 C 0.43627 0.0411 0.27807 0.0
C466 C 0.42854 0.9769 0.3358 0.0
C467 C 0.44246 0.97517 0.36997 0.0
C468 C 0.43899 0.996 0.39722 0.0
C469 C 0.42049 0.01805 0.39014 0.0
C470 C 0.40666 0.01979 0.35589 0.0
H471 H 0.44556 0.05291 0.25442 0.0
H472 H 0.42872 0.0562 0.29928 0.0
H473 H 0.45276 0.02833 0.29134 0.0
H474 H 0.43225 0.96119 0.31462 0.0
H475 H 0.45641 0.9578 0.37468 0.0
H476 H 0.74014 0.77208 0.15631 0.0
H477 H 0.74192 0.76037 0.08975 0.0
H478 H 0.79062 0.83409 0.06853 0.0
H479 H 0.78962 0.84549 0.13508 0.0
H480 H 0.71928 0.79061 0.03625 0.0
H481 H 0.83089 0.77864 0.00462 0.0
H482 H 0.81768 0.77875 0.05198 0.0
H483 H 0.82456 0.81103 0.02799 0.0
C484 C 0.75176 0.78546 0.13757 0.0
C485 C 0.76467 0.80977 0.15088 0.0
C486 C 0.75275 0.77873 0.09957 0.0
C487 C 0.76662 0.79619 0.07422 0.0
C488 C 0.78039 0.81992 0.08767 0.0
H489 H 0.72977 0.84377 0.85293 0.0
H490 H 0.72915 0.83284 0.9196 0.0
C491 C 0.77966 0.82652 0.12573 0.0
C492 C 0.76405 0.7915 0.0334 0.0
H493 H 0.80144 0.79134 0.95228 0.0
C494 C 0.73727 0.7902 0.01791 0.0
C495 C 0.78747 0.79043 0.0095 0.0
C496 C 0.81674 0.78947 0.02447 0.0
C497 C 0.73328 0.78961 0.97906 0.0
C498 C 0.75667 0.79111 0.95514 0.0
C499 C 0.78347 0.79061 0.97063 0.0
C500 C 0.75397 0.79544 0.91428 0.0
C501 C 0.70404 0.7878 0.9641 0.0
C502 C 0.76817 0.77811 0.8891 0.0
C503 C 0.76891 0.78457 0.851 0.0
C504 C 0.75545 0.80849 0.83745 0.0
C505 C 0.74017 0.82509 0.86245 0.0
C506 C 0.73965 0.81876 0.90059 0.0
H507 H 0.69016 0.7768 0.9841 0.0
H508 H 0.6957 0.80912 0.96026 0.0
H509 H 0.70338 0.77683 0.93675 0.0
H510 H 0.77942 0.76007 0.8991 0.0
H511 H 0.78079 0.7713 0.83239 0.0
H512 H 0.58776 0.47952 0.60595 0.0
H513 H 0.57016 0.4788 0.67009 0.0
H514 H 0.49902 0.52722 0.63621 0.0
H515 H 0.51699 0.5288 0.57221 0.0
H516 H 0.52255 0.54977 0.69478 0.0
H517 H 0.50961 0.43782 0.72335 0.0
H518 H 0.54397 0.44453 0.70621 0.0
H519 H 0.51443 0.45112 0.67651 0.0
C520 C 0.56811 0.48955 0.61201 0.0
C521 C 0.55384 0.50432 0.58413 0.0
C522 C 0.55794 0.48895 0.64865 0.0
C523 C 0.53303 0.50261 0.65787 0.0
C524 C 0.51821 0.51646 0.6297 0.0
H525 H 0.49093 0.48625 0.89539 0.0
H526 H 0.48289 0.4883 0.82784 0.0
C527 C 0.52853 0.51735 0.59318 0.0
C528 C 0.52423 0.50496 0.6975 0.0
H529 H 0.51737 0.46726 0.77777 0.0
C530 C 0.52081 0.53168 0.71278 0.0
C531 C 0.52127 0.48142 0.7209 0.0
C532 C 0.5222 0.45213 0.70574 0.0
C533 C 0.51658 0.53553 0.75127 0.0
C534 C 0.51653 0.51209 0.77516 0.0
C535 C 0.51785 0.4853 0.75954 0.0
C536 C 0.51824 0.5148 0.81639 0.0
C537 C 0.5128 0.56472 0.76596 0.0
C538 C 0.54039 0.52955 0.83244 0.0
C539 C 0.54491 0.52862 0.87097 0.0
C540 C 0.52763 0.5125 0.89414 0.0
C541 C 0.50466 0.4988 0.87827 0.0
C542 C 0.50004 0.49992 0.83968 0.0
H543 H 0.50269 0.5782 0.74471 0.0
H544 H 0.50007 0.56503 0.79194 0.0
H545 H 0.53346 0.57383 0.7722 0.0
H546 H 0.55515 0.54058 0.81498 0.0
H547 H 0.56285 0.53931 0.88224 0.0
H548 H 0.75227 0.17567 0.84042 0.0
H549 H 0.74109 0.17247 0.90699 0.0
H550 H 0.79536 0.24178 0.9298 0.0
H551 H 0.80697 0.24502 0.8632 0.0
H552 H 0.79806 0.19938 0.98324 0.0
H553 H 0.68928 0.23119 0.95429 0.0
H554 H 0.70062 0.20113 0.92854 0.0
H555 H 0.71675 0.23426 0.92008 0.0
C556 C 0.76229 0.18989 0.85966 0.0
C557 C 0.78025 0.21083 0.84652 0.0
C558 C 0.75567 0.18817 0.89761 0.0
C559 C 0.76676 0.20742 0.92295 0.0
C560 C 0.78634 0.22697 0.91045 0.0
H561 H 0.71313 0.25803 0.14257 0.0
H562 H 0.71815 0.25293 0.07466 0.0
C563 C 0.79308 0.22866 0.87245 0.0
C564 C 0.75711 0.20791 0.96219 0.0
H565 H 0.69961 0.21794 0.01677 0.0
C566 C 0.77655 0.20335 0.99063 0.0
C567 C 0.72911 0.21374 0.97157 0.0
C568 C 0.70774 0.22064 0.94209 0.0
C569 C 0.7687 0.2041 0.0284 0.0
C570 C 0.74047 0.20879 0.03778 0.0
C571 C 0.72108 0.21378 0.00935 0.0
C572 C 0.73126 0.20991 0.07721 0.0
C573 C 0.79086 0.20063 0.05791 0.0
C574 C 0.73513 0.18686 0.10064 0.0
C575 C 0.73251 0.18977 0.13931 0.0
C576 C 0.72552 0.21566 0.15497 0.0
C577 C 0.7185 0.23783 0.13119 0.0
C578 C 0.72149 0.23499 0.09244 0.0
H579 H 0.81202 0.2042 0.04637 0.0
H580 H 0.78748 0.21522 0.0816 0.0
H581 H 0.7901 0.17909 0.06902 0.0
H582 H 0.74199 0.16713 0.08921 0.0
H583 H 0.73775 0.17228 0.15708 0.0
H584 H 0.97508 0.54828 0.08922 0.0
H585 H 0.98007 0.55224 0.15706 0.0
H586 H 0.02116 0.4725 0.16004 0.0
H587 H 0.01701 0.46879 0.09211 0.0
H588 H 0.95351 0.51596 0.20074 0.0
H589 H 0.06532 0.51526 0.23725 0.0
H590 H 0.05306 0.52272 0.19054 0.0
H591 H 0.05575 0.48733 0.2065 0.0
C592 C 0.98592 0.53199 0.1042 0.0
C593 C 0.99541 0.50811 0.08546 0.0
C594 C 0.98879 0.53429 0.14293 0.0
C595 C 1.00102 0.5127 0.16359 0.0
C596 C 0.01215 0.48967 0.14464 0.0
H597 H 0.94705 0.46993 0.38726 0.0
H598 H 0.96071 0.46855 0.32127 0.0
C599 C 1.00961 0.48751 0.10578 0.0
C600 C 0.99802 0.51224 0.20483 0.0
H601 H 0.03336 0.50487 0.28706 0.0
C602 C 0.97103 0.5138 0.21959 0.0
C603 C 0.02088 0.50941 0.22935 0.0
C604 C 0.05041 0.50885 0.21515 0.0
C605 C 0.96617 0.51234 0.25815 0.0
C606 C 0.98888 0.50845 0.28261 0.0
C607 C 0.01598 0.50737 0.26806 0.0
C608 C 0.98463 0.50663 0.3235 0.0
C609 C 0.93674 0.5154 0.27236 0.0
C610 C 0.99478 0.52772 0.34683 0.0
C611 C 0.98719 0.52848 0.38456 0.0
C612 C 0.96927 0.50815 0.39948 0.0
C613 C 0.96059 0.48607 0.37651 0.0
C614 C 0.96833 0.48526 0.33883 0.0
H615 H 0.92293 0.52497 0.25106 0.0
H616 H 0.9283 0.49454 0.27928 0.0
H617 H 0.93607 0.52835 0.29811 0.0
H618 H 1.00746 0.54433 0.33547 0.0
H619 H 0.99441 0.54567 0.40158 0.0
H620 H 0.74838 0.91444 0.66293 0.0
H621 H 0.74581 0.93736 0.60156 0.0
H622 H 0.79002 0.8684 0.55188 0.0
H623 H 0.79382 0.84637 0.6127 0.0
H624 H 0.80673 0.91636 0.52223 0.0
H625 H 0.69084 0.91335 0.52443 0.0
H626 H 0.70814 0.93378 0.55944 0.0
H627 H 0.71102 0.8965 0.56025 0.0
C628 C 0.75777 0.90442 0.63886 0.0
C629 C 0.77107 0.8785 0.64249 0.0
C630 C 0.75619 0.91747 0.60385 0.0
C631 C 0.7673 0.9044 0.57197 0.0
C632 C 0.78139 0.87901 0.57604 0.0
H633 H 0.72467 0.84787 0.37498 0.0
H634 H 0.72848 0.86947 0.43608 0.0
C635 C 0.78343 0.86631 0.61088 0.0
C636 C 0.76285 0.9152 0.53358 0.0
H637 H 0.71253 0.91736 0.46661 0.0
C638 C 0.78614 0.9173 0.50999 0.0
C639 C 0.73592 0.91701 0.51792 0.0
C640 C 0.70998 0.91496 0.54163 0.0
C641 C 0.78335 0.9169 0.47091 0.0
C642 C 0.75639 0.91565 0.45522 0.0
C643 C 0.73313 0.91787 0.47886 0.0
C644 C 0.7518 0.90527 0.41663 0.0
C645 C 0.80926 0.91468 0.44719 0.0
C646 C 0.7632 0.9184 0.38501 0.0
C647 C 0.76161 0.90559 0.34982 0.0
C648 C 0.74802 0.87986 0.34577 0.0
C649 C 0.73531 0.86767 0.37712 0.0
C650 C 0.73736 0.88012 0.41213 0.0
H651 H 0.82837 0.91262 0.46436 0.0
H652 H 0.80795 0.89641 0.42824 0.0
H653 H 0.8114 0.93363 0.42971 0.0
H654 H 0.77385 0.93813 0.38763 0.0
H655 H 0.77127 0.91563 0.32596 0.0
H656 H 0.62105 0.52644 0.07523 0.0
H657 H 0.642 0.52882 0.13753 0.0
H658 H 0.60023 0.45298 0.16875 0.0
H659 H 0.57883 0.45052 0.10674 0.0
H660 H 0.59758 0.52608 0.20238 0.0
H661 H 0.68616 0.45197 0.21191 0.0
H662 H 0.67708 0.46931 0.16866 0.0
H663 H 0.65565 0.44171 0.18609 0.0
C664 C 0.61684 0.50988 0.09501 0.0
C665 C 0.59802 0.48846 0.08626 0.0
C666 C 0.62894 0.51123 0.13047 0.0
C667 C 0.62283 0.49092 0.15738 0.0
C668 C 0.60547 0.46859 0.14802 0.0
H669 H 0.62478 0.46461 0.39153 0.0
H670 H 0.63326 0.46036 0.32415 0.0
C671 C 0.5931 0.46736 0.11272 0.0
C672 C 0.63008 0.49571 0.1969 0.0
H673 H 0.67042 0.4723 0.26872 0.0
C674 C 0.61379 0.51471 0.2169 0.0
C675 C 0.65089 0.48038 0.21544 0.0
C676 C 0.66864 0.45971 0.19459 0.0
C677 C 0.61697 0.51811 0.25554 0.0
C678 C 0.63793 0.50288 0.27443 0.0
C679 C 0.65469 0.48424 0.25413 0.0
C680 C 0.64066 0.50435 0.31569 0.0
C681 C 0.59664 0.53674 0.27594 0.0
C682 C 0.64395 0.53014 0.3336 0.0
C683 C 0.63832 0.53269 0.37179 0.0
C684 C 0.63054 0.50928 0.39276 0.0
C685 C 0.63087 0.48292 0.37585 0.0
C686 C 0.63568 0.4805 0.33738 0.0
H687 H 0.57786 0.54109 0.25887 0.0
H688 H 0.58986 0.52722 0.30276 0.0
H689 H 0.60676 0.55695 0.28216 0.0
H690 H 0.64862 0.54866 0.31752 0.0
H691 H 0.63836 0.55319 0.38444 0.0
H692 H 0.25137 0.74949 0.14839 0.0
H693 H 0.25854 0.75691 0.08145 0.0
H694 H 0.21644 0.67969 0.05769 0.0
H695 H 0.20876 0.67233 0.12465 0.0
H696 H 0.29024 0.72144 0.04005 0.0
H697 H 0.18543 0.7309 0.97753 0.0
H698 H 0.19155 0.73488 0.02712 0.0
H699 H 0.18899 0.70074 0.00674 0.0
C700 C 0.24293 0.73446 0.12887 0.0
C701 C 0.22964 0.71022 0.14178 0.0
C702 C 0.24712 0.73871 0.09064 0.0
C703 C 0.23804 0.71887 0.06463 0.0
C704 C 0.22323 0.6955 0.07726 0.0
H705 H 0.30542 0.6719 0.85155 0.0
H706 H 0.29727 0.67957 0.91838 0.0
C707 C 0.21887 0.6913 0.11556 0.0
C708 C 0.24687 0.72098 0.02502 0.0
H709 H 0.22276 0.72038 0.93536 0.0
C710 C 0.27548 0.72157 0.01713 0.0
C711 C 0.22762 0.72138 -0.00476 0.0
C712 C 0.19668 0.72222 0.00202 0.0
C713 C 0.28538 0.72168 0.98016 0.0
C714 C 0.26613 0.72066 0.95039 0.0
C715 C 0.23751 0.72097 0.95827 0.0
C716 C 0.275 0.7183 0.91081 0.0
C717 C 0.3163 0.72287 0.97337 0.0
C718 C 0.26562 0.73776 0.88449 0.0
C719 C 0.27006 0.73331 0.84635 0.0
C720 C 0.28392 0.70928 0.83383 0.0
C721 C 0.29489 0.69072 0.86035 0.0
C722 C 0.29027 0.6951 0.89857 0.0
H723 H 0.32743 0.73198 -0.00231 0.0
H724 H 0.32429 0.70144 0.96909 0.0
H725 H 0.32127 0.7353 0.94802 0.0
H726 H 0.25386 0.75582 0.89337 0.0
H727 H 0.26147 0.74807 0.82659 0.0
H728 H 0.89912 0.52418 0.90882 0.0
H729 H 0.87783 0.52821 0.84694 0.0
H730 H 0.91699 0.45162 0.81291 0.0
H731 H 0.93873 0.4475 0.87452 0.0
H732 H 0.92127 0.52662 0.78325 0.0
H733 H 0.83276 0.45306 0.76786 0.0
H734 H 0.84195 0.46858 0.81233 0.0
H735 H 0.86304 0.44139 0.793 0.0
C736 C 0.90263 0.50778 0.88854 0.0
C737 C 0.92092 0.4857 0.89633 0.0
C738 C 0.89032 0.51007 0.85331 0.0
C739 C 0.89568 0.49007 0.82569 0.0
C740 C 0.91231 0.467 0.83419 0.0
H741 H 0.89828 0.46737 0.59177 0.0
H742 H 0.88819 0.46267 0.65864 0.0
C743 C 0.9249 0.46483 0.86926 0.0
C744 C 0.88883 0.49601 0.78633 0.0
H745 H 0.85005 0.474 0.71218 0.0
C746 C 0.90538 0.51554 0.76771 0.0
C747 C 0.86842 0.48106 0.76645 0.0
C748 C 0.85033 0.45988 0.78579 0.0
C749 C 0.90302 0.51971 0.7291 0.0
C750 C 0.88257 0.50475 0.70884 0.0
C751 C 0.8654 0.48572 0.72781 0.0
C752 C 0.881 0.50667 0.6675 0.0
C753 C 0.92377 0.53875 0.71023 0.0
C754 C 0.87842 0.53264 0.64987 0.0
C755 C 0.88503 0.53545 0.612 0.0
C756 C 0.89305 0.51211 0.591 0.0
C757 C 0.89207 0.48563 0.60748 0.0
C758 C 0.88631 0.48295 0.64566 0.0
H759 H 0.94209 0.54291 0.72827 0.0
H760 H 0.9313 0.52967 0.68347 0.0
H761 H 0.91373 0.55901 0.70412 0.0
H762 H 0.87346 0.55106 0.66601 0.0
H763 H 0.88542 0.55603 0.59964 0.0
H764 H 0.27527 0.26291 0.32859 0.0
H765 H 0.27194 0.24984 0.3946 0.0
H766 H 0.22545 0.32478 0.41725 0.0
H767 H 0.22776 0.33735 0.35122 0.0
H768 H 0.29504 0.27683 0.4488 0.0
H769 H 0.18322 0.27159 0.48061 0.0
H770 H 0.19614 0.27196 0.43312 0.0
H771 H 0.19081 0.30407 0.45831 0.0
C772 C 0.26372 0.27622 0.34752 0.0
C773 C 0.25184 0.3012 0.33481 0.0
C774 C 0.26184 0.26872 0.38521 0.0
C775 C 0.2482 0.28615 0.41089 0.0
C776 C 0.23539 0.31056 0.39789 0.0
H777 H 0.29064 0.33428 0.62855 0.0
H778 H 0.28935 0.32127 0.56266 0.0
C779 C 0.2369 0.31786 0.36012 0.0
C780 C 0.25043 0.28092 0.45168 0.0
H781 H 0.21333 0.28426 0.53294 0.0
C782 C 0.27708 0.2778 0.46714 0.0
C783 C 0.22705 0.28151 0.47572 0.0
C784 C 0.19771 0.28213 0.46095 0.0
C785 C 0.28111 0.27735 0.50599 0.0
C786 C 0.25799 0.28103 0.52996 0.0
C787 C 0.23116 0.282 0.51458 0.0
C788 C 0.26123 0.28654 0.57054 0.0
C789 C 0.31018 0.27348 0.52081 0.0
C790 C 0.24565 0.27156 0.59696 0.0
C791 C 0.24596 0.27932 0.63467 0.0
C792 C 0.2619 0.30217 0.64659 0.0
C793 C 0.27834 0.31643 0.62033 0.0
C794 C 0.27777 0.30887 0.58262 0.0
H795 H 0.32283 0.26055 0.50141 0.0
H796 H 0.32047 0.29407 0.52307 0.0
H797 H 0.31012 0.26349 0.54885 0.0
H798 H 0.23264 0.25435 0.58824 0.0
H799 H 0.23311 0.26788 0.65428 0.0
H800 H 0.1586 0.06714 0.02447 0.0
H801 H 0.18677 0.10265 0.05542 0.0
H802 H 0.12323 0.16382 0.03432 0.0
H803 H 0.0948 0.12841 0.00311 0.0
H804 H 0.20531 0.15792 0.02597 0.0
H805 H 0.13671 0.16306 0.15146 0.0
H806 H 0.13643 0.13387 0.11959 0.0
H807 H 0.1201 0.16597 0.10652 0.0
C808 C 0.15063 0.08818 0.02617 0.0
C809 C 0.12435 0.09491 0.01148 0.0
C810 C 0.1668 0.10843 0.04381 0.0
C811 C 0.15693 0.13572 0.04745 0.0
C812 C 0.13106 0.14275 0.03206 0.0
H813 H 0.21475 0.2805 0.16805 0.0
H814 H 0.18902 0.24631 0.13149 0.0
C815 C 0.11491 0.12253 0.01413 0.0
C816 C 0.17346 0.15659 0.06828 0.0
H817 H 0.17454 0.19412 0.14939 0.0
C818 C 0.19867 0.16589 0.05297 0.0
C819 C 0.16466 0.16683 0.10345 0.0
C820 C 0.1381 0.15687 0.12153 0.0
C821 C 0.21513 0.18565 0.07165 0.0
C822 C 0.20643 0.19579 0.10704 0.0
C823 C 0.18121 0.18635 0.12231 0.0
C824 C 0.22276 0.21665 0.12848 0.0
C825 C 0.24125 0.196 0.05282 0.0
C826 C 0.25032 0.21132 0.13929 0.0
C827 C 0.26525 0.231 0.16006 0.0
C828 C 0.25274 0.25621 0.17087 0.0
C829 C 0.22505 0.2613 0.16031 0.0
C830 C 0.21027 0.24176 0.13935 0.0
H831 H 0.24081 0.19228 0.02211 0.0
H832 H 0.2443 0.21859 0.05785 0.0
H833 H 0.2594 0.18471 0.0644 0.0
H834 H 0.26019 0.1918 0.13205 0.0
H835 H 0.28646 0.22635 0.16796 0.0
H836 H 0.03673 0.87903 0.45263 0.0
H837 H 0.0678 0.84547 0.42194 0.0
H838 H 0.13375 0.90613 0.42241 0.0
H839 H 0.10311 0.93964 0.45294 0.0
H840 H 0.0969 0.8533 0.35108 0.0
H841 H 0.16921 0.83571 0.46977 0.0
H842 H 0.13494 0.85035 0.47601 0.0
H843 H 0.16279 0.87157 0.45848 0.0
C844 C 0.0579 0.88515 0.44643 0.0
C845 C 0.06742 0.91202 0.45537 0.0
C846 C 0.0756 0.86598 0.42884 0.0
C847 C 0.10318 0.87321 0.42033 0.0
C848 C 0.1127 0.89995 0.42927 0.0
H849 H 0.24436 0.79081 0.3147 0.0
H850 H 0.21304 0.82355 0.34633 0.0
C851 C 0.09505 0.91914 0.44658 0.0
C852 C 0.12186 0.85324 0.40098 0.0
H853 H 0.18255 0.81713 0.4109 0.0
C854 C 0.11553 0.84521 0.3642 0.0
C855 C 0.14629 0.84297 0.41805 0.0
C856 C 0.15371 0.85036 0.45787 0.0
C857 C 0.13324 0.82757 0.34375 0.0
C858 C 0.15763 0.81713 0.36089 0.0
C859 C 0.16392 0.82516 0.39773 0.0
C860 C 0.1766 0.79742 0.34135 0.0
C861 C 0.12601 0.82091 0.30362 0.0
C862 C 0.16667 0.77171 0.32848 0.0
C863 C 0.18444 0.75307 0.31027 0.0
C864 C 0.21269 0.75956 0.30487 0.0
C865 C 0.22273 0.78518 0.31827 0.0
C866 C 0.20485 0.8039 0.33639 0.0
H867 H 0.11179 0.83672 0.29151 0.0
H868 H 0.14495 0.81969 0.28589 0.0
H869 H 0.11531 0.80048 0.30254 0.0
H870 H 0.14517 0.76589 0.33281 0.0
H871 H 0.176 0.73344 0.30068 0.0
H872 H 0.26906 0.79126 0.66447 0.0
H873 H 0.29948 0.82441 0.63184 0.0
H874 H 0.36771 0.76673 0.6405 0.0
H875 H 0.33774 0.73365 0.67306 0.0
H876 H 0.35329 0.84679 0.65948 0.0
H877 H 0.36291 0.78735 0.52652 0.0
H878 H 0.33492 0.78166 0.55944 0.0
H879 H 0.36889 0.76794 0.56879 0.0
C880 C 0.29053 0.78563 0.6594 0.0
C881 C 0.30091 0.75975 0.67135 0.0
C882 C 0.30787 0.80459 0.64078 0.0
C883 C 0.33573 0.79785 0.63336 0.0
C884 C 0.34617 0.77217 0.64547 0.0
H885 H 0.47541 0.87902 0.52257 0.0
H886 H 0.4438 0.84599 0.55317 0.0
C887 C 0.32898 0.75335 0.66428 0.0
C888 C 0.35423 0.81777 0.61365 0.0
H889 H 0.39213 0.82663 0.53351 0.0
C890 C 0.36166 0.84253 0.63184 0.0
C891 C 0.36532 0.81195 0.57778 0.0
C892 C 0.35752 0.78589 0.55672 0.0
C893 C 0.38031 0.86144 0.61538 0.0
C894 C 0.39125 0.85578 0.57929 0.0
C895 C 0.38377 0.83098 0.56112 0.0
C896 C 0.41019 0.87551 0.55978 0.0
C897 C 0.38871 0.88693 0.63733 0.0
C898 C 0.40159 0.90286 0.55248 0.0
C899 C 0.4196 0.92174 0.53525 0.0
C900 C 0.44655 0.91363 0.52443 0.0
C901 C 0.45484 0.88596 0.5306 0.0
C902 C 0.4368 0.86707 0.54811 0.0
H903 H 0.38525 0.88405 0.66786 0.0
H904 H 0.41092 0.89211 0.63261 0.0
H905 H 0.37593 0.90488 0.62816 0.0
H906 H 0.38091 0.90967 0.56021 0.0
H907 H 0.41237 0.94279 0.53058 0.0
H908 H 0.3092 0.27947 0.80937 0.0
H909 H 0.33467 0.24379 0.84393 0.0
H910 H 0.2601 0.19457 0.85267 0.0
H911 H 0.23423 0.23032 0.81821 0.0
H912 H 0.31842 0.22103 0.92045 0.0
H913 H 0.3235 0.14287 0.80542 0.0
H914 H 0.31836 0.17951 0.7965 0.0
H915 H 0.29044 0.15897 0.81499 0.0
C916 C 0.29815 0.26104 0.81849 0.0
C917 C 0.26965 0.25772 0.8109 0.0
C918 C 0.31276 0.24072 0.83834 0.0
C919 C 0.29928 0.21655 0.85062 0.0
C920 C 0.27088 0.21305 0.84314 0.0
H921 H 0.36225 0.06676 0.95703 0.0
H922 H 0.33362 0.10209 0.92672 0.0
C923 C 0.25615 0.2335 0.82353 0.0
C924 C 0.31504 0.19514 0.87152 0.0
H925 H 0.34328 0.13031 0.8632 0.0
C926 C 0.32386 0.20115 0.90805 0.0
C927 C 0.32193 0.16926 0.85522 0.0
C928 C 0.31327 0.16212 0.8158 0.0
C929 C 0.33928 0.18179 0.92894 0.0
C930 C 0.34673 0.15607 0.91237 0.0
C931 C 0.33765 0.15004 0.87587 0.0
C932 C 0.36393 0.13507 0.93226 0.0
C933 C 0.3469 0.18889 0.96878 0.0
C934 C 0.3906 0.14177 0.94541 0.0
C935 C 0.40699 0.12163 0.96309 0.0
C936 C 0.39717 0.09427 0.96746 0.0
C937 C 0.37049 0.08762 0.95413 0.0
C938 C 0.35407 0.1078 0.93675 0.0
H939 H 0.33285 0.205 0.98063 0.0
H940 H 0.34608 0.17021 0.98703 0.0
H941 H 0.36837 0.19729 0.96938 0.0
H942 H 0.39897 0.16247 0.94143 0.0
H943 H 0.42753 0.12739 0.97271 0.0
H944 H 0.0395 0.95342 0.92521 0.0
H945 H 1.0052 0.92616 0.89096 0.0
H946 H 0.95434 0.99933 0.87756 0.0
H947 H 0.98901 0.02705 0.91113 0.0
H948 H 0.95156 0.91555 0.90713 0.0
H949 H 0.95842 0.97086 0.77113 0.0
H950 H 0.98349 0.97589 0.80803 0.0
H951 H 0.95045 0.99335 0.8098 0.0
C952 C 0.02105 0.96381 0.91497 0.0
C953 C 0.01705 0.99249 0.92085 0.0
C954 C 1.00145 0.94815 0.89534 0.0
C955 C 0.9774 0.96074 0.88113 0.0
C956 C 0.97307 0.98928 0.88744 0.0
H957 H 0.82801 0.89847 0.77749 0.0
H958 H 0.86444 0.9259 0.8075 0.0
C959 C 0.99281 1.00506 0.90689 0.0
C960 C 0.9566 0.9437 0.86067 0.0
H961 H 0.92167 0.93804 0.77775 0.0
C962 C 0.94518 0.92038 0.87875 0.0
C963 C 0.94836 0.94992 0.82355 0.0
C964 C 0.961 0.9737 0.80181 0.0
C965 C 0.92537 0.90348 0.86103 0.0
C966 C 0.91688 0.90997 0.82422 0.0
C967 C 0.9283 0.93318 0.80602 0.0
C968 C 0.89541 0.8934 0.80468 0.0
C969 C 0.91318 0.87911 0.882 0.0
C970 C 0.90095 0.86615 0.79266 0.0
C971 C 0.88019 0.85038 0.77523 0.0
C972 C 0.85351 0.86161 0.76979 0.0
C973 C 0.84827 0.8891 0.78141 0.0
C974 C 0.86906 0.90487 0.7985 0.0
H975 H 0.91876 0.87941 0.91218 0.0
H976 H 0.89018 0.87903 0.87945 0.0
H977 H 0.92107 0.85946 0.8696 0.0
H978 H 0.92128 0.85705 0.79694 0.0
H979 H 0.88489 0.8293 0.7666 0.0
H980 H 0.8386 0.17919 0.69341 0.0
H981 H 0.86775 0.14357 0.66486 0.0
H982 H 0.79564 0.0922 0.64624 0.0
H983 H 0.76601 0.1282 0.67429 0.0
H984 H 0.87626 0.08974 0.6866 0.0
H985 H 0.83178 0.09287 0.54302 0.0
H986 H 0.82457 0.11938 0.57749 0.0
H987 H 0.80729 0.08631 0.58002 0.0
C988 C 0.8288 0.16038 0.68319 0.0
C989 C 0.79988 0.15664 0.68608 0.0
C990 C 0.84557 0.13999 0.66687 0.0
C991 C 0.83392 0.11531 0.65297 0.0
C992 C 0.80507 0.11129 0.65607 0.0
H993 H 0.92619 0.97736 0.54591 0.0
H994 H 0.88894 1.00406 0.57654 0.0
C995 C 0.78817 0.13183 0.67232 0.0
C996 C 0.85237 0.09388 0.63597 0.0
H997 H 0.86796 0.06075 0.55374 0.0
C998 C 0.87429 0.08328 0.65762 0.0
C999 C 0.84978 0.08533 0.59815 0.0
C1000 C 0.82725 0.09667 0.57312 0.0
C1001 C 0.89399 0.06494 0.64233 0.0
C1002 C 0.89189 0.0571 0.60429 0.0
C1003 C 0.86945 0.0668 0.58293 0.0
C1004 C 0.91409 0.04073 0.58559 0.0
C1005 C 0.9172 0.05437 0.66683 0.0
C1006 C 0.94039 0.05263 0.58019 0.0
C1007 C 0.96154 0.0376 0.56258 0.0
C1008 C 0.95693 1.01022 0.55005 0.0
C1009 C 0.93048 0.99833 0.55537 0.0
C1010 C 0.90917 0.01355 0.57277 0.0
H1011 H 0.91226 0.05679 0.69707 0.0
H1012 H 0.92155 0.0321 0.66097 0.0
H1013 H 0.93638 0.06639 0.66079 0.0
H1014 H 0.94452 0.07368 0.58949 0.0
H1015 H 0.9816 0.04747 0.55897 0.0
H1016 H 0.75201 0.1225 0.30364 0.0
H1017 H 0.72049 0.08721 0.32971 0.0
H1018 H 0.65817 0.15027 0.34768 0.0
H1019 H 0.68904 0.18529 0.32115 0.0
H1020 H 0.69423 0.08219 0.39878 0.0
H1021 H 0.61598 0.09327 0.28654 0.0
H1022 H 0.65046 0.10775 0.28272 0.0
H1023 H 0.62381 0.12591 0.3084 0.0
C1024 C 0.7316 0.12882 0.31323 0.0
C1025 C 0.72294 0.15667 0.30988 0.0
C1026 C 0.71362 0.10863 0.3281 0.0
C1027 C 0.6867 0.11596 0.33981 0.0
C1028 C 0.67851 0.14394 0.33783 0.0
H1029 H 0.54197 0.05175 0.44538 0.0
H1030 H 0.57989 0.07783 0.41678 0.0
C1031 C 0.6963 0.164 0.32281 0.0
C1032 C 0.66693 0.09466 0.35416 0.0
H1033 H 0.60079 0.07034 0.34256 0.0
C1034 C 0.67395 0.07925 0.38621 0.0
C1035 C 0.64054 0.09063 0.33753 0.0
C1036 C 0.63234 0.10505 0.30167 0.0
C1037 C 0.6547 0.06114 0.40323 0.0
C1038 C 0.62787 0.05823 0.38758 0.0
C1039 C 0.62129 0.07278 0.35472 0.0
C1040 C 0.60558 0.04178 0.40607 0.0
C1041 C 0.66273 0.04617 0.43871 0.0
C1042 C 0.60734 0.01272 0.4095 0.0
C1043 C 0.58554 0.9976 0.4259 0.0
C1044 C 0.56157 0.01131 0.43906 0.0
C1045 C 0.56005 0.04043 0.43562 0.0
C1046 C 0.58174 0.05544 0.41923 0.0
H1047 H 0.68252 0.05414 0.45055 0.0
H1048 H 0.64612 0.0483 0.46016 0.0
H1049 H 0.66535 0.02368 0.43263 0.0
H1050 H 0.62538 1.0017 0.39901 0.0
H1051 H 0.58736 0.9752 0.428 0.0
H1052 H 0.69218 0.90021 0.21007 0.0
H1053 H 0.65605 0.92822 0.18072 0.0
H1054 H 0.59862 0.85967 0.19006 0.0
H1055 H 0.63461 0.83161 0.22044 0.0
H1056 H 0.62937 0.91896 0.11578 0.0
H1057 H 0.55277 0.92288 0.23196 0.0
H1058 H 0.58798 0.91097 0.23853 0.0
H1059 H 0.56232 0.88817 0.2186 0.0
C1060 C 0.67181 0.8911 0.2062 0.0
C1061 C 0.66627 0.86366 0.21772 0.0
C1062 C 0.65116 0.90717 0.18937 0.0
C1063 C 0.6245 0.89622 0.18359 0.0
C1064 C 0.61884 0.86881 0.19502 0.0
H1065 H 0.47938 0.95494 0.06498 0.0
H1066 H 0.51455 0.92813 0.09847 0.0
C1067 C 0.63948 0.85273 0.21219 0.0
C1068 C 0.60316 0.91322 0.16415 0.0
H1069 H 0.53777 0.9402 0.17293 0.0
C1070 C 0.60941 0.92374 0.1284 0.0
C1071 C 0.57712 0.91948 0.18064 0.0
C1072 C 0.56969 0.91003 0.21968 0.0
C1073 C 0.59021 0.93996 0.10848 0.0
C1074 C 0.56415 0.946 0.12484 0.0
C1075 C 0.55782 0.93551 0.16052 0.0
C1076 C 0.54292 0.96265 0.10491 0.0
C1077 C 0.59768 0.95009 0.06975 0.0
C1078 C 0.54715 0.99106 0.09775 0.0
C1079 C 0.52701 1.00656 0.07868 0.0
C1080 C 0.50234 0.99384 0.06636 0.0
C1081 C 0.49819 0.96539 0.07386 0.0
C1082 C 0.51822 0.95001 0.0931 0.0
H1083 H 0.61638 0.93942 0.05844 0.0
H1084 H 0.5801 0.94677 0.05015 0.0
H1085 H 0.60202 0.97274 0.07084 0.0
H1086 H 0.566 1.00124 0.10703 0.0
H1087 H 0.53082 0.02842 0.07346 0.0
H1088 H 0.5874 0.63136 0.51134 0.0
H1089 H 0.61559 0.66696 0.54257 0.0
H1090 H 0.6808 0.60693 0.56002 0.0
H1091 H 0.65287 0.57124 0.52909 0.0
H1092 H 0.638 0.66171 0.61966 0.0
H1093 H 0.71967 0.67636 0.51104 0.0
H1094 H 0.68593 0.66185 0.50053 0.0
H1095 H 0.71171 0.64098 0.52346 0.0
C1096 C 0.60784 0.62579 0.52151 0.0
C1097 C 0.61788 0.59845 0.51768 0.0
C1098 C 0.62387 0.64614 0.5394 0.0
C1099 C 0.65035 0.6396 0.55326 0.0
C1100 C 0.66056 0.61246 0.54908 0.0
H1101 H 0.78039 0.7294 0.67076 0.0
H1102 H 0.75227 0.69505 0.63719 0.0
C1103 C 0.64449 0.59208 0.53153 0.0
C1104 C 0.66687 0.66075 0.57361 0.0
H1105 H 0.72691 0.69845 0.56945 0.0
C1106 C 0.65736 0.66992 0.60865 0.0
C1107 C 0.69222 0.67113 0.55926 0.0
C1108 C 0.70301 0.6623 0.52139 0.0
C1109 C 0.67281 0.68887 0.63014 0.0
C1110 C 0.69811 0.6995 0.61569 0.0
C1111 C 0.70755 0.69032 0.58053 0.0
C1112 C 0.71501 0.72026 0.63647 0.0
C1113 C 0.66226 0.69665 0.66857 0.0
C1114 C 0.70355 0.74598 0.6469 0.0
C1115 C 0.71947 0.76552 0.66635 0.0
C1116 C 0.74737 0.75995 0.67534 0.0
C1117 C 0.75896 0.73433 0.66439 0.0
C1118 C 0.74292 0.71469 0.64515 0.0
H1119 H 0.64764 0.68079 0.67974 0.0
H1120 H 0.67964 0.69915 0.68869 0.0
H1121 H 0.6509 0.7167 0.66682 0.0
H1122 H 0.68231 0.75108 0.63966 0.0
H1123 H 0.70995 0.78515 0.67396 0.0
H1124 H 0.60715 0.43071 0.94628 0.0
H1125 H 0.62827 0.39302 0.91035 0.0
H1126 H 0.55362 0.34428 0.92236 0.0
H1127 H 0.53214 0.38205 0.9587 0.0
H1128 H 0.63421 0.33326 0.93446 0.0
H1129 H 0.57145 0.34988 0.80525 0.0
H1130 H 0.57599 0.37707 0.83965 0.0
H1131 H 0.55395 0.34799 0.84986 0.0
C1132 C 0.59518 0.41197 0.9415 0.0
C1133 C 0.5679 0.40943 0.95531 0.0
C1134 C 0.60732 0.39044 0.92096 0.0
C1135 C 0.59241 0.36603 0.91346 0.0
C1136 C 0.56535 0.36311 0.92763 0.0
H1137 H 0.6607 0.23264 0.7685 0.0
H1138 H 0.62737 0.25884 0.80722 0.0
C1139 C 0.55319 0.38463 0.94852 0.0
C1140 C 0.60556 0.34394 0.89056 0.0
H1141 H 0.60827 0.31779 0.8016 0.0
C1142 C 0.62827 0.32953 0.9056 0.0
C1143 C 0.59764 0.33905 0.85301 0.0
C1144 C 0.5735 0.35429 0.83566 0.0
C1145 C 0.64395 0.31108 0.88363 0.0
C1146 C 0.63707 0.30744 0.84543 0.0
C1147 C 0.61349 0.32072 0.83087 0.0
C1148 C 0.65592 0.29233 0.81963 0.0
C1149 C 0.66823 0.29615 0.90119 0.0
C1150 C 0.68252 0.30303 0.81279 0.0
C1151 C 0.70141 0.28833 0.79074 0.0
C1152 C 0.69412 0.26254 0.77488 0.0
C1153 C 0.66696 0.25242 0.78031 0.0
C1154 C 0.64795 0.26728 0.80248 0.0
H1155 H 0.66606 0.29489 0.93213 0.0
H1156 H 0.67038 0.27475 0.88979 0.0
H1157 H 0.68764 0.30771 0.89484 0.0
H1158 H 0.68889 0.32259 0.82518 0.0
H1159 H 0.72202 0.29693 0.78695 0.0
H1160 H 0.85705 0.22163 0.19856 0.0
H1161 H 0.89071 0.2492 0.16217 0.0
H1162 H 0.8389 0.32175 0.17501 0.0
H1163 H 0.80552 0.29473 0.21105 0.0
H1164 H 0.87909 0.28026 0.09369 0.0
H1165 H 0.91693 0.34836 0.20784 0.0
H1166 H 0.89962 0.31564 0.2166 0.0
H1167 H 0.87972 0.34625 0.20574 0.0
C1168 C 0.85304 0.24353 0.19394 0.0
C1169 C 0.82862 0.25598 0.20779 0.0
C1170 C 0.87221 0.2592 0.17308 0.0
C1171 C 0.86743 0.28759 0.16632 0.0
C1172 C 0.84323 0.3 0.18041 0.0
H1173 H 0.91732 0.43063 0.04783 0.0
H1174 H 0.89691 0.39352 0.08539 0.0
C1175 C 0.82408 0.28442 0.20089 0.0
C1176 C 0.88682 0.30445 0.14331 0.0
H1177 H 0.92382 0.365 0.14513 0.0
C1178 C 0.8894 0.29848 0.10497 0.0
C1179 C 0.90023 0.32817 0.15817 0.0
C1180 C 0.89925 0.33489 0.19943 0.0
C1181 C 0.90359 0.31664 0.08066 0.0
C1182 C 0.91574 0.34114 0.09528 0.0
C1183 C 0.91433 0.3463 0.13393 0.0
C1184 C 0.92801 0.36288 0.07082 0.0
C1185 C 0.90418 0.31035 0.03928 0.0
C1186 C 0.95227 0.35793 0.04995 0.0
C1187 C 0.96406 0.37921 0.02826 0.0
C1188 C 0.95181 0.4058 0.02723 0.0
C1189 C 0.92733 0.41045 0.04788 0.0
C1190 C 0.91563 0.38926 0.06948 0.0
H1191 H 0.89005 0.29295 0.03176 0.0
H1192 H 0.8982 0.32903 0.02289 0.0
H1193 H 0.92561 0.30448 0.03091 0.0
H1194 H 0.96237 0.33781 0.051 0.0
H1195 H 0.983 0.37495 0.01285 0.0
H1196 H 0.87105 0.57264 0.45293 0.0
H1197 H 0.8425 0.60787 0.42203 0.0
H1198 H 0.90543 0.66968 0.4431 0.0
H1199 H 0.93421 0.63458 0.47425 0.0
H1200 H 0.82357 0.66227 0.45314 0.0
H1201 H 0.89058 0.67077 0.32646 0.0
H1202 H 0.89174 0.64105 0.35737 0.0
H1203 H 0.90765 0.67321 0.37113 0.0
C1204 C 0.87885 0.59373 0.45112 0.0
C1205 C 0.905 0.60076 0.46595 0.0
C1206 C 0.86245 0.61383 0.4335 0.0
C1207 C 0.87199 0.64125 0.42999 0.0
C1208 C 0.89786 0.64852 0.44522 0.0
H1209 H 0.80893 0.78685 0.31489 0.0
H1210 H 0.83647 0.75278 0.34933 0.0
C1211 C 0.91421 0.62846 0.46313 0.0
C1212 C 0.8549 0.66217 0.4101 0.0
H1213 H 0.85221 0.70111 0.33029 0.0
C1214 C 0.82975 0.6708 0.42627 0.0
C1215 C 0.86312 0.67321 0.37513 0.0
C1216 C 0.88964 0.66404 0.3562 0.0
C1217 C 0.81274 0.6906 0.40862 0.0
C1218 C 0.82079 0.70147 0.37335 0.0
C1219 C 0.84601 0.69277 0.35726 0.0
C1220 C 0.80362 0.72214 0.35279 0.0
C1221 C 0.78671 0.70019 0.42842 0.0
C1222 C 0.77603 0.71618 0.34281 0.0
C1223 C 0.7601 0.73576 0.3233 0.0
C1224 C 0.77161 0.76153 0.3129 0.0
C1225 C 0.79939 0.76722 0.32241 0.0
C1226 C 0.81519 0.74775 0.34214 0.0
H1227 H 0.78777 0.6962 0.45904 0.0
H1228 H 0.78305 0.72274 0.42391 0.0
H1229 H 0.76863 0.68856 0.41723 0.0
H1230 H 0.76685 0.69628 0.34982 0.0
H1231 H 0.73885 0.73062 0.31616 0.0
H1232 H 0.38411 0.32966 0.27309 0.0
H1233 H 0.41857 0.3591 0.3044 0.0
H1234 H 0.35798 0.42481 0.31409 0.0
H1235 H 0.32336 0.39545 0.28378 0.0
H1236 H 0.4399 0.40973 0.28475 0.0
H1237 H 0.38486 0.41848 0.42079 0.0
H1238 H 0.37498 0.39354 0.38547 0.0
H1239 H 0.36402 0.42923 0.3818 0.0
C1240 C 0.37811 0.35034 0.28201 0.0
C1241 C 0.35091 0.36009 0.27621 0.0
C1242 C 0.39782 0.36715 0.29988 0.0
C1243 C 0.39069 0.39396 0.31228 0.0
C1244 C 0.36375 0.40393 0.30573 0.0
H1245 H 0.48388 0.52978 0.41509 0.0
H1246 H 0.44894 0.50163 0.38235 0.0
C1247 C 0.34402 0.38713 0.28815 0.0
C1248 C 0.41153 0.41176 0.3314 0.0
H1249 H 0.42358 0.44856 0.4117 0.0
C1250 C 0.43639 0.4181 0.31258 0.0
C1251 C 0.40693 0.42269 0.36775 0.0
C1252 C 0.38138 0.41544 0.39031 0.0
C1253 C 0.45656 0.43536 0.3289 0.0
C1254 C 0.4518 0.44644 0.36502 0.0
C1255 C 0.42699 0.4402 0.38385 0.0
C1256 C 0.47291 0.46361 0.38436 0.0
C1257 C 0.48274 0.4419 0.30732 0.0
C1258 C 0.49772 0.45142 0.3966 0.0
C1259 C 0.51754 0.4673 0.41548 0.0
C1260 C 0.51299 0.49577 0.42241 0.0
C1261 C 0.48805 0.50796 0.4101 0.0
C1262 C 0.46808 0.49192 0.39145 0.0
H1263 H 0.48082 0.43643 0.2772 0.0
H1264 H 0.48796 0.46433 0.30973 0.0
H1265 H 0.50026 0.42982 0.31926 0.0
H1266 H 0.50166 0.42952 0.39178 0.0
H1267 H 0.53651 0.45722 0.4245 0.0
H1268 H 0.50823 0.56022 0.05491 0.0
H1269 H 0.47756 0.59111 0.09028 0.0
H1270 H 0.41799 0.52467 0.10213 0.0
H1271 H 0.44878 0.49342 0.06735 0.0
H1272 H 0.42465 0.60824 0.07509 0.0
H1273 H 0.42671 0.55081 0.20955 0.0
H1274 H 0.45095 0.5438 0.17207 0.0
H1275 H 0.41642 0.52947 0.17073 0.0
C1276 C 0.48864 0.5521 0.06512 0.0
C1277 C 0.48104 0.52425 0.05844 0.0
C1278 C 0.47113 0.56983 0.08535 0.0
C1279 C 0.4457 0.5601 0.09945 0.0
C1280 C 0.43782 0.53246 0.09233 0.0
H1281 H 0.30022 0.62561 0.20367 0.0
H1282 H 0.33711 0.59872 0.17402 0.0
C1283 C 0.45537 0.51466 0.0722 0.0
C1284 C 0.42709 0.57908 0.12073 0.0
H1285 H 0.39189 0.58592 0.20341 0.0
C1286 C 0.41774 0.60355 0.10331 0.0
C1287 C 0.41823 0.57303 0.15767 0.0
C1288 C 0.42881 0.548 0.17878 0.0
C1289 C 0.39888 0.6215 0.12124 0.0
C1290 C 0.38938 0.61494 0.15767 0.0
C1291 C 0.39922 0.59087 0.17545 0.0
C1292 C 0.36763 0.63164 0.17669 0.0
C1293 C 0.38841 0.64679 0.10062 0.0
C1294 C 0.37269 0.65905 0.18853 0.0
C1295 C 0.35156 0.6746 0.20574 0.0
C1296 C 0.32504 0.66296 0.21121 0.0
C1297 C 0.32032 0.63534 0.19975 0.0
C1298 C 0.3414 0.61986 0.18284 0.0
H1299 H 0.39448 0.64659 0.07059 0.0
H1300 H 0.36542 0.64812 0.1026 0.0
H1301 H 0.39717 0.6658 0.11371 0.0
H1302 H 0.39294 0.6684 0.1844 0.0
H1303 H 0.35587 0.69578 0.21429 0.0
H1304 H 0.21756 0.62097 0.76584 0.0
H1305 H 0.18238 0.59254 0.79645 0.0
H1306 H 0.12475 0.66118 0.79276 0.0
H1307 H 0.15995 0.68986 0.76121 0.0
H1308 H 0.15858 0.60262 0.86432 0.0
H1309 H 0.07753 0.59698 0.75399 0.0
H1310 H 0.11247 0.60874 0.74447 0.0
H1311 H 0.08793 0.63161 0.76671 0.0
C1312 C 0.19733 0.63005 0.77114 0.0
C1313 C 0.19159 0.65776 0.76109 0.0
C1314 C 0.17722 0.61371 0.7887 0.0
C1315 C 0.15086 0.6246 0.7967 0.0
C1316 C 0.14479 0.65214 0.78624 0.0
H1317 H 0.01233 0.55391 0.92193 0.0
H1318 H 0.04373 0.58443 0.88713 0.0
C1319 C 0.16495 0.66856 0.76835 0.0
C1320 C 0.13055 0.60734 0.8178 0.0
H1321 H 0.06643 0.57702 0.81282 0.0
C1322 C 0.13845 0.597 0.853 0.0
C1323 C 0.10425 0.60008 0.80307 0.0
C1324 C 0.09504 0.60969 0.76485 0.0
C1325 C 0.12083 0.57963 0.87386 0.0
C1326 C 0.0947 0.5721 0.85897 0.0
C1327 C 0.08655 0.58276 0.82406 0.0
C1328 C 0.07556 0.55322 0.87936 0.0
C1329 C 0.13017 0.5697 0.9119 0.0
C1330 C 0.08292 0.52541 0.88615 0.0
C1331 C 0.065 0.50782 0.90602 0.0
C1332 C 0.03936 0.51776 0.91947 0.0
C1333 C 0.03197 0.54558 0.91218 0.0
C1334 C 0.04984 0.56307 0.89219 0.0
H1335 H 0.14771 0.5823 0.92287 0.0
H1336 H 0.11277 0.57051 0.93236 0.0
H1337 H 0.13721 0.54778 0.90971 0.0
H1338 H 0.10255 0.5173 0.87602 0.0
H1339 H 0.07128 0.48651 0.91098 0.0
H1340 H 0.98796 0.46211 0.56267 0.0
H1341 H 0.02244 0.43545 0.59729 0.0
H1342 H 0.07492 0.508 0.60412 0.0
H1343 H 0.03999 0.5352 0.5702 0.0
H1344 H 0.07495 0.42319 0.57898 0.0
H1345 H 0.07398 0.48296 0.71198 0.0
H1346 H 0.04799 0.48769 0.6762 0.0
H1347 H 0.08158 0.50376 0.6715 0.0
C1348 C 1.00678 0.47252 0.57162 0.0
C1349 C 0.01118 0.50085 0.56371 0.0
C1350 C 0.02649 0.45719 0.59146 0.0
C1351 C 0.05112 0.46977 0.60383 0.0
C1352 C 0.05578 0.498 0.59568 0.0
H1353 H 0.19976 0.40074 0.70484 0.0
H1354 H 0.1651 0.43033 0.6746 0.0
C1355 C 0.03588 0.51347 0.57605 0.0
C1356 C 0.07213 0.45285 0.62408 0.0
H1357 H 0.10865 0.44801 0.70587 0.0
C1358 C 0.0822 0.42859 0.60679 0.0
C1359 C 0.08159 0.45986 0.66043 0.0
C1360 C 0.07056 0.48483 0.68132 0.0
C1361 C 0.10157 0.4113 0.62467 0.0
C1362 C 0.11105 0.41839 0.66083 0.0
C1363 C 0.10124 0.44269 0.67811 0.0
C1364 C 0.13149 0.40087 0.68084 0.0
C1365 C 0.11208 0.38572 0.60465 0.0
C1366 C 0.12388 0.37468 0.69486 0.0
C1367 C 0.14359 0.35772 0.71239 0.0
C1368 C 0.1713 0.36665 0.71595 0.0
C1369 C 0.17865 0.39315 0.7024 0.0
C1370 C 0.15889 0.41014 0.68519 0.0
H1371 H 0.10604 0.38548 0.57464 0.0
H1372 H 0.13507 0.38443 0.60661 0.0
H1373 H 0.10332 0.3669 0.61827 0.0
H1374 H 0.10273 0.36728 0.69193 0.0
H1375 H 0.13725 0.33745 0.72251 0.0
loop_
_geom_bond_atom_site_label_1
_geom_bond_atom_site_label_2
_geom_bond_distance
_geom_bond_site_symmetry_2
_ccdc_geom_bond_type
C0 O2 1.247 . S
C0 O4 1.258 . S
C1 O8 1.247 . S
C1 O9 1.258 . S
O2 C0 1.247 . S
O2 Zn3 2.030 1_455 S
Zn3 O2 2.030 1_655 S
Zn3 O7 2.027 1_554 S
Zn3 O9 2.033 1_544 S
Zn3 O10 2.036 . S
O4 C0 1.258 . S
O4 Zn5 2.035 1_544 S
Zn5 O4 2.035 1_566 S
Zn5 O6 2.030 . S
Zn5 O8 2.028 1_455 S
Zn5 O11 2.033 1_556 S
O6 Zn5 2.030 . S
O6 C12 1.247 1_565 S
O7 Zn3 2.027 1_556 S
O7 C12 1.258 1_655 S
O8 C1 1.247 . S
O8 Zn5 2.028 1_655 S
O9 C1 1.258 . S
O9 Zn3 2.033 1_566 S
O10 Zn3 2.036 . S
O10 C13 1.247 1_545 S
O11 Zn5 2.033 1_554 S
O11 C13 1.258 1_455 S
C12 O6 1.247 1_545 S
C12 O7 1.258 1_455 S
C13 O10 1.247 1_565 S
C13 O11 1.258 1_655 S
C14 O16 1.247 . S
C14 O18 1.258 . S
C15 O22 1.247 . S
C15 O23 1.258 . S
O16 C14 1.247 . S
O16 Zn17 2.028 . S
Zn17 O16 2.028 . S
Zn17 O21 2.035 . S
Zn17 O23 2.035 . S
Zn17 O24 2.028 . S
O18 C14 1.258 . S
O18 Zn19 2.035 . S
Zn19 O18 2.035 . S
Zn19 O20 2.028 . S
Zn19 O22 2.028 . S
Zn19 O25 2.035 . S
O20 Zn19 2.028 . S
O20 C26 1.247 . S
O21 Zn17 2.035 . S
O21 C26 1.258 . S
O22 C15 1.247 . S
O22 Zn19 2.028 . S
O23 C15 1.258 . S
O23 Zn17 2.035 . S
O24 Zn17 2.028 . S
O24 C27 1.247 . S
O25 Zn19 2.035 . S
O25 C27 1.258 . S
C26 O20 1.247 . S
C26 O21 1.258 . S
C27 O24 1.247 . S
C27 O25 1.258 . S
C28 O30 1.247 . S
C28 O32 1.258 1_545 S
C29 O36 1.247 . S
C29 O37 1.258 1_565 S
O30 C28 1.247 . S
O30 Zn31 2.028 . S
Zn31 O30 2.028 . S
Zn31 O35 2.035 . S
Zn31 O37 2.035 . S
Zn31 O38 2.028 1_545 S
O32 C28 1.258 1_565 S
O32 Zn33 2.035 . S
Zn33 O32 2.035 . S
Zn33 O34 2.028 1_565 S
Zn33 O36 2.028 . S
Zn33 O39 2.035 . S
O34 Zn33 2.028 1_545 S
O34 C40 1.247 . S
O35 Zn31 2.035 . S
O35 C40 1.258 . S
O36 C29 1.247 . S
O36 Zn33 2.028 . S
O37 C29 1.258 1_545 S
O37 Zn31 2.035 . S
O38 Zn31 2.028 1_565 S
O38 C41 1.247 . S
O39 Zn33 2.035 . S
O39 C41 1.258 . S
C40 O34 1.247 . S
C40 O35 1.258 . S
C41 O38 1.247 . S
C41 O39 1.258 . S
C42 O44 1.247 . S
C42 O46 1.258 . S
C43 O50 1.247 . S
C43 O51 1.258 . S
O44 C42 1.247 . S
O44 Zn45 2.028 . S
Zn45 O44 2.028 . S
Zn45 O49 2.035 . S
Zn45 O51 2.035 . S
Zn45 O52 2.028 . S
O46 C42 1.258 . S
O46 Zn47 2.035 . S
Zn47 O46 2.035 . S
Zn47 O48 2.028 . S
Zn47 O50 2.028 . S
Zn47 O53 2.035 . S
O48 Zn47 2.028 . S
O48 C54 1.247 . S
O49 Zn45 2.035 . S
O49 C54 1.258 . S
O50 C43 1.247 . S
O50 Zn47 2.028 . S
O51 C43 1.258 . S
O51 Zn45 2.035 . S
O52 Zn45 2.028 . S
O52 C55 1.247 . S
O53 Zn47 2.035 . S
O53 C55 1.258 . S
C54 O48 1.247 . S
C54 O49 1.258 . S
C55 O52 1.247 . S
C55 O53 1.258 . S
C56 O58 1.247 . S
C56 O60 1.258 . S
C57 O64 1.247 . S
C57 O65 1.258 . S
O58 C56 1.247 . S
O58 Zn59 2.028 1_545 S
Zn59 O58 2.028 1_565 S
Zn59 O63 2.035 . S
Zn59 O65 2.035 1_655 S
Zn59 O66 2.028 . S
O60 C56 1.258 . S
O60 Zn61 2.035 1_655 S
Zn61 O60 2.035 1_455 S
Zn61 O62 2.028 . S
Zn61 O64 2.028 1_545 S
Zn61 O67 2.035 . S
O62 Zn61 2.028 . S
O62 C68 1.247 1_455 S
O63 Zn59 2.035 . S
O63 C68 1.258 1_565 S
O64 C57 1.247 . S
O64 Zn61 2.028 1_565 S
O65 C57 1.258 . S
O65 Zn59 2.035 1_455 S
O66 Zn59 2.028 . S
O66 C69 1.247 1_655 S
O67 Zn61 2.035 . S
O67 C69 1.258 1_545 S
C68 O62 1.247 1_655 S
C68 O63 1.258 1_545 S
C69 O66 1.247 1_455 S
C69 O67 1.258 1_565 S
C70 O72 1.247 . S
C70 O74 1.258 . S
C71 O78 1.247 . S
C71 O79 1.258 . S
O72 C70 1.247 . S
O72 Zn73 2.028 . S
Zn73 O72 2.028 . S
Zn73 O77 2.035 . S
Zn73 O79 2.035 . S
Zn73 O80 2.028 . S
O74 C70 1.258 . S
O74 Zn75 2.035 . S
Zn75 O74 2.035 . S
Zn75 O76 2.028 . S
Zn75 O78 2.028 . S
Zn75 O81 2.035 . S
O76 Zn75 2.028 . S
O76 C82 1.247 . S
O77 Zn73 2.035 . S
O77 C82 1.258 . S
O78 C71 1.247 . S
O78 Zn75 2.028 . S
O79 C71 1.258 . S
O79 Zn73 2.035 . S
O80 Zn73 2.028 . S
O80 C83 1.247 . S
O81 Zn75 2.035 . S
O81 C83 1.258 . S
C82 O76 1.247 . S
C82 O77 1.258 . S
C83 O80 1.247 . S
C83 O81 1.258 . S
C84 O86 1.247 . S
C84 O88 1.258 . S
C85 O92 1.247 . S
C85 O93 1.258 . S
O86 C84 1.247 . S
O86 Zn87 2.030 1_565 S
Zn87 O86 2.030 1_545 S
Zn87 O91 2.027 1_554 S
Zn87 O93 2.033 1_554 S
Zn87 O94 2.036 . S
O88 C84 1.258 . S
O88 Zn89 2.035 1_554 S
Zn89 O88 2.035 1_556 S
Zn89 O90 2.030 . S
Zn89 O92 2.028 1_565 S
Zn89 O95 2.033 1_556 S
O90 Zn89 2.030 . S
O90 C96 1.247 . S
O91 Zn87 2.027 1_556 S
O91 C96 1.258 1_545 S
O92 C85 1.247 . S
O92 Zn89 2.028 1_545 S
O93 C85 1.258 . S
O93 Zn87 2.033 1_556 S
O94 Zn87 2.036 . S
O94 C97 1.247 . S
O95 Zn89 2.033 1_554 S
O95 C97 1.258 1_565 S
C96 O90 1.247 . S
C96 O91 1.258 1_565 S
C97 O94 1.247 . S
C97 O95 1.258 1_545 S
C98 O100 1.247 . S
C98 O102 1.258 . S
C99 O106 1.247 . S
C99 O107 1.258 . S
O100 C98 1.247 . S
O100 Zn101 2.028 . S
Zn101 O100 2.028 . S
Zn101 O105 2.035 . S
Zn101 O107 2.035 . S
Zn101 O108 2.028 . S
O102 C98 1.258 . S
O102 Zn103 2.035 . S
Zn103 O102 2.035 . S
Zn103 O104 2.028 . S
Zn103 O106 2.028 . S
Zn103 O109 2.035 . S
O104 Zn103 2.028 . S
O104 C110 1.247 . S
O105 Zn101 2.035 . S
O105 C110 1.258 . S
O106 C99 1.247 . S
O106 Zn103 2.028 . S
O107 C99 1.258 . S
O107 Zn101 2.035 . S
O108 Zn101 2.028 . S
O108 C111 1.247 . S
O109 Zn103 2.035 . S
O109 C111 1.258 . S
C110 O104 1.247 . S
C110 O105 1.258 . S
C111 O108 1.247 . S
C111 O109 1.258 . S
C112 O114 1.247 . S
C112 O116 1.258 . S
C113 O120 1.247 . S
C113 O121 1.258 . S
O114 C112 1.247 . S
O114 Zn115 2.028 . S
Zn115 O114 2.028 . S
Zn115 O119 2.035 . S
Zn115 O121 2.035 . S
Zn115 O122 2.028 . S
O116 C112 1.258 . S
O116 Zn117 2.035 . S
Zn117 O116 2.035 . S
Zn117 O118 2.028 . S
Zn117 O120 2.028 . S
Zn117 O123 2.035 . S
O118 Zn117 2.028 . S
O118 C124 1.247 . S
O119 Zn115 2.035 . S
O119 C124 1.258 . S
O120 C113 1.247 . S
O120 Zn117 2.028 . S
O121 C113 1.258 . S
O121 Zn115 2.035 . S
O122 Zn115 2.028 . S
O122 C125 1.247 . S
O123 Zn117 2.035 . S
O123 C125 1.258 . S
C124 O118 1.247 . S
C124 O119 1.258 . S
C125 O122 1.247 . S
C125 O123 1.258 . S
C126 O128 1.247 . S
C126 O130 1.258 . S
C127 O134 1.247 . S
C127 O135 1.258 . S
O128 C126 1.247 . S
O128 Zn129 2.028 . S
Zn129 O128 2.028 . S
Zn129 O133 2.035 . S
Zn129 O135 2.035 . S
Zn129 O136 2.028 . S
O130 C126 1.258 . S
O130 Zn131 2.035 . S
Zn131 O130 2.035 . S
Zn131 O132 2.028 . S
Zn131 O134 2.028 . S
Zn131 O137 2.035 . S
O132 Zn131 2.028 . S
O132 C138 1.247 . S
O133 Zn129 2.035 . S
O133 C138 1.258 . S
O134 C127 1.247 . S
O134 Zn131 2.028 . S
O135 C127 1.258 . S
O135 Zn129 2.035 . S
O136 Zn129 2.028 . S
O136 C139 1.247 . S
O137 Zn131 2.035 . S
O137 C139 1.258 . S
C138 O132 1.247 . S
C138 O133 1.258 . S
C139 O136 1.247 . S
C139 O137 1.258 . S
C140 O142 1.247 . S
C140 O144 1.258 . S
C141 O148 1.247 . S
C141 O149 1.258 . S
O142 C140 1.247 . S
O142 Zn143 2.028 . S
Zn143 O142 2.028 . S
Zn143 O147 2.035 . S
Zn143 O149 2.035 . S
Zn143 O150 2.028 . S
O144 C140 1.258 . S
O144 Zn145 2.035 . S
Zn145 O144 2.035 . S
Zn145 O146 2.028 . S
Zn145 O148 2.028 . S
Zn145 O151 2.035 . S
O146 Zn145 2.028 . S
O146 C152 1.247 . S
O147 Zn143 2.035 . S
O147 C152 1.258 . S
O148 C141 1.247 . S
O148 Zn145 2.028 . S
O149 C141 1.258 . S
O149 Zn143 2.035 . S
O150 Zn143 2.028 . S
O150 C153 1.247 . S
O151 Zn145 2.035 . S
O151 C153 1.258 . S
C152 O146 1.247 . S
C152 O147 1.258 . S
C153 O150 1.247 . S
C153 O151 1.258 . S
C154 O156 1.247 . S
C154 O158 1.258 . S
C155 O162 1.247 . S
C155 O163 1.258 . S
O156 C154 1.247 . S
O156 Zn157 2.028 . S
Zn157 O156 2.028 . S
Zn157 O161 2.035 . S
Zn157 O163 2.035 . S
Zn157 O164 2.028 . S
O158 C154 1.258 . S
O158 Zn159 2.035 . S
Zn159 O158 2.035 . S
Zn159 O160 2.028 . S
Zn159 O162 2.028 . S
Zn159 O165 2.035 . S
O160 Zn159 2.028 . S
O160 C166 1.247 . S
O161 Zn157 2.035 . S
O161 C166 1.258 . S
O162 C155 1.247 . S
O162 Zn159 2.028 . S
O163 C155 1.258 . S
O163 Zn157 2.035 . S
O164 Zn157 2.028 . S
O164 C167 1.247 . S
O165 Zn159 2.035 . S
O165 C167 1.258 . S
C166 O160 1.247 . S
C166 O161 1.258 . S
C167 O164 1.247 . S
C167 O165 1.258 . S
C168 O170 1.247 . S
C168 O172 1.258 . S
C169 O176 1.247 . S
C169 O177 1.258 . S
O170 C168 1.247 . S
O170 Zn171 2.028 . S
Zn171 O170 2.028 . S
Zn171 O175 2.035 . S
Zn171 O177 2.035 . S
Zn171 O178 2.028 . S
O172 C168 1.258 . S
O172 Zn173 2.035 . S
Zn173 O172 2.035 . S
Zn173 O174 2.028 . S
Zn173 O176 2.028 . S
Zn173 O179 2.035 . S
O174 Zn173 2.028 . S
O174 C180 1.247 . S
O175 Zn171 2.035 . S
O175 C180 1.258 . S
O176 C169 1.247 . S
O176 Zn173 2.028 . S
O177 C169 1.258 . S
O177 Zn171 2.035 . S
O178 Zn171 2.028 . S
O178 C181 1.247 . S
O179 Zn173 2.035 . S
O179 C181 1.258 . S
C180 O174 1.247 . S
C180 O175 1.258 . S
C181 O178 1.247 . S
C181 O179 1.258 . S
C182 O184 1.247 1_455 S
C182 O186 1.258 . S
C183 O190 1.247 1_655 S
C183 O191 1.258 . S
O184 C182 1.247 1_655 S
O184 Zn185 2.036 . S
Zn185 O184 2.036 . S
Zn185 O189 2.033 1_654 S
Zn185 O191 2.027 1_554 S
Zn185 O192 2.030 . S
O186 C182 1.258 . S
O186 Zn187 2.033 1_554 S
Zn187 O186 2.033 1_556 S
Zn187 O188 2.028 . S
Zn187 O190 2.030 . S
Zn187 O193 2.035 1_456 S
O188 Zn187 2.028 . S
O188 C194 1.247 . S
O189 Zn185 2.033 1_456 S
O189 C194 1.258 . S
O190 C183 1.247 1_455 S
O190 Zn187 2.030 . S
O191 C183 1.258 . S
O191 Zn185 2.027 1_556 S
O192 Zn185 2.030 . S
O192 C195 1.247 . S
O193 Zn187 2.035 1_654 S
O193 C195 1.258 . S
C194 O188 1.247 . S
C194 O189 1.258 . S
C195 O192 1.247 . S
C195 O193 1.258 . S
C196 O198 1.247 . S
C196 O200 1.258 . S
C197 O204 1.247 . S
C197 O205 1.258 . S
O198 C196 1.247 . S
O198 Zn199 2.030 . S
Zn199 O198 2.030 . S
Zn199 O203 2.027 1_554 S
Zn199 O205 2.033 1_554 S
Zn199 O206 2.036 . S
O200 C196 1.258 . S
O200 Zn201 2.035 1_554 S
Zn201 O200 2.035 1_556 S
Zn201 O202 2.030 . S
Zn201 O204 2.028 . S
Zn201 O207 2.033 1_556 S
O202 Zn201 2.030 . S
O202 C208 1.247 . S
O203 Zn199 2.027 1_556 S
O203 C208 1.258 . S
O204 C197 1.247 . S
O204 Zn201 2.028 . S
O205 C197 1.258 . S
O205 Zn199 2.033 1_556 S
O206 Zn199 2.036 . S
O206 C209 1.247 . S
O207 Zn201 2.033 1_554 S
O207 C209 1.258 . S
C208 O202 1.247 . S
C208 O203 1.258 . S
C209 O206 1.247 . S
C209 O207 1.258 . S
C210 O212 1.247 . S
C210 O214 1.258 . S
C211 O218 1.247 . S
C211 O219 1.258 . S
O212 C210 1.247 . S
O212 Zn213 2.028 . S
Zn213 O212 2.028 . S
Zn213 O217 2.035 . S
Zn213 O219 2.035 1_455 S
Zn213 O220 2.028 . S
O214 C210 1.258 . S
O214 Zn215 2.035 1_455 S
Zn215 O214 2.035 1_655 S
Zn215 O216 2.028 . S
Zn215 O218 2.028 . S
Zn215 O221 2.035 . S
O216 Zn215 2.028 . S
O216 C222 1.247 1_655 S
O217 Zn213 2.035 . S
O217 C222 1.258 . S
O218 C211 1.247 . S
O218 Zn215 2.028 . S
O219 C211 1.258 . S
O219 Zn213 2.035 1_655 S
O220 Zn213 2.028 . S
O220 C223 1.247 1_455 S
O221 Zn215 2.035 . S
O221 C223 1.258 . S
C222 O216 1.247 1_455 S
C222 O217 1.258 . S
C223 O220 1.247 1_655 S
C223 O221 1.258 . S
H224 C232 0.929 . S
H225 C234 0.930 . S
H226 C236 0.930 . S
H227 C239 0.929 . S
H228 C242 0.930 . S
H229 C244 0.960 . S
H230 C244 0.960 . S
H231 C244 0.960 . S
C232 H224 0.929 . S
C232 C233 1.377 . S
C232 C234 1.384 . S
C233 C232 1.377 . S
C233 C239 1.390 1_655 S
C234 H225 0.930 . S
C234 C232 1.384 . S
C234 C235 1.372 . S
C235 C234 1.372 . S
C235 C236 1.400 1_655 S
C235 C240 1.490 . S
C236 H226 0.930 . S
C236 C235 1.400 1_455 S
C236 C239 1.386 . S
H237 C253 0.931 . S
H238 C254 0.931 . S
C239 H227 0.929 . S
C239 C233 1.390 1_455 S
C239 C236 1.386 . S
C240 C235 1.490 . S
C240 C242 1.395 . S
C240 C243 1.403 1_665 S
H241 C247 0.930 . S
C242 H228 0.930 . S
C242 C240 1.395 . S
C242 C245 1.403 . S
C243 C240 1.403 1_445 S
C243 C244 1.524 . S
C243 C247 1.400 . S
C244 H229 0.960 . S
C244 H230 0.960 . S
C244 H231 0.960 . S
C244 C243 1.524 . S
C245 C242 1.403 . S
C245 C246 1.392 . S
C245 C249 1.495 . S
C246 C245 1.392 . S
C246 C247 1.385 1_665 S
C246 C248 1.479 . S
C247 H241 0.930 . S
C247 C243 1.400 . S
C247 C246 1.385 1_445 S
C248 C246 1.479 . S
C248 C250 1.378 1_565 S
C248 C254 1.384 1_655 S
C249 C245 1.495 . S
C249 H255 0.959 . S
C249 H256 0.961 . S
C249 H257 0.960 . S
C250 C248 1.378 1_545 S
C250 C251 1.394 . S
C250 H258 0.930 . S
C251 C250 1.394 . S
C251 C252 1.383 . S
C251 H259 0.929 . S
C252 C251 1.383 . S
C252 C253 1.377 1_655 S
C253 H237 0.931 . S
C253 C252 1.377 1_455 S
C253 C254 1.379 1_545 S
C254 H238 0.931 . S
C254 C248 1.384 1_455 S
C254 C253 1.379 1_565 S
H255 C249 0.959 . S
H256 C249 0.961 . S
H257 C249 0.960 . S
H258 C250 0.930 . S
H259 C251 0.929 . S
H260 C268 0.929 . S
H261 C270 0.930 . S
H262 C272 0.930 . S
H263 C275 0.929 . S
H264 C278 0.930 . S
H265 C280 0.960 . S
H266 C280 0.960 . S
H267 C280 0.960 . S
C268 H260 0.929 . S
C268 C269 1.377 . S
C268 C270 1.384 . S
C269 C268 1.377 . S
C269 C275 1.390 . S
C270 H261 0.930 . S
C270 C268 1.384 . S
C270 C271 1.372 . S
C271 C270 1.372 . S
C271 C272 1.400 . S
C271 C276 1.490 . S
C272 H262 0.930 . S
C272 C271 1.400 . S
C272 C275 1.386 . S
H273 C289 0.930 . S
H274 C290 0.931 . S
C275 H263 0.929 . S
C275 C269 1.390 . S
C275 C272 1.386 . S
C276 C271 1.490 . S
C276 C278 1.395 . S
C276 C279 1.403 . S
H277 C283 0.930 . S
C278 H264 0.930 . S
C278 C276 1.395 . S
C278 C281 1.403 . S
C279 C276 1.403 . S
C279 C280 1.524 . S
C279 C283 1.400 . S
C280 H265 0.960 . S
C280 H266 0.960 . S
C280 H267 0.960 . S
C280 C279 1.524 . S
C281 C278 1.403 . S
C281 C282 1.392 . S
C281 C285 1.495 . S
C282 C281 1.392 . S
C282 C283 1.385 . S
C282 C284 1.478 . S
C283 H277 0.930 . S
C283 C279 1.400 . S
C283 C282 1.385 . S
C284 C282 1.478 . S
C284 C286 1.381 . S
C284 C290 1.383 . S
C285 C281 1.495 . S
C285 H291 0.959 . S
C285 H292 0.961 . S
C285 H293 0.960 . S
C286 C284 1.381 . S
C286 C287 1.394 . S
C286 H294 0.930 . S
C287 C286 1.394 . S
C287 C288 1.383 . S
C287 H295 0.929 . S
C288 C287 1.383 . S
C288 C289 1.377 . S
C289 H273 0.930 . S
C289 C288 1.377 . S
C289 C290 1.379 . S
C290 H274 0.931 . S
C290 C284 1.383 . S
C290 C289 1.379 . S
H291 C285 0.959 . S
H292 C285 0.961 . S
H293 C285 0.960 . S
H294 C286 0.930 . S
H295 C287 0.929 . S
H296 C304 0.929 . S
H297 C306 0.930 . S
H298 C308 0.930 . S
H299 C311 0.929 . S
H300 C314 0.930 . S
H301 C316 0.960 . S
H302 C316 0.960 . S
H303 C316 0.960 . S
C304 H296 0.929 . S
C304 C305 1.377 1_545 S
C304 C306 1.384 . S
C305 C304 1.377 1_565 S
C305 C311 1.390 . S
C306 H297 0.930 . S
C306 C304 1.384 . S
C306 C307 1.372 1_545 S
C307 C306 1.372 1_565 S
C307 C308 1.400 . S
C307 C312 1.490 . S
C308 H298 0.930 . S
C308 C307 1.400 . S
C308 C311 1.386 . S
H309 C325 0.930 . S
H310 C326 0.931 . S
C311 H299 0.929 . S
C311 C305 1.390 . S
C311 C308 1.386 . S
C312 C307 1.490 . S
C312 C314 1.395 . S
C312 C315 1.403 1_565 S
H313 C319 0.930 . S
C314 H300 0.930 . S
C314 C312 1.395 . S
C314 C317 1.403 . S
C315 C312 1.403 1_545 S
C315 C316 1.524 . S
C315 C319 1.400 . S
C316 H301 0.960 . S
C316 H302 0.960 . S
C316 H303 0.960 . S
C316 C315 1.524 . S
C317 C314 1.403 . S
C317 C318 1.384 1_565 S
C317 C321 1.495 . S
C318 C317 1.384 1_545 S
C318 C319 1.393 . S
C318 C320 1.479 . S
C319 H313 0.930 . S
C319 C315 1.400 . S
C319 C318 1.393 . S
C320 C318 1.479 . S
C320 C322 1.381 . S
C320 C326 1.383 1_545 S
C321 C317 1.495 . S
C321 H327 0.959 . S
C321 H328 0.961 . S
C321 H329 0.960 . S
C322 C320 1.381 . S
C322 C323 1.394 . S
C322 H330 0.930 . S
C323 C322 1.394 . S
C323 C324 1.383 . S
C323 H331 0.929 . S
C324 C323 1.383 . S
C324 C325 1.377 1_545 S
C325 H309 0.930 . S
C325 C324 1.377 1_565 S
C325 C326 1.379 . S
C326 H310 0.931 . S
C326 C320 1.383 1_565 S
C326 C325 1.379 . S
H327 C321 0.959 . S
H328 C321 0.961 . S
H329 C321 0.960 . S
H330 C322 0.930 . S
H331 C323 0.929 . S
H332 C340 0.929 . S
H333 C342 0.930 . S
H334 C344 0.930 . S
H335 C347 0.929 . S
H336 C350 0.930 . S
H337 C352 0.960 . S
H338 C352 0.960 . S
H339 C352 0.960 . S
C340 H332 0.929 . S
C340 C341 1.377 . S
C340 C342 1.384 . S
C341 C340 1.377 . S
C341 C347 1.390 . S
C342 H333 0.930 . S
C342 C340 1.384 . S
C342 C343 1.372 . S
C343 C342 1.372 . S
C343 C344 1.400 . S
C343 C348 1.490 . S
C344 H334 0.930 . S
C344 C343 1.400 . S
C344 C347 1.386 . S
H345 C361 0.930 . S
H346 C362 0.931 . S
C347 H335 0.929 . S
C347 C341 1.390 . S
C347 C344 1.386 . S
C348 C343 1.490 . S
C348 C350 1.395 . S
C348 C351 1.403 . S
H349 C355 0.930 . S
C350 H336 0.930 . S
C350 C348 1.395 . S
C350 C353 1.403 1_556 S
C351 C348 1.403 . S
C351 C352 1.524 . S
C351 C355 1.400 1_556 S
C352 H337 0.960 . S
C352 H338 0.960 . S
C352 H339 0.960 . S
C352 C351 1.524 . S
C353 C350 1.403 1_554 S
C353 C354 1.392 . S
C353 C357 1.495 . S
C354 C353 1.392 . S
C354 C355 1.385 . S
C354 C356 1.478 . S
C355 H349 0.930 . S
C355 C351 1.400 1_554 S
C355 C354 1.385 . S
C356 C354 1.478 . S
C356 C358 1.381 . S
C356 C362 1.383 . S
C357 C353 1.495 . S
C357 H363 0.959 . S
C357 H364 0.961 . S
C357 H365 0.960 . S
C358 C356 1.381 . S
C358 C359 1.394 . S
C358 H366 0.930 . S
C359 C358 1.394 . S
C359 C360 1.383 . S
C359 H367 0.929 . S
C360 C359 1.383 . S
C360 C361 1.377 . S
C361 H345 0.930 . S
C361 C360 1.377 . S
C361 C362 1.379 . S
C362 H346 0.931 . S
C362 C356 1.383 . S
C362 C361 1.379 . S
H363 C357 0.959 . S
H364 C357 0.961 . S
H365 C357 0.960 . S
H366 C358 0.930 . S
H367 C359 0.929 . S
H368 C376 0.929 . S
H369 C378 0.930 . S
H370 C380 0.930 . S
H371 C383 0.929 . S
H372 C386 0.930 . S
H373 C388 0.960 . S
H374 C388 0.960 . S
H375 C388 0.960 1_565 S
C376 H368 0.929 . S
C376 C377 1.377 1_645 S
C376 C378 1.384 . S
C377 C376 1.377 1_465 S
C377 C383 1.390 . S
C378 H369 0.930 . S
C378 C376 1.384 . S
C378 C379 1.372 1_645 S
C379 C378 1.372 1_465 S
C379 C380 1.400 . S
C379 C384 1.493 . S
C380 H370 0.930 . S
C380 C379 1.400 . S
C380 C383 1.386 . S
H381 C397 0.930 . S
H382 C398 0.931 . S
C383 H371 0.929 . S
C383 C377 1.390 . S
C383 C380 1.386 . S
C384 C379 1.493 . S
C384 C386 1.401 1_455 S
C384 C387 1.395 1_565 S
H385 C391 0.930 . S
C386 H372 0.930 . S
C386 C384 1.401 1_655 S
C386 C389 1.403 . S
C387 C384 1.395 1_545 S
C387 C388 1.524 . S
C387 C391 1.400 . S
C388 H373 0.960 . S
C388 H374 0.960 . S
C388 H375 0.960 1_545 S
C388 C387 1.524 . S
C389 C386 1.403 . S
C389 C390 1.392 1_665 S
C389 C393 1.495 . S
C390 C389 1.392 1_445 S
C390 C391 1.385 . S
C390 C392 1.478 . S
C391 H385 0.930 . S
C391 C387 1.400 . S
C391 C390 1.385 . S
C392 C390 1.478 . S
C392 C394 1.381 1_455 S
C392 C398 1.383 1_545 S
C393 C389 1.495 . S
C393 H399 0.959 . S
C393 H400 0.961 . S
C393 H401 0.960 1_565 S
C394 C392 1.381 1_655 S
C394 C395 1.394 . S
C394 H402 0.930 . S
C395 C394 1.394 . S
C395 C396 1.383 1_655 S
C395 H403 0.929 . S
C396 C395 1.383 1_455 S
C396 C397 1.377 1_545 S
C397 H381 0.930 . S
C397 C396 1.377 1_565 S
C397 C398 1.379 . S
C398 H382 0.931 . S
C398 C392 1.383 1_565 S
C398 C397 1.379 . S
H399 C393 0.959 . S
H400 C393 0.961 . S
H401 C393 0.960 1_545 S
H402 C394 0.930 . S
H403 C395 0.929 . S
H404 C412 0.929 . S
H405 C414 0.930 . S
H406 C416 0.930 . S
H407 C419 0.929 . S
H408 C422 0.930 . S
H409 C424 0.960 . S
H410 C424 0.960 . S
H411 C424 0.960 . S
C412 H404 0.929 . S
C412 C413 1.377 . S
C412 C414 1.384 . S
C413 C412 1.377 . S
C413 C419 1.390 . S
C414 H405 0.930 . S
C414 C412 1.384 . S
C414 C415 1.372 . S
C415 C414 1.372 . S
C415 C416 1.400 . S
C415 C420 1.490 . S
C416 H406 0.930 . S
C416 C415 1.400 . S
C416 C419 1.386 . S
H417 C433 0.930 . S
H418 C434 0.931 . S
C419 H407 0.929 . S
C419 C413 1.390 . S
C419 C416 1.386 . S
C420 C415 1.490 . S
C420 C422 1.395 . S
C420 C423 1.403 . S
H421 C427 0.930 . S
C422 H408 0.930 . S
C422 C420 1.395 . S
C422 C425 1.403 . S
C423 C420 1.403 . S
C423 C424 1.524 . S
C423 C427 1.400 . S
C424 H409 0.960 . S
C424 H410 0.960 . S
C424 H411 0.960 . S
C424 C423 1.524 . S
C425 C422 1.403 . S
C425 C426 1.392 . S
C425 C429 1.495 . S
C426 C425 1.392 . S
C426 C427 1.385 . S
C426 C428 1.478 . S
C427 H421 0.930 . S
C427 C423 1.400 . S
C427 C426 1.385 . S
C428 C426 1.478 . S
C428 C430 1.381 . S
C428 C434 1.383 . S
C429 C425 1.495 . S
C429 H435 0.959 . S
C429 H436 0.961 . S
C429 H437 0.960 . S
C430 C428 1.381 . S
C430 C431 1.394 . S
C430 H438 0.930 . S
C431 C430 1.394 . S
C431 C432 1.383 . S
C431 H439 0.929 . S
C432 C431 1.383 . S
C432 C433 1.377 . S
C433 H417 0.930 . S
C433 C432 1.377 . S
C433 C434 1.379 . S
C434 H418 0.931 . S
C434 C428 1.383 . S
C434 C433 1.379 . S
H435 C429 0.959 . S
H436 C429 0.961 . S
H437 C429 0.960 . S
H438 C430 0.930 . S
H439 C431 0.929 . S
H440 C448 0.929 . S
H441 C450 0.930 . S
H442 C452 0.930 . S
H443 C455 0.929 . S
H444 C458 0.930 . S
H445 C460 0.960 . S
H446 C460 0.960 . S
H447 C460 0.960 . S
C448 H440 0.929 . S
C448 C449 1.377 1_565 S
C448 C450 1.384 . S
C449 C448 1.377 1_545 S
C449 C455 1.390 . S
C450 H441 0.930 . S
C450 C448 1.384 . S
C450 C451 1.372 1_565 S
C451 C450 1.372 1_545 S
C451 C452 1.400 . S
C451 C456 1.490 . S
C452 H442 0.930 . S
C452 C451 1.400 . S
C452 C455 1.386 . S
H453 C469 0.930 . S
H454 C470 0.931 . S
C455 H443 0.929 . S
C455 C449 1.390 . S
C455 C452 1.386 . S
C456 C451 1.490 . S
C456 C458 1.395 . S
C456 C459 1.403 1_545 S
H457 C463 0.930 . S
C458 H444 0.930 . S
C458 C456 1.395 . S
C458 C461 1.403 . S
C459 C456 1.403 1_565 S
C459 C460 1.524 . S
C459 C463 1.400 . S
C460 H445 0.960 . S
C460 H446 0.960 . S
C460 H447 0.960 . S
C460 C459 1.524 . S
C461 C458 1.403 . S
C461 C462 1.395 . S
C461 C465 1.495 . S
C462 C461 1.395 . S
C462 C463 1.382 1_545 S
C462 C464 1.477 1_545 S
C463 H457 0.930 . S
C463 C459 1.400 . S
C463 C462 1.382 1_565 S
C464 C462 1.477 1_565 S
C464 C466 1.381 . S
C464 C470 1.383 1_565 S
C465 C461 1.495 . S
C465 H471 0.959 . S
C465 H472 0.961 . S
C465 H473 0.960 . S
C466 C464 1.381 . S
C466 C467 1.394 . S
C466 H474 0.930 . S
C467 C466 1.394 . S
C467 C468 1.383 . S
C467 H475 0.929 . S
C468 C467 1.383 . S
C468 C469 1.377 1_565 S
C469 H453 0.930 . S
C469 C468 1.377 1_545 S
C469 C470 1.379 . S
C470 H454 0.931 . S
C470 C464 1.383 1_545 S
C470 C469 1.379 . S
H471 C465 0.959 . S
H472 C465 0.961 . S
H473 C465 0.960 . S
H474 C466 0.930 . S
H475 C467 0.929 . S
H476 C484 0.929 . S
H477 C486 0.930 . S
H478 C488 0.930 . S
H479 C491 0.929 . S
H480 C494 0.930 . S
H481 C496 0.960 . S
H482 C496 0.960 . S
H483 C496 0.960 . S
C484 H476 0.929 . S
C484 C485 1.377 . S
C484 C486 1.384 . S
C485 C484 1.377 . S
C485 C491 1.390 . S
C486 H477 0.930 . S
C486 C484 1.384 . S
C486 C487 1.372 . S
C487 C486 1.372 . S
C487 C488 1.400 . S
C487 C492 1.490 . S
C488 H478 0.930 . S
C488 C487 1.400 . S
C488 C491 1.386 . S
H489 C505 0.930 . S
H490 C506 0.931 . S
C491 H479 0.929 . S
C491 C485 1.390 . S
C491 C488 1.386 . S
C492 C487 1.490 . S
C492 C494 1.395 . S
C492 C495 1.403 . S
H493 C499 0.930 . S
C494 H480 0.930 . S
C494 C492 1.395 . S
C494 C497 1.403 1_554 S
C495 C492 1.403 . S
C495 C496 1.524 . S
C495 C499 1.400 1_554 S
C496 H481 0.960 . S
C496 H482 0.960 . S
C496 H483 0.960 . S
C496 C495 1.524 . S
C497 C494 1.403 1_556 S
C497 C498 1.392 . S
C497 C501 1.495 . S
C498 C497 1.392 . S
C498 C499 1.385 . S
C498 C500 1.478 . S
C499 H493 0.930 . S
C499 C495 1.400 1_556 S
C499 C498 1.385 . S
C500 C498 1.478 . S
C500 C502 1.381 . S
C500 C506 1.383 . S
C501 C497 1.495 . S
C501 H507 0.959 . S
C501 H508 0.961 . S
C501 H509 0.960 . S
C502 C500 1.381 . S
C502 C503 1.394 . S
C502 H510 0.930 . S
C503 C502 1.394 . S
C503 C504 1.383 . S
C503 H511 0.929 . S
C504 C503 1.383 . S
C504 C505 1.377 . S
C505 H489 0.930 . S
C505 C504 1.377 . S
C505 C506 1.379 . S
C506 H490 0.931 . S
C506 C500 1.383 . S
C506 C505 1.379 . S
H507 C501 0.959 . S
H508 C501 0.961 . S
H509 C501 0.960 . S
H510 C502 0.930 . S
H511 C503 0.929 . S
H512 C520 0.929 . S
H513 C522 0.930 . S
H514 C524 0.930 . S
H515 C527 0.929 . S
H516 C530 0.930 . S
H517 C532 0.960 . S
H518 C532 0.960 . S
H519 C532 0.960 . S
C520 H512 0.929 . S
C520 C521 1.377 . S
C520 C522 1.384 . S
C521 C520 1.377 . S
C521 C527 1.390 . S
C522 H513 0.930 . S
C522 C520 1.384 . S
C522 C523 1.372 . S
C523 C522 1.372 . S
C523 C524 1.400 . S
C523 C528 1.490 . S
C524 H514 0.930 . S
C524 C523 1.400 . S
C524 C527 1.386 . S
H525 C541 0.930 . S
H526 C542 0.931 . S
C527 H515 0.929 . S
C527 C521 1.390 . S
C527 C524 1.386 . S
C528 C523 1.490 . S
C528 C530 1.395 . S
C528 C531 1.403 . S
H529 C535 0.930 . S
C530 H516 0.930 . S
C530 C528 1.395 . S
C530 C533 1.403 . S
C531 C528 1.403 . S
C531 C532 1.524 . S
C531 C535 1.400 . S
C532 H517 0.960 . S
C532 H518 0.960 . S
C532 H519 0.960 . S
C532 C531 1.524 . S
C533 C530 1.403 . S
C533 C534 1.392 . S
C533 C537 1.495 . S
C534 C533 1.392 . S
C534 C535 1.385 . S
C534 C536 1.478 . S
C535 H529 0.930 . S
C535 C531 1.400 . S
C535 C534 1.385 . S
C536 C534 1.478 . S
C536 C538 1.381 . S
C536 C542 1.383 . S
C537 C533 1.495 . S
C537 H543 0.959 . S
C537 H544 0.961 . S
C537 H545 0.960 . S
C538 C536 1.381 . S
C538 C539 1.394 . S
C538 H546 0.930 . S
C539 C538 1.394 . S
C539 C540 1.383 . S
C539 H547 0.929 . S
C540 C539 1.383 . S
C540 C541 1.377 . S
C541 H525 0.930 . S
C541 C540 1.377 . S
C541 C542 1.379 . S
C542 H526 0.931 . S
C542 C536 1.383 . S
C542 C541 1.379 . S
H543 C537 0.959 . S
H544 C537 0.961 . S
H545 C537 0.960 . S
H546 C538 0.930 . S
H547 C539 0.929 . S
H548 C556 0.929 . S
H549 C558 0.930 . S
H550 C560 0.930 . S
H551 C563 0.929 . S
H552 C566 0.930 . S
H553 C568 0.960 . S
H554 C568 0.960 . S
H555 C568 0.960 . S
C556 H548 0.929 . S
C556 C557 1.377 . S
C556 C558 1.384 . S
C557 C556 1.377 . S
C557 C563 1.390 . S
C558 H549 0.930 . S
C558 C556 1.384 . S
C558 C559 1.372 . S
C559 C558 1.372 . S
C559 C560 1.400 . S
C559 C564 1.490 . S
C560 H550 0.930 . S
C560 C559 1.400 . S
C560 C563 1.386 . S
H561 C577 0.930 . S
H562 C578 0.931 . S
C563 H551 0.929 . S
C563 C557 1.390 . S
C563 C560 1.386 . S
C564 C559 1.490 . S
C564 C566 1.395 . S
C564 C567 1.403 . S
H565 C571 0.930 . S
C566 H552 0.930 . S
C566 C564 1.395 . S
C566 C569 1.403 1_556 S
C567 C564 1.403 . S
C567 C568 1.524 . S
C567 C571 1.400 1_556 S
C568 H553 0.960 . S
C568 H554 0.960 . S
C568 H555 0.960 . S
C568 C567 1.524 . S
C569 C566 1.403 1_554 S
C569 C570 1.392 . S
C569 C573 1.495 . S
C570 C569 1.392 . S
C570 C571 1.385 . S
C570 C572 1.478 . S
C571 H565 0.930 . S
C571 C567 1.400 1_554 S
C571 C570 1.385 . S
C572 C570 1.478 . S
C572 C574 1.381 . S
C572 C578 1.383 . S
C573 C569 1.495 . S
C573 H579 0.959 . S
C573 H580 0.961 . S
C573 H581 0.960 . S
C574 C572 1.381 . S
C574 C575 1.394 . S
C574 H582 0.930 . S
C575 C574 1.394 . S
C575 C576 1.383 . S
C575 H583 0.929 . S
C576 C575 1.383 . S
C576 C577 1.377 . S
C577 H561 0.930 . S
C577 C576 1.377 . S
C577 C578 1.379 . S
C578 H562 0.931 . S
C578 C572 1.383 . S
C578 C577 1.379 . S
H579 C573 0.959 . S
H580 C573 0.961 . S
H581 C573 0.960 . S
H582 C574 0.930 . S
H583 C575 0.929 . S
H584 C592 0.929 . S
H585 C594 0.930 . S
H586 C596 0.930 . S
H587 C599 0.929 . S
H588 C602 0.930 . S
H589 C604 0.960 . S
H590 C604 0.960 . S
H591 C604 0.960 . S
C592 H584 0.929 . S
C592 C593 1.377 . S
C592 C594 1.384 . S
C593 C592 1.377 . S
C593 C599 1.390 . S
C594 H585 0.930 . S
C594 C592 1.384 . S
C594 C595 1.372 . S
C595 C594 1.372 . S
C595 C596 1.400 . S
C595 C600 1.490 . S
C596 H586 0.930 . S
C596 C595 1.400 . S
C596 C599 1.386 . S
H597 C613 0.936 . S
H598 C614 0.931 . S
C599 H587 0.929 . S
C599 C593 1.390 . S
C599 C596 1.386 . S
C600 C595 1.490 . S
C600 C602 1.395 1_455 S
C600 C603 1.403 . S
H601 C607 0.930 . S
C602 H588 0.930 . S
C602 C600 1.395 1_655 S
C602 C605 1.403 . S
C603 C600 1.403 . S
C603 C604 1.524 . S
C603 C607 1.400 . S
C604 H589 0.960 . S
C604 H590 0.960 . S
C604 H591 0.960 . S
C604 C603 1.524 . S
C605 C602 1.403 . S
C605 C606 1.392 1_655 S
C605 C609 1.495 . S
C606 C605 1.392 1_455 S
C606 C607 1.385 . S
C606 C608 1.478 . S
C607 H601 0.930 . S
C607 C603 1.400 . S
C607 C606 1.385 . S
C608 C606 1.478 . S
C608 C610 1.381 . S
C608 C614 1.383 1_455 S
C609 C605 1.495 . S
C609 H615 0.959 . S
C609 H616 0.961 . S
C609 H617 0.960 . S
C610 C608 1.381 . S
C610 C611 1.394 . S
C610 H618 0.930 . S
C611 C610 1.394 . S
C611 C612 1.383 . S
C611 H619 0.929 . S
C612 C611 1.383 . S
C612 C613 1.370 1_455 S
C613 H597 0.936 . S
C613 C612 1.370 1_655 S
C613 C614 1.381 . S
C614 H598 0.931 . S
C614 C608 1.383 1_655 S
C614 C613 1.381 . S
H615 C609 0.959 . S
H616 C609 0.961 . S
H617 C609 0.960 . S
H618 C610 0.930 . S
H619 C611 0.929 . S
H620 C628 0.929 . S
H621 C630 0.930 . S
H622 C632 0.930 . S
H623 C635 0.929 . S
H624 C638 0.930 . S
H625 C640 0.960 . S
H626 C640 0.960 . S
H627 C640 0.960 . S
C628 H620 0.929 . S
C628 C629 1.377 . S
C628 C630 1.384 . S
C629 C628 1.377 . S
C629 C635 1.390 . S
C630 H621 0.930 . S
C630 C628 1.384 . S
C630 C631 1.372 . S
C631 C630 1.372 . S
C631 C632 1.400 . S
C631 C636 1.490 . S
C632 H622 0.930 . S
C632 C631 1.400 . S
C632 C635 1.386 . S
H633 C649 0.930 . S
H634 C650 0.931 . S
C635 H623 0.929 . S
C635 C629 1.390 . S
C635 C632 1.386 . S
C636 C631 1.490 . S
C636 C638 1.395 . S
C636 C639 1.403 . S
H637 C643 0.930 . S
C638 H624 0.930 . S
C638 C636 1.395 . S
C638 C641 1.403 . S
C639 C636 1.403 . S
C639 C640 1.524 . S
C639 C643 1.400 . S
C640 H625 0.960 . S
C640 H626 0.960 . S
C640 H627 0.960 . S
C640 C639 1.524 . S
C641 C638 1.403 . S
C641 C642 1.392 . S
C641 C645 1.495 . S
C642 C641 1.392 . S
C642 C643 1.385 . S
C642 C644 1.478 . S
C643 H637 0.930 . S
C643 C639 1.400 . S
C643 C642 1.385 . S
C644 C642 1.478 . S
C644 C646 1.381 . S
C644 C650 1.383 . S
C645 C641 1.495 . S
C645 H651 0.959 . S
C645 H652 0.961 . S
C645 H653 0.960 . S
C646 C644 1.381 . S
C646 C647 1.394 . S
C646 H654 0.930 . S
C647 C646 1.394 . S
C647 C648 1.383 . S
C647 H655 0.929 . S
C648 C647 1.383 . S
C648 C649 1.377 . S
C649 H633 0.930 . S
C649 C648 1.377 . S
C649 C650 1.379 . S
C650 H634 0.931 . S
C650 C644 1.383 . S
C650 C649 1.379 . S
H651 C645 0.959 . S
H652 C645 0.961 . S
H653 C645 0.960 . S
H654 C646 0.930 . S
H655 C647 0.929 . S
H656 C664 0.929 . S
H657 C666 0.930 . S
H658 C668 0.930 . S
H659 C671 0.929 . S
H660 C674 0.930 . S
H661 C676 0.960 . S
H662 C676 0.960 . S
H663 C676 0.960 . S
C664 H656 0.929 . S
C664 C665 1.377 . S
C664 C666 1.384 . S
C665 C664 1.377 . S
C665 C671 1.390 . S
C666 H657 0.930 . S
C666 C664 1.384 . S
C666 C667 1.372 . S
C667 C666 1.372 . S
C667 C668 1.400 . S
C667 C672 1.490 . S
C668 H658 0.930 . S
C668 C667 1.400 . S
C668 C671 1.386 . S
H669 C685 0.930 . S
H670 C686 0.931 . S
C671 H659 0.929 . S
C671 C665 1.390 . S
C671 C668 1.386 . S
C672 C667 1.490 . S
C672 C674 1.395 . S
C672 C675 1.403 . S
H673 C679 0.930 . S
C674 H660 0.930 . S
C674 C672 1.395 . S
C674 C677 1.403 . S
C675 C672 1.403 . S
C675 C676 1.524 . S
C675 C679 1.400 . S
C676 H661 0.960 . S
C676 H662 0.960 . S
C676 H663 0.960 . S
C676 C675 1.524 . S
C677 C674 1.403 . S
C677 C678 1.392 . S
C677 C681 1.495 . S
C678 C677 1.392 . S
C678 C679 1.385 . S
C678 C680 1.478 . S
C679 H673 0.930 . S
C679 C675 1.400 . S
C679 C678 1.385 . S
C680 C678 1.478 . S
C680 C682 1.381 . S
C680 C686 1.383 . S
C681 C677 1.495 . S
C681 H687 0.959 . S
C681 H688 0.961 . S
C681 H689 0.960 . S
C682 C680 1.381 . S
C682 C683 1.394 . S
C682 H690 0.930 . S
C683 C682 1.394 . S
C683 C684 1.383 . S
C683 H691 0.929 . S
C684 C683 1.383 . S
C684 C685 1.377 . S
C685 H669 0.930 . S
C685 C684 1.377 . S
C685 C686 1.379 . S
C686 H670 0.931 . S
C686 C680 1.383 . S
C686 C685 1.379 . S
H687 C681 0.959 . S
H688 C681 0.961 . S
H689 C681 0.960 . S
H690 C682 0.930 . S
H691 C683 0.929 . S
H692 C700 0.929 . S
H693 C702 0.930 . S
H694 C704 0.930 . S
H695 C707 0.929 . S
H696 C710 0.930 . S
H697 C712 0.960 . S
H698 C712 0.960 . S
H699 C712 0.960 . S
C700 H692 0.929 . S
C700 C701 1.377 . S
C700 C702 1.384 . S
C701 C700 1.377 . S
C701 C707 1.390 . S
C702 H693 0.930 . S
C702 C700 1.384 . S
C702 C703 1.372 . S
C703 C702 1.372 . S
C703 C704 1.400 . S
C703 C708 1.490 . S
C704 H694 0.930 . S
C704 C703 1.400 . S
C704 C707 1.386 . S
H705 C721 0.930 . S
H706 C722 0.931 . S
C707 H695 0.929 . S
C707 C701 1.390 . S
C707 C704 1.386 . S
C708 C703 1.490 . S
C708 C710 1.395 . S
C708 C711 1.403 . S
H709 C715 0.930 . S
C710 H696 0.930 . S
C710 C708 1.395 . S
C710 C713 1.403 1_554 S
C711 C708 1.403 . S
C711 C712 1.524 . S
C711 C715 1.400 1_554 S
C712 H697 0.960 . S
C712 H698 0.960 . S
C712 H699 0.960 . S
C712 C711 1.524 . S
C713 C710 1.403 1_556 S
C713 C714 1.392 . S
C713 C717 1.495 . S
C714 C713 1.392 . S
C714 C715 1.385 . S
C714 C716 1.478 . S
C715 H709 0.930 . S
C715 C711 1.400 1_556 S
C715 C714 1.385 . S
C716 C714 1.478 . S
C716 C718 1.381 . S
C716 C722 1.383 . S
C717 C713 1.495 . S
C717 H723 0.959 . S
C717 H724 0.961 . S
C717 H725 0.960 . S
C718 C716 1.381 . S
C718 C719 1.394 . S
C718 H726 0.930 . S
C719 C718 1.394 . S
C719 C720 1.383 . S
C719 H727 0.929 . S
C720 C719 1.383 . S
C720 C721 1.377 . S
C721 H705 0.930 . S
C721 C720 1.377 . S
C721 C722 1.379 . S
C722 H706 0.931 . S
C722 C716 1.383 . S
C722 C721 1.379 . S
H723 C717 0.959 . S
H724 C717 0.961 . S
H725 C717 0.960 . S
H726 C718 0.930 . S
H727 C719 0.929 . S
H728 C736 0.928 1_455 S
H729 C738 0.932 . S
H730 C740 0.930 . S
H731 C743 0.929 . S
H732 C746 0.930 . S
H733 C748 0.960 . S
H734 C748 0.960 . S
H735 C748 0.960 . S
C736 H728 0.928 1_655 S
C736 C737 1.378 . S
C736 C738 1.384 1_655 S
C737 C736 1.378 . S
C737 C743 1.390 . S
C738 H729 0.932 . S
C738 C736 1.384 1_455 S
C738 C739 1.370 1_455 S
C739 C738 1.370 1_655 S
C739 C740 1.400 . S
C739 C744 1.490 . S
C740 H730 0.930 . S
C740 C739 1.400 . S
C740 C743 1.386 . S
H741 C757 0.930 . S
H742 C758 0.931 . S
C743 H731 0.929 . S
C743 C737 1.390 . S
C743 C740 1.386 . S
C744 C739 1.490 . S
C744 C746 1.395 1_655 S
C744 C747 1.403 . S
H745 C751 0.930 . S
C746 H732 0.930 . S
C746 C744 1.395 1_455 S
C746 C749 1.403 . S
C747 C744 1.403 . S
C747 C748 1.524 . S
C747 C751 1.400 . S
C748 H733 0.960 . S
C748 H734 0.960 . S
C748 H735 0.960 . S
C748 C747 1.524 . S
C749 C746 1.403 . S
C749 C750 1.392 1_455 S
C749 C753 1.495 . S
C750 C749 1.392 1_655 S
C750 C751 1.385 . S
C750 C752 1.478 . S
C751 H745 0.930 . S
C751 C747 1.400 . S
C751 C750 1.385 . S
C752 C750 1.478 . S
C752 C754 1.381 1_655 S
C752 C758 1.383 . S
C753 C749 1.495 . S
C753 H759 0.959 . S
C753 H760 0.961 . S
C753 H761 0.960 . S
C754 C752 1.381 1_455 S
C754 C755 1.396 . S
C754 H762 0.930 . S
C755 C754 1.396 . S
C755 C756 1.379 1_455 S
C755 H763 0.932 . S
C756 C755 1.379 1_655 S
C756 C757 1.377 . S
C757 H741 0.930 . S
C757 C756 1.377 . S
C757 C758 1.379 . S
C758 H742 0.931 . S
C758 C752 1.383 . S
C758 C757 1.379 . S
H759 C753 0.959 . S
H760 C753 0.961 . S
H761 C753 0.960 . S
H762 C754 0.930 . S
H763 C755 0.932 . S
H764 C772 0.929 . S
H765 C774 0.930 . S
H766 C776 0.930 . S
H767 C779 0.929 . S
H768 C782 0.930 . S
H769 C784 0.960 . S
H770 C784 0.960 . S
H771 C784 0.960 . S
C772 H764 0.929 . S
C772 C773 1.377 . S
C772 C774 1.384 . S
C773 C772 1.377 . S
C773 C779 1.390 . S
C774 H765 0.930 . S
C774 C772 1.384 . S
C774 C775 1.372 . S
C775 C774 1.372 . S
C775 C776 1.400 . S
C775 C780 1.490 . S
C776 H766 0.930 . S
C776 C775 1.400 . S
C776 C779 1.386 . S
H777 C793 0.930 . S
H778 C794 0.931 . S
C779 H767 0.929 . S
C779 C773 1.390 . S
C779 C776 1.386 . S
C780 C775 1.490 . S
C780 C782 1.395 . S
C780 C783 1.403 . S
H781 C787 0.930 . S
C782 H768 0.930 . S
C782 C780 1.395 . S
C782 C785 1.403 . S
C783 C780 1.403 . S
C783 C784 1.524 . S
C783 C787 1.400 . S
C784 H769 0.960 . S
C784 H770 0.960 . S
C784 H771 0.960 . S
C784 C783 1.524 . S
C785 C782 1.403 . S
C785 C786 1.392 . S
C785 C789 1.495 . S
C786 C785 1.392 . S
C786 C787 1.385 . S
C786 C788 1.478 . S
C787 H781 0.930 . S
C787 C783 1.400 . S
C787 C786 1.385 . S
C788 C786 1.478 . S
C788 C790 1.381 . S
C788 C794 1.383 . S
C789 C785 1.495 . S
C789 H795 0.959 . S
C789 H796 0.961 . S
C789 H797 0.960 . S
C790 C788 1.381 . S
C790 C791 1.394 . S
C790 H798 0.930 . S
C791 C790 1.394 . S
C791 C792 1.383 . S
C791 H799 0.929 . S
C792 C791 1.383 . S
C792 C793 1.377 . S
C793 H777 0.930 . S
C793 C792 1.377 . S
C793 C794 1.379 . S
C794 H778 0.931 . S
C794 C788 1.383 . S
C794 C793 1.379 . S
H795 C789 0.959 . S
H796 C789 0.961 . S
H797 C789 0.960 . S
H798 C790 0.930 . S
H799 C791 0.929 . S
H800 C808 0.929 . S
H801 C810 0.930 . S
H802 C812 0.930 . S
H803 C815 0.929 . S
H804 C818 0.930 . S
H805 C820 0.960 . S
H806 C820 0.960 . S
H807 C820 0.960 . S
C808 H800 0.929 . S
C808 C809 1.377 . S
C808 C810 1.384 . S
C809 C808 1.377 . S
C809 C815 1.390 . S
C810 H801 0.930 . S
C810 C808 1.384 . S
C810 C811 1.372 . S
C811 C810 1.372 . S
C811 C812 1.400 . S
C811 C816 1.490 . S
C812 H802 0.930 . S
C812 C811 1.400 . S
C812 C815 1.386 . S
H813 C829 0.930 . S
H814 C830 0.931 . S
C815 H803 0.929 . S
C815 C809 1.390 . S
C815 C812 1.386 . S
C816 C811 1.490 . S
C816 C818 1.395 . S
C816 C819 1.403 . S
H817 C823 0.930 . S
C818 H804 0.930 . S
C818 C816 1.395 . S
C818 C821 1.403 . S
C819 C816 1.403 . S
C819 C820 1.524 . S
C819 C823 1.400 . S
C820 H805 0.960 . S
C820 H806 0.960 . S
C820 H807 0.960 . S
C820 C819 1.524 . S
C821 C818 1.403 . S
C821 C822 1.392 . S
C821 C825 1.495 . S
C822 C821 1.392 . S
C822 C823 1.385 . S
C822 C824 1.478 . S
C823 H817 0.930 . S
C823 C819 1.400 . S
C823 C822 1.385 . S
C824 C822 1.478 . S
C824 C826 1.381 . S
C824 C830 1.383 . S
C825 C821 1.495 . S
C825 H831 0.959 . S
C825 H832 0.961 . S
C825 H833 0.960 . S
C826 C824 1.381 . S
C826 C827 1.394 . S
C826 H834 0.930 . S
C827 C826 1.394 . S
C827 C828 1.383 . S
C827 H835 0.929 . S
C828 C827 1.383 . S
C828 C829 1.377 . S
C829 H813 0.930 . S
C829 C828 1.377 . S
C829 C830 1.379 . S
C830 H814 0.931 . S
C830 C824 1.383 . S
C830 C829 1.379 . S
H831 C825 0.959 . S
H832 C825 0.961 . S
H833 C825 0.960 . S
H834 C826 0.930 . S
H835 C827 0.929 . S
H836 C844 0.929 . S
H837 C846 0.930 . S
H838 C848 0.930 . S
H839 C851 0.929 . S
H840 C854 0.930 . S
H841 C856 0.960 . S
H842 C856 0.960 . S
H843 C856 0.960 . S
C844 H836 0.929 . S
C844 C845 1.377 . S
C844 C846 1.384 . S
C845 C844 1.377 . S
C845 C851 1.390 . S
C846 H837 0.930 . S
C846 C844 1.384 . S
C846 C847 1.372 . S
C847 C846 1.372 . S
C847 C848 1.400 . S
C847 C852 1.490 . S
C848 H838 0.930 . S
C848 C847 1.400 . S
C848 C851 1.386 . S
H849 C865 0.930 . S
H850 C866 0.931 . S
C851 H839 0.929 . S
C851 C845 1.390 . S
C851 C848 1.386 . S
C852 C847 1.490 . S
C852 C854 1.395 . S
C852 C855 1.403 . S
H853 C859 0.930 . S
C854 H840 0.930 . S
C854 C852 1.395 . S
C854 C857 1.403 . S
C855 C852 1.403 . S
C855 C856 1.524 . S
C855 C859 1.400 . S
C856 H841 0.960 . S
C856 H842 0.960 . S
C856 H843 0.960 . S
C856 C855 1.524 . S
C857 C854 1.403 . S
C857 C858 1.392 . S
C857 C861 1.495 . S
C858 C857 1.392 . S
C858 C859 1.385 . S
C858 C860 1.478 . S
C859 H853 0.930 . S
C859 C855 1.400 . S
C859 C858 1.385 . S
C860 C858 1.478 . S
C860 C862 1.381 . S
C860 C866 1.383 . S
C861 C857 1.495 . S
C861 H867 0.959 . S
C861 H868 0.961 . S
C861 H869 0.960 . S
C862 C860 1.381 . S
C862 C863 1.394 . S
C862 H870 0.930 . S
C863 C862 1.394 . S
C863 C864 1.383 . S
C863 H871 0.929 . S
C864 C863 1.383 . S
C864 C865 1.377 . S
C865 H849 0.930 . S
C865 C864 1.377 . S
C865 C866 1.379 . S
C866 H850 0.931 . S
C866 C860 1.383 . S
C866 C865 1.379 . S
H867 C861 0.959 . S
H868 C861 0.961 . S
H869 C861 0.960 . S
H870 C862 0.930 . S
H871 C863 0.929 . S
H872 C880 0.929 . S
H873 C882 0.930 . S
H874 C884 0.930 . S
H875 C887 0.929 . S
H876 C890 0.930 . S
H877 C892 0.960 . S
H878 C892 0.960 . S
H879 C892 0.960 . S
C880 H872 0.929 . S
C880 C881 1.377 . S
C880 C882 1.384 . S
C881 C880 1.377 . S
C881 C887 1.390 . S
C882 H873 0.930 . S
C882 C880 1.384 . S
C882 C883 1.372 . S
C883 C882 1.372 . S
C883 C884 1.400 . S
C883 C888 1.490 . S
C884 H874 0.930 . S
C884 C883 1.400 . S
C884 C887 1.386 . S
H885 C901 0.930 . S
H886 C902 0.931 . S
C887 H875 0.929 . S
C887 C881 1.390 . S
C887 C884 1.386 . S
C888 C883 1.490 . S
C888 C890 1.395 . S
C888 C891 1.403 . S
H889 C895 0.930 . S
C890 H876 0.930 . S
C890 C888 1.395 . S
C890 C893 1.403 . S
C891 C888 1.403 . S
C891 C892 1.524 . S
C891 C895 1.400 . S
C892 H877 0.960 . S
C892 H878 0.960 . S
C892 H879 0.960 . S
C892 C891 1.524 . S
C893 C890 1.403 . S
C893 C894 1.392 . S
C893 C897 1.495 . S
C894 C893 1.392 . S
C894 C895 1.385 . S
C894 C896 1.478 . S
C895 H889 0.930 . S
C895 C891 1.400 . S
C895 C894 1.385 . S
C896 C894 1.478 . S
C896 C898 1.381 . S
C896 C902 1.383 . S
C897 C893 1.495 . S
C897 H903 0.959 . S
C897 H904 0.961 . S
C897 H905 0.960 . S
C898 C896 1.381 . S
C898 C899 1.394 . S
C898 H906 0.930 . S
C899 C898 1.394 . S
C899 C900 1.383 . S
C899 H907 0.929 . S
C900 C899 1.383 . S
C900 C901 1.377 . S
C901 H885 0.930 . S
C901 C900 1.377 . S
C901 C902 1.379 . S
C902 H886 0.931 . S
C902 C896 1.383 . S
C902 C901 1.379 . S
H903 C897 0.959 . S
H904 C897 0.961 . S
H905 C897 0.960 . S
H906 C898 0.930 . S
H907 C899 0.929 . S
H908 C916 0.929 . S
H909 C918 0.930 . S
H910 C920 0.930 . S
H911 C923 0.929 . S
H912 C926 0.930 . S
H913 C928 0.960 . S
H914 C928 0.960 . S
H915 C928 0.960 . S
C916 H908 0.929 . S
C916 C917 1.377 . S
C916 C918 1.384 . S
C917 C916 1.377 . S
C917 C923 1.390 . S
C918 H909 0.930 . S
C918 C916 1.384 . S
C918 C919 1.372 . S
C919 C918 1.372 . S
C919 C920 1.400 . S
C919 C924 1.490 . S
C920 H910 0.930 . S
C920 C919 1.400 . S
C920 C923 1.386 . S
H921 C937 0.930 . S
H922 C938 0.931 . S
C923 H911 0.929 . S
C923 C917 1.390 . S
C923 C920 1.386 . S
C924 C919 1.490 . S
C924 C926 1.395 . S
C924 C927 1.403 . S
H925 C931 0.930 . S
C926 H912 0.930 . S
C926 C924 1.395 . S
C926 C929 1.403 . S
C927 C924 1.403 . S
C927 C928 1.524 . S
C927 C931 1.400 . S
C928 H913 0.960 . S
C928 H914 0.960 . S
C928 H915 0.960 . S
C928 C927 1.524 . S
C929 C926 1.403 . S
C929 C930 1.392 . S
C929 C933 1.495 . S
C930 C929 1.392 . S
C930 C931 1.385 . S
C930 C932 1.478 . S
C931 H925 0.930 . S
C931 C927 1.400 . S
C931 C930 1.385 . S
C932 C930 1.478 . S
C932 C934 1.381 . S
C932 C938 1.383 . S
C933 C929 1.495 . S
C933 H939 0.959 . S
C933 H940 0.961 . S
C933 H941 0.960 . S
C934 C932 1.381 . S
C934 C935 1.394 . S
C934 H942 0.930 . S
C935 C934 1.394 . S
C935 C936 1.383 . S
C935 H943 0.929 . S
C936 C935 1.383 . S
C936 C937 1.377 . S
C937 H921 0.930 . S
C937 C936 1.377 . S
C937 C938 1.379 . S
C938 H922 0.931 . S
C938 C932 1.383 . S
C938 C937 1.379 . S
H939 C933 0.959 . S
H940 C933 0.961 . S
H941 C933 0.960 . S
H942 C934 0.930 . S
H943 C935 0.929 . S
H944 C952 0.929 . S
H945 C954 0.930 . S
H946 C956 0.930 . S
H947 C959 0.929 . S
H948 C962 0.930 . S
H949 C964 0.960 . S
H950 C964 0.960 . S
H951 C964 0.960 . S
C952 H944 0.929 . S
C952 C953 1.377 . S
C952 C954 1.384 . S
C953 C952 1.377 . S
C953 C959 1.390 . S
C954 H945 0.930 . S
C954 C952 1.384 . S
C954 C955 1.372 . S
C955 C954 1.372 . S
C955 C956 1.400 . S
C955 C960 1.490 . S
C956 H946 0.930 . S
C956 C955 1.400 . S
C956 C959 1.386 . S
H957 C973 0.930 . S
H958 C974 0.931 . S
C959 H947 0.929 . S
C959 C953 1.390 . S
C959 C956 1.386 . S
C960 C955 1.490 . S
C960 C962 1.395 . S
C960 C963 1.403 . S
H961 C967 0.930 . S
C962 H948 0.930 . S
C962 C960 1.395 . S
C962 C965 1.403 . S
C963 C960 1.403 . S
C963 C964 1.524 . S
C963 C967 1.400 . S
C964 H949 0.960 . S
C964 H950 0.960 . S
C964 H951 0.960 . S
C964 C963 1.524 . S
C965 C962 1.403 . S
C965 C966 1.392 . S
C965 C969 1.495 . S
C966 C965 1.392 . S
C966 C967 1.385 . S
C966 C968 1.478 . S
C967 H961 0.930 . S
C967 C963 1.400 . S
C967 C966 1.385 . S
C968 C966 1.478 . S
C968 C970 1.381 . S
C968 C974 1.383 . S
C969 C965 1.495 . S
C969 H975 0.959 . S
C969 H976 0.961 . S
C969 H977 0.960 . S
C970 C968 1.381 . S
C970 C971 1.394 . S
C970 H978 0.930 . S
C971 C970 1.394 . S
C971 C972 1.383 . S
C971 H979 0.929 . S
C972 C971 1.383 . S
C972 C973 1.377 . S
C973 H957 0.930 . S
C973 C972 1.377 . S
C973 C974 1.379 . S
C974 H958 0.931 . S
C974 C968 1.383 . S
C974 C973 1.379 . S
H975 C969 0.959 . S
H976 C969 0.961 . S
H977 C969 0.960 . S
H978 C970 0.930 . S
H979 C971 0.929 . S
H980 C988 0.929 . S
H981 C990 0.930 . S
H982 C992 0.930 . S
H983 C995 0.929 . S
H984 C998 0.930 . S
H985 C1000 0.960 . S
H986 C1000 0.960 . S
H987 C1000 0.960 . S
C988 H980 0.929 . S
C988 C989 1.377 . S
C988 C990 1.384 . S
C989 C988 1.377 . S
C989 C995 1.390 . S
C990 H981 0.930 . S
C990 C988 1.384 . S
C990 C991 1.372 . S
C991 C990 1.372 . S
C991 C992 1.400 . S
C991 C996 1.490 . S
C992 H982 0.930 . S
C992 C991 1.400 . S
C992 C995 1.386 . S
H993 C1009 0.930 . S
H994 C1010 0.931 . S
C995 H983 0.929 . S
C995 C989 1.390 . S
C995 C992 1.386 . S
C996 C991 1.490 . S
C996 C998 1.395 . S
C996 C999 1.403 . S
H997 C1003 0.930 . S
C998 H984 0.930 . S
C998 C996 1.395 . S
C998 C1001 1.403 . S
C999 C996 1.403 . S
C999 C1000 1.524 . S
C999 C1003 1.400 . S
C1000 H985 0.960 . S
C1000 H986 0.960 . S
C1000 H987 0.960 . S
C1000 C999 1.524 . S
C1001 C998 1.403 . S
C1001 C1002 1.392 . S
C1001 C1005 1.495 . S
C1002 C1001 1.392 . S
C1002 C1003 1.385 . S
C1002 C1004 1.478 . S
C1003 H997 0.930 . S
C1003 C999 1.400 . S
C1003 C1002 1.385 . S
C1004 C1002 1.478 . S
C1004 C1006 1.381 . S
C1004 C1010 1.383 . S
C1005 C1001 1.495 . S
C1005 H1011 0.959 . S
C1005 H1012 0.961 . S
C1005 H1013 0.960 . S
C1006 C1004 1.381 . S
C1006 C1007 1.394 . S
C1006 H1014 0.930 . S
C1007 C1006 1.394 . S
C1007 C1008 1.383 . S
C1007 H1015 0.929 . S
C1008 C1007 1.383 . S
C1008 C1009 1.377 . S
C1009 H993 0.930 . S
C1009 C1008 1.377 . S
C1009 C1010 1.379 . S
C1010 H994 0.931 . S
C1010 C1004 1.383 . S
C1010 C1009 1.379 . S
H1011 C1005 0.959 . S
H1012 C1005 0.961 . S
H1013 C1005 0.960 . S
H1014 C1006 0.930 . S
H1015 C1007 0.929 . S
H1016 C1024 0.929 . S
H1017 C1026 0.930 . S
H1018 C1028 0.930 . S
H1019 C1031 0.929 . S
H1020 C1034 0.930 . S
H1021 C1036 0.960 . S
H1022 C1036 0.960 . S
H1023 C1036 0.960 . S
C1024 H1016 0.929 . S
C1024 C1025 1.377 . S
C1024 C1026 1.384 . S
C1025 C1024 1.377 . S
C1025 C1031 1.390 . S
C1026 H1017 0.930 . S
C1026 C1024 1.384 . S
C1026 C1027 1.372 . S
C1027 C1026 1.372 . S
C1027 C1028 1.400 . S
C1027 C1032 1.490 . S
C1028 H1018 0.930 . S
C1028 C1027 1.400 . S
C1028 C1031 1.386 . S
H1029 C1045 0.930 . S
H1030 C1046 0.931 . S
C1031 H1019 0.929 . S
C1031 C1025 1.390 . S
C1031 C1028 1.386 . S
C1032 C1027 1.490 . S
C1032 C1034 1.395 . S
C1032 C1035 1.403 . S
H1033 C1039 0.930 . S
C1034 H1020 0.930 . S
C1034 C1032 1.395 . S
C1034 C1037 1.403 . S
C1035 C1032 1.403 . S
C1035 C1036 1.524 . S
C1035 C1039 1.400 . S
C1036 H1021 0.960 . S
C1036 H1022 0.960 . S
C1036 H1023 0.960 . S
C1036 C1035 1.524 . S
C1037 C1034 1.403 . S
C1037 C1038 1.392 . S
C1037 C1041 1.495 . S
C1038 C1037 1.392 . S
C1038 C1039 1.385 . S
C1038 C1040 1.478 . S
C1039 H1033 0.930 . S
C1039 C1035 1.400 . S
C1039 C1038 1.385 . S
C1040 C1038 1.478 . S
C1040 C1042 1.381 . S
C1040 C1046 1.383 . S
C1041 C1037 1.495 . S
C1041 H1047 0.959 . S
C1041 H1048 0.961 . S
C1041 H1049 0.960 . S
C1042 C1040 1.381 . S
C1042 C1043 1.394 . S
C1042 H1050 0.930 . S
C1043 C1042 1.394 . S
C1043 C1044 1.383 . S
C1043 H1051 0.929 . S
C1044 C1043 1.383 . S
C1044 C1045 1.377 . S
C1045 H1029 0.930 . S
C1045 C1044 1.377 . S
C1045 C1046 1.379 . S
C1046 H1030 0.931 . S
C1046 C1040 1.383 . S
C1046 C1045 1.379 . S
H1047 C1041 0.959 . S
H1048 C1041 0.961 . S
H1049 C1041 0.960 . S
H1050 C1042 0.930 . S
H1051 C1043 0.929 . S
H1052 C1060 0.929 . S
H1053 C1062 0.930 . S
H1054 C1064 0.930 . S
H1055 C1067 0.929 . S
H1056 C1070 0.930 . S
H1057 C1072 0.960 . S
H1058 C1072 0.960 . S
H1059 C1072 0.960 . S
C1060 H1052 0.929 . S
C1060 C1061 1.377 . S
C1060 C1062 1.384 . S
C1061 C1060 1.377 . S
C1061 C1067 1.390 . S
C1062 H1053 0.930 . S
C1062 C1060 1.384 . S
C1062 C1063 1.372 . S
C1063 C1062 1.372 . S
C1063 C1064 1.400 . S
C1063 C1068 1.490 . S
C1064 H1054 0.930 . S
C1064 C1063 1.400 . S
C1064 C1067 1.386 . S
H1065 C1081 0.930 . S
H1066 C1082 0.931 . S
C1067 H1055 0.929 . S
C1067 C1061 1.390 . S
C1067 C1064 1.386 . S
C1068 C1063 1.490 . S
C1068 C1070 1.395 . S
C1068 C1071 1.403 . S
H1069 C1075 0.930 . S
C1070 H1056 0.930 . S
C1070 C1068 1.395 . S
C1070 C1073 1.403 . S
C1071 C1068 1.403 . S
C1071 C1072 1.524 . S
C1071 C1075 1.400 . S
C1072 H1057 0.960 . S
C1072 H1058 0.960 . S
C1072 H1059 0.960 . S
C1072 C1071 1.524 . S
C1073 C1070 1.403 . S
C1073 C1074 1.392 . S
C1073 C1077 1.495 . S
C1074 C1073 1.392 . S
C1074 C1075 1.385 . S
C1074 C1076 1.478 . S
C1075 H1069 0.930 . S
C1075 C1071 1.400 . S
C1075 C1074 1.385 . S
C1076 C1074 1.478 . S
C1076 C1078 1.381 . S
C1076 C1082 1.383 . S
C1077 C1073 1.495 . S
C1077 H1083 0.959 . S
C1077 H1084 0.961 . S
C1077 H1085 0.960 . S
C1078 C1076 1.381 . S
C1078 C1079 1.394 . S
C1078 H1086 0.930 . S
C1079 C1078 1.394 . S
C1079 C1080 1.383 . S
C1079 H1087 0.929 . S
C1080 C1079 1.383 . S
C1080 C1081 1.377 . S
C1081 H1065 0.930 . S
C1081 C1080 1.377 . S
C1081 C1082 1.379 . S
C1082 H1066 0.931 . S
C1082 C1076 1.383 . S
C1082 C1081 1.379 . S
H1083 C1077 0.959 . S
H1084 C1077 0.961 . S
H1085 C1077 0.960 . S
H1086 C1078 0.930 . S
H1087 C1079 0.929 . S
H1088 C1096 0.929 . S
H1089 C1098 0.930 . S
H1090 C1100 0.930 . S
H1091 C1103 0.929 . S
H1092 C1106 0.930 . S
H1093 C1108 0.960 . S
H1094 C1108 0.960 . S
H1095 C1108 0.960 . S
C1096 H1088 0.929 . S
C1096 C1097 1.377 . S
C1096 C1098 1.384 . S
C1097 C1096 1.377 . S
C1097 C1103 1.390 . S
C1098 H1089 0.930 . S
C1098 C1096 1.384 . S
C1098 C1099 1.372 . S
C1099 C1098 1.372 . S
C1099 C1100 1.400 . S
C1099 C1104 1.490 . S
C1100 H1090 0.930 . S
C1100 C1099 1.400 . S
C1100 C1103 1.386 . S
H1101 C1117 0.930 . S
H1102 C1118 0.931 . S
C1103 H1091 0.929 . S
C1103 C1097 1.390 . S
C1103 C1100 1.386 . S
C1104 C1099 1.490 . S
C1104 C1106 1.395 . S
C1104 C1107 1.403 . S
H1105 C1111 0.930 . S
C1106 H1092 0.930 . S
C1106 C1104 1.395 . S
C1106 C1109 1.403 . S
C1107 C1104 1.403 . S
C1107 C1108 1.524 . S
C1107 C1111 1.400 . S
C1108 H1093 0.960 . S
C1108 H1094 0.960 . S
C1108 H1095 0.960 . S
C1108 C1107 1.524 . S
C1109 C1106 1.403 . S
C1109 C1110 1.392 . S
C1109 C1113 1.495 . S
C1110 C1109 1.392 . S
C1110 C1111 1.385 . S
C1110 C1112 1.478 . S
C1111 H1105 0.930 . S
C1111 C1107 1.400 . S
C1111 C1110 1.385 . S
C1112 C1110 1.478 . S
C1112 C1114 1.381 . S
C1112 C1118 1.383 . S
C1113 C1109 1.495 . S
C1113 H1119 0.959 . S
C1113 H1120 0.961 . S
C1113 H1121 0.960 . S
C1114 C1112 1.381 . S
C1114 C1115 1.394 . S
C1114 H1122 0.930 . S
C1115 C1114 1.394 . S
C1115 C1116 1.383 . S
C1115 H1123 0.929 . S
C1116 C1115 1.383 . S
C1116 C1117 1.377 . S
C1117 H1101 0.930 . S
C1117 C1116 1.377 . S
C1117 C1118 1.379 . S
C1118 H1102 0.931 . S
C1118 C1112 1.383 . S
C1118 C1117 1.379 . S
H1119 C1113 0.959 . S
H1120 C1113 0.961 . S
H1121 C1113 0.960 . S
H1122 C1114 0.930 . S
H1123 C1115 0.929 . S
H1124 C1132 0.929 . S
H1125 C1134 0.930 . S
H1126 C1136 0.930 . S
H1127 C1139 0.929 . S
H1128 C1142 0.930 . S
H1129 C1144 0.960 . S
H1130 C1144 0.960 . S
H1131 C1144 0.960 . S
C1132 H1124 0.929 . S
C1132 C1133 1.377 . S
C1132 C1134 1.384 . S
C1133 C1132 1.377 . S
C1133 C1139 1.390 . S
C1134 H1125 0.930 . S
C1134 C1132 1.384 . S
C1134 C1135 1.372 . S
C1135 C1134 1.372 . S
C1135 C1136 1.400 . S
C1135 C1140 1.490 . S
C1136 H1126 0.930 . S
C1136 C1135 1.400 . S
C1136 C1139 1.386 . S
H1137 C1153 0.930 . S
H1138 C1154 0.931 . S
C1139 H1127 0.929 . S
C1139 C1133 1.390 . S
C1139 C1136 1.386 . S
C1140 C1135 1.490 . S
C1140 C1142 1.395 . S
C1140 C1143 1.403 . S
H1141 C1147 0.930 . S
C1142 H1128 0.930 . S
C1142 C1140 1.395 . S
C1142 C1145 1.403 . S
C1143 C1140 1.403 . S
C1143 C1144 1.524 . S
C1143 C1147 1.400 . S
C1144 H1129 0.960 . S
C1144 H1130 0.960 . S
C1144 H1131 0.960 . S
C1144 C1143 1.524 . S
C1145 C1142 1.403 . S
C1145 C1146 1.392 . S
C1145 C1149 1.495 . S
C1146 C1145 1.392 . S
C1146 C1147 1.385 . S
C1146 C1148 1.478 . S
C1147 H1141 0.930 . S
C1147 C1143 1.400 . S
C1147 C1146 1.385 . S
C1148 C1146 1.478 . S
C1148 C1150 1.381 . S
C1148 C1154 1.383 . S
C1149 C1145 1.495 . S
C1149 H1155 0.959 . S
C1149 H1156 0.961 . S
C1149 H1157 0.960 . S
C1150 C1148 1.381 . S
C1150 C1151 1.394 . S
C1150 H1158 0.930 . S
C1151 C1150 1.394 . S
C1151 C1152 1.383 . S
C1151 H1159 0.929 . S
C1152 C1151 1.383 . S
C1152 C1153 1.377 . S
C1153 H1137 0.930 . S
C1153 C1152 1.377 . S
C1153 C1154 1.379 . S
C1154 H1138 0.931 . S
C1154 C1148 1.383 . S
C1154 C1153 1.379 . S
H1155 C1149 0.959 . S
H1156 C1149 0.961 . S
H1157 C1149 0.960 . S
H1158 C1150 0.930 . S
H1159 C1151 0.929 . S
H1160 C1168 0.929 . S
H1161 C1170 0.930 . S
H1162 C1172 0.930 . S
H1163 C1175 0.929 . S
H1164 C1178 0.930 . S
H1165 C1180 0.960 . S
H1166 C1180 0.960 . S
H1167 C1180 0.960 . S
C1168 H1160 0.929 . S
C1168 C1169 1.377 . S
C1168 C1170 1.384 . S
C1169 C1168 1.377 . S
C1169 C1175 1.390 . S
C1170 H1161 0.930 . S
C1170 C1168 1.384 . S
C1170 C1171 1.372 . S
C1171 C1170 1.372 . S
C1171 C1172 1.400 . S
C1171 C1176 1.490 . S
C1172 H1162 0.930 . S
C1172 C1171 1.400 . S
C1172 C1175 1.386 . S
H1173 C1189 0.930 . S
H1174 C1190 0.931 . S
C1175 H1163 0.929 . S
C1175 C1169 1.390 . S
C1175 C1172 1.386 . S
C1176 C1171 1.490 . S
C1176 C1178 1.395 . S
C1176 C1179 1.403 . S
H1177 C1183 0.930 . S
C1178 H1164 0.930 . S
C1178 C1176 1.395 . S
C1178 C1181 1.403 . S
C1179 C1176 1.403 . S
C1179 C1180 1.524 . S
C1179 C1183 1.400 . S
C1180 H1165 0.960 . S
C1180 H1166 0.960 . S
C1180 H1167 0.960 . S
C1180 C1179 1.524 . S
C1181 C1178 1.403 . S
C1181 C1182 1.392 . S
C1181 C1185 1.495 . S
C1182 C1181 1.392 . S
C1182 C1183 1.385 . S
C1182 C1184 1.478 . S
C1183 H1177 0.930 . S
C1183 C1179 1.400 . S
C1183 C1182 1.385 . S
C1184 C1182 1.478 . S
C1184 C1186 1.381 . S
C1184 C1190 1.383 . S
C1185 C1181 1.495 . S
C1185 H1191 0.959 . S
C1185 H1192 0.961 . S
C1185 H1193 0.960 . S
C1186 C1184 1.381 . S
C1186 C1187 1.394 . S
C1186 H1194 0.930 . S
C1187 C1186 1.394 . S
C1187 C1188 1.383 . S
C1187 H1195 0.929 . S
C1188 C1187 1.383 . S
C1188 C1189 1.377 . S
C1189 H1173 0.930 . S
C1189 C1188 1.377 . S
C1189 C1190 1.379 . S
C1190 H1174 0.931 . S
C1190 C1184 1.383 . S
C1190 C1189 1.379 . S
H1191 C1185 0.959 . S
H1192 C1185 0.961 . S
H1193 C1185 0.960 . S
H1194 C1186 0.930 . S
H1195 C1187 0.929 . S
H1196 C1204 0.929 . S
H1197 C1206 0.930 . S
H1198 C1208 0.930 . S
H1199 C1211 0.929 . S
H1200 C1214 0.930 . S
H1201 C1216 0.960 . S
H1202 C1216 0.960 . S
H1203 C1216 0.960 . S
C1204 H1196 0.929 . S
C1204 C1205 1.377 . S
C1204 C1206 1.384 . S
C1205 C1204 1.377 . S
C1205 C1211 1.390 . S
C1206 H1197 0.930 . S
C1206 C1204 1.384 . S
C1206 C1207 1.372 . S
C1207 C1206 1.372 . S
C1207 C1208 1.400 . S
C1207 C1212 1.490 . S
C1208 H1198 0.930 . S
C1208 C1207 1.400 . S
C1208 C1211 1.386 . S
H1209 C1225 0.930 . S
H1210 C1226 0.931 . S
C1211 H1199 0.929 . S
C1211 C1205 1.390 . S
C1211 C1208 1.386 . S
C1212 C1207 1.490 . S
C1212 C1214 1.395 . S
C1212 C1215 1.403 . S
H1213 C1219 0.930 . S
C1214 H1200 0.930 . S
C1214 C1212 1.395 . S
C1214 C1217 1.403 . S
C1215 C1212 1.403 . S
C1215 C1216 1.524 . S
C1215 C1219 1.400 . S
C1216 H1201 0.960 . S
C1216 H1202 0.960 . S
C1216 H1203 0.960 . S
C1216 C1215 1.524 . S
C1217 C1214 1.403 . S
C1217 C1218 1.392 . S
C1217 C1221 1.495 . S
C1218 C1217 1.392 . S
C1218 C1219 1.385 . S
C1218 C1220 1.478 . S
C1219 H1213 0.930 . S
C1219 C1215 1.400 . S
C1219 C1218 1.385 . S
C1220 C1218 1.478 . S
C1220 C1222 1.381 . S
C1220 C1226 1.383 . S
C1221 C1217 1.495 . S
C1221 H1227 0.959 . S
C1221 H1228 0.961 . S
C1221 H1229 0.960 . S
C1222 C1220 1.381 . S
C1222 C1223 1.394 . S
C1222 H1230 0.930 . S
C1223 C1222 1.394 . S
C1223 C1224 1.383 . S
C1223 H1231 0.929 . S
C1224 C1223 1.383 . S
C1224 C1225 1.377 . S
C1225 H1209 0.930 . S
C1225 C1224 1.377 . S
C1225 C1226 1.379 . S
C1226 H1210 0.931 . S
C1226 C1220 1.383 . S
C1226 C1225 1.379 . S
H1227 C1221 0.959 . S
H1228 C1221 0.961 . S
H1229 C1221 0.960 . S
H1230 C1222 0.930 . S
H1231 C1223 0.929 . S
H1232 C1240 0.929 . S
H1233 C1242 0.930 . S
H1234 C1244 0.930 . S
H1235 C1247 0.929 . S
H1236 C1250 0.930 . S
H1237 C1252 0.960 . S
H1238 C1252 0.960 . S
H1239 C1252 0.960 . S
C1240 H1232 0.929 . S
C1240 C1241 1.377 . S
C1240 C1242 1.384 . S
C1241 C1240 1.377 . S
C1241 C1247 1.390 . S
C1242 H1233 0.930 . S
C1242 C1240 1.384 . S
C1242 C1243 1.372 . S
C1243 C1242 1.372 . S
C1243 C1244 1.400 . S
C1243 C1248 1.490 . S
C1244 H1234 0.930 . S
C1244 C1243 1.400 . S
C1244 C1247 1.386 . S
H1245 C1261 0.930 . S
H1246 C1262 0.931 . S
C1247 H1235 0.929 . S
C1247 C1241 1.390 . S
C1247 C1244 1.386 . S
C1248 C1243 1.490 . S
C1248 C1250 1.395 . S
C1248 C1251 1.403 . S
H1249 C1255 0.930 . S
C1250 H1236 0.930 . S
C1250 C1248 1.395 . S
C1250 C1253 1.403 . S
C1251 C1248 1.403 . S
C1251 C1252 1.524 . S
C1251 C1255 1.400 . S
C1252 H1237 0.960 . S
C1252 H1238 0.960 . S
C1252 H1239 0.960 . S
C1252 C1251 1.524 . S
C1253 C1250 1.403 . S
C1253 C1254 1.392 . S
C1253 C1257 1.495 . S
C1254 C1253 1.392 . S
C1254 C1255 1.385 . S
C1254 C1256 1.478 . S
C1255 H1249 0.930 . S
C1255 C1251 1.400 . S
C1255 C1254 1.385 . S
C1256 C1254 1.478 . S
C1256 C1258 1.381 . S
C1256 C1262 1.383 . S
C1257 C1253 1.495 . S
C1257 H1263 0.959 . S
C1257 H1264 0.961 . S
C1257 H1265 0.960 . S
C1258 C1256 1.381 . S
C1258 C1259 1.394 . S
C1258 H1266 0.930 . S
C1259 C1258 1.394 . S
C1259 C1260 1.383 . S
C1259 H1267 0.929 . S
C1260 C1259 1.383 . S
C1260 C1261 1.377 . S
C1261 H1245 0.930 . S
C1261 C1260 1.377 . S
C1261 C1262 1.379 . S
C1262 H1246 0.931 . S
C1262 C1256 1.383 . S
C1262 C1261 1.379 . S
H1263 C1257 0.959 . S
H1264 C1257 0.961 . S
H1265 C1257 0.960 . S
H1266 C1258 0.930 . S
H1267 C1259 0.929 . S
H1268 C1276 0.929 . S
H1269 C1278 0.930 . S
H1270 C1280 0.930 . S
H1271 C1283 0.929 . S
H1272 C1286 0.930 . S
H1273 C1288 0.960 . S
H1274 C1288 0.960 . S
H1275 C1288 0.960 . S
C1276 H1268 0.929 . S
C1276 C1277 1.377 . S
C1276 C1278 1.384 . S
C1277 C1276 1.377 . S
C1277 C1283 1.390 . S
C1278 H1269 0.930 . S
C1278 C1276 1.384 . S
C1278 C1279 1.372 . S
C1279 C1278 1.372 . S
C1279 C1280 1.400 . S
C1279 C1284 1.490 . S
C1280 H1270 0.930 . S
C1280 C1279 1.400 . S
C1280 C1283 1.386 . S
H1281 C1297 0.930 . S
H1282 C1298 0.931 . S
C1283 H1271 0.929 . S
C1283 C1277 1.390 . S
C1283 C1280 1.386 . S
C1284 C1279 1.490 . S
C1284 C1286 1.395 . S
C1284 C1287 1.403 . S
H1285 C1291 0.930 . S
C1286 H1272 0.930 . S
C1286 C1284 1.395 . S
C1286 C1289 1.403 . S
C1287 C1284 1.403 . S
C1287 C1288 1.524 . S
C1287 C1291 1.400 . S
C1288 H1273 0.960 . S
C1288 H1274 0.960 . S
C1288 H1275 0.960 . S
C1288 C1287 1.524 . S
C1289 C1286 1.403 . S
C1289 C1290 1.392 . S
C1289 C1293 1.495 . S
C1290 C1289 1.392 . S
C1290 C1291 1.385 . S
C1290 C1292 1.478 . S
C1291 H1285 0.930 . S
C1291 C1287 1.400 . S
C1291 C1290 1.385 . S
C1292 C1290 1.478 . S
C1292 C1294 1.381 . S
C1292 C1298 1.383 . S
C1293 C1289 1.495 . S
C1293 H1299 0.959 . S
C1293 H1300 0.961 . S
C1293 H1301 0.960 . S
C1294 C1292 1.381 . S
C1294 C1295 1.394 . S
C1294 H1302 0.930 . S
C1295 C1294 1.394 . S
C1295 C1296 1.383 . S
C1295 H1303 0.929 . S
C1296 C1295 1.383 . S
C1296 C1297 1.377 . S
C1297 H1281 0.930 . S
C1297 C1296 1.377 . S
C1297 C1298 1.379 . S
C1298 H1282 0.931 . S
C1298 C1292 1.383 . S
C1298 C1297 1.379 . S
H1299 C1293 0.959 . S
H1300 C1293 0.961 . S
H1301 C1293 0.960 . S
H1302 C1294 0.930 . S
H1303 C1295 0.929 . S
H1304 C1312 0.929 . S
H1305 C1314 0.930 . S
H1306 C1316 0.930 . S
H1307 C1319 0.929 . S
H1308 C1322 0.930 . S
H1309 C1324 0.960 . S
H1310 C1324 0.960 . S
H1311 C1324 0.960 . S
C1312 H1304 0.929 . S
C1312 C1313 1.377 . S
C1312 C1314 1.384 . S
C1313 C1312 1.377 . S
C1313 C1319 1.390 . S
C1314 H1305 0.930 . S
C1314 C1312 1.384 . S
C1314 C1315 1.372 . S
C1315 C1314 1.372 . S
C1315 C1316 1.400 . S
C1315 C1320 1.490 . S
C1316 H1306 0.930 . S
C1316 C1315 1.400 . S
C1316 C1319 1.386 . S
H1317 C1333 0.930 1_554 S
H1318 C1334 0.931 . S
C1319 H1307 0.929 . S
C1319 C1313 1.390 . S
C1319 C1316 1.386 . S
C1320 C1315 1.490 . S
C1320 C1322 1.395 . S
C1320 C1323 1.403 . S
H1321 C1327 0.930 . S
C1322 H1308 0.930 . S
C1322 C1320 1.395 . S
C1322 C1325 1.403 . S
C1323 C1320 1.403 . S
C1323 C1324 1.524 . S
C1323 C1327 1.400 . S
C1324 H1309 0.960 . S
C1324 H1310 0.960 . S
C1324 H1311 0.960 . S
C1324 C1323 1.524 . S
C1325 C1322 1.403 . S
C1325 C1326 1.392 . S
C1325 C1329 1.495 . S
C1326 C1325 1.392 . S
C1326 C1327 1.385 . S
C1326 C1328 1.478 . S
C1327 H1321 0.930 . S
C1327 C1323 1.400 . S
C1327 C1326 1.385 . S
C1328 C1326 1.478 . S
C1328 C1330 1.381 . S
C1328 C1334 1.383 . S
C1329 C1325 1.495 . S
C1329 H1335 0.959 . S
C1329 H1336 0.961 . S
C1329 H1337 0.960 . S
C1330 C1328 1.381 . S
C1330 C1331 1.394 . S
C1330 H1338 0.930 . S
C1331 C1330 1.394 . S
C1331 C1332 1.383 . S
C1331 H1339 0.929 . S
C1332 C1331 1.383 . S
C1332 C1333 1.377 . S
C1333 H1317 0.930 1_556 S
C1333 C1332 1.377 . S
C1333 C1334 1.379 . S
C1334 H1318 0.931 . S
C1334 C1328 1.383 . S
C1334 C1333 1.379 . S
H1335 C1329 0.959 . S
H1336 C1329 0.961 . S
H1337 C1329 0.960 . S
H1338 C1330 0.930 . S
H1339 C1331 0.929 . S
H1340 C1348 0.929 . S
H1341 C1350 0.930 . S
H1342 C1352 0.930 . S
H1343 C1355 0.929 . S
H1344 C1358 0.930 . S
H1345 C1360 0.960 . S
H1346 C1360 0.960 . S
H1347 C1360 0.960 . S
C1348 H1340 0.929 . S
C1348 C1349 1.377 . S
C1348 C1350 1.384 . S
C1349 C1348 1.377 . S
C1349 C1355 1.390 . S
C1350 H1341 0.930 . S
C1350 C1348 1.384 . S
C1350 C1351 1.372 . S
C1351 C1350 1.372 . S
C1351 C1352 1.400 . S
C1351 C1356 1.490 . S
C1352 H1342 0.930 . S
C1352 C1351 1.400 . S
C1352 C1355 1.386 . S
H1353 C1369 0.930 . S
H1354 C1370 0.931 . S
C1355 H1343 0.929 . S
C1355 C1349 1.390 . S
C1355 C1352 1.386 . S
C1356 C1351 1.490 . S
C1356 C1358 1.395 . S
C1356 C1359 1.403 . S
H1357 C1363 0.930 . S
C1358 H1344 0.930 . S
C1358 C1356 1.395 . S
C1358 C1361 1.403 . S
C1359 C1356 1.403 . S
C1359 C1360 1.524 . S
C1359 C1363 1.400 . S
C1360 H1345 0.960 . S
C1360 H1346 0.960 . S
C1360 H1347 0.960 . S
C1360 C1359 1.524 . S
C1361 C1358 1.403 . S
C1361 C1362 1.392 . S
C1361 C1365 1.495 . S
C1362 C1361 1.392 . S
C1362 C1363 1.385 . S
C1362 C1364 1.478 . S
C1363 H1357 0.930 . S
C1363 C1359 1.400 . S
C1363 C1362 1.385 . S
C1364 C1362 1.478 . S
C1364 C1366 1.381 . S
C1364 C1370 1.383 . S
C1365 C1361 1.495 . S
C1365 H1371 0.959 . S
C1365 H1372 0.961 . S
C1365 H1373 0.960 . S
C1366 C1364 1.381 . S
C1366 C1367 1.394 . S
C1366 H1374 0.930 . S
C1367 C1366 1.394 . S
C1367 C1368 1.383 . S
C1367 H1375 0.929 . S
C1368 C1367 1.383 . S
C1368 C1369 1.377 . S
C1369 H1353 0.930 . S
C1369 C1368 1.377 . S
C1369 C1370 1.379 . S
C1370 H1354 0.931 . S
C1370 C1364 1.383 . S
C1370 C1369 1.379 . S
H1371 C1365 0.959 . S
H1372 C1365 0.961 . S
H1373 C1365 0.960 . S
H1374 C1366 0.930 . S
H1375 C1367 0.929 . S
C233 C13 0.622 . S
C252 C68 0.612 . S
C269 C27 0.627 . S
C288 C71 0.616 . S
C305 C96 0.621 . S
C324 C28 0.628 . S
C341 C55 0.627 . S
C360 C110 0.625 . S
C377 C69 0.621 . S
C396 C12 0.618 . S
C413 C140 0.624 . S
C432 C124 0.631 . S
C449 C97 0.621 . S
C468 C29 0.607 . S
C485 C138 0.627 . S
C504 C166 0.640 . S
C521 C180 0.621 . S
C540 C208 0.641 . S
C557 C125 0.621 . S
C576 C141 0.625 . S
C593 C182 0.627 . S
C612 C222 0.608 . S
C629 C167 0.624 . S
C648 C139 0.609 . S
C665 C209 0.622 . S
C684 C181 0.617 . S
C701 C26 0.623 . S
C720 C70 0.624 . S
C737 C183 0.622 . S
C756 C223 0.623 . S
C773 C111 0.627 . S
C792 C54 0.640 . S
C809 C0 1.564 . S
C828 C99 1.546 . S
C845 C57 1.565 . S
C864 C14 1.569 . S
C881 C82 1.565 . S
C900 C41 1.557 . S
C917 C42 1.566 . S
C936 C85 1.563 . S
C953 C1 1.563 . S
C972 C155 1.562 . S
C989 C113 1.564 . S
C1008 C56 1.553 . S
C1025 C153 1.566 . S
C1044 C40 1.556 . S
C1061 C127 1.565 . S
C1080 C84 1.571 . S
C1097 C169 1.566 . S
C1116 C154 1.564 . S
C1133 C197 1.563 . S
C1152 C112 1.557 . S
C1169 C152 1.566 . S
C1188 C195 1.571 . S
C1205 C211 1.563 . S
C1224 C126 1.563 . S
C1241 C98 1.563 . S
C1260 C168 1.555 . S
C1277 C196 1.563 . S
C1296 C15 1.553 . S
C1313 C83 1.566 . S
C1332 C194 1.559 . S
C1349 C210 1.563 . S
C1368 C43 1.554 . S
