# Generated by pormake.
# Topology wmg, (6)-cn, num edge types: 1
# Building blocks:
#     Node 0, Type 0, BuildingBlock: OJICUG_clean_sbu_0, # of connection points: 6
#     Node 1, Type 0, BuildingBlock: OJICUG_clean_sbu_0, # of connection points: 6
#     Node 2, Type 0, BuildingBlock: OJICUG_clean_sbu_0, # of connection points: 6
#     Node 3, Type 0, BuildingBlock: OJICUG_clean_sbu_0, # of connection points: 6
#     Node 4, Type 0, BuildingBlock: OJICUG_clean_sbu_0, # of connection points: 6
#     Node 5, Type 0, BuildingBlock: OJICUG_clean_sbu_0, # of connection points: 6
#     Node 6, Type 0, BuildingBlock: OJICUG_clean_sbu_0, # of connection points: 6
#     Node 7, Type 0, BuildingBlock: OJICUG_clean_sbu_0, # of connection points: 6
#     Node 8, Type 0, BuildingBlock: OJICUG_clean_sbu_0, # of connection points: 6
#     Node 9, Type 0, BuildingBlock: OJICUG_clean_sbu_0, # of connection points: 6
#     Node 10, Type 0, BuildingBlock: OJICUG_clean_sbu_0, # of connection points: 6
#     Node 11, Type 0, BuildingBlock: OJICUG_clean_sbu_0, # of connection points: 6
#     Node 12, Type 0, BuildingBlock: OJICUG_clean_sbu_0, # of connection points: 6
#     Node 13, Type 0, BuildingBlock: OJICUG_clean_sbu_0, # of connection points: 6
#     Node 14, Type 0, BuildingBlock: OJICUG_clean_sbu_0, # of connection points: 6
#     Node 15, Type 0, BuildingBlock: OJICUG_clean_sbu_0, # of connection points: 6
#     Node 16, Type 0, BuildingBlock: OJICUG_clean_sbu_0, # of connection points: 6
#     Node 17, Type 0, BuildingBlock: OJICUG_clean_sbu_0, # of connection points: 6
#     Edge 18, Type (0, 0), BuildingBlock: XIVTED_clean_linker_0, # of connection points: 2
#     Edge 19, Type (0, 0), BuildingBlock: XIVTED_clean_linker_0, # of connection points: 2
#     Edge 20, Type (0, 0), BuildingBlock: XIVTED_clean_linker_0, # of connection points: 2
#     Edge 21, Type (0, 0), BuildingBlock: XIVTED_clean_linker_0, # of connection points: 2
#     Edge 22, Type (0, 0), BuildingBlock: XIVTED_clean_linker_0, # of connection points: 2
#     Edge 23, Type (0, 0), BuildingBlock: XIVTED_clean_linker_0, # of connection points: 2
#     Edge 24, Type (0, 0), BuildingBlock: XIVTED_clean_linker_0, # of connection points: 2
#     Edge 25, Type (0, 0), BuildingBlock: XIVTED_clean_linker_0, # of connection points: 2
#     Edge 26, Type (0, 0), BuildingBlock: XIVTED_clean_linker_0, # of connection points: 2
#     Edge 27, Type (0, 0), BuildingBlock: XIVTED_clean_linker_0, # of connection points: 2
#     Edge 28, Type (0, 0), BuildingBlock: XIVTED_clean_linker_0, # of connection points: 2
#     Edge 29, Type (0, 0), BuildingBlock: XIVTED_clean_linker_0, # of connection points: 2
#     Edge 30, Type (0, 0), BuildingBlock: XIVTED_clean_linker_0, # of connection points: 2
#     Edge 31, Type (0, 0), BuildingBlock: XIVTED_clean_linker_0, # of connection points: 2
#     Edge 32, Type (0, 0), BuildingBlock: XIVTED_clean_linker_0, # of connection points: 2
#     Edge 33, Type (0, 0), BuildingBlock: XIVTED_clean_linker_0, # of connection points: 2
#     Edge 34, Type (0, 0), BuildingBlock: XIVTED_clean_linker_0, # of connection points: 2
#     Edge 35, Type (0, 0), BuildingBlock: XIVTED_clean_linker_0, # of connection points: 2
#     Edge 36, Type (0, 0), BuildingBlock: XIVTED_clean_linker_0, # of connection points: 2
#     Edge 37, Type (0, 0), BuildingBlock: XIVTED_clean_linker_0, # of connection points: 2
#     Edge 38, Type (0, 0), BuildingBlock: XIVTED_clean_linker_0, # of connection points: 2
#     Edge 39, Type (0, 0), BuildingBlock: XIVTED_clean_linker_0, # of connection points: 2
#     Edge 40, Type (0, 0), BuildingBlock: XIVTED_clean_linker_0, # of connection points: 2
#     Edge 41, Type (0, 0), BuildingBlock: XIVTED_clean_linker_0, # of connection points: 2
#     Edge 42, Type (0, 0), BuildingBlock: XIVTED_clean_linker_0, # of connection points: 2
#     Edge 43, Type (0, 0), BuildingBlock: XIVTED_clean_linker_0, # of connection points: 2
#     Edge 44, Type (0, 0), BuildingBlock: XIVTED_clean_linker_0, # of connection points: 2
#     Edge 45, Type (0, 0), BuildingBlock: XIVTED_clean_linker_0, # of connection points: 2
#     Edge 46, Type (0, 0), BuildingBlock: XIVTED_clean_linker_0, # of connection points: 2
#     Edge 47, Type (0, 0), BuildingBlock: XIVTED_clean_linker_0, # of connection points: 2
#     Edge 48, Type (0, 0), BuildingBlock: XIVTED_clean_linker_0, # of connection points: 2
#     Edge 49, Type (0, 0), BuildingBlock: XIVTED_clean_linker_0, # of connection points: 2
#     Edge 50, Type (0, 0), BuildingBlock: XIVTED_clean_linker_0, # of connection points: 2
#     Edge 51, Type (0, 0), BuildingBlock: XIVTED_clean_linker_0, # of connection points: 2
#     Edge 52, Type (0, 0), BuildingBlock: XIVTED_clean_linker_0, # of connection points: 2
#     Edge 53, Type (0, 0), BuildingBlock: XIVTED_clean_linker_0, # of connection points: 2
#     Edge 54, Type (0, 0), BuildingBlock: XIVTED_clean_linker_0, # of connection points: 2
#     Edge 55, Type (0, 0), BuildingBlock: XIVTED_clean_linker_0, # of connection points: 2
#     Edge 56, Type (0, 0), BuildingBlock: XIVTED_clean_linker_0, # of connection points: 2
#     Edge 57, Type (0, 0), BuildingBlock: XIVTED_clean_linker_0, # of connection points: 2
#     Edge 58, Type (0, 0), BuildingBlock: XIVTED_clean_linker_0, # of connection points: 2
#     Edge 59, Type (0, 0), BuildingBlock: XIVTED_clean_linker_0, # of connection points: 2
#     Edge 60, Type (0, 0), BuildingBlock: XIVTED_clean_linker_0, # of connection points: 2
#     Edge 61, Type (0, 0), BuildingBlock: XIVTED_clean_linker_0, # of connection points: 2
#     Edge 62, Type (0, 0), BuildingBlock: XIVTED_clean_linker_0, # of connection points: 2
#     Edge 63, Type (0, 0), BuildingBlock: XIVTED_clean_linker_0, # of connection points: 2
#     Edge 64, Type (0, 0), BuildingBlock: XIVTED_clean_linker_0, # of connection points: 2
#     Edge 65, Type (0, 0), BuildingBlock: XIVTED_clean_linker_0, # of connection points: 2
#     Edge 66, Type (0, 0), BuildingBlock: XIVTED_clean_linker_0, # of connection points: 2
#     Edge 67, Type (0, 0), BuildingBlock: XIVTED_clean_linker_0, # of connection points: 2
#     Edge 68, Type (0, 0), BuildingBlock: XIVTED_clean_linker_0, # of connection points: 2
#     Edge 69, Type (0, 0), BuildingBlock: XIVTED_clean_linker_0, # of connection points: 2
#     Edge 70, Type (0, 0), BuildingBlock: XIVTED_clean_linker_0, # of connection points: 2
#     Edge 71, Type (0, 0), BuildingBlock: XIVTED_clean_linker_0, # of connection points: 2
# Relax obj value: 0.253
# Max RMSD: 0.274
# Mean RMSD: 0.274
data_MOF--net-wmg--node1-OJICUG_clean_sbu_0--edge1-XIVTED_clean_linker_0
_symmetry_space_group_name_H-M    P1
_symmetry_Int_Tables_number       1
_symmetry_cell_setting            triclinic
loop_
_symmetry_equiv_pos_as_xyz
'x, y, z'
_cell_length_a     65.016021
_cell_length_b     65.048343
_cell_length_c     24.490371
_cell_angle_alpha  90.008837
_cell_angle_beta   89.969825
_cell_angle_gamma 119.95443
loop_
_atom_site_label
_atom_site_type_symbol
_atom_site_fract_x
_atom_site_fract_y
_atom_site_fract_z
_atom_type_partial_charge
Sc0 Sc 0.17957 0.24648 0.02232 0.0
Sc1 Sc 0.19489 0.28973 0.12065 0.0
Sc2 Sc 0.1652 0.23066 0.15686 0.0
O3 O 0.17993 0.25582 0.09945 0.0
C4 C 0.1271 0.21244 0.06715 0.0
C5 C 0.16854 0.28758 0.00913 0.0
C6 C 0.15624 0.27112 0.20549 0.0
C7 C 0.23117 0.29273 0.03306 0.0
C8 C 0.18444 0.20687 0.07255 0.0
C9 C 0.2144 0.2661 0.20286 0.0
O10 O 0.14336 0.21692 0.03185 0.0
O11 O 0.18135 0.29917 0.04976 0.0
O12 O 0.15854 0.253 0.21358 0.0
O13 O 0.21533 0.27552 0.00518 0.0
O14 O 0.16995 0.20445 0.11047 0.0
O15 O 0.21041 0.2831 0.19293 0.0
O16 O 0.19497 0.22571 0.04477 0.0
O17 O 0.22695 0.29853 0.07936 0.0
O18 O 0.19991 0.2446 0.19007 0.0
O19 O 0.16437 0.26697 0.99646 0.0
O20 O 0.13164 0.21834 0.11738 0.0
O21 O 0.16337 0.28291 0.16182 0.0
Sc22 Sc 0.73932 0.92983 0.00413 0.0
Sc23 Sc 0.69277 0.90691 0.09481 0.0
Sc24 Sc 0.75033 0.93205 0.14203 0.0
O25 O 0.72741 0.92262 0.08021 0.0
C26 C 0.77093 0.9111 0.06023 0.0
C27 C 0.69589 0.88049 0.98748 0.0
C28 C 0.70564 0.88302 0.18416 0.0
C29 C 0.69652 0.94061 0.00218 0.0
C30 C 0.77809 0.97462 0.05707 0.0
C31 C 0.7154 0.94809 0.18088 0.0
O32 O 0.76777 0.92257 0.02201 0.0
O33 O 0.68379 0.88469 0.02219 0.0
O34 O 0.72495 0.9024 0.19385 0.0
O35 O 0.71182 0.93733 0.97708 0.0
O36 O 0.77852 0.96302 0.09876 0.0
O37 O 0.69805 0.92783 0.16797 0.0
O38 O 0.76077 0.96611 0.02417 0.0
O39 O 0.69013 0.93372 0.05081 0.0
O40 O 0.73691 0.95407 0.1712 0.0
O41 O 0.71811 0.89371 0.98194 0.0
O42 O 0.76324 0.91009 0.10868 0.0
O43 O 0.69422 0.87978 0.14008 0.0
Sc44 Sc 0.05347 0.80458 -0.00189 0.0
Sc45 Sc 0.07552 0.78058 0.0898 0.0
Sc46 Sc 0.05163 0.81439 0.13561 0.0
O47 O 0.06053 0.80013 0.07443 0.0
C48 C 0.07254 0.85537 0.05252 0.0
C49 C 0.10216 0.80898 0.98159 0.0
C50 C 0.10045 0.81813 0.17711 0.0
C51 C 0.0413 0.75067 -0.00173 0.0
C52 C 0.00904 0.79963 0.05094 0.0
C53 C 0.03494 0.76372 0.17745 0.0
O54 O 0.06139 0.84056 0.01442 0.0
O55 O 0.09751 0.79268 0.01657 0.0
O56 O 0.08135 0.81861 0.18688 0.0
O57 O 0.04523 0.76929 0.97246 0.0
O58 O 0.02078 0.81174 0.09238 0.0
O59 O 0.05485 0.76589 0.16373 0.0
O60 O 0.01731 0.79056 0.01812 0.0
O61 O 0.04802 0.75123 0.04708 0.0
O62 O 0.02929 0.77939 0.16668 0.0
O63 O 0.08951 0.81864 0.97612 0.0
O64 O 0.07368 0.84895 0.10113 0.0
O65 O 0.10322 0.80916 0.13371 0.0
Sc66 Sc 0.81009 0.75188 0.85002 0.0
Sc67 Sc 0.77745 0.69468 0.89948 0.0
Sc68 Sc 0.80264 0.74171 0.98839 0.0
O69 O 0.79698 0.72936 0.91261 0.0
C70 C 0.85232 0.77302 0.92953 0.0
C71 C 0.81365 0.70667 0.80848 0.0
C72 C 0.80838 0.69822 0.0046 0.0
C73 C 0.75872 0.71725 0.81295 0.0
C74 C 0.79609 0.78014 0.93564 0.0
C75 C 0.74906 0.6995 0.99406 0.0
O76 O 0.84519 0.76482 0.88168 0.0
O77 O 0.80519 0.69521 0.85243 0.0
O78 O 0.81777 0.72053 0.00915 0.0
O79 O 0.77461 0.73868 0.82176 0.0
O80 O 0.78761 0.76306 0.9692 0.0
O81 O 0.74881 0.693 0.9452 0.0
O82 O 0.80771 0.78028 0.89335 0.0
O83 O 0.761 0.69965 0.82731 0.0
O84 O 0.76808 0.71451 0.01806 0.0
O85 O 0.81392 0.72613 0.79856 0.0
O86 O 0.83805 0.77009 0.96842 0.0
O87 O 0.79143 0.68601 0.97145 0.0
Sc88 Sc 0.22868 0.05526 0.84907 0.0
Sc89 Sc 0.28623 0.07793 0.89529 0.0
Sc90 Sc 0.24038 0.05909 0.98666 0.0
O91 O 0.25183 0.06421 0.91014 0.0
C92 C 0.20973 0.07825 0.92926 0.0
C93 C 0.27442 0.1025 0.80424 0.0
C94 C 0.28486 0.10772 -0.00232 0.0
C95 C 0.26124 0.03615 0.80982 0.0
C96 C 0.2006 0.01422 0.9378 0.0
C97 C 0.28188 0.04653 0.99262 0.0
O98 O 0.21755 0.07893 0.88117 0.0
O99 O 0.28647 0.10515 0.847 0.0
O100 O 0.26252 0.09563 0.00323 0.0
O101 O 0.24018 0.03173 0.81953 0.0
O102 O 0.21801 0.02264 0.97051 0.0
O103 O 0.28729 0.05101 0.94265 0.0
O104 O 0.2004 0.02538 0.89494 0.0
O105 O 0.27962 0.05534 0.82458 0.0
O106 O 0.26757 0.05167 0.0163 0.0
O107 O 0.25436 0.08384 0.79567 0.0
O108 O 0.21208 0.06632 0.96754 0.0
O109 O 0.29639 0.10164 0.96558 0.0
Sc110 Sc 0.92936 0.169 0.843 0.0
Sc111 Sc 0.90027 0.1989 0.8808 0.0
Sc112 Sc 0.92849 0.18336 0.9781 0.0
O113 O 0.91913 0.18367 0.9012 0.0
C114 C 0.90969 0.13076 0.93273 0.0
C115 C 0.87957 0.16026 0.79615 0.0
C116 C 0.87669 0.17325 0.99363 0.0
C117 C 0.94293 0.21826 0.79764 0.0
C118 C 0.97276 0.18776 0.92623 0.0
C119 C 0.93473 0.23528 0.9667 0.0
O120 O 0.90851 0.13545 0.88251 0.0
O121 O 0.87516 0.16751 0.84002 0.0
O122 O 0.89304 0.16885 0.0056 0.0
O123 O 0.94996 0.20372 0.8098 0.0
O124 O 0.96449 0.19813 0.95481 0.0
O125 O 0.92409 0.23087 0.9212 0.0
O126 O 0.96068 0.17363 0.88784 0.0
O127 O 0.92189 0.21412 0.80769 0.0
O128 O 0.93603 0.21944 0.99484 0.0
O129 O 0.89989 0.1623 0.78761 0.0
O130 O 0.92102 0.14687 0.9686 0.0
O131 O 0.8777 0.18583 0.95266 0.0
Sc132 Sc 0.84709 0.5783 0.33233 0.0
Sc133 Sc 0.87268 0.62477 0.42272 0.0
Sc134 Sc 0.83861 0.5674 0.47031 0.0
O135 O 0.85266 0.59021 0.40855 0.0
C136 C 0.79697 0.54755 0.38895 0.0
C137 C 0.84247 0.62247 0.31732 0.0
C138 C 0.83576 0.61295 0.51225 0.0
C139 C 0.90101 0.62 0.32831 0.0
C140 C 0.85276 0.53917 0.38455 0.0
C141 C 0.8897 0.601 0.51085 0.0
O142 O 0.81139 0.55014 0.35071 0.0
O143 O 0.85951 0.6343 0.35055 0.0
O144 O 0.83479 0.59313 0.5218 0.0
O145 O 0.88195 0.60538 0.30384 0.0
O146 O 0.84106 0.53905 0.4267 0.0
O147 O 0.88839 0.61901 0.49524 0.0
O148 O 0.86134 0.55622 0.35089 0.0
O149 O 0.90125 0.62599 0.37761 0.0
O150 O 0.87361 0.57976 0.50094 0.0
O151 O 0.83262 0.60014 0.31245 0.0
O152 O 0.80391 0.55537 0.4371 0.0
O153 O 0.84502 0.62474 0.46909 0.0
Sc154 Sc 0.40352 0.26624 0.33153 0.0
Sc155 Sc 0.35655 0.24055 0.42107 0.0
Sc156 Sc 0.41388 0.26643 0.46934 0.0
O157 O 0.39128 0.25737 0.40697 0.0
C158 C 0.43543 0.24711 0.38579 0.0
C159 C 0.36069 0.21674 0.31055 0.0
C160 C 0.36989 0.2163 0.50757 0.0
C161 C 0.36027 0.27636 0.33333 0.0
C162 C 0.44178 0.3102 0.38816 0.0
C163 C 0.37779 0.2805 0.50949 0.0
O164 O 0.43183 0.25847 0.34791 0.0
O165 O 0.34819 0.21975 0.34638 0.0
O166 O 0.38855 0.23599 0.51897 0.0
O167 O 0.37602 0.27422 0.307 0.0
O168 O 0.44212 0.29795 0.42849 0.0
O169 O 0.36111 0.25988 0.49654 0.0
O170 O 0.42459 0.30217 0.35504 0.0
O171 O 0.35327 0.26769 0.38057 0.0
O172 O 0.39952 0.28749 0.49952 0.0
O173 O 0.38279 0.23066 0.30523 0.0
O174 O 0.42768 0.2456 0.4344 0.0
O175 O 0.35895 0.21318 0.46282 0.0
Sc176 Sc 0.7197 0.13694 0.32399 0.0
Sc177 Sc 0.7388 0.10911 0.41272 0.0
Sc178 Sc 0.71848 0.14545 0.46239 0.0
O179 O 0.72591 0.13069 0.39977 0.0
C180 C 0.74149 0.18723 0.38154 0.0
C181 C 0.76691 0.13841 0.30646 0.0
C182 C 0.7657 0.1452 0.50237 0.0
C183 C 0.70442 0.0822 0.31917 0.0
C184 C 0.67634 0.13393 0.37802 0.0
C185 C 0.69871 0.09388 0.50199 0.0
O186 O 0.7294 0.17322 0.34298 0.0
O187 O 0.76112 0.12125 0.33973 0.0
O188 O 0.74756 0.1474 0.51247 0.0
O189 O 0.70981 0.10157 0.29491 0.0
O190 O 0.68832 0.14493 0.42031 0.0
O191 O 0.71748 0.09416 0.48578 0.0
O192 O 0.68382 0.12465 0.34365 0.0
O193 O 0.71023 0.08155 0.36821 0.0
O194 O 0.69464 0.11077 0.49281 0.0
O195 O 0.75553 0.14947 0.30288 0.0
O196 O 0.74216 0.17988 0.4294 0.0
O197 O 0.7675 0.1357 0.45877 0.0
Sc198 Sc 0.47468 0.08565 0.19378 0.0
Sc199 Sc 0.43944 0.02902 0.24496 0.0
Sc200 Sc 0.4669 0.07652 0.33284 0.0
O201 O 0.4606 0.06368 0.25721 0.0
C202 C 0.51706 0.10556 0.27364 0.0
C203 C 0.47544 0.03859 0.15441 0.0
C204 C 0.46904 0.03099 0.35146 0.0
C205 C 0.42296 0.05273 0.15559 0.0
C206 C 0.46334 0.11657 0.27765 0.0
C207 C 0.41227 0.03672 0.33841 0.0
O208 O 0.50959 0.09759 0.22579 0.0
O209 O 0.46609 0.02722 0.19805 0.0
O210 O 0.47953 0.05339 0.3554 0.0
O211 O 0.43958 0.07387 0.16415 0.0
O212 O 0.45463 0.10019 0.31301 0.0
O213 O 0.41173 0.02954 0.29007 0.0
O214 O 0.47377 0.11521 0.23473 0.0
O215 O 0.42382 0.03459 0.17214 0.0
O216 O 0.43153 0.05129 0.36224 0.0
O217 O 0.47725 0.05874 0.14435 0.0
O218 O 0.50314 0.10282 0.31315 0.0
O219 O 0.45217 0.01938 0.31769 0.0
Sc220 Sc 0.90382 0.38875 0.18868 0.0
Sc221 Sc 0.96021 0.4102 0.24376 0.0
Sc222 Sc 0.9116 0.38897 0.32873 0.0
O223 O 0.92527 0.39616 0.25345 0.0
C224 C 0.8821 0.40942 0.26994 0.0
C225 C 0.95077 0.43726 0.1527 0.0
C226 C 0.95626 0.43717 0.34948 0.0
C227 C 0.93836 0.37163 0.1489 0.0
C228 C 0.87383 0.34475 0.26899 0.0
C229 C 0.95187 0.37505 0.33734 0.0
O230 O 0.89046 0.41036 0.22238 0.0
O231 O 0.9625 0.43847 0.19515 0.0
O232 O 0.93387 0.42464 0.3532 0.0
O233 O 0.91706 0.36733 0.1538 0.0
O234 O 0.88918 0.3532 0.30666 0.0
O235 O 0.95989 0.38235 0.28989 0.0
O236 O 0.87481 0.35674 0.22671 0.0
O237 O 0.95593 0.38879 0.17279 0.0
O238 O 0.9368 0.37929 0.36008 0.0
O239 O 0.93031 0.41944 0.14258 0.0
O240 O 0.88466 0.39797 0.30894 0.0
O241 O 0.96841 0.43259 0.31577 0.0
Sc242 Sc 0.59782 0.50543 0.18089 0.0
Sc243 Sc 0.57145 0.53693 0.22711 0.0
Sc244 Sc 0.59282 0.5122 0.31868 0.0
O245 O 0.58718 0.51809 0.24212 0.0
C246 C 0.57612 0.46313 0.26015 0.0
C247 C 0.5494 0.50089 0.13453 0.0
C248 C 0.54264 0.50465 0.32958 0.0
C249 C 0.61418 0.55676 0.14363 0.0
C250 C 0.63915 0.52066 0.26958 0.0
C251 C 0.6021 0.56509 0.32493 0.0
O252 O 0.57552 0.47026 0.21201 0.0
O253 O 0.54561 0.50925 0.17766 0.0
O254 O 0.55605 0.49588 0.33579 0.0
O255 O 0.61987 0.541 0.15297 0.0
O256 O 0.6296 0.52836 0.30266 0.0
O257 O 0.59691 0.56558 0.2753 0.0
O258 O 0.62832 0.5087 0.22712 0.0
O259 O 0.59416 0.55437 0.15724 0.0
O260 O 0.59829 0.54609 0.34869 0.0
O261 O 0.5689 0.50098 0.1265 0.0
O262 O 0.58761 0.47743 0.29877 0.0
O263 O 0.5475 0.52176 0.29674 0.0
Sc264 Sc 0.51054 0.91245 0.67629 0.0
Sc265 Sc 0.53559 0.9585 0.76792 0.0
Sc266 Sc 0.50289 0.90066 0.81403 0.0
O267 O 0.51618 0.92395 0.75289 0.0
C268 C 0.46095 0.88023 0.73361 0.0
C269 C 0.5042 0.95575 0.66411 0.0
C270 C 0.49899 0.94518 0.85933 0.0
C271 C 0.56387 0.9551 0.67126 0.0
C272 C 0.51838 0.87426 0.72655 0.0
C273 C 0.55424 0.93503 0.85293 0.0
O274 O 0.47542 0.88335 0.69512 0.0
O275 O 0.52117 0.9677 0.69748 0.0
O276 O 0.49841 0.92545 0.86743 0.0
O277 O 0.54481 0.94029 0.64714 0.0
O278 O 0.50621 0.87319 0.76864 0.0
O279 O 0.55242 0.9529 0.83858 0.0
O280 O 0.52609 0.89136 0.69311 0.0
O281 O 0.56425 0.96096 0.72071 0.0
O282 O 0.53822 0.91372 0.84338 0.0
O283 O 0.49496 0.93351 0.65818 0.0
O284 O 0.46786 0.88795 0.78185 0.0
O285 O 0.50799 0.95742 0.81657 0.0
Sc286 Sc 0.07452 0.59786 0.67385 0.0
Sc287 Sc 0.02896 0.57513 0.76712 0.0
Sc288 Sc 0.08715 0.60193 0.81117 0.0
O289 O 0.06349 0.59138 0.75068 0.0
C290 C 0.10815 0.58146 0.72933 0.0
C291 C 0.03179 0.54778 0.66123 0.0
C292 C 0.04391 0.55288 0.85666 0.0
C293 C 0.03072 0.60709 0.67254 0.0
C294 C 0.11269 0.64384 0.724 0.0
C295 C 0.05173 0.61706 0.85193 0.0
O296 O 0.10395 0.59203 0.69075 0.0
O297 O 0.01978 0.55205 0.69602 0.0
O298 O 0.06308 0.57252 0.8649 0.0
O299 O 0.04611 0.60397 0.64737 0.0
O300 O 0.11406 0.63281 0.76573 0.0
O301 O 0.03439 0.59679 0.83901 0.0
O302 O 0.09527 0.63446 0.69142 0.0
O303 O 0.02495 0.60085 0.72175 0.0
O304 O 0.07322 0.62337 0.84096 0.0
O305 O 0.05389 0.56136 0.65433 0.0
O306 O 0.10074 0.58057 0.77798 0.0
O307 O 0.03175 0.54905 0.81355 0.0
Sc308 Sc 0.38294 0.46675 0.66296 0.0
Sc309 Sc 0.4047 0.43929 0.7472 0.0
Sc310 Sc 0.38591 0.47651 0.80278 0.0
O311 O 0.39132 0.46089 0.73778 0.0
C312 C 0.40669 0.51777 0.71865 0.0
C313 C 0.43056 0.46854 0.63888 0.0
C314 C 0.43376 0.47622 0.83635 0.0
C315 C 0.36732 0.41196 0.65671 0.0
C316 C 0.3415 0.46501 0.72558 0.0
C317 C 0.36728 0.42488 0.84478 0.0
O318 O 0.39455 0.50349 0.68064 0.0
O319 O 0.42673 0.45258 0.67422 0.0
O320 O 0.4166 0.47983 0.84706 0.0
O321 O 0.37068 0.43097 0.63402 0.0
O322 O 0.35426 0.47519 0.76745 0.0
O323 O 0.38349 0.4232 0.8193 0.0
O324 O 0.34796 0.45594 0.68836 0.0
O325 O 0.37623 0.41175 0.70249 0.0
O326 O 0.36395 0.44251 0.83999 0.0
O327 O 0.41763 0.47791 0.6342 0.0
O328 O 0.40802 0.51078 0.76645 0.0
O329 O 0.43396 0.46494 0.79429 0.0
Sc330 Sc 0.14313 0.41761 0.53775 0.0
Sc331 Sc 0.10808 0.3604 0.58429 0.0
Sc332 Sc 0.13046 0.40697 0.67471 0.0
O333 O 0.12756 0.39493 0.59931 0.0
C334 C 0.18267 0.43682 0.62421 0.0
C335 C 0.14632 0.37174 0.50081 0.0
C336 C 0.13344 0.36213 0.69721 0.0
C337 C 0.09297 0.38422 0.49418 0.0
C338 C 0.12924 0.44749 0.61792 0.0
C339 C 0.07611 0.3659 0.66926 0.0
O340 O 0.1769 0.42934 0.57529 0.0
O341 O 0.1376 0.36097 0.54535 0.0
O342 O 0.14281 0.38437 0.70248 0.0
O343 O 0.10856 0.40556 0.50498 0.0
O344 O 0.11812 0.42996 0.64948 0.0
O345 O 0.07791 0.35898 0.62203 0.0
O346 O 0.1416 0.44696 0.57805 0.0
O347 O 0.09545 0.36664 0.50748 0.0
O348 O 0.09407 0.3809 0.69663 0.0
O349 O 0.14676 0.39113 0.48892 0.0
O350 O 0.16743 0.43364 0.66109 0.0
O351 O 0.11821 0.35041 0.66027 0.0
Sc352 Sc 0.56356 0.72009 0.52317 0.0
Sc353 Sc 0.62102 0.74217 0.56941 0.0
Sc354 Sc 0.57513 0.72336 0.66101 0.0
O355 O 0.58661 0.72872 0.58439 0.0
C356 C 0.54492 0.74331 0.60415 0.0
C357 C 0.60978 0.76747 0.47915 0.0
C358 C 0.62028 0.77144 0.67372 0.0
C359 C 0.59594 0.70092 0.48292 0.0
C360 C 0.53494 0.67869 0.61095 0.0
C361 C 0.61568 0.70947 0.66507 0.0
O362 O 0.55245 0.74369 0.55588 0.0
O363 O 0.62174 0.76989 0.52197 0.0
O364 O 0.59792 0.75967 0.67898 0.0
O365 O 0.57491 0.69649 0.49297 0.0
O366 O 0.55209 0.68709 0.64436 0.0
O367 O 0.62148 0.71466 0.61548 0.0
O368 O 0.53501 0.68995 0.56801 0.0
O369 O 0.61431 0.72007 0.49774 0.0
O370 O 0.60166 0.71478 0.68951 0.0
O371 O 0.58955 0.74897 0.47057 0.0
O372 O 0.5475 0.73167 0.64278 0.0
O373 O 0.63155 0.76543 0.64066 0.0
Sc374 Sc 0.26424 0.84077 0.51418 0.0
Sc375 Sc 0.23785 0.87195 0.56106 0.0
Sc376 Sc 0.26091 0.84873 0.65192 0.0
O377 O 0.25403 0.85357 0.57582 0.0
C378 C 0.24351 0.79903 0.59474 0.0
C379 C 0.21509 0.83558 0.47104 0.0
C380 C 0.21114 0.84168 0.66735 0.0
C381 C 0.27955 0.89157 0.4764 0.0
C382 C 0.30635 0.85613 0.60044 0.0
C383 C 0.27041 0.90173 0.6548 0.0
O384 O 0.24235 0.80578 0.54649 0.0
O385 O 0.21131 0.84315 0.51543 0.0
O386 O 0.22447 0.83276 0.6726 0.0
O387 O 0.28603 0.87642 0.48629 0.0
O388 O 0.29742 0.86471 0.63284 0.0
O389 O 0.26421 0.90143 0.60564 0.0
O390 O 0.29499 0.84381 0.55885 0.0
O391 O 0.25892 0.88797 0.48829 0.0
O392 O 0.267 0.88311 0.67981 0.0
O393 O 0.23484 0.83639 0.46142 0.0
O394 O 0.2551 0.81361 0.63293 0.0
O395 O 0.21543 0.85819 0.63325 0.0
H396 H 0.21338 0.11606 0.87202 0.0
H397 H 0.1629 0.16124 0.11374 0.0
H398 H 0.18472 0.07625 0.02095 0.0
H399 H 0.211 0.20596 0.98765 0.0
H400 H 0.16482 0.1274 0.07482 0.0
H401 H 0.20477 0.14619 0.9064 0.0
C402 C 0.20483 0.11339 0.91143 0.0
C403 C 0.20008 0.09379 0.94397 0.0
C404 C 0.17491 0.14469 0.05594 0.0
C405 C 0.19056 0.12835 0.98392 0.0
C406 C 0.17395 0.164 0.07829 0.0
C407 C 0.18681 0.18651 0.05407 0.0
C408 C 0.18858 0.14796 0.00883 0.0
C409 C 0.20075 0.18901 0.0079 0.0
C410 C 0.20015 0.13071 0.9313 0.0
C411 C 0.18899 0.09128 0.99482 0.0
N412 N 0.20114 0.17 0.98675 0.0
N413 N 0.18481 0.10851 0.01352 0.0
H414 H 0.78513 -0.00183 0.96122 0.0
H415 H 0.90484 0.11342 0.03735 0.0
H416 H 0.81927 0.00294 0.11587 0.0
H417 H 0.88078 0.0915 0.8719 0.0
H418 H 0.87459 0.07418 0.0696 0.0
H419 H 0.81988 0.03404 0.93148 0.0
C420 C 0.79991 0.0068 0.9893 0.0
C421 C 0.79914 -0.00258 0.04143 0.0
C422 C 0.87628 0.0779 0.02622 0.0
C423 C 0.83948 0.03891 0.00678 0.0
C424 C 0.89355 0.10027 0.00764 0.0
C425 C 0.89514 0.10595 0.95176 0.0
C426 C 0.86041 0.06128 0.98872 0.0
C427 C 0.8801 0.08812 0.91533 0.0
C428 C 0.81993 0.02727 0.97187 0.0
C429 C 0.81907 0.00955 0.07544 0.0
N430 N 0.86317 0.06676 0.93455 0.0
N431 N 0.83846 0.02986 0.05763 0.0
H432 H 0.88828 0.77693 0.86419 0.0
H433 H 0.98328 0.81652 0.10609 0.0
H434 H 0.87437 0.79354 0.0261 0.0
H435 H 0.98327 0.77964 0.95917 0.0
H436 H 0.94687 0.81537 0.07373 0.0
H437 H 0.92805 0.78715 0.89351 0.0
C438 C 0.89369 0.78311 0.90561 0.0
C439 C 0.87777 0.78389 0.94299 0.0
C440 C 0.95502 0.80762 0.04883 0.0
C441 C 0.92315 0.79524 0.97708 0.0
C442 C 0.97565 0.80814 0.06737 0.0
C443 C 0.98633 0.79808 0.03555 0.0
C444 C 0.94536 0.79726 -0.00201 0.0
C445 C 0.97575 0.78758 0.98545 0.0
C446 C 0.91635 0.78878 0.92247 0.0
C447 C 0.88592 0.79227 0.9961 0.0
N448 N 0.95597 0.78753 0.9683 0.0
N449 N 0.90798 0.79733 0.01185 0.0
H450 H 0.8112 0.82204 0.87846 0.0
H451 H 0.77598 0.87949 0.12469 0.0
H452 H 0.77798 0.78676 0.02969 0.0
H453 H 0.78939 0.9085 0.96135 0.0
H454 H 0.7856 0.84966 0.09406 0.0
H455 H 0.81017 0.85737 0.91077 0.0
C456 C 0.80365 0.82165 0.91812 0.0
C457 C 0.79457 0.80132 0.95115 0.0
C458 C 0.78665 0.86271 0.06503 0.0
C459 C 0.7939 0.84159 0.98862 0.0
C460 C 0.78133 0.87988 0.08264 0.0
C461 C 0.78143 0.89627 0.04538 0.0
C462 C 0.79207 0.86188 0.00979 0.0
C463 C 0.78871 0.89597 0.99137 0.0
C464 C 0.80319 0.84181 0.93661 0.0
C465 C 0.78512 0.80188 0.00243 0.0
N466 N 0.79346 0.87881 0.97497 0.0
N467 N 0.78511 0.82163 0.01949 0.0
H468 H 0.19041 -0.00484 0.03936 0.0
H469 H 0.07519 0.87571 0.95276 0.0
H470 H 0.1618 0.98322 0.87583 0.0
H471 H 0.10211 0.89285 0.11767 0.0
H472 H 0.10379 0.9161 0.9249 0.0
H473 H 0.15596 0.9589 0.06896 0.0
C474 C 0.17689 0.98482 0.0094 0.0
C475 C 0.17922 0.99208 0.95465 0.0
C476 C 0.10319 0.9111 0.9673 0.0
C477 C 0.13933 0.95021 0.98884 0.0
C478 C 0.08684 0.88804 0.98339 0.0
C479 C 0.08652 0.88071 0.03759 0.0
C480 C 0.11937 0.9269 0.0056 0.0
C481 C 0.10187 0.89756 0.07538 0.0
C482 C 0.15705 0.96412 0.0266 0.0
C483 C 0.1608 0.97814 0.91827 0.0
N484 N 0.11786 0.91977 0.05848 0.0
N485 N 0.14166 0.95765 0.93592 0.0
H486 H 0.10954 0.19579 0.96441 0.0
H487 H -0.00167 0.2109 0.01615 0.0
H488 H 0.08851 0.20715 0.12387 0.0
H489 H -0.00069 0.16993 0.87819 0.0
H490 H 0.03384 0.2125 0.05095 0.0
H491 H 0.07093 0.1873 0.92838 0.0
C492 C 0.0967 0.19608 0.99212 0.0
C493 C 0.10245 0.20253 0.04724 0.0
C494 C 0.02631 0.20307 0.01315 0.0
C495 C 0.05857 0.19322 0.00588 0.0
C496 C 0.00606 0.20231 0.99276 0.0
C497 C -0.00434 0.19019 0.94396 0.0
C498 C 0.0367 0.19196 0.98446 0.0
C499 C 0.0067 0.17945 0.91592 0.0
C500 C 0.0747 0.19125 0.97139 0.0
C501 C 0.08503 0.20248 0.08111 0.0
N502 N 0.02679 0.18069 0.93648 0.0
N503 N 0.06406 0.19829 0.05968 0.0
H504 H 0.83887 0.49795 0.44366 0.0
H505 H 0.87799 0.44102 0.20333 0.0
H506 H 0.87055 0.53213 0.29043 0.0
H507 H 0.86236 0.41217 0.36679 0.0
H508 H 0.86745 0.47055 0.23102 0.0
H509 H 0.84124 0.46307 0.41355 0.0
C510 C 0.84634 0.49818 0.40396 0.0
C511 C 0.85466 0.5181 0.36982 0.0
C512 C 0.86612 0.45761 0.26073 0.0
C513 C 0.85694 0.47833 0.33489 0.0
C514 C 0.87199 0.44062 0.24479 0.0
C515 C 0.87146 0.42431 0.28294 0.0
C516 C 0.85973 0.45836 0.31524 0.0
C517 C 0.86336 0.42461 0.33611 0.0
C518 C 0.84758 0.47828 0.38673 0.0
C519 C 0.86403 0.51735 0.31856 0.0
N520 N 0.85808 0.44158 0.3509 0.0
N521 N 0.86486 0.49786 0.30279 0.0
H522 H 0.54127 0.42834 0.19768 0.0
H523 H 0.48579 0.33298 0.43827 0.0
H524 H 0.57483 0.44061 0.35585 0.0
H525 H 0.44632 0.33918 0.30345 0.0
H526 H 0.52154 0.36848 0.40443 0.0
H527 H 0.50996 0.38985 0.2297 0.0
C528 C 0.54235 0.42277 0.23874 0.0
C529 C 0.56047 0.43792 0.27441 0.0
C530 C 0.50495 0.36193 0.38259 0.0
C531 C 0.52448 0.39408 0.31156 0.0
C532 C 0.48456 0.34184 0.40204 0.0
C533 C 0.46301 0.333 0.37368 0.0
C534 C 0.50369 0.37287 0.33422 0.0
C535 C 0.46247 0.34515 0.32672 0.0
C536 C 0.52434 0.40089 0.25719 0.0
C537 C 0.56097 0.42964 0.32721 0.0
N538 N 0.4825 0.36429 0.30838 0.0
N539 N 0.54303 0.40834 0.3445 0.0
H540 H 0.55312 0.11288 0.204 0.0
H541 H 0.64795 0.1442 0.44368 0.0
H542 H 0.53932 0.12267 0.37188 0.0
H543 H 0.65426 0.12339 0.2797 0.0
H544 H 0.61078 0.14272 0.41659 0.0
H545 H 0.59368 0.12433 0.22911 0.0
C546 C 0.55867 0.11774 0.24597 0.0
C547 C 0.54263 0.11638 0.28599 0.0
C548 C 0.62048 0.13861 0.3867 0.0
C549 C 0.58898 0.12916 0.31528 0.0
C550 C 0.64159 0.13939 0.40217 0.0
C551 C 0.65404 0.13355 0.36424 0.0
C552 C 0.61208 0.13223 0.3329 0.0
C553 C 0.64513 0.12764 0.31079 0.0
C554 C 0.58183 0.12418 0.2604 0.0
C555 C 0.55097 0.12313 0.33973 0.0
N556 N 0.62475 0.12709 0.29689 0.0
N557 N 0.57351 0.12893 0.35298 0.0
H558 H 0.47059 0.1535 0.20933 0.0
H559 H 0.44837 0.222 0.45341 0.0
H560 H 0.45636 0.13017 0.37725 0.0
H561 H 0.4481 0.23996 0.28364 0.0
H562 H 0.45998 0.19326 0.42605 0.0
H563 H 0.4696 0.18955 0.23569 0.0
C564 C 0.46733 0.15596 0.25154 0.0
C565 C 0.46316 0.13862 0.2909 0.0
C566 C 0.45761 0.20366 0.39477 0.0
C567 C 0.46248 0.17969 0.32132 0.0
C568 C 0.45107 0.22017 0.41044 0.0
C569 C 0.44682 0.23312 0.37078 0.0
C570 C 0.45973 0.19991 0.33902 0.0
C571 C 0.45091 0.23016 0.31566 0.0
C572 C 0.46683 0.17649 0.26656 0.0
C573 C 0.45923 0.14277 0.34517 0.0
N574 N 0.45681 0.21359 0.3013 0.0
N575 N 0.45895 0.16279 0.35862 0.0
H576 H 0.77573 0.22176 0.44557 0.0
H577 H 0.83048 0.32188 0.21556 0.0
H578 H 0.74361 0.21015 0.28576 0.0
H579 H 0.87006 0.3135 0.347 0.0
H580 H 0.7953 0.28452 0.24432 0.0
H581 H 0.80655 0.26089 0.416 0.0
C582 C 0.7749 0.22755 0.40458 0.0
C583 C 0.75729 0.21246 0.36784 0.0
C584 C 0.81181 0.29103 0.26647 0.0
C585 C 0.79273 0.25711 0.33353 0.0
C586 C 0.83187 0.31215 0.24989 0.0
C587 C 0.85319 0.32098 0.27918 0.0
C588 C 0.81322 0.27906 0.31284 0.0
C589 C 0.85398 0.30767 0.3235 0.0
C590 C 0.79262 0.24982 0.38756 0.0
C591 C 0.75708 0.22108 0.31522 0.0
N592 N 0.83429 0.28758 0.33916 0.0
N593 N 0.77473 0.24281 0.29935 0.0
H594 H 0.66514 0.54329 0.35961 0.0
H595 H 0.77487 0.52627 0.29294 0.0
H596 H 0.66612 0.50456 0.2171 0.0
H597 H 0.76162 0.54682 0.45106 0.0
H598 H 0.73545 0.51756 0.26335 0.0
H599 H 0.70147 0.5456 0.39091 0.0
C600 C 0.67302 0.53531 0.33457 0.0
C601 C 0.66242 0.52363 0.28549 0.0
C602 C 0.74107 0.52363 0.30473 0.0
C603 C 0.70435 0.5262 0.32183 0.0
C604 C 0.76355 0.52857 0.3218 0.0
C605 C 0.77172 0.53763 0.37443 0.0
C606 C 0.72682 0.528 0.34037 0.0
C607 C 0.7562 0.54006 0.41005 0.0
C608 C 0.69377 0.5365 0.35287 0.0
C609 C 0.67367 0.51375 0.25509 0.0
N610 N 0.73463 0.53559 0.39208 0.0
N611 N 0.69414 0.51532 0.27372 0.0
H612 H 0.52118 0.74268 0.69724 0.0
H613 H 0.5454 0.87287 0.64348 0.0
H614 H 0.5476 0.78019 0.54476 0.0
H615 H 0.49904 0.82972 0.77373 0.0
H616 H 0.54802 0.83915 0.61112 0.0
H617 H 0.51299 0.77363 0.72807 0.0
C618 C 0.52489 0.7572 0.66983 0.0
C619 C 0.53538 0.759 0.61849 0.0
C620 C 0.53719 0.83694 0.64668 0.0
C621 C 0.52638 0.79453 0.65405 0.0
C622 C 0.53579 0.85629 0.6656 0.0
C623 C 0.52181 0.85415 0.71137 0.0
C624 C 0.52476 0.81516 0.67382 0.0
C625 C 0.51002 0.83218 0.73834 0.0
C626 C 0.52024 0.77486 0.6876 0.0
C627 C 0.53961 0.77809 0.58467 0.0
N628 N 0.51178 0.81346 0.71913 0.0
N629 N 0.53541 0.79529 0.60339 0.0
H630 H 0.11418 0.67178 0.63979 0.0
H631 H 0.24465 0.77697 0.68916 0.0
H632 H 0.15743 0.66867 0.76997 0.0
H633 H 0.20754 0.76385 0.53549 0.0
H634 H 0.21382 0.73812 0.72157 0.0
H635 H 0.14827 0.70729 0.60542 0.0
C636 C 0.13085 0.67861 0.66149 0.0
C637 C 0.13292 0.66705 0.70782 0.0
C638 C 0.2127 0.74362 0.68048 0.0
C639 C 0.17231 0.70796 0.66795 0.0
C640 C 0.23029 0.76575 0.66181 0.0
C641 C 0.22846 0.77384 0.60976 0.0
C642 C 0.19309 0.7297 0.64707 0.0
C643 C 0.20961 0.75847 0.576 0.0
C644 C 0.15041 0.69885 0.64139 0.0
C645 C 0.15502 0.677 0.73418 0.0
N646 N 0.19245 0.7373 0.59561 0.0
N647 N 0.17394 0.69699 0.71385 0.0
H648 H 0.22154 0.45373 0.5577 0.0
H649 H 0.31003 0.46669 0.79932 0.0
H650 H 0.20114 0.44503 0.72773 0.0
H651 H 0.3237 0.46603 0.62697 0.0
H652 H 0.2726 0.46571 0.77643 0.0
H653 H 0.26206 0.46619 0.58503 0.0
C654 C 0.22563 0.45469 0.60082 0.0
C655 C 0.20785 0.44795 0.64038 0.0
C656 C 0.28399 0.46596 0.74384 0.0
C657 C 0.25419 0.46183 0.67211 0.0
C658 C 0.30524 0.4665 0.7569 0.0
C659 C 0.31963 0.46587 0.71503 0.0
C660 C 0.27751 0.46515 0.68868 0.0
C661 C 0.31284 0.46589 0.66066 0.0
C662 C 0.24879 0.46177 0.61649 0.0
C663 C 0.21428 0.44988 0.69578 0.0
N664 N 0.29229 0.46542 0.64917 0.0
N665 N 0.2369 0.4563 0.71004 0.0
H666 H 0.1249 0.57757 0.62921 0.0
H667 H 0.11968 0.45843 0.71782 0.0
H668 H 0.11684 0.5528 0.79581 0.0
H669 H 0.14174 0.48765 0.55592 0.0
H670 H 0.12125 0.49464 0.74673 0.0
H671 H 0.13496 0.54757 0.60201 0.0
C672 C 0.12569 0.56616 0.66035 0.0
C673 C 0.11947 0.56737 0.71481 0.0
C674 C 0.12587 0.49333 0.70489 0.0
C675 C 0.13077 0.53293 0.68361 0.0
C676 C 0.12473 0.47246 0.68802 0.0
C677 C 0.13018 0.46981 0.63392 0.0
C678 C 0.13217 0.51177 0.66737 0.0
C679 C 0.13716 0.4889 0.59781 0.0
C680 C 0.13141 0.54901 0.64464 0.0
C681 C 0.12112 0.55232 0.75328 0.0
N682 N 0.13767 0.50907 0.61504 0.0
N683 N 0.12624 0.53549 0.73674 0.0
H684 H 0.52451 0.65862 0.7115 0.0
H685 H 0.40993 0.53909 0.61985 0.0
H686 H 0.49674 0.64757 0.54726 0.0
H687 H 0.43746 0.55438 0.78446 0.0
H688 H 0.43885 0.57963 0.59351 0.0
H689 H 0.49061 0.62151 0.73906 0.0
C690 C 0.51128 0.64832 0.68094 0.0
C691 C 0.51371 0.65612 0.62658 0.0
C692 C 0.43835 0.57418 0.6355 0.0
C693 C 0.47442 0.61321 0.65848 0.0
C694 C 0.42181 0.55103 0.65074 0.0
C695 C 0.42145 0.54316 0.70445 0.0
C696 C 0.45467 0.58954 0.67417 0.0
C697 C 0.43718 0.55951 0.74255 0.0
C698 C 0.49176 0.6271 0.69697 0.0
C699 C 0.49566 0.64213 0.58942 0.0
N700 N 0.45328 0.58183 0.7265 0.0
N701 N 0.47681 0.62116 0.60596 0.0
H702 H 0.42539 0.87931 0.79534 0.0
H703 H 0.33156 0.8374 0.5505 0.0
H704 H 0.439 0.85844 0.63799 0.0
H705 H 0.3329 0.87902 0.68952 0.0
H706 H 0.36746 0.83844 0.58602 0.0
H707 H 0.38639 0.87051 0.76287 0.0
C708 C 0.42003 0.87244 0.75435 0.0
C709 C 0.43566 0.87003 0.71906 0.0
C710 C 0.35975 0.84728 0.60847 0.0
C711 C 0.39124 0.86033 0.68133 0.0
C712 C 0.33942 0.84685 0.58808 0.0
C713 C 0.32916 0.85813 0.61694 0.0
C714 C 0.36956 0.85882 0.65821 0.0
C715 C 0.34004 0.87 0.66568 0.0
C716 C 0.39784 0.86763 0.73564 0.0
C717 C 0.42765 0.86093 0.66635 0.0
N718 N 0.3595 0.86992 0.68477 0.0
N719 N 0.40606 0.85667 0.64879 0.0
H720 H 0.18613 0.33507 0.99306 0.0
H721 H 0.10813 0.31498 0.72498 0.0
H722 H 0.13189 0.26597 0.93749 0.0
H723 H 0.17033 0.38131 0.76846 0.0
H724 H 0.11425 0.29677 0.80625 0.0
H725 H 0.17664 0.35306 0.91676 0.0
C726 C 0.17194 0.32375 0.96541 0.0
C727 C 0.16004 0.29904 0.97089 0.0
C728 C 0.12658 0.31529 0.7977 0.0
C729 C 0.14944 0.3193 0.88335 0.0
C730 C 0.12324 0.32559 0.7511 0.0
C731 C 0.13866 0.34968 0.74021 0.0
C732 C 0.14541 0.32927 0.83331 0.0
C733 C 0.15785 0.3627 0.7756 0.0
C734 C 0.1667 0.33396 0.92157 0.0
C735 C 0.14179 0.28513 0.93401 0.0
N736 N 0.16059 0.35236 0.82073 0.0
N737 N 0.13719 0.29545 0.89137 0.0
H738 H 0.64894 0.85796 0.95885 0.0
H739 H 0.66678 0.79095 0.70523 0.0
H740 H 0.71535 0.86097 0.92151 0.0
H741 H 0.60309 0.79447 0.73471 0.0
H742 H 0.68516 0.81658 0.78442 0.0
H743 H 0.63111 0.83244 0.87947 0.0
C744 C 0.65964 0.85292 0.93454 0.0
C745 C 0.68368 0.86173 0.94646 0.0
C746 C 0.66722 0.81188 0.77319 0.0
C747 C 0.66362 0.83305 0.85517 0.0
C748 C 0.65685 0.79748 0.72768 0.0
C749 C 0.63333 0.79043 0.71375 0.0
C750 C 0.65392 0.81915 0.80474 0.0
C751 C 0.62118 0.79926 0.74444 0.0
C752 C 0.64955 0.83859 0.88887 0.0
C753 C 0.69678 0.85475 0.9134 0.0
N754 N 0.63155 0.81299 0.78879 0.0
N755 N 0.68661 0.84093 0.869 0.0
H756 H 0.1867 0.86461 0.6923 0.0
H757 H 0.12396 0.78363 0.95389 0.0
H758 H 0.1931 0.80373 0.7365 0.0
H759 H 0.12197 0.84733 0.91414 0.0
H760 H 0.14932 0.79045 0.87434 0.0
H761 H 0.16086 0.85699 0.77099 0.0
C762 C 0.18236 0.84942 0.718 0.0
C763 C 0.19224 0.83493 0.70818 0.0
C764 C 0.14343 0.803 0.88333 0.0
C765 C 0.16315 0.8264 0.79874 0.0
C766 C 0.12918 0.79925 0.92903 0.0
C767 C 0.12072 0.81483 0.94034 0.0
C768 C 0.14917 0.82244 0.84899 0.0
C769 C 0.1279 0.83471 0.90658 0.0
C770 C 0.16782 0.84522 0.76325 0.0
C771 C 0.18607 0.81553 0.74294 0.0
N772 N 0.14157 0.83785 0.8622 0.0
N773 N 0.17205 0.81193 0.78697 0.0
H774 H 0.84888 0.71753 0.06528 0.0
H775 H 0.80159 0.60418 0.25854 0.0
H776 H 0.78334 0.65193 0.03801 0.0
H777 H 0.86862 0.66856 0.28273 0.0
H778 H 0.79398 0.62211 0.17968 0.0
H779 H 0.85672 0.69981 0.14436 0.0
C780 C 0.83628 0.69926 0.07553 0.0
C781 C 0.81531 0.6862 0.04531 0.0
C782 C 0.81028 0.6324 0.20237 0.0
C783 C 0.82402 0.666 0.13626 0.0
C784 C 0.81458 0.62224 0.24764 0.0
C785 C 0.83587 0.63487 0.27692 0.0
C786 C 0.82741 0.65534 0.18615 0.0
C787 C 0.85196 0.65824 0.26134 0.0
C788 C 0.84071 0.68922 0.12089 0.0
C789 C 0.79972 0.6626 0.06012 0.0
N790 N 0.84748 0.66768 0.21656 0.0
N791 N 0.8043 0.6533 0.10498 0.0
H792 H 0.26739 0.13167 0.05405 0.0
H793 H 0.38115 0.198 0.24557 0.0
H794 H 0.33105 0.12742 0.03125 0.0
H795 H 0.31421 0.19455 0.27849 0.0
H796 H 0.36372 0.17323 0.16524 0.0
H797 H 0.28574 0.15766 0.13203 0.0
C798 C 0.28539 0.1365 0.06503 0.0
C799 C 0.29766 0.12719 0.03661 0.0
C800 C 0.35279 0.17774 0.19022 0.0
C801 C 0.31857 0.15658 0.12626 0.0
C802 C 0.36266 0.19176 0.23623 0.0
C803 C 0.34909 0.19842 0.26846 0.0
C804 C 0.32923 0.17045 0.17624 0.0
C805 C 0.32525 0.18975 0.25481 0.0
C806 C 0.29578 0.15119 0.10979 0.0
C807 C 0.32099 0.13422 0.0521 0.0
N808 N 0.31611 0.17634 0.20929 0.0
N809 N 0.33064 0.14835 0.09642 0.0
H810 H 0.78673 0.11153 0.27533 0.0
H811 H 0.84831 0.19243 0.01303 0.0
H812 H 0.78803 0.17734 0.24102 0.0
H813 H 0.86117 0.13636 0.06475 0.0
H814 H 0.82146 0.18346 0.09061 0.0
H815 H 0.81162 0.11813 0.19478 0.0
C816 C 0.79256 0.12753 0.25147 0.0
C817 C 0.78518 0.14382 0.26465 0.0
C818 C 0.83006 0.17303 0.08468 0.0
C819 C 0.81298 0.15113 0.17221 0.0
C820 C 0.84512 0.17796 0.04009 0.0
C821 C 0.85714 0.16531 0.03301 0.0
C822 C 0.82698 0.15527 0.12198 0.0
C823 C 0.85248 0.14677 0.06934 0.0
C824 C 0.80653 0.13116 0.20526 0.0
C825 C 0.79309 0.16417 0.23208 0.0
N826 N 0.83787 0.14241 0.11259 0.0
N827 N 0.8064 0.16714 0.18713 0.0
H828 H 0.52812 0.00284 0.63639 0.0
H829 H 0.44248 0.98453 0.38384 0.0
H830 H 0.46445 0.93658 0.60063 0.0
H831 H 0.50854 0.0491 0.41521 0.0
H832 H 0.4498 0.96653 0.46376 0.0
H833 H 0.51962 0.02088 0.5586 0.0
C834 C 0.51214 0.99222 0.61282 0.0
C835 C 0.49711 0.96813 0.62462 0.0
C836 C 0.46274 0.98459 0.45286 0.0
C837 C 0.48755 0.98845 0.53505 0.0
C838 C 0.45869 -0.00524 0.40692 0.0
C839 C 0.47485 0.01836 0.39307 0.0
C840 C 0.48306 -0.00184 0.48491 0.0
C841 C 0.49548 0.0309 0.4247 0.0
C842 C 0.50743 0.00243 0.56804 0.0
C843 C 0.47669 0.95516 0.59255 0.0
N844 N 0.49891 0.02069 0.46932 0.0
N845 N 0.47261 0.96543 0.54893 0.0
H846 H 0.98433 0.52315 0.63701 0.0
H847 H 0.0034 0.46008 0.37703 0.0
H848 H 0.05146 0.52886 0.59409 0.0
H849 H 0.93667 0.45567 0.41826 0.0
H850 H 0.02148 0.48553 0.45641 0.0
H851 H 0.96599 0.4966 0.55941 0.0
C852 C -0.00489 0.51849 0.61189 0.0
C853 C 0.01948 0.5284 0.62162 0.0
C854 C 0.00291 0.47908 0.44785 0.0
C855 C -0.00119 0.49853 0.53239 0.0
C856 C -0.00735 0.46476 0.40223 0.0
C857 C 0.96847 0.45562 0.39123 0.0
C858 C 0.98886 0.48426 0.48251 0.0
C859 C 0.95534 0.46215 0.42547 0.0
C860 C 0.98471 0.50354 0.56727 0.0
C861 C 0.03265 0.52183 0.58764 0.0
N862 N 0.96568 0.47595 0.46978 0.0
N863 N 0.02217 0.50745 0.54423 0.0
H864 H 0.4509 0.50826 0.57596 0.0
H865 H 0.52168 0.46392 0.38959 0.0
H866 H 0.45166 0.44317 0.6055 0.0
H867 H 0.51913 0.52802 0.35917 0.0
H868 H 0.49478 0.4551 0.46653 0.0
H869 H 0.47627 0.51581 0.49684 0.0
C870 C 0.45663 0.49565 0.56609 0.0
C871 C 0.44906 0.47496 0.59714 0.0
C872 C 0.49994 0.47099 0.44277 0.0
C873 C 0.47786 0.48339 0.50603 0.0
C874 C 0.51518 0.47598 0.39864 0.0
C875 C 0.52283 0.49689 0.36832 0.0
C876 C 0.49238 0.48705 0.45678 0.0
C877 C 0.51369 0.51173 0.38146 0.0
C878 C 0.471 0.49992 0.52067 0.0
C879 C 0.45717 0.45937 0.58276 0.0
N880 N 0.49911 0.50664 0.42519 0.0
N881 N 0.47105 0.46384 0.53786 0.0
H882 H 0.24513 0.30307 0.26872 0.0
H883 H 0.34804 0.27178 0.22583 0.0
H884 H 0.23809 0.24316 0.17716 0.0
H885 H 0.33965 0.29991 0.37852 0.0
H886 H 0.31471 0.27474 0.18835 0.0
H887 H 0.28596 0.3133 0.29316 0.0
C888 C 0.25214 0.29208 0.25404 0.0
C889 C 0.23814 0.27195 0.222 0.0
C890 C 0.32065 0.28086 0.22959 0.0
C891 C 0.28466 0.28416 0.24717 0.0
C892 C 0.33978 0.27942 0.25074 0.0
C893 C 0.3462 0.28521 0.30553 0.0
C894 C 0.30821 0.28837 0.26339 0.0
C895 C 0.33485 0.29491 0.33626 0.0
C896 C 0.27536 0.29802 0.26752 0.0
C897 C 0.24809 0.25848 0.20311 0.0
N898 N 0.31607 0.29586 0.31501 0.0
N899 N 0.27077 0.26489 0.21579 0.0
H900 H 0.7147 0.07834 0.21327 0.0
H901 H 0.67654 0.94174 0.2389 0.0
H902 H 0.67666 0.03662 0.35385 0.0
H903 H 0.74151 -0.00447 0.16447 0.0
H904 H 0.66679 0.97262 0.26303 0.0
H905 H 0.71281 0.04305 0.17283 0.0
C906 C 0.70513 0.06156 0.23462 0.0
C907 C 0.69618 0.06037 0.28729 0.0
C908 C 0.6831 0.97748 0.24127 0.0
C909 C 0.69429 0.02034 0.24188 0.0
C910 C 0.68877 0.96002 0.22799 0.0
C911 C 0.71007 0.96624 0.20067 0.0
C912 C 0.69854 0.00104 0.2256 0.0
C913 C 0.72517 0.99007 0.18663 0.0
C914 C 0.70433 0.04155 0.21188 0.0
C915 C 0.68408 0.03823 0.31343 0.0
N916 N 0.71905 0.0066 0.19904 0.0
N917 N 0.6838 0.01905 0.29079 0.0
H918 H 0.90445 0.63376 0.22218 0.0
H919 H 0.04132 0.73212 0.23906 0.0
H920 H 0.94677 0.63991 0.36356 0.0
H921 H 0.98733 0.74294 0.16435 0.0
H922 H 0.01023 0.69239 0.26832 0.0
H923 H 0.93935 0.6671 0.18028 0.0
C924 C 0.92128 0.64156 0.24353 0.0
C925 C 0.92276 0.6344 0.29663 0.0
C926 C 0.00536 0.70357 0.24543 0.0
C927 C 0.96235 0.67243 0.24946 0.0
C928 C 0.02295 0.72618 0.22916 0.0
C929 C 0.01675 0.74089 0.20014 0.0
C930 C 0.98168 0.69556 0.23102 0.0
C931 C -0.00721 0.73233 0.18763 0.0
C932 C 0.94105 0.66072 0.21993 0.0
C933 C 0.94494 0.64521 0.32276 0.0
N934 N 0.97612 0.71015 0.20287 0.0
N935 N 0.96391 0.66397 0.29914 0.0
H936 H 0.7262 0.67879 0.75394 0.0
H937 H 0.62959 0.71979 0.77114 0.0
H938 H 0.7383 0.74436 0.8268 0.0
H939 H 0.63452 0.68253 0.63038 0.0
H940 H 0.66242 0.71734 0.81319 0.0
H941 H 0.68636 0.67041 0.72608 0.0
C942 C 0.7205 0.69141 0.7638 0.0
C943 C 0.73562 0.71249 0.79173 0.0
C944 C 0.65586 0.7092 0.77367 0.0
C945 C 0.69018 0.70255 0.76251 0.0
C946 C 0.637 0.71035 0.74995 0.0
C947 C 0.62969 0.70168 0.69693 0.0
C948 C 0.66714 0.69907 0.74432 0.0
C949 C 0.63998 0.68973 0.67108 0.0
C950 C 0.69783 0.68655 0.74833 0.0
C951 C 0.72737 0.72815 0.80428 0.0
N952 N 0.65849 0.68903 0.69477 0.0
N953 N 0.70514 0.72279 0.78981 0.0
H954 H 0.2967 0.94732 0.61925 0.0
H955 H 0.23132 0.98866 0.81737 0.0
H956 H 0.2581 0.90529 0.75893 0.0
H957 H 0.29932 0.04068 0.75156 0.0
H958 H 0.23882 0.95721 0.78748 0.0
H959 H 0.29777 0.98203 0.66137 0.0
C960 C 0.28908 0.94562 0.6595 0.0
C961 C 0.27718 0.9235 0.6857 0.0
C962 C 0.25211 0.97553 0.77974 0.0
C963 C 0.27761 0.96259 0.73266 0.0
C964 C 0.24769 -0.00656 0.79593 0.0
C965 C 0.26466 0.01726 0.78641 0.0
C966 C 0.2734 0.98145 0.75287 0.0
C967 C 0.28577 0.02249 0.75939 0.0
C968 C 0.28963 0.96534 0.68331 0.0
C969 C 0.2675 0.92208 0.7376 0.0
N970 N 0.28948 0.00465 0.74293 0.0
N971 N 0.2674 0.94129 0.75889 0.0
H972 H -0.01019 0.24118 0.82082 0.0
H973 H 0.03216 0.34596 0.6229 0.0
H974 H 0.93656 0.25016 0.73624 0.0
H975 H 0.06776 0.35304 0.77624 0.0
H976 H -0.0037 0.31203 0.66018 0.0
H977 H 0.01915 0.28199 0.79912 0.0
C978 C 0.98436 0.25167 0.79696 0.0
C979 C 0.96081 0.24218 0.77944 0.0
C980 C 0.01172 0.32153 0.68616 0.0
C981 C -0.00569 0.28906 0.75524 0.0
C982 C 0.03213 0.34087 0.66506 0.0
C983 C 0.05299 0.35198 0.69637 0.0
C984 C 0.01257 0.31304 0.73819 0.0
C985 C 0.05208 0.34486 0.7507 0.0
C986 C 0.00102 0.27509 0.78552 0.0
C987 C 0.95462 0.2568 0.74991 0.0
N988 N 0.03237 0.32533 0.76944 0.0
N989 N 0.97143 0.27953 0.73787 0.0
H990 H 0.92055 0.63801 0.57579 0.0
H991 H 0.01846 0.59886 0.56519 0.0
H992 H 0.90993 0.57363 0.49925 0.0
H993 H 0.00848 0.63038 0.71064 0.0
H994 H 0.98577 0.60118 0.52183 0.0
H995 H 0.95925 0.64523 0.60994 0.0
C996 C 0.92634 0.62541 0.56644 0.0
C997 C 0.91199 0.60501 0.53552 0.0
C998 C -0.00885 0.60804 0.56282 0.0
C999 C 0.95615 0.61367 0.57195 0.0
C1000 C 0.0099 0.60696 0.58734 0.0
C1001 C 0.01586 0.61414 0.64173 0.0
C1002 C 0.97867 0.6167 0.59271 0.0
C1003 C 0.00411 0.62436 0.6688 0.0
C1004 C 0.94834 0.6296 0.58555 0.0
C1005 C 0.92029 0.58933 0.52387 0.0
N1006 N 0.98583 0.62516 0.64413 0.0
N1007 N 0.94193 0.59408 0.54179 0.0
H1008 H 0.33979 0.27247 0.57324 0.0
H1009 H 0.37111 0.40713 0.54743 0.0
H1010 H 0.40038 0.3275 0.48774 0.0
H1011 H 0.34156 0.36674 0.69505 0.0
H1012 H 0.36754 0.37166 0.50376 0.0
H1013 H 0.32844 0.30199 0.59987 0.0
C1014 C 0.35068 0.29074 0.5603 0.0
C1015 C 0.37134 0.2978 0.5295 0.0
C1016 C 0.36116 0.37045 0.54518 0.0
C1017 C 0.35789 0.33092 0.55705 0.0
C1018 C 0.36293 0.39056 0.56986 0.0
C1019 C 0.35709 0.38985 0.62515 0.0
C1020 C 0.35328 0.34966 0.576 0.0
C1021 C 0.34665 0.36798 0.65254 0.0
C1022 C 0.34409 0.3074 0.57496 0.0
C1023 C 0.38467 0.32151 0.51277 0.0
N1024 N 0.34547 0.34873 0.62795 0.0
N1025 N 0.37767 0.33723 0.52666 0.0
H1026 H 0.65134 0.0771 0.49626 0.0
H1027 H 0.60975 0.97463 0.70533 0.0
H1028 H 0.70305 0.06057 0.56177 0.0
H1029 H 0.56689 0.9691 0.56553 0.0
H1030 H 0.6445 0.00668 0.65942 0.0
H1031 H 0.61965 0.03913 0.53001 0.0
C1032 C 0.65601 0.06559 0.51839 0.0
C1033 C 0.6798 0.07201 0.52682 0.0
C1034 C 0.62759 -0.002 0.63839 0.0
C1035 C 0.64369 0.02858 0.56488 0.0
C1036 C 0.60783 0.97977 0.66439 0.0
C1037 C 0.58548 0.96945 0.63919 0.0
C1038 C 0.62468 0.00626 0.58778 0.0
C1039 C 0.58383 0.97663 0.58625 0.0
C1040 C 0.63795 0.0438 0.53681 0.0
C1041 C 0.68488 0.05624 0.55477 0.0
N1042 N 0.60311 -0.00494 0.56273 0.0
N1043 N 0.66689 0.03525 0.57354 0.0
H1044 H 0.29641 0.05907 0.09767 0.0
H1045 H 0.39041 0.01462 0.09596 0.0
H1046 H 0.3016 0.01994 0.96111 0.0
H1047 H 0.40449 0.08192 0.16226 0.0
H1048 H 0.35178 0.00784 0.0628 0.0
H1049 H 0.32929 0.05735 0.14179 0.0
C1050 C 0.30393 0.04944 0.07783 0.0
C1051 C 0.29654 0.03985 0.02549 0.0
C1052 C 0.36343 0.02403 0.08468 0.0
C1053 C 0.33403 0.03804 0.07528 0.0
C1054 C 0.38541 0.02797 0.10324 0.0
C1055 C 0.40072 0.04901 0.13108 0.0
C1056 C 0.3566 0.04094 0.09563 0.0
C1057 C 0.39338 0.06566 0.14007 0.0
C1058 C 0.32283 0.04872 0.10268 0.0
C1059 C 0.30703 0.02775 0.00129 0.0
N1060 N 0.37174 0.06119 0.12271 0.0
N1061 N 0.32548 0.02736 0.02622 0.0
H1062 H 0.9378 0.27361 0.91405 0.0
H1063 H 0.97021 0.35744 0.17267 0.0
H1064 H 0.95087 0.25175 0.07081 0.0
H1065 H 0.91645 0.34771 0.0557 0.0
H1066 H 0.97512 0.32689 0.12525 0.0
H1067 H 0.94318 0.30993 0.95558 0.0
C1068 C 0.94218 0.27655 0.95708 0.0
C1069 C 0.94324 0.25924 0.9894 0.0
C1070 C 0.96251 0.33174 0.1098 0.0
C1071 C 0.94971 0.30101 0.03654 0.0
C1072 C 0.95976 0.34916 0.13643 0.0
C1073 C 0.94286 0.35497 0.11783 0.0
C1074 C 0.94871 0.32065 0.06362 0.0
C1075 C 0.92956 0.3436 0.07129 0.0
C1076 C 0.9452 0.2973 0.98057 0.0
C1077 C 0.94955 0.26444 0.04458 0.0
N1078 N 0.93284 0.32698 0.04554 0.0
N1079 N 0.9523 0.28485 0.06673 0.0
H1080 H 0.74546 0.68622 0.1006 0.0
H1081 H 0.60817 0.58888 0.08308 0.0
H1082 H 0.70339 0.68008 0.95877 0.0
H1083 H 0.66166 0.57759 0.15893 0.0
H1084 H 0.63951 0.62866 0.0547 0.0
H1085 H 0.71025 0.65348 0.14318 0.0
C1086 C 0.72863 0.67856 0.07929 0.0
C1087 C 0.72728 0.6855 0.0259 0.0
C1088 C 0.6442 0.61738 0.07774 0.0
C1089 C 0.68734 0.6482 0.07384 0.0
C1090 C 0.62648 0.59475 0.09351 0.0
C1091 C 0.63248 0.57987 0.12241 0.0
C1092 C 0.66782 0.62524 0.09254 0.0
C1093 C 0.65636 0.58833 0.13566 0.0
C1094 C 0.70868 0.65975 0.10329 0.0
C1095 C 0.70511 0.67491 -0.0002 0.0
N1096 N 0.67316 0.61052 0.12083 0.0
N1097 N 0.68596 0.65649 0.0238 0.0
H1098 H 0.58619 0.9724 0.91563 0.0
H1099 H 0.6834 0.93231 0.89533 0.0
H1100 H 0.57458 0.90794 0.83766 0.0
H1101 H 0.67623 0.96562 0.04091 0.0
H1102 H 0.65059 0.9351 0.85403 0.0
H1103 H 0.62559 0.98 0.94537 0.0
C1104 C 0.59191 0.95986 0.90503 0.0
C1105 C 0.57705 0.93931 0.87508 0.0
C1106 C 0.65664 0.9423 0.89452 0.0
C1107 C 0.622 0.94841 0.90645 0.0
C1108 C 0.67548 0.94096 0.91782 0.0
C1109 C 0.68221 0.94846 0.97176 0.0
C1110 C 0.64484 0.9515 0.9252 0.0
C1111 C 0.67126 0.95937 -0.00062 0.0
C1112 C 0.61431 0.96428 0.92161 0.0
C1113 C 0.58531 0.92374 0.86169 0.0
N1114 N 0.65284 0.96034 0.97597 0.0
N1115 N 0.60731 0.92868 0.8772 0.0
H1116 H 0.0143 0.61009 0.91656 0.0
H1117 H 0.04778 0.7453 0.89049 0.0
H1118 H 0.07636 0.66433 0.83356 0.0
H1119 H 0.01733 0.70558 0.03861 0.0
H1120 H 0.04545 0.70993 0.84943 0.0
H1121 H 0.00459 0.64059 0.94513 0.0
C1122 C 0.02587 0.62839 0.90464 0.0
C1123 C 0.04638 0.63489 0.87365 0.0
C1124 C 0.03874 0.70888 0.89044 0.0
C1125 C 0.03484 0.66916 0.90358 0.0
C1126 C 0.03983 0.72892 0.91367 0.0
C1127 C 0.03317 0.72838 0.96829 0.0
C1128 C 0.03068 0.68825 0.92194 0.0
C1129 C 0.02303 0.70673 0.99661 0.0
C1130 C 0.02024 0.64562 0.92049 0.0
C1131 C 0.06067 0.6587 0.85847 0.0
N1132 N 0.0224 0.68749 0.97333 0.0
N1133 N 0.05456 0.67498 0.87337 0.0
H1134 H 0.24794 0.29108 0.93047 0.0
H1135 H 0.34394 0.42546 0.93688 0.0
H1136 H 0.26834 0.33117 0.08097 0.0
H1137 H 0.35231 0.37815 0.82738 0.0
H1138 H 0.3137 0.391 0.987 0.0
H1139 H 0.28447 0.32232 0.88802 0.0
C1140 C 0.2602 0.30616 0.95482 0.0
C1141 C 0.25479 0.30868 0.00904 0.0
C1142 C 0.3224 0.38821 0.95239 0.0
C1143 C 0.29609 0.3444 0.96065 0.0
C1144 C 0.33952 0.40782 0.92376 0.0
C1145 C 0.35058 0.40456 0.87819 0.0
C1146 C 0.31589 0.36525 0.93432 0.0
C1147 C 0.34427 0.38134 0.86269 0.0
C1148 C 0.28099 0.32394 0.9306 0.0
C1149 C 0.27145 0.32858 0.03875 0.0
N1150 N 0.327 0.36248 0.89023 0.0
N1151 N 0.29109 0.34588 0.01386 0.0
H1152 H 0.97041 0.34797 0.30239 0.0
H1153 H 0.07233 0.41113 0.50792 0.0
H1154 H 0.96299 0.38259 0.4452 0.0
H1155 H 0.06082 0.34584 0.43459 0.0
H1156 H 0.03249 0.40146 0.48046 0.0
H1157 H 0.00235 0.34507 0.34796 0.0
C1158 C 0.97499 0.35421 0.34407 0.0
C1159 C 0.96444 0.36589 0.36993 0.0
C1160 C 0.03863 0.38918 0.47067 0.0
C1161 C 0.00115 0.36332 0.42103 0.0
C1162 C 0.0615 0.39489 0.48536 0.0
C1163 C 0.06993 0.37942 0.47264 0.0
C1164 C 0.02429 0.36811 0.44202 0.0
C1165 C 0.05496 0.35832 0.44459 0.0
C1166 C -0.0068 0.3526 0.3699 0.0
C1167 C 0.97082 0.37359 0.42385 0.0
N1168 N 0.03286 0.3534 0.42938 0.0
N1169 N 0.98934 0.37282 0.44716 0.0
H1170 H 0.63359 0.70576 0.42244 0.0
H1171 H 0.58875 0.56729 0.42911 0.0
H1172 H 0.56651 0.65335 0.49142 0.0
H1173 H 0.62872 0.61114 0.29281 0.0
H1174 H 0.59018 0.60204 0.4719 0.0
H1175 H 0.64011 0.67359 0.3907 0.0
C1176 C 0.62022 0.68752 0.43057 0.0
C1177 C 0.59933 0.68212 0.45882 0.0
C1178 C 0.59905 0.60407 0.43316 0.0
C1179 C 0.60711 0.64569 0.42489 0.0
C1180 C 0.5985 0.58439 0.40912 0.0
C1181 C 0.60846 0.58644 0.35728 0.0
C1182 C 0.60992 0.62586 0.40539 0.0
C1183 C 0.62066 0.60891 0.33269 0.0
C1184 C 0.62401 0.66929 0.41282 0.0
C1185 C 0.58265 0.65824 0.46889 0.0
N1186 N 0.6209 0.62781 0.35681 0.0
N1187 N 0.58698 0.64089 0.45224 0.0
H1188 H 0.40836 0.02378 0.4452 0.0
H1189 H 0.27253 0.92339 0.41749 0.0
H1190 H 0.36671 0.01851 0.30322 0.0
H1191 H 0.32688 0.91411 0.49556 0.0
H1192 H 0.3028 0.9643 0.39396 0.0
H1193 H 0.37315 0.99055 0.48634 0.0
C1194 C 0.39159 0.01627 0.42367 0.0
C1195 C 0.39041 0.02348 0.37043 0.0
C1196 C 0.30792 0.95322 0.41645 0.0
C1197 C 0.3505 0.98555 0.41662 0.0
C1198 C 0.29081 0.92994 0.42938 0.0
C1199 C 0.29739 0.9153 0.45743 0.0
C1200 C 0.33147 0.96193 0.43318 0.0
C1201 C 0.32118 0.92465 0.47275 0.0
C1202 C 0.37163 -0.00284 0.44683 0.0
C1203 C 0.3683 0.01309 0.34409 0.0
N1204 N 0.33736 0.94743 0.46058 0.0
N1205 N 0.34919 -0.00571 0.36711 0.0
H1206 H 0.14061 0.30276 0.19726 0.0
H1207 H 0.15458 0.33477 0.515 0.0
H1208 H 0.15911 0.2658 0.31636 0.0
H1209 H 0.14808 0.37784 0.38968 0.0
H1210 H 0.1548 0.30832 0.44446 0.0
H1211 H 0.13959 0.32797 0.26945 0.0
C1212 C 0.14405 0.29966 0.23886 0.0
C1213 C 0.1501 0.2822 0.2507 0.0
C1214 C 0.15354 0.32367 0.43236 0.0
C1215 C 0.14941 0.31144 0.33367 0.0
C1216 C 0.15357 0.33889 0.47257 0.0
C1217 C 0.15125 0.35858 0.45828 0.0
C1218 C 0.15095 0.32799 0.3774 0.0
C1219 C 0.15002 0.363 0.40266 0.0
C1220 C 0.14369 0.31425 0.28001 0.0
C1221 C 0.15426 0.27895 0.3054 0.0
N1222 N 0.14965 0.34768 0.36433 0.0
N1223 N 0.15406 0.29361 0.34487 0.0
H1224 H 0.71612 0.88693 0.29405 0.0
H1225 H 0.59882 0.76411 0.36961 0.0
H1226 H 0.66735 0.83835 0.17427 0.0
H1227 H 0.64871 0.81166 0.48912 0.0
H1228 H 0.62302 0.79177 0.29746 0.0
H1229 H 0.69195 0.85932 0.36622 0.0
C1230 C 0.70058 0.87033 0.28281 0.0
C1231 C 0.69377 0.86507 0.22791 0.0
C1232 C 0.62858 0.79619 0.33955 0.0
C1233 C 0.66571 0.83357 0.3104 0.0
C1234 C 0.61461 0.78051 0.3808 0.0
C1235 C 0.62174 0.78546 0.43557 0.0
C1236 C 0.6498 0.817 0.35315 0.0
C1237 C 0.64255 0.80695 0.44748 0.0
C1238 C 0.68664 0.85466 0.32407 0.0
C1239 C 0.67328 0.8433 0.21597 0.0
N1240 N 0.65586 0.82181 0.40671 0.0
N1241 N 0.65995 0.82848 0.25678 0.0
H1242 H 0.09639 0.82391 0.28712 0.0
H1243 H 0.22054 0.832 0.36051 0.0
H1244 H 0.14546 0.82547 0.16606 0.0
H1245 H 0.16955 0.82676 0.48083 0.0
H1246 H 0.19326 0.82941 0.28837 0.0
H1247 H 0.12397 0.82686 0.35874 0.0
C1248 C 0.11312 0.8253 0.27552 0.0
C1249 C 0.11852 0.82431 0.22046 0.0
C1250 C 0.188 0.82866 0.3306 0.0
C1251 C 0.14996 0.82717 0.30223 0.0
C1252 C 0.20348 0.82989 0.3718 0.0
C1253 C 0.19743 0.82972 0.42688 0.0
C1254 C 0.16635 0.82729 0.3446 0.0
C1255 C 0.1751 0.82715 0.43898 0.0
C1256 C 0.12876 0.82671 0.31645 0.0
C1257 C 0.14043 0.82599 0.20797 0.0
N1258 N 0.1605 0.82621 0.39827 0.0
N1259 N 0.15524 0.82718 0.24847 0.0
H1260 H 0.82775 0.6501 0.49984 0.0
H1261 H 0.82204 0.66974 0.82054 0.0
H1262 H 0.82974 0.6035 0.62259 0.0
H1263 H 0.81882 0.71571 0.69787 0.0
H1264 H 0.82581 0.64595 0.74871 0.0
H1265 H 0.82377 0.67384 0.57157 0.0
C1266 C 0.82706 0.64466 0.54192 0.0
C1267 C 0.82919 0.62476 0.55513 0.0
C1268 C 0.82442 0.6613 0.7374 0.0
C1269 C 0.82497 0.65224 0.6378 0.0
C1270 C 0.8224 0.67504 0.77845 0.0
C1271 C 0.81999 0.69478 0.76532 0.0
C1272 C 0.824 0.66722 0.68252 0.0
C1273 C 0.82071 0.70074 0.71001 0.0
C1274 C 0.82491 0.65835 0.58291 0.0
C1275 C 0.82806 0.61859 0.6104 0.0
N1276 N 0.82248 0.68691 0.67064 0.0
N1277 N 0.82622 0.6324 0.64971 0.0
H1278 H 0.31088 0.14788 0.81576 0.0
H1279 H 0.33317 0.17088 0.49496 0.0
H1280 H 0.26562 0.09787 0.69362 0.0
H1281 H 0.37827 0.22036 0.61817 0.0
H1282 H 0.30874 0.14361 0.56673 0.0
H1283 H 0.33506 0.17494 0.74365 0.0
C1284 C 0.30582 0.14269 0.77367 0.0
C1285 C 0.28621 0.12047 0.76076 0.0
C1286 C 0.32406 0.16035 0.57812 0.0
C1287 C 0.3142 0.15139 0.67768 0.0
C1288 C 0.33816 0.17591 0.53714 0.0
C1289 C 0.3578 0.19807 0.55048 0.0
C1290 C 0.32955 0.16693 0.63302 0.0
C1291 C 0.36338 0.2035 0.60587 0.0
C1292 C 0.31977 0.15814 0.73247 0.0
C1293 C 0.2805 0.11484 0.70549 0.0
N1294 N 0.34921 0.18812 0.64508 0.0
N1295 N 0.29456 0.13012 0.66594 0.0
H1296 H 0.76261 0.15152 0.61246 0.0
H1297 H 0.88622 0.15845 0.68533 0.0
H1298 H 0.80962 0.14972 0.49038 0.0
H1299 H 0.83324 0.14879 0.80473 0.0
H1300 H 0.85906 0.15596 0.61276 0.0
H1301 H 0.78995 0.15337 0.68344 0.0
C1302 C 0.77885 0.15191 0.60049 0.0
C1303 C 0.78373 0.15037 0.54532 0.0
C1304 C 0.85334 0.15417 0.65488 0.0
C1305 C 0.81494 0.15204 0.62645 0.0
C1306 C 0.86875 0.15533 0.69629 0.0
C1307 C 0.8621 0.15397 0.75129 0.0
C1308 C 0.83121 0.15174 0.66867 0.0
C1309 C 0.83927 0.15015 0.76297 0.0
C1310 C 0.79434 0.15269 0.64107 0.0
C1311 C 0.80501 0.15074 0.53239 0.0
N1312 N 0.8248 0.14941 0.72217 0.0
N1313 N 0.81976 0.15144 0.57258 0.0
H1314 H 0.48577 0.05053 0.0461 0.0
H1315 H 0.4909 0.93325 0.96854 0.0
H1316 H 0.47779 -0.00215 0.16453 0.0
H1317 H 0.49218 0.98319 0.85052 0.0
H1318 H 0.48604 0.95638 0.04136 0.0
H1319 H 0.48991 0.02669 0.97439 0.0
C1320 C 0.4852 0.03414 0.05721 0.0
C1321 C 0.48134 0.02621 0.11152 0.0
C1322 C 0.48722 0.96214 -0.00057 0.0
C1323 C 0.48569 -0.00143 0.02937 0.0
C1324 C 0.48978 0.94881 0.9578 0.0
C1325 C 0.4921 0.9563 0.90326 0.0
C1326 C 0.48704 0.98312 0.98639 0.0
C1327 C 0.49069 0.97677 0.89193 0.0
C1328 C 0.48735 0.02039 0.01614 0.0
C1329 C 0.48062 0.00467 0.12324 0.0
N1330 N 0.48843 0.9895 0.93304 0.0
N1331 N 0.48268 0.99159 0.08256 0.0
H1332 H 0.93798 0.43667 0.04565 0.0
H1333 H 0.05567 0.55784 0.96598 0.0
H1334 H -0.00801 0.4799 0.16309 0.0
H1335 H 0.00656 0.50771 0.84892 0.0
H1336 H 0.03247 0.53045 0.03963 0.0
H1337 H 0.9618 0.46454 0.97398 0.0
C1338 C 0.95465 0.45219 0.05659 0.0
C1339 C 0.963 0.45583 0.11053 0.0
C1340 C 0.02693 0.52543 -0.00227 0.0
C1341 C -0.00939 0.48766 0.02837 0.0
C1342 C 0.04029 0.54096 0.95565 0.0
C1343 C 0.03301 0.53518 0.90112 0.0
C1344 C 0.00612 0.50407 0.98511 0.0
C1345 C 0.01279 0.51309 0.89029 0.0
C1346 C 0.96839 0.46799 0.0155 0.0
C1347 C 0.98487 0.47625 0.12203 0.0
N1348 N 0.0 0.49848 0.93183 0.0
N1349 N -0.00204 0.49133 0.08129 0.0
H1350 H 0.47579 0.47631 0.82408 0.0
H1351 H 0.50399 0.49227 0.1434 0.0
H1352 H 0.43474 0.48964 0.94293 0.0
H1353 H 0.55417 0.4944 0.02469 0.0
H1354 H 0.47691 0.48753 0.0699 0.0
H1355 H 0.50387 0.48085 0.89591 0.0
C1356 C 0.4728 0.48047 0.86511 0.0
C1357 C 0.45275 0.48251 0.87743 0.0
C1358 C 0.49379 0.48895 0.05976 0.0
C1359 C 0.48469 0.4873 0.95997 0.0
C1360 C 0.50927 0.4915 0.10182 0.0
C1361 C 0.53156 0.49394 0.09031 0.0
C1362 C 0.50046 0.48873 0.00542 0.0
C1363 C 0.53719 0.49257 0.03553 0.0
C1364 C 0.48882 0.48296 0.90611 0.0
C1365 C 0.4499 0.48795 0.93135 0.0
N1366 N 0.52178 0.49019 0.99501 0.0
N1367 N 0.46555 0.48994 0.97063 0.0
loop_
_geom_bond_atom_site_label_1
_geom_bond_atom_site_label_2
_geom_bond_distance
_geom_bond_site_symmetry_2
_ccdc_geom_bond_type
Sc0 O3 2.025 1_556 S
Sc0 O10 2.105 . S
Sc0 O13 2.105 . S
Sc0 O16 2.105 . S
Sc0 O19 2.105 . S
Sc1 O3 2.025 . S
Sc1 O11 2.105 . S
Sc1 O15 2.105 . S
Sc1 O17 2.105 . S
Sc1 O21 2.105 . S
Sc2 O3 2.025 . S
Sc2 O12 2.105 . S
Sc2 O14 2.105 . S
Sc2 O18 2.105 . S
Sc2 O20 2.105 . S
O3 Sc0 2.025 1_554 S
O3 Sc1 2.025 . S
O3 Sc2 2.025 . S
C4 O10 1.268 1_554 S
C4 O20 1.268 . S
C5 O11 1.268 1_556 S
C5 O19 1.268 . S
C6 O12 1.268 . S
C6 O21 1.268 . S
C7 O13 1.268 . S
C7 O17 1.268 1_556 S
C8 O14 1.268 . S
C8 O16 1.268 1_554 S
C9 O15 1.268 . S
C9 O18 1.268 . S
O10 Sc0 2.105 . S
O10 C4 1.268 1_556 S
O11 Sc1 2.105 . S
O11 C5 1.268 1_554 S
O12 Sc2 2.105 . S
O12 C6 1.268 . S
O13 Sc0 2.105 . S
O13 C7 1.268 . S
O14 Sc2 2.105 . S
O14 C8 1.268 . S
O15 Sc1 2.105 . S
O15 C9 1.268 . S
O16 Sc0 2.105 . S
O16 C8 1.268 1_556 S
O17 Sc1 2.105 . S
O17 C7 1.268 1_554 S
O18 Sc2 2.105 . S
O18 C9 1.268 . S
O19 Sc0 2.105 . S
O19 C5 1.268 . S
O20 Sc2 2.105 . S
O20 C4 1.268 . S
O21 Sc1 2.105 . S
O21 C6 1.268 . S
Sc22 O25 2.025 1_556 S
Sc22 O32 2.105 . S
Sc22 O35 2.105 . S
Sc22 O38 2.105 . S
Sc22 O41 2.105 . S
Sc23 O25 2.025 . S
Sc23 O33 2.105 . S
Sc23 O37 2.105 . S
Sc23 O39 2.105 . S
Sc23 O43 2.105 . S
Sc24 O25 2.025 . S
Sc24 O34 2.105 . S
Sc24 O36 2.105 . S
Sc24 O40 2.105 . S
Sc24 O42 2.105 . S
O25 Sc22 2.025 1_554 S
O25 Sc23 2.025 . S
O25 Sc24 2.025 . S
C26 O32 1.268 1_554 S
C26 O42 1.268 . S
C27 O33 1.268 1_556 S
C27 O41 1.268 . S
C28 O34 1.268 . S
C28 O43 1.268 . S
C29 O35 1.268 . S
C29 O39 1.268 1_556 S
C30 O36 1.268 . S
C30 O38 1.268 1_554 S
C31 O37 1.268 . S
C31 O40 1.268 . S
O32 Sc22 2.105 . S
O32 C26 1.268 1_556 S
O33 Sc23 2.105 . S
O33 C27 1.268 1_554 S
O34 Sc24 2.105 . S
O34 C28 1.268 . S
O35 Sc22 2.105 . S
O35 C29 1.268 . S
O36 Sc24 2.105 . S
O36 C30 1.268 . S
O37 Sc23 2.105 . S
O37 C31 1.268 . S
O38 Sc22 2.105 . S
O38 C30 1.268 1_556 S
O39 Sc23 2.105 . S
O39 C29 1.268 1_554 S
O40 Sc24 2.105 . S
O40 C31 1.268 . S
O41 Sc22 2.105 . S
O41 C27 1.268 . S
O42 Sc24 2.105 . S
O42 C26 1.268 . S
O43 Sc23 2.105 . S
O43 C28 1.268 . S
Sc44 O47 2.025 1_556 S
Sc44 O54 2.105 . S
Sc44 O57 2.105 . S
Sc44 O60 2.105 . S
Sc44 O63 2.105 . S
Sc45 O47 2.025 . S
Sc45 O55 2.105 . S
Sc45 O59 2.105 . S
Sc45 O61 2.105 . S
Sc45 O65 2.105 . S
Sc46 O47 2.025 . S
Sc46 O56 2.105 . S
Sc46 O58 2.105 . S
Sc46 O62 2.105 . S
Sc46 O64 2.105 . S
O47 Sc44 2.025 1_554 S
O47 Sc45 2.025 . S
O47 Sc46 2.025 . S
C48 O54 1.268 1_554 S
C48 O64 1.268 . S
C49 O55 1.268 1_556 S
C49 O63 1.268 . S
C50 O56 1.268 . S
C50 O65 1.268 . S
C51 O57 1.268 . S
C51 O61 1.268 1_556 S
C52 O58 1.268 . S
C52 O60 1.268 1_554 S
C53 O59 1.268 . S
C53 O62 1.268 . S
O54 Sc44 2.105 . S
O54 C48 1.268 1_556 S
O55 Sc45 2.105 . S
O55 C49 1.268 1_554 S
O56 Sc46 2.105 . S
O56 C50 1.268 . S
O57 Sc44 2.105 . S
O57 C51 1.268 . S
O58 Sc46 2.105 . S
O58 C52 1.268 . S
O59 Sc45 2.105 . S
O59 C53 1.268 . S
O60 Sc44 2.105 . S
O60 C52 1.268 1_556 S
O61 Sc45 2.105 . S
O61 C51 1.268 1_554 S
O62 Sc46 2.105 . S
O62 C53 1.268 . S
O63 Sc44 2.105 . S
O63 C49 1.268 . S
O64 Sc46 2.105 . S
O64 C48 1.268 . S
O65 Sc45 2.105 . S
O65 C50 1.268 . S
Sc66 O69 2.025 . S
Sc66 O76 2.105 . S
Sc66 O79 2.105 . S
Sc66 O82 2.105 . S
Sc66 O85 2.105 . S
Sc67 O69 2.025 . S
Sc67 O77 2.105 . S
Sc67 O81 2.105 . S
Sc67 O83 2.105 . S
Sc67 O87 2.105 . S
Sc68 O69 2.025 1_554 S
Sc68 O78 2.105 . S
Sc68 O80 2.105 . S
Sc68 O84 2.105 . S
Sc68 O86 2.105 . S
O69 Sc66 2.025 . S
O69 Sc67 2.025 . S
O69 Sc68 2.025 1_556 S
C70 O76 1.268 . S
C70 O86 1.268 1_556 S
C71 O77 1.268 . S
C71 O85 1.268 . S
C72 O78 1.268 . S
C72 O87 1.268 1_554 S
C73 O79 1.268 . S
C73 O83 1.268 . S
C74 O80 1.268 1_556 S
C74 O82 1.268 . S
C75 O81 1.268 1_554 S
C75 O84 1.268 . S
O76 Sc66 2.105 . S
O76 C70 1.268 . S
O77 Sc67 2.105 . S
O77 C71 1.268 . S
O78 Sc68 2.105 . S
O78 C72 1.268 . S
O79 Sc66 2.105 . S
O79 C73 1.268 . S
O80 Sc68 2.105 . S
O80 C74 1.268 1_554 S
O81 Sc67 2.105 . S
O81 C75 1.268 1_556 S
O82 Sc66 2.105 . S
O82 C74 1.268 . S
O83 Sc67 2.105 . S
O83 C73 1.268 . S
O84 Sc68 2.105 . S
O84 C75 1.268 . S
O85 Sc66 2.105 . S
O85 C71 1.268 . S
O86 Sc68 2.105 . S
O86 C70 1.268 1_554 S
O87 Sc67 2.105 . S
O87 C72 1.268 1_556 S
Sc88 O91 2.025 . S
Sc88 O98 2.105 . S
Sc88 O101 2.105 . S
Sc88 O104 2.105 . S
Sc88 O107 2.105 . S
Sc89 O91 2.025 . S
Sc89 O99 2.105 . S
Sc89 O103 2.105 . S
Sc89 O105 2.105 . S
Sc89 O109 2.105 . S
Sc90 O91 2.025 1_554 S
Sc90 O100 2.105 . S
Sc90 O102 2.105 . S
Sc90 O106 2.105 . S
Sc90 O108 2.105 . S
O91 Sc88 2.025 . S
O91 Sc89 2.025 . S
O91 Sc90 2.025 1_556 S
C92 O98 1.268 . S
C92 O108 1.268 1_556 S
C93 O99 1.268 . S
C93 O107 1.268 . S
C94 O100 1.268 . S
C94 O109 1.268 1_554 S
C95 O101 1.268 . S
C95 O105 1.268 . S
C96 O102 1.268 1_556 S
C96 O104 1.268 . S
C97 O103 1.268 1_554 S
C97 O106 1.268 . S
O98 Sc88 2.105 . S
O98 C92 1.268 . S
O99 Sc89 2.105 . S
O99 C93 1.268 . S
O100 Sc90 2.105 . S
O100 C94 1.268 . S
O101 Sc88 2.105 . S
O101 C95 1.268 . S
O102 Sc90 2.105 . S
O102 C96 1.268 1_554 S
O103 Sc89 2.105 . S
O103 C97 1.268 1_556 S
O104 Sc88 2.105 . S
O104 C96 1.268 . S
O105 Sc89 2.105 . S
O105 C95 1.268 . S
O106 Sc90 2.105 . S
O106 C97 1.268 . S
O107 Sc88 2.105 . S
O107 C93 1.268 . S
O108 Sc90 2.105 . S
O108 C92 1.268 1_554 S
O109 Sc89 2.105 . S
O109 C94 1.268 1_556 S
Sc110 O113 2.025 . S
Sc110 O120 2.105 . S
Sc110 O123 2.105 . S
Sc110 O126 2.105 . S
Sc110 O129 2.105 . S
Sc111 O113 2.025 . S
Sc111 O121 2.105 . S
Sc111 O125 2.105 . S
Sc111 O127 2.105 . S
Sc111 O131 2.105 . S
Sc112 O113 2.025 1_554 S
Sc112 O122 2.105 . S
Sc112 O124 2.105 . S
Sc112 O128 2.105 . S
Sc112 O130 2.105 . S
O113 Sc110 2.025 . S
O113 Sc111 2.025 . S
O113 Sc112 2.025 1_556 S
C114 O120 1.268 . S
C114 O130 1.268 1_556 S
C115 O121 1.268 . S
C115 O129 1.268 . S
C116 O122 1.268 . S
C116 O131 1.268 1_554 S
C117 O123 1.268 . S
C117 O127 1.268 . S
C118 O124 1.268 1_556 S
C118 O126 1.268 . S
C119 O125 1.268 1_554 S
C119 O128 1.268 . S
O120 Sc110 2.105 . S
O120 C114 1.268 . S
O121 Sc111 2.105 . S
O121 C115 1.268 . S
O122 Sc112 2.105 . S
O122 C116 1.268 . S
O123 Sc110 2.105 . S
O123 C117 1.268 . S
O124 Sc112 2.105 . S
O124 C118 1.268 1_554 S
O125 Sc111 2.105 . S
O125 C119 1.268 1_556 S
O126 Sc110 2.105 . S
O126 C118 1.268 . S
O127 Sc111 2.105 . S
O127 C117 1.268 . S
O128 Sc112 2.105 . S
O128 C119 1.268 . S
O129 Sc110 2.105 . S
O129 C115 1.268 . S
O130 Sc112 2.105 . S
O130 C114 1.268 1_554 S
O131 Sc111 2.105 . S
O131 C116 1.268 1_556 S
Sc132 O135 2.025 . S
Sc132 O142 2.105 . S
Sc132 O145 2.105 . S
Sc132 O148 2.105 . S
Sc132 O151 2.105 . S
Sc133 O135 2.025 . S
Sc133 O143 2.105 . S
Sc133 O147 2.105 . S
Sc133 O149 2.105 . S
Sc133 O153 2.105 . S
Sc134 O135 2.025 . S
Sc134 O144 2.105 . S
Sc134 O146 2.105 . S
Sc134 O150 2.105 . S
Sc134 O152 2.105 . S
O135 Sc132 2.025 . S
O135 Sc133 2.025 . S
O135 Sc134 2.025 . S
C136 O142 1.268 . S
C136 O152 1.268 . S
C137 O143 1.268 . S
C137 O151 1.268 . S
C138 O144 1.268 . S
C138 O153 1.268 . S
C139 O145 1.268 . S
C139 O149 1.268 . S
C140 O146 1.268 . S
C140 O148 1.268 . S
C141 O147 1.268 . S
C141 O150 1.268 . S
O142 Sc132 2.105 . S
O142 C136 1.268 . S
O143 Sc133 2.105 . S
O143 C137 1.268 . S
O144 Sc134 2.105 . S
O144 C138 1.268 . S
O145 Sc132 2.105 . S
O145 C139 1.268 . S
O146 Sc134 2.105 . S
O146 C140 1.268 . S
O147 Sc133 2.105 . S
O147 C141 1.268 . S
O148 Sc132 2.105 . S
O148 C140 1.268 . S
O149 Sc133 2.105 . S
O149 C139 1.268 . S
O150 Sc134 2.105 . S
O150 C141 1.268 . S
O151 Sc132 2.105 . S
O151 C137 1.268 . S
O152 Sc134 2.105 . S
O152 C136 1.268 . S
O153 Sc133 2.105 . S
O153 C138 1.268 . S
Sc154 O157 2.025 . S
Sc154 O164 2.105 . S
Sc154 O167 2.105 . S
Sc154 O170 2.105 . S
Sc154 O173 2.105 . S
Sc155 O157 2.025 . S
Sc155 O165 2.105 . S
Sc155 O169 2.105 . S
Sc155 O171 2.105 . S
Sc155 O175 2.105 . S
Sc156 O157 2.025 . S
Sc156 O166 2.105 . S
Sc156 O168 2.105 . S
Sc156 O172 2.105 . S
Sc156 O174 2.105 . S
O157 Sc154 2.025 . S
O157 Sc155 2.025 . S
O157 Sc156 2.025 . S
C158 O164 1.268 . S
C158 O174 1.268 . S
C159 O165 1.268 . S
C159 O173 1.268 . S
C160 O166 1.268 . S
C160 O175 1.268 . S
C161 O167 1.268 . S
C161 O171 1.268 . S
C162 O168 1.268 . S
C162 O170 1.268 . S
C163 O169 1.268 . S
C163 O172 1.268 . S
O164 Sc154 2.105 . S
O164 C158 1.268 . S
O165 Sc155 2.105 . S
O165 C159 1.268 . S
O166 Sc156 2.105 . S
O166 C160 1.268 . S
O167 Sc154 2.105 . S
O167 C161 1.268 . S
O168 Sc156 2.105 . S
O168 C162 1.268 . S
O169 Sc155 2.105 . S
O169 C163 1.268 . S
O170 Sc154 2.105 . S
O170 C162 1.268 . S
O171 Sc155 2.105 . S
O171 C161 1.268 . S
O172 Sc156 2.105 . S
O172 C163 1.268 . S
O173 Sc154 2.105 . S
O173 C159 1.268 . S
O174 Sc156 2.105 . S
O174 C158 1.268 . S
O175 Sc155 2.105 . S
O175 C160 1.268 . S
Sc176 O179 2.025 . S
Sc176 O186 2.105 . S
Sc176 O189 2.105 . S
Sc176 O192 2.105 . S
Sc176 O195 2.105 . S
Sc177 O179 2.025 . S
Sc177 O187 2.105 . S
Sc177 O191 2.105 . S
Sc177 O193 2.105 . S
Sc177 O197 2.105 . S
Sc178 O179 2.025 . S
Sc178 O188 2.105 . S
Sc178 O190 2.105 . S
Sc178 O194 2.105 . S
Sc178 O196 2.105 . S
O179 Sc176 2.025 . S
O179 Sc177 2.025 . S
O179 Sc178 2.025 . S
C180 O186 1.268 . S
C180 O196 1.268 . S
C181 O187 1.268 . S
C181 O195 1.268 . S
C182 O188 1.268 . S
C182 O197 1.268 . S
C183 O189 1.268 . S
C183 O193 1.268 . S
C184 O190 1.268 . S
C184 O192 1.268 . S
C185 O191 1.268 . S
C185 O194 1.268 . S
O186 Sc176 2.105 . S
O186 C180 1.268 . S
O187 Sc177 2.105 . S
O187 C181 1.268 . S
O188 Sc178 2.105 . S
O188 C182 1.268 . S
O189 Sc176 2.105 . S
O189 C183 1.268 . S
O190 Sc178 2.105 . S
O190 C184 1.268 . S
O191 Sc177 2.105 . S
O191 C185 1.268 . S
O192 Sc176 2.105 . S
O192 C184 1.268 . S
O193 Sc177 2.105 . S
O193 C183 1.268 . S
O194 Sc178 2.105 . S
O194 C185 1.268 . S
O195 Sc176 2.105 . S
O195 C181 1.268 . S
O196 Sc178 2.105 . S
O196 C180 1.268 . S
O197 Sc177 2.105 . S
O197 C182 1.268 . S
Sc198 O201 2.025 . S
Sc198 O208 2.105 . S
Sc198 O211 2.105 . S
Sc198 O214 2.105 . S
Sc198 O217 2.105 . S
Sc199 O201 2.025 . S
Sc199 O209 2.105 . S
Sc199 O213 2.105 . S
Sc199 O215 2.105 . S
Sc199 O219 2.105 . S
Sc200 O201 2.025 . S
Sc200 O210 2.105 . S
Sc200 O212 2.105 . S
Sc200 O216 2.105 . S
Sc200 O218 2.105 . S
O201 Sc198 2.025 . S
O201 Sc199 2.025 . S
O201 Sc200 2.025 . S
C202 O208 1.268 . S
C202 O218 1.268 . S
C203 O209 1.268 . S
C203 O217 1.268 . S
C204 O210 1.268 . S
C204 O219 1.268 . S
C205 O211 1.268 . S
C205 O215 1.268 . S
C206 O212 1.268 . S
C206 O214 1.268 . S
C207 O213 1.268 . S
C207 O216 1.268 . S
O208 Sc198 2.105 . S
O208 C202 1.268 . S
O209 Sc199 2.105 . S
O209 C203 1.268 . S
O210 Sc200 2.105 . S
O210 C204 1.268 . S
O211 Sc198 2.105 . S
O211 C205 1.268 . S
O212 Sc200 2.105 . S
O212 C206 1.268 . S
O213 Sc199 2.105 . S
O213 C207 1.268 . S
O214 Sc198 2.105 . S
O214 C206 1.268 . S
O215 Sc199 2.105 . S
O215 C205 1.268 . S
O216 Sc200 2.105 . S
O216 C207 1.268 . S
O217 Sc198 2.105 . S
O217 C203 1.268 . S
O218 Sc200 2.105 . S
O218 C202 1.268 . S
O219 Sc199 2.105 . S
O219 C204 1.268 . S
Sc220 O223 2.025 . S
Sc220 O230 2.105 . S
Sc220 O233 2.105 . S
Sc220 O236 2.105 . S
Sc220 O239 2.105 . S
Sc221 O223 2.025 . S
Sc221 O231 2.105 . S
Sc221 O235 2.105 . S
Sc221 O237 2.105 . S
Sc221 O241 2.105 . S
Sc222 O223 2.025 . S
Sc222 O232 2.105 . S
Sc222 O234 2.105 . S
Sc222 O238 2.105 . S
Sc222 O240 2.105 . S
O223 Sc220 2.025 . S
O223 Sc221 2.025 . S
O223 Sc222 2.025 . S
C224 O230 1.268 . S
C224 O240 1.268 . S
C225 O231 1.268 . S
C225 O239 1.268 . S
C226 O232 1.268 . S
C226 O241 1.268 . S
C227 O233 1.268 . S
C227 O237 1.268 . S
C228 O234 1.268 . S
C228 O236 1.268 . S
C229 O235 1.268 . S
C229 O238 1.268 . S
O230 Sc220 2.105 . S
O230 C224 1.268 . S
O231 Sc221 2.105 . S
O231 C225 1.268 . S
O232 Sc222 2.105 . S
O232 C226 1.268 . S
O233 Sc220 2.105 . S
O233 C227 1.268 . S
O234 Sc222 2.105 . S
O234 C228 1.268 . S
O235 Sc221 2.105 . S
O235 C229 1.268 . S
O236 Sc220 2.105 . S
O236 C228 1.268 . S
O237 Sc221 2.105 . S
O237 C227 1.268 . S
O238 Sc222 2.105 . S
O238 C229 1.268 . S
O239 Sc220 2.105 . S
O239 C225 1.268 . S
O240 Sc222 2.105 . S
O240 C224 1.268 . S
O241 Sc221 2.105 . S
O241 C226 1.268 . S
Sc242 O245 2.025 . S
Sc242 O252 2.105 . S
Sc242 O255 2.105 . S
Sc242 O258 2.105 . S
Sc242 O261 2.105 . S
Sc243 O245 2.025 . S
Sc243 O253 2.105 . S
Sc243 O257 2.105 . S
Sc243 O259 2.105 . S
Sc243 O263 2.105 . S
Sc244 O245 2.025 . S
Sc244 O254 2.105 . S
Sc244 O256 2.105 . S
Sc244 O260 2.105 . S
Sc244 O262 2.105 . S
O245 Sc242 2.025 . S
O245 Sc243 2.025 . S
O245 Sc244 2.025 . S
C246 O252 1.268 . S
C246 O262 1.268 . S
C247 O253 1.268 . S
C247 O261 1.268 . S
C248 O254 1.268 . S
C248 O263 1.268 . S
C249 O255 1.268 . S
C249 O259 1.268 . S
C250 O256 1.268 . S
C250 O258 1.268 . S
C251 O257 1.268 . S
C251 O260 1.268 . S
O252 Sc242 2.105 . S
O252 C246 1.268 . S
O253 Sc243 2.105 . S
O253 C247 1.268 . S
O254 Sc244 2.105 . S
O254 C248 1.268 . S
O255 Sc242 2.105 . S
O255 C249 1.268 . S
O256 Sc244 2.105 . S
O256 C250 1.268 . S
O257 Sc243 2.105 . S
O257 C251 1.268 . S
O258 Sc242 2.105 . S
O258 C250 1.268 . S
O259 Sc243 2.105 . S
O259 C249 1.268 . S
O260 Sc244 2.105 . S
O260 C251 1.268 . S
O261 Sc242 2.105 . S
O261 C247 1.268 . S
O262 Sc244 2.105 . S
O262 C246 1.268 . S
O263 Sc243 2.105 . S
O263 C248 1.268 . S
Sc264 O267 2.025 . S
Sc264 O274 2.105 . S
Sc264 O277 2.105 . S
Sc264 O280 2.105 . S
Sc264 O283 2.105 . S
Sc265 O267 2.025 . S
Sc265 O275 2.105 . S
Sc265 O279 2.105 . S
Sc265 O281 2.105 . S
Sc265 O285 2.105 . S
Sc266 O267 2.025 . S
Sc266 O276 2.105 . S
Sc266 O278 2.105 . S
Sc266 O282 2.105 . S
Sc266 O284 2.105 . S
O267 Sc264 2.025 . S
O267 Sc265 2.025 . S
O267 Sc266 2.025 . S
C268 O274 1.268 . S
C268 O284 1.268 . S
C269 O275 1.268 . S
C269 O283 1.268 . S
C270 O276 1.268 . S
C270 O285 1.268 . S
C271 O277 1.268 . S
C271 O281 1.268 . S
C272 O278 1.268 . S
C272 O280 1.268 . S
C273 O279 1.268 . S
C273 O282 1.268 . S
O274 Sc264 2.105 . S
O274 C268 1.268 . S
O275 Sc265 2.105 . S
O275 C269 1.268 . S
O276 Sc266 2.105 . S
O276 C270 1.268 . S
O277 Sc264 2.105 . S
O277 C271 1.268 . S
O278 Sc266 2.105 . S
O278 C272 1.268 . S
O279 Sc265 2.105 . S
O279 C273 1.268 . S
O280 Sc264 2.105 . S
O280 C272 1.268 . S
O281 Sc265 2.105 . S
O281 C271 1.268 . S
O282 Sc266 2.105 . S
O282 C273 1.268 . S
O283 Sc264 2.105 . S
O283 C269 1.268 . S
O284 Sc266 2.105 . S
O284 C268 1.268 . S
O285 Sc265 2.105 . S
O285 C270 1.268 . S
Sc286 O289 2.025 . S
Sc286 O296 2.105 . S
Sc286 O299 2.105 . S
Sc286 O302 2.105 . S
Sc286 O305 2.105 . S
Sc287 O289 2.025 . S
Sc287 O297 2.105 . S
Sc287 O301 2.105 . S
Sc287 O303 2.105 . S
Sc287 O307 2.105 . S
Sc288 O289 2.025 . S
Sc288 O298 2.105 . S
Sc288 O300 2.105 . S
Sc288 O304 2.105 . S
Sc288 O306 2.105 . S
O289 Sc286 2.025 . S
O289 Sc287 2.025 . S
O289 Sc288 2.025 . S
C290 O296 1.268 . S
C290 O306 1.268 . S
C291 O297 1.268 . S
C291 O305 1.268 . S
C292 O298 1.268 . S
C292 O307 1.268 . S
C293 O299 1.268 . S
C293 O303 1.268 . S
C294 O300 1.268 . S
C294 O302 1.268 . S
C295 O301 1.268 . S
C295 O304 1.268 . S
O296 Sc286 2.105 . S
O296 C290 1.268 . S
O297 Sc287 2.105 . S
O297 C291 1.268 . S
O298 Sc288 2.105 . S
O298 C292 1.268 . S
O299 Sc286 2.105 . S
O299 C293 1.268 . S
O300 Sc288 2.105 . S
O300 C294 1.268 . S
O301 Sc287 2.105 . S
O301 C295 1.268 . S
O302 Sc286 2.105 . S
O302 C294 1.268 . S
O303 Sc287 2.105 . S
O303 C293 1.268 . S
O304 Sc288 2.105 . S
O304 C295 1.268 . S
O305 Sc286 2.105 . S
O305 C291 1.268 . S
O306 Sc288 2.105 . S
O306 C290 1.268 . S
O307 Sc287 2.105 . S
O307 C292 1.268 . S
Sc308 O311 2.025 . S
Sc308 O318 2.105 . S
Sc308 O321 2.105 . S
Sc308 O324 2.105 . S
Sc308 O327 2.105 . S
Sc309 O311 2.025 . S
Sc309 O319 2.105 . S
Sc309 O323 2.105 . S
Sc309 O325 2.105 . S
Sc309 O329 2.105 . S
Sc310 O311 2.025 . S
Sc310 O320 2.105 . S
Sc310 O322 2.105 . S
Sc310 O326 2.105 . S
Sc310 O328 2.105 . S
O311 Sc308 2.025 . S
O311 Sc309 2.025 . S
O311 Sc310 2.025 . S
C312 O318 1.268 . S
C312 O328 1.268 . S
C313 O319 1.268 . S
C313 O327 1.268 . S
C314 O320 1.268 . S
C314 O329 1.268 . S
C315 O321 1.268 . S
C315 O325 1.268 . S
C316 O322 1.268 . S
C316 O324 1.268 . S
C317 O323 1.268 . S
C317 O326 1.268 . S
O318 Sc308 2.105 . S
O318 C312 1.268 . S
O319 Sc309 2.105 . S
O319 C313 1.268 . S
O320 Sc310 2.105 . S
O320 C314 1.268 . S
O321 Sc308 2.105 . S
O321 C315 1.268 . S
O322 Sc310 2.105 . S
O322 C316 1.268 . S
O323 Sc309 2.105 . S
O323 C317 1.268 . S
O324 Sc308 2.105 . S
O324 C316 1.268 . S
O325 Sc309 2.105 . S
O325 C315 1.268 . S
O326 Sc310 2.105 . S
O326 C317 1.268 . S
O327 Sc308 2.105 . S
O327 C313 1.268 . S
O328 Sc310 2.105 . S
O328 C312 1.268 . S
O329 Sc309 2.105 . S
O329 C314 1.268 . S
Sc330 O333 2.025 . S
Sc330 O340 2.105 . S
Sc330 O343 2.105 . S
Sc330 O346 2.105 . S
Sc330 O349 2.105 . S
Sc331 O333 2.025 . S
Sc331 O341 2.105 . S
Sc331 O345 2.105 . S
Sc331 O347 2.105 . S
Sc331 O351 2.105 . S
Sc332 O333 2.025 . S
Sc332 O342 2.105 . S
Sc332 O344 2.105 . S
Sc332 O348 2.105 . S
Sc332 O350 2.105 . S
O333 Sc330 2.025 . S
O333 Sc331 2.025 . S
O333 Sc332 2.025 . S
C334 O340 1.268 . S
C334 O350 1.268 . S
C335 O341 1.268 . S
C335 O349 1.268 . S
C336 O342 1.268 . S
C336 O351 1.268 . S
C337 O343 1.268 . S
C337 O347 1.268 . S
C338 O344 1.268 . S
C338 O346 1.268 . S
C339 O345 1.268 . S
C339 O348 1.268 . S
O340 Sc330 2.105 . S
O340 C334 1.268 . S
O341 Sc331 2.105 . S
O341 C335 1.268 . S
O342 Sc332 2.105 . S
O342 C336 1.268 . S
O343 Sc330 2.105 . S
O343 C337 1.268 . S
O344 Sc332 2.105 . S
O344 C338 1.268 . S
O345 Sc331 2.105 . S
O345 C339 1.268 . S
O346 Sc330 2.105 . S
O346 C338 1.268 . S
O347 Sc331 2.105 . S
O347 C337 1.268 . S
O348 Sc332 2.105 . S
O348 C339 1.268 . S
O349 Sc330 2.105 . S
O349 C335 1.268 . S
O350 Sc332 2.105 . S
O350 C334 1.268 . S
O351 Sc331 2.105 . S
O351 C336 1.268 . S
Sc352 O355 2.025 . S
Sc352 O362 2.105 . S
Sc352 O365 2.105 . S
Sc352 O368 2.105 . S
Sc352 O371 2.105 . S
Sc353 O355 2.025 . S
Sc353 O363 2.105 . S
Sc353 O367 2.105 . S
Sc353 O369 2.105 . S
Sc353 O373 2.105 . S
Sc354 O355 2.025 . S
Sc354 O364 2.105 . S
Sc354 O366 2.105 . S
Sc354 O370 2.105 . S
Sc354 O372 2.105 . S
O355 Sc352 2.025 . S
O355 Sc353 2.025 . S
O355 Sc354 2.025 . S
C356 O362 1.268 . S
C356 O372 1.268 . S
C357 O363 1.268 . S
C357 O371 1.268 . S
C358 O364 1.268 . S
C358 O373 1.268 . S
C359 O365 1.268 . S
C359 O369 1.268 . S
C360 O366 1.268 . S
C360 O368 1.268 . S
C361 O367 1.268 . S
C361 O370 1.268 . S
O362 Sc352 2.105 . S
O362 C356 1.268 . S
O363 Sc353 2.105 . S
O363 C357 1.268 . S
O364 Sc354 2.105 . S
O364 C358 1.268 . S
O365 Sc352 2.105 . S
O365 C359 1.268 . S
O366 Sc354 2.105 . S
O366 C360 1.268 . S
O367 Sc353 2.105 . S
O367 C361 1.268 . S
O368 Sc352 2.105 . S
O368 C360 1.268 . S
O369 Sc353 2.105 . S
O369 C359 1.268 . S
O370 Sc354 2.105 . S
O370 C361 1.268 . S
O371 Sc352 2.105 . S
O371 C357 1.268 . S
O372 Sc354 2.105 . S
O372 C356 1.268 . S
O373 Sc353 2.105 . S
O373 C358 1.268 . S
Sc374 O377 2.025 . S
Sc374 O384 2.105 . S
Sc374 O387 2.105 . S
Sc374 O390 2.105 . S
Sc374 O393 2.105 . S
Sc375 O377 2.025 . S
Sc375 O385 2.105 . S
Sc375 O389 2.105 . S
Sc375 O391 2.105 . S
Sc375 O395 2.105 . S
Sc376 O377 2.025 . S
Sc376 O386 2.105 . S
Sc376 O388 2.105 . S
Sc376 O392 2.105 . S
Sc376 O394 2.105 . S
O377 Sc374 2.025 . S
O377 Sc375 2.025 . S
O377 Sc376 2.025 . S
C378 O384 1.268 . S
C378 O394 1.268 . S
C379 O385 1.268 . S
C379 O393 1.268 . S
C380 O386 1.268 . S
C380 O395 1.268 . S
C381 O387 1.268 . S
C381 O391 1.268 . S
C382 O388 1.268 . S
C382 O390 1.268 . S
C383 O389 1.268 . S
C383 O392 1.268 . S
O384 Sc374 2.105 . S
O384 C378 1.268 . S
O385 Sc375 2.105 . S
O385 C379 1.268 . S
O386 Sc376 2.105 . S
O386 C380 1.268 . S
O387 Sc374 2.105 . S
O387 C381 1.268 . S
O388 Sc376 2.105 . S
O388 C382 1.268 . S
O389 Sc375 2.105 . S
O389 C383 1.268 . S
O390 Sc374 2.105 . S
O390 C382 1.268 . S
O391 Sc375 2.105 . S
O391 C381 1.268 . S
O392 Sc376 2.105 . S
O392 C383 1.268 . S
O393 Sc374 2.105 . S
O393 C379 1.268 . S
O394 Sc376 2.105 . S
O394 C378 1.268 . S
O395 Sc375 2.105 . S
O395 C380 1.268 . S
H396 C402 0.930 . S
H397 C406 0.930 . S
H398 C411 0.929 . S
H399 C409 0.929 . S
H400 C404 0.929 . S
H401 C410 0.929 . S
C402 H396 0.930 . S
C402 C403 1.367 . S
C402 C410 1.378 . S
C403 C402 1.367 . S
C403 C411 1.433 1_556 S
C404 H400 0.929 . S
C404 C406 1.378 . S
C404 C408 1.350 1_554 S
C405 C408 1.463 . S
C405 C410 1.350 . S
C405 N413 1.427 1_556 S
C406 H397 0.930 . S
C406 C404 1.378 . S
C406 C407 1.367 . S
C407 C406 1.367 . S
C407 C409 1.433 1_554 S
C408 C404 1.350 1_556 S
C408 C405 1.463 . S
C408 N412 1.427 . S
C409 H399 0.929 . S
C409 C407 1.433 1_556 S
C409 N412 1.384 . S
C410 H401 0.929 . S
C410 C402 1.378 . S
C410 C405 1.350 . S
C411 H398 0.929 . S
C411 C403 1.433 1_554 S
C411 N413 1.384 . S
N412 C408 1.427 . S
N412 C409 1.384 . S
N413 C405 1.427 1_554 S
N413 C411 1.384 . S
H414 C420 0.930 . S
H415 C424 0.930 . S
H416 C429 0.929 1_565 S
H417 C427 0.929 . S
H418 C422 0.929 . S
H419 C428 0.929 . S
C420 H414 0.930 . S
C420 C421 1.367 1_546 S
C420 C428 1.378 . S
C421 C420 1.367 1_564 S
C421 C429 1.433 1_565 S
C422 H418 0.929 . S
C422 C424 1.378 . S
C422 C426 1.350 1_554 S
C423 C426 1.463 . S
C423 C428 1.350 . S
C423 N431 1.427 1_556 S
C424 H415 0.930 . S
C424 C422 1.378 . S
C424 C425 1.367 1_554 S
C425 C424 1.367 1_556 S
C425 C427 1.433 . S
C426 C422 1.350 1_556 S
C426 C423 1.463 . S
C426 N430 1.427 . S
C427 H417 0.929 . S
C427 C425 1.433 . S
C427 N430 1.384 . S
C428 H419 0.929 . S
C428 C420 1.378 . S
C428 C423 1.350 . S
C429 H416 0.929 1_545 S
C429 C421 1.433 1_545 S
C429 N431 1.384 . S
N430 C426 1.427 . S
N430 C427 1.384 . S
N431 C423 1.427 1_554 S
N431 C429 1.384 . S
H432 C438 0.930 . S
H433 C442 0.930 . S
H434 C447 0.929 . S
H435 C445 0.929 1_455 S
H436 C440 0.929 . S
H437 C446 0.929 . S
C438 H432 0.930 . S
C438 C439 1.367 . S
C438 C446 1.378 . S
C439 C438 1.367 . S
C439 C447 1.433 1_556 S
C440 H436 0.929 . S
C440 C442 1.378 . S
C440 C444 1.350 1_554 S
C441 C444 1.463 . S
C441 C446 1.350 . S
C441 N449 1.427 1_556 S
C442 H433 0.930 . S
C442 C440 1.378 . S
C442 C443 1.367 1_655 S
C443 C442 1.367 1_455 S
C443 C445 1.433 1_454 S
C444 C440 1.350 1_556 S
C444 C441 1.463 . S
C444 N448 1.427 . S
C445 H435 0.929 1_655 S
C445 C443 1.433 1_656 S
C445 N448 1.384 . S
C446 H437 0.929 . S
C446 C438 1.378 . S
C446 C441 1.350 . S
C447 H434 0.929 . S
C447 C439 1.433 1_554 S
C447 N449 1.384 . S
N448 C444 1.427 . S
N448 C445 1.384 . S
N449 C441 1.427 1_554 S
N449 C447 1.384 . S
H450 C456 0.930 . S
H451 C460 0.930 . S
H452 C465 0.929 . S
H453 C463 0.929 . S
H454 C458 0.929 . S
H455 C464 0.929 . S
C456 H450 0.930 . S
C456 C457 1.367 . S
C456 C464 1.378 . S
C457 C456 1.367 . S
C457 C465 1.433 1_556 S
C458 H454 0.929 . S
C458 C460 1.378 . S
C458 C462 1.350 . S
C459 C462 1.463 . S
C459 C464 1.350 1_554 S
C459 N467 1.427 . S
C460 H451 0.930 . S
C460 C458 1.378 . S
C460 C461 1.367 . S
C461 C460 1.367 . S
C461 C463 1.433 1_554 S
C462 C458 1.350 . S
C462 C459 1.463 . S
C462 N466 1.427 1_554 S
C463 H453 0.929 . S
C463 C461 1.433 1_556 S
C463 N466 1.384 . S
C464 H455 0.929 . S
C464 C456 1.378 . S
C464 C459 1.350 1_556 S
C465 H452 0.929 . S
C465 C457 1.433 1_554 S
C465 N467 1.384 . S
N466 C462 1.427 1_556 S
N466 C463 1.384 . S
N467 C459 1.427 . S
N467 C465 1.384 . S
H468 C474 0.930 1_545 S
H469 C478 0.930 . S
H470 C483 0.929 . S
H471 C481 0.929 . S
H472 C476 0.929 . S
H473 C482 0.929 . S
C474 H468 0.930 1_565 S
C474 C475 1.367 1_564 S
C474 C482 1.378 . S
C475 C474 1.367 1_546 S
C475 C483 1.433 1_545 S
C476 H472 0.929 . S
C476 C478 1.378 . S
C476 C480 1.350 1_556 S
C477 C480 1.463 . S
C477 C482 1.350 . S
C477 N485 1.427 1_554 S
C478 H469 0.930 . S
C478 C476 1.378 . S
C478 C479 1.367 1_556 S
C479 C478 1.367 1_554 S
C479 C481 1.433 . S
C480 C476 1.350 1_554 S
C480 C477 1.463 . S
C480 N484 1.427 . S
C481 H471 0.929 . S
C481 C479 1.433 . S
C481 N484 1.384 . S
C482 H473 0.929 . S
C482 C474 1.378 . S
C482 C477 1.350 . S
C483 H470 0.929 . S
C483 C475 1.433 1_565 S
C483 N485 1.384 . S
N484 C480 1.427 . S
N484 C481 1.384 . S
N485 C477 1.427 1_556 S
N485 C483 1.384 . S
H486 C492 0.930 . S
H487 C496 0.930 1_655 S
H488 C501 0.929 . S
H489 C499 0.929 . S
H490 C494 0.929 . S
H491 C500 0.929 . S
C492 H486 0.930 . S
C492 C493 1.367 1_556 S
C492 C500 1.378 . S
C493 C492 1.367 1_554 S
C493 C501 1.433 . S
C494 H490 0.929 . S
C494 C496 1.378 . S
C494 C498 1.350 . S
C495 C498 1.463 . S
C495 C500 1.350 1_554 S
C495 N503 1.427 . S
C496 H487 0.930 1_455 S
C496 C494 1.378 . S
C496 C497 1.367 1_454 S
C497 C496 1.367 1_656 S
C497 C499 1.433 1_655 S
C498 C494 1.350 . S
C498 C495 1.463 . S
C498 N502 1.427 1_554 S
C499 H489 0.929 . S
C499 C497 1.433 1_455 S
C499 N502 1.384 . S
C500 H491 0.929 . S
C500 C492 1.378 . S
C500 C495 1.350 1_556 S
C501 H488 0.929 . S
C501 C493 1.433 . S
C501 N503 1.384 . S
N502 C498 1.427 1_556 S
N502 C499 1.384 . S
N503 C495 1.427 . S
N503 C501 1.384 . S
H504 C510 0.930 . S
H505 C514 0.930 . S
H506 C519 0.929 . S
H507 C517 0.929 . S
H508 C512 0.929 . S
H509 C518 0.929 . S
C510 H504 0.930 . S
C510 C511 1.367 . S
C510 C518 1.378 . S
C511 C510 1.367 . S
C511 C519 1.433 . S
C512 H508 0.929 . S
C512 C514 1.378 . S
C512 C516 1.350 . S
C513 C516 1.463 . S
C513 C518 1.350 . S
C513 N521 1.427 . S
C514 H505 0.930 . S
C514 C512 1.378 . S
C514 C515 1.367 . S
C515 C514 1.367 . S
C515 C517 1.433 . S
C516 C512 1.350 . S
C516 C513 1.463 . S
C516 N520 1.427 . S
C517 H507 0.929 . S
C517 C515 1.433 . S
C517 N520 1.384 . S
C518 H509 0.929 . S
C518 C510 1.378 . S
C518 C513 1.350 . S
C519 H506 0.929 . S
C519 C511 1.433 . S
C519 N521 1.384 . S
N520 C516 1.427 . S
N520 C517 1.384 . S
N521 C513 1.427 . S
N521 C519 1.384 . S
H522 C528 0.930 . S
H523 C532 0.930 . S
H524 C537 0.929 . S
H525 C535 0.929 . S
H526 C530 0.929 . S
H527 C536 0.929 . S
C528 H522 0.930 . S
C528 C529 1.367 . S
C528 C536 1.378 . S
C529 C528 1.367 . S
C529 C537 1.433 . S
C530 H526 0.929 . S
C530 C532 1.378 . S
C530 C534 1.350 . S
C531 C534 1.463 . S
C531 C536 1.350 . S
C531 N539 1.427 . S
C532 H523 0.930 . S
C532 C530 1.378 . S
C532 C533 1.367 . S
C533 C532 1.367 . S
C533 C535 1.433 . S
C534 C530 1.350 . S
C534 C531 1.463 . S
C534 N538 1.427 . S
C535 H525 0.929 . S
C535 C533 1.433 . S
C535 N538 1.384 . S
C536 H527 0.929 . S
C536 C528 1.378 . S
C536 C531 1.350 . S
C537 H524 0.929 . S
C537 C529 1.433 . S
C537 N539 1.384 . S
N538 C534 1.427 . S
N538 C535 1.384 . S
N539 C531 1.427 . S
N539 C537 1.384 . S
H540 C546 0.930 . S
H541 C550 0.930 . S
H542 C555 0.929 . S
H543 C553 0.929 . S
H544 C548 0.929 . S
H545 C554 0.929 . S
C546 H540 0.930 . S
C546 C547 1.367 . S
C546 C554 1.378 . S
C547 C546 1.367 . S
C547 C555 1.433 . S
C548 H544 0.929 . S
C548 C550 1.378 . S
C548 C552 1.350 . S
C549 C552 1.463 . S
C549 C554 1.350 . S
C549 N557 1.427 . S
C550 H541 0.930 . S
C550 C548 1.378 . S
C550 C551 1.367 . S
C551 C550 1.367 . S
C551 C553 1.433 . S
C552 C548 1.350 . S
C552 C549 1.463 . S
C552 N556 1.427 . S
C553 H543 0.929 . S
C553 C551 1.433 . S
C553 N556 1.384 . S
C554 H545 0.929 . S
C554 C546 1.378 . S
C554 C549 1.350 . S
C555 H542 0.929 . S
C555 C547 1.433 . S
C555 N557 1.384 . S
N556 C552 1.427 . S
N556 C553 1.384 . S
N557 C549 1.427 . S
N557 C555 1.384 . S
H558 C564 0.930 . S
H559 C568 0.930 . S
H560 C573 0.929 . S
H561 C571 0.929 . S
H562 C566 0.929 . S
H563 C572 0.929 . S
C564 H558 0.930 . S
C564 C565 1.367 . S
C564 C572 1.378 . S
C565 C564 1.367 . S
C565 C573 1.433 . S
C566 H562 0.929 . S
C566 C568 1.378 . S
C566 C570 1.350 . S
C567 C570 1.463 . S
C567 C572 1.350 . S
C567 N575 1.427 . S
C568 H559 0.930 . S
C568 C566 1.378 . S
C568 C569 1.367 . S
C569 C568 1.367 . S
C569 C571 1.433 . S
C570 C566 1.350 . S
C570 C567 1.463 . S
C570 N574 1.427 . S
C571 H561 0.929 . S
C571 C569 1.433 . S
C571 N574 1.384 . S
C572 H563 0.929 . S
C572 C564 1.378 . S
C572 C567 1.350 . S
C573 H560 0.929 . S
C573 C565 1.433 . S
C573 N575 1.384 . S
N574 C570 1.427 . S
N574 C571 1.384 . S
N575 C567 1.427 . S
N575 C573 1.384 . S
H576 C582 0.930 . S
H577 C586 0.930 . S
H578 C591 0.929 . S
H579 C589 0.929 . S
H580 C584 0.929 . S
H581 C590 0.929 . S
C582 H576 0.930 . S
C582 C583 1.367 . S
C582 C590 1.378 . S
C583 C582 1.367 . S
C583 C591 1.433 . S
C584 H580 0.929 . S
C584 C586 1.378 . S
C584 C588 1.350 . S
C585 C588 1.463 . S
C585 C590 1.350 . S
C585 N593 1.427 . S
C586 H577 0.930 . S
C586 C584 1.378 . S
C586 C587 1.367 . S
C587 C586 1.367 . S
C587 C589 1.433 . S
C588 C584 1.350 . S
C588 C585 1.463 . S
C588 N592 1.427 . S
C589 H579 0.929 . S
C589 C587 1.433 . S
C589 N592 1.384 . S
C590 H581 0.929 . S
C590 C582 1.378 . S
C590 C585 1.350 . S
C591 H578 0.929 . S
C591 C583 1.433 . S
C591 N593 1.384 . S
N592 C588 1.427 . S
N592 C589 1.384 . S
N593 C585 1.427 . S
N593 C591 1.384 . S
H594 C600 0.930 . S
H595 C604 0.930 . S
H596 C609 0.929 . S
H597 C607 0.929 . S
H598 C602 0.929 . S
H599 C608 0.929 . S
C600 H594 0.930 . S
C600 C601 1.367 . S
C600 C608 1.378 . S
C601 C600 1.367 . S
C601 C609 1.433 . S
C602 H598 0.929 . S
C602 C604 1.378 . S
C602 C606 1.350 . S
C603 C606 1.463 . S
C603 C608 1.350 . S
C603 N611 1.427 . S
C604 H595 0.930 . S
C604 C602 1.378 . S
C604 C605 1.367 . S
C605 C604 1.367 . S
C605 C607 1.433 . S
C606 C602 1.350 . S
C606 C603 1.463 . S
C606 N610 1.427 . S
C607 H597 0.929 . S
C607 C605 1.433 . S
C607 N610 1.384 . S
C608 H599 0.929 . S
C608 C600 1.378 . S
C608 C603 1.350 . S
C609 H596 0.929 . S
C609 C601 1.433 . S
C609 N611 1.384 . S
N610 C606 1.427 . S
N610 C607 1.384 . S
N611 C603 1.427 . S
N611 C609 1.384 . S
H612 C618 0.930 . S
H613 C622 0.930 . S
H614 C627 0.929 . S
H615 C625 0.929 . S
H616 C620 0.929 . S
H617 C626 0.929 . S
C618 H612 0.930 . S
C618 C619 1.367 . S
C618 C626 1.378 . S
C619 C618 1.367 . S
C619 C627 1.433 . S
C620 H616 0.929 . S
C620 C622 1.378 . S
C620 C624 1.350 . S
C621 C624 1.463 . S
C621 C626 1.350 . S
C621 N629 1.427 . S
C622 H613 0.930 . S
C622 C620 1.378 . S
C622 C623 1.367 . S
C623 C622 1.367 . S
C623 C625 1.433 . S
C624 C620 1.350 . S
C624 C621 1.463 . S
C624 N628 1.427 . S
C625 H615 0.929 . S
C625 C623 1.433 . S
C625 N628 1.384 . S
C626 H617 0.929 . S
C626 C618 1.378 . S
C626 C621 1.350 . S
C627 H614 0.929 . S
C627 C619 1.433 . S
C627 N629 1.384 . S
N628 C624 1.427 . S
N628 C625 1.384 . S
N629 C621 1.427 . S
N629 C627 1.384 . S
H630 C636 0.930 . S
H631 C640 0.930 . S
H632 C645 0.929 . S
H633 C643 0.929 . S
H634 C638 0.929 . S
H635 C644 0.929 . S
C636 H630 0.930 . S
C636 C637 1.367 . S
C636 C644 1.378 . S
C637 C636 1.367 . S
C637 C645 1.433 . S
C638 H634 0.929 . S
C638 C640 1.378 . S
C638 C642 1.350 . S
C639 C642 1.463 . S
C639 C644 1.350 . S
C639 N647 1.427 . S
C640 H631 0.930 . S
C640 C638 1.378 . S
C640 C641 1.367 . S
C641 C640 1.367 . S
C641 C643 1.433 . S
C642 C638 1.350 . S
C642 C639 1.463 . S
C642 N646 1.427 . S
C643 H633 0.929 . S
C643 C641 1.433 . S
C643 N646 1.384 . S
C644 H635 0.929 . S
C644 C636 1.378 . S
C644 C639 1.350 . S
C645 H632 0.929 . S
C645 C637 1.433 . S
C645 N647 1.384 . S
N646 C642 1.427 . S
N646 C643 1.384 . S
N647 C639 1.427 . S
N647 C645 1.384 . S
H648 C654 0.930 . S
H649 C658 0.930 . S
H650 C663 0.929 . S
H651 C661 0.929 . S
H652 C656 0.929 . S
H653 C662 0.929 . S
C654 H648 0.930 . S
C654 C655 1.367 . S
C654 C662 1.378 . S
C655 C654 1.367 . S
C655 C663 1.433 . S
C656 H652 0.929 . S
C656 C658 1.378 . S
C656 C660 1.350 . S
C657 C660 1.463 . S
C657 C662 1.350 . S
C657 N665 1.427 . S
C658 H649 0.930 . S
C658 C656 1.378 . S
C658 C659 1.367 . S
C659 C658 1.367 . S
C659 C661 1.433 . S
C660 C656 1.350 . S
C660 C657 1.463 . S
C660 N664 1.427 . S
C661 H651 0.929 . S
C661 C659 1.433 . S
C661 N664 1.384 . S
C662 H653 0.929 . S
C662 C654 1.378 . S
C662 C657 1.350 . S
C663 H650 0.929 . S
C663 C655 1.433 . S
C663 N665 1.384 . S
N664 C660 1.427 . S
N664 C661 1.384 . S
N665 C657 1.427 . S
N665 C663 1.384 . S
H666 C672 0.930 . S
H667 C676 0.930 . S
H668 C681 0.929 . S
H669 C679 0.929 . S
H670 C674 0.929 . S
H671 C680 0.929 . S
C672 H666 0.930 . S
C672 C673 1.367 . S
C672 C680 1.378 . S
C673 C672 1.367 . S
C673 C681 1.433 . S
C674 H670 0.929 . S
C674 C676 1.378 . S
C674 C678 1.350 . S
C675 C678 1.463 . S
C675 C680 1.350 . S
C675 N683 1.427 . S
C676 H667 0.930 . S
C676 C674 1.378 . S
C676 C677 1.367 . S
C677 C676 1.367 . S
C677 C679 1.433 . S
C678 C674 1.350 . S
C678 C675 1.463 . S
C678 N682 1.427 . S
C679 H669 0.929 . S
C679 C677 1.433 . S
C679 N682 1.384 . S
C680 H671 0.929 . S
C680 C672 1.378 . S
C680 C675 1.350 . S
C681 H668 0.929 . S
C681 C673 1.433 . S
C681 N683 1.384 . S
N682 C678 1.427 . S
N682 C679 1.384 . S
N683 C675 1.427 . S
N683 C681 1.384 . S
H684 C690 0.930 . S
H685 C694 0.930 . S
H686 C699 0.929 . S
H687 C697 0.929 . S
H688 C692 0.929 . S
H689 C698 0.929 . S
C690 H684 0.930 . S
C690 C691 1.367 . S
C690 C698 1.378 . S
C691 C690 1.367 . S
C691 C699 1.433 . S
C692 H688 0.929 . S
C692 C694 1.378 . S
C692 C696 1.350 . S
C693 C696 1.463 . S
C693 C698 1.350 . S
C693 N701 1.427 . S
C694 H685 0.930 . S
C694 C692 1.378 . S
C694 C695 1.367 . S
C695 C694 1.367 . S
C695 C697 1.433 . S
C696 C692 1.350 . S
C696 C693 1.463 . S
C696 N700 1.427 . S
C697 H687 0.929 . S
C697 C695 1.433 . S
C697 N700 1.384 . S
C698 H689 0.929 . S
C698 C690 1.378 . S
C698 C693 1.350 . S
C699 H686 0.929 . S
C699 C691 1.433 . S
C699 N701 1.384 . S
N700 C696 1.427 . S
N700 C697 1.384 . S
N701 C693 1.427 . S
N701 C699 1.384 . S
H702 C708 0.930 . S
H703 C712 0.930 . S
H704 C717 0.929 . S
H705 C715 0.929 . S
H706 C710 0.929 . S
H707 C716 0.929 . S
C708 H702 0.930 . S
C708 C709 1.367 . S
C708 C716 1.378 . S
C709 C708 1.367 . S
C709 C717 1.433 . S
C710 H706 0.929 . S
C710 C712 1.378 . S
C710 C714 1.350 . S
C711 C714 1.463 . S
C711 C716 1.350 . S
C711 N719 1.427 . S
C712 H703 0.930 . S
C712 C710 1.378 . S
C712 C713 1.367 . S
C713 C712 1.367 . S
C713 C715 1.433 . S
C714 C710 1.350 . S
C714 C711 1.463 . S
C714 N718 1.427 . S
C715 H705 0.929 . S
C715 C713 1.433 . S
C715 N718 1.384 . S
C716 H707 0.929 . S
C716 C708 1.378 . S
C716 C711 1.350 . S
C717 H704 0.929 . S
C717 C709 1.433 . S
C717 N719 1.384 . S
N718 C714 1.427 . S
N718 C715 1.384 . S
N719 C711 1.427 . S
N719 C717 1.384 . S
H720 C726 0.930 . S
H721 C730 0.930 . S
H722 C735 0.929 . S
H723 C733 0.929 . S
H724 C728 0.929 . S
H725 C734 0.929 . S
C726 H720 0.930 . S
C726 C727 1.367 . S
C726 C734 1.378 . S
C727 C726 1.367 . S
C727 C735 1.433 . S
C728 H724 0.929 . S
C728 C730 1.378 . S
C728 C732 1.350 . S
C729 C732 1.463 . S
C729 C734 1.350 . S
C729 N737 1.427 . S
C730 H721 0.930 . S
C730 C728 1.378 . S
C730 C731 1.367 . S
C731 C730 1.367 . S
C731 C733 1.433 . S
C732 C728 1.350 . S
C732 C729 1.463 . S
C732 N736 1.427 . S
C733 H723 0.929 . S
C733 C731 1.433 . S
C733 N736 1.384 . S
C734 H725 0.929 . S
C734 C726 1.378 . S
C734 C729 1.350 . S
C735 H722 0.929 . S
C735 C727 1.433 . S
C735 N737 1.384 . S
N736 C732 1.427 . S
N736 C733 1.384 . S
N737 C729 1.427 . S
N737 C735 1.384 . S
H738 C744 0.930 . S
H739 C748 0.930 . S
H740 C753 0.929 . S
H741 C751 0.929 . S
H742 C746 0.929 . S
H743 C752 0.929 . S
C744 H738 0.930 . S
C744 C745 1.367 . S
C744 C752 1.378 . S
C745 C744 1.367 . S
C745 C753 1.433 . S
C746 H742 0.929 . S
C746 C748 1.378 . S
C746 C750 1.350 . S
C747 C750 1.463 . S
C747 C752 1.350 . S
C747 N755 1.427 . S
C748 H739 0.930 . S
C748 C746 1.378 . S
C748 C749 1.367 . S
C749 C748 1.367 . S
C749 C751 1.433 . S
C750 C746 1.350 . S
C750 C747 1.463 . S
C750 N754 1.427 . S
C751 H741 0.929 . S
C751 C749 1.433 . S
C751 N754 1.384 . S
C752 H743 0.929 . S
C752 C744 1.378 . S
C752 C747 1.350 . S
C753 H740 0.929 . S
C753 C745 1.433 . S
C753 N755 1.384 . S
N754 C750 1.427 . S
N754 C751 1.384 . S
N755 C747 1.427 . S
N755 C753 1.384 . S
H756 C762 0.930 . S
H757 C766 0.930 . S
H758 C771 0.929 . S
H759 C769 0.929 . S
H760 C764 0.929 . S
H761 C770 0.929 . S
C762 H756 0.930 . S
C762 C763 1.367 . S
C762 C770 1.378 . S
C763 C762 1.367 . S
C763 C771 1.433 . S
C764 H760 0.929 . S
C764 C766 1.378 . S
C764 C768 1.350 . S
C765 C768 1.463 . S
C765 C770 1.350 . S
C765 N773 1.427 . S
C766 H757 0.930 . S
C766 C764 1.378 . S
C766 C767 1.367 . S
C767 C766 1.367 . S
C767 C769 1.433 . S
C768 C764 1.350 . S
C768 C765 1.463 . S
C768 N772 1.427 . S
C769 H759 0.929 . S
C769 C767 1.433 . S
C769 N772 1.384 . S
C770 H761 0.929 . S
C770 C762 1.378 . S
C770 C765 1.350 . S
C771 H758 0.929 . S
C771 C763 1.433 . S
C771 N773 1.384 . S
N772 C768 1.427 . S
N772 C769 1.384 . S
N773 C765 1.427 . S
N773 C771 1.384 . S
H774 C780 0.930 . S
H775 C784 0.930 . S
H776 C789 0.929 . S
H777 C787 0.929 . S
H778 C782 0.929 . S
H779 C788 0.929 . S
C780 H774 0.930 . S
C780 C781 1.367 . S
C780 C788 1.378 . S
C781 C780 1.367 . S
C781 C789 1.433 . S
C782 H778 0.929 . S
C782 C784 1.378 . S
C782 C786 1.350 . S
C783 C786 1.463 . S
C783 C788 1.350 . S
C783 N791 1.427 . S
C784 H775 0.930 . S
C784 C782 1.378 . S
C784 C785 1.367 . S
C785 C784 1.367 . S
C785 C787 1.433 . S
C786 C782 1.350 . S
C786 C783 1.463 . S
C786 N790 1.427 . S
C787 H777 0.929 . S
C787 C785 1.433 . S
C787 N790 1.384 . S
C788 H779 0.929 . S
C788 C780 1.378 . S
C788 C783 1.350 . S
C789 H776 0.929 . S
C789 C781 1.433 . S
C789 N791 1.384 . S
N790 C786 1.427 . S
N790 C787 1.384 . S
N791 C783 1.427 . S
N791 C789 1.384 . S
H792 C798 0.930 . S
H793 C802 0.930 . S
H794 C807 0.929 . S
H795 C805 0.929 . S
H796 C800 0.929 . S
H797 C806 0.929 . S
C798 H792 0.930 . S
C798 C799 1.367 . S
C798 C806 1.378 . S
C799 C798 1.367 . S
C799 C807 1.433 . S
C800 H796 0.929 . S
C800 C802 1.378 . S
C800 C804 1.350 . S
C801 C804 1.463 . S
C801 C806 1.350 . S
C801 N809 1.427 . S
C802 H793 0.930 . S
C802 C800 1.378 . S
C802 C803 1.367 . S
C803 C802 1.367 . S
C803 C805 1.433 . S
C804 C800 1.350 . S
C804 C801 1.463 . S
C804 N808 1.427 . S
C805 H795 0.929 . S
C805 C803 1.433 . S
C805 N808 1.384 . S
C806 H797 0.929 . S
C806 C798 1.378 . S
C806 C801 1.350 . S
C807 H794 0.929 . S
C807 C799 1.433 . S
C807 N809 1.384 . S
N808 C804 1.427 . S
N808 C805 1.384 . S
N809 C801 1.427 . S
N809 C807 1.384 . S
H810 C816 0.930 . S
H811 C820 0.930 . S
H812 C825 0.929 . S
H813 C823 0.929 . S
H814 C818 0.929 . S
H815 C824 0.929 . S
C816 H810 0.930 . S
C816 C817 1.367 . S
C816 C824 1.378 . S
C817 C816 1.367 . S
C817 C825 1.433 . S
C818 H814 0.929 . S
C818 C820 1.378 . S
C818 C822 1.350 . S
C819 C822 1.463 . S
C819 C824 1.350 . S
C819 N827 1.427 . S
C820 H811 0.930 . S
C820 C818 1.378 . S
C820 C821 1.367 . S
C821 C820 1.367 . S
C821 C823 1.433 . S
C822 C818 1.350 . S
C822 C819 1.463 . S
C822 N826 1.427 . S
C823 H813 0.929 . S
C823 C821 1.433 . S
C823 N826 1.384 . S
C824 H815 0.929 . S
C824 C816 1.378 . S
C824 C819 1.350 . S
C825 H812 0.929 . S
C825 C817 1.433 . S
C825 N827 1.384 . S
N826 C822 1.427 . S
N826 C823 1.384 . S
N827 C819 1.427 . S
N827 C825 1.384 . S
H828 C834 0.930 . S
H829 C838 0.930 . S
H830 C843 0.929 . S
H831 C841 0.929 . S
H832 C836 0.929 . S
H833 C842 0.929 . S
C834 H828 0.930 . S
C834 C835 1.367 1_545 S
C834 C842 1.378 . S
C835 C834 1.367 1_565 S
C835 C843 1.433 . S
C836 H832 0.929 . S
C836 C838 1.378 . S
C836 C840 1.350 1_565 S
C837 C840 1.463 1_565 S
C837 C842 1.350 1_565 S
C837 N845 1.427 . S
C838 H829 0.930 . S
C838 C836 1.378 . S
C838 C839 1.367 1_565 S
C839 C838 1.367 1_545 S
C839 C841 1.433 . S
C840 C836 1.350 1_545 S
C840 C837 1.463 1_545 S
C840 N844 1.427 . S
C841 H831 0.929 . S
C841 C839 1.433 . S
C841 N844 1.384 . S
C842 H833 0.929 . S
C842 C834 1.378 . S
C842 C837 1.350 1_545 S
C843 H830 0.929 . S
C843 C835 1.433 . S
C843 N845 1.384 . S
N844 C840 1.427 . S
N844 C841 1.384 . S
N845 C837 1.427 . S
N845 C843 1.384 . S
H846 C852 0.930 . S
H847 C856 0.930 . S
H848 C861 0.929 . S
H849 C859 0.929 . S
H850 C854 0.929 . S
H851 C860 0.929 . S
C852 H846 0.930 . S
C852 C853 1.367 1_655 S
C852 C860 1.378 . S
C853 C852 1.367 1_455 S
C853 C861 1.433 . S
C854 H850 0.929 . S
C854 C856 1.378 . S
C854 C858 1.350 1_455 S
C855 C858 1.463 1_455 S
C855 C860 1.350 1_455 S
C855 N863 1.427 . S
C856 H847 0.930 . S
C856 C854 1.378 . S
C856 C857 1.367 1_455 S
C857 C856 1.367 1_655 S
C857 C859 1.433 . S
C858 C854 1.350 1_655 S
C858 C855 1.463 1_655 S
C858 N862 1.427 . S
C859 H849 0.929 . S
C859 C857 1.433 . S
C859 N862 1.384 . S
C860 H851 0.929 . S
C860 C852 1.378 . S
C860 C855 1.350 1_655 S
C861 H848 0.929 . S
C861 C853 1.433 . S
C861 N863 1.384 . S
N862 C858 1.427 . S
N862 C859 1.384 . S
N863 C855 1.427 . S
N863 C861 1.384 . S
H864 C870 0.930 . S
H865 C874 0.930 . S
H866 C879 0.929 . S
H867 C877 0.929 . S
H868 C872 0.929 . S
H869 C878 0.929 . S
C870 H864 0.930 . S
C870 C871 1.367 . S
C870 C878 1.378 . S
C871 C870 1.367 . S
C871 C879 1.433 . S
C872 H868 0.929 . S
C872 C874 1.378 . S
C872 C876 1.350 . S
C873 C876 1.463 . S
C873 C878 1.350 . S
C873 N881 1.427 . S
C874 H865 0.930 . S
C874 C872 1.378 . S
C874 C875 1.367 . S
C875 C874 1.367 . S
C875 C877 1.433 . S
C876 C872 1.350 . S
C876 C873 1.463 . S
C876 N880 1.427 . S
C877 H867 0.929 . S
C877 C875 1.433 . S
C877 N880 1.384 . S
C878 H869 0.929 . S
C878 C870 1.378 . S
C878 C873 1.350 . S
C879 H866 0.929 . S
C879 C871 1.433 . S
C879 N881 1.384 . S
N880 C876 1.427 . S
N880 C877 1.384 . S
N881 C873 1.427 . S
N881 C879 1.384 . S
H882 C888 0.930 . S
H883 C892 0.930 . S
H884 C897 0.929 . S
H885 C895 0.929 . S
H886 C890 0.929 . S
H887 C896 0.929 . S
C888 H882 0.930 . S
C888 C889 1.367 . S
C888 C896 1.378 . S
C889 C888 1.367 . S
C889 C897 1.433 . S
C890 H886 0.929 . S
C890 C892 1.378 . S
C890 C894 1.350 . S
C891 C894 1.463 . S
C891 C896 1.350 . S
C891 N899 1.427 . S
C892 H883 0.930 . S
C892 C890 1.378 . S
C892 C893 1.367 . S
C893 C892 1.367 . S
C893 C895 1.433 . S
C894 C890 1.350 . S
C894 C891 1.463 . S
C894 N898 1.427 . S
C895 H885 0.929 . S
C895 C893 1.433 . S
C895 N898 1.384 . S
C896 H887 0.929 . S
C896 C888 1.378 . S
C896 C891 1.350 . S
C897 H884 0.929 . S
C897 C889 1.433 . S
C897 N899 1.384 . S
N898 C894 1.427 . S
N898 C895 1.384 . S
N899 C891 1.427 . S
N899 C897 1.384 . S
H900 C906 0.930 . S
H901 C910 0.930 . S
H902 C915 0.929 . S
H903 C913 0.929 . S
H904 C908 0.929 . S
H905 C914 0.929 . S
C906 H900 0.930 . S
C906 C907 1.367 . S
C906 C914 1.378 . S
C907 C906 1.367 . S
C907 C915 1.433 . S
C908 H904 0.929 . S
C908 C910 1.378 . S
C908 C912 1.350 1_565 S
C909 C912 1.463 . S
C909 C914 1.350 . S
C909 N917 1.427 . S
C910 H901 0.930 . S
C910 C908 1.378 . S
C910 C911 1.367 . S
C911 C910 1.367 . S
C911 C913 1.433 . S
C912 C908 1.350 1_545 S
C912 C909 1.463 . S
C912 N916 1.427 . S
C913 H903 0.929 . S
C913 C911 1.433 . S
C913 N916 1.384 1_565 S
C914 H905 0.929 . S
C914 C906 1.378 . S
C914 C909 1.350 . S
C915 H902 0.929 . S
C915 C907 1.433 . S
C915 N917 1.384 . S
N916 C912 1.427 . S
N916 C913 1.384 1_545 S
N917 C909 1.427 . S
N917 C915 1.384 . S
H918 C924 0.930 . S
H919 C928 0.930 . S
H920 C933 0.929 . S
H921 C931 0.929 . S
H922 C926 0.935 . S
H923 C932 0.929 . S
C924 H918 0.930 . S
C924 C925 1.367 . S
C924 C932 1.378 . S
C925 C924 1.367 . S
C925 C933 1.433 . S
C926 H922 0.935 . S
C926 C928 1.378 . S
C926 C930 1.350 1_455 S
C927 C930 1.463 . S
C927 C932 1.350 . S
C927 N935 1.427 . S
C928 H919 0.930 . S
C928 C926 1.378 . S
C928 C929 1.367 . S
C929 C928 1.367 . S
C929 C931 1.433 . S
C930 C926 1.350 1_655 S
C930 C927 1.463 . S
C930 N934 1.427 . S
C931 H921 0.929 . S
C931 C929 1.433 . S
C931 N934 1.384 1_455 S
C932 H923 0.929 . S
C932 C924 1.378 . S
C932 C927 1.350 . S
C933 H920 0.929 . S
C933 C925 1.433 . S
C933 N935 1.384 . S
N934 C930 1.427 . S
N934 C931 1.384 1_655 S
N935 C927 1.427 . S
N935 C933 1.384 . S
H936 C942 0.930 . S
H937 C946 0.930 . S
H938 C951 0.929 . S
H939 C949 0.929 . S
H940 C944 0.929 . S
H941 C950 0.929 . S
C942 H936 0.930 . S
C942 C943 1.367 . S
C942 C950 1.378 . S
C943 C942 1.367 . S
C943 C951 1.433 . S
C944 H940 0.929 . S
C944 C946 1.378 . S
C944 C948 1.350 . S
C945 C948 1.463 . S
C945 C950 1.350 . S
C945 N953 1.427 . S
C946 H937 0.930 . S
C946 C944 1.378 . S
C946 C947 1.367 . S
C947 C946 1.367 . S
C947 C949 1.433 . S
C948 C944 1.350 . S
C948 C945 1.463 . S
C948 N952 1.427 . S
C949 H939 0.929 . S
C949 C947 1.433 . S
C949 N952 1.384 . S
C950 H941 0.929 . S
C950 C942 1.378 . S
C950 C945 1.350 . S
C951 H938 0.929 . S
C951 C943 1.433 . S
C951 N953 1.384 . S
N952 C948 1.427 . S
N952 C949 1.384 . S
N953 C945 1.427 . S
N953 C951 1.384 . S
H954 C960 0.930 . S
H955 C964 0.930 . S
H956 C969 0.929 . S
H957 C967 0.929 . S
H958 C962 0.929 . S
H959 C968 0.929 . S
C960 H954 0.930 . S
C960 C961 1.367 . S
C960 C968 1.378 . S
C961 C960 1.367 . S
C961 C969 1.433 . S
C962 H958 0.929 . S
C962 C964 1.378 1_565 S
C962 C966 1.350 . S
C963 C966 1.463 . S
C963 C968 1.350 . S
C963 N971 1.427 . S
C964 H955 0.930 . S
C964 C962 1.378 1_545 S
C964 C965 1.367 . S
C965 C964 1.367 . S
C965 C967 1.433 . S
C966 C962 1.350 . S
C966 C963 1.463 . S
C966 N970 1.427 1_565 S
C967 H957 0.929 . S
C967 C965 1.433 . S
C967 N970 1.384 . S
C968 H959 0.929 . S
C968 C960 1.378 . S
C968 C963 1.350 . S
C969 H956 0.929 . S
C969 C961 1.433 . S
C969 N971 1.384 . S
N970 C966 1.427 1_545 S
N970 C967 1.384 . S
N971 C963 1.427 . S
N971 C969 1.384 . S
H972 C978 0.930 . S
H973 C982 0.930 . S
H974 C987 0.929 . S
H975 C985 0.929 . S
H976 C980 0.929 . S
H977 C986 0.929 . S
C978 H972 0.930 . S
C978 C979 1.367 . S
C978 C986 1.378 1_655 S
C979 C978 1.367 . S
C979 C987 1.433 . S
C980 H976 0.929 . S
C980 C982 1.378 . S
C980 C984 1.350 . S
C981 C984 1.463 . S
C981 C986 1.350 . S
C981 N989 1.427 1_455 S
C982 H973 0.930 . S
C982 C980 1.378 . S
C982 C983 1.367 . S
C983 C982 1.367 . S
C983 C985 1.433 . S
C984 C980 1.350 . S
C984 C981 1.463 . S
C984 N988 1.427 . S
C985 H975 0.929 . S
C985 C983 1.433 . S
C985 N988 1.384 . S
C986 H977 0.929 . S
C986 C978 1.378 1_455 S
C986 C981 1.350 . S
C987 H974 0.929 . S
C987 C979 1.433 . S
C987 N989 1.384 . S
N988 C984 1.427 . S
N988 C985 1.384 . S
N989 C981 1.427 1_655 S
N989 C987 1.384 . S
H990 C996 0.930 . S
H991 C1000 0.923 . S
H992 C1005 0.929 . S
H993 C1003 0.929 . S
H994 C998 0.929 . S
H995 C1004 0.929 . S
C996 H990 0.930 . S
C996 C997 1.367 . S
C996 C1004 1.378 . S
C997 C996 1.367 . S
C997 C1005 1.433 . S
C998 H994 0.929 . S
C998 C1000 1.402 . S
C998 C1002 1.350 . S
C999 C1002 1.463 . S
C999 C1004 1.350 . S
C999 N1007 1.427 . S
C1000 H991 0.923 . S
C1000 C998 1.402 . S
C1000 C1001 1.351 1_655 S
C1001 C1000 1.351 1_455 S
C1001 C1003 1.433 . S
C1002 C998 1.350 . S
C1002 C999 1.463 . S
C1002 N1006 1.427 1_655 S
C1003 H993 0.929 . S
C1003 C1001 1.433 . S
C1003 N1006 1.384 . S
C1004 H995 0.929 . S
C1004 C996 1.378 . S
C1004 C999 1.350 . S
C1005 H992 0.929 . S
C1005 C997 1.433 . S
C1005 N1007 1.384 . S
N1006 C1002 1.427 1_455 S
N1006 C1003 1.384 . S
N1007 C999 1.427 . S
N1007 C1005 1.384 . S
H1008 C1014 0.930 . S
H1009 C1018 0.930 . S
H1010 C1023 0.929 . S
H1011 C1021 0.929 . S
H1012 C1016 0.929 . S
H1013 C1022 0.929 . S
C1014 H1008 0.930 . S
C1014 C1015 1.367 . S
C1014 C1022 1.378 . S
C1015 C1014 1.367 . S
C1015 C1023 1.433 . S
C1016 H1012 0.929 . S
C1016 C1018 1.378 . S
C1016 C1020 1.350 . S
C1017 C1020 1.463 . S
C1017 C1022 1.350 . S
C1017 N1025 1.427 . S
C1018 H1009 0.930 . S
C1018 C1016 1.378 . S
C1018 C1019 1.367 . S
C1019 C1018 1.367 . S
C1019 C1021 1.433 . S
C1020 C1016 1.350 . S
C1020 C1017 1.463 . S
C1020 N1024 1.427 . S
C1021 H1011 0.929 . S
C1021 C1019 1.433 . S
C1021 N1024 1.384 . S
C1022 H1013 0.929 . S
C1022 C1014 1.378 . S
C1022 C1017 1.350 . S
C1023 H1010 0.929 . S
C1023 C1015 1.433 . S
C1023 N1025 1.384 . S
N1024 C1020 1.427 . S
N1024 C1021 1.384 . S
N1025 C1017 1.427 . S
N1025 C1023 1.384 . S
H1026 C1032 0.930 . S
H1027 C1036 0.930 . S
H1028 C1041 0.929 . S
H1029 C1039 0.945 . S
H1030 C1034 0.929 . S
H1031 C1040 0.929 . S
C1032 H1026 0.930 . S
C1032 C1033 1.367 . S
C1032 C1040 1.378 . S
C1033 C1032 1.367 . S
C1033 C1041 1.433 . S
C1034 H1030 0.929 . S
C1034 C1036 1.378 . S
C1034 C1038 1.350 1_565 S
C1035 C1038 1.463 . S
C1035 C1040 1.350 . S
C1035 N1043 1.427 . S
C1036 H1027 0.930 . S
C1036 C1034 1.378 . S
C1036 C1037 1.367 . S
C1037 C1036 1.367 . S
C1037 C1039 1.400 1_565 S
C1038 C1034 1.350 1_545 S
C1038 C1035 1.463 . S
C1038 N1042 1.427 . S
C1039 H1029 0.945 . S
C1039 C1037 1.400 1_545 S
C1039 N1042 1.401 . S
C1040 H1031 0.929 . S
C1040 C1032 1.378 . S
C1040 C1035 1.350 . S
C1041 H1028 0.929 . S
C1041 C1033 1.433 . S
C1041 N1043 1.384 . S
N1042 C1038 1.427 . S
N1042 C1039 1.401 . S
N1043 C1035 1.427 . S
N1043 C1041 1.384 . S
H1044 C1050 0.930 . S
H1045 C1054 0.930 . S
H1046 C1059 0.929 . S
H1047 C1057 0.929 . S
H1048 C1052 0.929 . S
H1049 C1058 0.929 . S
C1050 H1044 0.930 . S
C1050 C1051 1.367 . S
C1050 C1058 1.378 . S
C1051 C1050 1.367 . S
C1051 C1059 1.433 . S
C1052 H1048 0.929 . S
C1052 C1054 1.378 . S
C1052 C1056 1.350 . S
C1053 C1056 1.463 . S
C1053 C1058 1.350 . S
C1053 N1061 1.427 . S
C1054 H1045 0.930 . S
C1054 C1052 1.378 . S
C1054 C1055 1.367 . S
C1055 C1054 1.367 . S
C1055 C1057 1.433 . S
C1056 C1052 1.350 . S
C1056 C1053 1.463 . S
C1056 N1060 1.427 . S
C1057 H1047 0.929 . S
C1057 C1055 1.433 . S
C1057 N1060 1.384 . S
C1058 H1049 0.929 . S
C1058 C1050 1.378 . S
C1058 C1053 1.350 . S
C1059 H1046 0.929 . S
C1059 C1051 1.433 . S
C1059 N1061 1.384 . S
N1060 C1056 1.427 . S
N1060 C1057 1.384 . S
N1061 C1053 1.427 . S
N1061 C1059 1.384 . S
H1062 C1068 0.930 1_556 S
H1063 C1072 0.930 . S
H1064 C1077 0.929 . S
H1065 C1075 0.929 . S
H1066 C1070 0.929 . S
H1067 C1076 0.929 . S
C1068 H1062 0.930 1_554 S
C1068 C1069 1.367 . S
C1068 C1076 1.378 . S
C1069 C1068 1.367 . S
C1069 C1077 1.433 . S
C1070 H1066 0.929 . S
C1070 C1072 1.378 . S
C1070 C1074 1.350 . S
C1071 C1074 1.463 . S
C1071 C1076 1.350 . S
C1071 N1079 1.427 . S
C1072 H1063 0.930 . S
C1072 C1070 1.378 . S
C1072 C1073 1.367 . S
C1073 C1072 1.367 . S
C1073 C1075 1.433 . S
C1074 C1070 1.350 . S
C1074 C1071 1.463 . S
C1074 N1078 1.427 . S
C1075 H1065 0.929 . S
C1075 C1073 1.433 . S
C1075 N1078 1.384 . S
C1076 H1067 0.929 . S
C1076 C1068 1.378 . S
C1076 C1071 1.350 . S
C1077 H1064 0.929 . S
C1077 C1069 1.433 . S
C1077 N1079 1.384 . S
N1078 C1074 1.427 . S
N1078 C1075 1.384 . S
N1079 C1071 1.427 . S
N1079 C1077 1.384 . S
H1080 C1086 0.930 . S
H1081 C1090 0.930 . S
H1082 C1095 0.929 . S
H1083 C1093 0.929 . S
H1084 C1088 0.929 . S
H1085 C1094 0.929 . S
C1086 H1080 0.930 . S
C1086 C1087 1.367 . S
C1086 C1094 1.378 . S
C1087 C1086 1.367 . S
C1087 C1095 1.433 . S
C1088 H1084 0.929 . S
C1088 C1090 1.378 . S
C1088 C1092 1.350 . S
C1089 C1092 1.463 . S
C1089 C1094 1.350 . S
C1089 N1097 1.427 . S
C1090 H1081 0.930 . S
C1090 C1088 1.378 . S
C1090 C1091 1.367 . S
C1091 C1090 1.367 . S
C1091 C1093 1.433 . S
C1092 C1088 1.350 . S
C1092 C1089 1.463 . S
C1092 N1096 1.427 . S
C1093 H1083 0.929 . S
C1093 C1091 1.433 . S
C1093 N1096 1.384 . S
C1094 H1085 0.929 . S
C1094 C1086 1.378 . S
C1094 C1089 1.350 . S
C1095 H1082 0.929 . S
C1095 C1087 1.433 . S
C1095 N1097 1.384 . S
N1096 C1092 1.427 . S
N1096 C1093 1.384 . S
N1097 C1089 1.427 . S
N1097 C1095 1.384 . S
H1098 C1104 0.930 . S
H1099 C1108 0.930 . S
H1100 C1113 0.929 . S
H1101 C1111 0.929 . S
H1102 C1106 0.929 . S
H1103 C1112 0.929 . S
C1104 H1098 0.930 . S
C1104 C1105 1.367 . S
C1104 C1112 1.378 . S
C1105 C1104 1.367 . S
C1105 C1113 1.433 . S
C1106 H1102 0.929 . S
C1106 C1108 1.378 . S
C1106 C1110 1.350 . S
C1107 C1110 1.463 . S
C1107 C1112 1.350 . S
C1107 N1115 1.427 . S
C1108 H1099 0.930 . S
C1108 C1106 1.378 . S
C1108 C1109 1.367 . S
C1109 C1108 1.367 . S
C1109 C1111 1.433 . S
C1110 C1106 1.350 . S
C1110 C1107 1.463 . S
C1110 N1114 1.427 . S
C1111 H1101 0.929 . S
C1111 C1109 1.433 . S
C1111 N1114 1.384 . S
C1112 H1103 0.929 . S
C1112 C1104 1.378 . S
C1112 C1107 1.350 . S
C1113 H1100 0.929 . S
C1113 C1105 1.433 . S
C1113 N1115 1.384 . S
N1114 C1110 1.427 . S
N1114 C1111 1.384 . S
N1115 C1107 1.427 . S
N1115 C1113 1.384 . S
H1116 C1122 0.930 . S
H1117 C1126 0.930 . S
H1118 C1131 0.929 . S
H1119 C1129 0.929 . S
H1120 C1124 0.929 . S
H1121 C1130 0.929 . S
C1122 H1116 0.930 . S
C1122 C1123 1.367 . S
C1122 C1130 1.378 . S
C1123 C1122 1.367 . S
C1123 C1131 1.433 . S
C1124 H1120 0.929 . S
C1124 C1126 1.378 . S
C1124 C1128 1.350 . S
C1125 C1128 1.463 . S
C1125 C1130 1.350 . S
C1125 N1133 1.427 . S
C1126 H1117 0.930 . S
C1126 C1124 1.378 . S
C1126 C1127 1.367 . S
C1127 C1126 1.367 . S
C1127 C1129 1.433 . S
C1128 C1124 1.350 . S
C1128 C1125 1.463 . S
C1128 N1132 1.427 . S
C1129 H1119 0.929 . S
C1129 C1127 1.433 . S
C1129 N1132 1.384 . S
C1130 H1121 0.929 . S
C1130 C1122 1.378 . S
C1130 C1125 1.350 . S
C1131 H1118 0.929 . S
C1131 C1123 1.433 . S
C1131 N1133 1.384 . S
N1132 C1128 1.427 . S
N1132 C1129 1.384 . S
N1133 C1125 1.427 . S
N1133 C1131 1.384 . S
H1134 C1140 0.930 . S
H1135 C1144 0.930 . S
H1136 C1149 0.929 1_554 S
H1137 C1147 0.929 . S
H1138 C1142 0.929 . S
H1139 C1148 0.929 . S
C1140 H1134 0.930 . S
C1140 C1141 1.367 . S
C1140 C1148 1.378 . S
C1141 C1140 1.367 . S
C1141 C1149 1.433 . S
C1142 H1138 0.929 . S
C1142 C1144 1.378 . S
C1142 C1146 1.350 . S
C1143 C1146 1.463 . S
C1143 C1148 1.350 . S
C1143 N1151 1.427 . S
C1144 H1135 0.930 . S
C1144 C1142 1.378 . S
C1144 C1145 1.367 . S
C1145 C1144 1.367 . S
C1145 C1147 1.433 . S
C1146 C1142 1.350 . S
C1146 C1143 1.463 . S
C1146 N1150 1.427 . S
C1147 H1137 0.929 . S
C1147 C1145 1.433 . S
C1147 N1150 1.384 . S
C1148 H1139 0.929 . S
C1148 C1140 1.378 . S
C1148 C1143 1.350 . S
C1149 H1136 0.929 1_556 S
C1149 C1141 1.433 . S
C1149 N1151 1.384 . S
N1150 C1146 1.427 . S
N1150 C1147 1.384 . S
N1151 C1143 1.427 . S
N1151 C1149 1.384 . S
H1152 C1158 0.930 . S
H1153 C1162 0.930 . S
H1154 C1167 0.929 . S
H1155 C1165 0.929 . S
H1156 C1160 0.929 . S
H1157 C1166 0.929 . S
C1158 H1152 0.930 . S
C1158 C1159 1.367 . S
C1158 C1166 1.378 . S
C1159 C1158 1.367 . S
C1159 C1167 1.433 1_655 S
C1160 H1156 0.929 . S
C1160 C1162 1.378 . S
C1160 C1164 1.350 . S
C1161 C1164 1.463 . S
C1161 C1166 1.350 1_455 S
C1161 N1169 1.427 . S
C1162 H1153 0.930 . S
C1162 C1160 1.378 . S
C1162 C1163 1.367 . S
C1163 C1162 1.367 . S
C1163 C1165 1.433 . S
C1164 C1160 1.350 . S
C1164 C1161 1.463 . S
C1164 N1168 1.427 . S
C1165 H1155 0.929 . S
C1165 C1163 1.433 . S
C1165 N1168 1.384 . S
C1166 H1157 0.929 . S
C1166 C1158 1.378 . S
C1166 C1161 1.350 1_655 S
C1167 H1154 0.929 . S
C1167 C1159 1.433 1_455 S
C1167 N1169 1.384 . S
N1168 C1164 1.427 . S
N1168 C1165 1.384 . S
N1169 C1161 1.427 . S
N1169 C1167 1.384 . S
H1170 C1176 0.930 . S
H1171 C1180 0.930 . S
H1172 C1185 0.929 . S
H1173 C1183 0.929 . S
H1174 C1178 0.929 . S
H1175 C1184 0.929 . S
C1176 H1170 0.930 . S
C1176 C1177 1.367 . S
C1176 C1184 1.378 . S
C1177 C1176 1.367 . S
C1177 C1185 1.433 . S
C1178 H1174 0.929 . S
C1178 C1180 1.378 . S
C1178 C1182 1.350 . S
C1179 C1182 1.463 . S
C1179 C1184 1.350 . S
C1179 N1187 1.427 . S
C1180 H1171 0.930 . S
C1180 C1178 1.378 . S
C1180 C1181 1.367 . S
C1181 C1180 1.367 . S
C1181 C1183 1.433 . S
C1182 C1178 1.350 . S
C1182 C1179 1.463 . S
C1182 N1186 1.427 . S
C1183 H1173 0.929 . S
C1183 C1181 1.433 . S
C1183 N1186 1.384 . S
C1184 H1175 0.929 . S
C1184 C1176 1.378 . S
C1184 C1179 1.350 . S
C1185 H1172 0.929 . S
C1185 C1177 1.433 . S
C1185 N1187 1.384 . S
N1186 C1182 1.427 . S
N1186 C1183 1.384 . S
N1187 C1179 1.427 . S
N1187 C1185 1.384 . S
H1188 C1194 0.930 . S
H1189 C1198 0.930 . S
H1190 C1203 0.929 . S
H1191 C1201 0.929 . S
H1192 C1196 0.929 . S
H1193 C1202 0.929 . S
C1194 H1188 0.930 . S
C1194 C1195 1.367 . S
C1194 C1202 1.378 1_545 S
C1195 C1194 1.367 . S
C1195 C1203 1.433 . S
C1196 H1192 0.929 . S
C1196 C1198 1.378 . S
C1196 C1200 1.350 . S
C1197 C1200 1.463 . S
C1197 C1202 1.350 . S
C1197 N1205 1.428 . S
C1198 H1189 0.930 . S
C1198 C1196 1.378 . S
C1198 C1199 1.367 . S
C1199 C1198 1.367 . S
C1199 C1201 1.433 . S
C1200 C1196 1.350 . S
C1200 C1197 1.463 . S
C1200 N1204 1.427 . S
C1201 H1191 0.929 . S
C1201 C1199 1.433 . S
C1201 N1204 1.384 . S
C1202 H1193 0.929 . S
C1202 C1194 1.378 1_565 S
C1202 C1197 1.350 . S
C1203 H1190 0.929 . S
C1203 C1195 1.433 . S
C1203 N1205 1.383 1_545 S
N1204 C1200 1.427 . S
N1204 C1201 1.384 . S
N1205 C1197 1.428 . S
N1205 C1203 1.383 1_565 S
H1206 C1212 0.930 . S
H1207 C1216 0.930 . S
H1208 C1221 0.929 . S
H1209 C1219 0.929 . S
H1210 C1214 0.929 . S
H1211 C1220 0.929 . S
C1212 H1206 0.930 . S
C1212 C1213 1.367 . S
C1212 C1220 1.378 . S
C1213 C1212 1.367 . S
C1213 C1221 1.433 . S
C1214 H1210 0.929 . S
C1214 C1216 1.378 . S
C1214 C1218 1.350 . S
C1215 C1218 1.463 . S
C1215 C1220 1.350 . S
C1215 N1223 1.427 . S
C1216 H1207 0.930 . S
C1216 C1214 1.378 . S
C1216 C1217 1.367 . S
C1217 C1216 1.367 . S
C1217 C1219 1.433 . S
C1218 C1214 1.350 . S
C1218 C1215 1.463 . S
C1218 N1222 1.427 . S
C1219 H1209 0.929 . S
C1219 C1217 1.433 . S
C1219 N1222 1.384 . S
C1220 H1211 0.929 . S
C1220 C1212 1.378 . S
C1220 C1215 1.350 . S
C1221 H1208 0.929 . S
C1221 C1213 1.433 . S
C1221 N1223 1.384 . S
N1222 C1218 1.427 . S
N1222 C1219 1.384 . S
N1223 C1215 1.427 . S
N1223 C1221 1.384 . S
H1224 C1230 0.930 . S
H1225 C1234 0.930 . S
H1226 C1239 0.929 . S
H1227 C1237 0.929 . S
H1228 C1232 0.929 . S
H1229 C1238 0.929 . S
C1230 H1224 0.930 . S
C1230 C1231 1.367 . S
C1230 C1238 1.378 . S
C1231 C1230 1.367 . S
C1231 C1239 1.433 . S
C1232 H1228 0.929 . S
C1232 C1234 1.378 . S
C1232 C1236 1.350 . S
C1233 C1236 1.463 . S
C1233 C1238 1.350 . S
C1233 N1241 1.427 . S
C1234 H1225 0.930 . S
C1234 C1232 1.378 . S
C1234 C1235 1.367 . S
C1235 C1234 1.367 . S
C1235 C1237 1.433 . S
C1236 C1232 1.350 . S
C1236 C1233 1.463 . S
C1236 N1240 1.427 . S
C1237 H1227 0.929 . S
C1237 C1235 1.433 . S
C1237 N1240 1.384 . S
C1238 H1229 0.929 . S
C1238 C1230 1.378 . S
C1238 C1233 1.350 . S
C1239 H1226 0.929 . S
C1239 C1231 1.433 . S
C1239 N1241 1.384 . S
N1240 C1236 1.427 . S
N1240 C1237 1.384 . S
N1241 C1233 1.427 . S
N1241 C1239 1.384 . S
H1242 C1248 0.930 . S
H1243 C1252 0.930 . S
H1244 C1257 0.929 . S
H1245 C1255 0.929 . S
H1246 C1250 0.929 . S
H1247 C1256 0.929 . S
C1248 H1242 0.930 . S
C1248 C1249 1.367 . S
C1248 C1256 1.378 . S
C1249 C1248 1.367 . S
C1249 C1257 1.433 . S
C1250 H1246 0.929 . S
C1250 C1252 1.378 . S
C1250 C1254 1.350 . S
C1251 C1254 1.463 . S
C1251 C1256 1.350 . S
C1251 N1259 1.427 . S
C1252 H1243 0.930 . S
C1252 C1250 1.378 . S
C1252 C1253 1.367 . S
C1253 C1252 1.367 . S
C1253 C1255 1.433 . S
C1254 C1250 1.350 . S
C1254 C1251 1.463 . S
C1254 N1258 1.427 . S
C1255 H1245 0.929 . S
C1255 C1253 1.433 . S
C1255 N1258 1.384 . S
C1256 H1247 0.929 . S
C1256 C1248 1.378 . S
C1256 C1251 1.350 . S
C1257 H1244 0.929 . S
C1257 C1249 1.433 . S
C1257 N1259 1.384 . S
N1258 C1254 1.427 . S
N1258 C1255 1.384 . S
N1259 C1251 1.427 . S
N1259 C1257 1.384 . S
H1260 C1266 0.930 . S
H1261 C1270 0.930 . S
H1262 C1275 0.929 . S
H1263 C1273 0.929 . S
H1264 C1268 0.929 . S
H1265 C1274 0.929 . S
C1266 H1260 0.930 . S
C1266 C1267 1.367 . S
C1266 C1274 1.378 . S
C1267 C1266 1.367 . S
C1267 C1275 1.433 . S
C1268 H1264 0.929 . S
C1268 C1270 1.378 . S
C1268 C1272 1.350 . S
C1269 C1272 1.463 . S
C1269 C1274 1.350 . S
C1269 N1277 1.427 . S
C1270 H1261 0.930 . S
C1270 C1268 1.378 . S
C1270 C1271 1.367 . S
C1271 C1270 1.367 . S
C1271 C1273 1.433 . S
C1272 C1268 1.350 . S
C1272 C1269 1.463 . S
C1272 N1276 1.427 . S
C1273 H1263 0.929 . S
C1273 C1271 1.433 . S
C1273 N1276 1.384 . S
C1274 H1265 0.929 . S
C1274 C1266 1.378 . S
C1274 C1269 1.350 . S
C1275 H1262 0.929 . S
C1275 C1267 1.433 . S
C1275 N1277 1.384 . S
N1276 C1272 1.427 . S
N1276 C1273 1.384 . S
N1277 C1269 1.427 . S
N1277 C1275 1.384 . S
H1278 C1284 0.930 . S
H1279 C1288 0.930 . S
H1280 C1293 0.929 . S
H1281 C1291 0.929 . S
H1282 C1286 0.929 . S
H1283 C1292 0.929 . S
C1284 H1278 0.930 . S
C1284 C1285 1.367 . S
C1284 C1292 1.378 . S
C1285 C1284 1.367 . S
C1285 C1293 1.433 . S
C1286 H1282 0.929 . S
C1286 C1288 1.378 . S
C1286 C1290 1.350 . S
C1287 C1290 1.463 . S
C1287 C1292 1.350 . S
C1287 N1295 1.427 . S
C1288 H1279 0.930 . S
C1288 C1286 1.378 . S
C1288 C1289 1.367 . S
C1289 C1288 1.367 . S
C1289 C1291 1.433 . S
C1290 C1286 1.350 . S
C1290 C1287 1.463 . S
C1290 N1294 1.427 . S
C1291 H1281 0.929 . S
C1291 C1289 1.433 . S
C1291 N1294 1.384 . S
C1292 H1283 0.929 . S
C1292 C1284 1.378 . S
C1292 C1287 1.350 . S
C1293 H1280 0.929 . S
C1293 C1285 1.433 . S
C1293 N1295 1.384 . S
N1294 C1290 1.427 . S
N1294 C1291 1.384 . S
N1295 C1287 1.427 . S
N1295 C1293 1.384 . S
H1296 C1302 0.930 . S
H1297 C1306 0.930 . S
H1298 C1311 0.929 . S
H1299 C1309 0.929 . S
H1300 C1304 0.929 . S
H1301 C1310 0.929 . S
C1302 H1296 0.930 . S
C1302 C1303 1.367 . S
C1302 C1310 1.378 . S
C1303 C1302 1.367 . S
C1303 C1311 1.433 . S
C1304 H1300 0.929 . S
C1304 C1306 1.378 . S
C1304 C1308 1.350 . S
C1305 C1308 1.463 . S
C1305 C1310 1.350 . S
C1305 N1313 1.427 . S
C1306 H1297 0.930 . S
C1306 C1304 1.378 . S
C1306 C1307 1.367 . S
C1307 C1306 1.367 . S
C1307 C1309 1.433 . S
C1308 C1304 1.350 . S
C1308 C1305 1.463 . S
C1308 N1312 1.427 . S
C1309 H1299 0.929 . S
C1309 C1307 1.433 . S
C1309 N1312 1.384 . S
C1310 H1301 0.929 . S
C1310 C1302 1.378 . S
C1310 C1305 1.350 . S
C1311 H1298 0.929 . S
C1311 C1303 1.433 . S
C1311 N1313 1.384 . S
N1312 C1308 1.427 . S
N1312 C1309 1.384 . S
N1313 C1305 1.427 . S
N1313 C1311 1.384 . S
H1314 C1320 0.930 . S
H1315 C1324 0.930 . S
H1316 C1329 0.929 . S
H1317 C1327 0.929 . S
H1318 C1322 0.929 1_554 S
H1319 C1328 0.929 1_556 S
C1320 H1314 0.930 . S
C1320 C1321 1.367 . S
C1320 C1328 1.378 . S
C1321 C1320 1.367 . S
C1321 C1329 1.433 . S
C1322 H1318 0.929 1_556 S
C1322 C1324 1.378 . S
C1322 C1326 1.350 . S
C1323 C1326 1.463 1_544 S
C1323 C1328 1.350 . S
C1323 N1331 1.427 . S
C1324 H1315 0.930 . S
C1324 C1322 1.378 . S
C1324 C1325 1.367 . S
C1325 C1324 1.367 . S
C1325 C1327 1.433 . S
C1326 C1322 1.350 . S
C1326 C1323 1.463 1_566 S
C1326 N1330 1.427 . S
C1327 H1317 0.929 . S
C1327 C1325 1.433 . S
C1327 N1330 1.384 . S
C1328 H1319 0.929 1_554 S
C1328 C1320 1.378 . S
C1328 C1323 1.350 . S
C1329 H1316 0.929 . S
C1329 C1321 1.433 . S
C1329 N1331 1.384 . S
N1330 C1326 1.427 . S
N1330 C1327 1.384 . S
N1331 C1323 1.427 . S
N1331 C1329 1.384 . S
H1332 C1338 0.930 . S
H1333 C1342 0.930 . S
H1334 C1347 0.929 . S
H1335 C1345 0.929 . S
H1336 C1340 0.929 1_554 S
H1337 C1346 0.929 1_556 S
C1338 H1332 0.930 . S
C1338 C1339 1.367 . S
C1338 C1346 1.378 . S
C1339 C1338 1.367 . S
C1339 C1347 1.433 . S
C1340 H1336 0.929 1_556 S
C1340 C1342 1.378 . S
C1340 C1344 1.350 . S
C1341 C1344 1.463 1_654 S
C1341 C1346 1.350 . S
C1341 N1349 1.427 1_655 S
C1342 H1333 0.930 . S
C1342 C1340 1.378 . S
C1342 C1343 1.367 . S
C1343 C1342 1.367 . S
C1343 C1345 1.433 . S
C1344 C1340 1.350 . S
C1344 C1341 1.463 1_456 S
C1344 N1348 1.427 1_455 S
C1345 H1335 0.929 . S
C1345 C1343 1.433 . S
C1345 N1348 1.384 1_455 S
C1346 H1337 0.929 1_554 S
C1346 C1338 1.378 . S
C1346 C1341 1.350 . S
C1347 H1334 0.929 . S
C1347 C1339 1.433 . S
C1347 N1349 1.384 1_655 S
N1348 C1344 1.427 1_655 S
N1348 C1345 1.384 1_655 S
N1349 C1341 1.427 1_455 S
N1349 C1347 1.384 1_455 S
H1350 C1356 0.930 . S
H1351 C1360 0.930 . S
H1352 C1365 0.929 . S
H1353 C1363 0.929 . S
H1354 C1358 0.929 . S
H1355 C1364 0.929 . S
C1356 H1350 0.930 . S
C1356 C1357 1.367 . S
C1356 C1364 1.378 . S
C1357 C1356 1.367 . S
C1357 C1365 1.433 . S
C1358 H1354 0.929 . S
C1358 C1360 1.378 . S
C1358 C1362 1.350 . S
C1359 C1362 1.463 1_556 S
C1359 C1364 1.350 . S
C1359 N1367 1.427 . S
C1360 H1351 0.930 . S
C1360 C1358 1.378 . S
C1360 C1361 1.367 . S
C1361 C1360 1.367 . S
C1361 C1363 1.433 . S
C1362 C1358 1.350 . S
C1362 C1359 1.463 1_554 S
C1362 N1366 1.427 . S
C1363 H1353 0.929 . S
C1363 C1361 1.433 . S
C1363 N1366 1.384 . S
C1364 H1355 0.929 . S
C1364 C1356 1.378 . S
C1364 C1359 1.350 . S
C1365 H1352 0.929 . S
C1365 C1357 1.433 . S
C1365 N1367 1.384 . S
N1366 C1362 1.427 . S
N1366 C1363 1.384 . S
N1367 C1359 1.427 . S
N1367 C1365 1.384 . S
C403 C92 1.436 . S
C407 C8 1.432 . S
C421 C30 1.435 . S
C425 C114 1.434 . S
C439 C70 1.436 . S
C443 C52 1.432 . S
C457 C74 1.432 . S
C461 C26 1.436 . S
C475 C96 1.431 . S
C479 C48 1.431 . S
C493 C4 1.433 . S
C497 C118 1.434 . S
C511 C140 1.432 . S
C515 C224 1.436 . S
C529 C246 1.436 . S
C533 C162 1.432 . S
C547 C202 1.432 . S
C551 C184 1.429 . S
C565 C206 1.430 . S
C569 C158 1.432 . S
C583 C180 1.436 . S
C587 C228 1.432 . S
C601 C250 1.435 . S
C605 C136 1.435 . S
C619 C356 1.434 . S
C623 C272 1.434 . S
C637 C294 1.435 . S
C641 C378 1.434 . S
C655 C334 1.436 . S
C659 C316 1.432 . S
C673 C290 1.432 . S
C677 C338 1.431 . S
C691 C360 1.432 . S
C695 C312 1.432 . S
C709 C268 1.436 . S
C713 C382 1.433 . S
C727 C5 0.949 . S
C731 C336 0.949 . S
C745 C27 0.977 . S
C749 C358 0.977 . S
C763 C380 0.961 . S
C767 C49 0.961 . S
C781 C72 0.944 . S
C785 C137 0.944 . S
C799 C94 0.971 . S
C803 C159 0.971 . S
C817 C181 0.954 . S
C821 C116 0.954 . S
C835 C269 0.970 . S
C839 C204 0.970 . S
C853 C291 0.973 . S
C857 C226 0.973 . S
C871 C313 0.972 . S
C875 C248 0.972 . S
C889 C9 1.254 . S
C893 C161 1.162 . S
C907 C183 1.164 . S
C911 C31 1.254 . S
C925 C139 1.172 . S
C929 C53 1.254 . S
C943 C73 1.254 . S
C947 C361 1.156 . S
C961 C383 1.180 . S
C965 C95 1.255 . S
C979 C117 1.255 . S
C983 C339 1.180 . S
C997 C141 1.254 . S
C1001 C293 1.156 . S
C1015 C163 1.255 . S
C1019 C315 1.173 . S
C1033 C185 1.255 . S
C1037 C271 1.179 . S
C1051 C97 1.156 . S
C1055 C205 1.254 . S
C1069 C119 1.162 . S
C1073 C227 1.254 . S
C1087 C75 1.156 . S
C1091 C249 1.254 . S
C1105 C273 1.254 . S
C1109 C29 1.161 . S
C1123 C295 1.254 . S
C1127 C51 1.156 . S
C1141 C7 1.170 . S
C1145 C317 1.254 . S
C1159 C229 1.181 . S
C1163 C337 1.255 . S
C1177 C359 1.254 . S
C1181 C251 1.161 . S
C1195 C207 1.157 . S
C1199 C381 1.254 . S
C1213 C6 1.870 . S
C1217 C335 1.870 . S
C1231 C28 1.863 . S
C1235 C357 1.863 . S
C1249 C50 1.861 . S
C1253 C379 1.861 . S
C1267 C138 1.870 . S
C1271 C71 1.870 . S
C1285 C93 1.867 . S
C1289 C160 1.867 . S
C1303 C182 1.870 . S
C1307 C115 1.870 . S
C1321 C203 1.863 . S
C1325 C270 1.863 . S
C1339 C225 1.865 . S
C1343 C292 1.865 . S
C1357 C314 1.863 . S
C1361 C247 1.863 . S
