# Generated by pormake.
# Topology ure, (4)-cn, num edge types: 1
# Building blocks:
#     Node 0, Type 0, BuildingBlock: GALJAG_clean_sbu_0, # of connection points: 4
#     Node 1, Type 0, BuildingBlock: GALJAG_clean_sbu_0, # of connection points: 4
#     Node 2, Type 0, BuildingBlock: GALJAG_clean_sbu_0, # of connection points: 4
#     Node 3, Type 0, BuildingBlock: GALJAG_clean_sbu_0, # of connection points: 4
#     Node 4, Type 0, BuildingBlock: GALJAG_clean_sbu_0, # of connection points: 4
#     Node 5, Type 0, BuildingBlock: GALJAG_clean_sbu_0, # of connection points: 4
#     Node 6, Type 0, BuildingBlock: GALJAG_clean_sbu_0, # of connection points: 4
#     Node 7, Type 0, BuildingBlock: GALJAG_clean_sbu_0, # of connection points: 4
#     Node 8, Type 0, BuildingBlock: GALJAG_clean_sbu_0, # of connection points: 4
#     Node 9, Type 0, BuildingBlock: GALJAG_clean_sbu_0, # of connection points: 4
#     Node 10, Type 0, BuildingBlock: GALJAG_clean_sbu_0, # of connection points: 4
#     Node 11, Type 0, BuildingBlock: GALJAG_clean_sbu_0, # of connection points: 4
#     Node 12, Type 0, BuildingBlock: GALJAG_clean_sbu_0, # of connection points: 4
#     Node 13, Type 0, BuildingBlock: GALJAG_clean_sbu_0, # of connection points: 4
#     Node 14, Type 0, BuildingBlock: GALJAG_clean_sbu_0, # of connection points: 4
#     Node 15, Type 0, BuildingBlock: GALJAG_clean_sbu_0, # of connection points: 4
#     Edge 16, Type (0, 0), BuildingBlock: AJUNOK_clean_linker_0, # of connection points: 2
#     Edge 17, Type (0, 0), BuildingBlock: AJUNOK_clean_linker_0, # of connection points: 2
#     Edge 18, Type (0, 0), BuildingBlock: AJUNOK_clean_linker_0, # of connection points: 2
#     Edge 19, Type (0, 0), BuildingBlock: AJUNOK_clean_linker_0, # of connection points: 2
#     Edge 20, Type (0, 0), BuildingBlock: AJUNOK_clean_linker_0, # of connection points: 2
#     Edge 21, Type (0, 0), BuildingBlock: AJUNOK_clean_linker_0, # of connection points: 2
#     Edge 22, Type (0, 0), BuildingBlock: AJUNOK_clean_linker_0, # of connection points: 2
#     Edge 23, Type (0, 0), BuildingBlock: AJUNOK_clean_linker_0, # of connection points: 2
#     Edge 24, Type (0, 0), BuildingBlock: AJUNOK_clean_linker_0, # of connection points: 2
#     Edge 25, Type (0, 0), BuildingBlock: AJUNOK_clean_linker_0, # of connection points: 2
#     Edge 26, Type (0, 0), BuildingBlock: AJUNOK_clean_linker_0, # of connection points: 2
#     Edge 27, Type (0, 0), BuildingBlock: AJUNOK_clean_linker_0, # of connection points: 2
#     Edge 28, Type (0, 0), BuildingBlock: AJUNOK_clean_linker_0, # of connection points: 2
#     Edge 29, Type (0, 0), BuildingBlock: AJUNOK_clean_linker_0, # of connection points: 2
#     Edge 30, Type (0, 0), BuildingBlock: AJUNOK_clean_linker_0, # of connection points: 2
#     Edge 31, Type (0, 0), BuildingBlock: AJUNOK_clean_linker_0, # of connection points: 2
#     Edge 32, Type (0, 0), BuildingBlock: AJUNOK_clean_linker_0, # of connection points: 2
#     Edge 33, Type (0, 0), BuildingBlock: AJUNOK_clean_linker_0, # of connection points: 2
#     Edge 34, Type (0, 0), BuildingBlock: AJUNOK_clean_linker_0, # of connection points: 2
#     Edge 35, Type (0, 0), BuildingBlock: AJUNOK_clean_linker_0, # of connection points: 2
#     Edge 36, Type (0, 0), BuildingBlock: AJUNOK_clean_linker_0, # of connection points: 2
#     Edge 37, Type (0, 0), BuildingBlock: AJUNOK_clean_linker_0, # of connection points: 2
#     Edge 38, Type (0, 0), BuildingBlock: AJUNOK_clean_linker_0, # of connection points: 2
#     Edge 39, Type (0, 0), BuildingBlock: AJUNOK_clean_linker_0, # of connection points: 2
#     Edge 40, Type (0, 0), BuildingBlock: AJUNOK_clean_linker_0, # of connection points: 2
#     Edge 41, Type (0, 0), BuildingBlock: AJUNOK_clean_linker_0, # of connection points: 2
#     Edge 42, Type (0, 0), BuildingBlock: AJUNOK_clean_linker_0, # of connection points: 2
#     Edge 43, Type (0, 0), BuildingBlock: AJUNOK_clean_linker_0, # of connection points: 2
#     Edge 44, Type (0, 0), BuildingBlock: AJUNOK_clean_linker_0, # of connection points: 2
#     Edge 45, Type (0, 0), BuildingBlock: AJUNOK_clean_linker_0, # of connection points: 2
#     Edge 46, Type (0, 0), BuildingBlock: AJUNOK_clean_linker_0, # of connection points: 2
#     Edge 47, Type (0, 0), BuildingBlock: AJUNOK_clean_linker_0, # of connection points: 2
# Relax obj value: 0.290
# Max RMSD: 0.221
# Mean RMSD: 0.173
data_MOF--net-ure--node1-GALJAG_clean_sbu_0--edge1-AJUNOK_clean_linker_0
_symmetry_space_group_name_H-M    P1
_symmetry_Int_Tables_number       1
_symmetry_cell_setting            triclinic
loop_
_symmetry_equiv_pos_as_xyz
'x, y, z'
_cell_length_a     20.603677
_cell_length_b     23.94037
_cell_length_c     24.085825
_cell_angle_alpha  100.13242
_cell_angle_beta   96.302943
_cell_angle_gamma 95.82555
loop_
_atom_site_label
_atom_site_type_symbol
_atom_site_fract_x
_atom_site_fract_y
_atom_site_fract_z
_atom_type_partial_charge
In0 In 0.28632 0.32791 0.30398 0.0
O1 O 0.24773 0.23452 0.27421 0.0
O2 O 0.19678 0.29528 0.23837 0.0
C3 C 0.29894 0.32319 0.41586 0.0
C4 C 0.40091 0.30489 0.26816 0.0
C5 C 0.26106 0.42762 0.27351 0.0
O6 O 0.24407 0.31211 0.38477 0.0
O7 O 0.34597 0.3397 0.39121 0.0
O8 O 0.30022 0.39606 0.25142 0.0
O9 O 0.23379 0.40924 0.31244 0.0
C10 C 0.20255 0.2433 0.23821 0.0
O11 O 0.39479 0.35086 0.301 0.0
O12 O 0.349 0.27043 0.25347 0.0
In13 In 0.04079 0.01784 0.52459 0.0
O14 O 0.1043 0.03704 0.61135 0.0
O15 O 0.05161 0.95419 0.5823 0.0
C16 C 0.03292 0.12692 0.51067 0.0
C17 C 0.10736 0.96557 0.44563 0.0
C18 C 0.91076 0.98401 0.51707 0.0
O19 O 0.01436 0.10838 0.55268 0.0
O20 O 0.06044 0.09236 0.47813 0.0
O21 O 0.94305 0.96805 0.47671 0.0
O22 O 0.94447 0.01552 0.55991 0.0
C23 C 0.08575 0.98893 0.62288 0.0
O24 O 0.04527 0.9588 0.44146 0.0
O25 O 0.13612 0.99859 0.49043 0.0
In26 In 0.30874 0.75341 0.7643 0.0
O27 O 0.2012 0.72622 0.72629 0.0
O28 O 0.22828 0.80997 0.77509 0.0
C29 C 0.34992 0.64934 0.75073 0.0
C30 C 0.35793 0.81179 0.68978 0.0
C31 C 0.32357 0.77031 0.87792 0.0
O32 O 0.29273 0.6584 0.73255 0.0
O33 O 0.38874 0.69394 0.77329 0.0
O34 O 0.36123 0.7992 0.85236 0.0
O35 O 0.28025 0.7342 0.84641 0.0
C36 C 0.18289 0.77327 0.74725 0.0
O37 O 0.35701 0.83479 0.74097 0.0
O38 O 0.33844 0.759 0.67749 0.0
In39 In 0.50576 0.98966 0.01399 0.0
O40 O 0.44534 0.01003 0.93628 0.0
O41 O 0.48504 0.07838 0.00441 0.0
C42 C 0.49558 0.87648 0.00563 0.0
C43 C 0.63172 0.0024 0.99487 0.0
C44 C 0.46588 0.00467 0.11635 0.0
O45 O 0.46605 0.89864 0.96746 0.0
O46 O 0.52836 0.91122 0.04691 0.0
O47 O 0.51985 0.02786 0.10583 0.0
O48 O 0.42716 0.97835 0.07306 0.0
C49 C 0.4546 0.06339 0.95493 0.0
O50 O 0.61264 0.02851 0.03914 0.0
O51 O 0.58707 0.97112 0.95992 0.0
In52 In 0.32218 0.76372 0.22767 0.0
O53 O 0.28813 0.67123 0.18618 0.0
O54 O 0.27076 0.69713 0.27152 0.0
C55 C 0.32923 0.77397 0.11865 0.0
C56 C 0.25396 0.83817 0.28569 0.0
C57 C 0.44719 0.7754 0.27711 0.0
O58 O 0.35729 0.73861 0.14252 0.0
O59 O 0.29748 0.80598 0.15009 0.0
O60 O 0.42467 0.81253 0.25175 0.0
O61 O 0.40592 0.73358 0.27925 0.0
C62 C 0.26709 0.65686 0.22939 0.0
O63 O 0.31525 0.83874 0.29741 0.0
O64 O 0.22732 0.80079 0.24332 0.0
In65 In 0.50294 0.99117 0.44999 0.0
O66 O 0.43186 0.98693 0.51677 0.0
O67 O 0.46717 0.91075 0.47926 0.0
C68 C 0.53265 0.10393 0.45224 0.0
C69 C 0.62792 0.97258 0.47919 0.0
C70 C 0.44245 0.96222 0.34281 0.0
O71 O 0.5074 0.0858 0.49236 0.0
O72 O 0.54183 0.0657 0.41182 0.0
O73 O 0.4836 0.93377 0.36412 0.0
O74 O 0.42455 0.00105 0.37845 0.0
C75 C 0.4339 0.93411 0.5155 0.0
O76 O 0.59666 0.95169 0.43077 0.0
O77 O 0.59566 0.00178 0.51244 0.0
In78 In 0.33981 0.30831 0.76467 0.0
O79 O 0.38489 0.22631 0.76973 0.0
O80 O 0.39031 0.28653 0.84622 0.0
C81 C 0.32776 0.29567 0.65119 0.0
C82 C 0.21348 0.2863 0.78122 0.0
C83 C 0.38539 0.42054 0.78455 0.0
O84 O 0.38196 0.29474 0.68104 0.0
O85 O 0.27931 0.30072 0.67854 0.0
O86 O 0.34228 0.39884 0.81033 0.0
O87 O 0.41147 0.38443 0.75232 0.0
C88 C 0.40078 0.23751 0.82275 0.0
O89 O 0.24757 0.33372 0.80191 0.0
O90 O 0.24389 0.24999 0.75351 0.0
In91 In 0.03412 0.98079 0.96578 0.0
O92 O 0.9523 0.0298 0.99619 0.0
O93 O 0.92558 0.94578 0.9481 0.0
C94 C 0.05634 0.98656 0.85861 0.0
C95 C 0.09986 0.06627 0.04424 0.0
C96 C 0.04987 0.87812 0.99136 0.0
O97 O 0.00031 0.97672 0.87339 0.0
O98 O 0.10316 0.99491 0.89878 0.0
O99 O 0.02147 0.91428 0.02124 0.0
O100 O 0.07377 0.89516 0.95035 0.0
C101 C 0.90686 0.99017 0.97486 0.0
O102 O 0.10918 0.01485 0.04368 0.0
O103 O 0.06183 0.0744 0.00253 0.0
In104 In 0.79865 0.25379 0.72838 0.0
O105 O 0.78822 0.33517 0.7883 0.0
O106 O 0.69997 0.28428 0.74586 0.0
C107 C 0.92943 0.26196 0.75811 0.0
C108 C 0.76151 0.15727 0.76625 0.0
C109 C 0.80538 0.26048 0.61809 0.0
O110 O 0.89733 0.30289 0.77378 0.0
O111 O 0.89529 0.21823 0.72836 0.0
O112 O 0.80255 0.21427 0.63616 0.0
O113 O 0.79916 0.30371 0.65438 0.0
C114 C 0.72615 0.32858 0.78108 0.0
O115 O 0.73477 0.16693 0.71957 0.0
O116 O 0.80183 0.1981 0.79466 0.0
In117 In 0.97885 0.52922 0.97097 0.0
O118 O 0.07968 0.52863 0.94643 0.0
O119 O 0.06393 0.49534 0.02067 0.0
C120 C 0.95364 0.509 0.85671 0.0
C121 C 0.89984 0.46394 0.02204 0.0
C122 C 0.99058 0.64236 0.00663 0.0
O123 O 0.98249 0.47632 0.88418 0.0
O124 O 0.93285 0.55027 0.88715 0.0
O125 O 0.93966 0.61488 0.976 0.0
O126 O 0.03346 0.6123 0.02171 0.0
C127 C 0.10318 0.50595 0.98616 0.0
O128 O 0.92826 0.51257 0.04611 0.0
O129 O 0.90709 0.44991 0.97045 0.0
In130 In 0.84179 0.78625 0.25411 0.0
O131 O 0.87532 0.69916 0.26166 0.0
O132 O 0.91979 0.76908 0.32465 0.0
C133 C 0.81392 0.76523 0.13966 0.0
C134 C 0.72498 0.77657 0.29329 0.0
C135 C 0.87283 0.90101 0.26505 0.0
O136 O 0.8719 0.76697 0.16433 0.0
O137 O 0.7706 0.77156 0.17264 0.0
O138 O 0.85109 0.8776 0.30341 0.0
O139 O 0.88797 0.86609 0.22417 0.0
C140 C 0.91341 0.71564 0.30737 0.0
O141 O 0.76619 0.82061 0.30807 0.0
O142 O 0.74325 0.73638 0.25963 0.0
In143 In 0.03355 0.48185 0.51966 0.0
O144 O 0.14267 0.50789 0.5504 0.0
O145 O 0.11468 0.47065 0.46283 0.0
C146 C -0.00525 0.50878 0.62302 0.0
C147 C 0.99072 0.55408 0.45159 0.0
C148 C 0.01499 0.36655 0.51249 0.0
O149 O 0.05351 0.51833 0.61369 0.0
O150 O 0.95376 0.4888 0.57931 0.0
O151 O 0.97053 0.3923 0.49111 0.0
O152 O 0.06663 0.39857 0.53512 0.0
C153 C 0.16086 0.49025 0.50266 0.0
O154 O 0.98013 0.5002 0.43673 0.0
O155 O 0.01994 0.57113 0.50151 0.0
In156 In 0.51394 0.52523 0.00996 0.0
O157 O 0.52224 0.44978 0.93995 0.0
O158 O 0.60475 0.51338 0.96556 0.0
C159 C 0.38251 0.50011 0.00205 0.0
C160 C 0.56187 0.49607 0.10765 0.0
C161 C 0.51593 0.63718 0.00433 0.0
O162 O 0.41335 0.49378 0.95935 0.0
O163 O 0.41816 0.51908 0.0488 0.0
O164 O 0.52422 0.6194 0.05047 0.0
O165 O 0.50824 0.59851 0.96047 0.0
C166 C 0.58008 0.46712 0.93302 0.0
O167 O 0.58713 0.53985 0.09161 0.0
O168 O 0.5162 0.46587 0.07273 0.0
In169 In 0.78906 0.81162 0.79776 0.0
O170 O 0.89958 0.83766 0.81409 0.0
O171 O 0.86282 0.76952 0.7454 0.0
C172 C 0.76915 0.92236 0.79686 0.0
C173 C 0.71961 0.73446 0.71122 0.0
C174 C 0.78029 0.78265 0.90109 0.0
O175 O 0.82303 0.90667 0.81375 0.0
O176 O 0.72318 0.88176 0.7802 0.0
O177 O 0.73845 0.80952 0.87813 0.0
O178 O 0.82464 0.76909 0.87116 0.0
C179 C 0.9123 0.80106 0.77357 0.0
O180 O 0.71776 0.73031 0.76266 0.0
O181 O 0.75242 0.77954 0.70417 0.0
In182 In 0.78426 0.23473 0.23049 0.0
O183 O 0.67446 0.20643 0.20054 0.0
O184 O 0.7073 0.29262 0.24205 0.0
C185 C 0.80976 0.12562 0.23078 0.0
C186 C 0.82921 0.29413 0.15529 0.0
C187 C 0.82709 0.27849 0.34038 0.0
O188 O 0.76089 0.14595 0.25002 0.0
O189 O 0.84368 0.15892 0.20685 0.0
O190 O 0.86437 0.25858 0.3057 0.0
O191 O 0.76865 0.27834 0.31924 0.0
C192 C 0.65939 0.25549 0.22003 0.0
O193 O 0.85424 0.3021 0.20662 0.0
O194 O 0.78416 0.25261 0.14036 0.0
In195 In 0.55686 0.45665 0.44601 0.0
O196 O 0.59043 0.49687 0.53878 0.0
O197 O 0.62514 0.5408 0.47665 0.0
C198 C 0.5721 0.34421 0.44098 0.0
C199 C 0.43169 0.4699 0.46531 0.0
C200 C 0.57831 0.48235 0.34538 0.0
O201 O 0.61163 0.38363 0.47254 0.0
O202 O 0.5267 0.3616 0.4119 0.0
O203 O 0.52745 0.49192 0.36838 0.0
O204 O 0.62169 0.46203 0.3747 0.0
C205 C 0.62295 0.54062 0.52879 0.0
O206 O 0.44851 0.46242 0.41612 0.0
O207 O 0.47768 0.4702 0.50434 0.0
C208 C 0.19325 0.14361 0.18484 0.0
C209 C 0.16973 0.19724 0.19198 0.0
C210 C 0.17104 0.1018 0.13644 0.0
C211 C 0.12458 0.11211 0.09343 0.0
H212 H 0.23071 0.13432 0.21598 0.0
H213 H 0.19098 0.06131 0.13252 0.0
S214 S 0.04266 0.24353 0.09437 0.0
N215 N 0.09415 0.25711 0.15399 0.0
N216 N 0.05208 0.17837 0.06282 0.0
C217 C 0.09898 0.16489 0.10084 0.0
C218 C 0.12151 0.20744 0.15028 0.0
C219 C 0.21273 0.94024 0.41189 0.0
C220 C 0.14372 0.93612 0.40196 0.0
C221 C 0.24821 0.91007 0.37289 0.0
C222 C 0.21598 0.87464 0.32249 0.0
H223 H 0.23963 0.96593 0.45071 0.0
H224 H 0.30117 0.91342 0.3832 0.0
S225 S 0.03661 0.853 0.27395 0.0
N226 N 0.04474 0.89668 0.33616 0.0
N227 N 0.11167 0.83998 0.26292 0.0
C228 C 0.14728 0.87185 0.31093 0.0
C229 C 0.11107 0.90254 0.35068 0.0
C230 C 0.42499 0.84745 0.55914 0.0
C231 C 0.40844 0.90296 0.55798 0.0
C232 C 0.40871 0.81852 0.60223 0.0
C233 C 0.37602 0.84422 0.64616 0.0
H234 H 0.45202 0.82637 0.52713 0.0
H235 H 0.42277 0.77602 0.60163 0.0
S236 S 0.31213 0.98457 0.65816 0.0
N237 N 0.35103 0.97988 0.60138 0.0
N238 N 0.32099 0.92535 0.68304 0.0
C239 C 0.35691 0.89871 0.64469 0.0
C240 C 0.37289 0.92809 0.60032 0.0
C241 C 0.43236 0.16202 0.94675 0.0
C242 C 0.43888 0.10612 0.91997 0.0
C243 C 0.42251 0.20487 0.91508 0.0
C244 C 0.41951 0.19354 0.85548 0.0
H245 H 0.43458 0.17272 0.99261 0.0
H246 H 0.41607 0.24691 0.9375 0.0
S247 S 0.44196 0.05567 0.76584 0.0
N248 N 0.4467 0.0426 0.8311 0.0
N249 N 0.42878 0.12319 0.77131 0.0
C250 C 0.42807 0.13816 0.82834 0.0
C251 C 0.43743 0.09439 0.86063 0.0
C252 C 0.62182 0.34914 0.82024 0.0
C253 C 0.68767 0.36723 0.81524 0.0
C254 C 0.58684 0.38228 0.85761 0.0
C255 C 0.61642 0.4348 0.89111 0.0
H256 H 0.59771 0.30822 0.79658 0.0
H257 H 0.53671 0.36597 0.86104 0.0
S258 S 0.78496 0.50434 0.88877 0.0
N259 N 0.77934 0.44318 0.84347 0.0
N260 N 0.71345 0.50546 0.91335 0.0
C261 C 0.68118 0.45453 0.88454 0.0
C262 C 0.71686 0.42075 0.84671 0.0
C263 C 0.90152 0.42853 0.11228 0.0
C264 C 0.875 0.42212 0.05497 0.0
C265 C 0.88763 0.38595 0.1434 0.0
C266 C 0.84575 0.33555 0.11881 0.0
H267 H 0.93533 0.46592 0.13292 0.0
H268 H 0.90988 0.39296 0.18734 0.0
S269 S 0.76033 0.29973 0.97073 0.0
N270 N 0.80347 0.36271 0.97482 0.0
N271 N 0.77543 0.28262 0.03407 0.0
C272 C 0.81744 0.32905 0.06175 0.0
C273 C 0.83249 0.37239 0.02967 0.0
C274 C 0.9794 0.65381 0.43488 0.0
C275 C 0.973 0.59452 0.41325 0.0
C276 C 0.96295 0.69298 0.39991 0.0
C277 C 0.93948 0.67462 0.34172 0.0
H278 H -0.00365 0.67018 0.47953 0.0
H279 H 0.96686 0.73784 0.41911 0.0
S280 S 0.92009 0.52471 0.26254 0.0
N281 N 0.94574 0.52 0.32874 0.0
N282 N 0.91519 0.59324 0.26323 0.0
C283 C 0.93504 0.61567 0.31911 0.0
C284 C 0.95158 0.57578 0.35475 0.0
C285 C 0.63236 0.59173 0.62965 0.0
C286 C 0.65003 0.58994 0.57456 0.0
C287 C 0.65373 0.63921 0.6732 0.0
C288 C 0.69352 0.68684 0.66337 0.0
H289 H 0.60112 0.5564 0.63924 0.0
H290 H 0.6391 0.63841 0.71494 0.0
S291 S 0.7565 0.70228 0.52735 0.0
N292 N 0.71144 0.63917 0.51304 0.0
N293 N 0.75183 0.72839 0.59476 0.0
C294 C 0.71205 0.68544 0.60857 0.0
C295 C 0.69033 0.63699 0.56423 0.0
C296 C 0.25386 0.29421 0.49992 0.0
C297 C 0.30813 0.31445 0.47538 0.0
C298 C 0.26062 0.28669 0.55658 0.0
C299 C 0.32239 0.29785 0.59019 0.0
H300 H 0.20585 0.28425 0.47499 0.0
H301 H 0.21718 0.27245 0.57432 0.0
S302 S 0.48033 0.34964 0.54626 0.0
N303 N 0.4263 0.34356 0.48896 0.0
N304 N 0.43878 0.32917 0.59522 0.0
C305 C 0.3774 0.31618 0.56575 0.0
C306 C 0.3704 0.32448 0.50836 0.0
C307 C 0.12652 0.00394 0.78272 0.0
C308 C 0.06535 0.98482 0.79827 0.0
C309 C 0.13442 0.00342 0.72536 0.0
C310 C 0.08203 0.98184 0.68195 0.0
H311 H 0.16799 0.02078 0.81508 0.0
H312 H 0.18121 0.02079 0.71498 0.0
S313 S 0.91189 0.92716 0.7 0.0
N314 N 0.95128 0.94495 0.76514 0.0
N315 N 0.96706 0.94134 0.65816 0.0
C316 C 0.02126 0.96134 0.69693 0.0
C317 C 0.01264 0.96358 0.75492 0.0
C318 C 0.32816 0.82452 0.97748 0.0
C319 C 0.33158 0.77339 0.93962 0.0
C320 C 0.32707 0.82485 0.03586 0.0
C321 C 0.33029 0.77418 0.05761 0.0
H322 H 0.3244 0.86389 0.9617 0.0
H323 H 0.32395 0.86481 0.06405 0.0
S324 S 0.33995 0.62988 0.9748 0.0
N325 N 0.33819 0.67159 0.92716 0.0
N326 N 0.33705 0.67188 0.03639 0.0
C327 C 0.33464 0.72317 0.01986 0.0
C328 C 0.33499 0.72287 0.96089 0.0
C329 C 0.38922 0.96968 0.24527 0.0
C330 C 0.44558 0.9705 0.28413 0.0
C331 C 0.39521 0.9816 0.19061 0.0
C332 C 0.45751 0.99688 0.17472 0.0
H333 H 0.34077 0.95921 0.25691 0.0
H334 H 0.35114 0.97903 0.16083 0.0
S335 S 0.61944 0.00612 0.26268 0.0
N336 N 0.56492 0.98774 0.30339 0.0
N337 N 0.57616 0.0118 0.20274 0.0
C338 C 0.51373 0.9987 0.21408 0.0
C339 C 0.50773 0.98513 0.26833 0.0
C340 C 0.5206 0.33107 0.27259 0.0
C341 C 0.46465 0.29204 0.25032 0.0
C342 C 0.58269 0.31969 0.25994 0.0
C343 C 0.59164 0.26807 0.22515 0.0
H344 H 0.51675 0.37009 0.30162 0.0
H345 H 0.62424 0.35097 0.27962 0.0
S346 S 0.46025 0.15286 0.15272 0.0
N347 N 0.42098 0.20095 0.1888 0.0
N348 N 0.53902 0.17859 0.16589 0.0
C349 C 0.53598 0.22901 0.20106 0.0
C350 C 0.47214 0.24114 0.21352 0.0
C351 C 0.07053 0.27984 0.5094 0.0
C352 C 0.01202 0.30362 0.50766 0.0
C353 C 0.0719 0.22146 0.50403 0.0
C354 C 0.01487 0.18155 0.49541 0.0
H355 H 0.11683 0.3073 0.51712 0.0
H356 H 0.12028 0.20752 0.51039 0.0
S357 S 0.78698 0.21548 0.45919 0.0
N358 N 0.88864 0.28477 0.49348 0.0
N359 N 0.84144 0.16215 0.4543 0.0
C360 C 0.94766 0.19931 0.48134 0.0
C361 C 0.9539 0.26642 0.49847 0.0
C362 C 0.03181 0.83456 0.79264 0.0
C363 C 0.98003 0.79525 0.76118 0.0
C364 C 0.09708 0.829 0.78494 0.0
C365 C 0.11328 0.78267 0.74663 0.0
H366 H 0.02207 0.86886 0.82506 0.0
H367 H 0.13515 0.85971 0.81158 0.0
S368 S -0.00424 0.66993 0.6505 0.0
N369 N 0.94876 0.71053 0.68689 0.0
N370 N 0.07231 0.69864 0.67396 0.0
C371 C 0.062 0.7439 0.7133 0.0
C372 C -0.00487 0.75039 0.72032 0.0
C373 C 0.50252 0.73521 0.05279 0.0
C374 C 0.51071 0.69797 0.00265 0.0
C375 C 0.49551 0.79265 0.05276 0.0
C376 C 0.49565 0.81476 0.00251 0.0
H377 H 0.50107 0.71993 0.09244 0.0
H378 H 0.48999 0.82004 0.09244 0.0
S379 S 0.52341 0.73776 0.86184 0.0
N380 N 0.52346 0.68875 0.90233 0.0
N381 N 0.50971 0.79718 0.90268 0.0
C382 C 0.50447 0.77858 0.9523 0.0
C383 C 0.5122 0.72001 0.95229 0.0
C384 C 0.62805 0.82819 0.30362 0.0
C385 C 0.65634 0.7772 0.30354 0.0
C386 C 0.5599 0.82778 0.29832 0.0
C387 C 0.51804 0.77686 0.29483 0.0
H388 H 0.65825 0.86783 0.30299 0.0
H389 H 0.53987 0.86692 0.29352 0.0
S390 S 0.56931 0.63392 0.30248 0.0
N391 N 0.63891 0.67581 0.30549 0.0
N392 N 0.51026 0.67536 0.29853 0.0
C393 C 0.54622 0.72659 0.30015 0.0
C394 C 0.61567 0.72671 0.30378 0.0
C395 C 0.52969 0.18387 0.39927 0.0
C396 C 0.54741 0.16501 0.45023 0.0
C397 C 0.54055 0.24184 0.39611 0.0
C398 C 0.57176 0.28278 0.44312 0.0
H399 H 0.50509 0.15385 0.3621 0.0
H400 H 0.52314 0.25482 0.35683 0.0
S401 S 0.63357 0.25392 0.58465 0.0
N402 N 0.60037 0.19069 0.54784 0.0
N403 N 0.6245 0.29955 0.54109 0.0
C404 C 0.59331 0.26386 0.49337 0.0
C405 C 0.57995 0.20498 0.4972 0.0
C406 C 0.10819 0.32222 0.8049 0.0
C407 C 0.14175 0.27674 0.78251 0.0
C408 C 0.03928 0.31667 0.79881 0.0
C409 C 0.00166 0.26537 0.77024 0.0
H410 H 0.13515 0.36309 0.82543 0.0
H411 H 0.01544 0.35336 0.815 0.0
S412 S 0.06573 0.13148 0.70983 0.0
N413 N 0.13214 0.17721 0.73505 0.0
N414 N 0.00293 0.16666 0.7238 0.0
C415 C 0.03467 0.21859 0.75053 0.0
C416 C 0.10466 0.22428 0.75664 0.0
C417 C 0.02527 0.80303 0.04847 0.0
C418 C 0.04473 0.81801 -0.00185 0.0
C419 C 0.00918 0.74564 0.05228 0.0
C420 C 0.00967 0.70225 0.0051 0.0
H421 H 0.02102 0.83586 0.08463 0.0
H422 H -0.00571 0.73534 0.09142 0.0
S423 S 0.06365 0.71747 0.86645 0.0
N424 N 0.07014 0.78358 0.90259 0.0
N425 N 0.03631 0.67621 0.90912 0.0
C426 C 0.03162 0.71619 0.95573 0.0
C427 C 0.05001 0.77411 0.95235 0.0
C428 C 0.29585 0.50352 0.22108 0.0
C429 C 0.25332 0.48358 0.2572 0.0
C430 C 0.29658 0.5587 0.20968 0.0
C431 C 0.2555 0.59647 0.23452 0.0
H432 H 0.33089 0.47715 0.20298 0.0
H433 H 0.33239 0.57291 0.18375 0.0
S434 S 0.1265 0.56237 0.32326 0.0
N435 N 0.16134 0.50304 0.31003 0.0
N436 N 0.166 0.60878 0.29153 0.0
C437 C 0.21011 0.57646 0.2681 0.0
C438 C 0.20809 0.5194 0.27858 0.0
C439 C 0.70668 0.0559 0.75477 0.0
C440 C 0.75755 0.09942 0.78106 0.0
C441 C 0.70891 0.99888 0.76194 0.0
C442 C 0.76269 0.98332 0.79474 0.0
H443 H 0.66599 0.06561 0.72707 0.0
H444 H 0.66965 0.9665 0.73974 0.0
S445 S 0.90736 0.0817 0.87388 0.0
N446 N 0.86153 0.12322 0.84344 0.0
N447 N 0.8668 0.01687 0.85501 0.0
C448 C 0.81267 0.02691 0.82247 0.0
C449 C 0.80976 0.08472 0.81621 0.0
C450 C 0.27836 0.49741 0.04675 0.0
C451 C 0.30998 0.49192 -0.00265 0.0
C452 C 0.21002 0.49842 0.04343 0.0
C453 C 0.1718 0.49414 0.99055 0.0
H454 H 0.30685 0.50313 0.0883 0.0
H455 H 0.18775 0.50564 0.08237 0.0
S456 S 0.22861 0.47391 0.84923 0.0
N457 N 0.29627 0.47868 0.89416 0.0
N458 N 0.16819 0.47892 0.88824 0.0
C459 C 0.20205 0.48501 0.94107 0.0
C460 C 0.27112 0.48426 0.94432 0.0
C461 C 0.86959 0.03927 0.20683 0.0
C462 C 0.82911 0.06985 0.2413 0.0
C463 C 0.88663 0.98584 0.2164 0.0
C464 C 0.86495 0.96162 0.2615 0.0
H465 H 0.88667 0.05593 0.17127 0.0
H466 H 0.91548 0.96268 0.18731 0.0
S467 S 0.76242 0.0275 0.36682 0.0
N468 N 0.7713 0.07382 0.32424 0.0
N469 N 0.80338 0.9746 0.34256 0.0
C470 C 0.82682 0.99329 0.29763 0.0
C471 C 0.80883 0.04698 0.28739 0.0
C472 C 0.78853 0.95229 0.94939 0.0
C473 C 0.83704 0.99583 0.97927 0.0
C474 C 0.72186 0.9563 0.95249 0.0
C475 C 0.70153 0.00306 0.98728 0.0
H476 H 0.80215 0.91471 0.92354 0.0
H477 H 0.68616 0.92159 0.92886 0.0
S478 S 0.8086 0.13049 0.07063 0.0
N479 N 0.86002 0.08926 0.04151 0.0
N480 N 0.73431 0.09546 0.04944 0.0
C481 C 0.74927 0.04746 0.01661 0.0
C482 C 0.8172 0.04409 0.01224 0.0
C483 C 0.31189 0.54678 0.74373 0.0
C484 C 0.36489 0.59059 0.75376 0.0
C485 C 0.32065 0.49218 0.75315 0.0
C486 C 0.38229 0.47887 0.77391 0.0
H487 H 0.26253 0.55467 0.7294 0.0
H488 H 0.27844 0.45954 0.74333 0.0
S489 S 0.53945 0.57445 0.79821 0.0
N490 N 0.48358 0.61464 0.77866 0.0
N491 N 0.49908 0.51107 0.79792 0.0
C492 C 0.4368 0.52067 0.78106 0.0
C493 C 0.42817 0.57689 0.77094 0.0
C494 C 0.25177 0.4922 0.44234 0.0
C495 C 0.23064 0.48766 0.49498 0.0
C496 C 0.31703 0.48688 0.43303 0.0
C497 C 0.36345 0.47665 0.47624 0.0
H498 H 0.21755 0.50012 0.40829 0.0
H499 H 0.33114 0.49081 0.39173 0.0
S500 S 0.3313 0.45554 0.6198 0.0
N501 N 0.26 0.4686 0.58965 0.0
N502 N 0.38305 0.4597 0.57279 0.0
C503 C 0.34283 0.47176 0.52906 0.0
C504 C 0.27633 0.47697 0.53834 0.0
C505 C 0.8303 0.74156 0.98211 0.0
C506 C 0.78187 0.77243 0.96027 0.0
C507 C 0.83849 0.73717 0.03975 0.0
C508 C 0.79908 0.76376 0.07781 0.0
H509 H 0.86331 0.72173 0.95482 0.0
H510 H 0.87634 0.7133 0.05486 0.0
S511 S 0.664 0.84786 0.04229 0.0
N512 N 0.69179 0.82756 0.98116 0.0
N513 N 0.70845 0.82048 0.08956 0.0
C514 C 0.74882 0.79278 0.05624 0.0
C515 C 0.74004 0.79692 -0.00251 0.0
C516 C 0.51999 0.4671 0.24823 0.0
C517 C 0.57924 0.48431 0.28484 0.0
C518 C 0.5167 0.46797 0.19042 0.0
C519 C 0.57188 0.48846 0.16715 0.0
H520 H 0.47545 0.4525 0.26434 0.0
H521 H 0.4695 0.45484 0.16426 0.0
S522 S 0.73825 0.5407 0.24527 0.0
N523 N 0.69481 0.52171 0.29421 0.0
N524 N 0.68753 0.52743 0.18504 0.0
C525 C 0.6316 0.50633 0.20316 0.0
C526 C 0.6356 0.50317 0.26218 0.0
C527 C 0.80246 0.32031 0.45135 0.0
C528 C 0.84308 0.27978 0.40065 0.0
C529 C 0.7947 0.31348 0.52266 0.0
C530 C 0.82458 0.26379 0.56189 0.0
H531 H 0.77575 0.35243 0.43609 0.0
H532 H 0.76545 0.34312 0.54456 0.0
S533 S 0.91266 0.09816 0.44699 0.0
N534 N 0.90442 0.15971 0.38962 0.0
N535 N 0.88877 0.14411 0.53024 0.0
C536 C 0.86936 0.21242 0.53344 0.0
C537 C 0.8826 0.22441 0.41536 0.0
C538 C 0.01907 0.48045 0.71581 0.0
C539 C 0.97918 0.50811 0.68105 0.0
C540 C 0.0076 0.47845 0.77148 0.0
C541 C 0.95681 0.50543 0.79523 0.0
H542 H 0.05966 0.46002 0.69976 0.0
H543 H 0.04072 0.45749 0.79677 0.0
S544 S 0.83742 0.58267 0.7211 0.0
N545 N 0.88493 0.56071 0.67266 0.0
N546 N 0.86534 0.56004 0.77919 0.0
C547 C 0.91588 0.53283 0.76069 0.0
C548 C 0.92648 0.53329 0.70302 0.0
C549 C 0.80136 0.93725 0.46482 0.0
C550 C 0.83827 0.97359 0.51249 0.0
C551 C 0.73253 0.93458 0.45569 0.0
C552 C 0.69858 0.96831 0.49391 0.0
H553 H 0.82589 0.91253 0.43316 0.0
H554 H 0.70619 0.90793 0.41716 0.0
S555 S 0.77213 0.06452 0.629 0.0
N556 N 0.83527 0.03919 0.60138 0.0
N557 N 0.7066 0.03459 0.58409 0.0
C558 C 0.73466 0.00161 0.54372 0.0
C559 C 0.80439 0.00413 0.55306 0.0
loop_
_geom_bond_atom_site_label_1
_geom_bond_atom_site_label_2
_geom_bond_distance
_geom_bond_site_symmetry_2
_ccdc_geom_bond_type
In0 O1 2.294 . S
In0 O2 2.326 . S
In0 O6 2.266 . S
In0 O7 2.326 . S
In0 O8 2.266 . S
In0 O9 2.326 . S
In0 O11 2.294 . S
In0 O12 2.326 . S
O1 In0 2.294 . S
O1 C10 1.240 . S
O2 In0 2.326 . S
O2 C10 1.252 . S
C3 O6 1.252 . S
C3 O7 1.260 . S
C4 O11 1.240 . S
C4 O12 1.252 . S
C5 O8 1.252 . S
C5 O9 1.260 . S
O6 In0 2.266 . S
O6 C3 1.252 . S
O7 In0 2.326 . S
O7 C3 1.260 . S
O8 In0 2.266 . S
O8 C5 1.252 . S
O9 In0 2.326 . S
O9 C5 1.260 . S
C10 O1 1.240 . S
C10 O2 1.252 . S
O11 In0 2.294 . S
O11 C4 1.240 . S
O12 In0 2.326 . S
O12 C4 1.252 . S
In13 O14 2.294 1_665 S
In13 O15 2.325 . S
In13 O19 2.268 1_665 S
In13 O20 2.327 1_565 S
In13 O21 2.266 . S
In13 O22 2.326 1_565 S
In13 O24 2.293 1_655 S
In13 O25 2.326 1_655 S
O14 In13 2.294 1_445 S
O14 C23 1.240 1_545 S
O15 In13 2.325 . S
O15 C23 1.252 1_655 S
C16 O19 1.252 . S
C16 O20 1.260 1_455 S
C17 O24 1.240 . S
C17 O25 1.252 . S
C18 O21 1.245 1_545 S
C18 O22 1.266 . S
O19 In13 2.268 1_445 S
O19 C16 1.252 . S
O20 In13 2.327 1_545 S
O20 C16 1.260 1_655 S
O21 In13 2.266 . S
O21 C18 1.245 1_565 S
O22 In13 2.326 1_545 S
O22 C18 1.266 . S
C23 O14 1.240 1_565 S
C23 O15 1.252 1_455 S
O24 In13 2.293 1_455 S
O24 C17 1.240 . S
O25 In13 2.326 1_455 S
O25 C17 1.252 . S
In26 O27 2.294 . S
In26 O28 2.326 . S
In26 O32 2.266 . S
In26 O33 2.326 . S
In26 O34 2.266 . S
In26 O35 2.326 . S
In26 O37 2.294 . S
In26 O38 2.326 . S
O27 In26 2.294 . S
O27 C36 1.240 . S
O28 In26 2.326 . S
O28 C36 1.252 . S
C29 O32 1.252 . S
C29 O33 1.260 . S
C30 O37 1.240 . S
C30 O38 1.252 . S
C31 O34 1.252 . S
C31 O35 1.260 . S
O32 In26 2.266 . S
O32 C29 1.252 . S
O33 In26 2.326 . S
O33 C29 1.260 . S
O34 In26 2.266 . S
O34 C31 1.252 . S
O35 In26 2.326 . S
O35 C31 1.260 . S
C36 O27 1.240 . S
C36 O28 1.252 . S
O37 In26 2.294 . S
O37 C30 1.240 . S
O38 In26 2.326 . S
O38 C30 1.252 . S
In39 O40 2.294 1_554 S
In39 O41 2.326 1_564 S
In39 O45 2.266 1_554 S
In39 O46 2.326 . S
In39 O47 2.266 . S
In39 O48 2.326 . S
In39 O50 2.294 1_565 S
In39 O51 2.326 1_554 S
O40 In39 2.294 1_556 S
O40 C49 1.240 1_565 S
O41 In39 2.326 1_546 S
O41 C49 1.252 . S
C42 O45 1.252 1_554 S
C42 O46 1.260 . S
C43 O50 1.240 1_566 S
C43 O51 1.252 . S
C44 O47 1.252 . S
C44 O48 1.260 . S
O45 In39 2.266 1_556 S
O45 C42 1.252 1_556 S
O46 In39 2.326 . S
O46 C42 1.260 . S
O47 In39 2.266 . S
O47 C44 1.252 . S
O48 In39 2.326 . S
O48 C44 1.260 . S
C49 O40 1.240 1_545 S
C49 O41 1.252 . S
O50 In39 2.294 1_545 S
O50 C43 1.240 1_544 S
O51 In39 2.326 1_556 S
O51 C43 1.252 . S
In52 O53 2.294 . S
In52 O54 2.326 . S
In52 O58 2.266 . S
In52 O59 2.326 . S
In52 O60 2.266 . S
In52 O61 2.326 . S
In52 O63 2.294 . S
In52 O64 2.326 . S
O53 In52 2.294 . S
O53 C62 1.240 . S
O54 In52 2.326 . S
O54 C62 1.252 . S
C55 O58 1.252 . S
C55 O59 1.260 . S
C56 O63 1.240 . S
C56 O64 1.252 . S
C57 O60 1.252 . S
C57 O61 1.260 . S
O58 In52 2.266 . S
O58 C55 1.252 . S
O59 In52 2.326 . S
O59 C55 1.260 . S
O60 In52 2.266 . S
O60 C57 1.252 . S
O61 In52 2.326 . S
O61 C57 1.260 . S
C62 O53 1.240 . S
C62 O54 1.252 . S
O63 In52 2.294 . S
O63 C56 1.240 . S
O64 In52 2.326 . S
O64 C56 1.252 . S
In65 O66 2.294 1_545 S
In65 O67 2.326 1_545 S
In65 O71 2.266 . S
In65 O72 2.326 . S
In65 O73 2.266 1_545 S
In65 O74 2.326 . S
In65 O76 2.294 1_545 S
In65 O77 2.326 . S
O66 In65 2.294 1_565 S
O66 C75 1.240 . S
O67 In65 2.326 1_565 S
O67 C75 1.252 . S
C68 O71 1.252 . S
C68 O72 1.260 . S
C69 O76 1.240 1_545 S
C69 O77 1.252 . S
C70 O73 1.252 . S
C70 O74 1.260 1_565 S
O71 In65 2.266 . S
O71 C68 1.252 . S
O72 In65 2.326 . S
O72 C68 1.260 . S
O73 In65 2.266 1_565 S
O73 C70 1.252 . S
O74 In65 2.326 . S
O74 C70 1.260 1_545 S
C75 O66 1.240 . S
C75 O67 1.252 . S
O76 In65 2.294 1_565 S
O76 C69 1.240 1_565 S
O77 In65 2.326 . S
O77 C69 1.252 . S
In78 O79 2.294 . S
In78 O80 2.326 . S
In78 O84 2.266 . S
In78 O85 2.326 . S
In78 O86 2.266 . S
In78 O87 2.326 . S
In78 O89 2.294 . S
In78 O90 2.326 . S
O79 In78 2.294 . S
O79 C88 1.240 . S
O80 In78 2.326 . S
O80 C88 1.252 . S
C81 O84 1.252 . S
C81 O85 1.260 . S
C82 O89 1.240 . S
C82 O90 1.252 . S
C83 O86 1.252 . S
C83 O87 1.260 . S
O84 In78 2.266 . S
O84 C81 1.252 . S
O85 In78 2.326 . S
O85 C81 1.260 . S
O86 In78 2.266 . S
O86 C83 1.252 . S
O87 In78 2.326 . S
O87 C83 1.260 . S
C88 O79 1.240 . S
C88 O80 1.252 . S
O89 In78 2.294 . S
O89 C82 1.240 . S
O90 In78 2.326 . S
O90 C82 1.252 . S
In91 O92 2.295 . S
In91 O93 2.327 1_556 S
In91 O97 2.266 . S
In91 O98 2.325 1_655 S
In91 O99 2.266 1_655 S
In91 O100 2.326 . S
In91 O102 2.293 1_666 S
In91 O103 2.326 1_665 S
O92 In91 2.295 . S
O92 C101 1.240 . S
O93 In91 2.327 1_554 S
O93 C101 1.252 1_554 S
C94 O97 1.252 1_455 S
C94 O98 1.260 . S
C95 O102 1.240 . S
C95 O103 1.252 1_554 S
C96 O99 1.252 . S
C96 O100 1.260 1_455 S
O97 In91 2.266 . S
O97 C94 1.252 1_655 S
O98 In91 2.325 1_455 S
O98 C94 1.260 . S
O99 In91 2.266 1_455 S
O99 C96 1.252 . S
O100 In91 2.326 . S
O100 C96 1.260 1_655 S
C101 O92 1.240 . S
C101 O93 1.252 1_556 S
O102 In91 2.293 1_444 S
O102 C95 1.240 . S
O103 In91 2.326 1_445 S
O103 C95 1.252 1_556 S
In104 O105 2.294 . S
In104 O106 2.326 . S
In104 O110 2.266 . S
In104 O111 2.326 . S
In104 O112 2.266 . S
In104 O113 2.326 . S
In104 O115 2.294 . S
In104 O116 2.326 . S
O105 In104 2.294 . S
O105 C114 1.240 . S
O106 In104 2.326 . S
O106 C114 1.252 . S
C107 O110 1.252 . S
C107 O111 1.260 . S
C108 O115 1.240 . S
C108 O116 1.252 . S
C109 O112 1.252 . S
C109 O113 1.260 . S
O110 In104 2.266 . S
O110 C107 1.252 . S
O111 In104 2.326 . S
O111 C107 1.260 . S
O112 In104 2.266 . S
O112 C109 1.252 . S
O113 In104 2.326 . S
O113 C109 1.260 . S
C114 O105 1.240 . S
C114 O106 1.252 . S
O115 In104 2.294 . S
O115 C108 1.240 . S
O116 In104 2.326 . S
O116 C108 1.252 . S
In117 O118 2.296 . S
In117 O119 2.327 1_556 S
In117 O123 2.266 . S
In117 O124 2.324 1_455 S
In117 O125 2.265 1_455 S
In117 O126 2.326 . S
In117 O128 2.293 1_456 S
In117 O129 2.326 1_455 S
O118 In117 2.296 . S
O118 C127 1.233 1_556 S
O119 In117 2.327 1_554 S
O119 C127 1.256 . S
C120 O123 1.252 1_655 S
C120 O124 1.260 . S
C121 O128 1.240 . S
C121 O129 1.252 1_554 S
C122 O125 1.252 . S
C122 O126 1.260 1_655 S
O123 In117 2.266 . S
O123 C120 1.252 1_455 S
O124 In117 2.324 1_655 S
O124 C120 1.260 . S
O125 In117 2.265 1_655 S
O125 C122 1.252 . S
O126 In117 2.326 . S
O126 C122 1.260 1_455 S
C127 O118 1.233 1_554 S
C127 O119 1.256 . S
O128 In117 2.293 1_654 S
O128 C121 1.240 . S
O129 In117 2.326 1_655 S
O129 C121 1.252 1_556 S
In130 O131 2.294 . S
In130 O132 2.326 . S
In130 O136 2.266 . S
In130 O137 2.326 . S
In130 O138 2.266 . S
In130 O139 2.326 . S
In130 O141 2.294 . S
In130 O142 2.326 . S
O131 In130 2.294 . S
O131 C140 1.240 . S
O132 In130 2.326 . S
O132 C140 1.252 . S
C133 O136 1.252 . S
C133 O137 1.260 . S
C134 O141 1.240 . S
C134 O142 1.252 . S
C135 O138 1.252 . S
C135 O139 1.260 . S
O136 In130 2.266 . S
O136 C133 1.252 . S
O137 In130 2.326 . S
O137 C133 1.260 . S
O138 In130 2.266 . S
O138 C135 1.252 . S
O139 In130 2.326 . S
O139 C135 1.260 . S
C140 O131 1.240 . S
C140 O132 1.252 . S
O141 In130 2.294 . S
O141 C134 1.240 . S
O142 In130 2.326 . S
O142 C134 1.252 . S
In143 O144 2.294 . S
In143 O145 2.326 . S
In143 O149 2.266 . S
In143 O150 2.326 1_455 S
In143 O151 2.266 1_455 S
In143 O152 2.326 . S
In143 O154 2.294 1_455 S
In143 O155 2.326 . S
O144 In143 2.294 . S
O144 C153 1.240 . S
O145 In143 2.326 . S
O145 C153 1.252 . S
C146 O149 1.252 1_655 S
C146 O150 1.260 . S
C147 O154 1.240 . S
C147 O155 1.252 1_655 S
C148 O151 1.252 . S
C148 O152 1.260 1_655 S
O149 In143 2.266 . S
O149 C146 1.252 1_455 S
O150 In143 2.326 1_655 S
O150 C146 1.260 . S
O151 In143 2.266 1_655 S
O151 C148 1.252 . S
O152 In143 2.326 . S
O152 C148 1.260 1_455 S
C153 O144 1.240 . S
C153 O145 1.252 . S
O154 In143 2.294 1_655 S
O154 C147 1.240 . S
O155 In143 2.326 . S
O155 C147 1.252 1_455 S
In156 O157 2.294 1_554 S
In156 O158 2.326 . S
In156 O162 2.266 1_554 S
In156 O163 2.326 . S
In156 O164 2.266 . S
In156 O165 2.326 1_554 S
In156 O167 2.294 . S
In156 O168 2.326 . S
O157 In156 2.294 1_556 S
O157 C166 1.240 . S
O158 In156 2.326 . S
O158 C166 1.252 1_554 S
C159 O162 1.252 1_554 S
C159 O163 1.260 . S
C160 O167 1.240 . S
C160 O168 1.252 . S
C161 O164 1.252 . S
C161 O165 1.260 1_554 S
O162 In156 2.266 1_556 S
O162 C159 1.252 1_556 S
O163 In156 2.326 . S
O163 C159 1.260 . S
O164 In156 2.266 . S
O164 C161 1.252 . S
O165 In156 2.326 1_556 S
O165 C161 1.260 1_556 S
C166 O157 1.240 . S
C166 O158 1.252 1_556 S
O167 In156 2.294 . S
O167 C160 1.240 . S
O168 In156 2.326 . S
O168 C160 1.252 . S
In169 O170 2.294 . S
In169 O171 2.326 . S
In169 O175 2.266 . S
In169 O176 2.326 . S
In169 O177 2.266 . S
In169 O178 2.326 . S
In169 O180 2.294 . S
In169 O181 2.326 . S
O170 In169 2.294 . S
O170 C179 1.240 . S
O171 In169 2.326 . S
O171 C179 1.252 . S
C172 O175 1.252 . S
C172 O176 1.260 . S
C173 O180 1.240 . S
C173 O181 1.252 . S
C174 O177 1.252 . S
C174 O178 1.260 . S
O175 In169 2.266 . S
O175 C172 1.252 . S
O176 In169 2.326 . S
O176 C172 1.260 . S
O177 In169 2.266 . S
O177 C174 1.252 . S
O178 In169 2.326 . S
O178 C174 1.260 . S
C179 O170 1.240 . S
C179 O171 1.252 . S
O180 In169 2.294 . S
O180 C173 1.240 . S
O181 In169 2.326 . S
O181 C173 1.252 . S
In182 O183 2.294 . S
In182 O184 2.326 . S
In182 O188 2.266 . S
In182 O189 2.326 . S
In182 O190 2.266 . S
In182 O191 2.326 . S
In182 O193 2.294 . S
In182 O194 2.326 . S
O183 In182 2.294 . S
O183 C192 1.240 . S
O184 In182 2.326 . S
O184 C192 1.252 . S
C185 O188 1.252 . S
C185 O189 1.260 . S
C186 O193 1.240 . S
C186 O194 1.252 . S
C187 O190 1.252 . S
C187 O191 1.260 . S
O188 In182 2.266 . S
O188 C185 1.252 . S
O189 In182 2.326 . S
O189 C185 1.260 . S
O190 In182 2.266 . S
O190 C187 1.252 . S
O191 In182 2.326 . S
O191 C187 1.260 . S
C192 O183 1.240 . S
C192 O184 1.252 . S
O193 In182 2.294 . S
O193 C186 1.240 . S
O194 In182 2.326 . S
O194 C186 1.252 . S
In195 O196 2.294 . S
In195 O197 2.326 . S
In195 O201 2.266 . S
In195 O202 2.326 . S
In195 O203 2.266 . S
In195 O204 2.326 . S
In195 O206 2.294 . S
In195 O207 2.326 . S
O196 In195 2.294 . S
O196 C205 1.240 . S
O197 In195 2.326 . S
O197 C205 1.252 . S
C198 O201 1.252 . S
C198 O202 1.260 . S
C199 O206 1.240 . S
C199 O207 1.252 . S
C200 O203 1.252 . S
C200 O204 1.260 . S
O201 In195 2.266 . S
O201 C198 1.252 . S
O202 In195 2.326 . S
O202 C198 1.260 . S
O203 In195 2.266 . S
O203 C200 1.252 . S
O204 In195 2.326 . S
O204 C200 1.260 . S
C205 O196 1.240 . S
C205 O197 1.252 . S
O206 In195 2.294 . S
O206 C199 1.240 . S
O207 In195 2.326 . S
O207 C199 1.252 . S
C208 C209 1.369 . S
C208 C210 1.419 . S
C208 H212 0.930 . S
C209 C208 1.369 . S
C209 C218 1.429 . S
C210 C208 1.419 . S
C210 C211 1.363 . S
C210 H213 0.929 . S
C211 C210 1.363 . S
C211 C217 1.428 . S
H212 C208 0.930 . S
H213 C210 0.929 . S
S214 N215 1.613 . S
S214 N216 1.610 . S
N215 S214 1.613 . S
N215 C218 1.350 . S
N216 S214 1.610 . S
N216 C217 1.351 . S
C217 C211 1.428 . S
C217 N216 1.351 . S
C217 C218 1.434 . S
C218 C209 1.429 . S
C218 N215 1.350 . S
C218 C217 1.434 . S
C219 C220 1.369 . S
C219 C221 1.419 . S
C219 H223 0.930 . S
C220 C219 1.369 . S
C220 C229 1.429 . S
C221 C219 1.419 . S
C221 C222 1.363 . S
C221 H224 0.929 . S
C222 C221 1.363 . S
C222 C228 1.428 . S
H223 C219 0.930 . S
H224 C221 0.929 . S
S225 N226 1.613 . S
S225 N227 1.610 . S
N226 S225 1.613 . S
N226 C229 1.350 . S
N227 S225 1.610 . S
N227 C228 1.351 . S
C228 C222 1.428 . S
C228 N227 1.351 . S
C228 C229 1.434 . S
C229 C220 1.429 . S
C229 N226 1.350 . S
C229 C228 1.434 . S
C230 C231 1.369 . S
C230 C232 1.419 . S
C230 H234 0.930 . S
C231 C230 1.369 . S
C231 C240 1.429 . S
C232 C230 1.419 . S
C232 C233 1.363 . S
C232 H235 0.929 . S
C233 C232 1.363 . S
C233 C239 1.428 . S
H234 C230 0.930 . S
H235 C232 0.929 . S
S236 N237 1.613 . S
S236 N238 1.610 . S
N237 S236 1.613 . S
N237 C240 1.350 . S
N238 S236 1.610 . S
N238 C239 1.351 . S
C239 C233 1.428 . S
C239 N238 1.351 . S
C239 C240 1.434 . S
C240 C231 1.429 . S
C240 N237 1.350 . S
C240 C239 1.434 . S
C241 C242 1.369 . S
C241 C243 1.419 . S
C241 H245 0.930 . S
C242 C241 1.369 . S
C242 C251 1.429 . S
C243 C241 1.419 . S
C243 C244 1.363 . S
C243 H246 0.929 . S
C244 C243 1.363 . S
C244 C250 1.428 . S
H245 C241 0.930 . S
H246 C243 0.929 . S
S247 N248 1.613 . S
S247 N249 1.610 . S
N248 S247 1.613 . S
N248 C251 1.350 . S
N249 S247 1.610 . S
N249 C250 1.351 . S
C250 C244 1.428 . S
C250 N249 1.351 . S
C250 C251 1.434 . S
C251 C242 1.429 . S
C251 N248 1.350 . S
C251 C250 1.434 . S
C252 C253 1.369 . S
C252 C254 1.419 . S
C252 H256 0.930 . S
C253 C252 1.369 . S
C253 C262 1.429 . S
C254 C252 1.419 . S
C254 C255 1.363 . S
C254 H257 0.929 . S
C255 C254 1.363 . S
C255 C261 1.428 . S
H256 C252 0.930 . S
H257 C254 0.929 . S
S258 N259 1.613 . S
S258 N260 1.610 . S
N259 S258 1.613 . S
N259 C262 1.350 . S
N260 S258 1.610 . S
N260 C261 1.351 . S
C261 C255 1.428 . S
C261 N260 1.351 . S
C261 C262 1.434 . S
C262 C253 1.429 . S
C262 N259 1.350 . S
C262 C261 1.434 . S
C263 C264 1.369 . S
C263 C265 1.419 . S
C263 H267 0.930 1_655 S
C264 C263 1.369 . S
C264 C273 1.429 . S
C265 C263 1.419 . S
C265 C266 1.363 . S
C265 H268 0.929 . S
C266 C265 1.363 . S
C266 C272 1.428 . S
H267 C263 0.930 1_455 S
H268 C265 0.929 . S
S269 N270 1.613 . S
S269 N271 1.610 . S
N270 S269 1.613 . S
N270 C273 1.350 . S
N271 S269 1.610 . S
N271 C272 1.351 . S
C272 C266 1.428 . S
C272 N271 1.351 . S
C272 C273 1.434 . S
C273 C264 1.429 . S
C273 N270 1.350 . S
C273 C272 1.434 . S
C274 C275 1.369 . S
C274 C276 1.419 . S
C274 H278 0.930 . S
C275 C274 1.369 . S
C275 C284 1.429 . S
C276 C274 1.419 . S
C276 C277 1.363 . S
C276 H279 0.929 . S
C277 C276 1.363 . S
C277 C283 1.428 . S
H278 C274 0.930 . S
H279 C276 0.929 . S
S280 N281 1.613 . S
S280 N282 1.610 . S
N281 S280 1.613 . S
N281 C284 1.350 . S
N282 S280 1.610 . S
N282 C283 1.351 . S
C283 C277 1.428 . S
C283 N282 1.351 . S
C283 C284 1.434 . S
C284 C275 1.429 . S
C284 N281 1.350 . S
C284 C283 1.434 . S
C285 C286 1.369 . S
C285 C287 1.419 . S
C285 H289 0.930 . S
C286 C285 1.369 . S
C286 C295 1.429 . S
C287 C285 1.419 . S
C287 C288 1.363 . S
C287 H290 0.929 . S
C288 C287 1.363 . S
C288 C294 1.428 . S
H289 C285 0.930 . S
H290 C287 0.929 . S
S291 N292 1.613 . S
S291 N293 1.610 . S
N292 S291 1.613 . S
N292 C295 1.350 . S
N293 S291 1.610 . S
N293 C294 1.351 . S
C294 C288 1.428 . S
C294 N293 1.351 . S
C294 C295 1.434 . S
C295 C286 1.429 . S
C295 N292 1.350 . S
C295 C294 1.434 . S
C296 C297 1.369 . S
C296 C298 1.419 . S
C296 H300 0.930 . S
C297 C296 1.369 . S
C297 C306 1.429 . S
C298 C296 1.419 . S
C298 C299 1.363 . S
C298 H301 0.929 . S
C299 C298 1.363 . S
C299 C305 1.428 . S
H300 C296 0.930 . S
H301 C298 0.929 . S
S302 N303 1.613 . S
S302 N304 1.610 . S
N303 S302 1.613 . S
N303 C306 1.350 . S
N304 S302 1.610 . S
N304 C305 1.351 . S
C305 C299 1.428 . S
C305 N304 1.351 . S
C305 C306 1.434 . S
C306 C297 1.429 . S
C306 N303 1.350 . S
C306 C305 1.434 . S
C307 C308 1.369 . S
C307 C309 1.419 . S
C307 H311 0.930 1_565 S
C308 C307 1.369 . S
C308 C317 1.429 1_455 S
C309 C307 1.419 . S
C309 C310 1.363 . S
C309 H312 0.929 . S
C310 C309 1.363 . S
C310 C316 1.428 1_455 S
H311 C307 0.930 1_545 S
H312 C309 0.929 . S
S313 N314 1.613 . S
S313 N315 1.610 . S
N314 S313 1.613 . S
N314 C317 1.350 . S
N315 S313 1.610 . S
N315 C316 1.351 . S
C316 C310 1.428 1_655 S
C316 N315 1.351 . S
C316 C317 1.434 . S
C317 C308 1.429 1_655 S
C317 N314 1.350 . S
C317 C316 1.434 . S
C318 C319 1.369 . S
C318 C320 1.419 1_556 S
C318 H322 0.930 . S
C319 C318 1.369 . S
C319 C328 1.429 1_556 S
C320 C318 1.419 1_554 S
C320 C321 1.363 . S
C320 H323 0.929 . S
C321 C320 1.363 . S
C321 C327 1.428 . S
H322 C318 0.930 . S
H323 C320 0.929 . S
S324 N325 1.613 . S
S324 N326 1.610 . S
N325 S324 1.613 . S
N325 C328 1.350 . S
N326 S324 1.610 . S
N326 C327 1.351 . S
C327 C321 1.428 . S
C327 N326 1.351 . S
C327 C328 1.434 . S
C328 C319 1.429 1_554 S
C328 N325 1.350 . S
C328 C327 1.434 . S
C329 C330 1.369 . S
C329 C331 1.419 . S
C329 H333 0.930 . S
C330 C329 1.369 . S
C330 C339 1.429 . S
C331 C329 1.419 . S
C331 C332 1.363 . S
C331 H334 0.929 . S
C332 C331 1.363 . S
C332 C338 1.428 . S
H333 C329 0.930 . S
H334 C331 0.929 . S
S335 N336 1.613 . S
S335 N337 1.610 . S
N336 S335 1.613 . S
N336 C339 1.350 . S
N337 S335 1.610 . S
N337 C338 1.351 . S
C338 C332 1.428 . S
C338 N337 1.351 . S
C338 C339 1.434 . S
C339 C330 1.429 . S
C339 N336 1.350 . S
C339 C338 1.434 . S
C340 C341 1.369 . S
C340 C342 1.419 . S
C340 H344 0.930 . S
C341 C340 1.369 . S
C341 C350 1.429 . S
C342 C340 1.419 . S
C342 C343 1.363 . S
C342 H345 0.929 . S
C343 C342 1.363 . S
C343 C349 1.428 . S
H344 C340 0.930 . S
H345 C342 0.929 . S
S346 N347 1.613 . S
S346 N348 1.610 . S
N347 S346 1.613 . S
N347 C350 1.350 . S
N348 S346 1.610 . S
N348 C349 1.351 . S
C349 C343 1.428 . S
C349 N348 1.351 . S
C349 C350 1.434 . S
C350 C341 1.429 . S
C350 N347 1.350 . S
C350 C349 1.434 . S
C351 C352 1.369 1_455 S
C351 C353 1.419 . S
C351 H355 0.930 . S
C352 C351 1.369 1_655 S
C352 C361 1.429 . S
C353 C351 1.419 . S
C353 C354 1.363 1_455 S
C353 H356 0.929 . S
C354 C353 1.363 1_655 S
C354 C360 1.428 . S
H355 C351 0.930 . S
H356 C353 0.929 . S
S357 N358 1.613 . S
S357 N359 1.610 . S
N358 S357 1.613 . S
N358 C361 1.350 . S
N359 S357 1.610 . S
N359 C360 1.351 . S
C360 C354 1.428 . S
C360 N359 1.351 . S
C360 C361 1.434 . S
C361 C352 1.429 . S
C361 N358 1.350 . S
C361 C360 1.434 . S
C362 C363 1.369 . S
C362 C364 1.419 . S
C362 H366 0.930 . S
C363 C362 1.369 . S
C363 C372 1.429 . S
C364 C362 1.419 . S
C364 C365 1.363 . S
C364 H367 0.929 . S
C365 C364 1.363 . S
C365 C371 1.428 . S
H366 C362 0.930 . S
H367 C364 0.929 . S
S368 N369 1.613 . S
S368 N370 1.610 . S
N369 S368 1.613 . S
N369 C372 1.350 . S
N370 S368 1.610 . S
N370 C371 1.351 . S
C371 C365 1.428 . S
C371 N370 1.351 . S
C371 C372 1.434 . S
C372 C363 1.429 . S
C372 N369 1.350 . S
C372 C371 1.434 . S
C373 C374 1.369 1_554 S
C373 C375 1.419 . S
C373 H377 0.930 . S
C374 C373 1.369 1_556 S
C374 C383 1.429 . S
C375 C373 1.419 . S
C375 C376 1.363 . S
C375 H378 0.929 . S
C376 C375 1.363 . S
C376 C382 1.428 1_554 S
H377 C373 0.930 . S
H378 C375 0.929 . S
S379 N380 1.613 . S
S379 N381 1.610 . S
N380 S379 1.613 . S
N380 C383 1.350 . S
N381 S379 1.610 . S
N381 C382 1.351 . S
C382 C376 1.428 1_556 S
C382 N381 1.351 . S
C382 C383 1.434 . S
C383 C374 1.429 . S
C383 N380 1.350 . S
C383 C382 1.434 . S
C384 C385 1.369 . S
C384 C386 1.419 . S
C384 H388 0.930 . S
C385 C384 1.369 . S
C385 C394 1.429 . S
C386 C384 1.419 . S
C386 C387 1.363 . S
C386 H389 0.929 . S
C387 C386 1.363 . S
C387 C393 1.428 . S
H388 C384 0.930 . S
H389 C386 0.929 . S
S390 N391 1.613 . S
S390 N392 1.610 . S
N391 S390 1.613 . S
N391 C394 1.350 . S
N392 S390 1.610 . S
N392 C393 1.351 . S
C393 C387 1.428 . S
C393 N392 1.351 . S
C393 C394 1.434 . S
C394 C385 1.429 . S
C394 N391 1.350 . S
C394 C393 1.434 . S
C395 C396 1.369 . S
C395 C397 1.419 . S
C395 H399 0.930 . S
C396 C395 1.369 . S
C396 C405 1.429 . S
C397 C395 1.419 . S
C397 C398 1.363 . S
C397 H400 0.929 . S
C398 C397 1.363 . S
C398 C404 1.428 . S
H399 C395 0.930 . S
H400 C397 0.929 . S
S401 N402 1.613 . S
S401 N403 1.610 . S
N402 S401 1.613 . S
N402 C405 1.350 . S
N403 S401 1.610 . S
N403 C404 1.351 . S
C404 C398 1.428 . S
C404 N403 1.351 . S
C404 C405 1.434 . S
C405 C396 1.429 . S
C405 N402 1.350 . S
C405 C404 1.434 . S
C406 C407 1.369 . S
C406 C408 1.419 . S
C406 H410 0.930 . S
C407 C406 1.369 . S
C407 C416 1.429 . S
C408 C406 1.419 . S
C408 C409 1.363 . S
C408 H411 0.929 . S
C409 C408 1.363 . S
C409 C415 1.428 . S
H410 C406 0.930 . S
H411 C408 0.929 . S
S412 N413 1.613 . S
S412 N414 1.610 . S
N413 S412 1.613 . S
N413 C416 1.350 . S
N414 S412 1.610 . S
N414 C415 1.351 . S
C415 C409 1.428 . S
C415 N414 1.351 . S
C415 C416 1.434 . S
C416 C407 1.429 . S
C416 N413 1.350 . S
C416 C415 1.434 . S
C417 C418 1.369 1_655 S
C417 C419 1.419 . S
C417 H421 0.930 . S
C418 C417 1.369 1_455 S
C418 C427 1.429 . S
C419 C417 1.419 . S
C419 C420 1.363 . S
C419 H422 0.929 1_556 S
C420 C419 1.363 . S
C420 C426 1.427 1_655 S
H421 C417 0.930 . S
H422 C419 0.929 1_554 S
S423 N424 1.613 . S
S423 N425 1.611 . S
N424 S423 1.613 . S
N424 C427 1.350 . S
N425 S423 1.611 . S
N425 C426 1.351 . S
C426 C420 1.427 1_455 S
C426 N425 1.351 . S
C426 C427 1.434 . S
C427 C418 1.429 . S
C427 N424 1.350 . S
C427 C426 1.434 . S
C428 C429 1.369 . S
C428 C430 1.419 . S
C428 H432 0.930 . S
C429 C428 1.369 . S
C429 C438 1.429 . S
C430 C428 1.419 . S
C430 C431 1.363 . S
C430 H433 0.929 . S
C431 C430 1.363 . S
C431 C437 1.428 . S
H432 C428 0.930 . S
H433 C430 0.929 . S
S434 N435 1.613 . S
S434 N436 1.610 . S
N435 S434 1.613 . S
N435 C438 1.350 . S
N436 S434 1.610 . S
N436 C437 1.351 . S
C437 C431 1.428 . S
C437 N436 1.351 . S
C437 C438 1.434 . S
C438 C429 1.429 . S
C438 N435 1.350 . S
C438 C437 1.434 . S
C439 C440 1.369 . S
C439 C441 1.419 . S
C439 H443 0.930 . S
C440 C439 1.369 . S
C440 C449 1.429 . S
C441 C439 1.419 . S
C441 C442 1.363 1_545 S
C441 H444 0.929 . S
C442 C441 1.363 1_565 S
C442 C448 1.428 1_565 S
H443 C439 0.930 . S
H444 C441 0.929 . S
S445 N446 1.613 . S
S445 N447 1.610 1_545 S
N446 S445 1.613 . S
N446 C449 1.350 . S
N447 S445 1.610 1_565 S
N447 C448 1.351 1_565 S
C448 C442 1.428 1_545 S
C448 N447 1.351 1_545 S
C448 C449 1.434 . S
C449 C440 1.429 . S
C449 N446 1.350 . S
C449 C448 1.434 . S
C450 C451 1.369 . S
C450 C452 1.419 . S
C450 H454 0.930 . S
C451 C450 1.369 . S
C451 C460 1.429 1_554 S
C452 C450 1.419 . S
C452 C453 1.363 . S
C452 H455 0.929 . S
C453 C452 1.363 . S
C453 C459 1.428 1_554 S
H454 C450 0.930 . S
H455 C452 0.929 . S
S456 N457 1.613 . S
S456 N458 1.610 . S
N457 S456 1.613 . S
N457 C460 1.350 . S
N458 S456 1.610 . S
N458 C459 1.351 . S
C459 C453 1.428 1_556 S
C459 N458 1.351 . S
C459 C460 1.434 . S
C460 C451 1.429 1_556 S
C460 N457 1.350 . S
C460 C459 1.434 . S
C461 C462 1.369 . S
C461 C463 1.419 . S
C461 H465 0.930 . S
C462 C461 1.369 . S
C462 C471 1.429 . S
C463 C461 1.419 . S
C463 C464 1.363 1_545 S
C463 H466 0.929 1_655 S
C464 C463 1.363 1_565 S
C464 C470 1.428 1_565 S
H465 C461 0.930 . S
H466 C463 0.929 1_455 S
S467 N468 1.613 . S
S467 N469 1.610 1_545 S
N468 S467 1.613 . S
N468 C471 1.350 . S
N469 S467 1.610 1_565 S
N469 C470 1.351 1_565 S
C470 C464 1.428 1_545 S
C470 N469 1.351 1_545 S
C470 C471 1.434 . S
C471 C462 1.429 . S
C471 N468 1.350 . S
C471 C470 1.434 . S
C472 C473 1.369 . S
C472 C474 1.419 . S
C472 H476 0.930 . S
C473 C472 1.369 . S
C473 C482 1.429 1_565 S
C474 C472 1.419 . S
C474 C475 1.363 . S
C474 H477 0.929 . S
C475 C474 1.363 . S
C475 C481 1.428 1_565 S
H476 C472 0.930 . S
H477 C474 0.929 . S
S478 N479 1.613 . S
S478 N480 1.610 . S
N479 S478 1.613 . S
N479 C482 1.350 . S
N480 S478 1.610 . S
N480 C481 1.351 . S
C481 C475 1.428 1_545 S
C481 N480 1.351 . S
C481 C482 1.434 . S
C482 C473 1.429 1_545 S
C482 N479 1.350 . S
C482 C481 1.434 . S
C483 C484 1.369 . S
C483 C485 1.419 . S
C483 H487 0.930 . S
C484 C483 1.369 . S
C484 C493 1.429 . S
C485 C483 1.419 . S
C485 C486 1.363 . S
C485 H488 0.929 . S
C486 C485 1.363 . S
C486 C492 1.428 . S
H487 C483 0.930 . S
H488 C485 0.929 . S
S489 N490 1.613 . S
S489 N491 1.610 . S
N490 S489 1.613 . S
N490 C493 1.350 . S
N491 S489 1.610 . S
N491 C492 1.351 . S
C492 C486 1.428 . S
C492 N491 1.351 . S
C492 C493 1.434 . S
C493 C484 1.429 . S
C493 N490 1.350 . S
C493 C492 1.434 . S
C494 C495 1.369 . S
C494 C496 1.419 . S
C494 H498 0.930 . S
C495 C494 1.369 . S
C495 C504 1.429 . S
C496 C494 1.419 . S
C496 C497 1.363 . S
C496 H499 0.929 . S
C497 C496 1.363 . S
C497 C503 1.428 . S
H498 C494 0.930 . S
H499 C496 0.929 . S
S500 N501 1.613 . S
S500 N502 1.610 . S
N501 S500 1.613 . S
N501 C504 1.350 . S
N502 S500 1.610 . S
N502 C503 1.351 . S
C503 C497 1.428 . S
C503 N502 1.351 . S
C503 C504 1.434 . S
C504 C495 1.429 . S
C504 N501 1.350 . S
C504 C503 1.434 . S
C505 C506 1.369 . S
C505 C507 1.419 1_556 S
C505 H509 0.930 . S
C506 C505 1.369 . S
C506 C515 1.429 1_556 S
C507 C505 1.419 1_554 S
C507 C508 1.363 . S
C507 H510 0.929 . S
C508 C507 1.363 . S
C508 C514 1.428 . S
H509 C505 0.930 . S
H510 C507 0.929 . S
S511 N512 1.613 . S
S511 N513 1.610 . S
N512 S511 1.613 . S
N512 C515 1.350 . S
N513 S511 1.610 . S
N513 C514 1.351 . S
C514 C508 1.428 . S
C514 N513 1.351 . S
C514 C515 1.434 . S
C515 C506 1.429 1_554 S
C515 N512 1.350 . S
C515 C514 1.434 . S
C516 C517 1.369 . S
C516 C518 1.419 . S
C516 H520 0.930 . S
C517 C516 1.369 . S
C517 C526 1.429 . S
C518 C516 1.419 . S
C518 C519 1.363 . S
C518 H521 0.929 . S
C519 C518 1.363 . S
C519 C525 1.428 . S
H520 C516 0.930 . S
H521 C518 0.929 . S
S522 N523 1.613 . S
S522 N524 1.610 . S
N523 S522 1.613 . S
N523 C526 1.350 . S
N524 S522 1.610 . S
N524 C525 1.351 . S
C525 C519 1.428 . S
C525 N524 1.351 . S
C525 C526 1.434 . S
C526 C517 1.429 . S
C526 N523 1.350 . S
C526 C525 1.434 . S
C527 C528 1.369 . S
C527 C529 1.419 . S
C527 H531 0.930 . S
C528 C527 1.369 . S
C528 C537 1.429 . S
C529 C527 1.419 . S
C529 C530 1.363 . S
C529 H532 0.929 . S
C530 C529 1.363 . S
C530 C536 1.428 . S
H531 C527 0.930 . S
H532 C529 0.929 . S
S533 N534 1.613 . S
S533 N535 1.610 . S
N534 S533 1.613 . S
N534 C537 1.350 . S
N535 S533 1.610 . S
N535 C536 1.351 . S
C536 C530 1.428 . S
C536 N535 1.351 . S
C536 C537 1.434 . S
C537 C528 1.429 . S
C537 N534 1.350 . S
C537 C536 1.434 . S
C538 C539 1.369 1_455 S
C538 C540 1.419 1_455 S
C538 H542 0.930 . S
C539 C538 1.369 1_655 S
C539 C548 1.429 . S
C540 C538 1.419 1_655 S
C540 C541 1.363 . S
C540 H543 0.929 1_655 S
C541 C540 1.363 . S
C541 C547 1.428 . S
H542 C538 0.930 . S
H543 C540 0.929 1_455 S
S544 N545 1.613 . S
S544 N546 1.610 . S
N545 S544 1.613 . S
N545 C548 1.350 . S
N546 S544 1.610 . S
N546 C547 1.351 . S
C547 C541 1.428 . S
C547 N546 1.351 . S
C547 C548 1.434 . S
C548 C539 1.429 . S
C548 N545 1.350 . S
C548 C547 1.434 . S
C549 C550 1.367 1_565 S
C549 C551 1.419 . S
C549 H553 0.930 . S
C550 C549 1.367 1_545 S
C550 C559 1.432 . S
C551 C549 1.419 . S
C551 C552 1.363 1_565 S
C551 H554 0.929 . S
C552 C551 1.363 1_545 S
C552 C558 1.428 . S
H553 C549 0.930 . S
H554 C551 0.929 . S
S555 N556 1.613 . S
S555 N557 1.610 . S
N556 S555 1.613 . S
N556 C559 1.350 . S
N557 S555 1.610 . S
N557 C558 1.351 . S
C558 C552 1.428 . S
C558 N557 1.351 . S
C558 C559 1.434 . S
C559 C550 1.432 . S
C559 N556 1.350 . S
C559 C558 1.434 . S
C209 C10 1.833 . S
C211 C95 1.832 . S
C220 C17 1.826 . S
C222 C56 1.831 . S
C231 C75 1.851 . S
C233 C30 1.881 . S
C242 C49 1.880 . S
C244 C88 1.849 . S
C253 C114 1.810 . S
C255 C166 1.812 . S
C264 C121 1.852 . S
C266 C186 1.876 . S
C275 C147 1.873 . S
C277 C140 1.838 . S
C286 C205 1.753 . S
C288 C173 1.752 . S
C297 C3 1.421 . S
C299 C81 1.441 . S
C308 C94 1.068 . S
C310 C23 1.070 . S
C319 C31 1.708 . S
C321 C55 1.705 . S
C330 C70 1.226 . S
C332 C44 1.301 . S
C341 C4 1.657 . S
C343 C192 1.661 . S
C352 C148 1.708 . S
C354 C16 1.700 1_655 S
C363 C179 1.586 1_455 S
C365 C36 1.586 . S
C374 C161 1.699 1_556 S
C376 C42 1.688 . S
C385 C134 1.322 . S
C387 C57 1.350 . S
C396 C68 1.434 . S
C398 C198 1.411 . S
C407 C82 1.258 . S
C409 C107 1.288 1_455 S
C418 C96 1.383 . S
C420 C122 1.393 . S
C429 C5 1.104 . S
C431 C62 1.106 . S
C440 C108 1.125 . S
C442 C172 1.109 . S
C451 C159 1.197 . S
C453 C127 1.158 . S
C462 C185 1.309 . S
C464 C135 1.227 . S
C473 C101 1.474 . S
C475 C43 1.475 . S
C484 C29 1.344 . S
C486 C83 1.268 . S
C495 C153 1.600 . S
C497 C199 1.604 . S
C506 C174 1.410 . S
C508 C133 1.419 . S
C517 C200 1.066 . S
C519 C160 1.065 . S
C528 C187 1.704 . S
C530 C109 1.696 . S
C539 C146 1.287 . S
C541 C120 1.232 . S
C550 C18 1.315 . S
C552 C69 1.291 . S
