# Generated by pormake.
# Topology uml, (4)-cn, num edge types: 1
# Building blocks:
#     Node 0, Type 0, BuildingBlock: QUQFOY_clean_sbu_1, # of connection points: 4
#     Node 1, Type 0, BuildingBlock: QUQFOY_clean_sbu_1, # of connection points: 4
#     Node 2, Type 0, BuildingBlock: QUQFOY_clean_sbu_1, # of connection points: 4
#     Node 3, Type 0, BuildingBlock: QUQFOY_clean_sbu_1, # of connection points: 4
#     Node 4, Type 0, BuildingBlock: QUQFOY_clean_sbu_1, # of connection points: 4
#     Node 5, Type 0, BuildingBlock: QUQFOY_clean_sbu_1, # of connection points: 4
#     Node 6, Type 0, BuildingBlock: QUQFOY_clean_sbu_1, # of connection points: 4
#     Node 7, Type 0, BuildingBlock: QUQFOY_clean_sbu_1, # of connection points: 4
#     Node 8, Type 0, BuildingBlock: QUQFOY_clean_sbu_1, # of connection points: 4
#     Node 9, Type 0, BuildingBlock: QUQFOY_clean_sbu_1, # of connection points: 4
#     Node 10, Type 0, BuildingBlock: QUQFOY_clean_sbu_1, # of connection points: 4
#     Node 11, Type 0, BuildingBlock: QUQFOY_clean_sbu_1, # of connection points: 4
#     Node 12, Type 0, BuildingBlock: QUQFOY_clean_sbu_1, # of connection points: 4
#     Node 13, Type 0, BuildingBlock: QUQFOY_clean_sbu_1, # of connection points: 4
#     Node 14, Type 0, BuildingBlock: QUQFOY_clean_sbu_1, # of connection points: 4
#     Node 15, Type 0, BuildingBlock: QUQFOY_clean_sbu_1, # of connection points: 4
#     Node 16, Type 0, BuildingBlock: QUQFOY_clean_sbu_1, # of connection points: 4
#     Node 17, Type 0, BuildingBlock: QUQFOY_clean_sbu_1, # of connection points: 4
#     Node 18, Type 0, BuildingBlock: QUQFOY_clean_sbu_1, # of connection points: 4
#     Node 19, Type 0, BuildingBlock: QUQFOY_clean_sbu_1, # of connection points: 4
#     Node 20, Type 0, BuildingBlock: QUQFOY_clean_sbu_1, # of connection points: 4
#     Node 21, Type 0, BuildingBlock: QUQFOY_clean_sbu_1, # of connection points: 4
#     Node 22, Type 0, BuildingBlock: QUQFOY_clean_sbu_1, # of connection points: 4
#     Node 23, Type 0, BuildingBlock: QUQFOY_clean_sbu_1, # of connection points: 4
#     Node 24, Type 0, BuildingBlock: QUQFOY_clean_sbu_1, # of connection points: 4
#     Node 25, Type 0, BuildingBlock: QUQFOY_clean_sbu_1, # of connection points: 4
#     Node 26, Type 0, BuildingBlock: QUQFOY_clean_sbu_1, # of connection points: 4
#     Node 27, Type 0, BuildingBlock: QUQFOY_clean_sbu_1, # of connection points: 4
#     Node 28, Type 0, BuildingBlock: QUQFOY_clean_sbu_1, # of connection points: 4
#     Node 29, Type 0, BuildingBlock: QUQFOY_clean_sbu_1, # of connection points: 4
#     Node 30, Type 0, BuildingBlock: QUQFOY_clean_sbu_1, # of connection points: 4
#     Node 31, Type 0, BuildingBlock: QUQFOY_clean_sbu_1, # of connection points: 4
#     Node 32, Type 0, BuildingBlock: QUQFOY_clean_sbu_1, # of connection points: 4
#     Node 33, Type 0, BuildingBlock: QUQFOY_clean_sbu_1, # of connection points: 4
#     Node 34, Type 0, BuildingBlock: QUQFOY_clean_sbu_1, # of connection points: 4
#     Node 35, Type 0, BuildingBlock: QUQFOY_clean_sbu_1, # of connection points: 4
#     Edge 36, Type (0, 0), BuildingBlock: KIFKEQ_clean_linker_1, # of connection points: 2
#     Edge 37, Type (0, 0), BuildingBlock: KIFKEQ_clean_linker_1, # of connection points: 2
#     Edge 38, Type (0, 0), BuildingBlock: KIFKEQ_clean_linker_1, # of connection points: 2
#     Edge 39, Type (0, 0), BuildingBlock: KIFKEQ_clean_linker_1, # of connection points: 2
#     Edge 40, Type (0, 0), BuildingBlock: KIFKEQ_clean_linker_1, # of connection points: 2
#     Edge 41, Type (0, 0), BuildingBlock: KIFKEQ_clean_linker_1, # of connection points: 2
#     Edge 42, Type (0, 0), BuildingBlock: KIFKEQ_clean_linker_1, # of connection points: 2
#     Edge 43, Type (0, 0), BuildingBlock: KIFKEQ_clean_linker_1, # of connection points: 2
#     Edge 44, Type (0, 0), BuildingBlock: KIFKEQ_clean_linker_1, # of connection points: 2
#     Edge 45, Type (0, 0), BuildingBlock: KIFKEQ_clean_linker_1, # of connection points: 2
#     Edge 46, Type (0, 0), BuildingBlock: KIFKEQ_clean_linker_1, # of connection points: 2
#     Edge 47, Type (0, 0), BuildingBlock: KIFKEQ_clean_linker_1, # of connection points: 2
#     Edge 48, Type (0, 0), BuildingBlock: KIFKEQ_clean_linker_1, # of connection points: 2
#     Edge 49, Type (0, 0), BuildingBlock: KIFKEQ_clean_linker_1, # of connection points: 2
#     Edge 50, Type (0, 0), BuildingBlock: KIFKEQ_clean_linker_1, # of connection points: 2
#     Edge 51, Type (0, 0), BuildingBlock: KIFKEQ_clean_linker_1, # of connection points: 2
#     Edge 52, Type (0, 0), BuildingBlock: KIFKEQ_clean_linker_1, # of connection points: 2
#     Edge 53, Type (0, 0), BuildingBlock: KIFKEQ_clean_linker_1, # of connection points: 2
#     Edge 54, Type (0, 0), BuildingBlock: KIFKEQ_clean_linker_1, # of connection points: 2
#     Edge 55, Type (0, 0), BuildingBlock: KIFKEQ_clean_linker_1, # of connection points: 2
#     Edge 56, Type (0, 0), BuildingBlock: KIFKEQ_clean_linker_1, # of connection points: 2
#     Edge 57, Type (0, 0), BuildingBlock: KIFKEQ_clean_linker_1, # of connection points: 2
#     Edge 58, Type (0, 0), BuildingBlock: KIFKEQ_clean_linker_1, # of connection points: 2
#     Edge 59, Type (0, 0), BuildingBlock: KIFKEQ_clean_linker_1, # of connection points: 2
#     Edge 60, Type (0, 0), BuildingBlock: KIFKEQ_clean_linker_1, # of connection points: 2
#     Edge 61, Type (0, 0), BuildingBlock: KIFKEQ_clean_linker_1, # of connection points: 2
#     Edge 62, Type (0, 0), BuildingBlock: KIFKEQ_clean_linker_1, # of connection points: 2
#     Edge 63, Type (0, 0), BuildingBlock: KIFKEQ_clean_linker_1, # of connection points: 2
#     Edge 64, Type (0, 0), BuildingBlock: KIFKEQ_clean_linker_1, # of connection points: 2
#     Edge 65, Type (0, 0), BuildingBlock: KIFKEQ_clean_linker_1, # of connection points: 2
#     Edge 66, Type (0, 0), BuildingBlock: KIFKEQ_clean_linker_1, # of connection points: 2
#     Edge 67, Type (0, 0), BuildingBlock: KIFKEQ_clean_linker_1, # of connection points: 2
#     Edge 68, Type (0, 0), BuildingBlock: KIFKEQ_clean_linker_1, # of connection points: 2
#     Edge 69, Type (0, 0), BuildingBlock: KIFKEQ_clean_linker_1, # of connection points: 2
#     Edge 70, Type (0, 0), BuildingBlock: KIFKEQ_clean_linker_1, # of connection points: 2
#     Edge 71, Type (0, 0), BuildingBlock: KIFKEQ_clean_linker_1, # of connection points: 2
#     Edge 72, Type (0, 0), BuildingBlock: KIFKEQ_clean_linker_1, # of connection points: 2
#     Edge 73, Type (0, 0), BuildingBlock: KIFKEQ_clean_linker_1, # of connection points: 2
#     Edge 74, Type (0, 0), BuildingBlock: KIFKEQ_clean_linker_1, # of connection points: 2
#     Edge 75, Type (0, 0), BuildingBlock: KIFKEQ_clean_linker_1, # of connection points: 2
#     Edge 76, Type (0, 0), BuildingBlock: KIFKEQ_clean_linker_1, # of connection points: 2
#     Edge 77, Type (0, 0), BuildingBlock: KIFKEQ_clean_linker_1, # of connection points: 2
#     Edge 78, Type (0, 0), BuildingBlock: KIFKEQ_clean_linker_1, # of connection points: 2
#     Edge 79, Type (0, 0), BuildingBlock: KIFKEQ_clean_linker_1, # of connection points: 2
#     Edge 80, Type (0, 0), BuildingBlock: KIFKEQ_clean_linker_1, # of connection points: 2
#     Edge 81, Type (0, 0), BuildingBlock: KIFKEQ_clean_linker_1, # of connection points: 2
#     Edge 82, Type (0, 0), BuildingBlock: KIFKEQ_clean_linker_1, # of connection points: 2
#     Edge 83, Type (0, 0), BuildingBlock: KIFKEQ_clean_linker_1, # of connection points: 2
#     Edge 84, Type (0, 0), BuildingBlock: KIFKEQ_clean_linker_1, # of connection points: 2
#     Edge 85, Type (0, 0), BuildingBlock: KIFKEQ_clean_linker_1, # of connection points: 2
#     Edge 86, Type (0, 0), BuildingBlock: KIFKEQ_clean_linker_1, # of connection points: 2
#     Edge 87, Type (0, 0), BuildingBlock: KIFKEQ_clean_linker_1, # of connection points: 2
#     Edge 88, Type (0, 0), BuildingBlock: KIFKEQ_clean_linker_1, # of connection points: 2
#     Edge 89, Type (0, 0), BuildingBlock: KIFKEQ_clean_linker_1, # of connection points: 2
#     Edge 90, Type (0, 0), BuildingBlock: KIFKEQ_clean_linker_1, # of connection points: 2
#     Edge 91, Type (0, 0), BuildingBlock: KIFKEQ_clean_linker_1, # of connection points: 2
#     Edge 92, Type (0, 0), BuildingBlock: KIFKEQ_clean_linker_1, # of connection points: 2
#     Edge 93, Type (0, 0), BuildingBlock: KIFKEQ_clean_linker_1, # of connection points: 2
#     Edge 94, Type (0, 0), BuildingBlock: KIFKEQ_clean_linker_1, # of connection points: 2
#     Edge 95, Type (0, 0), BuildingBlock: KIFKEQ_clean_linker_1, # of connection points: 2
#     Edge 96, Type (0, 0), BuildingBlock: KIFKEQ_clean_linker_1, # of connection points: 2
#     Edge 97, Type (0, 0), BuildingBlock: KIFKEQ_clean_linker_1, # of connection points: 2
#     Edge 98, Type (0, 0), BuildingBlock: KIFKEQ_clean_linker_1, # of connection points: 2
#     Edge 99, Type (0, 0), BuildingBlock: KIFKEQ_clean_linker_1, # of connection points: 2
#     Edge 100, Type (0, 0), BuildingBlock: KIFKEQ_clean_linker_1, # of connection points: 2
#     Edge 101, Type (0, 0), BuildingBlock: KIFKEQ_clean_linker_1, # of connection points: 2
#     Edge 102, Type (0, 0), BuildingBlock: KIFKEQ_clean_linker_1, # of connection points: 2
#     Edge 103, Type (0, 0), BuildingBlock: KIFKEQ_clean_linker_1, # of connection points: 2
#     Edge 104, Type (0, 0), BuildingBlock: KIFKEQ_clean_linker_1, # of connection points: 2
#     Edge 105, Type (0, 0), BuildingBlock: KIFKEQ_clean_linker_1, # of connection points: 2
#     Edge 106, Type (0, 0), BuildingBlock: KIFKEQ_clean_linker_1, # of connection points: 2
#     Edge 107, Type (0, 0), BuildingBlock: KIFKEQ_clean_linker_1, # of connection points: 2
# Relax obj value: 0.056
# Max RMSD: 0.193
# Mean RMSD: 0.178
data_MOF--net-uml--node1-QUQFOY_clean_sbu_1--edge1-KIFKEQ_clean_linker_1
_symmetry_space_group_name_H-M    P1
_symmetry_Int_Tables_number       1
_symmetry_cell_setting            triclinic
loop_
_symmetry_equiv_pos_as_xyz
'x, y, z'
_cell_length_a     101.73685
_cell_length_b     101.73059
_cell_length_c     29.301558
_cell_angle_alpha  89.985813
_cell_angle_beta   89.984494
_cell_angle_gamma 120.00101
loop_
_atom_site_label
_atom_site_type_symbol
_atom_site_fract_x
_atom_site_fract_y
_atom_site_fract_z
_atom_type_partial_charge
O0 O 0.3596 0.12535 0.17685 0.0
Cd1 Cd 0.36307 0.10704 0.18155 0.0
Cd2 Cd 0.38897 0.12757 0.14571 0.0
O3 O 0.38346 0.14354 0.17102 0.0
O4 O 0.34804 0.09342 0.22836 0.0
O5 O 0.37287 0.10506 0.23897 0.0
C6 C 0.35935 0.09667 0.25512 0.0
C7 C 0.40974 0.12384 0.15069 0.0
C8 C 0.36944 0.13941 0.17606 0.0
C9 C 0.3676 0.10291 0.085 0.0
O10 O 0.3776 0.11685 0.08777 0.0
O11 O 0.36097 0.09547 0.12091 0.0
O12 O 0.41076 0.13534 0.12869 0.0
O13 O 0.39777 0.11596 0.17551 0.0
O14 O 0.90472 0.23936 0.17679 0.0
Cd15 Cd 0.92272 0.26135 0.18055 0.0
Cd16 Cd 0.90202 0.26648 0.14542 0.0
O17 O 0.88648 0.24503 0.17211 0.0
O18 O 0.93705 0.26144 0.22782 0.0
O19 O 0.92344 0.27269 0.23759 0.0
C20 C 0.93271 0.26872 0.25421 0.0
C21 C 0.90612 0.29114 0.15052 0.0
C22 C 0.89064 0.23515 0.17707 0.0
C23 C 0.92627 0.26994 0.08362 0.0
O24 O 0.91224 0.26558 0.08682 0.0
O25 O 0.93391 0.2711 0.11937 0.0
O26 O 0.89433 0.28068 0.12948 0.0
O27 O 0.91411 0.28697 0.17443 0.0
O28 O 0.79011 0.66992 0.17979 0.0
Cd29 Cd 0.76876 0.66773 0.18069 0.0
Cd30 Cd 0.7623 0.64131 0.14299 0.0
O31 O 0.78357 0.64601 0.16739 0.0
O32 O 0.7706 0.68315 0.22664 0.0
O33 O 0.75608 0.65843 0.23716 0.0
C34 C 0.76182 0.67205 0.25312 0.0
C35 C 0.73758 0.62084 0.14815 0.0
C36 C 0.79373 0.65965 0.17659 0.0
C37 C 0.76046 0.66369 0.0828 0.0
O38 O 0.7633 0.65292 0.08543 0.0
O39 O 0.76038 0.67071 0.11875 0.0
O40 O 0.74788 0.61965 0.12562 0.0
O41 O 0.74194 0.63281 0.17317 0.0
O42 O 0.13202 0.35372 0.33789 0.0
Cd43 Cd 0.11344 0.35685 0.33517 0.0
Cd44 Cd 0.13354 0.38289 0.37273 0.0
O45 O 0.14971 0.37766 0.34807 0.0
O46 O 0.09943 0.34239 0.28776 0.0
O47 O 0.11207 0.3673 0.27846 0.0
C48 C 0.10324 0.35397 0.26163 0.0
C49 C 0.12958 0.40351 0.36776 0.0
C50 C 0.14598 0.36386 0.34034 0.0
C51 C 0.10907 0.36118 0.43264 0.0
O52 O 0.12291 0.37144 0.43035 0.0
O53 O 0.10187 0.35449 0.39646 0.0
O54 O 0.14109 0.40462 0.3899 0.0
O55 O 0.12181 0.39154 0.34286 0.0
O56 O 0.67687 0.78325 0.34549 0.0
Cd57 Cd 0.67376 0.76163 0.33883 0.0
Cd58 Cd 0.64747 0.75564 0.37652 0.0
O59 O 0.65305 0.7775 0.35457 0.0
O60 O 0.68875 0.76374 0.29094 0.0
O61 O 0.66391 0.75006 0.28106 0.0
C62 C 0.67743 0.75562 0.26433 0.0
C63 C 0.62498 0.73215 0.37626 0.0
C64 C 0.66702 0.78743 0.34855 0.0
C65 C 0.66967 0.75195 0.43419 0.0
O66 O 0.65928 0.75536 0.43233 0.0
O67 O 0.67661 0.75196 0.39801 0.0
O68 O 0.62626 0.74333 0.40054 0.0
O69 O 0.63559 0.73502 0.34689 0.0
O70 O 0.24475 0.89973 0.33724 0.0
Cd71 Cd 0.26679 0.91765 0.33403 0.0
Cd72 Cd 0.2717 0.89688 0.36983 0.0
O73 O 0.2503 0.88144 0.34271 0.0
O74 O 0.26716 0.93205 0.28655 0.0
O75 O 0.27838 0.91837 0.27762 0.0
C76 C 0.27456 0.92772 0.26067 0.0
C77 C 0.29623 0.90061 0.36531 0.0
C78 C 0.24049 0.88565 0.33714 0.0
C79 C 0.27522 0.92132 0.431 0.0
O80 O 0.27087 0.90728 0.42816 0.0
O81 O 0.27637 0.92889 0.3951 0.0
O82 O 0.28563 0.88893 0.38641 0.0
O83 O 0.29226 0.9087 0.34106 0.0
O84 O 0.67389 0.89551 0.83371 0.0
Cd85 Cd 0.67233 0.91501 0.83028 0.0
Cd86 Cd 0.64567 0.89547 0.87407 0.0
O87 O 0.65056 0.87852 0.85452 0.0
O88 O 0.68753 0.92744 0.78227 0.0
O89 O 0.66289 0.9182 0.77362 0.0
C90 C 0.6764 0.92537 0.75643 0.0
C91 C 0.62303 0.89626 0.87616 0.0
C92 C 0.6639 0.88179 0.842 0.0
C93 C 0.67002 0.92179 0.92704 0.0
O94 O 0.65848 0.90859 0.92684 0.0
O95 O 0.67716 0.92775 0.89014 0.0
O96 O 0.62496 0.88702 0.90174 0.0
O97 O 0.63304 0.90343 0.84467 0.0
O98 O 0.13519 0.78504 0.83977 0.0
Cd99 Cd 0.11546 0.7643 0.83517 0.0
Cd100 Cd 0.13447 0.75631 0.88203 0.0
O101 O 0.15157 0.77849 0.86521 0.0
O102 O 0.10357 0.76767 0.78672 0.0
O103 O 0.11218 0.75173 0.77835 0.0
C104 C 0.10536 0.7584 0.76098 0.0
C105 C 0.13439 0.73323 0.88359 0.0
C106 C 0.14867 0.78863 0.85079 0.0
C107 C 0.10716 0.75403 0.93093 0.0
O108 O 0.11998 0.75481 0.93244 0.0
O109 O 0.10222 0.75651 0.89392 0.0
O110 O 0.14288 0.74419 0.91088 0.0
O111 O 0.12766 0.73616 0.85099 0.0
O112 O 0.24507 0.35426 0.83496 0.0
Cd113 Cd 0.26657 0.35707 0.82818 0.0
Cd114 Cd 0.27292 0.3834 0.86796 0.0
O115 O 0.25097 0.37797 0.8476 0.0
O116 O 0.26425 0.34214 0.77985 0.0
O117 O 0.27841 0.36697 0.7707 0.0
C118 C 0.27266 0.35348 0.75362 0.0
C119 C 0.29626 0.40609 0.86717 0.0
C120 C 0.24099 0.36412 0.84006 0.0
C121 C 0.27624 0.3604 0.92363 0.0
O122 O 0.27353 0.37129 0.92263 0.0
O123 O 0.27572 0.3534 0.88706 0.0
O124 O 0.2852 0.40453 0.89262 0.0
O125 O 0.29333 0.3956 0.83731 0.0
O126 O 0.9018 0.67056 0.6709 0.0
Cd127 Cd 0.921 0.66858 0.67334 0.0
Cd128 Cd 0.90158 0.64202 0.63225 0.0
O129 O 0.88474 0.64701 0.65285 0.0
O130 O 0.93396 0.6837 0.7207 0.0
O131 O 0.92405 0.65893 0.72946 0.0
C132 C 0.93165 0.67244 0.74643 0.0
C133 C 0.90482 0.62098 0.63943 0.0
C134 C 0.88803 0.66044 0.66429 0.0
C135 C 0.92727 0.66515 0.57658 0.0
O136 O 0.91397 0.65373 0.57679 0.0
O137 O 0.93324 0.67254 0.61306 0.0
O138 O 0.8941 0.62037 0.61424 0.0
O139 O 0.91207 0.63266 0.66579 0.0
O140 O 0.36154 0.239 0.68783 0.0
Cd141 Cd 0.36322 0.2601 0.69213 0.0
Cd142 Cd 0.38998 0.26741 0.64882 0.0
O143 O 0.38487 0.24539 0.66697 0.0
O144 O 0.34808 0.25734 0.74037 0.0
O145 O 0.37276 0.27261 0.7489 0.0
C146 C 0.35927 0.26635 0.76618 0.0
C147 C 0.41278 0.29069 0.64835 0.0
C148 C 0.37151 0.23528 0.67909 0.0
C149 C 0.36583 0.26977 0.59584 0.0
O150 O 0.37742 0.26819 0.59603 0.0
O151 O 0.35853 0.26829 0.63261 0.0
O152 O 0.41081 0.27968 0.62202 0.0
O153 O 0.40267 0.28774 0.67955 0.0
O154 O 0.79043 0.12668 0.66763 0.0
Cd155 Cd 0.76898 0.10802 0.67286 0.0
Cd156 Cd 0.76237 0.12797 0.63649 0.0
O157 O 0.78417 0.14439 0.65911 0.0
O158 O 0.77088 0.09478 0.71991 0.0
O159 O 0.75707 0.10579 0.7301 0.0
C160 C 0.76255 0.09772 0.74645 0.0
C161 C 0.73793 0.12423 0.6442 0.0
C162 C 0.79431 0.14064 0.66514 0.0
C163 C 0.75916 0.10287 0.57706 0.0
O164 O 0.76198 0.11651 0.57893 0.0
O165 O 0.75977 0.0961 0.61283 0.0
O166 O 0.74807 0.1355 0.62059 0.0
O167 O 0.74242 0.1167 0.66909 0.0
O168 O 0.02532 0.45894 0.5148 0.0
Cd169 Cd 0.02842 0.44034 0.51823 0.0
Cd170 Cd 0.05434 0.46021 0.47867 0.0
O171 O 0.04913 0.47653 0.50189 0.0
O172 O 1.0141 0.4266 0.56638 0.0
O173 O 0.03905 0.43909 0.57468 0.0
C174 C 0.02577 0.43038 0.59204 0.0
C175 C 0.07534 0.45683 0.48316 0.0
C176 C 0.0354 0.47287 0.51068 0.0
C177 C 0.03217 0.43509 0.42104 0.0
O178 O 0.04262 0.44888 0.42215 0.0
O179 O 0.02552 0.42829 0.45774 0.0
O180 O 0.07599 0.46797 0.46003 0.0
O181 O 0.06364 0.44916 0.50918 0.0
O182 O 0.57279 0.57304 0.5158 0.0
Cd183 Cd 0.59089 0.59499 0.52027 0.0
Cd184 Cd 0.57043 0.60034 0.48187 0.0
O185 O 0.55459 0.57855 0.50562 0.0
O186 O 0.60456 0.59485 0.56919 0.0
O187 O 0.59142 0.60671 0.57625 0.0
C188 C 0.60034 0.60252 0.59427 0.0
C189 C 0.57127 0.62376 0.48184 0.0
C190 C 0.55872 0.56875 0.51299 0.0
C191 C 0.59622 0.60407 0.42424 0.0
O192 O 0.58237 0.6005 0.42586 0.0
O193 O 0.60318 0.60436 0.46063 0.0
O194 O 0.56129 0.61247 0.45807 0.0
O195 O 0.57921 0.62105 0.51087 0.0
O196 O 0.45648 1.00219 0.51231 0.0
Cd197 Cd 0.43494 0.99951 0.51494 0.0
Cd198 Cd 0.42858 0.97335 0.47694 0.0
O199 O 0.44988 0.97819 0.50155 0.0
O200 O 0.4358 0.0142 0.56229 0.0
O201 O 0.42304 0.9893 0.57179 0.0
C202 C 0.42785 1.00269 0.58854 0.0
C203 C 0.40382 0.95296 0.48149 0.0
C204 C 0.46009 0.99191 0.5096 0.0
C205 C 0.42644 0.99553 0.41731 0.0
O206 O 0.42968 0.98502 0.41953 0.0
O207 O 0.42605 1.00225 0.45356 0.0
O208 O 0.41414 0.95172 0.45929 0.0
O209 O 0.40817 0.9649 0.50665 0.0
O210 O 0.79805 0.68816 0.67024 0.0
Cd211 Cd 0.77954 0.69136 0.66628 0.0
Cd212 Cd 0.80013 0.7175 0.70343 0.0
O213 O 0.8162 0.71193 0.67929 0.0
O214 O 0.76614 0.67643 0.61911 0.0
O215 O 0.77735 0.70128 0.60934 0.0
C216 C 0.76918 0.68778 0.59277 0.0
C217 C 0.79884 0.73982 0.70354 0.0
C218 C 0.8121 0.69799 0.67243 0.0
C219 C 0.77482 0.69531 0.76263 0.0
O220 O 0.78862 0.70569 0.75998 0.0
O221 O 0.7676 0.68848 0.72672 0.0
O222 O 0.80904 0.73876 0.72691 0.0
O223 O 0.79089 0.72906 0.67481 0.0
O224 O 0.34366 0.11759 0.67312 0.0
Cd225 Cd 0.34044 0.09589 0.66882 0.0
Cd226 Cd 0.3145 0.09026 0.70578 0.0
O227 O 0.3198 0.11176 0.68102 0.0
O228 O 0.35549 0.09746 0.62191 0.0
O229 O 0.33067 0.08394 0.61159 0.0
C230 C 0.3442 0.08924 0.59531 0.0
C231 C 0.29384 0.06565 0.70097 0.0
C232 C 0.33375 0.12171 0.6749 0.0
C233 C 0.33626 0.08725 0.76559 0.0
O234 O 0.32607 0.09094 0.76326 0.0
O235 O 0.34291 0.08664 0.72946 0.0
O236 O 0.29278 0.07605 0.72329 0.0
O237 O 0.30576 0.06986 0.67578 0.0
O238 O 0.91151 0.23111 0.6688 0.0
Cd239 Cd 0.93324 0.24967 0.66655 0.0
Cd240 Cd 0.9391 0.22961 0.70537 0.0
O241 O 0.91767 0.21343 0.68077 0.0
O242 O 0.93293 0.26366 0.61884 0.0
O243 O 0.94531 0.25108 0.6104 0.0
C244 C 0.94086 0.25991 0.5932 0.0
C245 C 0.96363 0.23333 0.70096 0.0
C246 C 0.90765 0.21715 0.67201 0.0
C247 C 0.94179 0.25434 0.76412 0.0
O248 O 0.93837 0.24053 0.76243 0.0
O249 O 0.94219 0.26136 0.72767 0.0
O250 O 0.95315 0.22196 0.7234 0.0
O251 O 0.95954 0.24108 0.67553 0.0
O252 O 0.34141 0.22875 0.17987 0.0
Cd253 Cd 0.33876 0.24764 0.17866 0.0
Cd254 Cd 0.31237 0.22725 0.21367 0.0
O255 O 0.31741 0.21105 0.18827 0.0
O256 O 0.3542 0.26158 0.13312 0.0
O257 O 0.32947 0.25064 0.1216 0.0
C258 C 0.34311 0.25886 0.10608 0.0
C259 C 0.29229 0.23199 0.2068 0.0
C260 C 0.33124 0.21479 0.18107 0.0
C261 C 0.33374 0.25093 0.27645 0.0
O262 O 0.32341 0.23715 0.27255 0.0
O263 O 0.34074 0.25853 0.24109 0.0
O264 O 0.29056 0.22015 0.22856 0.0
O265 O 0.30463 0.23972 0.18342 0.0
O266 O 0.80086 0.11842 0.16454 0.0
Cd267 Cd 0.78116 0.09767 0.16031 0.0
Cd268 Cd 0.79935 0.08976 0.20865 0.0
O269 O 0.81692 0.11155 0.19054 0.0
O270 O 0.76936 0.10089 0.11136 0.0
O271 O 0.77781 0.08477 0.10425 0.0
C272 C 0.77104 0.09142 0.08631 0.0
C273 C 0.79686 0.06565 0.2066 0.0
C274 C 0.81427 0.12183 0.17575 0.0
C275 C 0.77265 0.08836 0.25666 0.0
O276 O 0.78551 0.08927 0.25966 0.0
O277 O 0.76779 0.09029 0.21869 0.0
O278 O 0.80664 0.07609 0.23323 0.0
O279 O 0.79018 0.06962 0.17651 0.0
O280 O 0.91109 0.68699 0.16902 0.0
Cd281 Cd 0.93235 0.68942 0.1614 0.0
Cd282 Cd 0.9395 0.71596 0.20528 0.0
O283 O 0.91718 0.71037 0.18793 0.0
O284 O 0.92969 0.67473 0.11202 0.0
O285 O 0.94445 0.69956 0.10461 0.0
C286 C 0.93846 0.68617 0.08666 0.0
C287 C 0.9624 0.73913 0.20555 0.0
C288 C 0.90714 0.69677 0.17765 0.0
C289 C 0.94297 0.6919 0.25569 0.0
O290 O 0.94131 0.70344 0.25693 0.0
O291 O 0.94107 0.68461 0.21876 0.0
O292 O 0.95141 0.73674 0.23267 0.0
O293 O 0.95955 0.72925 0.17371 0.0
O294 O 0.57083 1.00351 0.01203 0.0
Cd295 Cd 0.58903 0.99991 0.01931 0.0
Cd296 Cd 0.56891 0.97393 0.97984 0.0
O297 O 0.55277 0.97976 1.00117 0.0
O298 O 0.60219 0.01404 0.06856 0.0
O299 O 0.58937 0.98908 0.0766 0.0
C300 C 0.598 1.00232 0.09435 0.0
C301 C 0.56946 0.9512 0.98013 0.0
C302 C 0.55681 0.9937 1.00789 0.0
C303 C 0.59522 0.9963 0.92394 0.0
O304 O 0.58142 0.98587 0.92476 0.0
O305 O 0.60186 1.003 0.96069 0.0
O306 O 0.55983 0.95276 0.95534 0.0
O307 O 0.57719 0.96169 0.00982 0.0
O308 O 0.02895 0.57227 0.02072 0.0
Cd309 Cd 0.03053 0.59334 0.0247 0.0
Cd310 Cd 0.05715 0.6006 0.98084 0.0
O311 O 0.05224 0.57868 0.99948 0.0
O312 O 1.01536 0.59051 0.07289 0.0
O313 O 0.04 0.60593 0.08141 0.0
C314 C 0.0265 0.59959 0.09867 0.0
C315 C 0.07979 0.62404 0.98065 0.0
C316 C 0.03892 0.56857 0.01194 0.0
C317 C 0.03281 0.60268 0.92811 0.0
O318 O 0.04444 0.60115 0.92807 0.0
O319 O 0.02565 0.60132 0.96508 0.0
O320 O 0.078 0.61309 0.9543 0.0
O321 O 0.06958 0.62095 0.01166 0.0
O322 O 0.4568 0.46191 0.01326 0.0
Cd323 Cd 0.43614 0.4421 0.01797 0.0
Cd324 Cd 0.42807 0.46102 0.97047 0.0
O325 O 0.45017 0.4782 0.98744 0.0
O326 O 0.43967 0.43034 0.06651 0.0
O327 O 0.42356 0.43874 0.07484 0.0
C328 C 0.43035 0.43205 0.09226 0.0
C329 C 0.40501 0.46098 0.96764 0.0
C330 C 0.46034 0.47537 1.00209 0.0
C331 C 0.42603 0.43369 0.92223 0.0
O332 O 0.42673 0.44647 0.92052 0.0
O333 O 0.4285 0.42879 0.95936 0.0
O334 O 0.41608 0.4694 0.94057 0.0
O335 O 0.40781 0.4543 1.00073 0.0
O336 O 0.69255 0.79239 0.84387 0.0
Cd337 Cd 0.69596 0.77401 0.84932 0.0
Cd338 Cd 0.72199 0.79462 0.81122 0.0
O339 O 0.71624 0.81066 0.83416 0.0
O340 O 0.68109 0.76078 0.89696 0.0
O341 O 0.70595 0.77225 0.90674 0.0
C342 C 0.69246 0.76405 0.92342 0.0
C343 C 0.74451 0.7937 0.811 0.0
C344 C 0.70228 0.80647 0.84095 0.0
C345 C 0.70008 0.76879 0.75343 0.0
O346 O 0.71018 0.7827 0.75526 0.0
O347 O 0.69337 0.76173 0.78973 0.0
O348 O 0.74321 0.80368 0.78716 0.0
O349 O 0.7339 0.78583 0.84025 0.0
O350 O 0.23892 0.90626 0.84534 0.0
Cd351 Cd 0.25689 0.92827 0.84837 0.0
Cd352 Cd 0.23619 0.93328 0.8126 0.0
O353 O 0.22068 0.91191 0.83996 0.0
O354 O 0.27125 0.92857 0.89583 0.0
O355 O 0.25765 0.93987 0.90478 0.0
C356 C 0.26695 0.93598 0.92173 0.0
C357 C 0.24027 0.95794 0.81703 0.0
C358 C 0.22485 0.90205 0.84555 0.0
C359 C 0.26052 0.9366 0.7513 0.0
O360 O 0.24649 0.9323 0.75425 0.0
O361 O 0.26811 0.93778 0.78716 0.0
O362 O 0.22848 0.94743 0.79612 0.0
O363 O 0.24826 0.95384 0.84119 0.0
O364 O 0.12364 0.33655 0.84623 0.0
Cd365 Cd 0.10193 0.33347 0.84907 0.0
Cd366 Cd 0.09591 0.30744 0.81081 0.0
O367 O 0.11739 0.31267 0.83479 0.0
O368 O 0.10242 0.34791 0.89664 0.0
O369 O 0.09007 0.32299 0.90572 0.0
C370 C 0.09459 0.33631 0.92266 0.0
C371 C 0.07133 0.28678 0.81576 0.0
C372 C 0.12746 0.32643 0.84303 0.0
C373 C 0.09316 0.32932 0.75159 0.0
O374 O 0.09663 0.31897 0.75352 0.0
O375 O 0.09278 0.33601 0.78794 0.0
O376 O 0.08172 0.28574 0.7933 0.0
O377 O 0.07555 0.29869 0.84096 0.0
O378 O 0.46706 0.02125 1.00322 0.0
Cd379 Cd 0.44835 0.02422 1.00074 0.0
Cd380 Cd 0.46835 0.05023 0.03914 0.0
O381 O 0.48465 0.04516 0.01466 0.0
O382 O 0.43435 1.00966 0.95345 0.0
O383 O 0.44677 0.03456 0.944 0.0
C384 C 0.438 0.0212 0.92729 0.0
C385 C 0.46426 0.07078 0.03462 0.0
C386 C 0.48099 0.03141 1.00629 0.0
C387 C 0.44384 0.02826 0.09848 0.0
O388 O 0.45766 0.0386 0.09647 0.0
O389 O 0.43673 0.02164 0.06211 0.0
O390 O 0.47576 0.07189 0.05685 0.0
O391 O 0.45659 0.05888 0.0094 0.0
O392 O 1.01046 0.45059 0.01035 0.0
Cd393 Cd 1.00629 0.42856 1.00558 0.0
Cd394 Cd 0.98054 0.42357 0.04068 0.0
O395 O 0.9866 0.44511 0.01449 0.0
O396 O 0.02051 0.42852 0.95803 0.0
O397 O 0.99568 0.41752 0.94815 0.0
C398 C 1.0089 0.42144 0.93149 0.0
C399 C 0.95995 0.39895 0.03529 0.0
C400 C 1.00069 0.45493 0.0101 0.0
C401 C 1.00109 0.41969 0.10222 0.0
O402 O 0.9916 0.42428 0.0992 0.0
O403 O 1.00751 0.41848 0.06637 0.0
O404 O 0.95864 0.40939 0.05651 0.0
O405 O 0.97211 0.40313 0.01132 0.0
O406 O 0.57785 0.5658 0.00995 0.0
Cd407 Cd 0.5999 0.58373 1.0069 0.0
Cd408 Cd 0.60479 0.56281 0.0411 0.0
O409 O 0.5835 0.54752 0.0131 0.0
O410 O 0.60027 0.59832 0.96 0.0
O411 O 0.61128 0.58449 0.94999 0.0
C412 C 0.60751 0.59393 0.93356 0.0
C413 C 0.62952 0.56713 0.03565 0.0
C414 C 0.57364 0.55173 1.0085 0.0
C415 C 0.6084 0.58677 0.10388 0.0
O416 O 0.60372 0.57268 0.10025 0.0
O417 O 0.60978 0.59459 0.06835 0.0
O418 O 0.61909 0.55516 0.05611 0.0
O419 O 0.62529 0.57522 0.01249 0.0
O420 O 1.00859 0.56336 0.51553 0.0
Cd421 Cd 1.00552 0.58193 0.51179 0.0
Cd422 Cd 0.97919 0.56135 0.54443 0.0
O423 O 0.98455 0.54543 0.51785 0.0
O424 O 0.02099 0.59583 0.46618 0.0
O425 O 0.99626 0.58435 0.45381 0.0
C426 C 1.00991 0.59274 0.43859 0.0
C427 C 0.95919 0.56621 0.53704 0.0
C428 C 0.99856 0.54936 0.51425 0.0
C429 C 1.00002 0.5849 0.60865 0.0
O430 O 0.99 0.57102 0.60407 0.0
O431 O 1.00694 0.59279 0.57363 0.0
O432 O 0.95727 0.55421 0.55817 0.0
O433 O 0.97169 0.57408 0.51451 0.0
O434 O 0.46888 0.45171 0.50978 0.0
Cd435 Cd 0.44925 0.43084 0.50605 0.0
Cd436 Cd 0.46852 0.42308 0.55081 0.0
O437 O 0.48551 0.44518 0.53296 0.0
O438 O 0.43699 0.43383 0.458 0.0
O439 O 0.44599 0.4182 0.44947 0.0
C440 C 0.43892 0.42464 0.43225 0.0
C441 C 0.4681 0.39985 0.55099 0.0
C442 C 0.48247 0.45532 0.51939 0.0
C443 C 0.44163 0.42065 0.60208 0.0
O444 O 0.45458 0.42173 0.60276 0.0
O445 O 0.43633 0.42288 0.5654 0.0
O446 O 0.47699 0.41077 0.57781 0.0
O447 O 0.46114 0.4029 0.5194 0.0
O448 O 0.57746 0.01848 0.51428 0.0
Cd449 Cd 0.59937 0.02232 0.50869 0.0
Cd450 Cd 0.60481 0.04828 0.54319 0.0
O451 O 0.58332 0.04246 0.51727 0.0
O452 O 0.59899 1.00786 0.46124 0.0
O453 O 0.61028 0.03269 0.45078 0.0
C454 C 0.60612 0.01938 0.43436 0.0
C455 C 0.62939 0.06888 0.5368 0.0
C456 C 0.57334 0.02841 0.51365 0.0
C457 C 0.60857 0.02766 0.60504 0.0
O458 O 0.60416 0.0373 0.60197 0.0
O459 O 0.60958 0.02111 0.56922 0.0
O460 O 0.61902 0.07022 0.55838 0.0
O461 O 0.62515 0.05665 0.51321 0.0
O462 O 0.23635 0.33687 0.33518 0.0
Cd463 Cd 0.25484 0.33368 0.33971 0.0
Cd464 Cd 0.23435 0.30749 0.30581 0.0
O465 O 0.21836 0.31287 0.33152 0.0
O466 O 0.26853 0.34898 0.38588 0.0
O467 O 0.25702 0.32421 0.39758 0.0
C468 C 0.26536 0.33781 0.41318 0.0
C469 C 0.2386 0.28708 0.31271 0.0
C470 C 0.22233 0.32688 0.33557 0.0
C471 C 0.25849 0.32853 0.24314 0.0
O472 O 0.24458 0.3185 0.24684 0.0
O473 O 0.26611 0.33537 0.27858 0.0
O474 O 0.22689 0.28561 0.29084 0.0
O475 O 0.24647 0.29937 0.33621 0.0
O476 O 0.69472 0.90474 0.34406 0.0
Cd477 Cd 0.69729 0.92626 0.34458 0.0
Cd478 Cd 0.72368 0.93229 0.30944 0.0
O479 O 0.71875 0.91113 0.33559 0.0
O480 O 0.6818 0.92481 0.38981 0.0
O481 O 0.70652 0.93871 0.40141 0.0
C482 C 0.69286 0.9333 0.4168 0.0
C483 C 0.74359 0.95724 0.31572 0.0
C484 C 0.70494 0.90102 0.34305 0.0
C485 C 0.70224 0.93433 0.2465 0.0
O486 O 0.71257 0.93087 0.25048 0.0
O487 O 0.6953 0.93503 0.28186 0.0
O488 O 0.74548 0.94714 0.29456 0.0
O489 O 0.7312 0.95259 0.33889 0.0
O490 O 0.12356 0.79592 0.34244 0.0
Cd491 Cd 0.10278 0.77623 0.34684 0.0
Cd492 Cd 0.0948 0.79531 0.30158 0.0
O493 O 0.11692 0.81242 0.31876 0.0
O494 O 0.10605 0.76419 0.39501 0.0
O495 O 0.09026 0.77297 0.40374 0.0
C496 C 0.09687 0.76607 0.42093 0.0
C497 C 0.07156 0.79488 0.30149 0.0
C498 C 0.1271 0.80947 0.33236 0.0
C499 C 0.09254 0.76835 0.25098 0.0
O500 O 0.09343 0.78123 0.25009 0.0
O501 O 0.0949 0.76318 0.28775 0.0
O502 O 0.08243 0.80368 0.27433 0.0
O503 O 0.07467 0.78802 0.33326 0.0
H504 H 0.37045 0.10482 0.54665 0.0
H505 H 0.32367 0.06948 0.53305 0.0
H506 H 0.37393 0.10444 0.46488 0.0
H507 H 0.3273 0.06842 0.45112 0.0
H508 H 0.33305 0.08583 0.30364 0.0
H509 H 0.32958 0.08203 0.38546 0.0
H510 H 0.37633 0.09308 0.3995 0.0
H511 H 0.37995 0.09771 0.31755 0.0
C512 C 0.36098 0.09667 0.52628 0.0
C513 C 0.34675 0.08725 0.54644 0.0
C514 C 0.36299 0.09638 0.47912 0.0
C515 C 0.35089 0.08647 0.45071 0.0
C516 C 0.33683 0.07649 0.4714 0.0
C517 C 0.33476 0.07697 0.51857 0.0
C518 C 0.34255 0.08726 0.32409 0.0
C519 C 0.35681 0.09218 0.304 0.0
C520 C 0.34054 0.08499 0.37128 0.0
C521 C 0.35268 0.08734 0.39977 0.0
C522 C 0.36677 0.0915 0.37916 0.0
C523 C 0.36884 0.09402 0.33197 0.0
H524 H 0.94929 0.24742 0.52472 0.0
H525 H 0.93769 0.28214 0.55076 0.0
H526 H 0.94937 0.25177 0.44313 0.0
H527 H 0.93854 0.28714 0.46916 0.0
H528 H 0.91972 0.27643 0.32295 0.0
H529 H 0.92395 0.27634 0.40448 0.0
H530 H 0.96 0.2665 0.37837 0.0
H531 H 0.95514 0.26583 0.29669 0.0
C532 C 0.94715 0.25628 0.51305 0.0
C533 C 0.94337 0.26435 0.54429 0.0
C534 C 0.94726 0.25886 0.46605 0.0
C535 C 0.94381 0.26975 0.44897 0.0
C536 C 0.94087 0.27839 0.48061 0.0
C537 C 0.94053 0.27564 0.52758 0.0
C538 C 0.9287 0.27447 0.33457 0.0
C539 C 0.93701 0.27104 0.30325 0.0
C540 C 0.93121 0.27448 0.38156 0.0
C541 C 0.94227 0.27129 0.3986 0.0
C542 C 0.95113 0.26865 0.36693 0.0
C543 C 0.94845 0.26841 0.31992 0.0
H544 H 0.75787 0.66142 0.54445 0.0
H545 H 0.77068 0.70856 0.53004 0.0
H546 H 0.75401 0.65791 0.46271 0.0
H547 H 0.76604 0.70493 0.44807 0.0
H548 H 0.77775 0.69837 0.30119 0.0
H549 H 0.77729 0.70209 0.38281 0.0
H550 H 0.74042 0.65589 0.39711 0.0
H551 H 0.74151 0.65199 0.31536 0.0
C552 C 0.7595 0.67098 0.52391 0.0
C553 C 0.76469 0.6853 0.54386 0.0
C554 C 0.75719 0.66894 0.47676 0.0
C555 C 0.75978 0.68114 0.44813 0.0
C556 C 0.76424 0.69531 0.46856 0.0
C557 C 0.76678 0.6974 0.51575 0.0
C558 C 0.76939 0.68905 0.32162 0.0
C559 C 0.75974 0.67484 0.30169 0.0
C560 C 0.76905 0.69121 0.36869 0.0
C561 C 0.7589 0.67928 0.39722 0.0
C562 C 0.74867 0.66528 0.37672 0.0
C563 C 0.74917 0.66305 0.32965 0.0
H564 H 0.0978 0.36178 0.96475 0.0
H565 H 0.08653 0.3156 0.99165 0.0
H566 H 0.09711 0.3661 0.04629 0.0
H567 H 0.08664 0.32006 0.07316 0.0
H568 H 0.08105 0.32845 0.21949 0.0
H569 H 0.07612 0.3241 0.13792 0.0
H570 H 0.11163 0.37019 0.11112 0.0
H571 H 0.11589 0.37466 0.19262 0.0
C572 C 0.09508 0.35251 0.98811 0.0
C573 C 0.09225 0.33836 0.97164 0.0
C574 C 0.09483 0.35502 0.03506 0.0
C575 C 0.09202 0.34353 0.06695 0.0
C576 C 0.08864 0.32919 0.0501 0.0
C577 C 0.08864 0.32661 1.00313 0.0
C578 C 0.0876 0.33772 0.19613 0.0
C579 C 0.09888 0.3519 0.21262 0.0
C580 C 0.08489 0.3352 0.14917 0.0
C581 C 0.09358 0.3467 0.1173 0.0
C582 C 0.1045 0.36106 0.13416 0.0
C583 C 0.10702 0.36364 0.18114 0.0
H584 H 0.65688 0.73623 0.20135 0.0
H585 H 0.7036 0.77164 0.21565 0.0
H586 H 0.66053 0.7356 0.11925 0.0
H587 H 0.70709 0.77168 0.13375 0.0
H588 H 0.66624 0.75324 0.97225 0.0
H589 H 0.66279 0.74938 0.05404 0.0
H590 H 0.70961 0.76064 0.06785 0.0
H591 H 0.7132 0.76532 0.98589 0.0
C592 C 0.66796 0.74384 0.18698 0.0
C593 C 0.67993 0.754 0.21513 0.0
C594 C 0.67004 0.7436 0.13971 0.0
C595 C 0.68409 0.75371 0.1192 0.0
C596 C 0.69617 0.76353 0.14784 0.0
C597 C 0.69414 0.76358 0.19508 0.0
C598 C 0.67576 0.75473 0.99264 0.0
C599 C 0.69002 0.75969 0.97246 0.0
C600 C 0.67376 0.75241 0.03982 0.0
C601 C 0.68592 0.75476 0.06824 0.0
C602 C 0.70003 0.75904 0.04756 0.0
C603 C 0.70208 0.76159 1.00037 0.0
H604 H 0.28273 0.91488 0.19258 0.0
H605 H 0.27198 0.95025 0.21785 0.0
H606 H 0.28307 0.91926 0.11098 0.0
H607 H 0.27306 0.95524 0.13616 0.0
H608 H 0.25412 0.94418 0.98976 0.0
H609 H 0.25835 0.94434 0.0714 0.0
H610 H 0.29416 0.93408 0.04645 0.0
H611 H 0.28933 0.93317 0.96471 0.0
C612 C 0.28082 0.92388 0.18075 0.0
C613 C 0.27721 0.93213 0.21177 0.0
C614 C 0.28109 0.92648 0.13374 0.0
C615 C 0.27795 0.93755 0.11644 0.0
C616 C 0.27517 0.94637 0.14784 0.0
C617 C 0.27469 0.94361 0.19484 0.0
C618 C 0.26305 0.94218 1.00165 0.0
C619 C 0.2713 0.93855 0.97068 0.0
C620 C 0.26556 0.94234 0.04868 0.0
C621 C 0.27653 0.93908 0.06606 0.0
C622 C 0.28535 0.93628 0.03471 0.0
C623 C 0.28269 0.9359 0.98768 0.0
H624 H 0.70265 0.93571 0.70801 0.0
H625 H 0.65605 0.92485 0.69362 0.0
H626 H 0.70632 0.93969 0.62636 0.0
H627 H 0.65989 0.92958 0.61166 0.0
H628 H 0.66625 0.91789 0.46408 0.0
H629 H 0.66235 0.91818 0.54576 0.0
H630 H 0.70899 0.95393 0.56152 0.0
H631 H 0.71302 0.95303 0.4798 0.0
C632 C 0.69325 0.93451 0.68751 0.0
C633 C 0.67902 0.92986 0.70747 0.0
C634 C 0.69539 0.93691 0.6404 0.0
C635 C 0.68341 0.93491 0.61178 0.0
C636 C 0.66934 0.93093 0.63217 0.0
C637 C 0.66714 0.92834 0.67935 0.0
C638 C 0.67563 0.92597 0.48486 0.0
C639 C 0.68999 0.93535 0.46534 0.0
C640 C 0.67337 0.92621 0.53194 0.0
C641 C 0.68538 0.93597 0.56088 0.0
C642 C 0.69954 0.94597 0.5408 0.0
C643 C 0.70184 0.94557 0.49374 0.0
H644 H 0.07722 0.76668 0.48413 0.0
H645 H 0.11292 0.7558 0.46901 0.0
H646 H 0.07658 0.76216 0.56613 0.0
H647 H 0.11281 0.75194 0.55077 0.0
H648 H 0.09518 0.77447 0.71262 0.0
H649 H 0.09112 0.77412 0.63093 0.0
H650 H 0.10104 0.73768 0.61624 0.0
H651 H 0.10578 0.73854 0.69817 0.0
C652 C 0.08486 0.76322 0.49824 0.0
C653 C 0.09515 0.76166 0.46992 0.0
C654 C 0.0846 0.76075 0.54542 0.0
C655 C 0.09476 0.75682 0.5656 0.0
C656 C 0.10465 0.75473 0.53682 0.0
C657 C 0.10479 0.75704 0.48969 0.0
C658 C 0.09632 0.76624 0.6921 0.0
C659 C 0.10091 0.7566 0.71203 0.0
C660 C 0.09389 0.76597 0.64503 0.0
C661 C 0.09582 0.75593 0.61644 0.0
C662 C 0.09974 0.7458 0.63679 0.0
C663 C 0.10234 0.74619 0.68393 0.0
H664 H 0.2645 0.31752 0.47647 0.0
H665 H 0.27601 0.36426 0.46085 0.0
H666 H 0.26898 0.32139 0.55839 0.0
H667 H 0.27968 0.36799 0.5427 0.0
H668 H 0.29218 0.37414 0.69096 0.0
H669 H 0.29321 0.3705 0.60897 0.0
H670 H 0.25733 0.32383 0.62305 0.0
H671 H 0.25694 0.32732 0.70478 0.0
C672 C 0.26808 0.32866 0.49051 0.0
C673 C 0.26985 0.34056 0.46206 0.0
C674 C 0.27051 0.33087 0.53768 0.0
C675 C 0.27452 0.34498 0.55783 0.0
C676 C 0.27683 0.35701 0.52888 0.0
C677 C 0.27463 0.35486 0.48168 0.0
C678 C 0.2847 0.36305 0.67652 0.0
C679 C 0.27447 0.35104 0.7045 0.0
C680 C 0.28518 0.36097 0.62933 0.0
C681 C 0.27526 0.34688 0.60874 0.0
C682 C 0.26536 0.33478 0.63722 0.0
C683 C 0.26505 0.33681 0.68436 0.0
H684 H 0.93133 0.65191 0.80787 0.0
H685 H 0.94202 0.69853 0.79567 0.0
H686 H 0.93586 0.65532 0.88991 0.0
H687 H 0.9458 0.70177 0.87754 0.0
H688 H 0.95832 0.70714 0.02535 0.0
H689 H 0.95967 0.70395 0.94323 0.0
H690 H 0.92368 0.65723 0.95474 0.0
H691 H 0.92293 0.66027 0.0366 0.0
C692 C 0.93476 0.66292 0.82265 0.0
C693 C 0.93624 0.67492 0.79519 0.0
C694 C 0.93723 0.66486 0.86985 0.0
C695 C 0.94103 0.67879 0.8909 0.0
C696 C 0.94311 0.69094 0.86291 0.0
C697 C 0.94084 0.68905 0.81573 0.0
C698 C 0.95088 0.69613 0.01033 0.0
C699 C 0.94049 0.68399 0.03757 0.0
C700 C 0.95155 0.69431 0.9631 0.0
C701 C 0.94169 0.68035 0.94182 0.0
C702 C 0.93166 0.66809 0.96955 0.0
C703 C 0.93114 0.66987 0.01673 0.0
H704 H 0.32287 0.25814 0.0428 0.0
H705 H 0.36969 0.26993 0.05871 0.0
H706 H 0.32683 0.26275 0.96094 0.0
H707 H 0.37351 0.27379 0.97691 0.0
H708 H 0.37967 0.28629 0.82861 0.0
H709 H 0.3759 0.28739 0.91051 0.0
H710 H 0.32948 0.25099 0.89657 0.0
H711 H 0.33309 0.25047 0.81495 0.0
C712 C 0.33405 0.26183 0.02887 0.0
C713 C 0.34593 0.2636 0.05737 0.0
C714 C 0.33631 0.26434 0.98173 0.0
C715 C 0.35046 0.26846 0.96167 0.0
C716 C 0.3625 0.27083 0.99069 0.0
C717 C 0.36029 0.26853 0.03785 0.0
C718 C 0.3686 0.27871 0.84303 0.0
C719 C 0.35671 0.26827 0.81513 0.0
C720 C 0.36645 0.27923 0.89017 0.0
C721 C 0.3524 0.26919 0.91077 0.0
C722 C 0.3404 0.2591 0.88236 0.0
C723 C 0.3425 0.25872 0.83528 0.0
H724 H 0.74318 0.09902 0.80905 0.0
H725 H 0.77783 0.08662 0.79476 0.0
H726 H 0.74239 0.09465 0.8911 0.0
H727 H 0.77762 0.08297 0.87671 0.0
H728 H 0.77084 0.07084 0.02513 0.0
H729 H 0.76593 0.06946 0.94319 0.0
H730 H 0.75713 0.10674 0.95498 0.0
H731 H 0.76131 0.10757 0.03661 0.0
C732 C 0.75055 0.09526 0.82339 0.0
C733 C 0.76061 0.09325 0.79533 0.0
C734 C 0.75021 0.09287 0.87059 0.0
C735 C 0.76009 0.08864 0.89107 0.0
C736 C 0.76969 0.08603 0.86252 0.0
C737 C 0.76988 0.08821 0.81531 0.0
C738 C 0.7676 0.07855 0.01022 0.0
C739 C 0.76652 0.08934 0.03747 0.0
C740 C 0.76491 0.07786 0.9631 0.0
C741 C 0.76124 0.08807 0.94194 0.0
C742 C 0.75967 0.0985 0.96971 0.0
C743 C 0.76218 0.09906 0.01676 0.0
H744 H 0.98821 0.41397 0.86281 0.0
H745 H 0.0342 0.42441 0.88862 0.0
H746 H 0.99251 0.4142 0.78122 0.0
H747 H 0.03836 0.42388 0.80686 0.0
H748 H 0.04672 0.44293 0.66047 0.0
H749 H 0.04247 0.43864 0.74212 0.0
H750 H 0.99621 0.40338 0.7164 0.0
H751 H 1.00033 0.40831 0.63477 0.0
C752 C 0.99915 0.41594 0.85108 0.0
C753 C 1.01088 0.41926 0.88232 0.0
C754 C 1.00162 0.416 0.80404 0.0
C755 C 1.01586 0.41917 0.78685 0.0
C756 C 0.02736 0.42174 0.81842 0.0
C757 C 0.02493 0.4219 0.86547 0.0
C758 C 0.0357 0.43411 0.67223 0.0
C759 C 0.02384 0.42604 0.64106 0.0
C760 C 0.03325 0.43157 0.71927 0.0
C761 C 0.01891 0.42073 0.73645 0.0
C762 C 1.00729 0.4121 0.70488 0.0
C763 C 1.00969 0.41481 0.65789 0.0
H764 H 0.62279 0.60011 0.63803 0.0
H765 H 0.58694 0.61026 0.66184 0.0
H766 H 0.62735 0.60093 0.71986 0.0
H767 H 0.59089 0.61034 0.74372 0.0
H768 H 0.60431 0.61616 0.89094 0.0
H769 H 0.60529 0.62119 0.80926 0.0
H770 H 0.6162 0.58586 0.7837 0.0
H771 H 0.61593 0.58143 0.8652 0.0
C772 C 0.61594 0.60263 0.66078 0.0
C773 C 0.60446 0.60506 0.64339 0.0
C774 C 0.61845 0.60296 0.70787 0.0
C775 C 0.60936 0.60547 0.73894 0.0
C776 C 0.59829 0.60854 0.72122 0.0
C777 C 0.59595 0.60844 0.67407 0.0
C778 C 0.60719 0.60968 0.86785 0.0
C779 C 0.61 0.59837 0.88465 0.0
C780 C 0.60761 0.61245 0.82085 0.0
C781 C 0.61066 0.60385 0.78935 0.0
C782 C 0.61403 0.59292 0.80653 0.0
C783 C 0.61381 0.5903 0.8535 0.0
H784 H 0.41556 0.99567 0.88592 0.0
H785 H 0.45055 0.04172 0.85777 0.0
H786 H 0.41031 0.99117 0.80454 0.0
H787 H 0.44598 0.03708 0.77641 0.0
H788 H 0.43163 0.02843 0.63041 0.0
H789 H 0.43136 0.033 0.71196 0.0
H790 H 0.42033 0.98681 0.73938 0.0
H791 H 0.41979 0.98212 0.65792 0.0
C792 C 0.42208 1.00487 0.86231 0.0
C793 C 0.43349 0.01904 0.8784 0.0
C794 C 0.41918 1.00225 0.81544 0.0
C795 C 0.42782 0.01366 0.78323 0.0
C796 C 0.43888 0.02802 0.7997 0.0
C797 C 0.44158 0.0307 0.8466 0.0
C798 C 0.42887 0.01918 0.65392 0.0
C799 C 0.42575 1.00492 0.63759 0.0
C800 C 0.42887 0.02184 0.70087 0.0
C801 C 0.42603 1.01037 0.73292 0.0
C802 C 0.42236 0.99593 0.71624 0.0
C803 C 0.42211 0.99322 0.66927 0.0
H804 H 0.60236 0.99373 0.39174 0.0
H805 H 0.61396 0.04004 0.36532 0.0
H806 H 0.6028 0.98942 0.31004 0.0
H807 H 0.61367 0.03562 0.28378 0.0
H808 H 0.62005 0.02752 0.13784 0.0
H809 H 0.62452 0.03159 0.21961 0.0
H810 H 0.58838 0.98565 0.2446 0.0
H811 H 0.58454 0.98145 0.16275 0.0
C812 C 0.6051 1.00303 0.36848 0.0
C813 C 0.60811 0.01723 0.38515 0.0
C814 C 0.60521 1.00052 0.32145 0.0
C815 C 0.60812 0.01209 0.28972 0.0
C816 C 0.6116 0.02644 0.30674 0.0
C817 C 0.6117 0.02899 0.35374 0.0
C818 C 0.61324 0.01822 0.16083 0.0
C819 C 0.60191 1.00417 0.14371 0.0
C820 C 0.61569 0.02059 0.20791 0.0
C821 C 0.6067 1.00905 0.23931 0.0
C822 C 0.59572 0.99481 0.22189 0.0
C823 C 0.59344 0.99238 0.17475 0.0
H824 H 0.03659 0.60377 0.39169 0.0
H825 H 0.98973 0.59165 0.37458 0.0
H826 H 0.04053 0.60741 0.30984 0.0
H827 H 0.9938 0.59606 0.29268 0.0
H828 H 1.00032 0.58364 0.14733 0.0
H829 H 0.99662 0.58423 0.22886 0.0
H830 H 0.04296 0.62082 0.24294 0.0
H831 H 0.04682 0.61964 0.16112 0.0
C832 C 0.0272 0.60225 0.37054 0.0
C833 C 1.0128 0.5973 0.38975 0.0
C834 C 0.02948 0.60443 0.32335 0.0
C835 C 1.01747 0.6019 0.294 0.0
C836 C 1.00326 0.59775 0.31373 0.0
C837 C 1.00094 0.59536 0.36089 0.0
C838 C 1.00969 0.59194 0.16767 0.0
C839 C 0.0239 0.60153 0.14758 0.0
C840 C 1.00754 0.59237 0.2147 0.0
C841 C 0.01948 0.60254 0.24313 0.0
C842 C 0.03354 0.6126 0.2226 0.0
C843 C 0.03575 0.61203 0.1755 0.0
H844 H 0.44665 0.42214 0.14062 0.0
H845 H 0.41049 0.43239 0.15523 0.0
H846 H 0.44649 0.4183 0.22238 0.0
H847 H 0.40982 0.42787 0.23726 0.0
H848 H 0.43954 0.40487 0.36957 0.0
H849 H 0.43477 0.40392 0.28766 0.0
H850 H 0.4242 0.43992 0.30226 0.0
H851 H 0.4283 0.44035 0.38395 0.0
C852 C 0.43841 0.42325 0.16119 0.0
C853 C 0.42865 0.42769 0.14128 0.0
C854 C 0.43825 0.42094 0.20832 0.0
C855 C 0.42821 0.42284 0.23697 0.0
C856 C 0.41794 0.4266 0.21664 0.0
C857 C 0.41822 0.42907 0.16946 0.0
C858 C 0.43595 0.4124 0.35532 0.0
C859 C 0.43437 0.42272 0.38339 0.0
C860 C 0.43333 0.41195 0.30819 0.0
C861 C 0.42923 0.42195 0.28782 0.0
C862 C 0.42711 0.43187 0.31638 0.0
C863 C 0.42957 0.4322 0.36346 0.0
H864 H 0.35751 0.21841 0.14442 0.0
H865 H 0.31616 0.18506 0.20999 0.0
H866 H 0.36671 0.20049 0.14347 0.0
H867 H 0.3256 0.16724 0.21105 0.0
H868 H 0.3403 0.13359 0.16945 0.0
H869 H 0.33098 0.15129 0.16864 0.0
H870 H 0.37672 0.1885 0.18786 0.0
H871 H 0.38618 0.17062 0.18646 0.0
C872 C 0.35035 0.20721 0.15868 0.0
C873 C 0.33604 0.20318 0.17713 0.0
C874 C 0.35573 0.19694 0.15863 0.0
C875 C 0.34705 0.18234 0.17759 0.0
C876 C 0.33261 0.17825 0.1955 0.0
C877 C 0.32714 0.18849 0.19497 0.0
C878 C 0.34844 0.14554 0.1737 0.0
C879 C 0.36405 0.15063 0.1781 0.0
C880 C 0.34302 0.15576 0.17352 0.0
C881 C 0.35299 0.17145 0.17831 0.0
C882 C 0.36864 0.17656 0.18329 0.0
C883 C 0.3741 0.16629 0.18289 0.0
H884 H 0.81353 0.14479 0.13002 0.0
H885 H 0.8422 0.13603 0.21855 0.0
H886 H 0.83173 0.17179 0.13223 0.0
H887 H 0.86035 0.16328 0.22201 0.0
H888 H 0.89649 0.21173 0.18221 0.0
H889 H 0.87868 0.18466 0.18136 0.0
H890 H 0.84132 0.19348 0.17932 0.0
H891 H 0.8593 0.22078 0.17853 0.0
C892 C 0.82376 0.14862 0.15001 0.0
C893 C 0.82636 0.13815 0.1741 0.0
C894 C 0.83417 0.16421 0.15168 0.0
C895 C 0.84751 0.16991 0.1778 0.0
C896 C 0.8503 0.1594 0.20117 0.0
C897 C 0.83988 0.14372 0.19921 0.0
C898 C 0.88447 0.20797 0.18182 0.0
C899 C 0.87939 0.21856 0.18027 0.0
C900 C 0.8742 0.19233 0.1816 0.0
C901 C 0.85846 0.1867 0.18007 0.0
C902 C 0.85334 0.1973 0.17962 0.0
C903 C 0.86366 0.21301 0.17958 0.0
H904 H 0.89295 0.71399 0.17679 0.0
H905 H 0.88363 0.66768 0.17975 0.0
H906 H 0.86566 0.70481 0.1769 0.0
H907 H 0.85666 0.65856 0.1822 0.0
H908 H 0.80834 0.64517 0.14253 0.0
H909 H 0.83556 0.65444 0.14152 0.0
H910 H 0.84337 0.69376 0.21959 0.0
H911 H 0.81629 0.68481 0.21848 0.0
C912 C 0.88511 0.70188 0.17774 0.0
C913 C 0.89057 0.69163 0.17789 0.0
C914 C 0.8694 0.69655 0.17816 0.0
C915 C 0.85873 0.68084 0.17946 0.0
C916 C 0.86432 0.67068 0.18009 0.0
C917 C 0.87992 0.67597 0.17899 0.0
C918 C 0.81587 0.6557 0.15987 0.0
C919 C 0.81008 0.6642 0.18058 0.0
C920 C 0.83156 0.66107 0.15941 0.0
C921 C 0.8419 0.67499 0.1803 0.0
C922 C 0.83597 0.68322 0.20214 0.0
C923 C 0.82034 0.67797 0.20198 0.0
H924 H 0.14251 0.33746 0.30502 0.0
H925 H 0.17567 0.37916 0.36938 0.0
H926 H 0.16064 0.32852 0.30444 0.0
H927 H 0.19369 0.36997 0.37075 0.0
H928 H 0.2277 0.35585 0.32815 0.0
H929 H 0.2097 0.3648 0.32769 0.0
H930 H 0.17302 0.31891 0.34909 0.0
H931 H 0.1912 0.30982 0.34741 0.0
C932 C 0.15371 0.34475 0.31913 0.0
C933 C 0.15763 0.35909 0.33708 0.0
C934 C 0.1641 0.33952 0.31927 0.0
C935 C 0.17871 0.34839 0.33788 0.0
C936 C 0.18267 0.36283 0.35544 0.0
C937 C 0.17232 0.36815 0.35476 0.0
C938 C 0.2158 0.3476 0.33296 0.0
C939 C 0.21095 0.33205 0.33787 0.0
C940 C 0.20541 0.3528 0.33299 0.0
C941 C 0.18978 0.34268 0.33849 0.0
C942 C 0.18491 0.3271 0.34399 0.0
C943 C 0.19535 0.32185 0.34342 0.0
H944 H 0.65019 0.80187 0.33989 0.0
H945 H 0.69614 0.8108 0.35531 0.0
H946 H 0.65959 0.82919 0.33875 0.0
H947 H 0.70542 0.83782 0.3564 0.0
H948 H 0.72004 0.88635 0.3144 0.0
H949 H 0.71067 0.8591 0.31406 0.0
H950 H 0.6697 0.85132 0.38232 0.0
H951 H 0.67881 0.87842 0.38061 0.0
C952 C 0.66227 0.80963 0.34326 0.0
C953 C 0.67236 0.80404 0.34741 0.0
C954 C 0.6677 0.82536 0.34298 0.0
C955 C 0.68336 0.83593 0.34747 0.0
C956 C 0.69336 0.83023 0.35185 0.0
C957 C 0.68797 0.8146 0.35153 0.0
C958 C 0.70911 0.87882 0.32973 0.0
C959 C 0.70021 0.88463 0.3475 0.0
C960 C 0.70368 0.86312 0.32964 0.0
C961 C 0.68929 0.85277 0.34793 0.0
C962 C 0.68063 0.85872 0.36687 0.0
C963 C 0.68596 0.87437 0.36638 0.0
H964 H 0.22612 0.85434 0.33313 0.0
H965 H 0.2171 0.89155 0.33295 0.0
H966 H 0.19884 0.83638 0.33063 0.0
H967 H 0.19002 0.87375 0.3322 0.0
H968 H 0.14159 0.83782 0.29204 0.0
H969 H 0.16886 0.85594 0.29006 0.0
H970 H 0.17688 0.82619 0.37633 0.0
H971 H 0.14987 0.80803 0.37695 0.0
C972 C 0.21835 0.8587 0.33254 0.0
C973 C 0.22391 0.87443 0.33327 0.0
C974 C 0.20265 0.8484 0.3315 0.0
C975 C 0.19205 0.85352 0.3315 0.0
C976 C 0.19769 0.86927 0.33151 0.0
C977 C 0.21333 0.87953 0.33223 0.0
C978 C 0.14918 0.83523 0.31087 0.0
C979 C 0.14347 0.82142 0.33454 0.0
C980 C 0.16487 0.84563 0.30979 0.0
C981 C 0.17526 0.84255 0.33267 0.0
C982 C 0.16941 0.82889 0.35728 0.0
C983 C 0.15381 0.81849 0.35803 0.0
H984 H 0.68851 0.88379 0.79824 0.0
H985 H 0.65014 0.85329 0.88102 0.0
H986 H 0.69768 0.86586 0.79885 0.0
H987 H 0.65962 0.83547 0.88323 0.0
H988 H 0.67292 0.80037 0.8432 0.0
H989 H 0.66343 0.81797 0.84224 0.0
H990 H 0.70947 0.85564 0.8438 0.0
H991 H 0.71902 0.83785 0.84284 0.0
C992 C 0.682 0.87322 0.81665 0.0
C993 C 0.66853 0.87001 0.83951 0.0
C994 C 0.68738 0.86296 0.81743 0.0
C995 C 0.67957 0.84918 0.84152 0.0
C996 C 0.66593 0.84585 0.8638 0.0
C997 C 0.66045 0.85608 0.86261 0.0
C998 C 0.6811 0.81241 0.84351 0.0
C999 C 0.6968 0.81764 0.84305 0.0
C1000 C 0.67559 0.82257 0.84325 0.0
C1001 C 0.68558 0.83835 0.84293 0.0
C1002 C 0.70134 0.8436 0.84321 0.0
C1003 C 0.70687 0.83339 0.84305 0.0
H1004 H 0.2307 0.87865 0.85107 0.0
H1005 H 0.19351 0.8877 0.84871 0.0
H1006 H 0.21289 0.85158 0.85208 0.0
H1007 H 0.17553 0.86042 0.85142 0.0
H1008 H 0.1474 0.81136 0.80532 0.0
H1009 H 0.16553 0.83838 0.80599 0.0
H1010 H 0.19492 0.83048 0.89421 0.0
H1011 H 0.17684 0.8032 0.89223 0.0
C1012 C 0.21869 0.87489 0.85136 0.0
C1013 C 0.2136 0.88548 0.84964 0.0
C1014 C 0.20841 0.85925 0.85223 0.0
C1015 C 0.19267 0.85362 0.85168 0.0
C1016 C 0.18755 0.86423 0.85101 0.0
C1017 C 0.19787 0.87993 0.84985 0.0
C1018 C 0.15777 0.81533 0.82469 0.0
C1019 C 0.16062 0.80501 0.84872 0.0
C1020 C 0.16815 0.83094 0.82547 0.0
C1021 C 0.1817 0.83682 0.85061 0.0
C1022 C 0.1847 0.82646 0.87406 0.0
C1023 C 0.17432 0.81076 0.87298 0.0
H1024 H 0.14196 0.31169 0.81021 0.0
H1025 H 0.15031 0.35233 0.88103 0.0
H1026 H 0.16918 0.32107 0.80761 0.0
H1027 H 0.17742 0.36144 0.88054 0.0
H1028 H 0.22667 0.38116 0.8354 0.0
H1029 H 0.19937 0.37189 0.83607 0.0
H1030 H 0.19059 0.32583 0.848 0.0
H1031 H 0.21756 0.335 0.84503 0.0
C1032 C 0.14959 0.32249 0.82605 0.0
C1033 C 0.14389 0.33121 0.84584 0.0
C1034 C 0.16528 0.32792 0.82468 0.0
C1035 C 0.17573 0.34214 0.8437 0.0
C1036 C 0.16991 0.35064 0.86453 0.0
C1037 C 0.15427 0.34531 0.86529 0.0
C1038 C 0.21887 0.36906 0.83785 0.0
C1039 C 0.2244 0.35887 0.83984 0.0
C1040 C 0.20316 0.36369 0.83864 0.0
C1041 C 0.19255 0.34801 0.84208 0.0
C1042 C 0.1982 0.33791 0.84429 0.0
C1043 C 0.21381 0.34324 0.84287 0.0
H1044 H 0.80625 0.66873 0.6709 0.0
H1045 H 0.84344 0.71495 0.66767 0.0
H1046 H 0.824 0.65944 0.67015 0.0
H1047 H 0.86139 0.7056 0.66492 0.0
H1048 H 0.89031 0.68523 0.70754 0.0
H1049 H 0.87225 0.69421 0.70867 0.0
H1050 H 0.84114 0.65557 0.62753 0.0
H1051 H 0.85913 0.64628 0.62806 0.0
C1052 C 0.81825 0.67697 0.66943 0.0
C1053 C 0.82336 0.69266 0.66939 0.0
C1054 C 0.8285 0.67158 0.66869 0.0
C1055 C 0.84425 0.68168 0.66745 0.0
C1056 C 0.84938 0.6974 0.6667 0.0
C1057 C 0.83908 0.70282 0.66789 0.0
C1058 C 0.87956 0.67855 0.69021 0.0
C1059 C 0.8762 0.66497 0.66776 0.0
C1060 C 0.86921 0.68382 0.69042 0.0
C1061 C 0.85519 0.67579 0.66776 0.0
C1062 C 0.85171 0.66205 0.64588 0.0
C1063 C 0.86204 0.65667 0.6461 0.0
H1064 H 0.38539 0.22085 0.63903 0.0
H1065 H 0.34668 0.21231 0.72119 0.0
H1066 H 0.37596 0.1936 0.63501 0.0
H1067 H 0.33756 0.18522 0.71883 0.0
H1068 H 0.31671 0.13608 0.67299 0.0
H1069 H 0.32603 0.16339 0.673 0.0
H1070 H 0.37222 0.17218 0.67485 0.0
H1071 H 0.36297 0.14517 0.67286 0.0
C1072 C 0.37501 0.21319 0.65692 0.0
C1073 C 0.36684 0.21884 0.68042 0.0
C1074 C 0.36956 0.19749 0.65469 0.0
C1075 C 0.35586 0.187 0.67634 0.0
C1076 C 0.34793 0.19277 0.70074 0.0
C1077 C 0.35328 0.2084 0.70254 0.0
C1078 C 0.32885 0.14386 0.67296 0.0
C1079 C 0.33903 0.13831 0.67281 0.0
C1080 C 0.33424 0.15958 0.67339 0.0
C1081 C 0.34997 0.17019 0.6741 0.0
C1082 C 0.36007 0.16454 0.67351 0.0
C1083 C 0.35471 0.14892 0.67265 0.0
H1084 H 0.80825 0.17189 0.67419 0.0
H1085 H 0.818 0.1354 0.65924 0.0
H1086 H 0.83552 0.19015 0.67619 0.0
H1087 H 0.84492 0.15344 0.65907 0.0
H1088 H 0.89304 0.18757 0.70215 0.0
H1089 H 0.86582 0.16959 0.70257 0.0
H1090 H 0.85785 0.20244 0.63299 0.0
H1091 H 0.88493 0.22055 0.63455 0.0
C1092 C 0.81618 0.16776 0.67115 0.0
C1093 C 0.81084 0.15213 0.66686 0.0
C1094 C 0.83186 0.17824 0.67193 0.0
C1095 C 0.84263 0.17338 0.66788 0.0
C1096 C 0.83717 0.15773 0.66334 0.0
C1097 C 0.8216 0.14731 0.66314 0.0
C1098 C 0.88548 0.19089 0.68661 0.0
C1099 C 0.89123 0.20552 0.6683 0.0
C1100 C 0.8698 0.18055 0.68673 0.0
C1101 C 0.85942 0.18446 0.66792 0.0
C1102 C 0.86529 0.19902 0.64873 0.0
C1103 C 0.88092 0.2094 0.64916 0.0
H1104 H 1.0092 0.46967 0.54683 0.0
H1105 H 0.05049 0.50232 0.47941 0.0
H1106 H 1.00026 0.48781 0.54667 0.0
H1107 H 0.04131 0.52035 0.47737 0.0
H1108 H 0.02757 0.55469 0.51984 0.0
H1109 H 0.03646 0.53665 0.52022 0.0
H1110 H 0.99042 0.49995 0.50164 0.0
H1111 H 0.98139 0.51818 0.50335 0.0
C1112 C 1.0164 0.48075 0.53189 0.0
C1113 C 0.03063 0.48453 0.51331 0.0
C1114 C 1.01117 0.49114 0.53132 0.0
C1115 C 0.01993 0.50562 0.51169 0.0
C1116 C 0.03426 0.50944 0.49346 0.0
C1117 C 0.03957 0.49908 0.49453 0.0
C1118 C 0.01927 0.54278 0.51562 0.0
C1119 C 1.0037 0.53795 0.51155 0.0
C1120 C 0.02444 0.53237 0.51554 0.0
C1121 C 1.01425 0.51672 0.51086 0.0
C1122 C 0.99866 0.51186 0.5061 0.0
C1123 C 0.99344 0.52233 0.50667 0.0
H1124 H 0.51086 0.46998 0.55928 0.0
H1125 H 0.48095 0.47791 0.4739 0.0
H1126 H 0.52897 0.49725 0.56028 0.0
H1127 H 0.49912 0.50492 0.47342 0.0
H1128 H 0.52739 0.55439 0.51503 0.0
H1129 H 0.5094 0.52711 0.51758 0.0
H1130 H 0.54675 0.51826 0.51817 0.0
H1131 H 0.56457 0.54533 0.51746 0.0
C1132 C 0.50825 0.47749 0.54012 0.0
C1133 C 0.4944 0.47168 0.51662 0.0
C1134 C 0.51865 0.49319 0.54061 0.0
C1135 C 0.51555 0.50349 0.51725 0.0
C1136 C 0.50184 0.49754 0.49282 0.0
C1137 C 0.49144 0.48193 0.49269 0.0
C1138 C 0.53174 0.54661 0.51603 0.0
C1139 C 0.54747 0.55216 0.51608 0.0
C1140 C 0.52142 0.53091 0.51712 0.0
C1141 C 0.52652 0.5203 0.51787 0.0
C1142 C 0.54227 0.52593 0.51835 0.0
C1143 C 0.55255 0.54157 0.51765 0.0
H1144 H 0.55924 0.04542 0.5022 0.0
H1145 H 0.54973 0.99937 0.52074 0.0
H1146 H 0.532 0.03635 0.50081 0.0
H1147 H 0.52275 0.99042 0.5214 0.0
H1148 H 0.47425 0.9764 0.48013 0.0
H1149 H 0.50144 0.98536 0.47874 0.0
H1150 H 0.51017 0.02676 0.54612 0.0
H1151 H 0.48315 0.01804 0.54567 0.0
C1152 C 0.55137 0.03338 0.50609 0.0
C1153 C 0.55677 0.02317 0.51141 0.0
C1154 C 0.53569 0.02815 0.5057 0.0
C1155 C 0.52498 0.01257 0.51112 0.0
C1156 C 0.53048 1.00242 0.51626 0.0
C1157 C 0.54607 1.00762 0.51616 0.0
C1158 C 0.48198 0.98734 0.495 0.0
C1159 C 0.47646 0.99646 0.51297 0.0
C1160 C 0.49764 0.99253 0.49429 0.0
C1161 C 0.50821 1.00692 0.51205 0.0
C1162 C 0.50256 0.01582 0.53108 0.0
C1163 C 0.48697 1.01071 0.53129 0.0
H1164 H 0.51034 0.0463 0.03834 0.0
H1165 H 0.47794 1.00551 0.96838 0.0
H1166 H 0.52825 0.03699 0.04054 0.0
H1167 H 0.496 0.99647 0.96854 0.0
H1168 H 0.52551 0.97681 0.01371 0.0
H1169 H 0.50754 0.98613 0.01332 0.0
H1170 H 0.54484 0.03212 0.99983 0.0
H1171 H 0.56262 0.02289 1.00247 0.0
C1172 C 0.50715 0.03548 0.02261 0.0
C1173 C 0.49268 0.02669 1.0032 0.0
C1174 C 0.51745 0.03009 0.02377 0.0
C1175 C 0.51367 0.01584 1.00494 0.0
C1176 C 0.49931 1.00729 0.98442 0.0
C1177 C 0.48896 0.01258 0.98385 0.0
C1178 C 0.52984 0.9889 0.01097 0.0
C1179 C 0.54555 0.99905 1.00839 0.0
C1180 C 0.51952 0.9943 0.01034 0.0
C1181 C 0.52462 1.00998 1.00649 0.0
C1182 C 0.54036 0.02004 1.0038 0.0
C1183 C 0.55063 0.01468 1.00503 0.0
H1184 H 1.01399 0.54565 0.05369 0.0
H1185 H 0.053 0.55409 0.97324 0.0
H1186 H 1.00486 0.51857 0.05179 0.0
H1187 H 0.04358 0.52681 0.96986 0.0
H1188 H 0.03006 0.4782 0.00956 0.0
H1189 H 0.03951 0.50529 0.01085 0.0
H1190 H 0.99349 0.49688 1.00502 0.0
H1191 H 0.98396 0.46954 1.00553 0.0
C1192 C 0.02066 0.54173 0.03552 0.0
C1193 C 0.03428 0.55214 0.01368 0.0
C1194 C 1.0153 0.5261 0.034 0.0
C1195 C 0.02331 0.52029 0.01022 0.0
C1196 C 0.03711 0.53075 0.98898 0.0
C1197 C 0.04256 0.54645 0.99086 0.0
C1198 C 0.02188 0.48206 1.00833 0.0
C1199 C 1.00618 0.47156 1.00754 0.0
C1200 C 0.02737 0.49772 1.00879 0.0
C1201 C 1.01735 0.50347 1.00814 0.0
C1202 C 1.00162 0.49297 1.00641 0.0
C1203 C 0.99611 0.47724 1.0063 0.0
H1204 H 0.47482 0.50364 0.96116 0.0
H1205 H 0.4831 0.4741 0.04732 0.0
H1206 H 0.50209 0.52182 0.95942 0.0
H1207 H 0.51009 0.49231 0.04679 0.0
H1208 H 0.55935 0.52044 1.00383 0.0
H1209 H 0.53208 0.50244 1.00078 0.0
H1210 H 0.52315 0.53973 1.00233 0.0
H1211 H 0.55022 0.55759 1.00376 0.0
C1212 C 0.48241 0.50112 0.98028 0.0
C1213 C 0.47669 0.48736 1.00426 0.0
C1214 C 0.49809 0.51155 0.97933 0.0
C1215 C 0.50847 0.50855 1.00259 0.0
C1216 C 0.50262 0.49494 0.02746 0.0
C1217 C 0.48703 0.48451 0.02815 0.0
C1218 C 0.55156 0.52478 1.00311 0.0
C1219 C 0.55708 0.5405 1.00411 0.0
C1220 C 0.53587 0.51445 1.00175 0.0
C1221 C 0.52525 0.51954 1.00162 0.0
C1222 C 0.53085 0.53529 1.00178 0.0
C1223 C 0.54648 0.54558 1.0029 0.0
H1224 H 0.47874 0.0985 0.07805 0.0
H1225 H 0.43593 0.06622 0.0171 0.0
H1226 H 0.46706 0.11277 0.10839 0.0
H1227 H 0.4243 0.08023 0.04838 0.0
H1228 H 0.4055 0.0956 0.16774 0.0
H1229 H 0.41985 0.08434 0.13648 0.0
H1230 H 0.45218 0.12743 0.07759 0.0
H1231 H 0.43756 0.13874 0.1079 0.0
C1232 C 0.46695 0.09462 0.07029 0.0
C1233 C 0.45831 0.08121 0.04493 0.0
C1234 C 0.46026 0.10276 0.08787 0.0
C1235 C 0.44472 0.09748 0.08135 0.0
C1236 C 0.43626 0.08447 0.05442 0.0
C1237 C 0.44299 0.07653 0.03607 0.0
C1238 C 0.41584 0.10282 0.14902 0.0
C1239 C 0.42036 0.11812 0.14047 0.0
C1240 C 0.42397 0.0963 0.13068 0.0
C1241 C 0.43702 0.10495 0.10407 0.0
C1242 C 0.44214 0.12048 0.09786 0.0
C1243 C 0.4338 0.12696 0.11543 0.0
H1244 H 0.93447 0.31499 0.1673 0.0
H1245 H 0.89141 0.30432 0.10792 0.0
H1246 H 0.9459 0.34065 0.13632 0.0
H1247 H 0.90289 0.3303 0.07783 0.0
H1248 H 0.93209 0.38575 0.07814 0.0
H1249 H 0.91764 0.35976 0.10818 0.0
H1250 H 0.95023 0.34943 0.049 0.0
H1251 H 0.96442 0.3751 0.01806 0.0
C1252 C 0.92731 0.3182 0.14871 0.0
C1253 C 0.91197 0.30752 0.14023 0.0
C1254 C 0.93393 0.33289 0.13053 0.0
C1255 C 0.92535 0.33743 0.10411 0.0
C1256 C 0.90979 0.32711 0.09796 0.0
C1257 C 0.90321 0.31226 0.11539 0.0
C1258 C 0.93595 0.37781 0.0705 0.0
C1259 C 0.94943 0.38256 0.04548 0.0
C1260 C 0.9277 0.36295 0.0879 0.0
C1261 C 0.93293 0.35264 0.08155 0.0
C1262 C 0.94602 0.35718 0.05495 0.0
C1263 C 0.95406 0.37188 0.0368 0.0
H1264 H 0.71383 0.62533 0.16702 0.0
H1265 H 0.7242 0.59306 0.10508 0.0
H1266 H 0.68803 0.61118 0.13702 0.0
H1267 H 0.69812 0.57867 0.07595 0.0
H1268 H 0.64285 0.55236 0.07702 0.0
H1269 H 0.66886 0.56384 0.10674 0.0
H1270 H 0.67892 0.60704 0.0503 0.0
H1271 H 0.65324 0.59563 0.0197 0.0
C1272 C 0.71052 0.615 0.14809 0.0
C1273 C 0.72116 0.61036 0.13857 0.0
C1274 C 0.69576 0.60697 0.13047 0.0
C1275 C 0.69111 0.59393 0.10361 0.0
C1276 C 0.70139 0.5887 0.09645 0.0
C1277 C 0.71631 0.59692 0.11332 0.0
C1278 C 0.65072 0.56422 0.06994 0.0
C1279 C 0.6459 0.57303 0.04577 0.0
C1280 C 0.6656 0.57079 0.08717 0.0
C1281 C 0.67584 0.58639 0.08148 0.0
C1282 C 0.67122 0.59503 0.05576 0.0
C1283 C 0.65651 0.58842 0.03778 0.0
H1284 H 0.07155 0.42888 0.50224 0.0
H1285 H 0.10285 0.4716 0.43862 0.0
H1286 H 0.08588 0.41757 0.47112 0.0
H1287 H 0.11746 0.46025 0.40848 0.0
H1288 H 0.14425 0.43137 0.41033 0.0
H1289 H 0.1327 0.44578 0.44055 0.0
H1290 H 0.08974 0.4131 0.38196 0.0
H1291 H 0.10123 0.39895 0.35075 0.0
C1292 C 0.08173 0.43601 0.48274 0.0
C1293 C 0.08603 0.45119 0.47305 0.0
C1294 C 0.08985 0.42946 0.4645 0.0
C1295 C 0.10267 0.43798 0.43689 0.0
C1296 C 0.1076 0.45341 0.42956 0.0
C1297 C 0.09926 0.45991 0.44702 0.0
C1298 C 0.13244 0.42748 0.40284 0.0
C1299 C 0.12371 0.414 0.3779 0.0
C1300 C 0.12583 0.43571 0.42034 0.0
C1301 C 0.11027 0.43043 0.41419 0.0
C1302 C 0.10172 0.41734 0.38768 0.0
C1303 C 0.10837 0.40932 0.36938 0.0
H1304 H 0.60713 0.72208 0.45247 0.0
H1305 H 0.61706 0.70601 0.32802 0.0
H1306 H 0.59199 0.69596 0.4795 0.0
H1307 H 0.60159 0.67981 0.35485 0.0
H1308 H 0.56335 0.6336 0.40541 0.0
H1309 H 0.57408 0.65968 0.37821 0.0
H1310 H 0.59976 0.67614 0.50284 0.0
H1311 H 0.58929 0.64999 0.52983 0.0
C1312 C 0.60576 0.71298 0.43026 0.0
C1313 C 0.61332 0.71621 0.38789 0.0
C1314 C 0.59719 0.69799 0.44604 0.0
C1315 C 0.59566 0.6858 0.41953 0.0
C1316 C 0.60248 0.68894 0.37604 0.0
C1317 C 0.61132 0.70397 0.3606 0.0
C1318 C 0.57102 0.64276 0.42758 0.0
C1319 C 0.5754 0.63964 0.47 0.0
C1320 C 0.57728 0.65772 0.41169 0.0
C1321 C 0.58784 0.66999 0.43817 0.0
C1322 C 0.59159 0.66695 0.48168 0.0
C1323 C 0.58556 0.65195 0.49721 0.0
H1324 H 0.32034 0.92885 0.34907 0.0
H1325 H 0.30899 0.88551 0.40798 0.0
H1326 H 0.34591 0.93992 0.38045 0.0
H1327 H 0.33488 0.89664 0.43845 0.0
H1328 H 0.39036 0.92524 0.43803 0.0
H1329 H 0.36438 0.91114 0.40789 0.0
H1330 H 0.35454 0.94392 0.46821 0.0
H1331 H 0.38021 0.95776 0.49927 0.0
C1332 C 0.32338 0.92155 0.36764 0.0
C1333 C 0.31254 0.90624 0.37586 0.0
C1334 C 0.33802 0.92797 0.38606 0.0
C1335 C 0.34234 0.9192 0.41244 0.0
C1336 C 0.33185 0.90368 0.41836 0.0
C1337 C 0.31705 0.8973 0.40071 0.0
C1338 C 0.38253 0.92921 0.4459 0.0
C1339 C 0.38742 0.94264 0.47127 0.0
C1340 C 0.36768 0.92117 0.42845 0.0
C1341 C 0.35751 0.92656 0.43511 0.0
C1342 C 0.36218 0.93959 0.46206 0.0
C1343 C 0.37687 0.94743 0.48027 0.0
H1344 H 0.58748 0.9431 0.02863 0.0
H1345 H 0.5613 0.93304 0.90452 0.0
H1346 H 0.59789 0.92732 1.00233 0.0
H1347 H 0.57192 0.91752 0.87806 0.0
H1348 H 0.61434 0.9137 0.82697 0.0
H1349 H 0.59888 0.92444 0.85366 0.0
H1350 H 0.5907 0.90008 0.98063 0.0
H1351 H 0.60589 0.88914 0.95383 0.0
C1352 C 0.58368 0.93726 0.99624 0.0
C1353 C 0.57349 0.93934 0.96887 0.0
C1354 C 0.58967 0.92823 0.9811 0.0
C1355 C 0.58584 0.92125 0.93786 0.0
C1356 C 0.57521 0.92284 0.91131 0.0
C1357 C 0.56901 0.93164 0.92678 0.0
C1358 C 0.60893 0.91032 0.86009 0.0
C1359 C 0.61136 0.9005 0.88808 0.0
C1360 C 0.60008 0.9165 0.87545 0.0
C1361 C 0.59366 0.91322 0.91949 0.0
C1362 C 0.5956 0.90294 0.94674 0.0
C1363 C 0.60421 0.89656 0.9311 0.0
H1364 H 0.11782 0.70743 0.83223 0.0
H1365 H 0.14113 0.72282 0.96118 0.0
H1366 H 0.10719 0.68109 0.85723 0.0
H1367 H 0.13035 0.69653 0.98622 0.0
H1368 H 0.08772 0.64978 0.03091 0.0
H1369 H 0.10349 0.67616 1.0063 0.0
H1370 H 0.11367 0.66097 0.88067 0.0
H1371 H 0.09809 0.63464 0.90536 0.0
C1372 C 0.12096 0.70522 0.86546 0.0
C1373 C 0.13037 0.71731 0.89455 0.0
C1374 C 0.11485 0.6901 0.87985 0.0
C1375 C 0.1178 0.68668 0.92395 0.0
C1376 C 0.12771 0.69875 0.95226 0.0
C1377 C 0.13401 0.71385 0.93764 0.0
C1378 C 0.09362 0.65206 0.99855 0.0
C1379 C 0.09161 0.64002 0.97025 0.0
C1380 C 0.10267 0.6672 0.98439 0.0
C1381 C 0.10975 0.67069 0.94127 0.0
C1382 C 0.10825 0.65869 0.91383 0.0
C1383 C 0.09942 0.64357 0.92827 0.0
H1384 H 0.39494 0.46753 0.88905 0.0
H1385 H 0.37902 0.44457 0.01838 0.0
H1386 H 0.36876 0.45669 0.86298 0.0
H1387 H 0.35278 0.4339 0.99235 0.0
H1388 H 0.30656 0.4248 0.94159 0.0
H1389 H 0.33279 0.44046 0.96699 0.0
H1390 H 0.34846 0.42965 0.84344 0.0
H1391 H 0.32219 0.41378 0.81816 0.0
C1392 C 0.38587 0.46048 0.91244 0.0
C1393 C 0.38915 0.45695 0.95595 0.0
C1394 C 0.37084 0.45415 0.89723 0.0
C1395 C 0.35865 0.44432 0.92536 0.0
C1396 C 0.36188 0.44149 0.96985 0.0
C1397 C 0.37694 0.44763 0.98484 0.0
C1398 C 0.31558 0.42601 0.91926 0.0
C1399 C 0.3122 0.418 0.87769 0.0
C1400 C 0.33064 0.43489 0.93412 0.0
C1401 C 0.34274 0.43623 0.90749 0.0
C1402 C 0.33942 0.42894 0.86471 0.0
C1403 C 0.32434 0.41984 0.85016 0.0
H1404 H 0.93241 0.62469 0.66332 0.0
H1405 H 0.89071 0.59349 0.59475 0.0
H1406 H 0.94412 0.61031 0.63562 0.0
H1407 H 0.90244 0.57886 0.568 0.0
H1408 H 0.93056 0.55167 0.57497 0.0
H1409 H 0.91595 0.56338 0.6022 0.0
H1410 H 0.95031 0.6066 0.54918 0.0
H1411 H 0.96468 0.59495 0.52098 0.0
C1412 C 0.92557 0.61452 0.64345 0.0
C1413 C 0.91058 0.61027 0.63138 0.0
C1414 C 0.93236 0.60638 0.62716 0.0
C1415 C 0.92426 0.59358 0.59914 0.0
C1416 C 0.90897 0.5887 0.58945 0.0
C1417 C 0.90224 0.59705 0.60496 0.0
C1418 C 0.9348 0.56358 0.5681 0.0
C1419 C 0.9488 0.57233 0.54559 0.0
C1420 C 0.92646 0.57029 0.58389 0.0
C1421 C 0.93211 0.58595 0.57845 0.0
C1422 C 0.94577 0.59454 0.55439 0.0
C1423 C 0.95392 0.58781 0.53779 0.0
H1424 H 0.47517 0.38925 0.6275 0.0
H1425 H 0.4508 0.37411 0.50008 0.0
H1426 H 0.46417 0.36293 0.65248 0.0
H1427 H 0.43997 0.34773 0.52498 0.0
H1428 H 0.4307 0.30108 0.57225 0.0
H1429 H 0.44638 0.32736 0.54725 0.0
H1430 H 0.43718 0.34286 0.67389 0.0
H1431 H 0.42127 0.31653 0.69878 0.0
C1432 C 0.46778 0.38032 0.60425 0.0
C1433 C 0.46391 0.38387 0.56163 0.0
C1434 C 0.46135 0.36521 0.61885 0.0
C1435 C 0.45109 0.3532 0.59096 0.0
C1436 C 0.4479 0.35669 0.54726 0.0
C1437 C 0.45413 0.37183 0.53292 0.0
C1438 C 0.43226 0.31007 0.5953 0.0
C1439 C 0.42469 0.30662 0.63767 0.0
C1440 C 0.44116 0.32515 0.58069 0.0
C1441 C 0.44296 0.33723 0.60835 0.0
C1442 C 0.43611 0.33384 0.6518 0.0
C1443 C 0.42699 0.31873 0.66614 0.0
H1444 H 0.64265 0.09707 0.57747 0.0
H1445 H 0.65323 0.0644 0.51966 0.0
H1446 H 0.66879 0.11191 0.60597 0.0
H1447 H 0.67906 0.07899 0.5491 0.0
H1448 H 0.7143 0.09615 0.66525 0.0
H1449 H 0.68836 0.08428 0.63631 0.0
H1450 H 0.69806 0.12647 0.5731 0.0
H1451 H 0.7243 0.13839 0.6011 0.0
C1452 C 0.6506 0.09321 0.57002 0.0
C1453 C 0.6458 0.07954 0.54607 0.0
C1454 C 0.66554 0.10168 0.58654 0.0
C1455 C 0.67589 0.09648 0.58038 0.0
C1456 C 0.67128 0.08318 0.55487 0.0
C1457 C 0.65649 0.0749 0.53757 0.0
C1458 C 0.71088 0.10306 0.6461 0.0
C1459 C 0.72145 0.11827 0.63562 0.0
C1460 C 0.69603 0.09618 0.62909 0.0
C1461 C 0.69124 0.10438 0.60191 0.0
C1462 C 0.70145 0.11986 0.59386 0.0
C1463 C 0.71645 0.12668 0.6101 0.0
H1464 H 0.76218 0.80158 0.73438 0.0
H1465 H 0.75267 0.77558 0.85873 0.0
H1466 H 0.77739 0.79075 0.7068 0.0
H1467 H 0.76823 0.76501 0.83136 0.0
H1468 H 0.80682 0.75769 0.7797 0.0
H1469 H 0.79589 0.77281 0.80728 0.0
H1470 H 0.76969 0.76306 0.68354 0.0
H1471 H 0.78035 0.74759 0.65619 0.0
C1472 C 0.76366 0.79387 0.75646 0.0
C1473 C 0.7562 0.78951 0.79897 0.0
C1474 C 0.77228 0.78756 0.74035 0.0
C1475 C 0.77395 0.77695 0.76669 0.0
C1476 C 0.76722 0.77321 0.8103 0.0
C1477 C 0.75833 0.7793 0.82605 0.0
C1478 C 0.79898 0.75901 0.7578 0.0
C1479 C 0.79452 0.75142 0.71553 0.0
C1480 C 0.79261 0.76758 0.77391 0.0
C1481 C 0.78185 0.76908 0.74779 0.0
C1482 C 0.77801 0.7622 0.70442 0.0
C1483 C 0.78415 0.75336 0.68868 0.0
H1484 H 0.22547 0.97104 0.77443 0.0
H1485 H 0.26867 0.98182 0.83301 0.0
H1486 H 0.23689 0.99696 0.74395 0.0
H1487 H 0.28003 1.00742 0.80161 0.0
H1488 H 0.29822 0.04178 0.6829 0.0
H1489 H 0.28409 0.0161 0.71385 0.0
H1490 H 0.25175 0.02648 0.77462 0.0
H1491 H 0.26614 0.05247 0.74459 0.0
C1492 C 0.23729 0.97898 0.78162 0.0
C1493 C 0.24611 0.97429 0.80639 0.0
C1494 C 0.24383 0.99381 0.76397 0.0
C1495 C 0.2594 1.00414 0.7698 0.0
C1496 C 0.26804 0.99965 0.79608 0.0
C1497 C 0.26146 0.98499 0.8145 0.0
C1498 C 0.28792 0.03857 0.70196 0.0
C1499 C 0.28334 0.04926 0.71112 0.0
C1500 C 0.27991 0.02386 0.72012 0.0
C1501 C 0.26692 0.01933 0.74716 0.0
C1502 C 0.26174 0.02966 0.75398 0.0
C1503 C 0.26995 0.04452 0.73659 0.0
H1504 H 0.04752 0.29124 0.83361 0.0
H1505 H 0.05813 0.25902 0.7726 0.0
H1506 H 0.02184 0.27712 0.80271 0.0
H1507 H 0.03214 0.24462 0.74268 0.0
H1508 H 0.97656 0.21857 0.7445 0.0
H1509 H 1.00253 0.22996 0.77454 0.0
H1510 H 1.01328 0.27285 0.71415 0.0
H1511 H 0.98763 0.2615 0.68313 0.0
C1512 C 0.04428 0.28091 0.81472 0.0
C1513 C 0.05495 0.27628 0.80572 0.0
C1514 C 0.02959 0.27291 0.7966 0.0
C1515 C 0.02504 0.25988 0.76978 0.0
C1516 C 0.03534 0.25465 0.76313 0.0
C1517 C 0.0502 0.26286 0.78046 0.0
C1518 C 0.98459 0.23032 0.73659 0.0
C1519 C 0.97997 0.23908 0.71119 0.0
C1520 C 0.99943 0.23685 0.754 0.0
C1521 C 1.00985 0.25234 0.74727 0.0
C1522 C 1.00544 0.26092 0.72033 0.0
C1523 C 0.99076 0.25434 0.70214 0.0
H1524 H 0.2641 0.21773 0.24751 0.0
H1525 H 0.29742 0.26048 0.18845 0.0
H1526 H 0.24975 0.22962 0.27539 0.0
H1527 H 0.28329 0.27232 0.21717 0.0
H1528 H 0.26688 0.29167 0.33135 0.0
H1529 H 0.27837 0.27723 0.30259 0.0
H1530 H 0.23555 0.2443 0.24373 0.0
H1531 H 0.224 0.25897 0.27165 0.0
C1532 C 0.26821 0.22956 0.23964 0.0
C1533 C 0.28192 0.23811 0.21558 0.0
C1534 C 0.26001 0.23637 0.2558 0.0
C1535 C 0.26553 0.25195 0.24911 0.0
C1536 C 0.27886 0.26033 0.2234 0.0
C1537 C 0.28687 0.25348 0.2065 0.0
C1538 C 0.25977 0.28119 0.31315 0.0
C1539 C 0.24448 0.27651 0.3039 0.0
C1540 C 0.26643 0.273 0.29622 0.0
C1541 C 0.25792 0.25975 0.27032 0.0
C1542 C 0.24239 0.2545 0.26346 0.0
C1543 C 0.23578 0.26287 0.27965 0.0
H1544 H 0.73762 0.98029 0.32912 0.0
H1545 H 0.77235 0.97145 0.27871 0.0
H1546 H 0.7518 1.00617 0.29959 0.0
H1547 H 0.78678 0.99766 0.2503 0.0
H1548 H 0.81089 0.05332 0.25694 0.0
H1549 H 0.79946 0.02717 0.28548 0.0
H1550 H 0.75855 0.01522 0.21048 0.0
H1551 H 0.77 0.04109 0.18088 0.0
C1552 C 0.74848 0.98396 0.31288 0.0
C1553 C 0.75383 0.97373 0.30646 0.0
C1554 C 0.75652 0.99876 0.29553 0.0
C1555 C 0.7703 1.00387 0.27217 0.0
C1556 C 0.77617 0.99401 0.26808 0.0
C1557 C 0.76793 0.97903 0.28454 0.0
C1558 C 0.79961 0.04501 0.24553 0.0
C1559 C 0.79141 0.04934 0.21638 0.0
C1560 C 0.79306 0.03006 0.26206 0.0
C1561 C 0.77805 0.01923 0.25068 0.0
C1562 C 0.77009 0.02338 0.22015 0.0
C1563 C 0.77674 0.03818 0.20282 0.0
H1564 H 0.06085 0.80206 0.2254 0.0
H1565 H 0.04589 0.7775 0.35264 0.0
H1566 H 0.03451 0.79106 0.20081 0.0
H1567 H 0.01949 0.76664 0.32811 0.0
H1568 H 0.9727 0.75689 0.28198 0.0
H1569 H 0.99897 0.77275 0.30666 0.0
H1570 H 1.01452 0.76426 0.17897 0.0
H1571 H 0.9882 0.7482 0.15435 0.0
C1572 C 0.05196 0.79462 0.24869 0.0
C1573 C 0.05556 0.7907 0.29113 0.0
C1574 C 0.03683 0.78819 0.23432 0.0
C1575 C 0.02486 0.77786 0.26225 0.0
C1576 C 0.02841 0.77463 0.3058 0.0
C1577 C 0.04357 0.78087 0.31992 0.0
C1578 C 0.98169 0.75865 0.25862 0.0
C1579 C 0.97826 0.75122 0.21604 0.0
C1580 C 0.99678 0.76765 0.27305 0.0
C1581 C 1.00887 0.7697 0.24502 0.0
C1582 C 1.00549 0.76301 0.20135 0.0
C1583 C 0.99038 0.7538 0.18717 0.0
H1584 H 0.38456 0.11331 1.00817 0.0
H1585 H 0.34201 0.07662 0.05837 0.0
H1586 H 0.37694 0.10473 0.93061 0.0
H1587 H 0.33442 0.06772 0.97989 0.0
H1588 H 0.31923 0.07991 0.84241 0.0
H1589 H 0.32703 0.07906 0.91982 0.0
H1590 H 0.37014 0.08624 0.87007 0.0
H1591 H 0.36235 0.08744 0.79174 0.0
C1592 C 0.37365 0.1032 1.00266 0.0
C1593 C 0.36371 0.09585 0.03929 0.0
C1594 C 0.36937 0.09814 0.95807 0.0
C1595 C 0.35501 0.08561 0.94892 0.0
C1596 C 0.3455 0.07754 0.98585 0.0
C1597 C 0.34983 0.0826 0.03075 0.0
C1598 C 0.33031 0.0811 0.84779 0.0
C1599 C 0.34034 0.08413 0.81109 0.0
C1600 C 0.33471 0.08039 0.89228 0.0
C1601 C 0.34927 0.08272 0.90127 0.0
C1602 C 0.3589 0.0846 0.86423 0.0
C1603 C 0.35445 0.08525 0.81943 0.0
H1604 H 0.91515 0.27572 1.00697 0.0
H1605 H 0.95299 0.27168 0.0563 0.0
H1606 H 0.92363 0.27685 0.9292 0.0
H1607 H 0.9618 0.27318 0.97759 0.0
H1608 H 0.94061 0.27977 0.78981 0.0
H1609 H 0.94175 0.28888 0.86799 0.0
H1610 H 0.95093 0.25429 0.91799 0.0
H1611 H 0.95013 0.24554 0.84074 0.0
C1612 C 0.92548 0.27536 1.00121 0.0
C1613 C 0.9332 0.27322 0.03769 0.0
C1614 C 0.93048 0.27624 0.95649 0.0
C1615 C 0.94333 0.27497 0.94703 0.0
C1616 C 0.95173 0.27399 0.98378 0.0
C1617 C 0.94673 0.27316 0.02882 0.0
C1618 C 0.94323 0.2744 0.8175 0.0
C1619 C 0.94492 0.26173 0.80933 0.0
C1620 C 0.94385 0.27957 0.86223 0.0
C1621 C 0.94626 0.27219 0.89932 0.0
C1622 C 0.94918 0.26033 0.89041 0.0
C1623 C 0.9485 0.25517 0.84602 0.0
H1624 H 0.76031 0.68966 0.05662 0.0
H1625 H 0.75373 0.64694 1.00546 0.0
H1626 H 0.75872 0.69733 0.97846 0.0
H1627 H 0.75258 0.65466 0.92829 0.0
H1628 H 0.74924 0.66905 0.78997 0.0
H1629 H 0.74078 0.66131 0.86873 0.0
H1630 H 0.77656 0.70477 0.91679 0.0
H1631 H 0.7846 0.71254 0.839 0.0
C1632 C 0.75831 0.68184 0.02888 0.0
C1633 C 0.7575 0.66786 0.03712 0.0
C1634 C 0.75743 0.68622 0.98413 0.0
C1635 C 0.75567 0.67667 0.94698 0.0
C1636 C 0.75378 0.66226 0.95586 0.0
C1637 C 0.75468 0.65793 1.00028 0.0
C1638 C 0.75501 0.67703 0.81739 0.0
C1639 C 0.76779 0.69124 0.80842 0.0
C1640 C 0.75023 0.67261 0.86248 0.0
C1641 C 0.75813 0.68235 0.8992 0.0
C1642 C 0.77011 0.697 0.88959 0.0
C1643 C 0.77487 0.70138 0.84482 0.0
H1644 H 0.09339 0.35549 0.72577 0.0
H1645 H 0.0856 0.31233 0.6747 0.0
H1646 H 0.09211 0.36334 0.64756 0.0
H1647 H 0.08474 0.3202 0.59745 0.0
H1648 H 0.08288 0.33532 0.4588 0.0
H1649 H 0.0738 0.32759 0.53711 0.0
H1650 H 0.11031 0.37032 0.58696 0.0
H1651 H 0.11899 0.37808 0.50962 0.0
C1652 C 0.09114 0.3476 0.69804 0.0
C1653 C 0.08997 0.33346 0.70623 0.0
C1654 C 0.09045 0.35209 0.65327 0.0
C1655 C 0.08852 0.34247 0.61611 0.0
C1656 C 0.08612 0.32788 0.62502 0.0
C1657 C 0.08684 0.32344 0.66946 0.0
C1658 C 0.0887 0.34314 0.48651 0.0
C1659 C 0.10185 0.35713 0.47818 0.0
C1660 C 0.08355 0.33873 0.53134 0.0
C1661 C 0.09144 0.34826 0.56844 0.0
C1662 C 0.10385 0.36272 0.55944 0.0
C1663 C 0.10898 0.36709 0.51494 0.0
H1664 H 0.71721 0.77868 0.67688 0.0
H1665 H 0.67463 0.74214 0.72742 0.0
H1666 H 0.7099 0.76964 0.59974 0.0
H1667 H 0.66738 0.73265 0.64927 0.0
H1668 H 0.69606 0.75281 0.46109 0.0
H1669 H 0.70365 0.75164 0.53968 0.0
H1670 H 0.65972 0.74265 0.58761 0.0
H1671 H 0.65211 0.74334 0.50997 0.0
C1672 C 0.70635 0.7685 0.67157 0.0
C1673 C 0.6963 0.76136 0.70816 0.0
C1674 C 0.70225 0.76315 0.62716 0.0
C1675 C 0.68797 0.75049 0.61804 0.0
C1676 C 0.67838 0.7426 0.65508 0.0
C1677 C 0.68252 0.74798 0.69983 0.0
C1678 C 0.68795 0.7502 0.48842 0.0
C1679 C 0.67365 0.74856 0.47952 0.0
C1680 C 0.69229 0.74958 0.53343 0.0
C1681 C 0.68238 0.74729 0.57014 0.0
C1682 C 0.66764 0.74434 0.56046 0.0
C1683 C 0.66334 0.74495 0.51578 0.0
H1684 H 0.25017 0.94352 0.67513 0.0
H1685 H 0.28662 0.93707 0.72397 0.0
H1686 H 0.25863 0.94457 0.59729 0.0
H1687 H 0.29536 0.93839 0.64522 0.0
H1688 H 0.28207 0.91094 0.50725 0.0
H1689 H 0.2833 0.91953 0.585 0.0
H1690 H 0.27743 0.95642 0.53675 0.0
H1691 H 0.27593 0.94756 0.45811 0.0
C1692 C 0.2602 0.94261 0.66924 0.0
C1693 C 0.26753 0.93984 0.70553 0.0
C1694 C 0.26519 0.94344 0.62453 0.0
C1695 C 0.2776 0.94144 0.61495 0.0
C1696 C 0.28564 0.9398 0.65156 0.0
C1697 C 0.28068 0.93907 0.69659 0.0
C1698 C 0.28127 0.92103 0.51304 0.0
C1699 C 0.27853 0.92837 0.4767 0.0
C1700 C 0.28219 0.92609 0.55769 0.0
C1701 C 0.28034 0.93859 0.56717 0.0
C1702 C 0.27873 0.94664 0.53049 0.0
C1703 C 0.27789 0.9416 0.48552 0.0
H1704 H 0.67896 0.9391 0.21957 0.0
H1705 H 0.71756 0.93674 0.1682 0.0
H1706 H 0.67217 0.94173 0.14125 0.0
H1707 H 0.71061 0.93885 0.09098 0.0
H1708 H 0.65287 0.91637 1.0028 0.0
H1709 H 0.66156 0.92407 0.08013 0.0
H1710 H 0.70733 0.95267 0.03065 0.0
H1711 H 0.69856 0.94442 0.95243 0.0
C1712 C 0.68605 0.93928 0.19174 0.0
C1713 C 0.6986 0.93739 0.20013 0.0
C1714 C 0.68218 0.94078 0.14687 0.0
C1715 C 0.69079 0.94041 0.10965 0.0
C1716 C 0.70381 0.93941 0.11855 0.0
C1717 C 0.70767 0.93794 0.16309 0.0
C1718 C 0.66477 0.92452 1.00821 0.0
C1719 C 0.67512 0.92948 0.97166 0.0
C1720 C 0.66974 0.9291 0.05272 0.0
C1721 C 0.6852 0.9388 0.06188 0.0
C1722 C 0.69537 0.94492 0.02481 0.0
C1723 C 0.69036 0.94029 0.97999 0.0
H1724 H 0.07168 0.76495 0.18812 0.0
H1725 H 0.10656 0.75373 0.21553 0.0
H1726 H 0.07013 0.75674 0.10927 0.0
H1727 H 0.10576 0.74631 0.13605 0.0
H1728 H 0.10295 0.73274 0.9933 0.0
H1729 H 0.0946 0.73122 0.07202 0.0
H1730 H 0.08545 0.76774 0.0455 0.0
H1731 H 0.09299 0.76852 0.96615 0.0
C1732 C 0.07882 0.76043 0.17728 0.0
C1733 C 0.0893 0.76002 0.2076 0.0
C1734 C 0.07806 0.75588 0.13198 0.0
C1735 C 0.08804 0.75117 0.11571 0.0
C1736 C 0.09777 0.74972 0.14717 0.0
C1737 C 0.09828 0.75399 0.19284 0.0
C1738 C 0.09865 0.74008 1.00416 0.0
C1739 C 0.09864 0.7508 0.97397 0.0
C1740 C 0.09403 0.73934 0.04938 0.0
C1741 C 0.08966 0.74957 0.06571 0.0
C1742 C 0.08859 0.75955 0.03434 0.0
C1743 C 0.09293 0.76005 0.98874 0.0
H1744 H 0.24648 0.31238 0.16552 0.0
H1745 H 0.2859 0.35273 0.21609 0.0
H1746 H 0.2553 0.31962 0.08805 0.0
H1747 H 0.29506 0.35987 0.13764 0.0
H1748 H 0.27283 0.33281 0.94922 0.0
H1749 H 0.27305 0.32439 0.02744 0.0
H1750 H 0.28613 0.36929 0.07715 0.0
H1751 H 0.28631 0.37768 0.99979 0.0
C1752 C 0.25721 0.32271 0.16015 0.0
C1753 C 0.26532 0.33218 0.19697 0.0
C1754 C 0.26239 0.32676 0.11553 0.0
C1755 C 0.27586 0.34039 0.10643 0.0
C1756 C 0.28453 0.34938 0.14348 0.0
C1757 C 0.27931 0.3453 0.1884 0.0
C1758 C 0.27615 0.34093 0.97684 0.0
C1759 C 0.2792 0.35579 0.96854 0.0
C1760 C 0.27621 0.33612 0.02163 0.0
C1761 C 0.27938 0.3461 0.05871 0.0
C1762 C 0.28373 0.36129 0.04965 0.0
C1763 C 0.28364 0.36606 1.00517 0.0
H1764 H 0.94268 0.69342 0.53921 0.0
H1765 H 0.92961 0.64664 0.5153 0.0
H1766 H 0.95061 0.69939 0.45988 0.0
H1767 H 0.93847 0.65262 0.43674 0.0
H1768 H 0.92831 0.66347 0.29157 0.0
H1769 H 0.92865 0.65699 0.37133 0.0
H1770 H 0.96556 0.70256 0.39691 0.0
H1771 H 0.96433 0.70914 0.31767 0.0
C1772 C 0.94208 0.68457 0.51726 0.0
C1773 C 0.9354 0.66958 0.53285 0.0
C1774 C 0.94668 0.68794 0.47172 0.0
C1775 C 0.94496 0.67642 0.44128 0.0
C1776 C 0.93955 0.66169 0.45854 0.0
C1777 C 0.9346 0.65828 0.50365 0.0
C1778 C 0.93678 0.6719 0.31408 0.0
C1779 C 0.9462 0.68678 0.29891 0.0
C1780 C 0.93704 0.66823 0.35995 0.0
C1781 C 0.94696 0.67935 0.39117 0.0
C1782 C 0.95744 0.69384 0.37442 0.0
C1783 C 0.9569 0.69757 0.32891 0.0
H1784 H 0.33742 0.2643 0.57057 0.0
H1785 H 0.38304 0.28152 0.52014 0.0
H1786 H 0.32873 0.26412 0.49247 0.0
H1787 H 0.37442 0.28084 0.4429 0.0
H1788 H 0.31817 0.23819 0.35452 0.0
H1789 H 0.32516 0.24713 0.4318 0.0
H1790 H 0.36405 0.28816 0.38195 0.0
H1791 H 0.35723 0.27885 0.30355 0.0
C1792 C 0.34562 0.26835 0.54303 0.0
C1793 C 0.36081 0.27256 0.55131 0.0
C1794 C 0.34066 0.26816 0.49826 0.0
C1795 C 0.35082 0.27218 0.46117 0.0
C1796 C 0.36625 0.27772 0.47032 0.0
C1797 C 0.37117 0.27793 0.51478 0.0
C1798 C 0.32817 0.24921 0.35974 0.0
C1799 C 0.33736 0.25765 0.32279 0.0
C1800 C 0.33205 0.25446 0.40432 0.0
C1801 C 0.34522 0.26835 0.41337 0.0
C1802 C 0.35393 0.27729 0.37623 0.0
C1803 C 0.35004 0.27198 0.33131 0.0
H1804 H 0.77 0.08558 0.54027 0.0
H1805 H 0.74054 0.10376 0.51303 0.0
H1806 H 0.76855 0.07837 0.46044 0.0
H1807 H 0.7381 0.09565 0.43377 0.0
H1808 H 0.76112 0.1052 0.29157 0.0
H1809 H 0.75354 0.10492 0.3705 0.0
H1810 H 0.75678 0.06469 0.39559 0.0
H1811 H 0.76542 0.06581 0.31735 0.0
C1812 C 0.76275 0.08749 0.51739 0.0
C1813 C 0.75556 0.09537 0.53232 0.0
C1814 C 0.76182 0.0833 0.47154 0.0
C1815 C 0.75338 0.08664 0.44007 0.0
C1816 C 0.74508 0.09331 0.45645 0.0
C1817 C 0.74635 0.09784 0.50193 0.0
C1818 C 0.75974 0.09608 0.31377 0.0
C1819 C 0.76391 0.08561 0.29887 0.0
C1820 C 0.75536 0.09584 0.35913 0.0
C1821 C 0.7548 0.08493 0.39006 0.0
C1822 C 0.75753 0.07355 0.37338 0.0
C1823 C 0.76228 0.07404 0.32843 0.0
H1824 H 0.02575 0.41732 0.12931 0.0
H1825 H 0.98424 0.41409 0.1789 0.0
H1826 H 0.03294 0.41556 0.20794 0.0
H1827 H 0.99148 0.41272 0.25658 0.0
H1828 H 0.04938 0.44325 0.34459 0.0
H1829 H 0.04134 0.43439 0.26751 0.0
H1830 H 0.99726 0.40059 0.31789 0.0
H1831 H 1.00533 0.40983 0.39588 0.0
C1832 C 0.01806 0.41597 0.15683 0.0
C1833 C 1.00463 0.41622 0.14806 0.0
C1834 C 0.02217 0.41499 0.20182 0.0
C1835 C 1.01286 0.41417 0.23865 0.0
C1836 C 0.99888 0.4132 0.22925 0.0
C1837 C 0.99482 0.41422 0.18457 0.0
C1838 C 0.03803 0.43376 0.33943 0.0
C1839 C 0.02784 0.42748 0.37614 0.0
C1840 C 0.03348 0.42852 0.29513 0.0
C1841 C 0.01859 0.41688 0.28634 0.0
C1842 C 1.00875 0.40974 0.32353 0.0
C1843 C 1.01336 0.41498 0.36816 0.0
H1844 H 0.61295 0.57469 0.18061 0.0
H1845 H 0.61214 0.61432 0.13137 0.0
H1846 H 0.61523 0.58364 0.25825 0.0
H1847 H 0.61476 0.62355 0.20997 0.0
H1848 H 0.58835 0.61398 0.34917 0.0
H1849 H 0.59633 0.61414 0.27123 0.0
H1850 H 0.62896 0.60177 0.31827 0.0
H1851 H 0.62062 0.6013 0.39709 0.0
C1852 C 0.61351 0.58548 0.18633 0.0
C1853 C 0.61198 0.59363 0.14992 0.0
C1854 C 0.61506 0.59074 0.23097 0.0
C1855 C 0.61509 0.60427 0.24046 0.0
C1856 C 0.6146 0.61298 0.20376 0.0
C1857 C 0.61311 0.60772 0.15879 0.0
C1858 C 0.59744 0.61156 0.34305 0.0
C1859 C 0.60361 0.60725 0.37905 0.0
C1860 C 0.60216 0.61185 0.29828 0.0
C1861 C 0.61315 0.60778 0.28837 0.0
C1862 C 0.62029 0.60474 0.32482 0.0
C1863 C 0.61558 0.60453 0.36992 0.0
H1864 H 0.42711 0.0219 0.3913 0.0
H1865 H 0.4192 0.97872 0.34006 0.0
H1866 H 0.42634 0.02997 0.313 0.0
H1867 H 0.41885 0.98681 0.26274 0.0
H1868 H 0.41758 1.00234 0.1239 0.0
H1869 H 0.40827 0.99443 0.20194 0.0
H1870 H 0.44475 0.03696 0.25306 0.0
H1871 H 0.45366 0.0449 0.176 0.0
C1872 C 0.42495 0.01406 0.3635 0.0
C1873 C 0.42358 0.99983 0.37173 0.0
C1874 C 0.42455 0.01867 0.31867 0.0
C1875 C 0.42273 1.00911 0.28147 0.0
C1876 C 0.42016 0.99445 0.29033 0.0
C1877 C 0.42058 0.98988 0.33484 0.0
C1878 C 0.42335 1.01008 0.15182 0.0
C1879 C 0.43655 0.02407 0.14392 0.0
C1880 C 0.41807 1.00556 0.1965 0.0
C1881 C 0.42588 0.01499 0.23388 0.0
C1882 C 0.43836 0.02944 0.22531 0.0
C1883 C 0.44361 0.03391 0.18097 0.0
H1884 H 0.6197 0.02367 0.89827 0.0
H1885 H 0.58782 0.97891 0.84805 0.0
H1886 H 0.62834 0.03197 0.81993 0.0
H1887 H 0.59605 0.98717 0.77059 0.0
H1888 H 0.61326 0.044 0.68252 0.0
H1889 H 0.6152 0.03684 0.75982 0.0
H1890 H 0.61435 0.99647 0.70967 0.0
H1891 H 0.61199 1.00354 0.63142 0.0
C1892 C 0.61481 0.01553 0.8707 0.0
C1893 C 0.60287 1.00076 0.8791 0.0
C1894 C 0.61968 0.02028 0.82585 0.0
C1895 C 0.61272 1.0103 0.78885 0.0
C1896 C 0.60175 0.99516 0.79803 0.0
C1897 C 0.59689 0.99047 0.84256 0.0
C1898 C 0.61367 0.03366 0.68775 0.0
C1899 C 0.61209 0.02413 0.65088 0.0
C1900 C 0.61502 0.02967 0.73223 0.0
C1901 C 0.61483 0.01602 0.74114 0.0
C1902 C 0.61433 1.00698 0.70398 0.0
C1903 C 0.61301 1.01102 0.65918 0.0
H1904 H 0.98449 0.57168 0.68643 0.0
H1905 H 0.02337 0.61271 0.63671 0.0
H1906 H 0.99161 0.58016 0.76415 0.0
H1907 H 0.03033 0.62154 0.71545 0.0
H1908 H 0.04972 0.61421 0.85174 0.0
H1909 H 0.04085 0.61364 0.77488 0.0
H1910 H 0.99536 0.597 0.82602 0.0
H1911 H 1.0043 0.59712 0.90375 0.0
C1912 C 0.99446 0.58268 0.69205 0.0
C1913 C 1.00357 0.59137 0.6553 0.0
C1914 C 0.99842 0.58766 0.73686 0.0
C1915 C 1.0116 0.60151 0.74628 0.0
C1916 C 0.02021 0.6107 0.7094 0.0
C1917 C 1.01623 0.60567 0.66429 0.0
C1918 C 0.03785 0.61065 0.84682 0.0
C1919 C 0.02762 0.60534 0.88369 0.0
C1920 C 0.03278 0.61051 0.80259 0.0
C1921 C 1.01733 0.60507 0.794 0.0
C1922 C 1.0073 0.60099 0.8314 0.0
C1923 C 1.01241 0.60114 0.87595 0.0
H1924 H 0.42647 0.43406 0.63801 0.0
H1925 H 0.43867 0.39983 0.6645 0.0
H1926 H 0.41874 0.43276 0.71742 0.0
H1927 H 0.43017 0.39777 0.74323 0.0
H1928 H 0.44109 0.42011 0.88708 0.0
H1929 H 0.4407 0.4129 0.80757 0.0
H1930 H 0.40351 0.42101 0.7809 0.0
H1931 H 0.40463 0.42903 0.85982 0.0
C1932 C 0.4269 0.42582 0.66048 0.0
C1933 C 0.43328 0.41717 0.64551 0.0
C1934 C 0.42245 0.42501 0.70609 0.0
C1935 C 0.42407 0.41531 0.73727 0.0
C1936 C 0.42916 0.40567 0.72075 0.0
C1937 C 0.43389 0.40673 0.67553 0.0
C1938 C 0.43255 0.41987 0.86443 0.0
C1939 C 0.42299 0.42521 0.87922 0.0
C1940 C 0.43228 0.41573 0.81873 0.0
C1941 C 0.42224 0.41664 0.78728 0.0
C1942 C 0.41169 0.4206 0.80362 0.0
C1943 C 0.41219 0.42501 0.84895 0.0
loop_
_geom_bond_atom_site_label_1
_geom_bond_atom_site_label_2
_geom_bond_distance
_geom_bond_site_symmetry_2
_ccdc_geom_bond_type
O0 Cd1 2.223 . S
O0 C8 1.315 . S
Cd1 O0 2.223 . S
Cd1 O4 2.297 . S
Cd1 O5 2.439 . S
Cd1 O11 2.240 . S
Cd2 O3 2.240 . S
Cd2 O10 2.223 . S
Cd2 O12 2.297 . S
Cd2 O13 2.439 . S
O3 Cd2 2.240 . S
O3 C8 1.279 . S
O4 Cd1 2.297 . S
O4 C6 1.247 . S
O5 Cd1 2.439 . S
O5 C6 1.208 . S
C6 O4 1.247 . S
C6 O5 1.208 . S
C7 O12 1.247 . S
C7 O13 1.208 . S
C8 O0 1.315 . S
C8 O3 1.279 . S
C9 O10 1.315 . S
C9 O11 1.279 . S
O10 Cd2 2.223 . S
O10 C9 1.315 . S
O11 Cd1 2.240 . S
O11 C9 1.279 . S
O12 Cd2 2.297 . S
O12 C7 1.247 . S
O13 Cd2 2.439 . S
O13 C7 1.208 . S
O14 Cd15 2.223 . S
O14 C22 1.315 . S
Cd15 O14 2.223 . S
Cd15 O18 2.297 . S
Cd15 O19 2.439 . S
Cd15 O25 2.240 . S
Cd16 O17 2.240 . S
Cd16 O24 2.223 . S
Cd16 O26 2.297 . S
Cd16 O27 2.439 . S
O17 Cd16 2.240 . S
O17 C22 1.279 . S
O18 Cd15 2.297 . S
O18 C20 1.247 . S
O19 Cd15 2.439 . S
O19 C20 1.208 . S
C20 O18 1.247 . S
C20 O19 1.208 . S
C21 O26 1.247 . S
C21 O27 1.208 . S
C22 O14 1.315 . S
C22 O17 1.279 . S
C23 O24 1.315 . S
C23 O25 1.279 . S
O24 Cd16 2.223 . S
O24 C23 1.315 . S
O25 Cd15 2.240 . S
O25 C23 1.279 . S
O26 Cd16 2.297 . S
O26 C21 1.247 . S
O27 Cd16 2.439 . S
O27 C21 1.208 . S
O28 Cd29 2.223 . S
O28 C36 1.315 . S
Cd29 O28 2.223 . S
Cd29 O32 2.297 . S
Cd29 O33 2.439 . S
Cd29 O39 2.240 . S
Cd30 O31 2.240 . S
Cd30 O38 2.223 . S
Cd30 O40 2.297 . S
Cd30 O41 2.439 . S
O31 Cd30 2.240 . S
O31 C36 1.279 . S
O32 Cd29 2.297 . S
O32 C34 1.247 . S
O33 Cd29 2.439 . S
O33 C34 1.208 . S
C34 O32 1.247 . S
C34 O33 1.208 . S
C35 O40 1.247 . S
C35 O41 1.208 . S
C36 O28 1.315 . S
C36 O31 1.279 . S
C37 O38 1.315 . S
C37 O39 1.279 . S
O38 Cd30 2.223 . S
O38 C37 1.315 . S
O39 Cd29 2.240 . S
O39 C37 1.279 . S
O40 Cd30 2.297 . S
O40 C35 1.247 . S
O41 Cd30 2.439 . S
O41 C35 1.208 . S
O42 Cd43 2.223 . S
O42 C50 1.315 . S
Cd43 O42 2.223 . S
Cd43 O46 2.297 . S
Cd43 O47 2.439 . S
Cd43 O53 2.240 . S
Cd44 O45 2.240 . S
Cd44 O52 2.223 . S
Cd44 O54 2.297 . S
Cd44 O55 2.439 . S
O45 Cd44 2.240 . S
O45 C50 1.279 . S
O46 Cd43 2.297 . S
O46 C48 1.247 . S
O47 Cd43 2.439 . S
O47 C48 1.208 . S
C48 O46 1.247 . S
C48 O47 1.208 . S
C49 O54 1.247 . S
C49 O55 1.208 . S
C50 O42 1.315 . S
C50 O45 1.279 . S
C51 O52 1.315 . S
C51 O53 1.279 . S
O52 Cd44 2.223 . S
O52 C51 1.315 . S
O53 Cd43 2.240 . S
O53 C51 1.279 . S
O54 Cd44 2.297 . S
O54 C49 1.247 . S
O55 Cd44 2.439 . S
O55 C49 1.208 . S
O56 Cd57 2.223 . S
O56 C64 1.315 . S
Cd57 O56 2.223 . S
Cd57 O60 2.297 . S
Cd57 O61 2.439 . S
Cd57 O67 2.240 . S
Cd58 O59 2.240 . S
Cd58 O66 2.223 . S
Cd58 O68 2.297 . S
Cd58 O69 2.439 . S
O59 Cd58 2.240 . S
O59 C64 1.279 . S
O60 Cd57 2.297 . S
O60 C62 1.247 . S
O61 Cd57 2.439 . S
O61 C62 1.208 . S
C62 O60 1.247 . S
C62 O61 1.208 . S
C63 O68 1.247 . S
C63 O69 1.208 . S
C64 O56 1.315 . S
C64 O59 1.279 . S
C65 O66 1.315 . S
C65 O67 1.279 . S
O66 Cd58 2.223 . S
O66 C65 1.315 . S
O67 Cd57 2.240 . S
O67 C65 1.279 . S
O68 Cd58 2.297 . S
O68 C63 1.247 . S
O69 Cd58 2.439 . S
O69 C63 1.208 . S
O70 Cd71 2.223 . S
O70 C78 1.315 . S
Cd71 O70 2.223 . S
Cd71 O74 2.297 . S
Cd71 O75 2.439 . S
Cd71 O81 2.240 . S
Cd72 O73 2.240 . S
Cd72 O80 2.223 . S
Cd72 O82 2.297 . S
Cd72 O83 2.439 . S
O73 Cd72 2.240 . S
O73 C78 1.279 . S
O74 Cd71 2.297 . S
O74 C76 1.247 . S
O75 Cd71 2.439 . S
O75 C76 1.208 . S
C76 O74 1.247 . S
C76 O75 1.208 . S
C77 O82 1.247 . S
C77 O83 1.208 . S
C78 O70 1.315 . S
C78 O73 1.279 . S
C79 O80 1.315 . S
C79 O81 1.279 . S
O80 Cd72 2.223 . S
O80 C79 1.315 . S
O81 Cd71 2.240 . S
O81 C79 1.279 . S
O82 Cd72 2.297 . S
O82 C77 1.247 . S
O83 Cd72 2.439 . S
O83 C77 1.208 . S
O84 Cd85 2.223 . S
O84 C92 1.315 . S
Cd85 O84 2.223 . S
Cd85 O88 2.297 . S
Cd85 O89 2.439 . S
Cd85 O95 2.240 . S
Cd86 O87 2.240 . S
Cd86 O94 2.223 . S
Cd86 O96 2.297 . S
Cd86 O97 2.439 . S
O87 Cd86 2.240 . S
O87 C92 1.279 . S
O88 Cd85 2.297 . S
O88 C90 1.247 . S
O89 Cd85 2.439 . S
O89 C90 1.208 . S
C90 O88 1.247 . S
C90 O89 1.208 . S
C91 O96 1.247 . S
C91 O97 1.208 . S
C92 O84 1.315 . S
C92 O87 1.279 . S
C93 O94 1.315 . S
C93 O95 1.279 . S
O94 Cd86 2.223 . S
O94 C93 1.315 . S
O95 Cd85 2.240 . S
O95 C93 1.279 . S
O96 Cd86 2.297 . S
O96 C91 1.247 . S
O97 Cd86 2.439 . S
O97 C91 1.208 . S
O98 Cd99 2.223 . S
O98 C106 1.315 . S
Cd99 O98 2.223 . S
Cd99 O102 2.297 . S
Cd99 O103 2.439 . S
Cd99 O109 2.240 . S
Cd100 O101 2.240 . S
Cd100 O108 2.223 . S
Cd100 O110 2.297 . S
Cd100 O111 2.439 . S
O101 Cd100 2.240 . S
O101 C106 1.279 . S
O102 Cd99 2.297 . S
O102 C104 1.247 . S
O103 Cd99 2.439 . S
O103 C104 1.208 . S
C104 O102 1.247 . S
C104 O103 1.208 . S
C105 O110 1.247 . S
C105 O111 1.208 . S
C106 O98 1.315 . S
C106 O101 1.279 . S
C107 O108 1.315 . S
C107 O109 1.279 . S
O108 Cd100 2.223 . S
O108 C107 1.315 . S
O109 Cd99 2.240 . S
O109 C107 1.279 . S
O110 Cd100 2.297 . S
O110 C105 1.247 . S
O111 Cd100 2.439 . S
O111 C105 1.208 . S
O112 Cd113 2.223 . S
O112 C120 1.315 . S
Cd113 O112 2.223 . S
Cd113 O116 2.297 . S
Cd113 O117 2.439 . S
Cd113 O123 2.240 . S
Cd114 O115 2.240 . S
Cd114 O122 2.223 . S
Cd114 O124 2.297 . S
Cd114 O125 2.439 . S
O115 Cd114 2.240 . S
O115 C120 1.279 . S
O116 Cd113 2.297 . S
O116 C118 1.247 . S
O117 Cd113 2.439 . S
O117 C118 1.208 . S
C118 O116 1.247 . S
C118 O117 1.208 . S
C119 O124 1.247 . S
C119 O125 1.208 . S
C120 O112 1.315 . S
C120 O115 1.279 . S
C121 O122 1.315 . S
C121 O123 1.279 . S
O122 Cd114 2.223 . S
O122 C121 1.315 . S
O123 Cd113 2.240 . S
O123 C121 1.279 . S
O124 Cd114 2.297 . S
O124 C119 1.247 . S
O125 Cd114 2.439 . S
O125 C119 1.208 . S
O126 Cd127 2.223 . S
O126 C134 1.315 . S
Cd127 O126 2.223 . S
Cd127 O130 2.297 . S
Cd127 O131 2.439 . S
Cd127 O137 2.240 . S
Cd128 O129 2.240 . S
Cd128 O136 2.223 . S
Cd128 O138 2.297 . S
Cd128 O139 2.439 . S
O129 Cd128 2.240 . S
O129 C134 1.279 . S
O130 Cd127 2.297 . S
O130 C132 1.247 . S
O131 Cd127 2.439 . S
O131 C132 1.208 . S
C132 O130 1.247 . S
C132 O131 1.208 . S
C133 O138 1.247 . S
C133 O139 1.208 . S
C134 O126 1.315 . S
C134 O129 1.279 . S
C135 O136 1.315 . S
C135 O137 1.279 . S
O136 Cd128 2.223 . S
O136 C135 1.315 . S
O137 Cd127 2.240 . S
O137 C135 1.279 . S
O138 Cd128 2.297 . S
O138 C133 1.247 . S
O139 Cd128 2.439 . S
O139 C133 1.208 . S
O140 Cd141 2.223 . S
O140 C148 1.315 . S
Cd141 O140 2.223 . S
Cd141 O144 2.297 . S
Cd141 O145 2.439 . S
Cd141 O151 2.240 . S
Cd142 O143 2.240 . S
Cd142 O150 2.223 . S
Cd142 O152 2.297 . S
Cd142 O153 2.439 . S
O143 Cd142 2.240 . S
O143 C148 1.279 . S
O144 Cd141 2.297 . S
O144 C146 1.247 . S
O145 Cd141 2.439 . S
O145 C146 1.208 . S
C146 O144 1.247 . S
C146 O145 1.208 . S
C147 O152 1.247 . S
C147 O153 1.208 . S
C148 O140 1.315 . S
C148 O143 1.279 . S
C149 O150 1.315 . S
C149 O151 1.279 . S
O150 Cd142 2.223 . S
O150 C149 1.315 . S
O151 Cd141 2.240 . S
O151 C149 1.279 . S
O152 Cd142 2.297 . S
O152 C147 1.247 . S
O153 Cd142 2.439 . S
O153 C147 1.208 . S
O154 Cd155 2.223 . S
O154 C162 1.315 . S
Cd155 O154 2.223 . S
Cd155 O158 2.297 . S
Cd155 O159 2.439 . S
Cd155 O165 2.240 . S
Cd156 O157 2.240 . S
Cd156 O164 2.223 . S
Cd156 O166 2.297 . S
Cd156 O167 2.439 . S
O157 Cd156 2.240 . S
O157 C162 1.279 . S
O158 Cd155 2.297 . S
O158 C160 1.247 . S
O159 Cd155 2.439 . S
O159 C160 1.208 . S
C160 O158 1.247 . S
C160 O159 1.208 . S
C161 O166 1.247 . S
C161 O167 1.208 . S
C162 O154 1.315 . S
C162 O157 1.279 . S
C163 O164 1.315 . S
C163 O165 1.279 . S
O164 Cd156 2.223 . S
O164 C163 1.315 . S
O165 Cd155 2.240 . S
O165 C163 1.279 . S
O166 Cd156 2.297 . S
O166 C161 1.247 . S
O167 Cd156 2.439 . S
O167 C161 1.208 . S
O168 Cd169 2.200 . S
O168 C176 1.315 . S
Cd169 O168 2.200 . S
Cd169 O172 2.281 1_455 S
Cd169 O173 2.480 . S
Cd169 O179 2.275 . S
Cd170 O171 2.240 . S
Cd170 O178 2.223 . S
Cd170 O180 2.297 . S
Cd170 O181 2.439 . S
O171 Cd170 2.240 . S
O171 C176 1.279 . S
O172 Cd169 2.281 1_655 S
O172 C174 1.247 1_655 S
O173 Cd169 2.480 . S
O173 C174 1.208 . S
C174 O172 1.247 1_455 S
C174 O173 1.208 . S
C175 O180 1.247 . S
C175 O181 1.208 . S
C176 O168 1.315 . S
C176 O171 1.279 . S
C177 O178 1.315 . S
C177 O179 1.279 . S
O178 Cd170 2.223 . S
O178 C177 1.315 . S
O179 Cd169 2.275 . S
O179 C177 1.279 . S
O180 Cd170 2.297 . S
O180 C175 1.247 . S
O181 Cd170 2.439 . S
O181 C175 1.208 . S
O182 Cd183 2.223 . S
O182 C190 1.315 . S
Cd183 O182 2.223 . S
Cd183 O186 2.297 . S
Cd183 O187 2.439 . S
Cd183 O193 2.240 . S
Cd184 O185 2.240 . S
Cd184 O192 2.223 . S
Cd184 O194 2.297 . S
Cd184 O195 2.439 . S
O185 Cd184 2.240 . S
O185 C190 1.279 . S
O186 Cd183 2.297 . S
O186 C188 1.247 . S
O187 Cd183 2.439 . S
O187 C188 1.208 . S
C188 O186 1.247 . S
C188 O187 1.208 . S
C189 O194 1.247 . S
C189 O195 1.208 . S
C190 O182 1.315 . S
C190 O185 1.279 . S
C191 O192 1.315 . S
C191 O193 1.279 . S
O192 Cd184 2.223 . S
O192 C191 1.315 . S
O193 Cd183 2.240 . S
O193 C191 1.279 . S
O194 Cd184 2.297 . S
O194 C189 1.247 . S
O195 Cd184 2.439 . S
O195 C189 1.208 . S
O196 Cd197 2.268 . S
O196 C204 1.315 . S
Cd197 O196 2.268 . S
Cd197 O200 2.293 1_565 S
Cd197 O201 2.461 . S
Cd197 O207 2.258 . S
Cd198 O199 2.240 . S
Cd198 O206 2.223 . S
Cd198 O208 2.297 . S
Cd198 O209 2.439 . S
O199 Cd198 2.240 . S
O199 C204 1.279 . S
O200 Cd197 2.293 1_545 S
O200 C202 1.247 1_545 S
O201 Cd197 2.461 . S
O201 C202 1.208 . S
C202 O200 1.247 1_565 S
C202 O201 1.208 . S
C203 O208 1.247 . S
C203 O209 1.208 . S
C204 O196 1.315 . S
C204 O199 1.279 . S
C205 O206 1.315 . S
C205 O207 1.279 . S
O206 Cd198 2.223 . S
O206 C205 1.315 . S
O207 Cd197 2.258 . S
O207 C205 1.279 . S
O208 Cd198 2.297 . S
O208 C203 1.247 . S
O209 Cd198 2.439 . S
O209 C203 1.208 . S
O210 Cd211 2.223 . S
O210 C218 1.315 . S
Cd211 O210 2.223 . S
Cd211 O214 2.297 . S
Cd211 O215 2.439 . S
Cd211 O221 2.240 . S
Cd212 O213 2.240 . S
Cd212 O220 2.223 . S
Cd212 O222 2.297 . S
Cd212 O223 2.439 . S
O213 Cd212 2.240 . S
O213 C218 1.279 . S
O214 Cd211 2.297 . S
O214 C216 1.247 . S
O215 Cd211 2.439 . S
O215 C216 1.208 . S
C216 O214 1.247 . S
C216 O215 1.208 . S
C217 O222 1.247 . S
C217 O223 1.208 . S
C218 O210 1.315 . S
C218 O213 1.279 . S
C219 O220 1.315 . S
C219 O221 1.279 . S
O220 Cd212 2.223 . S
O220 C219 1.315 . S
O221 Cd211 2.240 . S
O221 C219 1.279 . S
O222 Cd212 2.297 . S
O222 C217 1.247 . S
O223 Cd212 2.439 . S
O223 C217 1.208 . S
O224 Cd225 2.223 . S
O224 C232 1.315 . S
Cd225 O224 2.223 . S
Cd225 O228 2.297 . S
Cd225 O229 2.439 . S
Cd225 O235 2.240 . S
Cd226 O227 2.240 . S
Cd226 O234 2.223 . S
Cd226 O236 2.297 . S
Cd226 O237 2.439 . S
O227 Cd226 2.240 . S
O227 C232 1.279 . S
O228 Cd225 2.297 . S
O228 C230 1.247 . S
O229 Cd225 2.439 . S
O229 C230 1.208 . S
C230 O228 1.247 . S
C230 O229 1.208 . S
C231 O236 1.247 . S
C231 O237 1.208 . S
C232 O224 1.315 . S
C232 O227 1.279 . S
C233 O234 1.315 . S
C233 O235 1.279 . S
O234 Cd226 2.223 . S
O234 C233 1.315 . S
O235 Cd225 2.240 . S
O235 C233 1.279 . S
O236 Cd226 2.297 . S
O236 C231 1.247 . S
O237 Cd226 2.439 . S
O237 C231 1.208 . S
O238 Cd239 2.223 . S
O238 C246 1.315 . S
Cd239 O238 2.223 . S
Cd239 O242 2.297 . S
Cd239 O243 2.439 . S
Cd239 O249 2.240 . S
Cd240 O241 2.240 . S
Cd240 O248 2.223 . S
Cd240 O250 2.297 . S
Cd240 O251 2.439 . S
O241 Cd240 2.240 . S
O241 C246 1.279 . S
O242 Cd239 2.297 . S
O242 C244 1.247 . S
O243 Cd239 2.439 . S
O243 C244 1.208 . S
C244 O242 1.247 . S
C244 O243 1.208 . S
C245 O250 1.247 . S
C245 O251 1.208 . S
C246 O238 1.315 . S
C246 O241 1.279 . S
C247 O248 1.315 . S
C247 O249 1.279 . S
O248 Cd240 2.223 . S
O248 C247 1.315 . S
O249 Cd239 2.240 . S
O249 C247 1.279 . S
O250 Cd240 2.297 . S
O250 C245 1.247 . S
O251 Cd240 2.439 . S
O251 C245 1.208 . S
O252 Cd253 2.223 . S
O252 C260 1.315 . S
Cd253 O252 2.223 . S
Cd253 O256 2.297 . S
Cd253 O257 2.439 . S
Cd253 O263 2.240 . S
Cd254 O255 2.240 . S
Cd254 O262 2.223 . S
Cd254 O264 2.297 . S
Cd254 O265 2.439 . S
O255 Cd254 2.240 . S
O255 C260 1.279 . S
O256 Cd253 2.297 . S
O256 C258 1.247 . S
O257 Cd253 2.439 . S
O257 C258 1.208 . S
C258 O256 1.247 . S
C258 O257 1.208 . S
C259 O264 1.247 . S
C259 O265 1.208 . S
C260 O252 1.315 . S
C260 O255 1.279 . S
C261 O262 1.315 . S
C261 O263 1.279 . S
O262 Cd254 2.223 . S
O262 C261 1.315 . S
O263 Cd253 2.240 . S
O263 C261 1.279 . S
O264 Cd254 2.297 . S
O264 C259 1.247 . S
O265 Cd254 2.439 . S
O265 C259 1.208 . S
O266 Cd267 2.223 . S
O266 C274 1.315 . S
Cd267 O266 2.223 . S
Cd267 O270 2.297 . S
Cd267 O271 2.439 . S
Cd267 O277 2.240 . S
Cd268 O269 2.240 . S
Cd268 O276 2.223 . S
Cd268 O278 2.297 . S
Cd268 O279 2.439 . S
O269 Cd268 2.240 . S
O269 C274 1.279 . S
O270 Cd267 2.297 . S
O270 C272 1.247 . S
O271 Cd267 2.439 . S
O271 C272 1.208 . S
C272 O270 1.247 . S
C272 O271 1.208 . S
C273 O278 1.247 . S
C273 O279 1.208 . S
C274 O266 1.315 . S
C274 O269 1.279 . S
C275 O276 1.315 . S
C275 O277 1.279 . S
O276 Cd268 2.223 . S
O276 C275 1.315 . S
O277 Cd267 2.240 . S
O277 C275 1.279 . S
O278 Cd268 2.297 . S
O278 C273 1.247 . S
O279 Cd268 2.439 . S
O279 C273 1.208 . S
O280 Cd281 2.223 . S
O280 C288 1.315 . S
Cd281 O280 2.223 . S
Cd281 O284 2.297 . S
Cd281 O285 2.439 . S
Cd281 O291 2.240 . S
Cd282 O283 2.240 . S
Cd282 O290 2.223 . S
Cd282 O292 2.297 . S
Cd282 O293 2.439 . S
O283 Cd282 2.240 . S
O283 C288 1.279 . S
O284 Cd281 2.297 . S
O284 C286 1.247 . S
O285 Cd281 2.439 . S
O285 C286 1.208 . S
C286 O284 1.247 . S
C286 O285 1.208 . S
C287 O292 1.247 . S
C287 O293 1.208 . S
C288 O280 1.315 . S
C288 O283 1.279 . S
C289 O290 1.315 . S
C289 O291 1.279 . S
O290 Cd282 2.223 . S
O290 C289 1.315 . S
O291 Cd281 2.240 . S
O291 C289 1.279 . S
O292 Cd282 2.297 . S
O292 C287 1.247 . S
O293 Cd282 2.439 . S
O293 C287 1.208 . S
O294 Cd295 2.227 . S
O294 C302 1.315 . S
Cd295 O294 2.227 . S
Cd295 O298 2.297 . S
Cd295 O299 2.439 . S
Cd295 O305 2.240 1_554 S
Cd296 O297 2.240 1_556 S
Cd296 O304 2.223 . S
Cd296 O306 2.297 . S
Cd296 O307 2.438 . S
O297 Cd296 2.240 1_554 S
O297 C302 1.286 . S
O298 Cd295 2.297 . S
O298 C300 1.247 . S
O299 Cd295 2.439 . S
O299 C300 1.208 . S
C300 O298 1.247 . S
C300 O299 1.208 . S
C301 O306 1.247 . S
C301 O307 1.208 . S
C302 O294 1.315 . S
C302 O297 1.286 . S
C303 O304 1.315 . S
C303 O305 1.279 . S
O304 Cd296 2.223 . S
O304 C303 1.315 . S
O305 Cd295 2.240 1_556 S
O305 C303 1.279 . S
O306 Cd296 2.297 . S
O306 C301 1.247 . S
O307 Cd296 2.438 . S
O307 C301 1.208 . S
O308 Cd309 2.227 . S
O308 C316 1.315 . S
Cd309 O308 2.227 . S
Cd309 O312 2.297 . S
Cd309 O313 2.439 . S
Cd309 O319 2.240 1_554 S
Cd310 O311 2.240 1_556 S
Cd310 O318 2.223 . S
Cd310 O320 2.297 . S
Cd310 O321 2.438 . S
O311 Cd310 2.240 1_554 S
O311 C316 1.286 . S
O312 Cd309 2.297 . S
O312 C314 1.247 . S
O313 Cd309 2.439 . S
O313 C314 1.208 . S
C314 O312 1.247 . S
C314 O313 1.208 . S
C315 O320 1.247 . S
C315 O321 1.208 . S
C316 O308 1.315 . S
C316 O311 1.286 . S
C317 O318 1.315 . S
C317 O319 1.279 . S
O318 Cd310 2.223 . S
O318 C317 1.315 . S
O319 Cd309 2.240 1_556 S
O319 C317 1.279 . S
O320 Cd310 2.297 . S
O320 C315 1.247 . S
O321 Cd310 2.438 . S
O321 C315 1.208 . S
O322 Cd323 2.227 . S
O322 C330 1.315 . S
Cd323 O322 2.227 . S
Cd323 O326 2.297 . S
Cd323 O327 2.439 . S
Cd323 O333 2.240 1_554 S
Cd324 O325 2.240 1_556 S
Cd324 O332 2.223 . S
Cd324 O334 2.297 . S
Cd324 O335 2.438 . S
O325 Cd324 2.240 1_554 S
O325 C330 1.286 . S
O326 Cd323 2.297 . S
O326 C328 1.247 . S
O327 Cd323 2.439 . S
O327 C328 1.208 . S
C328 O326 1.247 . S
C328 O327 1.208 . S
C329 O334 1.247 . S
C329 O335 1.208 . S
C330 O322 1.315 . S
C330 O325 1.286 . S
C331 O332 1.315 . S
C331 O333 1.279 . S
O332 Cd324 2.223 . S
O332 C331 1.315 . S
O333 Cd323 2.240 1_556 S
O333 C331 1.279 . S
O334 Cd324 2.297 . S
O334 C329 1.247 . S
O335 Cd324 2.438 . S
O335 C329 1.208 . S
O336 Cd337 2.223 . S
O336 C344 1.315 . S
Cd337 O336 2.223 . S
Cd337 O340 2.297 . S
Cd337 O341 2.439 . S
Cd337 O347 2.240 . S
Cd338 O339 2.240 . S
Cd338 O346 2.223 . S
Cd338 O348 2.297 . S
Cd338 O349 2.439 . S
O339 Cd338 2.240 . S
O339 C344 1.279 . S
O340 Cd337 2.297 . S
O340 C342 1.247 . S
O341 Cd337 2.439 . S
O341 C342 1.208 . S
C342 O340 1.247 . S
C342 O341 1.208 . S
C343 O348 1.247 . S
C343 O349 1.208 . S
C344 O336 1.315 . S
C344 O339 1.279 . S
C345 O346 1.315 . S
C345 O347 1.279 . S
O346 Cd338 2.223 . S
O346 C345 1.315 . S
O347 Cd337 2.240 . S
O347 C345 1.279 . S
O348 Cd338 2.297 . S
O348 C343 1.247 . S
O349 Cd338 2.439 . S
O349 C343 1.208 . S
O350 Cd351 2.223 . S
O350 C358 1.315 . S
Cd351 O350 2.223 . S
Cd351 O354 2.297 . S
Cd351 O355 2.439 . S
Cd351 O361 2.240 . S
Cd352 O353 2.240 . S
Cd352 O360 2.223 . S
Cd352 O362 2.297 . S
Cd352 O363 2.439 . S
O353 Cd352 2.240 . S
O353 C358 1.279 . S
O354 Cd351 2.297 . S
O354 C356 1.247 . S
O355 Cd351 2.439 . S
O355 C356 1.208 . S
C356 O354 1.247 . S
C356 O355 1.208 . S
C357 O362 1.247 . S
C357 O363 1.208 . S
C358 O350 1.315 . S
C358 O353 1.279 . S
C359 O360 1.315 . S
C359 O361 1.279 . S
O360 Cd352 2.223 . S
O360 C359 1.315 . S
O361 Cd351 2.240 . S
O361 C359 1.279 . S
O362 Cd352 2.297 . S
O362 C357 1.247 . S
O363 Cd352 2.439 . S
O363 C357 1.208 . S
O364 Cd365 2.223 . S
O364 C372 1.315 . S
Cd365 O364 2.223 . S
Cd365 O368 2.297 . S
Cd365 O369 2.439 . S
Cd365 O375 2.240 . S
Cd366 O367 2.240 . S
Cd366 O374 2.223 . S
Cd366 O376 2.297 . S
Cd366 O377 2.439 . S
O367 Cd366 2.240 . S
O367 C372 1.279 . S
O368 Cd365 2.297 . S
O368 C370 1.247 . S
O369 Cd365 2.439 . S
O369 C370 1.208 . S
C370 O368 1.247 . S
C370 O369 1.208 . S
C371 O376 1.247 . S
C371 O377 1.208 . S
C372 O364 1.315 . S
C372 O367 1.279 . S
C373 O374 1.315 . S
C373 O375 1.279 . S
O374 Cd366 2.223 . S
O374 C373 1.315 . S
O375 Cd365 2.240 . S
O375 C373 1.279 . S
O376 Cd366 2.297 . S
O376 C371 1.247 . S
O377 Cd366 2.439 . S
O377 C371 1.208 . S
O378 Cd379 2.227 . S
O378 C386 1.315 . S
Cd379 O378 2.227 . S
Cd379 O382 2.297 . S
Cd379 O383 2.439 . S
Cd379 O389 2.240 1_556 S
Cd380 O381 2.240 1_554 S
Cd380 O388 2.223 . S
Cd380 O390 2.297 . S
Cd380 O391 2.438 . S
O381 Cd380 2.240 1_556 S
O381 C386 1.286 . S
O382 Cd379 2.297 . S
O382 C384 1.247 . S
O383 Cd379 2.439 . S
O383 C384 1.208 . S
C384 O382 1.247 . S
C384 O383 1.208 . S
C385 O390 1.247 . S
C385 O391 1.208 . S
C386 O378 1.315 . S
C386 O381 1.286 . S
C387 O388 1.315 . S
C387 O389 1.279 . S
O388 Cd380 2.223 . S
O388 C387 1.315 . S
O389 Cd379 2.240 1_554 S
O389 C387 1.279 . S
O390 Cd380 2.297 . S
O390 C385 1.247 . S
O391 Cd380 2.438 . S
O391 C385 1.208 . S
O392 Cd393 2.227 . S
O392 C400 1.315 . S
Cd393 O392 2.227 . S
Cd393 O396 2.297 . S
Cd393 O397 2.439 . S
Cd393 O403 2.240 1_556 S
Cd394 O395 2.240 1_554 S
Cd394 O402 2.223 . S
Cd394 O404 2.297 . S
Cd394 O405 2.438 . S
O395 Cd394 2.240 1_556 S
O395 C400 1.286 . S
O396 Cd393 2.297 . S
O396 C398 1.247 . S
O397 Cd393 2.439 . S
O397 C398 1.208 . S
C398 O396 1.247 . S
C398 O397 1.208 . S
C399 O404 1.247 . S
C399 O405 1.208 . S
C400 O392 1.315 . S
C400 O395 1.286 . S
C401 O402 1.315 . S
C401 O403 1.279 . S
O402 Cd394 2.223 . S
O402 C401 1.315 . S
O403 Cd393 2.240 1_554 S
O403 C401 1.279 . S
O404 Cd394 2.297 . S
O404 C399 1.247 . S
O405 Cd394 2.438 . S
O405 C399 1.208 . S
O406 Cd407 2.227 . S
O406 C414 1.315 . S
Cd407 O406 2.227 . S
Cd407 O410 2.297 . S
Cd407 O411 2.439 . S
Cd407 O417 2.240 1_556 S
Cd408 O409 2.240 1_554 S
Cd408 O416 2.223 . S
Cd408 O418 2.297 . S
Cd408 O419 2.438 . S
O409 Cd408 2.240 1_556 S
O409 C414 1.286 . S
O410 Cd407 2.297 . S
O410 C412 1.247 . S
O411 Cd407 2.439 . S
O411 C412 1.208 . S
C412 O410 1.247 . S
C412 O411 1.208 . S
C413 O418 1.247 . S
C413 O419 1.208 . S
C414 O406 1.315 . S
C414 O409 1.286 . S
C415 O416 1.315 . S
C415 O417 1.279 . S
O416 Cd408 2.223 . S
O416 C415 1.315 . S
O417 Cd407 2.240 1_554 S
O417 C415 1.279 . S
O418 Cd408 2.297 . S
O418 C413 1.247 . S
O419 Cd408 2.438 . S
O419 C413 1.208 . S
O420 Cd421 2.200 . S
O420 C428 1.315 . S
Cd421 O420 2.200 . S
Cd421 O424 2.281 1_655 S
Cd421 O425 2.480 . S
Cd421 O431 2.276 . S
Cd422 O423 2.240 . S
Cd422 O430 2.223 . S
Cd422 O432 2.297 . S
Cd422 O433 2.439 . S
O423 Cd422 2.240 . S
O423 C428 1.279 . S
O424 Cd421 2.281 1_455 S
O424 C426 1.247 1_455 S
O425 Cd421 2.480 . S
O425 C426 1.208 . S
C426 O424 1.247 1_655 S
C426 O425 1.208 . S
C427 O432 1.247 . S
C427 O433 1.208 . S
C428 O420 1.315 . S
C428 O423 1.279 . S
C429 O430 1.315 . S
C429 O431 1.279 . S
O430 Cd422 2.223 . S
O430 C429 1.315 . S
O431 Cd421 2.276 . S
O431 C429 1.279 . S
O432 Cd422 2.297 . S
O432 C427 1.247 . S
O433 Cd422 2.439 . S
O433 C427 1.208 . S
O434 Cd435 2.223 . S
O434 C442 1.315 . S
Cd435 O434 2.223 . S
Cd435 O438 2.297 . S
Cd435 O439 2.439 . S
Cd435 O445 2.240 . S
Cd436 O437 2.240 . S
Cd436 O444 2.223 . S
Cd436 O446 2.297 . S
Cd436 O447 2.439 . S
O437 Cd436 2.240 . S
O437 C442 1.279 . S
O438 Cd435 2.297 . S
O438 C440 1.247 . S
O439 Cd435 2.439 . S
O439 C440 1.208 . S
C440 O438 1.247 . S
C440 O439 1.208 . S
C441 O446 1.247 . S
C441 O447 1.208 . S
C442 O434 1.315 . S
C442 O437 1.279 . S
C443 O444 1.315 . S
C443 O445 1.279 . S
O444 Cd436 2.223 . S
O444 C443 1.315 . S
O445 Cd435 2.240 . S
O445 C443 1.279 . S
O446 Cd436 2.297 . S
O446 C441 1.247 . S
O447 Cd436 2.439 . S
O447 C441 1.208 . S
O448 Cd449 2.268 . S
O448 C456 1.315 . S
Cd449 O448 2.268 . S
Cd449 O452 2.293 1_545 S
Cd449 O453 2.461 . S
Cd449 O459 2.258 . S
Cd450 O451 2.240 . S
Cd450 O458 2.223 . S
Cd450 O460 2.297 . S
Cd450 O461 2.439 . S
O451 Cd450 2.240 . S
O451 C456 1.279 . S
O452 Cd449 2.293 1_565 S
O452 C454 1.247 1_565 S
O453 Cd449 2.461 . S
O453 C454 1.208 . S
C454 O452 1.247 1_545 S
C454 O453 1.208 . S
C455 O460 1.247 . S
C455 O461 1.208 . S
C456 O448 1.315 . S
C456 O451 1.279 . S
C457 O458 1.315 . S
C457 O459 1.279 . S
O458 Cd450 2.223 . S
O458 C457 1.315 . S
O459 Cd449 2.258 . S
O459 C457 1.279 . S
O460 Cd450 2.297 . S
O460 C455 1.247 . S
O461 Cd450 2.439 . S
O461 C455 1.208 . S
O462 Cd463 2.223 . S
O462 C470 1.315 . S
Cd463 O462 2.223 . S
Cd463 O466 2.297 . S
Cd463 O467 2.439 . S
Cd463 O473 2.240 . S
Cd464 O465 2.240 . S
Cd464 O472 2.223 . S
Cd464 O474 2.297 . S
Cd464 O475 2.439 . S
O465 Cd464 2.240 . S
O465 C470 1.279 . S
O466 Cd463 2.297 . S
O466 C468 1.247 . S
O467 Cd463 2.439 . S
O467 C468 1.208 . S
C468 O466 1.247 . S
C468 O467 1.208 . S
C469 O474 1.247 . S
C469 O475 1.208 . S
C470 O462 1.315 . S
C470 O465 1.279 . S
C471 O472 1.315 . S
C471 O473 1.279 . S
O472 Cd464 2.223 . S
O472 C471 1.315 . S
O473 Cd463 2.240 . S
O473 C471 1.279 . S
O474 Cd464 2.297 . S
O474 C469 1.247 . S
O475 Cd464 2.439 . S
O475 C469 1.208 . S
O476 Cd477 2.223 . S
O476 C484 1.315 . S
Cd477 O476 2.223 . S
Cd477 O480 2.297 . S
Cd477 O481 2.439 . S
Cd477 O487 2.240 . S
Cd478 O479 2.240 . S
Cd478 O486 2.223 . S
Cd478 O488 2.297 . S
Cd478 O489 2.439 . S
O479 Cd478 2.240 . S
O479 C484 1.279 . S
O480 Cd477 2.297 . S
O480 C482 1.247 . S
O481 Cd477 2.439 . S
O481 C482 1.208 . S
C482 O480 1.247 . S
C482 O481 1.208 . S
C483 O488 1.247 . S
C483 O489 1.208 . S
C484 O476 1.315 . S
C484 O479 1.279 . S
C485 O486 1.315 . S
C485 O487 1.279 . S
O486 Cd478 2.223 . S
O486 C485 1.315 . S
O487 Cd477 2.240 . S
O487 C485 1.279 . S
O488 Cd478 2.297 . S
O488 C483 1.247 . S
O489 Cd478 2.439 . S
O489 C483 1.208 . S
O490 Cd491 2.223 . S
O490 C498 1.315 . S
Cd491 O490 2.223 . S
Cd491 O494 2.297 . S
Cd491 O495 2.439 . S
Cd491 O501 2.240 . S
Cd492 O493 2.240 . S
Cd492 O500 2.223 . S
Cd492 O502 2.297 . S
Cd492 O503 2.439 . S
O493 Cd492 2.240 . S
O493 C498 1.279 . S
O494 Cd491 2.297 . S
O494 C496 1.247 . S
O495 Cd491 2.439 . S
O495 C496 1.208 . S
C496 O494 1.247 . S
C496 O495 1.208 . S
C497 O502 1.247 . S
C497 O503 1.208 . S
C498 O490 1.315 . S
C498 O493 1.279 . S
C499 O500 1.315 . S
C499 O501 1.279 . S
O500 Cd492 2.223 . S
O500 C499 1.315 . S
O501 Cd491 2.240 . S
O501 C499 1.279 . S
O502 Cd492 2.297 . S
O502 C497 1.247 . S
O503 Cd492 2.439 . S
O503 C497 1.208 . S
H504 C512 0.950 . S
H505 C517 0.950 . S
H506 C514 0.950 . S
H507 C516 0.950 . S
H508 C518 0.950 . S
H509 C520 0.950 . S
H510 C522 0.950 . S
H511 C523 0.950 . S
C512 H504 0.950 . S
C512 C513 1.386 . S
C512 C514 1.391 . S
C513 C512 1.386 . S
C513 C517 1.393 . S
C514 H506 0.950 . S
C514 C512 1.391 . S
C514 C515 1.400 . S
C515 C514 1.400 . S
C515 C516 1.398 . S
C515 C521 1.491 . S
C516 H507 0.950 . S
C516 C515 1.398 . S
C516 C517 1.391 . S
C517 H505 0.950 . S
C517 C513 1.393 . S
C517 C516 1.391 . S
C518 H508 0.950 . S
C518 C519 1.386 . S
C518 C520 1.391 . S
C519 C518 1.386 . S
C519 C523 1.393 . S
C520 H509 0.950 . S
C520 C518 1.391 . S
C520 C521 1.400 . S
C521 C515 1.491 . S
C521 C520 1.400 . S
C521 C522 1.398 . S
C522 H510 0.950 . S
C522 C521 1.398 . S
C522 C523 1.391 . S
C523 H511 0.950 . S
C523 C519 1.393 . S
C523 C522 1.391 . S
H524 C532 0.950 . S
H525 C537 0.950 . S
H526 C534 0.950 . S
H527 C536 0.950 . S
H528 C538 0.950 . S
H529 C540 0.950 . S
H530 C542 0.950 . S
H531 C543 0.950 . S
C532 H524 0.950 . S
C532 C533 1.386 . S
C532 C534 1.391 . S
C533 C532 1.386 . S
C533 C537 1.393 . S
C534 H526 0.950 . S
C534 C532 1.391 . S
C534 C535 1.400 . S
C535 C534 1.400 . S
C535 C536 1.398 . S
C535 C541 1.491 . S
C536 H527 0.950 . S
C536 C535 1.398 . S
C536 C537 1.391 . S
C537 H525 0.950 . S
C537 C533 1.393 . S
C537 C536 1.391 . S
C538 H528 0.950 . S
C538 C539 1.386 . S
C538 C540 1.391 . S
C539 C538 1.386 . S
C539 C543 1.393 . S
C540 H529 0.950 . S
C540 C538 1.391 . S
C540 C541 1.400 . S
C541 C535 1.491 . S
C541 C540 1.400 . S
C541 C542 1.398 . S
C542 H530 0.950 . S
C542 C541 1.398 . S
C542 C543 1.391 . S
C543 H531 0.950 . S
C543 C539 1.393 . S
C543 C542 1.391 . S
H544 C552 0.950 . S
H545 C557 0.950 . S
H546 C554 0.950 . S
H547 C556 0.950 . S
H548 C558 0.950 . S
H549 C560 0.950 . S
H550 C562 0.950 . S
H551 C563 0.950 . S
C552 H544 0.950 . S
C552 C553 1.386 . S
C552 C554 1.391 . S
C553 C552 1.386 . S
C553 C557 1.393 . S
C554 H546 0.950 . S
C554 C552 1.391 . S
C554 C555 1.400 . S
C555 C554 1.400 . S
C555 C556 1.398 . S
C555 C561 1.491 . S
C556 H547 0.950 . S
C556 C555 1.398 . S
C556 C557 1.391 . S
C557 H545 0.950 . S
C557 C553 1.393 . S
C557 C556 1.391 . S
C558 H548 0.950 . S
C558 C559 1.386 . S
C558 C560 1.391 . S
C559 C558 1.386 . S
C559 C563 1.393 . S
C560 H549 0.950 . S
C560 C558 1.391 . S
C560 C561 1.400 . S
C561 C555 1.491 . S
C561 C560 1.400 . S
C561 C562 1.398 . S
C562 H550 0.950 . S
C562 C561 1.398 . S
C562 C563 1.391 . S
C563 H551 0.950 . S
C563 C559 1.393 . S
C563 C562 1.391 . S
H564 C572 0.950 . S
H565 C577 0.950 . S
H566 C574 0.950 . S
H567 C576 0.950 . S
H568 C578 0.950 . S
H569 C580 0.950 . S
H570 C582 0.950 . S
H571 C583 0.950 . S
C572 H564 0.950 . S
C572 C573 1.386 . S
C572 C574 1.391 1_556 S
C573 C572 1.386 . S
C573 C577 1.393 . S
C574 H566 0.950 . S
C574 C572 1.391 1_554 S
C574 C575 1.400 . S
C575 C574 1.400 . S
C575 C576 1.398 . S
C575 C581 1.491 . S
C576 H567 0.950 . S
C576 C575 1.398 . S
C576 C577 1.391 1_554 S
C577 H565 0.950 . S
C577 C573 1.393 . S
C577 C576 1.391 1_556 S
C578 H568 0.950 . S
C578 C579 1.386 . S
C578 C580 1.391 . S
C579 C578 1.386 . S
C579 C583 1.393 . S
C580 H569 0.950 . S
C580 C578 1.391 . S
C580 C581 1.400 . S
C581 C575 1.491 . S
C581 C580 1.400 . S
C581 C582 1.398 . S
C582 H570 0.950 . S
C582 C581 1.398 . S
C582 C583 1.391 . S
C583 H571 0.950 . S
C583 C579 1.393 . S
C583 C582 1.391 . S
H584 C592 0.950 . S
H585 C597 0.950 . S
H586 C594 0.950 . S
H587 C596 0.950 . S
H588 C598 0.950 . S
H589 C600 0.950 . S
H590 C602 0.950 . S
H591 C603 0.950 . S
C592 H584 0.950 . S
C592 C593 1.386 . S
C592 C594 1.391 . S
C593 C592 1.386 . S
C593 C597 1.393 . S
C594 H586 0.950 . S
C594 C592 1.391 . S
C594 C595 1.400 . S
C595 C594 1.400 . S
C595 C596 1.398 . S
C595 C601 1.491 . S
C596 H587 0.950 . S
C596 C595 1.398 . S
C596 C597 1.391 . S
C597 H585 0.950 . S
C597 C593 1.393 . S
C597 C596 1.391 . S
C598 H588 0.950 . S
C598 C599 1.386 . S
C598 C600 1.391 1_556 S
C599 C598 1.386 . S
C599 C603 1.393 . S
C600 H589 0.950 . S
C600 C598 1.391 1_554 S
C600 C601 1.400 . S
C601 C595 1.491 . S
C601 C600 1.400 . S
C601 C602 1.398 . S
C602 H590 0.950 . S
C602 C601 1.398 . S
C602 C603 1.391 1_554 S
C603 H591 0.950 . S
C603 C599 1.393 . S
C603 C602 1.391 1_556 S
H604 C612 0.950 . S
H605 C617 0.950 . S
H606 C614 0.950 . S
H607 C616 0.950 . S
H608 C618 0.950 . S
H609 C620 0.950 . S
H610 C622 0.950 . S
H611 C623 0.950 . S
C612 H604 0.950 . S
C612 C613 1.386 . S
C612 C614 1.391 . S
C613 C612 1.386 . S
C613 C617 1.393 . S
C614 H606 0.950 . S
C614 C612 1.391 . S
C614 C615 1.400 . S
C615 C614 1.400 . S
C615 C616 1.398 . S
C615 C621 1.491 . S
C616 H607 0.950 . S
C616 C615 1.398 . S
C616 C617 1.391 . S
C617 H605 0.950 . S
C617 C613 1.393 . S
C617 C616 1.391 . S
C618 H608 0.950 . S
C618 C619 1.386 . S
C618 C620 1.391 1_556 S
C619 C618 1.386 . S
C619 C623 1.393 . S
C620 H609 0.950 . S
C620 C618 1.391 1_554 S
C620 C621 1.400 . S
C621 C615 1.491 . S
C621 C620 1.400 . S
C621 C622 1.398 . S
C622 H610 0.950 . S
C622 C621 1.398 . S
C622 C623 1.391 1_554 S
C623 H611 0.950 . S
C623 C619 1.393 . S
C623 C622 1.391 1_556 S
H624 C632 0.950 . S
H625 C637 0.950 . S
H626 C634 0.950 . S
H627 C636 0.950 . S
H628 C638 0.950 . S
H629 C640 0.950 . S
H630 C642 0.950 . S
H631 C643 0.950 . S
C632 H624 0.950 . S
C632 C633 1.386 . S
C632 C634 1.391 . S
C633 C632 1.386 . S
C633 C637 1.393 . S
C634 H626 0.950 . S
C634 C632 1.391 . S
C634 C635 1.400 . S
C635 C634 1.400 . S
C635 C636 1.398 . S
C635 C641 1.491 . S
C636 H627 0.950 . S
C636 C635 1.398 . S
C636 C637 1.391 . S
C637 H625 0.950 . S
C637 C633 1.393 . S
C637 C636 1.391 . S
C638 H628 0.950 . S
C638 C639 1.386 . S
C638 C640 1.391 . S
C639 C638 1.386 . S
C639 C643 1.393 . S
C640 H629 0.950 . S
C640 C638 1.391 . S
C640 C641 1.400 . S
C641 C635 1.491 . S
C641 C640 1.400 . S
C641 C642 1.398 . S
C642 H630 0.950 . S
C642 C641 1.398 . S
C642 C643 1.391 . S
C643 H631 0.950 . S
C643 C639 1.393 . S
C643 C642 1.391 . S
H644 C652 0.950 . S
H645 C657 0.950 . S
H646 C654 0.950 . S
H647 C656 0.950 . S
H648 C658 0.950 . S
H649 C660 0.950 . S
H650 C662 0.950 . S
H651 C663 0.950 . S
C652 H644 0.950 . S
C652 C653 1.386 . S
C652 C654 1.391 . S
C653 C652 1.386 . S
C653 C657 1.393 . S
C654 H646 0.950 . S
C654 C652 1.391 . S
C654 C655 1.400 . S
C655 C654 1.400 . S
C655 C656 1.398 . S
C655 C661 1.491 . S
C656 H647 0.950 . S
C656 C655 1.398 . S
C656 C657 1.391 . S
C657 H645 0.950 . S
C657 C653 1.393 . S
C657 C656 1.391 . S
C658 H648 0.950 . S
C658 C659 1.386 . S
C658 C660 1.391 . S
C659 C658 1.386 . S
C659 C663 1.393 . S
C660 H649 0.950 . S
C660 C658 1.391 . S
C660 C661 1.400 . S
C661 C655 1.491 . S
C661 C660 1.400 . S
C661 C662 1.398 . S
C662 H650 0.950 . S
C662 C661 1.398 . S
C662 C663 1.391 . S
C663 H651 0.950 . S
C663 C659 1.393 . S
C663 C662 1.391 . S
H664 C672 0.950 . S
H665 C677 0.950 . S
H666 C674 0.950 . S
H667 C676 0.950 . S
H668 C678 0.950 . S
H669 C680 0.950 . S
H670 C682 0.950 . S
H671 C683 0.950 . S
C672 H664 0.950 . S
C672 C673 1.386 . S
C672 C674 1.391 . S
C673 C672 1.386 . S
C673 C677 1.393 . S
C674 H666 0.950 . S
C674 C672 1.391 . S
C674 C675 1.400 . S
C675 C674 1.400 . S
C675 C676 1.398 . S
C675 C681 1.491 . S
C676 H667 0.950 . S
C676 C675 1.398 . S
C676 C677 1.391 . S
C677 H665 0.950 . S
C677 C673 1.393 . S
C677 C676 1.391 . S
C678 H668 0.950 . S
C678 C679 1.386 . S
C678 C680 1.391 . S
C679 C678 1.386 . S
C679 C683 1.393 . S
C680 H669 0.950 . S
C680 C678 1.391 . S
C680 C681 1.400 . S
C681 C675 1.491 . S
C681 C680 1.400 . S
C681 C682 1.398 . S
C682 H670 0.950 . S
C682 C681 1.398 . S
C682 C683 1.391 . S
C683 H671 0.950 . S
C683 C679 1.393 . S
C683 C682 1.391 . S
H684 C692 0.950 . S
H685 C697 0.950 . S
H686 C694 0.950 . S
H687 C696 0.950 . S
H688 C698 0.950 1_554 S
H689 C700 0.950 . S
H690 C702 0.950 . S
H691 C703 0.950 . S
C692 H684 0.950 . S
C692 C693 1.386 . S
C692 C694 1.391 . S
C693 C692 1.386 . S
C693 C697 1.393 . S
C694 H686 0.950 . S
C694 C692 1.391 . S
C694 C695 1.400 . S
C695 C694 1.400 . S
C695 C696 1.398 . S
C695 C701 1.491 . S
C696 H687 0.950 . S
C696 C695 1.398 . S
C696 C697 1.391 . S
C697 H685 0.950 . S
C697 C693 1.393 . S
C697 C696 1.391 . S
C698 H688 0.950 1_556 S
C698 C699 1.386 1_556 S
C698 C700 1.390 . S
C699 C698 1.386 1_554 S
C699 C703 1.393 . S
C700 H689 0.950 . S
C700 C698 1.390 . S
C700 C701 1.400 . S
C701 C695 1.491 . S
C701 C700 1.400 . S
C701 C702 1.398 . S
C702 H690 0.950 . S
C702 C701 1.398 . S
C702 C703 1.391 1_556 S
C703 H691 0.950 . S
C703 C699 1.393 . S
C703 C702 1.391 1_554 S
H704 C712 0.949 1_554 S
H705 C717 0.950 . S
H706 C714 0.950 . S
H707 C716 0.950 . S
H708 C718 0.950 . S
H709 C720 0.950 . S
H710 C722 0.950 . S
H711 C723 0.950 . S
C712 H704 0.949 1_556 S
C712 C713 1.385 1_556 S
C712 C714 1.392 . S
C713 C712 1.385 1_554 S
C713 C717 1.393 . S
C714 H706 0.950 . S
C714 C712 1.392 . S
C714 C715 1.400 . S
C715 C714 1.400 . S
C715 C716 1.398 . S
C715 C721 1.491 . S
C716 H707 0.950 . S
C716 C715 1.398 . S
C716 C717 1.391 1_556 S
C717 H705 0.950 . S
C717 C713 1.393 . S
C717 C716 1.391 1_554 S
C718 H708 0.950 . S
C718 C719 1.386 . S
C718 C720 1.391 . S
C719 C718 1.386 . S
C719 C723 1.393 . S
C720 H709 0.950 . S
C720 C718 1.391 . S
C720 C721 1.400 . S
C721 C715 1.491 . S
C721 C720 1.400 . S
C721 C722 1.398 . S
C722 H710 0.950 . S
C722 C721 1.398 . S
C722 C723 1.391 . S
C723 H711 0.950 . S
C723 C719 1.393 . S
C723 C722 1.391 . S
H724 C732 0.950 . S
H725 C737 0.950 . S
H726 C734 0.950 . S
H727 C736 0.950 . S
H728 C738 0.950 . S
H729 C740 0.950 . S
H730 C742 0.950 . S
H731 C743 0.950 . S
C732 H724 0.950 . S
C732 C733 1.386 . S
C732 C734 1.391 . S
C733 C732 1.386 . S
C733 C737 1.393 . S
C734 H726 0.950 . S
C734 C732 1.391 . S
C734 C735 1.400 . S
C735 C734 1.400 . S
C735 C736 1.398 . S
C735 C741 1.491 . S
C736 H727 0.950 . S
C736 C735 1.398 . S
C736 C737 1.391 . S
C737 H725 0.950 . S
C737 C733 1.393 . S
C737 C736 1.391 . S
C738 H728 0.950 . S
C738 C739 1.386 . S
C738 C740 1.391 1_554 S
C739 C738 1.386 . S
C739 C743 1.393 . S
C740 H729 0.950 . S
C740 C738 1.391 1_556 S
C740 C741 1.400 . S
C741 C735 1.491 . S
C741 C740 1.400 . S
C741 C742 1.398 . S
C742 H730 0.950 . S
C742 C741 1.398 . S
C742 C743 1.391 1_556 S
C743 H731 0.950 . S
C743 C739 1.393 . S
C743 C742 1.391 1_554 S
H744 C752 0.950 . S
H745 C757 0.950 . S
H746 C754 0.950 . S
H747 C756 0.950 . S
H748 C758 0.950 . S
H749 C760 0.950 . S
H750 C762 0.950 . S
H751 C763 0.940 . S
C752 H744 0.950 . S
C752 C753 1.386 . S
C752 C754 1.391 . S
C753 C752 1.386 . S
C753 C757 1.393 . S
C754 H746 0.950 . S
C754 C752 1.391 . S
C754 C755 1.400 . S
C755 C754 1.400 . S
C755 C756 1.398 . S
C755 C761 1.491 . S
C756 H747 0.950 . S
C756 C755 1.398 . S
C756 C757 1.391 . S
C757 H745 0.950 . S
C757 C753 1.393 . S
C757 C756 1.391 . S
C758 H748 0.950 . S
C758 C759 1.386 . S
C758 C760 1.391 . S
C759 C758 1.386 . S
C759 C763 1.396 1_455 S
C760 H749 0.950 . S
C760 C758 1.391 . S
C760 C761 1.400 1_455 S
C761 C755 1.491 . S
C761 C760 1.400 1_655 S
C761 C762 1.398 . S
C762 H750 0.950 . S
C762 C761 1.398 . S
C762 C763 1.399 . S
C763 H751 0.940 . S
C763 C759 1.396 1_655 S
C763 C762 1.399 . S
H764 C772 0.950 . S
H765 C777 0.950 . S
H766 C774 0.950 . S
H767 C776 0.950 . S
H768 C778 0.950 . S
H769 C780 0.950 . S
H770 C782 0.950 . S
H771 C783 0.950 . S
C772 H764 0.950 . S
C772 C773 1.386 . S
C772 C774 1.391 . S
C773 C772 1.386 . S
C773 C777 1.393 . S
C774 H766 0.950 . S
C774 C772 1.391 . S
C774 C775 1.400 . S
C775 C774 1.400 . S
C775 C776 1.398 . S
C775 C781 1.491 . S
C776 H767 0.950 . S
C776 C775 1.398 . S
C776 C777 1.391 . S
C777 H765 0.950 . S
C777 C773 1.393 . S
C777 C776 1.391 . S
C778 H768 0.950 . S
C778 C779 1.386 . S
C778 C780 1.391 . S
C779 C778 1.386 . S
C779 C783 1.393 . S
C780 H769 0.950 . S
C780 C778 1.391 . S
C780 C781 1.400 . S
C781 C775 1.491 . S
C781 C780 1.400 . S
C781 C782 1.398 . S
C782 H770 0.950 . S
C782 C781 1.398 . S
C782 C783 1.391 . S
C783 H771 0.950 . S
C783 C779 1.393 . S
C783 C782 1.391 . S
H784 C792 0.950 . S
H785 C797 0.950 . S
H786 C794 0.950 . S
H787 C796 0.950 . S
H788 C798 0.950 . S
H789 C800 0.950 . S
H790 C802 0.950 . S
H791 C803 0.950 . S
C792 H784 0.950 . S
C792 C793 1.386 . S
C792 C794 1.391 . S
C793 C792 1.386 . S
C793 C797 1.393 . S
C794 H786 0.950 . S
C794 C792 1.391 . S
C794 C795 1.400 . S
C795 C794 1.400 . S
C795 C796 1.398 . S
C795 C801 1.491 . S
C796 H787 0.950 . S
C796 C795 1.398 . S
C796 C797 1.391 . S
C797 H785 0.950 . S
C797 C793 1.393 . S
C797 C796 1.391 . S
C798 H788 0.950 . S
C798 C799 1.386 1_545 S
C798 C800 1.391 . S
C799 C798 1.386 1_565 S
C799 C803 1.393 . S
C800 H789 0.950 . S
C800 C798 1.391 . S
C800 C801 1.400 . S
C801 C795 1.491 . S
C801 C800 1.400 . S
C801 C802 1.398 1_545 S
C802 H790 0.950 . S
C802 C801 1.398 1_565 S
C802 C803 1.391 . S
C803 H791 0.950 . S
C803 C799 1.393 . S
C803 C802 1.391 . S
H804 C812 0.950 . S
H805 C817 0.950 . S
H806 C814 0.950 . S
H807 C816 0.950 . S
H808 C818 0.950 . S
H809 C820 0.950 1_545 S
H810 C822 0.950 . S
H811 C823 0.950 . S
C812 H804 0.950 . S
C812 C813 1.386 1_565 S
C812 C814 1.391 . S
C813 C812 1.386 1_545 S
C813 C817 1.393 . S
C814 H806 0.950 . S
C814 C812 1.391 . S
C814 C815 1.400 . S
C815 C814 1.400 . S
C815 C816 1.398 1_565 S
C815 C821 1.491 . S
C816 H807 0.950 . S
C816 C815 1.398 1_545 S
C816 C817 1.391 . S
C817 H805 0.950 . S
C817 C813 1.393 . S
C817 C816 1.391 . S
C818 H808 0.950 . S
C818 C819 1.386 . S
C818 C820 1.391 . S
C819 C818 1.386 . S
C819 C823 1.393 . S
C820 H809 0.950 1_565 S
C820 C818 1.391 . S
C820 C821 1.400 . S
C821 C815 1.491 . S
C821 C820 1.400 . S
C821 C822 1.398 . S
C822 H810 0.950 . S
C822 C821 1.398 . S
C822 C823 1.391 . S
C823 H811 0.950 . S
C823 C819 1.393 . S
C823 C822 1.391 . S
H824 C832 0.950 . S
H825 C837 0.950 . S
H826 C834 0.950 . S
H827 C836 0.950 . S
H828 C838 0.950 1_655 S
H829 C840 0.950 . S
H830 C842 0.950 . S
H831 C843 0.950 . S
C832 H824 0.950 . S
C832 C833 1.386 1_455 S
C832 C834 1.391 . S
C833 C832 1.386 1_655 S
C833 C837 1.393 . S
C834 H826 0.950 . S
C834 C832 1.391 . S
C834 C835 1.400 . S
C835 C834 1.400 . S
C835 C836 1.398 1_455 S
C835 C841 1.491 . S
C836 H827 0.950 . S
C836 C835 1.398 1_655 S
C836 C837 1.391 . S
C837 H825 0.950 . S
C837 C833 1.393 . S
C837 C836 1.391 . S
C838 H828 0.950 1_455 S
C838 C839 1.386 . S
C838 C840 1.391 1_455 S
C839 C838 1.386 . S
C839 C843 1.393 . S
C840 H829 0.950 . S
C840 C838 1.391 1_655 S
C840 C841 1.400 1_655 S
C841 C835 1.491 . S
C841 C840 1.400 1_455 S
C841 C842 1.398 . S
C842 H830 0.950 . S
C842 C841 1.398 . S
C842 C843 1.391 . S
C843 H831 0.950 . S
C843 C839 1.393 . S
C843 C842 1.391 . S
H844 C852 0.950 . S
H845 C857 0.950 . S
H846 C854 0.950 . S
H847 C856 0.950 . S
H848 C858 0.950 . S
H849 C860 0.950 . S
H850 C862 0.950 . S
H851 C863 0.950 . S
C852 H844 0.950 . S
C852 C853 1.386 . S
C852 C854 1.391 . S
C853 C852 1.386 . S
C853 C857 1.393 . S
C854 H846 0.950 . S
C854 C852 1.391 . S
C854 C855 1.400 . S
C855 C854 1.400 . S
C855 C856 1.398 . S
C855 C861 1.491 . S
C856 H847 0.950 . S
C856 C855 1.398 . S
C856 C857 1.391 . S
C857 H845 0.950 . S
C857 C853 1.393 . S
C857 C856 1.391 . S
C858 H848 0.950 . S
C858 C859 1.386 . S
C858 C860 1.391 . S
C859 C858 1.386 . S
C859 C863 1.393 . S
C860 H849 0.950 . S
C860 C858 1.391 . S
C860 C861 1.400 . S
C861 C855 1.491 . S
C861 C860 1.400 . S
C861 C862 1.398 . S
C862 H850 0.950 . S
C862 C861 1.398 . S
C862 C863 1.391 . S
C863 H851 0.950 . S
C863 C859 1.393 . S
C863 C862 1.391 . S
H864 C872 0.950 . S
H865 C877 0.950 . S
H866 C874 0.950 . S
H867 C876 0.950 . S
H868 C878 0.950 . S
H869 C880 0.950 . S
H870 C882 0.950 . S
H871 C883 0.950 . S
C872 H864 0.950 . S
C872 C873 1.386 . S
C872 C874 1.391 . S
C873 C872 1.386 . S
C873 C877 1.393 . S
C874 H866 0.950 . S
C874 C872 1.391 . S
C874 C875 1.400 . S
C875 C874 1.400 . S
C875 C876 1.398 . S
C875 C881 1.491 . S
C876 H867 0.950 . S
C876 C875 1.398 . S
C876 C877 1.391 . S
C877 H865 0.950 . S
C877 C873 1.393 . S
C877 C876 1.391 . S
C878 H868 0.950 . S
C878 C879 1.386 . S
C878 C880 1.391 . S
C879 C878 1.386 . S
C879 C883 1.393 . S
C880 H869 0.950 . S
C880 C878 1.391 . S
C880 C881 1.400 . S
C881 C875 1.491 . S
C881 C880 1.400 . S
C881 C882 1.398 . S
C882 H870 0.950 . S
C882 C881 1.398 . S
C882 C883 1.391 . S
C883 H871 0.950 . S
C883 C879 1.393 . S
C883 C882 1.391 . S
H884 C892 0.950 . S
H885 C897 0.950 . S
H886 C894 0.950 . S
H887 C896 0.950 . S
H888 C898 0.950 . S
H889 C900 0.950 . S
H890 C902 0.950 . S
H891 C903 0.950 . S
C892 H884 0.950 . S
C892 C893 1.386 . S
C892 C894 1.391 . S
C893 C892 1.386 . S
C893 C897 1.393 . S
C894 H886 0.950 . S
C894 C892 1.391 . S
C894 C895 1.400 . S
C895 C894 1.400 . S
C895 C896 1.398 . S
C895 C901 1.491 . S
C896 H887 0.950 . S
C896 C895 1.398 . S
C896 C897 1.391 . S
C897 H885 0.950 . S
C897 C893 1.393 . S
C897 C896 1.391 . S
C898 H888 0.950 . S
C898 C899 1.386 . S
C898 C900 1.391 . S
C899 C898 1.386 . S
C899 C903 1.393 . S
C900 H889 0.950 . S
C900 C898 1.391 . S
C900 C901 1.400 . S
C901 C895 1.491 . S
C901 C900 1.400 . S
C901 C902 1.398 . S
C902 H890 0.950 . S
C902 C901 1.398 . S
C902 C903 1.391 . S
C903 H891 0.950 . S
C903 C899 1.393 . S
C903 C902 1.391 . S
H904 C912 0.950 . S
H905 C917 0.950 . S
H906 C914 0.950 . S
H907 C916 0.950 . S
H908 C918 0.950 . S
H909 C920 0.950 . S
H910 C922 0.950 . S
H911 C923 0.950 . S
C912 H904 0.950 . S
C912 C913 1.386 . S
C912 C914 1.391 . S
C913 C912 1.386 . S
C913 C917 1.393 . S
C914 H906 0.950 . S
C914 C912 1.391 . S
C914 C915 1.400 . S
C915 C914 1.400 . S
C915 C916 1.398 . S
C915 C921 1.491 . S
C916 H907 0.950 . S
C916 C915 1.398 . S
C916 C917 1.391 . S
C917 H905 0.950 . S
C917 C913 1.393 . S
C917 C916 1.391 . S
C918 H908 0.950 . S
C918 C919 1.386 . S
C918 C920 1.391 . S
C919 C918 1.386 . S
C919 C923 1.393 . S
C920 H909 0.950 . S
C920 C918 1.391 . S
C920 C921 1.400 . S
C921 C915 1.491 . S
C921 C920 1.400 . S
C921 C922 1.398 . S
C922 H910 0.950 . S
C922 C921 1.398 . S
C922 C923 1.391 . S
C923 H911 0.950 . S
C923 C919 1.393 . S
C923 C922 1.391 . S
H924 C932 0.950 . S
H925 C937 0.950 . S
H926 C934 0.950 . S
H927 C936 0.950 . S
H928 C938 0.950 . S
H929 C940 0.950 . S
H930 C942 0.950 . S
H931 C943 0.950 . S
C932 H924 0.950 . S
C932 C933 1.386 . S
C932 C934 1.391 . S
C933 C932 1.386 . S
C933 C937 1.393 . S
C934 H926 0.950 . S
C934 C932 1.391 . S
C934 C935 1.400 . S
C935 C934 1.400 . S
C935 C936 1.398 . S
C935 C941 1.491 . S
C936 H927 0.950 . S
C936 C935 1.398 . S
C936 C937 1.391 . S
C937 H925 0.950 . S
C937 C933 1.393 . S
C937 C936 1.391 . S
C938 H928 0.950 . S
C938 C939 1.386 . S
C938 C940 1.391 . S
C939 C938 1.386 . S
C939 C943 1.393 . S
C940 H929 0.950 . S
C940 C938 1.391 . S
C940 C941 1.400 . S
C941 C935 1.491 . S
C941 C940 1.400 . S
C941 C942 1.398 . S
C942 H930 0.950 . S
C942 C941 1.398 . S
C942 C943 1.391 . S
C943 H931 0.950 . S
C943 C939 1.393 . S
C943 C942 1.391 . S
H944 C952 0.950 . S
H945 C957 0.950 . S
H946 C954 0.950 . S
H947 C956 0.950 . S
H948 C958 0.950 . S
H949 C960 0.950 . S
H950 C962 0.950 . S
H951 C963 0.950 . S
C952 H944 0.950 . S
C952 C953 1.386 . S
C952 C954 1.391 . S
C953 C952 1.386 . S
C953 C957 1.393 . S
C954 H946 0.950 . S
C954 C952 1.391 . S
C954 C955 1.400 . S
C955 C954 1.400 . S
C955 C956 1.398 . S
C955 C961 1.491 . S
C956 H947 0.950 . S
C956 C955 1.398 . S
C956 C957 1.391 . S
C957 H945 0.950 . S
C957 C953 1.393 . S
C957 C956 1.391 . S
C958 H948 0.950 . S
C958 C959 1.386 . S
C958 C960 1.391 . S
C959 C958 1.386 . S
C959 C963 1.393 . S
C960 H949 0.950 . S
C960 C958 1.391 . S
C960 C961 1.400 . S
C961 C955 1.491 . S
C961 C960 1.400 . S
C961 C962 1.398 . S
C962 H950 0.950 . S
C962 C961 1.398 . S
C962 C963 1.391 . S
C963 H951 0.950 . S
C963 C959 1.393 . S
C963 C962 1.391 . S
H964 C972 0.950 . S
H965 C977 0.950 . S
H966 C974 0.950 . S
H967 C976 0.950 . S
H968 C978 0.950 . S
H969 C980 0.950 . S
H970 C982 0.950 . S
H971 C983 0.950 . S
C972 H964 0.950 . S
C972 C973 1.386 . S
C972 C974 1.391 . S
C973 C972 1.386 . S
C973 C977 1.393 . S
C974 H966 0.950 . S
C974 C972 1.391 . S
C974 C975 1.400 . S
C975 C974 1.400 . S
C975 C976 1.398 . S
C975 C981 1.491 . S
C976 H967 0.950 . S
C976 C975 1.398 . S
C976 C977 1.391 . S
C977 H965 0.950 . S
C977 C973 1.393 . S
C977 C976 1.391 . S
C978 H968 0.950 . S
C978 C979 1.386 . S
C978 C980 1.391 . S
C979 C978 1.386 . S
C979 C983 1.393 . S
C980 H969 0.950 . S
C980 C978 1.391 . S
C980 C981 1.400 . S
C981 C975 1.491 . S
C981 C980 1.400 . S
C981 C982 1.398 . S
C982 H970 0.950 . S
C982 C981 1.398 . S
C982 C983 1.391 . S
C983 H971 0.950 . S
C983 C979 1.393 . S
C983 C982 1.391 . S
H984 C992 0.950 . S
H985 C997 0.950 . S
H986 C994 0.950 . S
H987 C996 0.950 . S
H988 C998 0.950 . S
H989 C1000 0.950 . S
H990 C1002 0.950 . S
H991 C1003 0.950 . S
C992 H984 0.950 . S
C992 C993 1.386 . S
C992 C994 1.391 . S
C993 C992 1.386 . S
C993 C997 1.393 . S
C994 H986 0.950 . S
C994 C992 1.391 . S
C994 C995 1.400 . S
C995 C994 1.400 . S
C995 C996 1.398 . S
C995 C1001 1.491 . S
C996 H987 0.950 . S
C996 C995 1.398 . S
C996 C997 1.391 . S
C997 H985 0.950 . S
C997 C993 1.393 . S
C997 C996 1.391 . S
C998 H988 0.950 . S
C998 C999 1.386 . S
C998 C1000 1.391 . S
C999 C998 1.386 . S
C999 C1003 1.393 . S
C1000 H989 0.950 . S
C1000 C998 1.391 . S
C1000 C1001 1.400 . S
C1001 C995 1.491 . S
C1001 C1000 1.400 . S
C1001 C1002 1.398 . S
C1002 H990 0.950 . S
C1002 C1001 1.398 . S
C1002 C1003 1.391 . S
C1003 H991 0.950 . S
C1003 C999 1.393 . S
C1003 C1002 1.391 . S
H1004 C1012 0.950 . S
H1005 C1017 0.950 . S
H1006 C1014 0.950 . S
H1007 C1016 0.950 . S
H1008 C1018 0.950 . S
H1009 C1020 0.950 . S
H1010 C1022 0.950 . S
H1011 C1023 0.950 . S
C1012 H1004 0.950 . S
C1012 C1013 1.386 . S
C1012 C1014 1.391 . S
C1013 C1012 1.386 . S
C1013 C1017 1.393 . S
C1014 H1006 0.950 . S
C1014 C1012 1.391 . S
C1014 C1015 1.400 . S
C1015 C1014 1.400 . S
C1015 C1016 1.398 . S
C1015 C1021 1.491 . S
C1016 H1007 0.950 . S
C1016 C1015 1.398 . S
C1016 C1017 1.391 . S
C1017 H1005 0.950 . S
C1017 C1013 1.393 . S
C1017 C1016 1.391 . S
C1018 H1008 0.950 . S
C1018 C1019 1.386 . S
C1018 C1020 1.391 . S
C1019 C1018 1.386 . S
C1019 C1023 1.393 . S
C1020 H1009 0.950 . S
C1020 C1018 1.391 . S
C1020 C1021 1.400 . S
C1021 C1015 1.491 . S
C1021 C1020 1.400 . S
C1021 C1022 1.398 . S
C1022 H1010 0.950 . S
C1022 C1021 1.398 . S
C1022 C1023 1.391 . S
C1023 H1011 0.950 . S
C1023 C1019 1.393 . S
C1023 C1022 1.391 . S
H1024 C1032 0.950 . S
H1025 C1037 0.950 . S
H1026 C1034 0.950 . S
H1027 C1036 0.950 . S
H1028 C1038 0.950 . S
H1029 C1040 0.950 . S
H1030 C1042 0.950 . S
H1031 C1043 0.950 . S
C1032 H1024 0.950 . S
C1032 C1033 1.386 . S
C1032 C1034 1.391 . S
C1033 C1032 1.386 . S
C1033 C1037 1.393 . S
C1034 H1026 0.950 . S
C1034 C1032 1.391 . S
C1034 C1035 1.400 . S
C1035 C1034 1.400 . S
C1035 C1036 1.398 . S
C1035 C1041 1.491 . S
C1036 H1027 0.950 . S
C1036 C1035 1.398 . S
C1036 C1037 1.391 . S
C1037 H1025 0.950 . S
C1037 C1033 1.393 . S
C1037 C1036 1.391 . S
C1038 H1028 0.950 . S
C1038 C1039 1.386 . S
C1038 C1040 1.391 . S
C1039 C1038 1.386 . S
C1039 C1043 1.393 . S
C1040 H1029 0.950 . S
C1040 C1038 1.391 . S
C1040 C1041 1.400 . S
C1041 C1035 1.491 . S
C1041 C1040 1.400 . S
C1041 C1042 1.398 . S
C1042 H1030 0.950 . S
C1042 C1041 1.398 . S
C1042 C1043 1.391 . S
C1043 H1031 0.950 . S
C1043 C1039 1.393 . S
C1043 C1042 1.391 . S
H1044 C1052 0.950 . S
H1045 C1057 0.950 . S
H1046 C1054 0.950 . S
H1047 C1056 0.950 . S
H1048 C1058 0.950 . S
H1049 C1060 0.950 . S
H1050 C1062 0.950 . S
H1051 C1063 0.950 . S
C1052 H1044 0.950 . S
C1052 C1053 1.386 . S
C1052 C1054 1.391 . S
C1053 C1052 1.386 . S
C1053 C1057 1.393 . S
C1054 H1046 0.950 . S
C1054 C1052 1.391 . S
C1054 C1055 1.400 . S
C1055 C1054 1.400 . S
C1055 C1056 1.398 . S
C1055 C1061 1.491 . S
C1056 H1047 0.950 . S
C1056 C1055 1.398 . S
C1056 C1057 1.391 . S
C1057 H1045 0.950 . S
C1057 C1053 1.393 . S
C1057 C1056 1.391 . S
C1058 H1048 0.950 . S
C1058 C1059 1.386 . S
C1058 C1060 1.391 . S
C1059 C1058 1.386 . S
C1059 C1063 1.393 . S
C1060 H1049 0.950 . S
C1060 C1058 1.391 . S
C1060 C1061 1.400 . S
C1061 C1055 1.491 . S
C1061 C1060 1.400 . S
C1061 C1062 1.398 . S
C1062 H1050 0.950 . S
C1062 C1061 1.398 . S
C1062 C1063 1.391 . S
C1063 H1051 0.950 . S
C1063 C1059 1.393 . S
C1063 C1062 1.391 . S
H1064 C1072 0.950 . S
H1065 C1077 0.950 . S
H1066 C1074 0.950 . S
H1067 C1076 0.950 . S
H1068 C1078 0.950 . S
H1069 C1080 0.950 . S
H1070 C1082 0.950 . S
H1071 C1083 0.950 . S
C1072 H1064 0.950 . S
C1072 C1073 1.386 . S
C1072 C1074 1.391 . S
C1073 C1072 1.386 . S
C1073 C1077 1.393 . S
C1074 H1066 0.950 . S
C1074 C1072 1.391 . S
C1074 C1075 1.400 . S
C1075 C1074 1.400 . S
C1075 C1076 1.398 . S
C1075 C1081 1.491 . S
C1076 H1067 0.950 . S
C1076 C1075 1.398 . S
C1076 C1077 1.391 . S
C1077 H1065 0.950 . S
C1077 C1073 1.393 . S
C1077 C1076 1.391 . S
C1078 H1068 0.950 . S
C1078 C1079 1.386 . S
C1078 C1080 1.391 . S
C1079 C1078 1.386 . S
C1079 C1083 1.393 . S
C1080 H1069 0.950 . S
C1080 C1078 1.391 . S
C1080 C1081 1.400 . S
C1081 C1075 1.491 . S
C1081 C1080 1.400 . S
C1081 C1082 1.398 . S
C1082 H1070 0.950 . S
C1082 C1081 1.398 . S
C1082 C1083 1.391 . S
C1083 H1071 0.950 . S
C1083 C1079 1.393 . S
C1083 C1082 1.391 . S
H1084 C1092 0.950 . S
H1085 C1097 0.950 . S
H1086 C1094 0.950 . S
H1087 C1096 0.950 . S
H1088 C1098 0.950 . S
H1089 C1100 0.950 . S
H1090 C1102 0.950 . S
H1091 C1103 0.950 . S
C1092 H1084 0.950 . S
C1092 C1093 1.386 . S
C1092 C1094 1.391 . S
C1093 C1092 1.386 . S
C1093 C1097 1.393 . S
C1094 H1086 0.950 . S
C1094 C1092 1.391 . S
C1094 C1095 1.400 . S
C1095 C1094 1.400 . S
C1095 C1096 1.398 . S
C1095 C1101 1.491 . S
C1096 H1087 0.950 . S
C1096 C1095 1.398 . S
C1096 C1097 1.391 . S
C1097 H1085 0.950 . S
C1097 C1093 1.393 . S
C1097 C1096 1.391 . S
C1098 H1088 0.950 . S
C1098 C1099 1.386 . S
C1098 C1100 1.391 . S
C1099 C1098 1.386 . S
C1099 C1103 1.393 . S
C1100 H1089 0.950 . S
C1100 C1098 1.391 . S
C1100 C1101 1.400 . S
C1101 C1095 1.491 . S
C1101 C1100 1.400 . S
C1101 C1102 1.398 . S
C1102 H1090 0.950 . S
C1102 C1101 1.398 . S
C1102 C1103 1.391 . S
C1103 H1091 0.950 . S
C1103 C1099 1.393 . S
C1103 C1102 1.391 . S
H1104 C1112 0.950 . S
H1105 C1117 0.950 . S
H1106 C1114 0.950 . S
H1107 C1116 0.925 1_655 S
H1108 C1118 0.950 . S
H1109 C1120 0.950 . S
H1110 C1122 0.925 1_455 S
H1111 C1123 0.950 . S
C1112 H1104 0.950 . S
C1112 C1113 1.386 . S
C1112 C1114 1.391 . S
C1113 C1112 1.386 . S
C1113 C1117 1.393 . S
C1114 H1106 0.950 . S
C1114 C1112 1.391 . S
C1114 C1115 1.400 . S
C1115 C1114 1.400 . S
C1115 C1116 1.396 . S
C1115 C1121 1.491 1_455 S
C1116 H1107 0.925 1_455 S
C1116 C1115 1.396 . S
C1116 C1117 1.418 . S
C1117 H1105 0.950 . S
C1117 C1113 1.393 . S
C1117 C1116 1.418 . S
C1118 H1108 0.950 . S
C1118 C1119 1.386 . S
C1118 C1120 1.391 . S
C1119 C1118 1.386 . S
C1119 C1123 1.393 . S
C1120 H1109 0.950 . S
C1120 C1118 1.391 . S
C1120 C1121 1.400 . S
C1121 C1115 1.491 1_655 S
C1121 C1120 1.400 . S
C1121 C1122 1.396 . S
C1122 H1110 0.925 1_655 S
C1122 C1121 1.396 . S
C1122 C1123 1.418 . S
C1123 H1111 0.950 . S
C1123 C1119 1.393 . S
C1123 C1122 1.418 . S
H1124 C1132 0.950 . S
H1125 C1137 0.950 . S
H1126 C1134 0.950 . S
H1127 C1136 0.950 . S
H1128 C1138 0.950 . S
H1129 C1140 0.950 . S
H1130 C1142 0.950 . S
H1131 C1143 0.950 . S
C1132 H1124 0.950 . S
C1132 C1133 1.386 . S
C1132 C1134 1.391 . S
C1133 C1132 1.386 . S
C1133 C1137 1.393 . S
C1134 H1126 0.950 . S
C1134 C1132 1.391 . S
C1134 C1135 1.400 . S
C1135 C1134 1.400 . S
C1135 C1136 1.398 . S
C1135 C1141 1.491 . S
C1136 H1127 0.950 . S
C1136 C1135 1.398 . S
C1136 C1137 1.391 . S
C1137 H1125 0.950 . S
C1137 C1133 1.393 . S
C1137 C1136 1.391 . S
C1138 H1128 0.950 . S
C1138 C1139 1.386 . S
C1138 C1140 1.391 . S
C1139 C1138 1.386 . S
C1139 C1143 1.393 . S
C1140 H1129 0.950 . S
C1140 C1138 1.391 . S
C1140 C1141 1.400 . S
C1141 C1135 1.491 . S
C1141 C1140 1.400 . S
C1141 C1142 1.398 . S
C1142 H1130 0.950 . S
C1142 C1141 1.398 . S
C1142 C1143 1.391 . S
C1143 H1131 0.950 . S
C1143 C1139 1.393 . S
C1143 C1142 1.391 . S
H1144 C1152 0.950 . S
H1145 C1157 0.950 . S
H1146 C1154 0.950 . S
H1147 C1156 0.950 1_565 S
H1148 C1158 0.950 . S
H1149 C1160 0.950 . S
H1150 C1162 0.950 1_545 S
H1151 C1163 0.950 . S
C1152 H1144 0.950 . S
C1152 C1153 1.386 . S
C1152 C1154 1.391 . S
C1153 C1152 1.386 . S
C1153 C1157 1.393 . S
C1154 H1146 0.950 . S
C1154 C1152 1.391 . S
C1154 C1155 1.400 . S
C1155 C1154 1.400 . S
C1155 C1156 1.398 . S
C1155 C1161 1.491 1_545 S
C1156 H1147 0.950 1_545 S
C1156 C1155 1.398 . S
C1156 C1157 1.391 . S
C1157 H1145 0.950 . S
C1157 C1153 1.393 . S
C1157 C1156 1.391 . S
C1158 H1148 0.950 . S
C1158 C1159 1.386 . S
C1158 C1160 1.391 . S
C1159 C1158 1.386 . S
C1159 C1163 1.393 . S
C1160 H1149 0.950 . S
C1160 C1158 1.391 . S
C1160 C1161 1.400 . S
C1161 C1155 1.491 1_565 S
C1161 C1160 1.400 . S
C1161 C1162 1.398 . S
C1162 H1150 0.950 1_565 S
C1162 C1161 1.398 . S
C1162 C1163 1.391 . S
C1163 H1151 0.950 . S
C1163 C1159 1.393 . S
C1163 C1162 1.391 . S
H1164 C1172 0.950 . S
H1165 C1177 0.950 . S
H1166 C1174 0.950 . S
H1167 C1176 0.950 . S
H1168 C1178 0.950 . S
H1169 C1180 0.950 . S
H1170 C1182 0.950 . S
H1171 C1183 0.950 . S
C1172 H1164 0.950 . S
C1172 C1173 1.386 . S
C1172 C1174 1.391 . S
C1173 C1172 1.386 . S
C1173 C1177 1.393 1_554 S
C1174 H1166 0.950 . S
C1174 C1172 1.391 . S
C1174 C1175 1.408 . S
C1175 C1174 1.408 . S
C1175 C1176 1.391 1_554 S
C1175 C1181 1.490 1_544 S
C1176 H1167 0.950 . S
C1176 C1175 1.391 1_556 S
C1176 C1177 1.391 . S
C1177 H1165 0.950 . S
C1177 C1173 1.393 1_556 S
C1177 C1176 1.391 . S
C1178 H1168 0.950 . S
C1178 C1179 1.386 . S
C1178 C1180 1.391 . S
C1179 C1178 1.386 . S
C1179 C1183 1.393 1_556 S
C1180 H1169 0.950 . S
C1180 C1178 1.391 . S
C1180 C1181 1.413 . S
C1181 C1175 1.490 1_566 S
C1181 C1180 1.413 . S
C1181 C1182 1.386 1_556 S
C1182 H1170 0.950 . S
C1182 C1181 1.386 1_554 S
C1182 C1183 1.391 . S
C1183 H1171 0.950 . S
C1183 C1179 1.393 1_554 S
C1183 C1182 1.391 . S
H1184 C1192 0.950 . S
H1185 C1197 0.950 . S
H1186 C1194 0.959 . S
H1187 C1196 0.950 . S
H1188 C1198 0.950 . S
H1189 C1200 0.959 . S
H1190 C1202 0.950 . S
H1191 C1203 0.950 . S
C1192 H1184 0.950 . S
C1192 C1193 1.386 1_554 S
C1192 C1194 1.390 1_455 S
C1193 C1192 1.386 1_556 S
C1193 C1197 1.393 . S
C1194 H1186 0.959 . S
C1194 C1192 1.390 1_655 S
C1194 C1195 1.393 1_654 S
C1195 C1194 1.393 1_456 S
C1195 C1196 1.398 . S
C1195 C1201 1.491 1_456 S
C1196 H1187 0.950 . S
C1196 C1195 1.398 . S
C1196 C1197 1.391 . S
C1197 H1185 0.950 . S
C1197 C1193 1.393 . S
C1197 C1196 1.391 . S
C1198 H1188 0.950 . S
C1198 C1199 1.386 1_556 S
C1198 C1200 1.390 1_655 S
C1199 C1198 1.386 1_554 S
C1199 C1203 1.393 . S
C1200 H1189 0.959 . S
C1200 C1198 1.390 1_455 S
C1200 C1201 1.393 1_456 S
C1201 C1195 1.491 1_654 S
C1201 C1200 1.393 1_654 S
C1201 C1202 1.398 . S
C1202 H1190 0.950 . S
C1202 C1201 1.398 . S
C1202 C1203 1.391 . S
C1203 H1191 0.950 . S
C1203 C1199 1.393 . S
C1203 C1202 1.391 . S
H1204 C1212 0.950 . S
H1205 C1217 0.950 . S
H1206 C1214 0.950 . S
H1207 C1216 0.950 . S
H1208 C1218 0.950 . S
H1209 C1220 0.950 . S
H1210 C1222 0.950 . S
H1211 C1223 0.950 . S
C1212 H1204 0.950 . S
C1212 C1213 1.386 . S
C1212 C1214 1.391 . S
C1213 C1212 1.386 . S
C1213 C1217 1.393 1_556 S
C1214 H1206 0.950 . S
C1214 C1212 1.391 . S
C1214 C1215 1.400 1_556 S
C1215 C1214 1.400 1_554 S
C1215 C1216 1.399 . S
C1215 C1221 1.491 . S
C1216 H1207 0.950 . S
C1216 C1215 1.399 . S
C1216 C1217 1.391 . S
C1217 H1205 0.950 . S
C1217 C1213 1.393 1_554 S
C1217 C1216 1.391 . S
C1218 H1208 0.950 . S
C1218 C1219 1.386 . S
C1218 C1220 1.391 . S
C1219 C1218 1.386 . S
C1219 C1223 1.393 1_554 S
C1220 H1209 0.950 . S
C1220 C1218 1.391 . S
C1220 C1221 1.400 . S
C1221 C1215 1.491 . S
C1221 C1220 1.400 . S
C1221 C1222 1.399 1_554 S
C1222 H1210 0.950 . S
C1222 C1221 1.399 1_556 S
C1222 C1223 1.391 . S
C1223 H1211 0.950 . S
C1223 C1219 1.393 1_556 S
C1223 C1222 1.391 . S
H1224 C1232 0.950 . S
H1225 C1237 0.950 . S
H1226 C1234 0.950 . S
H1227 C1236 0.950 . S
H1228 C1238 0.950 . S
H1229 C1240 0.950 . S
H1230 C1242 0.950 . S
H1231 C1243 0.950 . S
C1232 H1224 0.950 . S
C1232 C1233 1.386 . S
C1232 C1234 1.391 . S
C1233 C1232 1.386 . S
C1233 C1237 1.393 . S
C1234 H1226 0.950 . S
C1234 C1232 1.391 . S
C1234 C1235 1.400 . S
C1235 C1234 1.400 . S
C1235 C1236 1.398 . S
C1235 C1241 1.491 . S
C1236 H1227 0.950 . S
C1236 C1235 1.398 . S
C1236 C1237 1.391 . S
C1237 H1225 0.950 . S
C1237 C1233 1.393 . S
C1237 C1236 1.391 . S
C1238 H1228 0.950 . S
C1238 C1239 1.386 . S
C1238 C1240 1.391 . S
C1239 C1238 1.386 . S
C1239 C1243 1.393 . S
C1240 H1229 0.950 . S
C1240 C1238 1.391 . S
C1240 C1241 1.400 . S
C1241 C1235 1.491 . S
C1241 C1240 1.400 . S
C1241 C1242 1.398 . S
C1242 H1230 0.950 . S
C1242 C1241 1.398 . S
C1242 C1243 1.391 . S
C1243 H1231 0.950 . S
C1243 C1239 1.393 . S
C1243 C1242 1.391 . S
H1244 C1252 0.950 . S
H1245 C1257 0.950 . S
H1246 C1254 0.950 . S
H1247 C1256 0.950 . S
H1248 C1258 0.950 . S
H1249 C1260 0.950 . S
H1250 C1262 0.950 . S
H1251 C1263 0.950 . S
C1252 H1244 0.950 . S
C1252 C1253 1.386 . S
C1252 C1254 1.391 . S
C1253 C1252 1.386 . S
C1253 C1257 1.393 . S
C1254 H1246 0.950 . S
C1254 C1252 1.391 . S
C1254 C1255 1.400 . S
C1255 C1254 1.400 . S
C1255 C1256 1.398 . S
C1255 C1261 1.491 . S
C1256 H1247 0.950 . S
C1256 C1255 1.398 . S
C1256 C1257 1.391 . S
C1257 H1245 0.950 . S
C1257 C1253 1.393 . S
C1257 C1256 1.391 . S
C1258 H1248 0.950 . S
C1258 C1259 1.386 . S
C1258 C1260 1.391 . S
C1259 C1258 1.386 . S
C1259 C1263 1.393 . S
C1260 H1249 0.950 . S
C1260 C1258 1.391 . S
C1260 C1261 1.400 . S
C1261 C1255 1.491 . S
C1261 C1260 1.400 . S
C1261 C1262 1.398 . S
C1262 H1250 0.950 . S
C1262 C1261 1.398 . S
C1262 C1263 1.391 . S
C1263 H1251 0.950 . S
C1263 C1259 1.393 . S
C1263 C1262 1.391 . S
H1264 C1272 0.950 . S
H1265 C1277 0.950 . S
H1266 C1274 0.950 . S
H1267 C1276 0.950 . S
H1268 C1278 0.950 1_556 S
H1269 C1280 0.950 . S
H1270 C1282 0.950 . S
H1271 C1283 0.950 . S
C1272 H1264 0.950 . S
C1272 C1273 1.386 . S
C1272 C1274 1.391 . S
C1273 C1272 1.386 . S
C1273 C1277 1.393 . S
C1274 H1266 0.950 . S
C1274 C1272 1.391 . S
C1274 C1275 1.400 . S
C1275 C1274 1.400 . S
C1275 C1276 1.398 . S
C1275 C1281 1.491 . S
C1276 H1267 0.950 . S
C1276 C1275 1.398 . S
C1276 C1277 1.391 . S
C1277 H1265 0.950 . S
C1277 C1273 1.393 . S
C1277 C1276 1.391 . S
C1278 H1268 0.950 1_554 S
C1278 C1279 1.386 . S
C1278 C1280 1.391 . S
C1279 C1278 1.386 . S
C1279 C1283 1.393 . S
C1280 H1269 0.950 . S
C1280 C1278 1.391 . S
C1280 C1281 1.400 . S
C1281 C1275 1.491 . S
C1281 C1280 1.400 . S
C1281 C1282 1.398 . S
C1282 H1270 0.950 . S
C1282 C1281 1.398 . S
C1282 C1283 1.391 . S
C1283 H1271 0.950 . S
C1283 C1279 1.393 . S
C1283 C1282 1.391 . S
H1284 C1292 0.950 . S
H1285 C1297 0.950 . S
H1286 C1294 0.950 . S
H1287 C1296 0.950 . S
H1288 C1298 0.950 . S
H1289 C1300 0.950 . S
H1290 C1302 0.950 . S
H1291 C1303 0.950 . S
C1292 H1284 0.950 . S
C1292 C1293 1.386 . S
C1292 C1294 1.391 . S
C1293 C1292 1.386 . S
C1293 C1297 1.393 . S
C1294 H1286 0.950 . S
C1294 C1292 1.391 . S
C1294 C1295 1.400 . S
C1295 C1294 1.400 . S
C1295 C1296 1.398 . S
C1295 C1301 1.491 . S
C1296 H1287 0.950 . S
C1296 C1295 1.398 . S
C1296 C1297 1.391 . S
C1297 H1285 0.950 . S
C1297 C1293 1.393 . S
C1297 C1296 1.391 . S
C1298 H1288 0.950 . S
C1298 C1299 1.386 . S
C1298 C1300 1.391 . S
C1299 C1298 1.386 . S
C1299 C1303 1.393 . S
C1300 H1289 0.950 . S
C1300 C1298 1.391 . S
C1300 C1301 1.400 . S
C1301 C1295 1.491 . S
C1301 C1300 1.400 . S
C1301 C1302 1.398 . S
C1302 H1290 0.950 . S
C1302 C1301 1.398 . S
C1302 C1303 1.391 . S
C1303 H1291 0.950 . S
C1303 C1299 1.393 . S
C1303 C1302 1.391 . S
H1304 C1312 0.950 . S
H1305 C1317 0.950 . S
H1306 C1314 0.950 . S
H1307 C1316 0.950 . S
H1308 C1318 0.950 . S
H1309 C1320 0.950 . S
H1310 C1322 0.950 . S
H1311 C1323 0.950 . S
C1312 H1304 0.950 . S
C1312 C1313 1.386 . S
C1312 C1314 1.391 . S
C1313 C1312 1.386 . S
C1313 C1317 1.393 . S
C1314 H1306 0.950 . S
C1314 C1312 1.391 . S
C1314 C1315 1.400 . S
C1315 C1314 1.400 . S
C1315 C1316 1.398 . S
C1315 C1321 1.491 . S
C1316 H1307 0.950 . S
C1316 C1315 1.398 . S
C1316 C1317 1.391 . S
C1317 H1305 0.950 . S
C1317 C1313 1.393 . S
C1317 C1316 1.391 . S
C1318 H1308 0.950 . S
C1318 C1319 1.386 . S
C1318 C1320 1.391 . S
C1319 C1318 1.386 . S
C1319 C1323 1.393 . S
C1320 H1309 0.950 . S
C1320 C1318 1.391 . S
C1320 C1321 1.400 . S
C1321 C1315 1.491 . S
C1321 C1320 1.400 . S
C1321 C1322 1.398 . S
C1322 H1310 0.950 . S
C1322 C1321 1.398 . S
C1322 C1323 1.391 . S
C1323 H1311 0.950 . S
C1323 C1319 1.393 . S
C1323 C1322 1.391 . S
H1324 C1332 0.950 . S
H1325 C1337 0.950 . S
H1326 C1334 0.950 . S
H1327 C1336 0.950 . S
H1328 C1338 0.950 . S
H1329 C1340 0.950 . S
H1330 C1342 0.950 . S
H1331 C1343 0.950 . S
C1332 H1324 0.950 . S
C1332 C1333 1.386 . S
C1332 C1334 1.391 . S
C1333 C1332 1.386 . S
C1333 C1337 1.393 . S
C1334 H1326 0.950 . S
C1334 C1332 1.391 . S
C1334 C1335 1.400 . S
C1335 C1334 1.400 . S
C1335 C1336 1.398 . S
C1335 C1341 1.491 . S
C1336 H1327 0.950 . S
C1336 C1335 1.398 . S
C1336 C1337 1.391 . S
C1337 H1325 0.950 . S
C1337 C1333 1.393 . S
C1337 C1336 1.391 . S
C1338 H1328 0.950 . S
C1338 C1339 1.386 . S
C1338 C1340 1.391 . S
C1339 C1338 1.386 . S
C1339 C1343 1.393 . S
C1340 H1329 0.950 . S
C1340 C1338 1.391 . S
C1340 C1341 1.400 . S
C1341 C1335 1.491 . S
C1341 C1340 1.400 . S
C1341 C1342 1.398 . S
C1342 H1330 0.950 . S
C1342 C1341 1.398 . S
C1342 C1343 1.391 . S
C1343 H1331 0.950 . S
C1343 C1339 1.393 . S
C1343 C1342 1.391 . S
H1344 C1352 0.950 1_554 S
H1345 C1357 0.950 . S
H1346 C1354 0.937 1_554 S
H1347 C1356 0.950 . S
H1348 C1358 0.950 . S
H1349 C1360 0.950 . S
H1350 C1362 0.950 . S
H1351 C1363 0.950 . S
C1352 H1344 0.950 1_556 S
C1352 C1353 1.386 . S
C1352 C1354 1.391 . S
C1353 C1352 1.386 . S
C1353 C1357 1.393 . S
C1354 H1346 0.937 1_556 S
C1354 C1352 1.391 . S
C1354 C1355 1.400 . S
C1355 C1354 1.400 . S
C1355 C1356 1.398 . S
C1355 C1361 1.491 . S
C1356 H1347 0.950 . S
C1356 C1355 1.398 . S
C1356 C1357 1.391 . S
C1357 H1345 0.950 . S
C1357 C1353 1.393 . S
C1357 C1356 1.391 . S
C1358 H1348 0.950 . S
C1358 C1359 1.386 . S
C1358 C1360 1.391 . S
C1359 C1358 1.386 . S
C1359 C1363 1.393 . S
C1360 H1349 0.950 . S
C1360 C1358 1.391 . S
C1360 C1361 1.400 . S
C1361 C1355 1.491 . S
C1361 C1360 1.400 . S
C1361 C1362 1.398 . S
C1362 H1350 0.950 . S
C1362 C1361 1.398 . S
C1362 C1363 1.391 . S
C1363 H1351 0.950 . S
C1363 C1359 1.393 . S
C1363 C1362 1.391 . S
H1364 C1372 0.950 . S
H1365 C1377 0.950 . S
H1366 C1374 0.950 . S
H1367 C1376 0.950 . S
H1368 C1378 0.950 1_554 S
H1369 C1380 0.950 . S
H1370 C1382 0.950 . S
H1371 C1383 0.950 . S
C1372 H1364 0.950 . S
C1372 C1373 1.386 . S
C1372 C1374 1.391 . S
C1373 C1372 1.386 . S
C1373 C1377 1.393 . S
C1374 H1366 0.950 . S
C1374 C1372 1.391 . S
C1374 C1375 1.400 . S
C1375 C1374 1.400 . S
C1375 C1376 1.398 . S
C1375 C1381 1.491 . S
C1376 H1367 0.950 . S
C1376 C1375 1.398 . S
C1376 C1377 1.391 . S
C1377 H1365 0.950 . S
C1377 C1373 1.393 . S
C1377 C1376 1.391 . S
C1378 H1368 0.950 1_556 S
C1378 C1379 1.386 . S
C1378 C1380 1.391 . S
C1379 C1378 1.386 . S
C1379 C1383 1.393 . S
C1380 H1369 0.950 . S
C1380 C1378 1.391 . S
C1380 C1381 1.400 . S
C1381 C1375 1.491 . S
C1381 C1380 1.400 . S
C1381 C1382 1.398 . S
C1382 H1370 0.950 . S
C1382 C1381 1.398 . S
C1382 C1383 1.391 . S
C1383 H1371 0.950 . S
C1383 C1379 1.393 . S
C1383 C1382 1.391 . S
H1384 C1392 0.950 . S
H1385 C1397 0.950 1_554 S
H1386 C1394 0.950 . S
H1387 C1396 0.950 . S
H1388 C1398 0.950 . S
H1389 C1400 0.950 . S
H1390 C1402 0.950 . S
H1391 C1403 0.950 . S
C1392 H1384 0.950 . S
C1392 C1393 1.386 . S
C1392 C1394 1.391 . S
C1393 C1392 1.386 . S
C1393 C1397 1.393 . S
C1394 H1386 0.950 . S
C1394 C1392 1.391 . S
C1394 C1395 1.400 . S
C1395 C1394 1.400 . S
C1395 C1396 1.398 . S
C1395 C1401 1.491 . S
C1396 H1387 0.950 . S
C1396 C1395 1.398 . S
C1396 C1397 1.391 . S
C1397 H1385 0.950 1_556 S
C1397 C1393 1.393 . S
C1397 C1396 1.391 . S
C1398 H1388 0.950 . S
C1398 C1399 1.386 . S
C1398 C1400 1.391 . S
C1399 C1398 1.386 . S
C1399 C1403 1.393 . S
C1400 H1389 0.950 . S
C1400 C1398 1.391 . S
C1400 C1401 1.400 . S
C1401 C1395 1.491 . S
C1401 C1400 1.400 . S
C1401 C1402 1.398 . S
C1402 H1390 0.950 . S
C1402 C1401 1.398 . S
C1402 C1403 1.391 . S
C1403 H1391 0.950 . S
C1403 C1399 1.393 . S
C1403 C1402 1.391 . S
H1404 C1412 0.950 . S
H1405 C1417 0.950 . S
H1406 C1414 0.950 . S
H1407 C1416 0.950 . S
H1408 C1418 0.950 . S
H1409 C1420 0.950 . S
H1410 C1422 0.950 . S
H1411 C1423 0.950 . S
C1412 H1404 0.950 . S
C1412 C1413 1.386 . S
C1412 C1414 1.391 . S
C1413 C1412 1.386 . S
C1413 C1417 1.393 . S
C1414 H1406 0.950 . S
C1414 C1412 1.391 . S
C1414 C1415 1.400 . S
C1415 C1414 1.400 . S
C1415 C1416 1.398 . S
C1415 C1421 1.491 . S
C1416 H1407 0.950 . S
C1416 C1415 1.398 . S
C1416 C1417 1.391 . S
C1417 H1405 0.950 . S
C1417 C1413 1.393 . S
C1417 C1416 1.391 . S
C1418 H1408 0.950 . S
C1418 C1419 1.386 . S
C1418 C1420 1.391 . S
C1419 C1418 1.386 . S
C1419 C1423 1.393 . S
C1420 H1409 0.950 . S
C1420 C1418 1.391 . S
C1420 C1421 1.400 . S
C1421 C1415 1.491 . S
C1421 C1420 1.400 . S
C1421 C1422 1.398 . S
C1422 H1410 0.950 . S
C1422 C1421 1.398 . S
C1422 C1423 1.391 . S
C1423 H1411 0.950 . S
C1423 C1419 1.393 . S
C1423 C1422 1.391 . S
H1424 C1432 0.950 . S
H1425 C1437 0.950 . S
H1426 C1434 0.950 . S
H1427 C1436 0.950 . S
H1428 C1438 0.950 . S
H1429 C1440 0.950 . S
H1430 C1442 0.950 . S
H1431 C1443 0.950 . S
C1432 H1424 0.950 . S
C1432 C1433 1.386 . S
C1432 C1434 1.391 . S
C1433 C1432 1.386 . S
C1433 C1437 1.393 . S
C1434 H1426 0.950 . S
C1434 C1432 1.391 . S
C1434 C1435 1.400 . S
C1435 C1434 1.400 . S
C1435 C1436 1.398 . S
C1435 C1441 1.491 . S
C1436 H1427 0.950 . S
C1436 C1435 1.398 . S
C1436 C1437 1.391 . S
C1437 H1425 0.950 . S
C1437 C1433 1.393 . S
C1437 C1436 1.391 . S
C1438 H1428 0.950 . S
C1438 C1439 1.386 . S
C1438 C1440 1.391 . S
C1439 C1438 1.386 . S
C1439 C1443 1.393 . S
C1440 H1429 0.950 . S
C1440 C1438 1.391 . S
C1440 C1441 1.400 . S
C1441 C1435 1.491 . S
C1441 C1440 1.400 . S
C1441 C1442 1.398 . S
C1442 H1430 0.950 . S
C1442 C1441 1.398 . S
C1442 C1443 1.391 . S
C1443 H1431 0.950 . S
C1443 C1439 1.393 . S
C1443 C1442 1.391 . S
H1444 C1452 0.950 . S
H1445 C1457 0.950 . S
H1446 C1454 0.950 . S
H1447 C1456 0.950 . S
H1448 C1458 0.950 . S
H1449 C1460 0.950 . S
H1450 C1462 0.950 . S
H1451 C1463 0.950 . S
C1452 H1444 0.950 . S
C1452 C1453 1.386 . S
C1452 C1454 1.391 . S
C1453 C1452 1.386 . S
C1453 C1457 1.393 . S
C1454 H1446 0.950 . S
C1454 C1452 1.391 . S
C1454 C1455 1.400 . S
C1455 C1454 1.400 . S
C1455 C1456 1.398 . S
C1455 C1461 1.491 . S
C1456 H1447 0.950 . S
C1456 C1455 1.398 . S
C1456 C1457 1.391 . S
C1457 H1445 0.950 . S
C1457 C1453 1.393 . S
C1457 C1456 1.391 . S
C1458 H1448 0.950 . S
C1458 C1459 1.386 . S
C1458 C1460 1.391 . S
C1459 C1458 1.386 . S
C1459 C1463 1.393 . S
C1460 H1449 0.950 . S
C1460 C1458 1.391 . S
C1460 C1461 1.400 . S
C1461 C1455 1.491 . S
C1461 C1460 1.400 . S
C1461 C1462 1.398 . S
C1462 H1450 0.950 . S
C1462 C1461 1.398 . S
C1462 C1463 1.391 . S
C1463 H1451 0.950 . S
C1463 C1459 1.393 . S
C1463 C1462 1.391 . S
H1464 C1472 0.950 . S
H1465 C1477 0.950 . S
H1466 C1474 0.950 . S
H1467 C1476 0.950 . S
H1468 C1478 0.950 . S
H1469 C1480 0.950 . S
H1470 C1482 0.950 . S
H1471 C1483 0.950 . S
C1472 H1464 0.950 . S
C1472 C1473 1.386 . S
C1472 C1474 1.391 . S
C1473 C1472 1.386 . S
C1473 C1477 1.393 . S
C1474 H1466 0.950 . S
C1474 C1472 1.391 . S
C1474 C1475 1.400 . S
C1475 C1474 1.400 . S
C1475 C1476 1.398 . S
C1475 C1481 1.491 . S
C1476 H1467 0.950 . S
C1476 C1475 1.398 . S
C1476 C1477 1.391 . S
C1477 H1465 0.950 . S
C1477 C1473 1.393 . S
C1477 C1476 1.391 . S
C1478 H1468 0.950 . S
C1478 C1479 1.386 . S
C1478 C1480 1.391 . S
C1479 C1478 1.386 . S
C1479 C1483 1.393 . S
C1480 H1469 0.950 . S
C1480 C1478 1.391 . S
C1480 C1481 1.400 . S
C1481 C1475 1.491 . S
C1481 C1480 1.400 . S
C1481 C1482 1.398 . S
C1482 H1470 0.950 . S
C1482 C1481 1.398 . S
C1482 C1483 1.391 . S
C1483 H1471 0.950 . S
C1483 C1479 1.393 . S
C1483 C1482 1.391 . S
H1484 C1492 0.950 . S
H1485 C1497 0.950 . S
H1486 C1494 0.950 . S
H1487 C1496 0.950 . S
H1488 C1498 0.950 . S
H1489 C1500 0.950 . S
H1490 C1502 0.950 . S
H1491 C1503 0.950 . S
C1492 H1484 0.950 . S
C1492 C1493 1.386 . S
C1492 C1494 1.391 . S
C1493 C1492 1.386 . S
C1493 C1497 1.393 . S
C1494 H1486 0.950 . S
C1494 C1492 1.391 . S
C1494 C1495 1.400 . S
C1495 C1494 1.400 . S
C1495 C1496 1.398 . S
C1495 C1501 1.491 1_565 S
C1496 H1487 0.950 . S
C1496 C1495 1.398 . S
C1496 C1497 1.391 . S
C1497 H1485 0.950 . S
C1497 C1493 1.393 . S
C1497 C1496 1.391 . S
C1498 H1488 0.950 . S
C1498 C1499 1.386 . S
C1498 C1500 1.391 . S
C1499 C1498 1.386 . S
C1499 C1503 1.393 . S
C1500 H1489 0.950 . S
C1500 C1498 1.391 . S
C1500 C1501 1.400 . S
C1501 C1495 1.491 1_545 S
C1501 C1500 1.400 . S
C1501 C1502 1.398 . S
C1502 H1490 0.950 . S
C1502 C1501 1.398 . S
C1502 C1503 1.391 . S
C1503 H1491 0.950 . S
C1503 C1499 1.393 . S
C1503 C1502 1.391 . S
H1504 C1512 0.950 . S
H1505 C1517 0.950 . S
H1506 C1514 0.950 . S
H1507 C1516 0.950 . S
H1508 C1518 0.950 . S
H1509 C1520 0.950 . S
H1510 C1522 0.950 . S
H1511 C1523 0.950 . S
C1512 H1504 0.950 . S
C1512 C1513 1.386 . S
C1512 C1514 1.391 . S
C1513 C1512 1.386 . S
C1513 C1517 1.393 . S
C1514 H1506 0.950 . S
C1514 C1512 1.391 . S
C1514 C1515 1.400 . S
C1515 C1514 1.400 . S
C1515 C1516 1.398 . S
C1515 C1521 1.491 1_455 S
C1516 H1507 0.950 . S
C1516 C1515 1.398 . S
C1516 C1517 1.391 . S
C1517 H1505 0.950 . S
C1517 C1513 1.393 . S
C1517 C1516 1.391 . S
C1518 H1508 0.950 . S
C1518 C1519 1.386 . S
C1518 C1520 1.391 . S
C1519 C1518 1.386 . S
C1519 C1523 1.393 . S
C1520 H1509 0.950 . S
C1520 C1518 1.391 . S
C1520 C1521 1.400 . S
C1521 C1515 1.491 1_655 S
C1521 C1520 1.400 . S
C1521 C1522 1.398 . S
C1522 H1510 0.950 . S
C1522 C1521 1.398 . S
C1522 C1523 1.391 . S
C1523 H1511 0.950 . S
C1523 C1519 1.393 . S
C1523 C1522 1.391 . S
H1524 C1532 0.950 . S
H1525 C1537 0.950 . S
H1526 C1534 0.950 . S
H1527 C1536 0.950 . S
H1528 C1538 0.950 . S
H1529 C1540 0.950 . S
H1530 C1542 0.950 . S
H1531 C1543 0.950 . S
C1532 H1524 0.950 . S
C1532 C1533 1.386 . S
C1532 C1534 1.391 . S
C1533 C1532 1.386 . S
C1533 C1537 1.393 . S
C1534 H1526 0.950 . S
C1534 C1532 1.391 . S
C1534 C1535 1.400 . S
C1535 C1534 1.400 . S
C1535 C1536 1.398 . S
C1535 C1541 1.491 . S
C1536 H1527 0.950 . S
C1536 C1535 1.398 . S
C1536 C1537 1.391 . S
C1537 H1525 0.950 . S
C1537 C1533 1.393 . S
C1537 C1536 1.391 . S
C1538 H1528 0.950 . S
C1538 C1539 1.386 . S
C1538 C1540 1.391 . S
C1539 C1538 1.386 . S
C1539 C1543 1.393 . S
C1540 H1529 0.950 . S
C1540 C1538 1.391 . S
C1540 C1541 1.400 . S
C1541 C1535 1.491 . S
C1541 C1540 1.400 . S
C1541 C1542 1.398 . S
C1542 H1530 0.950 . S
C1542 C1541 1.398 . S
C1542 C1543 1.391 . S
C1543 H1531 0.950 . S
C1543 C1539 1.393 . S
C1543 C1542 1.391 . S
H1544 C1552 0.950 . S
H1545 C1557 0.950 . S
H1546 C1554 0.950 . S
H1547 C1556 0.950 . S
H1548 C1558 0.950 . S
H1549 C1560 0.950 . S
H1550 C1562 0.950 . S
H1551 C1563 0.950 . S
C1552 H1544 0.950 . S
C1552 C1553 1.386 . S
C1552 C1554 1.391 . S
C1553 C1552 1.386 . S
C1553 C1557 1.393 . S
C1554 H1546 0.950 . S
C1554 C1552 1.391 . S
C1554 C1555 1.400 . S
C1555 C1554 1.400 . S
C1555 C1556 1.398 . S
C1555 C1561 1.491 1_565 S
C1556 H1547 0.950 . S
C1556 C1555 1.398 . S
C1556 C1557 1.391 . S
C1557 H1545 0.950 . S
C1557 C1553 1.393 . S
C1557 C1556 1.391 . S
C1558 H1548 0.950 . S
C1558 C1559 1.386 . S
C1558 C1560 1.391 . S
C1559 C1558 1.386 . S
C1559 C1563 1.393 . S
C1560 H1549 0.950 . S
C1560 C1558 1.391 . S
C1560 C1561 1.400 . S
C1561 C1555 1.491 1_545 S
C1561 C1560 1.400 . S
C1561 C1562 1.398 . S
C1562 H1550 0.950 . S
C1562 C1561 1.398 . S
C1562 C1563 1.391 . S
C1563 H1551 0.950 . S
C1563 C1559 1.393 . S
C1563 C1562 1.391 . S
H1564 C1572 0.950 . S
H1565 C1577 0.950 . S
H1566 C1574 0.950 . S
H1567 C1576 0.950 . S
H1568 C1578 0.950 . S
H1569 C1580 0.950 . S
H1570 C1582 0.950 . S
H1571 C1583 0.950 . S
C1572 H1564 0.950 . S
C1572 C1573 1.386 . S
C1572 C1574 1.391 . S
C1573 C1572 1.386 . S
C1573 C1577 1.393 . S
C1574 H1566 0.950 . S
C1574 C1572 1.391 . S
C1574 C1575 1.400 . S
C1575 C1574 1.400 . S
C1575 C1576 1.398 . S
C1575 C1581 1.491 1_455 S
C1576 H1567 0.950 . S
C1576 C1575 1.398 . S
C1576 C1577 1.391 . S
C1577 H1565 0.950 . S
C1577 C1573 1.393 . S
C1577 C1576 1.391 . S
C1578 H1568 0.950 . S
C1578 C1579 1.386 . S
C1578 C1580 1.391 . S
C1579 C1578 1.386 . S
C1579 C1583 1.393 . S
C1580 H1569 0.950 . S
C1580 C1578 1.391 . S
C1580 C1581 1.400 . S
C1581 C1575 1.491 1_655 S
C1581 C1580 1.400 . S
C1581 C1582 1.398 . S
C1582 H1570 0.950 . S
C1582 C1581 1.398 . S
C1582 C1583 1.391 . S
C1583 H1571 0.950 . S
C1583 C1579 1.393 . S
C1583 C1582 1.391 . S
H1584 C1592 0.950 1_554 S
H1585 C1597 0.950 . S
H1586 C1594 0.950 . S
H1587 C1596 0.950 . S
H1588 C1598 0.950 . S
H1589 C1600 0.950 . S
H1590 C1602 0.950 . S
H1591 C1603 0.950 . S
C1592 H1584 0.950 1_556 S
C1592 C1593 1.386 1_556 S
C1592 C1594 1.391 . S
C1593 C1592 1.386 1_554 S
C1593 C1597 1.393 . S
C1594 H1586 0.950 . S
C1594 C1592 1.391 . S
C1594 C1595 1.400 . S
C1595 C1594 1.400 . S
C1595 C1596 1.398 . S
C1595 C1601 1.491 . S
C1596 H1587 0.950 . S
C1596 C1595 1.398 . S
C1596 C1597 1.391 1_556 S
C1597 H1585 0.950 . S
C1597 C1593 1.393 . S
C1597 C1596 1.391 1_554 S
C1598 H1588 0.950 . S
C1598 C1599 1.386 . S
C1598 C1600 1.391 . S
C1599 C1598 1.386 . S
C1599 C1603 1.393 . S
C1600 H1589 0.950 . S
C1600 C1598 1.391 . S
C1600 C1601 1.400 . S
C1601 C1595 1.491 . S
C1601 C1600 1.400 . S
C1601 C1602 1.398 . S
C1602 H1590 0.950 . S
C1602 C1601 1.398 . S
C1602 C1603 1.391 . S
C1603 H1591 0.950 . S
C1603 C1599 1.393 . S
C1603 C1602 1.391 . S
H1604 C1612 0.950 . S
H1605 C1617 0.950 . S
H1606 C1614 0.950 . S
H1607 C1616 0.950 . S
H1608 C1618 0.950 . S
H1609 C1620 0.950 . S
H1610 C1622 0.950 . S
H1611 C1623 0.950 . S
C1612 H1604 0.950 . S
C1612 C1613 1.386 . S
C1612 C1614 1.391 1_554 S
C1613 C1612 1.386 . S
C1613 C1617 1.393 . S
C1614 H1606 0.950 . S
C1614 C1612 1.391 1_556 S
C1614 C1615 1.400 . S
C1615 C1614 1.400 . S
C1615 C1616 1.398 . S
C1615 C1621 1.491 . S
C1616 H1607 0.950 . S
C1616 C1615 1.398 . S
C1616 C1617 1.391 1_556 S
C1617 H1605 0.950 . S
C1617 C1613 1.393 . S
C1617 C1616 1.391 1_554 S
C1618 H1608 0.950 . S
C1618 C1619 1.386 . S
C1618 C1620 1.391 . S
C1619 C1618 1.386 . S
C1619 C1623 1.393 . S
C1620 H1609 0.950 . S
C1620 C1618 1.391 . S
C1620 C1621 1.400 . S
C1621 C1615 1.491 . S
C1621 C1620 1.400 . S
C1621 C1622 1.398 . S
C1622 H1610 0.950 . S
C1622 C1621 1.398 . S
C1622 C1623 1.391 . S
C1623 H1611 0.950 . S
C1623 C1619 1.393 . S
C1623 C1622 1.391 . S
H1624 C1632 0.950 . S
H1625 C1637 0.950 1_554 S
H1626 C1634 0.950 . S
H1627 C1636 0.950 . S
H1628 C1638 0.950 . S
H1629 C1640 0.950 . S
H1630 C1642 0.950 . S
H1631 C1643 0.950 . S
C1632 H1624 0.950 . S
C1632 C1633 1.386 . S
C1632 C1634 1.391 1_554 S
C1633 C1632 1.386 . S
C1633 C1637 1.393 1_554 S
C1634 H1626 0.950 . S
C1634 C1632 1.391 1_556 S
C1634 C1635 1.400 . S
C1635 C1634 1.400 . S
C1635 C1636 1.398 . S
C1635 C1641 1.491 . S
C1636 H1627 0.950 . S
C1636 C1635 1.398 . S
C1636 C1637 1.391 . S
C1637 H1625 0.950 1_556 S
C1637 C1633 1.393 1_556 S
C1637 C1636 1.391 . S
C1638 H1628 0.950 . S
C1638 C1639 1.386 . S
C1638 C1640 1.391 . S
C1639 C1638 1.386 . S
C1639 C1643 1.393 . S
C1640 H1629 0.950 . S
C1640 C1638 1.391 . S
C1640 C1641 1.400 . S
C1641 C1635 1.491 . S
C1641 C1640 1.400 . S
C1641 C1642 1.398 . S
C1642 H1630 0.950 . S
C1642 C1641 1.398 . S
C1642 C1643 1.391 . S
C1643 H1631 0.950 . S
C1643 C1639 1.393 . S
C1643 C1642 1.391 . S
H1644 C1652 0.950 . S
H1645 C1657 0.950 . S
H1646 C1654 0.950 . S
H1647 C1656 0.950 . S
H1648 C1658 0.950 . S
H1649 C1660 0.950 . S
H1650 C1662 0.950 . S
H1651 C1663 0.950 . S
C1652 H1644 0.950 . S
C1652 C1653 1.386 . S
C1652 C1654 1.391 . S
C1653 C1652 1.386 . S
C1653 C1657 1.393 . S
C1654 H1646 0.950 . S
C1654 C1652 1.391 . S
C1654 C1655 1.400 . S
C1655 C1654 1.400 . S
C1655 C1656 1.398 . S
C1655 C1661 1.491 . S
C1656 H1647 0.950 . S
C1656 C1655 1.398 . S
C1656 C1657 1.391 . S
C1657 H1645 0.950 . S
C1657 C1653 1.393 . S
C1657 C1656 1.391 . S
C1658 H1648 0.950 . S
C1658 C1659 1.386 . S
C1658 C1660 1.391 . S
C1659 C1658 1.386 . S
C1659 C1663 1.393 . S
C1660 H1649 0.950 . S
C1660 C1658 1.391 . S
C1660 C1661 1.400 . S
C1661 C1655 1.491 . S
C1661 C1660 1.400 . S
C1661 C1662 1.398 . S
C1662 H1650 0.950 . S
C1662 C1661 1.398 . S
C1662 C1663 1.391 . S
C1663 H1651 0.950 . S
C1663 C1659 1.393 . S
C1663 C1662 1.391 . S
H1664 C1672 0.950 . S
H1665 C1677 0.950 . S
H1666 C1674 0.950 . S
H1667 C1676 0.950 . S
H1668 C1678 0.950 . S
H1669 C1680 0.950 . S
H1670 C1682 0.950 . S
H1671 C1683 0.950 . S
C1672 H1664 0.950 . S
C1672 C1673 1.386 . S
C1672 C1674 1.391 . S
C1673 C1672 1.386 . S
C1673 C1677 1.393 . S
C1674 H1666 0.950 . S
C1674 C1672 1.391 . S
C1674 C1675 1.400 . S
C1675 C1674 1.400 . S
C1675 C1676 1.398 . S
C1675 C1681 1.491 . S
C1676 H1667 0.950 . S
C1676 C1675 1.398 . S
C1676 C1677 1.391 . S
C1677 H1665 0.950 . S
C1677 C1673 1.393 . S
C1677 C1676 1.391 . S
C1678 H1668 0.950 . S
C1678 C1679 1.386 . S
C1678 C1680 1.391 . S
C1679 C1678 1.386 . S
C1679 C1683 1.393 . S
C1680 H1669 0.950 . S
C1680 C1678 1.391 . S
C1680 C1681 1.400 . S
C1681 C1675 1.491 . S
C1681 C1680 1.400 . S
C1681 C1682 1.398 . S
C1682 H1670 0.950 . S
C1682 C1681 1.398 . S
C1682 C1683 1.391 . S
C1683 H1671 0.950 . S
C1683 C1679 1.393 . S
C1683 C1682 1.391 . S
H1684 C1692 0.950 . S
H1685 C1697 0.950 . S
H1686 C1694 0.950 . S
H1687 C1696 0.950 . S
H1688 C1698 0.950 . S
H1689 C1700 0.950 . S
H1690 C1702 0.950 . S
H1691 C1703 0.950 . S
C1692 H1684 0.950 . S
C1692 C1693 1.386 . S
C1692 C1694 1.391 . S
C1693 C1692 1.386 . S
C1693 C1697 1.393 . S
C1694 H1686 0.950 . S
C1694 C1692 1.391 . S
C1694 C1695 1.400 . S
C1695 C1694 1.400 . S
C1695 C1696 1.398 . S
C1695 C1701 1.491 . S
C1696 H1687 0.950 . S
C1696 C1695 1.398 . S
C1696 C1697 1.391 . S
C1697 H1685 0.950 . S
C1697 C1693 1.393 . S
C1697 C1696 1.391 . S
C1698 H1688 0.950 . S
C1698 C1699 1.386 . S
C1698 C1700 1.391 . S
C1699 C1698 1.386 . S
C1699 C1703 1.393 . S
C1700 H1689 0.950 . S
C1700 C1698 1.391 . S
C1700 C1701 1.400 . S
C1701 C1695 1.491 . S
C1701 C1700 1.400 . S
C1701 C1702 1.398 . S
C1702 H1690 0.950 . S
C1702 C1701 1.398 . S
C1702 C1703 1.391 . S
C1703 H1691 0.950 . S
C1703 C1699 1.393 . S
C1703 C1702 1.391 . S
H1704 C1712 0.950 . S
H1705 C1717 0.950 . S
H1706 C1714 0.950 . S
H1707 C1716 0.950 . S
H1708 C1718 0.950 . S
H1709 C1720 0.950 . S
H1710 C1722 0.950 . S
H1711 C1723 0.950 . S
C1712 H1704 0.950 . S
C1712 C1713 1.386 . S
C1712 C1714 1.391 . S
C1713 C1712 1.386 . S
C1713 C1717 1.393 . S
C1714 H1706 0.950 . S
C1714 C1712 1.391 . S
C1714 C1715 1.400 . S
C1715 C1714 1.400 . S
C1715 C1716 1.398 . S
C1715 C1721 1.491 . S
C1716 H1707 0.950 . S
C1716 C1715 1.398 . S
C1716 C1717 1.391 . S
C1717 H1705 0.950 . S
C1717 C1713 1.393 . S
C1717 C1716 1.391 . S
C1718 H1708 0.950 . S
C1718 C1719 1.386 . S
C1718 C1720 1.391 1_556 S
C1719 C1718 1.386 . S
C1719 C1723 1.393 . S
C1720 H1709 0.950 . S
C1720 C1718 1.391 1_554 S
C1720 C1721 1.400 . S
C1721 C1715 1.491 . S
C1721 C1720 1.400 . S
C1721 C1722 1.398 . S
C1722 H1710 0.950 . S
C1722 C1721 1.398 . S
C1722 C1723 1.391 1_554 S
C1723 H1711 0.950 . S
C1723 C1719 1.393 . S
C1723 C1722 1.391 1_556 S
H1724 C1732 0.950 . S
H1725 C1737 0.950 . S
H1726 C1734 0.950 . S
H1727 C1736 0.950 . S
H1728 C1738 0.950 . S
H1729 C1740 0.950 . S
H1730 C1742 0.950 . S
H1731 C1743 0.950 . S
C1732 H1724 0.950 . S
C1732 C1733 1.386 . S
C1732 C1734 1.391 . S
C1733 C1732 1.386 . S
C1733 C1737 1.393 . S
C1734 H1726 0.950 . S
C1734 C1732 1.391 . S
C1734 C1735 1.400 . S
C1735 C1734 1.400 . S
C1735 C1736 1.398 . S
C1735 C1741 1.491 . S
C1736 H1727 0.950 . S
C1736 C1735 1.398 . S
C1736 C1737 1.391 . S
C1737 H1725 0.950 . S
C1737 C1733 1.393 . S
C1737 C1736 1.391 . S
C1738 H1728 0.950 . S
C1738 C1739 1.386 . S
C1738 C1740 1.391 1_556 S
C1739 C1738 1.386 . S
C1739 C1743 1.393 . S
C1740 H1729 0.950 . S
C1740 C1738 1.391 1_554 S
C1740 C1741 1.400 . S
C1741 C1735 1.491 . S
C1741 C1740 1.400 . S
C1741 C1742 1.398 . S
C1742 H1730 0.950 . S
C1742 C1741 1.398 . S
C1742 C1743 1.391 1_554 S
C1743 H1731 0.950 . S
C1743 C1739 1.393 . S
C1743 C1742 1.391 1_556 S
H1744 C1752 0.950 . S
H1745 C1757 0.950 . S
H1746 C1754 0.950 . S
H1747 C1756 0.950 . S
H1748 C1758 0.950 . S
H1749 C1760 0.950 . S
H1750 C1762 0.950 . S
H1751 C1763 0.950 . S
C1752 H1744 0.950 . S
C1752 C1753 1.386 . S
C1752 C1754 1.391 . S
C1753 C1752 1.386 . S
C1753 C1757 1.393 . S
C1754 H1746 0.950 . S
C1754 C1752 1.391 . S
C1754 C1755 1.400 . S
C1755 C1754 1.400 . S
C1755 C1756 1.398 . S
C1755 C1761 1.491 . S
C1756 H1747 0.950 . S
C1756 C1755 1.398 . S
C1756 C1757 1.391 . S
C1757 H1745 0.950 . S
C1757 C1753 1.393 . S
C1757 C1756 1.391 . S
C1758 H1748 0.950 . S
C1758 C1759 1.386 . S
C1758 C1760 1.391 1_556 S
C1759 C1758 1.386 . S
C1759 C1763 1.393 . S
C1760 H1749 0.950 . S
C1760 C1758 1.391 1_554 S
C1760 C1761 1.400 . S
C1761 C1755 1.491 . S
C1761 C1760 1.400 . S
C1761 C1762 1.398 . S
C1762 H1750 0.950 . S
C1762 C1761 1.398 . S
C1762 C1763 1.391 1_554 S
C1763 H1751 0.950 . S
C1763 C1759 1.393 . S
C1763 C1762 1.391 1_556 S
H1764 C1772 0.950 . S
H1765 C1777 0.950 . S
H1766 C1774 0.950 . S
H1767 C1776 0.950 . S
H1768 C1778 0.950 . S
H1769 C1780 0.950 . S
H1770 C1782 0.950 . S
H1771 C1783 0.950 . S
C1772 H1764 0.950 . S
C1772 C1773 1.386 . S
C1772 C1774 1.391 . S
C1773 C1772 1.386 . S
C1773 C1777 1.393 . S
C1774 H1766 0.950 . S
C1774 C1772 1.391 . S
C1774 C1775 1.400 . S
C1775 C1774 1.400 . S
C1775 C1776 1.398 . S
C1775 C1781 1.491 . S
C1776 H1767 0.950 . S
C1776 C1775 1.398 . S
C1776 C1777 1.391 . S
C1777 H1765 0.950 . S
C1777 C1773 1.393 . S
C1777 C1776 1.391 . S
C1778 H1768 0.950 . S
C1778 C1779 1.386 . S
C1778 C1780 1.391 . S
C1779 C1778 1.386 . S
C1779 C1783 1.393 . S
C1780 H1769 0.950 . S
C1780 C1778 1.391 . S
C1780 C1781 1.400 . S
C1781 C1775 1.491 . S
C1781 C1780 1.400 . S
C1781 C1782 1.398 . S
C1782 H1770 0.950 . S
C1782 C1781 1.398 . S
C1782 C1783 1.391 . S
C1783 H1771 0.950 . S
C1783 C1779 1.393 . S
C1783 C1782 1.391 . S
H1784 C1792 0.950 . S
H1785 C1797 0.950 . S
H1786 C1794 0.950 . S
H1787 C1796 0.950 . S
H1788 C1798 0.950 . S
H1789 C1800 0.950 . S
H1790 C1802 0.950 . S
H1791 C1803 0.950 . S
C1792 H1784 0.950 . S
C1792 C1793 1.386 . S
C1792 C1794 1.391 . S
C1793 C1792 1.386 . S
C1793 C1797 1.393 . S
C1794 H1786 0.950 . S
C1794 C1792 1.391 . S
C1794 C1795 1.400 . S
C1795 C1794 1.400 . S
C1795 C1796 1.398 . S
C1795 C1801 1.491 . S
C1796 H1787 0.950 . S
C1796 C1795 1.398 . S
C1796 C1797 1.391 . S
C1797 H1785 0.950 . S
C1797 C1793 1.393 . S
C1797 C1796 1.391 . S
C1798 H1788 0.950 . S
C1798 C1799 1.386 . S
C1798 C1800 1.391 . S
C1799 C1798 1.386 . S
C1799 C1803 1.393 . S
C1800 H1789 0.950 . S
C1800 C1798 1.391 . S
C1800 C1801 1.400 . S
C1801 C1795 1.491 . S
C1801 C1800 1.400 . S
C1801 C1802 1.398 . S
C1802 H1790 0.950 . S
C1802 C1801 1.398 . S
C1802 C1803 1.391 . S
C1803 H1791 0.950 . S
C1803 C1799 1.393 . S
C1803 C1802 1.391 . S
H1804 C1812 0.950 . S
H1805 C1817 0.950 . S
H1806 C1814 0.950 . S
H1807 C1816 0.950 . S
H1808 C1818 0.950 . S
H1809 C1820 0.950 . S
H1810 C1822 0.950 . S
H1811 C1823 0.950 . S
C1812 H1804 0.950 . S
C1812 C1813 1.386 . S
C1812 C1814 1.391 . S
C1813 C1812 1.386 . S
C1813 C1817 1.393 . S
C1814 H1806 0.950 . S
C1814 C1812 1.391 . S
C1814 C1815 1.400 . S
C1815 C1814 1.400 . S
C1815 C1816 1.398 . S
C1815 C1821 1.491 . S
C1816 H1807 0.950 . S
C1816 C1815 1.398 . S
C1816 C1817 1.391 . S
C1817 H1805 0.950 . S
C1817 C1813 1.393 . S
C1817 C1816 1.391 . S
C1818 H1808 0.950 . S
C1818 C1819 1.386 . S
C1818 C1820 1.391 . S
C1819 C1818 1.386 . S
C1819 C1823 1.393 . S
C1820 H1809 0.950 . S
C1820 C1818 1.391 . S
C1820 C1821 1.400 . S
C1821 C1815 1.491 . S
C1821 C1820 1.400 . S
C1821 C1822 1.398 . S
C1822 H1810 0.950 . S
C1822 C1821 1.398 . S
C1822 C1823 1.391 . S
C1823 H1811 0.950 . S
C1823 C1819 1.393 . S
C1823 C1822 1.391 . S
H1824 C1832 0.950 . S
H1825 C1837 0.950 . S
H1826 C1834 0.950 . S
H1827 C1836 0.950 . S
H1828 C1838 0.950 . S
H1829 C1840 0.932 1_655 S
H1830 C1842 0.950 . S
H1831 C1843 0.950 . S
C1832 H1824 0.950 . S
C1832 C1833 1.386 . S
C1832 C1834 1.391 . S
C1833 C1832 1.386 . S
C1833 C1837 1.393 . S
C1834 H1826 0.950 . S
C1834 C1832 1.391 . S
C1834 C1835 1.400 . S
C1835 C1834 1.400 . S
C1835 C1836 1.398 . S
C1835 C1841 1.491 . S
C1836 H1827 0.950 . S
C1836 C1835 1.398 . S
C1836 C1837 1.391 . S
C1837 H1825 0.950 . S
C1837 C1833 1.393 . S
C1837 C1836 1.391 . S
C1838 H1828 0.950 . S
C1838 C1839 1.386 . S
C1838 C1840 1.394 . S
C1839 C1838 1.386 . S
C1839 C1843 1.393 . S
C1840 H1829 0.932 1_455 S
C1840 C1838 1.394 . S
C1840 C1841 1.403 1_455 S
C1841 C1835 1.491 . S
C1841 C1840 1.403 1_655 S
C1841 C1842 1.398 . S
C1842 H1830 0.950 . S
C1842 C1841 1.398 . S
C1842 C1843 1.391 1_655 S
C1843 H1831 0.950 . S
C1843 C1839 1.393 . S
C1843 C1842 1.391 1_455 S
H1844 C1852 0.950 . S
H1845 C1857 0.950 . S
H1846 C1854 0.950 . S
H1847 C1856 0.950 . S
H1848 C1858 0.950 . S
H1849 C1860 0.950 . S
H1850 C1862 0.950 . S
H1851 C1863 0.950 . S
C1852 H1844 0.950 . S
C1852 C1853 1.386 . S
C1852 C1854 1.391 . S
C1853 C1852 1.386 . S
C1853 C1857 1.393 . S
C1854 H1846 0.950 . S
C1854 C1852 1.391 . S
C1854 C1855 1.400 . S
C1855 C1854 1.400 . S
C1855 C1856 1.398 . S
C1855 C1861 1.491 . S
C1856 H1847 0.950 . S
C1856 C1855 1.398 . S
C1856 C1857 1.391 . S
C1857 H1845 0.950 . S
C1857 C1853 1.393 . S
C1857 C1856 1.391 . S
C1858 H1848 0.950 . S
C1858 C1859 1.386 . S
C1858 C1860 1.391 . S
C1859 C1858 1.386 . S
C1859 C1863 1.393 . S
C1860 H1849 0.950 . S
C1860 C1858 1.391 . S
C1860 C1861 1.400 . S
C1861 C1855 1.491 . S
C1861 C1860 1.400 . S
C1861 C1862 1.398 . S
C1862 H1850 0.950 . S
C1862 C1861 1.398 . S
C1862 C1863 1.391 . S
C1863 H1851 0.950 . S
C1863 C1859 1.393 . S
C1863 C1862 1.391 . S
H1864 C1872 0.950 . S
H1865 C1877 0.950 . S
H1866 C1874 0.950 . S
H1867 C1876 0.950 . S
H1868 C1878 0.950 1_565 S
H1869 C1880 0.950 . S
H1870 C1882 0.950 . S
H1871 C1883 0.950 . S
C1872 H1864 0.950 . S
C1872 C1873 1.386 1_545 S
C1872 C1874 1.391 . S
C1873 C1872 1.386 1_565 S
C1873 C1877 1.393 . S
C1874 H1866 0.950 . S
C1874 C1872 1.391 . S
C1874 C1875 1.400 . S
C1875 C1874 1.400 . S
C1875 C1876 1.398 1_545 S
C1875 C1881 1.491 . S
C1876 H1867 0.950 . S
C1876 C1875 1.398 1_565 S
C1876 C1877 1.391 . S
C1877 H1865 0.950 . S
C1877 C1873 1.393 . S
C1877 C1876 1.391 . S
C1878 H1868 0.950 1_545 S
C1878 C1879 1.386 . S
C1878 C1880 1.391 1_545 S
C1879 C1878 1.386 . S
C1879 C1883 1.393 . S
C1880 H1869 0.950 . S
C1880 C1878 1.391 1_565 S
C1880 C1881 1.400 1_565 S
C1881 C1875 1.491 . S
C1881 C1880 1.400 1_545 S
C1881 C1882 1.398 . S
C1882 H1870 0.950 . S
C1882 C1881 1.398 . S
C1882 C1883 1.391 . S
C1883 H1871 0.950 . S
C1883 C1879 1.393 . S
C1883 C1882 1.391 . S
H1884 C1892 0.950 . S
H1885 C1897 0.950 . S
H1886 C1894 0.950 . S
H1887 C1896 0.950 . S
H1888 C1898 0.950 . S
H1889 C1900 0.948 1_565 S
H1890 C1902 0.905 1_565 S
H1891 C1903 0.950 . S
C1892 H1884 0.950 . S
C1892 C1893 1.386 . S
C1892 C1894 1.391 . S
C1893 C1892 1.386 . S
C1893 C1897 1.393 . S
C1894 H1886 0.950 . S
C1894 C1892 1.391 . S
C1894 C1895 1.400 . S
C1895 C1894 1.400 . S
C1895 C1896 1.398 . S
C1895 C1901 1.491 . S
C1896 H1887 0.950 . S
C1896 C1895 1.398 . S
C1896 C1897 1.391 . S
C1897 H1885 0.950 . S
C1897 C1893 1.393 . S
C1897 C1896 1.391 . S
C1898 H1888 0.950 . S
C1898 C1899 1.386 . S
C1898 C1900 1.390 . S
C1899 C1898 1.386 . S
C1899 C1903 1.393 . S
C1900 H1889 0.948 1_545 S
C1900 C1898 1.390 . S
C1900 C1901 1.403 1_545 S
C1901 C1895 1.491 . S
C1901 C1900 1.403 1_565 S
C1901 C1902 1.399 1_565 S
C1902 H1890 0.905 1_545 S
C1902 C1901 1.399 1_545 S
C1902 C1903 1.391 . S
C1903 H1891 0.950 . S
C1903 C1899 1.393 . S
C1903 C1902 1.391 . S
H1904 C1912 0.950 . S
H1905 C1917 0.950 . S
H1906 C1914 0.950 . S
H1907 C1916 0.950 . S
H1908 C1918 0.950 . S
H1909 C1920 0.950 . S
H1910 C1922 0.961 . S
H1911 C1923 0.950 1_655 S
C1912 H1904 0.950 . S
C1912 C1913 1.386 . S
C1912 C1914 1.391 . S
C1913 C1912 1.386 . S
C1913 C1917 1.393 1_655 S
C1914 H1906 0.950 . S
C1914 C1912 1.391 . S
C1914 C1915 1.400 1_655 S
C1915 C1914 1.400 1_455 S
C1915 C1916 1.398 . S
C1915 C1921 1.491 . S
C1916 H1907 0.950 . S
C1916 C1915 1.398 . S
C1916 C1917 1.391 . S
C1917 H1905 0.950 . S
C1917 C1913 1.393 1_455 S
C1917 C1916 1.391 . S
C1918 H1908 0.950 . S
C1918 C1919 1.386 . S
C1918 C1920 1.391 . S
C1919 C1918 1.386 . S
C1919 C1923 1.393 . S
C1920 H1909 0.950 . S
C1920 C1918 1.391 . S
C1920 C1921 1.400 . S
C1921 C1915 1.491 . S
C1921 C1920 1.400 . S
C1921 C1922 1.390 1_455 S
C1922 H1910 0.961 . S
C1922 C1921 1.390 1_655 S
C1922 C1923 1.388 1_655 S
C1923 H1911 0.950 1_455 S
C1923 C1919 1.393 . S
C1923 C1922 1.388 1_455 S
H1924 C1932 0.950 . S
H1925 C1937 0.950 . S
H1926 C1934 0.950 . S
H1927 C1936 0.950 . S
H1928 C1938 0.950 . S
H1929 C1940 0.950 . S
H1930 C1942 0.950 . S
H1931 C1943 0.950 . S
C1932 H1924 0.950 . S
C1932 C1933 1.386 . S
C1932 C1934 1.391 . S
C1933 C1932 1.386 . S
C1933 C1937 1.393 . S
C1934 H1926 0.950 . S
C1934 C1932 1.391 . S
C1934 C1935 1.400 . S
C1935 C1934 1.400 . S
C1935 C1936 1.398 . S
C1935 C1941 1.491 . S
C1936 H1927 0.950 . S
C1936 C1935 1.398 . S
C1936 C1937 1.391 . S
C1937 H1925 0.950 . S
C1937 C1933 1.393 . S
C1937 C1936 1.391 . S
C1938 H1928 0.950 . S
C1938 C1939 1.386 . S
C1938 C1940 1.391 . S
C1939 C1938 1.386 . S
C1939 C1943 1.393 . S
C1940 H1929 0.950 . S
C1940 C1938 1.391 . S
C1940 C1941 1.400 . S
C1941 C1935 1.491 . S
C1941 C1940 1.400 . S
C1941 C1942 1.398 . S
C1942 H1930 0.950 . S
C1942 C1941 1.398 . S
C1942 C1943 1.391 . S
C1943 H1931 0.950 . S
C1943 C1939 1.393 . S
C1943 C1942 1.391 . S
C513 C230 1.250 . S
C519 C6 1.242 . S
C533 C244 1.243 . S
C539 C20 1.249 . S
C553 C216 1.246 . S
C559 C34 1.236 . S
C573 C370 1.227 . S
C579 C48 1.227 . S
C593 C62 1.228 . S
C599 C342 1.227 . S
C613 C76 1.223 . S
C619 C356 1.228 . S
C633 C90 1.243 . S
C639 C482 1.250 . S
C653 C496 1.231 . S
C659 C104 1.232 . S
C673 C468 1.250 . S
C679 C118 1.241 . S
C693 C132 1.225 . S
C699 C286 1.214 . S
C713 C258 1.222 . S
C719 C146 1.213 . S
C733 C160 1.228 . S
C739 C272 1.219 . S
C753 C398 1.174 . S
C759 C174 1.173 . S
C773 C188 1.175 . S
C779 C412 1.172 . S
C793 C384 1.177 . S
C799 C202 1.168 . S
C813 C454 1.171 . S
C819 C300 1.174 . S
C833 C426 1.158 . S
C839 C314 1.167 . S
C853 C328 1.177 . S
C859 C440 1.169 . S
C873 C260 1.254 . S
C879 C8 1.259 . S
C893 C274 1.227 . S
C899 C22 1.232 . S
C913 C288 1.270 . S
C919 C36 1.274 . S
C933 C50 1.262 . S
C939 C470 1.266 . S
C953 C64 1.220 . S
C959 C484 1.225 . S
C973 C78 1.226 . S
C979 C498 1.231 . S
C993 C92 1.267 . S
C999 C344 1.263 . S
C1013 C358 1.260 . S
C1019 C106 1.264 . S
C1033 C372 1.234 . S
C1039 C120 1.238 . S
C1053 C218 1.263 . S
C1059 C134 1.259 . S
C1073 C148 1.234 . S
C1079 C232 1.238 . S
C1093 C162 1.227 . S
C1099 C246 1.232 . S
C1113 C176 1.210 . S
C1119 C428 1.210 . S
C1133 C442 1.176 . S
C1139 C190 1.176 . S
C1153 C456 1.200 . S
C1159 C204 1.200 . S
C1173 C386 1.313 1_554 S
C1179 C302 1.314 1_556 S
C1193 C316 1.341 1_556 S
C1199 C400 1.342 1_554 S
C1213 C330 1.344 1_556 S
C1219 C414 1.345 1_554 S
C1233 C385 1.423 . S
C1239 C7 1.423 . S
C1253 C21 1.408 . S
C1259 C399 1.408 . S
C1273 C35 1.412 . S
C1279 C413 1.411 . S
C1293 C175 1.376 . S
C1299 C49 1.381 . S
C1313 C63 1.389 . S
C1319 C189 1.390 . S
C1333 C77 1.379 . S
C1339 C203 1.376 . S
C1353 C301 1.415 . S
C1359 C91 1.418 . S
C1373 C105 1.418 . S
C1379 C315 1.420 . S
C1393 C329 1.422 . S
C1399 C119 1.421 . S
C1413 C133 1.389 . S
C1419 C427 1.390 . S
C1433 C441 1.388 . S
C1439 C147 1.386 . S
C1453 C455 1.377 . S
C1459 C161 1.378 . S
C1473 C343 1.389 . S
C1479 C217 1.391 . S
C1493 C357 1.400 . S
C1499 C231 1.398 . S
C1513 C371 1.386 . S
C1519 C245 1.385 . S
C1533 C259 1.385 . S
C1539 C469 1.385 . S
C1553 C483 1.398 . S
C1559 C273 1.400 . S
C1573 C497 1.393 . S
C1579 C287 1.391 . S
C1593 C9 1.411 . S
C1599 C233 1.412 . S
C1613 C23 1.396 . S
C1619 C247 1.397 . S
C1633 C37 1.399 . S
C1639 C219 1.399 . S
C1653 C373 1.430 . S
C1659 C51 1.430 . S
C1673 C345 1.425 . S
C1679 C65 1.426 . S
C1693 C359 1.441 . S
C1699 C79 1.443 . S
C1713 C485 1.397 . S
C1719 C93 1.396 . S
C1733 C499 1.420 . S
C1739 C107 1.419 . S
C1753 C471 1.420 . S
C1759 C121 1.419 . S
C1773 C135 1.427 . S
C1779 C289 1.426 . S
C1793 C149 1.426 . S
C1799 C261 1.426 . S
C1813 C163 1.427 . S
C1819 C275 1.426 . S
C1833 C401 1.504 . S
C1839 C177 1.508 . S
C1853 C415 1.490 . S
C1859 C191 1.495 . S
C1873 C205 1.495 . S
C1879 C387 1.495 . S
C1893 C303 1.481 . S
C1899 C457 1.486 . S
C1913 C429 1.489 . S
C1919 C317 1.489 . S
C1933 C443 1.483 . S
C1939 C331 1.483 . S
