# Generated by pormake.
# Topology wne, (6)-cn, num edge types: 1
# Building blocks:
#     Node 0, Type 0, BuildingBlock: FUNLAD_clean_sbu_0, # of connection points: 6
#     Node 1, Type 0, BuildingBlock: FUNLAD_clean_sbu_0, # of connection points: 6
#     Node 2, Type 0, BuildingBlock: FUNLAD_clean_sbu_0, # of connection points: 6
#     Node 3, Type 0, BuildingBlock: FUNLAD_clean_sbu_0, # of connection points: 6
#     Node 4, Type 0, BuildingBlock: FUNLAD_clean_sbu_0, # of connection points: 6
#     Node 5, Type 0, BuildingBlock: FUNLAD_clean_sbu_0, # of connection points: 6
#     Node 6, Type 0, BuildingBlock: FUNLAD_clean_sbu_0, # of connection points: 6
#     Node 7, Type 0, BuildingBlock: FUNLAD_clean_sbu_0, # of connection points: 6
#     Node 8, Type 0, BuildingBlock: FUNLAD_clean_sbu_0, # of connection points: 6
#     Node 9, Type 0, BuildingBlock: FUNLAD_clean_sbu_0, # of connection points: 6
#     Node 10, Type 0, BuildingBlock: FUNLAD_clean_sbu_0, # of connection points: 6
#     Node 11, Type 0, BuildingBlock: FUNLAD_clean_sbu_0, # of connection points: 6
#     Node 12, Type 0, BuildingBlock: FUNLAD_clean_sbu_0, # of connection points: 6
#     Node 13, Type 0, BuildingBlock: FUNLAD_clean_sbu_0, # of connection points: 6
#     Node 14, Type 0, BuildingBlock: FUNLAD_clean_sbu_0, # of connection points: 6
#     Node 15, Type 0, BuildingBlock: FUNLAD_clean_sbu_0, # of connection points: 6
#     Node 16, Type 0, BuildingBlock: FUNLAD_clean_sbu_0, # of connection points: 6
#     Node 17, Type 0, BuildingBlock: FUNLAD_clean_sbu_0, # of connection points: 6
#     Node 18, Type 0, BuildingBlock: FUNLAD_clean_sbu_0, # of connection points: 6
#     Node 19, Type 0, BuildingBlock: FUNLAD_clean_sbu_0, # of connection points: 6
#     Node 20, Type 0, BuildingBlock: FUNLAD_clean_sbu_0, # of connection points: 6
#     Node 21, Type 0, BuildingBlock: FUNLAD_clean_sbu_0, # of connection points: 6
#     Node 22, Type 0, BuildingBlock: FUNLAD_clean_sbu_0, # of connection points: 6
#     Node 23, Type 0, BuildingBlock: FUNLAD_clean_sbu_0, # of connection points: 6
#     Node 24, Type 0, BuildingBlock: FUNLAD_clean_sbu_0, # of connection points: 6
#     Node 25, Type 0, BuildingBlock: FUNLAD_clean_sbu_0, # of connection points: 6
#     Node 26, Type 0, BuildingBlock: FUNLAD_clean_sbu_0, # of connection points: 6
#     Node 27, Type 0, BuildingBlock: FUNLAD_clean_sbu_0, # of connection points: 6
#     Node 28, Type 0, BuildingBlock: FUNLAD_clean_sbu_0, # of connection points: 6
#     Node 29, Type 0, BuildingBlock: FUNLAD_clean_sbu_0, # of connection points: 6
#     Node 30, Type 0, BuildingBlock: FUNLAD_clean_sbu_0, # of connection points: 6
#     Node 31, Type 0, BuildingBlock: FUNLAD_clean_sbu_0, # of connection points: 6
#     Node 32, Type 0, BuildingBlock: FUNLAD_clean_sbu_0, # of connection points: 6
#     Node 33, Type 0, BuildingBlock: FUNLAD_clean_sbu_0, # of connection points: 6
#     Node 34, Type 0, BuildingBlock: FUNLAD_clean_sbu_0, # of connection points: 6
#     Node 35, Type 0, BuildingBlock: FUNLAD_clean_sbu_0, # of connection points: 6
#     Edge 36, Type (0, 0), None
#     Edge 37, Type (0, 0), None
#     Edge 38, Type (0, 0), None
#     Edge 39, Type (0, 0), None
#     Edge 40, Type (0, 0), None
#     Edge 41, Type (0, 0), None
#     Edge 42, Type (0, 0), None
#     Edge 43, Type (0, 0), None
#     Edge 44, Type (0, 0), None
#     Edge 45, Type (0, 0), None
#     Edge 46, Type (0, 0), None
#     Edge 47, Type (0, 0), None
#     Edge 48, Type (0, 0), None
#     Edge 49, Type (0, 0), None
#     Edge 50, Type (0, 0), None
#     Edge 51, Type (0, 0), None
#     Edge 52, Type (0, 0), None
#     Edge 53, Type (0, 0), None
#     Edge 54, Type (0, 0), None
#     Edge 55, Type (0, 0), None
#     Edge 56, Type (0, 0), None
#     Edge 57, Type (0, 0), None
#     Edge 58, Type (0, 0), None
#     Edge 59, Type (0, 0), None
#     Edge 60, Type (0, 0), None
#     Edge 61, Type (0, 0), None
#     Edge 62, Type (0, 0), None
#     Edge 63, Type (0, 0), None
#     Edge 64, Type (0, 0), None
#     Edge 65, Type (0, 0), None
#     Edge 66, Type (0, 0), None
#     Edge 67, Type (0, 0), None
#     Edge 68, Type (0, 0), None
#     Edge 69, Type (0, 0), None
#     Edge 70, Type (0, 0), None
#     Edge 71, Type (0, 0), None
#     Edge 72, Type (0, 0), None
#     Edge 73, Type (0, 0), None
#     Edge 74, Type (0, 0), None
#     Edge 75, Type (0, 0), None
#     Edge 76, Type (0, 0), None
#     Edge 77, Type (0, 0), None
#     Edge 78, Type (0, 0), None
#     Edge 79, Type (0, 0), None
#     Edge 80, Type (0, 0), None
#     Edge 81, Type (0, 0), None
#     Edge 82, Type (0, 0), None
#     Edge 83, Type (0, 0), None
#     Edge 84, Type (0, 0), None
#     Edge 85, Type (0, 0), None
#     Edge 86, Type (0, 0), None
#     Edge 87, Type (0, 0), None
#     Edge 88, Type (0, 0), None
#     Edge 89, Type (0, 0), None
#     Edge 90, Type (0, 0), None
#     Edge 91, Type (0, 0), None
#     Edge 92, Type (0, 0), None
#     Edge 93, Type (0, 0), None
#     Edge 94, Type (0, 0), None
#     Edge 95, Type (0, 0), None
#     Edge 96, Type (0, 0), None
#     Edge 97, Type (0, 0), None
#     Edge 98, Type (0, 0), None
#     Edge 99, Type (0, 0), None
#     Edge 100, Type (0, 0), None
#     Edge 101, Type (0, 0), None
#     Edge 102, Type (0, 0), None
#     Edge 103, Type (0, 0), None
#     Edge 104, Type (0, 0), None
#     Edge 105, Type (0, 0), None
#     Edge 106, Type (0, 0), None
#     Edge 107, Type (0, 0), None
#     Edge 108, Type (0, 0), None
#     Edge 109, Type (0, 0), None
#     Edge 110, Type (0, 0), None
#     Edge 111, Type (0, 0), None
#     Edge 112, Type (0, 0), None
#     Edge 113, Type (0, 0), None
#     Edge 114, Type (0, 0), None
#     Edge 115, Type (0, 0), None
#     Edge 116, Type (0, 0), None
#     Edge 117, Type (0, 0), None
#     Edge 118, Type (0, 0), None
#     Edge 119, Type (0, 0), None
#     Edge 120, Type (0, 0), None
#     Edge 121, Type (0, 0), None
#     Edge 122, Type (0, 0), None
#     Edge 123, Type (0, 0), None
#     Edge 124, Type (0, 0), None
#     Edge 125, Type (0, 0), None
#     Edge 126, Type (0, 0), None
#     Edge 127, Type (0, 0), None
#     Edge 128, Type (0, 0), None
#     Edge 129, Type (0, 0), None
#     Edge 130, Type (0, 0), None
#     Edge 131, Type (0, 0), None
#     Edge 132, Type (0, 0), None
#     Edge 133, Type (0, 0), None
#     Edge 134, Type (0, 0), None
#     Edge 135, Type (0, 0), None
#     Edge 136, Type (0, 0), None
#     Edge 137, Type (0, 0), None
#     Edge 138, Type (0, 0), None
#     Edge 139, Type (0, 0), None
#     Edge 140, Type (0, 0), None
#     Edge 141, Type (0, 0), None
#     Edge 142, Type (0, 0), None
#     Edge 143, Type (0, 0), None
# Relax obj value: 0.708
# Max RMSD: 0.233
# Mean RMSD: 0.230
data_MOF--net-wne--node1-FUNLAD_clean_sbu_0--edge1-none
_symmetry_space_group_name_H-M    P1
_symmetry_Int_Tables_number       1
_symmetry_cell_setting            triclinic
loop_
_symmetry_equiv_pos_as_xyz
'x, y, z'
_cell_length_a     32.002758
_cell_length_b     32.003549
_cell_length_c     24.98142
_cell_angle_alpha  90.005644
_cell_angle_beta   90.003471
_cell_angle_gamma 119.96919
loop_
_atom_site_label
_atom_site_type_symbol
_atom_site_fract_x
_atom_site_fract_y
_atom_site_fract_z
_atom_type_partial_charge
C0 C 0.31442 0.21546 0.09092 0.0
N1 N 0.43525 0.32452 0.17595 0.0
C2 C 0.4196 0.30988 0.22622 0.0
C3 C 0.39913 0.26107 0.23591 0.0
C4 C 0.40722 0.23256 0.19879 0.0
C5 C 0.44374 0.25697 0.16002 0.0
C6 C 0.45817 0.30481 0.14962 0.0
Zn7 Zn 0.37369 0.31241 0.13578 0.0
C8 C 0.38849 0.32114 1.02305 0.0
N9 N 0.25168 0.29516 0.05599 0.0
C10 C 0.20956 0.25244 0.05069 0.0
C11 C 0.25721 0.33664 0.03513 0.0
C12 C 0.21933 0.33671 1.00965 0.0
C13 C 0.17713 0.2931 0.99983 0.0
C14 C 0.17161 0.25038 1.02135 0.0
Zn15 Zn 0.30725 0.30023 0.09676 0.0
O16 O 0.35308 0.24389 0.11502 0.0
C17 C 0.28263 0.27007 0.20535 0.0
O18 O 0.28352 0.22802 0.0812 0.0
H19 H 0.29079 0.37008 0.03785 0.0
H20 H 0.40913 0.33086 0.25103 0.0
H21 H 0.205 0.21996 0.06927 0.0
O22 O 0.32758 0.28475 0.20397 0.0
O23 O 0.26338 0.27865 0.1659 0.0
H24 H 0.48019 0.32255 0.11496 0.0
O25 O 0.33774 0.37861 0.11111 0.0
O26 O 0.39618 0.37879 0.15596 0.0
O27 O 0.34586 0.31403 1.02514 0.0
O28 O 0.41372 0.33305 0.0654 0.0
C29 C 0.37746 0.40139 0.13629 0.0
H30 H 0.37399 0.24669 0.26857 0.0
H31 H 0.45772 0.2396 0.13458 0.0
H32 H 0.2235 0.371 0.99735 0.0
H33 H 0.13837 0.21638 1.01657 0.0
C34 C 0.88246 0.11901 0.09084 0.0
N35 N 0.77338 0.13083 0.17589 0.0
C36 C 0.78802 0.12982 0.22617 0.0
C37 C 0.83683 0.15816 0.23587 0.0
C38 C 0.86532 0.19474 0.19876 0.0
C39 C 0.84089 0.20683 0.15997 0.0
C40 C 0.79305 0.17344 0.14956 0.0
Zn41 Zn 0.7855 0.08138 0.13573 0.0
C42 C 0.77675 0.08745 1.02299 0.0
N43 N 0.80274 0.9766 0.05592 0.0
C44 C 0.84545 0.97717 0.05055 0.0
C45 C 0.76122 0.94065 0.03514 0.0
C46 C 0.7611 0.90266 1.00972 0.0
C47 C 0.8047 0.90402 0.99984 0.0
C48 C 0.84746 0.94123 1.02126 0.0
Zn49 Zn 0.7977 1.02713 0.09668 0.0
O50 O 0.85404 0.12924 0.115 0.0
C51 C 0.82788 1.03267 0.20529 0.0
O52 O 0.86989 0.07556 0.08106 0.0
H53 H 0.72779 0.94084 0.03787 0.0
H54 H 0.76706 0.09839 0.25097 0.0
H55 H 0.87796 1.00508 0.06905 0.0
O56 O 0.81316 0.06291 0.20394 0.0
O57 O 0.81936 1.00489 0.1658 0.0
H58 H 0.7753 0.17771 0.1149 0.0
O59 O 0.71935 0.97928 0.11113 0.0
O60 O 0.71911 1.03755 0.15588 0.0
O61 O 0.78381 0.0519 1.02506 0.0
O62 O 0.76487 0.10079 0.06534 0.0
C63 C 0.69655 0.99623 0.13629 0.0
H64 H 0.85123 0.14741 0.26854 0.0
H65 H 0.85823 0.23817 0.13454 0.0
H66 H 0.7268 0.87256 0.99748 0.0
H67 H 0.88146 0.94195 1.01641 0.0
C68 C 0.97887 0.78359 0.09093 0.0
N69 N 0.96725 0.66279 0.17595 0.0
C70 C 0.96822 0.67844 0.22622 0.0
C71 C 0.93981 0.69884 0.23591 0.0
C72 C 0.9032 0.69069 0.19878 0.0
C73 C 0.89118 0.65418 0.16 0.0
C74 C 0.92464 0.63981 0.14961 0.0
Zn75 Zn 1.01661 0.72433 0.13577 0.0
C76 C 1.01047 0.70949 1.02301 0.0
N77 N 0.12128 0.84627 0.05591 0.0
C78 C 0.12069 0.88842 0.05061 0.0
C79 C 0.15722 0.84069 0.03508 0.0
C80 C 0.1952 0.87855 1.00968 0.0
C81 C 0.19384 0.9208 0.99988 0.0
C82 C 0.15663 0.92636 1.02134 0.0
Zn83 Zn 0.0708 0.79073 0.09669 0.0
O84 O 0.96869 0.74497 0.11508 0.0
C85 C 0.0653 0.81538 0.20533 0.0
O86 O 1.02231 0.81447 0.08114 0.0
H87 H 0.15704 0.80708 0.03777 0.0
H88 H 0.99967 0.68894 0.25104 0.0
H89 H 0.09278 0.89301 0.06913 0.0
O90 O 1.03506 0.77043 0.20397 0.0
O91 O 0.09307 0.83461 0.16584 0.0
H92 H 0.92041 0.61778 0.11496 0.0
O93 O 0.11869 0.76022 0.11104 0.0
O94 O 0.06048 0.70181 0.1559 0.0
O95 O 1.04598 0.7521 1.02506 0.0
O96 O 0.99718 0.68429 0.06537 0.0
C97 C 0.10177 0.72051 0.13623 0.0
H98 H 0.95051 0.72398 0.26858 0.0
H99 H 0.85983 0.64016 0.13456 0.0
H100 H 0.2253 0.87434 0.99742 0.0
H101 H 0.1559 0.95963 1.01655 0.0
C102 C 0.31124 0.30867 0.46925 0.0
N103 N 0.21703 0.23147 0.35958 0.0
C104 C 0.26002 0.27244 0.34835 0.0
C105 C 0.28124 0.28281 0.29926 0.0
C106 C 0.25744 0.25346 0.25676 0.0
C107 C 0.21225 0.21135 0.26566 0.0
C108 C 0.19258 0.2006 0.31844 0.0
Zn109 Zn 0.20473 0.24694 0.43963 0.0
C110 C 0.22373 0.20272 0.53632 0.0
N111 N 0.24088 0.34385 0.56623 0.0
C112 C 0.28321 0.38643 0.56441 0.0
C113 C 0.22756 0.31608 0.61106 0.0
C114 C 0.26142 0.32495 0.65099 0.0
C115 C 0.30842 0.36438 0.64605 0.0
C116 C 0.31815 0.39699 0.60369 0.0
Zn117 Zn 0.22239 0.30269 0.49891 0.0
O118 O 0.28278 0.26882 0.44817 0.0
C119 C 0.22044 0.35397 0.38952 0.0
O120 O 0.2945 0.3346 0.48495 0.0
H121 H 0.19339 0.28273 0.61214 0.0
H122 H 0.2766 0.30255 0.375 0.0
H123 H 0.29298 0.40833 0.52859 0.0
O124 O 0.20831 0.30987 0.38132 0.0
O125 O 0.22412 0.36436 0.44006 0.0
H126 H 0.15732 0.16958 0.32545 0.0
O127 O 0.14468 0.26677 0.5203 0.0
O128 O 0.1209 0.21406 0.45471 0.0
O129 O 0.23137 0.24476 0.55017 0.0
O130 O 0.2063 0.18879 0.48896 0.0
C131 C 0.11013 0.22965 0.49781 0.0
H132 H 0.31498 0.31645 0.29401 0.0
H133 H 0.1926 0.18765 0.23271 0.0
H134 H 0.25117 0.30032 0.68449 0.0
H135 H 0.35288 0.42951 0.59985 0.0
C136 C 0.7893 1.02271 0.46914 0.0
N137 N 0.86644 1.00556 0.35951 0.0
C138 C 0.82543 1.00753 0.34826 0.0
C139 C 0.81506 1.01839 0.29917 0.0
C140 C 0.84447 1.02404 0.2567 0.0
C141 C 0.88664 1.02102 0.26563 0.0
C142 C 0.89738 1.01207 0.3184 0.0
Zn143 Zn 0.85099 0.97784 0.43956 0.0
C144 C 0.89523 0.04111 0.53624 0.0
N145 N 0.75413 0.91726 0.56617 0.0
C146 C 0.71154 0.91705 0.56436 0.0
C147 C 0.78191 0.93167 0.611 0.0
C148 C 0.77304 0.95665 0.65096 0.0
C149 C 0.7336 0.96424 0.64605 0.0
C150 C 0.70098 0.9414 0.60368 0.0
Zn151 Zn 0.79526 0.93986 0.49885 0.0
O152 O 0.82913 1.03404 0.44802 0.0
C153 C 0.74393 0.88656 0.3895 0.0
O154 O 0.76336 0.98008 0.48487 0.0
H155 H 0.81526 0.93083 0.61206 0.0
H156 H 0.79533 0.99402 0.3749 0.0
H157 H 0.68963 0.90495 0.52854 0.0
O158 O 0.78804 0.91847 0.38129 0.0
O159 O 0.73355 0.87993 0.44005 0.0
H160 H 0.92845 1.00789 0.32544 0.0
O161 O 0.83115 0.89804 0.52027 0.0
O162 O 0.88387 0.92688 0.45469 0.0
O163 O 0.85319 1.00674 0.5501 0.0
O164 O 0.90915 1.03758 0.48889 0.0
C165 C 0.86826 0.90055 0.4978 0.0
H166 H 0.78139 1.01847 0.29388 0.0
H167 H 0.91039 1.02515 0.2327 0.0
H168 H 0.79768 0.97099 0.68446 0.0
H169 H 0.66846 0.94363 0.59986 0.0
C170 C 0.07524 0.78669 0.4692 0.0
N171 N 0.09229 0.88097 0.35958 0.0
C172 C 0.09032 0.83798 0.34833 0.0
C173 C 0.0795 0.81678 0.29922 0.0
C174 C 0.07391 0.84058 0.25674 0.0
C175 C 0.07693 0.88576 0.26568 0.0
C176 C 0.08584 0.90543 0.31846 0.0
Zn177 Zn 0.12003 0.89322 0.43964 0.0
C178 C 1.05677 0.87417 0.53633 0.0
N179 N 0.18073 0.85696 0.56621 0.0
C180 C 0.18094 0.81459 0.56439 0.0
C181 C 0.16631 0.87033 0.61103 0.0
C182 C 0.1413 0.8365 0.65096 0.0
C183 C 0.1337 0.78948 0.64603 0.0
C184 C 0.15656 0.77968 0.60368 0.0
Zn185 Zn 0.15807 0.87547 0.4989 0.0
O186 O 0.06387 0.81518 0.44811 0.0
C187 C 0.21133 0.87745 0.38952 0.0
O188 O 0.11788 0.80337 0.4849 0.0
H189 H 0.16715 0.90453 0.6121 0.0
H190 H 0.10383 0.82138 0.37497 0.0
H191 H 0.19305 0.80477 0.52858 0.0
O192 O 0.17939 0.88963 0.38133 0.0
O193 O 0.21801 0.87371 0.44006 0.0
H194 H 0.09003 0.94067 0.3255 0.0
O195 O 0.19985 0.95318 0.52035 0.0
O196 O 0.17094 0.97703 0.45478 0.0
O197 O 0.09117 0.86651 0.55017 0.0
O198 O 0.06027 0.89163 0.48898 0.0
C199 C 0.19729 0.98776 0.49788 0.0
H200 H 0.07943 0.78304 0.29394 0.0
H201 H 0.07284 0.90541 0.23274 0.0
H202 H 0.12695 0.8468 0.68446 0.0
H203 H 0.15432 0.74492 0.59985 0.0
C204 C 0.73955 0.67722 0.92726 0.0
N205 N 0.86543 0.78346 1.00745 0.0
C206 C 0.85998 0.74197 1.02819 0.0
C207 C 0.89789 0.74194 0.05366 0.0
C208 C 0.94003 0.78558 0.06357 0.0
C209 C 0.94548 0.8283 0.04212 0.0
C210 C 0.90751 0.82621 1.01281 0.0
Zn211 Zn 0.80978 0.77836 0.96676 0.0
C212 C 0.83429 0.80852 0.85811 0.0
N213 N 0.68177 0.75405 0.88757 0.0
C214 C 0.6589 0.77372 0.91409 0.0
C215 C 0.69724 0.76867 0.83725 0.0
C216 C 0.71764 0.81748 0.82758 0.0
C217 C 0.70963 0.84597 0.86481 0.0
C218 C 0.67324 0.82154 0.90371 0.0
Zn219 Zn 0.74333 0.76619 0.92773 0.0
O220 O 0.77927 0.69999 0.95243 0.0
C221 C 0.72863 0.7575 0.04052 0.0
O222 O 0.72083 0.69981 0.90759 0.0
H223 H 0.70769 0.74773 0.81236 0.0
H224 H 0.82645 0.7085 1.02543 0.0
H225 H 0.637 0.75597 0.9488 0.0
O226 O 0.77124 0.76458 0.03843 0.0
O227 O 0.70338 0.74558 0.99819 0.0
H228 H 0.91202 0.85869 0.99432 0.0
O229 O 0.76396 0.83472 0.94845 0.0
O230 O 0.83351 0.85056 0.98229 0.0
O231 O 0.78934 0.79382 0.85947 0.0
O232 O 0.85354 0.79992 0.89756 0.0
C233 C 0.80263 0.86314 0.97253 0.0
H234 H 0.89378 0.70766 0.06593 0.0
H235 H 0.97869 0.86232 0.04698 0.0
H236 H 0.74271 0.83189 0.79486 0.0
H237 H 0.65933 0.83888 0.9293 0.0
C238 C 0.42063 0.08233 0.92726 0.0
N239 N 0.31442 0.10205 1.00752 0.0
C240 C 0.35595 0.13809 1.02818 0.0
C241 C 0.35603 0.17607 0.05359 0.0
C242 C 0.3124 0.17462 0.06356 0.0
C243 C 0.26964 0.13735 0.04222 0.0
C244 C 0.27168 0.10141 1.01295 0.0
Zn245 Zn 0.31949 0.05146 0.96684 0.0
C246 C 0.2893 0.04582 0.85817 0.0
N247 N 0.34384 0.94778 0.88763 0.0
C248 C 0.32419 0.90526 0.91414 0.0
C249 C 0.3292 0.94862 0.8373 0.0
C250 C 0.2804 0.92022 0.82762 0.0
C251 C 0.25193 0.88374 0.86484 0.0
C252 C 0.27638 0.87179 0.90375 0.0
Zn253 Zn 0.33168 0.9972 0.92778 0.0
O254 O 0.39783 0.09928 0.95242 0.0
C255 C 0.34039 0.99118 0.04058 0.0
O256 O 0.39807 0.04101 0.90766 0.0
H257 H 0.35013 0.98 0.81241 0.0
H258 H 0.38941 0.13798 1.0254 0.0
H259 H 0.34196 0.90112 0.94887 0.0
O260 O 0.33335 1.02675 0.03851 0.0
O261 O 0.35228 0.97783 0.99824 0.0
H262 H 0.23916 0.07344 0.99453 0.0
O263 O 0.26313 0.94935 0.94847 0.0
O264 O 0.2473 1.00304 0.98243 0.0
O265 O 0.30405 1.01559 0.85951 0.0
O266 O 0.29784 0.07361 0.89765 0.0
C267 C 0.23472 0.9596 0.97261 0.0
H268 H 0.39032 0.20621 0.0658 0.0
H269 H 0.23562 0.13656 0.04714 0.0
H270 H 0.26598 0.93087 0.79489 0.0
H271 H 0.25906 0.84056 0.92934 0.0
C272 C 1.01544 0.35826 0.92732 0.0
N273 N 0.99585 0.23239 1.00753 0.0
C274 C 0.95982 0.23789 1.02824 0.0
C275 C 0.92185 0.2 0.05363 0.0
C276 C 0.9233 0.15782 0.06352 0.0
C277 C 0.96058 0.15232 0.04214 0.0
C278 C 0.99651 0.19029 1.0129 0.0
Zn279 Zn 1.04639 0.28802 0.96683 0.0
C280 C 1.05199 0.26348 0.85813 0.0
N281 N 0.14992 0.41597 0.88757 0.0
C282 C 0.19243 0.43889 0.91409 0.0
C283 C 0.14911 0.4005 0.83725 0.0
C284 C 0.17759 0.38016 0.82759 0.0
C285 C 0.2141 0.38823 0.86482 0.0
C286 C 0.22598 0.42462 0.90372 0.0
Zn287 Zn 0.10059 0.35442 0.92774 0.0
O288 O 0.99852 0.31855 0.9525 0.0
C289 C 0.10668 0.36917 0.04056 0.0
O290 O 1.05673 0.37695 0.90764 0.0
H291 H 0.11772 0.39001 0.81235 0.0
H292 H 0.95992 0.27146 1.0255 0.0
H293 H 0.19654 0.4608 0.9488 0.0
O294 O 0.07115 0.32657 0.0385 0.0
O295 O 0.11997 0.39438 0.99821 0.0
H296 H 1.02448 0.18575 0.99445 0.0
O297 O 0.1485 0.33376 0.94838 0.0
O298 O 0.09487 0.26427 0.98235 0.0
O299 O 0.08221 0.30843 0.85948 0.0
O300 O 1.02421 0.24424 0.89762 0.0
C301 C 0.1383 0.29513 0.97252 0.0
H302 H 0.8917 0.20416 0.06586 0.0
H303 H 0.96137 0.11909 0.047 0.0
H304 H 0.16699 0.3551 0.79485 0.0
H305 H 0.25722 0.43857 0.92931 0.0
C306 C 1.00703 0.84905 0.5657 0.0
N307 N 0.87631 0.73475 0.49729 0.0
C308 C 0.8896 0.76257 0.45251 0.0
C309 C 0.85572 0.75372 0.41259 0.0
C310 C 0.80875 0.71425 0.4175 0.0
C311 C 0.79906 0.68159 0.45981 0.0
C312 C 0.834 0.69214 0.49907 0.0
Zn313 Zn 0.89479 0.77596 0.56458 0.0
C314 C 0.89683 0.7247 0.67398 0.0
N315 N 0.90002 0.84701 0.70397 0.0
C316 C 0.92427 0.87809 0.74502 0.0
C317 C 0.8571 0.80596 0.7152 0.0
C318 C 0.83585 0.79559 0.76427 0.0
C319 C 0.85949 0.8251 0.80671 0.0
C320 C 0.90455 0.86737 0.79777 0.0
Zn321 Zn 0.91243 0.83168 0.6239 0.0
O322 O 0.9725 0.81191 0.54321 0.0
C323 C 0.89333 0.87588 0.52722 0.0
O324 O 0.99624 0.86464 0.60879 0.0
H325 H 0.84059 0.77585 0.68854 0.0
H326 H 0.92375 0.79594 0.45146 0.0
H327 H 0.9594 0.90927 0.73797 0.0
O328 O 0.88577 0.83387 0.5133 0.0
O329 O 0.91073 0.8898 0.57459 0.0
H330 H 0.82425 0.6702 0.53486 0.0
O331 O 0.83438 0.80972 0.61544 0.0
O332 O 0.82268 0.74401 0.5785 0.0
O333 O 0.909 0.76881 0.68217 0.0
O334 O 0.89308 0.71429 0.62343 0.0
C335 C 0.80593 0.7699 0.59428 0.0
H336 H 0.86596 0.77839 0.37914 0.0
H337 H 0.76435 0.64905 0.46361 0.0
H338 H 0.80218 0.76188 0.76956 0.0
H339 H 0.92405 0.89122 0.83068 0.0
C340 C 0.24881 0.17806 0.56572 0.0
N341 N 0.36306 0.16149 0.49735 0.0
C342 C 0.33521 0.14698 0.45257 0.0
C343 C 0.34407 0.12198 0.41263 0.0
C344 C 0.38354 0.11445 0.41751 0.0
C345 C 0.41621 0.13737 0.45982 0.0
C346 C 0.40567 0.16175 0.49911 0.0
Zn347 Zn 0.32188 0.13883 0.56463 0.0
C348 C 0.37317 0.19218 0.67399 0.0
N349 N 0.25085 0.07316 0.70404 0.0
C350 C 0.21971 0.06624 0.74506 0.0
C351 C 0.29194 0.07134 0.7153 0.0
C352 C 0.30231 0.06044 0.76437 0.0
C353 C 0.27274 0.05448 0.80678 0.0
C354 C 0.23042 0.05722 0.7978 0.0
Zn355 Zn 0.26617 0.10084 0.62397 0.0
O356 O 0.28594 0.18062 0.54324 0.0
C357 C 0.22195 1.0375 0.52729 0.0
O358 O 0.23321 0.15171 0.60881 0.0
H359 H 0.32205 0.08491 0.68864 0.0
H360 H 0.30185 0.1478 0.45153 0.0
H361 H 0.18848 0.07014 0.73798 0.0
O362 O 0.26395 0.07191 0.51337 0.0
O363 O 0.20804 0.04102 0.57466 0.0
H364 H 0.42761 0.1739 0.5349 0.0
O365 O 0.28811 0.04473 0.61558 0.0
O366 O 0.35381 0.09865 0.57858 0.0
O367 O 0.32906 0.16031 0.68221 0.0
O368 O 0.38357 0.19877 0.62345 0.0
C369 C 0.32791 0.05604 0.59439 0.0
H370 H 0.31939 0.10758 0.37917 0.0
H371 H 0.44877 0.13519 0.4636 0.0
H372 H 0.33605 0.06051 0.76969 0.0
H373 H 0.20652 0.05279 0.83068 0.0
C374 C 0.91988 0.09086 0.56563 0.0
N375 N 0.9363 0.22163 0.49731 0.0
C376 C 0.95081 0.20829 0.45253 0.0
C377 C 0.97584 0.24213 0.41262 0.0
C378 C 0.98339 0.28914 0.41753 0.0
C379 C 0.96044 0.2989 0.45982 0.0
C380 C 0.93603 0.26398 0.49908 0.0
Zn381 Zn 0.95902 0.20313 0.56458 0.0
C382 C 0.9057 0.20107 0.67398 0.0
N383 N 1.02476 0.19776 0.70396 0.0
C384 C 1.03163 0.17351 0.74499 0.0
C385 C 1.02659 0.24067 0.71523 0.0
C386 C 1.03744 0.26191 0.76431 0.0
C387 C 1.04334 0.23826 0.80673 0.0
C388 C 1.04061 0.19321 0.79776 0.0
Zn389 Zn 0.99707 0.18541 0.62389 0.0
O390 O 0.91727 0.12541 0.54317 0.0
C391 C 0.06039 0.20455 0.52721 0.0
O392 O 0.94624 0.10161 0.60872 0.0
H393 H 1.013 0.25721 0.68857 0.0
H394 H 0.95 0.17411 0.45149 0.0
H395 H 1.02771 0.13838 0.73792 0.0
O396 O 1.02595 0.21213 0.51331 0.0
O397 O 1.05691 0.18711 0.57456 0.0
H398 H 0.92387 0.27377 0.53486 0.0
O399 O 1.05314 0.26344 0.61549 0.0
O400 O 0.99916 0.27522 0.57855 0.0
O401 O 0.93761 0.18884 0.68217 0.0
O402 O 0.89907 0.20486 0.62344 0.0
C403 C 1.04179 0.29192 0.59433 0.0
H404 H 0.99027 0.23186 0.37918 0.0
H405 H 0.96263 0.33363 0.46361 0.0
H406 H 1.03737 0.29557 0.76963 0.0
H407 H 1.045 0.17372 0.83064 0.0
C408 C 0.9811 0.5488 0.42425 0.0
N409 N 0.10193 0.65785 0.50927 0.0
C410 C 0.08628 0.64322 0.55954 0.0
C411 C 0.06582 0.59441 0.56924 0.0
C412 C 0.0739 0.5659 0.53212 0.0
C413 C 0.11041 0.5903 0.49334 0.0
C414 C 0.12485 0.63815 0.48294 0.0
Zn415 Zn 1.04037 0.64575 0.46911 0.0
C416 C 1.05516 0.65448 0.35638 0.0
N417 N 0.91835 0.6285 0.38933 0.0
C418 C 0.87624 0.58578 0.38403 0.0
C419 C 0.92389 0.66998 0.36847 0.0
C420 C 0.88601 0.67005 0.34299 0.0
C421 C 0.8438 0.62644 0.33318 0.0
C422 C 0.83829 0.58372 0.3547 0.0
Zn423 Zn 0.97393 0.63357 0.43009 0.0
O424 O 1.01975 0.57723 0.44834 0.0
C425 C 0.94931 0.60341 0.53869 0.0
O426 O 0.9502 0.56136 0.41453 0.0
H427 H 0.95747 0.70342 0.37118 0.0
H428 H 0.07582 0.66421 0.58435 0.0
H429 H 0.87167 0.5533 0.40261 0.0
O430 O 0.99426 0.61808 0.53731 0.0
O431 O 0.93006 0.61199 0.49923 0.0
H432 H 0.14687 0.65588 0.44828 0.0
O433 O 1.00441 0.71195 0.44445 0.0
O434 O 0.06286 0.71213 0.48929 0.0
O435 O 1.01254 0.64738 0.35847 0.0
O436 O 0.08039 0.66639 0.39873 0.0
C437 C 1.04414 0.73472 0.46963 0.0
H438 H 1.04067 0.58003 0.6019 0.0
H439 H 0.12439 0.57293 0.4679 0.0
H440 H 0.89017 0.70434 0.33069 0.0
H441 H 0.80504 0.54972 0.34991 0.0
C442 C 0.54912 0.45234 0.42417 0.0
N443 N 0.44005 0.46418 0.50923 0.0
C444 C 0.45469 0.46317 0.5595 0.0
C445 C 0.50349 0.49149 0.56921 0.0
C446 C 0.53199 0.52807 0.5321 0.0
C447 C 0.50756 0.54017 0.49331 0.0
C448 C 0.45973 0.50678 0.4829 0.0
Zn449 Zn 0.45216 0.41472 0.46907 0.0
C450 C 0.44341 0.42078 0.35633 0.0
N451 N 0.4694 0.30994 0.38926 0.0
C452 C 0.51211 0.3105 0.3839 0.0
C453 C 0.42788 0.27399 0.36848 0.0
C454 C 0.42776 0.23599 0.34306 0.0
C455 C 0.47135 0.23735 0.33319 0.0
C456 C 0.51412 0.27456 0.35461 0.0
Zn457 Zn 0.46436 0.36046 0.43002 0.0
O458 O 0.52071 0.46258 0.44833 0.0
C459 C 0.49455 0.36601 0.53863 0.0
O460 O 0.53655 0.4089 0.41439 0.0
H461 H 0.39445 0.27418 0.37121 0.0
H462 H 0.43372 0.43173 0.58431 0.0
H463 H 0.54462 0.33841 0.4024 0.0
O464 O 0.47982 0.39626 0.53728 0.0
O465 O 0.48603 0.33823 0.49914 0.0
H466 H 0.44198 0.51106 0.44824 0.0
O467 O 0.38601 0.31262 0.44447 0.0
O468 O 0.38578 0.3709 0.48922 0.0
O469 O 0.45047 0.38523 0.3584 0.0
O470 O 0.43154 0.43413 0.39868 0.0
C471 C 0.36321 0.32957 0.46963 0.0
H472 H 0.51789 0.48074 0.60188 0.0
H473 H 0.52491 0.57151 0.46788 0.0
H474 H 0.39345 0.20589 0.33082 0.0
H475 H 0.54811 0.27528 0.34977 0.0
C476 C 0.64554 0.11692 0.42426 0.0
N477 N 0.63391 0.99611 0.50928 0.0
C478 C 0.63489 1.01176 0.55955 0.0
C479 C 0.60647 1.03218 0.56924 0.0
C480 C 0.56987 1.02403 0.53212 0.0
C481 C 0.55784 0.98752 0.49334 0.0
C482 C 0.5913 0.97314 0.48295 0.0
Zn483 Zn 0.68327 0.05766 0.46911 0.0
C484 C 0.67714 0.04282 0.35635 0.0
N485 N 0.78794 0.1796 0.38925 0.0
C486 C 0.78736 0.22175 0.38394 0.0
C487 C 0.82388 0.17402 0.36842 0.0
C488 C 0.86187 0.21188 0.34302 0.0
C489 C 0.8605 0.25413 0.33322 0.0
C490 C 0.82329 0.25969 0.35468 0.0
Zn491 Zn 0.73746 0.12406 0.43002 0.0
O492 O 0.63535 0.0783 0.44841 0.0
C493 C 0.73196 0.14871 0.53866 0.0
O494 O 0.68897 0.1478 0.41447 0.0
H495 H 0.8237 0.1404 0.3711 0.0
H496 H 0.66633 1.02226 0.58437 0.0
H497 H 0.75945 0.22634 0.40247 0.0
O498 O 0.70172 0.10376 0.5373 0.0
O499 O 0.75973 0.16794 0.49917 0.0
H500 H 0.58707 0.95111 0.4483 0.0
O501 O 0.78536 0.09355 0.44438 0.0
O502 O 0.72714 1.03514 0.48924 0.0
O503 O 0.71265 0.08542 0.3584 0.0
O504 O 0.66385 1.01762 0.39871 0.0
C505 C 0.76843 0.05384 0.46957 0.0
H506 H 0.61717 0.05731 0.60191 0.0
H507 H 0.5265 0.97349 0.4679 0.0
H508 H 0.89197 0.20767 0.33075 0.0
H509 H 0.82257 0.29296 0.34989 0.0
C510 C 0.97791 0.64201 0.80258 0.0
N511 N 0.8837 0.56481 0.69291 0.0
C512 C 0.92669 0.60578 0.68168 0.0
C513 C 0.94791 0.61614 0.6326 0.0
C514 C 0.92412 0.5868 0.59009 0.0
C515 C 0.87893 0.54468 0.599 0.0
C516 C 0.85925 0.53393 0.65177 0.0
Zn517 Zn 0.87139 0.58028 0.77295 0.0
C518 C 0.89039 0.53606 0.86965 0.0
N519 N 0.90754 0.67718 0.89955 0.0
C520 C 0.94988 0.71977 0.89773 0.0
C521 C 0.89423 0.64942 0.94439 0.0
C522 C 0.92809 0.65829 0.98432 0.0
C523 C 0.97507 0.69772 0.97938 0.0
C524 C 0.98481 0.73034 0.93701 0.0
Zn525 Zn 0.88906 0.63602 0.83223 0.0
O526 O 0.94944 0.60215 0.7815 0.0
C527 C 0.88711 0.6873 0.72284 0.0
O528 O 0.96117 0.66794 0.81828 0.0
H529 H 0.86006 0.61607 0.94546 0.0
H530 H 0.94327 0.63588 0.70833 0.0
H531 H 0.95965 0.74166 0.8619 0.0
O532 O 0.87497 0.6432 0.71465 0.0
O533 O 0.89079 0.69769 0.77339 0.0
H534 H 0.824 0.50291 0.65877 0.0
O535 O 0.81135 0.6001 0.85363 0.0
O536 O 0.78757 0.54739 0.78804 0.0
O537 O 0.89803 0.5781 0.8835 0.0
O538 O 0.87297 0.52212 0.82229 0.0
C539 C 0.7768 0.56298 0.83114 0.0
H540 H 0.98166 0.64978 0.62734 0.0
H541 H 0.85928 0.52098 0.56604 0.0
H542 H 0.91783 0.63367 1.01782 0.0
H543 H 1.01954 0.76285 0.93318 0.0
C544 C 0.45596 0.35605 0.80248 0.0
N545 N 0.53311 0.3389 0.69284 0.0
C546 C 0.4921 0.34087 0.68159 0.0
C547 C 0.48173 0.35173 0.63251 0.0
C548 C 0.51114 0.35738 0.59004 0.0
C549 C 0.55331 0.35437 0.59897 0.0
C550 C 0.56405 0.34541 0.65174 0.0
Zn551 Zn 0.51765 0.31117 0.77289 0.0
C552 C 0.56189 0.37445 0.86958 0.0
N553 N 0.42079 0.25059 0.8995 0.0
C554 C 0.37821 0.25037 0.89769 0.0
C555 C 0.44858 0.265 0.94433 0.0
C556 C 0.4397 0.28997 0.9843 0.0
C557 C 0.40026 0.29754 0.97938 0.0
C558 C 0.36764 0.27472 0.93701 0.0
Zn559 Zn 0.46192 0.27319 0.83219 0.0
O560 O 0.49579 0.36737 0.78136 0.0
C561 C 0.4106 0.2199 0.72283 0.0
O562 O 0.43002 0.31341 0.8182 0.0
H563 H 0.48193 0.26416 0.94539 0.0
H564 H 0.46199 0.32736 0.70824 0.0
H565 H 0.3563 0.23828 0.86187 0.0
O566 O 0.45471 0.2518 0.71462 0.0
O567 O 0.40022 0.21326 0.77338 0.0
H568 H 0.59512 0.34124 0.65877 0.0
O569 O 0.49782 0.23137 0.85361 0.0
O570 O 0.55054 0.26022 0.78803 0.0
O571 O 0.51986 0.34008 0.88344 0.0
O572 O 0.57582 0.37092 0.82222 0.0
C573 C 0.53493 0.23389 0.83113 0.0
H574 H 0.44806 0.35181 0.62722 0.0
H575 H 0.57707 0.3585 0.56604 0.0
H576 H 0.46434 0.30431 1.0178 0.0
H577 H 0.33511 0.27695 0.9332 0.0
C578 C 0.7419 0.12002 0.80253 0.0
N579 N 0.75895 0.2143 0.69291 0.0
C580 C 0.75698 0.17131 0.68166 0.0
C581 C 0.74616 0.15011 0.63256 0.0
C582 C 0.74057 0.17391 0.59007 0.0
C583 C 0.74359 0.21909 0.59901 0.0
C584 C 0.7525 0.23876 0.6518 0.0
Zn585 Zn 0.78669 0.22655 0.77297 0.0
C586 C 0.72344 0.2075 0.86966 0.0
N587 N 0.8474 0.19029 0.89953 0.0
C588 C 0.84762 0.14793 0.89771 0.0
C589 C 0.83298 0.20366 0.94436 0.0
C590 C 0.80798 0.16983 0.98429 0.0
C591 C 0.80039 0.12282 0.97935 0.0
C592 C 0.82324 0.11302 0.937 0.0
Zn593 Zn 0.82473 0.20881 0.83223 0.0
O594 O 0.73054 0.14851 0.78144 0.0
C595 C 0.87799 0.21078 0.72284 0.0
O596 O 0.78455 0.13671 0.81823 0.0
H597 H 0.83382 0.23786 0.94543 0.0
H598 H 0.7705 0.15471 0.7083 0.0
H599 H 0.85973 0.13811 0.8619 0.0
O600 O 0.84605 0.22297 0.71466 0.0
O601 O 0.88467 0.20705 0.77339 0.0
H602 H 0.75669 0.274 0.65883 0.0
O603 O 0.86651 0.28652 0.85368 0.0
O604 O 0.8376 0.31036 0.78811 0.0
O605 O 0.75784 0.19984 0.8835 0.0
O606 O 0.72694 0.22496 0.82232 0.0
C607 C 0.86395 0.32109 0.83121 0.0
H608 H 0.74608 0.11637 0.62727 0.0
H609 H 0.7395 0.23874 0.56607 0.0
H610 H 0.79362 0.18013 1.01779 0.0
H611 H 0.82101 0.07826 0.93318 0.0
C612 C 0.40621 1.01055 0.26059 0.0
N613 N 0.5321 0.11679 0.34078 0.0
C614 C 0.52665 0.0753 0.36153 0.0
C615 C 0.56456 0.07526 0.38699 0.0
C616 C 0.6067 0.1189 0.3969 0.0
C617 C 0.61215 0.16163 0.37546 0.0
C618 C 0.57417 0.15954 0.34615 0.0
Zn619 Zn 0.47644 0.11169 0.30011 0.0
C620 C 0.50095 0.14186 0.19145 0.0
N621 N 0.34843 0.08738 0.22092 0.0
C622 C 0.32556 0.10705 0.24744 0.0
C623 C 0.3639 0.10201 0.1706 0.0
C624 C 0.3843 0.15082 0.16094 0.0
C625 C 0.37629 0.1793 0.19817 0.0
C626 C 0.3399 0.15487 0.23707 0.0
Zn627 Zn 0.40999 0.09952 0.26108 0.0
O628 O 0.44594 1.03333 0.28577 0.0
C629 C 0.39528 0.0908 0.37386 0.0
O630 O 0.38749 1.03314 0.24092 0.0
H631 H 0.37435 0.08106 0.1457 0.0
H632 H 0.49311 0.04183 0.35876 0.0
H633 H 0.30365 0.08929 0.28215 0.0
O634 O 0.43791 0.09791 0.37178 0.0
O635 O 0.37004 0.0789 0.33153 0.0
H636 H 0.57868 0.19203 0.32766 0.0
O637 O 0.43062 0.16805 0.2818 0.0
O638 O 0.50017 0.18389 0.31564 0.0
O639 O 0.456 0.12716 0.19281 0.0
O640 O 0.5202 0.13326 0.23091 0.0
C641 C 0.46928 0.19647 0.30588 0.0
H642 H 0.56044 0.04099 0.39925 0.0
H643 H 0.64535 0.19565 0.38032 0.0
H644 H 0.40937 0.16523 0.12821 0.0
H645 H 0.32599 0.17221 0.26266 0.0
C646 C 0.08729 0.41566 0.26059 0.0
N647 N 0.98109 0.43538 0.34086 0.0
C648 C 1.02262 0.47142 0.36151 0.0
C649 C 1.0227 0.50941 0.38692 0.0
C650 C 0.97908 0.50796 0.39689 0.0
C651 C 0.93631 0.47068 0.37556 0.0
C652 C 0.93835 0.43474 0.34629 0.0
Zn653 Zn 0.98615 0.38479 0.30018 0.0
C654 C 0.95597 0.37915 0.19151 0.0
N655 N 1.0105 0.2811 0.22095 0.0
C656 C 0.99085 0.23859 0.24746 0.0
C657 C 0.99586 0.28195 0.17063 0.0
C658 C 0.94705 0.25356 0.16095 0.0
C659 C 0.91859 0.21708 0.19818 0.0
C660 C 0.94304 0.20512 0.23708 0.0
Zn661 Zn 0.99835 0.33052 0.26112 0.0
O662 O 0.06449 0.43261 0.28575 0.0
C663 C 1.00708 0.32452 0.37391 0.0
O664 O 0.06473 0.37434 0.241 0.0
H665 H 1.01679 0.31333 0.14574 0.0
H666 H 1.05608 0.47132 0.35873 0.0
H667 H 1.00862 0.23444 0.28218 0.0
O668 O 1.00002 0.36008 0.37185 0.0
O669 O 1.01894 0.31115 0.33157 0.0
H670 H 0.90583 0.40677 0.32788 0.0
O671 O 0.92979 0.28267 0.28181 0.0
O672 O 0.91397 0.33637 0.31578 0.0
O673 O 0.97072 0.34892 0.19284 0.0
O674 O 0.9645 0.40694 0.23099 0.0
C675 C 0.90139 0.29293 0.30595 0.0
H676 H 1.057 0.53955 0.39912 0.0
H677 H 0.90229 0.46989 0.38047 0.0
H678 H 0.93263 0.26421 0.12823 0.0
H679 H 0.92572 0.17389 0.26266 0.0
C680 C 0.68211 0.6916 0.26065 0.0
N681 N 0.66252 0.56573 0.34087 0.0
C682 C 0.62648 0.57123 0.36157 0.0
C683 C 0.58851 0.53333 0.38695 0.0
C684 C 0.58996 0.49115 0.39685 0.0
C685 C 0.62724 0.48566 0.37548 0.0
C686 C 0.66318 0.52363 0.34624 0.0
Zn687 Zn 0.71306 0.62136 0.30018 0.0
C688 C 0.71866 0.59681 0.19148 0.0
N689 N 0.81659 0.74931 0.22089 0.0
C690 C 0.85911 0.77223 0.24742 0.0
C691 C 0.81578 0.73383 0.17058 0.0
C692 C 0.84426 0.71348 0.16092 0.0
C693 C 0.88076 0.72155 0.19816 0.0
C694 C 0.89265 0.75794 0.23705 0.0
Zn695 Zn 0.76726 0.68776 0.26108 0.0
O696 O 0.6652 0.65188 0.28584 0.0
C697 C 0.77334 0.70252 0.37389 0.0
O698 O 0.7234 0.71029 0.24098 0.0
H699 H 0.78439 0.72334 0.14568 0.0
H700 H 0.62658 0.60479 0.35883 0.0
H701 H 0.86322 0.79414 0.28213 0.0
O702 O 0.73782 0.65991 0.37184 0.0
O703 O 0.78664 0.72773 0.33154 0.0
H704 H 0.69115 0.51908 0.3278 0.0
O705 O 0.81517 0.6671 0.28173 0.0
O706 O 0.76154 0.59761 0.3157 0.0
O707 O 0.74888 0.64176 0.19282 0.0
O708 O 0.69088 0.57757 0.23096 0.0
C709 C 0.80497 0.62847 0.30586 0.0
H710 H 0.55837 0.5375 0.39919 0.0
H711 H 0.62804 0.45242 0.38035 0.0
H712 H 0.83365 0.68841 0.1282 0.0
H713 H 0.92389 0.7719 0.26265 0.0
C714 C 0.67369 0.18239 0.89903 0.0
N715 N 0.54297 0.06808 0.83063 0.0
C716 C 0.55626 0.09591 0.78585 0.0
C717 C 0.52239 0.08706 0.74593 0.0
C718 C 0.47541 0.04759 0.75084 0.0
C719 C 0.46572 1.01493 0.79314 0.0
C720 C 0.50066 1.02547 0.8324 0.0
Zn721 Zn 0.56145 0.10929 0.89792 0.0
C722 C 0.56349 0.05804 1.00731 0.0
N723 N 0.56669 0.18034 0.03732 0.0
C724 C 0.59093 0.21143 0.07836 0.0
C725 C 0.52377 0.13929 0.04855 0.0
C726 C 0.50251 0.12892 0.09762 0.0
C727 C 0.52615 0.15844 0.14006 0.0
C728 C 0.57121 0.20071 0.13111 0.0
Zn729 Zn 0.5791 0.16502 0.95724 0.0
O730 O 0.63917 0.14524 0.87655 0.0
C731 C 0.56 0.20921 0.86056 0.0
O732 O 0.66291 0.19798 0.94213 0.0
H733 H 0.50726 0.10918 1.02189 0.0
H734 H 0.59042 0.12927 0.7848 0.0
H735 H 0.62606 0.24261 0.07132 0.0
O736 O 0.55244 0.16721 0.84664 0.0
O737 O 0.5774 0.22314 0.90793 0.0
H738 H 0.49091 1.00354 0.86819 0.0
O739 O 0.50105 0.14306 0.94879 0.0
O740 O 0.48935 0.07735 0.91184 0.0
O741 O 0.57567 0.10215 1.01551 0.0
O742 O 0.55974 0.04763 0.95677 0.0
C743 C 0.4726 0.10324 0.92763 0.0
H744 H 0.53262 0.11173 0.71247 0.0
H745 H 0.43101 0.98239 0.79694 0.0
H746 H 0.46885 0.09521 0.10291 0.0
H747 H 0.5907 0.22457 0.16402 0.0
C748 C 0.91548 0.51139 0.89905 0.0
N749 N 1.02972 0.49482 0.83068 0.0
C750 C 1.00188 0.48031 0.7859 0.0
C751 C 1.01073 0.45531 0.74596 0.0
C752 C 1.0502 0.44778 0.75084 0.0
C753 C 0.08288 0.4707 0.79315 0.0
C754 C 0.07233 0.49508 0.83244 0.0
Zn755 Zn 0.98854 0.47216 0.89797 0.0
C756 C 1.03984 0.52552 1.00732 0.0
N757 N 0.91751 0.4065 0.03738 0.0
C758 C 0.88637 0.39958 0.07839 0.0
C759 C 0.95861 0.40468 0.04864 0.0
C760 C 0.96898 0.39377 0.0977 0.0
C761 C 0.9394 0.38782 0.14011 0.0
C762 C 0.89708 0.39055 0.13114 0.0
Zn763 Zn 0.93283 0.43418 0.9573 0.0
O764 O 0.95261 0.51395 0.87658 0.0
C765 C 0.88862 0.37083 0.86063 0.0
O766 O 0.89988 0.48505 0.94214 0.0
H767 H 0.98871 0.41825 1.02197 0.0
H768 H 0.96851 0.48113 0.78487 0.0
H769 H 0.85514 0.40347 0.07132 0.0
O770 O 0.93061 0.40525 0.84671 0.0
O771 O 0.8747 0.37435 0.908 0.0
H772 H 0.09428 0.50723 0.86823 0.0
O773 O 0.95477 0.37806 0.94892 0.0
O774 O 1.02047 0.43198 0.91191 0.0
O775 O 0.99573 0.49365 1.01554 0.0
O776 O 1.05024 0.5321 0.95678 0.0
C777 C 0.99457 0.38937 0.92774 0.0
H778 H 0.98605 0.44091 0.7125 0.0
H779 H 0.11543 0.46851 0.79693 0.0
H780 H 1.00272 0.39385 0.10303 0.0
H781 H 0.87318 0.38612 0.16402 0.0
C782 C 0.58655 0.42419 0.89896 0.0
N783 N 0.60297 0.55497 0.83065 0.0
C784 C 0.61748 0.54163 0.78587 0.0
C785 C 0.64252 0.57547 0.74596 0.0
C786 C 0.65006 0.62248 0.75086 0.0
C787 C 0.62712 0.63224 0.79315 0.0
C788 C 0.60271 0.59732 0.83241 0.0
Zn789 Zn 0.62569 0.53646 0.89792 0.0
C790 C 0.57237 0.5344 1.00731 0.0
N791 N 0.69143 0.53109 0.03731 0.0
C792 C 0.6983 0.50684 0.07833 0.0
C793 C 0.69325 0.574 0.04857 0.0
C794 C 0.70411 0.59524 0.09765 0.0
C795 C 0.71001 0.57159 0.14008 0.0
C796 C 0.70728 0.52655 0.1311 0.0
Zn797 Zn 0.66374 0.51874 0.95722 0.0
O798 O 0.58394 0.45875 0.8765 0.0
C799 C 0.72706 0.53789 0.86054 0.0
O800 O 0.61291 0.43494 0.94206 0.0
H801 H 0.67967 0.59054 1.02191 0.0
H802 H 0.61667 0.50744 0.78483 0.0
H803 H 0.69439 0.47171 0.07126 0.0
O804 O 0.69262 0.54546 0.84664 0.0
O805 O 0.72357 0.52045 0.9079 0.0
H806 H 0.59055 0.60712 0.8682 0.0
O807 O 0.71981 0.59677 0.94884 0.0
O808 O 0.66584 0.60856 0.91189 0.0
O809 O 0.60427 0.52217 1.0155 0.0
O810 O 0.56574 0.5382 0.95677 0.0
C811 C 0.70846 0.62525 0.92769 0.0
H812 H 0.65694 0.56519 0.71251 0.0
H813 H 0.62931 0.66697 0.79694 0.0
H814 H 0.70403 0.6289 0.10297 0.0
H815 H 0.71168 0.50705 0.16398 0.0
C816 C 0.64778 0.88214 0.75756 0.0
N817 N 0.7686 0.99119 0.8426 0.0
C818 C 0.75295 0.97655 0.89287 0.0
C819 C 0.73249 0.92774 0.90256 0.0
C820 C 0.74056 0.89923 0.86543 0.0
C821 C 0.77708 0.92363 0.82666 0.0
C822 C 0.79152 0.97148 0.81626 0.0
Zn823 Zn 0.70704 0.97909 0.80244 0.0
C824 C 0.72184 0.98784 0.68971 0.0
N825 N 0.58502 0.96183 0.72266 0.0
C826 C 0.54291 0.91911 0.71736 0.0
C827 C 0.59056 1.00332 0.7018 0.0
C828 C 0.55268 1.00339 0.67633 0.0
C829 C 0.51047 0.95978 0.66652 0.0
C830 C 0.50496 0.91705 0.68803 0.0
Zn831 Zn 0.6406 0.96691 0.76342 0.0
O832 O 0.68643 0.91056 0.78166 0.0
C833 C 0.61599 0.93673 0.87201 0.0
O834 O 0.61687 0.8947 0.74785 0.0
H835 H 0.62414 1.03675 0.70452 0.0
H836 H 0.74249 0.99753 0.91768 0.0
H837 H 0.53834 0.88664 0.73593 0.0
O838 O 0.66093 0.95141 0.87063 0.0
O839 O 0.59673 0.94531 0.83256 0.0
H840 H 0.81355 0.98922 0.78161 0.0
O841 O 0.67108 0.04528 0.77778 0.0
O842 O 0.72953 0.04546 0.82263 0.0
O843 O 0.67921 0.98072 0.69179 0.0
O844 O 0.74707 0.99973 0.73205 0.0
C845 C 0.71081 0.06805 0.80296 0.0
H846 H 0.70734 0.91335 0.93522 0.0
H847 H 0.79106 0.90626 0.80121 0.0
H848 H 0.55684 1.03768 0.66403 0.0
H849 H 0.47171 0.88306 0.68325 0.0
C850 C 0.21578 0.78568 0.7575 0.0
N851 N 0.10672 0.79752 0.84256 0.0
C852 C 0.12136 0.7965 0.89284 0.0
C853 C 0.17017 0.82483 0.90254 0.0
C854 C 0.19866 0.86141 0.86543 0.0
C855 C 0.17424 0.87351 0.82665 0.0
C856 C 0.1264 0.84012 0.81623 0.0
Zn857 Zn 0.11883 0.74806 0.8024 0.0
C858 C 0.11005 0.75411 0.68967 0.0
N859 N 0.13606 0.64327 0.72259 0.0
C860 C 0.17878 0.64384 0.71723 0.0
C861 C 0.09454 0.60732 0.70182 0.0
C862 C 0.09442 0.56932 0.6764 0.0
C863 C 0.13801 0.57068 0.66652 0.0
C864 C 0.18078 0.60789 0.68794 0.0
Zn865 Zn 0.13103 0.6938 0.76334 0.0
O866 O 0.18737 0.79592 0.78166 0.0
C867 C 0.16122 0.69935 0.87196 0.0
O868 O 0.20322 0.74224 0.74771 0.0
H869 H 0.06111 0.60751 0.70455 0.0
H870 H 0.10039 0.76507 0.91765 0.0
H871 H 0.21128 0.67175 0.73572 0.0
O872 O 0.14649 0.72959 0.8706 0.0
O873 O 0.1527 0.67157 0.83247 0.0
H874 H 0.10865 0.84441 0.78158 0.0
O875 O 1.05268 0.64595 0.77781 0.0
O876 O 1.05244 0.70424 0.82255 0.0
O877 O 0.11713 0.71856 0.69172 0.0
O878 O 0.0982 0.76748 0.73201 0.0
C879 C 1.02988 0.66291 0.80296 0.0
H880 H 0.18457 0.81408 0.93521 0.0
H881 H 0.19159 0.90485 0.80121 0.0
H882 H 0.06011 0.53922 0.66416 0.0
H883 H 0.21477 0.60861 0.68309 0.0
C884 C 0.3122 0.45025 0.75758 0.0
N885 N 0.30056 0.32944 0.84262 0.0
C886 C 0.30154 0.3451 0.89288 0.0
C887 C 0.27314 0.36551 0.90257 0.0
C888 C 0.23653 0.35737 0.86544 0.0
C889 C 0.2245 0.32085 0.82667 0.0
C890 C 0.25796 0.30646 0.81628 0.0
Zn891 Zn 0.34993 0.39098 0.80243 0.0
C892 C 0.34382 0.37614 0.68968 0.0
N893 N 0.45461 0.51293 0.72258 0.0
C894 C 0.45403 0.55508 0.71727 0.0
C895 C 0.49055 0.50734 0.70176 0.0
C896 C 0.52854 0.54521 0.67636 0.0
C897 C 0.52718 0.58745 0.66656 0.0
C898 C 0.48996 0.59302 0.68801 0.0
Zn899 Zn 0.40412 0.45738 0.76335 0.0
O900 O 0.30201 0.41163 0.78173 0.0
C901 C 0.39862 0.48203 0.87199 0.0
O902 O 0.35563 0.48113 0.74779 0.0
H903 H 0.49037 0.47373 0.70444 0.0
H904 H 0.33299 0.35559 0.9177 0.0
H905 H 0.42611 0.55967 0.7358 0.0
O906 O 0.36838 0.43709 0.87063 0.0
O907 O 0.42639 0.50127 0.8325 0.0
H908 H 0.25372 0.28444 0.78163 0.0
O909 O 0.45202 0.42688 0.77772 0.0
O910 O 0.3938 0.36846 0.82257 0.0
O911 O 0.37932 0.41875 0.69172 0.0
O912 O 0.33051 0.35094 0.73204 0.0
C913 C 0.43509 0.38716 0.8029 0.0
H914 H 0.28384 0.39065 0.93524 0.0
H915 H 0.19316 0.30683 0.80122 0.0
H916 H 0.55864 0.54099 0.6641 0.0
H917 H 0.48924 0.62629 0.68322 0.0
C918 C 0.64457 0.97533 0.1359 0.0
N919 N 0.55037 0.89814 1.02623 0.0
C920 C 0.59335 0.93911 1.01501 0.0
C921 C 0.61458 0.94948 0.96592 0.0
C922 C 0.59079 0.92012 0.92342 0.0
C923 C 0.5456 0.87801 0.93232 0.0
C924 C 0.52592 0.86726 0.98509 0.0
Zn925 Zn 0.53806 0.91361 0.10628 0.0
C926 C 0.55706 0.86938 0.20298 0.0
N927 N 0.57422 1.01051 0.23289 0.0
C928 C 0.61655 0.0531 0.23106 0.0
C929 C 0.5609 0.98275 0.27772 0.0
C930 C 0.59475 0.99162 0.31765 0.0
C931 C 0.64174 1.03105 0.31271 0.0
C932 C 0.65148 0.06366 0.27034 0.0
Zn933 Zn 0.55573 0.96935 0.16557 0.0
O934 O 0.61611 0.93548 0.11482 0.0
C935 C 0.55377 1.02063 0.05617 0.0
O936 O 0.62784 1.00126 0.15161 0.0
H937 H 0.52673 0.9494 0.27879 0.0
H938 H 0.60993 0.96922 0.04165 0.0
H939 H 0.62632 0.07499 0.19524 0.0
O940 O 0.54164 0.97653 0.04798 0.0
O941 O 0.55746 1.03103 0.10672 0.0
H942 H 0.49068 0.83623 0.9921 0.0
O943 O 0.47801 0.93344 0.18696 0.0
O944 O 0.45423 0.88072 0.12137 0.0
O945 O 0.5647 0.91143 0.21683 0.0
O946 O 0.53964 0.85545 0.15562 0.0
C947 C 0.44347 0.89631 0.16448 0.0
H948 H 0.64832 0.98312 0.96066 0.0
H949 H 0.52596 0.8543 0.89937 0.0
H950 H 0.5845 0.96699 0.35116 0.0
H951 H 0.68621 0.09618 0.26651 0.0
C952 C 0.12263 0.68938 0.13579 0.0
N953 N 0.19978 0.67223 1.02617 0.0
C954 C 0.15876 0.6742 1.01492 0.0
C955 C 0.14839 0.68506 0.96583 0.0
C956 C 0.17781 0.69072 0.92336 0.0
C957 C 0.21998 0.6877 0.9323 0.0
C958 C 0.23072 0.67875 0.98507 0.0
Zn959 Zn 0.18432 0.6445 0.10622 0.0
C960 C 0.22856 0.70778 0.20291 0.0
N961 N 0.08746 0.58393 0.23283 0.0
C962 C 1.04488 0.58372 0.23102 0.0
C963 C 0.11524 0.59834 0.27766 0.0
C964 C 0.10637 0.62331 0.31762 0.0
C965 C 0.06693 0.63089 0.31271 0.0
C966 C 1.03431 0.60806 0.27034 0.0
Zn967 Zn 0.12859 0.60653 0.16551 0.0
O968 O 0.16246 0.70071 0.11468 0.0
C969 C 0.07727 0.55323 0.05616 0.0
O970 O 0.09669 0.64675 0.15153 0.0
H971 H 0.1486 0.5975 0.27872 0.0
H972 H 0.12866 0.66069 0.04157 0.0
H973 H 1.02297 0.57162 0.1952 0.0
O974 O 0.12138 0.58513 0.04795 0.0
O975 O 0.06689 0.5466 0.10671 0.0
H976 H 0.26179 0.67458 0.9921 0.0
O977 O 0.16449 0.5647 0.18694 0.0
O978 O 0.21721 0.59355 0.12136 0.0
O979 O 0.18653 0.67341 0.21677 0.0
O980 O 0.24249 0.70425 0.15555 0.0
C981 C 0.2016 0.56722 0.16446 0.0
H982 H 0.11473 0.68514 0.96055 0.0
H983 H 0.24374 0.69184 0.89937 0.0
H984 H 0.13101 0.63764 0.35113 0.0
H985 H 1.00178 0.61029 0.26653 0.0
C986 C 0.40857 0.45335 0.13585 0.0
N987 N 0.42562 0.54763 1.02624 0.0
C988 C 0.42365 0.50465 1.01498 0.0
C989 C 0.41283 0.48345 0.96588 0.0
C990 C 0.40723 0.50724 0.9234 0.0
C991 C 0.41025 0.55242 0.93234 0.0
C992 C 0.41916 0.57209 0.98512 0.0
Zn993 Zn 0.45336 0.55988 0.1063 0.0
C994 C 0.3901 0.54083 0.20299 0.0
N995 N 0.51406 0.52362 0.23287 0.0
C996 C 0.51427 0.48125 0.23105 0.0
C997 C 0.49964 0.537 0.27769 0.0
C998 C 0.47464 0.50317 0.31762 0.0
C999 C 0.46705 0.45615 0.31269 0.0
C1000 C 0.4899 0.44634 0.27033 0.0
Zn1001 Zn 0.4914 0.54214 0.16556 0.0
O1002 O 0.3972 0.48185 0.11477 0.0
C1003 C 0.54466 0.54411 0.05618 0.0
O1004 O 0.45121 0.47004 0.15156 0.0
H1005 H 0.50049 0.57119 0.27876 0.0
H1006 H 0.43717 0.48805 0.04163 0.0
H1007 H 0.52638 0.47144 0.19523 0.0
O1008 O 0.51272 0.5563 0.04799 0.0
O1009 O 0.55134 0.54038 0.10672 0.0
H1010 H 0.42334 0.60733 0.99216 0.0
O1011 O 0.53318 0.61985 0.18701 0.0
O1012 O 0.50427 0.64369 0.12144 0.0
O1013 O 0.4245 0.53318 0.21683 0.0
O1014 O 0.3936 0.55829 0.15565 0.0
C1015 C 0.53062 0.65443 0.16455 0.0
H1016 H 0.41276 0.44971 0.9606 0.0
H1017 H 0.40614 0.57206 0.8994 0.0
H1018 H 0.46029 0.51347 0.35112 0.0
H1019 H 0.48766 0.41159 0.26651 0.0
C1020 C 0.07287 0.34389 0.59392 0.0
N1021 N 0.19875 0.45012 0.67411 0.0
C1022 C 0.19331 0.40862 0.69485 0.0
C1023 C 0.23122 0.40859 0.72031 0.0
C1024 C 0.27336 0.45223 0.73022 0.0
C1025 C 0.27881 0.49496 0.70878 0.0
C1026 C 0.24083 0.49287 0.67947 0.0
Zn1027 Zn 0.1431 0.44502 0.63344 0.0
C1028 C 0.16761 0.47519 0.52478 0.0
N1029 N 1.01508 0.42071 0.55425 0.0
C1030 C 0.99222 0.44039 0.58077 0.0
C1031 C 1.03055 0.43534 0.50393 0.0
C1032 C 1.05096 0.48415 0.49426 0.0
C1033 C 1.04296 0.51264 0.5315 0.0
C1034 C 1.00657 0.48821 0.57039 0.0
Zn1035 Zn 0.07665 0.43285 0.59441 0.0
O1036 O 0.1126 0.36666 0.61909 0.0
C1037 C 0.06194 0.42413 0.70719 0.0
O1038 O 1.05414 0.36647 0.57425 0.0
H1039 H 1.041 0.41439 0.47903 0.0
H1040 H 0.15977 0.37515 0.69208 0.0
H1041 H 0.97031 0.42264 0.61548 0.0
O1042 O 0.10456 0.43123 0.70511 0.0
O1043 O 1.03669 0.41224 0.66486 0.0
H1044 H 0.24534 0.52535 0.66099 0.0
O1045 O 0.09728 0.50138 0.61514 0.0
O1046 O 0.16683 0.51722 0.64898 0.0
O1047 O 0.12265 0.46049 0.52614 0.0
O1048 O 0.18686 0.4666 0.56424 0.0
C1049 C 0.13594 0.5298 0.63922 0.0
H1050 H 0.2271 0.37431 0.73257 0.0
H1051 H 0.31201 0.52898 0.71364 0.0
H1052 H 0.07603 0.49855 0.46154 0.0
H1053 H 0.99267 0.50556 0.59599 0.0
C1054 C 0.75396 0.74899 0.59392 0.0
N1055 N 0.64777 0.76871 0.67418 0.0
C1056 C 0.68929 0.80475 0.69484 0.0
C1057 C 0.68937 0.84274 0.72024 0.0
C1058 C 0.64575 0.8413 0.73021 0.0
C1059 C 0.60299 0.80402 0.70887 0.0
C1060 C 0.60502 0.76808 0.67961 0.0
Zn1061 Zn 0.65283 0.71812 0.63351 0.0
C1062 C 0.62263 0.71247 0.52484 0.0
N1063 N 0.67716 0.61442 0.55429 0.0
C1064 C 0.65752 0.57191 0.58081 0.0
C1065 C 0.66253 0.61527 0.50397 0.0
C1066 C 0.61372 0.58688 0.49429 0.0
C1067 C 0.58525 0.55041 0.53152 0.0
C1068 C 0.6097 0.53845 0.57042 0.0
Zn1069 Zn 0.66502 0.66385 0.59445 0.0
O1070 O 0.73116 0.76594 0.61907 0.0
C1071 C 0.67375 0.65786 0.70724 0.0
O1072 O 0.7314 0.70766 0.57432 0.0
H1073 H 0.68346 0.64664 0.47908 0.0
H1074 H 0.72276 0.80465 0.69206 0.0
H1075 H 0.67528 0.56776 0.61553 0.0
O1076 O 0.6667 0.69342 0.70518 0.0
O1077 O 0.68562 0.64448 0.66491 0.0
H1078 H 0.5725 0.7401 0.6612 0.0
O1079 O 0.59646 0.616 0.61515 0.0
O1080 O 0.58064 0.6697 0.64912 0.0
O1081 O 0.63738 0.68224 0.52617 0.0
O1082 O 0.63117 0.74026 0.56432 0.0
C1083 C 0.56806 0.62626 0.63929 0.0
H1084 H 0.72367 0.87288 0.73244 0.0
H1085 H 0.56897 0.80323 0.71378 0.0
H1086 H 0.5993 0.59753 0.46156 0.0
H1087 H 0.59238 0.50721 0.59601 0.0
C1088 C 0.34879 1.02493 0.59398 0.0
N1089 N 0.32919 0.89907 0.6742 0.0
C1090 C 0.29315 0.90457 0.6949 0.0
C1091 C 0.25518 0.86667 0.72028 0.0
C1092 C 0.25663 0.82449 0.73018 0.0
C1093 C 0.29391 0.81899 0.7088 0.0
C1094 C 0.32984 0.85696 0.67956 0.0
Zn1095 Zn 0.37973 0.9547 0.63351 0.0
C1096 C 0.38534 0.93015 0.52481 0.0
N1097 N 0.48327 0.08265 0.55423 0.0
C1098 C 0.52578 0.10557 0.58076 0.0
C1099 C 0.48246 0.06717 0.50392 0.0
C1100 C 0.51093 0.04682 0.49426 0.0
C1101 C 0.54743 0.05489 0.5315 0.0
C1102 C 0.55932 0.09128 0.57039 0.0
Zn1103 Zn 0.43394 1.0211 0.59441 0.0
O1104 O 0.33186 0.98522 0.61916 0.0
C1105 C 0.44 1.03586 0.70722 0.0
O1106 O 0.39007 0.04363 0.57431 0.0
H1107 H 0.45107 0.05669 0.47902 0.0
H1108 H 0.29325 0.93814 0.69217 0.0
H1109 H 0.52989 0.12748 0.61547 0.0
O1110 O 0.40448 0.99325 0.70518 0.0
O1111 O 0.45331 0.06107 0.66488 0.0
H1112 H 0.35782 0.85242 0.66112 0.0
O1113 O 0.48184 1.00044 0.61507 0.0
O1114 O 0.42821 0.93095 0.64903 0.0
O1115 O 0.41556 0.9751 0.52615 0.0
O1116 O 0.35755 0.91092 0.56429 0.0
C1117 C 0.47164 0.96181 0.6392 0.0
H1118 H 0.22503 0.87084 0.73252 0.0
H1119 H 0.2947 0.78576 0.71366 0.0
H1120 H 0.50033 1.02176 0.46153 0.0
H1121 H 0.59056 0.10523 0.59599 0.0
C1122 C 0.34036 0.51572 0.23237 0.0
N1123 N 0.20964 0.40141 0.16397 0.0
C1124 C 0.22293 0.42924 0.11919 0.0
C1125 C 0.18906 0.42038 0.07927 0.0
C1126 C 0.14209 0.38091 0.08418 0.0
C1127 C 0.13239 0.34825 0.12648 0.0
C1128 C 0.16733 0.3588 0.16575 0.0
Zn1129 Zn 0.22812 0.44262 0.23125 0.0
C1130 C 0.23016 0.39137 0.34066 0.0
N1131 N 0.23335 0.51368 0.37065 0.0
C1132 C 0.25759 0.54477 0.4117 0.0
C1133 C 0.19044 0.47262 0.38188 0.0
C1134 C 0.16917 0.46226 0.43095 0.0
C1135 C 0.19281 0.49177 0.47339 0.0
C1136 C 0.23786 0.53405 0.46445 0.0
Zn1137 Zn 0.24576 0.49835 0.29058 0.0
O1138 O 0.30583 0.47858 0.20989 0.0
C1139 C 0.22666 0.54254 0.19389 0.0
O1140 O 0.32958 0.53131 0.27546 0.0
H1141 H 0.17393 0.44251 0.35522 0.0
H1142 H 0.25708 0.4626 0.11814 0.0
H1143 H 0.29272 0.57595 0.40465 0.0
O1144 O 0.2191 0.50054 0.17998 0.0
O1145 O 0.24406 0.55647 0.24126 0.0
H1146 H 0.15758 0.33687 0.20154 0.0
O1147 O 0.16771 0.47639 0.28212 0.0
O1148 O 0.15601 0.41068 0.24518 0.0
O1149 O 0.24234 0.43548 0.34885 0.0
O1150 O 0.22641 0.38096 0.29011 0.0
C1151 C 0.13927 0.43657 0.26097 0.0
H1152 H 0.19929 0.44505 0.04581 0.0
H1153 H 0.09768 0.31571 0.13029 0.0
H1154 H 0.13551 0.42855 0.43624 0.0
H1155 H 0.25736 0.5579 0.49735 0.0
C1156 C 0.58214 0.84472 0.23238 0.0
N1157 N 0.69639 0.82815 0.16402 0.0
C1158 C 0.66855 0.81365 0.11924 0.0
C1159 C 0.6774 0.78866 0.07929 0.0
C1160 C 0.71688 0.78114 0.08417 0.0
C1161 C 0.74955 0.80405 0.12649 0.0
C1162 C 0.739 0.82842 0.16578 0.0
Zn1163 Zn 0.65521 0.80549 0.2313 0.0
C1164 C 0.7065 0.85885 0.34066 0.0
N1165 N 0.58418 0.73982 0.37071 0.0
C1166 C 0.55303 0.73289 0.41173 0.0
C1167 C 0.62528 0.73801 0.38197 0.0
C1168 C 0.63564 0.7271 0.43104 0.0
C1169 C 0.60607 0.72113 0.47345 0.0
C1170 C 0.56374 0.72386 0.46447 0.0
Zn1171 Zn 0.5995 0.76751 0.29064 0.0
O1172 O 0.61928 0.84728 0.20991 0.0
C1173 C 0.55529 0.70417 0.19396 0.0
O1174 O 0.56654 0.81838 0.27548 0.0
H1175 H 0.65538 0.75159 0.35531 0.0
H1176 H 0.63518 0.81446 0.11821 0.0
H1177 H 0.5218 0.73678 0.40466 0.0
O1178 O 0.59728 0.73858 0.18004 0.0
O1179 O 0.54137 0.70768 0.24133 0.0
H1180 H 0.76094 0.84056 0.20158 0.0
O1181 O 0.62144 0.71139 0.28226 0.0
O1182 O 0.68714 0.76531 0.24525 0.0
O1183 O 0.66239 0.82698 0.34888 0.0
O1184 O 0.7169 0.86543 0.29012 0.0
C1185 C 0.66124 0.72271 0.26108 0.0
H1186 H 0.65272 0.77425 0.04583 0.0
H1187 H 0.7821 0.80186 0.13027 0.0
H1188 H 0.66939 0.72718 0.43636 0.0
H1189 H 0.53984 0.71942 0.49735 0.0
C1190 C 0.25322 0.75753 0.2323 0.0
N1191 N 0.26963 0.8883 0.16399 0.0
C1192 C 0.28415 0.87496 0.11921 0.0
C1193 C 0.30917 0.9088 0.0793 0.0
C1194 C 0.31671 0.9558 0.0842 0.0
C1195 C 0.29377 0.96556 0.1265 0.0
C1196 C 0.26937 0.93064 0.16576 0.0
Zn1197 Zn 0.29236 0.86979 0.23126 0.0
C1198 C 0.23904 0.86773 0.34065 0.0
N1199 N 0.3581 0.86443 0.37064 0.0
C1200 C 0.36498 0.84018 0.41167 0.0
C1201 C 0.35992 0.90734 0.3819 0.0
C1202 C 0.37078 0.92858 0.43099 0.0
C1203 C 0.37669 0.90493 0.47341 0.0
C1204 C 0.37396 0.85989 0.46443 0.0
Zn1205 Zn 0.33041 0.85207 0.29056 0.0
O1206 O 0.25061 0.79208 0.20984 0.0
C1207 C 0.39373 0.87122 0.19388 0.0
O1208 O 0.27958 0.76827 0.27539 0.0
H1209 H 0.34634 0.92387 0.35524 0.0
H1210 H 0.28333 0.84078 0.11817 0.0
H1211 H 0.36106 0.80505 0.4046 0.0
O1212 O 0.35928 0.87879 0.17998 0.0
O1213 O 0.39024 0.85378 0.24123 0.0
H1214 H 0.25721 0.94044 0.20155 0.0
O1215 O 0.38648 0.93011 0.28217 0.0
O1216 O 0.3325 0.94189 0.24522 0.0
O1217 O 0.27094 0.8555 0.34884 0.0
O1218 O 0.23241 0.87153 0.29011 0.0
C1219 C 0.37512 0.95859 0.26102 0.0
H1220 H 0.3236 0.89852 0.04585 0.0
H1221 H 0.29596 1.0003 0.13029 0.0
H1222 H 0.3707 0.96224 0.43631 0.0
H1223 H 0.37836 0.84039 0.49732 0.0
loop_
_geom_bond_atom_site_label_1
_geom_bond_atom_site_label_2
_geom_bond_distance
_geom_bond_site_symmetry_2
_ccdc_geom_bond_type
C0 O16 1.251 . S
C0 O18 1.254 . S
N1 C2 1.333 . S
N1 C6 1.307 . S
N1 Zn7 2.020 . S
C2 N1 1.333 . S
C2 C3 1.379 . S
C2 H20 0.952 . S
C3 C2 1.379 . S
C3 C4 1.390 . S
C3 H30 0.949 . S
C4 C3 1.390 . S
C4 C5 1.357 . S
C5 C4 1.357 . S
C5 C6 1.370 . S
C5 H31 0.950 . S
C6 N1 1.307 . S
C6 C5 1.370 . S
C6 H24 0.948 . S
Zn7 N1 2.020 . S
Zn7 O16 2.039 . S
Zn7 O22 2.034 . S
Zn7 O26 2.025 . S
Zn7 O28 2.024 . S
C8 O27 1.246 . S
C8 O28 1.249 1_556 S
N9 C10 1.307 . S
N9 C11 1.333 1_554 S
N9 Zn15 2.020 . S
C10 N9 1.307 . S
C10 C14 1.370 1_554 S
C10 H21 0.948 . S
C11 N9 1.333 1_556 S
C11 C12 1.379 . S
C11 H19 0.952 . S
C12 C11 1.379 . S
C12 C13 1.390 . S
C12 H32 0.949 . S
C13 C12 1.390 . S
C13 C14 1.357 . S
C14 C10 1.370 1_556 S
C14 C13 1.357 . S
C14 H33 0.950 . S
Zn15 N9 2.020 . S
Zn15 O18 2.025 . S
Zn15 O23 2.024 . S
Zn15 O25 2.039 . S
Zn15 O27 2.034 1_554 S
O16 C0 1.251 . S
O16 Zn7 2.039 . S
C17 O22 1.246 . S
C17 O23 1.249 . S
O18 C0 1.254 . S
O18 Zn15 2.025 . S
H19 C11 0.952 . S
H20 C2 0.952 . S
H21 C10 0.948 . S
O22 Zn7 2.034 . S
O22 C17 1.246 . S
O23 Zn15 2.024 . S
O23 C17 1.249 . S
H24 C6 0.948 . S
O25 Zn15 2.039 . S
O25 C29 1.251 . S
O26 Zn7 2.025 . S
O26 C29 1.254 . S
O27 C8 1.246 . S
O27 Zn15 2.034 1_556 S
O28 Zn7 2.024 . S
O28 C8 1.249 1_554 S
C29 O25 1.251 . S
C29 O26 1.254 . S
H30 C3 0.949 . S
H31 C5 0.950 . S
H32 C12 0.949 . S
H33 C14 0.950 . S
C34 O50 1.251 . S
C34 O52 1.254 . S
N35 C36 1.333 . S
N35 C40 1.307 . S
N35 Zn41 2.020 . S
C36 N35 1.333 . S
C36 C37 1.379 . S
C36 H54 0.952 . S
C37 C36 1.379 . S
C37 C38 1.390 . S
C37 H64 0.949 . S
C38 C37 1.390 . S
C38 C39 1.357 . S
C39 C38 1.357 . S
C39 C40 1.370 . S
C39 H65 0.950 . S
C40 N35 1.307 . S
C40 C39 1.370 . S
C40 H58 0.948 . S
Zn41 N35 2.020 . S
Zn41 O50 2.039 . S
Zn41 O56 2.034 . S
Zn41 O60 2.025 1_545 S
Zn41 O62 2.024 . S
C42 O61 1.246 1_545 S
C42 O62 1.249 1_556 S
N43 C44 1.307 . S
N43 C45 1.333 1_554 S
N43 Zn49 2.020 . S
C44 N43 1.307 . S
C44 C48 1.370 1_554 S
C44 H55 0.948 . S
C45 N43 1.333 1_556 S
C45 C46 1.379 . S
C45 H53 0.952 . S
C46 C45 1.379 . S
C46 C47 1.390 . S
C46 H66 0.949 . S
C47 C46 1.390 . S
C47 C48 1.357 . S
C48 C44 1.370 1_556 S
C48 C47 1.357 . S
C48 H67 0.950 . S
Zn49 N43 2.020 . S
Zn49 O52 2.025 1_565 S
Zn49 O57 2.024 . S
Zn49 O59 2.039 . S
Zn49 O61 2.034 1_554 S
O50 C34 1.251 . S
O50 Zn41 2.039 . S
C51 O56 1.246 1_565 S
C51 O57 1.249 . S
O52 C34 1.254 . S
O52 Zn49 2.025 1_545 S
H53 C45 0.952 . S
H54 C36 0.952 . S
H55 C44 0.948 . S
O56 Zn41 2.034 . S
O56 C51 1.246 1_545 S
O57 Zn49 2.024 . S
O57 C51 1.249 . S
H58 C40 0.948 . S
O59 Zn49 2.039 . S
O59 C63 1.251 . S
O60 Zn41 2.025 1_565 S
O60 C63 1.254 . S
O61 C42 1.246 1_565 S
O61 Zn49 2.034 1_556 S
O62 Zn41 2.024 . S
O62 C42 1.249 1_554 S
C63 O59 1.251 . S
C63 O60 1.254 . S
H64 C37 0.949 . S
H65 C39 0.950 . S
H66 C46 0.949 . S
H67 C48 0.950 . S
C68 O84 1.251 . S
C68 O86 1.254 . S
N69 C70 1.333 . S
N69 C74 1.307 . S
N69 Zn75 2.020 . S
C70 N69 1.333 . S
C70 C71 1.379 . S
C70 H88 0.952 . S
C71 C70 1.379 . S
C71 C72 1.390 . S
C71 H98 0.949 . S
C72 C71 1.390 . S
C72 C73 1.357 . S
C73 C72 1.357 . S
C73 C74 1.370 . S
C73 H99 0.950 . S
C74 N69 1.307 . S
C74 C73 1.370 . S
C74 H92 0.948 . S
Zn75 N69 2.020 . S
Zn75 O84 2.039 . S
Zn75 O90 2.034 . S
Zn75 O94 2.025 1_655 S
Zn75 O96 2.024 . S
C76 O95 1.246 1_655 S
C76 O96 1.249 1_556 S
N77 C78 1.307 . S
N77 C79 1.333 1_554 S
N77 Zn83 2.020 . S
C78 N77 1.307 . S
C78 C82 1.370 1_554 S
C78 H89 0.948 . S
C79 N77 1.333 1_556 S
C79 C80 1.379 . S
C79 H87 0.952 . S
C80 C79 1.379 . S
C80 C81 1.390 . S
C80 H100 0.949 . S
C81 C80 1.390 . S
C81 C82 1.357 . S
C82 C78 1.370 1_556 S
C82 C81 1.357 . S
C82 H101 0.950 . S
Zn83 N77 2.020 . S
Zn83 O86 2.025 1_455 S
Zn83 O91 2.024 . S
Zn83 O93 2.039 . S
Zn83 O95 2.034 1_554 S
O84 C68 1.251 . S
O84 Zn75 2.039 . S
C85 O90 1.246 1_455 S
C85 O91 1.249 . S
O86 C68 1.254 . S
O86 Zn83 2.025 1_655 S
H87 C79 0.952 . S
H88 C70 0.952 . S
H89 C78 0.948 . S
O90 Zn75 2.034 . S
O90 C85 1.246 1_655 S
O91 Zn83 2.024 . S
O91 C85 1.249 . S
H92 C74 0.948 . S
O93 Zn83 2.039 . S
O93 C97 1.251 . S
O94 Zn75 2.025 1_455 S
O94 C97 1.254 . S
O95 C76 1.246 1_455 S
O95 Zn83 2.034 1_556 S
O96 Zn75 2.024 . S
O96 C76 1.249 1_554 S
C97 O93 1.251 . S
C97 O94 1.254 . S
H98 C71 0.949 . S
H99 C73 0.950 . S
H100 C80 0.949 . S
H101 C82 0.950 . S
C102 O118 1.251 . S
C102 O120 1.254 . S
N103 C104 1.333 . S
N103 C108 1.307 . S
N103 Zn109 2.020 . S
C104 N103 1.333 . S
C104 C105 1.379 . S
C104 H122 0.952 . S
C105 C104 1.379 . S
C105 C106 1.390 . S
C105 H132 0.949 . S
C106 C105 1.390 . S
C106 C107 1.357 . S
C107 C106 1.357 . S
C107 C108 1.370 . S
C107 H133 0.950 . S
C108 N103 1.307 . S
C108 C107 1.370 . S
C108 H126 0.948 . S
Zn109 N103 2.020 . S
Zn109 O118 2.039 . S
Zn109 O124 2.034 . S
Zn109 O128 2.025 . S
Zn109 O130 2.024 . S
C110 O129 1.246 . S
C110 O130 1.249 . S
N111 C112 1.307 . S
N111 C113 1.333 . S
N111 Zn117 2.020 . S
C112 N111 1.307 . S
C112 C116 1.370 . S
C112 H123 0.948 . S
C113 N111 1.333 . S
C113 C114 1.379 . S
C113 H121 0.952 . S
C114 C113 1.379 . S
C114 C115 1.390 . S
C114 H134 0.949 . S
C115 C114 1.390 . S
C115 C116 1.357 . S
C116 C112 1.370 . S
C116 C115 1.357 . S
C116 H135 0.950 . S
Zn117 N111 2.020 . S
Zn117 O120 2.025 . S
Zn117 O125 2.024 . S
Zn117 O127 2.039 . S
Zn117 O129 2.034 . S
O118 C102 1.251 . S
O118 Zn109 2.039 . S
C119 O124 1.246 . S
C119 O125 1.249 . S
O120 C102 1.254 . S
O120 Zn117 2.025 . S
H121 C113 0.952 . S
H122 C104 0.952 . S
H123 C112 0.948 . S
O124 Zn109 2.034 . S
O124 C119 1.246 . S
O125 Zn117 2.024 . S
O125 C119 1.249 . S
H126 C108 0.948 . S
O127 Zn117 2.039 . S
O127 C131 1.251 . S
O128 Zn109 2.025 . S
O128 C131 1.254 . S
O129 C110 1.246 . S
O129 Zn117 2.034 . S
O130 Zn109 2.024 . S
O130 C110 1.249 . S
C131 O127 1.251 . S
C131 O128 1.254 . S
H132 C105 0.949 . S
H133 C107 0.950 . S
H134 C114 0.949 . S
H135 C116 0.950 . S
C136 O152 1.251 . S
C136 O154 1.254 . S
N137 C138 1.333 . S
N137 C142 1.307 . S
N137 Zn143 2.020 . S
C138 N137 1.333 . S
C138 C139 1.379 . S
C138 H156 0.952 . S
C139 C138 1.379 . S
C139 C140 1.390 . S
C139 H166 0.947 1_565 S
C140 C139 1.390 . S
C140 C141 1.357 . S
C141 C140 1.357 . S
C141 C142 1.370 . S
C141 H167 0.950 . S
C142 N137 1.307 . S
C142 C141 1.370 . S
C142 H160 0.948 . S
Zn143 N137 2.020 . S
Zn143 O152 2.039 . S
Zn143 O158 2.034 . S
Zn143 O162 2.025 . S
Zn143 O164 2.024 1_565 S
C144 O163 1.246 1_545 S
C144 O164 1.249 . S
N145 C146 1.307 . S
N145 C147 1.333 . S
N145 Zn151 2.020 . S
C146 N145 1.307 . S
C146 C150 1.370 . S
C146 H157 0.948 . S
C147 N145 1.333 . S
C147 C148 1.379 . S
C147 H155 0.952 . S
C148 C147 1.379 . S
C148 C149 1.390 . S
C148 H168 0.949 . S
C149 C148 1.390 . S
C149 C150 1.357 . S
C150 C146 1.370 . S
C150 C149 1.357 . S
C150 H169 0.950 . S
Zn151 N145 2.020 . S
Zn151 O154 2.025 . S
Zn151 O159 2.024 . S
Zn151 O161 2.039 . S
Zn151 O163 2.034 . S
O152 C136 1.251 . S
O152 Zn143 2.039 . S
C153 O158 1.246 . S
C153 O159 1.249 . S
O154 C136 1.254 . S
O154 Zn151 2.025 . S
H155 C147 0.952 . S
H156 C138 0.952 . S
H157 C146 0.948 . S
O158 Zn143 2.034 . S
O158 C153 1.246 . S
O159 Zn151 2.024 . S
O159 C153 1.249 . S
H160 C142 0.948 . S
O161 Zn151 2.039 . S
O161 C165 1.251 . S
O162 Zn143 2.025 . S
O162 C165 1.254 . S
O163 C144 1.246 1_565 S
O163 Zn151 2.034 . S
O164 Zn143 2.024 1_545 S
O164 C144 1.249 . S
C165 O161 1.251 . S
C165 O162 1.254 . S
H166 C139 0.947 1_545 S
H167 C141 0.950 . S
H168 C148 0.949 . S
H169 C150 0.950 . S
C170 O186 1.251 . S
C170 O188 1.254 . S
N171 C172 1.333 . S
N171 C176 1.307 . S
N171 Zn177 2.020 . S
C172 N171 1.333 . S
C172 C173 1.379 . S
C172 H190 0.952 . S
C173 C172 1.379 . S
C173 C174 1.390 . S
C173 H200 0.950 1_455 S
C174 C173 1.390 . S
C174 C175 1.357 . S
C175 C174 1.357 . S
C175 C176 1.370 . S
C175 H201 0.950 . S
C176 N171 1.307 . S
C176 C175 1.370 . S
C176 H194 0.948 . S
Zn177 N171 2.020 . S
Zn177 O186 2.039 . S
Zn177 O192 2.034 . S
Zn177 O196 2.025 . S
Zn177 O198 2.024 1_455 S
C178 O197 1.246 1_655 S
C178 O198 1.249 . S
N179 C180 1.307 . S
N179 C181 1.333 . S
N179 Zn185 2.020 . S
C180 N179 1.307 . S
C180 C184 1.370 . S
C180 H191 0.948 . S
C181 N179 1.333 . S
C181 C182 1.379 . S
C181 H189 0.952 . S
C182 C181 1.379 . S
C182 C183 1.390 . S
C182 H202 0.949 . S
C183 C182 1.390 . S
C183 C184 1.357 . S
C184 C180 1.370 . S
C184 C183 1.357 . S
C184 H203 0.950 . S
Zn185 N179 2.020 . S
Zn185 O188 2.025 . S
Zn185 O193 2.024 . S
Zn185 O195 2.039 . S
Zn185 O197 2.034 . S
O186 C170 1.251 . S
O186 Zn177 2.039 . S
C187 O192 1.246 . S
C187 O193 1.249 . S
O188 C170 1.254 . S
O188 Zn185 2.025 . S
H189 C181 0.952 . S
H190 C172 0.952 . S
H191 C180 0.948 . S
O192 Zn177 2.034 . S
O192 C187 1.246 . S
O193 Zn185 2.024 . S
O193 C187 1.249 . S
H194 C176 0.948 . S
O195 Zn185 2.039 . S
O195 C199 1.251 . S
O196 Zn177 2.025 . S
O196 C199 1.254 . S
O197 C178 1.246 1_455 S
O197 Zn185 2.034 . S
O198 Zn177 2.024 1_655 S
O198 C178 1.249 . S
C199 O195 1.251 . S
C199 O196 1.254 . S
H200 C173 0.950 1_655 S
H201 C175 0.950 . S
H202 C182 0.949 . S
H203 C184 0.950 . S
C204 O220 1.251 . S
C204 O222 1.254 . S
N205 C206 1.333 1_556 S
N205 C210 1.307 . S
N205 Zn211 2.020 . S
C206 N205 1.333 1_554 S
C206 C207 1.379 . S
C206 H224 0.952 . S
C207 C206 1.379 . S
C207 C208 1.390 . S
C207 H234 0.949 . S
C208 C207 1.390 . S
C208 C209 1.357 . S
C209 C208 1.357 . S
C209 C210 1.370 1_554 S
C209 H235 0.950 . S
C210 N205 1.307 . S
C210 C209 1.370 1_556 S
C210 H228 0.948 . S
Zn211 N205 2.020 . S
Zn211 O220 2.039 . S
Zn211 O226 2.034 1_556 S
Zn211 O230 2.025 . S
Zn211 O232 2.024 . S
C212 O231 1.246 . S
C212 O232 1.249 . S
N213 C214 1.307 . S
N213 C215 1.333 . S
N213 Zn219 2.020 . S
C214 N213 1.307 . S
C214 C218 1.370 . S
C214 H225 0.948 . S
C215 N213 1.333 . S
C215 C216 1.379 . S
C215 H223 0.952 . S
C216 C215 1.379 . S
C216 C217 1.390 . S
C216 H236 0.949 . S
C217 C216 1.390 . S
C217 C218 1.357 . S
C218 C214 1.370 . S
C218 C217 1.357 . S
C218 H237 0.950 . S
Zn219 N213 2.020 . S
Zn219 O222 2.025 . S
Zn219 O227 2.024 . S
Zn219 O229 2.039 . S
Zn219 O231 2.034 . S
O220 C204 1.251 . S
O220 Zn211 2.039 . S
C221 O226 1.246 . S
C221 O227 1.249 1_554 S
O222 C204 1.254 . S
O222 Zn219 2.025 . S
H223 C215 0.952 . S
H224 C206 0.952 . S
H225 C214 0.948 . S
O226 Zn211 2.034 1_554 S
O226 C221 1.246 . S
O227 Zn219 2.024 . S
O227 C221 1.249 1_556 S
H228 C210 0.948 . S
O229 Zn219 2.039 . S
O229 C233 1.251 . S
O230 Zn211 2.025 . S
O230 C233 1.254 . S
O231 C212 1.246 . S
O231 Zn219 2.034 . S
O232 Zn211 2.024 . S
O232 C212 1.249 . S
C233 O229 1.251 . S
C233 O230 1.254 . S
H234 C207 0.949 . S
H235 C209 0.950 . S
H236 C216 0.949 . S
H237 C218 0.950 . S
C238 O254 1.251 . S
C238 O256 1.254 . S
N239 C240 1.333 1_556 S
N239 C244 1.307 . S
N239 Zn245 2.020 . S
C240 N239 1.333 1_554 S
C240 C241 1.379 . S
C240 H258 0.952 . S
C241 C240 1.379 . S
C241 C242 1.390 . S
C241 H268 0.949 . S
C242 C241 1.390 . S
C242 C243 1.357 . S
C243 C242 1.357 . S
C243 C244 1.370 1_554 S
C243 H269 0.950 . S
C244 N239 1.307 . S
C244 C243 1.370 1_556 S
C244 H262 0.948 . S
Zn245 N239 2.020 . S
Zn245 O254 2.039 . S
Zn245 O260 2.034 1_556 S
Zn245 O264 2.025 1_545 S
Zn245 O266 2.024 . S
C246 O265 1.246 1_545 S
C246 O266 1.249 . S
N247 C248 1.307 . S
N247 C249 1.333 . S
N247 Zn253 2.020 . S
C248 N247 1.307 . S
C248 C252 1.370 . S
C248 H259 0.948 . S
C249 N247 1.333 . S
C249 C250 1.379 . S
C249 H257 0.952 . S
C250 C249 1.379 . S
C250 C251 1.390 . S
C250 H270 0.949 . S
C251 C250 1.390 . S
C251 C252 1.357 . S
C252 C248 1.370 . S
C252 C251 1.357 . S
C252 H271 0.950 . S
Zn253 N247 2.020 . S
Zn253 O256 2.025 1_565 S
Zn253 O261 2.024 . S
Zn253 O263 2.039 . S
Zn253 O265 2.034 . S
O254 C238 1.251 . S
O254 Zn245 2.039 . S
C255 O260 1.246 1_565 S
C255 O261 1.249 1_554 S
O256 C238 1.254 . S
O256 Zn253 2.025 1_545 S
H257 C249 0.952 . S
H258 C240 0.952 . S
H259 C248 0.948 . S
O260 Zn245 2.034 1_554 S
O260 C255 1.246 1_545 S
O261 Zn253 2.024 . S
O261 C255 1.249 1_556 S
H262 C244 0.948 . S
O263 Zn253 2.039 . S
O263 C267 1.251 . S
O264 Zn245 2.025 1_565 S
O264 C267 1.254 . S
O265 C246 1.246 1_565 S
O265 Zn253 2.034 . S
O266 Zn245 2.024 . S
O266 C246 1.249 . S
C267 O263 1.251 . S
C267 O264 1.254 . S
H268 C241 0.949 . S
H269 C243 0.950 . S
H270 C250 0.949 . S
H271 C252 0.950 . S
C272 O288 1.251 . S
C272 O290 1.254 . S
N273 C274 1.333 1_556 S
N273 C278 1.307 . S
N273 Zn279 2.020 . S
C274 N273 1.333 1_554 S
C274 C275 1.379 . S
C274 H292 0.952 . S
C275 C274 1.379 . S
C275 C276 1.390 . S
C275 H302 0.949 . S
C276 C275 1.390 . S
C276 C277 1.357 . S
C277 C276 1.357 . S
C277 C278 1.370 1_554 S
C277 H303 0.950 . S
C278 N273 1.307 . S
C278 C277 1.370 1_556 S
C278 H296 0.948 . S
Zn279 N273 2.020 . S
Zn279 O288 2.039 . S
Zn279 O294 2.034 1_556 S
Zn279 O298 2.025 1_655 S
Zn279 O300 2.024 . S
C280 O299 1.246 1_655 S
C280 O300 1.249 . S
N281 C282 1.307 . S
N281 C283 1.333 . S
N281 Zn287 2.020 . S
C282 N281 1.307 . S
C282 C286 1.370 . S
C282 H293 0.948 . S
C283 N281 1.333 . S
C283 C284 1.379 . S
C283 H291 0.952 . S
C284 C283 1.379 . S
C284 C285 1.390 . S
C284 H304 0.949 . S
C285 C284 1.390 . S
C285 C286 1.357 . S
C286 C282 1.370 . S
C286 C285 1.357 . S
C286 H305 0.950 . S
Zn287 N281 2.020 . S
Zn287 O290 2.025 1_455 S
Zn287 O295 2.024 . S
Zn287 O297 2.039 . S
Zn287 O299 2.034 . S
O288 C272 1.251 . S
O288 Zn279 2.039 . S
C289 O294 1.246 1_455 S
C289 O295 1.249 1_554 S
O290 C272 1.254 . S
O290 Zn287 2.025 1_655 S
H291 C283 0.952 . S
H292 C274 0.952 . S
H293 C282 0.948 . S
O294 Zn279 2.034 1_554 S
O294 C289 1.246 1_655 S
O295 Zn287 2.024 . S
O295 C289 1.249 1_556 S
H296 C278 0.948 . S
O297 Zn287 2.039 . S
O297 C301 1.251 . S
O298 Zn279 2.025 1_455 S
O298 C301 1.254 . S
O299 C280 1.246 1_455 S
O299 Zn287 2.034 . S
O300 Zn279 2.024 . S
O300 C280 1.249 . S
C301 O297 1.251 . S
C301 O298 1.254 . S
H302 C275 0.949 . S
H303 C277 0.950 . S
H304 C284 0.949 . S
H305 C286 0.950 . S
C306 O322 1.251 . S
C306 O324 1.254 . S
N307 C308 1.333 . S
N307 C312 1.307 . S
N307 Zn313 2.020 . S
C308 N307 1.333 . S
C308 C309 1.379 . S
C308 H326 0.952 . S
C309 C308 1.379 . S
C309 C310 1.390 . S
C309 H336 0.949 . S
C310 C309 1.390 . S
C310 C311 1.357 . S
C311 C310 1.357 . S
C311 C312 1.370 . S
C311 H337 0.950 . S
C312 N307 1.307 . S
C312 C311 1.370 . S
C312 H330 0.948 . S
Zn313 N307 2.020 . S
Zn313 O322 2.039 . S
Zn313 O328 2.034 . S
Zn313 O332 2.025 . S
Zn313 O334 2.024 . S
C314 O333 1.246 . S
C314 O334 1.249 . S
N315 C316 1.307 . S
N315 C317 1.333 . S
N315 Zn321 2.020 . S
C316 N315 1.307 . S
C316 C320 1.370 . S
C316 H327 0.948 . S
C317 N315 1.333 . S
C317 C318 1.379 . S
C317 H325 0.952 . S
C318 C317 1.379 . S
C318 C319 1.390 . S
C318 H338 0.949 . S
C319 C318 1.390 . S
C319 C320 1.357 . S
C320 C316 1.370 . S
C320 C319 1.357 . S
C320 H339 0.950 . S
Zn321 N315 2.020 . S
Zn321 O324 2.025 . S
Zn321 O329 2.024 . S
Zn321 O331 2.039 . S
Zn321 O333 2.034 . S
O322 C306 1.251 . S
O322 Zn313 2.039 . S
C323 O328 1.246 . S
C323 O329 1.249 . S
O324 C306 1.254 . S
O324 Zn321 2.025 . S
H325 C317 0.952 . S
H326 C308 0.952 . S
H327 C316 0.948 . S
O328 Zn313 2.034 . S
O328 C323 1.246 . S
O329 Zn321 2.024 . S
O329 C323 1.249 . S
H330 C312 0.948 . S
O331 Zn321 2.039 . S
O331 C335 1.251 . S
O332 Zn313 2.025 . S
O332 C335 1.254 . S
O333 C314 1.246 . S
O333 Zn321 2.034 . S
O334 Zn313 2.024 . S
O334 C314 1.249 . S
C335 O331 1.251 . S
C335 O332 1.254 . S
H336 C309 0.949 . S
H337 C311 0.950 . S
H338 C318 0.949 . S
H339 C320 0.950 . S
C340 O356 1.251 . S
C340 O358 1.254 . S
N341 C342 1.333 . S
N341 C346 1.307 . S
N341 Zn347 2.020 . S
C342 N341 1.333 . S
C342 C343 1.379 . S
C342 H360 0.952 . S
C343 C342 1.379 . S
C343 C344 1.390 . S
C343 H370 0.949 . S
C344 C343 1.390 . S
C344 C345 1.357 . S
C345 C344 1.357 . S
C345 C346 1.370 . S
C345 H371 0.950 . S
C346 N341 1.307 . S
C346 C345 1.370 . S
C346 H364 0.948 . S
Zn347 N341 2.020 . S
Zn347 O356 2.039 . S
Zn347 O362 2.034 . S
Zn347 O366 2.025 . S
Zn347 O368 2.024 . S
C348 O367 1.246 . S
C348 O368 1.249 . S
N349 C350 1.307 . S
N349 C351 1.333 . S
N349 Zn355 2.020 . S
C350 N349 1.307 . S
C350 C354 1.370 . S
C350 H361 0.948 . S
C351 N349 1.333 . S
C351 C352 1.379 . S
C351 H359 0.952 . S
C352 C351 1.379 . S
C352 C353 1.390 . S
C352 H372 0.947 1_545 S
C353 C352 1.390 . S
C353 C354 1.357 . S
C354 C350 1.370 . S
C354 C353 1.357 . S
C354 H373 0.950 . S
Zn355 N349 2.020 . S
Zn355 O358 2.025 . S
Zn355 O363 2.024 1_545 S
Zn355 O365 2.039 . S
Zn355 O367 2.034 . S
O356 C340 1.251 . S
O356 Zn347 2.039 . S
C357 O362 1.246 1_565 S
C357 O363 1.249 . S
O358 C340 1.254 . S
O358 Zn355 2.025 . S
H359 C351 0.952 . S
H360 C342 0.952 . S
H361 C350 0.948 . S
O362 Zn347 2.034 . S
O362 C357 1.246 1_545 S
O363 Zn355 2.024 1_565 S
O363 C357 1.249 . S
H364 C346 0.948 . S
O365 Zn355 2.039 . S
O365 C369 1.251 . S
O366 Zn347 2.025 . S
O366 C369 1.254 . S
O367 C348 1.246 . S
O367 Zn355 2.034 . S
O368 Zn347 2.024 . S
O368 C348 1.249 . S
C369 O365 1.251 . S
C369 O366 1.254 . S
H370 C343 0.949 . S
H371 C345 0.950 . S
H372 C352 0.947 1_565 S
H373 C354 0.950 . S
C374 O390 1.251 . S
C374 O392 1.254 . S
N375 C376 1.333 . S
N375 C380 1.307 . S
N375 Zn381 2.020 . S
C376 N375 1.333 . S
C376 C377 1.379 . S
C376 H394 0.952 . S
C377 C376 1.379 . S
C377 C378 1.390 . S
C377 H404 0.949 . S
C378 C377 1.390 . S
C378 C379 1.357 . S
C379 C378 1.357 . S
C379 C380 1.370 . S
C379 H405 0.950 . S
C380 N375 1.307 . S
C380 C379 1.370 . S
C380 H398 0.948 . S
Zn381 N375 2.020 . S
Zn381 O390 2.039 . S
Zn381 O396 2.034 . S
Zn381 O400 2.025 . S
Zn381 O402 2.024 . S
C382 O401 1.246 . S
C382 O402 1.249 . S
N383 C384 1.307 . S
N383 C385 1.333 . S
N383 Zn389 2.020 . S
C384 N383 1.307 . S
C384 C388 1.370 . S
C384 H395 0.948 . S
C385 N383 1.333 . S
C385 C386 1.379 . S
C385 H393 0.952 . S
C386 C385 1.379 . S
C386 C387 1.390 . S
C386 H406 0.950 1_655 S
C387 C386 1.390 . S
C387 C388 1.357 . S
C388 C384 1.370 . S
C388 C387 1.357 . S
C388 H407 0.950 . S
Zn389 N383 2.020 . S
Zn389 O392 2.025 . S
Zn389 O397 2.024 1_655 S
Zn389 O399 2.039 . S
Zn389 O401 2.034 . S
O390 C374 1.251 . S
O390 Zn381 2.039 . S
C391 O396 1.246 1_455 S
C391 O397 1.249 . S
O392 C374 1.254 . S
O392 Zn389 2.025 . S
H393 C385 0.952 . S
H394 C376 0.952 . S
H395 C384 0.948 . S
O396 Zn381 2.034 . S
O396 C391 1.246 1_655 S
O397 Zn389 2.024 1_455 S
O397 C391 1.249 . S
H398 C380 0.948 . S
O399 Zn389 2.039 . S
O399 C403 1.251 . S
O400 Zn381 2.025 . S
O400 C403 1.254 . S
O401 C382 1.246 . S
O401 Zn389 2.034 . S
O402 Zn381 2.024 . S
O402 C382 1.249 . S
C403 O399 1.251 . S
C403 O400 1.254 . S
H404 C377 0.949 . S
H405 C379 0.950 . S
H406 C386 0.950 1_455 S
H407 C388 0.950 . S
C408 O424 1.251 . S
C408 O426 1.254 . S
N409 C410 1.333 . S
N409 C414 1.307 1_655 S
N409 Zn415 2.020 . S
C410 N409 1.333 . S
C410 C411 1.379 1_655 S
C410 H428 0.952 . S
C411 C410 1.379 1_455 S
C411 C412 1.390 . S
C411 H438 0.949 1_455 S
C412 C411 1.390 . S
C412 C413 1.357 . S
C413 C412 1.357 . S
C413 C414 1.370 . S
C413 H439 0.950 . S
C414 N409 1.307 1_455 S
C414 C413 1.370 . S
C414 H432 0.948 . S
Zn415 N409 2.020 . S
Zn415 O424 2.039 . S
Zn415 O430 2.034 . S
Zn415 O434 2.025 . S
Zn415 O436 2.024 . S
C416 O435 1.246 . S
C416 O436 1.249 . S
N417 C418 1.307 . S
N417 C419 1.333 . S
N417 Zn423 2.020 . S
C418 N417 1.307 . S
C418 C422 1.370 . S
C418 H429 0.948 . S
C419 N417 1.333 . S
C419 C420 1.379 . S
C419 H427 0.952 . S
C420 C419 1.379 . S
C420 C421 1.390 . S
C420 H440 0.949 . S
C421 C420 1.390 . S
C421 C422 1.357 . S
C422 C418 1.370 . S
C422 C421 1.357 . S
C422 H441 0.950 . S
Zn423 N417 2.020 . S
Zn423 O426 2.025 . S
Zn423 O431 2.024 . S
Zn423 O433 2.039 . S
Zn423 O435 2.034 . S
O424 C408 1.251 . S
O424 Zn415 2.039 . S
C425 O430 1.246 . S
C425 O431 1.249 . S
O426 C408 1.254 . S
O426 Zn423 2.025 . S
H427 C419 0.952 . S
H428 C410 0.952 . S
H429 C418 0.948 . S
O430 Zn415 2.034 . S
O430 C425 1.246 . S
O431 Zn423 2.024 . S
O431 C425 1.249 . S
H432 C414 0.948 . S
O433 Zn423 2.039 . S
O433 C437 1.251 . S
O434 Zn415 2.025 . S
O434 C437 1.254 . S
O435 C416 1.246 . S
O435 Zn423 2.034 . S
O436 Zn415 2.024 . S
O436 C416 1.249 . S
C437 O433 1.251 . S
C437 O434 1.254 . S
H438 C411 0.949 1_655 S
H439 C413 0.950 . S
H440 C420 0.949 . S
H441 C422 0.950 . S
C442 O458 1.251 . S
C442 O460 1.254 . S
N443 C444 1.333 . S
N443 C448 1.307 . S
N443 Zn449 2.020 . S
C444 N443 1.333 . S
C444 C445 1.379 . S
C444 H462 0.952 . S
C445 C444 1.379 . S
C445 C446 1.390 . S
C445 H472 0.949 . S
C446 C445 1.390 . S
C446 C447 1.357 . S
C447 C446 1.357 . S
C447 C448 1.370 . S
C447 H473 0.950 . S
C448 N443 1.307 . S
C448 C447 1.370 . S
C448 H466 0.948 . S
Zn449 N443 2.020 . S
Zn449 O458 2.039 . S
Zn449 O464 2.034 . S
Zn449 O468 2.025 . S
Zn449 O470 2.024 . S
C450 O469 1.246 . S
C450 O470 1.249 . S
N451 C452 1.307 . S
N451 C453 1.333 . S
N451 Zn457 2.020 . S
C452 N451 1.307 . S
C452 C456 1.370 . S
C452 H463 0.948 . S
C453 N451 1.333 . S
C453 C454 1.379 . S
C453 H461 0.952 . S
C454 C453 1.379 . S
C454 C455 1.390 . S
C454 H474 0.949 . S
C455 C454 1.390 . S
C455 C456 1.357 . S
C456 C452 1.370 . S
C456 C455 1.357 . S
C456 H475 0.950 . S
Zn457 N451 2.020 . S
Zn457 O460 2.025 . S
Zn457 O465 2.024 . S
Zn457 O467 2.039 . S
Zn457 O469 2.034 . S
O458 C442 1.251 . S
O458 Zn449 2.039 . S
C459 O464 1.246 . S
C459 O465 1.249 . S
O460 C442 1.254 . S
O460 Zn457 2.025 . S
H461 C453 0.952 . S
H462 C444 0.952 . S
H463 C452 0.948 . S
O464 Zn449 2.034 . S
O464 C459 1.246 . S
O465 Zn457 2.024 . S
O465 C459 1.249 . S
H466 C448 0.948 . S
O467 Zn457 2.039 . S
O467 C471 1.251 . S
O468 Zn449 2.025 . S
O468 C471 1.254 . S
O469 C450 1.246 . S
O469 Zn457 2.034 . S
O470 Zn449 2.024 . S
O470 C450 1.249 . S
C471 O467 1.251 . S
C471 O468 1.254 . S
H472 C445 0.949 . S
H473 C447 0.950 . S
H474 C454 0.949 . S
H475 C456 0.950 . S
C476 O492 1.251 . S
C476 O494 1.254 . S
N477 C478 1.333 . S
N477 C482 1.307 1_545 S
N477 Zn483 2.020 . S
C478 N477 1.333 . S
C478 C479 1.379 1_545 S
C478 H496 0.952 . S
C479 C478 1.379 1_565 S
C479 C480 1.390 . S
C479 H506 0.949 1_565 S
C480 C479 1.390 . S
C480 C481 1.357 . S
C481 C480 1.357 . S
C481 C482 1.370 . S
C481 H507 0.950 . S
C482 N477 1.307 1_565 S
C482 C481 1.370 . S
C482 H500 0.948 . S
Zn483 N477 2.020 . S
Zn483 O492 2.039 . S
Zn483 O498 2.034 . S
Zn483 O502 2.025 . S
Zn483 O504 2.024 . S
C484 O503 1.246 . S
C484 O504 1.249 . S
N485 C486 1.307 . S
N485 C487 1.333 . S
N485 Zn491 2.020 . S
C486 N485 1.307 . S
C486 C490 1.370 . S
C486 H497 0.948 . S
C487 N485 1.333 . S
C487 C488 1.379 . S
C487 H495 0.952 . S
C488 C487 1.379 . S
C488 C489 1.390 . S
C488 H508 0.949 . S
C489 C488 1.390 . S
C489 C490 1.357 . S
C490 C486 1.370 . S
C490 C489 1.357 . S
C490 H509 0.950 . S
Zn491 N485 2.020 . S
Zn491 O494 2.025 . S
Zn491 O499 2.024 . S
Zn491 O501 2.039 . S
Zn491 O503 2.034 . S
O492 C476 1.251 . S
O492 Zn483 2.039 . S
C493 O498 1.246 . S
C493 O499 1.249 . S
O494 C476 1.254 . S
O494 Zn491 2.025 . S
H495 C487 0.952 . S
H496 C478 0.952 . S
H497 C486 0.948 . S
O498 Zn483 2.034 . S
O498 C493 1.246 . S
O499 Zn491 2.024 . S
O499 C493 1.249 . S
H500 C482 0.948 . S
O501 Zn491 2.039 . S
O501 C505 1.251 . S
O502 Zn483 2.025 . S
O502 C505 1.254 . S
O503 C484 1.246 . S
O503 Zn491 2.034 . S
O504 Zn483 2.024 . S
O504 C484 1.249 . S
C505 O501 1.251 . S
C505 O502 1.254 . S
H506 C479 0.949 1_545 S
H507 C481 0.950 . S
H508 C488 0.949 . S
H509 C490 0.950 . S
C510 O526 1.251 . S
C510 O528 1.254 . S
N511 C512 1.333 . S
N511 C516 1.307 . S
N511 Zn517 2.020 . S
C512 N511 1.333 . S
C512 C513 1.379 . S
C512 H530 0.952 . S
C513 C512 1.379 . S
C513 C514 1.390 . S
C513 H540 0.949 . S
C514 C513 1.390 . S
C514 C515 1.357 . S
C515 C514 1.357 . S
C515 C516 1.370 . S
C515 H541 0.950 . S
C516 N511 1.307 . S
C516 C515 1.370 . S
C516 H534 0.948 . S
Zn517 N511 2.020 . S
Zn517 O526 2.039 . S
Zn517 O532 2.034 . S
Zn517 O536 2.025 . S
Zn517 O538 2.024 . S
C518 O537 1.246 . S
C518 O538 1.249 . S
N519 C520 1.307 . S
N519 C521 1.333 . S
N519 Zn525 2.020 . S
C520 N519 1.307 . S
C520 C524 1.370 . S
C520 H531 0.948 . S
C521 N519 1.333 . S
C521 C522 1.379 . S
C521 H529 0.952 . S
C522 C521 1.379 . S
C522 C523 1.390 . S
C522 H542 0.949 . S
C523 C522 1.390 . S
C523 C524 1.357 . S
C524 C520 1.370 . S
C524 C523 1.357 . S
C524 H543 0.950 . S
Zn525 N519 2.020 . S
Zn525 O528 2.025 . S
Zn525 O533 2.024 . S
Zn525 O535 2.039 . S
Zn525 O537 2.034 . S
O526 C510 1.251 . S
O526 Zn517 2.039 . S
C527 O532 1.246 . S
C527 O533 1.249 . S
O528 C510 1.254 . S
O528 Zn525 2.025 . S
H529 C521 0.952 . S
H530 C512 0.952 . S
H531 C520 0.948 . S
O532 Zn517 2.034 . S
O532 C527 1.246 . S
O533 Zn525 2.024 . S
O533 C527 1.249 . S
H534 C516 0.948 . S
O535 Zn525 2.039 . S
O535 C539 1.251 . S
O536 Zn517 2.025 . S
O536 C539 1.254 . S
O537 C518 1.246 . S
O537 Zn525 2.034 . S
O538 Zn517 2.024 . S
O538 C518 1.249 . S
C539 O535 1.251 . S
C539 O536 1.254 . S
H540 C513 0.949 . S
H541 C515 0.950 . S
H542 C522 0.949 . S
H543 C524 0.950 . S
C544 O560 1.251 . S
C544 O562 1.254 . S
N545 C546 1.333 . S
N545 C550 1.307 . S
N545 Zn551 2.020 . S
C546 N545 1.333 . S
C546 C547 1.379 . S
C546 H564 0.952 . S
C547 C546 1.379 . S
C547 C548 1.390 . S
C547 H574 0.949 . S
C548 C547 1.390 . S
C548 C549 1.357 . S
C549 C548 1.357 . S
C549 C550 1.370 . S
C549 H575 0.950 . S
C550 N545 1.307 . S
C550 C549 1.370 . S
C550 H568 0.948 . S
Zn551 N545 2.020 . S
Zn551 O560 2.039 . S
Zn551 O566 2.034 . S
Zn551 O570 2.025 . S
Zn551 O572 2.024 . S
C552 O571 1.246 . S
C552 O572 1.249 . S
N553 C554 1.307 . S
N553 C555 1.333 . S
N553 Zn559 2.020 . S
C554 N553 1.307 . S
C554 C558 1.370 . S
C554 H565 0.948 . S
C555 N553 1.333 . S
C555 C556 1.379 . S
C555 H563 0.952 . S
C556 C555 1.379 . S
C556 C557 1.390 . S
C556 H576 0.949 . S
C557 C556 1.390 . S
C557 C558 1.357 . S
C558 C554 1.370 . S
C558 C557 1.357 . S
C558 H577 0.950 . S
Zn559 N553 2.020 . S
Zn559 O562 2.025 . S
Zn559 O567 2.024 . S
Zn559 O569 2.039 . S
Zn559 O571 2.034 . S
O560 C544 1.251 . S
O560 Zn551 2.039 . S
C561 O566 1.246 . S
C561 O567 1.249 . S
O562 C544 1.254 . S
O562 Zn559 2.025 . S
H563 C555 0.952 . S
H564 C546 0.952 . S
H565 C554 0.948 . S
O566 Zn551 2.034 . S
O566 C561 1.246 . S
O567 Zn559 2.024 . S
O567 C561 1.249 . S
H568 C550 0.948 . S
O569 Zn559 2.039 . S
O569 C573 1.251 . S
O570 Zn551 2.025 . S
O570 C573 1.254 . S
O571 C552 1.246 . S
O571 Zn559 2.034 . S
O572 Zn551 2.024 . S
O572 C552 1.249 . S
C573 O569 1.251 . S
C573 O570 1.254 . S
H574 C547 0.949 . S
H575 C549 0.950 . S
H576 C556 0.949 . S
H577 C558 0.950 . S
C578 O594 1.251 . S
C578 O596 1.254 . S
N579 C580 1.333 . S
N579 C584 1.307 . S
N579 Zn585 2.020 . S
C580 N579 1.333 . S
C580 C581 1.379 . S
C580 H598 0.952 . S
C581 C580 1.379 . S
C581 C582 1.390 . S
C581 H608 0.949 . S
C582 C581 1.390 . S
C582 C583 1.357 . S
C583 C582 1.357 . S
C583 C584 1.370 . S
C583 H609 0.950 . S
C584 N579 1.307 . S
C584 C583 1.370 . S
C584 H602 0.948 . S
Zn585 N579 2.020 . S
Zn585 O594 2.039 . S
Zn585 O600 2.034 . S
Zn585 O604 2.025 . S
Zn585 O606 2.024 . S
C586 O605 1.246 . S
C586 O606 1.249 . S
N587 C588 1.307 . S
N587 C589 1.333 . S
N587 Zn593 2.020 . S
C588 N587 1.307 . S
C588 C592 1.370 . S
C588 H599 0.948 . S
C589 N587 1.333 . S
C589 C590 1.379 . S
C589 H597 0.952 . S
C590 C589 1.379 . S
C590 C591 1.390 . S
C590 H610 0.949 . S
C591 C590 1.390 . S
C591 C592 1.357 . S
C592 C588 1.370 . S
C592 C591 1.357 . S
C592 H611 0.950 . S
Zn593 N587 2.020 . S
Zn593 O596 2.025 . S
Zn593 O601 2.024 . S
Zn593 O603 2.039 . S
Zn593 O605 2.034 . S
O594 C578 1.251 . S
O594 Zn585 2.039 . S
C595 O600 1.246 . S
C595 O601 1.249 . S
O596 C578 1.254 . S
O596 Zn593 2.025 . S
H597 C589 0.952 . S
H598 C580 0.952 . S
H599 C588 0.948 . S
O600 Zn585 2.034 . S
O600 C595 1.246 . S
O601 Zn593 2.024 . S
O601 C595 1.249 . S
H602 C584 0.948 . S
O603 Zn593 2.039 . S
O603 C607 1.251 . S
O604 Zn585 2.025 . S
O604 C607 1.254 . S
O605 C586 1.246 . S
O605 Zn593 2.034 . S
O606 Zn585 2.024 . S
O606 C586 1.249 . S
C607 O603 1.251 . S
C607 O604 1.254 . S
H608 C581 0.949 . S
H609 C583 0.950 . S
H610 C590 0.949 . S
H611 C592 0.950 . S
C612 O628 1.251 . S
C612 O630 1.254 . S
N613 C614 1.333 . S
N613 C618 1.307 . S
N613 Zn619 2.020 . S
C614 N613 1.333 . S
C614 C615 1.379 . S
C614 H632 0.952 . S
C615 C614 1.379 . S
C615 C616 1.390 . S
C615 H642 0.949 . S
C616 C615 1.390 . S
C616 C617 1.357 . S
C617 C616 1.357 . S
C617 C618 1.370 . S
C617 H643 0.950 . S
C618 N613 1.307 . S
C618 C617 1.370 . S
C618 H636 0.948 . S
Zn619 N613 2.020 . S
Zn619 O628 2.039 . S
Zn619 O634 2.034 . S
Zn619 O638 2.025 . S
Zn619 O640 2.024 . S
C620 O639 1.246 . S
C620 O640 1.249 . S
N621 C622 1.307 . S
N621 C623 1.333 . S
N621 Zn627 2.020 . S
C622 N621 1.307 . S
C622 C626 1.370 . S
C622 H633 0.948 . S
C623 N621 1.333 . S
C623 C624 1.379 . S
C623 H631 0.952 . S
C624 C623 1.379 . S
C624 C625 1.390 . S
C624 H644 0.949 . S
C625 C624 1.390 . S
C625 C626 1.357 . S
C626 C622 1.370 . S
C626 C625 1.357 . S
C626 H645 0.950 . S
Zn627 N621 2.020 . S
Zn627 O630 2.025 . S
Zn627 O635 2.024 . S
Zn627 O637 2.039 . S
Zn627 O639 2.034 . S
O628 C612 1.251 . S
O628 Zn619 2.039 . S
C629 O634 1.246 . S
C629 O635 1.249 . S
O630 C612 1.254 . S
O630 Zn627 2.025 . S
H631 C623 0.952 . S
H632 C614 0.952 . S
H633 C622 0.948 . S
O634 Zn619 2.034 . S
O634 C629 1.246 . S
O635 Zn627 2.024 . S
O635 C629 1.249 . S
H636 C618 0.948 . S
O637 Zn627 2.039 . S
O637 C641 1.251 . S
O638 Zn619 2.025 . S
O638 C641 1.254 . S
O639 C620 1.246 . S
O639 Zn627 2.034 . S
O640 Zn619 2.024 . S
O640 C620 1.249 . S
C641 O637 1.251 . S
C641 O638 1.254 . S
H642 C615 0.949 . S
H643 C617 0.950 . S
H644 C624 0.949 . S
H645 C626 0.950 . S
C646 O662 1.251 . S
C646 O664 1.254 . S
N647 C648 1.333 . S
N647 C652 1.307 . S
N647 Zn653 2.020 . S
C648 N647 1.333 . S
C648 C649 1.379 . S
C648 H666 0.952 . S
C649 C648 1.379 . S
C649 C650 1.390 . S
C649 H676 0.949 . S
C650 C649 1.390 . S
C650 C651 1.357 . S
C651 C650 1.357 . S
C651 C652 1.370 . S
C651 H677 0.950 . S
C652 N647 1.307 . S
C652 C651 1.370 . S
C652 H670 0.948 . S
Zn653 N647 2.020 . S
Zn653 O662 2.039 . S
Zn653 O668 2.034 . S
Zn653 O672 2.025 . S
Zn653 O674 2.024 . S
C654 O673 1.246 . S
C654 O674 1.249 . S
N655 C656 1.307 . S
N655 C657 1.333 . S
N655 Zn661 2.020 . S
C656 N655 1.307 . S
C656 C660 1.370 . S
C656 H667 0.948 . S
C657 N655 1.333 . S
C657 C658 1.379 . S
C657 H665 0.952 . S
C658 C657 1.379 . S
C658 C659 1.390 . S
C658 H678 0.949 . S
C659 C658 1.390 . S
C659 C660 1.357 . S
C660 C656 1.370 . S
C660 C659 1.357 . S
C660 H679 0.950 . S
Zn661 N655 2.020 . S
Zn661 O664 2.025 . S
Zn661 O669 2.024 . S
Zn661 O671 2.039 . S
Zn661 O673 2.034 . S
O662 C646 1.251 . S
O662 Zn653 2.039 . S
C663 O668 1.246 . S
C663 O669 1.249 . S
O664 C646 1.254 . S
O664 Zn661 2.025 . S
H665 C657 0.952 . S
H666 C648 0.952 . S
H667 C656 0.948 . S
O668 Zn653 2.034 . S
O668 C663 1.246 . S
O669 Zn661 2.024 . S
O669 C663 1.249 . S
H670 C652 0.948 . S
O671 Zn661 2.039 . S
O671 C675 1.251 . S
O672 Zn653 2.025 . S
O672 C675 1.254 . S
O673 C654 1.246 . S
O673 Zn661 2.034 . S
O674 Zn653 2.024 . S
O674 C654 1.249 . S
C675 O671 1.251 . S
C675 O672 1.254 . S
H676 C649 0.949 . S
H677 C651 0.950 . S
H678 C658 0.949 . S
H679 C660 0.950 . S
C680 O696 1.251 . S
C680 O698 1.254 . S
N681 C682 1.333 . S
N681 C686 1.307 . S
N681 Zn687 2.020 . S
C682 N681 1.333 . S
C682 C683 1.379 . S
C682 H700 0.952 . S
C683 C682 1.379 . S
C683 C684 1.390 . S
C683 H710 0.949 . S
C684 C683 1.390 . S
C684 C685 1.357 . S
C685 C684 1.357 . S
C685 C686 1.370 . S
C685 H711 0.950 . S
C686 N681 1.307 . S
C686 C685 1.370 . S
C686 H704 0.948 . S
Zn687 N681 2.020 . S
Zn687 O696 2.039 . S
Zn687 O702 2.034 . S
Zn687 O706 2.025 . S
Zn687 O708 2.024 . S
C688 O707 1.246 . S
C688 O708 1.249 . S
N689 C690 1.307 . S
N689 C691 1.333 . S
N689 Zn695 2.020 . S
C690 N689 1.307 . S
C690 C694 1.370 . S
C690 H701 0.948 . S
C691 N689 1.333 . S
C691 C692 1.379 . S
C691 H699 0.952 . S
C692 C691 1.379 . S
C692 C693 1.390 . S
C692 H712 0.949 . S
C693 C692 1.390 . S
C693 C694 1.357 . S
C694 C690 1.370 . S
C694 C693 1.357 . S
C694 H713 0.950 . S
Zn695 N689 2.020 . S
Zn695 O698 2.025 . S
Zn695 O703 2.024 . S
Zn695 O705 2.039 . S
Zn695 O707 2.034 . S
O696 C680 1.251 . S
O696 Zn687 2.039 . S
C697 O702 1.246 . S
C697 O703 1.249 . S
O698 C680 1.254 . S
O698 Zn695 2.025 . S
H699 C691 0.952 . S
H700 C682 0.952 . S
H701 C690 0.948 . S
O702 Zn687 2.034 . S
O702 C697 1.246 . S
O703 Zn695 2.024 . S
O703 C697 1.249 . S
H704 C686 0.948 . S
O705 Zn695 2.039 . S
O705 C709 1.251 . S
O706 Zn687 2.025 . S
O706 C709 1.254 . S
O707 C688 1.246 . S
O707 Zn695 2.034 . S
O708 Zn687 2.024 . S
O708 C688 1.249 . S
C709 O705 1.251 . S
C709 O706 1.254 . S
H710 C683 0.949 . S
H711 C685 0.950 . S
H712 C692 0.949 . S
H713 C694 0.950 . S
C714 O730 1.251 . S
C714 O732 1.254 . S
N715 C716 1.333 . S
N715 C720 1.307 1_545 S
N715 Zn721 2.020 . S
C716 N715 1.333 . S
C716 C717 1.379 . S
C716 H734 0.952 . S
C717 C716 1.379 . S
C717 C718 1.390 1_545 S
C717 H744 0.949 . S
C718 C717 1.390 1_565 S
C718 C719 1.357 . S
C719 C718 1.357 . S
C719 C720 1.370 . S
C719 H745 0.950 . S
C720 N715 1.307 1_565 S
C720 C719 1.370 . S
C720 H738 0.948 . S
Zn721 N715 2.020 . S
Zn721 O730 2.039 . S
Zn721 O736 2.034 . S
Zn721 O740 2.025 . S
Zn721 O742 2.024 . S
C722 O741 1.246 . S
C722 O742 1.249 . S
N723 C724 1.307 . S
N723 C725 1.333 . S
N723 Zn729 2.020 1_554 S
C724 N723 1.307 . S
C724 C728 1.370 . S
C724 H735 0.948 1_554 S
C725 N723 1.333 . S
C725 C726 1.379 . S
C725 H733 0.952 . S
C726 C725 1.379 . S
C726 C727 1.390 . S
C726 H746 0.949 . S
C727 C726 1.390 . S
C727 C728 1.357 . S
C728 C724 1.370 . S
C728 C727 1.357 . S
C728 H747 0.950 . S
Zn729 N723 2.020 1_556 S
Zn729 O732 2.025 . S
Zn729 O737 2.024 . S
Zn729 O739 2.039 . S
Zn729 O741 2.034 . S
O730 C714 1.251 . S
O730 Zn721 2.039 . S
C731 O736 1.246 . S
C731 O737 1.249 . S
O732 C714 1.254 . S
O732 Zn729 2.025 . S
H733 C725 0.952 . S
H734 C716 0.952 . S
H735 C724 0.948 1_556 S
O736 Zn721 2.034 . S
O736 C731 1.246 . S
O737 Zn729 2.024 . S
O737 C731 1.249 . S
H738 C720 0.948 . S
O739 Zn729 2.039 . S
O739 C743 1.251 . S
O740 Zn721 2.025 . S
O740 C743 1.254 . S
O741 C722 1.246 . S
O741 Zn729 2.034 . S
O742 Zn721 2.024 . S
O742 C722 1.249 . S
C743 O739 1.251 . S
C743 O740 1.254 . S
H744 C717 0.949 . S
H745 C719 0.950 . S
H746 C726 0.949 . S
H747 C728 0.950 . S
C748 O764 1.251 . S
C748 O766 1.254 . S
N749 C750 1.333 . S
N749 C754 1.307 1_655 S
N749 Zn755 2.020 . S
C750 N749 1.333 . S
C750 C751 1.379 . S
C750 H768 0.952 . S
C751 C750 1.379 . S
C751 C752 1.390 1_655 S
C751 H778 0.949 . S
C752 C751 1.390 1_455 S
C752 C753 1.357 . S
C753 C752 1.357 . S
C753 C754 1.370 . S
C753 H779 0.950 . S
C754 N749 1.307 1_455 S
C754 C753 1.370 . S
C754 H772 0.948 . S
Zn755 N749 2.020 . S
Zn755 O764 2.039 . S
Zn755 O770 2.034 . S
Zn755 O774 2.025 . S
Zn755 O776 2.024 . S
C756 O775 1.246 . S
C756 O776 1.249 . S
N757 C758 1.307 . S
N757 C759 1.333 . S
N757 Zn763 2.020 1_554 S
C758 N757 1.307 . S
C758 C762 1.370 . S
C758 H769 0.948 1_554 S
C759 N757 1.333 . S
C759 C760 1.379 . S
C759 H767 0.952 . S
C760 C759 1.379 . S
C760 C761 1.390 . S
C760 H780 0.949 . S
C761 C760 1.390 . S
C761 C762 1.357 . S
C762 C758 1.370 . S
C762 C761 1.357 . S
C762 H781 0.950 . S
Zn763 N757 2.020 1_556 S
Zn763 O766 2.025 . S
Zn763 O771 2.024 . S
Zn763 O773 2.039 . S
Zn763 O775 2.034 . S
O764 C748 1.251 . S
O764 Zn755 2.039 . S
C765 O770 1.246 . S
C765 O771 1.249 . S
O766 C748 1.254 . S
O766 Zn763 2.025 . S
H767 C759 0.952 . S
H768 C750 0.952 . S
H769 C758 0.948 1_556 S
O770 Zn755 2.034 . S
O770 C765 1.246 . S
O771 Zn763 2.024 . S
O771 C765 1.249 . S
H772 C754 0.948 . S
O773 Zn763 2.039 . S
O773 C777 1.251 . S
O774 Zn755 2.025 . S
O774 C777 1.254 . S
O775 C756 1.246 . S
O775 Zn763 2.034 . S
O776 Zn755 2.024 . S
O776 C756 1.249 . S
C777 O773 1.251 . S
C777 O774 1.254 . S
H778 C751 0.949 . S
H779 C753 0.950 . S
H780 C760 0.949 . S
H781 C762 0.950 . S
C782 O798 1.251 . S
C782 O800 1.254 . S
N783 C784 1.333 . S
N783 C788 1.307 . S
N783 Zn789 2.020 . S
C784 N783 1.333 . S
C784 C785 1.379 . S
C784 H802 0.952 . S
C785 C784 1.379 . S
C785 C786 1.390 . S
C785 H812 0.949 . S
C786 C785 1.390 . S
C786 C787 1.357 . S
C787 C786 1.357 . S
C787 C788 1.370 . S
C787 H813 0.950 . S
C788 N783 1.307 . S
C788 C787 1.370 . S
C788 H806 0.948 . S
Zn789 N783 2.020 . S
Zn789 O798 2.039 . S
Zn789 O804 2.034 . S
Zn789 O808 2.025 . S
Zn789 O810 2.024 . S
C790 O809 1.246 . S
C790 O810 1.249 . S
N791 C792 1.307 . S
N791 C793 1.333 . S
N791 Zn797 2.020 1_554 S
C792 N791 1.307 . S
C792 C796 1.370 . S
C792 H803 0.948 1_554 S
C793 N791 1.333 . S
C793 C794 1.379 . S
C793 H801 0.952 . S
C794 C793 1.379 . S
C794 C795 1.390 . S
C794 H814 0.949 . S
C795 C794 1.390 . S
C795 C796 1.357 . S
C796 C792 1.370 . S
C796 C795 1.357 . S
C796 H815 0.950 . S
Zn797 N791 2.020 1_556 S
Zn797 O800 2.025 . S
Zn797 O805 2.024 . S
Zn797 O807 2.039 . S
Zn797 O809 2.034 . S
O798 C782 1.251 . S
O798 Zn789 2.039 . S
C799 O804 1.246 . S
C799 O805 1.249 . S
O800 C782 1.254 . S
O800 Zn797 2.025 . S
H801 C793 0.952 . S
H802 C784 0.952 . S
H803 C792 0.948 1_556 S
O804 Zn789 2.034 . S
O804 C799 1.246 . S
O805 Zn797 2.024 . S
O805 C799 1.249 . S
H806 C788 0.948 . S
O807 Zn797 2.039 . S
O807 C811 1.251 . S
O808 Zn789 2.025 . S
O808 C811 1.254 . S
O809 C790 1.246 . S
O809 Zn797 2.034 . S
O810 Zn789 2.024 . S
O810 C790 1.249 . S
C811 O807 1.251 . S
C811 O808 1.254 . S
H812 C785 0.949 . S
H813 C787 0.950 . S
H814 C794 0.949 . S
H815 C796 0.950 . S
C816 O832 1.251 . S
C816 O834 1.254 . S
N817 C818 1.333 . S
N817 C822 1.307 . S
N817 Zn823 2.020 . S
C818 N817 1.333 . S
C818 C819 1.379 . S
C818 H836 0.952 . S
C819 C818 1.379 . S
C819 C820 1.390 . S
C819 H846 0.949 . S
C820 C819 1.390 . S
C820 C821 1.357 . S
C821 C820 1.357 . S
C821 C822 1.370 . S
C821 H847 0.950 . S
C822 N817 1.307 . S
C822 C821 1.370 . S
C822 H840 0.948 . S
Zn823 N817 2.020 . S
Zn823 O832 2.039 . S
Zn823 O838 2.034 . S
Zn823 O842 2.025 . S
Zn823 O844 2.024 . S
C824 O843 1.246 . S
C824 O844 1.249 . S
N825 C826 1.307 . S
N825 C827 1.333 . S
N825 Zn831 2.020 . S
C826 N825 1.307 . S
C826 C830 1.370 . S
C826 H837 0.948 . S
C827 N825 1.333 . S
C827 C828 1.379 . S
C827 H835 0.952 . S
C828 C827 1.379 . S
C828 C829 1.390 . S
C828 H848 0.949 . S
C829 C828 1.390 . S
C829 C830 1.357 . S
C830 C826 1.370 . S
C830 C829 1.357 . S
C830 H849 0.950 . S
Zn831 N825 2.020 . S
Zn831 O834 2.025 . S
Zn831 O839 2.024 . S
Zn831 O841 2.039 . S
Zn831 O843 2.034 . S
O832 C816 1.251 . S
O832 Zn823 2.039 . S
C833 O838 1.246 . S
C833 O839 1.249 . S
O834 C816 1.254 . S
O834 Zn831 2.025 . S
H835 C827 0.952 . S
H836 C818 0.952 . S
H837 C826 0.948 . S
O838 Zn823 2.034 . S
O838 C833 1.246 . S
O839 Zn831 2.024 . S
O839 C833 1.249 . S
H840 C822 0.948 . S
O841 Zn831 2.039 . S
O841 C845 1.251 . S
O842 Zn823 2.025 . S
O842 C845 1.254 . S
O843 C824 1.246 . S
O843 Zn831 2.034 . S
O844 Zn823 2.024 . S
O844 C824 1.249 . S
C845 O841 1.251 . S
C845 O842 1.254 . S
H846 C819 0.949 . S
H847 C821 0.950 . S
H848 C828 0.949 . S
H849 C830 0.950 . S
C850 O866 1.251 . S
C850 O868 1.254 . S
N851 C852 1.333 . S
N851 C856 1.307 . S
N851 Zn857 2.020 . S
C852 N851 1.333 . S
C852 C853 1.379 . S
C852 H870 0.952 . S
C853 C852 1.379 . S
C853 C854 1.390 . S
C853 H880 0.949 . S
C854 C853 1.390 . S
C854 C855 1.357 . S
C855 C854 1.357 . S
C855 C856 1.370 . S
C855 H881 0.950 . S
C856 N851 1.307 . S
C856 C855 1.370 . S
C856 H874 0.948 . S
Zn857 N851 2.020 . S
Zn857 O866 2.039 . S
Zn857 O872 2.034 . S
Zn857 O876 2.025 . S
Zn857 O878 2.024 . S
C858 O877 1.246 . S
C858 O878 1.249 . S
N859 C860 1.307 . S
N859 C861 1.333 . S
N859 Zn865 2.020 . S
C860 N859 1.307 . S
C860 C864 1.370 . S
C860 H871 0.948 . S
C861 N859 1.333 . S
C861 C862 1.379 . S
C861 H869 0.952 . S
C862 C861 1.379 . S
C862 C863 1.390 . S
C862 H882 0.949 . S
C863 C862 1.390 . S
C863 C864 1.357 . S
C864 C860 1.370 . S
C864 C863 1.357 . S
C864 H883 0.950 . S
Zn865 N859 2.020 . S
Zn865 O868 2.025 . S
Zn865 O873 2.024 . S
Zn865 O875 2.039 . S
Zn865 O877 2.034 . S
O866 C850 1.251 . S
O866 Zn857 2.039 . S
C867 O872 1.246 . S
C867 O873 1.249 . S
O868 C850 1.254 . S
O868 Zn865 2.025 . S
H869 C861 0.952 . S
H870 C852 0.952 . S
H871 C860 0.948 . S
O872 Zn857 2.034 . S
O872 C867 1.246 . S
O873 Zn865 2.024 . S
O873 C867 1.249 . S
H874 C856 0.948 . S
O875 Zn865 2.039 . S
O875 C879 1.251 . S
O876 Zn857 2.025 . S
O876 C879 1.254 . S
O877 C858 1.246 . S
O877 Zn865 2.034 . S
O878 Zn857 2.024 . S
O878 C858 1.249 . S
C879 O875 1.251 . S
C879 O876 1.254 . S
H880 C853 0.949 . S
H881 C855 0.950 . S
H882 C862 0.949 . S
H883 C864 0.950 . S
C884 O900 1.251 . S
C884 O902 1.254 . S
N885 C886 1.333 . S
N885 C890 1.307 . S
N885 Zn891 2.020 . S
C886 N885 1.333 . S
C886 C887 1.379 . S
C886 H904 0.952 . S
C887 C886 1.379 . S
C887 C888 1.390 . S
C887 H914 0.949 . S
C888 C887 1.390 . S
C888 C889 1.357 . S
C889 C888 1.357 . S
C889 C890 1.370 . S
C889 H915 0.950 . S
C890 N885 1.307 . S
C890 C889 1.370 . S
C890 H908 0.948 . S
Zn891 N885 2.020 . S
Zn891 O900 2.039 . S
Zn891 O906 2.034 . S
Zn891 O910 2.025 . S
Zn891 O912 2.024 . S
C892 O911 1.246 . S
C892 O912 1.249 . S
N893 C894 1.307 . S
N893 C895 1.333 . S
N893 Zn899 2.020 . S
C894 N893 1.307 . S
C894 C898 1.370 . S
C894 H905 0.948 . S
C895 N893 1.333 . S
C895 C896 1.379 . S
C895 H903 0.952 . S
C896 C895 1.379 . S
C896 C897 1.390 . S
C896 H916 0.949 . S
C897 C896 1.390 . S
C897 C898 1.357 . S
C898 C894 1.370 . S
C898 C897 1.357 . S
C898 H917 0.950 . S
Zn899 N893 2.020 . S
Zn899 O902 2.025 . S
Zn899 O907 2.024 . S
Zn899 O909 2.039 . S
Zn899 O911 2.034 . S
O900 C884 1.251 . S
O900 Zn891 2.039 . S
C901 O906 1.246 . S
C901 O907 1.249 . S
O902 C884 1.254 . S
O902 Zn899 2.025 . S
H903 C895 0.952 . S
H904 C886 0.952 . S
H905 C894 0.948 . S
O906 Zn891 2.034 . S
O906 C901 1.246 . S
O907 Zn899 2.024 . S
O907 C901 1.249 . S
H908 C890 0.948 . S
O909 Zn899 2.039 . S
O909 C913 1.251 . S
O910 Zn891 2.025 . S
O910 C913 1.254 . S
O911 C892 1.246 . S
O911 Zn899 2.034 . S
O912 Zn891 2.024 . S
O912 C892 1.249 . S
C913 O909 1.251 . S
C913 O910 1.254 . S
H914 C887 0.949 . S
H915 C889 0.950 . S
H916 C896 0.949 . S
H917 C898 0.950 . S
C918 O934 1.251 . S
C918 O936 1.254 . S
N919 C920 1.333 . S
N919 C924 1.307 . S
N919 Zn925 2.020 1_556 S
C920 N919 1.333 . S
C920 C921 1.379 . S
C920 H938 0.952 . S
C921 C920 1.379 . S
C921 C922 1.390 . S
C921 H948 0.949 . S
C922 C921 1.390 . S
C922 C923 1.357 . S
C923 C922 1.357 . S
C923 C924 1.370 . S
C923 H949 0.950 . S
C924 N919 1.307 . S
C924 C923 1.370 . S
C924 H942 0.948 1_556 S
Zn925 N919 2.020 1_554 S
Zn925 O934 2.039 . S
Zn925 O940 2.034 . S
Zn925 O944 2.025 . S
Zn925 O946 2.024 . S
C926 O945 1.246 . S
C926 O946 1.249 . S
N927 C928 1.307 1_565 S
N927 C929 1.333 . S
N927 Zn933 2.020 . S
C928 N927 1.307 1_545 S
C928 C932 1.370 . S
C928 H939 0.948 . S
C929 N927 1.333 . S
C929 C930 1.379 . S
C929 H937 0.952 . S
C930 C929 1.379 . S
C930 C931 1.390 1_565 S
C930 H950 0.949 . S
C931 C930 1.390 1_545 S
C931 C932 1.357 . S
C932 C928 1.370 . S
C932 C931 1.357 . S
C932 H951 0.950 . S
Zn933 N927 2.020 . S
Zn933 O936 2.025 . S
Zn933 O941 2.024 . S
Zn933 O943 2.039 . S
Zn933 O945 2.034 . S
O934 C918 1.251 . S
O934 Zn925 2.039 . S
C935 O940 1.246 . S
C935 O941 1.249 . S
O936 C918 1.254 . S
O936 Zn933 2.025 . S
H937 C929 0.952 . S
H938 C920 0.952 . S
H939 C928 0.948 . S
O940 Zn925 2.034 . S
O940 C935 1.246 . S
O941 Zn933 2.024 . S
O941 C935 1.249 . S
H942 C924 0.948 1_554 S
O943 Zn933 2.039 . S
O943 C947 1.251 . S
O944 Zn925 2.025 . S
O944 C947 1.254 . S
O945 C926 1.246 . S
O945 Zn933 2.034 . S
O946 Zn925 2.024 . S
O946 C926 1.249 . S
C947 O943 1.251 . S
C947 O944 1.254 . S
H948 C921 0.949 . S
H949 C923 0.950 . S
H950 C930 0.949 . S
H951 C932 0.950 . S
C952 O968 1.251 . S
C952 O970 1.254 . S
N953 C954 1.333 . S
N953 C958 1.307 . S
N953 Zn959 2.020 1_556 S
C954 N953 1.333 . S
C954 C955 1.379 . S
C954 H972 0.952 . S
C955 C954 1.379 . S
C955 C956 1.390 . S
C955 H982 0.949 . S
C956 C955 1.390 . S
C956 C957 1.357 . S
C957 C956 1.357 . S
C957 C958 1.370 . S
C957 H983 0.950 . S
C958 N953 1.307 . S
C958 C957 1.370 . S
C958 H976 0.948 1_556 S
Zn959 N953 2.020 1_554 S
Zn959 O968 2.039 . S
Zn959 O974 2.034 . S
Zn959 O978 2.025 . S
Zn959 O980 2.024 . S
C960 O979 1.246 . S
C960 O980 1.249 . S
N961 C962 1.307 1_455 S
N961 C963 1.333 . S
N961 Zn967 2.020 . S
C962 N961 1.307 1_655 S
C962 C966 1.370 . S
C962 H973 0.948 . S
C963 N961 1.333 . S
C963 C964 1.379 . S
C963 H971 0.952 . S
C964 C963 1.379 . S
C964 C965 1.390 1_455 S
C964 H984 0.949 . S
C965 C964 1.390 1_655 S
C965 C966 1.357 . S
C966 C962 1.370 . S
C966 C965 1.357 . S
C966 H985 0.950 . S
Zn967 N961 2.020 . S
Zn967 O970 2.025 . S
Zn967 O975 2.024 . S
Zn967 O977 2.039 . S
Zn967 O979 2.034 . S
O968 C952 1.251 . S
O968 Zn959 2.039 . S
C969 O974 1.246 . S
C969 O975 1.249 . S
O970 C952 1.254 . S
O970 Zn967 2.025 . S
H971 C963 0.952 . S
H972 C954 0.952 . S
H973 C962 0.948 . S
O974 Zn959 2.034 . S
O974 C969 1.246 . S
O975 Zn967 2.024 . S
O975 C969 1.249 . S
H976 C958 0.948 1_554 S
O977 Zn967 2.039 . S
O977 C981 1.251 . S
O978 Zn959 2.025 . S
O978 C981 1.254 . S
O979 C960 1.246 . S
O979 Zn967 2.034 . S
O980 Zn959 2.024 . S
O980 C960 1.249 . S
C981 O977 1.251 . S
C981 O978 1.254 . S
H982 C955 0.949 . S
H983 C957 0.950 . S
H984 C964 0.949 . S
H985 C966 0.950 . S
C986 O1002 1.251 . S
C986 O1004 1.254 . S
N987 C988 1.333 . S
N987 C992 1.307 . S
N987 Zn993 2.020 1_556 S
C988 N987 1.333 . S
C988 C989 1.379 . S
C988 H1006 0.952 . S
C989 C988 1.379 . S
C989 C990 1.390 . S
C989 H1016 0.949 . S
C990 C989 1.390 . S
C990 C991 1.357 . S
C991 C990 1.357 . S
C991 C992 1.370 . S
C991 H1017 0.950 . S
C992 N987 1.307 . S
C992 C991 1.370 . S
C992 H1010 0.948 1_556 S
Zn993 N987 2.020 1_554 S
Zn993 O1002 2.039 . S
Zn993 O1008 2.034 . S
Zn993 O1012 2.025 . S
Zn993 O1014 2.024 . S
C994 O1013 1.246 . S
C994 O1014 1.249 . S
N995 C996 1.307 . S
N995 C997 1.333 . S
N995 Zn1001 2.020 . S
C996 N995 1.307 . S
C996 C1000 1.370 . S
C996 H1007 0.948 . S
C997 N995 1.333 . S
C997 C998 1.379 . S
C997 H1005 0.952 . S
C998 C997 1.379 . S
C998 C999 1.390 . S
C998 H1018 0.949 . S
C999 C998 1.390 . S
C999 C1000 1.357 . S
C1000 C996 1.370 . S
C1000 C999 1.357 . S
C1000 H1019 0.950 . S
Zn1001 N995 2.020 . S
Zn1001 O1004 2.025 . S
Zn1001 O1009 2.024 . S
Zn1001 O1011 2.039 . S
Zn1001 O1013 2.034 . S
O1002 C986 1.251 . S
O1002 Zn993 2.039 . S
C1003 O1008 1.246 . S
C1003 O1009 1.249 . S
O1004 C986 1.254 . S
O1004 Zn1001 2.025 . S
H1005 C997 0.952 . S
H1006 C988 0.952 . S
H1007 C996 0.948 . S
O1008 Zn993 2.034 . S
O1008 C1003 1.246 . S
O1009 Zn1001 2.024 . S
O1009 C1003 1.249 . S
H1010 C992 0.948 1_554 S
O1011 Zn1001 2.039 . S
O1011 C1015 1.251 . S
O1012 Zn993 2.025 . S
O1012 C1015 1.254 . S
O1013 C994 1.246 . S
O1013 Zn1001 2.034 . S
O1014 Zn993 2.024 . S
O1014 C994 1.249 . S
C1015 O1011 1.251 . S
C1015 O1012 1.254 . S
H1016 C989 0.949 . S
H1017 C991 0.950 . S
H1018 C998 0.949 . S
H1019 C1000 0.950 . S
C1020 O1036 1.251 . S
C1020 O1038 1.254 . S
N1021 C1022 1.333 . S
N1021 C1026 1.307 . S
N1021 Zn1027 2.020 . S
C1022 N1021 1.333 . S
C1022 C1023 1.379 . S
C1022 H1040 0.952 . S
C1023 C1022 1.379 . S
C1023 C1024 1.390 . S
C1023 H1050 0.949 . S
C1024 C1023 1.390 . S
C1024 C1025 1.357 . S
C1025 C1024 1.357 . S
C1025 C1026 1.370 . S
C1025 H1051 0.950 . S
C1026 N1021 1.307 . S
C1026 C1025 1.370 . S
C1026 H1044 0.948 . S
Zn1027 N1021 2.020 . S
Zn1027 O1036 2.039 . S
Zn1027 O1042 2.034 . S
Zn1027 O1046 2.025 . S
Zn1027 O1048 2.024 . S
C1028 O1047 1.246 . S
C1028 O1048 1.249 . S
N1029 C1030 1.307 1_455 S
N1029 C1031 1.333 . S
N1029 Zn1035 2.020 . S
C1030 N1029 1.307 1_655 S
C1030 C1034 1.370 . S
C1030 H1041 0.948 . S
C1031 N1029 1.333 . S
C1031 C1032 1.379 1_455 S
C1031 H1039 0.952 . S
C1032 C1031 1.379 1_655 S
C1032 C1033 1.390 . S
C1032 H1052 0.949 1_655 S
C1033 C1032 1.390 . S
C1033 C1034 1.357 . S
C1034 C1030 1.370 . S
C1034 C1033 1.357 . S
C1034 H1053 0.950 . S
Zn1035 N1029 2.020 . S
Zn1035 O1038 2.025 . S
Zn1035 O1043 2.024 . S
Zn1035 O1045 2.039 . S
Zn1035 O1047 2.034 . S
O1036 C1020 1.251 . S
O1036 Zn1027 2.039 . S
C1037 O1042 1.246 . S
C1037 O1043 1.249 . S
O1038 C1020 1.254 . S
O1038 Zn1035 2.025 . S
H1039 C1031 0.952 . S
H1040 C1022 0.952 . S
H1041 C1030 0.948 . S
O1042 Zn1027 2.034 . S
O1042 C1037 1.246 . S
O1043 Zn1035 2.024 . S
O1043 C1037 1.249 . S
H1044 C1026 0.948 . S
O1045 Zn1035 2.039 . S
O1045 C1049 1.251 . S
O1046 Zn1027 2.025 . S
O1046 C1049 1.254 . S
O1047 C1028 1.246 . S
O1047 Zn1035 2.034 . S
O1048 Zn1027 2.024 . S
O1048 C1028 1.249 . S
C1049 O1045 1.251 . S
C1049 O1046 1.254 . S
H1050 C1023 0.949 . S
H1051 C1025 0.950 . S
H1052 C1032 0.949 1_455 S
H1053 C1034 0.950 . S
C1054 O1070 1.251 . S
C1054 O1072 1.254 . S
N1055 C1056 1.333 . S
N1055 C1060 1.307 . S
N1055 Zn1061 2.020 . S
C1056 N1055 1.333 . S
C1056 C1057 1.379 . S
C1056 H1074 0.952 . S
C1057 C1056 1.379 . S
C1057 C1058 1.390 . S
C1057 H1084 0.949 . S
C1058 C1057 1.390 . S
C1058 C1059 1.357 . S
C1059 C1058 1.357 . S
C1059 C1060 1.370 . S
C1059 H1085 0.950 . S
C1060 N1055 1.307 . S
C1060 C1059 1.370 . S
C1060 H1078 0.948 . S
Zn1061 N1055 2.020 . S
Zn1061 O1070 2.039 . S
Zn1061 O1076 2.034 . S
Zn1061 O1080 2.025 . S
Zn1061 O1082 2.024 . S
C1062 O1081 1.246 . S
C1062 O1082 1.249 . S
N1063 C1064 1.307 . S
N1063 C1065 1.333 . S
N1063 Zn1069 2.020 . S
C1064 N1063 1.307 . S
C1064 C1068 1.370 . S
C1064 H1075 0.948 . S
C1065 N1063 1.333 . S
C1065 C1066 1.379 . S
C1065 H1073 0.952 . S
C1066 C1065 1.379 . S
C1066 C1067 1.390 . S
C1066 H1086 0.949 . S
C1067 C1066 1.390 . S
C1067 C1068 1.357 . S
C1068 C1064 1.370 . S
C1068 C1067 1.357 . S
C1068 H1087 0.950 . S
Zn1069 N1063 2.020 . S
Zn1069 O1072 2.025 . S
Zn1069 O1077 2.024 . S
Zn1069 O1079 2.039 . S
Zn1069 O1081 2.034 . S
O1070 C1054 1.251 . S
O1070 Zn1061 2.039 . S
C1071 O1076 1.246 . S
C1071 O1077 1.249 . S
O1072 C1054 1.254 . S
O1072 Zn1069 2.025 . S
H1073 C1065 0.952 . S
H1074 C1056 0.952 . S
H1075 C1064 0.948 . S
O1076 Zn1061 2.034 . S
O1076 C1071 1.246 . S
O1077 Zn1069 2.024 . S
O1077 C1071 1.249 . S
H1078 C1060 0.948 . S
O1079 Zn1069 2.039 . S
O1079 C1083 1.251 . S
O1080 Zn1061 2.025 . S
O1080 C1083 1.254 . S
O1081 C1062 1.246 . S
O1081 Zn1069 2.034 . S
O1082 Zn1061 2.024 . S
O1082 C1062 1.249 . S
C1083 O1079 1.251 . S
C1083 O1080 1.254 . S
H1084 C1057 0.949 . S
H1085 C1059 0.950 . S
H1086 C1066 0.949 . S
H1087 C1068 0.950 . S
C1088 O1104 1.251 . S
C1088 O1106 1.254 . S
N1089 C1090 1.333 . S
N1089 C1094 1.307 . S
N1089 Zn1095 2.020 . S
C1090 N1089 1.333 . S
C1090 C1091 1.379 . S
C1090 H1108 0.952 . S
C1091 C1090 1.379 . S
C1091 C1092 1.390 . S
C1091 H1118 0.949 . S
C1092 C1091 1.390 . S
C1092 C1093 1.357 . S
C1093 C1092 1.357 . S
C1093 C1094 1.370 . S
C1093 H1119 0.950 . S
C1094 N1089 1.307 . S
C1094 C1093 1.370 . S
C1094 H1112 0.948 . S
Zn1095 N1089 2.020 . S
Zn1095 O1104 2.039 . S
Zn1095 O1110 2.034 . S
Zn1095 O1114 2.025 . S
Zn1095 O1116 2.024 . S
C1096 O1115 1.246 . S
C1096 O1116 1.249 . S
N1097 C1098 1.307 1_565 S
N1097 C1099 1.333 . S
N1097 Zn1103 2.020 . S
C1098 N1097 1.307 1_545 S
C1098 C1102 1.370 . S
C1098 H1109 0.948 . S
C1099 N1097 1.333 . S
C1099 C1100 1.379 1_565 S
C1099 H1107 0.952 . S
C1100 C1099 1.379 1_545 S
C1100 C1101 1.390 . S
C1100 H1120 0.949 1_545 S
C1101 C1100 1.390 . S
C1101 C1102 1.357 . S
C1102 C1098 1.370 . S
C1102 C1101 1.357 . S
C1102 H1121 0.950 . S
Zn1103 N1097 2.020 . S
Zn1103 O1106 2.025 . S
Zn1103 O1111 2.024 . S
Zn1103 O1113 2.039 . S
Zn1103 O1115 2.034 . S
O1104 C1088 1.251 . S
O1104 Zn1095 2.039 . S
C1105 O1110 1.246 . S
C1105 O1111 1.249 . S
O1106 C1088 1.254 . S
O1106 Zn1103 2.025 . S
H1107 C1099 0.952 . S
H1108 C1090 0.952 . S
H1109 C1098 0.948 . S
O1110 Zn1095 2.034 . S
O1110 C1105 1.246 . S
O1111 Zn1103 2.024 . S
O1111 C1105 1.249 . S
H1112 C1094 0.948 . S
O1113 Zn1103 2.039 . S
O1113 C1117 1.251 . S
O1114 Zn1095 2.025 . S
O1114 C1117 1.254 . S
O1115 C1096 1.246 . S
O1115 Zn1103 2.034 . S
O1116 Zn1095 2.024 . S
O1116 C1096 1.249 . S
C1117 O1113 1.251 . S
C1117 O1114 1.254 . S
H1118 C1091 0.949 . S
H1119 C1093 0.950 . S
H1120 C1100 0.949 1_565 S
H1121 C1102 0.950 . S
C1122 O1138 1.251 . S
C1122 O1140 1.254 . S
N1123 C1124 1.333 . S
N1123 C1128 1.307 . S
N1123 Zn1129 2.020 . S
C1124 N1123 1.333 . S
C1124 C1125 1.379 . S
C1124 H1142 0.952 . S
C1125 C1124 1.379 . S
C1125 C1126 1.390 . S
C1125 H1152 0.949 . S
C1126 C1125 1.390 . S
C1126 C1127 1.357 . S
C1127 C1126 1.357 . S
C1127 C1128 1.370 . S
C1127 H1153 0.950 . S
C1128 N1123 1.307 . S
C1128 C1127 1.370 . S
C1128 H1146 0.948 . S
Zn1129 N1123 2.020 . S
Zn1129 O1138 2.039 . S
Zn1129 O1144 2.034 . S
Zn1129 O1148 2.025 . S
Zn1129 O1150 2.024 . S
C1130 O1149 1.246 . S
C1130 O1150 1.249 . S
N1131 C1132 1.307 . S
N1131 C1133 1.333 . S
N1131 Zn1137 2.020 . S
C1132 N1131 1.307 . S
C1132 C1136 1.370 . S
C1132 H1143 0.948 . S
C1133 N1131 1.333 . S
C1133 C1134 1.379 . S
C1133 H1141 0.952 . S
C1134 C1133 1.379 . S
C1134 C1135 1.390 . S
C1134 H1154 0.949 . S
C1135 C1134 1.390 . S
C1135 C1136 1.357 . S
C1136 C1132 1.370 . S
C1136 C1135 1.357 . S
C1136 H1155 0.950 . S
Zn1137 N1131 2.020 . S
Zn1137 O1140 2.025 . S
Zn1137 O1145 2.024 . S
Zn1137 O1147 2.039 . S
Zn1137 O1149 2.034 . S
O1138 C1122 1.251 . S
O1138 Zn1129 2.039 . S
C1139 O1144 1.246 . S
C1139 O1145 1.249 . S
O1140 C1122 1.254 . S
O1140 Zn1137 2.025 . S
H1141 C1133 0.952 . S
H1142 C1124 0.952 . S
H1143 C1132 0.948 . S
O1144 Zn1129 2.034 . S
O1144 C1139 1.246 . S
O1145 Zn1137 2.024 . S
O1145 C1139 1.249 . S
H1146 C1128 0.948 . S
O1147 Zn1137 2.039 . S
O1147 C1151 1.251 . S
O1148 Zn1129 2.025 . S
O1148 C1151 1.254 . S
O1149 C1130 1.246 . S
O1149 Zn1137 2.034 . S
O1150 Zn1129 2.024 . S
O1150 C1130 1.249 . S
C1151 O1147 1.251 . S
C1151 O1148 1.254 . S
H1152 C1125 0.949 . S
H1153 C1127 0.950 . S
H1154 C1134 0.949 . S
H1155 C1136 0.950 . S
C1156 O1172 1.251 . S
C1156 O1174 1.254 . S
N1157 C1158 1.333 . S
N1157 C1162 1.307 . S
N1157 Zn1163 2.020 . S
C1158 N1157 1.333 . S
C1158 C1159 1.379 . S
C1158 H1176 0.952 . S
C1159 C1158 1.379 . S
C1159 C1160 1.390 . S
C1159 H1186 0.949 . S
C1160 C1159 1.390 . S
C1160 C1161 1.357 . S
C1161 C1160 1.357 . S
C1161 C1162 1.370 . S
C1161 H1187 0.950 . S
C1162 N1157 1.307 . S
C1162 C1161 1.370 . S
C1162 H1180 0.948 . S
Zn1163 N1157 2.020 . S
Zn1163 O1172 2.039 . S
Zn1163 O1178 2.034 . S
Zn1163 O1182 2.025 . S
Zn1163 O1184 2.024 . S
C1164 O1183 1.246 . S
C1164 O1184 1.249 . S
N1165 C1166 1.307 . S
N1165 C1167 1.333 . S
N1165 Zn1171 2.020 . S
C1166 N1165 1.307 . S
C1166 C1170 1.370 . S
C1166 H1177 0.948 . S
C1167 N1165 1.333 . S
C1167 C1168 1.379 . S
C1167 H1175 0.952 . S
C1168 C1167 1.379 . S
C1168 C1169 1.390 . S
C1168 H1188 0.949 . S
C1169 C1168 1.390 . S
C1169 C1170 1.357 . S
C1170 C1166 1.370 . S
C1170 C1169 1.357 . S
C1170 H1189 0.950 . S
Zn1171 N1165 2.020 . S
Zn1171 O1174 2.025 . S
Zn1171 O1179 2.024 . S
Zn1171 O1181 2.039 . S
Zn1171 O1183 2.034 . S
O1172 C1156 1.251 . S
O1172 Zn1163 2.039 . S
C1173 O1178 1.246 . S
C1173 O1179 1.249 . S
O1174 C1156 1.254 . S
O1174 Zn1171 2.025 . S
H1175 C1167 0.952 . S
H1176 C1158 0.952 . S
H1177 C1166 0.948 . S
O1178 Zn1163 2.034 . S
O1178 C1173 1.246 . S
O1179 Zn1171 2.024 . S
O1179 C1173 1.249 . S
H1180 C1162 0.948 . S
O1181 Zn1171 2.039 . S
O1181 C1185 1.251 . S
O1182 Zn1163 2.025 . S
O1182 C1185 1.254 . S
O1183 C1164 1.246 . S
O1183 Zn1171 2.034 . S
O1184 Zn1163 2.024 . S
O1184 C1164 1.249 . S
C1185 O1181 1.251 . S
C1185 O1182 1.254 . S
H1186 C1159 0.949 . S
H1187 C1161 0.950 . S
H1188 C1168 0.949 . S
H1189 C1170 0.950 . S
C1190 O1206 1.251 . S
C1190 O1208 1.254 . S
N1191 C1192 1.333 . S
N1191 C1196 1.307 . S
N1191 Zn1197 2.020 . S
C1192 N1191 1.333 . S
C1192 C1193 1.379 . S
C1192 H1210 0.952 . S
C1193 C1192 1.379 . S
C1193 C1194 1.390 . S
C1193 H1220 0.949 . S
C1194 C1193 1.390 . S
C1194 C1195 1.357 . S
C1195 C1194 1.357 . S
C1195 C1196 1.370 . S
C1195 H1221 0.950 . S
C1196 N1191 1.307 . S
C1196 C1195 1.370 . S
C1196 H1214 0.948 . S
Zn1197 N1191 2.020 . S
Zn1197 O1206 2.039 . S
Zn1197 O1212 2.034 . S
Zn1197 O1216 2.025 . S
Zn1197 O1218 2.024 . S
C1198 O1217 1.246 . S
C1198 O1218 1.249 . S
N1199 C1200 1.307 . S
N1199 C1201 1.333 . S
N1199 Zn1205 2.020 . S
C1200 N1199 1.307 . S
C1200 C1204 1.370 . S
C1200 H1211 0.948 . S
C1201 N1199 1.333 . S
C1201 C1202 1.379 . S
C1201 H1209 0.952 . S
C1202 C1201 1.379 . S
C1202 C1203 1.390 . S
C1202 H1222 0.949 . S
C1203 C1202 1.390 . S
C1203 C1204 1.357 . S
C1204 C1200 1.370 . S
C1204 C1203 1.357 . S
C1204 H1223 0.950 . S
Zn1205 N1199 2.020 . S
Zn1205 O1208 2.025 . S
Zn1205 O1213 2.024 . S
Zn1205 O1215 2.039 . S
Zn1205 O1217 2.034 . S
O1206 C1190 1.251 . S
O1206 Zn1197 2.039 . S
C1207 O1212 1.246 . S
C1207 O1213 1.249 . S
O1208 C1190 1.254 . S
O1208 Zn1205 2.025 . S
H1209 C1201 0.952 . S
H1210 C1192 0.952 . S
H1211 C1200 0.948 . S
O1212 Zn1197 2.034 . S
O1212 C1207 1.246 . S
O1213 Zn1205 2.024 . S
O1213 C1207 1.249 . S
H1214 C1196 0.948 . S
O1215 Zn1205 2.039 . S
O1215 C1219 1.251 . S
O1216 Zn1197 2.025 . S
O1216 C1219 1.254 . S
O1217 C1198 1.246 . S
O1217 Zn1205 2.034 . S
O1218 Zn1197 2.024 . S
O1218 C1198 1.249 . S
C1219 O1215 1.251 . S
C1219 O1216 1.254 . S
H1220 C1193 0.949 . S
H1221 C1195 0.950 . S
H1222 C1202 0.949 . S
H1223 C1204 0.950 . S
C0 C242 1.863 . S
C276 C34 1.882 . S
C208 C68 1.894 . S
C391 C131 3.443 . S
C165 C323 3.473 . S
C199 C357 3.473 . S
C47 C233 1.863 . S
C267 C81 1.882 . S
C13 C301 1.894 . S
C178 C306 3.443 . S
C340 C110 3.473 . S
C374 C144 3.473 . S
C408 C650 2.040 . S
C684 C442 2.055 . S
C616 C476 2.060 . S
C539 C799 3.443 . S
C731 C573 3.444 . S
C607 C765 3.454 . S
C641 C455 2.010 . S
C489 C675 2.015 . S
C709 C421 2.057 . S
C586 C714 3.501 . S
C518 C748 3.453 . S
C782 C552 3.461 . S
C816 C1058 2.010 . S
C850 C1092 2.015 . S
C1024 C884 2.057 . S
C1207 C947 3.501 . S
C981 C1139 3.453 . S
C1173 C1015 3.461 . S
C863 C1049 2.040 . S
C1083 C897 2.055 . S
C829 C1117 2.060 . S
C1122 C994 3.443 . S
C1156 C926 3.444 . S
C1190 C960 3.454 . S
C4 C625 3.312 . S
C38 C659 3.286 . S
C693 C72 3.317 . S
C1130 C119 3.803 . S
C1164 C153 3.830 . S
C1198 C187 3.815 . S
C217 C820 3.312 . S
C854 C251 3.286 . S
C285 C888 3.317 . S
C314 C527 3.803 . S
C348 C561 3.830 . S
C382 C595 3.815 . S
C412 C1033 3.339 1_455 S
C1067 C446 3.349 . S
C480 C1101 3.340 1_565 S
C935 C722 3.767 1_564 S
C756 C969 3.759 1_656 S
C1003 C790 3.769 1_554 S
C8 C557 2.456 . S
C42 C591 2.357 . S
C523 C76 2.357 . S
C115 C892 2.559 . S
C824 C149 2.517 . S
C183 C858 2.548 . S
C1160 C221 2.456 . S
C255 C1194 2.357 . S
C1126 C289 2.357 . S
C310 C697 2.559 . S
C344 C629 2.517 . S
C378 C663 2.548 . S
C965 C416 2.529 . S
C450 C999 2.518 . S
C484 C931 2.512 . S
C1105 C718 2.512 . S
C1037 C752 2.529 . S
C1071 C786 2.518 . S
C106 C17 3.088 . S
C51 C140 3.036 . S
C85 C174 3.066 . S
C319 C212 3.088 . S
C246 C353 3.036 . S
C387 C280 3.066 . S
C514 C425 3.109 . S
C459 C548 3.107 . S
C493 C582 3.093 . S
C620 C727 3.052 . S
C654 C761 3.067 . S
C688 C795 3.106 . S
C833 C922 3.052 . S
C956 C867 3.067 . S
C990 C901 3.106 . S
C1028 C1135 3.109 . S
C1169 C1062 3.108 . S
C1096 C1203 3.093 . S
C29 C986 2.689 . S
C918 C63 2.734 . S
C97 C952 2.664 . S
C471 C102 2.641 . S
C136 C505 2.657 1_565 S
C170 C437 2.641 1_455 S
C811 C204 2.689 . S
C238 C743 2.734 . S
C777 C272 2.664 . S
C335 C1054 2.641 . S
C1088 C369 2.657 1_565 S
C1020 C403 2.641 1_455 S
C510 C879 2.718 1_655 S
C544 C913 2.689 . S
C578 C845 2.706 1_545 S
C612 C1219 2.706 1_545 S
C646 C1151 2.718 1_655 S
C1185 C680 2.690 . S
