# Generated by pormake.
# Topology lon, (4)-cn, num edge types: 1
# Building blocks:
#     Node 0, Type 0, BuildingBlock: KUFVIS_clean_sbu_0, # of connection points: 4
#     Node 1, Type 0, BuildingBlock: KUFVIS_clean_sbu_0, # of connection points: 4
#     Node 2, Type 0, BuildingBlock: KUFVIS_clean_sbu_0, # of connection points: 4
#     Node 3, Type 0, BuildingBlock: KUFVIS_clean_sbu_0, # of connection points: 4
#     Edge 4, Type (0, 0), BuildingBlock: XIVTED_clean_linker_0, # of connection points: 2
#     Edge 5, Type (0, 0), BuildingBlock: XIVTED_clean_linker_0, # of connection points: 2
#     Edge 6, Type (0, 0), BuildingBlock: XIVTED_clean_linker_0, # of connection points: 2
#     Edge 7, Type (0, 0), BuildingBlock: XIVTED_clean_linker_0, # of connection points: 2
#     Edge 8, Type (0, 0), BuildingBlock: XIVTED_clean_linker_0, # of connection points: 2
#     Edge 9, Type (0, 0), BuildingBlock: XIVTED_clean_linker_0, # of connection points: 2
#     Edge 10, Type (0, 0), BuildingBlock: XIVTED_clean_linker_0, # of connection points: 2
#     Edge 11, Type (0, 0), BuildingBlock: XIVTED_clean_linker_0, # of connection points: 2
# Relax obj value: 0.048
# Max RMSD: 0.108
# Mean RMSD: 0.089
data_MOF--net-lon--node1-KUFVIS_clean_sbu_0--edge1-XIVTED_clean_linker_0
_symmetry_space_group_name_H-M    P1
_symmetry_Int_Tables_number       1
_symmetry_cell_setting            triclinic
loop_
_symmetry_equiv_pos_as_xyz
'x, y, z'
_cell_length_a     24.68437
_cell_length_b     23.971847
_cell_length_c     40.818353
_cell_angle_alpha  100.34587
_cell_angle_beta   89.960453
_cell_angle_gamma 121.23846
loop_
_atom_site_label
_atom_site_type_symbol
_atom_site_fract_x
_atom_site_fract_y
_atom_site_fract_z
_atom_type_partial_charge
Mn0 Mn 0.32226 0.68817 0.08146 0.0
Mn1 Mn 0.28491 0.62817 0.99765 0.0
C2 C 0.22265 0.6519 0.05617 0.0
C3 C 0.32901 0.67593 0.13649 0.0
C4 C 0.36977 0.77514 0.02875 0.0
O5 O 0.38895 0.66466 0.06884 0.0
O6 O 0.3567 0.62175 0.01342 0.0
C7 C 0.23774 0.48631 0.99682 0.0
N8 N 0.22793 0.5335 0.98898 0.0
C9 C 0.12253 0.44977 0.96221 0.0
C10 C 0.13164 0.40026 0.96983 0.0
C11 C 0.18943 0.41864 0.98731 0.0
C12 C 0.17233 0.51639 0.9724 0.0
H13 H 0.28206 0.50019 0.01025 0.0
C14 C 0.39303 0.63672 0.03999 0.0
O15 O 0.36444 0.73274 0.12783 0.0
O16 O 0.29059 0.62521 0.11292 0.0
N17 N 0.21504 0.63059 0.97921 0.0
C18 C 0.21302 0.68453 0.97481 0.0
C19 C 0.15817 0.67476 0.95801 0.0
C20 C 0.10627 0.60972 0.94565 0.0
C21 C 0.10972 0.55498 0.95017 0.0
C22 C 0.16575 0.56778 0.96693 0.0
H23 H 0.25291 0.73463 0.98405 0.0
O24 O 0.24414 0.69396 0.0848 0.0
O25 O 0.26012 0.63336 0.04322 0.0
O26 O 0.36566 0.76849 0.05909 0.0
O27 O 0.34234 0.72589 1.00381 0.0
C28 C 0.05942 0.48825 0.9391 0.0
C29 C 0.06568 0.4357 0.94529 0.0
H30 H 0.09446 0.34801 0.96258 0.0
H31 H 0.19672 0.38073 0.99341 0.0
H32 H 0.15589 0.71727 0.95461 0.0
H33 H 0.06386 0.6024 0.93293 0.0
H34 H 0.01536 0.47683 0.92625 0.0
H35 H 0.02632 0.38466 0.93711 0.0
Mn36 Mn 0.73019 0.35985 0.57102 0.0
Mn37 Mn 0.57352 0.2974 0.57838 0.0
C38 C 0.65945 0.24541 0.56559 0.0
C39 C 0.82042 0.39371 0.54178 0.0
C40 C 0.6743 0.36533 0.63784 0.0
O41 O 0.71897 0.43624 0.56337 0.0
O42 O 0.61355 0.3867 0.56801 0.0
C43 C 0.52927 0.28325 0.50826 0.0
N44 N 0.52455 0.25622 0.53554 0.0
C45 C 0.42418 0.15791 0.51145 0.0
C46 C 0.42799 0.18434 0.48294 0.0
C47 C 0.48123 0.24692 0.48115 0.0
C48 C 0.47514 0.19483 0.53683 0.0
H49 H 0.56889 0.33247 0.50746 0.0
C50 C 0.66666 0.43544 0.56286 0.0
O51 O 0.82459 0.41561 0.57363 0.0
O52 O 0.76323 0.35426 0.5262 0.0
N53 N 0.52691 0.21054 0.5883 0.0
C54 C 0.53147 0.19186 0.61728 0.0
C55 C 0.48175 0.131 0.62338 0.0
C56 C 0.42702 0.09126 0.60018 0.0
C57 C 0.42369 0.11126 0.57036 0.0
C58 C 0.47576 0.17116 0.56512 0.0
H59 H 0.5719 0.22402 0.63601 0.0
O60 O 0.71991 0.27254 0.57416 0.0
O61 O 0.6418 0.28578 0.56034 0.0
O62 O 0.7213 0.37744 0.62112 0.0
O63 O 0.61737 0.3371 0.6243 0.0
C64 C 0.37002 0.07525 0.54611 0.0
C65 C 0.37093 0.09765 0.51627 0.0
H66 H 0.39004 0.15739 0.46245 0.0
H67 H 0.48435 0.26786 0.45934 0.0
H68 H 0.48461 0.1159 0.64644 0.0
H69 H 0.38765 0.04577 0.6057 0.0
H70 H 0.32838 0.02943 0.54978 0.0
H71 H 0.33011 0.06859 0.49742 0.0
Mn72 Mn 0.37522 0.64667 0.44322 0.0
Mn73 Mn 0.29808 0.72931 0.44555 0.0
C74 C 0.43161 0.7627 0.4553 0.0
C75 C 0.42374 0.60081 0.46862 0.0
C76 C 0.32096 0.66492 0.38076 0.0
O77 O 0.28348 0.57468 0.44899 0.0
O78 O 0.23813 0.63582 0.44901 0.0
C79 C 0.26994 0.72707 0.51595 0.0
N80 N 0.29632 0.76205 0.4915 0.0
C81 C 0.33902 0.86649 0.53075 0.0
C82 C 0.31204 0.83171 0.55633 0.0
C83 C 0.27717 0.76164 0.54887 0.0
C84 C 0.3296 0.82942 0.49837 0.0
H85 H 0.2441 0.67323 0.51047 0.0
C86 C 0.23526 0.5815 0.45037 0.0
O87 O 0.40552 0.58302 0.43669 0.0
O88 O 0.40948 0.64135 0.4861 0.0
N89 N 0.3502 0.82084 0.44264 0.0
C90 C 0.37413 0.84698 0.41526 0.0
C91 C 0.40776 0.91642 0.41814 0.0
C92 C 0.41698 0.95819 0.44919 0.0
C93 C 0.39222 0.93002 0.47701 0.0
C94 C 0.35693 0.86048 0.47233 0.0
H95 H 0.36778 0.81521 0.39142 0.0
O96 O 0.45915 0.73116 0.44308 0.0
O97 O 0.37189 0.72555 0.45933 0.0
O98 O 0.34856 0.64064 0.39424 0.0
O99 O 0.30027 0.69891 0.39768 0.0
C100 C 0.40292 0.96822 0.50942 0.0
C101 C 0.37674 0.93647 0.53631 0.0
H102 H 0.31826 0.85829 0.58184 0.0
H103 H 0.2565 0.73438 0.5685 0.0
H104 H 0.42698 0.9377 0.39656 0.0
H105 H 0.44338 0.01175 0.45143 0.0
H106 H 0.43326 0.02194 0.51401 0.0
H107 H 0.38676 0.96604 0.56131 0.0
Mn108 Mn 0.64258 0.33152 0.9338 0.0
Mn109 Mn 0.66156 0.38433 0.018 0.0
C110 C 0.57733 0.36438 0.95972 0.0
C111 C 0.66597 0.35214 0.88025 0.0
C112 C 0.60116 0.23899 0.98388 0.0
O113 O 0.7329 0.35559 0.94692 0.0
O114 O 0.74119 0.39352 1.00272 0.0
C115 C 0.75627 0.52769 0.02192 0.0
N116 N 0.69865 0.47882 0.02859 0.0
C117 C 0.67515 0.55975 0.05682 0.0
C118 C 0.73437 0.61095 0.05041 0.0
C119 C 0.77499 0.59482 0.03278 0.0
C120 C 0.65894 0.49377 0.04524 0.0
H121 H 0.78765 0.51553 1.0084 0.0
C122 C 0.76382 0.3812 0.97609 0.0
O123 O 0.64471 0.29347 0.88657 0.0
O124 O 0.6748 0.39917 0.90512 0.0
N125 N 0.58776 0.37896 0.036 0.0
C126 C 0.53132 0.32366 0.03904 0.0
C127 C 0.48493 0.33113 0.05569 0.0
C128 C 0.49728 0.39528 0.06932 0.0
C129 C 0.55599 0.45143 0.06619 0.0
C130 C 0.60045 0.44089 0.04944 0.0
H131 H 0.52175 0.27423 0.02885 0.0
O132 O 0.55795 0.32464 0.93039 0.0
O133 O 0.63295 0.38202 0.97288 0.0
O134 O 0.60489 0.2479 0.95386 0.0
O135 O 0.62178 0.28666 1.00955 0.0
C136 C 0.57185 0.51743 0.07872 0.0
C137 C 0.63121 0.57155 0.07385 0.0
H138 H 0.74898 0.66279 0.05872 0.0
H139 H 0.82067 0.63404 0.02761 0.0
H140 H 0.43978 0.28755 0.05804 0.0
H141 H 0.46127 0.40084 0.082 0.0
H142 H 0.53839 0.52714 0.09175 0.0
H143 H 0.64242 0.62205 0.08312 0.0
H144 H 0.36986 0.77695 0.19098 0.0
H145 H 0.34006 0.58156 0.33254 0.0
H146 H 0.28868 0.5643 0.16303 0.0
H147 H 0.2922 0.7332 0.34436 0.0
H148 H 0.34092 0.57974 0.272 0.0
H149 H 0.36488 0.76915 0.24987 0.0
C150 C 0.35154 0.72864 0.19725 0.0
C151 C 0.32944 0.67111 0.17209 0.0
C152 C 0.32994 0.61296 0.28805 0.0
C153 C 0.32426 0.66214 0.23948 0.0
C154 C 0.32954 0.61421 0.32252 0.0
C155 C 0.31665 0.65809 0.34378 0.0
C156 C 0.31904 0.65708 0.27506 0.0
C157 C 0.30301 0.69897 0.32926 0.0
C158 C 0.34837 0.72425 0.23082 0.0
C159 C 0.30589 0.60976 0.18172 0.0
N160 N 0.30551 0.69815 0.29599 0.0
N161 N 0.30426 0.60683 0.21479 0.0
H162 H 0.75953 0.35597 0.6754 0.0
H163 H 0.65856 0.4444 0.8531 0.0
H164 H 0.6107 0.39993 0.68405 0.0
H165 H 0.69684 0.28623 0.82931 0.0
H166 H 0.66818 0.45722 0.79457 0.0
H167 H 0.76487 0.35996 0.73591 0.0
C168 C 0.72903 0.36796 0.69015 0.0
C169 C 0.68458 0.37765 0.67476 0.0
C170 C 0.67502 0.42023 0.80237 0.0
C171 C 0.69091 0.38272 0.74369 0.0
C172 C 0.66985 0.41305 0.83566 0.0
C173 C 0.67664 0.36395 0.8459 0.0
C174 C 0.68882 0.37928 0.77951 0.0
C175 C 0.69085 0.32434 0.82231 0.0
C176 C 0.73177 0.36964 0.72452 0.0
C177 C 0.6455 0.39202 0.69497 0.0
N178 N 0.69681 0.33308 0.79019 0.0
N179 N 0.64967 0.39433 0.72848 0.0
H180 H 0.38024 0.53575 0.06635 0.0
H181 H 0.63761 0.49695 0.96646 0.0
H182 H 0.49314 0.67163 1.00341 0.0
H183 H 0.45745 0.32566 0.97763 0.0
H184 H 0.59894 0.56974 0.98969 0.0
H185 H 0.42521 0.46704 0.04592 0.0
C186 C 0.41656 0.55243 0.04932 0.0
C187 C 0.43431 0.60975 0.03691 0.0
C188 C 0.56778 0.51624 0.98689 0.0
C189 C 0.48404 0.53138 0.01304 0.0
C190 C 0.58965 0.47486 0.97371 0.0
C191 C 0.55073 0.40576 0.97085 0.0
C192 C 0.50697 0.48818 0.99768 0.0
C193 C 0.4888 0.37897 0.97994 0.0
C194 C 0.441 0.51268 0.03719 0.0
C195 C 0.47951 0.62832 0.01392 0.0
N196 N 0.46892 0.42055 0.99358 0.0
N197 N 0.50306 0.58916 1.00267 0.0
H198 H 0.2085 0.51987 0.50345 0.0
H199 H 0.83386 0.37957 0.47415 0.0
H200 H 0.12034 0.52797 0.41488 0.0
H201 H 0.93998 0.44368 0.57134 0.0
H202 H 0.93259 0.40829 0.4481 0.0
H203 H 0.10336 0.4623 0.52404 0.0
C204 C 0.16662 0.50687 0.4877 0.0
C205 C 0.17283 0.52789 0.45728 0.0
C206 C 0.93396 0.41562 0.47512 0.0
C207 C 0.05299 0.46407 0.48096 0.0
C208 C 0.87774 0.39942 0.48997 0.0
C209 C 0.87878 0.41002 0.52499 0.0
C210 C 0.99128 0.44133 0.4954 0.0
C211 C 0.937 0.43548 0.54427 0.0
C212 C 0.10682 0.47512 0.49968 0.0
C213 C 0.11729 0.51185 0.43832 0.0
N214 N 0.99071 0.45015 0.52927 0.0
N215 N 0.0598 0.48139 0.45055 0.0
H216 H 0.54588 0.12098 0.93695 0.0
H217 H 0.43677 0.89378 0.07449 0.0
H218 H 0.58506 0.19902 0.04383 0.0
H219 H 0.3881 0.81304 0.96797 0.0
H220 H 0.49546 1.00589 0.06328 0.0
H221 H 0.49209 1.00785 0.94743 0.0
C222 C 0.54344 0.1145 0.9626 0.0
C223 C 0.57007 0.1699 0.98952 0.0
C224 C 0.47206 0.96368 0.04233 0.0
C225 C 0.5084 0.04032 1.00166 0.0
C226 C 0.43846 0.89946 0.04871 0.0
C227 C 0.40716 0.84357 0.02215 0.0
C228 C 0.47456 0.97246 1.00914 0.0
C229 C 0.41137 0.85447 0.98928 0.0
C230 C 0.51263 0.04981 0.96855 0.0
C231 C 0.5653 0.15811 0.02222 0.0
N232 N 0.44431 0.9176 0.98372 0.0
N233 N 0.53504 0.09477 0.02732 0.0
H234 H 0.6796 0.46472 0.50098 0.0
H235 H 0.46491 0.62623 0.53499 0.0
H236 H 0.63291 0.51701 0.59877 0.0
H237 H 0.47991 0.53603 0.43673 0.0
H238 H 0.5405 0.60353 0.55904 0.0
H239 H 0.62553 0.51286 0.47751 0.0
C240 C 0.66088 0.48951 0.51776 0.0
C241 C 0.66169 0.48807 0.55193 0.0
C242 C 0.52728 0.58869 0.53221 0.0
C243 C 0.59718 0.54029 0.52519 0.0
C244 C 0.48374 0.60123 0.51847 0.0
C245 C 0.46541 0.58238 0.48379 0.0
C246 C 0.5533 0.55752 0.51115 0.0
C247 C 0.49204 0.55078 0.46363 0.0
C248 C 0.62872 0.5156 0.50427 0.0
C249 C 0.6343 0.51832 0.57238 0.0
N250 N 0.5346 0.53941 0.47757 0.0
N251 N 0.60256 0.54246 0.55867 0.0
H252 H 0.14494 0.69474 0.03941 0.0
H253 H 0.82631 0.34113 0.01074 0.0
H254 H 0.14619 0.51922 0.04887 0.0
H255 H 0.85479 0.48632 0.95304 0.0
H256 H 0.94045 0.40766 0.03077 0.0
H257 H 0.03209 0.62278 0.01587 0.0
C258 C 0.12109 0.64116 0.03673 0.0
C259 C 0.15441 0.61215 0.04501 0.0
C260 C 0.92188 0.42417 0.01317 0.0
C261 C 0.02709 0.5307 0.01902 0.0
C262 C 0.85728 0.38592 1.00147 0.0
C263 C 0.83218 0.40792 0.97974 0.0
C264 C 0.96056 0.4858 1.00401 0.0
C265 C 0.87322 0.46728 0.96918 0.0
C266 C 0.05731 0.60031 0.02319 0.0
C267 C 0.12188 0.54285 0.04188 0.0
N268 N 0.93553 0.50504 0.98192 0.0
N269 N 0.05983 0.50423 0.02903 0.0
H270 H 0.59774 0.18523 0.5032 0.0
H271 H 0.44249 0.813 0.52151 0.0
H272 H 0.63709 0.14295 0.59549 0.0
H273 H 0.51091 0.8716 0.42891 0.0
H274 H 0.50208 0.93094 0.55034 0.0
H275 H 0.55155 0.06779 0.4761 0.0
C276 C 0.59483 0.15062 0.51797 0.0
C277 C 0.62029 0.17319 0.55167 0.0
C278 C 0.5045 0.91795 0.52379 0.0
C279 C 0.56675 0.03897 0.52104 0.0
C280 C 0.47025 0.85095 0.50733 0.0
C281 C 0.4704 0.83327 0.47268 0.0
C282 C 0.53777 0.96746 0.50524 0.0
C283 C 0.50849 0.8837 0.45552 0.0
C284 C 0.56922 0.08393 0.50241 0.0
C285 C 0.61713 0.12694 0.56952 0.0
N286 N 0.53952 0.94887 0.47183 0.0
N287 N 0.58996 0.0616 0.5541 0.0
loop_
_geom_bond_atom_site_label_1
_geom_bond_atom_site_label_2
_geom_bond_distance
_geom_bond_site_symmetry_2
_ccdc_geom_bond_type
Mn0 O5 2.095 . S
Mn0 O15 2.162 . S
Mn0 O16 2.297 . S
Mn0 O24 2.385 . S
Mn0 O25 2.209 . S
Mn0 O26 2.094 . S
Mn1 O6 2.121 1_556 S
Mn1 N8 2.257 . S
Mn1 N17 2.282 . S
Mn1 O25 2.215 1_556 S
Mn1 O27 2.117 1_556 S
C2 O24 1.234 . S
C2 O25 1.283 . S
C3 O15 1.281 . S
C3 O16 1.236 . S
C4 O26 1.240 . S
C4 O27 1.264 . S
O5 Mn0 2.095 . S
O5 C14 1.250 . S
O6 Mn1 2.121 1_554 S
O6 C14 1.258 . S
C7 N8 1.326 . S
C7 C11 1.460 . S
C7 H13 0.929 . S
N8 Mn1 2.257 . S
N8 C7 1.326 . S
N8 C12 1.362 . S
C9 C10 1.258 . S
C9 C12 1.431 . S
C9 C29 1.449 . S
C10 C9 1.258 . S
C10 C11 1.477 . S
C10 H30 0.931 . S
C11 C7 1.460 . S
C11 C10 1.477 . S
C11 H31 0.930 . S
C12 N8 1.362 . S
C12 C9 1.431 . S
C12 C22 1.476 . S
H13 C7 0.929 . S
C14 O5 1.250 . S
C14 O6 1.258 . S
O15 Mn0 2.162 . S
O15 C3 1.281 . S
O16 Mn0 2.297 . S
O16 C3 1.236 . S
N17 Mn1 2.282 . S
N17 C18 1.328 . S
N17 C22 1.318 . S
C18 N17 1.328 . S
C18 C19 1.457 . S
C18 H23 0.929 . S
C19 C18 1.457 . S
C19 C20 1.291 . S
C19 H32 0.931 . S
C20 C19 1.291 . S
C20 C21 1.373 . S
C20 H33 0.929 . S
C21 C20 1.373 . S
C21 C22 1.396 . S
C21 C28 1.403 . S
C22 C12 1.476 . S
C22 N17 1.318 . S
C22 C21 1.396 . S
H23 C18 0.929 . S
O24 Mn0 2.385 . S
O24 C2 1.234 . S
O25 Mn0 2.209 . S
O25 Mn1 2.215 1_554 S
O25 C2 1.283 . S
O26 Mn0 2.094 . S
O26 C4 1.240 . S
O27 Mn1 2.117 1_554 S
O27 C4 1.264 . S
C28 C21 1.403 . S
C28 C29 1.399 . S
C28 H34 0.929 . S
C29 C9 1.449 . S
C29 C28 1.399 . S
C29 H35 0.930 . S
H30 C10 0.931 . S
H31 C11 0.930 . S
H32 C19 0.931 . S
H33 C20 0.929 . S
H34 C28 0.929 . S
H35 C29 0.930 . S
Mn36 O41 2.095 . S
Mn36 O51 2.162 . S
Mn36 O52 2.297 . S
Mn36 O60 2.385 . S
Mn36 O61 2.209 . S
Mn36 O62 2.094 . S
Mn37 O42 2.121 . S
Mn37 N44 2.257 . S
Mn37 N53 2.282 . S
Mn37 O61 2.215 . S
Mn37 O63 2.117 . S
C38 O60 1.234 . S
C38 O61 1.283 . S
C39 O51 1.281 . S
C39 O52 1.236 . S
C40 O62 1.240 . S
C40 O63 1.264 . S
O41 Mn36 2.095 . S
O41 C50 1.250 . S
O42 Mn37 2.121 . S
O42 C50 1.258 . S
C43 N44 1.326 . S
C43 C47 1.460 . S
C43 H49 0.929 . S
N44 Mn37 2.257 . S
N44 C43 1.326 . S
N44 C48 1.362 . S
C45 C46 1.258 . S
C45 C48 1.431 . S
C45 C65 1.449 . S
C46 C45 1.258 . S
C46 C47 1.477 . S
C46 H66 0.931 . S
C47 C43 1.460 . S
C47 C46 1.477 . S
C47 H67 0.930 . S
C48 N44 1.362 . S
C48 C45 1.431 . S
C48 C58 1.476 . S
H49 C43 0.929 . S
C50 O41 1.250 . S
C50 O42 1.258 . S
O51 Mn36 2.162 . S
O51 C39 1.281 . S
O52 Mn36 2.297 . S
O52 C39 1.236 . S
N53 Mn37 2.282 . S
N53 C54 1.328 . S
N53 C58 1.318 . S
C54 N53 1.328 . S
C54 C55 1.457 . S
C54 H59 0.929 . S
C55 C54 1.457 . S
C55 C56 1.291 . S
C55 H68 0.931 . S
C56 C55 1.291 . S
C56 C57 1.373 . S
C56 H69 0.938 . S
C57 C56 1.373 . S
C57 C58 1.396 . S
C57 C64 1.403 . S
C58 C48 1.476 . S
C58 N53 1.318 . S
C58 C57 1.396 . S
H59 C54 0.929 . S
O60 Mn36 2.385 . S
O60 C38 1.234 . S
O61 Mn36 2.209 . S
O61 Mn37 2.215 . S
O61 C38 1.283 . S
O62 Mn36 2.094 . S
O62 C40 1.240 . S
O63 Mn37 2.117 . S
O63 C40 1.264 . S
C64 C57 1.403 . S
C64 C65 1.399 . S
C64 H70 0.929 1_545 S
C65 C45 1.449 . S
C65 C64 1.399 . S
C65 H71 0.930 1_545 S
H66 C46 0.931 . S
H67 C47 0.930 . S
H68 C55 0.931 . S
H69 C56 0.938 . S
H70 C64 0.929 1_565 S
H71 C65 0.930 1_565 S
Mn72 O77 2.095 . S
Mn72 O87 2.162 . S
Mn72 O88 2.297 . S
Mn72 O96 2.385 . S
Mn72 O97 2.209 . S
Mn72 O98 2.094 . S
Mn73 O78 2.121 . S
Mn73 N80 2.257 . S
Mn73 N89 2.282 . S
Mn73 O97 2.215 . S
Mn73 O99 2.117 . S
C74 O96 1.234 . S
C74 O97 1.283 . S
C75 O87 1.281 . S
C75 O88 1.236 . S
C76 O98 1.240 . S
C76 O99 1.264 . S
O77 Mn72 2.095 . S
O77 C86 1.250 . S
O78 Mn73 2.121 . S
O78 C86 1.258 . S
C79 N80 1.326 . S
C79 C83 1.460 . S
C79 H85 0.929 . S
N80 Mn73 2.257 . S
N80 C79 1.326 . S
N80 C84 1.362 . S
C81 C82 1.258 . S
C81 C84 1.431 . S
C81 C101 1.449 . S
C82 C81 1.258 . S
C82 C83 1.477 . S
C82 H102 0.931 . S
C83 C79 1.460 . S
C83 C82 1.477 . S
C83 H103 0.930 . S
C84 N80 1.362 . S
C84 C81 1.431 . S
C84 C94 1.476 . S
H85 C79 0.929 . S
C86 O77 1.250 . S
C86 O78 1.258 . S
O87 Mn72 2.162 . S
O87 C75 1.281 . S
O88 Mn72 2.297 . S
O88 C75 1.236 . S
N89 Mn73 2.282 . S
N89 C90 1.328 . S
N89 C94 1.318 . S
C90 N89 1.328 . S
C90 C91 1.457 . S
C90 H95 0.929 . S
C91 C90 1.457 . S
C91 C92 1.291 . S
C91 H104 0.931 . S
C92 C91 1.291 . S
C92 C93 1.373 . S
C92 H105 0.936 . S
C93 C92 1.373 . S
C93 C94 1.396 . S
C93 C100 1.403 . S
C94 C84 1.476 . S
C94 N89 1.318 . S
C94 C93 1.396 . S
H95 C90 0.929 . S
O96 Mn72 2.385 . S
O96 C74 1.234 . S
O97 Mn72 2.209 . S
O97 Mn73 2.215 . S
O97 C74 1.283 . S
O98 Mn72 2.094 . S
O98 C76 1.240 . S
O99 Mn73 2.117 . S
O99 C76 1.264 . S
C100 C93 1.403 . S
C100 C101 1.399 . S
C100 H106 0.929 1_565 S
C101 C81 1.449 . S
C101 C100 1.399 . S
C101 H107 0.930 1_565 S
H102 C82 0.931 . S
H103 C83 0.930 . S
H104 C91 0.931 . S
H105 C92 0.936 . S
H106 C100 0.929 1_545 S
H107 C101 0.930 1_545 S
Mn108 O113 2.095 . S
Mn108 O123 2.162 . S
Mn108 O124 2.297 . S
Mn108 O132 2.385 . S
Mn108 O133 2.209 . S
Mn108 O134 2.094 . S
Mn109 O114 2.121 1_554 S
Mn109 N116 2.257 . S
Mn109 N125 2.282 . S
Mn109 O133 2.215 1_554 S
Mn109 O135 2.117 1_554 S
C110 O132 1.234 . S
C110 O133 1.283 . S
C111 O123 1.281 . S
C111 O124 1.236 . S
C112 O134 1.240 . S
C112 O135 1.264 . S
O113 Mn108 2.095 . S
O113 C122 1.250 . S
O114 Mn109 2.121 1_556 S
O114 C122 1.258 . S
C115 N116 1.326 . S
C115 C119 1.460 . S
C115 H121 0.929 . S
N116 Mn109 2.257 . S
N116 C115 1.326 . S
N116 C120 1.362 . S
C117 C118 1.258 . S
C117 C120 1.431 . S
C117 C137 1.449 . S
C118 C117 1.258 . S
C118 C119 1.477 . S
C118 H138 0.931 . S
C119 C115 1.460 . S
C119 C118 1.477 . S
C119 H139 0.930 . S
C120 N116 1.362 . S
C120 C117 1.431 . S
C120 C130 1.476 . S
H121 C115 0.929 . S
C122 O113 1.250 . S
C122 O114 1.258 . S
O123 Mn108 2.162 . S
O123 C111 1.281 . S
O124 Mn108 2.297 . S
O124 C111 1.236 . S
N125 Mn109 2.282 . S
N125 C126 1.328 . S
N125 C130 1.318 . S
C126 N125 1.328 . S
C126 C127 1.457 . S
C126 H131 0.929 . S
C127 C126 1.457 . S
C127 C128 1.291 . S
C127 H140 0.931 . S
C128 C127 1.291 . S
C128 C129 1.373 . S
C128 H141 0.929 . S
C129 C128 1.373 . S
C129 C130 1.396 . S
C129 C136 1.403 . S
C130 C120 1.476 . S
C130 N125 1.318 . S
C130 C129 1.396 . S
H131 C126 0.929 . S
O132 Mn108 2.385 . S
O132 C110 1.234 . S
O133 Mn108 2.209 . S
O133 Mn109 2.215 1_556 S
O133 C110 1.283 . S
O134 Mn108 2.094 . S
O134 C112 1.240 . S
O135 Mn109 2.117 1_556 S
O135 C112 1.264 . S
C136 C129 1.403 . S
C136 C137 1.399 . S
C136 H142 0.929 . S
C137 C117 1.449 . S
C137 C136 1.399 . S
C137 H143 0.930 . S
H138 C118 0.931 . S
H139 C119 0.930 . S
H140 C127 0.931 . S
H141 C128 0.929 . S
H142 C136 0.929 . S
H143 C137 0.930 . S
H144 C150 0.930 . S
H145 C154 0.930 . S
H146 C159 0.929 . S
H147 C157 0.929 . S
H148 C152 0.929 . S
H149 C158 0.929 . S
C150 H144 0.930 . S
C150 C151 1.367 . S
C150 C158 1.378 . S
C151 C150 1.367 . S
C151 C159 1.433 . S
C152 H148 0.929 . S
C152 C154 1.378 . S
C152 C156 1.350 . S
C153 C156 1.463 . S
C153 C158 1.350 . S
C153 N161 1.427 . S
C154 H145 0.930 . S
C154 C152 1.378 . S
C154 C155 1.367 . S
C155 C154 1.367 . S
C155 C157 1.433 . S
C156 C152 1.350 . S
C156 C153 1.463 . S
C156 N160 1.427 . S
C157 H147 0.929 . S
C157 C155 1.433 . S
C157 N160 1.384 . S
C158 H149 0.929 . S
C158 C150 1.378 . S
C158 C153 1.350 . S
C159 H146 0.929 . S
C159 C151 1.433 . S
C159 N161 1.384 . S
N160 C156 1.427 . S
N160 C157 1.384 . S
N161 C153 1.427 . S
N161 C159 1.384 . S
H162 C168 0.930 . S
H163 C172 0.930 . S
H164 C177 0.929 . S
H165 C175 0.929 . S
H166 C170 0.929 . S
H167 C176 0.929 . S
C168 H162 0.930 . S
C168 C169 1.367 . S
C168 C176 1.378 . S
C169 C168 1.367 . S
C169 C177 1.433 . S
C170 H166 0.929 . S
C170 C172 1.378 . S
C170 C174 1.350 . S
C171 C174 1.463 . S
C171 C176 1.350 . S
C171 N179 1.427 . S
C172 H163 0.930 . S
C172 C170 1.378 . S
C172 C173 1.367 . S
C173 C172 1.367 . S
C173 C175 1.433 . S
C174 C170 1.350 . S
C174 C171 1.463 . S
C174 N178 1.427 . S
C175 H165 0.929 . S
C175 C173 1.433 . S
C175 N178 1.384 . S
C176 H167 0.929 . S
C176 C168 1.378 . S
C176 C171 1.350 . S
C177 H164 0.929 . S
C177 C169 1.433 . S
C177 N179 1.384 . S
N178 C174 1.427 . S
N178 C175 1.384 . S
N179 C171 1.427 . S
N179 C177 1.384 . S
H180 C186 0.930 1_556 S
H181 C190 0.930 . S
H182 C195 0.929 . S
H183 C193 0.929 . S
H184 C188 0.921 1_554 S
H185 C194 0.929 . S
C186 H180 0.930 1_554 S
C186 C187 1.367 . S
C186 C194 1.378 1_554 S
C187 C186 1.367 . S
C187 C195 1.433 . S
C188 H184 0.921 1_556 S
C188 C190 1.382 . S
C188 C192 1.354 . S
C189 C192 1.463 1_554 S
C189 C194 1.350 1_554 S
C189 N197 1.427 . S
C190 H181 0.930 . S
C190 C188 1.382 . S
C190 C191 1.367 . S
C191 C190 1.367 . S
C191 C193 1.433 . S
C192 C188 1.354 . S
C192 C189 1.463 1_556 S
C192 N196 1.427 . S
C193 H183 0.929 . S
C193 C191 1.433 . S
C193 N196 1.384 . S
C194 H185 0.929 . S
C194 C186 1.378 1_556 S
C194 C189 1.350 1_556 S
C195 H182 0.929 . S
C195 C187 1.433 . S
C195 N197 1.384 . S
N196 C192 1.427 . S
N196 C193 1.384 . S
N197 C189 1.427 . S
N197 C195 1.384 . S
H198 C204 0.930 . S
H199 C208 0.930 . S
H200 C213 0.929 . S
H201 C211 0.929 . S
H202 C206 0.929 . S
H203 C212 0.929 . S
C204 H198 0.930 . S
C204 C205 1.367 . S
C204 C212 1.378 . S
C205 C204 1.367 . S
C205 C213 1.433 . S
C206 H202 0.929 . S
C206 C208 1.378 . S
C206 C210 1.350 1_655 S
C207 C210 1.463 . S
C207 C212 1.350 . S
C207 N215 1.427 . S
C208 H199 0.930 . S
C208 C206 1.378 . S
C208 C209 1.367 . S
C209 C208 1.367 . S
C209 C211 1.433 . S
C210 C206 1.350 1_455 S
C210 C207 1.463 . S
C210 N214 1.427 1_455 S
C211 H201 0.929 . S
C211 C209 1.433 . S
C211 N214 1.384 . S
C212 H203 0.929 . S
C212 C204 1.378 . S
C212 C207 1.350 . S
C213 H200 0.929 . S
C213 C205 1.433 . S
C213 N215 1.384 . S
N214 C210 1.427 1_655 S
N214 C211 1.384 . S
N215 C207 1.427 . S
N215 C213 1.384 . S
H216 C222 0.930 . S
H217 C226 0.930 . S
H218 C231 0.929 . S
H219 C229 0.929 . S
H220 C224 0.929 1_545 S
H221 C230 0.929 1_565 S
C222 H216 0.930 . S
C222 C223 1.367 . S
C222 C230 1.378 . S
C223 C222 1.367 . S
C223 C231 1.433 1_556 S
C224 H220 0.929 1_565 S
C224 C226 1.378 . S
C224 C228 1.350 . S
C225 C228 1.463 1_546 S
C225 C230 1.350 . S
C225 N233 1.427 1_556 S
C226 H217 0.930 . S
C226 C224 1.378 . S
C226 C227 1.367 . S
C227 C226 1.367 . S
C227 C229 1.433 1_554 S
C228 C224 1.350 . S
C228 C225 1.463 1_564 S
C228 N232 1.427 1_554 S
C229 H219 0.929 . S
C229 C227 1.433 1_556 S
C229 N232 1.384 . S
C230 H221 0.929 1_545 S
C230 C222 1.378 . S
C230 C225 1.350 . S
C231 H218 0.929 . S
C231 C223 1.433 1_554 S
C231 N233 1.384 . S
N232 C228 1.427 1_556 S
N232 C229 1.384 . S
N233 C225 1.427 1_554 S
N233 C231 1.384 . S
H234 C240 0.930 . S
H235 C244 0.930 . S
H236 C249 0.929 . S
H237 C247 0.929 . S
H238 C242 0.929 . S
H239 C248 0.929 . S
C240 H234 0.930 . S
C240 C241 1.367 . S
C240 C248 1.378 . S
C241 C240 1.367 . S
C241 C249 1.433 . S
C242 H238 0.929 . S
C242 C244 1.378 . S
C242 C246 1.350 . S
C243 C246 1.463 . S
C243 C248 1.350 . S
C243 N251 1.427 . S
C244 H235 0.930 . S
C244 C242 1.378 . S
C244 C245 1.367 . S
C245 C244 1.367 . S
C245 C247 1.433 . S
C246 C242 1.350 . S
C246 C243 1.463 . S
C246 N250 1.427 . S
C247 H237 0.929 . S
C247 C245 1.433 . S
C247 N250 1.384 . S
C248 H239 0.929 . S
C248 C240 1.378 . S
C248 C243 1.350 . S
C249 H236 0.929 . S
C249 C241 1.433 . S
C249 N251 1.384 . S
N250 C246 1.427 . S
N250 C247 1.384 . S
N251 C243 1.427 . S
N251 C249 1.384 . S
H252 C258 0.930 1_556 S
H253 C262 0.930 . S
H254 C267 0.929 . S
H255 C265 0.929 . S
H256 C260 0.929 . S
H257 C266 0.929 . S
C258 H252 0.930 1_554 S
C258 C259 1.367 . S
C258 C266 1.378 1_554 S
C259 C258 1.367 . S
C259 C267 1.433 . S
C260 H256 0.929 . S
C260 C262 1.378 . S
C260 C264 1.350 1_554 S
C261 C264 1.461 1_554 S
C261 C266 1.351 1_654 S
C261 N269 1.428 1_655 S
C262 H253 0.930 . S
C262 C260 1.378 . S
C262 C263 1.367 1_554 S
C263 C262 1.367 1_556 S
C263 C265 1.433 . S
C264 C260 1.350 1_556 S
C264 C261 1.461 1_556 S
C264 N268 1.427 . S
C265 H255 0.929 . S
C265 C263 1.433 . S
C265 N268 1.384 . S
C266 H257 0.929 . S
C266 C258 1.378 1_556 S
C266 C261 1.351 1_456 S
C267 H254 0.929 . S
C267 C259 1.433 . S
C267 N269 1.384 . S
N268 C264 1.427 . S
N268 C265 1.384 . S
N269 C261 1.428 1_455 S
N269 C267 1.384 . S
H270 C276 0.930 . S
H271 C280 0.930 . S
H272 C285 0.929 . S
H273 C283 0.929 . S
H274 C278 0.929 . S
H275 C284 0.929 . S
C276 H270 0.930 . S
C276 C277 1.367 . S
C276 C284 1.378 . S
C277 C276 1.367 . S
C277 C285 1.433 . S
C278 H274 0.929 . S
C278 C280 1.378 . S
C278 C282 1.350 . S
C279 C282 1.463 1_545 S
C279 C284 1.350 . S
C279 N287 1.427 . S
C280 H271 0.930 . S
C280 C278 1.378 . S
C280 C281 1.367 . S
C281 C280 1.367 . S
C281 C283 1.433 . S
C282 C278 1.350 . S
C282 C279 1.463 1_565 S
C282 N286 1.427 . S
C283 H273 0.929 . S
C283 C281 1.433 . S
C283 N286 1.384 . S
C284 H275 0.929 . S
C284 C276 1.378 . S
C284 C279 1.350 . S
C285 H272 0.929 . S
C285 C277 1.433 . S
C285 N287 1.384 . S
N286 C282 1.427 . S
N286 C283 1.384 . S
N287 C279 1.427 . S
N287 C285 1.384 . S
C151 C3 1.518 . S
C155 C76 1.519 . S
C169 C40 1.514 . S
C173 C111 1.520 . S
C187 C14 1.377 . S
C191 C110 1.425 . S
C205 C86 1.547 . S
C209 C39 1.615 . S
C223 C112 1.673 . S
C227 C4 1.674 . S
C241 C50 1.541 . S
C245 C75 1.615 . S
C259 C2 1.423 . S
C263 C122 1.374 . S
C277 C38 1.353 . S
C281 C74 1.355 . S
