# Generated by pormake.
# Topology yfw, (5)-cn, num edge types: 1
# Building blocks:
#     Node 0, Type 0, BuildingBlock: XOMCOT_clean_sbu_0, # of connection points: 5
#     Node 1, Type 0, BuildingBlock: XOMCOT_clean_sbu_0, # of connection points: 5
#     Node 2, Type 0, BuildingBlock: XOMCOT_clean_sbu_0, # of connection points: 5
#     Node 3, Type 0, BuildingBlock: XOMCOT_clean_sbu_0, # of connection points: 5
#     Node 4, Type 0, BuildingBlock: XOMCOT_clean_sbu_0, # of connection points: 5
#     Node 5, Type 0, BuildingBlock: XOMCOT_clean_sbu_0, # of connection points: 5
#     Node 6, Type 0, BuildingBlock: XOMCOT_clean_sbu_0, # of connection points: 5
#     Node 7, Type 0, BuildingBlock: XOMCOT_clean_sbu_0, # of connection points: 5
#     Node 8, Type 0, BuildingBlock: XOMCOT_clean_sbu_0, # of connection points: 5
#     Node 9, Type 0, BuildingBlock: XOMCOT_clean_sbu_0, # of connection points: 5
#     Node 10, Type 0, BuildingBlock: XOMCOT_clean_sbu_0, # of connection points: 5
#     Node 11, Type 0, BuildingBlock: XOMCOT_clean_sbu_0, # of connection points: 5
#     Node 12, Type 0, BuildingBlock: XOMCOT_clean_sbu_0, # of connection points: 5
#     Node 13, Type 0, BuildingBlock: XOMCOT_clean_sbu_0, # of connection points: 5
#     Node 14, Type 0, BuildingBlock: XOMCOT_clean_sbu_0, # of connection points: 5
#     Node 15, Type 0, BuildingBlock: XOMCOT_clean_sbu_0, # of connection points: 5
#     Edge 16, Type (0, 0), BuildingBlock: XUDNAN_clean_linker_2, # of connection points: 2
#     Edge 17, Type (0, 0), BuildingBlock: XUDNAN_clean_linker_2, # of connection points: 2
#     Edge 18, Type (0, 0), BuildingBlock: XUDNAN_clean_linker_2, # of connection points: 2
#     Edge 19, Type (0, 0), BuildingBlock: XUDNAN_clean_linker_2, # of connection points: 2
#     Edge 20, Type (0, 0), BuildingBlock: XUDNAN_clean_linker_2, # of connection points: 2
#     Edge 21, Type (0, 0), BuildingBlock: XUDNAN_clean_linker_2, # of connection points: 2
#     Edge 22, Type (0, 0), BuildingBlock: XUDNAN_clean_linker_2, # of connection points: 2
#     Edge 23, Type (0, 0), BuildingBlock: XUDNAN_clean_linker_2, # of connection points: 2
#     Edge 24, Type (0, 0), BuildingBlock: XUDNAN_clean_linker_2, # of connection points: 2
#     Edge 25, Type (0, 0), BuildingBlock: XUDNAN_clean_linker_2, # of connection points: 2
#     Edge 26, Type (0, 0), BuildingBlock: XUDNAN_clean_linker_2, # of connection points: 2
#     Edge 27, Type (0, 0), BuildingBlock: XUDNAN_clean_linker_2, # of connection points: 2
#     Edge 28, Type (0, 0), BuildingBlock: XUDNAN_clean_linker_2, # of connection points: 2
#     Edge 29, Type (0, 0), BuildingBlock: XUDNAN_clean_linker_2, # of connection points: 2
#     Edge 30, Type (0, 0), BuildingBlock: XUDNAN_clean_linker_2, # of connection points: 2
#     Edge 31, Type (0, 0), BuildingBlock: XUDNAN_clean_linker_2, # of connection points: 2
#     Edge 32, Type (0, 0), BuildingBlock: XUDNAN_clean_linker_2, # of connection points: 2
#     Edge 33, Type (0, 0), BuildingBlock: XUDNAN_clean_linker_2, # of connection points: 2
#     Edge 34, Type (0, 0), BuildingBlock: XUDNAN_clean_linker_2, # of connection points: 2
#     Edge 35, Type (0, 0), BuildingBlock: XUDNAN_clean_linker_2, # of connection points: 2
#     Edge 36, Type (0, 0), BuildingBlock: XUDNAN_clean_linker_2, # of connection points: 2
#     Edge 37, Type (0, 0), BuildingBlock: XUDNAN_clean_linker_2, # of connection points: 2
#     Edge 38, Type (0, 0), BuildingBlock: XUDNAN_clean_linker_2, # of connection points: 2
#     Edge 39, Type (0, 0), BuildingBlock: XUDNAN_clean_linker_2, # of connection points: 2
#     Edge 40, Type (0, 0), BuildingBlock: XUDNAN_clean_linker_2, # of connection points: 2
#     Edge 41, Type (0, 0), BuildingBlock: XUDNAN_clean_linker_2, # of connection points: 2
#     Edge 42, Type (0, 0), BuildingBlock: XUDNAN_clean_linker_2, # of connection points: 2
#     Edge 43, Type (0, 0), BuildingBlock: XUDNAN_clean_linker_2, # of connection points: 2
#     Edge 44, Type (0, 0), BuildingBlock: XUDNAN_clean_linker_2, # of connection points: 2
#     Edge 45, Type (0, 0), BuildingBlock: XUDNAN_clean_linker_2, # of connection points: 2
#     Edge 46, Type (0, 0), BuildingBlock: XUDNAN_clean_linker_2, # of connection points: 2
#     Edge 47, Type (0, 0), BuildingBlock: XUDNAN_clean_linker_2, # of connection points: 2
#     Edge 48, Type (0, 0), BuildingBlock: XUDNAN_clean_linker_2, # of connection points: 2
#     Edge 49, Type (0, 0), BuildingBlock: XUDNAN_clean_linker_2, # of connection points: 2
#     Edge 50, Type (0, 0), BuildingBlock: XUDNAN_clean_linker_2, # of connection points: 2
#     Edge 51, Type (0, 0), BuildingBlock: XUDNAN_clean_linker_2, # of connection points: 2
#     Edge 52, Type (0, 0), BuildingBlock: XUDNAN_clean_linker_2, # of connection points: 2
#     Edge 53, Type (0, 0), BuildingBlock: XUDNAN_clean_linker_2, # of connection points: 2
#     Edge 54, Type (0, 0), BuildingBlock: XUDNAN_clean_linker_2, # of connection points: 2
#     Edge 55, Type (0, 0), BuildingBlock: XUDNAN_clean_linker_2, # of connection points: 2
# Relax obj value: 0.110
# Max RMSD: 0.162
# Mean RMSD: 0.162
data_MOF--net-yfw--node1-XOMCOT_clean_sbu_0--edge1-XUDNAN_clean_linker_2
_symmetry_space_group_name_H-M    P1
_symmetry_Int_Tables_number       1
_symmetry_cell_setting            triclinic
loop_
_symmetry_equiv_pos_as_xyz
'x, y, z'
_cell_length_a     57.43715
_cell_length_b     57.707105
_cell_length_c     24.529176
_cell_angle_alpha  90.025355
_cell_angle_beta   90.096729
_cell_angle_gamma 89.950258
loop_
_atom_site_label
_atom_site_type_symbol
_atom_site_fract_x
_atom_site_fract_y
_atom_site_fract_z
_atom_type_partial_charge
Co0 Co 0.14448 0.08073 1.00153 0.0
C1 C 0.19023 0.09607 0.95936 0.0
C2 C 0.19372 0.07948 0.03718 0.0
C3 C 0.21558 0.08513 0.01853 0.0
N4 N 0.1778 0.08635 1.00004 0.0
N5 N 0.21337 0.09539 0.96945 0.0
H6 H 0.18257 0.10303 0.92253 0.0
H7 H 0.19 0.07023 0.07443 0.0
C8 C 0.13419 0.0699 0.12052 0.0
O9 O 0.11525 0.08257 0.12292 0.0
N10 N 0.1109 0.07482 0.00316 0.0
C11 C 0.0938 0.08921 0.02031 0.0
C12 C 0.07289 0.07765 0.01934 0.0
C13 C 0.09982 0.05469 0.99128 0.0
N14 N 0.07672 0.05605 1.00093 0.0
C15 C 0.13005 0.12782 0.98297 0.0
C16 C 0.14425 0.14476 0.0832 0.0
C17 C 0.13293 0.15981 0.04693 0.0
C18 C 0.12621 0.15118 0.99573 0.0
C19 C 0.14788 0.12165 0.06873 0.0
N20 N 0.13992 0.11319 0.02016 0.0
H21 H 0.12439 0.12122 0.9439 0.0
H22 H 0.15728 0.11065 0.09668 0.0
H23 H 0.09615 0.10658 0.03562 0.0
H24 H 0.10841 0.03904 0.97775 0.0
O25 O 0.14353 0.08194 0.92183 0.0
O26 O 0.15009 0.05066 0.97228 0.0
O27 O 0.14733 0.07023 0.07883 0.0
C28 C 0.14862 0.05989 0.92432 0.0
H29 H 0.23191 0.08091 0.03832 0.0
H30 H 0.05618 0.08446 0.03196 0.0
H31 H 0.15049 0.15086 0.12235 0.0
H32 H 0.11753 0.16221 0.96631 0.0
Co33 Co 0.94161 0.64442 0.21132 0.0
C34 C 0.93427 0.69406 0.18131 0.0
C35 C 0.96368 0.68914 0.23378 0.0
C36 C 0.96393 0.71158 0.2152 0.0
N37 N 0.94485 0.67807 0.21352 0.0
N38 N 0.94552 0.71463 0.18197 0.0
H39 H 0.92035 0.69022 0.15315 0.0
H40 H 0.97764 0.68096 0.25621 0.0
C41 C 0.95545 0.65347 0.32794 0.0
O42 O 0.93977 0.6699 0.33341 0.0
N43 N 0.9392 0.61108 0.20791 0.0
C44 C 0.92172 0.59884 0.18546 0.0
C45 C 0.92665 0.5756 0.19097 0.0
C46 C 0.95465 0.59526 0.22625 0.0
N47 N 0.94735 0.57335 0.21666 0.0
C48 C 0.89244 0.65498 0.21139 0.0
C49 C 0.8827 0.63222 0.30781 0.0
C50 C 0.86427 0.64207 0.27834 0.0
C51 C 0.86939 0.65375 0.22969 0.0
C52 C 0.90539 0.63386 0.28815 0.0
N53 N 0.9102 0.64556 0.24109 0.0
H54 H 0.89576 0.66245 0.17198 0.0
H55 H 0.91893 0.62472 0.30983 0.0
H56 H 0.9065 0.6063 0.16624 0.0
H57 H 0.97079 0.59972 0.24652 0.0
O58 O 0.93525 0.64604 0.13353 0.0
O59 O 0.97013 0.64304 0.17242 0.0
O60 O 0.95646 0.64143 0.28458 0.0
C61 C 0.95785 0.6448 0.12828 0.0
H62 H 0.97749 0.72422 0.22263 0.0
H63 H 0.91597 0.56148 0.1762 0.0
H64 H 0.87961 0.62287 0.34539 0.0
H65 H 0.85562 0.66097 0.20471 0.0
Co66 Co 0.37734 0.43086 0.51437 0.0
C67 C 0.3293 0.42208 0.47466 0.0
C68 C 0.33028 0.42552 0.56162 0.0
C69 C 0.30752 0.4218 0.5456 0.0
N70 N 0.34391 0.42588 0.51702 0.0
N71 N 0.3069 0.41972 0.49077 0.0
H72 H 0.33492 0.42076 0.43279 0.0
H73 H 0.33634 0.42792 0.60297 0.0
C74 C 0.37463 0.46317 0.58936 0.0
O75 O 0.37927 0.4426 0.60937 0.0
N76 N 0.41081 0.43539 0.50967 0.0
C77 C 0.42474 0.42307 0.47617 0.0
C78 C 0.44656 0.43279 0.47597 0.0
C79 C 0.42454 0.45246 0.52982 0.0
N80 N 0.4464 0.45117 0.50971 0.0
C81 C 0.37753 0.38233 0.48138 0.0
C82 C 0.39536 0.36734 0.5803 0.0
C83 C 0.39108 0.35083 0.53949 0.0
C84 C 0.38195 0.35864 0.48936 0.0
C85 C 0.3911 0.39069 0.57033 0.0
N86 N 0.38236 0.39791 0.52164 0.0
H87 H 0.3704 0.38811 0.44292 0.0
H88 H 0.39493 0.40312 0.6019 0.0
H89 H 0.4191 0.40863 0.45136 0.0
H90 H 0.41859 0.46631 0.55595 0.0
O91 O 0.37651 0.43115 0.43416 0.0
O92 O 0.37215 0.46253 0.47735 0.0
O93 O 0.37251 0.4645 0.53685 0.0
C94 C 0.37335 0.45268 0.43009 0.0
H95 H 0.29258 0.42114 0.57235 0.0
H96 H 0.46126 0.42723 0.45167 0.0
H97 H 0.40171 0.36237 0.62018 0.0
H98 H 0.37847 0.34667 0.45636 0.0
Co99 Co 0.58103 0.86334 0.75341 0.0
C100 C 0.60058 0.81803 0.7197 0.0
C101 C 0.56926 0.8145 0.76679 0.0
C102 C 0.57592 0.7929 0.74902 0.0
N103 N 0.58468 0.8302 0.74837 0.0
N104 N 0.59553 0.79516 0.71937 0.0
H105 H 0.61478 0.82586 0.69735 0.0
H106 H 0.55369 0.81859 0.7896 0.0
C107 C 0.56639 0.87259 0.86867 0.0
O108 O 0.581 0.88997 0.87307 0.0
N109 N 0.57635 0.89694 0.75827 0.0
C110 C 0.59116 0.91422 0.77217 0.0
C111 C 0.57984 0.93522 0.76726 0.0
C112 C 0.55618 0.90792 0.74628 0.0
N113 N 0.55792 0.93114 0.75036 0.0
C114 C 0.62914 0.876 0.74888 0.0
C115 C 0.6422 0.85643 0.8472 0.0
C116 C 0.65883 0.86855 0.81671 0.0
C117 C 0.65215 0.8782 0.76672 0.0
C118 C 0.6192 0.8551 0.82842 0.0
N119 N 0.61275 0.86561 0.78084 0.0
H120 H 0.62423 0.8835 0.71017 0.0
H121 H 0.60667 0.84542 0.85195 0.0
H122 H 0.60883 0.91214 0.78618 0.0
H123 H 0.54026 0.89918 0.73512 0.0
O124 O 0.58674 0.86616 0.67554 0.0
O125 O 0.55231 0.86057 0.7143 0.0
O126 O 0.56679 0.85936 0.82716 0.0
C127 C 0.56428 0.8637 0.67015 0.0
H128 H 0.56678 0.77681 0.7564 0.0
H129 H 0.58729 0.95217 0.77456 0.0
H130 H 0.64683 0.84841 0.88564 0.0
H131 H 0.66463 0.88731 0.74155 0.0
Co132 Co 0.87207 0.07884 0.51661 0.0
C133 C 0.82542 0.0943 0.47856 0.0
C134 C 0.82243 0.06931 0.54231 0.0
C135 C 0.80043 0.07461 0.52361 0.0
N136 N 0.83819 0.0823 0.51542 0.0
N137 N 0.80229 0.09039 0.48327 0.0
H138 H 0.83298 0.10423 0.44589 0.0
H139 H 0.82651 0.0559 0.57151 0.0
C140 C 0.86067 0.07272 0.63478 0.0
O141 O 0.84854 0.09199 0.63127 0.0
N142 N 0.90542 0.07491 0.51565 0.0
C143 C 0.9205 0.08832 0.48792 0.0
C144 C 0.94232 0.07861 0.49146 0.0
C145 C 0.91819 0.0573 0.53613 0.0
N146 N 0.9408 0.05922 0.52181 0.0
C147 C 0.86756 0.12881 0.52053 0.0
C148 C 0.89401 0.13502 0.61365 0.0
C149 C 0.88324 0.15435 0.58991 0.0
C150 C 0.87026 0.15106 0.54207 0.0
C151 C 0.89079 0.11306 0.59082 0.0
N152 N 0.87666 0.10994 0.54643 0.0
H153 H 0.85856 0.12697 0.48241 0.0
H154 H 0.89946 0.09844 0.60944 0.0
H155 H 0.91579 0.10373 0.46533 0.0
H156 H 0.91099 0.04291 0.55881 0.0
O157 O 0.87306 0.08591 0.4394 0.0
O158 O 0.86867 0.05079 0.4745 0.0
O159 O 0.87097 0.06471 0.59251 0.0
C160 C 0.87038 0.06378 0.43127 0.0
H161 H 0.78446 0.06674 0.53769 0.0
H162 H 0.95806 0.08506 0.47257 0.0
H163 H 0.90451 0.13672 0.65015 0.0
H164 H 0.86253 0.16563 0.52088 0.0
Co165 Co 0.94032 0.3725 0.74807 0.0
C166 C 0.92191 0.32457 0.74498 0.0
C167 C 0.95329 0.32677 0.79175 0.0
C168 C 0.94744 0.30374 0.7861 0.0
N169 N 0.93704 0.33993 0.76674 0.0
N170 N 0.92769 0.30242 0.75653 0.0
H171 H 0.90824 0.32913 0.7169 0.0
H172 H 0.96915 0.33336 0.80986 0.0
C173 C 0.95024 0.37112 0.86949 0.0
O174 O 0.93326 0.35638 0.87862 0.0
N175 N 0.94406 0.40456 0.72828 0.0
C176 C 0.93266 0.41592 0.68832 0.0
C177 C 0.94218 0.43772 0.6831 0.0
C178 C 0.96017 0.41952 0.74713 0.0
N179 N 0.95934 0.43987 0.72029 0.0
C180 C 0.89032 0.37176 0.73719 0.0
C181 C 0.88057 0.39644 0.831 0.0
C182 C 0.86201 0.38694 0.80129 0.0
C183 C 0.86714 0.37496 0.75298 0.0
C184 C 0.90349 0.39267 0.81391 0.0
N185 N 0.90823 0.37921 0.76937 0.0
H186 H 0.89382 0.36337 0.69879 0.0
H187 H 0.91731 0.40081 0.83664 0.0
H188 H 0.91883 0.40862 0.66376 0.0
H189 H 0.97288 0.41535 0.77819 0.0
O190 O 0.93643 0.36462 0.67113 0.0
O191 O 0.9699 0.36547 0.71663 0.0
O192 O 0.95327 0.37969 0.82217 0.0
C193 C 0.95897 0.36173 0.67129 0.0
H194 H 0.95749 0.28912 0.80063 0.0
H195 H 0.93703 0.45093 0.65413 0.0
H196 H 0.87748 0.40633 0.86782 0.0
H197 H 0.85334 0.36825 0.72731 0.0
Co198 Co 0.63766 0.43537 0.96309 0.0
C199 C 0.68708 0.42137 0.94743 0.0
C200 C 0.68428 0.45321 0.99153 0.0
C201 C 0.70749 0.44891 0.98148 0.0
N202 N 0.67143 0.43564 0.9713 0.0
N203 N 0.70925 0.42885 0.9535 0.0
H204 H 0.68237 0.4068 0.92238 0.0
H205 H 0.67724 0.46869 0.01014 0.0
C206 C 0.64468 0.44844 0.08087 0.0
O207 O 0.66101 0.43271 0.08738 0.0
N208 N 0.60433 0.43559 0.95353 0.0
C209 C 0.59153 0.41922 0.92837 0.0
C210 C 0.56912 0.42732 0.92264 0.0
C211 C 0.58965 0.45342 0.9628 0.0
N212 N 0.568 0.44883 0.9441 0.0
C213 C 0.6421 0.38582 0.95741 0.0
C214 C 0.62008 0.37625 0.05488 0.0
C215 C 0.62737 0.35773 0.0221 0.0
C216 C 0.63863 0.36279 0.97287 0.0
C217 C 0.62394 0.39903 0.03792 0.0
N218 N 0.63544 0.40369 0.99039 0.0
H219 H 0.64907 0.38918 0.91746 0.0
H220 H 0.61645 0.41278 0.06191 0.0
H221 H 0.59823 0.40294 0.91318 0.0
H222 H 0.59501 0.46987 0.9799 0.0
O223 O 0.64138 0.42976 0.88546 0.0
O224 O 0.63944 0.46422 0.9257 0.0
O225 O 0.63328 0.44971 0.03647 0.0
C226 C 0.64119 0.4523 0.88115 0.0
H227 H 0.72182 0.4601 0.99263 0.0
H228 H 0.55488 0.4183 0.90298 0.0
H229 H 0.61044 0.37323 0.09212 0.0
H230 H 0.64429 0.3491 0.94574 0.0
Co231 Co 0.58198 0.13834 0.21775 0.0
C232 C 0.58958 0.18605 0.17717 0.0
C233 C 0.58037 0.18612 0.26181 0.0
C234 C 0.58398 0.20868 0.24541 0.0
N235 N 0.58372 0.17193 0.21881 0.0
N236 N 0.58968 0.20858 0.19209 0.0
H237 H 0.59417 0.18004 0.13689 0.0
H238 H 0.57582 0.18062 0.30252 0.0
C239 C 0.56212 0.12329 0.32574 0.0
O240 O 0.5742 0.10395 0.32551 0.0
N241 N 0.58062 0.10477 0.21549 0.0
C242 C 0.59858 0.09023 0.20614 0.0
C243 C 0.59014 0.06814 0.19996 0.0
C244 C 0.56139 0.09126 0.21431 0.0
N245 N 0.56681 0.06882 0.20509 0.0
C246 C 0.63195 0.13765 0.21365 0.0
C247 C 0.6399 0.13482 0.32457 0.0
C248 C 0.65892 0.13358 0.28915 0.0
C249 C 0.65482 0.13563 0.23303 0.0
C250 C 0.61741 0.13721 0.30361 0.0
N251 N 0.61344 0.13737 0.24861 0.0
H252 H 0.62914 0.13873 0.17023 0.0
H253 H 0.60353 0.1392 0.33239 0.0
H254 H 0.61658 0.09516 0.20202 0.0
H255 H 0.54381 0.09779 0.21833 0.0
O256 O 0.58864 0.1377 0.13971 0.0
O257 O 0.5536 0.14008 0.17687 0.0
O258 O 0.56578 0.13903 0.29027 0.0
C259 C 0.56613 0.13909 0.13312 0.0
H260 H 0.58227 0.22396 0.27069 0.0
H261 H 0.60033 0.05276 0.19155 0.0
H262 H 0.6424 0.13426 0.36835 0.0
H263 H 0.66908 0.13509 0.20423 0.0
Co264 Co 0.64704 0.57656 0.46276 0.0
C265 C 0.69322 0.59469 0.43038 0.0
C266 C 0.69599 0.56466 0.48171 0.0
C267 C 0.71801 0.57143 0.46686 0.0
N268 N 0.6805 0.57928 0.45903 0.0
N269 N 0.7163 0.59023 0.43431 0.0
H270 H 0.68565 0.60835 0.40586 0.0
H271 H 0.69162 0.54979 0.50644 0.0
C272 C 0.63978 0.5637 0.58104 0.0
O273 O 0.62366 0.5796 0.588 0.0
N274 N 0.6132 0.57299 0.46545 0.0
C275 C 0.59761 0.58285 0.43116 0.0
C276 C 0.57622 0.57266 0.43813 0.0
C277 C 0.60092 0.55624 0.49142 0.0
N278 N 0.57832 0.55604 0.47617 0.0
C279 C 0.63348 0.62478 0.46666 0.0
C280 C 0.65745 0.63529 0.56132 0.0
C281 C 0.6437 0.65244 0.53692 0.0
C282 C 0.63184 0.64708 0.4886 0.0
C283 C 0.65824 0.6131 0.53855 0.0
N284 N 0.64554 0.60776 0.49306 0.0
H285 H 0.62544 0.62146 0.42788 0.0
H286 H 0.66924 0.60021 0.55749 0.0
H287 H 0.6016 0.59519 0.39955 0.0
H288 H 0.60856 0.54323 0.51761 0.0
O289 O 0.64496 0.58306 0.38515 0.0
O290 O 0.64892 0.54828 0.42309 0.0
O291 O 0.65046 0.56188 0.5359 0.0
C292 C 0.64699 0.56065 0.37923 0.0
H293 H 0.73403 0.563 0.47903 0.0
H294 H 0.56052 0.57647 0.4153 0.0
H295 H 0.66722 0.63886 0.59819 0.0
H296 H 0.62172 0.66014 0.46746 0.0
Co297 Co 0.43871 0.12879 0.71538 0.0
C298 C 0.42737 0.17772 0.68965 0.0
C299 C 0.46094 0.17452 0.72661 0.0
C300 C 0.45814 0.19704 0.70895 0.0
N301 N 0.44147 0.16242 0.71519 0.0
N302 N 0.43702 0.199 0.68521 0.0
H303 H 0.41099 0.17318 0.67162 0.0
H304 H 0.47674 0.16713 0.74327 0.0
C305 C 0.45547 0.14015 0.82864 0.0
O306 O 0.44062 0.1574 0.83257 0.0
N307 N 0.43645 0.09548 0.71398 0.0
C308 C 0.41792 0.08289 0.69809 0.0
C309 C 0.42434 0.05995 0.69595 0.0
C310 C 0.45393 0.08015 0.72103 0.0
N311 N 0.44702 0.05826 0.71 0.0
C312 C 0.38934 0.13632 0.71486 0.0
C313 C 0.38047 0.11887 0.81751 0.0
C314 C 0.36158 0.12581 0.78492 0.0
C315 C 0.36642 0.13499 0.73325 0.0
C316 C 0.40326 0.12095 0.79786 0.0
N317 N 0.40759 0.13006 0.74741 0.0
H318 H 0.39216 0.14114 0.67301 0.0
H319 H 0.41717 0.11384 0.82219 0.0
H320 H 0.40115 0.08993 0.68678 0.0
H321 H 0.4716 0.0851 0.73101 0.0
O322 O 0.43093 0.12976 0.63822 0.0
O323 O 0.46655 0.12691 0.67298 0.0
O324 O 0.45505 0.12667 0.7875 0.0
C325 C 0.4533 0.12799 0.63024 0.0
H326 H 0.47131 0.21042 0.71035 0.0
H327 H 0.41327 0.0457 0.68374 0.0
H328 H 0.37772 0.11083 0.85683 0.0
H329 H 0.3526 0.14054 0.70619 0.0
Co330 Co 0.87396 0.93663 0.01583 0.0
C331 C 0.82917 0.91855 0.97124 0.0
C332 C 0.82383 0.94777 0.02389 0.0
C333 C 0.80263 0.941 0.00348 0.0
N334 N 0.84058 0.93377 0.00372 0.0
N335 N 0.80598 0.92264 0.97055 0.0
H336 H 0.83762 0.90507 0.94781 0.0
H337 H 0.82654 0.96221 0.05109 0.0
C338 C 0.86744 0.96501 0.10565 0.0
O339 O 0.86636 0.94367 0.12419 0.0
N340 N 0.90701 0.93952 0.0291 0.0
C341 C 0.91755 0.93287 0.07563 0.0
C342 C 0.94016 0.94076 0.07532 0.0
C343 C 0.92346 0.95104 1.00053 0.0
N344 N 0.9438 0.95209 0.0281 0.0
C345 C 0.89284 0.89546 0.96521 0.0
C346 C 0.87652 0.86685 0.04754 0.0
C347 C 0.89285 0.85791 0.01053 0.0
C348 C 0.90036 0.87235 0.96766 0.0
C349 C 0.86948 0.88991 0.04352 0.0
N350 N 0.8781 0.90394 0.00384 0.0
H351 H 0.89999 0.90693 0.93469 0.0
H352 H 0.85831 0.89718 0.07464 0.0
H353 H 0.90903 0.92377 0.10855 0.0
H354 H 0.92046 0.95957 0.96192 0.0
O355 O 0.87749 0.94721 0.9383 0.0
O356 O 0.8712 0.97103 0.00288 0.0
O357 O 0.86976 0.96782 0.05367 0.0
C358 C 0.874 0.96826 0.95115 0.0
H359 H 0.78594 0.94882 0.01263 0.0
H360 H 0.9528 0.93887 0.10782 0.0
H361 H 0.8705 0.85673 0.08188 0.0
H362 H 0.91276 0.86619 0.93777 0.0
Co363 Co 0.07697 0.37532 0.26046 0.0
C364 C 0.09408 0.32921 0.22027 0.0
C365 C 0.06557 0.3262 0.27581 0.0
C366 C 0.07077 0.30451 0.25625 0.0
N367 N 0.08065 0.34175 0.25484 0.0
N368 N 0.08865 0.30639 0.22113 0.0
H369 H 0.10658 0.33658 0.19258 0.0
H370 H 0.05076 0.33046 0.30104 0.0
C371 C 0.07147 0.35888 0.37521 0.0
O372 O 0.09045 0.3464 0.36929 0.0
N373 N 0.07227 0.40843 0.26463 0.0
C374 C 0.08649 0.42499 0.24523 0.0
C375 C 0.07479 0.44583 0.24592 0.0
C376 C 0.05214 0.41932 0.27668 0.0
N377 N 0.05306 0.44229 0.26531 0.0
C378 C 0.12709 0.37508 0.25119 0.0
C379 C 0.13632 0.39464 0.35181 0.0
C380 C 0.15511 0.38915 0.31769 0.0
C381 C 0.15016 0.3793 0.26662 0.0
C382 C 0.11349 0.39018 0.33467 0.0
N383 N 0.10905 0.37968 0.28571 0.0
H384 H 0.12376 0.36903 0.21043 0.0
H385 H 0.09936 0.39595 0.36028 0.0
H386 H 0.10364 0.4219 0.22858 0.0
H387 H 0.03686 0.41025 0.2909 0.0
O388 O 0.08132 0.37822 0.18241 0.0
O389 O 0.04755 0.37221 0.22394 0.0
O390 O 0.06461 0.37216 0.33682 0.0
C391 C 0.05885 0.3753 0.17873 0.0
H392 H 0.06109 0.28881 0.26444 0.0
H393 H 0.0814 0.46199 0.22989 0.0
H394 H 0.13915 0.40313 0.39064 0.0
H395 H 0.16399 0.37512 0.23833 0.0
Co396 Co 0.3706 0.57667 0.01305 0.0
C397 C 0.32495 0.59 0.96851 0.0
C398 C 0.32131 0.57497 0.04797 0.0
C399 C 0.29943 0.57978 0.02762 0.0
N400 N 0.33725 0.5812 0.01055 0.0
N401 N 0.30177 0.58907 0.97741 0.0
H402 H 0.33286 0.59674 0.93184 0.0
H403 H 0.32514 0.567 0.08681 0.0
C404 C 0.36811 0.54561 0.09086 0.0
O405 O 0.37188 0.56661 0.10968 0.0
N406 N 0.40408 0.57209 0.01561 0.0
C407 C 0.41925 0.58271 0.04931 0.0
C408 C 0.44111 0.57331 0.04143 0.0
C409 C 0.41686 0.5563 0.98818 0.0
N410 N 0.43952 0.5567 0.00285 0.0
C411 C 0.3877 0.62198 0.97993 0.0
C412 C 0.37001 0.64357 0.07197 0.0
C413 C 0.38399 0.65645 0.03635 0.0
C414 C 0.39249 0.64554 0.98905 0.0
C415 C 0.36577 0.62027 0.06151 0.0
N416 N 0.3748 0.60975 0.01662 0.0
H417 H 0.39507 0.61333 0.94483 0.0
H418 H 0.35571 0.61028 0.09034 0.0
H419 H 0.41466 0.59606 0.07835 0.0
H420 H 0.40969 0.544 0.95964 0.0
O421 O 0.37098 0.57461 0.9325 0.0
O422 O 0.36582 0.54431 0.97988 0.0
O423 O 0.36645 0.54348 0.03843 0.0
C424 C 0.36683 0.55314 0.9315 0.0
H425 H 0.28309 0.57588 0.04747 0.0
H426 H 0.45685 0.57825 0.06273 0.0
H427 H 0.3627 0.65131 0.10836 0.0
H428 H 0.40346 0.65482 0.96064 0.0
Co429 Co 0.43831 0.8714 0.25149 0.0
C430 C 0.4229 0.82595 0.2079 0.0
C431 C 0.44623 0.82201 0.27573 0.0
C432 C 0.44098 0.8004 0.25562 0.0
N433 N 0.43485 0.83806 0.24596 0.0
N434 N 0.42643 0.80286 0.21278 0.0
H435 H 0.41227 0.83389 0.17661 0.0
H436 H 0.45829 0.82561 0.30849 0.0
C437 C 0.45384 0.87941 0.36779 0.0
O438 O 0.43849 0.89589 0.37601 0.0
N439 N 0.44244 0.90509 0.25682 0.0
C440 C 0.42822 0.92152 0.2779 0.0
C441 C 0.43832 0.943 0.27137 0.0
C442 C 0.46114 0.91706 0.23887 0.0
N443 N 0.45895 0.94012 0.24633 0.0
C444 C 0.39011 0.88449 0.25256 0.0
C445 C 0.37939 0.86443 0.35179 0.0
C446 C 0.36232 0.87758 0.32496 0.0
C447 C 0.36777 0.88735 0.27423 0.0
C448 C 0.40161 0.86234 0.32911 0.0
N449 N 0.40703 0.87325 0.28142 0.0
H450 H 0.39421 0.89231 0.21371 0.0
H451 H 0.41449 0.85205 0.35018 0.0
H452 H 0.41186 0.91848 0.29817 0.0
H453 H 0.47643 0.90916 0.22142 0.0
O454 O 0.43158 0.87441 0.17392 0.0
O455 O 0.46652 0.86902 0.21078 0.0
O456 O 0.45379 0.86758 0.32402 0.0
C457 C 0.45399 0.87191 0.16731 0.0
H458 H 0.44826 0.78418 0.26988 0.0
H459 H 0.43091 0.95944 0.2836 0.0
H460 H 0.37579 0.85627 0.39062 0.0
H461 H 0.3549 0.89716 0.25158 0.0
Co462 Co 0.14552 0.94329 0.50801 0.0
C463 C 0.19426 0.92646 0.48653 0.0
C464 C 0.19322 0.961 0.51828 0.0
C465 C 0.21599 0.95562 0.50582 0.0
N466 N 0.17951 0.94268 0.50649 0.0
N467 N 0.21655 0.93386 0.48596 0.0
H468 H 0.18909 0.90998 0.47016 0.0
H469 H 0.18697 0.97745 0.5336 0.0
C470 C 0.16066 0.94968 0.62269 0.0
O471 O 0.17552 0.93263 0.61536 0.0
N472 N 0.11199 0.9445 0.50827 0.0
C473 C 0.09774 0.93133 0.47748 0.0
C474 C 0.07534 0.93946 0.48299 0.0
C475 C 0.09817 0.96035 0.5325 0.0
N476 N 0.07572 0.95753 0.51773 0.0
C477 C 0.14801 0.89407 0.49247 0.0
C478 C 0.12848 0.88182 0.59106 0.0
C479 C 0.13435 0.86419 0.55405 0.0
C480 C 0.14448 0.87071 0.50432 0.0
C481 C 0.13294 0.90498 0.5781 0.0
N482 N 0.14336 0.91089 0.53 0.0
H483 H 0.15381 0.89862 0.45208 0.0
H484 H 0.12678 0.91816 0.60574 0.0
H485 H 0.10341 0.91742 0.45107 0.0
H486 H 0.1045 0.97436 0.55786 0.0
O487 O 0.14518 0.93961 0.42968 0.0
O488 O 0.14614 0.97323 0.4739 0.0
O489 O 0.1462 0.95493 0.5852 0.0
C490 C 0.14561 0.96216 0.42782 0.0
H491 H 0.23091 0.9669 0.51047 0.0
H492 H 0.06004 0.93308 0.46201 0.0
H493 H 0.11958 0.87799 0.62884 0.0
H494 H 0.14929 0.85798 0.47394 0.0
Co495 Co 0.08251 0.64113 0.70975 0.0
C496 C 0.09796 0.68916 0.68806 0.0
C497 C 0.07368 0.68833 0.75398 0.0
C498 C 0.07874 0.71113 0.74243 0.0
N499 N 0.08629 0.67439 0.72094 0.0
N500 N 0.09388 0.71152 0.7007 0.0
H501 H 0.10796 0.68388 0.65292 0.0
H502 H 0.06013 0.68272 0.78132 0.0
C503 C 0.0707 0.64412 0.83061 0.0
O504 O 0.0898 0.65538 0.84358 0.0
N505 N 0.07823 0.60835 0.69757 0.0
C506 C 0.09021 0.59478 0.66272 0.0
C507 C 0.08066 0.57286 0.66358 0.0
C508 C 0.06175 0.5946 0.71939 0.0
N509 N 0.06292 0.57288 0.69947 0.0
C510 C 0.13238 0.64407 0.714 0.0
C511 C 0.13836 0.61426 0.80113 0.0
C512 C 0.15804 0.62448 0.77745 0.0
C513 C 0.15481 0.63943 0.73304 0.0
C514 C 0.11621 0.61935 0.78067 0.0
N515 N 0.11336 0.63474 0.73885 0.0
H516 H 0.13042 0.65476 0.6784 0.0
H517 H 0.10136 0.61058 0.79798 0.0
H518 H 0.10466 0.6005 0.63795 0.0
H519 H 0.04873 0.60042 0.74811 0.0
O520 O 0.08961 0.64481 0.63292 0.0
O521 O 0.05451 0.64734 0.67055 0.0
O522 O 0.06699 0.63761 0.78189 0.0
C523 C 0.06726 0.6481 0.62701 0.0
H524 H 0.07042 0.72621 0.76002 0.0
H525 H 0.08634 0.55803 0.64003 0.0
H526 H 0.14006 0.60199 0.83429 0.0
H527 H 0.1695 0.64753 0.71301 0.0
H528 H 0.96689 0.98236 0.09218 0.0
H529 H 0.96628 0.95157 0.93131 0.0
H530 H 1.00199 0.97363 0.90731 0.0
H531 H 0.98383 0.03902 0.04724 0.0
H532 H 1.00129 0.04494 0.10676 0.0
H533 H 0.97676 0.02565 0.11152 0.0
H534 H 1.00366 0.99349 0.15012 0.0
H535 H 0.0283 0.01266 0.14524 0.0
H536 H 0.02904 0.98478 0.11209 0.0
H537 H 0.03888 0.99843 0.90314 0.0
H538 H 0.07046 0.02746 0.91469 0.0
H539 H 0.04438 0.04414 0.07542 0.0
C540 C 0.97447 0.98017 0.05212 0.0
C541 C 0.96421 0.9651 0.01369 0.0
C542 C 0.9741 0.96302 0.96115 0.0
C543 C 0.99436 0.97537 0.94741 0.0
C544 C 1.00418 0.99004 0.98645 0.0
C545 C 0.99429 0.99276 0.03743 0.0
C546 C 1.00722 0.01066 0.0709 0.0
C547 C 0.99133 0.03129 0.0849 0.0
C548 C 0.01767 0.99974 0.12264 0.0
C549 C 0.02604 0.01756 0.031 0.0
C550 C 0.0243 1.00522 0.98283 0.0
C551 C 0.04025 0.00829 0.94053 0.0
C552 C 0.05816 0.02467 0.94742 0.0
C553 C 0.0596 0.03802 0.99567 0.0
C554 C 0.04342 0.03427 0.03795 0.0
H555 H 0.99415 0.56635 0.22818 0.0
H556 H 0.92728 0.53155 0.23544 0.0
H557 H 0.94714 0.49448 0.25362 0.0
H558 H 0.02448 0.52167 0.16019 0.0
H559 H 0.05136 0.52551 0.1971 0.0
H560 H 0.0319 0.54966 0.18787 0.0
H561 H 0.03052 0.55598 0.29241 0.0
H562 H 0.05007 0.53187 0.30196 0.0
H563 H 0.02234 0.53228 0.33623 0.0
H564 H 0.97422 0.46083 0.26615 0.0
H565 H 1.00642 0.43295 0.27138 0.0
H566 H 0.05599 0.48962 0.25943 0.0
C567 C 0.98365 0.55104 0.23451 0.0
C568 C 0.95909 0.55194 0.23014 0.0
C569 C 0.94608 0.53132 0.23777 0.0
C570 C 0.95721 0.51018 0.24856 0.0
C571 C 0.98141 0.50985 0.2519 0.0
C572 C 0.9945 0.52973 0.24531 0.0
C573 C 0.02033 0.52442 0.24886 0.0
C574 C 0.03274 0.53068 0.19532 0.0
C575 C 0.03147 0.53688 0.29778 0.0
C576 C 0.01968 0.4984 0.25756 0.0
C577 C 0.99706 0.4904 0.25953 0.0
C578 C 0.99203 0.46693 0.26527 0.0
C579 C 0.01059 0.45116 0.26851 0.0
C580 C 0.03405 0.45883 0.26596 0.0
C581 C 0.03844 0.48293 0.26113 0.0
H582 H 0.54837 0.53336 0.4102 0.0
H583 H 0.56807 0.54274 0.57914 0.0
H584 H 0.53525 0.51746 0.60773 0.0
H585 H 0.48682 0.53267 0.42764 0.0
H586 H 0.48188 0.5103 0.37765 0.0
H587 H 0.50663 0.52923 0.37126 0.0
H588 H 0.53427 0.49371 0.36881 0.0
H589 H 0.50959 0.47467 0.37469 0.0
H590 H 0.53314 0.47271 0.42314 0.0
H591 H 0.49811 0.493 0.61687 0.0
H592 H 0.46378 0.46717 0.6052 0.0
H593 H 0.47106 0.47173 0.43003 0.0
C594 C 0.54572 0.53003 0.45318 0.0
C595 C 0.56046 0.54008 0.49268 0.0
C596 C 0.55686 0.53511 0.5485 0.0
C597 C 0.53823 0.52092 0.56496 0.0
C598 C 0.52372 0.51154 0.52489 0.0
C599 C 0.52761 0.51556 0.47007 0.0
C600 C 0.51023 0.50275 0.43479 0.0
C601 C 0.49552 0.51976 0.40085 0.0
C602 C 0.52255 0.4849 0.39822 0.0
C603 C 0.49574 0.49105 0.47819 0.0
C604 C 0.50349 0.49655 0.53 0.0
C605 C 0.49211 0.48838 0.57646 0.0
C606 C 0.47262 0.47388 0.56961 0.0
C607 C 0.46509 0.46742 0.51684 0.0
C608 C 0.47675 0.47625 0.47077 0.0
H609 H 0.55156 0.97428 0.79358 0.0
H610 H 0.52432 0.92589 0.674 0.0
H611 H 0.49317 0.9535 0.65067 0.0
H612 H 0.49653 0.99547 0.8404 0.0
H613 H 0.50605 0.02505 0.84811 0.0
H614 H 0.52665 1.00168 0.85513 0.0
H615 H 0.55252 0.02006 0.7803 0.0
H616 H 0.53201 0.04351 0.77316 0.0
H617 H 0.54007 0.02649 0.7145 0.0
H618 H 0.46471 0.98557 0.64116 0.0
H619 H 0.44067 0.02084 0.64482 0.0
H620 H 0.48598 0.04913 0.77004 0.0
C621 C 0.53915 0.96962 0.7622 0.0
C622 C 0.54022 0.94779 0.73607 0.0
C623 C 0.52355 0.94226 0.69544 0.0
C624 C 0.50589 0.9579 0.68157 0.0
C625 C 0.50514 0.9791 0.70852 0.0
C626 C 0.52132 0.98508 0.74783 0.0
C627 C 0.51627 0.00897 0.77085 0.0
C628 C 0.51106 0.0077 0.83226 0.0
C629 C 0.53642 0.02575 0.75898 0.0
C630 C 0.49467 0.01535 0.73847 0.0
C631 C 0.48863 0.99783 0.70278 0.0
C632 C 0.46922 0.99943 0.66897 0.0
C633 C 0.45556 0.01948 0.67168 0.0
C634 C 0.4613 0.03773 0.70797 0.0
C635 C 0.48123 0.03558 0.74161 0.0
H636 H 0.05014 0.98176 0.44587 0.0
H637 H 0.05835 0.96673 0.61751 0.0
H638 H 0.02339 0.99067 0.63828 0.0
H639 H 0.03309 0.04176 0.46473 0.0
H640 H 0.01316 0.0415 0.40788 0.0
H641 H 0.03828 0.0228 0.40758 0.0
H642 H 0.01146 0.98725 0.3926 0.0
H643 H 0.98625 1.00581 0.39331 0.0
H644 H 0.98812 0.98173 0.43989 0.0
H645 H 0.98577 0.01432 0.63814 0.0
H646 H 0.95205 0.04016 0.61903 0.0
H647 H 0.97115 0.04214 0.44851 0.0
C648 C 0.04447 0.98364 0.48773 0.0
C649 C 0.05651 0.97243 0.53026 0.0
C650 C 0.04911 0.97532 0.58473 0.0
C651 C 0.02931 0.98873 0.59667 0.0
C652 C 0.01756 0.99941 0.55359 0.0
C653 C 0.02518 0.99737 0.50033 0.0
C654 C 0.01021 0.01134 0.46165 0.0
C655 C 0.02454 0.03049 0.43384 0.0
C656 C 0.9983 0.99559 0.41938 0.0
C657 C 0.99275 0.02138 0.50125 0.0
C658 C 0.997 0.01406 0.55401 0.0
C659 C 0.98247 0.02039 0.5971 0.0
C660 C 0.96336 0.03489 0.58599 0.0
C661 C 0.95934 0.04318 0.53256 0.0
C662 C 0.97416 0.03623 0.48981 0.0
H663 H 0.98032 0.46522 0.64185 0.0
H664 H 0.97252 0.45821 0.8166 0.0
H665 H 0.99828 0.49216 0.83073 0.0
H666 H 0.04128 0.48015 0.64589 0.0
H667 H 0.0394 0.50008 0.5895 0.0
H668 H 0.01968 0.47589 0.59343 0.0
H669 H 0.98453 0.50397 0.58726 0.0
H670 H 1.00414 0.52824 0.58329 0.0
H671 H 0.98211 0.52743 0.63549 0.0
H672 H 0.02329 0.52795 0.82501 0.0
H673 H 0.04899 0.5608 0.8004 0.0
H674 H 0.04306 0.54237 0.6298 0.0
C675 C 0.98397 0.47102 0.68296 0.0
C676 C 0.97436 0.45944 0.72825 0.0
C677 C 0.9798 0.46702 0.7816 0.0
C678 C 0.9943 0.48625 0.78989 0.0
C679 C 1.00351 0.49736 0.74432 0.0
C680 C 0.99883 0.48984 0.69192 0.0
C681 C 0.01172 0.50419 0.65006 0.0
C682 C 0.02905 0.48918 0.61783 0.0
C683 C 0.9946 0.5167 0.61178 0.0
C684 C 0.02421 0.52113 0.68704 0.0
C685 C 0.01902 0.51708 0.74123 0.0
C686 C 0.02769 0.53112 0.78279 0.0
C687 C 0.04215 0.54973 0.76855 0.0
C688 C 0.04807 0.55381 0.71343 0.0
C689 C 0.03904 0.53928 0.67229 0.0
H690 H 0.55573 0.48105 0.01986 0.0
H691 H 0.53591 0.4518 0.86368 0.0
H692 H 0.50179 0.47775 0.8602 0.0
H693 H 0.49797 0.48608 0.07225 0.0
H694 H 0.50316 0.51301 0.10747 0.0
H695 H 0.52678 0.49304 0.09646 0.0
H696 H 0.55034 0.52535 0.04841 0.0
H697 H 0.52675 0.54544 0.05918 0.0
H698 H 0.53767 0.54049 0.99131 0.0
H699 H 0.46967 0.50616 0.87389 0.0
H700 H 0.44045 0.53422 0.90547 0.0
H701 H 0.47991 0.54447 0.0548 0.0
C702 C 0.5443 0.48034 0.98475 0.0
C703 C 0.54841 0.46439 0.94205 0.0
C704 C 0.53292 0.46369 0.89709 0.0
C705 C 0.51361 0.47847 0.89457 0.0
C706 C 0.50993 0.49385 0.93746 0.0
C707 C 0.52474 0.49486 0.98186 0.0
C708 C 0.51613 0.5123 0.02354 0.0
C709 C 0.51068 0.50039 0.07815 0.0
C710 C 0.53378 0.53207 0.03103 0.0
C711 C 0.4941 0.52078 0.99571 0.0
C712 C 0.49102 0.51001 0.94592 0.0
C713 C 0.47186 0.51467 0.91289 0.0
C714 C 0.45523 0.53056 0.93147 0.0
C715 C 0.45764 0.54151 0.98297 0.0
C716 C 0.47757 0.53665 0.01509 0.0
H717 H 0.46523 0.98295 0.29138 0.0
H718 H 0.48949 0.93742 0.16236 0.0
H719 H 0.51841 0.9666 0.13523 0.0
H720 H 0.47195 0.03713 0.21452 0.0
H721 H 0.48155 0.05331 0.27327 0.0
H722 H 0.46193 0.02921 0.28159 0.0
H723 H 0.49069 0.01022 0.34974 0.0
H724 H 0.51034 0.03425 0.34164 0.0
H725 H 0.52038 1.00512 0.3292 0.0
H726 H 0.54604 0.99931 0.12509 0.0
H727 H 0.57071 0.0342 0.13201 0.0
H728 H 0.52815 0.05965 0.26496 0.0
C729 C 0.47639 0.97926 0.25695 0.0
C730 C 0.47518 0.95775 0.22938 0.0
C731 C 0.49034 0.95352 0.18491 0.0
C732 C 0.50671 0.9701 0.16879 0.0
C733 C 0.50761 0.99096 0.19719 0.0
C734 C 0.49283 0.9957 0.24014 0.0
C735 C 0.49802 0.01929 0.2647 0.0
C736 C 0.47711 0.03571 0.25811 0.0
C737 C 0.5053 0.01707 0.32488 0.0
C738 C 0.51827 0.02683 0.22935 0.0
C739 C 0.52342 0.0102 0.19059 0.0
C740 C 0.54207 0.01256 0.15489 0.0
C741 C 0.55603 0.03234 0.15927 0.0
C742 C 0.55123 0.04954 0.19885 0.0
C743 C 0.5319 0.04689 0.23379 0.0
H744 H 0.1261 1.00427 0.4073 0.0
H745 H 0.16519 0.94839 0.33234 0.0
H746 H 0.16724 0.97075 0.2464 0.0
H747 H 0.09168 0.01757 0.28675 0.0
H748 H 0.09116 0.04828 0.30009 0.0
H749 H 0.09321 0.02808 0.35588 0.0
H750 H 0.13074 0.04856 0.38941 0.0
H751 H 0.12893 0.0687 0.33348 0.0
H752 H 0.15498 0.05177 0.34345 0.0
H753 H 0.16709 0.99968 0.17197 0.0
H754 H 0.16061 0.03136 0.10715 0.0
H755 H 0.11867 0.06776 0.22721 0.0
C756 C 0.13507 0.99681 0.37265 0.0
C757 C 0.14569 0.97479 0.37605 0.0
C758 C 0.15696 0.96526 0.33008 0.0
C759 C 0.15829 0.97786 0.28141 0.0
C760 C 0.14784 0.99965 0.27946 0.0
C761 C 0.13606 0.0089 0.32339 0.0
C762 C 0.12553 0.03229 0.30958 0.0
C763 C 0.09881 0.0315 0.31328 0.0
C764 C 0.13566 0.05146 0.34616 0.0
C765 C 0.13359 0.03491 0.25115 0.0
C766 C 0.14666 0.01596 0.23509 0.0
C767 C 0.15671 0.01452 0.18379 0.0
C768 C 0.15301 0.03274 0.14742 0.0
C769 C 0.13909 0.05208 0.16213 0.0
C770 C 0.12929 0.05318 0.21482 0.0
H771 H 0.02519 0.66768 0.607 0.0
H772 H 0.08377 0.63432 0.52765 0.0
H773 H 0.06162 0.63347 0.44096 0.0
H774 H 0.98148 0.63602 0.54502 0.0
H775 H 0.96119 0.65966 0.53765 0.0
H776 H 0.98239 0.66014 0.59173 0.0
H777 H 0.9978 0.69984 0.55825 0.0
H778 H 0.97633 0.69974 0.50458 0.0
H779 H 1.00673 0.70309 0.48825 0.0
H780 H 0.03151 0.63154 0.36802 0.0
H781 H 0.99732 0.63316 0.30807 0.0
H782 H 0.95845 0.66942 0.43383 0.0
C783 C 0.03354 0.66066 0.57102 0.0
C784 C 0.05612 0.65104 0.57361 0.0
C785 C 0.06655 0.64195 0.52606 0.0
C786 C 0.05406 0.6413 0.47692 0.0
C787 C 0.03145 0.65017 0.47627 0.0
C788 C 0.02146 0.66014 0.52173 0.0
C789 C 0.99663 0.66772 0.51076 0.0
C790 C 0.97942 0.65512 0.54854 0.0
C791 C 0.99424 0.69417 0.51574 0.0
C792 C 0.99394 0.65984 0.45232 0.0
C793 C 0.01423 0.64971 0.43342 0.0
C794 C 0.01568 0.6398 0.38196 0.0
C795 C 0.99602 0.64066 0.34844 0.0
C796 C 0.97517 0.65151 0.36628 0.0
C797 C 0.97417 0.6612 0.41898 0.0
H798 H 0.39344 0.46353 0.69045 0.0
H799 H 0.35101 0.50572 0.58276 0.0
H800 H 0.34366 0.5329 0.65999 0.0
H801 H 0.35738 0.46757 0.80548 0.0
H802 H 0.38093 0.4681 0.85411 0.0
H803 H 0.38465 0.45363 0.78965 0.0
H804 H 0.42088 0.47877 0.76879 0.0
H805 H 0.41758 0.49304 0.83364 0.0
H806 H 0.41859 0.5099 0.77186 0.0
H807 H 0.34012 0.55446 0.75224 0.0
H808 H 0.3421 0.56945 0.8464 0.0
H809 H 0.38485 0.51106 0.89439 0.0
C810 C 0.38278 0.47864 0.68241 0.0
C811 C 0.37282 0.48246 0.63 0.0
C812 C 0.35909 0.50252 0.62196 0.0
C813 C 0.35468 0.51789 0.66591 0.0
C814 C 0.36409 0.51291 0.71753 0.0
C815 C 0.37806 0.4938 0.72555 0.0
C816 C 0.38561 0.49156 0.78483 0.0
C817 C 0.3766 0.46887 0.80998 0.0
C818 C 0.41224 0.49343 0.79008 0.0
C819 C 0.37362 0.5124 0.80981 0.0
C820 C 0.36139 0.52458 0.77024 0.0
C821 C 0.34952 0.54488 0.78318 0.0
C822 C 0.35062 0.55318 0.83705 0.0
C823 C 0.36313 0.54116 0.87825 0.0
C824 C 0.37455 0.52027 0.8644 0.0
H825 H 0.49645 0.88972 0.14587 0.0
H826 H 0.43778 0.85526 0.06964 0.0
H827 H 0.4603 0.85204 0.98356 0.0
H828 H 0.51417 0.92284 0.02462 0.0
H829 H 0.54466 0.92031 0.04111 0.0
H830 H 0.52331 0.9209 0.09481 0.0
H831 H 0.5394 0.88208 0.13194 0.0
H832 H 0.56062 0.88109 0.07808 0.0
H833 H 0.54081 0.85722 0.08752 0.0
H834 H 0.49098 0.84886 0.91046 0.0
H835 H 0.52519 0.85057 0.85026 0.0
H836 H 0.56297 0.88953 0.97332 0.0
C837 C 0.48817 0.88188 0.11072 0.0
C838 C 0.46544 0.87272 0.11392 0.0
C839 C 0.45512 0.86255 0.06743 0.0
C840 C 0.46783 0.86055 0.01873 0.0
C841 C 0.49051 0.86927 0.0174 0.0
C842 C 0.50037 0.88021 0.06184 0.0
C843 C 0.52502 0.88803 0.05025 0.0
C844 C 0.52689 0.9146 0.05282 0.0
C845 C 0.54248 0.8764 0.08927 0.0
C846 C 0.52784 0.87921 0.99262 0.0
C847 C 0.5078 0.8683 0.9746 0.0
C848 C 0.50662 0.85766 0.92382 0.0
C849 C 0.52626 0.85855 0.89016 0.0
C850 C 0.54677 0.87023 0.90714 0.0
C851 C 0.54751 0.88063 0.95914 0.0
H852 H 0.87524 0.02788 0.65566 0.0
H853 H 0.85023 0.09041 0.73486 0.0
H854 H 0.85262 0.07095 0.82408 0.0
H855 H 0.84339 0.98827 0.7395 0.0
H856 H 0.86605 0.96666 0.74139 0.0
H857 H 0.86364 0.98581 0.68371 0.0
H858 H 0.90643 0.99873 0.69756 0.0
H859 H 0.90897 0.97961 0.75534 0.0
H860 H 0.91545 0.01 0.7628 0.0
H861 H 0.85719 0.04486 0.90477 0.0
H862 H 0.86183 0.01307 0.97127 0.0
H863 H 0.88263 0.96674 0.84071 0.0
C864 C 0.87043 0.03751 0.69184 0.0
C865 C 0.86258 0.06073 0.68816 0.0
C866 C 0.85622 0.07262 0.73647 0.0
C867 C 0.8576 0.06174 0.78746 0.0
C868 C 0.86526 0.03886 0.7897 0.0
C869 C 0.87146 0.02679 0.74323 0.0
C870 C 0.8782 1.00202 0.75703 0.0
C871 C 0.86184 0.98467 0.72873 0.0
C872 C 0.90378 0.99732 0.74231 0.0
C873 C 0.87464 1.00205 0.81837 0.0
C874 C 0.8674 0.02357 0.83634 0.0
C875 C 0.86287 0.02793 0.89121 0.0
C876 C 0.86558 0.00978 0.9287 0.0
C877 C 0.87257 0.98746 0.9112 0.0
C878 C 0.87727 0.98363 0.85528 0.0
H879 H 0.9507 0.35783 0.97785 0.0
H880 H 0.99102 0.39455 0.85555 0.0
H881 H 0.02305 0.39922 0.92083 0.0
H882 H 0.97017 0.3933 0.09318 0.0
H883 H 0.97094 0.3691 0.13959 0.0
H884 H 0.95064 0.36919 0.08352 0.0
H885 H 0.96712 0.32973 0.05088 0.0
H886 H 0.98764 0.32966 0.10647 0.0
H887 H 0.99784 0.32699 0.0373 0.0
H888 H 0.05202 0.39768 0.99665 0.0
H889 H 0.07429 0.39362 0.08258 0.0
H890 H 0.01502 0.35952 0.15708 0.0
C891 C 0.96614 0.36709 0.96505 0.0
C892 C 0.96822 0.3758 0.91145 0.0
C893 C 0.98881 0.38779 0.89636 0.0
C894 C 1.00725 0.39047 0.93309 0.0
C895 C 1.00485 0.38129 0.98512 0.0
C896 C 0.98473 0.37017 1.00151 0.0
C897 C 0.98674 0.36207 0.06007 0.0
C898 C 0.96854 0.37414 0.09622 0.0
C899 C 0.98472 0.33554 0.06387 0.0
C900 C 0.01118 0.37015 0.07353 0.0
C901 C 0.02139 0.38104 0.02957 0.0
C902 C 0.04416 0.38939 0.03162 0.0
C903 C 0.05671 0.38689 0.08037 0.0
C904 C 0.04633 0.37637 0.12633 0.0
C905 C 0.02333 0.3678 0.12262 0.0
H906 H 0.66722 0.51977 0.35399 0.0
H907 H 0.62482 0.57489 0.28598 0.0
H908 H 0.61936 0.5517 0.20166 0.0
H909 H 0.69572 0.50323 0.22613 0.0
H910 H 0.69599 0.47292 0.24388 0.0
H911 H 0.69745 0.49459 0.29664 0.0
H912 H 0.66139 0.47624 0.34303 0.0
H913 H 0.65953 0.45478 0.28992 0.0
H914 H 0.63479 0.47296 0.30469 0.0
H915 H 0.61566 0.52092 0.12972 0.0
H916 H 0.61803 0.48728 0.0686 0.0
H917 H 0.66436 0.45274 0.18296 0.0
C918 C 0.65706 0.5271 0.32097 0.0
C919 C 0.64636 0.54902 0.32607 0.0
C920 C 0.63328 0.55818 0.28229 0.0
C921 C 0.62998 0.54508 0.23464 0.0
C922 C 0.64021 0.52315 0.23164 0.0
C923 C 0.65388 0.51445 0.2732 0.0
C924 C 0.66286 0.49041 0.26017 0.0
C925 C 0.68959 0.49029 0.25647 0.0
C926 C 0.65411 0.47255 0.30194 0.0
C927 C 0.65178 0.48669 0.20497 0.0
C928 C 0.63866 0.50571 0.18951 0.0
C929 C 0.62612 0.50607 0.14105 0.0
C930 C 0.6275 0.48674 0.1068 0.0
C931 C 0.64152 0.46734 0.12087 0.0
C932 C 0.65359 0.46729 0.17097 0.0
H933 H 0.55558 0.10106 0.42343 0.0
H934 H 0.52538 0.15293 0.31638 0.0
H935 H 0.49209 0.15722 0.37894 0.0
H936 H 0.50155 0.07448 0.467 0.0
H937 H 0.51121 0.07054 0.53634 0.0
H938 H 0.53206 0.07039 0.48153 0.0
H939 H 0.55529 0.10333 0.52869 0.0
H940 H 0.5347 0.10333 0.58389 0.0
H941 H 0.54052 0.12976 0.54722 0.0
H942 H 0.4618 0.15573 0.45312 0.0
H943 H 0.43978 0.15227 0.53977 0.0
H944 H 0.49099 0.10328 0.59975 0.0
C945 C 0.54193 0.11326 0.41313 0.0
C946 C 0.54302 0.12659 0.36508 0.0
C947 C 0.52495 0.14259 0.35322 0.0
C948 C 0.50586 0.14502 0.38821 0.0
C949 C 0.50519 0.13148 0.43508 0.0
C950 C 0.52292 0.11618 0.44803 0.0
C951 C 0.51878 0.10484 0.50269 0.0
C952 C 0.51571 0.0785 0.49649 0.0
C953 C 0.53849 0.11068 0.543 0.0
C954 C 0.49616 0.1164 0.51871 0.0
C955 C 0.48829 0.13134 0.47872 0.0
C956 C 0.46776 0.14407 0.48475 0.0
C957 C 0.45531 0.14192 0.53372 0.0
C958 C 0.46381 0.12755 0.57588 0.0
C959 C 0.48422 0.1144 0.56787 0.0
H960 H 0.62286 0.49433 0.85895 0.0
H961 H 0.66166 0.43773 0.78615 0.0
H962 H 0.66578 0.46063 0.70106 0.0
H963 H 0.59147 0.51075 0.73576 0.0
H964 H 0.59224 0.54119 0.75217 0.0
H965 H 0.59197 0.51996 0.80599 0.0
H966 H 0.62967 0.53791 0.84599 0.0
H967 H 0.63025 0.55899 0.79192 0.0
H968 H 0.6551 0.54051 0.80341 0.0
H969 H 0.66792 0.49071 0.62789 0.0
H970 H 0.66446 0.52386 0.56597 0.0
H971 H 0.62252 0.56045 0.68573 0.0
C972 C 0.63213 0.48671 0.82494 0.0
C973 C 0.64214 0.46442 0.82875 0.0
C974 C 0.65386 0.45479 0.78355 0.0
C975 C 0.65635 0.4677 0.73542 0.0
C976 C 0.64666 0.48989 0.73346 0.0
C977 C 0.63444 0.49914 0.77667 0.0
C978 C 0.62548 0.52324 0.7641 0.0
C979 C 0.5987 0.52381 0.76451 0.0
C980 C 0.63575 0.54122 0.80371 0.0
C981 C 0.63495 0.52635 0.70718 0.0
C982 C 0.64722 0.50695 0.69054 0.0
C983 C 0.65817 0.50589 0.64023 0.0
C984 C 0.65619 0.52496 0.60551 0.0
C985 C 0.64315 0.54485 0.62097 0.0
C986 C 0.63253 0.54554 0.67271 0.0
H987 H 0.52405 0.1577 0.1088 0.0
H988 H 0.58202 0.12044 0.03712 0.0
H989 H 0.55988 0.11688 0.95051 0.0
H990 H 0.47889 0.12542 0.04963 0.0
H991 H 0.45986 0.14981 0.03835 0.0
H992 H 0.48068 0.15051 0.09325 0.0
H993 H 0.49815 0.18863 0.05541 0.0
H994 H 0.47717 0.18824 1.00074 0.0
H995 H 0.50783 0.18976 0.98558 0.0
H996 H 0.52981 0.11434 0.87559 0.0
H997 H 0.49628 0.11694 0.81319 0.0
H998 H 0.45864 0.15781 0.93285 0.0
C999 C 0.53221 0.14903 0.07462 0.0
C1000 C 0.55468 0.13925 0.07937 0.0
C1001 C 0.56487 0.12815 0.03393 0.0
C1002 C 0.55238 0.12595 0.98486 0.0
C1003 C 0.52997 0.13532 0.98202 0.0
C1004 C 0.52018 0.14702 0.02539 0.0
C1005 C 0.49584 0.15549 0.01211 0.0
C1006 C 0.47776 0.14465 0.05062 0.0
C1007 C 0.49469 0.18211 0.01353 0.0
C1008 C 0.49321 0.14636 0.95464 0.0
C1009 C 0.51302 0.13462 0.93824 0.0
C1010 C 0.51435 0.12374 0.88774 0.0
C1011 C 0.4951 0.1252 0.85276 0.0
C1012 C 0.47482 0.13766 0.8681 0.0
C1013 C 0.47393 0.14833 0.91983 0.0
H1014 H 0.86411 0.01839 0.40362 0.0
H1015 H 0.87459 0.08654 0.33334 0.0
H1016 H 0.87369 0.06933 0.24079 0.0
H1017 H 0.89993 0.98746 0.31081 0.0
H1018 H 0.8813 0.96235 0.30903 0.0
H1019 H 0.88209 0.98039 0.36887 0.0
H1020 H 0.83735 0.98604 0.36282 0.0
H1021 H 0.83643 0.96803 0.30286 0.0
H1022 H 0.82465 0.99698 0.30068 0.0
H1023 H 0.87273 0.0436 0.15481 0.0
H1024 H 0.87193 0.01207 0.0857 0.0
H1025 H 0.86168 0.96187 0.2151 0.0
C1026 C 0.86612 0.02976 0.36884 0.0
C1027 C 0.86942 0.05379 0.3757 0.0
C1028 C 0.87202 0.06804 0.32902 0.0
C1029 C 0.87151 0.05843 0.27629 0.0
C1030 C 0.86831 0.03457 0.27099 0.0
C1031 C 0.86561 0.0205 0.31619 0.0
C1032 C 0.86282 0.99539 0.30015 0.0
C1033 C 0.88272 0.98053 0.32359 0.0
C1034 C 0.83889 0.98607 0.31766 0.0
C1035 C 0.86452 0.99742 0.23887 0.0
C1036 C 0.86764 0.02008 0.22242 0.0
C1037 C 0.87017 0.02581 0.16735 0.0
C1038 C 0.86967 0.00784 0.12837 0.0
C1039 C 0.86669 0.98452 0.14489 0.0
C1040 C 0.86391 0.97948 0.20086 0.0
H1041 H 0.0332 0.38444 0.40506 0.0
H1042 H 0.07467 0.32471 0.45215 0.0
H1043 H 0.04715 0.31655 0.52681 0.0
H1044 H 0.01952 0.40263 0.54088 0.0
H1045 H 0.99051 0.41212 0.52376 0.0
H1046 H 0.01305 0.41261 0.47288 0.0
H1047 H 0.9873 0.38732 0.40966 0.0
H1048 H 0.96484 0.3864 0.46083 0.0
H1049 H 0.97665 0.35982 0.43388 0.0
H1050 H 0.01622 0.31544 0.59747 0.0
H1051 H 0.98588 0.3238 0.66598 0.0
H1052 H 0.96388 0.38386 0.57338 0.0
C1053 C 0.03651 0.36964 0.43109 0.0
C1054 C 0.05609 0.35516 0.42268 0.0
C1055 C 0.05988 0.33609 0.4579 0.0
C1056 C 0.04422 0.33119 0.50011 0.0
C1057 C 0.0249 0.34554 0.50661 0.0
C1058 C 0.02112 0.36455 0.47359 0.0
C1059 C 0.99965 0.37791 0.49123 0.0
C1060 C 1.00607 0.40278 0.50821 0.0
C1061 C 0.98101 0.37785 0.4462 0.0
C1062 C 0.99207 0.36354 0.53977 0.0
C1063 C 1.00679 0.34481 0.54743 0.0
C1064 C 1.00439 0.32983 0.59151 0.0
C1065 C 0.98707 0.3346 0.62994 0.0
C1066 C 0.9723 0.35403 0.62378 0.0
C1067 C 0.97443 0.36839 0.57758 0.0
H1068 H 0.36025 0.5511 0.19923 0.0
H1069 H 0.37186 0.49762 0.07783 0.0
H1070 H 0.37292 0.4682 0.1521 0.0
H1071 H 0.39882 0.52982 0.29829 0.0
H1072 H 0.381 0.53779 0.35577 0.0
H1073 H 0.37903 0.554 0.29325 0.0
H1074 H 0.33466 0.54638 0.28886 0.0
H1075 H 0.33641 0.53031 0.35172 0.0
H1076 H 0.32403 0.51703 0.29182 0.0
H1077 H 0.37514 0.44542 0.24084 0.0
H1078 H 0.37742 0.43029 0.33391 0.0
H1079 H 0.36515 0.4992 0.39911 0.0
C1080 C 0.36277 0.53316 0.18773 0.0
C1081 C 0.36597 0.5267 0.13221 0.0
C1082 C 0.36915 0.503 0.11964 0.0
C1083 C 0.36988 0.48625 0.16174 0.0
C1084 C 0.36728 0.49348 0.21606 0.0
C1085 C 0.36359 0.5164 0.22896 0.0
C1086 C 0.36209 0.51999 0.29043 0.0
C1087 C 0.38139 0.53637 0.3106 0.0
C1088 C 0.33786 0.52896 0.30666 0.0
C1089 C 0.36596 0.49547 0.31083 0.0
C1090 C 0.36873 0.48048 0.26706 0.0
C1091 C 0.37286 0.45703 0.27508 0.0
C1092 C 0.37415 0.44864 0.32863 0.0
C1093 C 0.37147 0.46348 0.37461 0.0
C1094 C 0.36726 0.48733 0.36528 0.0
H1095 H 0.45507 0.88816 0.4782 0.0
H1096 H 0.49674 0.86265 0.34339 0.0
H1097 H 0.53021 0.85749 0.40504 0.0
H1098 H 0.50115 0.91866 0.55038 0.0
H1099 H 0.49057 0.91003 0.61646 0.0
H1100 H 0.47056 0.91315 0.56039 0.0
H1101 H 0.45658 0.87085 0.57666 0.0
H1102 H 0.47698 0.86785 0.632 0.0
H1103 H 0.47759 0.84762 0.57603 0.0
H1104 H 0.55964 0.8559 0.48085 0.0
H1105 H 0.58144 0.85418 0.56824 0.0
H1106 H 0.51988 0.878 0.65388 0.0
C1107 C 0.47128 0.88159 0.46178 0.0
C1108 C 0.47333 0.87587 0.40612 0.0
C1109 C 0.49473 0.86703 0.38608 0.0
C1110 C 0.51392 0.86417 0.42064 0.0
C1111 C 0.51138 0.86997 0.47531 0.0
C1112 C 0.49054 0.8782 0.49599 0.0
C1113 C 0.49211 0.88182 0.55696 0.0
C1114 C 0.48839 0.90745 0.57187 0.0
C1115 C 0.47479 0.86609 0.58717 0.0
C1116 C 0.51703 0.87438 0.56707 0.0
C1117 C 0.52799 0.86794 0.5194 0.0
C1118 C 0.55123 0.86078 0.51859 0.0
C1119 C 0.56348 0.85991 0.56816 0.0
C1120 C 0.55224 0.86573 0.61747 0.0
C1121 C 0.52881 0.87318 0.61669 0.0
H1122 H 0.1309 0.98456 0.65465 0.0
H1123 H 0.19451 0.94873 0.70087 0.0
H1124 H 0.19952 0.97562 0.77798 0.0
H1125 H 0.15 0.04233 0.68846 0.0
H1126 H 0.12227 0.05138 0.71542 0.0
H1127 H 0.1235 0.02958 0.66286 0.0
H1128 H 0.10032 1.00118 0.72385 0.0
H1129 H 0.09871 0.02298 0.77625 0.0
H1130 H 0.11073 0.99487 0.79164 0.0
H1131 H 0.19798 1.00573 0.84906 0.0
H1132 H 0.18781 0.03525 0.91754 0.0
H1133 H 0.12503 0.05217 0.82749 0.0
C1134 C 0.14584 0.98231 0.68112 0.0
C1135 C 0.16237 0.96453 0.67163 0.0
C1136 C 0.1816 0.96213 0.70735 0.0
C1137 C 0.18469 0.97743 0.75104 0.0
C1138 C 0.16837 0.995 0.75856 0.0
C1139 C 0.14915 0.99739 0.72521 0.0
C1140 C 0.1338 0.01731 0.7439 0.0
C1141 C 0.13231 0.03627 0.70004 0.0
C1142 C 0.10945 0.00856 0.75987 0.0
C1143 C 0.14736 0.02561 0.7933 0.0
C1144 C 0.16737 0.01256 0.80036 0.0
C1145 C 0.18245 0.01613 0.84391 0.0
C1146 C 0.17656 0.03294 0.88241 0.0
C1147 C 0.15583 0.04601 0.87717 0.0
C1148 C 0.14125 0.04273 0.83148 0.0
H1149 H 1.00239 0.65769 0.11108 0.0
H1150 H 0.9405 0.63313 0.02748 0.0
H1151 H 0.96308 0.63033 0.9415 0.0
H1152 H 0.02516 0.69218 0.99862 0.0
H1153 H 0.05496 0.68514 0.01479 0.0
H1154 H 0.03347 0.68627 0.06814 0.0
H1155 H 0.04428 0.64432 0.09628 0.0
H1156 H 0.06555 0.6429 0.04256 0.0
H1157 H 0.04282 0.62145 0.04629 0.0
H1158 H 0.9931 0.62733 0.86807 0.0
H1159 H 0.02707 0.62816 0.80792 0.0
H1160 H 0.06944 0.65578 0.93982 0.0
C1161 C 0.9935 0.65192 0.07453 0.0
C1162 C 0.9698 0.64546 0.07554 0.0
C1163 C 0.95865 0.63821 0.02712 0.0
C1164 C 0.97135 0.63648 0.97843 0.0
C1165 C 0.99493 0.64238 0.9793 0.0
C1166 C 1.00578 0.65031 0.02588 0.0
C1167 C 0.0313 0.65541 0.01631 0.0
C1168 C 0.03652 0.68129 0.02496 0.0
C1169 C 0.0469 0.6401 0.05251 0.0
C1170 C 0.03331 0.64872 0.95699 0.0
C1171 C 0.01214 0.64116 0.93662 0.0
C1172 C 0.00968 0.63343 0.88338 0.0
C1173 C 0.02924 0.63386 0.84967 0.0
C1174 C 0.05105 0.64209 0.86911 0.0
C1175 C 0.05307 0.64945 0.92372 0.0
H1176 H 0.09153 0.26082 0.24723 0.0
H1177 H 0.10651 0.31008 0.11857 0.0
H1178 H 0.12014 0.27803 0.05968 0.0
H1179 H 0.14072 0.22294 0.22267 0.0
H1180 H 0.12455 0.19699 0.2379 0.0
H1181 H 0.11678 0.22397 0.27006 0.0
H1182 H 0.07454 0.21972 0.23405 0.0
H1183 H 0.0822 0.19277 0.20165 0.0
H1184 H 0.06961 0.21591 0.16199 0.0
H1185 H 0.13033 0.23983 0.01317 0.0
H1186 H 0.1382 0.19931 0.98532 0.0
H1187 H 0.11644 0.1755 0.14502 0.0
C1188 C 0.09769 0.26489 0.20668 0.0
C1189 C 0.09793 0.288 0.18758 0.0
C1190 C 0.10641 0.29259 0.13443 0.0
C1191 C 0.11405 0.27446 0.10054 0.0
C1192 C 0.11326 0.25183 0.12051 0.0
C1193 C 0.10546 0.24706 0.17256 0.0
C1194 C 0.10621 0.22132 0.1844 0.0
C1195 C 0.12307 0.216 0.23155 0.0
C1196 C 0.08168 0.21188 0.1962 0.0
C1197 C 0.11546 0.21227 0.13072 0.0
C1198 C 0.11937 0.23008 0.09424 0.0
C1199 C 0.12743 0.22578 0.04156 0.0
C1200 C 0.13172 0.20271 0.02598 0.0
C1201 C 0.12806 0.18423 0.06304 0.0
C1202 C 0.11977 0.18923 0.116 0.0
H1203 H 0.84457 0.60265 0.3195 0.0
H1204 H 0.8287 0.67411 0.27881 0.0
H1205 H 0.78838 0.66857 0.31211 0.0
H1206 H 0.78896 0.57862 0.28197 0.0
H1207 H 0.78894 0.55803 0.33721 0.0
H1208 H 0.8161 0.56767 0.30856 0.0
H1209 H 0.83001 0.58068 0.40442 0.0
H1210 H 0.80288 0.57111 0.43334 0.0
H1211 H 0.81239 0.60057 0.44326 0.0
H1212 H 0.74986 0.65508 0.35354 0.0
H1213 H 0.71694 0.63491 0.39792 0.0
H1214 H 0.75888 0.5725 0.40957 0.0
C1215 C 0.8327 0.61723 0.31786 0.0
C1216 C 0.83985 0.63888 0.2969 0.0
C1217 C 0.82357 0.65733 0.29443 0.0
C1218 C 0.80067 0.65436 0.31344 0.0
C1219 C 0.79432 0.63281 0.33444 0.0
C1220 C 0.8099 0.61456 0.33646 0.0
C1221 C 0.799 0.59319 0.36123 0.0
C1222 C 0.7982 0.5732 0.31976 0.0
C1223 C 0.81183 0.58598 0.41367 0.0
C1224 C 0.77488 0.60227 0.37349 0.0
C1225 C 0.7724 0.62512 0.35769 0.0
C1226 C 0.75161 0.63714 0.36577 0.0
C1227 C 0.73296 0.62551 0.3908 0.0
C1228 C 0.73524 0.60209 0.40756 0.0
C1229 C 0.75653 0.59045 0.39822 0.0
H1230 H 0.42599 0.33183 0.60282 0.0
H1231 H 0.36686 0.31275 0.50158 0.0
H1232 H 0.37347 0.27164 0.52442 0.0
H1233 H 0.46196 0.28172 0.57682 0.0
H1234 H 0.47215 0.27988 0.64623 0.0
H1235 H 0.46411 0.30756 0.61789 0.0
H1236 H 0.43497 0.31395 0.69704 0.0
H1237 H 0.4429 0.28631 0.7256 0.0
H1238 H 0.41285 0.29251 0.70999 0.0
H1239 H 0.38572 0.23266 0.56116 0.0
H1240 H 0.40193 0.1991 0.60927 0.0
H1241 H 0.45085 0.24423 0.69323 0.0
C1242 C 0.41426 0.31914 0.58546 0.0
C1243 C 0.39583 0.32577 0.55023 0.0
C1244 C 0.38134 0.30829 0.52783 0.0
C1245 C 0.38485 0.28484 0.54092 0.0
C1246 C 0.40284 0.2791 0.57673 0.0
C1247 C 0.41726 0.29578 0.59877 0.0
C1248 C 0.43455 0.28525 0.63843 0.0
C1249 C 0.45968 0.28882 0.61863 0.0
C1250 C 0.4311 0.29509 0.69618 0.0
C1251 C 0.42755 0.25999 0.63548 0.0
C1252 C 0.40936 0.2568 0.59934 0.0
C1253 C 0.39989 0.235 0.58978 0.0
C1254 C 0.40918 0.21597 0.61796 0.0
C1255 C 0.42768 0.21877 0.65597 0.0
C1256 C 0.43691 0.24123 0.66441 0.0
H1257 H 0.68231 0.90917 0.83035 0.0
H1258 H 0.68931 0.83491 0.85061 0.0
H1259 H 0.72948 0.84038 0.88577 0.0
H1260 H 0.74208 0.92156 0.79092 0.0
H1261 H 0.7432 0.94821 0.8292 0.0
H1262 H 0.71589 0.93817 0.80173 0.0
H1263 H 0.69754 0.93967 0.89814 0.0
H1264 H 0.72472 0.94979 0.92582 0.0
H1265 H 0.71126 0.92414 0.9533 0.0
H1266 H 0.76909 0.85446 0.9196 0.0
H1267 H 0.80266 0.87605 0.95833 0.0
H1268 H 0.76834 0.9409 0.92024 0.0
C1269 C 0.69245 0.89406 0.84156 0.0
C1270 C 0.68293 0.8716 0.83729 0.0
C1271 C 0.69642 0.85225 0.85352 0.0
C1272 C 0.71924 0.8552 0.8732 0.0
C1273 C 0.72816 0.87764 0.87695 0.0
C1274 C 0.71504 0.89674 0.86213 0.0
C1275 C 0.7279 0.91909 0.8737 0.0
C1276 C 0.73254 0.93255 0.82073 0.0
C1277 C 0.71456 0.93404 0.91521 0.0
C1278 C 0.75025 0.90965 0.89776 0.0
C1279 C 0.75032 0.88571 0.89847 0.0
C1280 C 0.76919 0.87321 0.91919 0.0
C1281 C 0.78822 0.88555 0.94078 0.0
C1282 C 0.78798 0.91006 0.94232 0.0
C1283 C 0.76887 0.92215 0.91979 0.0
H1284 H 0.94813 0.26082 0.73369 0.0
H1285 H 0.88217 0.29751 0.7298 0.0
H1286 H 0.86352 0.26341 0.68751 0.0
H1287 H 0.94189 0.23242 0.60607 0.0
H1288 H 0.95532 0.20575 0.62793 0.0
H1289 H 0.96337 0.23271 0.65976 0.0
H1290 H 0.95284 0.21588 0.75448 0.0
H1291 H 0.94486 0.18882 0.72297 0.0
H1292 H 0.92424 0.20392 0.76544 0.0
H1293 H 0.85231 0.22586 0.64309 0.0
H1294 H 0.84904 0.187 0.6017 0.0
H1295 H 0.92229 0.17464 0.63466 0.0
C1296 C 0.92969 0.26157 0.72485 0.0
C1297 C 0.91662 0.2819 0.73508 0.0
C1298 C 0.89259 0.28225 0.72181 0.0
C1299 C 0.88182 0.26293 0.69801 0.0
C1300 C 0.89528 0.24332 0.68781 0.0
C1301 C 0.91866 0.24244 0.701 0.0
C1302 C 0.92927 0.2194 0.68466 0.0
C1303 C 0.9486 0.22278 0.64207 0.0
C1304 C 0.93833 0.20623 0.73489 0.0
C1305 C 0.90821 0.20751 0.66005 0.0
C1306 C 0.8888 0.22163 0.66226 0.0
C1307 C 0.86738 0.21463 0.64123 0.0
C1308 C 0.86575 0.19259 0.61745 0.0
C1309 C 0.8854 0.17775 0.61485 0.0
C1310 C 0.90688 0.18542 0.63659 0.0
H1311 H 0.84035 0.42534 0.84552 0.0
H1312 H 0.82838 0.35341 0.80202 0.0
H1313 H 0.78816 0.35632 0.83669 0.0
H1314 H 0.80743 0.42497 0.97017 0.0
H1315 H 0.79593 0.45377 0.96089 0.0
H1316 H 0.82377 0.44617 0.93222 0.0
H1317 H 0.80934 0.45868 0.8365 0.0
H1318 H 0.7815 0.4664 0.86492 0.0
H1319 H 0.78307 0.44611 0.80914 0.0
H1320 H 0.7496 0.36665 0.87859 0.0
H1321 H 0.71488 0.38408 0.9206 0.0
H1322 H 0.75139 0.44974 0.93455 0.0
C1323 C 0.8293 0.41017 0.84348 0.0
C1324 C 0.83756 0.38913 0.82093 0.0
C1325 C 0.8224 0.36979 0.81845 0.0
C1326 C 0.79955 0.37122 0.83838 0.0
C1327 C 0.79202 0.39216 0.86053 0.0
C1328 C 0.80636 0.41134 0.8629 0.0
C1329 C 0.79383 0.43185 0.88814 0.0
C1330 C 0.80597 0.43964 0.941 0.0
C1331 C 0.79181 0.45194 0.84722 0.0
C1332 C 0.77024 0.42116 0.89983 0.0
C1333 C 0.76962 0.39824 0.88376 0.0
C1334 C 0.74982 0.38466 0.89088 0.0
C1335 C 0.73007 0.39482 0.91458 0.0
C1336 C 0.73006 0.41845 0.93068 0.0
C1337 C 0.75062 0.43165 0.92327 0.0
H1338 H 0.60641 0.25074 0.22368 0.0
H1339 H 0.58374 0.21136 0.08242 0.0
H1340 H 0.59209 0.24486 0.02342 0.0
H1341 H 0.58182 0.30512 0.18171 0.0
H1342 H 0.60554 0.32221 0.20815 0.0
H1343 H 0.59842 0.29487 0.2393 0.0
H1344 H 0.64082 0.28078 0.22482 0.0
H1345 H 0.64806 0.30807 0.19355 0.0
H1346 H 0.65319 0.28137 0.15733 0.0
H1347 H 0.60201 0.2828 0.97986 0.0
H1348 H 0.6125 0.32279 0.95475 0.0
H1349 H 0.62895 0.33769 0.12406 0.0
C1350 C 0.60309 0.24918 0.18041 0.0
C1351 C 0.59454 0.22829 0.15776 0.0
C1352 C 0.59066 0.22696 0.10074 0.0
C1353 C 0.59523 0.24597 0.06686 0.0
C1354 C 0.60368 0.26623 0.09051 0.0
C1355 C 0.60757 0.26799 0.14594 0.0
C1356 C 0.6165 0.29186 0.161 0.0
C1357 C 0.59956 0.30424 0.19983 0.0
C1358 C 0.64111 0.29043 0.18562 0.0
C1359 C 0.61684 0.30328 0.10539 0.0
C1360 C 0.60945 0.28815 0.06531 0.0
C1361 C 0.60799 0.29476 0.01083 0.0
C1362 C 0.61417 0.3175 0.99692 0.0
C1363 C 0.62175 0.3334 0.0373 0.0
C1364 C 0.62312 0.32604 0.09223 0.0
H1365 H 0.67332 0.10178 0.36487 0.0
H1366 H 0.69838 0.15774 0.26273 0.0
H1367 H 0.73795 0.15276 0.30131 0.0
H1368 H 0.7075 0.11463 0.48302 0.0
H1369 H 0.71297 0.0847 0.4998 0.0
H1370 H 0.68677 0.09262 0.46391 0.0
H1371 H 0.69707 0.06377 0.38661 0.0
H1372 H 0.72327 0.0557 0.42236 0.0
H1373 H 0.72489 0.06597 0.35309 0.0
H1374 H 0.77427 0.14272 0.35439 0.0
H1375 H 0.8052 0.12709 0.41289 0.0
H1376 H 0.75672 0.07608 0.47697 0.0
C1377 C 0.68714 0.11302 0.35077 0.0
C1378 C 0.68281 0.13024 0.31102 0.0
C1379 C 0.70139 0.14438 0.29294 0.0
C1380 C 0.72386 0.14174 0.31479 0.0
C1381 C 0.72749 0.12468 0.3542 0.0
C1382 C 0.7097 0.11041 0.37161 0.0
C1383 C 0.71829 0.09316 0.41368 0.0
C1384 C 0.70563 0.09649 0.46834 0.0
C1385 C 0.71573 0.06817 0.39266 0.0
C1386 C 0.74365 0.10015 0.4178 0.0
C1387 C 0.74858 0.1184 0.38333 0.0
C1388 C 0.77068 0.12821 0.38101 0.0
C1389 C 0.78825 0.11902 0.41443 0.0
C1390 C 0.78383 0.09995 0.44958 0.0
C1391 C 0.76104 0.09057 0.45102 0.0
H1392 H 0.57548 0.7589 0.66769 0.0
H1393 H 0.64209 0.79031 0.70512 0.0
H1394 H 0.66225 0.75756 0.65949 0.0
H1395 H 0.59171 0.70057 0.68982 0.0
H1396 H 0.57462 0.68923 0.63418 0.0
H1397 H 0.56576 0.71551 0.66785 0.0
H1398 H 0.56576 0.73715 0.57527 0.0
H1399 H 0.57458 0.71091 0.54125 0.0
H1400 H 0.59165 0.73691 0.53382 0.0
H1401 H 0.67482 0.71952 0.61585 0.0
H1402 H 0.67878 0.68106 0.57171 0.0
H1403 H 0.60366 0.67593 0.55973 0.0
C1404 C 0.59431 0.75888 0.66622 0.0
C1405 C 0.60731 0.77697 0.69023 0.0
C1406 C 0.63189 0.7766 0.68672 0.0
C1407 C 0.64343 0.75807 0.66111 0.0
C1408 C 0.63005 0.74029 0.63851 0.0
C1409 C 0.60601 0.74076 0.64021 0.0
C1410 C 0.59557 0.71964 0.61298 0.0
C1411 C 0.58107 0.7054 0.65365 0.0
C1412 C 0.58103 0.72657 0.56285 0.0
C1413 C 0.61748 0.70691 0.59653 0.0
C1414 C 0.63723 0.71902 0.61174 0.0
C1415 C 0.65948 0.71005 0.60317 0.0
C1416 C 0.66157 0.6882 0.57834 0.0
C1417 C 0.64153 0.67571 0.56195 0.0
C1418 C 0.61926 0.68532 0.57099 0.0
H1419 H 0.34331 0.12842 0.88924 0.0
H1420 H 0.32401 0.1136 0.72137 0.0
H1421 H 0.2836 0.10708 0.74997 0.0
H1422 H 0.30824 0.0836 0.94712 0.0
H1423 H 0.30056 0.10005 0.00694 0.0
H1424 H 0.32775 0.10549 0.97287 0.0
H1425 H 0.31669 0.14882 0.96276 0.0
H1426 H 0.2894 0.14349 0.99664 0.0
H1427 H 0.28967 0.15656 0.92992 0.0
H1428 H 0.24534 0.10101 0.7965 0.0
H1429 H 0.21254 0.09353 0.85895 0.0
H1430 H 0.25671 0.11033 0.99703 0.0
C1431 C 0.33066 0.12378 0.85837 0.0
C1432 C 0.33701 0.12199 0.80275 0.0
C1433 C 0.31968 0.11587 0.76395 0.0
C1434 C 0.2966 0.11192 0.77983 0.0
C1435 C 0.29101 0.11389 0.83479 0.0
C1436 C 0.30754 0.11949 0.87357 0.0
C1437 C 0.29713 0.11928 0.93034 0.0
C1438 C 0.30913 0.10101 0.96643 0.0
C1439 C 0.29829 0.14348 0.95644 0.0
C1440 C 0.27224 0.11249 0.91733 0.0
C1441 C 0.26903 0.10972 0.8619 0.0
C1442 C 0.2476 0.10324 0.83999 0.0
C1443 C 0.22902 0.09918 0.87576 0.0
C1444 C 0.23202 0.10144 0.93286 0.0
C1445 C 0.25392 0.10837 0.95363 0.0
H1446 H 0.87267 0.81798 0.05174 0.0
H1447 H 0.9387 0.84606 0.99656 0.0
H1448 H 0.95852 0.81054 0.02681 0.0
H1449 H 0.8939 0.79435 0.17244 0.0
H1450 H 0.87596 0.76874 0.1715 0.0
H1451 H 0.8661 0.79474 0.13817 0.0
H1452 H 0.86114 0.77222 0.04754 0.0
H1453 H 0.87082 0.74606 0.08073 0.0
H1454 H 0.88539 0.75615 0.0202 0.0
H1455 H 0.97211 0.77465 0.07346 0.0
H1456 H 0.97823 0.73963 0.12935 0.0
H1457 H 0.90386 0.73425 0.15587 0.0
C1458 C 0.89124 0.81654 0.04515 0.0
C1459 C 0.904 0.83493 0.02118 0.0
C1460 C 0.92832 0.83218 0.01347 0.0
C1461 C 0.93982 0.81206 0.03098 0.0
C1462 C 0.92684 0.79468 0.05596 0.0
C1463 C 0.90304 0.79656 0.06255 0.0
C1464 C 0.89348 0.77601 0.09407 0.0
C1465 C 0.88167 0.78394 0.14719 0.0
C1466 C 0.87671 0.76176 0.0585 0.0
C1467 C 0.91573 0.76269 0.10562 0.0
C1468 C 0.93473 0.77374 0.0829 0.0
C1469 C 0.95734 0.76568 0.09081 0.0
C1470 C 0.96067 0.74589 0.12297 0.0
C1471 C 0.94152 0.73428 0.1469 0.0
C1472 C 0.91873 0.74264 0.13738 0.0
H1473 H 0.26442 0.40204 0.51988 0.0
H1474 H 0.30287 0.43034 0.38289 0.0
H1475 H 0.26862 0.42488 0.324 0.0
H1476 H 0.23242 0.35898 0.44437 0.0
H1477 H 0.20597 0.36279 0.48278 0.0
H1478 H 0.23373 0.36843 0.51437 0.0
H1479 H 0.22015 0.40993 0.53921 0.0
H1480 H 0.19235 0.40442 0.5077 0.0
H1481 H 0.20956 0.42885 0.48619 0.0
H1482 H 0.23003 0.41682 0.27961 0.0
H1483 H 0.18974 0.40712 0.2534 0.0
H1484 H 0.17584 0.38441 0.4189 0.0
C1485 C 0.26568 0.40722 0.47763 0.0
C1486 C 0.28663 0.41648 0.45629 0.0
C1487 C 0.28736 0.42281 0.40039 0.0
C1488 C 0.26787 0.41992 0.3665 0.0
C1489 C 0.24761 0.41073 0.38886 0.0
C1490 C 0.24633 0.40452 0.44314 0.0
C1491 C 0.22232 0.39524 0.45698 0.0
C1492 C 0.2237 0.36985 0.47572 0.0
C1493 C 0.2104 0.41053 0.50007 0.0
C1494 C 0.21031 0.3973 0.40203 0.0
C1495 C 0.22526 0.40622 0.3633 0.0
C1496 C 0.2182 0.40973 0.30956 0.0
C1497 C 0.19528 0.404 0.29497 0.0
C1498 C 0.17954 0.39483 0.33388 0.0
C1499 C 0.18731 0.39152 0.38819 0.0
H1500 H 0.41914 0.75796 0.24022 0.0
H1501 H 0.41574 0.80606 0.10465 0.0
H1502 H 0.40446 0.77388 0.04326 0.0
H1503 H 0.4443 0.71097 0.16697 0.0
H1504 H 0.4281 0.68908 0.20301 0.0
H1505 H 0.43494 0.7161 0.23605 0.0
H1506 H 0.39113 0.72296 0.25579 0.0
H1507 H 0.38417 0.6959 0.22305 0.0
H1508 H 0.37054 0.72233 0.20025 0.0
H1509 H 0.39493 0.7353 0.99598 0.0
H1510 H 0.38591 0.69481 0.96921 0.0
H1511 H 0.39672 0.67287 0.13647 0.0
C1512 C 0.41606 0.76178 0.19763 0.0
C1513 C 0.41836 0.78456 0.17733 0.0
C1514 C 0.41382 0.78882 0.12136 0.0
C1515 C 0.40758 0.7706 0.08609 0.0
C1516 C 0.40586 0.74826 0.10745 0.0
C1517 C 0.40983 0.7439 0.16209 0.0
C1518 C 0.40701 0.71847 0.17527 0.0
C1519 C 0.42995 0.70805 0.19657 0.0
C1520 C 0.38702 0.7147 0.21599 0.0
C1521 C 0.40091 0.70909 0.11951 0.0
C1522 C 0.40035 0.72643 0.08071 0.0
C1523 C 0.39525 0.72163 0.02616 0.0
C1524 C 0.3903 0.69858 0.01123 0.0
C1525 C 0.39038 0.68069 0.05078 0.0
C1526 C 0.39606 0.68617 0.10538 0.0
H1527 H 0.25419 0.95186 0.43365 0.0
H1528 H 0.22404 0.88759 0.49154 0.0
H1529 H 0.2579 0.86596 0.45568 0.0
H1530 H 0.27743 0.92861 0.30879 0.0
H1531 H 0.3034 0.9461 0.31068 0.0
H1532 H 0.27699 0.95655 0.34167 0.0
H1533 H 0.29868 0.96207 0.43347 0.0
H1534 H 0.32518 0.95172 0.40271 0.0
H1535 H 0.31406 0.93792 0.46321 0.0
H1536 H 0.29566 0.85148 0.41561 0.0
H1537 H 0.33377 0.84508 0.37112 0.0
H1538 H 0.33871 0.91862 0.33662 0.0
C1539 C 0.25483 0.93327 0.43917 0.0
C1540 C 0.23651 0.92139 0.46558 0.0
C1541 C 0.23779 0.89699 0.47112 0.0
C1542 C 0.25699 0.88458 0.45107 0.0
C1543 C 0.27471 0.8968 0.42508 0.0
C1544 C 0.27374 0.92059 0.4188 0.0
C1545 C 0.29488 0.92949 0.38838 0.0
C1546 C 0.28774 0.94086 0.33416 0.0
C1547 C 0.30903 0.94629 0.42408 0.0
C1548 C 0.30797 0.90703 0.37889 0.0
C1549 C 0.2961 0.88839 0.40063 0.0
C1550 C 0.30504 0.86594 0.39821 0.0
C1551 C 0.32671 0.86247 0.37305 0.0
C1552 C 0.3391 0.88131 0.35018 0.0
C1553 C 0.32946 0.90384 0.35302 0.0
H1554 H 0.13303 0.84195 0.65411 0.0
H1555 H 0.12202 0.82998 0.48085 0.0
H1556 H 0.1129 0.78925 0.49979 0.0
H1557 H 0.15708 0.78628 0.68849 0.0
H1558 H 0.14176 0.78423 0.75238 0.0
H1559 H 0.14938 0.81222 0.72527 0.0
H1560 H 0.10614 0.82492 0.72985 0.0
H1561 H 0.0984 0.79702 0.75715 0.0
H1562 H 0.08426 0.8076 0.69639 0.0
H1563 H 0.10476 0.74974 0.53688 0.0
H1564 H 0.095 0.71495 0.59094 0.0
H1565 H 0.10749 0.75319 0.7402 0.0
C1566 C 0.12858 0.83092 0.61997 0.0
C1567 C 0.12875 0.8394 0.56575 0.0
C1568 C 0.1229 0.82402 0.52261 0.0
C1569 C 0.11744 0.80079 0.53294 0.0
C1570 C 0.11747 0.79313 0.58669 0.0
C1571 C 0.1226 0.80778 0.62958 0.0
C1572 C 0.12006 0.79546 0.68382 0.0
C1573 C 0.14347 0.79449 0.71427 0.0
C1574 C 0.10109 0.80693 0.71886 0.0
C1575 C 0.11266 0.77163 0.66461 0.0
C1576 C 0.1116 0.77059 0.60837 0.0
C1577 C 0.10549 0.75034 0.58095 0.0
C1578 C 0.10012 0.73066 0.61188 0.0
C1579 C 0.10058 0.73149 0.66955 0.0
C1580 C 0.10693 0.75224 0.69613 0.0
H1581 H 0.25672 0.60031 1.00099 0.0
H1582 H 0.30491 0.59037 0.86677 0.0
H1583 H 0.27357 0.59897 0.80149 0.0
H1584 H 0.20767 0.57346 0.93645 0.0
H1585 H 0.1867 0.59346 0.96429 0.0
H1586 H 0.21318 0.58736 1.00103 0.0
H1587 H 0.22295 0.63119 0.00336 0.0
H1588 H 0.19646 0.63743 0.96676 0.0
H1589 H 0.22401 0.64726 0.94041 0.0
H1590 H 0.23686 0.60762 0.75034 0.0
H1591 H 0.19724 0.61617 0.71695 0.0
H1592 H 0.17264 0.62036 0.88395 0.0
C1593 C 0.26071 0.59988 0.95792 0.0
C1594 C 0.28345 0.59476 0.9393 0.0
C1595 C 0.28786 0.59461 0.88241 0.0
C1596 C 0.27008 0.59933 0.84483 0.0
C1597 C 0.24791 0.60417 0.86461 0.0
C1598 C 0.24314 0.60453 0.91978 0.0
C1599 C 0.21772 0.61002 0.93017 0.0
C1600 C 0.20561 0.58987 0.95973 0.0
C1601 C 0.21514 0.63283 0.96206 0.0
C1602 C 0.20894 0.61251 0.87218 0.0
C1603 C 0.22667 0.60913 0.83503 0.0
C1604 C 0.22285 0.61044 0.77904 0.0
C1605 C 0.2003 0.61544 0.76048 0.0
C1606 C 0.18183 0.61906 0.79778 0.0
C1607 C 0.18632 0.6175 0.85438 0.0
loop_
_geom_bond_atom_site_label_1
_geom_bond_atom_site_label_2
_geom_bond_distance
_geom_bond_site_symmetry_2
_ccdc_geom_bond_type
Co0 N4 2.148 . S
Co0 N10 2.128 . S
Co0 N20 2.194 1_556 S
Co0 O25 2.351 . S
Co0 O26 2.155 . S
Co0 O27 2.096 1_556 S
C1 N4 1.301 . S
C1 N5 1.328 . S
C1 H6 0.930 . S
C2 C3 1.333 . S
C2 N4 1.317 1_554 S
C2 H7 0.930 . S
C3 C2 1.333 . S
C3 N5 1.350 1_554 S
C3 H29 0.931 . S
N4 Co0 2.148 . S
N4 C1 1.301 . S
N4 C2 1.317 1_556 S
N5 C1 1.328 . S
N5 C3 1.350 1_556 S
H6 C1 0.930 . S
H7 C2 0.930 . S
C8 O9 1.224 . S
C8 O27 1.247 . S
O9 C8 1.224 . S
N10 Co0 2.128 . S
N10 C11 1.355 . S
N10 C13 1.311 1_556 S
C11 N10 1.355 . S
C11 C12 1.363 . S
C11 H23 0.929 . S
C12 C11 1.363 . S
C12 N14 1.375 1_556 S
C12 H30 0.931 . S
C13 N10 1.311 1_554 S
C13 N14 1.347 . S
C13 H24 0.929 . S
N14 C12 1.375 1_554 S
N14 C13 1.347 . S
C15 C18 1.365 . S
C15 N20 1.328 1_556 S
C15 H21 0.929 . S
C16 C17 1.362 . S
C16 C19 1.378 . S
C16 H31 0.929 . S
C17 C16 1.362 . S
C17 C18 1.366 1_554 S
C18 C15 1.365 . S
C18 C17 1.366 1_556 S
C18 H32 0.930 . S
C19 C16 1.378 . S
C19 N20 1.315 . S
C19 H22 0.930 . S
N20 Co0 2.194 1_554 S
N20 C15 1.328 1_554 S
N20 C19 1.315 . S
H21 C15 0.929 . S
H22 C19 0.930 . S
H23 C11 0.929 . S
H24 C13 0.929 . S
O25 Co0 2.351 . S
O25 C28 1.244 . S
O26 Co0 2.155 . S
O26 C28 1.240 . S
O27 Co0 2.096 1_554 S
O27 C8 1.247 . S
C28 O25 1.244 . S
C28 O26 1.240 . S
H29 C3 0.931 . S
H30 C12 0.931 . S
H31 C16 0.929 . S
H32 C18 0.930 . S
Co33 N37 2.148 . S
Co33 N43 2.128 . S
Co33 N53 2.194 . S
Co33 O58 2.351 . S
Co33 O59 2.155 . S
Co33 O60 2.096 . S
C34 N37 1.301 . S
C34 N38 1.328 . S
C34 H39 0.930 . S
C35 C36 1.333 . S
C35 N37 1.317 . S
C35 H40 0.930 . S
C36 C35 1.333 . S
C36 N38 1.350 . S
C36 H62 0.931 . S
N37 Co33 2.148 . S
N37 C34 1.301 . S
N37 C35 1.317 . S
N38 C34 1.328 . S
N38 C36 1.350 . S
H39 C34 0.930 . S
H40 C35 0.930 . S
C41 O42 1.224 . S
C41 O60 1.247 . S
O42 C41 1.224 . S
N43 Co33 2.128 . S
N43 C44 1.355 . S
N43 C46 1.311 . S
C44 N43 1.355 . S
C44 C45 1.363 . S
C44 H56 0.929 . S
C45 C44 1.363 . S
C45 N47 1.375 . S
C45 H63 0.931 . S
C46 N43 1.311 . S
C46 N47 1.347 . S
C46 H57 0.929 . S
N47 C45 1.375 . S
N47 C46 1.347 . S
C48 C51 1.365 . S
C48 N53 1.328 . S
C48 H54 0.929 . S
C49 C50 1.362 . S
C49 C52 1.378 . S
C49 H64 0.929 . S
C50 C49 1.362 . S
C50 C51 1.366 . S
C51 C48 1.365 . S
C51 C50 1.366 . S
C51 H65 0.930 . S
C52 C49 1.378 . S
C52 N53 1.315 . S
C52 H55 0.930 . S
N53 Co33 2.194 . S
N53 C48 1.328 . S
N53 C52 1.315 . S
H54 C48 0.929 . S
H55 C52 0.930 . S
H56 C44 0.929 . S
H57 C46 0.929 . S
O58 Co33 2.351 . S
O58 C61 1.244 . S
O59 Co33 2.155 . S
O59 C61 1.240 . S
O60 Co33 2.096 . S
O60 C41 1.247 . S
C61 O58 1.244 . S
C61 O59 1.240 . S
H62 C36 0.931 . S
H63 C45 0.931 . S
H64 C49 0.929 . S
H65 C51 0.930 . S
Co66 N70 2.148 . S
Co66 N76 2.128 . S
Co66 N86 2.194 . S
Co66 O91 2.351 . S
Co66 O92 2.155 . S
Co66 O93 2.096 . S
C67 N70 1.301 . S
C67 N71 1.328 . S
C67 H72 0.930 . S
C68 C69 1.333 . S
C68 N70 1.317 . S
C68 H73 0.930 . S
C69 C68 1.333 . S
C69 N71 1.350 . S
C69 H95 0.931 . S
N70 Co66 2.148 . S
N70 C67 1.301 . S
N70 C68 1.317 . S
N71 C67 1.328 . S
N71 C69 1.350 . S
H72 C67 0.930 . S
H73 C68 0.930 . S
C74 O75 1.224 . S
C74 O93 1.247 . S
O75 C74 1.224 . S
N76 Co66 2.128 . S
N76 C77 1.355 . S
N76 C79 1.311 . S
C77 N76 1.355 . S
C77 C78 1.363 . S
C77 H89 0.929 . S
C78 C77 1.363 . S
C78 N80 1.375 . S
C78 H96 0.931 . S
C79 N76 1.311 . S
C79 N80 1.347 . S
C79 H90 0.929 . S
N80 C78 1.375 . S
N80 C79 1.347 . S
C81 C84 1.365 . S
C81 N86 1.328 . S
C81 H87 0.929 . S
C82 C83 1.362 . S
C82 C85 1.378 . S
C82 H97 0.929 . S
C83 C82 1.362 . S
C83 C84 1.366 . S
C84 C81 1.365 . S
C84 C83 1.366 . S
C84 H98 0.930 . S
C85 C82 1.378 . S
C85 N86 1.315 . S
C85 H88 0.930 . S
N86 Co66 2.194 . S
N86 C81 1.328 . S
N86 C85 1.315 . S
H87 C81 0.929 . S
H88 C85 0.930 . S
H89 C77 0.929 . S
H90 C79 0.929 . S
O91 Co66 2.351 . S
O91 C94 1.244 . S
O92 Co66 2.155 . S
O92 C94 1.240 . S
O93 Co66 2.096 . S
O93 C74 1.247 . S
C94 O91 1.244 . S
C94 O92 1.240 . S
H95 C69 0.931 . S
H96 C78 0.931 . S
H97 C82 0.929 . S
H98 C84 0.930 . S
Co99 N103 2.148 . S
Co99 N109 2.128 . S
Co99 N119 2.194 . S
Co99 O124 2.351 . S
Co99 O125 2.155 . S
Co99 O126 2.096 . S
C100 N103 1.301 . S
C100 N104 1.328 . S
C100 H105 0.930 . S
C101 C102 1.333 . S
C101 N103 1.317 . S
C101 H106 0.930 . S
C102 C101 1.333 . S
C102 N104 1.350 . S
C102 H128 0.931 . S
N103 Co99 2.148 . S
N103 C100 1.301 . S
N103 C101 1.317 . S
N104 C100 1.328 . S
N104 C102 1.350 . S
H105 C100 0.930 . S
H106 C101 0.930 . S
C107 O108 1.224 . S
C107 O126 1.247 . S
O108 C107 1.224 . S
N109 Co99 2.128 . S
N109 C110 1.355 . S
N109 C112 1.311 . S
C110 N109 1.355 . S
C110 C111 1.363 . S
C110 H122 0.929 . S
C111 C110 1.363 . S
C111 N113 1.375 . S
C111 H129 0.931 . S
C112 N109 1.311 . S
C112 N113 1.347 . S
C112 H123 0.929 . S
N113 C111 1.375 . S
N113 C112 1.347 . S
C114 C117 1.365 . S
C114 N119 1.328 . S
C114 H120 0.929 . S
C115 C116 1.362 . S
C115 C118 1.378 . S
C115 H130 0.929 . S
C116 C115 1.362 . S
C116 C117 1.366 . S
C117 C114 1.365 . S
C117 C116 1.366 . S
C117 H131 0.930 . S
C118 C115 1.378 . S
C118 N119 1.315 . S
C118 H121 0.930 . S
N119 Co99 2.194 . S
N119 C114 1.328 . S
N119 C118 1.315 . S
H120 C114 0.929 . S
H121 C118 0.930 . S
H122 C110 0.929 . S
H123 C112 0.929 . S
O124 Co99 2.351 . S
O124 C127 1.244 . S
O125 Co99 2.155 . S
O125 C127 1.240 . S
O126 Co99 2.096 . S
O126 C107 1.247 . S
C127 O124 1.244 . S
C127 O125 1.240 . S
H128 C102 0.931 . S
H129 C111 0.931 . S
H130 C115 0.929 . S
H131 C117 0.930 . S
Co132 N136 2.148 . S
Co132 N142 2.128 . S
Co132 N152 2.194 . S
Co132 O157 2.351 . S
Co132 O158 2.155 . S
Co132 O159 2.096 . S
C133 N136 1.301 . S
C133 N137 1.328 . S
C133 H138 0.930 . S
C134 C135 1.333 . S
C134 N136 1.317 . S
C134 H139 0.930 . S
C135 C134 1.333 . S
C135 N137 1.350 . S
C135 H161 0.931 . S
N136 Co132 2.148 . S
N136 C133 1.301 . S
N136 C134 1.317 . S
N137 C133 1.328 . S
N137 C135 1.350 . S
H138 C133 0.930 . S
H139 C134 0.930 . S
C140 O141 1.224 . S
C140 O159 1.247 . S
O141 C140 1.224 . S
N142 Co132 2.128 . S
N142 C143 1.355 . S
N142 C145 1.311 . S
C143 N142 1.355 . S
C143 C144 1.363 . S
C143 H155 0.929 . S
C144 C143 1.363 . S
C144 N146 1.375 . S
C144 H162 0.931 . S
C145 N142 1.311 . S
C145 N146 1.347 . S
C145 H156 0.929 . S
N146 C144 1.375 . S
N146 C145 1.347 . S
C147 C150 1.365 . S
C147 N152 1.328 . S
C147 H153 0.929 . S
C148 C149 1.362 . S
C148 C151 1.378 . S
C148 H163 0.929 . S
C149 C148 1.362 . S
C149 C150 1.366 . S
C150 C147 1.365 . S
C150 C149 1.366 . S
C150 H164 0.930 . S
C151 C148 1.378 . S
C151 N152 1.315 . S
C151 H154 0.930 . S
N152 Co132 2.194 . S
N152 C147 1.328 . S
N152 C151 1.315 . S
H153 C147 0.929 . S
H154 C151 0.930 . S
H155 C143 0.929 . S
H156 C145 0.929 . S
O157 Co132 2.351 . S
O157 C160 1.244 . S
O158 Co132 2.155 . S
O158 C160 1.240 . S
O159 Co132 2.096 . S
O159 C140 1.247 . S
C160 O157 1.244 . S
C160 O158 1.240 . S
H161 C135 0.931 . S
H162 C144 0.931 . S
H163 C148 0.929 . S
H164 C150 0.930 . S
Co165 N169 2.148 . S
Co165 N175 2.128 . S
Co165 N185 2.194 . S
Co165 O190 2.351 . S
Co165 O191 2.155 . S
Co165 O192 2.096 . S
C166 N169 1.301 . S
C166 N170 1.328 . S
C166 H171 0.930 . S
C167 C168 1.333 . S
C167 N169 1.317 . S
C167 H172 0.930 . S
C168 C167 1.333 . S
C168 N170 1.350 . S
C168 H194 0.931 . S
N169 Co165 2.148 . S
N169 C166 1.301 . S
N169 C167 1.317 . S
N170 C166 1.328 . S
N170 C168 1.350 . S
H171 C166 0.930 . S
H172 C167 0.930 . S
C173 O174 1.224 . S
C173 O192 1.247 . S
O174 C173 1.224 . S
N175 Co165 2.128 . S
N175 C176 1.355 . S
N175 C178 1.311 . S
C176 N175 1.355 . S
C176 C177 1.363 . S
C176 H188 0.929 . S
C177 C176 1.363 . S
C177 N179 1.375 . S
C177 H195 0.931 . S
C178 N175 1.311 . S
C178 N179 1.347 . S
C178 H189 0.929 . S
N179 C177 1.375 . S
N179 C178 1.347 . S
C180 C183 1.365 . S
C180 N185 1.328 . S
C180 H186 0.929 . S
C181 C182 1.362 . S
C181 C184 1.378 . S
C181 H196 0.929 . S
C182 C181 1.362 . S
C182 C183 1.366 . S
C183 C180 1.365 . S
C183 C182 1.366 . S
C183 H197 0.930 . S
C184 C181 1.378 . S
C184 N185 1.315 . S
C184 H187 0.930 . S
N185 Co165 2.194 . S
N185 C180 1.328 . S
N185 C184 1.315 . S
H186 C180 0.929 . S
H187 C184 0.930 . S
H188 C176 0.929 . S
H189 C178 0.929 . S
O190 Co165 2.351 . S
O190 C193 1.244 . S
O191 Co165 2.155 . S
O191 C193 1.240 . S
O192 Co165 2.096 . S
O192 C173 1.247 . S
C193 O190 1.244 . S
C193 O191 1.240 . S
H194 C168 0.931 . S
H195 C177 0.931 . S
H196 C181 0.929 . S
H197 C183 0.930 . S
Co198 N202 2.148 . S
Co198 N208 2.128 . S
Co198 N218 2.194 1_556 S
Co198 O223 2.351 . S
Co198 O224 2.155 . S
Co198 O225 2.096 1_556 S
C199 N202 1.301 . S
C199 N203 1.328 . S
C199 H204 0.930 . S
C200 C201 1.333 . S
C200 N202 1.317 1_554 S
C200 H205 0.930 . S
C201 C200 1.333 . S
C201 N203 1.350 1_554 S
C201 H227 0.931 . S
N202 Co198 2.148 . S
N202 C199 1.301 . S
N202 C200 1.317 1_556 S
N203 C199 1.328 . S
N203 C201 1.350 1_556 S
H204 C199 0.930 . S
H205 C200 0.930 . S
C206 O207 1.224 . S
C206 O225 1.247 . S
O207 C206 1.224 . S
N208 Co198 2.128 . S
N208 C209 1.355 . S
N208 C211 1.311 1_556 S
C209 N208 1.355 . S
C209 C210 1.363 . S
C209 H221 0.929 . S
C210 C209 1.363 . S
C210 N212 1.375 1_556 S
C210 H228 0.931 . S
C211 N208 1.311 1_554 S
C211 N212 1.347 . S
C211 H222 0.929 . S
N212 C210 1.375 1_554 S
N212 C211 1.347 . S
C213 C216 1.365 . S
C213 N218 1.328 1_556 S
C213 H219 0.929 . S
C214 C215 1.362 . S
C214 C217 1.378 . S
C214 H229 0.929 . S
C215 C214 1.362 . S
C215 C216 1.366 1_554 S
C216 C213 1.365 . S
C216 C215 1.366 1_556 S
C216 H230 0.930 . S
C217 C214 1.378 . S
C217 N218 1.315 . S
C217 H220 0.930 . S
N218 Co198 2.194 1_554 S
N218 C213 1.328 1_554 S
N218 C217 1.315 . S
H219 C213 0.929 . S
H220 C217 0.930 . S
H221 C209 0.929 . S
H222 C211 0.929 . S
O223 Co198 2.351 . S
O223 C226 1.244 . S
O224 Co198 2.155 . S
O224 C226 1.240 . S
O225 Co198 2.096 1_554 S
O225 C206 1.247 . S
C226 O223 1.244 . S
C226 O224 1.240 . S
H227 C201 0.931 . S
H228 C210 0.931 . S
H229 C214 0.929 . S
H230 C216 0.930 . S
Co231 N235 2.148 . S
Co231 N241 2.128 . S
Co231 N251 2.194 . S
Co231 O256 2.351 . S
Co231 O257 2.155 . S
Co231 O258 2.096 . S
C232 N235 1.301 . S
C232 N236 1.328 . S
C232 H237 0.930 . S
C233 C234 1.333 . S
C233 N235 1.317 . S
C233 H238 0.930 . S
C234 C233 1.333 . S
C234 N236 1.350 . S
C234 H260 0.931 . S
N235 Co231 2.148 . S
N235 C232 1.301 . S
N235 C233 1.317 . S
N236 C232 1.328 . S
N236 C234 1.350 . S
H237 C232 0.930 . S
H238 C233 0.930 . S
C239 O240 1.224 . S
C239 O258 1.247 . S
O240 C239 1.224 . S
N241 Co231 2.128 . S
N241 C242 1.355 . S
N241 C244 1.311 . S
C242 N241 1.355 . S
C242 C243 1.363 . S
C242 H254 0.929 . S
C243 C242 1.363 . S
C243 N245 1.375 . S
C243 H261 0.931 . S
C244 N241 1.311 . S
C244 N245 1.347 . S
C244 H255 0.929 . S
N245 C243 1.375 . S
N245 C244 1.347 . S
C246 C249 1.365 . S
C246 N251 1.328 . S
C246 H252 0.929 . S
C247 C248 1.362 . S
C247 C250 1.378 . S
C247 H262 0.929 . S
C248 C247 1.362 . S
C248 C249 1.366 . S
C249 C246 1.365 . S
C249 C248 1.366 . S
C249 H263 0.930 . S
C250 C247 1.378 . S
C250 N251 1.315 . S
C250 H253 0.930 . S
N251 Co231 2.194 . S
N251 C246 1.328 . S
N251 C250 1.315 . S
H252 C246 0.929 . S
H253 C250 0.930 . S
H254 C242 0.929 . S
H255 C244 0.929 . S
O256 Co231 2.351 . S
O256 C259 1.244 . S
O257 Co231 2.155 . S
O257 C259 1.240 . S
O258 Co231 2.096 . S
O258 C239 1.247 . S
C259 O256 1.244 . S
C259 O257 1.240 . S
H260 C234 0.931 . S
H261 C243 0.931 . S
H262 C247 0.929 . S
H263 C249 0.930 . S
Co264 N268 2.148 . S
Co264 N274 2.128 . S
Co264 N284 2.194 . S
Co264 O289 2.351 . S
Co264 O290 2.155 . S
Co264 O291 2.096 . S
C265 N268 1.301 . S
C265 N269 1.328 . S
C265 H270 0.930 . S
C266 C267 1.333 . S
C266 N268 1.317 . S
C266 H271 0.930 . S
C267 C266 1.333 . S
C267 N269 1.350 . S
C267 H293 0.931 . S
N268 Co264 2.148 . S
N268 C265 1.301 . S
N268 C266 1.317 . S
N269 C265 1.328 . S
N269 C267 1.350 . S
H270 C265 0.930 . S
H271 C266 0.930 . S
C272 O273 1.224 . S
C272 O291 1.247 . S
O273 C272 1.224 . S
N274 Co264 2.128 . S
N274 C275 1.355 . S
N274 C277 1.311 . S
C275 N274 1.355 . S
C275 C276 1.363 . S
C275 H287 0.929 . S
C276 C275 1.363 . S
C276 N278 1.375 . S
C276 H294 0.931 . S
C277 N274 1.311 . S
C277 N278 1.347 . S
C277 H288 0.929 . S
N278 C276 1.375 . S
N278 C277 1.347 . S
C279 C282 1.365 . S
C279 N284 1.328 . S
C279 H285 0.929 . S
C280 C281 1.362 . S
C280 C283 1.378 . S
C280 H295 0.929 . S
C281 C280 1.362 . S
C281 C282 1.366 . S
C282 C279 1.365 . S
C282 C281 1.366 . S
C282 H296 0.930 . S
C283 C280 1.378 . S
C283 N284 1.315 . S
C283 H286 0.930 . S
N284 Co264 2.194 . S
N284 C279 1.328 . S
N284 C283 1.315 . S
H285 C279 0.929 . S
H286 C283 0.930 . S
H287 C275 0.929 . S
H288 C277 0.929 . S
O289 Co264 2.351 . S
O289 C292 1.244 . S
O290 Co264 2.155 . S
O290 C292 1.240 . S
O291 Co264 2.096 . S
O291 C272 1.247 . S
C292 O289 1.244 . S
C292 O290 1.240 . S
H293 C267 0.931 . S
H294 C276 0.931 . S
H295 C280 0.929 . S
H296 C282 0.930 . S
Co297 N301 2.148 . S
Co297 N307 2.128 . S
Co297 N317 2.194 . S
Co297 O322 2.351 . S
Co297 O323 2.155 . S
Co297 O324 2.096 . S
C298 N301 1.301 . S
C298 N302 1.328 . S
C298 H303 0.930 . S
C299 C300 1.333 . S
C299 N301 1.317 . S
C299 H304 0.930 . S
C300 C299 1.333 . S
C300 N302 1.350 . S
C300 H326 0.931 . S
N301 Co297 2.148 . S
N301 C298 1.301 . S
N301 C299 1.317 . S
N302 C298 1.328 . S
N302 C300 1.350 . S
H303 C298 0.930 . S
H304 C299 0.930 . S
C305 O306 1.224 . S
C305 O324 1.247 . S
O306 C305 1.224 . S
N307 Co297 2.128 . S
N307 C308 1.355 . S
N307 C310 1.311 . S
C308 N307 1.355 . S
C308 C309 1.363 . S
C308 H320 0.929 . S
C309 C308 1.363 . S
C309 N311 1.375 . S
C309 H327 0.931 . S
C310 N307 1.311 . S
C310 N311 1.347 . S
C310 H321 0.929 . S
N311 C309 1.375 . S
N311 C310 1.347 . S
C312 C315 1.365 . S
C312 N317 1.328 . S
C312 H318 0.929 . S
C313 C314 1.362 . S
C313 C316 1.378 . S
C313 H328 0.929 . S
C314 C313 1.362 . S
C314 C315 1.366 . S
C315 C312 1.365 . S
C315 C314 1.366 . S
C315 H329 0.930 . S
C316 C313 1.378 . S
C316 N317 1.315 . S
C316 H319 0.930 . S
N317 Co297 2.194 . S
N317 C312 1.328 . S
N317 C316 1.315 . S
H318 C312 0.929 . S
H319 C316 0.930 . S
H320 C308 0.929 . S
H321 C310 0.929 . S
O322 Co297 2.351 . S
O322 C325 1.244 . S
O323 Co297 2.155 . S
O323 C325 1.240 . S
O324 Co297 2.096 . S
O324 C305 1.247 . S
C325 O322 1.244 . S
C325 O323 1.240 . S
H326 C300 0.931 . S
H327 C309 0.931 . S
H328 C313 0.929 . S
H329 C315 0.930 . S
Co330 N334 2.148 . S
Co330 N340 2.128 . S
Co330 N350 2.194 1_556 S
Co330 O355 2.351 . S
Co330 O356 2.155 . S
Co330 O357 2.096 1_556 S
C331 N334 1.301 . S
C331 N335 1.328 . S
C331 H336 0.930 . S
C332 C333 1.333 . S
C332 N334 1.317 1_554 S
C332 H337 0.930 . S
C333 C332 1.333 . S
C333 N335 1.350 1_554 S
C333 H359 0.931 . S
N334 Co330 2.148 . S
N334 C331 1.301 . S
N334 C332 1.317 1_556 S
N335 C331 1.328 . S
N335 C333 1.350 1_556 S
H336 C331 0.930 . S
H337 C332 0.930 . S
C338 O339 1.224 . S
C338 O357 1.247 . S
O339 C338 1.224 . S
N340 Co330 2.128 . S
N340 C341 1.355 . S
N340 C343 1.311 1_556 S
C341 N340 1.355 . S
C341 C342 1.363 . S
C341 H353 0.929 . S
C342 C341 1.363 . S
C342 N344 1.375 1_556 S
C342 H360 0.931 . S
C343 N340 1.311 1_554 S
C343 N344 1.347 . S
C343 H354 0.929 . S
N344 C342 1.375 1_554 S
N344 C343 1.347 . S
C345 C348 1.365 . S
C345 N350 1.328 1_556 S
C345 H351 0.929 . S
C346 C347 1.362 . S
C346 C349 1.378 . S
C346 H361 0.929 . S
C347 C346 1.362 . S
C347 C348 1.366 1_554 S
C348 C345 1.365 . S
C348 C347 1.366 1_556 S
C348 H362 0.930 . S
C349 C346 1.378 . S
C349 N350 1.315 . S
C349 H352 0.930 . S
N350 Co330 2.194 1_554 S
N350 C345 1.328 1_554 S
N350 C349 1.315 . S
H351 C345 0.929 . S
H352 C349 0.930 . S
H353 C341 0.929 . S
H354 C343 0.929 . S
O355 Co330 2.351 . S
O355 C358 1.244 . S
O356 Co330 2.155 . S
O356 C358 1.240 . S
O357 Co330 2.096 1_554 S
O357 C338 1.247 . S
C358 O355 1.244 . S
C358 O356 1.240 . S
H359 C333 0.931 . S
H360 C342 0.931 . S
H361 C346 0.929 . S
H362 C348 0.930 . S
Co363 N367 2.148 . S
Co363 N373 2.128 . S
Co363 N383 2.194 . S
Co363 O388 2.351 . S
Co363 O389 2.155 . S
Co363 O390 2.096 . S
C364 N367 1.301 . S
C364 N368 1.328 . S
C364 H369 0.930 . S
C365 C366 1.333 . S
C365 N367 1.317 . S
C365 H370 0.930 . S
C366 C365 1.333 . S
C366 N368 1.350 . S
C366 H392 0.931 . S
N367 Co363 2.148 . S
N367 C364 1.301 . S
N367 C365 1.317 . S
N368 C364 1.328 . S
N368 C366 1.350 . S
H369 C364 0.930 . S
H370 C365 0.930 . S
C371 O372 1.224 . S
C371 O390 1.247 . S
O372 C371 1.224 . S
N373 Co363 2.128 . S
N373 C374 1.355 . S
N373 C376 1.311 . S
C374 N373 1.355 . S
C374 C375 1.363 . S
C374 H386 0.929 . S
C375 C374 1.363 . S
C375 N377 1.375 . S
C375 H393 0.931 . S
C376 N373 1.311 . S
C376 N377 1.347 . S
C376 H387 0.929 . S
N377 C375 1.375 . S
N377 C376 1.347 . S
C378 C381 1.365 . S
C378 N383 1.328 . S
C378 H384 0.929 . S
C379 C380 1.362 . S
C379 C382 1.378 . S
C379 H394 0.929 . S
C380 C379 1.362 . S
C380 C381 1.366 . S
C381 C378 1.365 . S
C381 C380 1.366 . S
C381 H395 0.930 . S
C382 C379 1.378 . S
C382 N383 1.315 . S
C382 H385 0.930 . S
N383 Co363 2.194 . S
N383 C378 1.328 . S
N383 C382 1.315 . S
H384 C378 0.929 . S
H385 C382 0.930 . S
H386 C374 0.929 . S
H387 C376 0.929 . S
O388 Co363 2.351 . S
O388 C391 1.244 . S
O389 Co363 2.155 . S
O389 C391 1.240 . S
O390 Co363 2.096 . S
O390 C371 1.247 . S
C391 O388 1.244 . S
C391 O389 1.240 . S
H392 C366 0.931 . S
H393 C375 0.931 . S
H394 C379 0.929 . S
H395 C381 0.930 . S
Co396 N400 2.148 . S
Co396 N406 2.128 . S
Co396 N416 2.194 1_556 S
Co396 O421 2.351 . S
Co396 O422 2.155 . S
Co396 O423 2.096 1_556 S
C397 N400 1.301 . S
C397 N401 1.328 . S
C397 H402 0.930 . S
C398 C399 1.333 . S
C398 N400 1.317 1_554 S
C398 H403 0.930 . S
C399 C398 1.333 . S
C399 N401 1.350 1_554 S
C399 H425 0.931 . S
N400 Co396 2.148 . S
N400 C397 1.301 . S
N400 C398 1.317 1_556 S
N401 C397 1.328 . S
N401 C399 1.350 1_556 S
H402 C397 0.930 . S
H403 C398 0.930 . S
C404 O405 1.224 . S
C404 O423 1.247 . S
O405 C404 1.224 . S
N406 Co396 2.128 . S
N406 C407 1.355 . S
N406 C409 1.311 1_556 S
C407 N406 1.355 . S
C407 C408 1.363 . S
C407 H419 0.929 . S
C408 C407 1.363 . S
C408 N410 1.375 1_556 S
C408 H426 0.931 . S
C409 N406 1.311 1_554 S
C409 N410 1.347 . S
C409 H420 0.929 . S
N410 C408 1.375 1_554 S
N410 C409 1.347 . S
C411 C414 1.365 . S
C411 N416 1.328 1_556 S
C411 H417 0.929 . S
C412 C413 1.362 . S
C412 C415 1.378 . S
C412 H427 0.929 . S
C413 C412 1.362 . S
C413 C414 1.366 1_554 S
C414 C411 1.365 . S
C414 C413 1.366 1_556 S
C414 H428 0.930 . S
C415 C412 1.378 . S
C415 N416 1.315 . S
C415 H418 0.930 . S
N416 Co396 2.194 1_554 S
N416 C411 1.328 1_554 S
N416 C415 1.315 . S
H417 C411 0.929 . S
H418 C415 0.930 . S
H419 C407 0.929 . S
H420 C409 0.929 . S
O421 Co396 2.351 . S
O421 C424 1.244 . S
O422 Co396 2.155 . S
O422 C424 1.240 . S
O423 Co396 2.096 1_554 S
O423 C404 1.247 . S
C424 O421 1.244 . S
C424 O422 1.240 . S
H425 C399 0.931 . S
H426 C408 0.931 . S
H427 C412 0.929 . S
H428 C414 0.930 . S
Co429 N433 2.148 . S
Co429 N439 2.128 . S
Co429 N449 2.194 . S
Co429 O454 2.351 . S
Co429 O455 2.155 . S
Co429 O456 2.096 . S
C430 N433 1.301 . S
C430 N434 1.328 . S
C430 H435 0.930 . S
C431 C432 1.333 . S
C431 N433 1.317 . S
C431 H436 0.930 . S
C432 C431 1.333 . S
C432 N434 1.350 . S
C432 H458 0.931 . S
N433 Co429 2.148 . S
N433 C430 1.301 . S
N433 C431 1.317 . S
N434 C430 1.328 . S
N434 C432 1.350 . S
H435 C430 0.930 . S
H436 C431 0.930 . S
C437 O438 1.224 . S
C437 O456 1.247 . S
O438 C437 1.224 . S
N439 Co429 2.128 . S
N439 C440 1.355 . S
N439 C442 1.311 . S
C440 N439 1.355 . S
C440 C441 1.363 . S
C440 H452 0.929 . S
C441 C440 1.363 . S
C441 N443 1.375 . S
C441 H459 0.931 . S
C442 N439 1.311 . S
C442 N443 1.347 . S
C442 H453 0.929 . S
N443 C441 1.375 . S
N443 C442 1.347 . S
C444 C447 1.365 . S
C444 N449 1.328 . S
C444 H450 0.929 . S
C445 C446 1.362 . S
C445 C448 1.378 . S
C445 H460 0.929 . S
C446 C445 1.362 . S
C446 C447 1.366 . S
C447 C444 1.365 . S
C447 C446 1.366 . S
C447 H461 0.930 . S
C448 C445 1.378 . S
C448 N449 1.315 . S
C448 H451 0.930 . S
N449 Co429 2.194 . S
N449 C444 1.328 . S
N449 C448 1.315 . S
H450 C444 0.929 . S
H451 C448 0.930 . S
H452 C440 0.929 . S
H453 C442 0.929 . S
O454 Co429 2.351 . S
O454 C457 1.244 . S
O455 Co429 2.155 . S
O455 C457 1.240 . S
O456 Co429 2.096 . S
O456 C437 1.247 . S
C457 O454 1.244 . S
C457 O455 1.240 . S
H458 C432 0.931 . S
H459 C441 0.931 . S
H460 C445 0.929 . S
H461 C447 0.930 . S
Co462 N466 2.148 . S
Co462 N472 2.128 . S
Co462 N482 2.194 . S
Co462 O487 2.351 . S
Co462 O488 2.155 . S
Co462 O489 2.096 . S
C463 N466 1.301 . S
C463 N467 1.328 . S
C463 H468 0.930 . S
C464 C465 1.333 . S
C464 N466 1.317 . S
C464 H469 0.930 . S
C465 C464 1.333 . S
C465 N467 1.350 . S
C465 H491 0.931 . S
N466 Co462 2.148 . S
N466 C463 1.301 . S
N466 C464 1.317 . S
N467 C463 1.328 . S
N467 C465 1.350 . S
H468 C463 0.930 . S
H469 C464 0.930 . S
C470 O471 1.224 . S
C470 O489 1.247 . S
O471 C470 1.224 . S
N472 Co462 2.128 . S
N472 C473 1.355 . S
N472 C475 1.311 . S
C473 N472 1.355 . S
C473 C474 1.363 . S
C473 H485 0.929 . S
C474 C473 1.363 . S
C474 N476 1.375 . S
C474 H492 0.931 . S
C475 N472 1.311 . S
C475 N476 1.347 . S
C475 H486 0.929 . S
N476 C474 1.375 . S
N476 C475 1.347 . S
C477 C480 1.365 . S
C477 N482 1.328 . S
C477 H483 0.929 . S
C478 C479 1.362 . S
C478 C481 1.378 . S
C478 H493 0.929 . S
C479 C478 1.362 . S
C479 C480 1.366 . S
C480 C477 1.365 . S
C480 C479 1.366 . S
C480 H494 0.930 . S
C481 C478 1.378 . S
C481 N482 1.315 . S
C481 H484 0.930 . S
N482 Co462 2.194 . S
N482 C477 1.328 . S
N482 C481 1.315 . S
H483 C477 0.929 . S
H484 C481 0.930 . S
H485 C473 0.929 . S
H486 C475 0.929 . S
O487 Co462 2.351 . S
O487 C490 1.244 . S
O488 Co462 2.155 . S
O488 C490 1.240 . S
O489 Co462 2.096 . S
O489 C470 1.247 . S
C490 O487 1.244 . S
C490 O488 1.240 . S
H491 C465 0.931 . S
H492 C474 0.931 . S
H493 C478 0.929 . S
H494 C480 0.930 . S
Co495 N499 2.148 . S
Co495 N505 2.128 . S
Co495 N515 2.194 . S
Co495 O520 2.351 . S
Co495 O521 2.155 . S
Co495 O522 2.096 . S
C496 N499 1.301 . S
C496 N500 1.328 . S
C496 H501 0.930 . S
C497 C498 1.333 . S
C497 N499 1.317 . S
C497 H502 0.930 . S
C498 C497 1.333 . S
C498 N500 1.350 . S
C498 H524 0.931 . S
N499 Co495 2.148 . S
N499 C496 1.301 . S
N499 C497 1.317 . S
N500 C496 1.328 . S
N500 C498 1.350 . S
H501 C496 0.930 . S
H502 C497 0.930 . S
C503 O504 1.224 . S
C503 O522 1.247 . S
O504 C503 1.224 . S
N505 Co495 2.128 . S
N505 C506 1.355 . S
N505 C508 1.311 . S
C506 N505 1.355 . S
C506 C507 1.363 . S
C506 H518 0.929 . S
C507 C506 1.363 . S
C507 N509 1.375 . S
C507 H525 0.931 . S
C508 N505 1.311 . S
C508 N509 1.347 . S
C508 H519 0.929 . S
N509 C507 1.375 . S
N509 C508 1.347 . S
C510 C513 1.365 . S
C510 N515 1.328 . S
C510 H516 0.929 . S
C511 C512 1.362 . S
C511 C514 1.378 . S
C511 H526 0.929 . S
C512 C511 1.362 . S
C512 C513 1.366 . S
C513 C510 1.365 . S
C513 C512 1.366 . S
C513 H527 0.930 . S
C514 C511 1.378 . S
C514 N515 1.315 . S
C514 H517 0.930 . S
N515 Co495 2.194 . S
N515 C510 1.328 . S
N515 C514 1.315 . S
H516 C510 0.929 . S
H517 C514 0.930 . S
H518 C506 0.929 . S
H519 C508 0.929 . S
O520 Co495 2.351 . S
O520 C523 1.244 . S
O521 Co495 2.155 . S
O521 C523 1.240 . S
O522 Co495 2.096 . S
O522 C503 1.247 . S
C523 O520 1.244 . S
C523 O521 1.240 . S
H524 C498 0.931 . S
H525 C507 0.931 . S
H526 C511 0.929 . S
H527 C513 0.930 . S
H528 C540 0.930 . S
H529 C542 0.930 . S
H530 C543 0.930 . S
H531 C547 0.959 . S
H532 C547 0.959 . S
H533 C547 0.961 . S
H534 C548 0.960 1_655 S
H535 C548 0.961 1_545 S
H536 C548 0.959 . S
H537 C551 0.929 . S
H538 C552 0.931 . S
H539 C554 0.930 . S
C540 H528 0.930 . S
C540 C541 1.399 . S
C540 C545 1.399 . S
C541 C540 1.399 . S
C541 C542 1.376 1_554 S
C542 H529 0.930 . S
C542 C541 1.376 1_556 S
C542 C543 1.388 . S
C543 H530 0.930 . S
C543 C542 1.388 . S
C543 C544 1.390 1_556 S
C544 C543 1.390 1_554 S
C544 C545 1.394 . S
C544 C550 1.465 1_655 S
C545 C540 1.399 . S
C545 C544 1.394 . S
C545 C546 1.516 1_565 S
C546 C545 1.516 1_545 S
C546 C547 1.502 . S
C546 C548 1.561 1_645 S
C546 C549 1.526 1_655 S
C547 H531 0.959 . S
C547 H532 0.959 . S
C547 H533 0.961 . S
C547 C546 1.502 . S
C548 H534 0.960 1_455 S
C548 H535 0.961 1_565 S
C548 H536 0.959 . S
C548 C546 1.561 1_465 S
C549 C546 1.526 1_455 S
C549 C550 1.396 1_545 S
C549 C554 1.390 . S
C550 C544 1.465 1_455 S
C550 C549 1.396 1_565 S
C550 C551 1.399 1_554 S
C551 H537 0.929 . S
C551 C550 1.399 1_556 S
C551 C552 1.385 1_565 S
C552 H538 0.931 . S
C552 C551 1.385 1_545 S
C552 C553 1.389 1_556 S
C553 C552 1.389 1_554 S
C553 C554 1.387 . S
C554 H539 0.930 . S
C554 C549 1.390 . S
C554 C553 1.387 . S
H555 C567 0.930 . S
H556 C569 0.930 . S
H557 C570 0.930 . S
H558 C574 0.959 . S
H559 C574 0.959 . S
H560 C574 0.961 . S
H561 C575 0.969 . S
H562 C575 0.939 1_455 S
H563 C575 0.989 . S
H564 C578 0.929 . S
H565 C579 0.931 . S
H566 C581 0.930 . S
C567 H555 0.930 . S
C567 C568 1.399 . S
C567 C572 1.399 . S
C568 C567 1.399 . S
C568 C569 1.376 . S
C569 H556 0.930 . S
C569 C568 1.376 . S
C569 C570 1.388 . S
C570 H557 0.930 . S
C570 C569 1.388 . S
C570 C571 1.390 . S
C571 C570 1.390 . S
C571 C572 1.394 . S
C571 C577 1.465 . S
C572 C567 1.399 . S
C572 C571 1.394 . S
C572 C573 1.516 1_655 S
C573 C572 1.516 1_455 S
C573 C574 1.502 . S
C573 C575 1.546 1_455 S
C573 C576 1.526 . S
C574 H558 0.959 . S
C574 H559 0.959 . S
C574 H560 0.961 . S
C574 C573 1.502 . S
C575 H561 0.969 . S
C575 H562 0.939 1_655 S
C575 H563 0.989 . S
C575 C573 1.546 1_655 S
C576 C573 1.526 . S
C576 C577 1.396 1_455 S
C576 C581 1.390 . S
C577 C571 1.465 . S
C577 C576 1.396 1_655 S
C577 C578 1.399 . S
C578 H564 0.929 . S
C578 C577 1.399 . S
C578 C579 1.385 1_655 S
C579 H565 0.931 . S
C579 C578 1.385 1_455 S
C579 C580 1.389 . S
C580 C579 1.389 . S
C580 C581 1.387 . S
C581 H566 0.930 . S
C581 C576 1.390 . S
C581 C580 1.387 . S
H582 C594 0.930 . S
H583 C596 0.930 . S
H584 C597 0.930 . S
H585 C601 0.959 . S
H586 C601 0.959 . S
H587 C601 0.961 . S
H588 C602 0.960 . S
H589 C602 0.961 . S
H590 C602 0.959 . S
H591 C605 0.929 . S
H592 C606 0.931 . S
H593 C608 0.930 . S
C594 H582 0.930 . S
C594 C595 1.399 . S
C594 C599 1.399 . S
C595 C594 1.399 . S
C595 C596 1.376 . S
C596 H583 0.930 . S
C596 C595 1.376 . S
C596 C597 1.388 . S
C597 H584 0.930 . S
C597 C596 1.388 . S
C597 C598 1.390 . S
C598 C597 1.390 . S
C598 C599 1.394 . S
C598 C604 1.465 . S
C599 C594 1.399 . S
C599 C598 1.394 . S
C599 C600 1.516 . S
C600 C599 1.516 . S
C600 C601 1.502 . S
C600 C602 1.561 . S
C600 C603 1.526 . S
C601 H585 0.959 . S
C601 H586 0.959 . S
C601 H587 0.961 . S
C601 C600 1.502 . S
C602 H588 0.960 . S
C602 H589 0.961 . S
C602 H590 0.959 . S
C602 C600 1.561 . S
C603 C600 1.526 . S
C603 C604 1.396 . S
C603 C608 1.390 . S
C604 C598 1.465 . S
C604 C603 1.396 . S
C604 C605 1.399 . S
C605 H591 0.929 . S
C605 C604 1.399 . S
C605 C606 1.385 . S
C606 H592 0.931 . S
C606 C605 1.385 . S
C606 C607 1.389 . S
C607 C606 1.389 . S
C607 C608 1.387 . S
C608 H593 0.930 . S
C608 C603 1.390 . S
C608 C607 1.387 . S
H609 C621 0.930 . S
H610 C623 0.930 . S
H611 C624 0.930 . S
H612 C628 0.959 . S
H613 C628 0.959 1_545 S
H614 C628 0.961 . S
H615 C629 0.960 1_565 S
H616 C629 0.961 . S
H617 C629 0.959 . S
H618 C632 0.929 . S
H619 C633 0.931 . S
H620 C635 0.930 . S
C621 H609 0.930 . S
C621 C622 1.399 . S
C621 C626 1.399 . S
C622 C621 1.399 . S
C622 C623 1.376 . S
C623 H610 0.930 . S
C623 C622 1.376 . S
C623 C624 1.388 . S
C624 H611 0.930 . S
C624 C623 1.388 . S
C624 C625 1.390 . S
C625 C624 1.390 . S
C625 C626 1.394 . S
C625 C631 1.465 1_565 S
C626 C621 1.399 . S
C626 C625 1.394 . S
C626 C627 1.526 . S
C627 C626 1.526 . S
C627 C628 1.507 . S
C627 C629 1.556 1_565 S
C627 C630 1.515 1_565 S
C628 H612 0.959 . S
C628 H613 0.959 1_565 S
C628 H614 0.961 . S
C628 C627 1.507 . S
C629 H615 0.960 1_545 S
C629 H616 0.961 . S
C629 H617 0.959 . S
C629 C627 1.556 1_545 S
C630 C627 1.515 1_545 S
C630 C631 1.396 . S
C630 C635 1.390 . S
C631 C625 1.465 1_545 S
C631 C630 1.396 . S
C631 C632 1.399 . S
C632 H618 0.929 . S
C632 C631 1.399 . S
C632 C633 1.385 . S
C633 H619 0.931 . S
C633 C632 1.385 . S
C633 C634 1.389 . S
C634 C633 1.389 . S
C634 C635 1.387 . S
C635 H620 0.930 . S
C635 C630 1.390 . S
C635 C634 1.387 . S
H636 C648 0.930 . S
H637 C650 0.930 . S
H638 C651 0.930 . S
H639 C655 0.959 . S
H640 C655 0.985 . S
H641 C655 0.961 . S
H642 C656 0.960 1_455 S
H643 C656 0.961 . S
H644 C656 0.959 . S
H645 C659 0.929 1_565 S
H646 C660 0.931 . S
H647 C662 0.930 . S
C648 H636 0.930 . S
C648 C649 1.399 . S
C648 C653 1.399 . S
C649 C648 1.399 . S
C649 C650 1.376 . S
C650 H637 0.930 . S
C650 C649 1.376 . S
C650 C651 1.388 . S
C651 H638 0.930 . S
C651 C650 1.388 . S
C651 C652 1.390 . S
C652 C651 1.390 . S
C652 C653 1.394 . S
C652 C658 1.465 1_465 S
C653 C648 1.399 . S
C653 C652 1.394 . S
C653 C654 1.516 1_565 S
C654 C653 1.516 1_545 S
C654 C655 1.502 . S
C654 C656 1.561 1_445 S
C654 C657 1.526 1_455 S
C655 H639 0.959 . S
C655 H640 0.985 . S
C655 H641 0.961 . S
C655 C654 1.502 . S
C656 H642 0.960 1_655 S
C656 H643 0.961 . S
C656 H644 0.959 . S
C656 C654 1.561 1_665 S
C657 C654 1.526 1_655 S
C657 C658 1.396 . S
C657 C662 1.390 . S
C658 C652 1.465 1_645 S
C658 C657 1.396 . S
C658 C659 1.399 . S
C659 H645 0.929 1_545 S
C659 C658 1.399 . S
C659 C660 1.385 . S
C660 H646 0.931 . S
C660 C659 1.385 . S
C660 C661 1.389 . S
C661 C660 1.389 . S
C661 C662 1.387 . S
C662 H647 0.930 . S
C662 C657 1.390 . S
C662 C661 1.387 . S
H663 C675 0.930 . S
H664 C677 0.930 . S
H665 C678 0.930 . S
H666 C682 0.959 . S
H667 C682 0.959 . S
H668 C682 0.960 . S
H669 C683 0.960 . S
H670 C683 0.961 . S
H671 C683 0.959 . S
H672 C686 0.929 . S
H673 C687 0.931 . S
H674 C689 0.930 . S
C675 H663 0.930 . S
C675 C676 1.399 . S
C675 C680 1.399 . S
C676 C675 1.399 . S
C676 C677 1.376 . S
C677 H664 0.930 . S
C677 C676 1.376 . S
C677 C678 1.388 . S
C678 H665 0.930 . S
C678 C677 1.388 . S
C678 C679 1.390 . S
C679 C678 1.390 . S
C679 C680 1.394 . S
C679 C685 1.465 1_655 S
C680 C675 1.399 . S
C680 C679 1.394 . S
C680 C681 1.516 . S
C681 C680 1.516 . S
C681 C682 1.502 1_655 S
C681 C683 1.561 . S
C681 C684 1.526 1_655 S
C682 H666 0.959 . S
C682 H667 0.959 . S
C682 H668 0.960 . S
C682 C681 1.502 1_455 S
C683 H669 0.960 . S
C683 H670 0.961 . S
C683 H671 0.959 . S
C683 C681 1.561 . S
C684 C681 1.526 1_455 S
C684 C685 1.396 . S
C684 C689 1.390 . S
C685 C679 1.465 1_455 S
C685 C684 1.396 . S
C685 C686 1.399 . S
C686 H672 0.929 . S
C686 C685 1.399 . S
C686 C687 1.385 . S
C687 H673 0.931 . S
C687 C686 1.385 . S
C687 C688 1.389 . S
C688 C687 1.389 . S
C688 C689 1.387 . S
C689 H674 0.930 . S
C689 C684 1.390 . S
C689 C688 1.387 . S
H690 C702 0.930 . S
H691 C704 0.930 . S
H692 C705 0.930 . S
H693 C709 0.959 . S
H694 C709 0.959 . S
H695 C709 0.961 . S
H696 C710 0.960 . S
H697 C710 0.961 . S
H698 C710 0.959 . S
H699 C713 0.929 . S
H700 C714 0.931 . S
H701 C716 0.930 . S
C702 H690 0.930 . S
C702 C703 1.399 . S
C702 C707 1.399 . S
C703 C702 1.399 . S
C703 C704 1.376 1_554 S
C704 H691 0.930 . S
C704 C703 1.376 1_556 S
C704 C705 1.388 . S
C705 H692 0.930 . S
C705 C704 1.388 . S
C705 C706 1.390 1_556 S
C706 C705 1.390 1_554 S
C706 C707 1.394 . S
C706 C712 1.465 . S
C707 C702 1.399 . S
C707 C706 1.394 . S
C707 C708 1.516 . S
C708 C707 1.516 . S
C708 C709 1.502 . S
C708 C710 1.561 . S
C708 C711 1.526 . S
C709 H693 0.959 . S
C709 H694 0.959 . S
C709 H695 0.961 . S
C709 C708 1.502 . S
C710 H696 0.960 . S
C710 H697 0.961 . S
C710 H698 0.959 . S
C710 C708 1.561 . S
C711 C708 1.526 . S
C711 C712 1.396 . S
C711 C716 1.390 . S
C712 C706 1.465 . S
C712 C711 1.396 . S
C712 C713 1.399 1_554 S
C713 H699 0.929 . S
C713 C712 1.399 1_556 S
C713 C714 1.385 . S
C714 H700 0.931 . S
C714 C713 1.385 . S
C714 C715 1.389 1_556 S
C715 C714 1.389 1_554 S
C715 C716 1.387 . S
C716 H701 0.930 . S
C716 C711 1.390 . S
C716 C715 1.387 . S
H717 C729 0.930 . S
H718 C731 0.930 . S
H719 C732 0.930 . S
H720 C736 0.959 . S
H721 C736 0.959 . S
H722 C736 0.961 . S
H723 C737 0.960 . S
H724 C737 0.961 1_545 S
H725 C737 0.959 . S
H726 C740 0.929 . S
H727 C741 0.931 . S
H728 C743 0.930 . S
C729 H717 0.930 . S
C729 C730 1.399 . S
C729 C734 1.399 . S
C730 C729 1.399 . S
C730 C731 1.376 . S
C731 H718 0.930 . S
C731 C730 1.376 . S
C731 C732 1.388 . S
C732 H719 0.930 . S
C732 C731 1.388 . S
C732 C733 1.390 . S
C733 C732 1.390 . S
C733 C734 1.394 . S
C733 C739 1.465 1_565 S
C734 C729 1.399 . S
C734 C733 1.394 . S
C734 C735 1.516 1_565 S
C735 C734 1.516 1_545 S
C735 C736 1.502 . S
C735 C737 1.561 1_545 S
C735 C738 1.526 . S
C736 H720 0.959 . S
C736 H721 0.959 . S
C736 H722 0.961 . S
C736 C735 1.502 . S
C737 H723 0.960 . S
C737 H724 0.961 1_565 S
C737 H725 0.959 . S
C737 C735 1.561 1_565 S
C738 C735 1.526 . S
C738 C739 1.396 . S
C738 C743 1.390 . S
C739 C733 1.465 1_545 S
C739 C738 1.396 . S
C739 C740 1.399 . S
C740 H726 0.929 . S
C740 C739 1.399 . S
C740 C741 1.385 . S
C741 H727 0.931 . S
C741 C740 1.385 . S
C741 C742 1.389 . S
C742 C741 1.389 . S
C742 C743 1.387 . S
C743 H728 0.930 . S
C743 C738 1.390 . S
C743 C742 1.387 . S
H744 C756 0.930 . S
H745 C758 0.930 . S
H746 C759 0.930 . S
H747 C763 0.959 . S
H748 C763 0.959 . S
H749 C763 0.961 . S
H750 C764 0.960 . S
H751 C764 0.961 . S
H752 C764 0.959 . S
H753 C767 0.929 . S
H754 C768 0.931 1_565 S
H755 C770 0.930 . S
C756 H744 0.930 . S
C756 C757 1.399 . S
C756 C761 1.399 . S
C757 C756 1.399 . S
C757 C758 1.376 . S
C758 H745 0.930 . S
C758 C757 1.376 . S
C758 C759 1.388 . S
C759 H746 0.930 . S
C759 C758 1.388 . S
C759 C760 1.390 . S
C760 C759 1.390 . S
C760 C761 1.394 . S
C760 C766 1.465 . S
C761 C756 1.399 . S
C761 C760 1.394 . S
C761 C762 1.516 1_565 S
C762 C761 1.516 1_545 S
C762 C763 1.502 . S
C762 C764 1.561 . S
C762 C765 1.526 . S
C763 H747 0.959 . S
C763 H748 0.959 . S
C763 H749 0.961 . S
C763 C762 1.502 . S
C764 H750 0.960 . S
C764 H751 0.961 . S
C764 H752 0.959 . S
C764 C762 1.561 . S
C765 C762 1.526 . S
C765 C766 1.396 1_545 S
C765 C770 1.390 . S
C766 C760 1.465 . S
C766 C765 1.396 1_565 S
C766 C767 1.399 . S
C767 H753 0.929 . S
C767 C766 1.399 . S
C767 C768 1.385 1_565 S
C768 H754 0.931 1_545 S
C768 C767 1.385 1_545 S
C768 C769 1.389 . S
C769 C768 1.389 . S
C769 C770 1.387 . S
C770 H755 0.930 . S
C770 C765 1.390 . S
C770 C769 1.387 . S
H771 C783 0.930 . S
H772 C785 0.930 . S
H773 C786 0.930 . S
H774 C790 0.959 . S
H775 C790 0.959 . S
H776 C790 0.961 . S
H777 C791 0.960 . S
H778 C791 0.961 1_655 S
H779 C791 0.959 . S
H780 C794 0.929 . S
H781 C795 0.931 . S
H782 C797 0.930 . S
C783 H771 0.930 . S
C783 C784 1.399 . S
C783 C788 1.399 . S
C784 C783 1.399 . S
C784 C785 1.376 . S
C785 H772 0.930 . S
C785 C784 1.376 . S
C785 C786 1.388 . S
C786 H773 0.930 . S
C786 C785 1.388 . S
C786 C787 1.390 . S
C787 C786 1.390 . S
C787 C788 1.394 . S
C787 C793 1.465 . S
C788 C783 1.399 . S
C788 C787 1.394 . S
C788 C789 1.516 1_455 S
C789 C788 1.516 1_655 S
C789 C790 1.502 . S
C789 C791 1.561 1_655 S
C789 C792 1.526 . S
C790 H774 0.959 . S
C790 H775 0.959 . S
C790 H776 0.961 . S
C790 C789 1.502 . S
C791 H777 0.960 . S
C791 H778 0.961 1_455 S
C791 H779 0.959 . S
C791 C789 1.561 1_455 S
C792 C789 1.526 . S
C792 C793 1.396 1_655 S
C792 C797 1.390 . S
C793 C787 1.465 . S
C793 C792 1.396 1_455 S
C793 C794 1.399 . S
C794 H780 0.929 . S
C794 C793 1.399 . S
C794 C795 1.385 1_455 S
C795 H781 0.931 . S
C795 C794 1.385 1_655 S
C795 C796 1.389 . S
C796 C795 1.389 . S
C796 C797 1.387 . S
C797 H782 0.930 . S
C797 C792 1.390 . S
C797 C796 1.387 . S
H798 C810 0.930 . S
H799 C812 0.930 . S
H800 C813 0.930 . S
H801 C817 0.959 . S
H802 C817 0.959 . S
H803 C817 0.961 . S
H804 C818 0.960 . S
H805 C818 0.961 . S
H806 C818 0.959 . S
H807 C821 0.929 . S
H808 C822 0.931 . S
H809 C824 0.930 . S
C810 H798 0.930 . S
C810 C811 1.399 . S
C810 C815 1.399 . S
C811 C810 1.399 . S
C811 C812 1.376 . S
C812 H799 0.930 . S
C812 C811 1.376 . S
C812 C813 1.388 . S
C813 H800 0.930 . S
C813 C812 1.388 . S
C813 C814 1.390 . S
C814 C813 1.390 . S
C814 C815 1.394 . S
C814 C820 1.465 . S
C815 C810 1.399 . S
C815 C814 1.394 . S
C815 C816 1.516 . S
C816 C815 1.516 . S
C816 C817 1.502 . S
C816 C818 1.561 . S
C816 C819 1.526 . S
C817 H801 0.959 . S
C817 H802 0.959 . S
C817 H803 0.961 . S
C817 C816 1.502 . S
C818 H804 0.960 . S
C818 H805 0.961 . S
C818 H806 0.959 . S
C818 C816 1.561 . S
C819 C816 1.526 . S
C819 C820 1.396 . S
C819 C824 1.390 . S
C820 C814 1.465 . S
C820 C819 1.396 . S
C820 C821 1.399 . S
C821 H807 0.929 . S
C821 C820 1.399 . S
C821 C822 1.385 . S
C822 H808 0.931 . S
C822 C821 1.385 . S
C822 C823 1.389 . S
C823 C822 1.389 . S
C823 C824 1.387 . S
C824 H809 0.930 . S
C824 C819 1.390 . S
C824 C823 1.387 . S
H825 C837 0.930 . S
H826 C839 0.930 . S
H827 C840 0.930 1_556 S
H828 C844 0.959 . S
H829 C844 0.959 . S
H830 C844 0.961 . S
H831 C845 0.960 . S
H832 C845 0.961 . S
H833 C845 0.959 . S
H834 C848 0.929 . S
H835 C849 0.931 . S
H836 C851 0.930 . S
C837 H825 0.930 . S
C837 C838 1.399 . S
C837 C842 1.399 . S
C838 C837 1.399 . S
C838 C839 1.376 . S
C839 H826 0.930 . S
C839 C838 1.376 . S
C839 C840 1.388 . S
C840 H827 0.930 1_554 S
C840 C839 1.388 . S
C840 C841 1.389 1_554 S
C841 C840 1.389 1_556 S
C841 C842 1.387 1_556 S
C841 C847 1.472 . S
C842 C837 1.399 . S
C842 C841 1.387 1_554 S
C842 C843 1.516 . S
C843 C842 1.516 . S
C843 C844 1.502 . S
C843 C845 1.561 . S
C843 C846 1.526 1_554 S
C844 H828 0.959 . S
C844 H829 0.959 . S
C844 H830 0.961 . S
C844 C843 1.502 . S
C845 H831 0.960 . S
C845 H832 0.961 . S
C845 H833 0.959 . S
C845 C843 1.561 . S
C846 C843 1.526 1_556 S
C846 C847 1.396 . S
C846 C851 1.390 . S
C847 C841 1.472 . S
C847 C846 1.396 . S
C847 C848 1.399 . S
C848 H834 0.929 . S
C848 C847 1.399 . S
C848 C849 1.385 . S
C849 H835 0.931 . S
C849 C848 1.385 . S
C849 C850 1.389 . S
C850 C849 1.389 . S
C850 C851 1.387 . S
C851 H836 0.930 . S
C851 C846 1.390 . S
C851 C850 1.387 . S
H852 C864 0.930 1_565 S
H853 C866 0.930 . S
H854 C867 0.930 . S
H855 C871 0.959 . S
H856 C871 0.959 . S
H857 C871 0.961 . S
H858 C872 0.960 . S
H859 C872 0.961 . S
H860 C872 0.959 . S
H861 C875 0.929 . S
H862 C876 0.931 . S
H863 C878 0.930 . S
C864 H852 0.930 1_545 S
C864 C865 1.399 . S
C864 C869 1.399 1_545 S
C865 C864 1.399 . S
C865 C866 1.376 . S
C866 H853 0.930 . S
C866 C865 1.376 . S
C866 C867 1.388 . S
C867 H854 0.930 . S
C867 C866 1.388 . S
C867 C868 1.390 . S
C868 C867 1.390 . S
C868 C869 1.394 1_545 S
C868 C874 1.465 1_545 S
C869 C864 1.399 1_565 S
C869 C868 1.394 1_565 S
C869 C870 1.516 . S
C870 C869 1.516 . S
C870 C871 1.502 . S
C870 C872 1.561 . S
C870 C873 1.526 . S
C871 H855 0.959 . S
C871 H856 0.959 . S
C871 H857 0.961 . S
C871 C870 1.502 . S
C872 H858 0.960 . S
C872 H859 0.961 . S
C872 H860 0.959 . S
C872 C870 1.561 . S
C873 C870 1.526 . S
C873 C874 1.396 . S
C873 C878 1.390 . S
C874 C868 1.465 1_565 S
C874 C873 1.396 . S
C874 C875 1.399 1_565 S
C875 H861 0.929 . S
C875 C874 1.399 1_545 S
C875 C876 1.385 1_545 S
C876 H862 0.931 . S
C876 C875 1.385 1_565 S
C876 C877 1.389 . S
C877 C876 1.389 . S
C877 C878 1.387 . S
C878 H863 0.930 . S
C878 C873 1.390 . S
C878 C877 1.387 . S
H879 C891 0.930 . S
H880 C893 0.930 . S
H881 C894 0.930 1_455 S
H882 C898 0.959 . S
H883 C898 0.959 . S
H884 C898 0.961 1_556 S
H885 C899 0.960 . S
H886 C899 0.961 . S
H887 C899 0.959 . S
H888 C902 0.929 . S
H889 C903 0.931 . S
H890 C905 0.930 . S
C891 H879 0.930 . S
C891 C892 1.399 . S
C891 C896 1.399 . S
C892 C891 1.399 . S
C892 C893 1.376 . S
C893 H880 0.930 . S
C893 C892 1.376 . S
C893 C894 1.388 . S
C894 H881 0.930 1_655 S
C894 C893 1.388 . S
C894 C895 1.390 1_655 S
C895 C894 1.390 1_455 S
C895 C896 1.394 1_455 S
C895 C901 1.465 1_556 S
C896 C891 1.399 . S
C896 C895 1.394 1_655 S
C896 C897 1.516 1_655 S
C897 C896 1.516 1_455 S
C897 C898 1.502 1_456 S
C897 C899 1.561 . S
C897 C900 1.526 1_556 S
C898 H882 0.959 . S
C898 H883 0.959 . S
C898 H884 0.961 1_554 S
C898 C897 1.502 1_654 S
C899 H885 0.960 . S
C899 H886 0.961 . S
C899 H887 0.959 . S
C899 C897 1.561 . S
C900 C897 1.526 1_554 S
C900 C901 1.396 . S
C900 C905 1.390 . S
C901 C895 1.465 1_554 S
C901 C900 1.396 . S
C901 C902 1.399 . S
C902 H888 0.929 . S
C902 C901 1.399 . S
C902 C903 1.385 . S
C903 H889 0.931 . S
C903 C902 1.385 . S
C903 C904 1.389 . S
C904 C903 1.389 . S
C904 C905 1.387 . S
C905 H890 0.930 . S
C905 C900 1.390 . S
C905 C904 1.387 . S
H906 C918 0.930 . S
H907 C920 0.930 . S
H908 C921 0.930 . S
H909 C925 0.959 . S
H910 C925 0.959 . S
H911 C925 0.961 . S
H912 C926 0.960 . S
H913 C926 0.961 . S
H914 C926 0.959 . S
H915 C929 0.929 . S
H916 C930 0.931 . S
H917 C932 0.930 . S
C918 H906 0.930 . S
C918 C919 1.399 . S
C918 C923 1.399 . S
C919 C918 1.399 . S
C919 C920 1.376 . S
C920 H907 0.930 . S
C920 C919 1.376 . S
C920 C921 1.388 . S
C921 H908 0.930 . S
C921 C920 1.388 . S
C921 C922 1.390 . S
C922 C921 1.390 . S
C922 C923 1.394 . S
C922 C928 1.465 . S
C923 C918 1.399 . S
C923 C922 1.394 . S
C923 C924 1.516 . S
C924 C923 1.516 . S
C924 C925 1.502 . S
C924 C926 1.561 . S
C924 C927 1.526 . S
C925 H909 0.959 . S
C925 H910 0.959 . S
C925 H911 0.961 . S
C925 C924 1.502 . S
C926 H912 0.960 . S
C926 H913 0.961 . S
C926 H914 0.959 . S
C926 C924 1.561 . S
C927 C924 1.526 . S
C927 C928 1.396 . S
C927 C932 1.390 . S
C928 C922 1.465 . S
C928 C927 1.396 . S
C928 C929 1.399 . S
C929 H915 0.929 . S
C929 C928 1.399 . S
C929 C930 1.385 . S
C930 H916 0.931 . S
C930 C929 1.385 . S
C930 C931 1.389 . S
C931 C930 1.389 . S
C931 C932 1.387 . S
C932 H917 0.930 . S
C932 C927 1.390 . S
C932 C931 1.387 . S
H933 C945 0.930 . S
H934 C947 0.930 . S
H935 C948 0.930 . S
H936 C952 0.959 . S
H937 C952 0.959 . S
H938 C952 0.961 . S
H939 C953 0.960 . S
H940 C953 0.961 . S
H941 C953 0.959 . S
H942 C956 0.929 . S
H943 C957 0.931 . S
H944 C959 0.930 . S
C945 H933 0.930 . S
C945 C946 1.399 . S
C945 C950 1.399 . S
C946 C945 1.399 . S
C946 C947 1.376 . S
C947 H934 0.930 . S
C947 C946 1.376 . S
C947 C948 1.388 . S
C948 H935 0.930 . S
C948 C947 1.388 . S
C948 C949 1.390 . S
C949 C948 1.390 . S
C949 C950 1.394 . S
C949 C955 1.465 . S
C950 C945 1.399 . S
C950 C949 1.394 . S
C950 C951 1.516 . S
C951 C950 1.516 . S
C951 C952 1.502 . S
C951 C953 1.561 . S
C951 C954 1.526 . S
C952 H936 0.959 . S
C952 H937 0.959 . S
C952 H938 0.961 . S
C952 C951 1.502 . S
C953 H939 0.960 . S
C953 H940 0.961 . S
C953 H941 0.959 . S
C953 C951 1.561 . S
C954 C951 1.526 . S
C954 C955 1.396 . S
C954 C959 1.390 . S
C955 C949 1.465 . S
C955 C954 1.396 . S
C955 C956 1.399 . S
C956 H942 0.929 . S
C956 C955 1.399 . S
C956 C957 1.385 . S
C957 H943 0.931 . S
C957 C956 1.385 . S
C957 C958 1.389 . S
C958 C957 1.389 . S
C958 C959 1.387 . S
C959 H944 0.930 . S
C959 C954 1.390 . S
C959 C958 1.387 . S
H960 C972 0.930 . S
H961 C974 0.930 . S
H962 C975 0.930 . S
H963 C979 0.959 . S
H964 C979 0.959 . S
H965 C979 0.961 . S
H966 C980 0.960 . S
H967 C980 0.961 . S
H968 C980 0.959 . S
H969 C983 0.929 . S
H970 C984 0.931 . S
H971 C986 0.930 . S
C972 H960 0.930 . S
C972 C973 1.399 . S
C972 C977 1.399 . S
C973 C972 1.399 . S
C973 C974 1.376 . S
C974 H961 0.930 . S
C974 C973 1.376 . S
C974 C975 1.388 . S
C975 H962 0.930 . S
C975 C974 1.388 . S
C975 C976 1.390 . S
C976 C975 1.390 . S
C976 C977 1.394 . S
C976 C982 1.465 . S
C977 C972 1.399 . S
C977 C976 1.394 . S
C977 C978 1.516 . S
C978 C977 1.516 . S
C978 C979 1.502 . S
C978 C980 1.561 . S
C978 C981 1.526 . S
C979 H963 0.959 . S
C979 H964 0.959 . S
C979 H965 0.961 . S
C979 C978 1.502 . S
C980 H966 0.960 . S
C980 H967 0.961 . S
C980 H968 0.959 . S
C980 C978 1.561 . S
C981 C978 1.526 . S
C981 C982 1.396 . S
C981 C986 1.390 . S
C982 C976 1.465 . S
C982 C981 1.396 . S
C982 C983 1.399 . S
C983 H969 0.929 . S
C983 C982 1.399 . S
C983 C984 1.385 . S
C984 H970 0.931 . S
C984 C983 1.385 . S
C984 C985 1.389 . S
C985 C984 1.389 . S
C985 C986 1.387 . S
C986 H971 0.930 . S
C986 C981 1.390 . S
C986 C985 1.387 . S
H987 C999 0.930 . S
H988 C1001 0.930 . S
H989 C1002 0.930 . S
H990 C1006 0.959 . S
H991 C1006 0.959 1_556 S
H992 C1006 0.961 . S
H993 C1007 0.960 . S
H994 C1007 0.961 . S
H995 C1007 0.959 . S
H996 C1010 0.929 . S
H997 C1011 0.931 . S
H998 C1013 0.930 . S
C999 H987 0.930 . S
C999 C1000 1.399 . S
C999 C1004 1.399 . S
C1000 C999 1.399 . S
C1000 C1001 1.376 . S
C1001 H988 0.930 . S
C1001 C1000 1.376 . S
C1001 C1002 1.388 . S
C1002 H989 0.930 . S
C1002 C1001 1.388 . S
C1002 C1003 1.390 . S
C1003 C1002 1.390 . S
C1003 C1004 1.394 . S
C1003 C1009 1.465 1_554 S
C1004 C999 1.399 . S
C1004 C1003 1.394 . S
C1004 C1005 1.516 1_554 S
C1005 C1004 1.516 1_556 S
C1005 C1006 1.502 1_556 S
C1005 C1007 1.561 . S
C1005 C1008 1.526 . S
C1006 H990 0.959 . S
C1006 H991 0.959 1_554 S
C1006 H992 0.961 . S
C1006 C1005 1.502 1_554 S
C1007 H993 0.960 . S
C1007 H994 0.961 . S
C1007 H995 0.959 . S
C1007 C1005 1.561 . S
C1008 C1005 1.526 . S
C1008 C1009 1.396 . S
C1008 C1013 1.390 . S
C1009 C1003 1.465 1_556 S
C1009 C1008 1.396 . S
C1009 C1010 1.399 . S
C1010 H996 0.929 . S
C1010 C1009 1.399 . S
C1010 C1011 1.385 . S
C1011 H997 0.931 . S
C1011 C1010 1.385 . S
C1011 C1012 1.389 . S
C1012 C1011 1.389 . S
C1012 C1013 1.387 . S
C1013 H998 0.930 . S
C1013 C1008 1.390 . S
C1013 C1012 1.387 . S
H1014 C1026 0.930 . S
H1015 C1028 0.930 . S
H1016 C1029 0.930 . S
H1017 C1033 0.959 . S
H1018 C1033 0.959 . S
H1019 C1033 0.961 . S
H1020 C1034 0.960 . S
H1021 C1034 0.961 . S
H1022 C1034 0.959 . S
H1023 C1037 0.929 . S
H1024 C1038 0.931 . S
H1025 C1040 0.930 . S
C1026 H1014 0.930 . S
C1026 C1027 1.399 . S
C1026 C1031 1.399 . S
C1027 C1026 1.399 . S
C1027 C1028 1.376 . S
C1028 H1015 0.930 . S
C1028 C1027 1.376 . S
C1028 C1029 1.388 . S
C1029 H1016 0.930 . S
C1029 C1028 1.388 . S
C1029 C1030 1.390 . S
C1030 C1029 1.390 . S
C1030 C1031 1.394 . S
C1030 C1036 1.465 . S
C1031 C1026 1.399 . S
C1031 C1030 1.394 . S
C1031 C1032 1.516 1_545 S
C1032 C1031 1.516 1_565 S
C1032 C1033 1.502 . S
C1032 C1034 1.561 . S
C1032 C1035 1.526 . S
C1033 H1017 0.959 . S
C1033 H1018 0.959 . S
C1033 H1019 0.961 . S
C1033 C1032 1.502 . S
C1034 H1020 0.960 . S
C1034 H1021 0.961 . S
C1034 H1022 0.959 . S
C1034 C1032 1.561 . S
C1035 C1032 1.526 . S
C1035 C1036 1.396 1_565 S
C1035 C1040 1.390 . S
C1036 C1030 1.465 . S
C1036 C1035 1.396 1_545 S
C1036 C1037 1.399 . S
C1037 H1023 0.929 . S
C1037 C1036 1.399 . S
C1037 C1038 1.385 1_545 S
C1038 H1024 0.931 . S
C1038 C1037 1.385 1_565 S
C1038 C1039 1.389 . S
C1039 C1038 1.389 . S
C1039 C1040 1.387 . S
C1040 H1025 0.930 . S
C1040 C1035 1.390 . S
C1040 C1039 1.387 . S
H1041 C1053 0.930 . S
H1042 C1055 0.930 . S
H1043 C1056 0.930 . S
H1044 C1060 0.959 . S
H1045 C1060 0.959 . S
H1046 C1060 0.961 . S
H1047 C1061 0.960 1_455 S
H1048 C1061 0.961 . S
H1049 C1061 0.959 . S
H1050 C1064 0.929 . S
H1051 C1065 0.931 . S
H1052 C1067 0.930 . S
C1053 H1041 0.930 . S
C1053 C1054 1.399 . S
C1053 C1058 1.399 . S
C1054 C1053 1.399 . S
C1054 C1055 1.376 . S
C1055 H1042 0.930 . S
C1055 C1054 1.376 . S
C1055 C1056 1.388 1_455 S
C1056 H1043 0.930 . S
C1056 C1055 1.388 1_655 S
C1056 C1057 1.390 . S
C1057 C1056 1.390 . S
C1057 C1058 1.394 1_655 S
C1057 C1063 1.465 . S
C1058 C1053 1.399 . S
C1058 C1057 1.394 1_455 S
C1058 C1059 1.516 . S
C1059 C1058 1.516 . S
C1059 C1060 1.502 . S
C1059 C1061 1.561 1_455 S
C1059 C1062 1.526 1_455 S
C1060 H1044 0.959 . S
C1060 H1045 0.959 . S
C1060 H1046 0.961 . S
C1060 C1059 1.502 . S
C1061 H1047 0.960 1_655 S
C1061 H1048 0.961 . S
C1061 H1049 0.959 . S
C1061 C1059 1.561 1_655 S
C1062 C1059 1.526 1_655 S
C1062 C1063 1.396 . S
C1062 C1067 1.390 . S
C1063 C1057 1.465 . S
C1063 C1062 1.396 . S
C1063 C1064 1.399 . S
C1064 H1050 0.929 . S
C1064 C1063 1.399 . S
C1064 C1065 1.385 . S
C1065 H1051 0.931 . S
C1065 C1064 1.385 . S
C1065 C1066 1.389 . S
C1066 C1065 1.389 . S
C1066 C1067 1.387 . S
C1067 H1052 0.930 . S
C1067 C1062 1.390 . S
C1067 C1066 1.387 . S
H1068 C1080 0.930 . S
H1069 C1082 0.930 . S
H1070 C1083 0.930 . S
H1071 C1087 0.959 . S
H1072 C1087 0.959 . S
H1073 C1087 0.961 . S
H1074 C1088 0.960 . S
H1075 C1088 0.961 . S
H1076 C1088 0.959 . S
H1077 C1091 0.929 . S
H1078 C1092 0.931 . S
H1079 C1094 0.930 . S
C1080 H1068 0.930 . S
C1080 C1081 1.399 . S
C1080 C1085 1.399 . S
C1081 C1080 1.399 . S
C1081 C1082 1.376 . S
C1082 H1069 0.930 . S
C1082 C1081 1.376 . S
C1082 C1083 1.388 . S
C1083 H1070 0.930 . S
C1083 C1082 1.388 . S
C1083 C1084 1.390 . S
C1084 C1083 1.390 . S
C1084 C1085 1.394 . S
C1084 C1090 1.465 . S
C1085 C1080 1.399 . S
C1085 C1084 1.394 . S
C1085 C1086 1.516 . S
C1086 C1085 1.516 . S
C1086 C1087 1.502 . S
C1086 C1088 1.561 . S
C1086 C1089 1.526 . S
C1087 H1071 0.959 . S
C1087 H1072 0.959 . S
C1087 H1073 0.961 . S
C1087 C1086 1.502 . S
C1088 H1074 0.960 . S
C1088 H1075 0.961 . S
C1088 H1076 0.959 . S
C1088 C1086 1.561 . S
C1089 C1086 1.526 . S
C1089 C1090 1.396 . S
C1089 C1094 1.390 . S
C1090 C1084 1.465 . S
C1090 C1089 1.396 . S
C1090 C1091 1.399 . S
C1091 H1077 0.929 . S
C1091 C1090 1.399 . S
C1091 C1092 1.385 . S
C1092 H1078 0.931 . S
C1092 C1091 1.385 . S
C1092 C1093 1.389 . S
C1093 C1092 1.389 . S
C1093 C1094 1.387 . S
C1094 H1079 0.930 . S
C1094 C1089 1.390 . S
C1094 C1093 1.387 . S
H1095 C1107 0.930 . S
H1096 C1109 0.930 . S
H1097 C1110 0.930 . S
H1098 C1114 0.959 . S
H1099 C1114 0.959 . S
H1100 C1114 0.961 . S
H1101 C1115 0.960 . S
H1102 C1115 0.961 . S
H1103 C1115 0.959 . S
H1104 C1118 0.929 . S
H1105 C1119 0.931 . S
H1106 C1121 0.930 . S
C1107 H1095 0.930 . S
C1107 C1108 1.399 . S
C1107 C1112 1.399 . S
C1108 C1107 1.399 . S
C1108 C1109 1.376 . S
C1109 H1096 0.930 . S
C1109 C1108 1.376 . S
C1109 C1110 1.388 . S
C1110 H1097 0.930 . S
C1110 C1109 1.388 . S
C1110 C1111 1.390 . S
C1111 C1110 1.390 . S
C1111 C1112 1.394 . S
C1111 C1117 1.465 . S
C1112 C1107 1.399 . S
C1112 C1111 1.394 . S
C1112 C1113 1.516 . S
C1113 C1112 1.516 . S
C1113 C1114 1.502 . S
C1113 C1115 1.561 . S
C1113 C1116 1.526 . S
C1114 H1098 0.959 . S
C1114 H1099 0.959 . S
C1114 H1100 0.961 . S
C1114 C1113 1.502 . S
C1115 H1101 0.960 . S
C1115 H1102 0.961 . S
C1115 H1103 0.959 . S
C1115 C1113 1.561 . S
C1116 C1113 1.526 . S
C1116 C1117 1.396 . S
C1116 C1121 1.390 . S
C1117 C1111 1.465 . S
C1117 C1116 1.396 . S
C1117 C1118 1.399 . S
C1118 H1104 0.929 . S
C1118 C1117 1.399 . S
C1118 C1119 1.385 . S
C1119 H1105 0.931 . S
C1119 C1118 1.385 . S
C1119 C1120 1.389 . S
C1120 C1119 1.389 . S
C1120 C1121 1.387 . S
C1121 H1106 0.930 . S
C1121 C1116 1.390 . S
C1121 C1120 1.387 . S
H1122 C1134 0.930 1_545 S
H1123 C1136 0.930 . S
H1124 C1137 0.930 . S
H1125 C1141 0.959 . S
H1126 C1141 0.959 . S
H1127 C1141 0.961 . S
H1128 C1142 0.960 . S
H1129 C1142 0.961 . S
H1130 C1142 0.959 . S
H1131 C1145 0.929 1_565 S
H1132 C1146 0.931 . S
H1133 C1148 0.930 . S
C1134 H1122 0.930 1_565 S
C1134 C1135 1.399 . S
C1134 C1139 1.399 1_565 S
C1135 C1134 1.399 . S
C1135 C1136 1.376 . S
C1136 H1123 0.930 . S
C1136 C1135 1.376 . S
C1136 C1137 1.388 . S
C1137 H1124 0.930 . S
C1137 C1136 1.388 . S
C1137 C1138 1.390 . S
C1138 C1137 1.390 . S
C1138 C1139 1.394 1_565 S
C1138 C1144 1.465 1_565 S
C1139 C1134 1.399 1_545 S
C1139 C1138 1.394 1_545 S
C1139 C1140 1.516 . S
C1140 C1139 1.516 . S
C1140 C1141 1.502 . S
C1140 C1142 1.561 . S
C1140 C1143 1.526 . S
C1141 H1125 0.959 . S
C1141 H1126 0.959 . S
C1141 H1127 0.961 . S
C1141 C1140 1.502 . S
C1142 H1128 0.960 . S
C1142 H1129 0.961 . S
C1142 H1130 0.959 . S
C1142 C1140 1.561 . S
C1143 C1140 1.526 . S
C1143 C1144 1.396 . S
C1143 C1148 1.390 . S
C1144 C1138 1.465 1_545 S
C1144 C1143 1.396 . S
C1144 C1145 1.399 . S
C1145 H1131 0.929 1_545 S
C1145 C1144 1.399 . S
C1145 C1146 1.385 . S
C1146 H1132 0.931 . S
C1146 C1145 1.385 . S
C1146 C1147 1.389 . S
C1147 C1146 1.389 . S
C1147 C1148 1.387 . S
C1148 H1133 0.930 . S
C1148 C1143 1.390 . S
C1148 C1147 1.387 . S
H1149 C1161 0.930 . S
H1150 C1163 0.930 . S
H1151 C1164 0.930 . S
H1152 C1168 0.959 . S
H1153 C1168 0.959 . S
H1154 C1168 0.961 . S
H1155 C1169 0.960 1_655 S
H1156 C1169 0.961 1_556 S
H1157 C1169 0.959 . S
H1158 C1172 0.929 . S
H1159 C1173 0.931 . S
H1160 C1175 0.930 . S
C1161 H1149 0.930 . S
C1161 C1162 1.399 . S
C1161 C1166 1.399 . S
C1162 C1161 1.399 . S
C1162 C1163 1.376 . S
C1163 H1150 0.930 . S
C1163 C1162 1.376 . S
C1163 C1164 1.388 . S
C1164 H1151 0.930 . S
C1164 C1163 1.388 . S
C1164 C1165 1.390 . S
C1165 C1164 1.390 . S
C1165 C1166 1.394 . S
C1165 C1171 1.465 1_654 S
C1166 C1161 1.399 . S
C1166 C1165 1.394 . S
C1166 C1167 1.516 1_554 S
C1167 C1166 1.516 1_556 S
C1167 C1168 1.502 . S
C1167 C1169 1.561 1_656 S
C1167 C1170 1.526 1_655 S
C1168 H1152 0.959 . S
C1168 H1153 0.959 . S
C1168 H1154 0.961 . S
C1168 C1167 1.502 . S
C1169 H1155 0.960 1_455 S
C1169 H1156 0.961 1_554 S
C1169 H1157 0.959 . S
C1169 C1167 1.561 1_454 S
C1170 C1167 1.526 1_455 S
C1170 C1171 1.396 . S
C1170 C1175 1.390 . S
C1171 C1165 1.465 1_456 S
C1171 C1170 1.396 . S
C1171 C1172 1.399 . S
C1172 H1158 0.929 . S
C1172 C1171 1.399 . S
C1172 C1173 1.385 . S
C1173 H1159 0.931 . S
C1173 C1172 1.385 . S
C1173 C1174 1.389 . S
C1174 C1173 1.389 . S
C1174 C1175 1.387 . S
C1175 H1160 0.930 . S
C1175 C1170 1.390 . S
C1175 C1174 1.387 . S
H1176 C1188 0.930 . S
H1177 C1190 0.930 . S
H1178 C1191 0.930 . S
H1179 C1195 0.959 . S
H1180 C1195 0.959 . S
H1181 C1195 0.961 . S
H1182 C1196 0.960 . S
H1183 C1196 0.961 . S
H1184 C1196 0.959 . S
H1185 C1199 0.929 1_556 S
H1186 C1200 0.931 1_556 S
H1187 C1202 0.930 . S
C1188 H1176 0.930 . S
C1188 C1189 1.399 . S
C1188 C1193 1.399 . S
C1189 C1188 1.399 . S
C1189 C1190 1.376 . S
C1190 H1177 0.930 . S
C1190 C1189 1.376 . S
C1190 C1191 1.388 . S
C1191 H1178 0.930 . S
C1191 C1190 1.388 . S
C1191 C1192 1.390 . S
C1192 C1191 1.390 . S
C1192 C1193 1.394 . S
C1192 C1198 1.465 . S
C1193 C1188 1.399 . S
C1193 C1192 1.394 . S
C1193 C1194 1.516 . S
C1194 C1193 1.516 . S
C1194 C1195 1.502 . S
C1194 C1196 1.561 . S
C1194 C1197 1.526 . S
C1195 H1179 0.959 . S
C1195 H1180 0.959 . S
C1195 H1181 0.961 . S
C1195 C1194 1.502 . S
C1196 H1182 0.960 . S
C1196 H1183 0.961 . S
C1196 H1184 0.959 . S
C1196 C1194 1.561 . S
C1197 C1194 1.526 . S
C1197 C1198 1.396 . S
C1197 C1202 1.390 . S
C1198 C1192 1.465 . S
C1198 C1197 1.396 . S
C1198 C1199 1.399 . S
C1199 H1185 0.929 1_554 S
C1199 C1198 1.399 . S
C1199 C1200 1.385 . S
C1200 H1186 0.931 1_554 S
C1200 C1199 1.385 . S
C1200 C1201 1.389 . S
C1201 C1200 1.389 . S
C1201 C1202 1.387 . S
C1202 H1187 0.930 . S
C1202 C1197 1.390 . S
C1202 C1201 1.387 . S
H1203 C1215 0.930 . S
H1204 C1217 0.930 . S
H1205 C1218 0.930 . S
H1206 C1222 0.959 . S
H1207 C1222 0.959 . S
H1208 C1222 0.961 . S
H1209 C1223 0.960 . S
H1210 C1223 0.961 . S
H1211 C1223 0.959 . S
H1212 C1226 0.929 . S
H1213 C1227 0.931 . S
H1214 C1229 0.930 . S
C1215 H1203 0.930 . S
C1215 C1216 1.399 . S
C1215 C1220 1.399 . S
C1216 C1215 1.399 . S
C1216 C1217 1.376 . S
C1217 H1204 0.930 . S
C1217 C1216 1.376 . S
C1217 C1218 1.388 . S
C1218 H1205 0.930 . S
C1218 C1217 1.388 . S
C1218 C1219 1.390 . S
C1219 C1218 1.390 . S
C1219 C1220 1.394 . S
C1219 C1225 1.465 . S
C1220 C1215 1.399 . S
C1220 C1219 1.394 . S
C1220 C1221 1.516 . S
C1221 C1220 1.516 . S
C1221 C1222 1.502 . S
C1221 C1223 1.561 . S
C1221 C1224 1.526 . S
C1222 H1206 0.959 . S
C1222 H1207 0.959 . S
C1222 H1208 0.961 . S
C1222 C1221 1.502 . S
C1223 H1209 0.960 . S
C1223 H1210 0.961 . S
C1223 H1211 0.959 . S
C1223 C1221 1.561 . S
C1224 C1221 1.526 . S
C1224 C1225 1.396 . S
C1224 C1229 1.390 . S
C1225 C1219 1.465 . S
C1225 C1224 1.396 . S
C1225 C1226 1.399 . S
C1226 H1212 0.929 . S
C1226 C1225 1.399 . S
C1226 C1227 1.385 . S
C1227 H1213 0.931 . S
C1227 C1226 1.385 . S
C1227 C1228 1.389 . S
C1228 C1227 1.389 . S
C1228 C1229 1.387 . S
C1229 H1214 0.930 . S
C1229 C1224 1.390 . S
C1229 C1228 1.387 . S
H1230 C1242 0.930 . S
H1231 C1244 0.930 . S
H1232 C1245 0.930 . S
H1233 C1249 0.959 . S
H1234 C1249 0.959 . S
H1235 C1249 0.961 . S
H1236 C1250 0.960 . S
H1237 C1250 0.961 . S
H1238 C1250 0.959 . S
H1239 C1253 0.929 . S
H1240 C1254 0.931 . S
H1241 C1256 0.930 . S
C1242 H1230 0.930 . S
C1242 C1243 1.399 . S
C1242 C1247 1.399 . S
C1243 C1242 1.399 . S
C1243 C1244 1.376 . S
C1244 H1231 0.930 . S
C1244 C1243 1.376 . S
C1244 C1245 1.388 . S
C1245 H1232 0.930 . S
C1245 C1244 1.388 . S
C1245 C1246 1.390 . S
C1246 C1245 1.390 . S
C1246 C1247 1.394 . S
C1246 C1252 1.465 . S
C1247 C1242 1.399 . S
C1247 C1246 1.394 . S
C1247 C1248 1.516 . S
C1248 C1247 1.516 . S
C1248 C1249 1.502 . S
C1248 C1250 1.561 . S
C1248 C1251 1.526 . S
C1249 H1233 0.959 . S
C1249 H1234 0.959 . S
C1249 H1235 0.961 . S
C1249 C1248 1.502 . S
C1250 H1236 0.960 . S
C1250 H1237 0.961 . S
C1250 H1238 0.959 . S
C1250 C1248 1.561 . S
C1251 C1248 1.526 . S
C1251 C1252 1.396 . S
C1251 C1256 1.390 . S
C1252 C1246 1.465 . S
C1252 C1251 1.396 . S
C1252 C1253 1.399 . S
C1253 H1239 0.929 . S
C1253 C1252 1.399 . S
C1253 C1254 1.385 . S
C1254 H1240 0.931 . S
C1254 C1253 1.385 . S
C1254 C1255 1.389 . S
C1255 C1254 1.389 . S
C1255 C1256 1.387 . S
C1256 H1241 0.930 . S
C1256 C1251 1.390 . S
C1256 C1255 1.387 . S
H1257 C1269 0.930 . S
H1258 C1271 0.930 . S
H1259 C1272 0.930 . S
H1260 C1276 0.959 . S
H1261 C1276 0.959 . S
H1262 C1276 0.961 . S
H1263 C1277 0.960 . S
H1264 C1277 0.961 . S
H1265 C1277 0.959 . S
H1266 C1280 0.929 . S
H1267 C1281 0.931 1_554 S
H1268 C1283 0.930 . S
C1269 H1257 0.930 . S
C1269 C1270 1.399 . S
C1269 C1274 1.399 . S
C1270 C1269 1.399 . S
C1270 C1271 1.376 . S
C1271 H1258 0.930 . S
C1271 C1270 1.376 . S
C1271 C1272 1.388 . S
C1272 H1259 0.930 . S
C1272 C1271 1.388 . S
C1272 C1273 1.390 . S
C1273 C1272 1.390 . S
C1273 C1274 1.394 . S
C1273 C1279 1.465 . S
C1274 C1269 1.399 . S
C1274 C1273 1.394 . S
C1274 C1275 1.516 . S
C1275 C1274 1.516 . S
C1275 C1276 1.502 . S
C1275 C1277 1.561 . S
C1275 C1278 1.526 . S
C1276 H1260 0.959 . S
C1276 H1261 0.959 . S
C1276 H1262 0.961 . S
C1276 C1275 1.502 . S
C1277 H1263 0.960 . S
C1277 H1264 0.961 . S
C1277 H1265 0.959 . S
C1277 C1275 1.561 . S
C1278 C1275 1.526 . S
C1278 C1279 1.396 . S
C1278 C1283 1.390 . S
C1279 C1273 1.465 . S
C1279 C1278 1.396 . S
C1279 C1280 1.399 . S
C1280 H1266 0.929 . S
C1280 C1279 1.399 . S
C1280 C1281 1.385 . S
C1281 H1267 0.931 1_556 S
C1281 C1280 1.385 . S
C1281 C1282 1.389 . S
C1282 C1281 1.389 . S
C1282 C1283 1.387 . S
C1283 H1268 0.930 . S
C1283 C1278 1.390 . S
C1283 C1282 1.387 . S
H1284 C1296 0.930 . S
H1285 C1298 0.930 . S
H1286 C1299 0.930 . S
H1287 C1303 0.959 . S
H1288 C1303 0.959 . S
H1289 C1303 0.961 . S
H1290 C1304 0.960 . S
H1291 C1304 0.961 . S
H1292 C1304 0.959 . S
H1293 C1307 0.929 . S
H1294 C1308 0.931 . S
H1295 C1310 0.930 . S
C1296 H1284 0.930 . S
C1296 C1297 1.399 . S
C1296 C1301 1.399 . S
C1297 C1296 1.399 . S
C1297 C1298 1.376 . S
C1298 H1285 0.930 . S
C1298 C1297 1.376 . S
C1298 C1299 1.388 . S
C1299 H1286 0.930 . S
C1299 C1298 1.388 . S
C1299 C1300 1.390 . S
C1300 C1299 1.390 . S
C1300 C1301 1.394 . S
C1300 C1306 1.465 . S
C1301 C1296 1.399 . S
C1301 C1300 1.394 . S
C1301 C1302 1.516 . S
C1302 C1301 1.516 . S
C1302 C1303 1.502 . S
C1302 C1304 1.561 . S
C1302 C1305 1.526 . S
C1303 H1287 0.959 . S
C1303 H1288 0.959 . S
C1303 H1289 0.961 . S
C1303 C1302 1.502 . S
C1304 H1290 0.960 . S
C1304 H1291 0.961 . S
C1304 H1292 0.959 . S
C1304 C1302 1.561 . S
C1305 C1302 1.526 . S
C1305 C1306 1.396 . S
C1305 C1310 1.390 . S
C1306 C1300 1.465 . S
C1306 C1305 1.396 . S
C1306 C1307 1.399 . S
C1307 H1293 0.929 . S
C1307 C1306 1.399 . S
C1307 C1308 1.385 . S
C1308 H1294 0.931 . S
C1308 C1307 1.385 . S
C1308 C1309 1.389 . S
C1309 C1308 1.389 . S
C1309 C1310 1.387 . S
C1310 H1295 0.930 . S
C1310 C1305 1.390 . S
C1310 C1309 1.387 . S
H1311 C1323 0.930 . S
H1312 C1325 0.930 . S
H1313 C1326 0.930 . S
H1314 C1330 0.959 . S
H1315 C1330 0.959 . S
H1316 C1330 0.961 . S
H1317 C1331 0.960 . S
H1318 C1331 0.961 . S
H1319 C1331 0.959 . S
H1320 C1334 0.929 . S
H1321 C1335 0.931 . S
H1322 C1337 0.930 . S
C1323 H1311 0.930 . S
C1323 C1324 1.399 . S
C1323 C1328 1.399 . S
C1324 C1323 1.399 . S
C1324 C1325 1.376 . S
C1325 H1312 0.930 . S
C1325 C1324 1.376 . S
C1325 C1326 1.388 . S
C1326 H1313 0.930 . S
C1326 C1325 1.388 . S
C1326 C1327 1.390 . S
C1327 C1326 1.390 . S
C1327 C1328 1.394 . S
C1327 C1333 1.465 . S
C1328 C1323 1.399 . S
C1328 C1327 1.394 . S
C1328 C1329 1.516 . S
C1329 C1328 1.516 . S
C1329 C1330 1.502 . S
C1329 C1331 1.561 . S
C1329 C1332 1.526 . S
C1330 H1314 0.959 . S
C1330 H1315 0.959 . S
C1330 H1316 0.961 . S
C1330 C1329 1.502 . S
C1331 H1317 0.960 . S
C1331 H1318 0.961 . S
C1331 H1319 0.959 . S
C1331 C1329 1.561 . S
C1332 C1329 1.526 . S
C1332 C1333 1.396 . S
C1332 C1337 1.390 . S
C1333 C1327 1.465 . S
C1333 C1332 1.396 . S
C1333 C1334 1.399 . S
C1334 H1320 0.929 . S
C1334 C1333 1.399 . S
C1334 C1335 1.385 . S
C1335 H1321 0.931 . S
C1335 C1334 1.385 . S
C1335 C1336 1.389 . S
C1336 C1335 1.389 . S
C1336 C1337 1.387 . S
C1337 H1322 0.930 . S
C1337 C1332 1.390 . S
C1337 C1336 1.387 . S
H1338 C1350 0.930 . S
H1339 C1352 0.930 . S
H1340 C1353 0.930 . S
H1341 C1357 0.959 . S
H1342 C1357 0.959 . S
H1343 C1357 0.961 . S
H1344 C1358 0.960 . S
H1345 C1358 0.961 . S
H1346 C1358 0.959 . S
H1347 C1361 0.929 . S
H1348 C1362 0.931 1_556 S
H1349 C1364 0.930 . S
C1350 H1338 0.930 . S
C1350 C1351 1.399 . S
C1350 C1355 1.399 . S
C1351 C1350 1.399 . S
C1351 C1352 1.376 . S
C1352 H1339 0.930 . S
C1352 C1351 1.376 . S
C1352 C1353 1.388 . S
C1353 H1340 0.930 . S
C1353 C1352 1.388 . S
C1353 C1354 1.390 . S
C1354 C1353 1.390 . S
C1354 C1355 1.394 . S
C1354 C1360 1.465 . S
C1355 C1350 1.399 . S
C1355 C1354 1.394 . S
C1355 C1356 1.516 . S
C1356 C1355 1.516 . S
C1356 C1357 1.502 . S
C1356 C1358 1.561 . S
C1356 C1359 1.526 . S
C1357 H1341 0.959 . S
C1357 H1342 0.959 . S
C1357 H1343 0.961 . S
C1357 C1356 1.502 . S
C1358 H1344 0.960 . S
C1358 H1345 0.961 . S
C1358 H1346 0.959 . S
C1358 C1356 1.561 . S
C1359 C1356 1.526 . S
C1359 C1360 1.396 . S
C1359 C1364 1.390 . S
C1360 C1354 1.465 . S
C1360 C1359 1.396 . S
C1360 C1361 1.399 . S
C1361 H1347 0.929 . S
C1361 C1360 1.399 . S
C1361 C1362 1.385 . S
C1362 H1348 0.931 1_554 S
C1362 C1361 1.385 . S
C1362 C1363 1.389 . S
C1363 C1362 1.389 . S
C1363 C1364 1.387 . S
C1364 H1349 0.930 . S
C1364 C1359 1.390 . S
C1364 C1363 1.387 . S
H1365 C1377 0.930 . S
H1366 C1379 0.930 . S
H1367 C1380 0.930 . S
H1368 C1384 0.959 . S
H1369 C1384 0.959 . S
H1370 C1384 0.961 . S
H1371 C1385 0.960 . S
H1372 C1385 0.961 . S
H1373 C1385 0.959 . S
H1374 C1388 0.929 . S
H1375 C1389 0.931 . S
H1376 C1391 0.930 . S
C1377 H1365 0.930 . S
C1377 C1378 1.399 . S
C1377 C1382 1.399 . S
C1378 C1377 1.399 . S
C1378 C1379 1.376 . S
C1379 H1366 0.930 . S
C1379 C1378 1.376 . S
C1379 C1380 1.388 . S
C1380 H1367 0.930 . S
C1380 C1379 1.388 . S
C1380 C1381 1.390 . S
C1381 C1380 1.390 . S
C1381 C1382 1.394 . S
C1381 C1387 1.465 . S
C1382 C1377 1.399 . S
C1382 C1381 1.394 . S
C1382 C1383 1.516 . S
C1383 C1382 1.516 . S
C1383 C1384 1.502 . S
C1383 C1385 1.561 . S
C1383 C1386 1.526 . S
C1384 H1368 0.959 . S
C1384 H1369 0.959 . S
C1384 H1370 0.961 . S
C1384 C1383 1.502 . S
C1385 H1371 0.960 . S
C1385 H1372 0.961 . S
C1385 H1373 0.959 . S
C1385 C1383 1.561 . S
C1386 C1383 1.526 . S
C1386 C1387 1.396 . S
C1386 C1391 1.390 . S
C1387 C1381 1.465 . S
C1387 C1386 1.396 . S
C1387 C1388 1.399 . S
C1388 H1374 0.929 . S
C1388 C1387 1.399 . S
C1388 C1389 1.385 . S
C1389 H1375 0.931 . S
C1389 C1388 1.385 . S
C1389 C1390 1.389 . S
C1390 C1389 1.389 . S
C1390 C1391 1.387 . S
C1391 H1376 0.930 . S
C1391 C1386 1.390 . S
C1391 C1390 1.387 . S
H1392 C1404 0.930 . S
H1393 C1406 0.930 . S
H1394 C1407 0.930 . S
H1395 C1411 0.959 . S
H1396 C1411 0.959 . S
H1397 C1411 0.961 . S
H1398 C1412 0.960 . S
H1399 C1412 0.961 . S
H1400 C1412 0.959 . S
H1401 C1415 0.929 . S
H1402 C1416 0.931 . S
H1403 C1418 0.930 . S
C1404 H1392 0.930 . S
C1404 C1405 1.399 . S
C1404 C1409 1.399 . S
C1405 C1404 1.399 . S
C1405 C1406 1.376 . S
C1406 H1393 0.930 . S
C1406 C1405 1.376 . S
C1406 C1407 1.388 . S
C1407 H1394 0.930 . S
C1407 C1406 1.388 . S
C1407 C1408 1.390 . S
C1408 C1407 1.390 . S
C1408 C1409 1.394 . S
C1408 C1414 1.465 . S
C1409 C1404 1.399 . S
C1409 C1408 1.394 . S
C1409 C1410 1.516 . S
C1410 C1409 1.516 . S
C1410 C1411 1.502 . S
C1410 C1412 1.561 . S
C1410 C1413 1.526 . S
C1411 H1395 0.959 . S
C1411 H1396 0.959 . S
C1411 H1397 0.961 . S
C1411 C1410 1.502 . S
C1412 H1398 0.960 . S
C1412 H1399 0.961 . S
C1412 H1400 0.959 . S
C1412 C1410 1.561 . S
C1413 C1410 1.526 . S
C1413 C1414 1.396 . S
C1413 C1418 1.390 . S
C1414 C1408 1.465 . S
C1414 C1413 1.396 . S
C1414 C1415 1.399 . S
C1415 H1401 0.929 . S
C1415 C1414 1.399 . S
C1415 C1416 1.385 . S
C1416 H1402 0.931 . S
C1416 C1415 1.385 . S
C1416 C1417 1.389 . S
C1417 C1416 1.389 . S
C1417 C1418 1.387 . S
C1418 H1403 0.930 . S
C1418 C1413 1.390 . S
C1418 C1417 1.387 . S
H1419 C1431 0.930 . S
H1420 C1433 0.930 . S
H1421 C1434 0.930 . S
H1422 C1438 0.959 . S
H1423 C1438 0.959 . S
H1424 C1438 0.961 . S
H1425 C1439 0.960 . S
H1426 C1439 0.961 . S
H1427 C1439 0.959 . S
H1428 C1442 0.929 . S
H1429 C1443 0.931 . S
H1430 C1445 0.930 . S
C1431 H1419 0.930 . S
C1431 C1432 1.399 . S
C1431 C1436 1.399 . S
C1432 C1431 1.399 . S
C1432 C1433 1.376 . S
C1433 H1420 0.930 . S
C1433 C1432 1.376 . S
C1433 C1434 1.388 . S
C1434 H1421 0.930 . S
C1434 C1433 1.388 . S
C1434 C1435 1.390 . S
C1435 C1434 1.390 . S
C1435 C1436 1.394 . S
C1435 C1441 1.465 . S
C1436 C1431 1.399 . S
C1436 C1435 1.394 . S
C1436 C1437 1.516 . S
C1437 C1436 1.516 . S
C1437 C1438 1.502 . S
C1437 C1439 1.561 . S
C1437 C1440 1.526 . S
C1438 H1422 0.959 . S
C1438 H1423 0.959 . S
C1438 H1424 0.961 . S
C1438 C1437 1.502 . S
C1439 H1425 0.960 . S
C1439 H1426 0.961 . S
C1439 H1427 0.959 . S
C1439 C1437 1.561 . S
C1440 C1437 1.526 . S
C1440 C1441 1.396 . S
C1440 C1445 1.390 . S
C1441 C1435 1.465 . S
C1441 C1440 1.396 . S
C1441 C1442 1.399 . S
C1442 H1428 0.929 . S
C1442 C1441 1.399 . S
C1442 C1443 1.385 . S
C1443 H1429 0.931 . S
C1443 C1442 1.385 . S
C1443 C1444 1.389 . S
C1444 C1443 1.389 . S
C1444 C1445 1.387 . S
C1445 H1430 0.930 . S
C1445 C1440 1.390 . S
C1445 C1444 1.387 . S
H1446 C1458 0.930 . S
H1447 C1460 0.930 . S
H1448 C1461 0.930 . S
H1449 C1465 0.959 . S
H1450 C1465 0.959 . S
H1451 C1465 0.961 . S
H1452 C1466 0.960 . S
H1453 C1466 0.961 . S
H1454 C1466 0.959 . S
H1455 C1469 0.929 . S
H1456 C1470 0.931 . S
H1457 C1472 0.930 . S
C1458 H1446 0.930 . S
C1458 C1459 1.399 . S
C1458 C1463 1.399 . S
C1459 C1458 1.399 . S
C1459 C1460 1.376 . S
C1460 H1447 0.930 . S
C1460 C1459 1.376 . S
C1460 C1461 1.388 . S
C1461 H1448 0.930 . S
C1461 C1460 1.388 . S
C1461 C1462 1.390 . S
C1462 C1461 1.390 . S
C1462 C1463 1.394 . S
C1462 C1468 1.465 . S
C1463 C1458 1.399 . S
C1463 C1462 1.394 . S
C1463 C1464 1.516 . S
C1464 C1463 1.516 . S
C1464 C1465 1.502 . S
C1464 C1466 1.561 . S
C1464 C1467 1.526 . S
C1465 H1449 0.959 . S
C1465 H1450 0.959 . S
C1465 H1451 0.961 . S
C1465 C1464 1.502 . S
C1466 H1452 0.960 . S
C1466 H1453 0.961 . S
C1466 H1454 0.959 . S
C1466 C1464 1.561 . S
C1467 C1464 1.526 . S
C1467 C1468 1.396 . S
C1467 C1472 1.390 . S
C1468 C1462 1.465 . S
C1468 C1467 1.396 . S
C1468 C1469 1.399 . S
C1469 H1455 0.929 . S
C1469 C1468 1.399 . S
C1469 C1470 1.385 . S
C1470 H1456 0.931 . S
C1470 C1469 1.385 . S
C1470 C1471 1.389 . S
C1471 C1470 1.389 . S
C1471 C1472 1.387 . S
C1472 H1457 0.930 . S
C1472 C1467 1.390 . S
C1472 C1471 1.387 . S
H1473 C1485 0.930 . S
H1474 C1487 0.930 . S
H1475 C1488 0.930 . S
H1476 C1492 0.959 . S
H1477 C1492 0.959 . S
H1478 C1492 0.961 . S
H1479 C1493 0.960 . S
H1480 C1493 0.961 . S
H1481 C1493 0.959 . S
H1482 C1496 0.929 . S
H1483 C1497 0.931 . S
H1484 C1499 0.930 . S
C1485 H1473 0.930 . S
C1485 C1486 1.399 . S
C1485 C1490 1.399 . S
C1486 C1485 1.399 . S
C1486 C1487 1.376 . S
C1487 H1474 0.930 . S
C1487 C1486 1.376 . S
C1487 C1488 1.388 . S
C1488 H1475 0.930 . S
C1488 C1487 1.388 . S
C1488 C1489 1.390 . S
C1489 C1488 1.390 . S
C1489 C1490 1.394 . S
C1489 C1495 1.465 . S
C1490 C1485 1.399 . S
C1490 C1489 1.394 . S
C1490 C1491 1.516 . S
C1491 C1490 1.516 . S
C1491 C1492 1.502 . S
C1491 C1493 1.561 . S
C1491 C1494 1.526 . S
C1492 H1476 0.959 . S
C1492 H1477 0.959 . S
C1492 H1478 0.961 . S
C1492 C1491 1.502 . S
C1493 H1479 0.960 . S
C1493 H1480 0.961 . S
C1493 H1481 0.959 . S
C1493 C1491 1.561 . S
C1494 C1491 1.526 . S
C1494 C1495 1.396 . S
C1494 C1499 1.390 . S
C1495 C1489 1.465 . S
C1495 C1494 1.396 . S
C1495 C1496 1.399 . S
C1496 H1482 0.929 . S
C1496 C1495 1.399 . S
C1496 C1497 1.385 . S
C1497 H1483 0.931 . S
C1497 C1496 1.385 . S
C1497 C1498 1.389 . S
C1498 C1497 1.389 . S
C1498 C1499 1.387 . S
C1499 H1484 0.930 . S
C1499 C1494 1.390 . S
C1499 C1498 1.387 . S
H1500 C1512 0.930 . S
H1501 C1514 0.930 . S
H1502 C1515 0.930 . S
H1503 C1519 0.959 . S
H1504 C1519 0.959 . S
H1505 C1519 0.961 . S
H1506 C1520 0.960 . S
H1507 C1520 0.961 . S
H1508 C1520 0.959 . S
H1509 C1523 0.929 . S
H1510 C1524 0.931 1_556 S
H1511 C1526 0.930 . S
C1512 H1500 0.930 . S
C1512 C1513 1.399 . S
C1512 C1517 1.399 . S
C1513 C1512 1.399 . S
C1513 C1514 1.376 . S
C1514 H1501 0.930 . S
C1514 C1513 1.376 . S
C1514 C1515 1.388 . S
C1515 H1502 0.930 . S
C1515 C1514 1.388 . S
C1515 C1516 1.390 . S
C1516 C1515 1.390 . S
C1516 C1517 1.394 . S
C1516 C1522 1.465 . S
C1517 C1512 1.399 . S
C1517 C1516 1.394 . S
C1517 C1518 1.516 . S
C1518 C1517 1.516 . S
C1518 C1519 1.502 . S
C1518 C1520 1.561 . S
C1518 C1521 1.526 . S
C1519 H1503 0.959 . S
C1519 H1504 0.959 . S
C1519 H1505 0.961 . S
C1519 C1518 1.502 . S
C1520 H1506 0.960 . S
C1520 H1507 0.961 . S
C1520 H1508 0.959 . S
C1520 C1518 1.561 . S
C1521 C1518 1.526 . S
C1521 C1522 1.396 . S
C1521 C1526 1.390 . S
C1522 C1516 1.465 . S
C1522 C1521 1.396 . S
C1522 C1523 1.399 . S
C1523 H1509 0.929 . S
C1523 C1522 1.399 . S
C1523 C1524 1.385 . S
C1524 H1510 0.931 1_554 S
C1524 C1523 1.385 . S
C1524 C1525 1.389 . S
C1525 C1524 1.389 . S
C1525 C1526 1.387 . S
C1526 H1511 0.930 . S
C1526 C1521 1.390 . S
C1526 C1525 1.387 . S
H1527 C1539 0.930 . S
H1528 C1541 0.930 . S
H1529 C1542 0.930 . S
H1530 C1546 0.959 . S
H1531 C1546 0.959 . S
H1532 C1546 0.961 . S
H1533 C1547 0.960 . S
H1534 C1547 0.961 . S
H1535 C1547 0.959 . S
H1536 C1550 0.929 . S
H1537 C1551 0.931 . S
H1538 C1553 0.930 . S
C1539 H1527 0.930 . S
C1539 C1540 1.399 . S
C1539 C1544 1.399 . S
C1540 C1539 1.399 . S
C1540 C1541 1.376 . S
C1541 H1528 0.930 . S
C1541 C1540 1.376 . S
C1541 C1542 1.388 . S
C1542 H1529 0.930 . S
C1542 C1541 1.388 . S
C1542 C1543 1.390 . S
C1543 C1542 1.390 . S
C1543 C1544 1.394 . S
C1543 C1549 1.465 . S
C1544 C1539 1.399 . S
C1544 C1543 1.394 . S
C1544 C1545 1.516 . S
C1545 C1544 1.516 . S
C1545 C1546 1.502 . S
C1545 C1547 1.561 . S
C1545 C1548 1.526 . S
C1546 H1530 0.959 . S
C1546 H1531 0.959 . S
C1546 H1532 0.961 . S
C1546 C1545 1.502 . S
C1547 H1533 0.960 . S
C1547 H1534 0.961 . S
C1547 H1535 0.959 . S
C1547 C1545 1.561 . S
C1548 C1545 1.526 . S
C1548 C1549 1.396 . S
C1548 C1553 1.390 . S
C1549 C1543 1.465 . S
C1549 C1548 1.396 . S
C1549 C1550 1.399 . S
C1550 H1536 0.929 . S
C1550 C1549 1.399 . S
C1550 C1551 1.385 . S
C1551 H1537 0.931 . S
C1551 C1550 1.385 . S
C1551 C1552 1.389 . S
C1552 C1551 1.389 . S
C1552 C1553 1.387 . S
C1553 H1538 0.930 . S
C1553 C1548 1.390 . S
C1553 C1552 1.387 . S
H1554 C1566 0.930 . S
H1555 C1568 0.930 . S
H1556 C1569 0.930 . S
H1557 C1573 0.959 . S
H1558 C1573 0.959 . S
H1559 C1573 0.961 . S
H1560 C1574 0.960 . S
H1561 C1574 0.961 . S
H1562 C1574 0.959 . S
H1563 C1577 0.929 . S
H1564 C1578 0.931 . S
H1565 C1580 0.930 . S
C1566 H1554 0.930 . S
C1566 C1567 1.399 . S
C1566 C1571 1.399 . S
C1567 C1566 1.399 . S
C1567 C1568 1.376 . S
C1568 H1555 0.930 . S
C1568 C1567 1.376 . S
C1568 C1569 1.388 . S
C1569 H1556 0.930 . S
C1569 C1568 1.388 . S
C1569 C1570 1.390 . S
C1570 C1569 1.390 . S
C1570 C1571 1.394 . S
C1570 C1576 1.465 . S
C1571 C1566 1.399 . S
C1571 C1570 1.394 . S
C1571 C1572 1.516 . S
C1572 C1571 1.516 . S
C1572 C1573 1.502 . S
C1572 C1574 1.561 . S
C1572 C1575 1.526 . S
C1573 H1557 0.959 . S
C1573 H1558 0.959 . S
C1573 H1559 0.961 . S
C1573 C1572 1.502 . S
C1574 H1560 0.960 . S
C1574 H1561 0.961 . S
C1574 H1562 0.959 . S
C1574 C1572 1.561 . S
C1575 C1572 1.526 . S
C1575 C1576 1.396 . S
C1575 C1580 1.390 . S
C1576 C1570 1.465 . S
C1576 C1575 1.396 . S
C1576 C1577 1.399 . S
C1577 H1563 0.929 . S
C1577 C1576 1.399 . S
C1577 C1578 1.385 . S
C1578 H1564 0.931 . S
C1578 C1577 1.385 . S
C1578 C1579 1.389 . S
C1579 C1578 1.389 . S
C1579 C1580 1.387 . S
C1580 H1565 0.930 . S
C1580 C1575 1.390 . S
C1580 C1579 1.387 . S
H1581 C1593 0.930 . S
H1582 C1595 0.930 . S
H1583 C1596 0.930 . S
H1584 C1600 0.959 . S
H1585 C1600 0.959 . S
H1586 C1600 0.961 . S
H1587 C1601 0.960 . S
H1588 C1601 0.961 . S
H1589 C1601 0.959 . S
H1590 C1604 0.929 . S
H1591 C1605 0.931 . S
H1592 C1607 0.930 . S
C1593 H1581 0.930 . S
C1593 C1594 1.399 . S
C1593 C1598 1.399 . S
C1594 C1593 1.399 . S
C1594 C1595 1.376 . S
C1595 H1582 0.930 . S
C1595 C1594 1.376 . S
C1595 C1596 1.388 . S
C1596 H1583 0.930 . S
C1596 C1595 1.388 . S
C1596 C1597 1.390 . S
C1597 C1596 1.390 . S
C1597 C1598 1.394 . S
C1597 C1603 1.465 . S
C1598 C1593 1.399 . S
C1598 C1597 1.394 . S
C1598 C1599 1.516 . S
C1599 C1598 1.516 . S
C1599 C1600 1.502 . S
C1599 C1601 1.561 . S
C1599 C1602 1.526 . S
C1600 H1584 0.959 . S
C1600 H1585 0.959 . S
C1600 H1586 0.961 . S
C1600 C1599 1.502 . S
C1601 H1587 0.960 . S
C1601 H1588 0.961 . S
C1601 H1589 0.959 . S
C1601 C1599 1.561 . S
C1602 C1599 1.526 . S
C1602 C1603 1.396 . S
C1602 C1607 1.390 . S
C1603 C1597 1.465 . S
C1603 C1602 1.396 . S
C1603 C1604 1.399 . S
C1604 H1590 0.929 . S
C1604 C1603 1.399 . S
C1604 C1605 1.385 . S
C1605 H1591 0.931 . S
C1605 C1604 1.385 . S
C1605 C1606 1.389 . S
C1606 C1605 1.389 . S
C1606 C1607 1.387 . S
C1607 H1592 0.930 . S
C1607 C1602 1.390 . S
C1607 C1606 1.387 . S
C541 N344 1.516 . S
C553 N14 1.521 . S
C568 N47 1.518 . S
C580 N377 1.522 . S
C595 N278 1.572 . S
C607 N80 1.568 . S
C622 N113 1.509 . S
C634 N311 1.512 . S
C649 N476 1.564 . S
C661 N146 1.577 . S
C676 N179 1.573 . S
C688 N509 1.576 . S
C703 N212 1.512 . S
C715 N410 1.509 . S
C730 N443 1.521 . S
C742 N245 1.509 . S
C757 C490 0.963 . S
C769 C8 0.941 . S
C784 C523 0.945 . S
C796 C41 0.924 . S
C811 C74 0.942 . S
C823 C424 0.963 . S
C838 C457 0.964 . S
C850 C107 0.948 . S
C865 C140 0.914 . S
C877 C358 0.891 . S
C892 C173 0.923 . S
C904 C391 0.921 . S
C919 C292 0.902 . S
C931 C206 0.915 . S
C946 C239 0.940 . S
C958 C325 0.929 . S
C973 C226 0.963 . S
C985 C272 0.941 . S
C1000 C259 0.932 . S
C1012 C305 0.918 . S
C1027 C160 0.961 . S
C1039 C338 0.951 . S
C1054 C371 0.950 . S
C1066 C193 0.961 . S
C1081 C404 0.914 . S
C1093 C94 0.891 . S
C1108 C437 0.942 . S
C1120 C127 0.934 . S
C1135 C470 0.912 . S
C1147 C28 0.891 . S
C1162 C61 0.893 . S
C1174 C503 0.913 . S
C1189 N368 1.717 . S
C1201 C17 1.727 . S
C1216 C50 1.682 . S
C1228 N269 1.730 . S
C1243 C83 1.712 . S
C1255 N302 1.732 . S
C1270 C116 1.681 . S
C1282 N335 1.729 . S
C1297 N170 1.734 . S
C1309 C149 1.718 . S
C1324 C182 1.703 . S
C1336 N203 1.736 . S
C1351 N236 1.719 . S
C1363 C215 1.725 . S
C1378 C248 1.705 . S
C1390 N137 1.736 . S
C1405 N104 1.733 . S
C1417 C281 1.684 . S
C1432 C314 1.723 . S
C1444 N5 1.712 . S
C1459 C347 1.721 . S
C1471 N38 1.711 . S
C1486 N71 1.715 . S
C1498 C380 1.727 . S
C1513 N434 1.732 . S
C1525 C413 1.723 . S
C1540 N467 1.731 . S
C1552 C446 1.689 . S
C1567 C479 1.704 . S
C1579 N500 1.710 . S
C1594 N401 1.720 . S
C1606 C512 1.726 . S
