# Generated by pormake.
# Topology snk, (6)-cn, num edge types: 1
# Building blocks:
#     Node 0, Type 0, BuildingBlock: KUMBUR_clean_sbu_0, # of connection points: 6
#     Node 1, Type 0, BuildingBlock: KUMBUR_clean_sbu_0, # of connection points: 6
#     Node 2, Type 0, BuildingBlock: KUMBUR_clean_sbu_0, # of connection points: 6
#     Node 3, Type 0, BuildingBlock: KUMBUR_clean_sbu_0, # of connection points: 6
#     Node 4, Type 0, BuildingBlock: KUMBUR_clean_sbu_0, # of connection points: 6
#     Node 5, Type 0, BuildingBlock: KUMBUR_clean_sbu_0, # of connection points: 6
#     Node 6, Type 0, BuildingBlock: KUMBUR_clean_sbu_0, # of connection points: 6
#     Node 7, Type 0, BuildingBlock: KUMBUR_clean_sbu_0, # of connection points: 6
#     Edge 8, Type (0, 0), BuildingBlock: CIFDUS_clean_linker_0, # of connection points: 2
#     Edge 9, Type (0, 0), BuildingBlock: CIFDUS_clean_linker_0, # of connection points: 2
#     Edge 10, Type (0, 0), BuildingBlock: CIFDUS_clean_linker_0, # of connection points: 2
#     Edge 11, Type (0, 0), BuildingBlock: CIFDUS_clean_linker_0, # of connection points: 2
#     Edge 12, Type (0, 0), BuildingBlock: CIFDUS_clean_linker_0, # of connection points: 2
#     Edge 13, Type (0, 0), BuildingBlock: CIFDUS_clean_linker_0, # of connection points: 2
#     Edge 14, Type (0, 0), BuildingBlock: CIFDUS_clean_linker_0, # of connection points: 2
#     Edge 15, Type (0, 0), BuildingBlock: CIFDUS_clean_linker_0, # of connection points: 2
#     Edge 16, Type (0, 0), BuildingBlock: CIFDUS_clean_linker_0, # of connection points: 2
#     Edge 17, Type (0, 0), BuildingBlock: CIFDUS_clean_linker_0, # of connection points: 2
#     Edge 18, Type (0, 0), BuildingBlock: CIFDUS_clean_linker_0, # of connection points: 2
#     Edge 19, Type (0, 0), BuildingBlock: CIFDUS_clean_linker_0, # of connection points: 2
#     Edge 20, Type (0, 0), BuildingBlock: CIFDUS_clean_linker_0, # of connection points: 2
#     Edge 21, Type (0, 0), BuildingBlock: CIFDUS_clean_linker_0, # of connection points: 2
#     Edge 22, Type (0, 0), BuildingBlock: CIFDUS_clean_linker_0, # of connection points: 2
#     Edge 23, Type (0, 0), BuildingBlock: CIFDUS_clean_linker_0, # of connection points: 2
#     Edge 24, Type (0, 0), BuildingBlock: CIFDUS_clean_linker_0, # of connection points: 2
#     Edge 25, Type (0, 0), BuildingBlock: CIFDUS_clean_linker_0, # of connection points: 2
#     Edge 26, Type (0, 0), BuildingBlock: CIFDUS_clean_linker_0, # of connection points: 2
#     Edge 27, Type (0, 0), BuildingBlock: CIFDUS_clean_linker_0, # of connection points: 2
#     Edge 28, Type (0, 0), BuildingBlock: CIFDUS_clean_linker_0, # of connection points: 2
#     Edge 29, Type (0, 0), BuildingBlock: CIFDUS_clean_linker_0, # of connection points: 2
#     Edge 30, Type (0, 0), BuildingBlock: CIFDUS_clean_linker_0, # of connection points: 2
#     Edge 31, Type (0, 0), BuildingBlock: CIFDUS_clean_linker_0, # of connection points: 2
# Relax obj value: 0.003
# Max RMSD: 0.043
# Mean RMSD: 0.041
data_MOF--net-snk--node1-KUMBUR_clean_sbu_0--edge1-CIFDUS_clean_linker_0
_symmetry_space_group_name_H-M    P1
_symmetry_Int_Tables_number       1
_symmetry_cell_setting            triclinic
loop_
_symmetry_equiv_pos_as_xyz
'x, y, z'
_cell_length_a     32.14952
_cell_length_b     32.258591
_cell_length_c     22.507038
_cell_angle_alpha  86.688781
_cell_angle_beta   86.798064
_cell_angle_gamma 89.573441
loop_
_atom_site_label
_atom_site_type_symbol
_atom_site_fract_x
_atom_site_fract_y
_atom_site_fract_z
_atom_type_partial_charge
Tb0 Tb 1.00412 0.97665 0.46434 0.0
C1 C 0.99773 0.14716 0.5718 0.0
C2 C 0.06713 0.1752 0.55499 0.0
C3 C 1.00734 0.22173 0.55598 0.0
C4 C 0.03999 0.14103 0.56476 0.0
C5 C 0.98079 0.18761 0.56893 0.0
C6 C 0.0505 0.21549 0.54885 0.0
C7 C 0.91313 0.15755 0.59426 0.0
N8 N 0.97327 0.11326 0.58286 0.0
C9 C 0.93144 0.11802 0.59624 0.0
C10 C 0.93783 0.1925 0.57979 0.0
Tb11 Tb 1.00571 0.04949 0.58005 0.0
N12 N 0.05457 0.1015 0.56897 0.0
C13 C 0.09657 0.09432 0.56859 0.0
C14 C 0.11008 0.16781 0.55214 0.0
C15 C 0.12485 0.12718 0.55981 0.0
H16 H 0.91174 0.09138 0.60656 0.0
H17 H 0.15803 0.12106 0.55817 0.0
H18 H 0.07078 0.24205 0.53977 0.0
H19 H 0.87993 0.161 0.6036 0.0
H20 H 0.10869 0.06325 0.5732 0.0
H21 H 0.85046 0.90836 0.47552 0.0
H22 H 0.132 0.19317 0.54467 0.0
H23 H 0.09784 0.93476 0.44104 0.0
H24 H 0.9008 0.96509 0.47058 0.0
H25 H 0.12825 0.86515 0.43076 0.0
H26 H 0.99492 0.25303 0.55245 0.0
H27 H 0.87491 0.83558 0.47449 0.0
H28 H 0.93465 0.78608 0.46217 0.0
H29 H 0.92357 0.22306 0.57811 0.0
H30 H 1.01024 0.77444 0.44797 0.0
N31 N 0.9543 0.92556 0.47223 0.0
C32 C 0.91246 0.93375 0.47177 0.0
C33 C 0.89738 0.86051 0.47381 0.0
C34 C 0.94016 0.85233 0.46993 0.0
C35 C 0.88349 0.90149 0.47419 0.0
C36 C 0.96811 0.88589 0.46965 0.0
H37 H 0.08275 0.80335 0.43863 0.0
N38 N 0.03563 0.91285 0.45808 0.0
C39 C 0.095 0.86866 0.43957 0.0
C40 C 1.01034 0.8793 0.46196 0.0
C41 C 0.07754 0.90815 0.44541 0.0
C42 C 0.06927 0.83386 0.44424 0.0
C43 C 0.02628 0.83898 0.45455 0.0
O44 O 0.03288 0.98209 0.37785 0.0
O45 O 0.02595 0.03603 0.4904 0.0
O46 O 0.97277 0.07928 0.50563 0.0
O47 O 0.94997 0.0193 0.46526 0.0
O48 O 0.06585 1.00331 0.43816 0.0
O49 O 0.96615 0.9856 0.39138 0.0
O50 O 0.9775 0.04457 0.6668 0.0
O51 O 0.98343 0.9897 0.55445 0.0
O52 O 0.03856 0.9467 0.53721 0.0
O53 O 0.05995 1.00668 0.57956 0.0
O54 O 0.94414 0.02373 0.60663 0.0
O55 O 0.04434 0.04344 0.6526 0.0
C56 C 0.0615 0.03795 0.46314 0.0
C57 C 0.99339 0.96416 0.298 0.0
C58 C 0.9965 0.96582 0.18893 0.0
C59 C 0.99984 0.98595 0.24239 0.0
C60 C 0.98635 0.92332 0.19239 0.0
C61 C 0.98337 0.9219 0.30046 0.0
C62 C 0.97982 0.90165 0.24777 0.0
C63 C 0.94786 0.05994 0.47135 0.0
C64 C 0.99766 0.98651 0.3524 0.0
C65 C 0.99872 0.8054 0.45535 0.0
C66 C 0.95572 0.81204 0.46326 0.0
C67 C 0.94777 0.98893 0.582 0.0
C68 C 0.0164 0.06614 0.74502 0.0
C69 C 1.00906 0.04577 0.80146 0.0
C70 C 1.01136 0.06734 0.85385 0.0
C71 C 0.02149 0.10982 0.84854 0.0
C72 C 0.02623 0.10848 0.74061 0.0
C73 C 0.02884 0.13014 0.7923 0.0
C74 C 0.06372 0.96634 0.57094 0.0
C75 C 0.01298 0.04225 0.69189 0.0
H76 H 1.00707 0.01878 0.24093 0.0
H77 H 0.98409 0.90661 0.15234 0.0
H78 H 0.97834 0.90464 0.34286 0.0
H79 H 0.9722 0.86895 0.24981 0.0
H80 H 1.00189 0.0129 0.80443 0.0
H81 H 0.02308 0.12754 0.88777 0.0
H82 H 0.03181 0.12468 0.69745 0.0
H83 H 0.03636 0.16287 0.78878 0.0
Tb84 Tb 0.30433 0.76195 0.6935 0.0
C85 C 0.13663 0.77411 0.82101 0.0
C86 C 0.11797 0.84602 0.80116 0.0
C87 C 0.06534 0.79237 0.8006 0.0
C88 C 0.14811 0.81502 0.81225 0.0
C89 C 0.09489 0.76224 0.8173 0.0
C90 C 0.07666 0.83437 0.79358 0.0
C91 C 0.11478 0.69259 0.8502 0.0
N92 N 0.16656 0.74597 0.83452 0.0
C93 C 0.15598 0.70595 0.85251 0.0
C94 C 0.08426 0.72063 0.83104 0.0
Tb95 Tb 0.23399 0.76912 0.82393 0.0
N96 N 0.18878 0.82448 0.81644 0.0
C97 C 0.20074 0.86513 0.81606 0.0
C98 C 0.13034 0.88759 0.79809 0.0
C99 C 0.17174 0.89718 0.80701 0.0
H100 H 0.17978 0.68384 0.86515 0.0
H101 H 0.18158 0.92926 0.80548 0.0
H102 H 0.05323 0.85752 0.78287 0.0
H103 H 0.10675 0.66055 0.86216 0.0
H104 H 0.23273 0.87333 0.82114 0.0
H105 H 0.37303 0.60878 0.72149 0.0
H106 H 0.10817 0.91241 0.78969 0.0
H107 H 0.34568 0.85114 0.63946 0.0
H108 H 0.31588 0.65926 0.71587 0.0
H109 H 0.41524 0.87927 0.61065 0.0
H110 H 0.03363 0.78363 0.79388 0.0
H111 H 0.44606 0.63206 0.70467 0.0
H112 H 0.49598 0.69001 0.67456 0.0
H113 H 0.05252 0.71011 0.82847 0.0
H114 H 0.50749 0.76369 0.64356 0.0
N115 N 0.35556 0.71198 0.7001 0.0
C116 C 0.34737 0.67044 0.70927 0.0
C117 C 0.42099 0.65466 0.70309 0.0
C118 C 0.42915 0.69674 0.68947 0.0
C119 C 0.37984 0.64141 0.71237 0.0
C120 C 0.39536 0.72491 0.68853 0.0
H121 H 0.47764 0.83457 0.62008 0.0
N122 N 0.36809 0.79125 0.66784 0.0
C123 C 0.41197 0.84738 0.62795 0.0
C124 C 0.40187 0.76607 0.67143 0.0
C125 C 0.37247 0.83121 0.64446 0.0
C126 C 0.44711 0.82211 0.63348 0.0
C127 C 0.44228 0.78067 0.65441 0.0
O128 O 0.2931 0.78659 0.60715 0.0
O129 O 0.24646 0.78557 0.73133 0.0
O130 O 0.20332 0.73424 0.7585 0.0
O131 O 0.26119 0.70873 0.70545 0.0
O132 O 0.27795 0.82377 0.67088 0.0
O133 O 0.29751 0.72057 0.62577 0.0
O134 O 0.23305 0.73927 0.90961 0.0
O135 O 0.29244 0.74549 0.78758 0.0
O136 O 0.33766 0.79909 0.75368 0.0
O137 O 0.28231 0.8179 0.81949 0.0
O138 O 0.25803 0.7067 0.8455 0.0
O139 O 0.24321 0.80533 0.89669 0.0
C140 C 0.24418 0.82059 0.70396 0.0
C141 C 0.3152 0.7465 0.5271 0.0
C142 C 0.31335 0.74759 0.41851 0.0
C143 C 0.29297 0.75076 0.47513 0.0
C144 C 0.35662 0.74032 0.41495 0.0
C145 C 0.35824 0.73917 0.52265 0.0
C146 C 0.3788 0.73616 0.46671 0.0
C147 C 0.2211 0.7074 0.72271 0.0
C148 C 0.29256 0.75028 0.58507 0.0
C149 C 0.47621 0.7531 0.65665 0.0
C150 C 0.46967 0.71119 0.67434 0.0
C151 C 0.29304 0.71023 0.81513 0.0
C152 C 0.21569 0.78004 0.99125 0.0
C153 C 0.23688 0.77863 0.04415 0.0
C154 C 0.21543 0.78419 0.09935 0.0
C155 C 0.17212 0.7912 0.10055 0.0
C156 C 0.17263 0.78719 0.9931 0.0
C157 C 0.15099 0.79274 0.04771 0.0
C158 C 0.32147 0.82122 0.79732 0.0
C159 C 0.23964 0.77363 0.93516 0.0
H160 H 0.25976 0.757 0.47891 0.0
H161 H 0.37325 0.73718 0.37225 0.0
H162 H 0.37586 0.73571 0.56218 0.0
H163 H 0.41204 0.73038 0.46345 0.0
H164 H 0.27014 0.77252 0.04229 0.0
H165 H 0.15468 0.79598 0.14218 0.0
H166 H 0.1559 0.78841 0.95258 0.0
H167 H 0.11771 0.79831 0.04912 0.0
Tb168 Tb 0.51616 0.97506 0.10356 0.0
C169 C 0.5051 0.13999 0.95067 0.0
C170 C 0.43315 0.16179 0.96346 0.0
C171 C 0.48666 0.21272 0.93336 0.0
C172 C 0.4639 0.13036 0.96466 0.0
C173 C 0.51704 0.18124 0.93447 0.0
C174 C 0.44483 0.2031 0.94845 0.0
C175 C 0.58739 0.15652 0.91592 0.0
N176 N 0.53316 0.10847 0.94969 0.0
C177 C 0.57379 0.11597 0.93087 0.0
C178 C 0.55891 0.18936 0.91791 0.0
Tb179 Tb 0.50771 0.04292 0.97144 0.0
N180 N 0.45373 0.08986 0.9761 0.0
C181 C 0.41273 0.07857 0.98404 0.0
C182 C 0.39144 0.15054 0.97501 0.0
C183 C 0.38119 0.10868 0.9849 0.0
H184 H 0.59595 0.09072 0.92848 0.0
H185 H 0.34895 0.09952 0.99276 0.0
H186 H 0.42163 0.22762 0.94673 0.0
H187 H 0.61973 0.16234 0.90225 0.0
H188 H 0.40393 0.04643 0.99122 0.0
H189 H 0.67104 0.90945 0.07559 0.0
H190 H 0.3669 0.17375 0.97481 0.0
H191 H 0.42778 0.93212 0.15876 0.0
H192 H 0.61936 0.96555 0.08222 0.0
H193 H 0.40065 0.86202 0.186 0.0
H194 H 0.49507 0.24441 0.91959 0.0
H195 H 0.64881 0.83616 0.08995 0.0
H196 H 0.59137 0.78512 0.11793 0.0
H197 H 0.56938 0.22069 0.9055 0.0
H198 H 0.51774 0.77222 0.14916 0.0
N199 N 0.56723 0.92498 0.0968 0.0
C200 C 0.60875 0.93392 0.08808 0.0
C201 C 0.62574 0.86076 0.09221 0.0
C202 C 0.58364 0.8518 0.10532 0.0
C203 C 0.6384 0.90206 0.08432 0.0
C204 C 0.55487 0.88501 0.10728 0.0
H205 H 0.44629 0.80063 0.17416 0.0
N206 N 0.48792 0.91092 0.12891 0.0
C207 C 0.43249 0.86595 0.16841 0.0
C208 C 0.5137 0.87771 0.12435 0.0
C209 C 0.44806 0.90573 0.15282 0.0
C210 C 0.45829 0.83138 0.16153 0.0
C211 C 0.4997 0.83704 0.14032 0.0
O212 O 0.49135 0.98588 0.18987 0.0
O213 O 0.49216 0.03267 0.06508 0.0
O214 O 0.54325 0.07641 0.03339 0.0
O215 O 0.56844 0.01979 0.09013 0.0
O216 O 0.45404 1.00057 0.1257 0.0
O217 O 0.55762 0.98132 0.17154 0.0
O218 O 0.53532 0.03722 0.88529 0.0
O219 O 0.53167 0.98535 1.00955 0.0
O220 O 0.4785 0.941 0.04474 0.0
O221 O 0.45778 0.99584 0.97985 0.0
O222 O 0.5701 0.01815 0.9497 0.0
O223 O 0.46857 0.03361 0.90178 0.0
C224 C 0.45703 0.03432 0.09266 0.0
C225 C 0.53092 0.96062 0.2689 0.0
C226 C 0.52255 0.95703 0.37762 0.0
C227 C 0.52011 0.97937 0.32234 0.0
C228 C 0.53592 0.91539 0.37851 0.0
C229 C 0.54413 0.91906 0.27059 0.0
C230 C 0.54655 0.8966 0.32526 0.0
C231 C 0.56987 0.05951 0.07072 0.0
C232 C 0.52771 0.98524 0.21232 0.0
C233 C 0.52784 0.80366 0.13676 0.0
C234 C 0.56973 0.81101 0.119 0.0
C235 C 0.56676 0.98391 0.9817 0.0
C236 C 0.4941 0.05607 0.80469 0.0
C237 C 0.5029 0.03565 0.7521 0.0
C238 C 0.49832 0.05621 0.696 0.0
C239 C 0.48449 0.09775 0.69353 0.0
C240 C 0.48038 0.09743 0.80148 0.0
C241 C 0.47561 0.11813 0.746 0.0
C242 C 0.45522 0.95681 1.00207 0.0
C243 C 0.49956 0.03311 0.86191 0.0
H244 H 0.51037 0.01166 0.32079 0.0
H245 H 0.53775 0.89723 0.4203 0.0
H246 H 0.55266 0.90406 0.22993 0.0
H247 H 0.55668 0.8645 0.32637 0.0
H248 H 0.51289 1.00344 0.75505 0.0
H249 H 0.48109 0.11468 0.6511 0.0
H250 H 0.47328 0.11361 0.84155 0.0
H251 H 0.46511 0.15011 0.74363 0.0
Tb252 Tb 0.2927 0.26586 0.34309 0.0
C253 C 0.12383 0.26475 0.23369 0.0
C254 C 0.0981 0.19446 0.24612 0.0
C255 C 0.04956 0.25247 0.25076 0.0
C256 C 0.13144 0.22274 0.23808 0.0
C257 C 0.08278 0.28027 0.23863 0.0
C258 C 0.05719 0.20956 0.25426 0.0
C259 C 0.11062 0.34916 0.217 0.0
N260 N 0.15697 0.29045 0.22361 0.0
C261 C 0.15084 0.33223 0.21306 0.0
C262 C 0.07646 0.32314 0.23066 0.0
Tb263 Tb 0.22195 0.26013 0.22469 0.0
N264 N 0.17151 0.20963 0.23156 0.0
C265 C 0.17995 0.1683 0.22659 0.0
C266 C 0.10686 0.15201 0.24447 0.0
C267 C 0.14792 0.13894 0.2335 0.0
H268 H 0.17696 0.35284 0.20373 0.0
H269 H 0.15503 0.10622 0.23107 0.0
H270 H 0.03122 0.18834 0.26197 0.0
H271 H 0.10604 0.38232 0.21002 0.0
H272 H 0.21143 0.15746 0.21888 0.0
H273 H 0.34859 0.42402 0.3199 0.0
H274 H 0.08217 0.12922 0.2504 0.0
H275 H 0.34163 0.17678 0.37155 0.0
H276 H 0.29568 0.36926 0.32774 0.0
H277 H 0.41366 0.15235 0.38325 0.0
H278 H 0.01782 0.26379 0.25599 0.0
H279 H 0.42326 0.40572 0.32391 0.0
H280 H 0.47785 0.35047 0.33858 0.0
H281 H 0.04537 0.33634 0.23399 0.0
H282 H 0.4953 0.27646 0.3575 0.0
N283 N 0.33962 0.31944 0.3331 0.0
C284 C 0.32801 0.36038 0.32899 0.0
C285 C 0.40011 0.38133 0.32669 0.0
C286 C 0.41171 0.33957 0.33396 0.0
C287 C 0.35801 0.39177 0.32458 0.0
C288 C 0.38035 0.30906 0.33689 0.0
H289 H 0.47193 0.20239 0.37231 0.0
N290 N 0.35881 0.23994 0.3514 0.0
C291 C 0.40756 0.18492 0.37274 0.0
C292 C 0.3903 0.26776 0.3464 0.0
C293 C 0.36672 0.19895 0.3661 0.0
C294 C 0.44036 0.21321 0.36641 0.0
C295 C 0.43188 0.25532 0.35393 0.0
O296 O 0.28854 0.23787 0.42998 0.0
O297 O 0.23659 0.23897 0.31338 0.0
O298 O 0.18841 0.2865 0.30137 0.0
O299 O 0.24462 0.31569 0.34322 0.0
O300 O 0.26977 0.20338 0.37146 0.0
O301 O 0.28116 0.30408 0.41495 0.0
O302 O 0.22303 0.28907 0.13846 0.0
O303 O 0.28049 0.28424 0.25199 0.0
O304 O 0.3249 0.2309 0.2724 0.0
O305 O 0.26658 0.20764 0.2265 0.0
O306 O 0.24682 0.32286 0.19972 0.0
O307 O 0.23341 0.22309 0.15162 0.0
C308 C 0.23634 0.2042 0.34282 0.0
C309 C 0.30478 0.27928 0.50831 0.0
C310 C 0.30329 0.28009 0.61699 0.0
C311 C 0.28298 0.27494 0.56409 0.0
C312 C 0.34607 0.28952 0.61297 0.0
C313 C 0.34732 0.2888 0.50516 0.0
C314 C 0.36782 0.29385 0.55738 0.0
C315 C 0.2039 0.31265 0.33747 0.0
C316 C 0.28223 0.27306 0.45458 0.0
C317 C 0.46336 0.2854 0.3506 0.0
C318 C 0.45336 0.32747 0.34022 0.0
C319 C 0.28172 0.31966 0.22471 0.0
C320 C 0.20663 0.24738 0.06034 0.0
C321 C 0.22792 0.24937 1.00413 0.0
C322 C 0.20684 0.24316 0.95225 0.0
C323 C 0.1638 0.23498 0.95777 0.0
C324 C 0.16381 0.23918 0.0651 0.0
C325 C 0.14254 0.233 1.01387 0.0
C326 C 0.30682 0.20536 0.23742 0.0
C327 C 0.23014 0.25434 0.11286 0.0
H328 H 0.25018 0.26702 0.56619 0.0
H329 H 0.36257 0.29419 0.65268 0.0
H330 H 0.36461 0.29228 0.46262 0.0
H331 H 0.40067 0.3013 0.55477 0.0
H332 H 0.26094 0.2564 1.00086 0.0
H333 H 0.14666 0.22962 0.91888 0.0
H334 H 0.14694 0.23764 0.10813 0.0
H335 H 0.10947 0.22658 1.01763 0.0
Tb336 Tb 0.81223 0.26616 0.17585 0.0
C337 C 0.6457 0.29308 0.30812 0.0
C338 C 0.6348 0.36734 0.30016 0.0
C339 C 0.57588 0.3208 0.29831 0.0
C340 C 0.66163 0.33265 0.30425 0.0
C341 C 0.60255 0.2865 0.30663 0.0
C342 C 0.5919 0.3612 0.29574 0.0
C343 C 0.61552 0.21312 0.32544 0.0
N344 N 0.67269 0.26093 0.31467 0.0
C345 C 0.65815 0.22134 0.32649 0.0
C346 C 0.58766 0.24575 0.31425 0.0
Tb347 Tb 0.74217 0.27697 0.306 0.0
N348 N 0.70342 0.33709 0.30617 0.0
C349 C 0.72007 0.37575 0.30964 0.0
C350 C 0.65191 0.40701 0.30089 0.0
C351 C 0.69464 0.41116 0.30682 0.0
H352 H 0.67969 0.1959 0.33361 0.0
H353 H 0.70817 0.44168 0.30824 0.0
H354 H 0.57085 0.38742 0.2909 0.0
H355 H 0.60425 0.1816 0.33258 0.0
H356 H 0.75306 0.37987 0.31303 0.0
H357 H 0.8542 0.10339 0.19922 0.0
H358 H 0.63241 0.43449 0.29776 0.0
H359 H 0.86875 0.34821 0.12905 0.0
H360 H 0.80627 0.16274 0.19244 0.0
H361 H 0.94272 0.36516 0.10644 0.0
H362 H 0.54285 0.31651 0.29462 0.0
H363 H 0.93034 0.11452 0.18898 0.0
H364 H 0.98986 0.16402 0.16594 0.0
H365 H 0.55475 0.23921 0.31285 0.0
H366 H 0.01387 0.23523 0.13863 0.0
N367 N 0.85438 0.20828 0.18236 0.0
C368 C 0.83929 0.1686 0.1887 0.0
C369 C 0.90938 0.14096 0.1869 0.0
C370 C 0.92465 0.18132 0.17624 0.0
C371 C 0.86645 0.13457 0.19246 0.0
C372 C 0.89599 0.21465 0.17439 0.0
H373 H 0.9967 0.31066 0.11779 0.0
N374 N 0.88047 0.28493 0.1557 0.0
C375 C 0.93387 0.33393 0.12191 0.0
C376 C 0.90955 0.25448 0.16019 0.0
C377 C 0.89189 0.32413 0.1348 0.0
C378 C 0.96424 0.30311 0.12841 0.0
C379 C 0.95218 0.26258 0.14664 0.0
O380 O 0.80676 0.29572 0.09075 0.0
O381 O 0.75865 0.29659 0.21541 0.0
O382 O 0.7068 0.25314 0.23539 0.0
O383 O 0.76024 0.22085 0.18144 0.0
O384 O 0.79559 0.33185 0.15704 0.0
O385 O 0.8008 0.22939 0.10437 0.0
O386 O 0.73762 0.24328 0.3889 0.0
O387 O 0.79724 0.248 0.26822 0.0
O388 O 0.84893 0.29746 0.23882 0.0
O389 O 0.79572 0.31948 0.30603 0.0
O390 O 0.75868 0.21118 0.32195 0.0
O391 O 0.75608 0.30777 0.38206 0.0
C392 C 0.76212 0.33257 0.19089 0.0
C393 C 0.82535 0.25603 1.00885 0.0
C394 C 0.82724 0.26121 0.90002 0.0
C395 C 0.80577 0.2655 0.95556 0.0
C396 C 0.86885 0.24728 0.89877 0.0
C397 C 0.86681 0.24218 1.00681 0.0
C398 C 0.88842 0.2379 0.95189 0.0
C399 C 0.72014 0.22609 0.19669 0.0
C400 C 0.8016 0.26099 0.06565 0.0
C401 C 0.98105 0.22974 0.14951 0.0
C402 C 0.96735 0.18919 0.16484 0.0
C403 C 0.79435 0.21205 0.29303 0.0
C404 C 0.72531 0.28173 0.47417 0.0
C405 C 0.74567 0.27379 0.52711 0.0
C406 C 0.72499 0.27941 0.5828 0.0
C407 C 0.68343 0.29356 0.58442 0.0
C408 C 0.68393 0.29568 0.4764 0.0
C409 C 0.66313 0.30161 0.5315 0.0
C410 C 0.83504 0.31928 0.28418 0.0
C411 C 0.74844 0.27507 0.41761 0.0
H412 H 0.77351 0.27565 0.9575 0.0
H413 H 0.88639 0.24405 0.85678 0.0
H414 H 0.88235 0.2346 0.04741 0.0
H415 H 0.92046 0.22729 0.95048 0.0
H416 H 0.77792 0.26362 0.52475 0.0
H417 H 0.66643 0.29784 0.62655 0.0
H418 H 0.66785 0.30194 0.43582 0.0
H419 H 0.63112 0.31231 0.53324 0.0
Tb420 Tb 0.79961 0.75865 0.85054 0.0
C421 C 0.63392 0.7524 0.73538 0.0
C422 C 0.61156 0.68113 0.75211 0.0
C423 C 0.56019 0.73676 0.75029 0.0
C424 C 0.64353 0.71092 0.74325 0.0
C425 C 0.59212 0.76588 0.73711 0.0
C426 C 0.56984 0.69436 0.75712 0.0
C427 C 0.61674 0.83522 0.70909 0.0
N428 N 0.66576 0.77949 0.7242 0.0
C429 C 0.65774 0.82028 0.70821 0.0
C430 C 0.58377 0.80802 0.72463 0.0
Tb431 Tb 0.73188 0.75283 0.73039 0.0
N432 N 0.68428 0.69971 0.74059 0.0
C433 C 0.69506 0.65854 0.74163 0.0
C434 C 0.62254 0.63908 0.75572 0.0
C435 C 0.66447 0.62775 0.74959 0.0
H436 H 0.68305 0.84168 0.6972 0.0
H437 H 0.67334 0.59529 0.75175 0.0
H438 H 0.54485 0.67207 0.76564 0.0
H439 H 0.61061 0.86772 0.69816 0.0
H440 H 0.72722 0.64897 0.73793 0.0
H441 H 0.869 0.91136 0.8272 0.0
H442 H 0.59896 0.6152 0.76267 0.0
H443 H 0.84078 0.66492 0.87946 0.0
H444 H 0.81206 0.86116 0.8292 0.0
H445 H 0.9094 0.63536 0.90037 0.0
H446 H 0.52797 0.74666 0.75433 0.0
H447 H 0.94086 0.88725 0.84351 0.0
H448 H 0.98913 0.82825 0.86915 0.0
H449 H 0.55204 0.81964 0.72541 0.0
H450 H 0.99986 0.75331 0.89063 0.0
N451 N 0.851 0.808 0.84246 0.0
C452 C 0.84313 0.84969 0.83519 0.0
C453 C 0.91596 0.8648 0.84324 0.0
C454 C 0.92363 0.82235 0.85341 0.0
C455 C 0.87546 0.87852 0.83422 0.0
C456 C 0.89019 0.7944 0.85209 0.0
H457 H 0.97082 0.6811 0.90001 0.0
N458 N 0.86282 0.72712 0.86458 0.0
C459 C 0.90615 0.6684 0.89029 0.0
C460 C 0.89627 0.7525 0.86402 0.0
C461 C 0.86715 0.68543 0.87843 0.0
C462 C 0.94075 0.69428 0.88991 0.0
C463 C 0.93599 0.73695 0.87734 0.0
O464 O 0.79136 0.73332 0.93871 0.0
O465 O 0.74138 0.73506 0.82203 0.0
O466 O 0.69885 0.78782 0.80032 0.0
O467 O 0.7568 0.81215 0.8444 0.0
O468 O 0.77352 0.69669 0.87687 0.0
O469 O 0.78974 0.79958 0.91941 0.0
O470 O 0.73496 0.78148 0.64391 0.0
O471 O 0.79029 0.77688 0.75799 0.0
O472 O 0.83492 0.7269 0.78079 0.0
O473 O 0.77918 0.70173 0.73193 0.0
O474 O 0.75628 0.81517 0.70474 0.0
O475 O 0.74152 0.71506 0.65775 0.0
C476 C 0.73956 0.69976 0.84964 0.0
C477 C 0.81046 0.77548 1.01479 0.0
C478 C 0.81038 0.77105 0.12357 0.0
C479 C 0.79022 0.76564 0.07064 0.0
C480 C 0.85138 0.78638 0.11956 0.0
C481 C 0.85121 0.79091 1.01174 0.0
C482 C 0.87156 0.79621 0.06397 0.0
C483 C 0.71664 0.81413 0.83415 0.0
C484 C 0.7879 0.76964 0.96088 0.0
C485 C 0.96935 0.76456 0.87916 0.0
C486 C 0.96322 0.80719 0.86699 0.0
C487 C 0.79108 0.81233 0.73014 0.0
C488 C 0.71522 0.74093 0.56667 0.0
C489 C 0.73368 0.75099 0.50983 0.0
C490 C 0.71155 0.74652 0.45842 0.0
C491 C 0.67046 0.73153 0.46494 0.0
C492 C 0.67418 0.72625 0.5725 0.0
C493 C 0.65197 0.72155 0.52169 0.0
C494 C 0.81931 0.70123 0.74396 0.0
C495 C 0.73974 0.74635 0.61869 0.0
H496 H 0.75844 0.75441 0.07275 0.0
H497 H 0.86802 0.79039 0.15935 0.0
H498 H 0.86721 0.79907 0.96932 0.0
H499 H 0.90308 0.808 0.06136 0.0
H500 H 0.76561 0.76188 0.5057 0.0
H501 H 0.65245 0.72806 0.4263 0.0
H502 H 0.65943 0.71841 0.61601 0.0
H503 H 0.62027 0.71024 0.52629 0.0
Tb504 Tb 0.50608 0.4706 0.96892 0.0
C505 C 0.51163 0.64286 0.06911 0.0
C506 C 0.58294 0.66611 0.05711 0.0
C507 C 0.52641 0.71617 0.04845 0.0
C508 C 0.55344 0.63391 0.06598 0.0
C509 C 0.49741 0.68417 0.06194 0.0
C510 C 0.56921 0.70719 0.04643 0.0
C511 C 0.42755 0.65914 0.08615 0.0
N512 N 0.4849 0.61093 0.08162 0.0
C513 C 0.4433 0.61866 0.0928 0.0
C514 C 0.45465 0.692 0.06973 0.0
Tb515 Tb 0.5129 0.54509 0.08388 0.0
N516 N 0.56514 0.59373 0.07507 0.0
C517 C 0.60621 0.58409 0.08171 0.0
C518 C 0.62515 0.65608 0.06062 0.0
C519 C 0.63675 0.61497 0.07412 0.0
H520 H 0.42192 0.59345 0.10425 0.0
H521 H 0.66927 0.60691 0.0779 0.0
H522 H 0.59137 0.73224 0.03781 0.0
H523 H 0.39449 0.6649 0.0933 0.0
H524 H 0.61595 0.55248 0.09121 0.0
H525 H 0.35183 0.40338 0.98472 0.0
H526 H 0.64886 0.67986 0.05413 0.0
H527 H 0.59848 0.42474 0.94508 0.0
H528 H 0.40326 0.45934 0.96536 0.0
H529 H 0.62835 0.35455 0.95771 0.0
H530 H 0.51611 0.748 0.04104 0.0
H531 H 0.37516 0.33176 1.01162 0.0
H532 H 0.43489 0.28174 0.02756 0.0
H533 H 0.4424 0.72332 0.06459 0.0
H534 H 0.5107 0.26862 1.02127 0.0
N535 N 0.45568 0.42015 0.98053 0.0
C536 C 0.41415 0.42823 0.97577 0.0
C537 C 0.39797 0.35615 1.00219 0.0
C538 C 0.44063 0.34762 1.00355 0.0
C539 C 0.38473 0.39651 0.98692 0.0
C540 C 0.46888 0.38057 0.99086 0.0
H541 H 0.58298 0.29511 0.9915 0.0
N542 N 0.5363 0.40563 0.97048 0.0
C543 C 0.59521 0.3593 0.96586 0.0
C544 C 0.51089 0.37295 0.98553 0.0
C545 C 0.578 0.39913 0.95826 0.0
C546 C 0.56955 0.32585 0.98509 0.0
C547 C 0.52668 0.33237 0.99452 0.0
O548 O 0.53412 0.4728 0.88201 0.0
O549 O 0.53363 0.52732 0.99641 0.0
O550 O 0.48185 0.57496 1.00716 0.0
O551 O 0.45439 0.51577 0.96991 0.0
O552 O 0.56864 0.4936 0.93909 0.0
O553 O 0.46776 0.48038 0.89648 0.0
O554 O 0.48357 0.54512 0.16986 0.0
O555 O 0.48506 0.48871 0.05633 0.0
O556 O 0.53526 0.44068 0.0458 0.0
O557 O 0.56423 0.49855 0.08453 0.0
O558 O 0.45034 0.52235 0.11419 0.0
O559 O 0.54938 0.53279 0.1578 0.0
C560 C 0.5682 0.52743 0.96632 0.0
C561 C 0.49277 0.45646 0.8033 0.0
C562 C 0.49658 0.45677 0.69425 0.0
C563 C 0.50162 0.47696 0.74726 0.0
C564 C 0.48214 0.41554 0.69862 0.0
C565 C 0.47865 0.41538 0.80672 0.0
C566 C 0.47329 0.39511 0.75444 0.0
C567 C 0.45499 0.55659 0.97454 0.0
C568 C 0.49889 0.47893 0.85707 0.0
C569 C 0.49909 0.29981 1.01208 0.0
C570 C 0.456 0.30733 1.01599 0.0
C571 C 0.45071 0.4884 0.08718 0.0
C572 C 0.52485 0.55855 0.24997 0.0
C573 C 0.51609 0.53792 0.30594 0.0
C574 C 0.52161 0.55786 0.35903 0.0
C575 C 0.53649 0.59894 0.35479 0.0
C576 C 0.53947 0.59945 0.24668 0.0
C577 C 0.54534 0.61946 0.29902 0.0
C578 C 0.56272 0.45782 0.07845 0.0
C579 C 0.51788 0.5365 0.19611 0.0
H580 H 0.5121 0.50892 0.74508 0.0
H581 H 0.47835 0.3988 0.65894 0.0
H582 H 0.47185 0.3991 0.84958 0.0
H583 H 0.46244 0.36333 0.75716 0.0
H584 H 0.50525 0.5061 0.30797 0.0
H585 H 0.54062 0.61552 0.3945 0.0
H586 H 0.54621 0.61582 0.20387 0.0
H587 H 0.55653 0.65111 0.2964 0.0
Tb588 Tb 0.01537 0.46464 0.61778 0.0
C589 C 0.98888 0.63244 0.49551 0.0
C590 C 0.91448 0.64293 0.50597 0.0
C591 C 0.96135 0.70052 0.5166 0.0
C592 C 0.94925 0.61662 0.49803 0.0
C593 C 0.99564 0.67473 0.50352 0.0
C594 C 0.92072 0.68485 0.51683 0.0
C595 C 0.06917 0.66264 0.48248 0.0
N596 N 0.02101 0.60596 0.48525 0.0
C597 C 0.06075 0.62077 0.47532 0.0
C598 C 0.0366 0.68952 0.49821 0.0
Tb599 Tb 1.00501 0.53662 0.48971 0.0
N600 N 0.94488 0.57549 0.49099 0.0
C601 C 0.90621 0.5594 0.48491 0.0
C602 C 0.8747 0.62627 0.50255 0.0
C603 C 0.87063 0.58453 0.49051 0.0
H604 H 0.08628 0.59987 0.4655 0.0
H605 H 0.84005 0.57142 0.48697 0.0
H606 H 0.89446 0.70538 0.52504 0.0
H607 H 0.10085 0.67395 0.47714 0.0
H608 H 0.90229 0.52697 0.47751 0.0
H609 H 0.17961 0.42596 0.60791 0.0
H610 H 0.8471 0.64542 0.50826 0.0
H611 H 0.93307 0.4062 0.65748 0.0
H612 H 0.11903 0.47246 0.61206 0.0
H613 H 0.91692 0.332 0.6765 0.0
H614 H 0.96588 0.73262 0.52592 0.0
H615 H 0.16974 0.34994 0.61207 0.0
H616 H 0.12094 0.28939 0.62937 0.0
H617 H 0.04341 0.72162 0.50527 0.0
H618 H 0.04943 0.26392 0.65148 0.0
N619 N 0.07427 0.42373 0.61496 0.0
C620 C 0.11376 0.43948 0.61346 0.0
C621 C 0.14285 0.37027 0.61348 0.0
C622 C 0.10254 0.35417 0.62018 0.0
C623 C 0.1485 0.41313 0.61123 0.0
C624 C 0.06856 0.38209 0.62062 0.0
H625 H 0.97297 0.27938 0.66758 0.0
N626 N 0.99748 0.39608 0.63497 0.0
C627 C 0.94851 0.34158 0.66366 0.0
C628 C 0.02862 0.3677 0.63155 0.0
C629 C 0.95785 0.38373 0.65273 0.0
C630 C 0.98018 0.31197 0.65843 0.0
C631 C 0.021 0.32493 0.64322 0.0
O632 O 0.98375 0.46678 0.70207 0.0
O633 O 0.98396 0.51794 0.57901 0.0
O634 O 0.0262 0.57036 0.56357 0.0
O635 O 0.05979 0.51696 0.61553 0.0
O636 O 0.94867 0.47914 0.63398 0.0
O637 O 0.04958 0.47858 0.69109 0.0
O638 O 0.0381 0.54399 0.40645 0.0
O639 O 0.03584 0.48202 0.52655 0.0
O640 O 0.98794 0.42868 0.55017 0.0
O641 O 0.96319 0.4829 0.48713 0.0
O642 O 0.07171 0.52328 0.47521 0.0
O643 O 0.97451 0.52236 0.41338 0.0
C644 C 0.94752 0.51328 0.60188 0.0
C645 C 0.02324 0.45338 0.78637 0.0
C646 C 0.02487 0.45589 0.89469 0.0
C647 C 0.01948 0.47571 0.83818 0.0
C648 C 0.03392 0.41307 0.89827 0.0
C649 C 0.03238 0.41083 0.79083 0.0
C650 C 0.03763 0.39081 0.84666 0.0
C651 C 0.05359 0.55696 0.60184 0.0
C652 C 0.01727 0.47545 0.72853 0.0
C653 C 0.05453 0.2968 0.64162 0.0
C654 C 0.09524 0.31134 0.62938 0.0
C655 C 0.07234 0.48776 0.50403 0.0
C656 C 0.99835 0.55504 0.32151 0.0
C657 C 0.99982 0.53355 0.26897 0.0
C658 C 0.99222 0.55419 0.21379 0.0
C659 C 0.98314 0.59698 0.21225 0.0
C660 C 0.98903 0.59757 0.31931 0.0
C661 C 0.9815 0.6184 0.26472 0.0
C662 C 0.96548 0.44309 0.50559 0.0
C663 C 1.00669 0.53194 0.37766 0.0
H664 H 1.01188 0.50852 0.83437 0.0
H665 H 0.0388 0.39688 0.94083 0.0
H666 H 0.03547 0.39319 0.75137 0.0
H667 H 0.04479 0.35795 0.84995 0.0
H668 H 1.00747 0.50071 0.27109 0.0
H669 H 0.97673 0.61378 0.17068 0.0
H670 H 0.98763 0.61451 0.35955 0.0
H671 H 0.97426 0.65126 0.26305 0.0
H672 H 0.1422 0.03867 0.42568 0.0
H673 H 0.03638 0.12031 0.44286 0.0
H674 H 0.07964 0.17951 0.40379 0.0
H675 H 0.15024 0.20873 0.36913 0.0
H676 H 0.25268 0.12324 0.34435 0.0
H677 H 0.2084 0.06538 0.38104 0.0
C678 C 0.12856 0.06948 0.42126 0.0
C679 C 0.08658 0.07526 0.44049 0.0
C680 C 0.15325 0.10289 0.39666 0.0
C681 C 0.0691 0.11517 0.43167 0.0
C682 C 0.09383 0.149 0.40847 0.0
C683 C 0.1624 0.17728 0.37013 0.0
C684 C 0.20479 0.17036 0.35252 0.0
C685 C 0.13631 0.14344 0.39147 0.0
C686 C 0.22019 0.12946 0.35631 0.0
C687 C 0.19492 0.09627 0.37783 0.0
H688 H 0.07338 0.88228 0.59851 0.0
H689 H 0.13624 0.99982 0.60154 0.0
H690 H 0.1963 0.9655 0.64308 0.0
H691 H 0.23245 0.90212 0.67762 0.0
H692 H 0.17013 0.78442 0.67983 0.0
H693 H 0.10903 0.81828 0.63786 0.0
C694 C 0.10023 0.90031 0.60828 0.0
C695 C 0.09996 0.94381 0.59659 0.0
C696 C 0.13498 0.88025 0.63356 0.0
C697 C 0.13508 0.96654 0.6101 0.0
C698 C 0.16975 0.94686 0.63386 0.0
C699 C 0.20525 0.88401 0.66949 0.0
C700 C 0.20542 0.84103 0.68356 0.0
C701 C 0.17015 0.9038 0.64574 0.0
C702 C 0.17036 0.81774 0.67144 0.0
C703 C 0.13549 0.83712 0.64679 0.0
H704 H 0.32549 0.83025 0.91551 0.0
H705 H 0.37952 0.8749 0.74447 0.0
H706 H 0.42511 0.92127 0.79299 0.0
H707 H 0.44943 0.94926 0.88437 0.0
H708 H 0.39845 0.90191 0.05577 0.0
H709 H 0.35183 0.85633 1.00725 0.0
C710 C 0.3471 0.85037 0.88894 0.0
C711 C 0.34903 0.8494 0.82639 0.0
C712 C 0.37374 0.87632 0.91737 0.0
C713 C 0.3777 0.87488 0.79251 0.0
C714 C 0.40361 0.90154 0.82031 0.0
C715 C 0.4279 0.92909 0.91098 0.0
C716 C 0.4271 0.929 0.97353 0.0
C717 C 0.40186 0.90254 0.88269 0.0
C718 C 0.39981 0.9022 1.00766 0.0
C719 C 0.37302 0.87634 0.97986 0.0
H720 H 0.37772 0.03914 0.1351 0.0
H721 H 0.48708 0.11431 0.09668 0.0
H722 H 0.45108 0.17384 0.13937 0.0
H723 H 0.38815 0.2041 0.19147 0.0
H724 H 0.27923 0.12748 0.22723 0.0
H725 H 0.31527 0.06924 0.18295 0.0
C726 C 0.39353 0.06871 0.13558 0.0
C727 C 0.4348 0.07235 0.1119 0.0
C728 C 0.37272 0.10258 0.16065 0.0
C729 C 0.45507 0.11075 0.1134 0.0
C730 C 0.43454 0.14477 0.13843 0.0
C731 C 0.37253 0.17455 0.18969 0.0
C732 C 0.33094 0.17022 0.21262 0.0
C733 C 0.39341 0.14097 0.16291 0.0
C734 C 0.31097 0.13186 0.20947 0.0
C735 C 0.33161 0.09842 0.18418 0.0
H736 H 0.95824 0.90515 0.623 0.0
H737 H 0.86585 0.99829 0.58068 0.0
H738 H 0.81078 0.95299 0.62398 0.0
H739 H 0.78795 0.88931 0.67899 0.0
H740 H 0.87662 0.79294 0.72105 0.0
H741 H 0.93344 0.83677 0.67465 0.0
C742 C 0.92596 0.91493 0.62192 0.0
C743 C 0.91634 0.95517 0.59712 0.0
C744 C 0.89364 0.8885 0.64862 0.0
C745 C 0.87428 0.96756 0.59828 0.0
C746 C 0.84263 0.94171 0.62362 0.0
C747 C 0.81973 0.87773 0.67832 0.0
C748 C 0.82777 0.83818 0.70549 0.0
C749 C 0.85187 0.90258 0.65 0.0
C750 C 0.86929 0.82367 0.70257 0.0
C751 C 0.90185 0.8487 0.67522 0.0
H752 H 0.9522 0.13929 0.42122 0.0
H753 H 0.8708 0.03346 0.44888 0.0
H754 H 0.81744 0.07019 0.39334 0.0
H755 H 0.79293 0.1329 0.33837 0.0
H756 H 0.8746 0.23807 0.30702 0.0
H757 H 0.9288 0.20114 0.3608 0.0
C758 C 0.92268 0.12446 0.41522 0.0
C759 C 0.91539 0.08375 0.4395 0.0
C760 C 0.89228 0.14551 0.38178 0.0
C761 C 0.87725 0.06467 0.4306 0.0
C762 C 0.84668 0.08567 0.39877 0.0
C763 C 0.8228 0.1475 0.34277 0.0
C764 C 0.82966 0.1881 0.31822 0.0
C765 C 0.8538 0.12607 0.37413 0.0
C766 C 0.86847 0.20674 0.32457 0.0
C767 C 0.89947 0.18568 0.35594 0.0
H768 H 0.72735 0.14593 0.16546 0.0
H769 H 0.64167 0.24932 0.16978 0.0
H770 H 0.58863 0.20805 0.12714 0.0
H771 H 0.56569 0.1417 0.09101 0.0
H772 H 0.64851 0.036 0.09729 0.0
H773 H 0.70335 0.07869 0.13319 0.0
C774 C 0.69715 0.1594 0.15662 0.0
C775 C 0.68863 0.20074 0.17004 0.0
C776 C 0.66615 0.13492 0.1342 0.0
C777 C 0.64908 0.21762 0.15953 0.0
C778 C 0.61869 0.19402 0.13519 0.0
C779 C 0.59583 0.12813 0.1 0.0
C780 C 0.60312 0.08582 0.09129 0.0
C781 C 0.62676 0.15255 0.12263 0.0
C782 C 0.64211 0.06847 0.10385 0.0
C783 C 0.67351 0.09289 0.12428 0.0
H784 H 0.6346 0.81564 0.87722 0.0
H785 H 0.74467 0.89141 0.84763 0.0
H786 H 0.70862 0.94915 0.89289 0.0
H787 H 0.64611 0.979 0.94043 0.0
H788 H 0.53558 0.90482 0.97356 0.0
H789 H 0.57134 0.84571 0.92889 0.0
C790 C 0.65045 0.84492 0.88047 0.0
C791 C 0.69236 0.84915 0.85892 0.0
C792 C 0.62957 0.8782 0.90798 0.0
C793 C 0.71263 0.88712 0.86408 0.0
C794 C 0.69201 0.92028 0.89001 0.0
C795 C 0.62998 0.94973 0.93828 0.0
C796 C 0.58853 0.94615 0.961 0.0
C797 C 0.65063 0.91618 0.91228 0.0
C798 C 0.56779 0.90819 0.95748 0.0
C799 C 0.58816 0.87449 0.93138 0.0
H800 H 0.56562 0.61312 0.93695 0.0
H801 H 0.64937 0.51006 0.96758 0.0
H802 H 0.70869 0.55334 0.93318 0.0
H803 H 0.73746 0.61923 0.8897 0.0
H804 H 0.65691 0.72524 0.86597 0.0
H805 H 0.59642 0.68289 0.90255 0.0
C806 C 0.59696 0.60057 0.93767 0.0
C807 C 0.60291 0.55832 0.95656 0.0
C808 C 0.63167 0.6261 0.91769 0.0
C809 C 0.64379 0.54244 0.95471 0.0
C810 C 0.67785 0.56718 0.93457 0.0
C811 C 0.70663 0.63311 0.89222 0.0
C812 C 0.70168 0.67497 0.87193 0.0
C813 C 0.67224 0.60881 0.91504 0.0
C814 C 0.6616 0.69267 0.87821 0.0
C815 C 0.62695 0.66843 0.89985 0.0
H816 H 0.6814 0.31424 0.17157 0.0
H817 H 0.76697 0.41607 0.17289 0.0
H818 H 0.71245 0.46476 0.14131 0.0
H819 H 0.64084 0.47786 0.10988 0.0
H820 H 0.55603 0.375 0.1076 0.0
H821 H 0.60939 0.32738 0.14412 0.0
C822 C 0.68782 0.34711 0.16637 0.0
C823 C 0.72773 0.36171 0.1766 0.0
C824 C 0.65642 0.37475 0.14768 0.0
C825 C 0.73616 0.40428 0.16656 0.0
C826 C 0.70502 0.43207 0.14843 0.0
C827 C 0.63389 0.44513 0.11809 0.0
C828 C 0.5945 0.43008 0.10559 0.0
C829 C 0.66503 0.41766 0.13854 0.0
C830 C 0.5862 0.38743 0.11611 0.0
C831 C 0.61673 0.3601 0.13701 0.0
H832 H 0.96434 0.43897 0.38636 0.0
H833 H 0.91291 0.38203 0.55194 0.0
H834 H 0.86878 0.33775 0.49744 0.0
H835 H 0.84208 0.31817 0.40264 0.0
H836 H 0.89527 0.37279 0.23661 0.0
H837 H 0.94171 0.41511 0.29096 0.0
C838 C 0.94357 0.41666 0.41034 0.0
C839 C 0.94167 0.41371 0.47307 0.0
C840 C 0.91859 0.39118 0.37855 0.0
C841 C 0.91523 0.38442 0.5038 0.0
C842 C 0.88976 0.35939 0.47259 0.0
C843 C 0.86393 0.33934 0.37849 0.0
C844 C 0.86509 0.34287 0.31586 0.0
C845 C 0.89076 0.36296 0.41004 0.0
C846 C 0.89402 0.36958 0.28479 0.0
C847 C 0.92036 0.39387 0.31589 0.0
H848 H 0.8003 0.6282 0.69509 0.0
H849 H 0.90383 0.70667 0.72736 0.0
H850 H 0.95223 0.65765 0.6815 0.0
H851 H 0.96581 0.5905 0.63701 0.0
H852 H 0.86342 0.50942 0.61154 0.0
H853 H 0.81408 0.56098 0.65014 0.0
C854 C 0.83341 0.63468 0.69185 0.0
C855 C 0.84823 0.67117 0.71486 0.0
C856 C 0.86139 0.60572 0.66663 0.0
C857 C 0.8914 0.67878 0.71053 0.0
C858 C 0.91921 0.65075 0.68416 0.0
C859 C 0.93269 0.5846 0.63849 0.0
C860 C 0.91817 0.54682 0.61929 0.0
C861 C 0.90466 0.61391 0.66254 0.0
C862 C 0.87522 0.53871 0.6247 0.0
C863 C 0.84704 0.56812 0.64699 0.0
H864 H 0.28281 0.39759 0.17326 0.0
H865 H 0.36533 0.29554 0.21406 0.0
H866 H 0.42508 0.33671 0.17184 0.0
H867 H 0.45466 0.40437 0.1259 0.0
H868 H 0.36931 0.50356 0.0813 0.0
H869 H 0.31059 0.46106 0.12068 0.0
C870 C 0.31388 0.38426 0.17314 0.0
C871 C 0.3194 0.34393 0.19949 0.0
C872 C 0.34792 0.40774 0.14697 0.0
C873 C 0.35998 0.327 0.19679 0.0
C874 C 0.39426 0.35053 0.17186 0.0
C875 C 0.4231 0.41613 0.12328 0.0
C876 C 0.41653 0.45706 0.09883 0.0
C877 C 0.3888 0.39126 0.14707 0.0
C878 C 0.37538 0.47208 0.09827 0.0
C879 C 0.34166 0.44785 0.12142 0.0
H880 H 0.45713 0.63804 0.92894 0.0
H881 H 0.37764 0.5305 0.95469 0.0
H882 H 0.32244 0.56772 0.9046 0.0
H883 H 0.29546 0.63076 0.8551 0.0
H884 H 0.37303 0.73907 0.82627 0.0
H885 H 0.43022 0.70174 0.87442 0.0
C886 C 0.42766 0.62294 0.92361 0.0
C887 C 0.42169 0.58137 0.94559 0.0
C888 C 0.39576 0.64455 0.89354 0.0
C889 C 0.38339 0.56218 0.9379 0.0
C890 C 0.35164 0.58349 0.90924 0.0
C891 C 0.32508 0.64605 0.85882 0.0
C892 C 0.33012 0.68739 0.83661 0.0
C893 C 0.35743 0.62456 0.88687 0.0
C894 C 0.36854 0.70701 0.84209 0.0
C895 C 0.40112 0.68574 0.87016 0.0
H896 H 0.13864 0.71104 0.70417 0.0
H897 H 0.24552 0.62964 0.69393 0.0
H898 H 0.20242 0.57465 0.65944 0.0
H899 H 0.13446 0.55025 0.62991 0.0
H900 H 0.02948 0.63425 0.63137 0.0
H901 H 0.07148 0.68756 0.67189 0.0
C902 C 0.15242 0.68119 0.69459 0.0
C903 C 0.19511 0.67429 0.70174 0.0
C904 C 0.12772 0.65018 0.67333 0.0
C905 C 0.21273 0.63571 0.68847 0.0
C906 C 0.18809 0.60423 0.66895 0.0
C907 C 0.1208 0.5801 0.63972 0.0
C908 C 0.07891 0.5882 0.62846 0.0
C909 C 0.14557 0.61115 0.66098 0.0
C910 C 0.06166 0.62726 0.64005 0.0
C911 C 0.08566 0.65778 0.66309 0.0
H912 H 0.22083 0.38433 0.39063 0.0
H913 H 0.12051 0.30077 0.36291 0.0
H914 H 0.07155 0.34462 0.41809 0.0
H915 H 0.05612 0.4093 0.46981 0.0
H916 H 0.15552 0.49548 0.48912 0.0
H917 H 0.20572 0.44807 0.44299 0.0
C918 C 0.18832 0.37557 0.3969 0.0
C919 C 0.17451 0.33933 0.37218 0.0
C920 C 0.16001 0.40145 0.42775 0.0
C921 C 0.13209 0.32868 0.38073 0.0
C922 C 0.10399 0.35369 0.41261 0.0
C923 C 0.0889 0.4172 0.46494 0.0
C924 C 0.10229 0.4555 0.48394 0.0
C925 C 0.11743 0.39045 0.43586 0.0
C926 C 0.14465 0.46594 0.47553 0.0
C927 C 0.17332 0.43893 0.44888 0.0
H928 H 0.0526 0.0754 0.95563 0.0
H929 H 0.95068 1.0101 0.88667 0.0
H930 H 0.93728 0.97311 0.98339 0.0
H931 H 0.95404 0.95946 0.08792 0.0
H932 H 0.05622 0.02438 0.15687 0.0
H933 H 0.06904 0.06209 0.06054 0.0
C934 C 0.02717 0.0534 0.96187 0.0
C935 C 1.00285 0.04553 0.91359 0.0
C936 C 0.01944 0.03228 1.01787 0.0
C937 C 0.97039 0.0164 0.92255 0.0
C938 C 0.9625 0.99537 0.97805 0.0
C939 C 0.97938 0.98156 0.08182 0.0
C940 C 1.00406 0.98894 0.1299 0.0
C941 C 0.98691 1.00293 1.02599 0.0
C942 C 0.03629 0.01836 0.12115 0.0
C943 C 0.04386 0.0398 0.06583 0.0
H944 H 0.33607 0.78822 0.31188 0.0
H945 H 0.23662 0.71552 0.40144 0.0
H946 H 0.19712 0.72165 0.31185 0.0
H947 H 0.19146 0.74601 0.20705 0.0
H948 H 0.29117 0.81815 0.11718 0.0
H949 H 0.33018 0.81308 0.20734 0.0
C950 C 0.30591 0.77341 0.3117 0.0
C951 C 0.28942 0.75148 0.36355 0.0
C952 C 0.28343 0.77676 0.25977 0.0
C953 C 0.24992 0.73308 0.36259 0.0
C954 C 0.22737 0.73635 0.31119 0.0
C955 C 0.2215 0.76103 0.20738 0.0
C956 C 0.23832 0.78233 0.15524 0.0
C957 C 0.24382 0.75805 0.25948 0.0
C958 C 0.27765 0.80109 0.15634 0.0
C959 C 0.29993 0.79838 0.20801 0.0
H960 H 0.45511 0.05901 0.5949 0.0
H961 H 0.5638 1.00397 0.67232 0.0
H962 H 0.57986 0.96729 0.58199 0.0
H963 H 0.5642 0.9522 0.47987 0.0
H964 H 0.4561 1.00789 0.40182 0.0
H965 H 0.43918 0.04355 0.49298 0.0
C966 C 0.48253 0.03931 0.59182 0.0
C967 C 0.50815 0.03431 0.64045 0.0
C968 C 0.49183 0.01853 0.53947 0.0
C969 C 0.5432 1.00804 0.63595 0.0
C970 C 0.55257 0.98719 0.58414 0.0
C971 C 0.53669 0.97178 0.48305 0.0
C972 C 0.51154 0.97743 0.43401 0.0
C973 C 0.52715 0.99225 0.53559 0.0
C974 C 0.4763 1.0034 0.43861 0.0
C975 C 0.46649 0.02368 0.49082 0.0
H976 H 0.18142 0.27967 0.84789 0.0
H977 H 0.28421 0.21194 0.92287 0.0
H978 H 0.32316 0.21774 0.82657 0.0
H979 H 0.32811 0.24184 0.72072 0.0
H980 H 0.22538 0.30934 0.64579 0.0
H981 H 0.18599 0.30299 0.74177 0.0
C982 C 0.21213 0.26575 0.84304 0.0
C983 C 0.22982 0.24553 0.89277 0.0
C984 C 0.23437 0.26903 0.78736 0.0
C985 C 0.26999 0.22821 0.88569 0.0
C986 C 0.29226 0.23132 0.83049 0.0
C987 C 0.29725 0.25546 0.72551 0.0
C988 C 0.27972 0.27607 0.67596 0.0
C989 C 0.27485 0.25182 0.78106 0.0
C990 C 0.23939 0.29292 0.6829 0.0
C991 C 0.21694 0.28948 0.73792 0.0
H992 H 0.83049 0.21729 0.8 0.0
H993 H 0.77605 0.32705 0.87377 0.0
H994 H 0.73924 0.34202 0.78292 0.0
H995 H 0.72269 0.32416 0.68221 0.0
H996 H 0.77686 0.21407 0.60887 0.0
H997 H 0.81427 0.19963 0.69916 0.0
C998 C 0.81093 0.24473 0.79596 0.0
C999 C 0.806 0.27092 0.84376 0.0
C1000 C 0.78986 0.2532 0.74354 0.0
C1001 C 0.78001 0.30604 0.83803 0.0
C1002 C 0.75907 0.31474 0.78596 0.0
C1003 C 0.74232 0.29677 0.68621 0.0
C1004 C 0.74691 0.27032 0.63867 0.0
C1005 C 0.76359 0.28844 0.73853 0.0
C1006 C 0.7731 0.23531 0.64436 0.0
C1007 C 0.79437 0.22687 0.69616 0.0
H1008 H 0.70869 0.7036 0.35782 0.0
H1009 H 0.75956 0.81421 0.42435 0.0
H1010 H 0.79469 0.83132 0.3272 0.0
H1011 H 0.81093 0.81505 0.22328 0.0
H1012 H 0.76066 0.70418 0.15669 0.0
H1013 H 0.72457 0.68759 0.2534 0.0
C1014 C 0.72709 0.73168 0.35086 0.0
C1015 C 0.73155 0.75748 0.39842 0.0
C1016 C 0.74722 0.7414 0.29478 0.0
C1017 C 0.75602 0.79348 0.3888 0.0
C1018 C 0.77598 0.80342 0.33316 0.0
C1019 C 0.79241 0.78704 0.23004 0.0
C1020 C 0.78861 0.76092 0.18269 0.0
C1021 C 0.77198 0.7775 0.28591 0.0
C1022 C 0.7638 0.72513 0.19206 0.0
C1023 C 0.74331 0.71548 0.24749 0.0
H1024 H 0.45411 0.45439 0.5924 0.0
H1025 H 0.56245 0.50825 0.66216 0.0
H1026 H 0.57933 0.54442 0.56572 0.0
H1027 H 0.56416 0.56005 0.46087 0.0
H1028 H 0.45569 0.50637 0.39117 0.0
H1029 H 0.43888 0.4701 0.48753 0.0
C1030 C 0.48164 0.47372 0.58644 0.0
C1031 C 0.50684 0.47854 0.63485 0.0
C1032 C 0.4914 0.49433 0.53057 0.0
C1033 C 0.54206 0.50433 0.6262 0.0
C1034 C 0.55194 0.52488 0.57084 0.0
C1035 C 0.5366 0.54076 0.46681 0.0
C1036 C 0.51138 0.536 0.41841 0.0
C1037 C 0.52683 0.52016 0.52268 0.0
C1038 C 0.47613 0.51023 0.42707 0.0
C1039 C 0.46628 0.48963 0.48241 0.0
H1040 H 0.98795 0.43218 1.00363 0.0
H1041 H 0.05433 0.53389 0.90912 0.0
H1042 H 0.04895 0.57359 0.99831 0.0
H1043 H 0.027 0.57892 0.10408 0.0
H1044 H 0.96113 0.47699 0.19876 0.0
H1045 H 0.96554 0.43777 0.10913 0.0
C1046 C 1.00157 0.46289 1.00261 0.0
C1047 C 0.02148 0.47993 0.94948 0.0
C1048 C 0.99868 0.48552 0.05431 0.0
C1049 C 0.03832 0.52011 0.94897 0.0
C1050 C 0.03549 0.5428 1.00014 0.0
C1051 C 0.01322 0.5483 0.10496 0.0
C1052 C 0.99389 0.53097 0.15829 0.0
C1053 C 0.0158 0.52581 0.05311 0.0
C1054 C 0.97672 0.49094 0.15868 0.0
C1055 C 0.97904 0.4685 0.10729 0.0
loop_
_geom_bond_atom_site_label_1
_geom_bond_atom_site_label_2
_geom_bond_distance
_geom_bond_site_symmetry_2
_ccdc_geom_bond_type
Tb0 N31 2.651 1_455 S
Tb0 N38 2.600 1_455 S
Tb0 O44 2.550 . S
Tb0 O45 2.613 1_565 S
Tb0 O47 2.314 1_465 S
Tb0 O48 2.558 1_565 S
Tb0 O49 2.411 1_455 S
Tb0 O51 2.358 1_455 S
Tb0 O52 2.428 . S
Tb0 C64 2.834 . S
C1 C4 1.432 . S
C1 C5 1.414 . S
C1 N8 1.359 . S
C2 C4 1.417 . S
C2 C6 1.432 . S
C2 C14 1.410 . S
C3 C5 1.444 . S
C3 C6 1.317 . S
C3 H26 0.929 . S
C4 C1 1.432 . S
C4 C2 1.417 . S
C4 N12 1.360 . S
C5 C1 1.414 . S
C5 C3 1.444 . S
C5 C10 1.385 . S
C6 C2 1.432 . S
C6 C3 1.317 . S
C6 H18 0.930 . S
C7 C9 1.392 . S
C7 C10 1.370 1_655 S
C7 H19 0.931 . S
N8 C1 1.359 . S
N8 C9 1.327 1_455 S
N8 Tb11 2.600 1_455 S
C9 C7 1.392 . S
C9 N8 1.327 1_655 S
C9 H16 0.930 . S
C10 C5 1.385 . S
C10 C7 1.370 1_455 S
C10 H29 0.930 . S
Tb11 N8 2.600 1_655 S
Tb11 N12 2.657 1_655 S
Tb11 O45 2.361 1_655 S
Tb11 O46 2.423 . S
Tb11 O50 2.547 . S
Tb11 O51 2.611 1_545 S
Tb11 O53 2.318 1_645 S
Tb11 O54 2.554 1_545 S
Tb11 O55 2.413 1_655 S
Tb11 C75 2.833 . S
N12 C4 1.360 . S
N12 Tb11 2.657 1_455 S
N12 C13 1.305 . S
C13 N12 1.305 . S
C13 C15 1.407 . S
C13 H20 0.930 . S
C14 C2 1.410 . S
C14 C15 1.345 . S
C14 H22 0.930 . S
C15 C13 1.407 . S
C15 C14 1.345 . S
C15 H17 0.930 . S
H16 C9 0.930 . S
H17 C15 0.930 . S
H18 C6 0.930 . S
H19 C7 0.931 . S
H20 C13 0.930 . S
H21 C35 0.930 . S
H22 C14 0.930 . S
H23 C41 0.930 . S
H24 C32 0.930 . S
H25 C39 0.931 . S
H26 C3 0.929 . S
H27 C33 0.930 . S
H28 C66 0.930 . S
H29 C10 0.930 . S
H30 C65 0.929 . S
N31 Tb0 2.651 1_655 S
N31 C32 1.305 . S
N31 C36 1.360 . S
C32 H24 0.930 . S
C32 N31 1.305 . S
C32 C35 1.407 . S
C33 H27 0.930 . S
C33 C34 1.410 . S
C33 C35 1.345 . S
C34 C33 1.410 . S
C34 C36 1.417 . S
C34 C66 1.432 . S
C35 H21 0.930 . S
C35 C32 1.407 . S
C35 C33 1.345 . S
C36 N31 1.360 . S
C36 C34 1.417 . S
C36 C40 1.432 . S
H37 C42 0.929 . S
N38 Tb0 2.600 1_655 S
N38 C40 1.359 . S
N38 C41 1.327 1_655 S
C39 H25 0.931 . S
C39 C41 1.392 . S
C39 C42 1.345 1_455 S
C40 C36 1.432 . S
C40 N38 1.359 . S
C40 C43 1.414 . S
C41 H23 0.930 . S
C41 N38 1.327 1_455 S
C41 C39 1.392 . S
C42 H37 0.929 . S
C42 C39 1.345 1_655 S
C42 C43 1.410 . S
C43 C40 1.414 . S
C43 C42 1.410 . S
C43 C65 1.444 . S
O44 Tb0 2.550 . S
O44 C64 1.251 . S
O45 Tb0 2.613 1_545 S
O45 Tb11 2.361 1_455 S
O45 C56 1.283 . S
O46 Tb11 2.423 . S
O46 C63 1.262 . S
O47 Tb0 2.314 1_645 S
O47 C63 1.260 . S
O48 Tb0 2.558 1_545 S
O48 C56 1.243 . S
O49 Tb0 2.411 1_655 S
O49 C64 1.256 1_655 S
O50 Tb11 2.547 . S
O50 C75 1.251 . S
O51 Tb0 2.358 1_655 S
O51 Tb11 2.611 1_565 S
O51 C67 1.283 . S
O52 Tb0 2.428 . S
O52 C74 1.262 . S
O53 Tb11 2.318 1_465 S
O53 C74 1.260 . S
O54 Tb11 2.554 1_565 S
O54 C67 1.243 . S
O55 Tb11 2.413 1_455 S
O55 C75 1.256 1_455 S
C56 O45 1.283 . S
C56 O48 1.243 . S
C57 C59 1.382 . S
C57 C61 1.393 . S
C57 C64 1.500 . S
C58 C59 1.400 . S
C58 C60 1.384 . S
C59 C57 1.382 . S
C59 C58 1.400 . S
C59 H76 0.930 1_465 S
C60 C58 1.384 . S
C60 C62 1.392 . S
C60 H77 0.931 . S
C61 C57 1.393 . S
C61 C62 1.401 . S
C61 H78 0.930 . S
C62 C60 1.392 . S
C62 C61 1.401 . S
C62 H79 0.930 . S
C63 O46 1.262 . S
C63 O47 1.260 . S
C64 Tb0 2.834 . S
C64 O44 1.251 . S
C64 O49 1.256 1_455 S
C64 C57 1.500 . S
C65 H30 0.929 . S
C65 C43 1.444 . S
C65 C66 1.317 . S
C66 H28 0.930 . S
C66 C34 1.432 . S
C66 C65 1.317 . S
C67 O51 1.283 . S
C67 O54 1.243 . S
C68 C69 1.382 . S
C68 C72 1.393 . S
C68 C75 1.500 . S
C69 C68 1.382 . S
C69 C70 1.400 . S
C69 H80 0.930 1_645 S
C70 C69 1.400 . S
C70 C71 1.384 . S
C71 C70 1.384 . S
C71 C73 1.392 . S
C71 H81 0.931 . S
C72 C68 1.393 . S
C72 C73 1.401 . S
C72 H82 0.930 . S
C73 C71 1.392 . S
C73 C72 1.401 . S
C73 H83 0.930 . S
C74 O52 1.262 . S
C74 O53 1.260 . S
C75 Tb11 2.833 . S
C75 O50 1.251 . S
C75 O55 1.256 1_655 S
C75 C68 1.500 . S
H76 C59 0.930 1_645 S
H77 C60 0.931 . S
H78 C61 0.930 . S
H79 C62 0.930 . S
H80 C69 0.930 1_465 S
H81 C71 0.931 . S
H82 C72 0.930 . S
H83 C73 0.930 . S
Tb84 N115 2.660 . S
Tb84 N122 2.600 . S
Tb84 O128 2.546 . S
Tb84 O129 2.610 . S
Tb84 O131 2.320 . S
Tb84 O132 2.552 . S
Tb84 O133 2.413 . S
Tb84 O135 2.362 . S
Tb84 O136 2.421 . S
Tb84 C148 2.833 . S
C85 C88 1.432 . S
C85 C89 1.414 . S
C85 N92 1.359 . S
C86 C88 1.417 . S
C86 C90 1.432 . S
C86 C98 1.410 . S
C87 C89 1.444 . S
C87 C90 1.317 . S
C87 H110 0.929 . S
C88 C85 1.432 . S
C88 C86 1.417 . S
C88 N96 1.360 . S
C89 C85 1.414 . S
C89 C87 1.444 . S
C89 C94 1.385 . S
C90 C86 1.432 . S
C90 C87 1.317 . S
C90 H102 0.930 . S
C91 C93 1.392 . S
C91 C94 1.370 . S
C91 H103 0.931 . S
N92 C85 1.359 . S
N92 C93 1.327 . S
N92 Tb95 2.600 . S
C93 C91 1.392 . S
C93 N92 1.327 . S
C93 H100 0.930 . S
C94 C89 1.385 . S
C94 C91 1.370 . S
C94 H113 0.930 . S
Tb95 N92 2.600 . S
Tb95 N96 2.660 . S
Tb95 O129 2.362 . S
Tb95 O130 2.421 . S
Tb95 O134 2.546 . S
Tb95 O135 2.610 . S
Tb95 O137 2.320 . S
Tb95 O138 2.552 . S
Tb95 O139 2.413 . S
Tb95 C159 2.833 . S
N96 C88 1.360 . S
N96 Tb95 2.660 . S
N96 C97 1.305 . S
C97 N96 1.305 . S
C97 C99 1.407 . S
C97 H104 0.930 . S
C98 C86 1.410 . S
C98 C99 1.345 . S
C98 H106 0.930 . S
C99 C97 1.407 . S
C99 C98 1.345 . S
C99 H101 0.930 . S
H100 C93 0.930 . S
H101 C99 0.930 . S
H102 C90 0.930 . S
H103 C91 0.931 . S
H104 C97 0.930 . S
H105 C119 0.930 . S
H106 C98 0.930 . S
H107 C125 0.930 . S
H108 C116 0.930 . S
H109 C123 0.931 . S
H110 C87 0.929 . S
H111 C117 0.930 . S
H112 C150 0.930 . S
H113 C94 0.930 . S
H114 C149 0.929 . S
N115 Tb84 2.660 . S
N115 C116 1.305 . S
N115 C120 1.360 . S
C116 H108 0.930 . S
C116 N115 1.305 . S
C116 C119 1.407 . S
C117 H111 0.930 . S
C117 C118 1.410 . S
C117 C119 1.345 . S
C118 C117 1.410 . S
C118 C120 1.417 . S
C118 C150 1.432 . S
C119 H105 0.930 . S
C119 C116 1.407 . S
C119 C117 1.345 . S
C120 N115 1.360 . S
C120 C118 1.417 . S
C120 C124 1.432 . S
H121 C126 0.930 . S
N122 Tb84 2.600 . S
N122 C124 1.359 . S
N122 C125 1.327 . S
C123 H109 0.931 . S
C123 C125 1.392 . S
C123 C126 1.370 . S
C124 C120 1.432 . S
C124 N122 1.359 . S
C124 C127 1.414 . S
C125 H107 0.930 . S
C125 N122 1.327 . S
C125 C123 1.392 . S
C126 H121 0.930 . S
C126 C123 1.370 . S
C126 C127 1.385 . S
C127 C124 1.414 . S
C127 C126 1.385 . S
C127 C149 1.444 . S
O128 Tb84 2.546 . S
O128 C148 1.251 . S
O129 Tb84 2.610 . S
O129 Tb95 2.362 . S
O129 C140 1.283 . S
O130 Tb95 2.421 . S
O130 C147 1.262 . S
O131 Tb84 2.320 . S
O131 C147 1.260 . S
O132 Tb84 2.552 . S
O132 C140 1.243 . S
O133 Tb84 2.413 . S
O133 C148 1.256 . S
O134 Tb95 2.546 . S
O134 C159 1.251 . S
O135 Tb84 2.362 . S
O135 Tb95 2.610 . S
O135 C151 1.283 . S
O136 Tb84 2.421 . S
O136 C158 1.262 . S
O137 Tb95 2.320 . S
O137 C158 1.260 . S
O138 Tb95 2.552 . S
O138 C151 1.243 . S
O139 Tb95 2.413 . S
O139 C159 1.256 . S
C140 O129 1.283 . S
C140 O132 1.243 . S
C141 C143 1.382 . S
C141 C145 1.393 . S
C141 C148 1.500 . S
C142 C143 1.400 . S
C142 C144 1.384 . S
C143 C141 1.382 . S
C143 C142 1.400 . S
C143 H160 0.930 . S
C144 C142 1.384 . S
C144 C146 1.392 . S
C144 H161 0.931 . S
C145 C141 1.393 . S
C145 C146 1.401 . S
C145 H162 0.930 . S
C146 C144 1.392 . S
C146 C145 1.401 . S
C146 H163 0.930 . S
C147 O130 1.262 . S
C147 O131 1.260 . S
C148 Tb84 2.833 . S
C148 O128 1.251 . S
C148 O133 1.256 . S
C148 C141 1.500 . S
C149 H114 0.929 . S
C149 C127 1.444 . S
C149 C150 1.317 . S
C150 H112 0.930 . S
C150 C118 1.432 . S
C150 C149 1.317 . S
C151 O135 1.283 . S
C151 O138 1.243 . S
C152 C153 1.381 1_556 S
C152 C156 1.393 1_556 S
C152 C159 1.501 . S
C153 C152 1.381 1_554 S
C153 C154 1.400 . S
C153 H164 0.930 . S
C154 C153 1.400 . S
C154 C155 1.384 . S
C155 C154 1.384 . S
C155 C157 1.392 . S
C155 H165 0.931 . S
C156 C152 1.393 1_554 S
C156 C157 1.401 . S
C156 H166 0.937 . S
C157 C155 1.392 . S
C157 C156 1.401 . S
C157 H167 0.930 . S
C158 O136 1.262 . S
C158 O137 1.260 . S
C159 Tb95 2.833 . S
C159 O134 1.251 . S
C159 O139 1.256 . S
C159 C152 1.501 . S
H160 C143 0.930 . S
H161 C144 0.931 . S
H162 C145 0.930 . S
H163 C146 0.930 . S
H164 C153 0.930 . S
H165 C155 0.931 . S
H166 C156 0.937 . S
H167 C157 0.930 . S
Tb168 N199 2.660 . S
Tb168 N206 2.600 . S
Tb168 O212 2.546 . S
Tb168 O213 2.610 1_565 S
Tb168 O215 2.320 1_565 S
Tb168 O216 2.552 1_565 S
Tb168 O217 2.413 . S
Tb168 O219 2.362 1_554 S
Tb168 O220 2.421 . S
Tb168 C232 2.833 . S
C169 C172 1.432 . S
C169 C173 1.414 . S
C169 N176 1.359 . S
C170 C172 1.417 . S
C170 C174 1.432 . S
C170 C182 1.410 . S
C171 C173 1.444 . S
C171 C174 1.317 . S
C171 H194 0.929 . S
C172 C169 1.432 . S
C172 C170 1.417 . S
C172 N180 1.360 . S
C173 C169 1.414 . S
C173 C171 1.444 . S
C173 C178 1.385 . S
C174 C170 1.432 . S
C174 C171 1.317 . S
C174 H186 0.930 . S
C175 C177 1.392 . S
C175 C178 1.370 . S
C175 H187 0.931 . S
N176 C169 1.359 . S
N176 C177 1.327 . S
N176 Tb179 2.600 . S
C177 C175 1.392 . S
C177 N176 1.327 . S
C177 H184 0.930 . S
C178 C173 1.385 . S
C178 C175 1.370 . S
C178 H197 0.930 . S
Tb179 N176 2.600 . S
Tb179 N180 2.660 . S
Tb179 O213 2.362 1_556 S
Tb179 O214 2.421 . S
Tb179 O218 2.546 . S
Tb179 O219 2.610 1_545 S
Tb179 O221 2.320 1_545 S
Tb179 O222 2.552 1_545 S
Tb179 O223 2.413 . S
Tb179 C243 2.833 . S
N180 C172 1.360 . S
N180 Tb179 2.660 . S
N180 C181 1.305 . S
C181 N180 1.305 . S
C181 C183 1.407 . S
C181 H188 0.930 . S
C182 C170 1.410 . S
C182 C183 1.345 . S
C182 H190 0.930 . S
C183 C181 1.407 . S
C183 C182 1.345 . S
C183 H185 0.930 . S
H184 C177 0.930 . S
H185 C183 0.930 . S
H186 C174 0.930 . S
H187 C175 0.931 . S
H188 C181 0.930 . S
H189 C203 0.930 . S
H190 C182 0.930 . S
H191 C209 0.930 . S
H192 C200 0.930 . S
H193 C207 0.931 . S
H194 C171 0.929 . S
H195 C201 0.930 . S
H196 C234 0.930 . S
H197 C178 0.930 . S
H198 C233 0.929 . S
N199 Tb168 2.660 . S
N199 C200 1.305 . S
N199 C204 1.360 . S
C200 H192 0.930 . S
C200 N199 1.305 . S
C200 C203 1.407 . S
C201 H195 0.930 . S
C201 C202 1.410 . S
C201 C203 1.345 . S
C202 C201 1.410 . S
C202 C204 1.417 . S
C202 C234 1.432 . S
C203 H189 0.930 . S
C203 C200 1.407 . S
C203 C201 1.345 . S
C204 N199 1.360 . S
C204 C202 1.417 . S
C204 C208 1.432 . S
H205 C210 0.930 . S
N206 Tb168 2.600 . S
N206 C208 1.359 . S
N206 C209 1.327 . S
C207 H193 0.931 . S
C207 C209 1.392 . S
C207 C210 1.370 . S
C208 C204 1.432 . S
C208 N206 1.359 . S
C208 C211 1.414 . S
C209 H191 0.930 . S
C209 N206 1.327 . S
C209 C207 1.392 . S
C210 H205 0.930 . S
C210 C207 1.370 . S
C210 C211 1.385 . S
C211 C208 1.414 . S
C211 C210 1.385 . S
C211 C233 1.444 . S
O212 Tb168 2.546 . S
O212 C232 1.251 . S
O213 Tb168 2.610 1_545 S
O213 Tb179 2.362 1_554 S
O213 C224 1.283 . S
O214 Tb179 2.421 . S
O214 C231 1.262 1_556 S
O215 Tb168 2.320 1_545 S
O215 C231 1.260 . S
O216 Tb168 2.552 1_545 S
O216 C224 1.243 . S
O217 Tb168 2.413 . S
O217 C232 1.256 . S
O218 Tb179 2.546 . S
O218 C243 1.251 . S
O219 Tb168 2.362 1_556 S
O219 Tb179 2.610 1_565 S
O219 C235 1.283 . S
O220 Tb168 2.421 . S
O220 C242 1.262 1_554 S
O221 Tb179 2.320 1_565 S
O221 C242 1.260 . S
O222 Tb179 2.552 1_565 S
O222 C235 1.243 . S
O223 Tb179 2.413 . S
O223 C243 1.256 . S
C224 O213 1.283 . S
C224 O216 1.243 . S
C225 C227 1.382 . S
C225 C229 1.393 . S
C225 C232 1.500 . S
C226 C227 1.400 . S
C226 C228 1.384 . S
C227 C225 1.382 . S
C227 C226 1.400 . S
C227 H244 0.930 1_565 S
C228 C226 1.384 . S
C228 C230 1.392 . S
C228 H245 0.931 . S
C229 C225 1.393 . S
C229 C230 1.401 . S
C229 H246 0.930 . S
C230 C228 1.392 . S
C230 C229 1.401 . S
C230 H247 0.930 . S
C231 O214 1.262 1_554 S
C231 O215 1.260 . S
C232 Tb168 2.833 . S
C232 O212 1.251 . S
C232 O217 1.256 . S
C232 C225 1.500 . S
C233 H198 0.929 . S
C233 C211 1.444 . S
C233 C234 1.317 . S
C234 H196 0.930 . S
C234 C202 1.432 . S
C234 C233 1.317 . S
C235 O219 1.283 . S
C235 O222 1.243 . S
C236 C237 1.382 . S
C236 C240 1.393 . S
C236 C243 1.500 . S
C237 C236 1.382 . S
C237 C238 1.400 . S
C237 H248 0.930 1_545 S
C238 C237 1.400 . S
C238 C239 1.384 . S
C239 C238 1.384 . S
C239 C241 1.392 . S
C239 H249 0.931 . S
C240 C236 1.393 . S
C240 C241 1.401 . S
C240 H250 0.930 . S
C241 C239 1.392 . S
C241 C240 1.401 . S
C241 H251 0.930 . S
C242 O220 1.262 1_556 S
C242 O221 1.260 . S
C243 Tb179 2.833 . S
C243 O218 1.251 . S
C243 O223 1.256 . S
C243 C236 1.500 . S
H244 C227 0.930 1_545 S
H245 C228 0.931 . S
H246 C229 0.930 . S
H247 C230 0.930 . S
H248 C237 0.930 1_565 S
H249 C239 0.931 . S
H250 C240 0.930 . S
H251 C241 0.930 . S
Tb252 N283 2.660 . S
Tb252 N290 2.600 . S
Tb252 O296 2.546 . S
Tb252 O297 2.610 . S
Tb252 O299 2.320 . S
Tb252 O300 2.552 . S
Tb252 O301 2.413 . S
Tb252 O303 2.362 . S
Tb252 O304 2.421 . S
Tb252 C316 2.833 . S
C253 C256 1.432 . S
C253 C257 1.414 . S
C253 N260 1.359 . S
C254 C256 1.417 . S
C254 C258 1.432 . S
C254 C266 1.410 . S
C255 C257 1.444 . S
C255 C258 1.317 . S
C255 H278 0.929 . S
C256 C253 1.432 . S
C256 C254 1.417 . S
C256 N264 1.360 . S
C257 C253 1.414 . S
C257 C255 1.444 . S
C257 C262 1.385 . S
C258 C254 1.432 . S
C258 C255 1.317 . S
C258 H270 0.930 . S
C259 C261 1.392 . S
C259 C262 1.370 . S
C259 H271 0.931 . S
N260 C253 1.359 . S
N260 C261 1.327 . S
N260 Tb263 2.600 . S
C261 C259 1.392 . S
C261 N260 1.327 . S
C261 H268 0.930 . S
C262 C257 1.385 . S
C262 C259 1.370 . S
C262 H281 0.930 . S
Tb263 N260 2.600 . S
Tb263 N264 2.660 . S
Tb263 O297 2.362 . S
Tb263 O298 2.421 . S
Tb263 O302 2.546 . S
Tb263 O303 2.610 . S
Tb263 O305 2.320 . S
Tb263 O306 2.552 . S
Tb263 O307 2.413 . S
Tb263 C327 2.833 . S
N264 C256 1.360 . S
N264 Tb263 2.660 . S
N264 C265 1.305 . S
C265 N264 1.305 . S
C265 C267 1.407 . S
C265 H272 0.930 . S
C266 C254 1.410 . S
C266 C267 1.345 . S
C266 H274 0.930 . S
C267 C265 1.407 . S
C267 C266 1.345 . S
C267 H269 0.930 . S
H268 C261 0.930 . S
H269 C267 0.930 . S
H270 C258 0.930 . S
H271 C259 0.931 . S
H272 C265 0.930 . S
H273 C287 0.930 . S
H274 C266 0.930 . S
H275 C293 0.930 . S
H276 C284 0.930 . S
H277 C291 0.931 . S
H278 C255 0.929 . S
H279 C285 0.930 . S
H280 C318 0.930 . S
H281 C262 0.930 . S
H282 C317 0.929 . S
N283 Tb252 2.660 . S
N283 C284 1.305 . S
N283 C288 1.360 . S
C284 H276 0.930 . S
C284 N283 1.305 . S
C284 C287 1.407 . S
C285 H279 0.930 . S
C285 C286 1.410 . S
C285 C287 1.345 . S
C286 C285 1.410 . S
C286 C288 1.417 . S
C286 C318 1.432 . S
C287 H273 0.930 . S
C287 C284 1.407 . S
C287 C285 1.345 . S
C288 N283 1.360 . S
C288 C286 1.417 . S
C288 C292 1.432 . S
H289 C294 0.930 . S
N290 Tb252 2.600 . S
N290 C292 1.359 . S
N290 C293 1.327 . S
C291 H277 0.931 . S
C291 C293 1.392 . S
C291 C294 1.370 . S
C292 C288 1.432 . S
C292 N290 1.359 . S
C292 C295 1.414 . S
C293 H275 0.930 . S
C293 N290 1.327 . S
C293 C291 1.392 . S
C294 H289 0.930 . S
C294 C291 1.370 . S
C294 C295 1.385 . S
C295 C292 1.414 . S
C295 C294 1.385 . S
C295 C317 1.444 . S
O296 Tb252 2.546 . S
O296 C316 1.251 . S
O297 Tb252 2.610 . S
O297 Tb263 2.362 . S
O297 C308 1.283 . S
O298 Tb263 2.421 . S
O298 C315 1.262 . S
O299 Tb252 2.320 . S
O299 C315 1.260 . S
O300 Tb252 2.552 . S
O300 C308 1.243 . S
O301 Tb252 2.413 . S
O301 C316 1.256 . S
O302 Tb263 2.546 . S
O302 C327 1.251 . S
O303 Tb252 2.362 . S
O303 Tb263 2.610 . S
O303 C319 1.283 . S
O304 Tb252 2.421 . S
O304 C326 1.262 . S
O305 Tb263 2.320 . S
O305 C326 1.260 . S
O306 Tb263 2.552 . S
O306 C319 1.243 . S
O307 Tb263 2.413 . S
O307 C327 1.256 . S
C308 O297 1.283 . S
C308 O300 1.243 . S
C309 C311 1.382 . S
C309 C313 1.393 . S
C309 C316 1.500 . S
C310 C311 1.400 . S
C310 C312 1.384 . S
C311 C309 1.382 . S
C311 C310 1.400 . S
C311 H328 0.930 . S
C312 C310 1.384 . S
C312 C314 1.392 . S
C312 H329 0.931 . S
C313 C309 1.393 . S
C313 C314 1.401 . S
C313 H330 0.930 . S
C314 C312 1.392 . S
C314 C313 1.401 . S
C314 H331 0.930 . S
C315 O298 1.262 . S
C315 O299 1.260 . S
C316 Tb252 2.833 . S
C316 O296 1.251 . S
C316 O301 1.256 . S
C316 C309 1.500 . S
C317 H282 0.929 . S
C317 C295 1.444 . S
C317 C318 1.317 . S
C318 H280 0.930 . S
C318 C286 1.432 . S
C318 C317 1.317 . S
C319 O303 1.283 . S
C319 O306 1.243 . S
C320 C321 1.393 . S
C320 C324 1.401 . S
C320 C327 1.481 1_556 S
C321 C320 1.393 . S
C321 C322 1.400 . S
C321 H332 0.930 . S
C322 C321 1.400 . S
C322 C323 1.384 . S
C323 C322 1.384 . S
C323 C325 1.392 . S
C323 H333 0.931 . S
C324 C320 1.401 . S
C324 C325 1.401 . S
C324 H334 0.930 . S
C325 C323 1.392 . S
C325 C324 1.401 . S
C325 H335 0.930 . S
C326 O304 1.262 . S
C326 O305 1.260 . S
C327 Tb263 2.833 . S
C327 O302 1.251 . S
C327 O307 1.256 . S
C327 C320 1.481 1_554 S
H328 C311 0.930 . S
H329 C312 0.931 . S
H330 C313 0.930 . S
H331 C314 0.930 . S
H332 C321 0.930 . S
H333 C323 0.931 . S
H334 C324 0.930 . S
H335 C325 0.930 . S
Tb336 N367 2.660 . S
Tb336 N374 2.600 . S
Tb336 O380 2.546 . S
Tb336 O381 2.610 . S
Tb336 O383 2.320 . S
Tb336 O384 2.552 . S
Tb336 O385 2.413 . S
Tb336 O387 2.362 . S
Tb336 O388 2.421 . S
Tb336 C400 2.833 . S
C337 C340 1.432 . S
C337 C341 1.414 . S
C337 N344 1.359 . S
C338 C340 1.417 . S
C338 C342 1.432 . S
C338 C350 1.410 . S
C339 C341 1.444 . S
C339 C342 1.317 . S
C339 H362 0.929 . S
C340 C337 1.432 . S
C340 C338 1.417 . S
C340 N348 1.360 . S
C341 C337 1.414 . S
C341 C339 1.444 . S
C341 C346 1.385 . S
C342 C338 1.432 . S
C342 C339 1.317 . S
C342 H354 0.930 . S
C343 C345 1.392 . S
C343 C346 1.370 . S
C343 H355 0.931 . S
N344 C337 1.359 . S
N344 C345 1.327 . S
N344 Tb347 2.600 . S
C345 C343 1.392 . S
C345 N344 1.327 . S
C345 H352 0.930 . S
C346 C341 1.385 . S
C346 C343 1.370 . S
C346 H365 0.930 . S
Tb347 N344 2.600 . S
Tb347 N348 2.660 . S
Tb347 O381 2.362 . S
Tb347 O382 2.421 . S
Tb347 O386 2.546 . S
Tb347 O387 2.610 . S
Tb347 O389 2.320 . S
Tb347 O390 2.552 . S
Tb347 O391 2.413 . S
Tb347 C411 2.833 . S
N348 C340 1.360 . S
N348 Tb347 2.660 . S
N348 C349 1.305 . S
C349 N348 1.305 . S
C349 C351 1.407 . S
C349 H356 0.930 . S
C350 C338 1.410 . S
C350 C351 1.345 . S
C350 H358 0.930 . S
C351 C349 1.407 . S
C351 C350 1.345 . S
C351 H353 0.930 . S
H352 C345 0.930 . S
H353 C351 0.930 . S
H354 C342 0.930 . S
H355 C343 0.931 . S
H356 C349 0.930 . S
H357 C371 0.930 . S
H358 C350 0.930 . S
H359 C377 0.930 . S
H360 C368 0.930 . S
H361 C375 0.931 . S
H362 C339 0.929 . S
H363 C369 0.930 . S
H364 C402 0.930 . S
H365 C346 0.930 . S
H366 C401 0.929 . S
N367 Tb336 2.660 . S
N367 C368 1.305 . S
N367 C372 1.360 . S
C368 H360 0.930 . S
C368 N367 1.305 . S
C368 C371 1.407 . S
C369 H363 0.930 . S
C369 C370 1.410 . S
C369 C371 1.345 . S
C370 C369 1.410 . S
C370 C372 1.417 . S
C370 C402 1.432 . S
C371 H357 0.930 . S
C371 C368 1.407 . S
C371 C369 1.345 . S
C372 N367 1.360 . S
C372 C370 1.417 . S
C372 C376 1.432 . S
H373 C378 0.930 . S
N374 Tb336 2.600 . S
N374 C376 1.359 . S
N374 C377 1.327 . S
C375 H361 0.931 . S
C375 C377 1.392 . S
C375 C378 1.370 . S
C376 C372 1.432 . S
C376 N374 1.359 . S
C376 C379 1.414 . S
C377 H359 0.930 . S
C377 N374 1.327 . S
C377 C375 1.392 . S
C378 H373 0.930 . S
C378 C375 1.370 . S
C378 C379 1.385 . S
C379 C376 1.414 . S
C379 C378 1.385 . S
C379 C401 1.444 . S
O380 Tb336 2.546 . S
O380 C400 1.251 . S
O381 Tb336 2.610 . S
O381 Tb347 2.362 . S
O381 C392 1.283 . S
O382 Tb347 2.421 . S
O382 C399 1.262 . S
O383 Tb336 2.320 . S
O383 C399 1.260 . S
O384 Tb336 2.552 . S
O384 C392 1.243 . S
O385 Tb336 2.413 . S
O385 C400 1.256 . S
O386 Tb347 2.546 . S
O386 C411 1.251 . S
O387 Tb336 2.362 . S
O387 Tb347 2.610 . S
O387 C403 1.283 . S
O388 Tb336 2.421 . S
O388 C410 1.262 . S
O389 Tb347 2.320 . S
O389 C410 1.260 . S
O390 Tb347 2.552 . S
O390 C403 1.243 . S
O391 Tb347 2.413 . S
O391 C411 1.256 . S
C392 O381 1.283 . S
C392 O384 1.243 . S
C393 C395 1.381 1_554 S
C393 C397 1.393 1_554 S
C393 C400 1.501 . S
C394 C395 1.400 . S
C394 C396 1.384 . S
C395 C393 1.381 1_556 S
C395 C394 1.400 . S
C395 H412 0.930 . S
C396 C394 1.384 . S
C396 C398 1.392 . S
C396 H413 0.931 . S
C397 C393 1.393 1_556 S
C397 C398 1.401 . S
C397 H414 0.937 . S
C398 C396 1.392 . S
C398 C397 1.401 . S
C398 H415 0.930 . S
C399 O382 1.262 . S
C399 O383 1.260 . S
C400 Tb336 2.833 . S
C400 O380 1.251 . S
C400 O385 1.256 . S
C400 C393 1.501 . S
C401 H366 0.929 . S
C401 C379 1.444 . S
C401 C402 1.317 . S
C402 H364 0.930 . S
C402 C370 1.432 . S
C402 C401 1.317 . S
C403 O387 1.283 . S
C403 O390 1.243 . S
C404 C405 1.382 . S
C404 C408 1.393 . S
C404 C411 1.500 . S
C405 C404 1.382 . S
C405 C406 1.400 . S
C405 H416 0.930 . S
C406 C405 1.400 . S
C406 C407 1.384 . S
C407 C406 1.384 . S
C407 C409 1.392 . S
C407 H417 0.931 . S
C408 C404 1.393 . S
C408 C409 1.401 . S
C408 H418 0.930 . S
C409 C407 1.392 . S
C409 C408 1.401 . S
C409 H419 0.930 . S
C410 O388 1.262 . S
C410 O389 1.260 . S
C411 Tb347 2.833 . S
C411 O386 1.251 . S
C411 O391 1.256 . S
C411 C404 1.500 . S
H412 C395 0.930 . S
H413 C396 0.931 . S
H414 C397 0.937 . S
H415 C398 0.930 . S
H416 C405 0.930 . S
H417 C407 0.931 . S
H418 C408 0.930 . S
H419 C409 0.930 . S
Tb420 N451 2.660 . S
Tb420 N458 2.600 . S
Tb420 O464 2.546 . S
Tb420 O465 2.610 . S
Tb420 O467 2.320 . S
Tb420 O468 2.552 . S
Tb420 O469 2.413 . S
Tb420 O471 2.362 . S
Tb420 O472 2.421 . S
Tb420 C484 2.833 . S
C421 C424 1.432 . S
C421 C425 1.414 . S
C421 N428 1.359 . S
C422 C424 1.417 . S
C422 C426 1.432 . S
C422 C434 1.410 . S
C423 C425 1.444 . S
C423 C426 1.317 . S
C423 H446 0.929 . S
C424 C421 1.432 . S
C424 C422 1.417 . S
C424 N432 1.360 . S
C425 C421 1.414 . S
C425 C423 1.444 . S
C425 C430 1.385 . S
C426 C422 1.432 . S
C426 C423 1.317 . S
C426 H438 0.930 . S
C427 C429 1.392 . S
C427 C430 1.370 . S
C427 H439 0.931 . S
N428 C421 1.359 . S
N428 C429 1.327 . S
N428 Tb431 2.600 . S
C429 C427 1.392 . S
C429 N428 1.327 . S
C429 H436 0.930 . S
C430 C425 1.385 . S
C430 C427 1.370 . S
C430 H449 0.930 . S
Tb431 N428 2.600 . S
Tb431 N432 2.660 . S
Tb431 O465 2.362 . S
Tb431 O466 2.421 . S
Tb431 O470 2.546 . S
Tb431 O471 2.610 . S
Tb431 O473 2.320 . S
Tb431 O474 2.552 . S
Tb431 O475 2.413 . S
Tb431 C495 2.833 . S
N432 C424 1.360 . S
N432 Tb431 2.660 . S
N432 C433 1.305 . S
C433 N432 1.305 . S
C433 C435 1.407 . S
C433 H440 0.930 . S
C434 C422 1.410 . S
C434 C435 1.345 . S
C434 H442 0.930 . S
C435 C433 1.407 . S
C435 C434 1.345 . S
C435 H437 0.930 . S
H436 C429 0.930 . S
H437 C435 0.930 . S
H438 C426 0.930 . S
H439 C427 0.931 . S
H440 C433 0.930 . S
H441 C455 0.930 . S
H442 C434 0.930 . S
H443 C461 0.930 . S
H444 C452 0.930 . S
H445 C459 0.931 . S
H446 C423 0.929 . S
H447 C453 0.930 . S
H448 C486 0.930 . S
H449 C430 0.930 . S
H450 C485 0.929 . S
N451 Tb420 2.660 . S
N451 C452 1.305 . S
N451 C456 1.360 . S
C452 H444 0.930 . S
C452 N451 1.305 . S
C452 C455 1.407 . S
C453 H447 0.930 . S
C453 C454 1.410 . S
C453 C455 1.345 . S
C454 C453 1.410 . S
C454 C456 1.417 . S
C454 C486 1.432 . S
C455 H441 0.930 . S
C455 C452 1.407 . S
C455 C453 1.345 . S
C456 N451 1.360 . S
C456 C454 1.417 . S
C456 C460 1.432 . S
H457 C462 0.930 . S
N458 Tb420 2.600 . S
N458 C460 1.359 . S
N458 C461 1.327 . S
C459 H445 0.931 . S
C459 C461 1.392 . S
C459 C462 1.370 . S
C460 C456 1.432 . S
C460 N458 1.359 . S
C460 C463 1.414 . S
C461 H443 0.930 . S
C461 N458 1.327 . S
C461 C459 1.392 . S
C462 H457 0.930 . S
C462 C459 1.370 . S
C462 C463 1.385 . S
C463 C460 1.414 . S
C463 C462 1.385 . S
C463 C485 1.444 . S
O464 Tb420 2.546 . S
O464 C484 1.251 . S
O465 Tb420 2.610 . S
O465 Tb431 2.362 . S
O465 C476 1.283 . S
O466 Tb431 2.421 . S
O466 C483 1.262 . S
O467 Tb420 2.320 . S
O467 C483 1.260 . S
O468 Tb420 2.552 . S
O468 C476 1.243 . S
O469 Tb420 2.413 . S
O469 C484 1.256 . S
O470 Tb431 2.546 . S
O470 C495 1.251 . S
O471 Tb420 2.362 . S
O471 Tb431 2.610 . S
O471 C487 1.283 . S
O472 Tb420 2.421 . S
O472 C494 1.262 . S
O473 Tb431 2.320 . S
O473 C494 1.260 . S
O474 Tb431 2.552 . S
O474 C487 1.243 . S
O475 Tb431 2.413 . S
O475 C495 1.256 . S
C476 O465 1.283 . S
C476 O468 1.243 . S
C477 C479 1.393 . S
C477 C481 1.401 . S
C477 C484 1.481 1_554 S
C478 C479 1.400 . S
C478 C480 1.384 . S
C479 C477 1.393 . S
C479 C478 1.400 . S
C479 H496 0.930 . S
C480 C478 1.384 . S
C480 C482 1.392 . S
C480 H497 0.931 . S
C481 C477 1.401 . S
C481 C482 1.401 . S
C481 H498 0.930 . S
C482 C480 1.392 . S
C482 C481 1.401 . S
C482 H499 0.930 . S
C483 O466 1.262 . S
C483 O467 1.260 . S
C484 Tb420 2.833 . S
C484 O464 1.251 . S
C484 O469 1.256 . S
C484 C477 1.481 1_556 S
C485 H450 0.929 . S
C485 C463 1.444 . S
C485 C486 1.317 . S
C486 H448 0.930 . S
C486 C454 1.432 . S
C486 C485 1.317 . S
C487 O471 1.283 . S
C487 O474 1.243 . S
C488 C489 1.382 . S
C488 C492 1.393 . S
C488 C495 1.500 . S
C489 C488 1.382 . S
C489 C490 1.400 . S
C489 H500 0.930 . S
C490 C489 1.400 . S
C490 C491 1.384 . S
C491 C490 1.384 . S
C491 C493 1.392 . S
C491 H501 0.931 . S
C492 C488 1.393 . S
C492 C493 1.401 . S
C492 H502 0.930 . S
C493 C491 1.392 . S
C493 C492 1.401 . S
C493 H503 0.930 . S
C494 O472 1.262 . S
C494 O473 1.260 . S
C495 Tb431 2.833 . S
C495 O470 1.251 . S
C495 O475 1.256 . S
C495 C488 1.500 . S
H496 C479 0.930 . S
H497 C480 0.931 . S
H498 C481 0.930 . S
H499 C482 0.930 . S
H500 C489 0.930 . S
H501 C491 0.931 . S
H502 C492 0.930 . S
H503 C493 0.930 . S
Tb504 N535 2.660 . S
Tb504 N542 2.600 . S
Tb504 O548 2.546 . S
Tb504 O549 2.610 . S
Tb504 O551 2.320 . S
Tb504 O552 2.552 . S
Tb504 O553 2.413 . S
Tb504 O555 2.362 1_556 S
Tb504 O556 2.421 . S
Tb504 C568 2.833 . S
C505 C508 1.432 . S
C505 C509 1.414 . S
C505 N512 1.359 . S
C506 C508 1.417 . S
C506 C510 1.432 . S
C506 C518 1.410 . S
C507 C509 1.444 . S
C507 C510 1.317 . S
C507 H530 0.929 . S
C508 C505 1.432 . S
C508 C506 1.417 . S
C508 N516 1.360 . S
C509 C505 1.414 . S
C509 C507 1.444 . S
C509 C514 1.385 . S
C510 C506 1.432 . S
C510 C507 1.317 . S
C510 H522 0.930 . S
C511 C513 1.392 . S
C511 C514 1.370 . S
C511 H523 0.931 . S
N512 C505 1.359 . S
N512 C513 1.327 . S
N512 Tb515 2.600 . S
C513 C511 1.392 . S
C513 N512 1.327 . S
C513 H520 0.930 . S
C514 C509 1.385 . S
C514 C511 1.370 . S
C514 H533 0.930 . S
Tb515 N512 2.600 . S
Tb515 N516 2.660 . S
Tb515 O549 2.362 1_554 S
Tb515 O550 2.421 . S
Tb515 O554 2.546 . S
Tb515 O555 2.610 . S
Tb515 O557 2.320 . S
Tb515 O558 2.552 . S
Tb515 O559 2.413 . S
Tb515 C579 2.833 . S
N516 C508 1.360 . S
N516 Tb515 2.660 . S
N516 C517 1.305 . S
C517 N516 1.305 . S
C517 C519 1.407 . S
C517 H524 0.930 . S
C518 C506 1.410 . S
C518 C519 1.345 . S
C518 H526 0.930 . S
C519 C517 1.407 . S
C519 C518 1.345 . S
C519 H521 0.930 . S
H520 C513 0.930 . S
H521 C519 0.930 . S
H522 C510 0.930 . S
H523 C511 0.931 . S
H524 C517 0.930 . S
H525 C539 0.930 . S
H526 C518 0.930 . S
H527 C545 0.930 . S
H528 C536 0.930 . S
H529 C543 0.931 . S
H530 C507 0.929 . S
H531 C537 0.930 . S
H532 C570 0.930 . S
H533 C514 0.930 . S
H534 C569 0.929 . S
N535 Tb504 2.660 . S
N535 C536 1.305 . S
N535 C540 1.360 . S
C536 H528 0.930 . S
C536 N535 1.305 . S
C536 C539 1.407 . S
C537 H531 0.930 . S
C537 C538 1.410 . S
C537 C539 1.345 . S
C538 C537 1.410 . S
C538 C540 1.417 . S
C538 C570 1.432 . S
C539 H525 0.930 . S
C539 C536 1.407 . S
C539 C537 1.345 . S
C540 N535 1.360 . S
C540 C538 1.417 . S
C540 C544 1.432 . S
H541 C546 0.930 . S
N542 Tb504 2.600 . S
N542 C544 1.359 . S
N542 C545 1.327 . S
C543 H529 0.931 . S
C543 C545 1.392 . S
C543 C546 1.370 . S
C544 C540 1.432 . S
C544 N542 1.359 . S
C544 C547 1.414 . S
C545 H527 0.930 . S
C545 N542 1.327 . S
C545 C543 1.392 . S
C546 H541 0.930 . S
C546 C543 1.370 . S
C546 C547 1.385 . S
C547 C544 1.414 . S
C547 C546 1.385 . S
C547 C569 1.444 . S
O548 Tb504 2.546 . S
O548 C568 1.251 . S
O549 Tb504 2.610 . S
O549 Tb515 2.362 1_556 S
O549 C560 1.283 . S
O550 Tb515 2.421 . S
O550 C567 1.262 1_554 S
O551 Tb504 2.320 . S
O551 C567 1.260 . S
O552 Tb504 2.552 . S
O552 C560 1.243 . S
O553 Tb504 2.413 . S
O553 C568 1.256 . S
O554 Tb515 2.546 . S
O554 C579 1.251 . S
O555 Tb504 2.362 1_554 S
O555 Tb515 2.610 . S
O555 C571 1.283 . S
O556 Tb504 2.421 . S
O556 C578 1.262 1_556 S
O557 Tb515 2.320 . S
O557 C578 1.260 . S
O558 Tb515 2.552 . S
O558 C571 1.243 . S
O559 Tb515 2.413 . S
O559 C579 1.256 . S
C560 O549 1.283 . S
C560 O552 1.243 . S
C561 C563 1.382 . S
C561 C565 1.393 . S
C561 C568 1.500 . S
C562 C563 1.400 . S
C562 C564 1.384 . S
C563 C561 1.382 . S
C563 C562 1.400 . S
C563 H580 0.930 . S
C564 C562 1.384 . S
C564 C566 1.392 . S
C564 H581 0.931 . S
C565 C561 1.393 . S
C565 C566 1.401 . S
C565 H582 0.930 . S
C566 C564 1.392 . S
C566 C565 1.401 . S
C566 H583 0.930 . S
C567 O550 1.262 1_556 S
C567 O551 1.260 . S
C568 Tb504 2.833 . S
C568 O548 1.251 . S
C568 O553 1.256 . S
C568 C561 1.500 . S
C569 H534 0.929 . S
C569 C547 1.444 . S
C569 C570 1.317 . S
C570 H532 0.930 . S
C570 C538 1.432 . S
C570 C569 1.317 . S
C571 O555 1.283 . S
C571 O558 1.243 . S
C572 C573 1.382 . S
C572 C576 1.393 . S
C572 C579 1.500 . S
C573 C572 1.382 . S
C573 C574 1.400 . S
C573 H584 0.930 . S
C574 C573 1.400 . S
C574 C575 1.384 . S
C575 C574 1.384 . S
C575 C577 1.392 . S
C575 H585 0.931 . S
C576 C572 1.393 . S
C576 C577 1.401 . S
C576 H586 0.930 . S
C577 C575 1.392 . S
C577 C576 1.401 . S
C577 H587 0.930 . S
C578 O556 1.262 1_554 S
C578 O557 1.260 . S
C579 Tb515 2.833 . S
C579 O554 1.251 . S
C579 O559 1.256 . S
C579 C572 1.500 . S
H580 C563 0.930 . S
H581 C564 0.931 . S
H582 C565 0.930 . S
H583 C566 0.930 . S
H584 C573 0.930 . S
H585 C575 0.931 . S
H586 C576 0.930 . S
H587 C577 0.930 . S
Tb588 N619 2.657 1_655 S
Tb588 N626 2.600 1_655 S
Tb588 O632 2.547 . S
Tb588 O633 2.610 . S
Tb588 O635 2.318 1_655 S
Tb588 O636 2.554 . S
Tb588 O637 2.413 1_655 S
Tb588 O639 2.361 1_655 S
Tb588 O640 2.423 . S
Tb588 C652 2.833 . S
C589 C592 1.432 . S
C589 C593 1.414 . S
C589 N596 1.359 . S
C590 C592 1.417 . S
C590 C594 1.432 . S
C590 C602 1.410 . S
C591 C593 1.444 . S
C591 C594 1.317 . S
C591 H614 0.929 . S
C592 C589 1.432 . S
C592 C590 1.417 . S
C592 N600 1.360 . S
C593 C589 1.414 . S
C593 C591 1.444 . S
C593 C598 1.410 . S
C594 C590 1.432 . S
C594 C591 1.317 . S
C594 H606 0.930 . S
C595 C597 1.392 . S
C595 C598 1.345 1_455 S
C595 H607 0.931 . S
N596 C589 1.359 . S
N596 C597 1.327 1_655 S
N596 Tb599 2.600 1_655 S
C597 C595 1.392 . S
C597 N596 1.327 1_455 S
C597 H604 0.930 . S
C598 C593 1.410 . S
C598 C595 1.345 1_655 S
C598 H617 0.929 . S
Tb599 N596 2.600 1_455 S
Tb599 N600 2.651 1_455 S
Tb599 O633 2.358 1_455 S
Tb599 O634 2.428 . S
Tb599 O638 2.550 . S
Tb599 O639 2.613 . S
Tb599 O641 2.314 1_455 S
Tb599 O642 2.558 . S
Tb599 O643 2.411 1_455 S
Tb599 C663 2.834 . S
N600 C592 1.360 . S
N600 Tb599 2.651 1_655 S
N600 C601 1.305 . S
C601 N600 1.305 . S
C601 C603 1.407 . S
C601 H608 0.930 . S
C602 C590 1.410 . S
C602 C603 1.345 . S
C602 H610 0.930 . S
C603 C601 1.407 . S
C603 C602 1.345 . S
C603 H605 0.930 . S
H604 C597 0.930 . S
H605 C603 0.930 . S
H606 C594 0.930 . S
H607 C595 0.931 . S
H608 C601 0.930 . S
H609 C623 0.930 . S
H610 C602 0.930 . S
H611 C629 0.930 . S
H612 C620 0.930 . S
H613 C627 0.931 . S
H614 C591 0.929 . S
H615 C621 0.930 . S
H616 C654 0.930 . S
H617 C598 0.929 . S
H618 C653 0.929 . S
N619 Tb588 2.657 1_455 S
N619 C620 1.305 . S
N619 C624 1.360 . S
C620 H612 0.930 . S
C620 N619 1.305 . S
C620 C623 1.407 . S
C621 H615 0.930 . S
C621 C622 1.410 . S
C621 C623 1.345 . S
C622 C621 1.410 . S
C622 C624 1.417 . S
C622 C654 1.432 . S
C623 H609 0.930 . S
C623 C620 1.407 . S
C623 C621 1.345 . S
C624 N619 1.360 . S
C624 C622 1.417 . S
C624 C628 1.432 . S
H625 C630 0.930 . S
N626 Tb588 2.600 1_455 S
N626 C628 1.359 . S
N626 C629 1.327 1_455 S
C627 H613 0.931 . S
C627 C629 1.392 . S
C627 C630 1.370 1_655 S
C628 C624 1.432 . S
C628 N626 1.359 . S
C628 C631 1.414 . S
C629 H611 0.930 . S
C629 N626 1.327 1_655 S
C629 C627 1.392 . S
C630 H625 0.930 . S
C630 C627 1.370 1_455 S
C630 C631 1.385 . S
C631 C628 1.414 . S
C631 C630 1.385 . S
C631 C653 1.444 . S
O632 Tb588 2.547 . S
O632 C652 1.251 . S
O633 Tb588 2.610 . S
O633 Tb599 2.358 1_655 S
O633 C644 1.283 . S
O634 Tb599 2.428 . S
O634 C651 1.262 . S
O635 Tb588 2.318 1_455 S
O635 C651 1.260 . S
O636 Tb588 2.554 . S
O636 C644 1.243 . S
O637 Tb588 2.413 1_455 S
O637 C652 1.256 1_455 S
O638 Tb599 2.550 . S
O638 C663 1.251 . S
O639 Tb588 2.361 1_455 S
O639 Tb599 2.613 . S
O639 C655 1.283 . S
O640 Tb588 2.423 . S
O640 C662 1.262 . S
O641 Tb599 2.314 1_655 S
O641 C662 1.260 . S
O642 Tb599 2.558 . S
O642 C655 1.243 . S
O643 Tb599 2.411 1_655 S
O643 C663 1.256 1_655 S
C644 O633 1.283 . S
C644 O636 1.243 . S
C645 C647 1.382 . S
C645 C649 1.393 . S
C645 C652 1.500 . S
C646 C647 1.400 . S
C646 C648 1.384 . S
C647 C645 1.382 . S
C647 C646 1.400 . S
C647 H664 0.930 1_655 S
C648 C646 1.384 . S
C648 C650 1.392 . S
C648 H665 0.931 . S
C649 C645 1.393 . S
C649 C650 1.401 . S
C649 H666 0.930 . S
C650 C648 1.392 . S
C650 C649 1.401 . S
C650 H667 0.930 . S
C651 O634 1.262 . S
C651 O635 1.260 . S
C652 Tb588 2.833 . S
C652 O632 1.251 . S
C652 O637 1.256 1_655 S
C652 C645 1.500 . S
C653 H618 0.929 . S
C653 C631 1.444 . S
C653 C654 1.317 . S
C654 H616 0.930 . S
C654 C622 1.432 . S
C654 C653 1.317 . S
C655 O639 1.283 . S
C655 O642 1.243 . S
C656 C657 1.382 . S
C656 C660 1.393 . S
C656 C663 1.500 . S
C657 C656 1.382 . S
C657 C658 1.400 . S
C657 H668 0.930 1_455 S
C658 C657 1.400 . S
C658 C659 1.384 . S
C659 C658 1.384 . S
C659 C661 1.392 . S
C659 H669 0.931 . S
C660 C656 1.393 . S
C660 C661 1.401 . S
C660 H670 0.930 . S
C661 C659 1.392 . S
C661 C660 1.401 . S
C661 H671 0.930 . S
C662 O640 1.262 . S
C662 O641 1.260 . S
C663 Tb599 2.834 . S
C663 O638 1.251 . S
C663 O643 1.256 1_455 S
C663 C656 1.500 . S
H664 C647 0.930 1_455 S
H665 C648 0.931 . S
H666 C649 0.930 . S
H667 C650 0.930 . S
H668 C657 0.930 1_655 S
H669 C659 0.931 . S
H670 C660 0.930 . S
H671 C661 0.930 . S
H672 C678 0.930 . S
H673 C681 0.930 . S
H674 C682 0.930 . S
H675 C683 0.930 . S
H676 C686 0.930 . S
H677 C687 0.930 . S
C678 H672 0.930 . S
C678 C679 1.355 . S
C678 C680 1.415 . S
C679 C678 1.355 . S
C679 C681 1.419 . S
C680 C678 1.415 . S
C680 C685 1.425 . S
C680 C687 1.409 . S
C681 H673 0.930 . S
C681 C679 1.419 . S
C681 C682 1.362 . S
C682 H674 0.930 . S
C682 C681 1.362 . S
C682 C685 1.409 . S
C683 H675 0.930 . S
C683 C684 1.355 . S
C683 C685 1.415 . S
C684 C683 1.355 . S
C684 C686 1.419 . S
C685 C680 1.425 . S
C685 C682 1.409 . S
C685 C683 1.415 . S
C686 H676 0.930 . S
C686 C684 1.419 . S
C686 C687 1.362 . S
C687 H677 0.930 . S
C687 C680 1.409 . S
C687 C686 1.362 . S
H688 C694 0.930 . S
H689 C697 0.930 . S
H690 C698 0.930 . S
H691 C699 0.930 . S
H692 C702 0.930 . S
H693 C703 0.930 . S
C694 H688 0.930 . S
C694 C695 1.355 . S
C694 C696 1.415 . S
C695 C694 1.355 . S
C695 C697 1.419 . S
C696 C694 1.415 . S
C696 C701 1.425 . S
C696 C703 1.409 . S
C697 H689 0.930 . S
C697 C695 1.419 . S
C697 C698 1.362 . S
C698 H690 0.930 . S
C698 C697 1.362 . S
C698 C701 1.409 . S
C699 H691 0.930 . S
C699 C700 1.355 . S
C699 C701 1.415 . S
C700 C699 1.355 . S
C700 C702 1.419 . S
C701 C696 1.425 . S
C701 C698 1.409 . S
C701 C699 1.415 . S
C702 H692 0.930 . S
C702 C700 1.419 . S
C702 C703 1.362 . S
C703 H693 0.930 . S
C703 C696 1.409 . S
C703 C702 1.362 . S
H704 C710 0.930 . S
H705 C713 0.930 . S
H706 C714 0.930 . S
H707 C715 0.930 . S
H708 C718 0.930 1_554 S
H709 C719 0.930 . S
C710 H704 0.930 . S
C710 C711 1.355 . S
C710 C712 1.415 . S
C711 C710 1.355 . S
C711 C713 1.419 . S
C712 C710 1.415 . S
C712 C717 1.425 . S
C712 C719 1.409 . S
C713 H705 0.930 . S
C713 C711 1.419 . S
C713 C714 1.362 . S
C714 H706 0.930 . S
C714 C713 1.362 . S
C714 C717 1.409 . S
C715 H707 0.930 . S
C715 C716 1.355 . S
C715 C717 1.415 . S
C716 C715 1.355 . S
C716 C718 1.419 . S
C717 C712 1.425 . S
C717 C714 1.409 . S
C717 C715 1.415 . S
C718 H708 0.930 1_556 S
C718 C716 1.419 . S
C718 C719 1.362 . S
C719 H709 0.930 . S
C719 C712 1.409 . S
C719 C718 1.362 . S
H720 C726 0.930 . S
H721 C729 0.930 . S
H722 C730 0.930 . S
H723 C731 0.930 . S
H724 C734 0.930 . S
H725 C735 0.930 . S
C726 H720 0.930 . S
C726 C727 1.355 . S
C726 C728 1.415 . S
C727 C726 1.355 . S
C727 C729 1.419 . S
C728 C726 1.415 . S
C728 C733 1.425 . S
C728 C735 1.409 . S
C729 H721 0.930 . S
C729 C727 1.419 . S
C729 C730 1.362 . S
C730 H722 0.930 . S
C730 C729 1.362 . S
C730 C733 1.409 . S
C731 H723 0.930 . S
C731 C732 1.355 . S
C731 C733 1.415 . S
C732 C731 1.355 . S
C732 C734 1.419 . S
C733 C728 1.425 . S
C733 C730 1.409 . S
C733 C731 1.415 . S
C734 H724 0.930 . S
C734 C732 1.419 . S
C734 C735 1.362 . S
C735 H725 0.930 . S
C735 C728 1.409 . S
C735 C734 1.362 . S
H736 C742 0.930 . S
H737 C745 0.930 . S
H738 C746 0.930 . S
H739 C747 0.930 . S
H740 C750 0.930 . S
H741 C751 0.930 . S
C742 H736 0.930 . S
C742 C743 1.355 . S
C742 C744 1.415 . S
C743 C742 1.355 . S
C743 C745 1.419 . S
C744 C742 1.415 . S
C744 C749 1.425 . S
C744 C751 1.409 . S
C745 H737 0.930 . S
C745 C743 1.419 . S
C745 C746 1.362 . S
C746 H738 0.930 . S
C746 C745 1.362 . S
C746 C749 1.409 . S
C747 H739 0.930 . S
C747 C748 1.355 . S
C747 C749 1.415 . S
C748 C747 1.355 . S
C748 C750 1.419 . S
C749 C744 1.425 . S
C749 C746 1.409 . S
C749 C747 1.415 . S
C750 H740 0.930 . S
C750 C748 1.419 . S
C750 C751 1.362 . S
C751 H741 0.930 . S
C751 C744 1.409 . S
C751 C750 1.362 . S
H752 C758 0.930 . S
H753 C761 0.930 . S
H754 C762 0.930 . S
H755 C763 0.930 . S
H756 C766 0.930 . S
H757 C767 0.930 . S
C758 H752 0.930 . S
C758 C759 1.355 . S
C758 C760 1.415 . S
C759 C758 1.355 . S
C759 C761 1.419 . S
C760 C758 1.415 . S
C760 C765 1.425 . S
C760 C767 1.409 . S
C761 H753 0.930 . S
C761 C759 1.419 . S
C761 C762 1.362 . S
C762 H754 0.930 . S
C762 C761 1.362 . S
C762 C765 1.409 . S
C763 H755 0.930 . S
C763 C764 1.355 . S
C763 C765 1.415 . S
C764 C763 1.355 . S
C764 C766 1.419 . S
C765 C760 1.425 . S
C765 C762 1.409 . S
C765 C763 1.415 . S
C766 H756 0.930 . S
C766 C764 1.419 . S
C766 C767 1.362 . S
C767 H757 0.930 . S
C767 C760 1.409 . S
C767 C766 1.362 . S
H768 C774 0.930 . S
H769 C777 0.930 . S
H770 C778 0.930 . S
H771 C779 0.930 . S
H772 C782 0.930 . S
H773 C783 0.930 . S
C774 H768 0.930 . S
C774 C775 1.355 . S
C774 C776 1.415 . S
C775 C774 1.355 . S
C775 C777 1.419 . S
C776 C774 1.415 . S
C776 C781 1.425 . S
C776 C783 1.409 . S
C777 H769 0.930 . S
C777 C775 1.419 . S
C777 C778 1.362 . S
C778 H770 0.930 . S
C778 C777 1.362 . S
C778 C781 1.409 . S
C779 H771 0.930 . S
C779 C780 1.355 . S
C779 C781 1.415 . S
C780 C779 1.355 . S
C780 C782 1.419 . S
C781 C776 1.425 . S
C781 C778 1.409 . S
C781 C779 1.415 . S
C782 H772 0.930 . S
C782 C780 1.419 . S
C782 C783 1.362 . S
C783 H773 0.930 . S
C783 C776 1.409 . S
C783 C782 1.362 . S
H784 C790 0.930 . S
H785 C793 0.930 . S
H786 C794 0.930 . S
H787 C795 0.930 . S
H788 C798 0.930 . S
H789 C799 0.930 . S
C790 H784 0.930 . S
C790 C791 1.355 . S
C790 C792 1.415 . S
C791 C790 1.355 . S
C791 C793 1.419 . S
C792 C790 1.415 . S
C792 C797 1.425 . S
C792 C799 1.409 . S
C793 H785 0.930 . S
C793 C791 1.419 . S
C793 C794 1.362 . S
C794 H786 0.930 . S
C794 C793 1.362 . S
C794 C797 1.409 . S
C795 H787 0.930 . S
C795 C796 1.355 . S
C795 C797 1.415 . S
C796 C795 1.355 . S
C796 C798 1.419 . S
C797 C792 1.425 . S
C797 C794 1.409 . S
C797 C795 1.415 . S
C798 H788 0.930 . S
C798 C796 1.419 . S
C798 C799 1.362 . S
C799 H789 0.930 . S
C799 C792 1.409 . S
C799 C798 1.362 . S
H800 C806 0.930 . S
H801 C809 0.930 . S
H802 C810 0.930 . S
H803 C811 0.930 . S
H804 C814 0.930 . S
H805 C815 0.930 . S
C806 H800 0.930 . S
C806 C807 1.355 . S
C806 C808 1.415 . S
C807 C806 1.355 . S
C807 C809 1.419 . S
C808 C806 1.415 . S
C808 C813 1.425 . S
C808 C815 1.409 . S
C809 H801 0.930 . S
C809 C807 1.419 . S
C809 C810 1.362 . S
C810 H802 0.930 . S
C810 C809 1.362 . S
C810 C813 1.409 . S
C811 H803 0.930 . S
C811 C812 1.355 . S
C811 C813 1.415 . S
C812 C811 1.355 . S
C812 C814 1.419 . S
C813 C808 1.425 . S
C813 C810 1.409 . S
C813 C811 1.415 . S
C814 H804 0.930 . S
C814 C812 1.419 . S
C814 C815 1.362 . S
C815 H805 0.930 . S
C815 C808 1.409 . S
C815 C814 1.362 . S
H816 C822 0.930 . S
H817 C825 0.930 . S
H818 C826 0.930 . S
H819 C827 0.930 . S
H820 C830 0.930 . S
H821 C831 0.930 . S
C822 H816 0.930 . S
C822 C823 1.355 . S
C822 C824 1.415 . S
C823 C822 1.355 . S
C823 C825 1.419 . S
C824 C822 1.415 . S
C824 C829 1.425 . S
C824 C831 1.409 . S
C825 H817 0.930 . S
C825 C823 1.419 . S
C825 C826 1.362 . S
C826 H818 0.930 . S
C826 C825 1.362 . S
C826 C829 1.409 . S
C827 H819 0.930 . S
C827 C828 1.355 . S
C827 C829 1.415 . S
C828 C827 1.355 . S
C828 C830 1.419 . S
C829 C824 1.425 . S
C829 C826 1.409 . S
C829 C827 1.415 . S
C830 H820 0.930 . S
C830 C828 1.419 . S
C830 C831 1.362 . S
C831 H821 0.930 . S
C831 C824 1.409 . S
C831 C830 1.362 . S
H832 C838 0.930 . S
H833 C841 0.930 . S
H834 C842 0.930 . S
H835 C843 0.930 . S
H836 C846 0.930 . S
H837 C847 0.930 . S
C838 H832 0.930 . S
C838 C839 1.355 . S
C838 C840 1.415 . S
C839 C838 1.355 . S
C839 C841 1.419 . S
C840 C838 1.415 . S
C840 C845 1.425 . S
C840 C847 1.409 . S
C841 H833 0.930 . S
C841 C839 1.419 . S
C841 C842 1.362 . S
C842 H834 0.930 . S
C842 C841 1.362 . S
C842 C845 1.409 . S
C843 H835 0.930 . S
C843 C844 1.355 . S
C843 C845 1.415 . S
C844 C843 1.355 . S
C844 C846 1.419 . S
C845 C840 1.425 . S
C845 C842 1.409 . S
C845 C843 1.415 . S
C846 H836 0.930 . S
C846 C844 1.419 . S
C846 C847 1.362 . S
C847 H837 0.930 . S
C847 C840 1.409 . S
C847 C846 1.362 . S
H848 C854 0.930 . S
H849 C857 0.930 . S
H850 C858 0.930 . S
H851 C859 0.930 . S
H852 C862 0.930 . S
H853 C863 0.930 . S
C854 H848 0.930 . S
C854 C855 1.355 . S
C854 C856 1.415 . S
C855 C854 1.355 . S
C855 C857 1.419 . S
C856 C854 1.415 . S
C856 C861 1.425 . S
C856 C863 1.409 . S
C857 H849 0.930 . S
C857 C855 1.419 . S
C857 C858 1.362 . S
C858 H850 0.930 . S
C858 C857 1.362 . S
C858 C861 1.409 . S
C859 H851 0.930 . S
C859 C860 1.355 . S
C859 C861 1.415 . S
C860 C859 1.355 . S
C860 C862 1.419 . S
C861 C856 1.425 . S
C861 C858 1.409 . S
C861 C859 1.415 . S
C862 H852 0.930 . S
C862 C860 1.419 . S
C862 C863 1.362 . S
C863 H853 0.930 . S
C863 C856 1.409 . S
C863 C862 1.362 . S
H864 C870 0.930 . S
H865 C873 0.930 . S
H866 C874 0.930 . S
H867 C875 0.930 . S
H868 C878 0.930 . S
H869 C879 0.930 . S
C870 H864 0.930 . S
C870 C871 1.355 . S
C870 C872 1.415 . S
C871 C870 1.355 . S
C871 C873 1.419 . S
C872 C870 1.415 . S
C872 C877 1.425 . S
C872 C879 1.409 . S
C873 H865 0.930 . S
C873 C871 1.419 . S
C873 C874 1.362 . S
C874 H866 0.930 . S
C874 C873 1.362 . S
C874 C877 1.409 . S
C875 H867 0.930 . S
C875 C876 1.355 . S
C875 C877 1.415 . S
C876 C875 1.355 . S
C876 C878 1.419 . S
C877 C872 1.425 . S
C877 C874 1.409 . S
C877 C875 1.415 . S
C878 H868 0.930 . S
C878 C876 1.419 . S
C878 C879 1.362 . S
C879 H869 0.930 . S
C879 C872 1.409 . S
C879 C878 1.362 . S
H880 C886 0.930 . S
H881 C889 0.930 . S
H882 C890 0.930 . S
H883 C891 0.930 . S
H884 C894 0.930 . S
H885 C895 0.930 . S
C886 H880 0.930 . S
C886 C887 1.355 . S
C886 C888 1.415 . S
C887 C886 1.355 . S
C887 C889 1.419 . S
C888 C886 1.415 . S
C888 C893 1.425 . S
C888 C895 1.409 . S
C889 H881 0.930 . S
C889 C887 1.419 . S
C889 C890 1.362 . S
C890 H882 0.930 . S
C890 C889 1.362 . S
C890 C893 1.409 . S
C891 H883 0.930 . S
C891 C892 1.355 . S
C891 C893 1.415 . S
C892 C891 1.355 . S
C892 C894 1.419 . S
C893 C888 1.425 . S
C893 C890 1.409 . S
C893 C891 1.415 . S
C894 H884 0.930 . S
C894 C892 1.419 . S
C894 C895 1.362 . S
C895 H885 0.930 . S
C895 C888 1.409 . S
C895 C894 1.362 . S
H896 C902 0.930 . S
H897 C905 0.930 . S
H898 C906 0.930 . S
H899 C907 0.930 . S
H900 C910 0.930 . S
H901 C911 0.930 . S
C902 H896 0.930 . S
C902 C903 1.355 . S
C902 C904 1.415 . S
C903 C902 1.355 . S
C903 C905 1.419 . S
C904 C902 1.415 . S
C904 C909 1.425 . S
C904 C911 1.409 . S
C905 H897 0.930 . S
C905 C903 1.419 . S
C905 C906 1.362 . S
C906 H898 0.930 . S
C906 C905 1.362 . S
C906 C909 1.409 . S
C907 H899 0.930 . S
C907 C908 1.355 . S
C907 C909 1.415 . S
C908 C907 1.355 . S
C908 C910 1.419 . S
C909 C904 1.425 . S
C909 C906 1.409 . S
C909 C907 1.415 . S
C910 H900 0.930 . S
C910 C908 1.419 . S
C910 C911 1.362 . S
C911 H901 0.930 . S
C911 C904 1.409 . S
C911 C910 1.362 . S
H912 C918 0.930 . S
H913 C921 0.930 . S
H914 C922 0.930 . S
H915 C923 0.930 . S
H916 C926 0.930 . S
H917 C927 0.930 . S
C918 H912 0.930 . S
C918 C919 1.355 . S
C918 C920 1.415 . S
C919 C918 1.355 . S
C919 C921 1.419 . S
C920 C918 1.415 . S
C920 C925 1.425 . S
C920 C927 1.409 . S
C921 H913 0.930 . S
C921 C919 1.419 . S
C921 C922 1.362 . S
C922 H914 0.930 . S
C922 C921 1.362 . S
C922 C925 1.409 . S
C923 H915 0.930 . S
C923 C924 1.355 . S
C923 C925 1.415 . S
C924 C923 1.355 . S
C924 C926 1.419 . S
C925 C920 1.425 . S
C925 C922 1.409 . S
C925 C923 1.415 . S
C926 H916 0.930 . S
C926 C924 1.419 . S
C926 C927 1.362 . S
C927 H917 0.930 . S
C927 C920 1.409 . S
C927 C926 1.362 . S
H928 C934 0.930 . S
H929 C937 0.930 . S
H930 C938 0.930 . S
H931 C939 0.930 . S
H932 C942 0.930 . S
H933 C943 0.930 . S
C934 H928 0.930 . S
C934 C935 1.355 1_465 S
C934 C936 1.415 . S
C935 C934 1.355 1_645 S
C935 C937 1.419 . S
C936 C934 1.415 . S
C936 C941 1.425 1_466 S
C936 C943 1.409 1_556 S
C937 H929 0.930 . S
C937 C935 1.419 . S
C937 C938 1.362 . S
C938 H930 0.930 . S
C938 C937 1.362 . S
C938 C941 1.409 1_556 S
C939 H931 0.930 . S
C939 C940 1.355 1_645 S
C939 C941 1.415 . S
C940 C939 1.355 1_465 S
C940 C942 1.419 . S
C941 C936 1.425 1_644 S
C941 C938 1.409 1_554 S
C941 C939 1.415 . S
C942 H932 0.930 . S
C942 C940 1.419 . S
C942 C943 1.362 . S
C943 H933 0.930 . S
C943 C936 1.409 1_554 S
C943 C942 1.362 . S
H944 C950 0.930 . S
H945 C953 0.930 . S
H946 C954 0.930 . S
H947 C955 0.930 . S
H948 C958 0.930 . S
H949 C959 0.930 . S
C950 H944 0.930 . S
C950 C951 1.355 . S
C950 C952 1.415 . S
C951 C950 1.355 . S
C951 C953 1.419 . S
C952 C950 1.415 . S
C952 C957 1.425 . S
C952 C959 1.409 . S
C953 H945 0.930 . S
C953 C951 1.419 . S
C953 C954 1.362 . S
C954 H946 0.930 . S
C954 C953 1.362 . S
C954 C957 1.409 . S
C955 H947 0.930 . S
C955 C956 1.355 . S
C955 C957 1.415 . S
C956 C955 1.355 . S
C956 C958 1.419 . S
C957 C952 1.425 . S
C957 C954 1.409 . S
C957 C955 1.415 . S
C958 H948 0.930 . S
C958 C956 1.419 . S
C958 C959 1.362 . S
C959 H949 0.930 . S
C959 C952 1.409 . S
C959 C958 1.362 . S
H960 C966 0.930 . S
H961 C969 0.930 . S
H962 C970 0.930 . S
H963 C971 0.930 . S
H964 C974 0.930 . S
H965 C975 0.930 . S
C966 H960 0.930 . S
C966 C967 1.358 . S
C966 C968 1.415 . S
C967 C966 1.358 . S
C967 C969 1.414 1_565 S
C968 C966 1.415 . S
C968 C973 1.425 1_565 S
C968 C975 1.409 . S
C969 H961 0.930 . S
C969 C967 1.414 1_545 S
C969 C970 1.362 . S
C970 H962 0.930 . S
C970 C969 1.362 . S
C970 C973 1.409 . S
C971 H963 0.930 . S
C971 C972 1.360 . S
C971 C973 1.415 . S
C972 C971 1.360 . S
C972 C974 1.413 1_545 S
C973 C968 1.425 1_545 S
C973 C970 1.409 . S
C973 C971 1.415 . S
C974 H964 0.930 . S
C974 C972 1.413 1_565 S
C974 C975 1.362 . S
C975 H965 0.930 . S
C975 C968 1.409 . S
C975 C974 1.362 . S
H976 C982 0.930 . S
H977 C985 0.930 . S
H978 C986 0.930 . S
H979 C987 0.930 . S
H980 C990 0.930 . S
H981 C991 0.930 . S
C982 H976 0.930 . S
C982 C983 1.355 . S
C982 C984 1.415 . S
C983 C982 1.355 . S
C983 C985 1.419 . S
C984 C982 1.415 . S
C984 C989 1.425 . S
C984 C991 1.409 . S
C985 H977 0.930 . S
C985 C983 1.419 . S
C985 C986 1.362 . S
C986 H978 0.930 . S
C986 C985 1.362 . S
C986 C989 1.409 . S
C987 H979 0.930 . S
C987 C988 1.355 . S
C987 C989 1.415 . S
C988 C987 1.355 . S
C988 C990 1.419 . S
C989 C984 1.425 . S
C989 C986 1.409 . S
C989 C987 1.415 . S
C990 H980 0.930 . S
C990 C988 1.419 . S
C990 C991 1.362 . S
C991 H981 0.930 . S
C991 C984 1.409 . S
C991 C990 1.362 . S
H992 C998 0.930 . S
H993 C1001 0.930 . S
H994 C1002 0.930 . S
H995 C1003 0.930 . S
H996 C1006 0.930 . S
H997 C1007 0.930 . S
C998 H992 0.930 . S
C998 C999 1.355 . S
C998 C1000 1.415 . S
C999 C998 1.355 . S
C999 C1001 1.419 . S
C1000 C998 1.415 . S
C1000 C1005 1.425 . S
C1000 C1007 1.409 . S
C1001 H993 0.930 . S
C1001 C999 1.419 . S
C1001 C1002 1.362 . S
C1002 H994 0.930 . S
C1002 C1001 1.362 . S
C1002 C1005 1.409 . S
C1003 H995 0.930 . S
C1003 C1004 1.355 . S
C1003 C1005 1.415 . S
C1004 C1003 1.355 . S
C1004 C1006 1.419 . S
C1005 C1000 1.425 . S
C1005 C1002 1.409 . S
C1005 C1003 1.415 . S
C1006 H996 0.930 . S
C1006 C1004 1.419 . S
C1006 C1007 1.362 . S
C1007 H997 0.930 . S
C1007 C1000 1.409 . S
C1007 C1006 1.362 . S
H1008 C1014 0.930 . S
H1009 C1017 0.930 . S
H1010 C1018 0.930 . S
H1011 C1019 0.930 . S
H1012 C1022 0.930 . S
H1013 C1023 0.930 . S
C1014 H1008 0.930 . S
C1014 C1015 1.355 . S
C1014 C1016 1.415 . S
C1015 C1014 1.355 . S
C1015 C1017 1.419 . S
C1016 C1014 1.415 . S
C1016 C1021 1.425 . S
C1016 C1023 1.409 . S
C1017 H1009 0.930 . S
C1017 C1015 1.419 . S
C1017 C1018 1.362 . S
C1018 H1010 0.930 . S
C1018 C1017 1.362 . S
C1018 C1021 1.409 . S
C1019 H1011 0.930 . S
C1019 C1020 1.355 . S
C1019 C1021 1.415 . S
C1020 C1019 1.355 . S
C1020 C1022 1.419 . S
C1021 C1016 1.425 . S
C1021 C1018 1.409 . S
C1021 C1019 1.415 . S
C1022 H1012 0.930 . S
C1022 C1020 1.419 . S
C1022 C1023 1.362 . S
C1023 H1013 0.930 . S
C1023 C1016 1.409 . S
C1023 C1022 1.362 . S
H1024 C1030 0.930 . S
H1025 C1033 0.930 . S
H1026 C1034 0.930 . S
H1027 C1035 0.930 . S
H1028 C1038 0.930 . S
H1029 C1039 0.930 . S
C1030 H1024 0.930 . S
C1030 C1031 1.355 . S
C1030 C1032 1.415 . S
C1031 C1030 1.355 . S
C1031 C1033 1.419 . S
C1032 C1030 1.415 . S
C1032 C1037 1.425 . S
C1032 C1039 1.409 . S
C1033 H1025 0.930 . S
C1033 C1031 1.419 . S
C1033 C1034 1.362 . S
C1034 H1026 0.930 . S
C1034 C1033 1.362 . S
C1034 C1037 1.409 . S
C1035 H1027 0.930 . S
C1035 C1036 1.355 . S
C1035 C1037 1.415 . S
C1036 C1035 1.355 . S
C1036 C1038 1.419 . S
C1037 C1032 1.425 . S
C1037 C1034 1.409 . S
C1037 C1035 1.415 . S
C1038 H1028 0.930 . S
C1038 C1036 1.419 . S
C1038 C1039 1.362 . S
C1039 H1029 0.930 . S
C1039 C1032 1.409 . S
C1039 C1038 1.362 . S
H1040 C1046 0.930 . S
H1041 C1049 0.930 . S
H1042 C1050 0.930 . S
H1043 C1051 0.930 . S
H1044 C1054 0.930 . S
H1045 C1055 0.930 . S
C1046 H1040 0.930 . S
C1046 C1047 1.357 . S
C1046 C1048 1.415 . S
C1047 C1046 1.357 . S
C1047 C1049 1.417 1_655 S
C1048 C1046 1.415 . S
C1048 C1053 1.425 1_656 S
C1048 C1055 1.409 1_556 S
C1049 H1041 0.930 . S
C1049 C1047 1.417 1_455 S
C1049 C1050 1.362 . S
C1050 H1042 0.930 . S
C1050 C1049 1.362 . S
C1050 C1053 1.409 1_556 S
C1051 H1043 0.930 . S
C1051 C1052 1.361 . S
C1051 C1053 1.415 . S
C1052 C1051 1.361 . S
C1052 C1054 1.411 1_455 S
C1053 C1048 1.425 1_454 S
C1053 C1050 1.409 1_554 S
C1053 C1051 1.415 . S
C1054 H1044 0.930 . S
C1054 C1052 1.411 1_655 S
C1054 C1055 1.362 . S
C1055 H1045 0.930 . S
C1055 C1048 1.409 1_554 S
C1055 C1054 1.362 . S
C679 C56 1.584 . S
C684 C308 1.540 . S
C695 C74 1.442 . S
C700 C140 1.458 . S
C711 C158 1.305 . S
C716 C242 1.313 . S
C727 C224 1.457 . S
C732 C326 1.440 . S
C743 C67 1.585 . S
C748 C487 1.616 . S
C759 C63 1.449 . S
C764 C403 1.467 . S
C775 C399 1.317 . S
C780 C231 1.352 . S
C791 C483 1.438 . S
C796 C235 1.469 . S
C807 C560 1.554 . S
C812 C476 1.599 . S
C823 C392 1.429 . S
C828 C578 1.478 . S
C839 C662 1.317 . S
C844 C410 1.302 . S
C855 C494 1.457 . S
C860 C644 1.459 . S
C871 C319 1.594 . S
C876 C571 1.550 . S
C887 C567 1.436 . S
C892 C151 1.472 . S
C903 C147 1.296 . S
C908 C651 1.321 . S
C919 C315 1.491 . S
C924 C655 1.397 . S
C935 C70 1.328 . S
C940 C58 1.328 . S
C951 C142 1.423 . S
C956 C154 1.423 . S
C967 C238 1.341 1_565 S
C972 C226 1.338 1_545 S
C983 C322 1.334 . S
C988 C310 1.334 . S
C999 C394 1.380 . S
C1004 C406 1.380 . S
C1015 C490 1.346 . S
C1020 C478 1.346 . S
C1031 C562 1.371 . S
C1036 C574 1.371 . S
C1047 C646 1.376 . S
C1052 C658 1.377 . S
