# Generated by pormake.
# Topology wlm, (5)-cn, num edge types: 1
# Building blocks:
#     Node 0, Type 0, BuildingBlock: BEQFEK_clean_sbu_0, # of connection points: 5
#     Node 1, Type 0, BuildingBlock: BEQFEK_clean_sbu_0, # of connection points: 5
#     Node 2, Type 0, BuildingBlock: BEQFEK_clean_sbu_0, # of connection points: 5
#     Node 3, Type 0, BuildingBlock: BEQFEK_clean_sbu_0, # of connection points: 5
#     Node 4, Type 0, BuildingBlock: BEQFEK_clean_sbu_0, # of connection points: 5
#     Node 5, Type 0, BuildingBlock: BEQFEK_clean_sbu_0, # of connection points: 5
#     Node 6, Type 0, BuildingBlock: BEQFEK_clean_sbu_0, # of connection points: 5
#     Node 7, Type 0, BuildingBlock: BEQFEK_clean_sbu_0, # of connection points: 5
#     Node 8, Type 0, BuildingBlock: BEQFEK_clean_sbu_0, # of connection points: 5
#     Node 9, Type 0, BuildingBlock: BEQFEK_clean_sbu_0, # of connection points: 5
#     Node 10, Type 0, BuildingBlock: BEQFEK_clean_sbu_0, # of connection points: 5
#     Node 11, Type 0, BuildingBlock: BEQFEK_clean_sbu_0, # of connection points: 5
#     Node 12, Type 0, BuildingBlock: BEQFEK_clean_sbu_0, # of connection points: 5
#     Node 13, Type 0, BuildingBlock: BEQFEK_clean_sbu_0, # of connection points: 5
#     Node 14, Type 0, BuildingBlock: BEQFEK_clean_sbu_0, # of connection points: 5
#     Node 15, Type 0, BuildingBlock: BEQFEK_clean_sbu_0, # of connection points: 5
#     Node 16, Type 0, BuildingBlock: BEQFEK_clean_sbu_0, # of connection points: 5
#     Node 17, Type 0, BuildingBlock: BEQFEK_clean_sbu_0, # of connection points: 5
#     Node 18, Type 0, BuildingBlock: BEQFEK_clean_sbu_0, # of connection points: 5
#     Node 19, Type 0, BuildingBlock: BEQFEK_clean_sbu_0, # of connection points: 5
#     Node 20, Type 0, BuildingBlock: BEQFEK_clean_sbu_0, # of connection points: 5
#     Node 21, Type 0, BuildingBlock: BEQFEK_clean_sbu_0, # of connection points: 5
#     Node 22, Type 0, BuildingBlock: BEQFEK_clean_sbu_0, # of connection points: 5
#     Node 23, Type 0, BuildingBlock: BEQFEK_clean_sbu_0, # of connection points: 5
#     Node 24, Type 0, BuildingBlock: BEQFEK_clean_sbu_0, # of connection points: 5
#     Node 25, Type 0, BuildingBlock: BEQFEK_clean_sbu_0, # of connection points: 5
#     Node 26, Type 0, BuildingBlock: BEQFEK_clean_sbu_0, # of connection points: 5
#     Node 27, Type 0, BuildingBlock: BEQFEK_clean_sbu_0, # of connection points: 5
#     Node 28, Type 0, BuildingBlock: BEQFEK_clean_sbu_0, # of connection points: 5
#     Node 29, Type 0, BuildingBlock: BEQFEK_clean_sbu_0, # of connection points: 5
#     Node 30, Type 0, BuildingBlock: BEQFEK_clean_sbu_0, # of connection points: 5
#     Node 31, Type 0, BuildingBlock: BEQFEK_clean_sbu_0, # of connection points: 5
#     Node 32, Type 0, BuildingBlock: BEQFEK_clean_sbu_0, # of connection points: 5
#     Node 33, Type 0, BuildingBlock: BEQFEK_clean_sbu_0, # of connection points: 5
#     Node 34, Type 0, BuildingBlock: BEQFEK_clean_sbu_0, # of connection points: 5
#     Node 35, Type 0, BuildingBlock: BEQFEK_clean_sbu_0, # of connection points: 5
#     Edge 36, Type (0, 0), BuildingBlock: CIFDUS_clean_linker_0, # of connection points: 2
#     Edge 37, Type (0, 0), BuildingBlock: CIFDUS_clean_linker_0, # of connection points: 2
#     Edge 38, Type (0, 0), BuildingBlock: CIFDUS_clean_linker_0, # of connection points: 2
#     Edge 39, Type (0, 0), BuildingBlock: CIFDUS_clean_linker_0, # of connection points: 2
#     Edge 40, Type (0, 0), BuildingBlock: CIFDUS_clean_linker_0, # of connection points: 2
#     Edge 41, Type (0, 0), BuildingBlock: CIFDUS_clean_linker_0, # of connection points: 2
#     Edge 42, Type (0, 0), BuildingBlock: CIFDUS_clean_linker_0, # of connection points: 2
#     Edge 43, Type (0, 0), BuildingBlock: CIFDUS_clean_linker_0, # of connection points: 2
#     Edge 44, Type (0, 0), BuildingBlock: CIFDUS_clean_linker_0, # of connection points: 2
#     Edge 45, Type (0, 0), BuildingBlock: CIFDUS_clean_linker_0, # of connection points: 2
#     Edge 46, Type (0, 0), BuildingBlock: CIFDUS_clean_linker_0, # of connection points: 2
#     Edge 47, Type (0, 0), BuildingBlock: CIFDUS_clean_linker_0, # of connection points: 2
#     Edge 48, Type (0, 0), BuildingBlock: CIFDUS_clean_linker_0, # of connection points: 2
#     Edge 49, Type (0, 0), BuildingBlock: CIFDUS_clean_linker_0, # of connection points: 2
#     Edge 50, Type (0, 0), BuildingBlock: CIFDUS_clean_linker_0, # of connection points: 2
#     Edge 51, Type (0, 0), BuildingBlock: CIFDUS_clean_linker_0, # of connection points: 2
#     Edge 52, Type (0, 0), BuildingBlock: CIFDUS_clean_linker_0, # of connection points: 2
#     Edge 53, Type (0, 0), BuildingBlock: CIFDUS_clean_linker_0, # of connection points: 2
#     Edge 54, Type (0, 0), BuildingBlock: CIFDUS_clean_linker_0, # of connection points: 2
#     Edge 55, Type (0, 0), BuildingBlock: CIFDUS_clean_linker_0, # of connection points: 2
#     Edge 56, Type (0, 0), BuildingBlock: CIFDUS_clean_linker_0, # of connection points: 2
#     Edge 57, Type (0, 0), BuildingBlock: CIFDUS_clean_linker_0, # of connection points: 2
#     Edge 58, Type (0, 0), BuildingBlock: CIFDUS_clean_linker_0, # of connection points: 2
#     Edge 59, Type (0, 0), BuildingBlock: CIFDUS_clean_linker_0, # of connection points: 2
#     Edge 60, Type (0, 0), BuildingBlock: CIFDUS_clean_linker_0, # of connection points: 2
#     Edge 61, Type (0, 0), BuildingBlock: CIFDUS_clean_linker_0, # of connection points: 2
#     Edge 62, Type (0, 0), BuildingBlock: CIFDUS_clean_linker_0, # of connection points: 2
#     Edge 63, Type (0, 0), BuildingBlock: CIFDUS_clean_linker_0, # of connection points: 2
#     Edge 64, Type (0, 0), BuildingBlock: CIFDUS_clean_linker_0, # of connection points: 2
#     Edge 65, Type (0, 0), BuildingBlock: CIFDUS_clean_linker_0, # of connection points: 2
#     Edge 66, Type (0, 0), BuildingBlock: CIFDUS_clean_linker_0, # of connection points: 2
#     Edge 67, Type (0, 0), BuildingBlock: CIFDUS_clean_linker_0, # of connection points: 2
#     Edge 68, Type (0, 0), BuildingBlock: CIFDUS_clean_linker_0, # of connection points: 2
#     Edge 69, Type (0, 0), BuildingBlock: CIFDUS_clean_linker_0, # of connection points: 2
#     Edge 70, Type (0, 0), BuildingBlock: CIFDUS_clean_linker_0, # of connection points: 2
#     Edge 71, Type (0, 0), BuildingBlock: CIFDUS_clean_linker_0, # of connection points: 2
#     Edge 72, Type (0, 0), BuildingBlock: CIFDUS_clean_linker_0, # of connection points: 2
#     Edge 73, Type (0, 0), BuildingBlock: CIFDUS_clean_linker_0, # of connection points: 2
#     Edge 74, Type (0, 0), BuildingBlock: CIFDUS_clean_linker_0, # of connection points: 2
#     Edge 75, Type (0, 0), BuildingBlock: CIFDUS_clean_linker_0, # of connection points: 2
#     Edge 76, Type (0, 0), BuildingBlock: CIFDUS_clean_linker_0, # of connection points: 2
#     Edge 77, Type (0, 0), BuildingBlock: CIFDUS_clean_linker_0, # of connection points: 2
#     Edge 78, Type (0, 0), BuildingBlock: CIFDUS_clean_linker_0, # of connection points: 2
#     Edge 79, Type (0, 0), BuildingBlock: CIFDUS_clean_linker_0, # of connection points: 2
#     Edge 80, Type (0, 0), BuildingBlock: CIFDUS_clean_linker_0, # of connection points: 2
#     Edge 81, Type (0, 0), BuildingBlock: CIFDUS_clean_linker_0, # of connection points: 2
#     Edge 82, Type (0, 0), BuildingBlock: CIFDUS_clean_linker_0, # of connection points: 2
#     Edge 83, Type (0, 0), BuildingBlock: CIFDUS_clean_linker_0, # of connection points: 2
#     Edge 84, Type (0, 0), BuildingBlock: CIFDUS_clean_linker_0, # of connection points: 2
#     Edge 85, Type (0, 0), BuildingBlock: CIFDUS_clean_linker_0, # of connection points: 2
#     Edge 86, Type (0, 0), BuildingBlock: CIFDUS_clean_linker_0, # of connection points: 2
#     Edge 87, Type (0, 0), BuildingBlock: CIFDUS_clean_linker_0, # of connection points: 2
#     Edge 88, Type (0, 0), BuildingBlock: CIFDUS_clean_linker_0, # of connection points: 2
#     Edge 89, Type (0, 0), BuildingBlock: CIFDUS_clean_linker_0, # of connection points: 2
#     Edge 90, Type (0, 0), BuildingBlock: CIFDUS_clean_linker_0, # of connection points: 2
#     Edge 91, Type (0, 0), BuildingBlock: CIFDUS_clean_linker_0, # of connection points: 2
#     Edge 92, Type (0, 0), BuildingBlock: CIFDUS_clean_linker_0, # of connection points: 2
#     Edge 93, Type (0, 0), BuildingBlock: CIFDUS_clean_linker_0, # of connection points: 2
#     Edge 94, Type (0, 0), BuildingBlock: CIFDUS_clean_linker_0, # of connection points: 2
#     Edge 95, Type (0, 0), BuildingBlock: CIFDUS_clean_linker_0, # of connection points: 2
#     Edge 96, Type (0, 0), BuildingBlock: CIFDUS_clean_linker_0, # of connection points: 2
#     Edge 97, Type (0, 0), BuildingBlock: CIFDUS_clean_linker_0, # of connection points: 2
#     Edge 98, Type (0, 0), BuildingBlock: CIFDUS_clean_linker_0, # of connection points: 2
#     Edge 99, Type (0, 0), BuildingBlock: CIFDUS_clean_linker_0, # of connection points: 2
#     Edge 100, Type (0, 0), BuildingBlock: CIFDUS_clean_linker_0, # of connection points: 2
#     Edge 101, Type (0, 0), BuildingBlock: CIFDUS_clean_linker_0, # of connection points: 2
#     Edge 102, Type (0, 0), BuildingBlock: CIFDUS_clean_linker_0, # of connection points: 2
#     Edge 103, Type (0, 0), BuildingBlock: CIFDUS_clean_linker_0, # of connection points: 2
#     Edge 104, Type (0, 0), BuildingBlock: CIFDUS_clean_linker_0, # of connection points: 2
#     Edge 105, Type (0, 0), BuildingBlock: CIFDUS_clean_linker_0, # of connection points: 2
#     Edge 106, Type (0, 0), BuildingBlock: CIFDUS_clean_linker_0, # of connection points: 2
#     Edge 107, Type (0, 0), BuildingBlock: CIFDUS_clean_linker_0, # of connection points: 2
#     Edge 108, Type (0, 0), BuildingBlock: CIFDUS_clean_linker_0, # of connection points: 2
#     Edge 109, Type (0, 0), BuildingBlock: CIFDUS_clean_linker_0, # of connection points: 2
#     Edge 110, Type (0, 0), BuildingBlock: CIFDUS_clean_linker_0, # of connection points: 2
#     Edge 111, Type (0, 0), BuildingBlock: CIFDUS_clean_linker_0, # of connection points: 2
#     Edge 112, Type (0, 0), BuildingBlock: CIFDUS_clean_linker_0, # of connection points: 2
#     Edge 113, Type (0, 0), BuildingBlock: CIFDUS_clean_linker_0, # of connection points: 2
#     Edge 114, Type (0, 0), BuildingBlock: CIFDUS_clean_linker_0, # of connection points: 2
#     Edge 115, Type (0, 0), BuildingBlock: CIFDUS_clean_linker_0, # of connection points: 2
#     Edge 116, Type (0, 0), BuildingBlock: CIFDUS_clean_linker_0, # of connection points: 2
#     Edge 117, Type (0, 0), BuildingBlock: CIFDUS_clean_linker_0, # of connection points: 2
#     Edge 118, Type (0, 0), BuildingBlock: CIFDUS_clean_linker_0, # of connection points: 2
#     Edge 119, Type (0, 0), BuildingBlock: CIFDUS_clean_linker_0, # of connection points: 2
#     Edge 120, Type (0, 0), BuildingBlock: CIFDUS_clean_linker_0, # of connection points: 2
#     Edge 121, Type (0, 0), BuildingBlock: CIFDUS_clean_linker_0, # of connection points: 2
#     Edge 122, Type (0, 0), BuildingBlock: CIFDUS_clean_linker_0, # of connection points: 2
#     Edge 123, Type (0, 0), BuildingBlock: CIFDUS_clean_linker_0, # of connection points: 2
#     Edge 124, Type (0, 0), BuildingBlock: CIFDUS_clean_linker_0, # of connection points: 2
#     Edge 125, Type (0, 0), BuildingBlock: CIFDUS_clean_linker_0, # of connection points: 2
# Relax obj value: 0.056
# Max RMSD: 0.102
# Mean RMSD: 0.102
data_MOF--net-wlm--node1-BEQFEK_clean_sbu_0--edge1-CIFDUS_clean_linker_0
_symmetry_space_group_name_H-M    P1
_symmetry_Int_Tables_number       1
_symmetry_cell_setting            triclinic
loop_
_symmetry_equiv_pos_as_xyz
'x, y, z'
_cell_length_a     113.24186
_cell_length_b     113.22186
_cell_length_c     17.539225
_cell_angle_alpha  89.960608
_cell_angle_beta   90.000457
_cell_angle_gamma 120.02473
loop_
_atom_site_label
_atom_site_type_symbol
_atom_site_fract_x
_atom_site_fract_y
_atom_site_fract_z
_atom_type_partial_charge
Co0 Co 0.14811 0.40543 0.31446 0.0
Co1 Co 0.14155 0.39543 0.14521 0.0
C2 C 0.16959 0.40598 0.21406 0.0
O3 O 0.16631 0.40894 0.27788 0.0
O4 O 0.16091 0.40065 0.16043 0.0
C5 C 0.15439 0.40722 0.47007 0.0
O6 O 0.16046 0.40058 0.44644 0.0
C7 C 0.14619 0.39763 0.98018 0.0
C8 C 0.12556 0.38405 0.93432 0.0
C9 C 0.13895 0.39279 0.91298 0.0
N10 N 0.13752 0.39198 0.03899 0.0
N11 N 0.1252 0.38381 0.01118 0.0
C12 C 0.16082 0.4085 0.98809 0.0
H13 H 0.16234 0.41447 0.04093 0.0
H14 H 0.16418 0.41546 0.93816 0.0
H15 H 0.1672 0.40363 0.99095 0.0
C16 C 0.13644 0.42251 0.26327 0.0
N17 N 0.14057 0.41341 0.24992 0.0
N18 N 0.13827 0.4096 0.17807 0.0
C19 C 0.13299 0.41651 0.14268 0.0
C20 C 0.1315 0.42484 0.19556 0.0
C21 C 0.13612 0.42779 0.34102 0.0
H22 H 0.13227 0.41933 0.38294 0.0
H23 H 0.14665 0.43553 0.35788 0.0
H24 H 0.1295 0.4324 0.34299 0.0
O25 O 0.13565 0.38562 0.32118 0.0
O26 O 0.12994 0.37808 0.20276 0.0
H27 H 0.12086 0.4057 0.04615 0.0
H28 H 0.12847 0.42402 0.03924 0.0
C29 C 0.13007 0.41563 0.05897 0.0
H30 H 0.13878 0.41626 0.02688 0.0
H31 H 0.11651 0.37825 0.04467 0.0
O32 O 0.14918 0.41153 0.42104 0.0
C33 C 0.12903 0.37592 0.27451 0.0
Co34 Co 0.60067 0.74491 0.33033 0.0
Co35 Co 0.6105 0.74756 0.16124 0.0
C36 C 0.60035 0.76561 0.22767 0.0
O37 O 0.59732 0.75959 0.29217 0.0
O38 O 0.60558 0.76198 0.17489 0.0
C39 C 0.59915 0.74958 0.48638 0.0
O40 O 0.60611 0.76232 0.46322 0.0
C41 C 0.60802 0.74964 0.99641 0.0
C42 C 0.62155 0.74256 0.9502 0.0
C43 C 0.61282 0.74723 0.92911 0.0
N44 N 0.61369 0.74661 0.05506 0.0
N45 N 0.62181 0.74241 0.02706 0.0
C46 C 0.59725 0.75352 0.00459 0.0
H47 H 0.59125 0.74903 0.05736 0.0
H48 H 0.59031 0.75003 0.95461 0.0
H49 H 0.60221 0.76478 0.00786 0.0
C50 C 0.58311 0.71609 0.28283 0.0
N51 N 0.5924 0.72919 0.2677 0.0
N52 N 0.59621 0.7303 0.196 0.0
C53 C 0.58919 0.71795 0.16253 0.0
C54 C 0.5807 0.70847 0.21653 0.0
C55 C 0.57774 0.71092 0.36116 0.0
H56 H 0.58634 0.71501 0.4022 0.0
H57 H 0.57078 0.71468 0.37844 0.0
H58 H 0.57226 0.69963 0.36419 0.0
O59 O 0.62047 0.75202 0.33629 0.0
O60 O 0.62787 0.7532 0.21804 0.0
H61 H 0.60022 0.71618 0.06852 0.0
H62 H 0.58192 0.70525 0.06136 0.0
C63 C 0.59022 0.71542 0.07967 0.0
H64 H 0.58958 0.72326 0.04514 0.0
H65 H 0.6274 0.73931 0.06041 0.0
O66 O 0.59462 0.74011 0.43706 0.0
C67 C 0.63009 0.75472 0.28966 0.0
Co68 Co 0.26024 0.85958 0.31154 0.0
Co69 Co 0.25597 0.86075 0.13466 0.0
C70 C 0.2403 0.83469 0.22133 0.0
O71 O 0.24631 0.8406 0.28307 0.0
O72 O 0.2431 0.84118 0.15823 0.0
C73 C 0.26493 0.85117 0.46327 0.0
O74 O 0.26399 0.84022 0.43162 0.0
C75 C 0.25539 0.85778 0.96348 0.0
C76 C 0.26053 0.87873 0.93217 0.0
C77 C 0.25774 0.86635 0.90114 0.0
N78 N 0.25693 0.86493 0.02791 0.0
N79 N 0.25994 0.8774 0.0083 0.0
C80 C 0.25139 0.84304 0.96215 0.0
H81 H 0.24596 0.83789 0.01527 0.0
H82 H 0.26072 0.84219 0.95795 0.0
H83 H 0.24482 0.83786 0.91211 0.0
C84 C 0.28932 0.87257 0.2608 0.0
N85 N 0.27581 0.86659 0.24698 0.0
N86 N 0.27384 0.86652 0.17292 0.0
C87 C 0.286 0.87214 0.13729 0.0
C88 C 0.29627 0.87637 0.19154 0.0
C89 C 0.29538 0.87554 0.33905 0.0
H90 H 0.28943 0.87845 0.3771 0.0
H91 H 0.29483 0.86618 0.36254 0.0
H92 H 0.30619 0.88384 0.33819 0.0
O93 O 0.25181 0.87113 0.30491 0.0
O94 O 0.24853 0.87174 0.18101 0.0
H95 H 0.28621 0.88139 0.03056 0.0
H96 H 0.29804 0.8751 0.03556 0.0
C97 C 0.28775 0.87307 0.0525 0.0
H98 H 0.28007 0.86334 0.02622 0.0
H99 H 0.26172 0.88509 0.04721 0.0
O100 O 0.26443 0.86012 0.42181 0.0
C101 C 0.24754 0.87509 0.24895 0.0
Co102 Co 0.40466 0.14404 0.67084 0.0
Co103 Co 0.39621 0.14281 0.84063 0.0
C104 C 0.40779 0.16883 0.74813 0.0
O105 O 0.40964 0.16332 0.68947 0.0
O106 O 0.40266 0.16199 0.80898 0.0
C107 C 0.41379 0.15083 0.51603 0.0
O108 O 0.41917 0.16365 0.53661 0.0
C109 C 0.40001 0.14927 0.00498 0.0
C110 C 0.38587 0.12895 0.05301 0.0
C111 C 0.39597 0.142 0.07325 0.0
N112 N 0.39306 0.14068 0.94764 0.0
N113 N 0.38438 0.12867 0.977 0.0
C114 C 0.41024 0.16402 0.99341 0.0
H115 H 0.40766 0.16797 0.94245 0.0
H116 H 0.4205 0.16522 0.98476 0.0
H117 H 0.41045 0.17018 0.04309 0.0
C118 C 0.42029 0.13169 0.73516 0.0
N119 N 0.41238 0.13742 0.74265 0.0
N120 N 0.40911 0.13718 0.8148 0.0
C121 C 0.41511 0.13153 0.85582 0.0
C122 C 0.42223 0.12768 0.80685 0.0
C123 C 0.42465 0.12896 0.65983 0.0
H124 H 0.41558 0.12335 0.62267 0.0
H125 H 0.43159 0.13882 0.63154 0.0
H126 H 0.42985 0.12292 0.66587 0.0
O127 O 0.38466 0.13271 0.67084 0.0
O128 O 0.3782 0.13081 0.79127 0.0
H129 H 0.40393 0.12203 0.95743 0.0
H130 H 0.42179 0.12725 0.96296 0.0
C131 C 0.41434 0.13004 0.94075 0.0
H132 H 0.41664 0.13983 0.96714 0.0
H133 H 0.37798 0.12007 0.94471 0.0
O134 O 0.4089 0.14153 0.56622 0.0
C135 C 0.37533 0.12805 0.72102 0.0
Co136 Co 0.85947 0.25705 0.7106 0.0
Co137 Co 0.86268 0.25538 0.88316 0.0
C138 C 0.83571 0.23796 0.80528 0.0
O139 O 0.84057 0.24345 0.74089 0.0
O140 O 0.8432 0.24157 0.86462 0.0
C141 C 0.85127 0.25957 0.55568 0.0
O142 O 0.84008 0.25897 0.58113 0.0
C143 C 0.85714 0.25682 0.04366 0.0
C144 C 0.87679 0.26154 0.09615 0.0
C145 C 0.86395 0.25954 0.11257 0.0
N146 N 0.8657 0.25745 0.98885 0.0
N147 N 0.8774 0.26023 0.02039 0.0
C148 C 0.84261 0.25295 0.02927 0.0
H149 H 0.84217 0.25928 0.9822 0.0
H150 H 0.83753 0.25399 0.08068 0.0
H151 H 0.8369 0.24216 0.01056 0.0
C152 C 0.87241 0.28676 0.74496 0.0
N153 N 0.86672 0.27354 0.76565 0.0
N154 N 0.86776 0.27276 0.83986 0.0
C155 C 0.87393 0.28547 0.86917 0.0
C156 C 0.87725 0.29481 0.81008 0.0
C157 C 0.87439 0.29147 0.66382 0.0
H158 H 0.87836 0.2859 0.63017 0.0
H159 H 0.86438 0.28899 0.63935 0.0
H160 H 0.88156 0.30259 0.65884 0.0
O161 O 0.87132 0.24902 0.72072 0.0
O162 O 0.87445 0.24827 0.84443 0.0
H163 H 0.88445 0.28633 0.97214 0.0
H164 H 0.87989 0.29948 0.96476 0.0
C165 C 0.87653 0.28865 0.95242 0.0
H166 H 0.86703 0.28223 0.9848 0.0
H167 H 0.88581 0.2613 0.99007 0.0
O168 O 0.86001 0.2598 0.60159 0.0
C169 C 0.87668 0.24617 0.77609 0.0
Co170 Co 0.74495 0.5983 0.63502 0.0
Co171 Co 0.74764 0.6057 0.81075 0.0
C172 C 0.76466 0.59533 0.7392 0.0
O173 O 0.75896 0.59413 0.67466 0.0
O174 O 0.76129 0.5997 0.79751 0.0
C175 C 0.7513 0.59476 0.48287 0.0
O176 O 0.76303 0.59818 0.51536 0.0
C177 C 0.74716 0.60281 0.98003 0.0
C178 C 0.73992 0.61691 0.01388 0.0
C179 C 0.74339 0.60767 0.04309 0.0
N180 N 0.7458 0.60883 0.91683 0.0
N181 N 0.74165 0.61736 0.93785 0.0
C182 C 0.75062 0.59168 0.97856 0.0
H183 H 0.74796 0.58646 0.92245 0.0
H184 H 0.74515 0.58414 0.02451 0.0
H185 H 0.76175 0.59619 0.98756 0.0
C186 C 0.71574 0.58139 0.67988 0.0
N187 N 0.72899 0.58991 0.69641 0.0
N188 N 0.73026 0.59246 0.77015 0.0
C189 C 0.71788 0.58527 0.80316 0.0
C190 C 0.70819 0.57815 0.74711 0.0
C191 C 0.71041 0.57731 0.60048 0.0
H192 H 0.71646 0.58581 0.56041 0.0
H193 H 0.71146 0.56845 0.58317 0.0
H194 H 0.69952 0.57444 0.59665 0.0
O195 O 0.75263 0.61813 0.63562 0.0
O196 O 0.75462 0.62373 0.75794 0.0
H197 H 0.71619 0.59409 0.9075 0.0
H198 H 0.70548 0.57574 0.90347 0.0
C199 C 0.71554 0.58449 0.88749 0.0
H200 H 0.72349 0.58321 0.91666 0.0
H201 H 0.7396 0.62321 0.8999 0.0
O202 O 0.74143 0.59328 0.52448 0.0
C203 C 0.75603 0.62706 0.68762 0.0
Co204 Co 0.85875 0.6024 0.70357 0.0
Co205 Co 0.86266 0.60796 0.88045 0.0
C206 C 0.83567 0.59862 0.80768 0.0
O207 O 0.84051 0.59811 0.74284 0.0
O208 O 0.8431 0.60228 0.86737 0.0
C209 C 0.84876 0.59915 0.55178 0.0
O210 O 0.84051 0.60264 0.58434 0.0
C211 C 0.86027 0.60469 0.04916 0.0
C212 C 0.88184 0.61784 0.08245 0.0
C213 C 0.86899 0.60912 0.11181 0.0
N214 N 0.86772 0.61048 0.98595 0.0
N215 N 0.88056 0.61843 0.00655 0.0
C216 C 0.84543 0.59419 0.04803 0.0
H217 H 0.84264 0.58878 0.99249 0.0
H218 H 0.84289 0.58671 0.09493 0.0
H219 H 0.83936 0.59934 0.05552 0.0
C220 C 0.87057 0.5848 0.74285 0.0
N221 N 0.86589 0.59326 0.76192 0.0
N222 N 0.86673 0.59499 0.83634 0.0
C223 C 0.87154 0.58732 0.86722 0.0
C224 C 0.87435 0.58073 0.80909 0.0
C225 C 0.87222 0.58149 0.66233 0.0
H226 H 0.87507 0.59044 0.6251 0.0
H227 H 0.86235 0.57295 0.64191 0.0
H228 H 0.88012 0.57847 0.65788 0.0
O229 O 0.87117 0.62229 0.70804 0.0
O230 O 0.87394 0.62627 0.83229 0.0
H231 H 0.8817 0.59467 0.9741 0.0
H232 H 0.87312 0.57633 0.96435 0.0
C233 C 0.87251 0.58559 0.95122 0.0
H234 H 0.86339 0.58464 0.98001 0.0
H235 H 0.88852 0.624 0.9684 0.0
O236 O 0.8572 0.59771 0.59306 0.0
C237 C 0.87639 0.63051 0.76362 0.0
Co238 Co 0.40214 0.25713 0.67675 0.0
Co239 Co 0.396 0.25565 0.853 0.0
C240 C 0.40578 0.23799 0.77901 0.0
O241 O 0.40666 0.24317 0.71313 0.0
O242 O 0.40184 0.24194 0.83685 0.0
C243 C 0.41505 0.26106 0.52299 0.0
O244 O 0.42532 0.26041 0.55321 0.0
C245 C 0.39961 0.25686 0.02307 0.0
C246 C 0.38299 0.26066 0.05631 0.0
C247 C 0.39326 0.25878 0.08629 0.0
N248 N 0.39334 0.25765 0.95939 0.0
N249 N 0.38344 0.25993 0.98009 0.0
C250 C 0.41101 0.2538 0.02288 0.0
H251 H 0.41157 0.24938 0.9677 0.0
H252 H 0.42081 0.26342 0.03155 0.0
H253 H 0.40968 0.24665 0.06982 0.0
C254 C 0.4194 0.2866 0.71559 0.0
N255 N 0.41114 0.27345 0.73536 0.0
N256 N 0.4087 0.27278 0.80913 0.0
C257 C 0.41543 0.28547 0.83868 0.0
C258 C 0.42244 0.29467 0.78044 0.0
C259 C 0.424 0.29128 0.63573 0.0
H260 H 0.41498 0.28854 0.59934 0.0
H261 H 0.42915 0.28588 0.61299 0.0
H262 H 0.43115 0.30244 0.63282 0.0
O263 O 0.38216 0.24934 0.68245 0.0
O264 O 0.37771 0.24851 0.80579 0.0
H265 H 0.40311 0.2851 0.9319 0.0
H266 H 0.41989 0.29991 0.93108 0.0
C267 C 0.41401 0.2888 0.91954 0.0
H268 H 0.41755 0.28348 0.95835 0.0
H269 H 0.37693 0.26094 0.94195 0.0
O270 O 0.40566 0.2604 0.56562 0.0
C271 C 0.37372 0.24648 0.73676 0.0
Co272 Co 0.74535 0.14676 0.63738 0.0
Co273 Co 0.74932 0.14192 0.8121 0.0
C274 C 0.76501 0.16967 0.73933 0.0
O275 O 0.75903 0.16518 0.67546 0.0
O276 O 0.76221 0.1618 0.79685 0.0
C277 C 0.75001 0.15694 0.48429 0.0
O278 O 0.76116 0.16668 0.51585 0.0
C279 C 0.74847 0.14439 0.9814 0.0
C280 C 0.74508 0.12425 0.01767 0.0
C281 C 0.74618 0.13622 0.04554 0.0
N282 N 0.7485 0.13743 0.919 0.0
N283 N 0.74668 0.1255 0.94153 0.0
C284 C 0.74921 0.15795 0.97807 0.0
H285 H 0.7463 0.1597 0.92051 0.0
H286 H 0.74244 0.15857 0.02169 0.0
H287 H 0.75985 0.1661 0.98972 0.0
C288 C 0.71631 0.13279 0.68707 0.0
N289 N 0.72976 0.13849 0.70185 0.0
N290 N 0.73145 0.13668 0.77446 0.0
C291 C 0.7191 0.12988 0.80812 0.0
C292 C 0.70908 0.12707 0.75399 0.0
C293 C 0.71062 0.1318 0.60886 0.0
H294 H 0.71531 0.12772 0.56895 0.0
H295 H 0.71339 0.14217 0.58886 0.0
H296 H 0.69937 0.12515 0.60773 0.0
O297 O 0.75387 0.13532 0.63608 0.0
O298 O 0.75669 0.13144 0.75683 0.0
H299 H 0.72024 0.11871 0.90355 0.0
H300 H 0.70608 0.12183 0.90795 0.0
C301 C 0.7169 0.12619 0.89094 0.0
H302 H 0.72305 0.13546 0.92548 0.0
H303 H 0.74608 0.118 0.90455 0.0
O304 O 0.74105 0.14762 0.52676 0.0
C305 C 0.75783 0.12986 0.68569 0.0
Co306 Co 0.60148 0.85823 0.34024 0.0
Co307 Co 0.60639 0.86037 0.16308 0.0
C308 C 0.59665 0.834 0.24211 0.0
O309 O 0.59662 0.83967 0.30475 0.0
O310 O 0.6002 0.84071 0.17976 0.0
C311 C 0.59801 0.84834 0.49108 0.0
O312 O 0.60137 0.84004 0.45796 0.0
C313 C 0.60322 0.85806 0.99417 0.0
C314 C 0.61691 0.87962 0.96209 0.0
C315 C 0.60789 0.86693 0.93216 0.0
N316 N 0.60914 0.86529 0.05769 0.0
N317 N 0.61742 0.87812 0.03779 0.0
C318 C 0.5924 0.84333 0.9945 0.0
H319 H 0.58724 0.84043 0.05078 0.0
H320 H 0.58478 0.8412 0.949 0.0
H321 H 0.59719 0.83701 0.98393 0.0
C322 C 0.5846 0.8707 0.29729 0.0
N323 N 0.59256 0.86535 0.28003 0.0
N324 N 0.59394 0.86536 0.20552 0.0
C325 C 0.58653 0.87033 0.1729 0.0
C326 C 0.58052 0.87411 0.22978 0.0
C327 C 0.58178 0.8733 0.37701 0.0
H328 H 0.5906 0.87568 0.41431 0.0
H329 H 0.57276 0.86396 0.39921 0.0
H330 H 0.57964 0.88185 0.37892 0.0
O331 O 0.62145 0.87018 0.33412 0.0
O332 O 0.62482 0.8714 0.2093 0.0
H333 H 0.59359 0.87937 0.06308 0.0
H334 H 0.57534 0.87136 0.0753 0.0
C335 C 0.58449 0.87056 0.08869 0.0
H336 H 0.58313 0.86105 0.06282 0.0
H337 H 0.62313 0.88595 0.07637 0.0
O338 O 0.59684 0.85703 0.45049 0.0
C339 C 0.62943 0.87451 0.27696 0.0
Co340 Co 0.14648 0.74557 0.29104 0.0
Co341 Co 0.14136 0.74835 0.12009 0.0
C342 C 0.16906 0.76557 0.19287 0.0
O343 O 0.1651 0.75979 0.25766 0.0
O344 O 0.16084 0.76207 0.1368 0.0
C345 C 0.15455 0.74858 0.44708 0.0
O346 O 0.16388 0.76092 0.42613 0.0
C347 C 0.1467 0.74894 0.95808 0.0
C348 C 0.12734 0.74527 0.9066 0.0
C349 C 0.14026 0.74761 0.88912 0.0
N350 N 0.13802 0.74752 0.0141 0.0
N351 N 0.12647 0.74537 0.98315 0.0
C352 C 0.16047 0.7505 0.97086 0.0
H353 H 0.16075 0.74593 0.02634 0.0
H354 H 0.1631 0.74562 0.92409 0.0
H355 H 0.16821 0.76151 0.97181 0.0
C356 C 0.1344 0.71651 0.24595 0.0
N357 N 0.13915 0.72975 0.22921 0.0
N358 N 0.13708 0.73088 0.15651 0.0
C359 C 0.13106 0.71838 0.12436 0.0
C360 C 0.12915 0.70886 0.18003 0.0
C361 C 0.13446 0.71128 0.32422 0.0
H362 H 0.14486 0.71716 0.34879 0.0
H363 H 0.13124 0.70028 0.32345 0.0
H364 H 0.12744 0.71288 0.36133 0.0
O365 O 0.13426 0.75344 0.29208 0.0
O366 O 0.12991 0.75479 0.17023 0.0
H367 H 0.11905 0.71954 0.03376 0.0
H368 H 0.12055 0.70441 0.03115 0.0
C369 C 0.12603 0.71549 0.04384 0.0
H370 H 0.13481 0.72076 0.00441 0.0
H371 H 0.11798 0.74388 0.01429 0.0
O372 O 0.14667 0.74027 0.39718 0.0
C373 C 0.12832 0.75648 0.24046 0.0
Co374 Co 0.26033 0.40375 0.33816 0.0
Co375 Co 0.25782 0.39901 0.16087 0.0
C376 C 0.24116 0.4088 0.23915 0.0
O377 O 0.2467 0.4087 0.30222 0.0
O378 O 0.24444 0.40531 0.17704 0.0
C379 C 0.25424 0.40788 0.48921 0.0
O380 O 0.24274 0.40519 0.4564 0.0
C381 C 0.25886 0.40234 0.99208 0.0
C382 C 0.26633 0.38835 0.95982 0.0
C383 C 0.2629 0.39756 0.92996 0.0
N384 N 0.26003 0.39631 0.05552 0.0
N385 N 0.26434 0.38785 0.03552 0.0
C386 C 0.25523 0.41336 0.99262 0.0
H387 H 0.25753 0.41846 0.04906 0.0
H388 H 0.26087 0.42101 0.9474 0.0
H389 H 0.24413 0.40876 0.98178 0.0
C390 C 0.28974 0.42071 0.29639 0.0
N391 N 0.27645 0.41271 0.27853 0.0
N392 N 0.27521 0.41134 0.20398 0.0
C393 C 0.28764 0.41873 0.17193 0.0
C394 C 0.29733 0.42478 0.22926 0.0
C395 C 0.29503 0.42361 0.37637 0.0
H396 H 0.28875 0.41465 0.41326 0.0
H397 H 0.29428 0.43238 0.39864 0.0
H398 H 0.30584 0.42613 0.37886 0.0
O399 O 0.25226 0.38375 0.33175 0.0
O400 O 0.25027 0.38055 0.20679 0.0
H401 H 0.28963 0.4115 0.06276 0.0
H402 H 0.30011 0.42974 0.07453 0.0
C403 C 0.29007 0.42071 0.08778 0.0
H404 H 0.28206 0.42221 0.06118 0.0
H405 H 0.26629 0.382 0.07403 0.0
O406 O 0.26378 0.40837 0.44844 0.0
C407 C 0.24867 0.37585 0.2743 0.0
Co408 Co 0.81474 0.73688 0.67825 0.0
Co409 Co 0.80884 0.72914 0.50286 0.0
C410 C 0.83679 0.73977 0.57103 0.0
O411 O 0.83288 0.7411 0.63716 0.0
O412 O 0.82853 0.73532 0.51483 0.0
C413 C 0.8251 0.74198 0.83207 0.0
O414 O 0.83473 0.7403 0.80128 0.0
C415 C 0.81116 0.73325 0.33454 0.0
C416 C 0.79086 0.71695 0.29712 0.0
C417 C 0.80303 0.72766 0.27007 0.0
N418 N 0.80403 0.72619 0.39637 0.0
N419 N 0.79197 0.71639 0.37325 0.0
C420 C 0.82498 0.7457 0.33858 0.0
H421 H 0.82666 0.7505 0.39572 0.0
H422 H 0.82615 0.75315 0.29383 0.0
H423 H 0.83283 0.74272 0.32925 0.0
C424 C 0.80208 0.75352 0.6369 0.0
N425 N 0.80692 0.7452 0.61812 0.0
N426 N 0.80468 0.74218 0.54503 0.0
C427 C 0.79852 0.74868 0.515 0.0
C428 C 0.79669 0.75609 0.57208 0.0
C429 C 0.80211 0.7584 0.71615 0.0
H430 H 0.79528 0.74954 0.75245 0.0
H431 H 0.81255 0.76299 0.74022 0.0
H432 H 0.79865 0.766 0.71731 0.0
O433 O 0.80263 0.71695 0.67748 0.0
O434 O 0.79804 0.71115 0.55576 0.0
H435 H 0.78626 0.73582 0.42408 0.0
H436 H 0.78781 0.75246 0.42407 0.0
C437 C 0.7933 0.74681 0.43495 0.0
H438 H 0.80198 0.75047 0.39475 0.0
H439 H 0.78436 0.70947 0.40974 0.0
O440 O 0.81594 0.7418 0.78911 0.0
C441 C 0.79667 0.70794 0.62623 0.0
Co442 Co 0.26562 0.07527 0.69679 0.0
Co443 Co 0.27394 0.08077 0.52651 0.0
C444 C 0.26276 0.09638 0.60905 0.0
O445 O 0.26111 0.08968 0.67043 0.0
O446 O 0.26762 0.09395 0.54932 0.0
C447 C 0.25866 0.07607 0.85225 0.0
O448 O 0.25706 0.08632 0.83143 0.0
C449 C 0.27359 0.08551 0.36213 0.0
C450 C 0.28082 0.07202 0.31726 0.0
C451 C 0.27526 0.07996 0.29502 0.0
N452 N 0.27731 0.08046 0.42082 0.0
N453 N 0.28204 0.07277 0.39349 0.0
C454 C 0.2696 0.09618 0.37115 0.0
H455 H 0.27573 0.10328 0.41735 0.0
H456 H 0.25865 0.09126 0.38688 0.0
H457 H 0.27151 0.10224 0.31821 0.0
C458 C 0.24863 0.04693 0.63997 0.0
N459 N 0.25752 0.06032 0.62928 0.0
N460 N 0.26036 0.06269 0.5563 0.0
C461 C 0.25283 0.05091 0.51769 0.0
C462 C 0.24534 0.04047 0.56938 0.0
C463 C 0.24412 0.04047 0.71687 0.0
H464 H 0.25293 0.04482 0.75653 0.0
H465 H 0.23638 0.0428 0.73978 0.0
H466 H 0.23972 0.02926 0.71433 0.0
O467 O 0.2855 0.08341 0.69894 0.0
O468 O 0.29185 0.08694 0.57813 0.0
H469 H 0.25986 0.04812 0.40977 0.0
H470 H 0.24172 0.04101 0.41519 0.0
C471 C 0.25168 0.04978 0.43266 0.0
H472 H 0.25262 0.0592 0.40781 0.0
H473 H 0.28536 0.0674 0.42726 0.0
O474 O 0.26075 0.06926 0.80213 0.0
C475 C 0.29477 0.08754 0.64862 0.0
Co476 Co 0.92892 0.19352 0.67768 0.0
Co477 Co 0.9239 0.19428 0.50658 0.0
C478 C 0.90848 0.16835 0.59403 0.0
O479 O 0.9148 0.17424 0.65507 0.0
O480 O 0.91103 0.1749 0.5314 0.0
C481 C 0.93004 0.18589 0.83222 0.0
O482 O 0.9219 0.17318 0.81152 0.0
C483 C 0.92012 0.18897 0.34244 0.0
C484 C 0.93338 0.2099 0.29898 0.0
C485 C 0.92577 0.19639 0.27616 0.0
N486 N 0.92474 0.19768 0.40139 0.0
N487 N 0.93234 0.21019 0.37498 0.0
C488 C 0.9099 0.17413 0.35046 0.0
H489 H 0.90254 0.17271 0.39608 0.0
H490 H 0.9152 0.16848 0.36657 0.0
H491 H 0.9041 0.16988 0.29689 0.0
C492 C 0.9576 0.20509 0.62523 0.0
N493 N 0.94419 0.2001 0.6127 0.0
N494 N 0.94192 0.19943 0.53907 0.0
C495 C 0.95376 0.20331 0.50197 0.0
C496 C 0.96419 0.2073 0.55519 0.0
C497 C 0.96397 0.20844 0.70279 0.0
H498 H 0.95884 0.21255 0.73904 0.0
H499 H 0.96262 0.19898 0.72983 0.0
H500 H 0.975 0.21608 0.69984 0.0
O501 O 0.92052 0.20507 0.67429 0.0
O502 O 0.91708 0.20593 0.55113 0.0
H503 H 0.95658 0.21126 0.38862 0.0
H504 H 0.96362 0.20033 0.40449 0.0
C505 C 0.95489 0.20185 0.41785 0.0
H506 H 0.94544 0.19301 0.3958 0.0
H507 H 0.93737 0.21884 0.40933 0.0
O508 O 0.93471 0.19526 0.78262 0.0
C509 C 0.91624 0.20921 0.61941 0.0
Co510 Co 0.06689 0.47767 0.00872 0.0
Co511 Co 0.06143 0.47343 0.18129 0.0
C512 C 0.07119 0.50082 0.10663 0.0
O513 O 0.07203 0.49634 0.0415 0.0
O514 O 0.06712 0.49301 0.16474 0.0
C515 C 0.07795 0.48596 0.85298 0.0
O516 O 0.089 0.49675 0.8782 0.0
C517 C 0.06916 0.4785 0.34092 0.0
C518 C 0.053 0.4597 0.39552 0.0
C519 C 0.0647 0.47202 0.41065 0.0
N520 N 0.06056 0.47027 0.28709 0.0
N521 N 0.05094 0.45906 0.31985 0.0
C522 C 0.08064 0.4926 0.32497 0.0
H523 H 0.08646 0.49241 0.27448 0.0
H524 H 0.08756 0.49712 0.37431 0.0
H525 H 0.07633 0.49923 0.31079 0.0
C526 C 0.08434 0.46553 0.04221 0.0
N527 N 0.07618 0.47045 0.06332 0.0
N528 N 0.07397 0.46875 0.13718 0.0
C529 C 0.08083 0.46283 0.16567 0.0
C530 C 0.08765 0.46064 0.10654 0.0
C531 C 0.08843 0.46513 0.96164 0.0
H532 H 0.07915 0.45906 0.92661 0.0
H533 H 0.09382 0.47564 0.93826 0.0
H534 H 0.09518 0.46067 0.95756 0.0
O535 O 0.04703 0.46566 0.01827 0.0
O536 O 0.04257 0.46173 0.14119 0.0
H537 H 0.06899 0.45184 0.26284 0.0
H538 H 0.08502 0.45215 0.25498 0.0
C539 C 0.07986 0.45819 0.24653 0.0
H540 H 0.08465 0.46721 0.28449 0.0
H541 H 0.04296 0.451 0.29053 0.0
O542 O 0.06916 0.47752 0.89906 0.0
C543 C 0.03857 0.45993 0.07222 0.0
Co544 Co 0.52596 0.59186 0.02458 0.0
Co545 Co 0.53045 0.58872 0.19601 0.0
C546 C 0.50304 0.57169 0.12054 0.0
O547 O 0.5073 0.57761 0.05635 0.0
O548 O 0.51098 0.57506 0.17782 0.0
C549 C 0.5177 0.58916 0.86906 0.0
O550 O 0.508 0.577 0.89036 0.0
C551 C 0.52492 0.58797 0.35795 0.0
C552 C 0.54435 0.59187 0.40964 0.0
C553 C 0.53138 0.58941 0.42698 0.0
N554 N 0.53364 0.58944 0.30206 0.0
N555 N 0.54523 0.59172 0.33314 0.0
C556 C 0.51112 0.5863 0.34487 0.0
H557 H 0.51085 0.59091 0.28948 0.0
H558 H 0.50838 0.59109 0.39166 0.0
H559 H 0.50345 0.57527 0.34347 0.0
C560 C 0.5382 0.62084 0.0705 0.0
N561 N 0.53315 0.60755 0.08706 0.0
N562 N 0.53493 0.60629 0.16002 0.0
C563 C 0.54104 0.61876 0.1925 0.0
C564 C 0.5433 0.62838 0.13681 0.0
C565 C 0.53885 0.62624 0.99184 0.0
H566 H 0.52852 0.62091 0.96597 0.0
H567 H 0.54272 0.63739 0.99231 0.0
H568 H 0.54563 0.62409 0.95606 0.0
O569 O 0.53812 0.58394 0.02443 0.0
O570 O 0.54196 0.58226 0.1467 0.0
H571 H 0.55306 0.61783 0.28368 0.0
H572 H 0.55093 0.63261 0.28691 0.0
C573 C 0.54582 0.62156 0.27344 0.0
H574 H 0.53698 0.61596 0.31211 0.0
H575 H 0.55376 0.5933 0.30211 0.0
O576 O 0.52592 0.59725 0.91855 0.0
C577 C 0.5438 0.58072 0.07663 0.0
Co578 Co 0.41344 0.93397 0.03372 0.0
Co579 Co 0.41625 0.94279 0.20791 0.0
C580 C 0.43404 0.93283 0.13519 0.0
O581 O 0.42811 0.93053 0.07048 0.0
O582 O 0.43045 0.93758 0.19093 0.0
C583 C 0.40946 0.9211 0.87748 0.0
O584 O 0.41093 0.91114 0.90522 0.0
C585 C 0.41556 0.93929 0.37836 0.0
C586 C 0.4122 0.95607 0.41385 0.0
C587 C 0.41376 0.94552 0.44272 0.0
N588 N 0.41494 0.94585 0.31535 0.0
N589 N 0.41296 0.95587 0.33746 0.0
C590 C 0.41824 0.92763 0.37637 0.0
H591 H 0.4225 0.92708 0.32059 0.0
H592 H 0.40851 0.91794 0.38495 0.0
H593 H 0.4254 0.92868 0.4226 0.0
C594 C 0.38467 0.9159 0.0831 0.0
N595 N 0.39777 0.92532 0.0974 0.0
N596 N 0.39897 0.92892 0.16975 0.0
C597 C 0.38667 0.92178 0.20366 0.0
C598 C 0.37724 0.91327 0.15014 0.0
C599 C 0.37947 0.90967 0.0065 0.0
H600 H 0.38093 0.91778 0.96567 0.0
H601 H 0.38553 0.9051 0.98546 0.0
H602 H 0.36852 0.90173 0.00863 0.0
O603 O 0.42064 0.95373 0.03456 0.0
O604 O 0.42231 0.96061 0.15416 0.0
H605 H 0.38773 0.93473 0.29534 0.0
H606 H 0.37269 0.91804 0.2973 0.0
C607 C 0.38377 0.92374 0.28448 0.0
H608 H 0.38905 0.92016 0.32329 0.0
H609 H 0.41207 0.96257 0.30019 0.0
O610 O 0.40964 0.93003 0.92222 0.0
C611 C 0.42364 0.96316 0.08286 0.0
Co612 Co 0.52768 0.93629 0.00031 0.0
Co613 Co 0.53071 0.9432 0.17691 0.0
C614 C 0.5038 0.9322 0.09671 0.0
O615 O 0.5091 0.93165 0.03362 0.0
O616 O 0.5109 0.93634 0.15763 0.0
C617 C 0.51679 0.92648 0.84855 0.0
O618 O 0.50498 0.92277 0.88083 0.0
C619 C 0.52838 0.93866 0.34543 0.0
C620 C 0.54708 0.95715 0.38343 0.0
C621 C 0.53611 0.94514 0.41008 0.0
N622 N 0.53467 0.94647 0.28398 0.0
N623 N 0.54573 0.95757 0.30752 0.0
C624 C 0.5159 0.92486 0.34062 0.0
H625 H 0.51456 0.92079 0.28172 0.0
H626 H 0.51659 0.91772 0.38144 0.0
H627 H 0.50684 0.92571 0.35552 0.0
C628 C 0.53998 0.91974 0.04982 0.0
N629 N 0.53484 0.92794 0.06514 0.0
N630 N 0.53622 0.93084 0.13854 0.0
C631 C 0.5424 0.92462 0.17196 0.0
C632 C 0.5449 0.9173 0.11705 0.0
C633 C 0.54033 0.91458 0.97186 0.0
H634 H 0.53033 0.91088 0.94354 0.0
H635 H 0.54275 0.90622 0.97416 0.0
H636 H 0.54818 0.92311 0.93721 0.0
O637 O 0.53954 0.95634 0.00346 0.0
O638 O 0.54153 0.96134 0.12662 0.0
H639 H 0.55223 0.93785 0.26692 0.0
H640 H 0.55464 0.92333 0.2633 0.0
C641 C 0.54724 0.92685 0.25292 0.0
H642 H 0.53838 0.92117 0.29131 0.0
H643 H 0.5526 0.96528 0.27139 0.0
O644 O 0.52748 0.93155 0.88982 0.0
C645 C 0.54421 0.96504 0.0572 0.0
Co646 Co 0.07304 0.59371 0.96322 0.0
Co647 Co 0.06537 0.58942 0.13471 0.0
C648 C 0.07558 0.5728 0.05572 0.0
O649 O 0.0772 0.57925 0.9935 0.0
O650 O 0.07102 0.57566 0.11507 0.0
C651 C 0.07614 0.58964 0.8094 0.0
O652 O 0.07082 0.577 0.83355 0.0
C653 C 0.06768 0.58655 0.29868 0.0
C654 C 0.05466 0.59427 0.345 0.0
C655 C 0.06308 0.58921 0.3659 0.0
N656 N 0.06222 0.58987 0.24036 0.0
N657 N 0.05436 0.59437 0.26832 0.0
C658 C 0.07811 0.58222 0.2898 0.0
H659 H 0.08454 0.58716 0.23893 0.0
H660 H 0.0847 0.58486 0.34106 0.0
H661 H 0.0728 0.571 0.28171 0.0
C662 C 0.0901 0.62238 0.01445 0.0
N663 N 0.08148 0.60905 0.02812 0.0
N664 N 0.07878 0.60721 0.10143 0.0
C665 C 0.08594 0.61932 0.13734 0.0
C666 C 0.0933 0.6294 0.08338 0.0
C667 C 0.09415 0.6283 0.93603 0.0
H668 H 0.08523 0.62331 0.89734 0.0
H669 H 0.10214 0.62627 0.9139 0.0
H670 H 0.09807 0.63945 0.93572 0.0
O671 O 0.05309 0.58599 0.96145 0.0
O672 O 0.04749 0.58325 0.08372 0.0
H673 H 0.07666 0.62067 0.24055 0.0
H674 H 0.09506 0.63091 0.24031 0.0
C675 C 0.08622 0.62107 0.22203 0.0
H676 H 0.0869 0.61269 0.2504 0.0
H677 H 0.04902 0.59778 0.23498 0.0
O678 O 0.07883 0.59902 0.85745 0.0
C679 C 0.04415 0.5823 0.01371 0.0
Co680 Co 0.4121 0.47733 -0.00171 0.0
Co681 Co 0.41657 0.47617 0.17019 0.0
C682 C 0.43248 0.50217 0.07999 0.0
O683 O 0.4261 0.49651 0.01888 0.0
O684 O 0.42982 0.49544 0.14198 0.0
C685 C 0.40956 0.48513 0.84596 0.0
O686 O 0.41339 0.49737 0.87245 0.0
C687 C 0.4155 0.48221 0.33143 0.0
C688 C 0.41572 0.46465 0.38513 0.0
C689 C 0.41491 0.47621 0.40145 0.0
N690 N 0.41643 0.4744 0.27681 0.0
N691 N 0.41664 0.46398 0.30923 0.0
C692 C 0.41551 0.49522 0.31601 0.0
H693 H 0.41983 0.49933 0.25914 0.0
H694 H 0.40487 0.49322 0.31683 0.0
H695 H 0.42144 0.50293 0.36032 0.0
C696 C 0.38329 0.46562 0.04796 0.0
N697 N 0.3967 0.47102 0.06229 0.0
N698 N 0.39851 0.47032 0.1358 0.0
C699 C 0.38623 0.4643 0.17075 0.0
C700 C 0.37618 0.4612 0.1163 0.0
C701 C 0.37747 0.4644 0.9699 0.0
H702 H 0.37807 0.45623 0.9383 0.0
H703 H 0.38361 0.47409 0.93835 0.0
H704 H 0.36668 0.46194 0.9724 0.0
O705 O 0.42045 0.46561 0.00618 0.0
O706 O 0.42324 0.46425 0.12981 0.0
H707 H 0.3902 0.45527 0.26762 0.0
H708 H 0.37314 0.45258 0.2649 0.0
C709 C 0.384 0.46001 0.25272 0.0
H710 H 0.38724 0.46911 0.28921 0.0
H711 H 0.41719 0.4563 0.27941 0.0
O712 O 0.40721 0.47549 0.89134 0.0
C713 C 0.42431 0.46113 0.06159 0.0
Co714 Co 0.26917 0.19118 0.6415 0.0
Co715 Co 0.27435 0.19393 0.46953 0.0
C716 C 0.26506 0.16728 0.55238 0.0
O717 O 0.2641 0.17217 0.61588 0.0
O718 O 0.26905 0.17469 0.49273 0.0
C719 C 0.25954 0.18294 0.7954 0.0
O720 O 0.25103 0.1706 0.77062 0.0
C721 C 0.26777 0.18825 0.30703 0.0
C722 C 0.28307 0.20804 0.25736 0.0
C723 C 0.27222 0.19531 0.23897 0.0
N724 N 0.2755 0.19658 0.36336 0.0
N725 N 0.28465 0.20835 0.33328 0.0
C726 C 0.25647 0.17386 0.31817 0.0
H727 H 0.25801 0.16937 0.37032 0.0
H728 H 0.24665 0.17374 0.32394 0.0
H729 H 0.25574 0.16744 0.26859 0.0
C730 C 0.2512 0.20247 0.60207 0.0
N731 N 0.25967 0.19779 0.58351 0.0
N732 N 0.26174 0.19886 0.50955 0.0
C733 C 0.25452 0.20415 0.47821 0.0
C734 C 0.24763 0.20671 0.5358 0.0
C735 C 0.24755 0.2038 0.68237 0.0
H736 H 0.25693 0.20872 0.71772 0.0
H737 H 0.24076 0.19348 0.70611 0.0
H738 H 0.2424 0.20993 0.68594 0.0
O739 O 0.28908 0.20314 0.63216 0.0
O740 O 0.29313 0.20603 0.50855 0.0
H741 H 0.26401 0.21417 0.37372 0.0
H742 H 0.2462 0.20931 0.38025 0.0
C743 C 0.25382 0.20625 0.39439 0.0
H744 H 0.2509 0.19662 0.36408 0.0
H745 H 0.29187 0.21664 0.36479 0.0
O746 O 0.26663 0.19245 0.74899 0.0
C747 C 0.29736 0.20841 0.57701 0.0
Co748 Co 0.8154 0.07766 0.64415 0.0
Co749 Co 0.81073 0.08267 0.47423 0.0
C750 C 0.83823 0.09873 0.55116 0.0
O751 O 0.83404 0.0922 0.61377 0.0
O752 O 0.83023 0.096 0.49452 0.0
C753 C 0.82243 0.08068 0.79944 0.0
O754 O 0.83085 0.0932 0.77658 0.0
C755 C 0.8161 0.08439 0.3106 0.0
C756 C 0.79666 0.08091 0.26131 0.0
C757 C 0.80948 0.08313 0.24218 0.0
N758 N 0.80759 0.08296 0.36778 0.0
N759 N 0.79602 0.081 0.338 0.0
C760 C 0.82979 0.08566 0.32167 0.0
H761 H 0.83021 0.08119 0.37721 0.0
H762 H 0.83205 0.08052 0.27472 0.0
H763 H 0.83769 0.09662 0.32125 0.0
C764 C 0.80418 0.04938 0.58561 0.0
N765 N 0.8083 0.06269 0.57572 0.0
N766 N 0.80639 0.06478 0.50407 0.0
C767 C 0.80111 0.05286 0.46595 0.0
C768 C 0.79958 0.04273 0.51624 0.0
C769 C 0.80463 0.04323 0.66027 0.0
H770 H 0.81486 0.04944 0.68634 0.0
H771 H 0.80234 0.03255 0.65337 0.0
H772 H 0.79706 0.04345 0.69956 0.0
O773 O 0.80338 0.08564 0.64907 0.0
O774 O 0.79927 0.0887 0.52935 0.0
H775 H 0.79001 0.05535 0.37473 0.0
H776 H 0.79114 0.04007 0.36769 0.0
C777 C 0.79673 0.05098 0.38425 0.0
H778 H 0.80584 0.05647 0.34731 0.0
H779 H 0.78759 0.07943 0.37005 0.0
O780 O 0.81531 0.07169 0.75013 0.0
C781 C 0.79763 0.08949 0.60067 0.0
Co782 Co 0.92767 0.73563 0.67831 0.0
Co783 Co 0.92328 0.73091 0.50718 0.0
C784 C 0.90743 0.74074 0.5963 0.0
O785 O 0.91362 0.74081 0.6571 0.0
O786 O 0.91016 0.73717 0.53278 0.0
C787 C 0.92969 0.74497 0.83245 0.0
O788 O 0.92326 0.75139 0.81123 0.0
C789 C 0.92062 0.73382 0.34323 0.0
C790 C 0.93272 0.7248 0.30004 0.0
C791 C 0.92601 0.73162 0.27732 0.0
N792 N 0.92448 0.72896 0.4021 0.0
N793 N 0.93142 0.72332 0.37587 0.0
C794 C 0.9114 0.73966 0.35081 0.0
H795 H 0.90353 0.73388 0.3945 0.0
H796 H 0.91743 0.75045 0.36942 0.0
H797 H 0.90613 0.73904 0.29639 0.0
C798 C 0.95647 0.7533 0.63109 0.0
N799 N 0.94314 0.7449 0.61605 0.0
N800 N 0.94127 0.74354 0.54207 0.0
C801 C 0.95337 0.75149 0.50719 0.0
C802 C 0.96345 0.75781 0.56238 0.0
C803 C 0.96237 0.75613 0.70979 0.0
H804 H 0.95764 0.74657 0.74357 0.0
H805 H 0.96 0.76345 0.73832 0.0
H806 H 0.97357 0.76041 0.70893 0.0
O807 O 0.91948 0.71574 0.67118 0.0
O808 O 0.91632 0.7121 0.54751 0.0
H809 H 0.95634 0.74567 0.39612 0.0
H810 H 0.96441 0.76381 0.40996 0.0
C811 C 0.95518 0.75389 0.42298 0.0
H812 H 0.94619 0.7539 0.39822 0.0
H813 H 0.93576 0.71898 0.41028 0.0
O814 O 0.93299 0.73896 0.78348 0.0
C815 C 0.91538 0.70762 0.61498 0.0
Co816 Co 0.48133 0.07258 0.02446 0.0
Co817 Co 0.47643 0.06228 0.85516 0.0
C818 C 0.50397 0.07378 0.93198 0.0
O819 O 0.49986 0.07644 0.99389 0.0
O820 O 0.4959 0.06828 0.87579 0.0
C821 C 0.48817 0.07627 0.17972 0.0
O822 O 0.49621 0.07174 0.15644 0.0
C823 C 0.48189 0.0656 0.69114 0.0
C824 C 0.46222 0.05006 0.64209 0.0
C825 C 0.47518 0.06039 0.62271 0.0
N826 N 0.4733 0.05871 0.7485 0.0
N827 N 0.46159 0.04933 0.7188 0.0
C828 C 0.49576 0.07778 0.70207 0.0
H829 H 0.49626 0.08289 0.75691 0.0
H830 H 0.49834 0.08513 0.65437 0.0
H831 H 0.50341 0.0744 0.70327 0.0
C832 C 0.47049 0.08979 0.96295 0.0
N833 N 0.47433 0.08035 0.95471 0.0
N834 N 0.47237 0.07612 0.88345 0.0
C835 C 0.46734 0.08287 0.84403 0.0
C836 C 0.46603 0.09175 0.89292 0.0
C837 C 0.47099 0.09663 0.03669 0.0
H838 H 0.48134 0.10101 0.06175 0.0
H839 H 0.4684 0.1048 0.02878 0.0
H840 H 0.46369 0.08891 0.07734 0.0
O841 O 0.46916 0.05264 0.03072 0.0
O842 O 0.46476 0.04494 0.91205 0.0
H843 H 0.45814 0.0862 0.74391 0.0
H844 H 0.47237 0.08365 0.72608 0.0
C845 C 0.46321 0.08043 0.76194 0.0
H846 H 0.45611 0.06941 0.75262 0.0
H847 H 0.45306 0.04268 0.75093 0.0
O848 O 0.48135 0.07862 0.13051 0.0
C849 C 0.46322 0.04284 0.98376 0.0
Co850 Co 0.9345 0.41168 0.94532 0.0
Co851 Co 0.94251 0.41556 0.77411 0.0
C852 C 0.93258 0.43269 0.85172 0.0
O853 O 0.93067 0.42636 0.91472 0.0
O854 O 0.93718 0.42955 0.7936 0.0
C855 C 0.93011 0.41498 0.10015 0.0
O856 O 0.93409 0.42749 0.07758 0.0
C857 C 0.9388 0.41735 0.61133 0.0
C858 C 0.95352 0.41209 0.56165 0.0
C859 C 0.94371 0.41549 0.54292 0.0
N860 N 0.9454 0.41516 0.66816 0.0
N861 N 0.95426 0.41212 0.63826 0.0
C862 C 0.92725 0.42002 0.62294 0.0
H863 H 0.92175 0.41516 0.67657 0.0
H864 H 0.92004 0.41611 0.57421 0.0
H865 H 0.9314 0.43119 0.62747 0.0
C866 C 0.91666 0.38313 0.89383 0.0
N867 N 0.92574 0.39636 0.88022 0.0
N868 N 0.92886 0.39797 0.80732 0.0
C869 C 0.92171 0.38581 0.77192 0.0
C870 C 0.91375 0.37602 0.8256 0.0
C871 C 0.91109 0.37746 0.97103 0.0
H872 H 0.90678 0.38341 0.99709 0.0
H873 H 0.90308 0.36655 0.96808 0.0
H874 H 0.91953 0.37859 0.00819 0.0
O875 O 0.95451 0.41911 0.94724 0.0
O876 O 0.96022 0.42131 0.82517 0.0
H877 H 0.91668 0.37253 0.6736 0.0
H878 H 0.92037 0.38971 0.65394 0.0
C879 C 0.9232 0.38341 0.6895 0.0
H880 H 0.93399 0.38656 0.67749 0.0
H881 H 0.96064 0.40984 0.67018 0.0
O882 O 0.92874 0.40615 0.05114 0.0
C883 C 0.96347 0.42241 0.89536 0.0
Co884 Co 0.59171 0.52494 0.9534 0.0
Co885 Co 0.58965 0.52993 0.77723 0.0
C886 C 0.57243 0.50235 0.84884 0.0
O887 O 0.57774 0.5067 0.91434 0.0
O888 O 0.57615 0.51023 0.79092 0.0
C889 C 0.58702 0.51424 0.10675 0.0
O890 O 0.57614 0.50404 0.0757 0.0
C891 C 0.59161 0.52759 0.6092 0.0
C892 C 0.5952 0.54775 0.57162 0.0
C893 C 0.59406 0.53571 0.54478 0.0
N894 N 0.59142 0.5346 0.67084 0.0
N895 N 0.59343 0.54658 0.64764 0.0
C896 C 0.59054 0.5139 0.61349 0.0
H897 H 0.59353 0.51224 0.67104 0.0
H898 H 0.59707 0.51296 0.5695 0.0
H899 H 0.5798 0.50589 0.60312 0.0
C900 C 0.62094 0.53715 0.9113 0.0
N901 N 0.60777 0.5324 0.89286 0.0
N902 N 0.60692 0.53433 0.81941 0.0
C903 C 0.61954 0.54028 0.78885 0.0
C904 C 0.62883 0.54223 0.84593 0.0
C905 C 0.62581 0.53713 0.99051 0.0
H906 H 0.61961 0.52683 0.01588 0.0
H907 H 0.63675 0.54007 0.99122 0.0
H908 H 0.62432 0.54439 0.026 0.0
O909 O 0.58398 0.53717 0.95086 0.0
O910 O 0.58246 0.54083 0.82798 0.0
H911 H 0.63394 0.55104 0.69747 0.0
H912 H 0.61807 0.53637 0.6691 0.0
C913 C 0.6228 0.54523 0.70824 0.0
H914 H 0.6185 0.55191 0.69565 0.0
H915 H 0.5939 0.55409 0.68404 0.0
O916 O 0.59549 0.5239 0.06421 0.0
C917 C 0.58078 0.54272 0.89782 0.0
Co918 Co 0.7389 0.81356 0.35315 0.0
Co919 Co 0.72897 0.8071 0.5226 0.0
C920 C 0.73924 0.83504 0.45266 0.0
O921 O 0.74219 0.83175 0.38887 0.0
O922 O 0.73402 0.82641 0.50665 0.0
C923 C 0.74055 0.81972 0.19767 0.0
O924 O 0.73381 0.82568 0.22149 0.0
C925 C 0.73098 0.81166 0.68791 0.0
C926 C 0.71754 0.79093 0.73316 0.0
C927 C 0.72613 0.80433 0.75487 0.0
N928 N 0.72549 0.80303 0.62883 0.0
N929 N 0.7174 0.79066 0.6563 0.0
C930 C 0.74176 0.82634 0.68068 0.0
H931 H 0.74752 0.82812 0.62674 0.0
H932 H 0.74893 0.82951 0.72959 0.0
H933 H 0.73683 0.83268 0.68107 0.0
C934 C 0.75635 0.80234 0.40535 0.0
N935 N 0.74706 0.80625 0.41815 0.0
N936 N 0.7433 0.80403 0.4901 0.0
C937 C 0.75042 0.79907 0.52612 0.0
C938 C 0.75886 0.79767 0.47355 0.0
C939 C 0.76172 0.80204 0.32782 0.0
H940 H 0.75332 0.79818 0.28561 0.0
H941 H 0.76948 0.81257 0.31107 0.0
H942 H 0.76634 0.79541 0.3263 0.0
O943 O 0.71912 0.8009 0.34678 0.0
O944 O 0.71166 0.79527 0.46539 0.0
H945 H 0.73995 0.78719 0.62417 0.0
H946 H 0.75832 0.79523 0.63027 0.0
C947 C 0.74974 0.79649 0.61019 0.0
H948 H 0.75021 0.80523 0.64109 0.0
H949 H 0.71196 0.78199 0.62257 0.0
O950 O 0.74498 0.8146 0.24657 0.0
C951 C 0.70947 0.79424 0.3937 0.0
Co952 Co 0.1926 0.92557 0.33396 0.0
Co953 Co 0.19491 0.92229 0.51075 0.0
C954 C 0.16839 0.90584 0.42801 0.0
O955 O 0.17387 0.91163 0.365 0.0
O956 O 0.17528 0.90899 0.48981 0.0
C957 C 0.18383 0.92976 0.18183 0.0
O958 O 0.17273 0.92853 0.21309 0.0
C959 C 0.19222 0.92264 0.68131 0.0
C960 C 0.2127 0.92645 0.71342 0.0
C961 C 0.20057 0.9245 0.74403 0.0
N962 N 0.19924 0.92358 0.61724 0.0
N963 N 0.21143 0.92582 0.63729 0.0
C964 C 0.17773 0.91952 0.68182 0.0
H965 H 0.17261 0.91471 0.62747 0.0
H966 H 0.17754 0.92916 0.6885 0.0
H967 H 0.17208 0.91267 0.73016 0.0
C968 C 0.20468 0.95467 0.37977 0.0
N969 N 0.19946 0.94135 0.39628 0.0
N970 N 0.20019 0.93994 0.47041 0.0
C971 C 0.20579 0.95235 0.50344 0.0
C972 C 0.20882 0.96211 0.44718 0.0
C973 C 0.20578 0.96008 0.30069 0.0
H974 H 0.21262 0.95776 0.2665 0.0
H975 H 0.19558 0.95482 0.27341 0.0
H976 H 0.20972 0.97124 0.30051 0.0
O977 O 0.20447 0.91746 0.34042 0.0
O978 O 0.20601 0.91501 0.46446 0.0
H979 H 0.21652 0.95126 0.60085 0.0
H980 H 0.21424 0.96585 0.6012 0.0
C981 C 0.20936 0.9549 0.58628 0.0
H982 H 0.19999 0.94908 0.6209 0.0
H983 H 0.21896 0.92699 0.59872 0.0
O984 O 0.19288 0.9295 0.22355 0.0
C985 C 0.20895 0.91368 0.39619 0.0
Co986 Co 0.08033 0.26704 0.33435 0.0
Co987 Co 0.08172 0.2762 0.50208 0.0
C988 C 0.09982 0.26565 0.43914 0.0
O989 O 0.09414 0.26279 0.37385 0.0
O990 O 0.09609 0.27103 0.49059 0.0
C991 C 0.07503 0.25516 0.17161 0.0
O992 O 0.07155 0.24249 0.18754 0.0
C993 C 0.07734 0.26847 0.662 0.0
C994 C 0.07881 0.28671 0.71685 0.0
C995 C 0.07654 0.2737 0.73204 0.0
N996 N 0.07979 0.27788 0.60818 0.0
N997 N 0.08065 0.28876 0.64119 0.0
C998 C 0.07635 0.255 0.64621 0.0
H999 H 0.08041 0.25488 0.58903 0.0
H1000 H 0.0655 0.24682 0.64752 0.0
H1001 H 0.08195 0.25271 0.69038 0.0
C1002 C 0.05077 0.24975 0.37312 0.0
N1003 N 0.06389 0.25859 0.39106 0.0
N1004 N 0.0645 0.26275 0.46176 0.0
C1005 C 0.05177 0.25675 0.49085 0.0
C1006 C 0.04269 0.24819 0.43616 0.0
C1007 C 0.04613 0.24328 0.29653 0.0
H1008 H 0.04914 0.25136 0.25267 0.0
H1009 H 0.05132 0.23744 0.2829 0.0
H1010 H 0.03493 0.23631 0.29471 0.0
O1011 O 0.08794 0.28698 0.33479 0.0
O1012 O 0.08815 0.29422 0.45204 0.0
H1013 H 0.05469 0.27151 0.57665 0.0
H1014 H 0.03728 0.25795 0.56636 0.0
C1015 C 0.04809 0.26046 0.56559 0.0
H1016 H 0.04952 0.25464 0.61194 0.0
H1017 H 0.08252 0.29758 0.61211 0.0
O1018 O 0.07793 0.26382 0.2244 0.0
C1019 C 0.09037 0.29658 0.38094 0.0
Co1020 Co 0.19411 0.26972 0.33665 0.0
Co1021 Co 0.19536 0.27411 0.51387 0.0
C1022 C 0.16922 0.26404 0.42865 0.0
O1023 O 0.17522 0.26439 0.36646 0.0
O1024 O 0.17566 0.26744 0.49197 0.0
C1025 C 0.18542 0.25676 0.18579 0.0
O1026 O 0.17454 0.24678 0.21835 0.0
C1027 C 0.19271 0.2712 0.68456 0.0
C1028 C 0.2135 0.28744 0.71536 0.0
C1029 C 0.20126 0.27762 0.74664 0.0
N1030 N 0.19974 0.27699 0.62007 0.0
N1031 N 0.21213 0.28667 0.63932 0.0
C1032 C 0.17806 0.26021 0.68612 0.0
H1033 H 0.17288 0.26016 0.63245 0.0
H1034 H 0.17747 0.25017 0.69199 0.0
H1035 H 0.17273 0.26163 0.73535 0.0
C1036 C 0.20679 0.25321 0.38014 0.0
N1037 N 0.20102 0.26077 0.39778 0.0
N1038 N 0.2012 0.26226 0.47229 0.0
C1039 C 0.20693 0.2555 0.50449 0.0
C1040 C 0.21071 0.24958 0.44717 0.0
C1041 C 0.20866 0.24979 0.30033 0.0
H1042 H 0.21507 0.25936 0.26816 0.0
H1043 H 0.19859 0.24433 0.27175 0.0
H1044 H 0.21343 0.24329 0.29889 0.0
O1045 O 0.2057 0.28971 0.34553 0.0
O1046 O 0.20621 0.29275 0.47022 0.0
H1047 H 0.21749 0.26636 0.60464 0.0
H1048 H 0.21396 0.24901 0.60264 0.0
C1049 C 0.20987 0.2558 0.58788 0.0
H1050 H 0.20039 0.25265 0.6208 0.0
H1051 H 0.21969 0.29278 0.60025 0.0
O1052 O 0.19447 0.26628 0.2264 0.0
C1053 C 0.20959 0.29755 0.40317 0.0
Co1054 Co 0.7354 0.92598 0.34522 0.0
Co1055 Co 0.73055 0.92167 0.52231 0.0
C1056 C 0.74073 0.9061 0.43403 0.0
O1057 O 0.74055 0.91209 0.37272 0.0
O1058 O 0.73726 0.90887 0.4979 0.0
C1059 C 0.7485 0.93067 0.19417 0.0
O1060 O 0.75844 0.9297 0.22651 0.0
C1061 C 0.73286 0.92101 0.69358 0.0
C1062 C 0.71725 0.92645 0.72419 0.0
C1063 C 0.72666 0.92345 0.75559 0.0
N1064 N 0.72739 0.92268 0.62893 0.0
N1065 N 0.71806 0.92587 0.64813 0.0
C1066 C 0.74344 0.91678 0.69538 0.0
H1067 H 0.74308 0.9113 0.64235 0.0
H1068 H 0.75368 0.92601 0.69971 0.0
H1069 H 0.7419 0.91018 0.74555 0.0
C1070 C 0.75155 0.95508 0.39582 0.0
N1071 N 0.74412 0.94155 0.40957 0.0
N1072 N 0.74252 0.93953 0.48371 0.0
C1073 C 0.74917 0.95167 0.51945 0.0
C1074 C 0.75494 0.96197 0.46523 0.0
C1075 C 0.75433 0.9612 0.3177 0.0
H1076 H 0.74542 0.95512 0.28017 0.0
H1077 H 0.76322 0.96091 0.2932 0.0
H1078 H 0.75661 0.97193 0.3192 0.0
O1079 O 0.7154 0.91753 0.35309 0.0
O1080 O 0.71206 0.91417 0.47729 0.0
H1081 H 0.74069 0.952 0.62783 0.0
H1082 H 0.75884 0.96356 0.62067 0.0
C1083 C 0.75038 0.95335 0.60424 0.0
H1084 H 0.75234 0.94552 0.62935 0.0
H1085 H 0.71228 0.92779 0.60896 0.0
O1086 O 0.739 0.9302 0.23506 0.0
C1087 C 0.70742 0.9132 0.41015 0.0
Co1088 Co 0.08048 0.81208 0.36303 0.0
Co1089 Co 0.08194 0.8069 0.53889 0.0
C1090 C 0.09961 0.83458 0.46648 0.0
O1091 O 0.09436 0.83045 0.40059 0.0
O1092 O 0.09575 0.82652 0.52367 0.0
C1093 C 0.07676 0.82115 0.20852 0.0
O1094 O 0.07761 0.8322 0.23813 0.0
C1095 C 0.08056 0.80924 0.7089 0.0
C1096 C 0.0768 0.78885 0.74259 0.0
C1097 C 0.07861 0.80099 0.77235 0.0
N1098 N 0.07985 0.80219 0.64537 0.0
N1099 N 0.07758 0.79002 0.66634 0.0
C1100 C 0.08356 0.8237 0.70834 0.0
H1101 H 0.0879 0.82865 0.65296 0.0
H1102 H 0.07393 0.82383 0.71732 0.0
H1103 H 0.09076 0.82958 0.75493 0.0
C1104 C 0.05109 0.79995 0.40167 0.0
N1105 N 0.06419 0.80465 0.42147 0.0
N1106 N 0.0648 0.80258 0.49494 0.0
C1107 C 0.05208 0.79659 0.52425 0.0
C1108 C 0.04296 0.79472 0.46616 0.0
C1109 C 0.04652 0.80033 0.32214 0.0
H1110 H 0.04896 0.79394 0.28475 0.0
H1111 H 0.05222 0.81095 0.30042 0.0
H1112 H 0.03543 0.79666 0.31946 0.0
O1113 O 0.08825 0.79992 0.36829 0.0
O1114 O 0.08911 0.79578 0.49088 0.0
H1115 H 0.0525 0.78447 0.6165 0.0
H1116 H 0.03752 0.78616 0.61558 0.0
C1117 C 0.04865 0.79157 0.60466 0.0
H1118 H 0.05378 0.80034 0.64425 0.0
H1119 H 0.07664 0.7825 0.62838 0.0
O1120 O 0.07727 0.81239 0.25168 0.0
C1121 C 0.09113 0.79412 0.42127 0.0
Co1122 Co 0.9342 0.52434 0.01779 0.0
Co1123 Co 0.94162 0.52874 0.84168 0.0
C1124 C 0.93062 0.50129 0.91637 0.0
O1125 O 0.92966 0.50595 0.98081 0.0
O1126 O 0.93501 0.50894 0.85756 0.0
C1127 C 0.92657 0.51347 0.17088 0.0
O1128 O 0.92548 0.50242 0.13973 0.0
C1129 C 0.93725 0.52647 0.67345 0.0
C1130 C 0.95493 0.54587 0.63541 0.0
C1131 C 0.94338 0.53436 0.60879 0.0
N1132 N 0.9448 0.53312 0.73493 0.0
N1133 N 0.95542 0.54463 0.71141 0.0
C1134 C 0.92392 0.51341 0.67817 0.0
H1135 H 0.91958 0.512 0.73644 0.0
H1136 H 0.91662 0.51332 0.63567 0.0
H1137 H 0.92563 0.50477 0.66574 0.0
C1138 C 0.91788 0.53707 0.97204 0.0
N1139 N 0.926 0.53191 0.95502 0.0
N1140 N 0.92899 0.53371 0.88176 0.0
C1141 C 0.92282 0.54008 0.85 0.0
C1142 C 0.91554 0.54237 0.90602 0.0
C1143 C 0.91287 0.53728 0.05065 0.0
H1144 H 0.92157 0.54471 0.08591 0.0
H1145 H 0.90879 0.52708 0.07727 0.0
H1146 H 0.90483 0.54015 0.04988 0.0
O1147 O 0.9542 0.53623 0.01579 0.0
O1148 O 0.95967 0.53952 0.89317 0.0
H1149 H 0.93616 0.55106 0.75747 0.0
H1150 H 0.92074 0.55195 0.75911 0.0
C1151 C 0.92508 0.54523 0.76965 0.0
H1152 H 0.92024 0.53645 0.73004 0.0
H1153 H 0.96286 0.55182 0.7476 0.0
O1154 O 0.92934 0.52367 0.12848 0.0
C1155 C 0.96309 0.54153 0.96323 0.0
Co1156 Co 0.47922 0.41108 0.9799 0.0
Co1157 Co 0.47776 0.41406 0.80766 0.0
C1158 C 0.50386 0.43102 0.89263 0.0
O1159 O 0.49826 0.42513 0.95505 0.0
O1160 O 0.4971 0.42776 0.83058 0.0
C1161 C 0.4875 0.40995 0.13362 0.0
O1162 O 0.49993 0.41425 0.10859 0.0
C1163 C 0.48368 0.41471 0.64544 0.0
C1164 C 0.46296 0.40639 0.59716 0.0
C1165 C 0.4764 0.41081 0.57794 0.0
N1166 N 0.47483 0.41239 0.70218 0.0
N1167 N 0.46251 0.40754 0.67308 0.0
C1168 C 0.49875 0.42114 0.6566 0.0
H1169 H 0.50093 0.41437 0.69243 0.0
H1170 H 0.50437 0.42333 0.60196 0.0
H1171 H 0.5025 0.4309 0.68742 0.0
C1172 C 0.46807 0.38189 0.93904 0.0
N1173 N 0.47287 0.39511 0.92137 0.0
N1174 N 0.47274 0.39643 0.84708 0.0
C1175 C 0.46818 0.38409 0.81461 0.0
C1176 C 0.46489 0.3744 0.87176 0.0
C1177 C 0.46571 0.37656 0.01899 0.0
H1178 H 0.46148 0.38174 0.05377 0.0
H1179 H 0.47562 0.37887 0.0444 0.0
H1180 H 0.45858 0.36539 0.02098 0.0
O1181 O 0.46728 0.41897 0.97 0.0
O1182 O 0.46571 0.42092 0.84585 0.0
H1183 H 0.45898 0.38209 0.70541 0.0
H1184 H 0.46684 0.37173 0.71707 0.0
C1185 C 0.46778 0.38173 0.73044 0.0
H1186 H 0.47728 0.38981 0.70391 0.0
H1187 H 0.45376 0.40478 0.70535 0.0
O1188 O 0.47789 0.40714 0.08731 0.0
C1189 C 0.46266 0.4224 0.91354 0.0
Co1190 Co 0.59359 0.06956 0.93801 0.0
Co1191 Co 0.58867 0.0619 0.76621 0.0
C1192 C 0.57222 0.07192 0.84995 0.0
O1193 O 0.57884 0.07353 0.91148 0.0
O1194 O 0.57499 0.06748 0.78979 0.0
C1195 C 0.59166 0.07589 0.09243 0.0
O1196 O 0.57982 0.07413 0.06987 0.0
C1197 C 0.58693 0.06623 0.60393 0.0
C1198 C 0.59131 0.05099 0.55257 0.0
C1199 C 0.58865 0.06137 0.53489 0.0
N1200 N 0.58857 0.05909 0.65994 0.0
N1201 N 0.59103 0.0499 0.62901 0.0
C1202 C 0.58508 0.07826 0.61718 0.0
H1203 H 0.58971 0.08318 0.6724 0.0
H1204 H 0.58973 0.0858 0.57029 0.0
H1205 H 0.57401 0.07473 0.61946 0.0
C1206 C 0.62186 0.08748 0.88169 0.0
N1207 N 0.60857 0.07835 0.87038 0.0
N1208 N 0.6065 0.07533 0.79741 0.0
C1209 C 0.61843 0.08257 0.75983 0.0
C1210 C 0.62852 0.09051 0.81192 0.0
C1211 C 0.62803 0.09297 0.95807 0.0
H1212 H 0.62251 0.09762 0.98561 0.0
H1213 H 0.63903 0.10069 0.95338 0.0
H1214 H 0.62677 0.08444 0.99488 0.0
O1215 O 0.58595 0.04949 0.938 0.0
O1216 O 0.5829 0.04406 0.81552 0.0
H1217 H 0.61672 0.07058 0.66187 0.0
H1218 H 0.63122 0.08765 0.65931 0.0
C1219 C 0.62036 0.08139 0.67636 0.0
H1220 H 0.61426 0.08482 0.64363 0.0
H1221 H 0.59287 0.04313 0.66017 0.0
O1222 O 0.59957 0.07516 0.0438 0.0
C1223 C 0.58217 0.04062 0.88523 0.0
H1224 H 0.10815 0.41826 0.1191 0.0
H1225 H 0.14091 0.45093 0.24484 0.0
H1226 H 0.13029 0.46501 0.22819 0.0
H1227 H 0.1114 0.46787 0.17887 0.0
H1228 H 0.07971 0.43587 0.04478 0.0
H1229 H 0.09037 0.42179 0.06139 0.0
C1230 C 0.1131 0.42856 0.14167 0.0
C1231 C 0.12527 0.43353 0.18339 0.0
C1232 C 0.10716 0.43672 0.1298 0.0
C1233 C 0.13142 0.44679 0.21354 0.0
C1234 C 0.12541 0.45488 0.20355 0.0
C1235 C 0.10698 0.45787 0.15272 0.0
C1236 C 0.09487 0.45284 0.11056 0.0
C1237 C 0.11325 0.44993 0.162 0.0
C1238 C 0.08911 0.4399 0.07693 0.0
C1239 C 0.09515 0.43186 0.0868 0.0
H1240 H 0.53654 0.64558 0.20555 0.0
H1241 H 0.5689 0.64436 0.08355 0.0
H1242 H 0.58352 0.66909 0.0985 0.0
H1243 H 0.58719 0.69093 0.14884 0.0
H1244 H 0.5543 0.69255 0.26269 0.0
H1245 H 0.53981 0.66779 0.24973 0.0
C1246 C 0.54678 0.65082 0.18212 0.0
C1247 C 0.55174 0.64333 0.14366 0.0
C1248 C 0.55501 0.66504 0.19003 0.0
C1249 C 0.56496 0.65006 0.11318 0.0
C1250 C 0.57329 0.66414 0.12187 0.0
C1251 C 0.57678 0.68587 0.16981 0.0
C1252 C 0.57182 0.69352 0.20684 0.0
C1253 C 0.56843 0.67172 0.16037 0.0
C1254 C 0.55839 0.68683 0.23485 0.0
C1255 C 0.55009 0.6727 0.22708 0.0
H1256 H 0.3571 0.91641 0.0895 0.0
H1257 H 0.36451 0.89072 0.2395 0.0
H1258 H 0.34001 0.87689 0.26666 0.0
H1259 H 0.31642 0.87234 0.24833 0.0
H1260 H 0.30945 0.89909 0.10402 0.0
H1261 H 0.33373 0.91227 0.0739 0.0
C1262 C 0.35326 0.90768 0.12739 0.0
C1263 C 0.36242 0.9044 0.16178 0.0
C1264 C 0.33926 0.90004 0.14402 0.0
C1265 C 0.35751 0.89327 0.21198 0.0
C1266 C 0.34355 0.88543 0.22771 0.0
C1267 C 0.32028 0.88112 0.21081 0.0
C1268 C 0.31117 0.88465 0.17769 0.0
C1269 C 0.33432 0.88877 0.19444 0.0
C1270 C 0.31626 0.89603 0.12908 0.0
C1271 C 0.33014 0.9036 0.112 0.0
H1272 H 0.44105 0.08726 0.93012 0.0
H1273 H 0.47785 0.11529 0.81164 0.0
H1274 H 0.46758 0.12902 0.77305 0.0
H1275 H 0.44788 0.13287 0.77274 0.0
H1276 H 0.4107 0.10391 0.88558 0.0
H1277 H 0.42123 0.09069 0.92661 0.0
C1278 C 0.4468 0.09646 0.89652 0.0
C1279 C 0.46018 0.10047 0.87451 0.0
C1280 C 0.44071 0.10405 0.87321 0.0
C1281 C 0.46755 0.11221 0.82977 0.0
C1282 C 0.46167 0.11998 0.80748 0.0
C1283 C 0.4421 0.12359 0.80571 0.0
C1284 C 0.4286 0.1194 0.82669 0.0
C1285 C 0.44821 0.11596 0.82853 0.0
C1286 C 0.42118 0.1074 0.86963 0.0
C1287 C 0.42718 0.09984 0.89302 0.0
H1288 H 0.87223 0.31414 0.75062 0.0
H1289 H 0.9017 0.30911 0.88087 0.0
H1290 H 0.91539 0.33375 0.89913 0.0
H1291 H 0.91882 0.35678 0.88017 0.0
H1292 H 0.89028 0.36224 0.74418 0.0
H1293 H 0.87639 0.33746 0.72541 0.0
C1294 C 0.88172 0.3185 0.78229 0.0
C1295 C 0.88587 0.30985 0.8154 0.0
C1296 C 0.88965 0.33273 0.79173 0.0
C1297 C 0.89819 0.31558 0.85618 0.0
C1298 C 0.90604 0.32965 0.86644 0.0
C1299 C 0.90954 0.35247 0.84662 0.0
C1300 C 0.90542 0.36114 0.81415 0.0
C1301 C 0.90181 0.33832 0.83516 0.0
C1302 C 0.89352 0.35562 0.76989 0.0
C1303 C 0.88562 0.3415 0.75916 0.0
H1304 H 0.64475 0.53595 0.75959 0.0
H1305 H 0.64628 0.56587 0.917 0.0
H1306 H 0.67098 0.5799 0.89823 0.0
H1307 H 0.69188 0.58399 0.83322 0.0
H1308 H 0.69084 0.55333 0.68329 0.0
H1309 H 0.66612 0.5394 0.7007 0.0
C1310 C 0.65058 0.54549 0.79013 0.0
C1311 C 0.64385 0.54994 0.83964 0.0
C1312 C 0.66476 0.55342 0.77933 0.0
C1313 C 0.65137 0.56227 0.87912 0.0
C1314 C 0.66543 0.5703 0.86798 0.0
C1315 C 0.68629 0.57416 0.80534 0.0
C1316 C 0.69319 0.56969 0.75713 0.0
C1317 C 0.6722 0.56603 0.81778 0.0
C1318 C 0.68573 0.55707 0.7199 0.0
C1319 C 0.67163 0.54906 0.73039 0.0
H1320 H 0.89437 0.53754 0.81384 0.0
H1321 H 0.92194 0.56575 0.98084 0.0
H1322 H 0.91198 0.58041 0.96317 0.0
H1323 H 0.89586 0.58544 0.89783 0.0
H1324 H 0.86705 0.55654 0.73759 0.0
H1325 H 0.87732 0.54209 0.75278 0.0
C1326 C 0.89808 0.54687 0.84653 0.0
C1327 C 0.9088 0.55061 0.89869 0.0
C1328 C 0.89223 0.55518 0.83635 0.0
C1329 C 0.9136 0.56267 0.94094 0.0
C1330 C 0.90798 0.57107 0.93047 0.0
C1331 C 0.89169 0.57588 0.86707 0.0
C1332 C 0.88068 0.57204 0.81684 0.0
C1333 C 0.89734 0.56745 0.87812 0.0
C1334 C 0.87562 0.55979 0.77591 0.0
C1335 C 0.88141 0.55148 0.78511 0.0
H1336 H 0.44436 0.3111 0.86777 0.0
H1337 H 0.41624 0.31174 0.70476 0.0
H1338 H 0.42684 0.33651 0.71899 0.0
H1339 H 0.44353 0.3578 0.7816 0.0
H1340 H 0.4723 0.35747 0.94125 0.0
H1341 H 0.46185 0.33272 0.92636 0.0
C1342 C 0.44067 0.31674 0.83518 0.0
C1343 C 0.4296 0.30972 0.7852 0.0
C1344 C 0.44679 0.33096 0.84393 0.0
C1345 C 0.42483 0.31702 0.74301 0.0
C1346 C 0.43083 0.33113 0.75153 0.0
C1347 C 0.44762 0.35232 0.81235 0.0
C1348 C 0.45865 0.35942 0.86249 0.0
C1349 C 0.44174 0.33819 0.80225 0.0
C1350 C 0.4637 0.35218 0.90303 0.0
C1351 C 0.45779 0.33806 0.89411 0.0
H1352 H 0.64822 0.08447 0.84177 0.0
H1353 H 0.6414 0.11554 0.74581 0.0
H1354 H 0.66581 0.12965 0.71662 0.0
H1355 H 0.68924 0.13316 0.72034 0.0
H1356 H 0.69562 0.10143 0.8114 0.0
H1357 H 0.67131 0.08749 0.8402 0.0
C1358 C 0.65217 0.09437 0.81483 0.0
C1359 C 0.64323 0.09914 0.7967 0.0
C1360 C 0.6661 0.10224 0.79708 0.0
C1361 C 0.64825 0.11183 0.76075 0.0
C1362 C 0.66215 0.11983 0.7439 0.0
C1363 C 0.68522 0.12313 0.74572 0.0
C1364 C 0.69415 0.11835 0.76453 0.0
C1365 C 0.67119 0.11514 0.7618 0.0
C1366 C 0.68891 0.10536 0.79739 0.0
C1367 C 0.67503 0.0974 0.81386 0.0
H1368 H 0.53948 0.89674 0.2156 0.0
H1369 H 0.56781 0.92203 0.04196 0.0
H1370 H 0.58162 0.91123 0.06368 0.0
H1371 H 0.58589 0.89504 0.13432 0.0
H1372 H 0.55692 0.86863 0.30256 0.0
H1373 H 0.54331 0.87972 0.2829 0.0
C1374 C 0.54865 0.89979 0.18244 0.0
C1375 C 0.55266 0.91009 0.12712 0.0
C1376 C 0.55649 0.89349 0.19517 0.0
C1377 C 0.56451 0.91401 0.08423 0.0
C1378 C 0.57243 0.90791 0.09703 0.0
C1379 C 0.57649 0.89157 0.16593 0.0
C1380 C 0.57238 0.88099 0.21959 0.0
C1381 C 0.56854 0.89769 0.15254 0.0
C1382 C 0.56037 0.87686 0.26153 0.0
C1383 C 0.55253 0.88311 0.2498 0.0
H1384 H 0.08753 0.64564 0.17112 0.0
H1385 H 0.11842 0.64661 0.02335 0.0
H1386 H 0.13226 0.67135 0.03938 0.0
H1387 H 0.13544 0.69284 0.09481 0.0
H1388 H 0.10526 0.69153 0.24935 0.0
H1389 H 0.09139 0.66676 0.23307 0.0
C1390 C 0.09739 0.65124 0.14346 0.0
C1391 C 0.10193 0.64433 0.09584 0.0
C1392 C 0.10542 0.66539 0.15447 0.0
C1393 C 0.11462 0.65175 0.05937 0.0
C1394 C 0.12257 0.66587 0.06887 0.0
C1395 C 0.12585 0.68704 0.12506 0.0
C1396 C 0.12129 0.69386 0.17303 0.0
C1397 C 0.11804 0.67281 0.11601 0.0
C1398 C 0.10892 0.68639 0.21238 0.0
C1399 C 0.101 0.67227 0.20286 0.0
H1400 H 0.36084 0.46655 0.21365 0.0
H1401 H 0.35828 0.43764 0.04545 0.0
H1402 H 0.33373 0.42354 0.06803 0.0
H1403 H 0.31313 0.41927 0.13702 0.0
H1404 H 0.3152 0.44868 0.30032 0.0
H1405 H 0.33988 0.46256 0.28047 0.0
C1406 C 0.35483 0.45718 0.18194 0.0
C1407 C 0.36125 0.45313 0.12771 0.0
C1408 C 0.34073 0.44916 0.19519 0.0
C1409 C 0.35347 0.441 0.08676 0.0
C1410 C 0.33948 0.43291 0.10005 0.0
C1411 C 0.31896 0.4288 0.16762 0.0
C1412 C 0.31236 0.43299 0.21975 0.0
C1413 C 0.33302 0.43688 0.15419 0.0
C1414 C 0.32008 0.44518 0.2604 0.0
C1415 C 0.33416 0.45317 0.24857 0.0
H1416 H 0.75301 0.77483 0.55361 0.0
H1417 H 0.78496 0.80744 0.42303 0.0
H1418 H 0.79961 0.79753 0.44223 0.0
H1419 H 0.80321 0.77931 0.49551 0.0
H1420 H 0.77196 0.74792 0.63494 0.0
H1421 H 0.75727 0.75783 0.61539 0.0
C1422 C 0.76327 0.77991 0.53053 0.0
C1423 C 0.76788 0.79183 0.48673 0.0
C1424 C 0.77178 0.77441 0.54406 0.0
C1425 C 0.7811 0.79813 0.4559 0.0
C1426 C 0.78952 0.79253 0.46739 0.0
C1427 C 0.79324 0.77481 0.52221 0.0
C1428 C 0.78859 0.76299 0.56668 0.0
C1429 C 0.78495 0.78065 0.51124 0.0
C1430 C 0.7757 0.7571 0.601 0.0
C1431 C 0.76731 0.76272 0.58943 0.0
H1432 H 0.20213 0.97763 0.53466 0.0
H1433 H 0.233 0.97995 0.38179 0.0
H1434 H 0.247 0.00449 0.40553 0.0
H1435 H 0.25094 0.02498 0.47498 0.0
H1436 H 0.21987 0.02298 0.62529 0.0
H1437 H 0.20557 0.99855 0.59906 0.0
C1438 C 0.21189 0.98359 0.50631 0.0
C1439 C 0.21659 0.9771 0.45664 0.0
C1440 C 0.21989 0.99766 0.52071 0.0
C1441 C 0.22918 0.98482 0.41982 0.0
C1442 C 0.23721 0.9988 0.43378 0.0
C1443 C 0.24095 0.01923 0.50115 0.0
C1444 C 0.23649 0.02574 0.55236 0.0
C1445 C 0.23273 0.00529 0.48477 0.0
C1446 C 0.22362 0.01813 0.58669 0.0
C1447 C 0.21541 0.0042 0.57127 0.0
H1448 H 0.97949 0.226 0.44748 0.0
H1449 H 0.98209 0.20153 0.62801 0.0
H1450 H 0.00663 0.21185 0.60614 0.0
H1451 H 0.02749 0.22833 0.53727 0.0
H1452 H 0.02451 0.25149 0.35098 0.0
H1453 H 0.99984 0.24085 0.37142 0.0
C1454 C 0.98536 0.22272 0.48108 0.0
C1455 C 0.97898 0.2131 0.53982 0.0
C1456 C 0.99936 0.22839 0.46659 0.0
C1457 C 0.98681 0.20914 0.58365 0.0
C1458 C 1.00081 0.21495 0.5707 0.0
C1459 C 0.02135 0.23085 0.50068 0.0
C1460 C 0.02766 0.24057 0.44254 0.0
C1461 C 0.00721 0.22465 0.51267 0.0
C1462 C 0.01975 0.2439 0.39545 0.0
C1463 C 0.0057 0.2379 0.40754 0.0
H1464 H 0.25399 0.2301 0.46125 0.0
H1465 H 0.22216 0.19774 0.59339 0.0
H1466 H 0.20782 0.20815 0.57811 0.0
H1467 H 0.20426 0.22638 0.52482 0.0
H1468 H 0.23583 0.25814 0.38848 0.0
H1469 H 0.25026 0.2479 0.40568 0.0
C1470 C 0.24386 0.22528 0.48608 0.0
C1471 C 0.23909 0.21317 0.52812 0.0
C1472 C 0.23562 0.23116 0.47558 0.0
C1473 C 0.22606 0.20713 0.56122 0.0
C1474 C 0.21785 0.21303 0.55208 0.0
C1475 C 0.21429 0.23098 0.49892 0.0
C1476 C 0.21903 0.24293 0.45539 0.0
C1477 C 0.2225 0.22502 0.50907 0.0
C1478 C 0.232 0.24886 0.42173 0.0
C1479 C 0.24025 0.24306 0.43189 0.0
H1480 H 0.77881 0.98232 0.40606 0.0
H1481 H 0.74566 0.9749 0.55632 0.0
H1482 H 0.75689 0.99908 0.58883 0.0
H1483 H 0.7762 0.02243 0.57501 0.0
H1484 H 0.80876 0.03036 0.41954 0.0
H1485 H 0.7978 0.00599 0.38825 0.0
C1486 C 0.77403 0.98607 0.4453 0.0
C1487 C 0.76154 0.97685 0.4796 0.0
C1488 C 0.78049 1.00006 0.46308 0.0
C1489 C 0.75542 0.98179 0.53039 0.0
C1490 C 0.76181 0.99561 0.54884 0.0
C1491 C 0.78089 0.01874 0.53478 0.0
C1492 C 0.79328 0.028 0.50015 0.0
C1493 C 0.77439 0.00482 0.51603 0.0
C1494 C 0.79924 0.02328 0.44712 0.0
C1495 C 0.79296 0.0094 0.42913 0.0
H1496 H 0.97959 0.75359 0.46522 0.0
H1497 H 0.98063 0.782 0.63222 0.0
H1498 H 0.00536 0.79618 0.616 0.0
H1499 H 0.02681 0.80018 0.55606 0.0
H1500 H 0.02555 0.77203 0.38679 0.0
H1501 H 1.00074 0.75823 0.40031 0.0
C1502 C 0.98521 0.76299 0.49722 0.0
C1503 C 0.97834 0.76671 0.55022 0.0
C1504 C 0.99936 0.77115 0.4868 0.0
C1505 C 0.98576 0.77882 0.592 0.0
C1506 C 0.99987 0.78696 0.58242 0.0
C1507 C 0.02103 0.79106 0.52197 0.0
C1508 C 0.02789 0.78706 0.47057 0.0
C1509 C 0.00679 0.78317 0.53039 0.0
C1510 C 0.0204 0.7753 0.4263 0.0
C1511 C 0.00626 0.76738 0.43436 0.0
H1512 H 0.09991 0.32056 0.45949 0.0
H1513 H 0.0938 0.30416 0.23138 0.0
H1514 H 0.10441 0.32705 0.17823 0.0
H1515 H 0.11651 0.35188 0.19582 0.0
H1516 H 0.12303 0.36838 0.42373 0.0
H1517 H 0.11115 0.34543 0.47684 0.0
C1518 C 0.10081 0.32199 0.39818 0.0
C1519 C 0.09613 0.3106 0.34986 0.0
C1520 C 0.10705 0.33526 0.36753 0.0
C1521 C 0.09739 0.31269 0.27035 0.0
C1522 C 0.10346 0.32581 0.23961 0.0
C1523 C 0.11522 0.35046 0.25704 0.0
C1524 C 0.12075 0.36189 0.30542 0.0
C1525 C 0.10849 0.33719 0.2876 0.0
C1526 C 0.11897 0.35981 0.38481 0.0
C1527 C 0.11217 0.34666 0.41547 0.0
H1528 H 0.65403 0.76474 0.2104 0.0
H1529 H 0.63771 0.75736 0.43912 0.0
H1530 H 0.66067 0.76814 0.49157 0.0
H1531 H 0.6855 0.7809 0.47319 0.0
H1532 H 0.70183 0.78861 0.24449 0.0
H1533 H 0.67886 0.77644 0.19213 0.0
C1534 C 0.65548 0.76537 0.2717 0.0
C1535 C 0.64411 0.7603 0.32043 0.0
C1536 C 0.66877 0.77172 0.30189 0.0
C1537 C 0.64624 0.76123 0.39989 0.0
C1538 C 0.65939 0.76741 0.43019 0.0
C1539 C 0.68405 0.77981 0.41194 0.0
C1540 C 0.69543 0.78577 0.36315 0.0
C1541 C 0.67076 0.77289 0.3818 0.0
C1542 C 0.6933 0.78422 0.28375 0.0
C1543 C 0.68014 0.77725 0.2535 0.0
H1544 H 0.2159 0.90784 0.25825 0.0
H1545 H 0.22078 0.9048 0.50047 0.0
H1546 H 0.23353 0.89307 0.47603 0.0
H1547 H 0.24258 0.88296 0.38641 0.0
H1548 H 0.23746 0.88573 0.14422 0.0
H1549 H 0.22556 0.89832 0.16847 0.0
C1550 C 0.2198 0.90469 0.30582 0.0
C1551 C 0.21731 0.90718 0.38115 0.0
C1552 C 0.22706 0.89785 0.29145 0.0
C1553 C 0.22248 0.903 0.44191 0.0
C1554 C 0.22978 0.89628 0.42802 0.0
C1555 C 0.23893 0.88636 0.33877 0.0
C1556 C 0.24089 0.88332 0.26356 0.0
C1557 C 0.23202 0.89354 0.35306 0.0
C1558 C 0.23608 0.88786 0.20271 0.0
C1559 C 0.22926 0.89507 0.2165 0.0
H1560 H 0.31769 0.09778 0.56003 0.0
H1561 H 0.30431 0.09128 0.79471 0.0
H1562 H 0.32789 0.10275 0.83782 0.0
H1563 H 0.35241 0.11554 0.80956 0.0
H1564 H 0.36581 0.12197 0.57494 0.0
H1565 H 0.34222 0.10961 0.53182 0.0
C1566 C 0.31992 0.09879 0.62059 0.0
C1567 C 0.30918 0.09372 0.67378 0.0
C1568 C 0.33356 0.10546 0.64535 0.0
C1569 C 0.31232 0.0951 0.75216 0.0
C1570 C 0.32584 0.10169 0.7771 0.0
C1571 C 0.35019 0.11419 0.74902 0.0
C1572 C 0.36092 0.11978 0.69584 0.0
C1573 C 0.33655 0.10706 0.72426 0.0
C1574 C 0.3578 0.11783 0.61747 0.0
C1575 C 0.34428 0.11077 0.59253 0.0
H1576 H 0.91161 0.21683 0.75857 0.0
H1577 H 0.90576 0.21987 0.51748 0.0
H1578 H 0.89347 0.23197 0.54505 0.0
H1579 H 0.8836 0.24082 0.63717 0.0
H1580 H 0.88914 0.23758 0.8784 0.0
H1581 H 0.9024 0.22644 0.85085 0.0
C1582 C 0.90774 0.22021 0.71189 0.0
C1583 C 0.90958 0.21737 0.63597 0.0
C1584 C 0.90057 0.22707 0.72812 0.0
C1585 C 0.90448 0.22186 0.57641 0.0
C1586 C 0.89742 0.22877 0.59213 0.0
C1587 C 0.88774 0.23774 0.68393 0.0
C1588 C 0.88529 0.23999 0.75986 0.0
C1589 C 0.89528 0.23129 0.66774 0.0
C1590 C 0.89081 0.23596 0.81946 0.0
C1591 C 0.89839 0.22958 0.80375 0.0
H1592 H 0.78353 0.68544 0.53513 0.0
H1593 H 0.79131 0.69776 0.7713 0.0
H1594 H 0.77896 0.67397 0.81132 0.0
H1595 H 0.76677 0.64957 0.77964 0.0
H1596 H 0.75923 0.63729 0.54333 0.0
H1597 H 0.77057 0.66108 0.50367 0.0
C1598 C 0.78247 0.68295 0.59537 0.0
C1599 C 0.78844 0.69343 0.64986 0.0
C1600 C 0.77541 0.6692 0.6183 0.0
C1601 C 0.7869 0.68994 0.72779 0.0
C1602 C 0.77983 0.67631 0.75094 0.0
C1603 C 0.76752 0.65208 0.7195 0.0
C1604 C 0.76219 0.6416 0.66478 0.0
C1605 C 0.77416 0.66584 0.69671 0.0
C1606 C 0.76328 0.6451 0.58698 0.0
C1607 C 0.76978 0.65874 0.56403 0.0
H1608 H 0.8829 0.6432 0.62519 0.0
H1609 H 0.88933 0.65122 0.86687 0.0
H1610 H 0.90247 0.67567 0.84161 0.0
H1611 H 0.91128 0.69479 0.75181 0.0
H1612 H 0.90462 0.68688 0.51022 0.0
H1613 H 0.89249 0.66235 0.53487 0.0
C1614 C 0.88723 0.65027 0.67246 0.0
C1615 C 0.88504 0.64532 0.74792 0.0
C1616 C 0.89472 0.66435 0.65763 0.0
C1617 C 0.89078 0.65469 0.80825 0.0
C1618 C 0.89831 0.6687 0.79389 0.0
C1619 C 0.90726 0.68773 0.70434 0.0
C1620 C 0.90882 0.69272 0.62922 0.0
C1621 C 0.9002 0.67364 0.7189 0.0
C1622 C 0.90356 0.68336 0.56861 0.0
C1623 C 0.89659 0.66932 0.58266 0.0
H1624 H 0.30949 0.21608 0.71609 0.0
H1625 H 0.31859 0.21976 0.4752 0.0
H1626 H 0.34299 0.23232 0.50349 0.0
H1627 H 0.3617 0.24132 0.5966 0.0
H1628 H 0.35247 0.23746 0.83742 0.0
H1629 H 0.32813 0.22593 0.80879 0.0
C1630 C 0.31678 0.21968 0.66957 0.0
C1631 C 0.31216 0.21688 0.59355 0.0
C1632 C 0.33078 0.22682 0.68619 0.0
C1633 C 0.32182 0.22172 0.53422 0.0
C1634 C 0.33579 0.22889 0.55035 0.0
C1635 C 0.35439 0.23803 0.64295 0.0
C1636 C 0.35896 0.2402 0.71915 0.0
C1637 C 0.34038 0.23135 0.62615 0.0
C1638 C 0.34929 0.2359 0.77828 0.0
C1639 C 0.33535 0.22929 0.76198 0.0
H1640 H 0.76835 0.11703 0.77123 0.0
H1641 H 0.76147 0.1246 0.53849 0.0
H1642 H 0.77255 0.11234 0.492 0.0
H1643 H 0.78497 0.10019 0.5164 0.0
H1644 H 0.79209 0.09267 0.74864 0.0
H1645 H 0.7801 0.10406 0.79565 0.0
C1646 C 0.76922 0.11595 0.71037 0.0
C1647 C 0.76412 0.12183 0.65873 0.0
C1648 C 0.77568 0.10889 0.68355 0.0
C1649 C 0.76532 0.12026 0.57992 0.0
C1650 C 0.77167 0.11323 0.55301 0.0
C1651 C 0.78384 0.10095 0.5773 0.0
C1652 C 0.78951 0.0956 0.62865 0.0
C1653 C 0.777 0.10761 0.60422 0.0
C1654 C 0.78788 0.0967 0.70751 0.0
C1655 C 0.78104 0.10325 0.73464 0.0
H1656 H 0.69383 0.90807 0.275 0.0
H1657 H 0.68732 0.90328 0.5184 0.0
H1658 H 0.6627 0.89138 0.49867 0.0
H1659 H 0.64301 0.88163 0.41253 0.0
H1660 H 0.64951 0.88617 0.16906 0.0
H1661 H 0.67413 0.89892 0.18897 0.0
C1662 C 0.68705 0.90449 0.32386 0.0
C1663 C 0.69247 0.90654 0.39807 0.0
C1664 C 0.67288 0.89757 0.31219 0.0
C1665 C 0.68348 0.90182 0.46059 0.0
C1666 C 0.66937 0.895 0.44941 0.0
C1667 C 0.64979 0.88546 0.36372 0.0
C1668 C 0.64436 0.88287 0.28938 0.0
C1669 C 0.66396 0.89271 0.37546 0.0
C1670 C 0.65336 0.88795 0.22695 0.0
C1671 C 0.66746 0.89524 0.23823 0.0
H1672 H 0.12233 0.76122 0.38409 0.0
H1673 H 0.11546 0.76574 0.14624 0.0
H1674 H 0.10293 0.77724 0.18164 0.0
H1675 H 0.09479 0.78689 0.27924 0.0
H1676 H 0.10161 0.78251 0.51727 0.0
H1677 H 0.11322 0.77 0.48236 0.0
C1678 C 0.11804 0.76464 0.33989 0.0
C1679 C 0.11994 0.76266 0.26249 0.0
C1680 C 0.11086 0.77131 0.36059 0.0
C1681 C 0.11421 0.76713 0.2062 0.0
C1682 C 0.10705 0.77374 0.22638 0.0
C1683 C 0.09876 0.78316 0.32371 0.0
C1684 C 0.0974 0.78575 0.40084 0.0
C1685 C 0.10545 0.77603 0.30329 0.0
C1686 C 0.10252 0.78072 0.45747 0.0
C1687 C 0.1092 0.77358 0.43754 0.0
H1688 H 0.24229 0.362 0.40926 0.0
H1689 H 0.24014 0.35596 0.16538 0.0
H1690 H 0.22831 0.33132 0.18389 0.0
H1691 H 0.21789 0.31145 0.26877 0.0
H1692 H 0.21983 0.31744 0.51264 0.0
H1693 H 0.23247 0.34211 0.49433 0.0
C1694 C 0.2393 0.35532 0.36007 0.0
C1695 C 0.24208 0.36089 0.28603 0.0
C1696 C 0.23242 0.34111 0.371 0.0
C1697 C 0.23812 0.35201 0.22307 0.0
C1698 C 0.23134 0.33789 0.23354 0.0
C1699 C 0.22111 0.31812 0.31804 0.0
C1700 C 0.21783 0.31254 0.39196 0.0
C1701 C 0.22833 0.33232 0.3072 0.0
C1702 C 0.22215 0.32141 0.45502 0.0
C1703 C 0.22939 0.33554 0.44466 0.0
H1704 H 0.97436 0.42723 0.03881 0.0
H1705 H 0.98543 0.43103 0.80058 0.0
H1706 H 0.00948 0.44235 0.83502 0.0
H1707 H 0.02738 0.45216 0.9315 0.0
H1708 H 0.01666 0.44867 0.16998 0.0
H1709 H 0.99243 0.43613 0.13642 0.0
C1710 C 0.98201 0.43043 0.99435 0.0
C1711 C 0.97803 0.42833 0.91707 0.0
C1712 C 0.99589 0.43704 0.01449 0.0
C1713 C 0.98814 0.43254 0.86043 0.0
C1714 C 1.00193 0.43904 0.88005 0.0
C1715 C 0.01978 0.44862 0.97641 0.0
C1716 C 0.02387 0.45147 0.05322 0.0
C1717 C 0.00592 0.4415 0.95675 0.0
C1718 C 0.01383 0.44667 0.11042 0.0
C1719 C 0.99996 0.43952 0.09124 0.0
H1720 H 0.57696 0.54986 0.03998 0.0
H1721 H 0.57052 0.55449 0.80165 0.0
H1722 H 0.55906 0.56714 0.83599 0.0
H1723 H 0.54999 0.57602 0.93361 0.0
H1724 H 0.55638 0.57125 0.17186 0.0
H1725 H 0.56879 0.55959 0.13723 0.0
C1726 C 0.57311 0.55368 0.99534 0.0
C1727 C 0.57454 0.55112 0.91827 0.0
C1728 C 0.56648 0.5609 0.01543 0.0
C1729 C 0.56955 0.55625 0.86142 0.0
C1730 C 0.56296 0.56348 0.88101 0.0
C1731 C 0.55415 0.57251 0.97809 0.0
C1732 C 0.55215 0.57447 0.05532 0.0
C1733 C 0.56124 0.56573 0.95784 0.0
C1734 C 0.5577 0.56988 0.11199 0.0
C1735 C 0.5648 0.56317 0.09225 0.0
H1736 H 0.43435 0.98697 0.16463 0.0
H1737 H 0.42574 0.97123 0.93468 0.0
H1738 H 0.43655 0.99429 0.88404 0.0
H1739 H 0.44956 0.01902 0.90376 0.0
H1740 H 0.45838 0.03493 0.13321 0.0
H1741 H 0.44636 0.01184 0.18451 0.0
C1742 C 0.43473 0.98858 0.10351 0.0
C1743 C 0.4293 0.97732 0.05387 0.0
C1744 C 0.44108 1.00196 0.07422 0.0
C1745 C 0.4299 0.97965 0.97463 0.0
C1746 C 0.4361 0.99288 0.94532 0.0
C1747 C 0.44878 0.01746 0.96498 0.0
C1748 C 0.45498 0.02876 0.01422 0.0
C1749 C 0.4419 0.00412 0.99444 0.0
C1750 C 0.45378 0.02647 0.09358 0.0
C1751 C 0.44691 0.01324 0.12321 0.0
H1752 H 0.55195 0.9765 0.91623 0.0
H1753 H 0.55519 0.98679 0.15533 0.0
H1754 H 0.56781 0.01103 0.12336 0.0
H1755 H 0.57703 0.0293 0.02743 0.0
H1756 H 0.57349 0.01891 0.78837 0.0
H1757 H 0.56196 0.99473 0.8208 0.0
C1758 C 0.55545 0.98402 0.96155 0.0
C1759 C 0.55252 0.97977 0.03812 0.0
C1760 C 0.56265 0.99795 0.94282 0.0
C1761 C 0.55723 0.98972 0.09588 0.0
C1762 C 0.56446 0.0036 0.07766 0.0
C1763 C 0.57384 0.02177 0.98232 0.0
C1764 C 0.5761 0.02598 0.90548 0.0
C1765 C 0.56709 0.00784 0.00128 0.0
C1766 C 0.57187 0.01602 0.84797 0.0
C1767 C 0.56525 0.00216 0.86644 0.0
H1768 H 0.98518 0.55415 0.86872 0.0
H1769 H 0.9739 0.54753 0.10675 0.0
H1770 H 0.99785 0.56007 0.14323 0.0
H1771 H 0.02205 0.57209 0.1081 0.0
H1772 H 0.03341 0.57855 0.87019 0.0
H1773 H 0.00943 0.567 0.83365 0.0
C1774 C 0.98794 0.5555 0.92859 0.0
C1775 C 0.97769 0.5498 0.9847 0.0
C1776 C 1.00178 0.56269 0.94946 0.0
C1777 C 0.98152 0.55173 0.06209 0.0
C1778 C 0.99524 0.55891 0.08318 0.0
C1779 C 0.01931 0.57107 0.04824 0.0
C1780 C 0.02957 0.57615 0.99214 0.0
C1781 C 0.00547 0.56431 0.02739 0.0
C1782 C 0.02576 0.57472 0.9148 0.0
C1783 C 0.01203 0.56809 0.8937 0.0
H1784 H 0.4548 0.42735 0.05067 0.0
H1785 H 0.45148 0.43194 0.80844 0.0
H1786 H 0.43882 0.4438 0.83295 0.0
H1787 H 0.4296 0.45376 0.9232 0.0
H1788 H 0.43332 0.44938 0.16535 0.0
H1789 H 0.44489 0.4365 0.14045 0.0
C1790 C 0.45125 0.43085 0.00302 0.0
C1791 C 0.45417 0.42879 0.92774 0.0
C1792 C 0.44409 0.43776 0.01748 0.0
C1793 C 0.44943 0.4334 0.86694 0.0
C1794 C 0.4422 0.44021 0.88092 0.0
C1795 C 0.43286 0.44993 0.97064 0.0
C1796 C 0.43063 0.45262 0.04612 0.0
C1797 C 0.43961 0.44259 0.95598 0.0
C1798 C 0.43493 0.44753 0.10671 0.0
C1799 C 0.44156 0.44016 0.09255 0.0
H1800 H 0.1909 0.4163 0.31481 0.0
H1801 H 0.1794 0.39954 0.0881 0.0
H1802 H 0.20115 0.40044 0.07248 0.0
H1803 H 0.22261 0.40397 0.12697 0.0
H1804 H 0.23384 0.41988 0.35545 0.0
H1805 H 0.21318 0.42142 0.36596 0.0
C1806 C 0.1932 0.41299 0.26165 0.0
C1807 C 0.18343 0.40784 0.20288 0.0
C1808 C 0.20571 0.41329 0.25334 0.0
C1809 C 0.18666 0.40361 0.13437 0.0
C1810 C 0.19913 0.40405 0.12536 0.0
C1811 C 0.22067 0.40799 0.17862 0.0
C1812 C 0.22973 0.41167 0.2405 0.0
C1813 C 0.20861 0.40861 0.185 0.0
C1814 C 0.227 0.41684 0.30705 0.0
C1815 C 0.21515 0.4177 0.31326 0.0
H1816 H 0.5893 0.7765 0.32401 0.0
H1817 H 0.6077 0.78197 0.10162 0.0
H1818 H 0.60665 0.80269 0.08261 0.0
H1819 H 0.60243 0.82044 0.13325 0.0
H1820 H 0.58494 0.81556 0.35775 0.0
H1821 H 0.58362 0.79349 0.37114 0.0
C1822 C 0.59296 0.78214 0.27106 0.0
C1823 C 0.59857 0.7776 0.21447 0.0
C1824 C 0.59256 0.79426 0.26083 0.0
C1825 C 0.60324 0.78509 0.14617 0.0
C1826 C 0.60271 0.79703 0.13524 0.0
C1827 C 0.59811 0.81445 0.18457 0.0
C1828 C 0.5939 0.81974 0.24454 0.0
C1829 C 0.59763 0.80186 0.19272 0.0
C1830 C 0.58836 0.81182 0.31079 0.0
C1831 C 0.58763 0.79919 0.31868 0.0
H1832 H 0.22321 0.81952 0.10633 0.0
H1833 H 0.23139 0.81768 0.34524 0.0
H1834 H 0.21063 0.79554 0.35618 0.0
H1835 H 0.18904 0.77771 0.30099 0.0
H1836 H 0.1807 0.78005 0.06287 0.0
H1837 H 0.20263 0.80083 0.04886 0.0
C1838 C 0.22058 0.81421 0.16062 0.0
C1839 C 0.22882 0.82039 0.22495 0.0
C1840 C 0.2085 0.80156 0.16698 0.0
C1841 C 0.22522 0.81326 0.29472 0.0
C1842 C 0.21331 0.80059 0.30119 0.0
C1843 C 0.19208 0.78265 0.24578 0.0
C1844 C 0.18312 0.7773 0.1833 0.0
C1845 C 0.20468 0.79479 0.23817 0.0
C1846 C 0.18731 0.78389 0.11216 0.0
C1847 C 0.19987 0.79584 0.10401 0.0
H1848 H 0.40627 0.18421 0.86298 0.0
H1849 H 0.415 0.18548 0.62255 0.0
H1850 H 0.41629 0.20761 0.61195 0.0
H1851 H 0.41289 0.22559 0.66873 0.0
H1852 H 0.40402 0.22398 0.90937 0.0
H1853 H 0.40502 0.20308 0.92189 0.0
C1854 C 0.40865 0.18936 0.80837 0.0
C1855 C 0.41041 0.18306 0.74362 0.0
C1856 C 0.40927 0.20203 0.8025 0.0
C1857 C 0.41355 0.19002 0.67344 0.0
C1858 C 0.41424 0.20268 0.66721 0.0
C1859 C 0.41134 0.22078 0.72414 0.0
C1860 C 0.40821 0.22632 0.78774 0.0
C1861 C 0.4118 0.20863 0.73103 0.0
C1862 C 0.40634 0.21994 0.85917 0.0
C1863 C 0.40687 0.20794 0.86648 0.0
H1864 H 0.78106 0.18266 0.8626 0.0
H1865 H 0.7748 0.18897 0.62654 0.0
H1866 H 0.79549 0.21123 0.6283 0.0
H1867 H 0.81653 0.2279 0.69265 0.0
H1868 H 0.82303 0.22145 0.928 0.0
H1869 H 0.80105 0.2004 0.93061 0.0
C1870 C 0.7841 0.18896 0.81175 0.0
C1871 C 0.77642 0.18399 0.74426 0.0
C1872 C 0.79614 0.20174 0.81274 0.0
C1873 C 0.78052 0.19241 0.67921 0.0
C1874 C 0.7924 0.20517 0.68002 0.0
C1875 C 0.81309 0.222 0.74488 0.0
C1876 C 0.82155 0.22624 0.80975 0.0
C1877 C 0.80048 0.20978 0.74583 0.0
C1878 C 0.81681 0.21847 0.87704 0.0
C1879 C 0.80423 0.20636 0.87857 0.0
H1880 H 0.81674 0.58966 0.69437 0.0
H1881 H 0.82271 0.60202 0.93065 0.0
H1882 H 0.80059 0.60086 0.93234 0.0
H1883 H 0.78059 0.59848 0.86329 0.0
H1884 H 0.77501 0.58652 0.62625 0.0
H1885 H 0.79587 0.5853 0.62887 0.0
C1886 C 0.81317 0.59197 0.74659 0.0
C1887 C 0.8215 0.5961 0.81195 0.0
C1888 C 0.80052 0.59145 0.74699 0.0
C1889 C 0.81658 0.59889 0.87927 0.0
C1890 C 0.80394 0.59828 0.88026 0.0
C1891 C 0.78383 0.59544 0.81241 0.0
C1892 C 0.77628 0.59278 0.74441 0.0
C1893 C 0.79597 0.5949 0.81391 0.0
C1894 C 0.78063 0.58875 0.67928 0.0
C1895 C 0.7926 0.58806 0.6806 0.0
H1896 H 0.8908 0.74007 0.48148 0.0
H1897 H 0.89817 0.74774 0.72283 0.0
H1898 H 0.87761 0.74941 0.73489 0.0
H1899 H 0.85642 0.74653 0.67958 0.0
H1900 H 0.8488 0.7383 0.43872 0.0
H1901 H 0.87062 0.73916 0.42407 0.0
C1902 C 0.88804 0.74227 0.5366 0.0
C1903 C 0.89599 0.7436 0.60121 0.0
C1904 C 0.87607 0.74303 0.54348 0.0
C1905 C 0.89223 0.74656 0.67206 0.0
C1906 C 0.88043 0.74749 0.67915 0.0
C1907 C 0.85959 0.7451 0.62362 0.0
C1908 C 0.85085 0.74219 0.56061 0.0
C1909 C 0.87209 0.74541 0.61562 0.0
C1910 C 0.85522 0.74044 0.48849 0.0
C1911 C 0.86771 0.7409 0.47998 0.0
H1912 H 0.25858 0.14908 0.66932 0.0
H1913 H 0.26613 0.15359 0.42667 0.0
H1914 H 0.26476 0.13145 0.42192 0.0
H1915 H 0.26338 0.11176 0.48784 0.0
H1916 H 0.25649 0.10739 0.73085 0.0
H1917 H 0.25542 0.12839 0.73377 0.0
C1918 C 0.25977 0.14517 0.61519 0.0
C1919 C 0.26259 0.15311 0.54863 0.0
C1920 C 0.25915 0.13245 0.61286 0.0
C1921 C 0.26403 0.14779 0.47899 0.0
C1922 C 0.26327 0.13511 0.47614 0.0
C1923 C 0.26155 0.11531 0.54144 0.0
C1924 C 0.26023 0.10805 0.6091 0.0
C1925 C 0.26116 0.12751 0.54297 0.0
C1926 C 0.25763 0.11276 0.6778 0.0
C1927 C 0.25707 0.12482 0.67964 0.0
H1928 H 0.89305 0.15256 0.47607 0.0
H1929 H 0.8981 0.15184 0.71967 0.0
H1930 H 0.87743 0.12951 0.72702 0.0
H1931 H 0.85672 0.11126 0.66593 0.0
H1932 H 0.85146 0.11273 0.42288 0.0
H1933 H 0.87342 0.13364 0.41393 0.0
C1934 C 0.88974 0.14752 0.53078 0.0
C1935 C 0.89707 0.15402 0.59725 0.0
C1936 C 0.87771 0.13481 0.53486 0.0
C1937 C 0.89265 0.14715 0.66748 0.0
C1938 C 0.88078 0.13438 0.67184 0.0
C1939 C 0.86046 0.11603 0.61082 0.0
C1940 C 0.85235 0.11044 0.54529 0.0
C1941 C 0.87304 0.12827 0.60614 0.0
C1942 C 0.8574 0.11681 0.4744 0.0
C1943 C 0.86997 0.12881 0.46915 0.0
H1944 H 0.07206 0.55589 0.17527 0.0
H1945 H 0.08401 0.56288 0.93832 0.0
H1946 H 0.08485 0.54179 0.9352 0.0
H1947 H 0.08021 0.52038 0.99614 0.0
H1948 H 0.06787 0.51318 0.23247 0.0
H1949 H 0.06934 0.5354 0.23936 0.0
C1950 C 0.07503 0.55292 0.12316 0.0
C1951 C 0.07784 0.56095 0.05698 0.0
C1952 C 0.07535 0.54067 0.1214 0.0
C1953 C 0.08172 0.55691 0.99011 0.0
C1954 C 0.08217 0.5448 0.98814 0.0
C1955 C 0.07799 0.52371 0.04948 0.0
C1956 C 0.0738 0.51501 0.11342 0.0
C1957 C 0.07869 0.53645 0.05291 0.0
C1958 C 0.07107 0.5196 0.18217 0.0
C1959 C 0.07186 0.5323 0.18616 0.0
H1960 H 0.44869 0.51732 0.19761 0.0
H1961 H 0.44231 0.51915 0.95614 0.0
H1962 H 0.46297 0.54145 0.94863 0.0
H1963 H 0.48395 0.55946 0.00821 0.0
H1964 H 0.4905 0.55715 0.24905 0.0
H1965 H 0.46866 0.53614 0.25895 0.0
C1966 C 0.45171 0.52264 0.14341 0.0
C1967 C 0.444 0.51644 0.07745 0.0
C1968 C 0.46371 0.53539 0.13916 0.0
C1969 C 0.44806 0.52359 0.00788 0.0
C1970 C 0.45992 0.53636 0.00341 0.0
C1971 C 0.48054 0.55448 0.0631 0.0
C1972 C 0.48897 0.55989 0.12761 0.0
C1973 C 0.468 0.54221 0.06833 0.0
C1974 C 0.48431 0.55325 0.19827 0.0
C1975 C 0.4718 0.54117 0.20405 0.0
H1976 H 0.48968 0.93545 0.21362 0.0
H1977 H 0.4855 0.92219 0.97937 0.0
H1978 H 0.46309 0.92013 0.97263 0.0
H1979 H 0.44556 0.92408 0.02897 0.0
H1980 H 0.44978 0.93765 0.26261 0.0
H1981 H 0.47113 0.93745 0.27365 0.0
C1982 C 0.48381 0.93193 0.16138 0.0
C1983 C 0.48942 0.92915 0.09687 0.0
C1984 C 0.47092 0.93091 0.15741 0.0
C1985 C 0.48156 0.92454 0.02982 0.0
C1986 C 0.46871 0.92337 0.02576 0.0
C1987 C 0.45104 0.92685 0.08265 0.0
C1988 C 0.44609 0.93103 0.14444 0.0
C1989 C 0.46343 0.92685 0.08855 0.0
C1990 C 0.45335 0.93448 0.21372 0.0
C1991 C 0.46561 0.9344 0.22016 0.0
H1992 H 0.56211 0.07967 0.96923 0.0
H1993 H 0.55535 0.0688 0.73073 0.0
H1994 H 0.53416 0.06943 0.73405 0.0
H1995 H 0.51663 0.07113 0.80673 0.0
H1996 H 0.5231 0.08174 0.04549 0.0
H1997 H 0.54535 0.08322 0.0396 0.0
C1998 C 0.5561 0.07759 0.91768 0.0
C1999 C 0.5603 0.07404 0.85005 0.0
C2000 C 0.5438 0.07782 0.92007 0.0
C2001 C 0.55237 0.07147 0.78377 0.0
C2002 C 0.54021 0.07179 0.7856 0.0
C2003 C 0.52294 0.07391 0.8574 0.0
C2004 C 0.5181 0.0762 0.92659 0.0
C2005 C 0.53568 0.07465 0.85381 0.0
C2006 C 0.52651 0.07988 0.99146 0.0
C2007 C 0.53924 0.08069 0.98822 0.0
H2008 H 0.92366 0.44297 0.96422 0.0
H2009 H 0.93705 0.44948 0.7296 0.0
H2010 H 0.93637 0.47065 0.72669 0.0
H2011 H 0.934 0.48836 0.79395 0.0
H2012 H 0.92104 0.48203 0.02936 0.0
H2013 H 0.91942 0.45976 0.02815 0.0
C2014 C 0.92628 0.44892 0.9121 0.0
C2015 C 0.93053 0.44465 0.84751 0.0
C2016 C 0.92604 0.46121 0.91096 0.0
C2017 C 0.9338 0.4525 0.7804 0.0
C2018 C 0.93345 0.46466 0.77866 0.0
C2019 C 0.93065 0.48205 0.84477 0.0
C2020 C 0.92782 0.48701 0.91189 0.0
C2021 C 0.92989 0.46928 0.84412 0.0
C2022 C 0.92341 0.4786 0.97698 0.0
C2023 C 0.9225 0.46583 0.97647 0.0
H2024 H 0.51843 0.44755 0.77407 0.0
H2025 H 0.52126 0.44099 0.01434 0.0
H2026 H 0.54335 0.46189 0.02034 0.0
H2027 H 0.56084 0.48303 0.96025 0.0
H2028 H 0.55778 0.48977 0.72038 0.0
H2029 H 0.53691 0.46769 0.71145 0.0
C2030 C 0.52393 0.45054 0.82755 0.0
C2031 C 0.51806 0.44271 0.89371 0.0
C2032 C 0.53659 0.46267 0.83091 0.0
C2033 C 0.52544 0.44682 0.96248 0.0
C2034 C 0.53809 0.45881 0.96608 0.0
C2035 C 0.55572 0.47963 0.90573 0.0
C2036 C 0.56084 0.48818 0.84136 0.0
C2037 C 0.54361 0.46698 0.90107 0.0
C2038 C 0.55407 0.48349 0.77111 0.0
C2039 C 0.54209 0.47086 0.76591 0.0
H2040 H 0.73783 0.8881 0.54559 0.0
H2041 H 0.74994 0.89827 0.31037 0.0
H2042 H 0.75161 0.87771 0.2967 0.0
H2043 H 0.74767 0.85577 0.34833 0.0
H2044 H 0.7346 0.84541 0.58217 0.0
H2045 H 0.7354 0.86708 0.59933 0.0
C2046 C 0.74103 0.88595 0.49158 0.0
C2047 C 0.74364 0.8947 0.42905 0.0
C2048 C 0.74171 0.87396 0.48353 0.0
C2049 C 0.74778 0.8917 0.3595 0.0
C2050 C 0.7487 0.8799 0.35148 0.0
C2051 C 0.74515 0.85831 0.4033 0.0
C2052 C 0.74106 0.84887 0.46376 0.0
C2053 C 0.74538 0.87078 0.4126 0.0
C2054 C 0.73782 0.8524 0.53453 0.0
C2055 C 0.73822 0.86482 0.54447 0.0
H2056 H 0.11113 0.85447 0.35809 0.0
H2057 H 0.11449 0.84643 0.59552 0.0
H2058 H 0.13542 0.86841 0.60656 0.0
H2059 H 0.15394 0.88892 0.54589 0.0
H2060 H 0.15068 0.89666 0.30779 0.0
H2061 H 0.12853 0.87591 0.3006 0.0
C2062 C 0.11633 0.85756 0.41257 0.0
C2063 C 0.11128 0.84867 0.47552 0.0
C2064 C 0.12847 0.87017 0.41845 0.0
C2065 C 0.11815 0.85298 0.54579 0.0
C2066 C 0.13017 0.86556 0.55222 0.0
C2067 C 0.14832 0.88619 0.49265 0.0
C2068 C 0.15411 0.89431 0.42731 0.0
C2069 C 0.13561 0.87409 0.48845 0.0
C2070 C 0.14658 0.89059 0.35896 0.0
C2071 C 0.13389 0.87868 0.35464 0.0
H2072 H 0.1544 0.26781 0.53923 0.0
H2073 H 0.1517 0.25337 0.3085 0.0
H2074 H 0.12943 0.25146 0.29372 0.0
H2075 H 0.11177 0.25601 0.34134 0.0
H2076 H 0.11457 0.27094 0.57094 0.0
H2077 H 0.13561 0.27041 0.59094 0.0
C2078 C 0.14885 0.26403 0.48614 0.0
C2079 C 0.15484 0.2609 0.42487 0.0
C2080 C 0.13608 0.26316 0.47736 0.0
C2081 C 0.14745 0.256 0.3565 0.0
C2082 C 0.13469 0.25492 0.34782 0.0
C2083 C 0.11687 0.259 0.39611 0.0
C2084 C 0.11164 0.26368 0.45407 0.0
C2085 C 0.12908 0.25883 0.40709 0.0
C2086 C 0.1184 0.26741 0.52488 0.0
C2087 C 0.13046 0.26713 0.53645 0.0
H2088 H 0.12903 0.40109 0.79744 0.0
H2089 H 0.16068 0.392 0.85365 0.0
H2090 H 0.16897 0.39665 0.72204 0.0
H2091 H 0.16639 0.4021 0.58964 0.0
H2092 H 0.13527 0.41209 0.53434 0.0
H2093 H 0.12777 0.40857 0.66706 0.0
C2094 C 0.13777 0.40019 0.78056 0.0
C2095 C 0.14422 0.39616 0.83443 0.0
C2096 C 0.1426 0.40311 0.70524 0.0
C2097 C 0.15562 0.39516 0.8128 0.0
C2098 C 0.16033 0.39779 0.73769 0.0
C2099 C 0.15808 0.40367 0.60682 0.0
C2100 C 0.15134 0.40723 0.55205 0.0
C2101 C 0.15381 0.40164 0.68324 0.0
C2102 C 0.14066 0.40936 0.57533 0.0
C2103 C 0.13629 0.40726 0.65116 0.0
H2104 H 0.60456 0.76657 0.60693 0.0
H2105 H 0.59365 0.72528 0.54919 0.0
H2106 H 0.59686 0.72086 0.68159 0.0
H2107 H 0.60431 0.72924 0.81249 0.0
H2108 H 0.61424 0.77013 0.87131 0.0
H2109 H 0.60994 0.77425 0.7399 0.0
C2110 C 0.60272 0.75655 0.62353 0.0
C2111 C 0.59899 0.74632 0.56816 0.0
C2112 C 0.60456 0.75407 0.69982 0.0
C2113 C 0.59652 0.73335 0.59066 0.0
C2114 C 0.59844 0.73083 0.66631 0.0
C2115 C 0.60546 0.73901 0.79622 0.0
C2116 C 0.60963 0.7494 0.85073 0.0
C2117 C 0.60274 0.7412 0.72102 0.0
C2118 C 0.61097 0.76198 0.82992 0.0
C2119 C 0.60854 0.76434 0.75493 0.0
H2120 H 0.26529 0.84981 0.82448 0.0
H2121 H 0.25036 0.87784 0.79004 0.0
H2122 H 0.25181 0.876 0.65271 0.0
H2123 H 0.25749 0.86682 0.54249 0.0
H2124 H 0.27135 0.83791 0.57291 0.0
H2125 H 0.27001 0.83961 0.71181 0.0
C2126 C 0.26201 0.85523 0.7871 0.0
C2127 C 0.25755 0.86383 0.81796 0.0
C2128 C 0.26282 0.8541 0.70742 0.0
C2129 C 0.25383 0.87115 0.76809 0.0
C2130 C 0.25466 0.87013 0.6894 0.0
C2131 C 0.26031 0.86093 0.57932 0.0
C2132 C 0.26466 0.85236 0.54734 0.0
C2133 C 0.25925 0.86174 0.65851 0.0
C2134 C 0.26804 0.84464 0.5961 0.0
C2135 C 0.26724 0.84559 0.67549 0.0
H2136 H 0.4271 0.16436 0.3871 0.0
H2137 H 0.39071 0.12864 0.46746 0.0
H2138 H 0.38183 0.12333 0.33821 0.0
H2139 H 0.38389 0.12923 0.20386 0.0
H2140 H 0.42171 0.16273 0.11938 0.0
H2141 H 0.43027 0.16871 0.2483 0.0
C2142 C 0.41731 0.15535 0.37585 0.0
C2143 C 0.40959 0.14693 0.43644 0.0
C2144 C 0.41233 0.15215 0.30093 0.0
C2145 C 0.39694 0.13522 0.42153 0.0
C2146 C 0.39177 0.13222 0.34774 0.0
C2147 C 0.39401 0.13788 0.21322 0.0
C2148 C 0.4017 0.14597 0.15137 0.0
C2149 C 0.39931 0.14071 0.28723 0.0
C2150 C 0.41498 0.15686 0.16518 0.0
C2151 C 0.4201 0.16013 0.23936 0.0
H2152 H 0.8441 0.26903 0.43081 0.0
H2153 H 0.86216 0.24502 0.50089 0.0
H2154 H 0.86674 0.24215 0.36909 0.0
H2155 H 0.86692 0.24748 0.23516 0.0
H2156 H 0.85057 0.27273 0.16165 0.0
H2157 H 0.84385 0.274 0.29299 0.0
C2158 C 0.8489 0.26309 0.41666 0.0
C2159 C 0.85292 0.25737 0.47499 0.0
C2160 C 0.8518 0.2617 0.34036 0.0
C2161 C 0.85918 0.2497 0.45668 0.0
C2162 C 0.86177 0.24801 0.38144 0.0
C2163 C 0.86178 0.25317 0.24801 0.0
C2164 C 0.85896 0.25975 0.18942 0.0
C2165 C 0.85835 0.25415 0.32312 0.0
C2166 C 0.85243 0.26721 0.20609 0.0
C2167 C 0.84873 0.26807 0.28112 0.0
H2168 H 0.7321 0.59618 0.39565 0.0
H2169 H 0.76875 0.59357 0.38018 0.0
H2170 H 0.76914 0.59645 0.24206 0.0
H2171 H 0.76017 0.60165 0.12675 0.0
H2172 H 0.72399 0.60506 0.14318 0.0
H2173 H 0.72242 0.6001 0.27943 0.0
C2174 C 0.74005 0.59602 0.36196 0.0
C2175 C 0.75039 0.59469 0.39841 0.0
C2176 C 0.7404 0.598 0.28256 0.0
C2177 C 0.76068 0.59462 0.35375 0.0
C2178 C 0.76094 0.59631 0.27466 0.0
C2179 C 0.75177 0.60099 0.15973 0.0
C2180 C 0.74214 0.6036 0.12453 0.0
C2181 C 0.75101 0.59828 0.23854 0.0
C2182 C 0.73156 0.60312 0.16886 0.0
C2183 C 0.73063 0.60025 0.24682 0.0
H2184 H 0.86837 0.59851 0.46496 0.0
H2185 H 0.83069 0.59921 0.44899 0.0
H2186 H 0.83306 0.60139 0.31056 0.0
H2187 H 0.84684 0.60507 0.19506 0.0
H2188 H 0.88487 0.60515 0.21201 0.0
H2189 H 0.88142 0.60082 0.34884 0.0
C2190 C 0.86057 0.59894 0.43116 0.0
C2191 C 0.84941 0.59876 0.46746 0.0
C2192 C 0.86214 0.60048 0.35165 0.0
C2193 C 0.83944 0.5994 0.42265 0.0
C2194 C 0.84079 0.60067 0.3434 0.0
C2195 C 0.8542 0.60381 0.22835 0.0
C2196 C 0.86603 0.6053 0.19327 0.0
C2197 C 0.85224 0.6015 0.30737 0.0
C2198 C 0.87568 0.60406 0.23775 0.0
C2199 C 0.87371 0.60157 0.31598 0.0
H2200 H 0.39213 0.25482 0.44483 0.0
H2201 H 0.43477 0.26819 0.41272 0.0
H2202 H 0.43197 0.2687 0.27422 0.0
H2203 H 0.41734 0.26573 0.16286 0.0
H2204 H 0.37444 0.25112 0.1982 0.0
H2205 H 0.37753 0.25097 0.33509 0.0
C2206 C 0.40086 0.25791 0.40774 0.0
C2207 C 0.41366 0.26156 0.43917 0.0
C2208 C 0.39913 0.25796 0.32866 0.0
C2209 C 0.4248 0.26535 0.39 0.0
C2210 C 0.4232 0.26564 0.31083 0.0
C2211 C 0.40858 0.26217 0.19998 0.0
C2212 C 0.39561 0.25824 0.1694 0.0
C2213 C 0.41038 0.26193 0.27943 0.0
C2214 C 0.38455 0.25421 0.21963 0.0
C2215 C 0.38628 0.25409 0.29817 0.0
H2216 H 0.75921 0.16005 0.12791 0.0
H2217 H 0.72879 0.11747 0.14675 0.0
H2218 H 0.72623 0.1203 0.28252 0.0
H2219 H 0.73366 0.1345 0.39806 0.0
H2220 H 0.76468 0.17691 0.3803 0.0
H2221 H 0.76569 0.1746 0.24239 0.0
C2222 C 0.75179 0.15147 0.16124 0.0
C2223 C 0.74412 0.13859 0.12674 0.0
C2224 C 0.75048 0.15313 0.23993 0.0
C2225 C 0.73486 0.1275 0.17173 0.0
C2226 C 0.73336 0.12911 0.24949 0.0
C2227 C 0.74047 0.1433 0.36388 0.0
C2228 C 0.74909 0.15585 0.39974 0.0
C2229 C 0.74125 0.14183 0.28455 0.0
C2230 C 0.75795 0.1671 0.35441 0.0
C2231 C 0.75857 0.16579 0.2754 0.0
H2232 H 0.60309 0.84479 0.84683 0.0
H2233 H 0.60446 0.8835 0.83459 0.0
H2234 H 0.60019 0.88061 0.69759 0.0
H2235 H 0.59774 0.8679 0.57995 0.0
H2236 H 0.59717 0.82954 0.59141 0.0
H2237 H 0.59911 0.83131 0.73001 0.0
C2238 C 0.60211 0.85242 0.81452 0.0
C2239 C 0.60397 0.86428 0.85086 0.0
C2240 C 0.59985 0.85078 0.73545 0.0
C2241 C 0.60309 0.87428 0.80775 0.0
C2242 C 0.60063 0.87264 0.72945 0.0
C2243 C 0.59783 0.85983 0.61283 0.0
C2244 C 0.5974 0.84866 0.57529 0.0
C2245 C 0.59924 0.86105 0.69244 0.0
C2246 C 0.59758 0.83831 0.61881 0.0
C2247 C 0.59872 0.83932 0.69813 0.0
H2248 H 0.16912 0.76349 0.56949 0.0
H2249 H 0.13278 0.72599 0.50755 0.0
H2250 H 0.12545 0.72211 0.64013 0.0
H2251 H 0.12826 0.73043 0.7718 0.0
H2252 H 0.16468 0.76756 0.83504 0.0
H2253 H 0.17311 0.77053 0.70393 0.0
C2254 C 0.15969 0.75438 0.58517 0.0
C2255 C 0.15142 0.74518 0.52855 0.0
C2256 C 0.15548 0.75221 0.66161 0.0
C2257 C 0.13931 0.73331 0.54989 0.0
C2258 C 0.13506 0.7311 0.62569 0.0
C2259 C 0.13809 0.73909 0.75665 0.0
C2260 C 0.14585 0.74878 0.81215 0.0
C2261 C 0.14287 0.74066 0.68159 0.0
C2262 C 0.15862 0.75992 0.79286 0.0
C2263 C 0.1634 0.76165 0.718 0.0
H2264 H 0.24601 0.40314 0.84524 0.0
H2265 H 0.28248 0.40018 0.83146 0.0
H2266 H 0.28381 0.40441 0.69443 0.0
H2267 H 0.27373 0.4073 0.57729 0.0
H2268 H 0.23687 0.40959 0.59033 0.0
H2269 H 0.2368 0.40765 0.72893 0.0
C2270 C 0.25444 0.40378 0.81265 0.0
C2271 C 0.26419 0.40147 0.84859 0.0
C2272 C 0.25506 0.40605 0.73357 0.0
C2273 C 0.27482 0.4019 0.80499 0.0
C2274 C 0.27561 0.40433 0.72666 0.0
C2275 C 0.26579 0.40758 0.61049 0.0
C2276 C 0.25527 0.40849 0.5734 0.0
C2277 C 0.26565 0.40618 0.6901 0.0
C2278 C 0.24504 0.4088 0.61736 0.0
C2279 C 0.24497 0.40766 0.69669 0.0
H2280 H 0.80303 0.73782 0.91598 0.0
H2281 H 0.84438 0.74593 0.93819 0.0
H2282 H 0.84165 0.74326 0.07638 0.0
H2283 H 0.82687 0.73669 0.19014 0.0
H2284 H 0.78526 0.72763 0.16662 0.0
H2285 H 0.78871 0.7325 0.03026 0.0
C2286 C 0.81152 0.73921 0.95109 0.0
C2287 C 0.82389 0.74205 0.91648 0.0
C2288 C 0.80978 0.73735 0.03055 0.0
C2289 C 0.83473 0.7437 0.96309 0.0
C2290 C 0.83317 0.74214 0.04227 0.0
C2291 C 0.81867 0.73611 0.15556 0.0
C2292 C 0.80586 0.73193 0.18883 0.0
C2293 C 0.82066 0.7387 0.07658 0.0
C2294 C 0.79521 0.73081 0.14248 0.0
C2295 C 0.79718 0.73361 0.06442 0.0
H2296 H 0.24912 0.0821 0.97994 0.0
H2297 H 0.27588 0.0677 0.90233 0.0
H2298 H 0.28391 0.06852 0.03188 0.0
H2299 H 0.284 0.07408 0.16577 0.0
H2300 H 0.25479 0.08504 0.24765 0.0
H2301 H 0.24744 0.08527 0.11804 0.0
C2302 C 0.25659 0.07901 0.99184 0.0
C2303 C 0.2619 0.07487 0.93197 0.0
C2304 C 0.26102 0.07926 0.06685 0.0
C2305 C 0.27152 0.0708 0.94772 0.0
C2306 C 0.27623 0.07138 0.02164 0.0
C2307 C 0.27605 0.07658 0.15554 0.0
C2308 C 0.27061 0.08036 0.21655 0.0
C2309 C 0.27116 0.07575 0.08141 0.0
C2310 C 0.26 0.08312 0.20201 0.0
C2311 C 0.25548 0.0829 0.12767 0.0
H2312 H 0.92522 0.16997 0.95804 0.0
H2313 H 0.93699 0.21094 0.88608 0.0
H2314 H 0.93581 0.2173 0.01647 0.0
H2315 H 0.93058 0.21118 0.14922 0.0
H2316 H 0.92202 0.17146 0.2266 0.0
H2317 H 0.92229 0.16454 0.09568 0.0
C2318 C 0.92764 0.1803 0.97127 0.0
C2319 C 0.93108 0.1899 0.91257 0.0
C2320 C 0.92714 0.18403 0.0469 0.0
C2321 C 0.93435 0.20333 0.93025 0.0
C2322 C 0.93358 0.20699 0.00475 0.0
C2323 C 0.92873 0.20098 0.13773 0.0
C2324 C 0.92555 0.19166 0.19754 0.0
C2325 C 0.92981 0.19738 0.06318 0.0
C2326 C 0.92355 0.1786 0.1816 0.0
C2327 C 0.92405 0.17471 0.10664 0.0
H2328 H 0.09444 0.4913 0.7286 0.0
H2329 H 0.05285 0.47709 0.79732 0.0
H2330 H 0.04536 0.47247 0.66549 0.0
H2331 H 0.0502 0.47108 0.53219 0.0
H2332 H 0.09116 0.48345 0.46057 0.0
H2333 H 0.09941 0.49034 0.59138 0.0
C2334 C 0.0838 0.48735 0.71412 0.0
C2335 C 0.07419 0.48443 0.77211 0.0
C2336 C 0.07946 0.48439 0.63788 0.0
C2337 C 0.0604 0.47924 0.75337 0.0
C2338 C 0.05609 0.47662 0.67812 0.0
C2339 C 0.06095 0.47538 0.54529 0.0
C2340 C 0.07012 0.47705 0.48725 0.0
C2341 C 0.06547 0.47891 0.62024 0.0
C2342 C 0.084 0.48251 0.50438 0.0
C2343 C 0.08868 0.4863 0.57918 0.0
H2344 H 0.50282 0.57426 0.74741 0.0
H2345 H 0.53952 0.61157 0.80756 0.0
H2346 H 0.54666 0.61524 0.67465 0.0
H2347 H 0.54359 0.60674 0.54337 0.0
H2348 H 0.50689 0.56973 0.48203 0.0
H2349 H 0.4986 0.56705 0.61331 0.0
C2350 C 0.51228 0.58329 0.73128 0.0
C2351 C 0.52071 0.59248 0.78747 0.0
C2352 C 0.51639 0.58533 0.6547 0.0
C2353 C 0.53287 0.60424 0.76556 0.0
C2354 C 0.53702 0.60634 0.68957 0.0
C2355 C 0.53374 0.59817 0.55895 0.0
C2356 C 0.52585 0.58843 0.50394 0.0
C2357 C 0.52905 0.59675 0.63412 0.0
C2358 C 0.51304 0.57741 0.5238 0.0
C2359 C 0.50835 0.57585 0.59876 0.0
H2360 H 0.40669 0.921 0.51627 0.0
H2361 H 0.42032 0.96352 0.55849 0.0
H2362 H 0.41957 0.95958 0.69494 0.0
H2363 H 0.41532 0.94437 0.80282 0.0
H2364 H 0.40313 0.90218 0.76351 0.0
H2365 H 0.4033 0.90579 0.62547 0.0
C2366 C 0.40986 0.92951 0.5547 0.0
C2367 C 0.41379 0.94263 0.52592 0.0
C2368 C 0.40959 0.92724 0.63407 0.0
C2369 C 0.41726 0.95331 0.57819 0.0
C2370 C 0.41686 0.9511 0.65662 0.0
C2371 C 0.41261 0.9359 0.76424 0.0
C2372 C 0.40911 0.92298 0.7937 0.0
C2373 C 0.41302 0.93812 0.68522 0.0
C2374 C 0.40583 0.91222 0.7425 0.0
C2375 C 0.40595 0.91429 0.66351 0.0
H2376 H 0.53989 0.93644 0.76248 0.0
H2377 H 0.49611 0.91731 0.74404 0.0
H2378 H 0.49802 0.92045 0.60594 0.0
H2379 H 0.51227 0.93056 0.49157 0.0
H2380 H 0.55604 0.94996 0.51144 0.0
H2381 H 0.55395 0.94489 0.64739 0.0
C2382 C 0.53074 0.93278 0.72828 0.0
C2383 C 0.51789 0.92674 0.764 0.0
C2384 C 0.5319 0.93481 0.64887 0.0
C2385 C 0.50616 0.92206 0.71838 0.0
C2386 C 0.50723 0.92389 0.63923 0.0
C2387 C 0.52133 0.93336 0.52509 0.0
C2388 C 0.53429 0.94057 0.49091 0.0
C2389 C 0.52007 0.93052 0.60392 0.0
C2390 C 0.54593 0.94446 0.53618 0.0
C2391 C 0.54475 0.94155 0.61407 0.0
H2392 H 0.07113 0.60777 0.47829 0.0
H2393 H 0.06285 0.56708 0.42786 0.0
H2394 H 0.06743 0.564 0.56067 0.0
H2395 H 0.07222 0.5724 0.69239 0.0
H2396 H 0.08088 0.61334 0.74194 0.0
H2397 H 0.07799 0.61692 0.60777 0.0
C2398 C 0.07041 0.59828 0.49665 0.0
C2399 C 0.06663 0.58764 0.44428 0.0
C2400 C 0.07316 0.59666 0.57256 0.0
C2401 C 0.06584 0.57542 0.46767 0.0
C2402 C 0.06841 0.57365 0.54342 0.0
C2403 C 0.07364 0.58216 0.67368 0.0
C2404 C 0.07658 0.59251 0.72714 0.0
C2405 C 0.07189 0.58414 0.59655 0.0
C2406 C 0.07856 0.60517 0.70196 0.0
C2407 C 0.07683 0.60721 0.62532 0.0
H2408 H 0.42412 0.47078 0.529 0.0
H2409 H 0.4022 0.49049 0.44949 0.0
H2410 H 0.39965 0.49614 0.5802 0.0
H2411 H 0.40255 0.49423 0.71927 0.0
H2412 H 0.42219 0.47202 0.79507 0.0
H2413 H 0.42651 0.4684 0.66394 0.0
C2414 C 0.4188 0.47635 0.53997 0.0
C2415 C 0.41369 0.48049 0.47917 0.0
C2416 C 0.41679 0.47896 0.61506 0.0
C2417 C 0.40677 0.48764 0.49459 0.0
C2418 C 0.40509 0.49069 0.56969 0.0
C2419 C 0.40778 0.48865 0.70649 0.0
C2420 C 0.41194 0.48329 0.76602 0.0
C2421 C 0.40994 0.48627 0.63053 0.0
C2422 C 0.41871 0.47604 0.74968 0.0
C2423 C 0.42125 0.47402 0.6749 0.0
H2424 H 0.28745 0.20184 0.11356 0.0
H2425 H 0.24572 0.17895 0.1902 0.0
H2426 H 0.23803 0.17196 0.05927 0.0
H2427 H 0.24327 0.17335 0.92112 0.0
H2428 H 0.28508 0.19805 0.84759 0.0
H2429 H 0.29263 0.20342 0.97896 0.0
C2430 C 0.27667 0.19531 0.10162 0.0
C2431 C 0.26722 0.19066 0.16129 0.0
C2432 C 0.27233 0.19173 0.02659 0.0
C2433 C 0.25327 0.18226 0.14534 0.0
C2434 C 0.24884 0.17839 0.07039 0.0
C2435 C 0.254 0.17982 0.93445 0.0
C2436 C 0.26359 0.18539 0.87548 0.0
C2437 C 0.25829 0.18315 0.0104 0.0
C2438 C 0.2775 0.19381 0.89252 0.0
C2439 C 0.28185 0.19686 0.96744 0.0
H2440 H 0.83729 0.09626 0.91891 0.0
H2441 H 0.8004 0.0588 0.86412 0.0
H2442 H 0.79331 0.05607 0.99739 0.0
H2443 H 0.79668 0.06535 0.1276 0.0
H2444 H 0.83379 0.10239 0.18323 0.0
H2445 H 0.84172 0.1043 0.05156 0.0
C2446 C 0.82779 0.08741 0.93632 0.0
C2447 C 0.81933 0.07784 0.88153 0.0
C2448 C 0.82375 0.08591 0.01302 0.0
C2449 C 0.80711 0.06634 0.9051 0.0
C2450 C 0.80299 0.0648 0.98124 0.0
C2451 C 0.80653 0.07377 0.11068 0.0
C2452 C 0.81464 0.08374 0.16435 0.0
C2453 C 0.81107 0.0747 0.03527 0.0
C2454 C 0.82745 0.09455 0.14263 0.0
C2455 C 0.83195 0.09567 0.06743 0.0
H2456 H 0.92733 0.75791 0.95768 0.0
H2457 H 0.93333 0.72469 0.88715 0.0
H2458 H 0.93189 0.71739 0.01808 0.0
H2459 H 0.92819 0.71978 0.15118 0.0
H2460 H 0.92519 0.75442 0.22729 0.0
H2461 H 0.92572 0.76154 0.09553 0.0
C2462 C 0.92843 0.74916 0.97134 0.0
C2463 C 0.93035 0.74184 0.91291 0.0
C2464 C 0.92778 0.74505 0.04736 0.0
C2465 C 0.93189 0.73057 0.93108 0.0
C2466 C 0.93097 0.72629 0.00593 0.0
C2467 C 0.92763 0.72889 0.13916 0.0
C2468 C 0.92599 0.73615 0.19871 0.0
C2469 C 0.92877 0.73336 0.06419 0.0
C2470 C 0.92558 0.74811 0.18232 0.0
C2471 C 0.9262 0.75238 0.10697 0.0
H2472 H 0.46254 0.06577 0.50854 0.0
H2473 H 0.49928 0.06503 0.56272 0.0
H2474 H 0.50719 0.07109 0.43101 0.0
H2475 H 0.50285 0.07503 0.2987 0.0
H2476 H 0.46637 0.07645 0.24526 0.0
H2477 H 0.45928 0.07196 0.37861 0.0
C2478 C 0.47231 0.06703 0.49131 0.0
C2479 C 0.48032 0.06493 0.54467 0.0
C2480 C 0.47684 0.07067 0.41584 0.0
C2481 C 0.49302 0.0667 0.52245 0.0
C2482 C 0.4975 0.07012 0.4472 0.0
C2483 C 0.49344 0.07454 0.31643 0.0
C2484 C 0.48509 0.07594 0.26196 0.0
C2485 C 0.48941 0.07194 0.39317 0.0
C2486 C 0.473 0.07542 0.28597 0.0
C2487 C 0.46888 0.07275 0.36216 0.0
H2488 H 0.93748 0.39754 0.42851 0.0
H2489 H 0.94068 0.43609 0.4846 0.0
H2490 H 0.93539 0.43879 0.35261 0.0
H2491 H 0.93166 0.43095 0.21963 0.0
H2492 H 0.92805 0.39209 0.16459 0.0
H2493 H 0.93143 0.38861 0.29813 0.0
C2494 C 0.9369 0.40646 0.41161 0.0
C2495 C 0.93948 0.41663 0.46535 0.0
C2496 C 0.93377 0.40787 0.3361 0.0
C2497 C 0.93861 0.4281 0.44379 0.0
C2498 C 0.93565 0.42967 0.36846 0.0
C2499 C 0.93143 0.42164 0.23702 0.0
C2500 C 0.92981 0.4119 0.18212 0.0
C2501 C 0.93344 0.41971 0.31387 0.0
C2502 C 0.92936 0.3998 0.20563 0.0
C2503 C 0.93136 0.39782 0.28194 0.0
H2504 H 0.60449 0.53641 0.19112 0.0
H2505 H 0.57212 0.49459 0.2124 0.0
H2506 H 0.57211 0.49712 0.35065 0.0
H2507 H 0.57988 0.51183 0.46462 0.0
H2508 H 0.61164 0.55385 0.44206 0.0
H2509 H 0.61322 0.55064 0.30564 0.0
C2510 C 0.59756 0.52778 0.22601 0.0
C2511 C 0.58828 0.51535 0.19114 0.0
C2512 C 0.5974 0.52938 0.30549 0.0
C2513 C 0.57934 0.50431 0.23749 0.0
C2514 C 0.5793 0.50575 0.3167 0.0
C2515 C 0.58738 0.52018 0.43025 0.0
C2516 C 0.59571 0.53303 0.46374 0.0
C2517 C 0.58809 0.51832 0.35127 0.0
C2518 C 0.60508 0.54385 0.4177 0.0
C2519 C 0.60601 0.54203 0.33962 0.0
H2520 H 0.73515 0.83156 0.07843 0.0
H2521 H 0.7457 0.80081 0.13306 0.0
H2522 H 0.74221 0.79334 0.00032 0.0
H2523 H 0.73463 0.79453 0.8701 0.0
H2524 H 0.72495 0.8258 0.81469 0.0
H2525 H 0.72955 0.83406 0.9463 0.0
C2526 C 0.73685 0.82334 0.0611 0.0
C2527 C 0.74056 0.81669 0.11567 0.0
C2528 C 0.73482 0.81909 0.9847 0.0
C2529 C 0.74285 0.80613 0.09221 0.0
C2530 C 0.74076 0.80177 0.01638 0.0
C2531 C 0.73358 0.80317 0.88717 0.0
C2532 C 0.72941 0.80954 0.83352 0.0
C2533 C 0.73647 0.80799 0.9625 0.0
C2534 C 0.72822 0.82082 0.85536 0.0
C2535 C 0.73082 0.82551 0.93048 0.0
H2536 H 0.184 0.93206 0.82108 0.0
H2537 H 0.21184 0.91689 0.85532 0.0
H2538 H 0.20951 0.91773 0.99249 0.0
H2539 H 0.1998 0.92275 0.10276 0.0
H2540 H 0.17088 0.93659 0.07239 0.0
H2541 H 0.17323 0.93607 0.93346 0.0
C2542 C 0.18927 0.92859 0.85818 0.0
C2543 C 0.19795 0.92424 0.82724 0.0
C2544 C 0.18778 0.92895 0.93783 0.0
C2545 C 0.20509 0.9203 0.87714 0.0
C2546 C 0.20378 0.92076 0.95582 0.0
C2547 C 0.19405 0.92574 0.06593 0.0
C2548 C 0.18529 0.92984 0.09788 0.0
C2549 C 0.19523 0.92514 0.98673 0.0
C2550 C 0.17774 0.93344 0.04916 0.0
C2551 C 0.17907 0.93313 0.96978 0.0
H2552 H 0.06369 0.24048 0.04105 0.0
H2553 H 0.09046 0.28127 0.12473 0.0
H2554 H 0.09329 0.29037 0.99668 0.0
H2555 H 0.0881 0.28703 0.86147 0.0
H2556 H 0.06042 0.24676 0.77561 0.0
H2557 H 0.05815 0.23721 0.90313 0.0
C2558 C 0.07018 0.25132 0.03091 0.0
C2559 C 0.07681 0.26015 0.09236 0.0
C2560 C 0.07167 0.25662 0.95665 0.0
C2561 C 0.08514 0.27422 0.07859 0.0
C2562 C 0.08681 0.27948 0.00529 0.0
C2563 C 0.08155 0.27616 0.87059 0.0
C2564 C 0.07475 0.26761 0.80874 0.0
C2565 C 0.08007 0.2708 0.94409 0.0
C2566 C 0.06623 0.25354 0.82154 0.0
C2567 C 0.06478 0.24808 0.8948 0.0
H2568 H 0.1847 0.25374 0.8253 0.0
H2569 H 0.21261 0.29684 0.85584 0.0
H2570 H 0.21048 0.29404 0.99332 0.0
H2571 H 0.20105 0.27958 0.10473 0.0
H2572 H 0.17221 0.23668 0.07827 0.0
H2573 H 0.1742 0.23921 0.93908 0.0
C2574 C 0.19003 0.26257 0.86178 0.0
C2575 C 0.19868 0.27552 0.82983 0.0
C2576 C 0.1887 0.26092 0.94154 0.0
C2577 C 0.20589 0.28675 0.87863 0.0
C2578 C 0.20469 0.28518 0.95742 0.0
C2579 C 0.19523 0.27073 0.0687 0.0
C2580 C 0.18661 0.25793 0.10177 0.0
C2581 C 0.19623 0.27232 0.98941 0.0
C2582 C 0.17897 0.24664 0.05412 0.0
C2583 C 0.18009 0.2481 0.97461 0.0
H2584 H 0.75061 0.93081 0.83313 0.0
H2585 H 0.70767 0.91612 0.86577 0.0
H2586 H 0.71079 0.91758 0.00322 0.0
H2587 H 0.72552 0.92327 0.11398 0.0
H2588 H 0.76829 0.93694 0.0855 0.0
H2589 H 0.76541 0.93552 0.94648 0.0
C2590 C 0.74188 0.92759 0.87019 0.0
C2591 C 0.72888 0.9232 0.83882 0.0
C2592 C 0.74373 0.92842 0.94992 0.0
C2593 C 0.71779 0.91953 0.88818 0.0
C2594 C 0.71955 0.92038 0.96692 0.0
C2595 C 0.73427 0.92604 0.07754 0.0
C2596 C 0.74713 0.93036 0.11007 0.0
C2597 C 0.73247 0.92493 -0.00167 0.0
C2598 C 0.75828 0.93366 0.06185 0.0
C2599 C 0.75662 0.93281 0.98241 0.0
H2600 H 0.07192 0.81838 0.84847 0.0
H2601 H 0.0859 0.78962 0.88499 0.0
H2602 H 0.08611 0.793 0.02175 0.0
H2603 H 0.08255 0.80405 0.1311 0.0
H2604 H 0.06989 0.83383 0.09758 0.0
H2605 H 0.06925 0.83034 0.95927 0.0
C2606 C 0.07537 0.81312 0.88575 0.0
C2607 C 0.07911 0.80391 0.85548 0.0
C2608 C 0.07566 0.81524 0.96513 0.0
C2609 C 0.08296 0.79677 0.90608 0.0
C2610 C 0.08312 0.79871 0.98458 0.0
C2611 C 0.07959 0.80977 0.09374 0.0
C2612 C 0.07618 0.81913 0.12476 0.0
C2613 C 0.07947 0.80788 0.0147 0.0
C2614 C 0.07255 0.82655 0.07521 0.0
C2615 C 0.07218 0.82455 0.99613 0.0
H2616 H 0.93405 0.53636 0.25546 0.0
H2617 H 0.91952 0.49326 0.27653 0.0
H2618 H 0.92242 0.49561 0.41467 0.0
H2619 H 0.93106 0.51029 0.52849 0.0
H2620 H 0.9462 0.55347 0.50612 0.0
H2621 H 0.94119 0.55071 0.36995 0.0
C2622 C 0.93132 0.52743 0.29028 0.0
C2623 C 0.92664 0.51467 0.25532 0.0
C2624 C 0.93327 0.5289 0.36971 0.0
C2625 C 0.92321 0.50323 0.30164 0.0
C2626 C 0.9249 0.50457 0.3808 0.0
C2627 C 0.93294 0.51903 0.4943 0.0
C2628 C 0.93891 0.53206 0.52782 0.0
C2629 C 0.93019 0.5174 0.4154 0.0
C2630 C 0.94165 0.54333 0.48183 0.0
C2631 C 0.93877 0.54177 0.40386 0.0
H2632 H 0.46826 0.41802 0.45323 0.0
H2633 H 0.49466 0.40316 0.52917 0.0
H2634 H 0.50145 0.40256 0.39725 0.0
H2635 H 0.49881 0.40523 0.25891 0.0
H2636 H 0.47056 0.41816 0.1868 0.0
H2637 H 0.46546 0.42044 0.31846 0.0
C2638 C 0.47556 0.41473 0.4408 0.0
C2639 C 0.48125 0.41102 0.50025 0.0
C2640 C 0.47897 0.41393 0.36546 0.0
C2641 C 0.49057 0.40659 0.48402 0.0
C2642 C 0.4943 0.40607 0.40869 0.0
C2643 C 0.4916 0.40859 0.27256 0.0
C2644 C 0.48497 0.41139 0.21386 0.0
C2645 C 0.48846 0.40961 0.34879 0.0
C2646 C 0.47562 0.41572 0.23142 0.0
C2647 C 0.47273 0.4171 0.30655 0.0
H2648 H 0.57664 0.07666 0.21113 0.0
H2649 H 0.61319 0.07529 0.15819 0.0
H2650 H 0.61584 0.0714 0.29219 0.0
H2651 H 0.60652 0.0661 0.42196 0.0
H2652 H 0.57006 0.06742 0.4755 0.0
H2653 H 0.56863 0.07367 0.3436 0.0
C2654 C 0.5853 0.07571 0.22903 0.0
C2655 C 0.59457 0.07604 0.17457 0.0
C2656 C 0.58669 0.07333 0.30608 0.0
C2657 C 0.60583 0.07496 0.19883 0.0
C2658 C 0.60733 0.07267 0.27541 0.0
C2659 C 0.59834 0.06787 0.40461 0.0
C2660 C 0.58839 0.06629 0.45767 0.0
C2661 C 0.5976 0.07143 0.32903 0.0
C2662 C 0.57789 0.06872 0.4354 0.0
C2663 C 0.57704 0.07221 0.36005 0.0
loop_
_geom_bond_atom_site_label_1
_geom_bond_atom_site_label_2
_geom_bond_distance
_geom_bond_site_symmetry_2
_ccdc_geom_bond_type
Co0 O3 1.970 . S
Co0 N17 1.989 . S
Co0 O25 1.967 . S
Co0 O32 1.920 . S
Co1 O4 1.966 . S
Co1 N10 2.022 . S
Co1 N18 1.993 . S
Co1 O26 1.941 . S
C2 O3 1.258 . S
C2 O4 1.263 . S
O3 Co0 1.970 . S
O3 C2 1.258 . S
O4 Co1 1.966 . S
O4 C2 1.263 . S
C5 O6 1.235 . S
C5 O32 1.289 . S
O6 C5 1.235 . S
C7 C9 1.400 . S
C7 N10 1.351 1_556 S
C7 C12 1.501 . S
C8 C9 1.387 . S
C8 N11 1.341 . S
C9 C7 1.400 . S
C9 C8 1.387 . S
N10 Co1 2.022 . S
N10 C7 1.351 1_554 S
N10 N11 1.365 1_554 S
N11 C8 1.341 . S
N11 N10 1.365 1_556 S
N11 H31 0.862 1_556 S
C12 C7 1.501 . S
C12 H13 0.961 1_556 S
C12 H14 0.961 . S
C12 H15 0.960 . S
H13 C12 0.961 1_554 S
H14 C12 0.961 . S
H15 C12 0.960 . S
C16 N17 1.342 . S
C16 C20 1.401 . S
C16 C21 1.499 . S
N17 Co0 1.989 . S
N17 C16 1.342 . S
N17 N18 1.388 . S
N18 Co1 1.993 . S
N18 N17 1.388 . S
N18 C19 1.346 . S
C19 N18 1.346 . S
C19 C20 1.396 . S
C19 C29 1.510 . S
C20 C16 1.401 . S
C20 C19 1.396 . S
C21 C16 1.499 . S
C21 H22 0.959 . S
C21 H23 0.960 . S
C21 H24 0.961 . S
H22 C21 0.959 . S
H23 C21 0.960 . S
H24 C21 0.961 . S
O25 Co0 1.967 . S
O25 C33 1.258 . S
O26 Co1 1.941 . S
O26 C33 1.266 . S
H27 C29 0.959 . S
H28 C29 0.961 . S
C29 C19 1.510 . S
C29 H27 0.959 . S
C29 H28 0.961 . S
C29 H30 0.960 . S
H30 C29 0.960 . S
H31 N11 0.862 1_554 S
O32 Co0 1.920 . S
O32 C5 1.289 . S
C33 O25 1.258 . S
C33 O26 1.266 . S
Co34 O37 1.970 . S
Co34 N51 1.989 . S
Co34 O59 1.967 . S
Co34 O66 1.920 . S
Co35 O38 1.966 . S
Co35 N44 2.022 . S
Co35 N52 1.993 . S
Co35 O60 1.941 . S
C36 O37 1.258 . S
C36 O38 1.263 . S
O37 Co34 1.970 . S
O37 C36 1.258 . S
O38 Co35 1.966 . S
O38 C36 1.263 . S
C39 O40 1.235 . S
C39 O66 1.289 . S
O40 C39 1.235 . S
C41 C43 1.400 . S
C41 N44 1.351 1_556 S
C41 C46 1.501 . S
C42 C43 1.387 . S
C42 N45 1.341 . S
C43 C41 1.400 . S
C43 C42 1.387 . S
N44 Co35 2.022 . S
N44 C41 1.351 1_554 S
N44 N45 1.365 1_554 S
N45 C42 1.341 . S
N45 N44 1.365 1_556 S
N45 H65 0.862 1_556 S
C46 C41 1.501 . S
C46 H47 0.961 1_556 S
C46 H48 0.961 . S
C46 H49 0.960 . S
H47 C46 0.961 1_554 S
H48 C46 0.961 . S
H49 C46 0.960 . S
C50 N51 1.342 . S
C50 C54 1.401 . S
C50 C55 1.499 . S
N51 Co34 1.989 . S
N51 C50 1.342 . S
N51 N52 1.388 . S
N52 Co35 1.993 . S
N52 N51 1.388 . S
N52 C53 1.346 . S
C53 N52 1.346 . S
C53 C54 1.396 . S
C53 C63 1.510 . S
C54 C50 1.401 . S
C54 C53 1.396 . S
C55 C50 1.499 . S
C55 H56 0.959 . S
C55 H57 0.960 . S
C55 H58 0.961 . S
H56 C55 0.959 . S
H57 C55 0.960 . S
H58 C55 0.961 . S
O59 Co34 1.967 . S
O59 C67 1.258 . S
O60 Co35 1.941 . S
O60 C67 1.266 . S
H61 C63 0.959 . S
H62 C63 0.961 . S
C63 C53 1.510 . S
C63 H61 0.959 . S
C63 H62 0.961 . S
C63 H64 0.960 . S
H64 C63 0.960 . S
H65 N45 0.862 1_554 S
O66 Co34 1.920 . S
O66 C39 1.289 . S
C67 O59 1.258 . S
C67 O60 1.266 . S
Co68 O71 1.970 . S
Co68 N85 1.989 . S
Co68 O93 1.967 . S
Co68 O100 1.920 . S
Co69 O72 1.966 . S
Co69 N78 2.022 . S
Co69 N86 1.993 . S
Co69 O94 1.941 . S
C70 O71 1.258 . S
C70 O72 1.263 . S
O71 Co68 1.970 . S
O71 C70 1.258 . S
O72 Co69 1.966 . S
O72 C70 1.263 . S
C73 O74 1.235 . S
C73 O100 1.289 . S
O74 C73 1.235 . S
C75 C77 1.400 . S
C75 N78 1.351 1_556 S
C75 C80 1.501 . S
C76 C77 1.387 . S
C76 N79 1.341 . S
C77 C75 1.400 . S
C77 C76 1.387 . S
N78 Co69 2.022 . S
N78 C75 1.351 1_554 S
N78 N79 1.365 1_554 S
N79 C76 1.341 . S
N79 N78 1.365 1_556 S
N79 H99 0.862 1_556 S
C80 C75 1.501 . S
C80 H81 0.961 1_556 S
C80 H82 0.961 . S
C80 H83 0.960 . S
H81 C80 0.961 1_554 S
H82 C80 0.961 . S
H83 C80 0.960 . S
C84 N85 1.342 . S
C84 C88 1.401 . S
C84 C89 1.499 . S
N85 Co68 1.989 . S
N85 C84 1.342 . S
N85 N86 1.388 . S
N86 Co69 1.993 . S
N86 N85 1.388 . S
N86 C87 1.346 . S
C87 N86 1.346 . S
C87 C88 1.396 . S
C87 C97 1.510 . S
C88 C84 1.401 . S
C88 C87 1.396 . S
C89 C84 1.499 . S
C89 H90 0.959 . S
C89 H91 0.960 . S
C89 H92 0.961 . S
H90 C89 0.959 . S
H91 C89 0.960 . S
H92 C89 0.961 . S
O93 Co68 1.967 . S
O93 C101 1.258 . S
O94 Co69 1.941 . S
O94 C101 1.266 . S
H95 C97 0.959 . S
H96 C97 0.961 . S
C97 C87 1.510 . S
C97 H95 0.959 . S
C97 H96 0.961 . S
C97 H98 0.960 . S
H98 C97 0.960 . S
H99 N79 0.862 1_554 S
O100 Co68 1.920 . S
O100 C73 1.289 . S
C101 O93 1.258 . S
C101 O94 1.266 . S
Co102 O105 1.970 . S
Co102 N119 1.989 . S
Co102 O127 1.967 . S
Co102 O134 1.920 . S
Co103 O106 1.966 . S
Co103 N112 2.022 . S
Co103 N120 1.993 . S
Co103 O128 1.941 . S
C104 O105 1.258 . S
C104 O106 1.263 . S
O105 Co102 1.970 . S
O105 C104 1.258 . S
O106 Co103 1.966 . S
O106 C104 1.263 . S
C107 O108 1.235 . S
C107 O134 1.289 . S
O108 C107 1.235 . S
C109 C111 1.400 . S
C109 N112 1.351 1_554 S
C109 C114 1.501 . S
C110 C111 1.387 . S
C110 N113 1.341 . S
C111 C109 1.400 . S
C111 C110 1.387 . S
N112 Co103 2.022 . S
N112 C109 1.351 1_556 S
N112 N113 1.365 1_556 S
N113 C110 1.341 . S
N113 N112 1.365 1_554 S
N113 H133 0.862 1_554 S
C114 C109 1.501 . S
C114 H115 0.961 1_554 S
C114 H116 0.961 . S
C114 H117 0.960 . S
H115 C114 0.961 1_556 S
H116 C114 0.961 . S
H117 C114 0.960 . S
C118 N119 1.342 . S
C118 C122 1.401 . S
C118 C123 1.499 . S
N119 Co102 1.989 . S
N119 C118 1.342 . S
N119 N120 1.388 . S
N120 Co103 1.993 . S
N120 N119 1.388 . S
N120 C121 1.346 . S
C121 N120 1.346 . S
C121 C122 1.396 . S
C121 C131 1.510 . S
C122 C118 1.401 . S
C122 C121 1.396 . S
C123 C118 1.499 . S
C123 H124 0.959 . S
C123 H125 0.960 . S
C123 H126 0.961 . S
H124 C123 0.959 . S
H125 C123 0.960 . S
H126 C123 0.961 . S
O127 Co102 1.967 . S
O127 C135 1.258 . S
O128 Co103 1.941 . S
O128 C135 1.266 . S
H129 C131 0.959 . S
H130 C131 0.961 . S
C131 C121 1.510 . S
C131 H129 0.959 . S
C131 H130 0.961 . S
C131 H132 0.960 . S
H132 C131 0.960 . S
H133 N113 0.862 1_556 S
O134 Co102 1.920 . S
O134 C107 1.289 . S
C135 O127 1.258 . S
C135 O128 1.266 . S
Co136 O139 1.970 . S
Co136 N153 1.989 . S
Co136 O161 1.967 . S
Co136 O168 1.920 . S
Co137 O140 1.966 . S
Co137 N146 2.022 . S
Co137 N154 1.993 . S
Co137 O162 1.941 . S
C138 O139 1.258 . S
C138 O140 1.263 . S
O139 Co136 1.970 . S
O139 C138 1.258 . S
O140 Co137 1.966 . S
O140 C138 1.263 . S
C141 O142 1.235 . S
C141 O168 1.289 . S
O142 C141 1.235 . S
C143 C145 1.400 . S
C143 N146 1.351 1_554 S
C143 C148 1.501 . S
C144 C145 1.387 . S
C144 N147 1.341 . S
C145 C143 1.400 . S
C145 C144 1.387 . S
N146 Co137 2.022 . S
N146 C143 1.351 1_556 S
N146 N147 1.365 1_556 S
N147 C144 1.341 . S
N147 N146 1.365 1_554 S
N147 H167 0.862 1_554 S
C148 C143 1.501 . S
C148 H149 0.961 1_554 S
C148 H150 0.961 . S
C148 H151 0.960 . S
H149 C148 0.961 1_556 S
H150 C148 0.961 . S
H151 C148 0.960 . S
C152 N153 1.342 . S
C152 C156 1.401 . S
C152 C157 1.499 . S
N153 Co136 1.989 . S
N153 C152 1.342 . S
N153 N154 1.388 . S
N154 Co137 1.993 . S
N154 N153 1.388 . S
N154 C155 1.346 . S
C155 N154 1.346 . S
C155 C156 1.396 . S
C155 C165 1.510 . S
C156 C152 1.401 . S
C156 C155 1.396 . S
C157 C152 1.499 . S
C157 H158 0.959 . S
C157 H159 0.960 . S
C157 H160 0.961 . S
H158 C157 0.959 . S
H159 C157 0.960 . S
H160 C157 0.961 . S
O161 Co136 1.967 . S
O161 C169 1.258 . S
O162 Co137 1.941 . S
O162 C169 1.266 . S
H163 C165 0.959 . S
H164 C165 0.961 . S
C165 C155 1.510 . S
C165 H163 0.959 . S
C165 H164 0.961 . S
C165 H166 0.960 . S
H166 C165 0.960 . S
H167 N147 0.862 1_556 S
O168 Co136 1.920 . S
O168 C141 1.289 . S
C169 O161 1.258 . S
C169 O162 1.266 . S
Co170 O173 1.970 . S
Co170 N187 1.989 . S
Co170 O195 1.967 . S
Co170 O202 1.920 . S
Co171 O174 1.966 . S
Co171 N180 2.022 . S
Co171 N188 1.993 . S
Co171 O196 1.941 . S
C172 O173 1.258 . S
C172 O174 1.263 . S
O173 Co170 1.970 . S
O173 C172 1.258 . S
O174 Co171 1.966 . S
O174 C172 1.263 . S
C175 O176 1.235 . S
C175 O202 1.289 . S
O176 C175 1.235 . S
C177 C179 1.400 . S
C177 N180 1.351 1_554 S
C177 C182 1.501 . S
C178 C179 1.387 . S
C178 N181 1.341 . S
C179 C177 1.400 . S
C179 C178 1.387 . S
N180 Co171 2.022 . S
N180 C177 1.351 1_556 S
N180 N181 1.365 1_556 S
N181 C178 1.341 . S
N181 N180 1.365 1_554 S
N181 H201 0.862 1_554 S
C182 C177 1.501 . S
C182 H183 0.961 1_554 S
C182 H184 0.961 . S
C182 H185 0.960 . S
H183 C182 0.961 1_556 S
H184 C182 0.961 . S
H185 C182 0.960 . S
C186 N187 1.342 . S
C186 C190 1.401 . S
C186 C191 1.499 . S
N187 Co170 1.989 . S
N187 C186 1.342 . S
N187 N188 1.388 . S
N188 Co171 1.993 . S
N188 N187 1.388 . S
N188 C189 1.346 . S
C189 N188 1.346 . S
C189 C190 1.396 . S
C189 C199 1.510 . S
C190 C186 1.401 . S
C190 C189 1.396 . S
C191 C186 1.499 . S
C191 H192 0.959 . S
C191 H193 0.960 . S
C191 H194 0.961 . S
H192 C191 0.959 . S
H193 C191 0.960 . S
H194 C191 0.961 . S
O195 Co170 1.967 . S
O195 C203 1.258 . S
O196 Co171 1.941 . S
O196 C203 1.266 . S
H197 C199 0.959 . S
H198 C199 0.961 . S
C199 C189 1.510 . S
C199 H197 0.959 . S
C199 H198 0.961 . S
C199 H200 0.960 . S
H200 C199 0.960 . S
H201 N181 0.862 1_556 S
O202 Co170 1.920 . S
O202 C175 1.289 . S
C203 O195 1.258 . S
C203 O196 1.266 . S
Co204 O207 1.970 . S
Co204 N221 1.989 . S
Co204 O229 1.967 . S
Co204 O236 1.920 . S
Co205 O208 1.966 . S
Co205 N214 2.022 . S
Co205 N222 1.993 . S
Co205 O230 1.941 . S
C206 O207 1.258 . S
C206 O208 1.263 . S
O207 Co204 1.970 . S
O207 C206 1.258 . S
O208 Co205 1.966 . S
O208 C206 1.263 . S
C209 O210 1.235 . S
C209 O236 1.289 . S
O210 C209 1.235 . S
C211 C213 1.400 . S
C211 N214 1.351 1_554 S
C211 C216 1.501 . S
C212 C213 1.387 . S
C212 N215 1.341 . S
C213 C211 1.400 . S
C213 C212 1.387 . S
N214 Co205 2.022 . S
N214 C211 1.351 1_556 S
N214 N215 1.365 1_556 S
N215 C212 1.341 . S
N215 N214 1.365 1_554 S
N215 H235 0.862 1_554 S
C216 C211 1.501 . S
C216 H217 0.961 1_554 S
C216 H218 0.961 . S
C216 H219 0.960 . S
H217 C216 0.961 1_556 S
H218 C216 0.961 . S
H219 C216 0.960 . S
C220 N221 1.342 . S
C220 C224 1.401 . S
C220 C225 1.499 . S
N221 Co204 1.989 . S
N221 C220 1.342 . S
N221 N222 1.388 . S
N222 Co205 1.993 . S
N222 N221 1.388 . S
N222 C223 1.346 . S
C223 N222 1.346 . S
C223 C224 1.396 . S
C223 C233 1.510 . S
C224 C220 1.401 . S
C224 C223 1.396 . S
C225 C220 1.499 . S
C225 H226 0.959 . S
C225 H227 0.960 . S
C225 H228 0.961 . S
H226 C225 0.959 . S
H227 C225 0.960 . S
H228 C225 0.961 . S
O229 Co204 1.967 . S
O229 C237 1.258 . S
O230 Co205 1.941 . S
O230 C237 1.266 . S
H231 C233 0.959 . S
H232 C233 0.961 . S
C233 C223 1.510 . S
C233 H231 0.959 . S
C233 H232 0.961 . S
C233 H234 0.960 . S
H234 C233 0.960 . S
H235 N215 0.862 1_556 S
O236 Co204 1.920 . S
O236 C209 1.289 . S
C237 O229 1.258 . S
C237 O230 1.266 . S
Co238 O241 1.970 . S
Co238 N255 1.989 . S
Co238 O263 1.967 . S
Co238 O270 1.920 . S
Co239 O242 1.966 . S
Co239 N248 2.022 . S
Co239 N256 1.993 . S
Co239 O264 1.941 . S
C240 O241 1.258 . S
C240 O242 1.263 . S
O241 Co238 1.970 . S
O241 C240 1.258 . S
O242 Co239 1.966 . S
O242 C240 1.263 . S
C243 O244 1.235 . S
C243 O270 1.289 . S
O244 C243 1.235 . S
C245 C247 1.400 . S
C245 N248 1.351 1_554 S
C245 C250 1.501 . S
C246 C247 1.387 . S
C246 N249 1.341 . S
C247 C245 1.400 . S
C247 C246 1.387 . S
N248 Co239 2.022 . S
N248 C245 1.351 1_556 S
N248 N249 1.365 1_556 S
N249 C246 1.341 . S
N249 N248 1.365 1_554 S
N249 H269 0.862 1_554 S
C250 C245 1.501 . S
C250 H251 0.961 1_554 S
C250 H252 0.961 . S
C250 H253 0.960 . S
H251 C250 0.961 1_556 S
H252 C250 0.961 . S
H253 C250 0.960 . S
C254 N255 1.342 . S
C254 C258 1.401 . S
C254 C259 1.499 . S
N255 Co238 1.989 . S
N255 C254 1.342 . S
N255 N256 1.388 . S
N256 Co239 1.993 . S
N256 N255 1.388 . S
N256 C257 1.346 . S
C257 N256 1.346 . S
C257 C258 1.396 . S
C257 C267 1.510 . S
C258 C254 1.401 . S
C258 C257 1.396 . S
C259 C254 1.499 . S
C259 H260 0.959 . S
C259 H261 0.960 . S
C259 H262 0.961 . S
H260 C259 0.959 . S
H261 C259 0.960 . S
H262 C259 0.961 . S
O263 Co238 1.967 . S
O263 C271 1.258 . S
O264 Co239 1.941 . S
O264 C271 1.266 . S
H265 C267 0.959 . S
H266 C267 0.961 . S
C267 C257 1.510 . S
C267 H265 0.959 . S
C267 H266 0.961 . S
C267 H268 0.960 . S
H268 C267 0.960 . S
H269 N249 0.862 1_556 S
O270 Co238 1.920 . S
O270 C243 1.289 . S
C271 O263 1.258 . S
C271 O264 1.266 . S
Co272 O275 1.970 . S
Co272 N289 1.989 . S
Co272 O297 1.967 . S
Co272 O304 1.920 . S
Co273 O276 1.966 . S
Co273 N282 2.022 . S
Co273 N290 1.993 . S
Co273 O298 1.941 . S
C274 O275 1.258 . S
C274 O276 1.263 . S
O275 Co272 1.970 . S
O275 C274 1.258 . S
O276 Co273 1.966 . S
O276 C274 1.263 . S
C277 O278 1.235 . S
C277 O304 1.289 . S
O278 C277 1.235 . S
C279 C281 1.400 . S
C279 N282 1.351 1_554 S
C279 C284 1.501 . S
C280 C281 1.387 . S
C280 N283 1.341 . S
C281 C279 1.400 . S
C281 C280 1.387 . S
N282 Co273 2.022 . S
N282 C279 1.351 1_556 S
N282 N283 1.365 1_556 S
N283 C280 1.341 . S
N283 N282 1.365 1_554 S
N283 H303 0.862 1_554 S
C284 C279 1.501 . S
C284 H285 0.961 1_554 S
C284 H286 0.961 . S
C284 H287 0.960 . S
H285 C284 0.961 1_556 S
H286 C284 0.961 . S
H287 C284 0.960 . S
C288 N289 1.342 . S
C288 C292 1.401 . S
C288 C293 1.499 . S
N289 Co272 1.989 . S
N289 C288 1.342 . S
N289 N290 1.388 . S
N290 Co273 1.993 . S
N290 N289 1.388 . S
N290 C291 1.346 . S
C291 N290 1.346 . S
C291 C292 1.396 . S
C291 C301 1.510 . S
C292 C288 1.401 . S
C292 C291 1.396 . S
C293 C288 1.499 . S
C293 H294 0.959 . S
C293 H295 0.960 . S
C293 H296 0.961 . S
H294 C293 0.959 . S
H295 C293 0.960 . S
H296 C293 0.961 . S
O297 Co272 1.967 . S
O297 C305 1.258 . S
O298 Co273 1.941 . S
O298 C305 1.266 . S
H299 C301 0.959 . S
H300 C301 0.961 . S
C301 C291 1.510 . S
C301 H299 0.959 . S
C301 H300 0.961 . S
C301 H302 0.960 . S
H302 C301 0.960 . S
H303 N283 0.862 1_556 S
O304 Co272 1.920 . S
O304 C277 1.289 . S
C305 O297 1.258 . S
C305 O298 1.266 . S
Co306 O309 1.970 . S
Co306 N323 1.989 . S
Co306 O331 1.967 . S
Co306 O338 1.920 . S
Co307 O310 1.966 . S
Co307 N316 2.022 . S
Co307 N324 1.993 . S
Co307 O332 1.941 . S
C308 O309 1.258 . S
C308 O310 1.263 . S
O309 Co306 1.970 . S
O309 C308 1.258 . S
O310 Co307 1.966 . S
O310 C308 1.263 . S
C311 O312 1.235 . S
C311 O338 1.289 . S
O312 C311 1.235 . S
C313 C315 1.400 . S
C313 N316 1.351 1_556 S
C313 C318 1.501 . S
C314 C315 1.387 . S
C314 N317 1.341 . S
C315 C313 1.400 . S
C315 C314 1.387 . S
N316 Co307 2.022 . S
N316 C313 1.351 1_554 S
N316 N317 1.365 1_554 S
N317 C314 1.341 . S
N317 N316 1.365 1_556 S
N317 H337 0.862 1_556 S
C318 C313 1.501 . S
C318 H319 0.961 1_556 S
C318 H320 0.961 . S
C318 H321 0.960 . S
H319 C318 0.961 1_554 S
H320 C318 0.961 . S
H321 C318 0.960 . S
C322 N323 1.342 . S
C322 C326 1.401 . S
C322 C327 1.499 . S
N323 Co306 1.989 . S
N323 C322 1.342 . S
N323 N324 1.388 . S
N324 Co307 1.993 . S
N324 N323 1.388 . S
N324 C325 1.346 . S
C325 N324 1.346 . S
C325 C326 1.396 . S
C325 C335 1.510 . S
C326 C322 1.401 . S
C326 C325 1.396 . S
C327 C322 1.499 . S
C327 H328 0.959 . S
C327 H329 0.960 . S
C327 H330 0.961 . S
H328 C327 0.959 . S
H329 C327 0.960 . S
H330 C327 0.961 . S
O331 Co306 1.967 . S
O331 C339 1.258 . S
O332 Co307 1.941 . S
O332 C339 1.266 . S
H333 C335 0.959 . S
H334 C335 0.961 . S
C335 C325 1.510 . S
C335 H333 0.959 . S
C335 H334 0.961 . S
C335 H336 0.960 . S
H336 C335 0.960 . S
H337 N317 0.862 1_554 S
O338 Co306 1.920 . S
O338 C311 1.289 . S
C339 O331 1.258 . S
C339 O332 1.266 . S
Co340 O343 1.970 . S
Co340 N357 1.989 . S
Co340 O365 1.967 . S
Co340 O372 1.920 . S
Co341 O344 1.966 . S
Co341 N350 2.022 . S
Co341 N358 1.993 . S
Co341 O366 1.941 . S
C342 O343 1.258 . S
C342 O344 1.263 . S
O343 Co340 1.970 . S
O343 C342 1.258 . S
O344 Co341 1.966 . S
O344 C342 1.263 . S
C345 O346 1.235 . S
C345 O372 1.289 . S
O346 C345 1.235 . S
C347 C349 1.400 . S
C347 N350 1.351 1_556 S
C347 C352 1.501 . S
C348 C349 1.387 . S
C348 N351 1.341 . S
C349 C347 1.400 . S
C349 C348 1.387 . S
N350 Co341 2.022 . S
N350 C347 1.351 1_554 S
N350 N351 1.365 1_554 S
N351 C348 1.341 . S
N351 N350 1.365 1_556 S
N351 H371 0.862 1_556 S
C352 C347 1.501 . S
C352 H353 0.961 1_556 S
C352 H354 0.961 . S
C352 H355 0.960 . S
H353 C352 0.961 1_554 S
H354 C352 0.961 . S
H355 C352 0.960 . S
C356 N357 1.342 . S
C356 C360 1.401 . S
C356 C361 1.499 . S
N357 Co340 1.989 . S
N357 C356 1.342 . S
N357 N358 1.388 . S
N358 Co341 1.993 . S
N358 N357 1.388 . S
N358 C359 1.346 . S
C359 N358 1.346 . S
C359 C360 1.396 . S
C359 C369 1.510 . S
C360 C356 1.401 . S
C360 C359 1.396 . S
C361 C356 1.499 . S
C361 H362 0.959 . S
C361 H363 0.960 . S
C361 H364 0.961 . S
H362 C361 0.959 . S
H363 C361 0.960 . S
H364 C361 0.961 . S
O365 Co340 1.967 . S
O365 C373 1.258 . S
O366 Co341 1.941 . S
O366 C373 1.266 . S
H367 C369 0.959 . S
H368 C369 0.961 . S
C369 C359 1.510 . S
C369 H367 0.959 . S
C369 H368 0.961 . S
C369 H370 0.960 . S
H370 C369 0.960 . S
H371 N351 0.862 1_554 S
O372 Co340 1.920 . S
O372 C345 1.289 . S
C373 O365 1.258 . S
C373 O366 1.266 . S
Co374 O377 1.970 . S
Co374 N391 1.989 . S
Co374 O399 1.967 . S
Co374 O406 1.920 . S
Co375 O378 1.966 . S
Co375 N384 2.022 . S
Co375 N392 1.993 . S
Co375 O400 1.941 . S
C376 O377 1.258 . S
C376 O378 1.263 . S
O377 Co374 1.970 . S
O377 C376 1.258 . S
O378 Co375 1.966 . S
O378 C376 1.263 . S
C379 O380 1.235 . S
C379 O406 1.289 . S
O380 C379 1.235 . S
C381 C383 1.400 . S
C381 N384 1.351 1_556 S
C381 C386 1.501 . S
C382 C383 1.387 . S
C382 N385 1.341 . S
C383 C381 1.400 . S
C383 C382 1.387 . S
N384 Co375 2.022 . S
N384 C381 1.351 1_554 S
N384 N385 1.365 1_554 S
N385 C382 1.341 . S
N385 N384 1.365 1_556 S
N385 H405 0.862 1_556 S
C386 C381 1.501 . S
C386 H387 0.961 1_556 S
C386 H388 0.961 . S
C386 H389 0.960 . S
H387 C386 0.961 1_554 S
H388 C386 0.961 . S
H389 C386 0.960 . S
C390 N391 1.342 . S
C390 C394 1.401 . S
C390 C395 1.499 . S
N391 Co374 1.989 . S
N391 C390 1.342 . S
N391 N392 1.388 . S
N392 Co375 1.993 . S
N392 N391 1.388 . S
N392 C393 1.346 . S
C393 N392 1.346 . S
C393 C394 1.396 . S
C393 C403 1.510 . S
C394 C390 1.401 . S
C394 C393 1.396 . S
C395 C390 1.499 . S
C395 H396 0.959 . S
C395 H397 0.960 . S
C395 H398 0.961 . S
H396 C395 0.959 . S
H397 C395 0.960 . S
H398 C395 0.961 . S
O399 Co374 1.967 . S
O399 C407 1.258 . S
O400 Co375 1.941 . S
O400 C407 1.266 . S
H401 C403 0.959 . S
H402 C403 0.961 . S
C403 C393 1.510 . S
C403 H401 0.959 . S
C403 H402 0.961 . S
C403 H404 0.960 . S
H404 C403 0.960 . S
H405 N385 0.862 1_554 S
O406 Co374 1.920 . S
O406 C379 1.289 . S
C407 O399 1.258 . S
C407 O400 1.266 . S
Co408 O411 1.970 . S
Co408 N425 1.989 . S
Co408 O433 1.967 . S
Co408 O440 1.920 . S
Co409 O412 1.966 . S
Co409 N418 2.022 . S
Co409 N426 1.993 . S
Co409 O434 1.941 . S
C410 O411 1.258 . S
C410 O412 1.263 . S
O411 Co408 1.970 . S
O411 C410 1.258 . S
O412 Co409 1.966 . S
O412 C410 1.263 . S
C413 O414 1.235 . S
C413 O440 1.289 . S
O414 C413 1.235 . S
C415 C417 1.400 . S
C415 N418 1.351 . S
C415 C420 1.501 . S
C416 C417 1.387 . S
C416 N419 1.341 . S
C417 C415 1.400 . S
C417 C416 1.387 . S
N418 Co409 2.022 . S
N418 C415 1.351 . S
N418 N419 1.365 . S
N419 C416 1.341 . S
N419 N418 1.365 . S
N419 H439 0.862 . S
C420 C415 1.501 . S
C420 H421 0.961 . S
C420 H422 0.961 . S
C420 H423 0.960 . S
H421 C420 0.961 . S
H422 C420 0.961 . S
H423 C420 0.960 . S
C424 N425 1.342 . S
C424 C428 1.401 . S
C424 C429 1.499 . S
N425 Co408 1.989 . S
N425 C424 1.342 . S
N425 N426 1.388 . S
N426 Co409 1.993 . S
N426 N425 1.388 . S
N426 C427 1.346 . S
C427 N426 1.346 . S
C427 C428 1.396 . S
C427 C437 1.510 . S
C428 C424 1.401 . S
C428 C427 1.396 . S
C429 C424 1.499 . S
C429 H430 0.959 . S
C429 H431 0.960 . S
C429 H432 0.961 . S
H430 C429 0.959 . S
H431 C429 0.960 . S
H432 C429 0.961 . S
O433 Co408 1.967 . S
O433 C441 1.258 . S
O434 Co409 1.941 . S
O434 C441 1.266 . S
H435 C437 0.959 . S
H436 C437 0.961 . S
C437 C427 1.510 . S
C437 H435 0.959 . S
C437 H436 0.961 . S
C437 H438 0.960 . S
H438 C437 0.960 . S
H439 N419 0.862 . S
O440 Co408 1.920 . S
O440 C413 1.289 . S
C441 O433 1.258 . S
C441 O434 1.266 . S
Co442 O445 1.970 . S
Co442 N459 1.989 . S
Co442 O467 1.967 . S
Co442 O474 1.920 . S
Co443 O446 1.966 . S
Co443 N452 2.022 . S
Co443 N460 1.993 . S
Co443 O468 1.941 . S
C444 O445 1.258 . S
C444 O446 1.263 . S
O445 Co442 1.970 . S
O445 C444 1.258 . S
O446 Co443 1.966 . S
O446 C444 1.263 . S
C447 O448 1.235 . S
C447 O474 1.289 . S
O448 C447 1.235 . S
C449 C451 1.400 . S
C449 N452 1.351 . S
C449 C454 1.501 . S
C450 C451 1.387 . S
C450 N453 1.341 . S
C451 C449 1.400 . S
C451 C450 1.387 . S
N452 Co443 2.022 . S
N452 C449 1.351 . S
N452 N453 1.365 . S
N453 C450 1.341 . S
N453 N452 1.365 . S
N453 H473 0.862 . S
C454 C449 1.501 . S
C454 H455 0.961 . S
C454 H456 0.961 . S
C454 H457 0.960 . S
H455 C454 0.961 . S
H456 C454 0.961 . S
H457 C454 0.960 . S
C458 N459 1.342 . S
C458 C462 1.401 . S
C458 C463 1.499 . S
N459 Co442 1.989 . S
N459 C458 1.342 . S
N459 N460 1.388 . S
N460 Co443 1.993 . S
N460 N459 1.388 . S
N460 C461 1.346 . S
C461 N460 1.346 . S
C461 C462 1.396 . S
C461 C471 1.510 . S
C462 C458 1.401 . S
C462 C461 1.396 . S
C463 C458 1.499 . S
C463 H464 0.959 . S
C463 H465 0.960 . S
C463 H466 0.961 . S
H464 C463 0.959 . S
H465 C463 0.960 . S
H466 C463 0.961 . S
O467 Co442 1.967 . S
O467 C475 1.258 . S
O468 Co443 1.941 . S
O468 C475 1.266 . S
H469 C471 0.959 . S
H470 C471 0.961 . S
C471 C461 1.510 . S
C471 H469 0.959 . S
C471 H470 0.961 . S
C471 H472 0.960 . S
H472 C471 0.960 . S
H473 N453 0.862 . S
O474 Co442 1.920 . S
O474 C447 1.289 . S
C475 O467 1.258 . S
C475 O468 1.266 . S
Co476 O479 1.970 . S
Co476 N493 1.989 . S
Co476 O501 1.967 . S
Co476 O508 1.920 . S
Co477 O480 1.966 . S
Co477 N486 2.022 . S
Co477 N494 1.993 . S
Co477 O502 1.941 . S
C478 O479 1.258 . S
C478 O480 1.263 . S
O479 Co476 1.970 . S
O479 C478 1.258 . S
O480 Co477 1.966 . S
O480 C478 1.263 . S
C481 O482 1.235 . S
C481 O508 1.289 . S
O482 C481 1.235 . S
C483 C485 1.400 . S
C483 N486 1.351 . S
C483 C488 1.501 . S
C484 C485 1.387 . S
C484 N487 1.341 . S
C485 C483 1.400 . S
C485 C484 1.387 . S
N486 Co477 2.022 . S
N486 C483 1.351 . S
N486 N487 1.365 . S
N487 C484 1.341 . S
N487 N486 1.365 . S
N487 H507 0.862 . S
C488 C483 1.501 . S
C488 H489 0.961 . S
C488 H490 0.961 . S
C488 H491 0.960 . S
H489 C488 0.961 . S
H490 C488 0.961 . S
H491 C488 0.960 . S
C492 N493 1.342 . S
C492 C496 1.401 . S
C492 C497 1.499 . S
N493 Co476 1.989 . S
N493 C492 1.342 . S
N493 N494 1.388 . S
N494 Co477 1.993 . S
N494 N493 1.388 . S
N494 C495 1.346 . S
C495 N494 1.346 . S
C495 C496 1.396 . S
C495 C505 1.510 . S
C496 C492 1.401 . S
C496 C495 1.396 . S
C497 C492 1.499 . S
C497 H498 0.959 . S
C497 H499 0.960 . S
C497 H500 0.961 . S
H498 C497 0.959 . S
H499 C497 0.960 . S
H500 C497 0.961 . S
O501 Co476 1.967 . S
O501 C509 1.258 . S
O502 Co477 1.941 . S
O502 C509 1.266 . S
H503 C505 0.959 . S
H504 C505 0.961 . S
C505 C495 1.510 . S
C505 H503 0.959 . S
C505 H504 0.961 . S
C505 H506 0.960 . S
H506 C505 0.960 . S
H507 N487 0.862 . S
O508 Co476 1.920 . S
O508 C481 1.289 . S
C509 O501 1.258 . S
C509 O502 1.266 . S
Co510 O513 1.970 . S
Co510 N527 1.989 . S
Co510 O535 1.967 . S
Co510 O542 1.920 1_554 S
Co511 O514 1.966 . S
Co511 N520 2.022 . S
Co511 N528 1.993 . S
Co511 O536 1.941 . S
C512 O513 1.258 . S
C512 O514 1.263 . S
O513 Co510 1.970 . S
O513 C512 1.258 . S
O514 Co511 1.966 . S
O514 C512 1.263 . S
C515 O516 1.235 . S
C515 O542 1.289 . S
O516 C515 1.235 . S
C517 C519 1.400 . S
C517 N520 1.351 . S
C517 C522 1.501 . S
C518 C519 1.387 . S
C518 N521 1.341 . S
C519 C517 1.400 . S
C519 C518 1.387 . S
N520 Co511 2.022 . S
N520 C517 1.351 . S
N520 N521 1.365 . S
N521 C518 1.341 . S
N521 N520 1.365 . S
N521 H541 0.862 . S
C522 C517 1.501 . S
C522 H523 0.961 . S
C522 H524 0.961 . S
C522 H525 0.960 . S
H523 C522 0.961 . S
H524 C522 0.961 . S
H525 C522 0.960 . S
C526 N527 1.342 . S
C526 C530 1.401 . S
C526 C531 1.499 1_554 S
N527 Co510 1.989 . S
N527 C526 1.342 . S
N527 N528 1.388 . S
N528 Co511 1.993 . S
N528 N527 1.388 . S
N528 C529 1.346 . S
C529 N528 1.346 . S
C529 C530 1.396 . S
C529 C539 1.510 . S
C530 C526 1.401 . S
C530 C529 1.396 . S
C531 C526 1.499 1_556 S
C531 H532 0.959 . S
C531 H533 0.960 . S
C531 H534 0.961 . S
H532 C531 0.959 . S
H533 C531 0.960 . S
H534 C531 0.961 . S
O535 Co510 1.967 . S
O535 C543 1.258 . S
O536 Co511 1.941 . S
O536 C543 1.266 . S
H537 C539 0.959 . S
H538 C539 0.961 . S
C539 C529 1.510 . S
C539 H537 0.959 . S
C539 H538 0.961 . S
C539 H540 0.960 . S
H540 C539 0.960 . S
H541 N521 0.862 . S
O542 Co510 1.920 1_556 S
O542 C515 1.289 . S
C543 O535 1.258 . S
C543 O536 1.266 . S
Co544 O547 1.970 . S
Co544 N561 1.989 . S
Co544 O569 1.967 . S
Co544 O576 1.920 1_554 S
Co545 O548 1.966 . S
Co545 N554 2.022 . S
Co545 N562 1.993 . S
Co545 O570 1.941 . S
C546 O547 1.258 . S
C546 O548 1.263 . S
O547 Co544 1.970 . S
O547 C546 1.258 . S
O548 Co545 1.966 . S
O548 C546 1.263 . S
C549 O550 1.235 . S
C549 O576 1.289 . S
O550 C549 1.235 . S
C551 C553 1.400 . S
C551 N554 1.351 . S
C551 C556 1.501 . S
C552 C553 1.387 . S
C552 N555 1.341 . S
C553 C551 1.400 . S
C553 C552 1.387 . S
N554 Co545 2.022 . S
N554 C551 1.351 . S
N554 N555 1.365 . S
N555 C552 1.341 . S
N555 N554 1.365 . S
N555 H575 0.862 . S
C556 C551 1.501 . S
C556 H557 0.961 . S
C556 H558 0.961 . S
C556 H559 0.960 . S
H557 C556 0.961 . S
H558 C556 0.961 . S
H559 C556 0.960 . S
C560 N561 1.342 . S
C560 C564 1.401 . S
C560 C565 1.499 1_554 S
N561 Co544 1.989 . S
N561 C560 1.342 . S
N561 N562 1.388 . S
N562 Co545 1.993 . S
N562 N561 1.388 . S
N562 C563 1.346 . S
C563 N562 1.346 . S
C563 C564 1.396 . S
C563 C573 1.510 . S
C564 C560 1.401 . S
C564 C563 1.396 . S
C565 C560 1.499 1_556 S
C565 H566 0.959 . S
C565 H567 0.960 . S
C565 H568 0.961 . S
H566 C565 0.959 . S
H567 C565 0.960 . S
H568 C565 0.961 . S
O569 Co544 1.967 . S
O569 C577 1.258 . S
O570 Co545 1.941 . S
O570 C577 1.266 . S
H571 C573 0.959 . S
H572 C573 0.961 . S
C573 C563 1.510 . S
C573 H571 0.959 . S
C573 H572 0.961 . S
C573 H574 0.960 . S
H574 C573 0.960 . S
H575 N555 0.862 . S
O576 Co544 1.920 1_556 S
O576 C549 1.289 . S
C577 O569 1.258 . S
C577 O570 1.266 . S
Co578 O581 1.970 . S
Co578 N595 1.989 . S
Co578 O603 1.967 . S
Co578 O610 1.920 1_554 S
Co579 O582 1.966 . S
Co579 N588 2.022 . S
Co579 N596 1.993 . S
Co579 O604 1.941 . S
C580 O581 1.258 . S
C580 O582 1.263 . S
O581 Co578 1.970 . S
O581 C580 1.258 . S
O582 Co579 1.966 . S
O582 C580 1.263 . S
C583 O584 1.235 . S
C583 O610 1.289 . S
O584 C583 1.235 . S
C585 C587 1.400 . S
C585 N588 1.351 . S
C585 C590 1.501 . S
C586 C587 1.387 . S
C586 N589 1.341 . S
C587 C585 1.400 . S
C587 C586 1.387 . S
N588 Co579 2.022 . S
N588 C585 1.351 . S
N588 N589 1.365 . S
N589 C586 1.341 . S
N589 N588 1.365 . S
N589 H609 0.862 . S
C590 C585 1.501 . S
C590 H591 0.961 . S
C590 H592 0.961 . S
C590 H593 0.960 . S
H591 C590 0.961 . S
H592 C590 0.961 . S
H593 C590 0.960 . S
C594 N595 1.342 . S
C594 C598 1.401 . S
C594 C599 1.499 1_554 S
N595 Co578 1.989 . S
N595 C594 1.342 . S
N595 N596 1.388 . S
N596 Co579 1.993 . S
N596 N595 1.388 . S
N596 C597 1.346 . S
C597 N596 1.346 . S
C597 C598 1.396 . S
C597 C607 1.510 . S
C598 C594 1.401 . S
C598 C597 1.396 . S
C599 C594 1.499 1_556 S
C599 H600 0.959 . S
C599 H601 0.960 . S
C599 H602 0.961 . S
H600 C599 0.959 . S
H601 C599 0.960 . S
H602 C599 0.961 . S
O603 Co578 1.967 . S
O603 C611 1.258 . S
O604 Co579 1.941 . S
O604 C611 1.266 . S
H605 C607 0.959 . S
H606 C607 0.961 . S
C607 C597 1.510 . S
C607 H605 0.959 . S
C607 H606 0.961 . S
C607 H608 0.960 . S
H608 C607 0.960 . S
H609 N589 0.862 . S
O610 Co578 1.920 1_556 S
O610 C583 1.289 . S
C611 O603 1.258 . S
C611 O604 1.266 . S
Co612 O615 1.970 . S
Co612 N629 1.989 . S
Co612 O637 1.967 . S
Co612 O644 1.920 1_554 S
Co613 O616 1.966 . S
Co613 N622 2.022 . S
Co613 N630 1.993 . S
Co613 O638 1.941 . S
C614 O615 1.258 . S
C614 O616 1.263 . S
O615 Co612 1.970 . S
O615 C614 1.258 . S
O616 Co613 1.966 . S
O616 C614 1.263 . S
C617 O618 1.235 . S
C617 O644 1.289 . S
O618 C617 1.235 . S
C619 C621 1.400 . S
C619 N622 1.351 . S
C619 C624 1.501 . S
C620 C621 1.387 . S
C620 N623 1.341 . S
C621 C619 1.400 . S
C621 C620 1.387 . S
N622 Co613 2.022 . S
N622 C619 1.351 . S
N622 N623 1.365 . S
N623 C620 1.341 . S
N623 N622 1.365 . S
N623 H643 0.862 . S
C624 C619 1.501 . S
C624 H625 0.961 . S
C624 H626 0.961 . S
C624 H627 0.960 . S
H625 C624 0.961 . S
H626 C624 0.961 . S
H627 C624 0.960 . S
C628 N629 1.342 . S
C628 C632 1.401 . S
C628 C633 1.499 1_554 S
N629 Co612 1.989 . S
N629 C628 1.342 . S
N629 N630 1.388 . S
N630 Co613 1.993 . S
N630 N629 1.388 . S
N630 C631 1.346 . S
C631 N630 1.346 . S
C631 C632 1.396 . S
C631 C641 1.510 . S
C632 C628 1.401 . S
C632 C631 1.396 . S
C633 C628 1.499 1_556 S
C633 H634 0.959 . S
C633 H635 0.960 . S
C633 H636 0.961 . S
H634 C633 0.959 . S
H635 C633 0.960 . S
H636 C633 0.961 . S
O637 Co612 1.967 . S
O637 C645 1.258 . S
O638 Co613 1.941 . S
O638 C645 1.266 . S
H639 C641 0.959 . S
H640 C641 0.961 . S
C641 C631 1.510 . S
C641 H639 0.959 . S
C641 H640 0.961 . S
C641 H642 0.960 . S
H642 C641 0.960 . S
H643 N623 0.862 . S
O644 Co612 1.920 1_556 S
O644 C617 1.289 . S
C645 O637 1.258 . S
C645 O638 1.266 . S
Co646 O649 1.970 . S
Co646 N663 1.989 . S
Co646 O671 1.967 . S
Co646 O678 1.920 1_554 S
Co647 O650 1.966 . S
Co647 N656 2.022 . S
Co647 N664 1.993 . S
Co647 O672 1.941 . S
C648 O649 1.258 . S
C648 O650 1.263 . S
O649 Co646 1.970 . S
O649 C648 1.258 . S
O650 Co647 1.966 . S
O650 C648 1.263 . S
C651 O652 1.235 . S
C651 O678 1.289 . S
O652 C651 1.235 . S
C653 C655 1.400 . S
C653 N656 1.351 . S
C653 C658 1.501 . S
C654 C655 1.387 . S
C654 N657 1.341 . S
C655 C653 1.400 . S
C655 C654 1.387 . S
N656 Co647 2.022 . S
N656 C653 1.351 . S
N656 N657 1.365 . S
N657 C654 1.341 . S
N657 N656 1.365 . S
N657 H677 0.862 . S
C658 C653 1.501 . S
C658 H659 0.961 . S
C658 H660 0.961 . S
C658 H661 0.960 . S
H659 C658 0.961 . S
H660 C658 0.961 . S
H661 C658 0.960 . S
C662 N663 1.342 . S
C662 C666 1.401 . S
C662 C667 1.499 1_554 S
N663 Co646 1.989 . S
N663 C662 1.342 . S
N663 N664 1.388 . S
N664 Co647 1.993 . S
N664 N663 1.388 . S
N664 C665 1.346 . S
C665 N664 1.346 . S
C665 C666 1.396 . S
C665 C675 1.510 . S
C666 C662 1.401 . S
C666 C665 1.396 . S
C667 C662 1.499 1_556 S
C667 H668 0.959 . S
C667 H669 0.960 . S
C667 H670 0.961 . S
H668 C667 0.959 . S
H669 C667 0.960 . S
H670 C667 0.961 . S
O671 Co646 1.967 . S
O671 C679 1.258 . S
O672 Co647 1.941 . S
O672 C679 1.266 . S
H673 C675 0.959 . S
H674 C675 0.961 . S
C675 C665 1.510 . S
C675 H673 0.959 . S
C675 H674 0.961 . S
C675 H676 0.960 . S
H676 C675 0.960 . S
H677 N657 0.862 . S
O678 Co646 1.920 1_556 S
O678 C651 1.289 . S
C679 O671 1.258 . S
C679 O672 1.266 . S
Co680 O683 1.970 . S
Co680 N697 1.989 . S
Co680 O705 1.967 . S
Co680 O712 1.920 1_554 S
Co681 O684 1.966 . S
Co681 N690 2.022 . S
Co681 N698 1.993 . S
Co681 O706 1.941 . S
C682 O683 1.258 . S
C682 O684 1.263 . S
O683 Co680 1.970 . S
O683 C682 1.258 . S
O684 Co681 1.966 . S
O684 C682 1.263 . S
C685 O686 1.235 . S
C685 O712 1.289 . S
O686 C685 1.235 . S
C687 C689 1.400 . S
C687 N690 1.351 . S
C687 C692 1.501 . S
C688 C689 1.387 . S
C688 N691 1.341 . S
C689 C687 1.400 . S
C689 C688 1.387 . S
N690 Co681 2.022 . S
N690 C687 1.351 . S
N690 N691 1.365 . S
N691 C688 1.341 . S
N691 N690 1.365 . S
N691 H711 0.862 . S
C692 C687 1.501 . S
C692 H693 0.961 . S
C692 H694 0.961 . S
C692 H695 0.960 . S
H693 C692 0.961 . S
H694 C692 0.961 . S
H695 C692 0.960 . S
C696 N697 1.342 . S
C696 C700 1.401 . S
C696 C701 1.499 1_554 S
N697 Co680 1.989 . S
N697 C696 1.342 . S
N697 N698 1.388 . S
N698 Co681 1.993 . S
N698 N697 1.388 . S
N698 C699 1.346 . S
C699 N698 1.346 . S
C699 C700 1.396 . S
C699 C709 1.510 . S
C700 C696 1.401 . S
C700 C699 1.396 . S
C701 C696 1.499 1_556 S
C701 H702 0.959 . S
C701 H703 0.960 . S
C701 H704 0.961 . S
H702 C701 0.959 . S
H703 C701 0.960 . S
H704 C701 0.961 . S
O705 Co680 1.967 . S
O705 C713 1.258 . S
O706 Co681 1.941 . S
O706 C713 1.266 . S
H707 C709 0.959 . S
H708 C709 0.961 . S
C709 C699 1.510 . S
C709 H707 0.959 . S
C709 H708 0.961 . S
C709 H710 0.960 . S
H710 C709 0.960 . S
H711 N691 0.862 . S
O712 Co680 1.920 1_556 S
O712 C685 1.289 . S
C713 O705 1.258 . S
C713 O706 1.266 . S
Co714 O717 1.970 . S
Co714 N731 1.989 . S
Co714 O739 1.967 . S
Co714 O746 1.920 . S
Co715 O718 1.966 . S
Co715 N724 2.022 . S
Co715 N732 1.993 . S
Co715 O740 1.941 . S
C716 O717 1.258 . S
C716 O718 1.263 . S
O717 Co714 1.970 . S
O717 C716 1.258 . S
O718 Co715 1.966 . S
O718 C716 1.263 . S
C719 O720 1.235 . S
C719 O746 1.289 . S
O720 C719 1.235 . S
C721 C723 1.400 . S
C721 N724 1.351 . S
C721 C726 1.501 . S
C722 C723 1.387 . S
C722 N725 1.341 . S
C723 C721 1.400 . S
C723 C722 1.387 . S
N724 Co715 2.022 . S
N724 C721 1.351 . S
N724 N725 1.365 . S
N725 C722 1.341 . S
N725 N724 1.365 . S
N725 H745 0.862 . S
C726 C721 1.501 . S
C726 H727 0.961 . S
C726 H728 0.961 . S
C726 H729 0.960 . S
H727 C726 0.961 . S
H728 C726 0.961 . S
H729 C726 0.960 . S
C730 N731 1.342 . S
C730 C734 1.401 . S
C730 C735 1.499 . S
N731 Co714 1.989 . S
N731 C730 1.342 . S
N731 N732 1.388 . S
N732 Co715 1.993 . S
N732 N731 1.388 . S
N732 C733 1.346 . S
C733 N732 1.346 . S
C733 C734 1.396 . S
C733 C743 1.510 . S
C734 C730 1.401 . S
C734 C733 1.396 . S
C735 C730 1.499 . S
C735 H736 0.959 . S
C735 H737 0.960 . S
C735 H738 0.961 . S
H736 C735 0.959 . S
H737 C735 0.960 . S
H738 C735 0.961 . S
O739 Co714 1.967 . S
O739 C747 1.258 . S
O740 Co715 1.941 . S
O740 C747 1.266 . S
H741 C743 0.959 . S
H742 C743 0.961 . S
C743 C733 1.510 . S
C743 H741 0.959 . S
C743 H742 0.961 . S
C743 H744 0.960 . S
H744 C743 0.960 . S
H745 N725 0.862 . S
O746 Co714 1.920 . S
O746 C719 1.289 . S
C747 O739 1.258 . S
C747 O740 1.266 . S
Co748 O751 1.970 . S
Co748 N765 1.989 . S
Co748 O773 1.967 . S
Co748 O780 1.920 . S
Co749 O752 1.966 . S
Co749 N758 2.022 . S
Co749 N766 1.993 . S
Co749 O774 1.941 . S
C750 O751 1.258 . S
C750 O752 1.263 . S
O751 Co748 1.970 . S
O751 C750 1.258 . S
O752 Co749 1.966 . S
O752 C750 1.263 . S
C753 O754 1.235 . S
C753 O780 1.289 . S
O754 C753 1.235 . S
C755 C757 1.400 . S
C755 N758 1.351 . S
C755 C760 1.501 . S
C756 C757 1.387 . S
C756 N759 1.341 . S
C757 C755 1.400 . S
C757 C756 1.387 . S
N758 Co749 2.022 . S
N758 C755 1.351 . S
N758 N759 1.365 . S
N759 C756 1.341 . S
N759 N758 1.365 . S
N759 H779 0.862 . S
C760 C755 1.501 . S
C760 H761 0.961 . S
C760 H762 0.961 . S
C760 H763 0.960 . S
H761 C760 0.961 . S
H762 C760 0.961 . S
H763 C760 0.960 . S
C764 N765 1.342 . S
C764 C768 1.401 . S
C764 C769 1.499 . S
N765 Co748 1.989 . S
N765 C764 1.342 . S
N765 N766 1.388 . S
N766 Co749 1.993 . S
N766 N765 1.388 . S
N766 C767 1.346 . S
C767 N766 1.346 . S
C767 C768 1.396 . S
C767 C777 1.510 . S
C768 C764 1.401 . S
C768 C767 1.396 . S
C769 C764 1.499 . S
C769 H770 0.959 . S
C769 H771 0.960 . S
C769 H772 0.961 . S
H770 C769 0.959 . S
H771 C769 0.960 . S
H772 C769 0.961 . S
O773 Co748 1.967 . S
O773 C781 1.258 . S
O774 Co749 1.941 . S
O774 C781 1.266 . S
H775 C777 0.959 . S
H776 C777 0.961 . S
C777 C767 1.510 . S
C777 H775 0.959 . S
C777 H776 0.961 . S
C777 H778 0.960 . S
H778 C777 0.960 . S
H779 N759 0.862 . S
O780 Co748 1.920 . S
O780 C753 1.289 . S
C781 O773 1.258 . S
C781 O774 1.266 . S
Co782 O785 1.970 . S
Co782 N799 1.989 . S
Co782 O807 1.967 . S
Co782 O814 1.920 . S
Co783 O786 1.966 . S
Co783 N792 2.022 . S
Co783 N800 1.993 . S
Co783 O808 1.941 . S
C784 O785 1.258 . S
C784 O786 1.263 . S
O785 Co782 1.970 . S
O785 C784 1.258 . S
O786 Co783 1.966 . S
O786 C784 1.263 . S
C787 O788 1.235 . S
C787 O814 1.289 . S
O788 C787 1.235 . S
C789 C791 1.400 . S
C789 N792 1.351 . S
C789 C794 1.501 . S
C790 C791 1.387 . S
C790 N793 1.341 . S
C791 C789 1.400 . S
C791 C790 1.387 . S
N792 Co783 2.022 . S
N792 C789 1.351 . S
N792 N793 1.365 . S
N793 C790 1.341 . S
N793 N792 1.365 . S
N793 H813 0.862 . S
C794 C789 1.501 . S
C794 H795 0.961 . S
C794 H796 0.961 . S
C794 H797 0.960 . S
H795 C794 0.961 . S
H796 C794 0.961 . S
H797 C794 0.960 . S
C798 N799 1.342 . S
C798 C802 1.401 . S
C798 C803 1.499 . S
N799 Co782 1.989 . S
N799 C798 1.342 . S
N799 N800 1.388 . S
N800 Co783 1.993 . S
N800 N799 1.388 . S
N800 C801 1.346 . S
C801 N800 1.346 . S
C801 C802 1.396 . S
C801 C811 1.510 . S
C802 C798 1.401 . S
C802 C801 1.396 . S
C803 C798 1.499 . S
C803 H804 0.959 . S
C803 H805 0.960 . S
C803 H806 0.961 . S
H804 C803 0.959 . S
H805 C803 0.960 . S
H806 C803 0.961 . S
O807 Co782 1.967 . S
O807 C815 1.258 . S
O808 Co783 1.941 . S
O808 C815 1.266 . S
H809 C811 0.959 . S
H810 C811 0.961 . S
C811 C801 1.510 . S
C811 H809 0.959 . S
C811 H810 0.961 . S
C811 H812 0.960 . S
H812 C811 0.960 . S
H813 N793 0.862 . S
O814 Co782 1.920 . S
O814 C787 1.289 . S
C815 O807 1.258 . S
C815 O808 1.266 . S
Co816 O819 1.970 . S
Co816 N833 1.989 . S
Co816 O841 1.967 . S
Co816 O848 1.920 1_556 S
Co817 O820 1.966 . S
Co817 N826 2.022 . S
Co817 N834 1.993 . S
Co817 O842 1.941 . S
C818 O819 1.258 . S
C818 O820 1.263 . S
O819 Co816 1.970 . S
O819 C818 1.258 . S
O820 Co817 1.966 . S
O820 C818 1.263 . S
C821 O822 1.235 . S
C821 O848 1.289 . S
O822 C821 1.235 . S
C823 C825 1.400 . S
C823 N826 1.351 . S
C823 C828 1.501 . S
C824 C825 1.387 . S
C824 N827 1.341 . S
C825 C823 1.400 . S
C825 C824 1.387 . S
N826 Co817 2.022 . S
N826 C823 1.351 . S
N826 N827 1.365 . S
N827 C824 1.341 . S
N827 N826 1.365 . S
N827 H847 0.862 . S
C828 C823 1.501 . S
C828 H829 0.961 . S
C828 H830 0.961 . S
C828 H831 0.960 . S
H829 C828 0.961 . S
H830 C828 0.961 . S
H831 C828 0.960 . S
C832 N833 1.342 . S
C832 C836 1.401 . S
C832 C837 1.499 1_556 S
N833 Co816 1.989 . S
N833 C832 1.342 . S
N833 N834 1.388 . S
N834 Co817 1.993 . S
N834 N833 1.388 . S
N834 C835 1.346 . S
C835 N834 1.346 . S
C835 C836 1.396 . S
C835 C845 1.510 . S
C836 C832 1.401 . S
C836 C835 1.396 . S
C837 C832 1.499 1_554 S
C837 H838 0.959 . S
C837 H839 0.960 . S
C837 H840 0.961 . S
H838 C837 0.959 . S
H839 C837 0.960 . S
H840 C837 0.961 . S
O841 Co816 1.967 . S
O841 C849 1.258 . S
O842 Co817 1.941 . S
O842 C849 1.266 . S
H843 C845 0.959 . S
H844 C845 0.961 . S
C845 C835 1.510 . S
C845 H843 0.959 . S
C845 H844 0.961 . S
C845 H846 0.960 . S
H846 C845 0.960 . S
H847 N827 0.862 . S
O848 Co816 1.920 1_554 S
O848 C821 1.289 . S
C849 O841 1.258 . S
C849 O842 1.266 . S
Co850 O853 1.970 . S
Co850 N867 1.989 . S
Co850 O875 1.967 . S
Co850 O882 1.920 1_556 S
Co851 O854 1.966 . S
Co851 N860 2.022 . S
Co851 N868 1.993 . S
Co851 O876 1.941 . S
C852 O853 1.258 . S
C852 O854 1.263 . S
O853 Co850 1.970 . S
O853 C852 1.258 . S
O854 Co851 1.966 . S
O854 C852 1.263 . S
C855 O856 1.235 . S
C855 O882 1.289 . S
O856 C855 1.235 . S
C857 C859 1.400 . S
C857 N860 1.351 . S
C857 C862 1.501 . S
C858 C859 1.387 . S
C858 N861 1.341 . S
C859 C857 1.400 . S
C859 C858 1.387 . S
N860 Co851 2.022 . S
N860 C857 1.351 . S
N860 N861 1.365 . S
N861 C858 1.341 . S
N861 N860 1.365 . S
N861 H881 0.862 . S
C862 C857 1.501 . S
C862 H863 0.961 . S
C862 H864 0.961 . S
C862 H865 0.960 . S
H863 C862 0.961 . S
H864 C862 0.961 . S
H865 C862 0.960 . S
C866 N867 1.342 . S
C866 C870 1.401 . S
C866 C871 1.499 1_556 S
N867 Co850 1.989 . S
N867 C866 1.342 . S
N867 N868 1.388 . S
N868 Co851 1.993 . S
N868 N867 1.388 . S
N868 C869 1.346 . S
C869 N868 1.346 . S
C869 C870 1.396 . S
C869 C879 1.510 . S
C870 C866 1.401 . S
C870 C869 1.396 . S
C871 C866 1.499 1_554 S
C871 H872 0.959 . S
C871 H873 0.960 . S
C871 H874 0.961 . S
H872 C871 0.959 . S
H873 C871 0.960 . S
H874 C871 0.961 . S
O875 Co850 1.967 . S
O875 C883 1.258 . S
O876 Co851 1.941 . S
O876 C883 1.266 . S
H877 C879 0.959 . S
H878 C879 0.961 . S
C879 C869 1.510 . S
C879 H877 0.959 . S
C879 H878 0.961 . S
C879 H880 0.960 . S
H880 C879 0.960 . S
H881 N861 0.862 . S
O882 Co850 1.920 1_554 S
O882 C855 1.289 . S
C883 O875 1.258 . S
C883 O876 1.266 . S
Co884 O887 1.970 . S
Co884 N901 1.989 . S
Co884 O909 1.967 . S
Co884 O916 1.920 1_556 S
Co885 O888 1.966 . S
Co885 N894 2.022 . S
Co885 N902 1.993 . S
Co885 O910 1.941 . S
C886 O887 1.258 . S
C886 O888 1.263 . S
O887 Co884 1.970 . S
O887 C886 1.258 . S
O888 Co885 1.966 . S
O888 C886 1.263 . S
C889 O890 1.235 . S
C889 O916 1.289 . S
O890 C889 1.235 . S
C891 C893 1.400 . S
C891 N894 1.351 . S
C891 C896 1.501 . S
C892 C893 1.387 . S
C892 N895 1.341 . S
C893 C891 1.400 . S
C893 C892 1.387 . S
N894 Co885 2.022 . S
N894 C891 1.351 . S
N894 N895 1.365 . S
N895 C892 1.341 . S
N895 N894 1.365 . S
N895 H915 0.862 . S
C896 C891 1.501 . S
C896 H897 0.961 . S
C896 H898 0.961 . S
C896 H899 0.960 . S
H897 C896 0.961 . S
H898 C896 0.961 . S
H899 C896 0.960 . S
C900 N901 1.342 . S
C900 C904 1.401 . S
C900 C905 1.499 1_556 S
N901 Co884 1.989 . S
N901 C900 1.342 . S
N901 N902 1.388 . S
N902 Co885 1.993 . S
N902 N901 1.388 . S
N902 C903 1.346 . S
C903 N902 1.346 . S
C903 C904 1.396 . S
C903 C913 1.510 . S
C904 C900 1.401 . S
C904 C903 1.396 . S
C905 C900 1.499 1_554 S
C905 H906 0.959 . S
C905 H907 0.960 . S
C905 H908 0.961 . S
H906 C905 0.959 . S
H907 C905 0.960 . S
H908 C905 0.961 . S
O909 Co884 1.967 . S
O909 C917 1.258 . S
O910 Co885 1.941 . S
O910 C917 1.266 . S
H911 C913 0.959 . S
H912 C913 0.961 . S
C913 C903 1.510 . S
C913 H911 0.959 . S
C913 H912 0.961 . S
C913 H914 0.960 . S
H914 C913 0.960 . S
H915 N895 0.862 . S
O916 Co884 1.920 1_554 S
O916 C889 1.289 . S
C917 O909 1.258 . S
C917 O910 1.266 . S
Co918 O921 1.970 . S
Co918 N935 1.989 . S
Co918 O943 1.967 . S
Co918 O950 1.920 . S
Co919 O922 1.966 . S
Co919 N928 2.022 . S
Co919 N936 1.993 . S
Co919 O944 1.941 . S
C920 O921 1.258 . S
C920 O922 1.263 . S
O921 Co918 1.970 . S
O921 C920 1.258 . S
O922 Co919 1.966 . S
O922 C920 1.263 . S
C923 O924 1.235 . S
C923 O950 1.289 . S
O924 C923 1.235 . S
C925 C927 1.400 . S
C925 N928 1.351 . S
C925 C930 1.501 . S
C926 C927 1.387 . S
C926 N929 1.341 . S
C927 C925 1.400 . S
C927 C926 1.387 . S
N928 Co919 2.022 . S
N928 C925 1.351 . S
N928 N929 1.365 . S
N929 C926 1.341 . S
N929 N928 1.365 . S
N929 H949 0.862 . S
C930 C925 1.501 . S
C930 H931 0.961 . S
C930 H932 0.961 . S
C930 H933 0.960 . S
H931 C930 0.961 . S
H932 C930 0.961 . S
H933 C930 0.960 . S
C934 N935 1.342 . S
C934 C938 1.401 . S
C934 C939 1.499 . S
N935 Co918 1.989 . S
N935 C934 1.342 . S
N935 N936 1.388 . S
N936 Co919 1.993 . S
N936 N935 1.388 . S
N936 C937 1.346 . S
C937 N936 1.346 . S
C937 C938 1.396 . S
C937 C947 1.510 . S
C938 C934 1.401 . S
C938 C937 1.396 . S
C939 C934 1.499 . S
C939 H940 0.959 . S
C939 H941 0.960 . S
C939 H942 0.961 . S
H940 C939 0.959 . S
H941 C939 0.960 . S
H942 C939 0.961 . S
O943 Co918 1.967 . S
O943 C951 1.258 . S
O944 Co919 1.941 . S
O944 C951 1.266 . S
H945 C947 0.959 . S
H946 C947 0.961 . S
C947 C937 1.510 . S
C947 H945 0.959 . S
C947 H946 0.961 . S
C947 H948 0.960 . S
H948 C947 0.960 . S
H949 N929 0.862 . S
O950 Co918 1.920 . S
O950 C923 1.289 . S
C951 O943 1.258 . S
C951 O944 1.266 . S
Co952 O955 1.970 . S
Co952 N969 1.989 . S
Co952 O977 1.967 . S
Co952 O984 1.920 . S
Co953 O956 1.966 . S
Co953 N962 2.022 . S
Co953 N970 1.993 . S
Co953 O978 1.941 . S
C954 O955 1.258 . S
C954 O956 1.263 . S
O955 Co952 1.970 . S
O955 C954 1.258 . S
O956 Co953 1.966 . S
O956 C954 1.263 . S
C957 O958 1.235 . S
C957 O984 1.289 . S
O958 C957 1.235 . S
C959 C961 1.400 . S
C959 N962 1.351 . S
C959 C964 1.501 . S
C960 C961 1.387 . S
C960 N963 1.341 . S
C961 C959 1.400 . S
C961 C960 1.387 . S
N962 Co953 2.022 . S
N962 C959 1.351 . S
N962 N963 1.365 . S
N963 C960 1.341 . S
N963 N962 1.365 . S
N963 H983 0.862 . S
C964 C959 1.501 . S
C964 H965 0.961 . S
C964 H966 0.961 . S
C964 H967 0.960 . S
H965 C964 0.961 . S
H966 C964 0.961 . S
H967 C964 0.960 . S
C968 N969 1.342 . S
C968 C972 1.401 . S
C968 C973 1.499 . S
N969 Co952 1.989 . S
N969 C968 1.342 . S
N969 N970 1.388 . S
N970 Co953 1.993 . S
N970 N969 1.388 . S
N970 C971 1.346 . S
C971 N970 1.346 . S
C971 C972 1.396 . S
C971 C981 1.510 . S
C972 C968 1.401 . S
C972 C971 1.396 . S
C973 C968 1.499 . S
C973 H974 0.959 . S
C973 H975 0.960 . S
C973 H976 0.961 . S
H974 C973 0.959 . S
H975 C973 0.960 . S
H976 C973 0.961 . S
O977 Co952 1.967 . S
O977 C985 1.258 . S
O978 Co953 1.941 . S
O978 C985 1.266 . S
H979 C981 0.959 . S
H980 C981 0.961 . S
C981 C971 1.510 . S
C981 H979 0.959 . S
C981 H980 0.961 . S
C981 H982 0.960 . S
H982 C981 0.960 . S
H983 N963 0.862 . S
O984 Co952 1.920 . S
O984 C957 1.289 . S
C985 O977 1.258 . S
C985 O978 1.266 . S
Co986 O989 1.970 . S
Co986 N1003 1.989 . S
Co986 O1011 1.967 . S
Co986 O1018 1.920 . S
Co987 O990 1.966 . S
Co987 N996 2.022 . S
Co987 N1004 1.993 . S
Co987 O1012 1.941 . S
C988 O989 1.258 . S
C988 O990 1.263 . S
O989 Co986 1.970 . S
O989 C988 1.258 . S
O990 Co987 1.966 . S
O990 C988 1.263 . S
C991 O992 1.235 . S
C991 O1018 1.289 . S
O992 C991 1.235 . S
C993 C995 1.400 . S
C993 N996 1.351 . S
C993 C998 1.501 . S
C994 C995 1.387 . S
C994 N997 1.341 . S
C995 C993 1.400 . S
C995 C994 1.387 . S
N996 Co987 2.022 . S
N996 C993 1.351 . S
N996 N997 1.365 . S
N997 C994 1.341 . S
N997 N996 1.365 . S
N997 H1017 0.862 . S
C998 C993 1.501 . S
C998 H999 0.961 . S
C998 H1000 0.961 . S
C998 H1001 0.960 . S
H999 C998 0.961 . S
H1000 C998 0.961 . S
H1001 C998 0.960 . S
C1002 N1003 1.342 . S
C1002 C1006 1.401 . S
C1002 C1007 1.499 . S
N1003 Co986 1.989 . S
N1003 C1002 1.342 . S
N1003 N1004 1.388 . S
N1004 Co987 1.993 . S
N1004 N1003 1.388 . S
N1004 C1005 1.346 . S
C1005 N1004 1.346 . S
C1005 C1006 1.396 . S
C1005 C1015 1.510 . S
C1006 C1002 1.401 . S
C1006 C1005 1.396 . S
C1007 C1002 1.499 . S
C1007 H1008 0.959 . S
C1007 H1009 0.960 . S
C1007 H1010 0.961 . S
H1008 C1007 0.959 . S
H1009 C1007 0.960 . S
H1010 C1007 0.961 . S
O1011 Co986 1.967 . S
O1011 C1019 1.258 . S
O1012 Co987 1.941 . S
O1012 C1019 1.266 . S
H1013 C1015 0.959 . S
H1014 C1015 0.961 . S
C1015 C1005 1.510 . S
C1015 H1013 0.959 . S
C1015 H1014 0.961 . S
C1015 H1016 0.960 . S
H1016 C1015 0.960 . S
H1017 N997 0.862 . S
O1018 Co986 1.920 . S
O1018 C991 1.289 . S
C1019 O1011 1.258 . S
C1019 O1012 1.266 . S
Co1020 O1023 1.970 . S
Co1020 N1037 1.989 . S
Co1020 O1045 1.967 . S
Co1020 O1052 1.920 . S
Co1021 O1024 1.966 . S
Co1021 N1030 2.022 . S
Co1021 N1038 1.993 . S
Co1021 O1046 1.941 . S
C1022 O1023 1.258 . S
C1022 O1024 1.263 . S
O1023 Co1020 1.970 . S
O1023 C1022 1.258 . S
O1024 Co1021 1.966 . S
O1024 C1022 1.263 . S
C1025 O1026 1.235 . S
C1025 O1052 1.289 . S
O1026 C1025 1.235 . S
C1027 C1029 1.400 . S
C1027 N1030 1.351 . S
C1027 C1032 1.501 . S
C1028 C1029 1.387 . S
C1028 N1031 1.341 . S
C1029 C1027 1.400 . S
C1029 C1028 1.387 . S
N1030 Co1021 2.022 . S
N1030 C1027 1.351 . S
N1030 N1031 1.365 . S
N1031 C1028 1.341 . S
N1031 N1030 1.365 . S
N1031 H1051 0.862 . S
C1032 C1027 1.501 . S
C1032 H1033 0.961 . S
C1032 H1034 0.961 . S
C1032 H1035 0.960 . S
H1033 C1032 0.961 . S
H1034 C1032 0.961 . S
H1035 C1032 0.960 . S
C1036 N1037 1.342 . S
C1036 C1040 1.401 . S
C1036 C1041 1.499 . S
N1037 Co1020 1.989 . S
N1037 C1036 1.342 . S
N1037 N1038 1.388 . S
N1038 Co1021 1.993 . S
N1038 N1037 1.388 . S
N1038 C1039 1.346 . S
C1039 N1038 1.346 . S
C1039 C1040 1.396 . S
C1039 C1049 1.510 . S
C1040 C1036 1.401 . S
C1040 C1039 1.396 . S
C1041 C1036 1.499 . S
C1041 H1042 0.959 . S
C1041 H1043 0.960 . S
C1041 H1044 0.961 . S
H1042 C1041 0.959 . S
H1043 C1041 0.960 . S
H1044 C1041 0.961 . S
O1045 Co1020 1.967 . S
O1045 C1053 1.258 . S
O1046 Co1021 1.941 . S
O1046 C1053 1.266 . S
H1047 C1049 0.959 . S
H1048 C1049 0.961 . S
C1049 C1039 1.510 . S
C1049 H1047 0.959 . S
C1049 H1048 0.961 . S
C1049 H1050 0.960 . S
H1050 C1049 0.960 . S
H1051 N1031 0.862 . S
O1052 Co1020 1.920 . S
O1052 C1025 1.289 . S
C1053 O1045 1.258 . S
C1053 O1046 1.266 . S
Co1054 O1057 1.970 . S
Co1054 N1071 1.989 . S
Co1054 O1079 1.967 . S
Co1054 O1086 1.920 . S
Co1055 O1058 1.966 . S
Co1055 N1064 2.022 . S
Co1055 N1072 1.993 . S
Co1055 O1080 1.941 . S
C1056 O1057 1.258 . S
C1056 O1058 1.263 . S
O1057 Co1054 1.970 . S
O1057 C1056 1.258 . S
O1058 Co1055 1.966 . S
O1058 C1056 1.263 . S
C1059 O1060 1.235 . S
C1059 O1086 1.289 . S
O1060 C1059 1.235 . S
C1061 C1063 1.400 . S
C1061 N1064 1.351 . S
C1061 C1066 1.501 . S
C1062 C1063 1.387 . S
C1062 N1065 1.341 . S
C1063 C1061 1.400 . S
C1063 C1062 1.387 . S
N1064 Co1055 2.022 . S
N1064 C1061 1.351 . S
N1064 N1065 1.365 . S
N1065 C1062 1.341 . S
N1065 N1064 1.365 . S
N1065 H1085 0.862 . S
C1066 C1061 1.501 . S
C1066 H1067 0.961 . S
C1066 H1068 0.961 . S
C1066 H1069 0.960 . S
H1067 C1066 0.961 . S
H1068 C1066 0.961 . S
H1069 C1066 0.960 . S
C1070 N1071 1.342 . S
C1070 C1074 1.401 . S
C1070 C1075 1.499 . S
N1071 Co1054 1.989 . S
N1071 C1070 1.342 . S
N1071 N1072 1.388 . S
N1072 Co1055 1.993 . S
N1072 N1071 1.388 . S
N1072 C1073 1.346 . S
C1073 N1072 1.346 . S
C1073 C1074 1.396 . S
C1073 C1083 1.510 . S
C1074 C1070 1.401 . S
C1074 C1073 1.396 . S
C1075 C1070 1.499 . S
C1075 H1076 0.959 . S
C1075 H1077 0.960 . S
C1075 H1078 0.961 . S
H1076 C1075 0.959 . S
H1077 C1075 0.960 . S
H1078 C1075 0.961 . S
O1079 Co1054 1.967 . S
O1079 C1087 1.258 . S
O1080 Co1055 1.941 . S
O1080 C1087 1.266 . S
H1081 C1083 0.959 . S
H1082 C1083 0.961 . S
C1083 C1073 1.510 . S
C1083 H1081 0.959 . S
C1083 H1082 0.961 . S
C1083 H1084 0.960 . S
H1084 C1083 0.960 . S
H1085 N1065 0.862 . S
O1086 Co1054 1.920 . S
O1086 C1059 1.289 . S
C1087 O1079 1.258 . S
C1087 O1080 1.266 . S
Co1088 O1091 1.970 . S
Co1088 N1105 1.989 . S
Co1088 O1113 1.967 . S
Co1088 O1120 1.920 . S
Co1089 O1092 1.966 . S
Co1089 N1098 2.022 . S
Co1089 N1106 1.993 . S
Co1089 O1114 1.941 . S
C1090 O1091 1.258 . S
C1090 O1092 1.263 . S
O1091 Co1088 1.970 . S
O1091 C1090 1.258 . S
O1092 Co1089 1.966 . S
O1092 C1090 1.263 . S
C1093 O1094 1.235 . S
C1093 O1120 1.289 . S
O1094 C1093 1.235 . S
C1095 C1097 1.400 . S
C1095 N1098 1.351 . S
C1095 C1100 1.501 . S
C1096 C1097 1.387 . S
C1096 N1099 1.341 . S
C1097 C1095 1.400 . S
C1097 C1096 1.387 . S
N1098 Co1089 2.022 . S
N1098 C1095 1.351 . S
N1098 N1099 1.365 . S
N1099 C1096 1.341 . S
N1099 N1098 1.365 . S
N1099 H1119 0.862 . S
C1100 C1095 1.501 . S
C1100 H1101 0.961 . S
C1100 H1102 0.961 . S
C1100 H1103 0.960 . S
H1101 C1100 0.961 . S
H1102 C1100 0.961 . S
H1103 C1100 0.960 . S
C1104 N1105 1.342 . S
C1104 C1108 1.401 . S
C1104 C1109 1.499 . S
N1105 Co1088 1.989 . S
N1105 C1104 1.342 . S
N1105 N1106 1.388 . S
N1106 Co1089 1.993 . S
N1106 N1105 1.388 . S
N1106 C1107 1.346 . S
C1107 N1106 1.346 . S
C1107 C1108 1.396 . S
C1107 C1117 1.510 . S
C1108 C1104 1.401 . S
C1108 C1107 1.396 . S
C1109 C1104 1.499 . S
C1109 H1110 0.959 . S
C1109 H1111 0.960 . S
C1109 H1112 0.961 . S
H1110 C1109 0.959 . S
H1111 C1109 0.960 . S
H1112 C1109 0.961 . S
O1113 Co1088 1.967 . S
O1113 C1121 1.258 . S
O1114 Co1089 1.941 . S
O1114 C1121 1.266 . S
H1115 C1117 0.959 . S
H1116 C1117 0.961 . S
C1117 C1107 1.510 . S
C1117 H1115 0.959 . S
C1117 H1116 0.961 . S
C1117 H1118 0.960 . S
H1118 C1117 0.960 . S
H1119 N1099 0.862 . S
O1120 Co1088 1.920 . S
O1120 C1093 1.289 . S
C1121 O1113 1.258 . S
C1121 O1114 1.266 . S
Co1122 O1125 1.970 . S
Co1122 N1139 1.989 . S
Co1122 O1147 1.967 . S
Co1122 O1154 1.920 1_556 S
Co1123 O1126 1.966 . S
Co1123 N1132 2.022 . S
Co1123 N1140 1.993 . S
Co1123 O1148 1.941 . S
C1124 O1125 1.258 . S
C1124 O1126 1.263 . S
O1125 Co1122 1.970 . S
O1125 C1124 1.258 . S
O1126 Co1123 1.966 . S
O1126 C1124 1.263 . S
C1127 O1128 1.235 . S
C1127 O1154 1.289 . S
O1128 C1127 1.235 . S
C1129 C1131 1.400 . S
C1129 N1132 1.351 . S
C1129 C1134 1.501 . S
C1130 C1131 1.387 . S
C1130 N1133 1.341 . S
C1131 C1129 1.400 . S
C1131 C1130 1.387 . S
N1132 Co1123 2.022 . S
N1132 C1129 1.351 . S
N1132 N1133 1.365 . S
N1133 C1130 1.341 . S
N1133 N1132 1.365 . S
N1133 H1153 0.862 . S
C1134 C1129 1.501 . S
C1134 H1135 0.961 . S
C1134 H1136 0.961 . S
C1134 H1137 0.960 . S
H1135 C1134 0.961 . S
H1136 C1134 0.961 . S
H1137 C1134 0.960 . S
C1138 N1139 1.342 . S
C1138 C1142 1.401 . S
C1138 C1143 1.499 1_556 S
N1139 Co1122 1.989 . S
N1139 C1138 1.342 . S
N1139 N1140 1.388 . S
N1140 Co1123 1.993 . S
N1140 N1139 1.388 . S
N1140 C1141 1.346 . S
C1141 N1140 1.346 . S
C1141 C1142 1.396 . S
C1141 C1151 1.510 . S
C1142 C1138 1.401 . S
C1142 C1141 1.396 . S
C1143 C1138 1.499 1_554 S
C1143 H1144 0.959 . S
C1143 H1145 0.960 . S
C1143 H1146 0.961 . S
H1144 C1143 0.959 . S
H1145 C1143 0.960 . S
H1146 C1143 0.961 . S
O1147 Co1122 1.967 . S
O1147 C1155 1.258 . S
O1148 Co1123 1.941 . S
O1148 C1155 1.266 . S
H1149 C1151 0.959 . S
H1150 C1151 0.961 . S
C1151 C1141 1.510 . S
C1151 H1149 0.959 . S
C1151 H1150 0.961 . S
C1151 H1152 0.960 . S
H1152 C1151 0.960 . S
H1153 N1133 0.862 . S
O1154 Co1122 1.920 1_554 S
O1154 C1127 1.289 . S
C1155 O1147 1.258 . S
C1155 O1148 1.266 . S
Co1156 O1159 1.970 . S
Co1156 N1173 1.989 . S
Co1156 O1181 1.967 . S
Co1156 O1188 1.920 1_556 S
Co1157 O1160 1.966 . S
Co1157 N1166 2.022 . S
Co1157 N1174 1.993 . S
Co1157 O1182 1.941 . S
C1158 O1159 1.258 . S
C1158 O1160 1.263 . S
O1159 Co1156 1.970 . S
O1159 C1158 1.258 . S
O1160 Co1157 1.966 . S
O1160 C1158 1.263 . S
C1161 O1162 1.235 . S
C1161 O1188 1.289 . S
O1162 C1161 1.235 . S
C1163 C1165 1.400 . S
C1163 N1166 1.351 . S
C1163 C1168 1.501 . S
C1164 C1165 1.387 . S
C1164 N1167 1.341 . S
C1165 C1163 1.400 . S
C1165 C1164 1.387 . S
N1166 Co1157 2.022 . S
N1166 C1163 1.351 . S
N1166 N1167 1.365 . S
N1167 C1164 1.341 . S
N1167 N1166 1.365 . S
N1167 H1187 0.862 . S
C1168 C1163 1.501 . S
C1168 H1169 0.961 . S
C1168 H1170 0.961 . S
C1168 H1171 0.960 . S
H1169 C1168 0.961 . S
H1170 C1168 0.961 . S
H1171 C1168 0.960 . S
C1172 N1173 1.342 . S
C1172 C1176 1.401 . S
C1172 C1177 1.499 1_556 S
N1173 Co1156 1.989 . S
N1173 C1172 1.342 . S
N1173 N1174 1.388 . S
N1174 Co1157 1.993 . S
N1174 N1173 1.388 . S
N1174 C1175 1.346 . S
C1175 N1174 1.346 . S
C1175 C1176 1.396 . S
C1175 C1185 1.510 . S
C1176 C1172 1.401 . S
C1176 C1175 1.396 . S
C1177 C1172 1.499 1_554 S
C1177 H1178 0.959 . S
C1177 H1179 0.960 . S
C1177 H1180 0.961 . S
H1178 C1177 0.959 . S
H1179 C1177 0.960 . S
H1180 C1177 0.961 . S
O1181 Co1156 1.967 . S
O1181 C1189 1.258 . S
O1182 Co1157 1.941 . S
O1182 C1189 1.266 . S
H1183 C1185 0.959 . S
H1184 C1185 0.961 . S
C1185 C1175 1.510 . S
C1185 H1183 0.959 . S
C1185 H1184 0.961 . S
C1185 H1186 0.960 . S
H1186 C1185 0.960 . S
H1187 N1167 0.862 . S
O1188 Co1156 1.920 1_554 S
O1188 C1161 1.289 . S
C1189 O1181 1.258 . S
C1189 O1182 1.266 . S
Co1190 O1193 1.970 . S
Co1190 N1207 1.989 . S
Co1190 O1215 1.967 . S
Co1190 O1222 1.920 1_556 S
Co1191 O1194 1.966 . S
Co1191 N1200 2.022 . S
Co1191 N1208 1.993 . S
Co1191 O1216 1.941 . S
C1192 O1193 1.258 . S
C1192 O1194 1.263 . S
O1193 Co1190 1.970 . S
O1193 C1192 1.258 . S
O1194 Co1191 1.966 . S
O1194 C1192 1.263 . S
C1195 O1196 1.235 . S
C1195 O1222 1.289 . S
O1196 C1195 1.235 . S
C1197 C1199 1.400 . S
C1197 N1200 1.351 . S
C1197 C1202 1.501 . S
C1198 C1199 1.387 . S
C1198 N1201 1.341 . S
C1199 C1197 1.400 . S
C1199 C1198 1.387 . S
N1200 Co1191 2.022 . S
N1200 C1197 1.351 . S
N1200 N1201 1.365 . S
N1201 C1198 1.341 . S
N1201 N1200 1.365 . S
N1201 H1221 0.862 . S
C1202 C1197 1.501 . S
C1202 H1203 0.961 . S
C1202 H1204 0.961 . S
C1202 H1205 0.960 . S
H1203 C1202 0.961 . S
H1204 C1202 0.961 . S
H1205 C1202 0.960 . S
C1206 N1207 1.342 . S
C1206 C1210 1.401 . S
C1206 C1211 1.499 1_556 S
N1207 Co1190 1.989 . S
N1207 C1206 1.342 . S
N1207 N1208 1.388 . S
N1208 Co1191 1.993 . S
N1208 N1207 1.388 . S
N1208 C1209 1.346 . S
C1209 N1208 1.346 . S
C1209 C1210 1.396 . S
C1209 C1219 1.510 . S
C1210 C1206 1.401 . S
C1210 C1209 1.396 . S
C1211 C1206 1.499 1_554 S
C1211 H1212 0.959 . S
C1211 H1213 0.960 . S
C1211 H1214 0.961 . S
H1212 C1211 0.959 . S
H1213 C1211 0.960 . S
H1214 C1211 0.961 . S
O1215 Co1190 1.967 . S
O1215 C1223 1.258 . S
O1216 Co1191 1.941 . S
O1216 C1223 1.266 . S
H1217 C1219 0.959 . S
H1218 C1219 0.961 . S
C1219 C1209 1.510 . S
C1219 H1217 0.959 . S
C1219 H1218 0.961 . S
C1219 H1220 0.960 . S
H1220 C1219 0.960 . S
H1221 N1201 0.862 . S
O1222 Co1190 1.920 1_554 S
O1222 C1195 1.289 . S
C1223 O1215 1.258 . S
C1223 O1216 1.266 . S
H1224 C1230 0.930 . S
H1225 C1233 0.930 . S
H1226 C1234 0.930 . S
H1227 C1235 0.930 . S
H1228 C1238 0.930 . S
H1229 C1239 0.930 . S
C1230 H1224 0.930 . S
C1230 C1231 1.355 . S
C1230 C1232 1.415 . S
C1231 C1230 1.355 . S
C1231 C1233 1.419 . S
C1232 C1230 1.415 . S
C1232 C1237 1.425 . S
C1232 C1239 1.409 . S
C1233 H1225 0.930 . S
C1233 C1231 1.419 . S
C1233 C1234 1.362 . S
C1234 H1226 0.930 . S
C1234 C1233 1.362 . S
C1234 C1237 1.409 . S
C1235 H1227 0.930 . S
C1235 C1236 1.355 . S
C1235 C1237 1.415 . S
C1236 C1235 1.355 . S
C1236 C1238 1.419 . S
C1237 C1232 1.425 . S
C1237 C1234 1.409 . S
C1237 C1235 1.415 . S
C1238 H1228 0.930 . S
C1238 C1236 1.419 . S
C1238 C1239 1.362 . S
C1239 H1229 0.930 . S
C1239 C1232 1.409 . S
C1239 C1238 1.362 . S
H1240 C1246 0.930 . S
H1241 C1249 0.930 . S
H1242 C1250 0.930 . S
H1243 C1251 0.930 . S
H1244 C1254 0.930 . S
H1245 C1255 0.930 . S
C1246 H1240 0.930 . S
C1246 C1247 1.355 . S
C1246 C1248 1.415 . S
C1247 C1246 1.355 . S
C1247 C1249 1.419 . S
C1248 C1246 1.415 . S
C1248 C1253 1.425 . S
C1248 C1255 1.409 . S
C1249 H1241 0.930 . S
C1249 C1247 1.419 . S
C1249 C1250 1.362 . S
C1250 H1242 0.930 . S
C1250 C1249 1.362 . S
C1250 C1253 1.409 . S
C1251 H1243 0.930 . S
C1251 C1252 1.355 . S
C1251 C1253 1.415 . S
C1252 C1251 1.355 . S
C1252 C1254 1.419 . S
C1253 C1248 1.425 . S
C1253 C1250 1.409 . S
C1253 C1251 1.415 . S
C1254 H1244 0.930 . S
C1254 C1252 1.419 . S
C1254 C1255 1.362 . S
C1255 H1245 0.930 . S
C1255 C1248 1.409 . S
C1255 C1254 1.362 . S
H1256 C1262 0.930 . S
H1257 C1265 0.930 . S
H1258 C1266 0.930 . S
H1259 C1267 0.930 . S
H1260 C1270 0.930 . S
H1261 C1271 0.930 . S
C1262 H1256 0.930 . S
C1262 C1263 1.355 . S
C1262 C1264 1.415 . S
C1263 C1262 1.355 . S
C1263 C1265 1.419 . S
C1264 C1262 1.415 . S
C1264 C1269 1.425 . S
C1264 C1271 1.409 . S
C1265 H1257 0.930 . S
C1265 C1263 1.419 . S
C1265 C1266 1.362 . S
C1266 H1258 0.930 . S
C1266 C1265 1.362 . S
C1266 C1269 1.409 . S
C1267 H1259 0.930 . S
C1267 C1268 1.355 . S
C1267 C1269 1.415 . S
C1268 C1267 1.355 . S
C1268 C1270 1.419 . S
C1269 C1264 1.425 . S
C1269 C1266 1.409 . S
C1269 C1267 1.415 . S
C1270 H1260 0.930 . S
C1270 C1268 1.419 . S
C1270 C1271 1.362 . S
C1271 H1261 0.930 . S
C1271 C1264 1.409 . S
C1271 C1270 1.362 . S
H1272 C1278 0.930 . S
H1273 C1281 0.930 . S
H1274 C1282 0.930 . S
H1275 C1283 0.930 . S
H1276 C1286 0.930 . S
H1277 C1287 0.930 . S
C1278 H1272 0.930 . S
C1278 C1279 1.355 . S
C1278 C1280 1.415 . S
C1279 C1278 1.355 . S
C1279 C1281 1.419 . S
C1280 C1278 1.415 . S
C1280 C1285 1.425 . S
C1280 C1287 1.409 . S
C1281 H1273 0.930 . S
C1281 C1279 1.419 . S
C1281 C1282 1.362 . S
C1282 H1274 0.930 . S
C1282 C1281 1.362 . S
C1282 C1285 1.409 . S
C1283 H1275 0.930 . S
C1283 C1284 1.355 . S
C1283 C1285 1.415 . S
C1284 C1283 1.355 . S
C1284 C1286 1.419 . S
C1285 C1280 1.425 . S
C1285 C1282 1.409 . S
C1285 C1283 1.415 . S
C1286 H1276 0.930 . S
C1286 C1284 1.419 . S
C1286 C1287 1.362 . S
C1287 H1277 0.930 . S
C1287 C1280 1.409 . S
C1287 C1286 1.362 . S
H1288 C1294 0.930 . S
H1289 C1297 0.930 . S
H1290 C1298 0.930 . S
H1291 C1299 0.930 . S
H1292 C1302 0.930 . S
H1293 C1303 0.930 . S
C1294 H1288 0.930 . S
C1294 C1295 1.355 . S
C1294 C1296 1.415 . S
C1295 C1294 1.355 . S
C1295 C1297 1.419 . S
C1296 C1294 1.415 . S
C1296 C1301 1.425 . S
C1296 C1303 1.409 . S
C1297 H1289 0.930 . S
C1297 C1295 1.419 . S
C1297 C1298 1.362 . S
C1298 H1290 0.930 . S
C1298 C1297 1.362 . S
C1298 C1301 1.409 . S
C1299 H1291 0.930 . S
C1299 C1300 1.355 . S
C1299 C1301 1.415 . S
C1300 C1299 1.355 . S
C1300 C1302 1.419 . S
C1301 C1296 1.425 . S
C1301 C1298 1.409 . S
C1301 C1299 1.415 . S
C1302 H1292 0.930 . S
C1302 C1300 1.419 . S
C1302 C1303 1.362 . S
C1303 H1293 0.930 . S
C1303 C1296 1.409 . S
C1303 C1302 1.362 . S
H1304 C1310 0.930 . S
H1305 C1313 0.930 . S
H1306 C1314 0.930 . S
H1307 C1315 0.930 . S
H1308 C1318 0.930 . S
H1309 C1319 0.930 . S
C1310 H1304 0.930 . S
C1310 C1311 1.355 . S
C1310 C1312 1.415 . S
C1311 C1310 1.355 . S
C1311 C1313 1.419 . S
C1312 C1310 1.415 . S
C1312 C1317 1.425 . S
C1312 C1319 1.409 . S
C1313 H1305 0.930 . S
C1313 C1311 1.419 . S
C1313 C1314 1.362 . S
C1314 H1306 0.930 . S
C1314 C1313 1.362 . S
C1314 C1317 1.409 . S
C1315 H1307 0.930 . S
C1315 C1316 1.355 . S
C1315 C1317 1.415 . S
C1316 C1315 1.355 . S
C1316 C1318 1.419 . S
C1317 C1312 1.425 . S
C1317 C1314 1.409 . S
C1317 C1315 1.415 . S
C1318 H1308 0.930 . S
C1318 C1316 1.419 . S
C1318 C1319 1.362 . S
C1319 H1309 0.930 . S
C1319 C1312 1.409 . S
C1319 C1318 1.362 . S
H1320 C1326 0.930 . S
H1321 C1329 0.930 . S
H1322 C1330 0.930 . S
H1323 C1331 0.930 . S
H1324 C1334 0.930 . S
H1325 C1335 0.930 . S
C1326 H1320 0.930 . S
C1326 C1327 1.355 . S
C1326 C1328 1.415 . S
C1327 C1326 1.355 . S
C1327 C1329 1.419 . S
C1328 C1326 1.415 . S
C1328 C1333 1.425 . S
C1328 C1335 1.409 . S
C1329 H1321 0.930 . S
C1329 C1327 1.419 . S
C1329 C1330 1.362 . S
C1330 H1322 0.930 . S
C1330 C1329 1.362 . S
C1330 C1333 1.409 . S
C1331 H1323 0.930 . S
C1331 C1332 1.355 . S
C1331 C1333 1.415 . S
C1332 C1331 1.355 . S
C1332 C1334 1.419 . S
C1333 C1328 1.425 . S
C1333 C1330 1.409 . S
C1333 C1331 1.415 . S
C1334 H1324 0.930 . S
C1334 C1332 1.419 . S
C1334 C1335 1.362 . S
C1335 H1325 0.930 . S
C1335 C1328 1.409 . S
C1335 C1334 1.362 . S
H1336 C1342 0.930 . S
H1337 C1345 0.930 . S
H1338 C1346 0.930 . S
H1339 C1347 0.930 . S
H1340 C1350 0.930 . S
H1341 C1351 0.930 . S
C1342 H1336 0.930 . S
C1342 C1343 1.355 . S
C1342 C1344 1.415 . S
C1343 C1342 1.355 . S
C1343 C1345 1.419 . S
C1344 C1342 1.415 . S
C1344 C1349 1.425 . S
C1344 C1351 1.409 . S
C1345 H1337 0.930 . S
C1345 C1343 1.419 . S
C1345 C1346 1.362 . S
C1346 H1338 0.930 . S
C1346 C1345 1.362 . S
C1346 C1349 1.409 . S
C1347 H1339 0.930 . S
C1347 C1348 1.355 . S
C1347 C1349 1.415 . S
C1348 C1347 1.355 . S
C1348 C1350 1.419 . S
C1349 C1344 1.425 . S
C1349 C1346 1.409 . S
C1349 C1347 1.415 . S
C1350 H1340 0.930 . S
C1350 C1348 1.419 . S
C1350 C1351 1.362 . S
C1351 H1341 0.930 . S
C1351 C1344 1.409 . S
C1351 C1350 1.362 . S
H1352 C1358 0.930 . S
H1353 C1361 0.930 . S
H1354 C1362 0.930 . S
H1355 C1363 0.930 . S
H1356 C1366 0.930 . S
H1357 C1367 0.930 . S
C1358 H1352 0.930 . S
C1358 C1359 1.355 . S
C1358 C1360 1.415 . S
C1359 C1358 1.355 . S
C1359 C1361 1.419 . S
C1360 C1358 1.415 . S
C1360 C1365 1.425 . S
C1360 C1367 1.409 . S
C1361 H1353 0.930 . S
C1361 C1359 1.419 . S
C1361 C1362 1.362 . S
C1362 H1354 0.930 . S
C1362 C1361 1.362 . S
C1362 C1365 1.409 . S
C1363 H1355 0.930 . S
C1363 C1364 1.355 . S
C1363 C1365 1.415 . S
C1364 C1363 1.355 . S
C1364 C1366 1.419 . S
C1365 C1360 1.425 . S
C1365 C1362 1.409 . S
C1365 C1363 1.415 . S
C1366 H1356 0.930 . S
C1366 C1364 1.419 . S
C1366 C1367 1.362 . S
C1367 H1357 0.930 . S
C1367 C1360 1.409 . S
C1367 C1366 1.362 . S
H1368 C1374 0.930 . S
H1369 C1377 0.930 . S
H1370 C1378 0.930 . S
H1371 C1379 0.930 . S
H1372 C1382 0.930 . S
H1373 C1383 0.930 . S
C1374 H1368 0.930 . S
C1374 C1375 1.355 . S
C1374 C1376 1.415 . S
C1375 C1374 1.355 . S
C1375 C1377 1.419 . S
C1376 C1374 1.415 . S
C1376 C1381 1.425 . S
C1376 C1383 1.409 . S
C1377 H1369 0.930 . S
C1377 C1375 1.419 . S
C1377 C1378 1.362 . S
C1378 H1370 0.930 . S
C1378 C1377 1.362 . S
C1378 C1381 1.409 . S
C1379 H1371 0.930 . S
C1379 C1380 1.355 . S
C1379 C1381 1.415 . S
C1380 C1379 1.355 . S
C1380 C1382 1.419 . S
C1381 C1376 1.425 . S
C1381 C1378 1.409 . S
C1381 C1379 1.415 . S
C1382 H1372 0.930 . S
C1382 C1380 1.419 . S
C1382 C1383 1.362 . S
C1383 H1373 0.930 . S
C1383 C1376 1.409 . S
C1383 C1382 1.362 . S
H1384 C1390 0.930 . S
H1385 C1393 0.930 . S
H1386 C1394 0.930 . S
H1387 C1395 0.930 . S
H1388 C1398 0.930 . S
H1389 C1399 0.930 . S
C1390 H1384 0.930 . S
C1390 C1391 1.355 . S
C1390 C1392 1.415 . S
C1391 C1390 1.355 . S
C1391 C1393 1.419 . S
C1392 C1390 1.415 . S
C1392 C1397 1.425 . S
C1392 C1399 1.409 . S
C1393 H1385 0.930 . S
C1393 C1391 1.419 . S
C1393 C1394 1.362 . S
C1394 H1386 0.930 . S
C1394 C1393 1.362 . S
C1394 C1397 1.409 . S
C1395 H1387 0.930 . S
C1395 C1396 1.355 . S
C1395 C1397 1.415 . S
C1396 C1395 1.355 . S
C1396 C1398 1.419 . S
C1397 C1392 1.425 . S
C1397 C1394 1.409 . S
C1397 C1395 1.415 . S
C1398 H1388 0.930 . S
C1398 C1396 1.419 . S
C1398 C1399 1.362 . S
C1399 H1389 0.930 . S
C1399 C1392 1.409 . S
C1399 C1398 1.362 . S
H1400 C1406 0.930 . S
H1401 C1409 0.930 . S
H1402 C1410 0.930 . S
H1403 C1411 0.930 . S
H1404 C1414 0.930 . S
H1405 C1415 0.930 . S
C1406 H1400 0.930 . S
C1406 C1407 1.355 . S
C1406 C1408 1.415 . S
C1407 C1406 1.355 . S
C1407 C1409 1.419 . S
C1408 C1406 1.415 . S
C1408 C1413 1.425 . S
C1408 C1415 1.409 . S
C1409 H1401 0.930 . S
C1409 C1407 1.419 . S
C1409 C1410 1.362 . S
C1410 H1402 0.930 . S
C1410 C1409 1.362 . S
C1410 C1413 1.409 . S
C1411 H1403 0.930 . S
C1411 C1412 1.355 . S
C1411 C1413 1.415 . S
C1412 C1411 1.355 . S
C1412 C1414 1.419 . S
C1413 C1408 1.425 . S
C1413 C1410 1.409 . S
C1413 C1411 1.415 . S
C1414 H1404 0.930 . S
C1414 C1412 1.419 . S
C1414 C1415 1.362 . S
C1415 H1405 0.930 . S
C1415 C1408 1.409 . S
C1415 C1414 1.362 . S
H1416 C1422 0.930 . S
H1417 C1425 0.930 . S
H1418 C1426 0.930 . S
H1419 C1427 0.930 . S
H1420 C1430 0.930 . S
H1421 C1431 0.930 . S
C1422 H1416 0.930 . S
C1422 C1423 1.355 . S
C1422 C1424 1.415 . S
C1423 C1422 1.355 . S
C1423 C1425 1.419 . S
C1424 C1422 1.415 . S
C1424 C1429 1.425 . S
C1424 C1431 1.409 . S
C1425 H1417 0.930 . S
C1425 C1423 1.419 . S
C1425 C1426 1.362 . S
C1426 H1418 0.930 . S
C1426 C1425 1.362 . S
C1426 C1429 1.409 . S
C1427 H1419 0.930 . S
C1427 C1428 1.355 . S
C1427 C1429 1.415 . S
C1428 C1427 1.355 . S
C1428 C1430 1.419 . S
C1429 C1424 1.425 . S
C1429 C1426 1.409 . S
C1429 C1427 1.415 . S
C1430 H1420 0.930 . S
C1430 C1428 1.419 . S
C1430 C1431 1.362 . S
C1431 H1421 0.930 . S
C1431 C1424 1.409 . S
C1431 C1430 1.362 . S
H1432 C1438 0.930 . S
H1433 C1441 0.930 . S
H1434 C1442 0.930 . S
H1435 C1443 0.930 . S
H1436 C1446 0.930 . S
H1437 C1447 0.930 . S
C1438 H1432 0.930 . S
C1438 C1439 1.355 . S
C1438 C1440 1.415 . S
C1439 C1438 1.355 . S
C1439 C1441 1.419 . S
C1440 C1438 1.415 . S
C1440 C1445 1.425 1_565 S
C1440 C1447 1.409 1_565 S
C1441 H1433 0.930 . S
C1441 C1439 1.419 . S
C1441 C1442 1.362 . S
C1442 H1434 0.930 . S
C1442 C1441 1.362 . S
C1442 C1445 1.409 1_565 S
C1443 H1435 0.930 . S
C1443 C1444 1.355 . S
C1443 C1445 1.415 . S
C1444 C1443 1.355 . S
C1444 C1446 1.419 . S
C1445 C1440 1.425 1_545 S
C1445 C1442 1.409 1_545 S
C1445 C1443 1.415 . S
C1446 H1436 0.930 . S
C1446 C1444 1.419 . S
C1446 C1447 1.362 . S
C1447 H1437 0.930 . S
C1447 C1440 1.409 1_545 S
C1447 C1446 1.362 . S
H1448 C1454 0.930 . S
H1449 C1457 0.930 . S
H1450 C1458 0.930 . S
H1451 C1459 0.930 . S
H1452 C1462 0.930 . S
H1453 C1463 0.930 . S
C1454 H1448 0.930 . S
C1454 C1455 1.355 . S
C1454 C1456 1.415 . S
C1455 C1454 1.355 . S
C1455 C1457 1.419 . S
C1456 C1454 1.415 . S
C1456 C1461 1.425 1_655 S
C1456 C1463 1.409 1_655 S
C1457 H1449 0.930 . S
C1457 C1455 1.419 . S
C1457 C1458 1.362 . S
C1458 H1450 0.930 . S
C1458 C1457 1.362 . S
C1458 C1461 1.409 1_655 S
C1459 H1451 0.930 . S
C1459 C1460 1.355 . S
C1459 C1461 1.415 . S
C1460 C1459 1.355 . S
C1460 C1462 1.419 . S
C1461 C1456 1.425 1_455 S
C1461 C1458 1.409 1_455 S
C1461 C1459 1.415 . S
C1462 H1452 0.930 . S
C1462 C1460 1.419 . S
C1462 C1463 1.362 . S
C1463 H1453 0.930 . S
C1463 C1456 1.409 1_455 S
C1463 C1462 1.362 . S
H1464 C1470 0.930 . S
H1465 C1473 0.930 . S
H1466 C1474 0.930 . S
H1467 C1475 0.930 . S
H1468 C1478 0.930 . S
H1469 C1479 0.930 . S
C1470 H1464 0.930 . S
C1470 C1471 1.355 . S
C1470 C1472 1.415 . S
C1471 C1470 1.355 . S
C1471 C1473 1.419 . S
C1472 C1470 1.415 . S
C1472 C1477 1.425 . S
C1472 C1479 1.409 . S
C1473 H1465 0.930 . S
C1473 C1471 1.419 . S
C1473 C1474 1.362 . S
C1474 H1466 0.930 . S
C1474 C1473 1.362 . S
C1474 C1477 1.409 . S
C1475 H1467 0.930 . S
C1475 C1476 1.355 . S
C1475 C1477 1.415 . S
C1476 C1475 1.355 . S
C1476 C1478 1.419 . S
C1477 C1472 1.425 . S
C1477 C1474 1.409 . S
C1477 C1475 1.415 . S
C1478 H1468 0.930 . S
C1478 C1476 1.419 . S
C1478 C1479 1.362 . S
C1479 H1469 0.930 . S
C1479 C1472 1.409 . S
C1479 C1478 1.362 . S
H1480 C1486 0.930 . S
H1481 C1489 0.930 . S
H1482 C1490 0.930 . S
H1483 C1491 0.930 . S
H1484 C1494 0.930 . S
H1485 C1495 0.930 . S
C1486 H1480 0.930 . S
C1486 C1487 1.355 . S
C1486 C1488 1.415 . S
C1487 C1486 1.355 . S
C1487 C1489 1.419 . S
C1488 C1486 1.415 . S
C1488 C1493 1.425 1_565 S
C1488 C1495 1.409 1_565 S
C1489 H1481 0.930 . S
C1489 C1487 1.419 . S
C1489 C1490 1.362 . S
C1490 H1482 0.930 . S
C1490 C1489 1.362 . S
C1490 C1493 1.409 1_565 S
C1491 H1483 0.930 . S
C1491 C1492 1.355 . S
C1491 C1493 1.415 . S
C1492 C1491 1.355 . S
C1492 C1494 1.419 . S
C1493 C1488 1.425 1_545 S
C1493 C1490 1.409 1_545 S
C1493 C1491 1.415 . S
C1494 H1484 0.930 . S
C1494 C1492 1.419 . S
C1494 C1495 1.362 . S
C1495 H1485 0.930 . S
C1495 C1488 1.409 1_545 S
C1495 C1494 1.362 . S
H1496 C1502 0.930 . S
H1497 C1505 0.930 . S
H1498 C1506 0.931 . S
H1499 C1507 0.930 . S
H1500 C1510 0.930 . S
H1501 C1511 0.931 . S
C1502 H1496 0.930 . S
C1502 C1503 1.355 . S
C1502 C1504 1.415 . S
C1503 C1502 1.355 . S
C1503 C1505 1.419 . S
C1504 C1502 1.415 . S
C1504 C1509 1.425 1_655 S
C1504 C1511 1.409 1_655 S
C1505 H1497 0.930 . S
C1505 C1503 1.419 . S
C1505 C1506 1.362 . S
C1506 H1498 0.931 . S
C1506 C1505 1.362 . S
C1506 C1509 1.409 1_655 S
C1507 H1499 0.930 . S
C1507 C1508 1.355 . S
C1507 C1509 1.415 . S
C1508 C1507 1.355 . S
C1508 C1510 1.419 . S
C1509 C1504 1.425 1_455 S
C1509 C1506 1.409 1_455 S
C1509 C1507 1.415 . S
C1510 H1500 0.930 . S
C1510 C1508 1.419 . S
C1510 C1511 1.362 . S
C1511 H1501 0.931 . S
C1511 C1504 1.409 1_455 S
C1511 C1510 1.362 . S
H1512 C1518 0.930 . S
H1513 C1521 0.930 . S
H1514 C1522 0.930 . S
H1515 C1523 0.930 . S
H1516 C1526 0.930 . S
H1517 C1527 0.930 . S
C1518 H1512 0.930 . S
C1518 C1519 1.355 . S
C1518 C1520 1.415 . S
C1519 C1518 1.355 . S
C1519 C1521 1.419 . S
C1520 C1518 1.415 . S
C1520 C1525 1.425 . S
C1520 C1527 1.409 . S
C1521 H1513 0.930 . S
C1521 C1519 1.419 . S
C1521 C1522 1.362 . S
C1522 H1514 0.930 . S
C1522 C1521 1.362 . S
C1522 C1525 1.409 . S
C1523 H1515 0.930 . S
C1523 C1524 1.355 . S
C1523 C1525 1.415 . S
C1524 C1523 1.355 . S
C1524 C1526 1.419 . S
C1525 C1520 1.425 . S
C1525 C1522 1.409 . S
C1525 C1523 1.415 . S
C1526 H1516 0.930 . S
C1526 C1524 1.419 . S
C1526 C1527 1.362 . S
C1527 H1517 0.930 . S
C1527 C1520 1.409 . S
C1527 C1526 1.362 . S
H1528 C1534 0.930 . S
H1529 C1537 0.930 . S
H1530 C1538 0.930 . S
H1531 C1539 0.930 . S
H1532 C1542 0.930 . S
H1533 C1543 0.930 . S
C1534 H1528 0.930 . S
C1534 C1535 1.355 . S
C1534 C1536 1.415 . S
C1535 C1534 1.355 . S
C1535 C1537 1.419 . S
C1536 C1534 1.415 . S
C1536 C1541 1.425 . S
C1536 C1543 1.409 . S
C1537 H1529 0.930 . S
C1537 C1535 1.419 . S
C1537 C1538 1.362 . S
C1538 H1530 0.930 . S
C1538 C1537 1.362 . S
C1538 C1541 1.409 . S
C1539 H1531 0.930 . S
C1539 C1540 1.355 . S
C1539 C1541 1.415 . S
C1540 C1539 1.355 . S
C1540 C1542 1.419 . S
C1541 C1536 1.425 . S
C1541 C1538 1.409 . S
C1541 C1539 1.415 . S
C1542 H1532 0.930 . S
C1542 C1540 1.419 . S
C1542 C1543 1.362 . S
C1543 H1533 0.930 . S
C1543 C1536 1.409 . S
C1543 C1542 1.362 . S
H1544 C1550 0.930 . S
H1545 C1553 0.930 . S
H1546 C1554 0.930 . S
H1547 C1555 0.930 . S
H1548 C1558 0.930 . S
H1549 C1559 0.930 . S
C1550 H1544 0.930 . S
C1550 C1551 1.355 . S
C1550 C1552 1.415 . S
C1551 C1550 1.355 . S
C1551 C1553 1.419 . S
C1552 C1550 1.415 . S
C1552 C1557 1.425 . S
C1552 C1559 1.409 . S
C1553 H1545 0.930 . S
C1553 C1551 1.419 . S
C1553 C1554 1.362 . S
C1554 H1546 0.930 . S
C1554 C1553 1.362 . S
C1554 C1557 1.409 . S
C1555 H1547 0.930 . S
C1555 C1556 1.355 . S
C1555 C1557 1.415 . S
C1556 C1555 1.355 . S
C1556 C1558 1.419 . S
C1557 C1552 1.425 . S
C1557 C1554 1.409 . S
C1557 C1555 1.415 . S
C1558 H1548 0.930 . S
C1558 C1556 1.419 . S
C1558 C1559 1.362 . S
C1559 H1549 0.930 . S
C1559 C1552 1.409 . S
C1559 C1558 1.362 . S
H1560 C1566 0.930 . S
H1561 C1569 0.930 . S
H1562 C1570 0.930 . S
H1563 C1571 0.930 . S
H1564 C1574 0.930 . S
H1565 C1575 0.930 . S
C1566 H1560 0.930 . S
C1566 C1567 1.355 . S
C1566 C1568 1.415 . S
C1567 C1566 1.355 . S
C1567 C1569 1.419 . S
C1568 C1566 1.415 . S
C1568 C1573 1.425 . S
C1568 C1575 1.409 . S
C1569 H1561 0.930 . S
C1569 C1567 1.419 . S
C1569 C1570 1.362 . S
C1570 H1562 0.930 . S
C1570 C1569 1.362 . S
C1570 C1573 1.409 . S
C1571 H1563 0.930 . S
C1571 C1572 1.355 . S
C1571 C1573 1.415 . S
C1572 C1571 1.355 . S
C1572 C1574 1.419 . S
C1573 C1568 1.425 . S
C1573 C1570 1.409 . S
C1573 C1571 1.415 . S
C1574 H1564 0.930 . S
C1574 C1572 1.419 . S
C1574 C1575 1.362 . S
C1575 H1565 0.930 . S
C1575 C1568 1.409 . S
C1575 C1574 1.362 . S
H1576 C1582 0.930 . S
H1577 C1585 0.930 . S
H1578 C1586 0.930 . S
H1579 C1587 0.930 . S
H1580 C1590 0.930 . S
H1581 C1591 0.930 . S
C1582 H1576 0.930 . S
C1582 C1583 1.355 . S
C1582 C1584 1.415 . S
C1583 C1582 1.355 . S
C1583 C1585 1.419 . S
C1584 C1582 1.415 . S
C1584 C1589 1.425 . S
C1584 C1591 1.409 . S
C1585 H1577 0.930 . S
C1585 C1583 1.419 . S
C1585 C1586 1.362 . S
C1586 H1578 0.930 . S
C1586 C1585 1.362 . S
C1586 C1589 1.409 . S
C1587 H1579 0.930 . S
C1587 C1588 1.355 . S
C1587 C1589 1.415 . S
C1588 C1587 1.355 . S
C1588 C1590 1.419 . S
C1589 C1584 1.425 . S
C1589 C1586 1.409 . S
C1589 C1587 1.415 . S
C1590 H1580 0.930 . S
C1590 C1588 1.419 . S
C1590 C1591 1.362 . S
C1591 H1581 0.930 . S
C1591 C1584 1.409 . S
C1591 C1590 1.362 . S
H1592 C1598 0.930 . S
H1593 C1601 0.930 . S
H1594 C1602 0.930 . S
H1595 C1603 0.930 . S
H1596 C1606 0.930 . S
H1597 C1607 0.930 . S
C1598 H1592 0.930 . S
C1598 C1599 1.355 . S
C1598 C1600 1.415 . S
C1599 C1598 1.355 . S
C1599 C1601 1.419 . S
C1600 C1598 1.415 . S
C1600 C1605 1.425 . S
C1600 C1607 1.409 . S
C1601 H1593 0.930 . S
C1601 C1599 1.419 . S
C1601 C1602 1.362 . S
C1602 H1594 0.930 . S
C1602 C1601 1.362 . S
C1602 C1605 1.409 . S
C1603 H1595 0.930 . S
C1603 C1604 1.355 . S
C1603 C1605 1.415 . S
C1604 C1603 1.355 . S
C1604 C1606 1.419 . S
C1605 C1600 1.425 . S
C1605 C1602 1.409 . S
C1605 C1603 1.415 . S
C1606 H1596 0.930 . S
C1606 C1604 1.419 . S
C1606 C1607 1.362 . S
C1607 H1597 0.930 . S
C1607 C1600 1.409 . S
C1607 C1606 1.362 . S
H1608 C1614 0.930 . S
H1609 C1617 0.930 . S
H1610 C1618 0.930 . S
H1611 C1619 0.930 . S
H1612 C1622 0.930 . S
H1613 C1623 0.930 . S
C1614 H1608 0.930 . S
C1614 C1615 1.355 . S
C1614 C1616 1.415 . S
C1615 C1614 1.355 . S
C1615 C1617 1.419 . S
C1616 C1614 1.415 . S
C1616 C1621 1.425 . S
C1616 C1623 1.409 . S
C1617 H1609 0.930 . S
C1617 C1615 1.419 . S
C1617 C1618 1.362 . S
C1618 H1610 0.930 . S
C1618 C1617 1.362 . S
C1618 C1621 1.409 . S
C1619 H1611 0.930 . S
C1619 C1620 1.355 . S
C1619 C1621 1.415 . S
C1620 C1619 1.355 . S
C1620 C1622 1.419 . S
C1621 C1616 1.425 . S
C1621 C1618 1.409 . S
C1621 C1619 1.415 . S
C1622 H1612 0.930 . S
C1622 C1620 1.419 . S
C1622 C1623 1.362 . S
C1623 H1613 0.930 . S
C1623 C1616 1.409 . S
C1623 C1622 1.362 . S
H1624 C1630 0.930 . S
H1625 C1633 0.930 . S
H1626 C1634 0.930 . S
H1627 C1635 0.930 . S
H1628 C1638 0.930 . S
H1629 C1639 0.930 . S
C1630 H1624 0.930 . S
C1630 C1631 1.355 . S
C1630 C1632 1.415 . S
C1631 C1630 1.355 . S
C1631 C1633 1.419 . S
C1632 C1630 1.415 . S
C1632 C1637 1.425 . S
C1632 C1639 1.409 . S
C1633 H1625 0.930 . S
C1633 C1631 1.419 . S
C1633 C1634 1.362 . S
C1634 H1626 0.930 . S
C1634 C1633 1.362 . S
C1634 C1637 1.409 . S
C1635 H1627 0.930 . S
C1635 C1636 1.355 . S
C1635 C1637 1.415 . S
C1636 C1635 1.355 . S
C1636 C1638 1.419 . S
C1637 C1632 1.425 . S
C1637 C1634 1.409 . S
C1637 C1635 1.415 . S
C1638 H1628 0.930 . S
C1638 C1636 1.419 . S
C1638 C1639 1.362 . S
C1639 H1629 0.930 . S
C1639 C1632 1.409 . S
C1639 C1638 1.362 . S
H1640 C1646 0.930 . S
H1641 C1649 0.930 . S
H1642 C1650 0.930 . S
H1643 C1651 0.930 . S
H1644 C1654 0.930 . S
H1645 C1655 0.930 . S
C1646 H1640 0.930 . S
C1646 C1647 1.355 . S
C1646 C1648 1.415 . S
C1647 C1646 1.355 . S
C1647 C1649 1.419 . S
C1648 C1646 1.415 . S
C1648 C1653 1.425 . S
C1648 C1655 1.409 . S
C1649 H1641 0.930 . S
C1649 C1647 1.419 . S
C1649 C1650 1.362 . S
C1650 H1642 0.930 . S
C1650 C1649 1.362 . S
C1650 C1653 1.409 . S
C1651 H1643 0.930 . S
C1651 C1652 1.355 . S
C1651 C1653 1.415 . S
C1652 C1651 1.355 . S
C1652 C1654 1.419 . S
C1653 C1648 1.425 . S
C1653 C1650 1.409 . S
C1653 C1651 1.415 . S
C1654 H1644 0.930 . S
C1654 C1652 1.419 . S
C1654 C1655 1.362 . S
C1655 H1645 0.930 . S
C1655 C1648 1.409 . S
C1655 C1654 1.362 . S
H1656 C1662 0.930 . S
H1657 C1665 0.930 . S
H1658 C1666 0.930 . S
H1659 C1667 0.930 . S
H1660 C1670 0.930 . S
H1661 C1671 0.930 . S
C1662 H1656 0.930 . S
C1662 C1663 1.355 . S
C1662 C1664 1.415 . S
C1663 C1662 1.355 . S
C1663 C1665 1.419 . S
C1664 C1662 1.415 . S
C1664 C1669 1.425 . S
C1664 C1671 1.409 . S
C1665 H1657 0.930 . S
C1665 C1663 1.419 . S
C1665 C1666 1.362 . S
C1666 H1658 0.930 . S
C1666 C1665 1.362 . S
C1666 C1669 1.409 . S
C1667 H1659 0.930 . S
C1667 C1668 1.355 . S
C1667 C1669 1.415 . S
C1668 C1667 1.355 . S
C1668 C1670 1.419 . S
C1669 C1664 1.425 . S
C1669 C1666 1.409 . S
C1669 C1667 1.415 . S
C1670 H1660 0.930 . S
C1670 C1668 1.419 . S
C1670 C1671 1.362 . S
C1671 H1661 0.930 . S
C1671 C1664 1.409 . S
C1671 C1670 1.362 . S
H1672 C1678 0.930 . S
H1673 C1681 0.930 . S
H1674 C1682 0.930 . S
H1675 C1683 0.930 . S
H1676 C1686 0.930 . S
H1677 C1687 0.930 . S
C1678 H1672 0.930 . S
C1678 C1679 1.355 . S
C1678 C1680 1.415 . S
C1679 C1678 1.355 . S
C1679 C1681 1.419 . S
C1680 C1678 1.415 . S
C1680 C1685 1.425 . S
C1680 C1687 1.409 . S
C1681 H1673 0.930 . S
C1681 C1679 1.419 . S
C1681 C1682 1.362 . S
C1682 H1674 0.930 . S
C1682 C1681 1.362 . S
C1682 C1685 1.409 . S
C1683 H1675 0.930 . S
C1683 C1684 1.355 . S
C1683 C1685 1.415 . S
C1684 C1683 1.355 . S
C1684 C1686 1.419 . S
C1685 C1680 1.425 . S
C1685 C1682 1.409 . S
C1685 C1683 1.415 . S
C1686 H1676 0.930 . S
C1686 C1684 1.419 . S
C1686 C1687 1.362 . S
C1687 H1677 0.930 . S
C1687 C1680 1.409 . S
C1687 C1686 1.362 . S
H1688 C1694 0.930 . S
H1689 C1697 0.930 . S
H1690 C1698 0.930 . S
H1691 C1699 0.930 . S
H1692 C1702 0.930 . S
H1693 C1703 0.930 . S
C1694 H1688 0.930 . S
C1694 C1695 1.355 . S
C1694 C1696 1.415 . S
C1695 C1694 1.355 . S
C1695 C1697 1.419 . S
C1696 C1694 1.415 . S
C1696 C1701 1.425 . S
C1696 C1703 1.409 . S
C1697 H1689 0.930 . S
C1697 C1695 1.419 . S
C1697 C1698 1.362 . S
C1698 H1690 0.930 . S
C1698 C1697 1.362 . S
C1698 C1701 1.409 . S
C1699 H1691 0.930 . S
C1699 C1700 1.355 . S
C1699 C1701 1.415 . S
C1700 C1699 1.355 . S
C1700 C1702 1.419 . S
C1701 C1696 1.425 . S
C1701 C1698 1.409 . S
C1701 C1699 1.415 . S
C1702 H1692 0.930 . S
C1702 C1700 1.419 . S
C1702 C1703 1.362 . S
C1703 H1693 0.930 . S
C1703 C1696 1.409 . S
C1703 C1702 1.362 . S
H1704 C1710 0.930 . S
H1705 C1713 0.930 . S
H1706 C1714 0.919 1_455 S
H1707 C1715 0.930 . S
H1708 C1718 0.930 . S
H1709 C1719 0.919 1_655 S
C1710 H1704 0.930 . S
C1710 C1711 1.355 1_554 S
C1710 C1712 1.415 . S
C1711 C1710 1.355 1_556 S
C1711 C1713 1.419 . S
C1712 C1710 1.415 . S
C1712 C1717 1.425 1_654 S
C1712 C1719 1.405 1_655 S
C1713 H1705 0.930 . S
C1713 C1711 1.419 . S
C1713 C1714 1.378 . S
C1714 H1706 0.919 1_655 S
C1714 C1713 1.378 . S
C1714 C1717 1.405 1_655 S
C1715 H1707 0.930 . S
C1715 C1716 1.355 1_556 S
C1715 C1717 1.415 . S
C1716 C1715 1.355 1_554 S
C1716 C1718 1.419 . S
C1717 C1712 1.425 1_456 S
C1717 C1714 1.405 1_455 S
C1717 C1715 1.415 . S
C1718 H1708 0.930 . S
C1718 C1716 1.419 . S
C1718 C1719 1.377 . S
C1719 H1709 0.919 1_455 S
C1719 C1712 1.405 1_455 S
C1719 C1718 1.377 . S
H1720 C1726 0.930 . S
H1721 C1729 0.930 . S
H1722 C1730 0.930 . S
H1723 C1731 0.930 . S
H1724 C1734 0.930 . S
H1725 C1735 0.930 . S
C1726 H1720 0.930 . S
C1726 C1727 1.355 . S
C1726 C1728 1.415 1_556 S
C1727 C1726 1.355 . S
C1727 C1729 1.419 . S
C1728 C1726 1.415 1_554 S
C1728 C1733 1.425 1_554 S
C1728 C1735 1.409 . S
C1729 H1721 0.930 . S
C1729 C1727 1.419 . S
C1729 C1730 1.362 . S
C1730 H1722 0.930 . S
C1730 C1729 1.362 . S
C1730 C1733 1.409 . S
C1731 H1723 0.930 . S
C1731 C1732 1.355 . S
C1731 C1733 1.415 1_554 S
C1732 C1731 1.355 . S
C1732 C1734 1.419 . S
C1733 C1728 1.425 1_556 S
C1733 C1730 1.409 . S
C1733 C1731 1.415 1_556 S
C1734 H1724 0.930 . S
C1734 C1732 1.419 . S
C1734 C1735 1.362 . S
C1735 H1725 0.930 . S
C1735 C1728 1.409 . S
C1735 C1734 1.362 . S
H1736 C1742 0.930 . S
H1737 C1745 0.930 1_556 S
H1738 C1746 0.930 . S
H1739 C1747 0.930 . S
H1740 C1750 0.930 1_554 S
H1741 C1751 0.930 . S
C1742 H1736 0.930 . S
C1742 C1743 1.355 . S
C1742 C1744 1.476 . S
C1743 C1742 1.355 . S
C1743 C1745 1.419 . S
C1744 C1742 1.476 . S
C1744 C1749 1.359 1_564 S
C1744 C1751 1.384 1_565 S
C1745 H1737 0.930 1_554 S
C1745 C1743 1.419 . S
C1745 C1746 1.362 1_554 S
C1746 H1738 0.930 . S
C1746 C1745 1.362 1_556 S
C1746 C1749 1.384 1_565 S
C1747 H1739 0.930 . S
C1747 C1748 1.355 . S
C1747 C1749 1.478 . S
C1748 C1747 1.355 . S
C1748 C1750 1.419 . S
C1749 C1744 1.359 1_546 S
C1749 C1746 1.384 1_545 S
C1749 C1747 1.478 . S
C1750 H1740 0.930 1_556 S
C1750 C1748 1.419 . S
C1750 C1751 1.362 1_556 S
C1751 H1741 0.930 . S
C1751 C1744 1.384 1_545 S
C1751 C1750 1.362 1_554 S
H1752 C1758 0.930 1_556 S
H1753 C1761 0.930 . S
H1754 C1762 0.930 1_545 S
H1755 C1763 0.930 1_554 S
H1756 C1766 0.930 . S
H1757 C1767 0.930 1_565 S
C1758 H1752 0.930 1_554 S
C1758 C1759 1.355 . S
C1758 C1760 1.415 1_554 S
C1759 C1758 1.355 . S
C1759 C1761 1.419 . S
C1760 C1758 1.415 1_556 S
C1760 C1765 1.425 1_566 S
C1760 C1767 1.409 1_565 S
C1761 H1753 0.930 . S
C1761 C1759 1.419 . S
C1761 C1762 1.362 . S
C1762 H1754 0.930 1_565 S
C1762 C1761 1.362 . S
C1762 C1765 1.409 1_565 S
C1763 H1755 0.930 1_556 S
C1763 C1764 1.355 . S
C1763 C1765 1.415 1_556 S
C1764 C1763 1.355 . S
C1764 C1766 1.419 . S
C1765 C1760 1.425 1_544 S
C1765 C1762 1.409 1_545 S
C1765 C1763 1.415 1_554 S
C1766 H1756 0.930 . S
C1766 C1764 1.419 . S
C1766 C1767 1.362 . S
C1767 H1757 0.930 1_545 S
C1767 C1760 1.409 1_545 S
C1767 C1766 1.362 . S
H1768 C1774 0.930 . S
H1769 C1777 0.930 . S
H1770 C1778 0.930 . S
H1771 C1779 0.930 . S
H1772 C1782 0.930 . S
H1773 C1783 0.930 . S
C1774 H1768 0.930 . S
C1774 C1775 1.355 . S
C1774 C1776 1.415 . S
C1775 C1774 1.355 . S
C1775 C1777 1.419 . S
C1776 C1774 1.415 . S
C1776 C1781 1.425 1_656 S
C1776 C1783 1.409 1_655 S
C1777 H1769 0.930 . S
C1777 C1775 1.419 . S
C1777 C1778 1.362 1_556 S
C1778 H1770 0.930 . S
C1778 C1777 1.362 1_554 S
C1778 C1781 1.409 1_655 S
C1779 H1771 0.930 . S
C1779 C1780 1.355 . S
C1779 C1781 1.415 . S
C1780 C1779 1.355 . S
C1780 C1782 1.419 . S
C1781 C1776 1.425 1_454 S
C1781 C1778 1.409 1_455 S
C1781 C1779 1.415 . S
C1782 H1772 0.930 . S
C1782 C1780 1.419 . S
C1782 C1783 1.362 1_554 S
C1783 H1773 0.930 . S
C1783 C1776 1.409 1_455 S
C1783 C1782 1.362 1_556 S
H1784 C1790 0.930 . S
H1785 C1793 0.930 . S
H1786 C1794 0.930 . S
H1787 C1795 0.930 . S
H1788 C1798 0.930 . S
H1789 C1799 0.930 . S
C1790 H1784 0.930 . S
C1790 C1791 1.355 . S
C1790 C1792 1.415 1_556 S
C1791 C1790 1.355 . S
C1791 C1793 1.419 . S
C1792 C1790 1.415 1_554 S
C1792 C1797 1.425 1_554 S
C1792 C1799 1.409 . S
C1793 H1785 0.930 . S
C1793 C1791 1.419 . S
C1793 C1794 1.362 . S
C1794 H1786 0.930 . S
C1794 C1793 1.362 . S
C1794 C1797 1.409 . S
C1795 H1787 0.930 . S
C1795 C1796 1.355 . S
C1795 C1797 1.415 1_554 S
C1796 C1795 1.355 . S
C1796 C1798 1.419 . S
C1797 C1792 1.425 1_556 S
C1797 C1794 1.409 . S
C1797 C1795 1.415 1_556 S
C1798 H1788 0.930 . S
C1798 C1796 1.419 . S
C1798 C1799 1.362 . S
C1799 H1789 0.930 . S
C1799 C1792 1.409 . S
C1799 C1798 1.362 . S
H1800 C1806 0.930 . S
H1801 C1809 0.930 . S
H1802 C1810 0.930 . S
H1803 C1811 0.930 . S
H1804 C1814 0.930 . S
H1805 C1815 0.930 . S
C1806 H1800 0.930 . S
C1806 C1807 1.355 . S
C1806 C1808 1.415 . S
C1807 C1806 1.355 . S
C1807 C1809 1.419 . S
C1808 C1806 1.415 . S
C1808 C1813 1.425 . S
C1808 C1815 1.409 . S
C1809 H1801 0.930 . S
C1809 C1807 1.419 . S
C1809 C1810 1.362 . S
C1810 H1802 0.930 . S
C1810 C1809 1.362 . S
C1810 C1813 1.409 . S
C1811 H1803 0.930 . S
C1811 C1812 1.355 . S
C1811 C1813 1.415 . S
C1812 C1811 1.355 . S
C1812 C1814 1.419 . S
C1813 C1808 1.425 . S
C1813 C1810 1.409 . S
C1813 C1811 1.415 . S
C1814 H1804 0.930 . S
C1814 C1812 1.419 . S
C1814 C1815 1.362 . S
C1815 H1805 0.930 . S
C1815 C1808 1.409 . S
C1815 C1814 1.362 . S
H1816 C1822 0.930 . S
H1817 C1825 0.930 . S
H1818 C1826 0.930 . S
H1819 C1827 0.930 . S
H1820 C1830 0.930 . S
H1821 C1831 0.930 . S
C1822 H1816 0.930 . S
C1822 C1823 1.355 . S
C1822 C1824 1.415 . S
C1823 C1822 1.355 . S
C1823 C1825 1.419 . S
C1824 C1822 1.415 . S
C1824 C1829 1.425 . S
C1824 C1831 1.409 . S
C1825 H1817 0.930 . S
C1825 C1823 1.419 . S
C1825 C1826 1.362 . S
C1826 H1818 0.930 . S
C1826 C1825 1.362 . S
C1826 C1829 1.409 . S
C1827 H1819 0.930 . S
C1827 C1828 1.355 . S
C1827 C1829 1.415 . S
C1828 C1827 1.355 . S
C1828 C1830 1.419 . S
C1829 C1824 1.425 . S
C1829 C1826 1.409 . S
C1829 C1827 1.415 . S
C1830 H1820 0.930 . S
C1830 C1828 1.419 . S
C1830 C1831 1.362 . S
C1831 H1821 0.930 . S
C1831 C1824 1.409 . S
C1831 C1830 1.362 . S
H1832 C1838 0.930 . S
H1833 C1841 0.930 . S
H1834 C1842 0.930 . S
H1835 C1843 0.930 . S
H1836 C1846 0.930 . S
H1837 C1847 0.930 . S
C1838 H1832 0.930 . S
C1838 C1839 1.355 . S
C1838 C1840 1.415 . S
C1839 C1838 1.355 . S
C1839 C1841 1.419 . S
C1840 C1838 1.415 . S
C1840 C1845 1.425 . S
C1840 C1847 1.409 . S
C1841 H1833 0.930 . S
C1841 C1839 1.419 . S
C1841 C1842 1.362 . S
C1842 H1834 0.930 . S
C1842 C1841 1.362 . S
C1842 C1845 1.409 . S
C1843 H1835 0.930 . S
C1843 C1844 1.355 . S
C1843 C1845 1.415 . S
C1844 C1843 1.355 . S
C1844 C1846 1.419 . S
C1845 C1840 1.425 . S
C1845 C1842 1.409 . S
C1845 C1843 1.415 . S
C1846 H1836 0.930 . S
C1846 C1844 1.419 . S
C1846 C1847 1.362 . S
C1847 H1837 0.930 . S
C1847 C1840 1.409 . S
C1847 C1846 1.362 . S
H1848 C1854 0.930 . S
H1849 C1857 0.930 . S
H1850 C1858 0.930 . S
H1851 C1859 0.930 . S
H1852 C1862 0.930 . S
H1853 C1863 0.930 . S
C1854 H1848 0.930 . S
C1854 C1855 1.355 . S
C1854 C1856 1.415 . S
C1855 C1854 1.355 . S
C1855 C1857 1.419 . S
C1856 C1854 1.415 . S
C1856 C1861 1.425 . S
C1856 C1863 1.409 . S
C1857 H1849 0.930 . S
C1857 C1855 1.419 . S
C1857 C1858 1.362 . S
C1858 H1850 0.930 . S
C1858 C1857 1.362 . S
C1858 C1861 1.409 . S
C1859 H1851 0.930 . S
C1859 C1860 1.355 . S
C1859 C1861 1.415 . S
C1860 C1859 1.355 . S
C1860 C1862 1.419 . S
C1861 C1856 1.425 . S
C1861 C1858 1.409 . S
C1861 C1859 1.415 . S
C1862 H1852 0.930 . S
C1862 C1860 1.419 . S
C1862 C1863 1.362 . S
C1863 H1853 0.930 . S
C1863 C1856 1.409 . S
C1863 C1862 1.362 . S
H1864 C1870 0.930 . S
H1865 C1873 0.930 . S
H1866 C1874 0.930 . S
H1867 C1875 0.930 . S
H1868 C1878 0.930 . S
H1869 C1879 0.930 . S
C1870 H1864 0.930 . S
C1870 C1871 1.355 . S
C1870 C1872 1.415 . S
C1871 C1870 1.355 . S
C1871 C1873 1.419 . S
C1872 C1870 1.415 . S
C1872 C1877 1.425 . S
C1872 C1879 1.409 . S
C1873 H1865 0.930 . S
C1873 C1871 1.419 . S
C1873 C1874 1.362 . S
C1874 H1866 0.930 . S
C1874 C1873 1.362 . S
C1874 C1877 1.409 . S
C1875 H1867 0.930 . S
C1875 C1876 1.355 . S
C1875 C1877 1.415 . S
C1876 C1875 1.355 . S
C1876 C1878 1.419 . S
C1877 C1872 1.425 . S
C1877 C1874 1.409 . S
C1877 C1875 1.415 . S
C1878 H1868 0.930 . S
C1878 C1876 1.419 . S
C1878 C1879 1.362 . S
C1879 H1869 0.930 . S
C1879 C1872 1.409 . S
C1879 C1878 1.362 . S
H1880 C1886 0.930 . S
H1881 C1889 0.930 . S
H1882 C1890 0.930 . S
H1883 C1891 0.930 . S
H1884 C1894 0.930 . S
H1885 C1895 0.930 . S
C1886 H1880 0.930 . S
C1886 C1887 1.355 . S
C1886 C1888 1.415 . S
C1887 C1886 1.355 . S
C1887 C1889 1.419 . S
C1888 C1886 1.415 . S
C1888 C1893 1.425 . S
C1888 C1895 1.409 . S
C1889 H1881 0.930 . S
C1889 C1887 1.419 . S
C1889 C1890 1.362 . S
C1890 H1882 0.930 . S
C1890 C1889 1.362 . S
C1890 C1893 1.409 . S
C1891 H1883 0.930 . S
C1891 C1892 1.355 . S
C1891 C1893 1.415 . S
C1892 C1891 1.355 . S
C1892 C1894 1.419 . S
C1893 C1888 1.425 . S
C1893 C1890 1.409 . S
C1893 C1891 1.415 . S
C1894 H1884 0.930 . S
C1894 C1892 1.419 . S
C1894 C1895 1.362 . S
C1895 H1885 0.930 . S
C1895 C1888 1.409 . S
C1895 C1894 1.362 . S
H1896 C1902 0.930 . S
H1897 C1905 0.930 . S
H1898 C1906 0.930 . S
H1899 C1907 0.930 . S
H1900 C1910 0.930 . S
H1901 C1911 0.930 . S
C1902 H1896 0.930 . S
C1902 C1903 1.355 . S
C1902 C1904 1.415 . S
C1903 C1902 1.355 . S
C1903 C1905 1.419 . S
C1904 C1902 1.415 . S
C1904 C1909 1.425 . S
C1904 C1911 1.409 . S
C1905 H1897 0.930 . S
C1905 C1903 1.419 . S
C1905 C1906 1.362 . S
C1906 H1898 0.930 . S
C1906 C1905 1.362 . S
C1906 C1909 1.409 . S
C1907 H1899 0.930 . S
C1907 C1908 1.355 . S
C1907 C1909 1.415 . S
C1908 C1907 1.355 . S
C1908 C1910 1.419 . S
C1909 C1904 1.425 . S
C1909 C1906 1.409 . S
C1909 C1907 1.415 . S
C1910 H1900 0.930 . S
C1910 C1908 1.419 . S
C1910 C1911 1.362 . S
C1911 H1901 0.930 . S
C1911 C1904 1.409 . S
C1911 C1910 1.362 . S
H1912 C1918 0.930 . S
H1913 C1921 0.930 . S
H1914 C1922 0.930 . S
H1915 C1923 0.930 . S
H1916 C1926 0.930 . S
H1917 C1927 0.930 . S
C1918 H1912 0.930 . S
C1918 C1919 1.355 . S
C1918 C1920 1.415 . S
C1919 C1918 1.355 . S
C1919 C1921 1.419 . S
C1920 C1918 1.415 . S
C1920 C1925 1.425 . S
C1920 C1927 1.409 . S
C1921 H1913 0.930 . S
C1921 C1919 1.419 . S
C1921 C1922 1.362 . S
C1922 H1914 0.930 . S
C1922 C1921 1.362 . S
C1922 C1925 1.409 . S
C1923 H1915 0.930 . S
C1923 C1924 1.355 . S
C1923 C1925 1.415 . S
C1924 C1923 1.355 . S
C1924 C1926 1.419 . S
C1925 C1920 1.425 . S
C1925 C1922 1.409 . S
C1925 C1923 1.415 . S
C1926 H1916 0.930 . S
C1926 C1924 1.419 . S
C1926 C1927 1.362 . S
C1927 H1917 0.930 . S
C1927 C1920 1.409 . S
C1927 C1926 1.362 . S
H1928 C1934 0.930 . S
H1929 C1937 0.930 . S
H1930 C1938 0.930 . S
H1931 C1939 0.930 . S
H1932 C1942 0.930 . S
H1933 C1943 0.930 . S
C1934 H1928 0.930 . S
C1934 C1935 1.355 . S
C1934 C1936 1.415 . S
C1935 C1934 1.355 . S
C1935 C1937 1.419 . S
C1936 C1934 1.415 . S
C1936 C1941 1.425 . S
C1936 C1943 1.409 . S
C1937 H1929 0.930 . S
C1937 C1935 1.419 . S
C1937 C1938 1.362 . S
C1938 H1930 0.930 . S
C1938 C1937 1.362 . S
C1938 C1941 1.409 . S
C1939 H1931 0.930 . S
C1939 C1940 1.355 . S
C1939 C1941 1.415 . S
C1940 C1939 1.355 . S
C1940 C1942 1.419 . S
C1941 C1936 1.425 . S
C1941 C1938 1.409 . S
C1941 C1939 1.415 . S
C1942 H1932 0.930 . S
C1942 C1940 1.419 . S
C1942 C1943 1.362 . S
C1943 H1933 0.930 . S
C1943 C1936 1.409 . S
C1943 C1942 1.362 . S
H1944 C1950 0.930 . S
H1945 C1953 0.930 1_556 S
H1946 C1954 0.930 1_556 S
H1947 C1955 0.930 . S
H1948 C1958 0.930 . S
H1949 C1959 0.930 . S
C1950 H1944 0.930 . S
C1950 C1951 1.355 . S
C1950 C1952 1.415 . S
C1951 C1950 1.355 . S
C1951 C1953 1.419 . S
C1952 C1950 1.415 . S
C1952 C1957 1.425 . S
C1952 C1959 1.409 . S
C1953 H1945 0.930 1_554 S
C1953 C1951 1.419 . S
C1953 C1954 1.362 . S
C1954 H1946 0.930 1_554 S
C1954 C1953 1.362 . S
C1954 C1957 1.409 . S
C1955 H1947 0.930 . S
C1955 C1956 1.355 . S
C1955 C1957 1.415 . S
C1956 C1955 1.355 . S
C1956 C1958 1.419 . S
C1957 C1952 1.425 . S
C1957 C1954 1.409 . S
C1957 C1955 1.415 . S
C1958 H1948 0.930 . S
C1958 C1956 1.419 . S
C1958 C1959 1.362 . S
C1959 H1949 0.930 . S
C1959 C1952 1.409 . S
C1959 C1958 1.362 . S
H1960 C1966 0.930 . S
H1961 C1969 0.930 . S
H1962 C1970 0.930 . S
H1963 C1971 0.930 . S
H1964 C1974 0.930 . S
H1965 C1975 0.930 . S
C1966 H1960 0.930 . S
C1966 C1967 1.355 . S
C1966 C1968 1.415 . S
C1967 C1966 1.355 . S
C1967 C1969 1.419 . S
C1968 C1966 1.415 . S
C1968 C1973 1.425 . S
C1968 C1975 1.409 . S
C1969 H1961 0.930 . S
C1969 C1967 1.419 . S
C1969 C1970 1.362 . S
C1970 H1962 0.930 . S
C1970 C1969 1.362 . S
C1970 C1973 1.409 . S
C1971 H1963 0.930 . S
C1971 C1972 1.355 . S
C1971 C1973 1.415 . S
C1972 C1971 1.355 . S
C1972 C1974 1.419 . S
C1973 C1968 1.425 . S
C1973 C1970 1.409 . S
C1973 C1971 1.415 . S
C1974 H1964 0.930 . S
C1974 C1972 1.419 . S
C1974 C1975 1.362 . S
C1975 H1965 0.930 . S
C1975 C1968 1.409 . S
C1975 C1974 1.362 . S
H1976 C1982 0.930 . S
H1977 C1985 0.930 . S
H1978 C1986 0.930 . S
H1979 C1987 0.930 . S
H1980 C1990 0.930 . S
H1981 C1991 0.930 . S
C1982 H1976 0.930 . S
C1982 C1983 1.355 . S
C1982 C1984 1.415 . S
C1983 C1982 1.355 . S
C1983 C1985 1.419 . S
C1984 C1982 1.415 . S
C1984 C1989 1.425 . S
C1984 C1991 1.409 . S
C1985 H1977 0.930 . S
C1985 C1983 1.419 . S
C1985 C1986 1.362 . S
C1986 H1978 0.930 . S
C1986 C1985 1.362 . S
C1986 C1989 1.409 . S
C1987 H1979 0.930 . S
C1987 C1988 1.355 . S
C1987 C1989 1.415 . S
C1988 C1987 1.355 . S
C1988 C1990 1.419 . S
C1989 C1984 1.425 . S
C1989 C1986 1.409 . S
C1989 C1987 1.415 . S
C1990 H1980 0.930 . S
C1990 C1988 1.419 . S
C1990 C1991 1.362 . S
C1991 H1981 0.930 . S
C1991 C1984 1.409 . S
C1991 C1990 1.362 . S
H1992 C1998 0.930 . S
H1993 C2001 0.930 . S
H1994 C2002 0.930 . S
H1995 C2003 0.930 . S
H1996 C2006 0.930 . S
H1997 C2007 0.930 . S
C1998 H1992 0.930 . S
C1998 C1999 1.355 . S
C1998 C2000 1.415 . S
C1999 C1998 1.355 . S
C1999 C2001 1.419 . S
C2000 C1998 1.415 . S
C2000 C2005 1.425 . S
C2000 C2007 1.409 . S
C2001 H1993 0.930 . S
C2001 C1999 1.419 . S
C2001 C2002 1.362 . S
C2002 H1994 0.930 . S
C2002 C2001 1.362 . S
C2002 C2005 1.409 . S
C2003 H1995 0.930 . S
C2003 C2004 1.355 . S
C2003 C2005 1.415 . S
C2004 C2003 1.355 . S
C2004 C2006 1.419 . S
C2005 C2000 1.425 . S
C2005 C2002 1.409 . S
C2005 C2003 1.415 . S
C2006 H1996 0.930 . S
C2006 C2004 1.419 . S
C2006 C2007 1.362 . S
C2007 H1997 0.930 . S
C2007 C2000 1.409 . S
C2007 C2006 1.362 . S
H2008 C2014 0.930 . S
H2009 C2017 0.930 . S
H2010 C2018 0.930 . S
H2011 C2019 0.930 . S
H2012 C2022 0.930 . S
H2013 C2023 0.930 . S
C2014 H2008 0.930 . S
C2014 C2015 1.355 . S
C2014 C2016 1.415 . S
C2015 C2014 1.355 . S
C2015 C2017 1.419 . S
C2016 C2014 1.415 . S
C2016 C2021 1.425 . S
C2016 C2023 1.409 . S
C2017 H2009 0.930 . S
C2017 C2015 1.419 . S
C2017 C2018 1.362 . S
C2018 H2010 0.930 . S
C2018 C2017 1.362 . S
C2018 C2021 1.409 . S
C2019 H2011 0.930 . S
C2019 C2020 1.355 . S
C2019 C2021 1.415 . S
C2020 C2019 1.355 . S
C2020 C2022 1.419 . S
C2021 C2016 1.425 . S
C2021 C2018 1.409 . S
C2021 C2019 1.415 . S
C2022 H2012 0.930 . S
C2022 C2020 1.419 . S
C2022 C2023 1.362 . S
C2023 H2013 0.930 . S
C2023 C2016 1.409 . S
C2023 C2022 1.362 . S
H2024 C2030 0.930 . S
H2025 C2033 0.930 . S
H2026 C2034 0.930 . S
H2027 C2035 0.930 . S
H2028 C2038 0.930 . S
H2029 C2039 0.930 . S
C2030 H2024 0.930 . S
C2030 C2031 1.355 . S
C2030 C2032 1.415 . S
C2031 C2030 1.355 . S
C2031 C2033 1.419 . S
C2032 C2030 1.415 . S
C2032 C2037 1.425 . S
C2032 C2039 1.409 . S
C2033 H2025 0.930 . S
C2033 C2031 1.419 . S
C2033 C2034 1.362 . S
C2034 H2026 0.930 . S
C2034 C2033 1.362 . S
C2034 C2037 1.409 . S
C2035 H2027 0.930 . S
C2035 C2036 1.355 . S
C2035 C2037 1.415 . S
C2036 C2035 1.355 . S
C2036 C2038 1.419 . S
C2037 C2032 1.425 . S
C2037 C2034 1.409 . S
C2037 C2035 1.415 . S
C2038 H2028 0.930 . S
C2038 C2036 1.419 . S
C2038 C2039 1.362 . S
C2039 H2029 0.930 . S
C2039 C2032 1.409 . S
C2039 C2038 1.362 . S
H2040 C2046 0.930 . S
H2041 C2049 0.930 . S
H2042 C2050 0.930 . S
H2043 C2051 0.930 . S
H2044 C2054 0.930 . S
H2045 C2055 0.930 . S
C2046 H2040 0.930 . S
C2046 C2047 1.355 . S
C2046 C2048 1.415 . S
C2047 C2046 1.355 . S
C2047 C2049 1.419 . S
C2048 C2046 1.415 . S
C2048 C2053 1.425 . S
C2048 C2055 1.409 . S
C2049 H2041 0.930 . S
C2049 C2047 1.419 . S
C2049 C2050 1.362 . S
C2050 H2042 0.930 . S
C2050 C2049 1.362 . S
C2050 C2053 1.409 . S
C2051 H2043 0.930 . S
C2051 C2052 1.355 . S
C2051 C2053 1.415 . S
C2052 C2051 1.355 . S
C2052 C2054 1.419 . S
C2053 C2048 1.425 . S
C2053 C2050 1.409 . S
C2053 C2051 1.415 . S
C2054 H2044 0.930 . S
C2054 C2052 1.419 . S
C2054 C2055 1.362 . S
C2055 H2045 0.930 . S
C2055 C2048 1.409 . S
C2055 C2054 1.362 . S
H2056 C2062 0.930 . S
H2057 C2065 0.930 . S
H2058 C2066 0.930 . S
H2059 C2067 0.930 . S
H2060 C2070 0.930 . S
H2061 C2071 0.930 . S
C2062 H2056 0.930 . S
C2062 C2063 1.355 . S
C2062 C2064 1.415 . S
C2063 C2062 1.355 . S
C2063 C2065 1.419 . S
C2064 C2062 1.415 . S
C2064 C2069 1.425 . S
C2064 C2071 1.409 . S
C2065 H2057 0.930 . S
C2065 C2063 1.419 . S
C2065 C2066 1.362 . S
C2066 H2058 0.930 . S
C2066 C2065 1.362 . S
C2066 C2069 1.409 . S
C2067 H2059 0.930 . S
C2067 C2068 1.355 . S
C2067 C2069 1.415 . S
C2068 C2067 1.355 . S
C2068 C2070 1.419 . S
C2069 C2064 1.425 . S
C2069 C2066 1.409 . S
C2069 C2067 1.415 . S
C2070 H2060 0.930 . S
C2070 C2068 1.419 . S
C2070 C2071 1.362 . S
C2071 H2061 0.930 . S
C2071 C2064 1.409 . S
C2071 C2070 1.362 . S
H2072 C2078 0.930 . S
H2073 C2081 0.930 . S
H2074 C2082 0.930 . S
H2075 C2083 0.930 . S
H2076 C2086 0.930 . S
H2077 C2087 0.930 . S
C2078 H2072 0.930 . S
C2078 C2079 1.355 . S
C2078 C2080 1.415 . S
C2079 C2078 1.355 . S
C2079 C2081 1.419 . S
C2080 C2078 1.415 . S
C2080 C2085 1.425 . S
C2080 C2087 1.409 . S
C2081 H2073 0.930 . S
C2081 C2079 1.419 . S
C2081 C2082 1.362 . S
C2082 H2074 0.930 . S
C2082 C2081 1.362 . S
C2082 C2085 1.409 . S
C2083 H2075 0.930 . S
C2083 C2084 1.355 . S
C2083 C2085 1.415 . S
C2084 C2083 1.355 . S
C2084 C2086 1.419 . S
C2085 C2080 1.425 . S
C2085 C2082 1.409 . S
C2085 C2083 1.415 . S
C2086 H2076 0.930 . S
C2086 C2084 1.419 . S
C2086 C2087 1.362 . S
C2087 H2077 0.930 . S
C2087 C2080 1.409 . S
C2087 C2086 1.362 . S
H2088 C2094 0.930 . S
H2089 C2097 0.930 . S
H2090 C2098 0.930 . S
H2091 C2099 0.930 . S
H2092 C2102 0.930 . S
H2093 C2103 0.930 . S
C2094 H2088 0.930 . S
C2094 C2095 1.355 . S
C2094 C2096 1.415 . S
C2095 C2094 1.355 . S
C2095 C2097 1.419 . S
C2096 C2094 1.415 . S
C2096 C2101 1.425 . S
C2096 C2103 1.409 . S
C2097 H2089 0.930 . S
C2097 C2095 1.419 . S
C2097 C2098 1.362 . S
C2098 H2090 0.930 . S
C2098 C2097 1.362 . S
C2098 C2101 1.409 . S
C2099 H2091 0.930 . S
C2099 C2100 1.355 . S
C2099 C2101 1.415 . S
C2100 C2099 1.355 . S
C2100 C2102 1.419 . S
C2101 C2096 1.425 . S
C2101 C2098 1.409 . S
C2101 C2099 1.415 . S
C2102 H2092 0.930 . S
C2102 C2100 1.419 . S
C2102 C2103 1.362 . S
C2103 H2093 0.930 . S
C2103 C2096 1.409 . S
C2103 C2102 1.362 . S
H2104 C2110 0.930 . S
H2105 C2113 0.930 . S
H2106 C2114 0.930 . S
H2107 C2115 0.930 . S
H2108 C2118 0.930 . S
H2109 C2119 0.930 . S
C2110 H2104 0.930 . S
C2110 C2111 1.355 . S
C2110 C2112 1.415 . S
C2111 C2110 1.355 . S
C2111 C2113 1.419 . S
C2112 C2110 1.415 . S
C2112 C2117 1.425 . S
C2112 C2119 1.409 . S
C2113 H2105 0.930 . S
C2113 C2111 1.419 . S
C2113 C2114 1.362 . S
C2114 H2106 0.930 . S
C2114 C2113 1.362 . S
C2114 C2117 1.409 . S
C2115 H2107 0.930 . S
C2115 C2116 1.355 . S
C2115 C2117 1.415 . S
C2116 C2115 1.355 . S
C2116 C2118 1.419 . S
C2117 C2112 1.425 . S
C2117 C2114 1.409 . S
C2117 C2115 1.415 . S
C2118 H2108 0.930 . S
C2118 C2116 1.419 . S
C2118 C2119 1.362 . S
C2119 H2109 0.930 . S
C2119 C2112 1.409 . S
C2119 C2118 1.362 . S
H2120 C2126 0.930 . S
H2121 C2129 0.930 . S
H2122 C2130 0.930 . S
H2123 C2131 0.930 . S
H2124 C2134 0.930 . S
H2125 C2135 0.930 . S
C2126 H2120 0.930 . S
C2126 C2127 1.355 . S
C2126 C2128 1.415 . S
C2127 C2126 1.355 . S
C2127 C2129 1.419 . S
C2128 C2126 1.415 . S
C2128 C2133 1.425 . S
C2128 C2135 1.409 . S
C2129 H2121 0.930 . S
C2129 C2127 1.419 . S
C2129 C2130 1.362 . S
C2130 H2122 0.930 . S
C2130 C2129 1.362 . S
C2130 C2133 1.409 . S
C2131 H2123 0.930 . S
C2131 C2132 1.355 . S
C2131 C2133 1.415 . S
C2132 C2131 1.355 . S
C2132 C2134 1.419 . S
C2133 C2128 1.425 . S
C2133 C2130 1.409 . S
C2133 C2131 1.415 . S
C2134 H2124 0.930 . S
C2134 C2132 1.419 . S
C2134 C2135 1.362 . S
C2135 H2125 0.930 . S
C2135 C2128 1.409 . S
C2135 C2134 1.362 . S
H2136 C2142 0.930 . S
H2137 C2145 0.930 . S
H2138 C2146 0.930 . S
H2139 C2147 0.930 . S
H2140 C2150 0.930 . S
H2141 C2151 0.930 . S
C2142 H2136 0.930 . S
C2142 C2143 1.355 . S
C2142 C2144 1.415 . S
C2143 C2142 1.355 . S
C2143 C2145 1.419 . S
C2144 C2142 1.415 . S
C2144 C2149 1.425 . S
C2144 C2151 1.409 . S
C2145 H2137 0.930 . S
C2145 C2143 1.419 . S
C2145 C2146 1.362 . S
C2146 H2138 0.930 . S
C2146 C2145 1.362 . S
C2146 C2149 1.409 . S
C2147 H2139 0.930 . S
C2147 C2148 1.355 . S
C2147 C2149 1.415 . S
C2148 C2147 1.355 . S
C2148 C2150 1.419 . S
C2149 C2144 1.425 . S
C2149 C2146 1.409 . S
C2149 C2147 1.415 . S
C2150 H2140 0.930 . S
C2150 C2148 1.419 . S
C2150 C2151 1.362 . S
C2151 H2141 0.930 . S
C2151 C2144 1.409 . S
C2151 C2150 1.362 . S
H2152 C2158 0.930 . S
H2153 C2161 0.930 . S
H2154 C2162 0.930 . S
H2155 C2163 0.930 . S
H2156 C2166 0.930 . S
H2157 C2167 0.930 . S
C2158 H2152 0.930 . S
C2158 C2159 1.355 . S
C2158 C2160 1.415 . S
C2159 C2158 1.355 . S
C2159 C2161 1.419 . S
C2160 C2158 1.415 . S
C2160 C2165 1.425 . S
C2160 C2167 1.409 . S
C2161 H2153 0.930 . S
C2161 C2159 1.419 . S
C2161 C2162 1.362 . S
C2162 H2154 0.930 . S
C2162 C2161 1.362 . S
C2162 C2165 1.409 . S
C2163 H2155 0.930 . S
C2163 C2164 1.355 . S
C2163 C2165 1.415 . S
C2164 C2163 1.355 . S
C2164 C2166 1.419 . S
C2165 C2160 1.425 . S
C2165 C2162 1.409 . S
C2165 C2163 1.415 . S
C2166 H2156 0.930 . S
C2166 C2164 1.419 . S
C2166 C2167 1.362 . S
C2167 H2157 0.930 . S
C2167 C2160 1.409 . S
C2167 C2166 1.362 . S
H2168 C2174 0.930 . S
H2169 C2177 0.930 . S
H2170 C2178 0.930 . S
H2171 C2179 0.930 . S
H2172 C2182 0.930 . S
H2173 C2183 0.930 . S
C2174 H2168 0.930 . S
C2174 C2175 1.355 . S
C2174 C2176 1.415 . S
C2175 C2174 1.355 . S
C2175 C2177 1.419 . S
C2176 C2174 1.415 . S
C2176 C2181 1.425 . S
C2176 C2183 1.409 . S
C2177 H2169 0.930 . S
C2177 C2175 1.419 . S
C2177 C2178 1.362 . S
C2178 H2170 0.930 . S
C2178 C2177 1.362 . S
C2178 C2181 1.409 . S
C2179 H2171 0.930 . S
C2179 C2180 1.355 . S
C2179 C2181 1.415 . S
C2180 C2179 1.355 . S
C2180 C2182 1.419 . S
C2181 C2176 1.425 . S
C2181 C2178 1.409 . S
C2181 C2179 1.415 . S
C2182 H2172 0.930 . S
C2182 C2180 1.419 . S
C2182 C2183 1.362 . S
C2183 H2173 0.930 . S
C2183 C2176 1.409 . S
C2183 C2182 1.362 . S
H2184 C2190 0.930 . S
H2185 C2193 0.930 . S
H2186 C2194 0.930 . S
H2187 C2195 0.930 . S
H2188 C2198 0.930 . S
H2189 C2199 0.930 . S
C2190 H2184 0.930 . S
C2190 C2191 1.355 . S
C2190 C2192 1.415 . S
C2191 C2190 1.355 . S
C2191 C2193 1.419 . S
C2192 C2190 1.415 . S
C2192 C2197 1.425 . S
C2192 C2199 1.409 . S
C2193 H2185 0.930 . S
C2193 C2191 1.419 . S
C2193 C2194 1.362 . S
C2194 H2186 0.930 . S
C2194 C2193 1.362 . S
C2194 C2197 1.409 . S
C2195 H2187 0.930 . S
C2195 C2196 1.355 . S
C2195 C2197 1.415 . S
C2196 C2195 1.355 . S
C2196 C2198 1.419 . S
C2197 C2192 1.425 . S
C2197 C2194 1.409 . S
C2197 C2195 1.415 . S
C2198 H2188 0.930 . S
C2198 C2196 1.419 . S
C2198 C2199 1.362 . S
C2199 H2189 0.930 . S
C2199 C2192 1.409 . S
C2199 C2198 1.362 . S
H2200 C2206 0.930 . S
H2201 C2209 0.930 . S
H2202 C2210 0.930 . S
H2203 C2211 0.930 . S
H2204 C2214 0.930 . S
H2205 C2215 0.930 . S
C2206 H2200 0.930 . S
C2206 C2207 1.355 . S
C2206 C2208 1.415 . S
C2207 C2206 1.355 . S
C2207 C2209 1.419 . S
C2208 C2206 1.415 . S
C2208 C2213 1.425 . S
C2208 C2215 1.409 . S
C2209 H2201 0.930 . S
C2209 C2207 1.419 . S
C2209 C2210 1.362 . S
C2210 H2202 0.930 . S
C2210 C2209 1.362 . S
C2210 C2213 1.409 . S
C2211 H2203 0.930 . S
C2211 C2212 1.355 . S
C2211 C2213 1.415 . S
C2212 C2211 1.355 . S
C2212 C2214 1.419 . S
C2213 C2208 1.425 . S
C2213 C2210 1.409 . S
C2213 C2211 1.415 . S
C2214 H2204 0.930 . S
C2214 C2212 1.419 . S
C2214 C2215 1.362 . S
C2215 H2205 0.930 . S
C2215 C2208 1.409 . S
C2215 C2214 1.362 . S
H2216 C2222 0.930 . S
H2217 C2225 0.930 . S
H2218 C2226 0.930 . S
H2219 C2227 0.930 . S
H2220 C2230 0.930 . S
H2221 C2231 0.930 . S
C2222 H2216 0.930 . S
C2222 C2223 1.355 . S
C2222 C2224 1.415 . S
C2223 C2222 1.355 . S
C2223 C2225 1.419 . S
C2224 C2222 1.415 . S
C2224 C2229 1.425 . S
C2224 C2231 1.409 . S
C2225 H2217 0.930 . S
C2225 C2223 1.419 . S
C2225 C2226 1.362 . S
C2226 H2218 0.930 . S
C2226 C2225 1.362 . S
C2226 C2229 1.409 . S
C2227 H2219 0.930 . S
C2227 C2228 1.355 . S
C2227 C2229 1.415 . S
C2228 C2227 1.355 . S
C2228 C2230 1.419 . S
C2229 C2224 1.425 . S
C2229 C2226 1.409 . S
C2229 C2227 1.415 . S
C2230 H2220 0.930 . S
C2230 C2228 1.419 . S
C2230 C2231 1.362 . S
C2231 H2221 0.930 . S
C2231 C2224 1.409 . S
C2231 C2230 1.362 . S
H2232 C2238 0.930 . S
H2233 C2241 0.930 . S
H2234 C2242 0.930 . S
H2235 C2243 0.930 . S
H2236 C2246 0.930 . S
H2237 C2247 0.930 . S
C2238 H2232 0.930 . S
C2238 C2239 1.355 . S
C2238 C2240 1.415 . S
C2239 C2238 1.355 . S
C2239 C2241 1.419 . S
C2240 C2238 1.415 . S
C2240 C2245 1.425 . S
C2240 C2247 1.409 . S
C2241 H2233 0.930 . S
C2241 C2239 1.419 . S
C2241 C2242 1.362 . S
C2242 H2234 0.930 . S
C2242 C2241 1.362 . S
C2242 C2245 1.409 . S
C2243 H2235 0.930 . S
C2243 C2244 1.355 . S
C2243 C2245 1.415 . S
C2244 C2243 1.355 . S
C2244 C2246 1.419 . S
C2245 C2240 1.425 . S
C2245 C2242 1.409 . S
C2245 C2243 1.415 . S
C2246 H2236 0.930 . S
C2246 C2244 1.419 . S
C2246 C2247 1.362 . S
C2247 H2237 0.930 . S
C2247 C2240 1.409 . S
C2247 C2246 1.362 . S
H2248 C2254 0.930 . S
H2249 C2257 0.930 . S
H2250 C2258 0.930 . S
H2251 C2259 0.930 . S
H2252 C2262 0.930 . S
H2253 C2263 0.930 . S
C2254 H2248 0.930 . S
C2254 C2255 1.355 . S
C2254 C2256 1.415 . S
C2255 C2254 1.355 . S
C2255 C2257 1.419 . S
C2256 C2254 1.415 . S
C2256 C2261 1.425 . S
C2256 C2263 1.409 . S
C2257 H2249 0.930 . S
C2257 C2255 1.419 . S
C2257 C2258 1.362 . S
C2258 H2250 0.930 . S
C2258 C2257 1.362 . S
C2258 C2261 1.409 . S
C2259 H2251 0.930 . S
C2259 C2260 1.355 . S
C2259 C2261 1.415 . S
C2260 C2259 1.355 . S
C2260 C2262 1.419 . S
C2261 C2256 1.425 . S
C2261 C2258 1.409 . S
C2261 C2259 1.415 . S
C2262 H2252 0.930 . S
C2262 C2260 1.419 . S
C2262 C2263 1.362 . S
C2263 H2253 0.930 . S
C2263 C2256 1.409 . S
C2263 C2262 1.362 . S
H2264 C2270 0.930 . S
H2265 C2273 0.930 . S
H2266 C2274 0.930 . S
H2267 C2275 0.930 . S
H2268 C2278 0.930 . S
H2269 C2279 0.930 . S
C2270 H2264 0.930 . S
C2270 C2271 1.355 . S
C2270 C2272 1.415 . S
C2271 C2270 1.355 . S
C2271 C2273 1.419 . S
C2272 C2270 1.415 . S
C2272 C2277 1.425 . S
C2272 C2279 1.409 . S
C2273 H2265 0.930 . S
C2273 C2271 1.419 . S
C2273 C2274 1.362 . S
C2274 H2266 0.930 . S
C2274 C2273 1.362 . S
C2274 C2277 1.409 . S
C2275 H2267 0.930 . S
C2275 C2276 1.355 . S
C2275 C2277 1.415 . S
C2276 C2275 1.355 . S
C2276 C2278 1.419 . S
C2277 C2272 1.425 . S
C2277 C2274 1.409 . S
C2277 C2275 1.415 . S
C2278 H2268 0.930 . S
C2278 C2276 1.419 . S
C2278 C2279 1.362 . S
C2279 H2269 0.930 . S
C2279 C2272 1.409 . S
C2279 C2278 1.362 . S
H2280 C2286 0.930 . S
H2281 C2289 0.930 . S
H2282 C2290 0.930 . S
H2283 C2291 0.930 . S
H2284 C2294 0.930 . S
H2285 C2295 0.930 . S
C2286 H2280 0.930 . S
C2286 C2287 1.355 . S
C2286 C2288 1.415 1_556 S
C2287 C2286 1.355 . S
C2287 C2289 1.419 . S
C2288 C2286 1.415 1_554 S
C2288 C2293 1.425 . S
C2288 C2295 1.409 . S
C2289 H2281 0.930 . S
C2289 C2287 1.419 . S
C2289 C2290 1.362 . S
C2290 H2282 0.930 . S
C2290 C2289 1.362 . S
C2290 C2293 1.409 1_556 S
C2291 H2283 0.930 . S
C2291 C2292 1.355 . S
C2291 C2293 1.415 . S
C2292 C2291 1.355 . S
C2292 C2294 1.419 . S
C2293 C2288 1.425 . S
C2293 C2290 1.409 1_554 S
C2293 C2291 1.415 . S
C2294 H2284 0.930 . S
C2294 C2292 1.419 . S
C2294 C2295 1.362 . S
C2295 H2285 0.930 . S
C2295 C2288 1.409 . S
C2295 C2294 1.362 . S
H2296 C2302 0.930 . S
H2297 C2305 0.930 . S
H2298 C2306 0.930 . S
H2299 C2307 0.930 . S
H2300 C2310 0.930 . S
H2301 C2311 0.930 . S
C2302 H2296 0.930 . S
C2302 C2303 1.355 . S
C2302 C2304 1.415 1_556 S
C2303 C2302 1.355 . S
C2303 C2305 1.419 . S
C2304 C2302 1.415 1_554 S
C2304 C2309 1.425 . S
C2304 C2311 1.409 . S
C2305 H2297 0.930 . S
C2305 C2303 1.419 . S
C2305 C2306 1.362 . S
C2306 H2298 0.930 . S
C2306 C2305 1.362 . S
C2306 C2309 1.409 1_556 S
C2307 H2299 0.930 . S
C2307 C2308 1.355 . S
C2307 C2309 1.415 . S
C2308 C2307 1.355 . S
C2308 C2310 1.419 . S
C2309 C2304 1.425 . S
C2309 C2306 1.409 1_554 S
C2309 C2307 1.415 . S
C2310 H2300 0.930 . S
C2310 C2308 1.419 . S
C2310 C2311 1.362 . S
C2311 H2301 0.930 . S
C2311 C2304 1.409 . S
C2311 C2310 1.362 . S
H2312 C2318 0.930 . S
H2313 C2321 0.930 . S
H2314 C2322 0.930 . S
H2315 C2323 0.930 . S
H2316 C2326 0.930 . S
H2317 C2327 0.930 . S
C2318 H2312 0.930 . S
C2318 C2319 1.355 . S
C2318 C2320 1.415 1_556 S
C2319 C2318 1.355 . S
C2319 C2321 1.419 . S
C2320 C2318 1.415 1_554 S
C2320 C2325 1.425 . S
C2320 C2327 1.409 . S
C2321 H2313 0.930 . S
C2321 C2319 1.419 . S
C2321 C2322 1.362 . S
C2322 H2314 0.930 . S
C2322 C2321 1.362 . S
C2322 C2325 1.409 1_556 S
C2323 H2315 0.930 . S
C2323 C2324 1.355 . S
C2323 C2325 1.415 . S
C2324 C2323 1.355 . S
C2324 C2326 1.419 . S
C2325 C2320 1.425 . S
C2325 C2322 1.409 1_554 S
C2325 C2323 1.415 . S
C2326 H2316 0.930 . S
C2326 C2324 1.419 . S
C2326 C2327 1.362 . S
C2327 H2317 0.930 . S
C2327 C2320 1.409 . S
C2327 C2326 1.362 . S
H2328 C2334 0.930 . S
H2329 C2337 0.930 . S
H2330 C2338 0.930 . S
H2331 C2339 0.930 . S
H2332 C2342 0.930 . S
H2333 C2343 0.930 . S
C2334 H2328 0.930 . S
C2334 C2335 1.355 . S
C2334 C2336 1.415 . S
C2335 C2334 1.355 . S
C2335 C2337 1.419 . S
C2336 C2334 1.415 . S
C2336 C2341 1.425 . S
C2336 C2343 1.409 . S
C2337 H2329 0.930 . S
C2337 C2335 1.419 . S
C2337 C2338 1.362 . S
C2338 H2330 0.930 . S
C2338 C2337 1.362 . S
C2338 C2341 1.409 . S
C2339 H2331 0.930 . S
C2339 C2340 1.355 . S
C2339 C2341 1.415 . S
C2340 C2339 1.355 . S
C2340 C2342 1.419 . S
C2341 C2336 1.425 . S
C2341 C2338 1.409 . S
C2341 C2339 1.415 . S
C2342 H2332 0.930 . S
C2342 C2340 1.419 . S
C2342 C2343 1.362 . S
C2343 H2333 0.930 . S
C2343 C2336 1.409 . S
C2343 C2342 1.362 . S
H2344 C2350 0.930 . S
H2345 C2353 0.930 . S
H2346 C2354 0.930 . S
H2347 C2355 0.930 . S
H2348 C2358 0.930 . S
H2349 C2359 0.930 . S
C2350 H2344 0.930 . S
C2350 C2351 1.355 . S
C2350 C2352 1.415 . S
C2351 C2350 1.355 . S
C2351 C2353 1.419 . S
C2352 C2350 1.415 . S
C2352 C2357 1.425 . S
C2352 C2359 1.409 . S
C2353 H2345 0.930 . S
C2353 C2351 1.419 . S
C2353 C2354 1.362 . S
C2354 H2346 0.930 . S
C2354 C2353 1.362 . S
C2354 C2357 1.409 . S
C2355 H2347 0.930 . S
C2355 C2356 1.355 . S
C2355 C2357 1.415 . S
C2356 C2355 1.355 . S
C2356 C2358 1.419 . S
C2357 C2352 1.425 . S
C2357 C2354 1.409 . S
C2357 C2355 1.415 . S
C2358 H2348 0.930 . S
C2358 C2356 1.419 . S
C2358 C2359 1.362 . S
C2359 H2349 0.930 . S
C2359 C2352 1.409 . S
C2359 C2358 1.362 . S
H2360 C2366 0.930 . S
H2361 C2369 0.930 . S
H2362 C2370 0.930 . S
H2363 C2371 0.930 . S
H2364 C2374 0.930 . S
H2365 C2375 0.930 . S
C2366 H2360 0.930 . S
C2366 C2367 1.355 . S
C2366 C2368 1.415 . S
C2367 C2366 1.355 . S
C2367 C2369 1.419 . S
C2368 C2366 1.415 . S
C2368 C2373 1.425 . S
C2368 C2375 1.409 . S
C2369 H2361 0.930 . S
C2369 C2367 1.419 . S
C2369 C2370 1.362 . S
C2370 H2362 0.930 . S
C2370 C2369 1.362 . S
C2370 C2373 1.409 . S
C2371 H2363 0.930 . S
C2371 C2372 1.355 . S
C2371 C2373 1.415 . S
C2372 C2371 1.355 . S
C2372 C2374 1.419 . S
C2373 C2368 1.425 . S
C2373 C2370 1.409 . S
C2373 C2371 1.415 . S
C2374 H2364 0.930 . S
C2374 C2372 1.419 . S
C2374 C2375 1.362 . S
C2375 H2365 0.930 . S
C2375 C2368 1.409 . S
C2375 C2374 1.362 . S
H2376 C2382 0.930 . S
H2377 C2385 0.930 . S
H2378 C2386 0.930 . S
H2379 C2387 0.930 . S
H2380 C2390 0.930 . S
H2381 C2391 0.930 . S
C2382 H2376 0.930 . S
C2382 C2383 1.355 . S
C2382 C2384 1.415 . S
C2383 C2382 1.355 . S
C2383 C2385 1.419 . S
C2384 C2382 1.415 . S
C2384 C2389 1.425 . S
C2384 C2391 1.409 . S
C2385 H2377 0.930 . S
C2385 C2383 1.419 . S
C2385 C2386 1.362 . S
C2386 H2378 0.930 . S
C2386 C2385 1.362 . S
C2386 C2389 1.409 . S
C2387 H2379 0.930 . S
C2387 C2388 1.355 . S
C2387 C2389 1.415 . S
C2388 C2387 1.355 . S
C2388 C2390 1.419 . S
C2389 C2384 1.425 . S
C2389 C2386 1.409 . S
C2389 C2387 1.415 . S
C2390 H2380 0.930 . S
C2390 C2388 1.419 . S
C2390 C2391 1.362 . S
C2391 H2381 0.930 . S
C2391 C2384 1.409 . S
C2391 C2390 1.362 . S
H2392 C2398 0.930 . S
H2393 C2401 0.930 . S
H2394 C2402 0.930 . S
H2395 C2403 0.930 . S
H2396 C2406 0.930 . S
H2397 C2407 0.930 . S
C2398 H2392 0.930 . S
C2398 C2399 1.355 . S
C2398 C2400 1.415 . S
C2399 C2398 1.355 . S
C2399 C2401 1.419 . S
C2400 C2398 1.415 . S
C2400 C2405 1.425 . S
C2400 C2407 1.409 . S
C2401 H2393 0.930 . S
C2401 C2399 1.419 . S
C2401 C2402 1.362 . S
C2402 H2394 0.930 . S
C2402 C2401 1.362 . S
C2402 C2405 1.409 . S
C2403 H2395 0.930 . S
C2403 C2404 1.355 . S
C2403 C2405 1.415 . S
C2404 C2403 1.355 . S
C2404 C2406 1.419 . S
C2405 C2400 1.425 . S
C2405 C2402 1.409 . S
C2405 C2403 1.415 . S
C2406 H2396 0.930 . S
C2406 C2404 1.419 . S
C2406 C2407 1.362 . S
C2407 H2397 0.930 . S
C2407 C2400 1.409 . S
C2407 C2406 1.362 . S
H2408 C2414 0.930 . S
H2409 C2417 0.930 . S
H2410 C2418 0.930 . S
H2411 C2419 0.930 . S
H2412 C2422 0.930 . S
H2413 C2423 0.930 . S
C2414 H2408 0.930 . S
C2414 C2415 1.355 . S
C2414 C2416 1.415 . S
C2415 C2414 1.355 . S
C2415 C2417 1.419 . S
C2416 C2414 1.415 . S
C2416 C2421 1.425 . S
C2416 C2423 1.409 . S
C2417 H2409 0.930 . S
C2417 C2415 1.419 . S
C2417 C2418 1.362 . S
C2418 H2410 0.930 . S
C2418 C2417 1.362 . S
C2418 C2421 1.409 . S
C2419 H2411 0.930 . S
C2419 C2420 1.355 . S
C2419 C2421 1.415 . S
C2420 C2419 1.355 . S
C2420 C2422 1.419 . S
C2421 C2416 1.425 . S
C2421 C2418 1.409 . S
C2421 C2419 1.415 . S
C2422 H2412 0.930 . S
C2422 C2420 1.419 . S
C2422 C2423 1.362 . S
C2423 H2413 0.930 . S
C2423 C2416 1.409 . S
C2423 C2422 1.362 . S
H2424 C2430 0.930 . S
H2425 C2433 0.930 . S
H2426 C2434 0.930 . S
H2427 C2435 0.930 . S
H2428 C2438 0.930 . S
H2429 C2439 0.930 . S
C2430 H2424 0.930 . S
C2430 C2431 1.355 . S
C2430 C2432 1.415 . S
C2431 C2430 1.355 . S
C2431 C2433 1.419 . S
C2432 C2430 1.415 . S
C2432 C2437 1.425 . S
C2432 C2439 1.409 1_554 S
C2433 H2425 0.930 . S
C2433 C2431 1.419 . S
C2433 C2434 1.362 . S
C2434 H2426 0.930 . S
C2434 C2433 1.362 . S
C2434 C2437 1.409 . S
C2435 H2427 0.930 . S
C2435 C2436 1.355 . S
C2435 C2437 1.415 1_556 S
C2436 C2435 1.355 . S
C2436 C2438 1.419 . S
C2437 C2432 1.425 . S
C2437 C2434 1.409 . S
C2437 C2435 1.415 1_554 S
C2438 H2428 0.930 . S
C2438 C2436 1.419 . S
C2438 C2439 1.362 . S
C2439 H2429 0.930 . S
C2439 C2432 1.409 1_556 S
C2439 C2438 1.362 . S
H2440 C2446 0.930 . S
H2441 C2449 0.930 . S
H2442 C2450 0.930 . S
H2443 C2451 0.930 . S
H2444 C2454 0.930 . S
H2445 C2455 0.930 . S
C2446 H2440 0.930 . S
C2446 C2447 1.355 . S
C2446 C2448 1.415 1_556 S
C2447 C2446 1.355 . S
C2447 C2449 1.419 . S
C2448 C2446 1.415 1_554 S
C2448 C2453 1.425 . S
C2448 C2455 1.409 . S
C2449 H2441 0.930 . S
C2449 C2447 1.419 . S
C2449 C2450 1.362 . S
C2450 H2442 0.930 . S
C2450 C2449 1.362 . S
C2450 C2453 1.409 1_556 S
C2451 H2443 0.930 . S
C2451 C2452 1.355 . S
C2451 C2453 1.415 . S
C2452 C2451 1.355 . S
C2452 C2454 1.419 . S
C2453 C2448 1.425 . S
C2453 C2450 1.409 1_554 S
C2453 C2451 1.415 . S
C2454 H2444 0.930 . S
C2454 C2452 1.419 . S
C2454 C2455 1.362 . S
C2455 H2445 0.930 . S
C2455 C2448 1.409 . S
C2455 C2454 1.362 . S
H2456 C2462 0.930 . S
H2457 C2465 0.930 . S
H2458 C2466 0.930 . S
H2459 C2467 0.930 . S
H2460 C2470 0.930 . S
H2461 C2471 0.930 . S
C2462 H2456 0.930 . S
C2462 C2463 1.355 . S
C2462 C2464 1.415 1_556 S
C2463 C2462 1.355 . S
C2463 C2465 1.419 . S
C2464 C2462 1.415 1_554 S
C2464 C2469 1.425 . S
C2464 C2471 1.409 . S
C2465 H2457 0.930 . S
C2465 C2463 1.419 . S
C2465 C2466 1.362 . S
C2466 H2458 0.930 . S
C2466 C2465 1.362 . S
C2466 C2469 1.409 1_556 S
C2467 H2459 0.930 . S
C2467 C2468 1.355 . S
C2467 C2469 1.415 . S
C2468 C2467 1.355 . S
C2468 C2470 1.419 . S
C2469 C2464 1.425 . S
C2469 C2466 1.409 1_554 S
C2469 C2467 1.415 . S
C2470 H2460 0.930 . S
C2470 C2468 1.419 . S
C2470 C2471 1.362 . S
C2471 H2461 0.930 . S
C2471 C2464 1.409 . S
C2471 C2470 1.362 . S
H2472 C2478 0.930 . S
H2473 C2481 0.930 . S
H2474 C2482 0.930 . S
H2475 C2483 0.930 . S
H2476 C2486 0.930 . S
H2477 C2487 0.930 . S
C2478 H2472 0.930 . S
C2478 C2479 1.355 . S
C2478 C2480 1.415 . S
C2479 C2478 1.355 . S
C2479 C2481 1.419 . S
C2480 C2478 1.415 . S
C2480 C2485 1.425 . S
C2480 C2487 1.409 . S
C2481 H2473 0.930 . S
C2481 C2479 1.419 . S
C2481 C2482 1.362 . S
C2482 H2474 0.930 . S
C2482 C2481 1.362 . S
C2482 C2485 1.409 . S
C2483 H2475 0.930 . S
C2483 C2484 1.355 . S
C2483 C2485 1.415 . S
C2484 C2483 1.355 . S
C2484 C2486 1.419 . S
C2485 C2480 1.425 . S
C2485 C2482 1.409 . S
C2485 C2483 1.415 . S
C2486 H2476 0.930 . S
C2486 C2484 1.419 . S
C2486 C2487 1.362 . S
C2487 H2477 0.930 . S
C2487 C2480 1.409 . S
C2487 C2486 1.362 . S
H2488 C2494 0.930 . S
H2489 C2497 0.930 . S
H2490 C2498 0.930 . S
H2491 C2499 0.930 . S
H2492 C2502 0.930 . S
H2493 C2503 0.930 . S
C2494 H2488 0.930 . S
C2494 C2495 1.355 . S
C2494 C2496 1.415 . S
C2495 C2494 1.355 . S
C2495 C2497 1.419 . S
C2496 C2494 1.415 . S
C2496 C2501 1.425 . S
C2496 C2503 1.409 . S
C2497 H2489 0.930 . S
C2497 C2495 1.419 . S
C2497 C2498 1.362 . S
C2498 H2490 0.930 . S
C2498 C2497 1.362 . S
C2498 C2501 1.409 . S
C2499 H2491 0.930 . S
C2499 C2500 1.355 . S
C2499 C2501 1.415 . S
C2500 C2499 1.355 . S
C2500 C2502 1.419 . S
C2501 C2496 1.425 . S
C2501 C2498 1.409 . S
C2501 C2499 1.415 . S
C2502 H2492 0.930 . S
C2502 C2500 1.419 . S
C2502 C2503 1.362 . S
C2503 H2493 0.930 . S
C2503 C2496 1.409 . S
C2503 C2502 1.362 . S
H2504 C2510 0.930 . S
H2505 C2513 0.930 . S
H2506 C2514 0.930 . S
H2507 C2515 0.930 . S
H2508 C2518 0.930 . S
H2509 C2519 0.930 . S
C2510 H2504 0.930 . S
C2510 C2511 1.355 . S
C2510 C2512 1.415 . S
C2511 C2510 1.355 . S
C2511 C2513 1.419 . S
C2512 C2510 1.415 . S
C2512 C2517 1.425 . S
C2512 C2519 1.409 . S
C2513 H2505 0.930 . S
C2513 C2511 1.419 . S
C2513 C2514 1.362 . S
C2514 H2506 0.930 . S
C2514 C2513 1.362 . S
C2514 C2517 1.409 . S
C2515 H2507 0.930 . S
C2515 C2516 1.355 . S
C2515 C2517 1.415 . S
C2516 C2515 1.355 . S
C2516 C2518 1.419 . S
C2517 C2512 1.425 . S
C2517 C2514 1.409 . S
C2517 C2515 1.415 . S
C2518 H2508 0.930 . S
C2518 C2516 1.419 . S
C2518 C2519 1.362 . S
C2519 H2509 0.930 . S
C2519 C2512 1.409 . S
C2519 C2518 1.362 . S
H2520 C2526 0.930 . S
H2521 C2529 0.930 . S
H2522 C2530 0.930 1_556 S
H2523 C2531 0.930 . S
H2524 C2534 0.930 . S
H2525 C2535 0.930 . S
C2526 H2520 0.930 . S
C2526 C2527 1.355 . S
C2526 C2528 1.415 1_554 S
C2527 C2526 1.355 . S
C2527 C2529 1.419 . S
C2528 C2526 1.415 1_556 S
C2528 C2533 1.425 . S
C2528 C2535 1.409 . S
C2529 H2521 0.930 . S
C2529 C2527 1.419 . S
C2529 C2530 1.362 . S
C2530 H2522 0.930 1_554 S
C2530 C2529 1.362 . S
C2530 C2533 1.409 1_554 S
C2531 H2523 0.930 . S
C2531 C2532 1.355 . S
C2531 C2533 1.415 . S
C2532 C2531 1.355 . S
C2532 C2534 1.419 . S
C2533 C2528 1.425 . S
C2533 C2530 1.409 1_556 S
C2533 C2531 1.415 . S
C2534 H2524 0.930 . S
C2534 C2532 1.419 . S
C2534 C2535 1.362 . S
C2535 H2525 0.930 . S
C2535 C2528 1.409 . S
C2535 C2534 1.362 . S
H2536 C2542 0.930 . S
H2537 C2545 0.930 . S
H2538 C2546 0.930 . S
H2539 C2547 0.930 . S
H2540 C2550 0.930 . S
H2541 C2551 0.930 1_556 S
C2542 H2536 0.930 . S
C2542 C2543 1.355 . S
C2542 C2544 1.415 . S
C2543 C2542 1.355 . S
C2543 C2545 1.419 . S
C2544 C2542 1.415 . S
C2544 C2549 1.425 . S
C2544 C2551 1.409 1_556 S
C2545 H2537 0.930 . S
C2545 C2543 1.419 . S
C2545 C2546 1.362 . S
C2546 H2538 0.930 . S
C2546 C2545 1.362 . S
C2546 C2549 1.409 . S
C2547 H2539 0.930 . S
C2547 C2548 1.355 . S
C2547 C2549 1.415 1_554 S
C2548 C2547 1.355 . S
C2548 C2550 1.419 . S
C2549 C2544 1.425 . S
C2549 C2546 1.409 . S
C2549 C2547 1.415 1_556 S
C2550 H2540 0.930 . S
C2550 C2548 1.419 . S
C2550 C2551 1.362 . S
C2551 H2541 0.930 1_554 S
C2551 C2544 1.409 1_554 S
C2551 C2550 1.362 . S
H2552 C2558 0.930 . S
H2553 C2561 0.930 . S
H2554 C2562 0.930 . S
H2555 C2563 0.930 . S
H2556 C2566 0.930 . S
H2557 C2567 0.930 . S
C2558 H2552 0.930 . S
C2558 C2559 1.355 . S
C2558 C2560 1.415 1_554 S
C2559 C2558 1.355 . S
C2559 C2561 1.419 . S
C2560 C2558 1.415 1_556 S
C2560 C2565 1.425 . S
C2560 C2567 1.409 . S
C2561 H2553 0.930 . S
C2561 C2559 1.419 . S
C2561 C2562 1.362 . S
C2562 H2554 0.930 . S
C2562 C2561 1.362 . S
C2562 C2565 1.409 1_554 S
C2563 H2555 0.930 . S
C2563 C2564 1.355 . S
C2563 C2565 1.415 . S
C2564 C2563 1.355 . S
C2564 C2566 1.419 . S
C2565 C2560 1.425 . S
C2565 C2562 1.409 1_556 S
C2565 C2563 1.415 . S
C2566 H2556 0.930 . S
C2566 C2564 1.419 . S
C2566 C2567 1.362 . S
C2567 H2557 0.930 . S
C2567 C2560 1.409 . S
C2567 C2566 1.362 . S
H2568 C2574 0.930 . S
H2569 C2577 0.930 . S
H2570 C2578 0.930 . S
H2571 C2579 0.930 . S
H2572 C2582 0.930 . S
H2573 C2583 0.930 1_556 S
C2574 H2568 0.930 . S
C2574 C2575 1.355 . S
C2574 C2576 1.415 . S
C2575 C2574 1.355 . S
C2575 C2577 1.419 . S
C2576 C2574 1.415 . S
C2576 C2581 1.425 . S
C2576 C2583 1.409 1_556 S
C2577 H2569 0.930 . S
C2577 C2575 1.419 . S
C2577 C2578 1.362 . S
C2578 H2570 0.930 . S
C2578 C2577 1.362 . S
C2578 C2581 1.409 . S
C2579 H2571 0.930 . S
C2579 C2580 1.355 . S
C2579 C2581 1.415 1_554 S
C2580 C2579 1.355 . S
C2580 C2582 1.419 . S
C2581 C2576 1.425 . S
C2581 C2578 1.409 . S
C2581 C2579 1.415 1_556 S
C2582 H2572 0.930 . S
C2582 C2580 1.419 . S
C2582 C2583 1.362 . S
C2583 H2573 0.930 1_554 S
C2583 C2576 1.409 1_554 S
C2583 C2582 1.362 . S
H2584 C2590 0.930 . S
H2585 C2593 0.930 . S
H2586 C2594 0.930 . S
H2587 C2595 0.930 . S
H2588 C2598 0.930 . S
H2589 C2599 0.930 1_556 S
C2590 H2584 0.930 . S
C2590 C2591 1.355 . S
C2590 C2592 1.415 . S
C2591 C2590 1.355 . S
C2591 C2593 1.419 . S
C2592 C2590 1.415 . S
C2592 C2597 1.425 . S
C2592 C2599 1.409 1_556 S
C2593 H2585 0.930 . S
C2593 C2591 1.419 . S
C2593 C2594 1.362 . S
C2594 H2586 0.930 . S
C2594 C2593 1.362 . S
C2594 C2597 1.409 . S
C2595 H2587 0.930 . S
C2595 C2596 1.355 . S
C2595 C2597 1.415 1_554 S
C2596 C2595 1.355 . S
C2596 C2598 1.419 . S
C2597 C2592 1.425 . S
C2597 C2594 1.409 . S
C2597 C2595 1.415 1_556 S
C2598 H2588 0.930 . S
C2598 C2596 1.419 . S
C2598 C2599 1.362 . S
C2599 H2589 0.930 1_554 S
C2599 C2592 1.409 1_554 S
C2599 C2598 1.362 . S
H2600 C2606 0.930 . S
H2601 C2609 0.930 . S
H2602 C2610 0.930 . S
H2603 C2611 0.930 . S
H2604 C2614 0.930 . S
H2605 C2615 0.930 1_556 S
C2606 H2600 0.930 . S
C2606 C2607 1.355 . S
C2606 C2608 1.415 . S
C2607 C2606 1.355 . S
C2607 C2609 1.419 . S
C2608 C2606 1.415 . S
C2608 C2613 1.425 . S
C2608 C2615 1.409 1_556 S
C2609 H2601 0.930 . S
C2609 C2607 1.419 . S
C2609 C2610 1.362 . S
C2610 H2602 0.930 . S
C2610 C2609 1.362 . S
C2610 C2613 1.409 . S
C2611 H2603 0.930 . S
C2611 C2612 1.355 . S
C2611 C2613 1.415 1_554 S
C2612 C2611 1.355 . S
C2612 C2614 1.419 . S
C2613 C2608 1.425 . S
C2613 C2610 1.409 . S
C2613 C2611 1.415 1_556 S
C2614 H2604 0.930 . S
C2614 C2612 1.419 . S
C2614 C2615 1.362 . S
C2615 H2605 0.930 1_554 S
C2615 C2608 1.409 1_554 S
C2615 C2614 1.362 . S
H2616 C2622 0.930 . S
H2617 C2625 0.930 . S
H2618 C2626 0.930 . S
H2619 C2627 0.930 . S
H2620 C2630 0.930 . S
H2621 C2631 0.930 . S
C2622 H2616 0.930 . S
C2622 C2623 1.355 . S
C2622 C2624 1.415 . S
C2623 C2622 1.355 . S
C2623 C2625 1.419 . S
C2624 C2622 1.415 . S
C2624 C2629 1.425 . S
C2624 C2631 1.409 . S
C2625 H2617 0.930 . S
C2625 C2623 1.419 . S
C2625 C2626 1.362 . S
C2626 H2618 0.930 . S
C2626 C2625 1.362 . S
C2626 C2629 1.409 . S
C2627 H2619 0.930 . S
C2627 C2628 1.355 . S
C2627 C2629 1.415 . S
C2628 C2627 1.355 . S
C2628 C2630 1.419 . S
C2629 C2624 1.425 . S
C2629 C2626 1.409 . S
C2629 C2627 1.415 . S
C2630 H2620 0.930 . S
C2630 C2628 1.419 . S
C2630 C2631 1.362 . S
C2631 H2621 0.930 . S
C2631 C2624 1.409 . S
C2631 C2630 1.362 . S
H2632 C2638 0.930 . S
H2633 C2641 0.930 . S
H2634 C2642 0.930 . S
H2635 C2643 0.930 . S
H2636 C2646 0.930 . S
H2637 C2647 0.930 . S
C2638 H2632 0.930 . S
C2638 C2639 1.355 . S
C2638 C2640 1.415 . S
C2639 C2638 1.355 . S
C2639 C2641 1.419 . S
C2640 C2638 1.415 . S
C2640 C2645 1.425 . S
C2640 C2647 1.409 . S
C2641 H2633 0.930 . S
C2641 C2639 1.419 . S
C2641 C2642 1.362 . S
C2642 H2634 0.930 . S
C2642 C2641 1.362 . S
C2642 C2645 1.409 . S
C2643 H2635 0.930 . S
C2643 C2644 1.355 . S
C2643 C2645 1.415 . S
C2644 C2643 1.355 . S
C2644 C2646 1.419 . S
C2645 C2640 1.425 . S
C2645 C2642 1.409 . S
C2645 C2643 1.415 . S
C2646 H2636 0.930 . S
C2646 C2644 1.419 . S
C2646 C2647 1.362 . S
C2647 H2637 0.930 . S
C2647 C2640 1.409 . S
C2647 C2646 1.362 . S
H2648 C2654 0.930 . S
H2649 C2657 0.930 . S
H2650 C2658 0.930 . S
H2651 C2659 0.930 . S
H2652 C2662 0.930 . S
H2653 C2663 0.930 . S
C2654 H2648 0.930 . S
C2654 C2655 1.355 . S
C2654 C2656 1.415 . S
C2655 C2654 1.355 . S
C2655 C2657 1.419 . S
C2656 C2654 1.415 . S
C2656 C2661 1.425 . S
C2656 C2663 1.409 . S
C2657 H2649 0.930 . S
C2657 C2655 1.419 . S
C2657 C2658 1.362 . S
C2658 H2650 0.930 . S
C2658 C2657 1.362 . S
C2658 C2661 1.409 . S
C2659 H2651 0.930 . S
C2659 C2660 1.355 . S
C2659 C2661 1.415 . S
C2660 C2659 1.355 . S
C2660 C2662 1.419 . S
C2661 C2656 1.425 . S
C2661 C2658 1.409 . S
C2661 C2659 1.415 . S
C2662 H2652 0.930 . S
C2662 C2660 1.419 . S
C2662 C2663 1.362 . S
C2663 H2653 0.930 . S
C2663 C2656 1.409 . S
C2663 C2662 1.362 . S
C1231 C20 1.495 . S
C1236 C530 1.501 . S
C1247 C564 1.513 . S
C1252 C54 1.510 . S
C1263 C598 1.493 . S
C1268 C88 1.498 . S
C1279 C836 1.493 . S
C1284 C122 1.494 . S
C1295 C156 1.495 . S
C1300 C870 1.492 . S
C1311 C904 1.513 . S
C1316 C190 1.510 . S
C1327 C1142 1.506 . S
C1332 C224 1.499 . S
C1343 C258 1.509 . S
C1348 C1176 1.501 . S
C1359 C1210 1.495 . S
C1364 C292 1.502 . S
C1375 C632 1.512 . S
C1380 C326 1.506 . S
C1391 C666 1.506 . S
C1396 C360 1.512 . S
C1407 C700 1.507 . S
C1412 C394 1.499 . S
C1423 C938 1.500 . S
C1428 C428 1.508 . S
C1439 C972 1.511 . S
C1444 C462 1.504 . S
C1455 C496 1.499 . S
C1460 C1006 1.506 . S
C1471 C734 1.506 . S
C1476 C1040 1.512 . S
C1487 C1074 1.496 . S
C1492 C768 1.492 . S
C1503 C802 1.508 . S
C1508 C1108 1.513 . S
C1519 C1019 1.484 . S
C1524 C33 1.480 . S
C1535 C67 1.483 . S
C1540 C951 1.480 . S
C1551 C985 1.483 . S
C1556 C101 1.493 . S
C1567 C475 1.480 . S
C1572 C135 1.488 . S
C1583 C509 1.486 . S
C1588 C169 1.497 . S
C1599 C441 1.482 . S
C1604 C203 1.492 . S
C1615 C237 1.491 . S
C1620 C815 1.501 . S
C1631 C747 1.499 . S
C1636 C271 1.501 . S
C1647 C305 1.483 . S
C1652 C781 1.481 . S
C1663 C1087 1.491 . S
C1668 C339 1.482 . S
C1679 C373 1.502 . S
C1684 C1121 1.498 . S
C1695 C407 1.498 . S
C1700 C1053 1.488 . S
C1711 C883 1.500 . S
C1716 C543 1.501 . S
C1727 C917 1.486 . S
C1732 C577 1.497 . S
C1743 C611 1.494 . S
C1748 C849 1.483 . S
C1759 C645 1.499 . S
C1764 C1223 1.489 . S
C1775 C1155 1.488 . S
C1780 C679 1.480 . S
C1791 C1189 1.492 . S
C1796 C713 1.501 . S
C1807 C2 1.489 . S
C1812 C376 1.476 . S
C1823 C36 1.484 . S
C1828 C308 1.481 . S
C1839 C70 1.479 . S
C1844 C342 1.487 . S
C1855 C104 1.476 . S
C1860 C240 1.490 . S
C1871 C274 1.480 . S
C1876 C138 1.486 . S
C1887 C206 1.483 . S
C1892 C172 1.483 . S
C1903 C784 1.481 . S
C1908 C410 1.484 . S
C1919 C716 1.476 . S
C1924 C444 1.490 . S
C1935 C478 1.486 . S
C1940 C750 1.480 . S
C1951 C648 1.479 . S
C1956 C512 1.486 . S
C1967 C682 1.488 . S
C1972 C546 1.478 . S
C1983 C614 1.476 . S
C1988 C580 1.490 . S
C1999 C1192 1.490 . S
C2004 C818 1.476 . S
C2015 C852 1.490 . S
C2020 C1124 1.476 . S
C2031 C1158 1.490 . S
C2036 C886 1.476 . S
C2047 C1056 1.485 . S
C2052 C920 1.480 . S
C2063 C1090 1.487 . S
C2068 C954 1.479 . S
C2079 C1022 1.484 . S
C2084 C988 1.483 . S
C2095 C9 1.355 . S
C2100 C5 1.417 . S
C2111 C39 1.410 . S
C2116 C43 1.400 . S
C2127 C77 1.346 . S
C2132 C73 1.416 . S
C2143 C107 1.403 . S
C2148 C111 1.382 . S
C2159 C141 1.402 . S
C2164 C145 1.373 . S
C2175 C175 1.406 . S
C2180 C179 1.327 . S
C2191 C209 1.402 . S
C2196 C213 1.372 . S
C2207 C243 1.413 . S
C2212 C247 1.331 . S
C2223 C281 1.325 . S
C2228 C277 1.409 . S
C2239 C315 1.344 . S
C2244 C311 1.402 . S
C2255 C345 1.417 . S
C2260 C349 1.379 . S
C2271 C383 1.331 . S
C2276 C379 1.404 . S
C2287 C413 1.402 . S
C2292 C417 1.340 . S
C2303 C447 1.406 . S
C2308 C451 1.395 . S
C2319 C481 1.406 . S
C2324 C485 1.396 . S
C2335 C515 1.403 . S
C2340 C519 1.384 . S
C2351 C549 1.409 . S
C2356 C553 1.400 . S
C2367 C587 1.349 . S
C2372 C583 1.417 . S
C2383 C617 1.404 . S
C2388 C621 1.331 . S
C2399 C655 1.375 . S
C2404 C651 1.417 . S
C2415 C689 1.371 . S
C2420 C685 1.401 . S
C2431 C723 1.384 . S
C2436 C719 1.403 . S
C2447 C753 1.415 . S
C2452 C757 1.391 . S
C2463 C787 1.411 . S
C2468 C791 1.400 . S
C2479 C825 1.379 . S
C2484 C821 1.417 . S
C2495 C859 1.358 . S
C2500 C855 1.417 . S
C2511 C889 1.408 . S
C2516 C893 1.325 . S
C2527 C923 1.414 . S
C2532 C927 1.396 . S
C2543 C961 1.325 . S
C2548 C957 1.408 . S
C2559 C991 1.406 . S
C2564 C995 1.395 . S
C2575 C1029 1.330 . S
C2580 C1025 1.413 . S
C2591 C1063 1.356 . S
C2596 C1059 1.417 . S
C2607 C1097 1.329 . S
C2612 C1093 1.412 . S
C2623 C1127 1.401 . S
C2628 C1131 1.354 . S
C2639 C1165 1.359 . S
C2644 C1161 1.401 . S
C2655 C1195 1.416 . S
C2660 C1199 1.388 . S
