# Generated by pormake.
# Topology zfh, (5)-cn, num edge types: 1
# Building blocks:
#     Node 0, Type 0, BuildingBlock: XOMCOT_clean_sbu_1, # of connection points: 5
#     Node 1, Type 0, BuildingBlock: XOMCOT_clean_sbu_1, # of connection points: 5
#     Node 2, Type 0, BuildingBlock: XOMCOT_clean_sbu_1, # of connection points: 5
#     Node 3, Type 0, BuildingBlock: XOMCOT_clean_sbu_1, # of connection points: 5
#     Node 4, Type 0, BuildingBlock: XOMCOT_clean_sbu_1, # of connection points: 5
#     Node 5, Type 0, BuildingBlock: XOMCOT_clean_sbu_1, # of connection points: 5
#     Node 6, Type 0, BuildingBlock: XOMCOT_clean_sbu_1, # of connection points: 5
#     Node 7, Type 0, BuildingBlock: XOMCOT_clean_sbu_1, # of connection points: 5
#     Node 8, Type 0, BuildingBlock: XOMCOT_clean_sbu_1, # of connection points: 5
#     Node 9, Type 0, BuildingBlock: XOMCOT_clean_sbu_1, # of connection points: 5
#     Node 10, Type 0, BuildingBlock: XOMCOT_clean_sbu_1, # of connection points: 5
#     Node 11, Type 0, BuildingBlock: XOMCOT_clean_sbu_1, # of connection points: 5
#     Node 12, Type 0, BuildingBlock: XOMCOT_clean_sbu_1, # of connection points: 5
#     Node 13, Type 0, BuildingBlock: XOMCOT_clean_sbu_1, # of connection points: 5
#     Node 14, Type 0, BuildingBlock: XOMCOT_clean_sbu_1, # of connection points: 5
#     Node 15, Type 0, BuildingBlock: XOMCOT_clean_sbu_1, # of connection points: 5
#     Edge 16, Type (0, 0), None
#     Edge 17, Type (0, 0), None
#     Edge 18, Type (0, 0), None
#     Edge 19, Type (0, 0), None
#     Edge 20, Type (0, 0), None
#     Edge 21, Type (0, 0), None
#     Edge 22, Type (0, 0), None
#     Edge 23, Type (0, 0), None
#     Edge 24, Type (0, 0), None
#     Edge 25, Type (0, 0), None
#     Edge 26, Type (0, 0), None
#     Edge 27, Type (0, 0), None
#     Edge 28, Type (0, 0), None
#     Edge 29, Type (0, 0), None
#     Edge 30, Type (0, 0), None
#     Edge 31, Type (0, 0), None
#     Edge 32, Type (0, 0), None
#     Edge 33, Type (0, 0), None
#     Edge 34, Type (0, 0), None
#     Edge 35, Type (0, 0), None
#     Edge 36, Type (0, 0), None
#     Edge 37, Type (0, 0), None
#     Edge 38, Type (0, 0), None
#     Edge 39, Type (0, 0), None
#     Edge 40, Type (0, 0), None
#     Edge 41, Type (0, 0), None
#     Edge 42, Type (0, 0), None
#     Edge 43, Type (0, 0), None
#     Edge 44, Type (0, 0), None
#     Edge 45, Type (0, 0), None
#     Edge 46, Type (0, 0), None
#     Edge 47, Type (0, 0), None
#     Edge 48, Type (0, 0), None
#     Edge 49, Type (0, 0), None
#     Edge 50, Type (0, 0), None
#     Edge 51, Type (0, 0), None
#     Edge 52, Type (0, 0), None
#     Edge 53, Type (0, 0), None
#     Edge 54, Type (0, 0), None
#     Edge 55, Type (0, 0), None
# Relax obj value: 0.221
# Max RMSD: 0.216
# Mean RMSD: 0.216
data_MOF--net-zfh--node1-XOMCOT_clean_sbu_1--edge1-none
_symmetry_space_group_name_H-M    P1
_symmetry_Int_Tables_number       1
_symmetry_cell_setting            triclinic
loop_
_symmetry_equiv_pos_as_xyz
'x, y, z'
_cell_length_a     19.586917
_cell_length_b     19.590927
_cell_length_c     29.184264
_cell_angle_alpha  89.999616
_cell_angle_beta   90.000946
_cell_angle_gamma 89.999943
loop_
_atom_site_label
_atom_site_type_symbol
_atom_site_fract_x
_atom_site_fract_y
_atom_site_fract_z
_atom_type_partial_charge
C0 C 0.52633 0.36319 0.33917 0.0
C1 C 0.48134 0.41648 0.34635 0.0
N2 N 0.44166 0.40081 0.38264 0.0
N3 N 0.51439 0.31383 0.3704 0.0
C4 C 0.46189 0.33821 0.3959 0.0
H5 H 0.5684 0.36305 0.31518 0.0
Co6 Co 0.57263 0.24222 0.38873 0.0
C7 C 0.44178 0.16117 0.40342 0.0
O8 O 0.42215 0.19126 0.44143 0.0
N9 N 0.63115 0.16989 0.40893 0.0
C10 C 0.7016 0.07988 0.41576 0.0
C11 C 0.65692 0.11443 0.38702 0.0
C12 C 0.65926 0.16597 0.45106 0.0
N13 N 0.70227 0.11298 0.45603 0.0
O14 O 0.55632 0.26939 0.4514 0.0
H15 H 0.64504 0.10014 0.35214 0.0
H16 H 0.6499 0.20193 0.47825 0.0
O17 O 0.49802 0.17784 0.38479 0.0
C18 C 0.60112 0.31692 0.45406 0.0
O19 O 0.64027 0.32793 0.41813 0.0
N20 N 0.59522 0.22307 0.32799 0.0
C21 C 0.64876 0.1786 0.24534 0.0
C22 C 0.57913 0.17034 0.25488 0.0
C23 C 0.55284 0.19441 0.29625 0.0
C24 C 0.66168 0.23673 0.31753 0.0
C25 C 0.68975 0.21459 0.27626 0.0
H26 H 0.49904 0.18836 0.30304 0.0
H27 H 0.69408 0.26125 0.34263 0.0
H28 H 0.44242 0.31331 0.42617 0.0
H29 H 0.48104 0.46462 0.32817 0.0
H30 H 0.73062 0.03437 0.40779 0.0
H31 H 0.54563 0.1449 0.23078 0.0
H32 H 0.74355 0.22258 0.26954 0.0
C33 C 0.19341 0.52471 0.33874 0.0
C34 C 0.13994 0.47987 0.34568 0.0
N35 N 0.1544 0.44129 0.38271 0.0
N36 N 0.24173 0.51376 0.37087 0.0
C37 C 0.2165 0.46201 0.39668 0.0
H38 H 0.19433 0.56602 0.31416 0.0
Co39 Co 0.31317 0.5723 0.38928 0.0
C40 C 0.39378 0.44093 0.40332 0.0
O41 O 0.36221 0.41982 0.44041 0.0
N42 N 0.3852 0.63104 0.40951 0.0
C43 C 0.47559 0.70095 0.41652 0.0
C44 C 0.44118 0.65609 0.38782 0.0
C45 C 0.38854 0.65985 0.45143 0.0
N46 N 0.44181 0.70247 0.45653 0.0
O47 O 0.28595 0.55606 0.45197 0.0
H48 H 0.45598 0.6435 0.35314 0.0
H49 H 0.35201 0.65121 0.47839 0.0
O50 O 0.3779 0.49792 0.38543 0.0
C51 C 0.23794 0.60038 0.45451 0.0
O52 O 0.22644 0.63908 0.41844 0.0
N53 N 0.33246 0.59492 0.32857 0.0
C54 C 0.3769 0.64873 0.24598 0.0
C55 C 0.38546 0.57914 0.25552 0.0
C56 C 0.36144 0.55271 0.29686 0.0
C57 C 0.31862 0.66135 0.31815 0.0
C58 C 0.34072 0.68954 0.2769 0.0
H59 H 0.36778 0.49896 0.30365 0.0
H60 H 0.29391 0.69362 0.34323 0.0
H61 H 0.24036 0.4434 0.42757 0.0
H62 H 0.09241 0.47902 0.32678 0.0
H63 H 0.52152 0.72942 0.40873 0.0
H64 H 0.41111 0.54578 0.23142 0.0
H65 H 0.33252 0.7433 0.2702 0.0
C66 C 0.02906 0.19199 0.33918 0.0
C67 C 0.07405 0.13871 0.34636 0.0
N68 N 0.11373 0.15437 0.38264 0.0
N69 N 0.04101 0.24136 0.37041 0.0
C70 C 0.09351 0.21697 0.3959 0.0
H71 H 0.98698 0.19213 0.31519 0.0
Co72 Co 0.98277 0.31297 0.38874 0.0
C73 C 0.11362 0.39401 0.40342 0.0
O74 O 0.13326 0.36392 0.44143 0.0
N75 N 0.92425 0.3853 0.40894 0.0
C76 C 0.85381 0.47531 0.41577 0.0
C77 C 0.89848 0.44076 0.38702 0.0
C78 C 0.89614 0.38922 0.45106 0.0
N79 N 0.85313 0.44221 0.45604 0.0
O80 O 0.99908 0.2858 0.4514 0.0
H81 H 0.91036 0.45505 0.35214 0.0
H82 H 0.9055 0.35326 0.47826 0.0
O83 O 0.05739 0.37735 0.38479 0.0
C84 C 0.95428 0.23826 0.45406 0.0
O85 O 0.91513 0.22726 0.41813 0.0
N86 N 0.96018 0.33212 0.32799 0.0
C87 C 0.90663 0.37659 0.24534 0.0
C88 C 0.97626 0.38484 0.25489 0.0
C89 C 1.00256 0.36077 0.29626 0.0
C90 C 0.89371 0.31846 0.31754 0.0
C91 C 0.86564 0.3406 0.27626 0.0
H92 H 0.05635 0.36682 0.30304 0.0
H93 H 0.86131 0.29394 0.34263 0.0
H94 H 0.11298 0.24188 0.42617 0.0
H95 H 0.07435 0.09057 0.32817 0.0
H96 H 0.82478 0.52082 0.4078 0.0
H97 H 1.00977 0.41027 0.23078 0.0
H98 H 0.81185 0.33261 0.26954 0.0
C99 C 0.36198 0.03048 0.33874 0.0
C100 C 0.41546 0.07531 0.34569 0.0
N101 N 0.40101 0.11387 0.38272 0.0
N102 N 0.31366 0.04142 0.37087 0.0
C103 C 0.33891 0.09317 0.39669 0.0
H104 H 0.36105 0.98918 0.31415 0.0
Co105 Co 0.24222 0.98289 0.38929 0.0
C106 C 0.16162 0.11426 0.40332 0.0
O107 O 0.1932 0.13537 0.44041 0.0
N108 N 0.17019 0.92415 0.40951 0.0
C109 C 0.07981 0.85423 0.41651 0.0
C110 C 0.11421 0.89909 0.38782 0.0
C111 C 0.16686 0.89533 0.45143 0.0
N112 N 0.11358 0.85271 0.45653 0.0
O113 O 0.26944 0.99912 0.45197 0.0
H114 H 0.09941 0.91168 0.35314 0.0
H115 H 0.20338 0.90397 0.47839 0.0
O116 O 0.17749 0.05727 0.38543 0.0
C117 C 0.31745 0.9548 0.45452 0.0
O118 O 0.32895 0.9161 0.41844 0.0
N119 N 0.22294 0.96027 0.32857 0.0
C120 C 0.1785 0.90646 0.24598 0.0
C121 C 0.16993 0.97604 0.25552 0.0
C122 C 0.19395 1.00247 0.29686 0.0
C123 C 0.23678 0.89384 0.31815 0.0
C124 C 0.21468 0.86565 0.2769 0.0
H125 H 0.18761 0.05623 0.30365 0.0
H126 H 0.26149 0.86157 0.34324 0.0
H127 H 0.31505 0.11177 0.42758 0.0
H128 H 0.46298 0.07616 0.32678 0.0
H129 H 0.03387 0.82577 0.40873 0.0
H130 H 0.14428 1.0094 0.23142 0.0
H131 H 0.22288 0.81189 0.2702 0.0
C132 C 1.02633 0.69199 0.11038 0.0
C133 C 0.98134 0.63871 0.1032 0.0
N134 N 0.94166 0.65437 0.06692 0.0
N135 N 1.01439 0.74136 0.07915 0.0
C136 C 0.96189 0.71697 0.05365 0.0
H137 H 0.06841 0.69213 0.13437 0.0
Co138 Co 0.07263 0.81297 0.06082 0.0
C139 C 0.94178 0.89401 0.04613 0.0
O140 O 0.92214 0.86392 0.00813 0.0
N141 N 0.13115 0.88529 0.04062 0.0
C142 C 0.2016 0.97531 0.03379 0.0
C143 C 0.15693 0.94075 0.06253 0.0
C144 C 0.15925 0.88922 -0.00151 0.0
N145 N 0.20227 0.94221 -0.00648 0.0
O146 O 0.05632 0.78579 -0.00185 0.0
H147 H 0.14505 0.95504 0.09742 0.0
H148 H 0.14988 0.85326 0.9713 0.0
O149 O 0.99802 0.87735 0.06476 0.0
C150 C 0.10112 0.73826 -0.00451 0.0
O151 O 0.14027 0.72726 0.03142 0.0
N152 N 0.09522 0.83212 0.12156 0.0
C153 C 0.14876 0.87659 0.20421 0.0
C154 C 0.07913 0.88484 0.19467 0.0
C155 C 0.05284 0.86077 0.1533 0.0
C156 C 0.16169 0.81845 0.13202 0.0
C157 C 0.18976 0.8406 0.1733 0.0
H158 H 0.99904 0.86682 0.14651 0.0
H159 H 0.19409 0.79393 0.10692 0.0
H160 H 0.94242 0.74188 0.02338 0.0
H161 H 0.98105 0.59057 0.12139 0.0
H162 H 0.23063 1.02081 0.04176 0.0
H163 H 0.04563 0.91028 0.21877 0.0
H164 H 0.24355 0.83261 0.18001 0.0
C165 C 0.86198 1.0247 0.11082 0.0
C166 C 0.91546 0.97987 0.10387 0.0
N167 N 0.90101 0.94131 0.06683 0.0
N168 N 0.81366 1.01376 0.07869 0.0
C169 C 0.83891 0.96201 0.05287 0.0
H170 H 0.86105 0.066 0.1354 0.0
Co171 Co 0.74223 0.0723 0.06027 0.0
C172 C 0.66161 0.94093 0.04623 0.0
O173 O 0.6932 0.91982 0.00914 0.0
N174 N 0.6702 0.13104 0.04005 0.0
C175 C 0.57981 0.20095 0.03304 0.0
C176 C 0.61422 0.1561 0.06173 0.0
C177 C 0.66687 0.15986 -0.00188 0.0
N178 N 0.61359 0.20248 -0.00697 0.0
O179 O 0.76944 0.05606 -0.00242 0.0
H180 H 0.59942 0.1435 0.09641 0.0
H181 H 0.7034 0.15122 0.97117 0.0
O182 O 0.67749 0.99792 0.06413 0.0
C183 C 0.81746 0.10038 -0.00496 0.0
O184 O 0.82897 0.13908 0.03112 0.0
N185 N 0.72294 0.09491 0.12099 0.0
C186 C 0.6785 0.14872 0.20357 0.0
C187 C 0.66993 0.07914 0.19404 0.0
C188 C 0.69396 0.05271 0.1527 0.0
C189 C 0.73678 0.16134 0.13141 0.0
C190 C 0.71468 0.18954 0.17266 0.0
H191 H 0.68761 0.99895 0.14591 0.0
H192 H 0.76149 0.19361 0.10632 0.0
H193 H 0.81505 0.94341 0.02198 0.0
H194 H 0.96298 0.97901 0.12277 0.0
H195 H 0.53388 0.22942 0.04082 0.0
H196 H 0.64428 0.04578 0.21813 0.0
H197 H 0.72288 0.24329 0.17936 0.0
C198 C 0.52907 0.86319 0.11038 0.0
C199 C 0.57405 0.91648 0.10319 0.0
N200 N 0.61371 0.90083 0.0669 0.0
N201 N 0.54101 0.81383 0.07915 0.0
C202 C 0.5935 0.83822 0.05364 0.0
H203 H 0.487 0.86304 0.13438 0.0
Co204 Co 0.48277 0.74221 0.06082 0.0
C205 C 0.61362 0.66118 0.04613 0.0
O206 O 0.63326 0.69127 0.00813 0.0
N207 N 0.42424 0.66989 0.04062 0.0
C208 C 0.3538 0.57988 0.03379 0.0
C209 C 0.39847 0.61443 0.06254 0.0
C210 C 0.39614 0.66596 -0.00151 0.0
N211 N 0.35313 0.61297 -0.00648 0.0
O212 O 0.49907 0.76938 -0.00185 0.0
H213 H 0.41035 0.60014 0.09742 0.0
H214 H 0.40551 0.70191 0.9713 0.0
O215 O 0.55738 0.67784 0.06476 0.0
C216 C 0.45427 0.81692 -0.00451 0.0
O217 O 0.41512 0.82792 0.03142 0.0
N218 N 0.46018 0.72307 0.12156 0.0
C219 C 0.40664 0.6786 0.20421 0.0
C220 C 0.47626 0.67034 0.19467 0.0
C221 C 0.50256 0.69441 0.1533 0.0
C222 C 0.39371 0.73673 0.13202 0.0
C223 C 0.36565 0.71459 0.1733 0.0
H224 H 0.55636 0.68836 0.14651 0.0
H225 H 0.36132 0.76126 0.10692 0.0
H226 H 0.61297 0.81331 0.02337 0.0
H227 H 0.57435 0.96462 0.12139 0.0
H228 H 0.32476 0.53437 0.04176 0.0
H229 H 0.50977 0.6449 0.21877 0.0
H230 H 0.31185 0.72259 0.18001 0.0
C231 C 0.69341 0.53047 0.11081 0.0
C232 C 0.63994 0.57531 0.10387 0.0
N233 N 0.65439 0.61387 0.06683 0.0
N234 N 0.74174 0.54142 0.07868 0.0
C235 C 0.71649 0.59317 0.05287 0.0
H236 H 0.69435 0.48918 0.1354 0.0
Co237 Co 0.81317 0.48289 0.06027 0.0
C238 C 0.89378 0.61426 0.04623 0.0
O239 O 0.8622 0.63537 0.00914 0.0
N240 N 0.8852 0.42415 0.04004 0.0
C241 C 0.97559 0.35424 0.03304 0.0
C242 C 0.94119 0.39909 0.06173 0.0
C243 C 0.88853 0.39533 -0.00188 0.0
N244 N 0.94181 0.35271 -0.00698 0.0
O245 O 0.78596 0.49913 -0.00242 0.0
H246 H 0.95599 0.41169 0.09641 0.0
H247 H 0.852 0.40397 0.97116 0.0
O248 O 0.8779 0.55727 0.06413 0.0
C249 C 0.73794 0.45481 -0.00496 0.0
O250 O 0.72644 0.41611 0.03111 0.0
N251 N 0.83246 0.46027 0.12099 0.0
C252 C 0.8769 0.40646 0.20357 0.0
C253 C 0.88546 0.47604 0.19404 0.0
C254 C 0.86144 0.50247 0.1527 0.0
C255 C 0.81862 0.39384 0.13141 0.0
C256 C 0.84072 0.36565 0.17265 0.0
H257 H 0.86778 0.55623 0.14591 0.0
H258 H 0.79391 0.36157 0.10632 0.0
H259 H 0.74035 0.61178 0.02198 0.0
H260 H 0.59242 0.57616 0.12277 0.0
H261 H 1.02153 0.32577 0.04082 0.0
H262 H 0.91111 0.5094 0.21813 0.0
H263 H 0.83252 0.31189 0.17935 0.0
C264 C 0.52906 0.69199 0.61037 0.0
C265 C 0.57405 0.6387 0.60319 0.0
N266 N 0.61373 0.65437 0.56691 0.0
N267 N 0.541 0.74136 0.57914 0.0
C268 C 0.5935 0.71697 0.55364 0.0
H269 H 0.48698 0.69213 0.63436 0.0
Co270 Co 0.48276 0.81297 0.56082 0.0
C271 C 0.61362 0.89401 0.54612 0.0
O272 O 0.63325 0.86392 0.50812 0.0
N273 N 0.42425 0.8853 0.54062 0.0
C274 C 0.35377 0.9753 0.5338 0.0
C275 C 0.39843 0.94074 0.56255 0.0
C276 C 0.39617 0.88926 0.49848 0.0
N277 N 0.35313 0.94223 0.49352 0.0
O278 O 0.49907 0.7858 0.49815 0.0
H279 H 0.41029 0.955 0.59744 0.0
H280 H 0.40558 0.85333 0.47128 0.0
O281 O 0.55739 0.87735 0.56476 0.0
C282 C 0.45424 0.73829 0.49549 0.0
O283 O 0.41508 0.7273 0.53142 0.0
N284 N 0.46019 0.83212 0.62156 0.0
C285 C 0.40664 0.87659 0.70421 0.0
C286 C 0.47627 0.88485 0.69467 0.0
C287 C 0.50256 0.86079 0.6533 0.0
C288 C 0.39372 0.81844 0.63202 0.0
C289 C 0.36565 0.84059 0.6733 0.0
H290 H 0.55636 0.86684 0.64651 0.0
H291 H 0.36132 0.79391 0.60693 0.0
H292 H 0.61297 0.74188 0.52338 0.0
H293 H 0.57435 0.59056 0.62138 0.0
H294 H 0.32471 1.02078 0.54178 0.0
H295 H 0.50977 0.9103 0.71877 0.0
H296 H 0.31186 0.83259 0.68002 0.0
C297 C 0.86199 0.53046 0.61081 0.0
C298 C 0.91546 0.5753 0.60386 0.0
N299 N 0.901 0.61389 0.56684 0.0
N300 N 0.81366 0.54141 0.57868 0.0
C301 C 0.8389 0.59317 0.55287 0.0
H302 H 0.86107 0.48916 0.63538 0.0
Co303 Co 0.74222 0.48288 0.56027 0.0
C304 C 0.66162 0.61426 0.54623 0.0
O305 O 0.69319 0.63537 0.50914 0.0
N306 N 0.67018 0.42415 0.54004 0.0
C307 C 0.57982 0.3542 0.53305 0.0
C308 C 0.61423 0.39904 0.56174 0.0
C309 C 0.66681 0.39537 0.49811 0.0
N310 N 0.61356 0.35273 0.49302 0.0
O311 O 0.76944 0.49912 0.49758 0.0
H312 H 0.59946 0.4116 0.59643 0.0
H313 H 0.70331 0.40407 0.47113 0.0
O314 O 0.67749 0.55727 0.56412 0.0
C315 C 0.81743 0.45477 0.49503 0.0
O316 O 0.82891 0.41605 0.5311 0.0
N317 N 0.72293 0.46027 0.62099 0.0
C318 C 0.67849 0.40646 0.70357 0.0
C319 C 0.66992 0.47604 0.69403 0.0
C320 C 0.69395 0.50247 0.65269 0.0
C321 C 0.73679 0.39384 0.63141 0.0
C322 C 0.71468 0.36565 0.67266 0.0
H323 H 0.68759 0.55623 0.6459 0.0
H324 H 0.7615 0.36158 0.60633 0.0
H325 H 0.81504 0.61177 0.52198 0.0
H326 H 0.96299 0.57615 0.62276 0.0
H327 H 0.53391 0.3257 0.54084 0.0
H328 H 0.64427 0.5094 0.71812 0.0
H329 H 0.72289 0.3119 0.67936 0.0
C330 C 1.02635 0.8632 0.61036 0.0
C331 C 0.98136 0.91648 0.60319 0.0
N332 N 0.94167 0.90081 0.56691 0.0
N333 N 1.0144 0.81383 0.57914 0.0
C334 C 0.9619 0.83821 0.55364 0.0
H335 H 0.06843 0.86306 0.63436 0.0
Co336 Co 0.07263 0.74221 0.56082 0.0
C337 C 0.94177 0.66117 0.54612 0.0
O338 O 0.92214 0.69126 0.50812 0.0
N339 N 0.13115 0.66987 0.54062 0.0
C340 C 0.20162 0.57988 0.5338 0.0
C341 C 0.15696 0.61444 0.56254 0.0
C342 C 0.15922 0.66592 0.49848 0.0
N343 N 0.20226 0.61295 0.49352 0.0
O344 O 0.05633 0.76938 0.49815 0.0
H345 H 0.14511 0.60017 0.59744 0.0
H346 H 0.14981 0.70184 0.47127 0.0
O347 O 0.99801 0.67784 0.56476 0.0
C348 C 0.10116 0.81689 0.49548 0.0
O349 O 0.14032 0.82787 0.53141 0.0
N350 N 0.09522 0.72306 0.62156 0.0
C351 C 0.14876 0.67859 0.70421 0.0
C352 C 0.07913 0.67033 0.69466 0.0
C353 C 0.05284 0.6944 0.65329 0.0
C354 C 0.16168 0.73673 0.63202 0.0
C355 C 0.18975 0.71459 0.6733 0.0
H356 H 0.99904 0.68834 0.6465 0.0
H357 H 0.19408 0.76126 0.60693 0.0
H358 H 0.94242 0.8133 0.52338 0.0
H359 H 0.98106 0.96462 0.62137 0.0
H360 H 0.23068 0.53439 0.54178 0.0
H361 H 0.04563 0.64489 0.71877 0.0
H362 H 0.24354 0.72259 0.68002 0.0
C363 C 0.69341 1.02471 0.61081 0.0
C364 C 0.63994 0.97988 0.60386 0.0
N365 N 0.65438 0.94132 0.56682 0.0
N366 N 0.74173 1.01377 0.57868 0.0
C367 C 0.71649 0.96202 0.55286 0.0
H368 H 0.69435 0.06601 0.63539 0.0
Co369 Co 0.81318 0.0723 0.56026 0.0
C370 C 0.89378 0.94092 0.54623 0.0
O371 O 0.8622 0.9198 0.50914 0.0
N372 N 0.88522 0.13104 0.54005 0.0
C373 C 0.97558 0.20098 0.53305 0.0
C374 C 0.94117 0.15614 0.56175 0.0
C375 C 0.88859 0.15981 0.49811 0.0
N376 N 0.94184 0.20245 0.49302 0.0
O377 O 0.78596 0.05607 0.49758 0.0
H378 H 0.95594 0.14358 0.59644 0.0
H379 H 0.8521 0.15112 0.47113 0.0
O380 O 0.8779 0.99791 0.56412 0.0
C381 C 0.73797 0.10042 0.49503 0.0
O382 O 0.7265 0.13914 0.5311 0.0
N383 N 0.83247 0.09491 0.62099 0.0
C384 C 0.8769 0.14872 0.70357 0.0
C385 C 0.88548 0.07914 0.69403 0.0
C386 C 0.86146 0.05271 0.65269 0.0
C387 C 0.81861 0.16133 0.63141 0.0
C388 C 0.84071 0.18953 0.67266 0.0
H389 H 0.86781 0.99895 0.6459 0.0
H390 H 0.79389 0.1936 0.60632 0.0
H391 H 0.74035 0.94342 0.52197 0.0
H392 H 0.59242 0.97903 0.62277 0.0
H393 H 1.02149 0.22949 0.54085 0.0
H394 H 0.91114 0.04578 0.71812 0.0
H395 H 0.8325 0.24328 0.67936 0.0
C396 C 0.02905 0.3632 0.83919 0.0
C397 C 0.07404 0.41648 0.84637 0.0
N398 N 0.11373 0.40081 0.88264 0.0
N399 N 0.041 0.31383 0.87041 0.0
C400 C 0.0935 0.33821 0.89591 0.0
H401 H 0.98697 0.36306 0.81519 0.0
Co402 Co 0.98276 0.24221 0.88874 0.0
C403 C 0.11362 0.16117 0.90343 0.0
O404 O 0.13326 0.19126 0.94143 0.0
N405 N 0.92425 0.16988 0.90893 0.0
C406 C 0.85377 0.07989 0.91575 0.0
C407 C 0.89843 0.11445 0.88701 0.0
C408 C 0.89618 0.16592 0.95107 0.0
N409 N 0.85314 0.11295 0.95604 0.0
O410 O 0.99907 0.26939 0.9514 0.0
H411 H 0.91027 0.10018 0.85211 0.0
H412 H 0.9056 0.20184 -0.02172 0.0
O413 O 0.05738 0.17784 0.88479 0.0
C414 C 0.95424 0.31689 0.95407 0.0
O415 O 0.91507 0.32787 0.91814 0.0
N416 N 0.96018 0.22306 0.82799 0.0
C417 C 0.90664 0.17859 0.74534 0.0
C418 C 0.97627 0.17033 0.75489 0.0
C419 C 1.00256 0.1944 0.79626 0.0
C420 C 0.89372 0.23674 0.81753 0.0
C421 C 0.86565 0.21459 0.77625 0.0
H422 H 0.05636 0.18835 0.80305 0.0
H423 H 0.86132 0.26126 0.84262 0.0
H424 H 0.11297 0.3133 0.92618 0.0
H425 H 0.07434 0.46462 0.82818 0.0
H426 H 0.8247 0.03441 0.90777 0.0
H427 H 1.00977 0.14489 0.73079 0.0
H428 H 0.81186 0.22259 0.76953 0.0
C429 C 0.19341 0.03047 0.83874 0.0
C430 C 0.13993 0.0753 0.84569 0.0
N431 N 0.15438 0.11387 0.88273 0.0
N432 N 0.24173 0.04142 0.87087 0.0
C433 C 0.21649 0.09316 0.89669 0.0
H434 H 0.19434 0.98918 0.81416 0.0
Co435 Co 0.31318 0.98288 0.88929 0.0
C436 C 0.39378 0.11426 0.90333 0.0
O437 O 0.3622 0.13537 0.94041 0.0
N438 N 0.38521 0.92414 0.9095 0.0
C439 C 0.47557 0.8542 0.9165 0.0
C440 C 0.44116 0.89904 0.88781 0.0
C441 C 0.38858 0.89536 0.95144 0.0
N442 N 0.44183 0.85272 0.95653 0.0
O443 O 0.28596 0.99911 0.95197 0.0
H444 H 0.45594 0.9116 0.85312 0.0
H445 H 0.35208 0.90405 -0.02159 0.0
O446 O 0.37791 0.05727 0.88543 0.0
C447 C 0.23796 0.95477 0.95452 0.0
O448 O 0.22648 0.91605 0.91845 0.0
N449 N 0.33246 0.96027 0.82856 0.0
C450 C 0.3769 0.90646 0.74598 0.0
C451 C 0.38548 0.97605 0.75552 0.0
C452 C 0.36145 1.00248 0.79686 0.0
C453 C 0.3186 0.89385 0.81814 0.0
C454 C 0.34071 0.86566 0.77689 0.0
H455 H 0.36781 0.05623 0.80365 0.0
H456 H 0.29389 0.86158 0.84322 0.0
H457 H 0.24035 0.11177 0.92758 0.0
H458 H 0.09241 0.07616 0.82679 0.0
H459 H 0.52148 0.8257 0.90871 0.0
H460 H 0.41114 1.00941 0.73143 0.0
H461 H 0.3325 0.81191 0.77019 0.0
C462 C 0.52634 0.19199 0.83919 0.0
C463 C 0.48136 0.1387 0.84637 0.0
N464 N 0.44169 0.15436 0.88266 0.0
N465 N 0.5144 0.24135 0.87041 0.0
C466 C 0.46191 0.21696 0.89592 0.0
H467 H 0.56841 0.19214 0.81518 0.0
Co468 Co 0.57263 0.31297 0.88874 0.0
C469 C 0.44178 0.39401 0.90343 0.0
O470 O 0.42214 0.36392 0.94143 0.0
N471 N 0.63115 0.38531 0.90893 0.0
C472 C 0.70163 0.4753 0.91575 0.0
C473 C 0.65697 0.44074 0.887 0.0
C474 C 0.65921 0.38927 0.95107 0.0
N475 N 0.70226 0.44223 0.95603 0.0
O476 O 0.55633 0.2858 0.9514 0.0
H477 H 0.64513 0.455 0.85211 0.0
H478 H 0.6498 0.35335 -0.02172 0.0
O479 O 0.49801 0.37735 0.88479 0.0
C480 C 0.60117 0.2383 0.95407 0.0
O481 O 0.64033 0.22731 0.91814 0.0
N482 N 0.59521 0.33212 0.82799 0.0
C483 C 0.64876 0.37659 0.74534 0.0
C484 C 0.57913 0.38485 0.75489 0.0
C485 C 0.55283 0.36079 0.79626 0.0
C486 C 0.66167 0.31844 0.81753 0.0
C487 C 0.68974 0.34059 0.77625 0.0
H488 H 0.49904 0.36685 0.80305 0.0
H489 H 0.69407 0.29391 0.84262 0.0
H490 H 0.44244 0.24187 0.92618 0.0
H491 H 0.48105 0.09056 0.82818 0.0
H492 H 0.7307 0.52078 0.90777 0.0
H493 H 0.54563 0.4103 0.73078 0.0
H494 H 0.74353 0.33258 0.76953 0.0
C495 C 0.36198 0.52472 0.83875 0.0
C496 C 0.41546 0.47988 0.84569 0.0
N497 N 0.40101 0.44131 0.88273 0.0
N498 N 0.31366 0.51377 0.87088 0.0
C499 C 0.33891 0.46202 0.89669 0.0
H500 H 0.36105 0.56601 0.81416 0.0
Co501 Co 0.24222 0.5723 0.88929 0.0
C502 C 0.16162 0.44092 0.90333 0.0
O503 O 0.19319 0.41981 0.94041 0.0
N504 N 0.17018 0.63104 0.90951 0.0
C505 C 0.07982 0.70098 0.9165 0.0
C506 C 0.11423 0.65613 0.88781 0.0
C507 C 0.16682 0.65981 0.95144 0.0
N508 N 0.11356 0.70245 0.95653 0.0
O509 O 0.26944 0.55607 0.95198 0.0
H510 H 0.09945 0.64358 0.85312 0.0
H511 H 0.20331 0.65112 -0.02158 0.0
O512 O 0.17749 0.49791 0.88543 0.0
C513 C 0.31743 0.60041 0.95452 0.0
O514 O 0.32891 0.63913 0.91845 0.0
N515 N 0.22293 0.59491 0.82857 0.0
C516 C 0.17849 0.64872 0.74598 0.0
C517 C 0.16992 0.57914 0.75552 0.0
C518 C 0.19394 0.55271 0.79686 0.0
C519 C 0.23679 0.66134 0.81814 0.0
C520 C 0.21468 0.68953 0.7769 0.0
H521 H 0.18759 0.49895 0.80365 0.0
H522 H 0.2615 0.6936 0.84323 0.0
H523 H 0.31505 0.44341 0.92758 0.0
H524 H 0.46298 0.47903 0.82679 0.0
H525 H 0.03391 0.72948 0.90871 0.0
H526 H 0.14427 0.54578 0.73143 0.0
H527 H 0.22289 0.74328 0.77019 0.0
loop_
_geom_bond_atom_site_label_1
_geom_bond_atom_site_label_2
_geom_bond_distance
_geom_bond_site_symmetry_2
_ccdc_geom_bond_type
C0 C1 1.351 . S
C0 N3 1.368 . S
C0 H5 0.931 . S
C1 C0 1.351 . S
C1 N2 1.373 . S
C1 H29 0.930 . S
N2 C1 1.373 . S
N2 C4 1.340 . S
N3 C0 1.368 . S
N3 C4 1.321 . S
N3 Co6 2.135 . S
C4 N2 1.340 . S
C4 N3 1.321 . S
C4 H28 0.930 . S
H5 C0 0.931 . S
Co6 N3 2.135 . S
Co6 N9 2.121 . S
Co6 O14 2.055 . S
Co6 O17 2.039 . S
Co6 N20 2.140 . S
C7 O8 1.227 . S
C7 O17 1.265 . S
O8 C7 1.227 . S
N9 Co6 2.121 . S
N9 C11 1.375 . S
N9 C12 1.313 . S
C10 C11 1.338 . S
C10 N13 1.377 . S
C10 H30 0.930 1_545 S
C11 N9 1.375 . S
C11 C10 1.338 . S
C11 H15 0.931 . S
C12 N9 1.313 . S
C12 N13 1.344 . S
C12 H16 0.930 . S
N13 C10 1.377 . S
N13 C12 1.344 . S
O14 Co6 2.055 . S
O14 C18 1.253 . S
H15 C11 0.931 . S
H16 C12 0.930 . S
O17 Co6 2.039 . S
O17 C7 1.265 . S
C18 O14 1.253 . S
C18 O19 1.227 . S
O19 C18 1.227 . S
N20 Co6 2.140 . S
N20 C23 1.346 . S
N20 C24 1.345 . S
C21 C22 1.387 . S
C21 C25 1.391 . S
C22 C21 1.387 . S
C22 C23 1.369 . S
C22 H31 0.929 . S
C23 N20 1.346 . S
C23 C22 1.369 . S
C23 H26 0.928 . S
C24 N20 1.345 . S
C24 C25 1.371 . S
C24 H27 0.931 . S
C25 C21 1.391 . S
C25 C24 1.371 . S
C25 H32 0.930 . S
H26 C23 0.928 . S
H27 C24 0.931 . S
H28 C4 0.930 . S
H29 C1 0.930 . S
H30 C10 0.930 1_565 S
H31 C22 0.929 . S
H32 C25 0.930 . S
C33 C34 1.351 . S
C33 N36 1.368 . S
C33 H38 0.931 . S
C34 C33 1.351 . S
C34 N35 1.373 . S
C34 H62 0.930 . S
N35 C34 1.373 . S
N35 C37 1.340 . S
N36 C33 1.368 . S
N36 C37 1.321 . S
N36 Co39 2.135 . S
C37 N35 1.340 . S
C37 N36 1.321 . S
C37 H61 0.930 . S
H38 C33 0.931 . S
Co39 N36 2.135 . S
Co39 N42 2.121 . S
Co39 O47 2.055 . S
Co39 O50 2.039 . S
Co39 N53 2.140 . S
C40 O41 1.227 . S
C40 O50 1.265 . S
O41 C40 1.227 . S
N42 Co39 2.121 . S
N42 C44 1.375 . S
N42 C45 1.313 . S
C43 C44 1.338 . S
C43 N46 1.377 . S
C43 H63 0.930 . S
C44 N42 1.375 . S
C44 C43 1.338 . S
C44 H48 0.931 . S
C45 N42 1.313 . S
C45 N46 1.344 . S
C45 H49 0.930 . S
N46 C43 1.377 . S
N46 C45 1.344 . S
O47 Co39 2.055 . S
O47 C51 1.253 . S
H48 C44 0.931 . S
H49 C45 0.930 . S
O50 Co39 2.039 . S
O50 C40 1.265 . S
C51 O47 1.253 . S
C51 O52 1.227 . S
O52 C51 1.227 . S
N53 Co39 2.140 . S
N53 C56 1.346 . S
N53 C57 1.345 . S
C54 C55 1.387 . S
C54 C58 1.391 . S
C55 C54 1.387 . S
C55 C56 1.369 . S
C55 H64 0.929 . S
C56 N53 1.346 . S
C56 C55 1.369 . S
C56 H59 0.928 . S
C57 N53 1.345 . S
C57 C58 1.371 . S
C57 H60 0.931 . S
C58 C54 1.391 . S
C58 C57 1.371 . S
C58 H65 0.930 . S
H59 C56 0.928 . S
H60 C57 0.931 . S
H61 C37 0.930 . S
H62 C34 0.930 . S
H63 C43 0.930 . S
H64 C55 0.929 . S
H65 C58 0.930 . S
C66 C67 1.351 1_655 S
C66 N69 1.368 1_655 S
C66 H71 0.931 . S
C67 C66 1.351 1_455 S
C67 N68 1.373 . S
C67 H95 0.930 . S
N68 C67 1.373 . S
N68 C70 1.340 . S
N69 C66 1.368 1_455 S
N69 C70 1.321 . S
N69 Co72 2.135 1_455 S
C70 N68 1.340 . S
C70 N69 1.321 . S
C70 H94 0.930 . S
H71 C66 0.931 . S
Co72 N69 2.135 1_655 S
Co72 N75 2.121 . S
Co72 O80 2.055 . S
Co72 O83 2.039 1_655 S
Co72 N86 2.140 . S
C73 O74 1.227 . S
C73 O83 1.265 . S
O74 C73 1.227 . S
N75 Co72 2.121 . S
N75 C77 1.375 . S
N75 C78 1.313 . S
C76 C77 1.338 . S
C76 N79 1.377 . S
C76 H96 0.930 . S
C77 N75 1.375 . S
C77 C76 1.338 . S
C77 H81 0.931 . S
C78 N75 1.313 . S
C78 N79 1.344 . S
C78 H82 0.930 . S
N79 C76 1.377 . S
N79 C78 1.344 . S
O80 Co72 2.055 . S
O80 C84 1.253 . S
H81 C77 0.931 . S
H82 C78 0.930 . S
O83 Co72 2.039 1_455 S
O83 C73 1.265 . S
C84 O80 1.253 . S
C84 O85 1.227 . S
O85 C84 1.227 . S
N86 Co72 2.140 . S
N86 C89 1.346 . S
N86 C90 1.345 . S
C87 C88 1.387 . S
C87 C91 1.391 . S
C88 C87 1.387 . S
C88 C89 1.369 . S
C88 H97 0.929 . S
C89 N86 1.346 . S
C89 C88 1.369 . S
C89 H92 0.928 1_655 S
C90 N86 1.345 . S
C90 C91 1.371 . S
C90 H93 0.931 . S
C91 C87 1.391 . S
C91 C90 1.371 . S
C91 H98 0.930 . S
H92 C89 0.928 1_455 S
H93 C90 0.931 . S
H94 C70 0.930 . S
H95 C67 0.930 . S
H96 C76 0.930 . S
H97 C88 0.929 . S
H98 C91 0.930 . S
C99 C100 1.351 1_565 S
C99 N102 1.368 1_565 S
C99 H104 0.931 . S
C100 C99 1.351 1_545 S
C100 N101 1.373 . S
C100 H128 0.930 . S
N101 C100 1.373 . S
N101 C103 1.340 . S
N102 C99 1.368 1_545 S
N102 C103 1.321 . S
N102 Co105 2.135 1_545 S
C103 N101 1.340 . S
C103 N102 1.321 . S
C103 H127 0.930 . S
H104 C99 0.931 . S
Co105 N102 2.135 1_565 S
Co105 N108 2.121 . S
Co105 O113 2.055 . S
Co105 O116 2.039 1_565 S
Co105 N119 2.140 . S
C106 O107 1.227 . S
C106 O116 1.265 . S
O107 C106 1.227 . S
N108 Co105 2.121 . S
N108 C110 1.375 . S
N108 C111 1.313 . S
C109 C110 1.338 . S
C109 N112 1.377 . S
C109 H129 0.930 1_455 S
C110 N108 1.375 . S
C110 C109 1.338 . S
C110 H114 0.931 . S
C111 N108 1.313 . S
C111 N112 1.344 . S
C111 H115 0.930 . S
N112 C109 1.377 . S
N112 C111 1.344 . S
O113 Co105 2.055 . S
O113 C117 1.253 . S
H114 C110 0.931 . S
H115 C111 0.930 . S
O116 Co105 2.039 1_545 S
O116 C106 1.265 . S
C117 O113 1.253 . S
C117 O118 1.227 . S
O118 C117 1.227 . S
N119 Co105 2.140 . S
N119 C122 1.346 . S
N119 C123 1.345 . S
C120 C121 1.387 . S
C120 C124 1.391 . S
C121 C120 1.387 . S
C121 C122 1.369 . S
C121 H130 0.929 . S
C122 N119 1.346 . S
C122 C121 1.369 . S
C122 H125 0.928 1_565 S
C123 N119 1.345 . S
C123 C124 1.371 . S
C123 H126 0.931 . S
C124 C120 1.391 . S
C124 C123 1.371 . S
C124 H131 0.930 . S
H125 C122 0.928 1_545 S
H126 C123 0.931 . S
H127 C103 0.930 . S
H128 C100 0.930 . S
H129 C109 0.930 1_655 S
H130 C121 0.929 . S
H131 C124 0.930 . S
C132 C133 1.351 1_455 S
C132 N135 1.368 1_455 S
C132 H137 0.931 . S
C133 C132 1.351 1_655 S
C133 N134 1.373 . S
C133 H161 0.930 . S
N134 C133 1.373 . S
N134 C136 1.340 . S
N135 C132 1.368 1_655 S
N135 C136 1.321 . S
N135 Co138 2.135 1_655 S
C136 N134 1.340 . S
C136 N135 1.321 . S
C136 H160 0.930 . S
H137 C132 0.931 . S
Co138 N135 2.135 1_455 S
Co138 N141 2.121 . S
Co138 O146 2.055 . S
Co138 O149 2.039 1_455 S
Co138 N152 2.140 . S
C139 O140 1.227 . S
C139 O149 1.265 . S
O140 C139 1.227 . S
N141 Co138 2.121 . S
N141 C143 1.375 . S
N141 C144 1.313 . S
C142 C143 1.338 . S
C142 N145 1.377 . S
C142 H162 0.930 1_565 S
C143 N141 1.375 . S
C143 C142 1.338 . S
C143 H147 0.931 . S
C144 N141 1.313 . S
C144 N145 1.344 . S
C144 H148 0.930 . S
N145 C142 1.377 . S
N145 C144 1.344 . S
O146 Co138 2.055 . S
O146 C150 1.253 . S
H147 C143 0.931 . S
H148 C144 0.930 . S
O149 Co138 2.039 1_655 S
O149 C139 1.265 . S
C150 O146 1.253 . S
C150 O151 1.227 . S
O151 C150 1.227 . S
N152 Co138 2.140 . S
N152 C155 1.346 . S
N152 C156 1.345 . S
C153 C154 1.387 . S
C153 C157 1.391 . S
C154 C153 1.387 . S
C154 C155 1.369 . S
C154 H163 0.929 . S
C155 N152 1.346 . S
C155 C154 1.369 . S
C155 H158 0.928 1_455 S
C156 N152 1.345 . S
C156 C157 1.371 . S
C156 H159 0.931 . S
C157 C153 1.391 . S
C157 C156 1.371 . S
C157 H164 0.930 . S
H158 C155 0.928 1_655 S
H159 C156 0.931 . S
H160 C136 0.930 . S
H161 C133 0.930 . S
H162 C142 0.930 1_545 S
H163 C154 0.929 . S
H164 C157 0.930 . S
C165 C166 1.351 1_545 S
C165 N168 1.368 1_545 S
C165 H170 0.931 . S
C166 C165 1.351 1_565 S
C166 N167 1.373 . S
C166 H194 0.930 . S
N167 C166 1.373 . S
N167 C169 1.340 . S
N168 C165 1.368 1_565 S
N168 C169 1.321 . S
N168 Co171 2.135 1_565 S
C169 N167 1.340 . S
C169 N168 1.321 . S
C169 H193 0.930 . S
H170 C165 0.931 . S
Co171 N168 2.135 1_545 S
Co171 N174 2.121 . S
Co171 O179 2.055 . S
Co171 O182 2.039 1_545 S
Co171 N185 2.140 . S
C172 O173 1.227 . S
C172 O182 1.265 . S
O173 C172 1.227 . S
N174 Co171 2.121 . S
N174 C176 1.375 . S
N174 C177 1.313 . S
C175 C176 1.338 . S
C175 N178 1.377 . S
C175 H195 0.930 . S
C176 N174 1.375 . S
C176 C175 1.338 . S
C176 H180 0.931 . S
C177 N174 1.313 . S
C177 N178 1.344 . S
C177 H181 0.930 . S
N178 C175 1.377 . S
N178 C177 1.344 . S
O179 Co171 2.055 . S
O179 C183 1.253 . S
H180 C176 0.931 . S
H181 C177 0.930 . S
O182 Co171 2.039 1_565 S
O182 C172 1.265 . S
C183 O179 1.253 . S
C183 O184 1.227 . S
O184 C183 1.227 . S
N185 Co171 2.140 . S
N185 C188 1.346 . S
N185 C189 1.345 . S
C186 C187 1.387 . S
C186 C190 1.391 . S
C187 C186 1.387 . S
C187 C188 1.369 . S
C187 H196 0.929 . S
C188 N185 1.346 . S
C188 C187 1.369 . S
C188 H191 0.928 1_545 S
C189 N185 1.345 . S
C189 C190 1.371 . S
C189 H192 0.931 . S
C190 C186 1.391 . S
C190 C189 1.371 . S
C190 H197 0.930 . S
H191 C188 0.928 1_565 S
H192 C189 0.931 . S
H193 C169 0.930 . S
H194 C166 0.930 . S
H195 C175 0.930 . S
H196 C187 0.929 . S
H197 C190 0.930 . S
C198 C199 1.351 . S
C198 N201 1.368 . S
C198 H203 0.931 . S
C199 C198 1.351 . S
C199 N200 1.373 . S
C199 H227 0.930 . S
N200 C199 1.373 . S
N200 C202 1.340 . S
N201 C198 1.368 . S
N201 C202 1.321 . S
N201 Co204 2.135 . S
C202 N200 1.340 . S
C202 N201 1.321 . S
C202 H226 0.930 . S
H203 C198 0.931 . S
Co204 N201 2.135 . S
Co204 N207 2.121 . S
Co204 O212 2.055 . S
Co204 O215 2.039 . S
Co204 N218 2.140 . S
C205 O206 1.227 . S
C205 O215 1.265 . S
O206 C205 1.227 . S
N207 Co204 2.121 . S
N207 C209 1.375 . S
N207 C210 1.313 . S
C208 C209 1.338 . S
C208 N211 1.377 . S
C208 H228 0.930 . S
C209 N207 1.375 . S
C209 C208 1.338 . S
C209 H213 0.931 . S
C210 N207 1.313 . S
C210 N211 1.344 . S
C210 H214 0.930 . S
N211 C208 1.377 . S
N211 C210 1.344 . S
O212 Co204 2.055 . S
O212 C216 1.253 . S
H213 C209 0.931 . S
H214 C210 0.930 . S
O215 Co204 2.039 . S
O215 C205 1.265 . S
C216 O212 1.253 . S
C216 O217 1.227 . S
O217 C216 1.227 . S
N218 Co204 2.140 . S
N218 C221 1.346 . S
N218 C222 1.345 . S
C219 C220 1.387 . S
C219 C223 1.391 . S
C220 C219 1.387 . S
C220 C221 1.369 . S
C220 H229 0.929 . S
C221 N218 1.346 . S
C221 C220 1.369 . S
C221 H224 0.928 . S
C222 N218 1.345 . S
C222 C223 1.371 . S
C222 H225 0.931 . S
C223 C219 1.391 . S
C223 C222 1.371 . S
C223 H230 0.930 . S
H224 C221 0.928 . S
H225 C222 0.931 . S
H226 C202 0.930 . S
H227 C199 0.930 . S
H228 C208 0.930 . S
H229 C220 0.929 . S
H230 C223 0.930 . S
C231 C232 1.351 . S
C231 N234 1.368 . S
C231 H236 0.931 . S
C232 C231 1.351 . S
C232 N233 1.373 . S
C232 H260 0.930 . S
N233 C232 1.373 . S
N233 C235 1.340 . S
N234 C231 1.368 . S
N234 C235 1.321 . S
N234 Co237 2.135 . S
C235 N233 1.340 . S
C235 N234 1.321 . S
C235 H259 0.930 . S
H236 C231 0.931 . S
Co237 N234 2.135 . S
Co237 N240 2.121 . S
Co237 O245 2.055 . S
Co237 O248 2.039 . S
Co237 N251 2.140 . S
C238 O239 1.227 . S
C238 O248 1.265 . S
O239 C238 1.227 . S
N240 Co237 2.121 . S
N240 C242 1.375 . S
N240 C243 1.313 . S
C241 C242 1.338 . S
C241 N244 1.377 . S
C241 H261 0.930 1_655 S
C242 N240 1.375 . S
C242 C241 1.338 . S
C242 H246 0.931 . S
C243 N240 1.313 . S
C243 N244 1.344 . S
C243 H247 0.930 . S
N244 C241 1.377 . S
N244 C243 1.344 . S
O245 Co237 2.055 . S
O245 C249 1.253 . S
H246 C242 0.931 . S
H247 C243 0.930 . S
O248 Co237 2.039 . S
O248 C238 1.265 . S
C249 O245 1.253 . S
C249 O250 1.227 . S
O250 C249 1.227 . S
N251 Co237 2.140 . S
N251 C254 1.346 . S
N251 C255 1.345 . S
C252 C253 1.387 . S
C252 C256 1.391 . S
C253 C252 1.387 . S
C253 C254 1.369 . S
C253 H262 0.929 . S
C254 N251 1.346 . S
C254 C253 1.369 . S
C254 H257 0.928 . S
C255 N251 1.345 . S
C255 C256 1.371 . S
C255 H258 0.931 . S
C256 C252 1.391 . S
C256 C255 1.371 . S
C256 H263 0.930 . S
H257 C254 0.928 . S
H258 C255 0.931 . S
H259 C235 0.930 . S
H260 C232 0.930 . S
H261 C241 0.930 1_455 S
H262 C253 0.929 . S
H263 C256 0.930 . S
C264 C265 1.351 . S
C264 N267 1.368 . S
C264 H269 0.931 . S
C265 C264 1.351 . S
C265 N266 1.373 . S
C265 H293 0.930 . S
N266 C265 1.373 . S
N266 C268 1.340 . S
N267 C264 1.368 . S
N267 C268 1.321 . S
N267 Co270 2.135 . S
C268 N266 1.340 . S
C268 N267 1.321 . S
C268 H292 0.930 . S
H269 C264 0.931 . S
Co270 N267 2.135 . S
Co270 N273 2.121 . S
Co270 O278 2.055 . S
Co270 O281 2.039 . S
Co270 N284 2.140 . S
C271 O272 1.227 . S
C271 O281 1.265 . S
O272 C271 1.227 . S
N273 Co270 2.121 . S
N273 C275 1.375 . S
N273 C276 1.313 . S
C274 C275 1.338 . S
C274 N277 1.377 . S
C274 H294 0.930 1_565 S
C275 N273 1.375 . S
C275 C274 1.338 . S
C275 H279 0.931 . S
C276 N273 1.313 . S
C276 N277 1.344 . S
C276 H280 0.930 . S
N277 C274 1.377 . S
N277 C276 1.344 . S
O278 Co270 2.055 . S
O278 C282 1.253 . S
H279 C275 0.931 . S
H280 C276 0.930 . S
O281 Co270 2.039 . S
O281 C271 1.265 . S
C282 O278 1.253 . S
C282 O283 1.227 . S
O283 C282 1.227 . S
N284 Co270 2.140 . S
N284 C287 1.346 . S
N284 C288 1.345 . S
C285 C286 1.387 . S
C285 C289 1.391 . S
C286 C285 1.387 . S
C286 C287 1.369 . S
C286 H295 0.929 . S
C287 N284 1.346 . S
C287 C286 1.369 . S
C287 H290 0.928 . S
C288 N284 1.345 . S
C288 C289 1.371 . S
C288 H291 0.931 . S
C289 C285 1.391 . S
C289 C288 1.371 . S
C289 H296 0.930 . S
H290 C287 0.928 . S
H291 C288 0.931 . S
H292 C268 0.930 . S
H293 C265 0.930 . S
H294 C274 0.930 1_545 S
H295 C286 0.929 . S
H296 C289 0.930 . S
C297 C298 1.351 . S
C297 N300 1.368 . S
C297 H302 0.931 . S
C298 C297 1.351 . S
C298 N299 1.373 . S
C298 H326 0.930 . S
N299 C298 1.373 . S
N299 C301 1.340 . S
N300 C297 1.368 . S
N300 C301 1.321 . S
N300 Co303 2.135 . S
C301 N299 1.340 . S
C301 N300 1.321 . S
C301 H325 0.930 . S
H302 C297 0.931 . S
Co303 N300 2.135 . S
Co303 N306 2.121 . S
Co303 O311 2.055 . S
Co303 O314 2.039 . S
Co303 N317 2.140 . S
C304 O305 1.227 . S
C304 O314 1.265 . S
O305 C304 1.227 . S
N306 Co303 2.121 . S
N306 C308 1.375 . S
N306 C309 1.313 . S
C307 C308 1.338 . S
C307 N310 1.377 . S
C307 H327 0.930 . S
C308 N306 1.375 . S
C308 C307 1.338 . S
C308 H312 0.931 . S
C309 N306 1.313 . S
C309 N310 1.344 . S
C309 H313 0.930 . S
N310 C307 1.377 . S
N310 C309 1.344 . S
O311 Co303 2.055 . S
O311 C315 1.253 . S
H312 C308 0.931 . S
H313 C309 0.930 . S
O314 Co303 2.039 . S
O314 C304 1.265 . S
C315 O311 1.253 . S
C315 O316 1.227 . S
O316 C315 1.227 . S
N317 Co303 2.140 . S
N317 C320 1.346 . S
N317 C321 1.345 . S
C318 C319 1.387 . S
C318 C322 1.391 . S
C319 C318 1.387 . S
C319 C320 1.369 . S
C319 H328 0.929 . S
C320 N317 1.346 . S
C320 C319 1.369 . S
C320 H323 0.928 . S
C321 N317 1.345 . S
C321 C322 1.371 . S
C321 H324 0.931 . S
C322 C318 1.391 . S
C322 C321 1.371 . S
C322 H329 0.930 . S
H323 C320 0.928 . S
H324 C321 0.931 . S
H325 C301 0.930 . S
H326 C298 0.930 . S
H327 C307 0.930 . S
H328 C319 0.929 . S
H329 C322 0.930 . S
C330 C331 1.351 1_455 S
C330 N333 1.368 1_455 S
C330 H335 0.931 . S
C331 C330 1.351 1_655 S
C331 N332 1.373 . S
C331 H359 0.930 . S
N332 C331 1.373 . S
N332 C334 1.340 . S
N333 C330 1.368 1_655 S
N333 C334 1.321 . S
N333 Co336 2.135 1_655 S
C334 N332 1.340 . S
C334 N333 1.321 . S
C334 H358 0.930 . S
H335 C330 0.931 . S
Co336 N333 2.135 1_455 S
Co336 N339 2.121 . S
Co336 O344 2.055 . S
Co336 O347 2.039 1_455 S
Co336 N350 2.140 . S
C337 O338 1.227 . S
C337 O347 1.265 . S
O338 C337 1.227 . S
N339 Co336 2.121 . S
N339 C341 1.375 . S
N339 C342 1.313 . S
C340 C341 1.338 . S
C340 N343 1.377 . S
C340 H360 0.930 . S
C341 N339 1.375 . S
C341 C340 1.338 . S
C341 H345 0.931 . S
C342 N339 1.313 . S
C342 N343 1.344 . S
C342 H346 0.930 . S
N343 C340 1.377 . S
N343 C342 1.344 . S
O344 Co336 2.055 . S
O344 C348 1.253 . S
H345 C341 0.931 . S
H346 C342 0.930 . S
O347 Co336 2.039 1_655 S
O347 C337 1.265 . S
C348 O344 1.253 . S
C348 O349 1.227 . S
O349 C348 1.227 . S
N350 Co336 2.140 . S
N350 C353 1.346 . S
N350 C354 1.345 . S
C351 C352 1.387 . S
C351 C355 1.391 . S
C352 C351 1.387 . S
C352 C353 1.369 . S
C352 H361 0.929 . S
C353 N350 1.346 . S
C353 C352 1.369 . S
C353 H356 0.928 1_455 S
C354 N350 1.345 . S
C354 C355 1.371 . S
C354 H357 0.931 . S
C355 C351 1.391 . S
C355 C354 1.371 . S
C355 H362 0.930 . S
H356 C353 0.928 1_655 S
H357 C354 0.931 . S
H358 C334 0.930 . S
H359 C331 0.930 . S
H360 C340 0.930 . S
H361 C352 0.929 . S
H362 C355 0.930 . S
C363 C364 1.351 1_545 S
C363 N366 1.368 1_545 S
C363 H368 0.931 . S
C364 C363 1.351 1_565 S
C364 N365 1.373 . S
C364 H392 0.930 . S
N365 C364 1.373 . S
N365 C367 1.340 . S
N366 C363 1.368 1_565 S
N366 C367 1.321 . S
N366 Co369 2.135 1_565 S
C367 N365 1.340 . S
C367 N366 1.321 . S
C367 H391 0.930 . S
H368 C363 0.931 . S
Co369 N366 2.135 1_545 S
Co369 N372 2.121 . S
Co369 O377 2.055 . S
Co369 O380 2.039 1_545 S
Co369 N383 2.140 . S
C370 O371 1.227 . S
C370 O380 1.265 . S
O371 C370 1.227 . S
N372 Co369 2.121 . S
N372 C374 1.375 . S
N372 C375 1.313 . S
C373 C374 1.338 . S
C373 N376 1.377 . S
C373 H393 0.930 1_655 S
C374 N372 1.375 . S
C374 C373 1.338 . S
C374 H378 0.931 . S
C375 N372 1.313 . S
C375 N376 1.344 . S
C375 H379 0.930 . S
N376 C373 1.377 . S
N376 C375 1.344 . S
O377 Co369 2.055 . S
O377 C381 1.253 . S
H378 C374 0.931 . S
H379 C375 0.930 . S
O380 Co369 2.039 1_565 S
O380 C370 1.265 . S
C381 O377 1.253 . S
C381 O382 1.227 . S
O382 C381 1.227 . S
N383 Co369 2.140 . S
N383 C386 1.346 . S
N383 C387 1.345 . S
C384 C385 1.387 . S
C384 C388 1.391 . S
C385 C384 1.387 . S
C385 C386 1.369 . S
C385 H394 0.929 . S
C386 N383 1.346 . S
C386 C385 1.369 . S
C386 H389 0.928 1_545 S
C387 N383 1.345 . S
C387 C388 1.371 . S
C387 H390 0.931 . S
C388 C384 1.391 . S
C388 C387 1.371 . S
C388 H395 0.930 . S
H389 C386 0.928 1_565 S
H390 C387 0.931 . S
H391 C367 0.930 . S
H392 C364 0.930 . S
H393 C373 0.930 1_455 S
H394 C385 0.929 . S
H395 C388 0.930 . S
C396 C397 1.351 1_655 S
C396 N399 1.368 1_655 S
C396 H401 0.931 . S
C397 C396 1.351 1_455 S
C397 N398 1.373 . S
C397 H425 0.930 . S
N398 C397 1.373 . S
N398 C400 1.340 . S
N399 C396 1.368 1_455 S
N399 C400 1.321 . S
N399 Co402 2.135 1_455 S
C400 N398 1.340 . S
C400 N399 1.321 . S
C400 H424 0.930 . S
H401 C396 0.931 . S
Co402 N399 2.135 1_655 S
Co402 N405 2.121 . S
Co402 O410 2.055 . S
Co402 O413 2.039 1_655 S
Co402 N416 2.140 . S
C403 O404 1.227 . S
C403 O413 1.265 . S
O404 C403 1.227 . S
N405 Co402 2.121 . S
N405 C407 1.375 . S
N405 C408 1.313 . S
C406 C407 1.338 . S
C406 N409 1.377 . S
C406 H426 0.930 1_545 S
C407 N405 1.375 . S
C407 C406 1.338 . S
C407 H411 0.931 . S
C408 N405 1.313 . S
C408 N409 1.344 . S
C408 H412 0.930 . S
N409 C406 1.377 . S
N409 C408 1.344 . S
O410 Co402 2.055 . S
O410 C414 1.253 . S
H411 C407 0.931 . S
H412 C408 0.930 . S
O413 Co402 2.039 1_455 S
O413 C403 1.265 . S
C414 O410 1.253 . S
C414 O415 1.227 . S
O415 C414 1.227 . S
N416 Co402 2.140 . S
N416 C419 1.346 . S
N416 C420 1.345 . S
C417 C418 1.387 . S
C417 C421 1.391 . S
C418 C417 1.387 . S
C418 C419 1.369 . S
C418 H427 0.929 . S
C419 N416 1.346 . S
C419 C418 1.369 . S
C419 H422 0.928 1_655 S
C420 N416 1.345 . S
C420 C421 1.371 . S
C420 H423 0.931 . S
C421 C417 1.391 . S
C421 C420 1.371 . S
C421 H428 0.930 . S
H422 C419 0.928 1_455 S
H423 C420 0.931 . S
H424 C400 0.930 . S
H425 C397 0.930 . S
H426 C406 0.930 1_565 S
H427 C418 0.929 . S
H428 C421 0.930 . S
C429 C430 1.351 1_565 S
C429 N432 1.368 1_565 S
C429 H434 0.931 . S
C430 C429 1.351 1_545 S
C430 N431 1.373 . S
C430 H458 0.930 . S
N431 C430 1.373 . S
N431 C433 1.340 . S
N432 C429 1.368 1_545 S
N432 C433 1.321 . S
N432 Co435 2.135 1_545 S
C433 N431 1.340 . S
C433 N432 1.321 . S
C433 H457 0.930 . S
H434 C429 0.931 . S
Co435 N432 2.135 1_565 S
Co435 N438 2.121 . S
Co435 O443 2.055 . S
Co435 O446 2.039 1_565 S
Co435 N449 2.140 . S
C436 O437 1.227 . S
C436 O446 1.265 . S
O437 C436 1.227 . S
N438 Co435 2.121 . S
N438 C440 1.375 . S
N438 C441 1.313 . S
C439 C440 1.338 . S
C439 N442 1.377 . S
C439 H459 0.930 . S
C440 N438 1.375 . S
C440 C439 1.338 . S
C440 H444 0.931 . S
C441 N438 1.313 . S
C441 N442 1.344 . S
C441 H445 0.930 . S
N442 C439 1.377 . S
N442 C441 1.344 . S
O443 Co435 2.055 . S
O443 C447 1.253 . S
H444 C440 0.931 . S
H445 C441 0.930 . S
O446 Co435 2.039 1_545 S
O446 C436 1.265 . S
C447 O443 1.253 . S
C447 O448 1.227 . S
O448 C447 1.227 . S
N449 Co435 2.140 . S
N449 C452 1.346 . S
N449 C453 1.345 . S
C450 C451 1.387 . S
C450 C454 1.391 . S
C451 C450 1.387 . S
C451 C452 1.369 . S
C451 H460 0.929 . S
C452 N449 1.346 . S
C452 C451 1.369 . S
C452 H455 0.928 1_565 S
C453 N449 1.345 . S
C453 C454 1.371 . S
C453 H456 0.931 . S
C454 C450 1.391 . S
C454 C453 1.371 . S
C454 H461 0.930 . S
H455 C452 0.928 1_545 S
H456 C453 0.931 . S
H457 C433 0.930 . S
H458 C430 0.930 . S
H459 C439 0.930 . S
H460 C451 0.929 . S
H461 C454 0.930 . S
C462 C463 1.351 . S
C462 N465 1.368 . S
C462 H467 0.931 . S
C463 C462 1.351 . S
C463 N464 1.373 . S
C463 H491 0.930 . S
N464 C463 1.373 . S
N464 C466 1.340 . S
N465 C462 1.368 . S
N465 C466 1.321 . S
N465 Co468 2.135 . S
C466 N464 1.340 . S
C466 N465 1.321 . S
C466 H490 0.930 . S
H467 C462 0.931 . S
Co468 N465 2.135 . S
Co468 N471 2.121 . S
Co468 O476 2.055 . S
Co468 O479 2.039 . S
Co468 N482 2.140 . S
C469 O470 1.227 . S
C469 O479 1.265 . S
O470 C469 1.227 . S
N471 Co468 2.121 . S
N471 C473 1.375 . S
N471 C474 1.313 . S
C472 C473 1.338 . S
C472 N475 1.377 . S
C472 H492 0.930 . S
C473 N471 1.375 . S
C473 C472 1.338 . S
C473 H477 0.931 . S
C474 N471 1.313 . S
C474 N475 1.344 . S
C474 H478 0.930 . S
N475 C472 1.377 . S
N475 C474 1.344 . S
O476 Co468 2.055 . S
O476 C480 1.253 . S
H477 C473 0.931 . S
H478 C474 0.930 . S
O479 Co468 2.039 . S
O479 C469 1.265 . S
C480 O476 1.253 . S
C480 O481 1.227 . S
O481 C480 1.227 . S
N482 Co468 2.140 . S
N482 C485 1.346 . S
N482 C486 1.345 . S
C483 C484 1.387 . S
C483 C487 1.391 . S
C484 C483 1.387 . S
C484 C485 1.369 . S
C484 H493 0.929 . S
C485 N482 1.346 . S
C485 C484 1.369 . S
C485 H488 0.928 . S
C486 N482 1.345 . S
C486 C487 1.371 . S
C486 H489 0.931 . S
C487 C483 1.391 . S
C487 C486 1.371 . S
C487 H494 0.930 . S
H488 C485 0.928 . S
H489 C486 0.931 . S
H490 C466 0.930 . S
H491 C463 0.930 . S
H492 C472 0.930 . S
H493 C484 0.929 . S
H494 C487 0.930 . S
C495 C496 1.351 . S
C495 N498 1.368 . S
C495 H500 0.931 . S
C496 C495 1.351 . S
C496 N497 1.373 . S
C496 H524 0.930 . S
N497 C496 1.373 . S
N497 C499 1.340 . S
N498 C495 1.368 . S
N498 C499 1.321 . S
N498 Co501 2.135 . S
C499 N497 1.340 . S
C499 N498 1.321 . S
C499 H523 0.930 . S
H500 C495 0.931 . S
Co501 N498 2.135 . S
Co501 N504 2.121 . S
Co501 O509 2.055 . S
Co501 O512 2.039 . S
Co501 N515 2.140 . S
C502 O503 1.227 . S
C502 O512 1.265 . S
O503 C502 1.227 . S
N504 Co501 2.121 . S
N504 C506 1.375 . S
N504 C507 1.313 . S
C505 C506 1.338 . S
C505 N508 1.377 . S
C505 H525 0.930 1_455 S
C506 N504 1.375 . S
C506 C505 1.338 . S
C506 H510 0.931 . S
C507 N504 1.313 . S
C507 N508 1.344 . S
C507 H511 0.930 . S
N508 C505 1.377 . S
N508 C507 1.344 . S
O509 Co501 2.055 . S
O509 C513 1.253 . S
H510 C506 0.931 . S
H511 C507 0.930 . S
O512 Co501 2.039 . S
O512 C502 1.265 . S
C513 O509 1.253 . S
C513 O514 1.227 . S
O514 C513 1.227 . S
N515 Co501 2.140 . S
N515 C518 1.346 . S
N515 C519 1.345 . S
C516 C517 1.387 . S
C516 C520 1.391 . S
C517 C516 1.387 . S
C517 C518 1.369 . S
C517 H526 0.929 . S
C518 N515 1.346 . S
C518 C517 1.369 . S
C518 H521 0.928 . S
C519 N515 1.345 . S
C519 C520 1.371 . S
C519 H522 0.931 . S
C520 C516 1.391 . S
C520 C519 1.371 . S
C520 H527 0.930 . S
H521 C518 0.928 . S
H522 C519 0.931 . S
H523 C499 0.930 . S
H524 C496 0.930 . S
H525 C505 0.930 1_655 S
H526 C517 0.929 . S
H527 C520 0.930 . S
N101 C7 2.166 . S
C40 N2 2.165 . S
C73 N35 2.166 . S
C106 N68 2.165 . S
N167 C139 2.165 . S
N200 C172 2.166 . S
C205 N233 2.165 . S
N134 C238 2.166 . S
C271 N365 2.166 . S
C304 N266 2.165 . S
N299 C337 2.166 . S
C370 N332 2.165 . S
N431 C403 2.165 . S
C436 N464 2.166 . S
C469 N497 2.165 . S
C502 N398 2.166 . S
C21 C186 2.016 . S
C54 C219 2.017 . S
C252 C87 2.016 . S
C120 C153 2.016 . S
C450 C285 2.016 . S
C483 C318 2.017 . S
C351 C516 2.016 . S
C417 C384 2.016 . S
N13 C381 1.487 . S
N46 C282 1.487 . S
N79 C315 1.487 . S
N112 C348 1.487 . S
C447 N145 1.487 1_556 S
N178 C480 1.487 1_554 S
C513 N211 1.487 1_556 S
N244 C414 1.487 1_554 S
C117 N277 1.487 . S
C18 N310 1.487 . S
C51 N343 1.487 . S
C84 N376 1.487 . S
C183 N409 1.487 1_554 S
N442 C216 1.487 1_556 S
C249 N475 1.487 1_554 S
C150 N508 1.487 1_554 S
