# Generated by pormake.
# Topology umm, (4)-cn, num edge types: 1
# Building blocks:
#     Node 0, Type 0, BuildingBlock: KOZSID_clean_sbu_0, # of connection points: 4
#     Node 1, Type 0, BuildingBlock: KOZSID_clean_sbu_0, # of connection points: 4
#     Node 2, Type 0, BuildingBlock: KOZSID_clean_sbu_0, # of connection points: 4
#     Node 3, Type 0, BuildingBlock: KOZSID_clean_sbu_0, # of connection points: 4
#     Node 4, Type 0, BuildingBlock: KOZSID_clean_sbu_0, # of connection points: 4
#     Node 5, Type 0, BuildingBlock: KOZSID_clean_sbu_0, # of connection points: 4
#     Node 6, Type 0, BuildingBlock: KOZSID_clean_sbu_0, # of connection points: 4
#     Node 7, Type 0, BuildingBlock: KOZSID_clean_sbu_0, # of connection points: 4
#     Node 8, Type 0, BuildingBlock: KOZSID_clean_sbu_0, # of connection points: 4
#     Node 9, Type 0, BuildingBlock: KOZSID_clean_sbu_0, # of connection points: 4
#     Node 10, Type 0, BuildingBlock: KOZSID_clean_sbu_0, # of connection points: 4
#     Node 11, Type 0, BuildingBlock: KOZSID_clean_sbu_0, # of connection points: 4
#     Edge 12, Type (0, 0), BuildingBlock: ZUJKAS_clean_linker_0, # of connection points: 2
#     Edge 13, Type (0, 0), BuildingBlock: ZUJKAS_clean_linker_0, # of connection points: 2
#     Edge 14, Type (0, 0), BuildingBlock: ZUJKAS_clean_linker_0, # of connection points: 2
#     Edge 15, Type (0, 0), BuildingBlock: ZUJKAS_clean_linker_0, # of connection points: 2
#     Edge 16, Type (0, 0), BuildingBlock: ZUJKAS_clean_linker_0, # of connection points: 2
#     Edge 17, Type (0, 0), BuildingBlock: ZUJKAS_clean_linker_0, # of connection points: 2
#     Edge 18, Type (0, 0), BuildingBlock: ZUJKAS_clean_linker_0, # of connection points: 2
#     Edge 19, Type (0, 0), BuildingBlock: ZUJKAS_clean_linker_0, # of connection points: 2
#     Edge 20, Type (0, 0), BuildingBlock: ZUJKAS_clean_linker_0, # of connection points: 2
#     Edge 21, Type (0, 0), BuildingBlock: ZUJKAS_clean_linker_0, # of connection points: 2
#     Edge 22, Type (0, 0), BuildingBlock: ZUJKAS_clean_linker_0, # of connection points: 2
#     Edge 23, Type (0, 0), BuildingBlock: ZUJKAS_clean_linker_0, # of connection points: 2
#     Edge 24, Type (0, 0), BuildingBlock: ZUJKAS_clean_linker_0, # of connection points: 2
#     Edge 25, Type (0, 0), BuildingBlock: ZUJKAS_clean_linker_0, # of connection points: 2
#     Edge 26, Type (0, 0), BuildingBlock: ZUJKAS_clean_linker_0, # of connection points: 2
#     Edge 27, Type (0, 0), BuildingBlock: ZUJKAS_clean_linker_0, # of connection points: 2
#     Edge 28, Type (0, 0), BuildingBlock: ZUJKAS_clean_linker_0, # of connection points: 2
#     Edge 29, Type (0, 0), BuildingBlock: ZUJKAS_clean_linker_0, # of connection points: 2
#     Edge 30, Type (0, 0), BuildingBlock: ZUJKAS_clean_linker_0, # of connection points: 2
#     Edge 31, Type (0, 0), BuildingBlock: ZUJKAS_clean_linker_0, # of connection points: 2
#     Edge 32, Type (0, 0), BuildingBlock: ZUJKAS_clean_linker_0, # of connection points: 2
#     Edge 33, Type (0, 0), BuildingBlock: ZUJKAS_clean_linker_0, # of connection points: 2
#     Edge 34, Type (0, 0), BuildingBlock: ZUJKAS_clean_linker_0, # of connection points: 2
#     Edge 35, Type (0, 0), BuildingBlock: ZUJKAS_clean_linker_0, # of connection points: 2
# Relax obj value: 0.060
# Max RMSD: 0.166
# Mean RMSD: 0.166
data_MOF--net-umm--node1-KOZSID_clean_sbu_0--edge1-ZUJKAS_clean_linker_0
_symmetry_space_group_name_H-M    P1
_symmetry_Int_Tables_number       1
_symmetry_cell_setting            triclinic
loop_
_symmetry_equiv_pos_as_xyz
'x, y, z'
_cell_length_a     78.974847
_cell_length_b     78.973387
_cell_length_c     47.23517
_cell_angle_alpha  90.047092
_cell_angle_beta   90.044647
_cell_angle_gamma 120.02949
loop_
_atom_site_label
_atom_site_type_symbol
_atom_site_fract_x
_atom_site_fract_y
_atom_site_fract_z
_atom_type_partial_charge
C0 C 0.36631 0.55252 0.08359 0.0
C1 C 0.34673 0.53801 0.08383 0.0
C2 C 0.34605 0.52142 0.09399 0.0
C3 C 0.36515 0.52663 0.09922 0.0
N4 N 0.37779 0.54546 0.09294 0.0
Co5 Co 0.40664 0.5588 0.09677 0.0
N6 N 0.40637 0.53353 0.09747 0.0
C7 C 0.39068 0.5159 0.1028 0.0
C8 C 0.39485 0.50099 0.10196 0.0
C9 C 0.41443 0.50983 0.096 0.0
C10 C 0.42117 0.52974 0.09366 0.0
N11 N 0.43548 0.57212 0.10111 0.0
C12 C 0.44791 0.56511 0.09756 0.0
C13 C 0.46697 0.57939 0.10385 0.0
C14 C 0.46633 0.59579 0.11182 0.0
C15 C 0.44698 0.59067 0.11001 0.0
N16 N 0.40673 0.58395 0.0957 0.0
C17 C 0.42125 0.6013 0.10494 0.0
C18 C 0.41717 0.61615 0.10114 0.0
C19 C 0.39892 0.60752 0.08885 0.0
C20 C 0.3929 0.58784 0.08578 0.0
N21 N 0.40418 0.55817 0.13827 0.0
C22 C 0.40541 0.56272 0.19734 0.0
C23 C 0.39385 0.56761 0.18057 0.0
C24 C 0.39316 0.5649 0.15116 0.0
C25 C 0.4156 0.55467 0.18408 0.0
C26 C 0.41494 0.55267 0.15462 0.0
N27 N 0.40949 0.55991 0.05557 0.0
C28 C 0.42559 0.57881 0.01413 0.0
C29 C 0.4133 0.56319 0.99644 0.0
C30 C 0.39926 0.54564 1.00916 0.0
C31 C 0.39763 0.54429 0.03877 0.0
C32 C 0.4234 0.57691 0.04339 0.0
H33 H 0.38664 0.53073 0.04807 0.0
H34 H 0.43294 0.58939 0.05616 0.0
H35 H 0.38422 0.5689 0.13877 0.0
H36 H 0.42376 0.54734 0.14506 0.0
C37 C 0.37196 0.51363 0.10438 0.0
C38 C 0.37347 0.57295 0.0755 0.0
C39 C 0.44191 0.54468 0.09066 0.0
C40 C 0.4395 0.60346 0.11218 0.0
H41 H 0.33425 0.53918 0.07717 0.0
H42 H 0.33324 0.50703 0.09586 0.0
H43 H 0.38478 0.4855 0.10455 0.0
H44 H 0.42283 0.50248 0.09406 0.0
H45 H 0.47992 0.578 0.10309 0.0
H46 H 0.4786 0.60992 0.11747 0.0
H47 H 0.42661 0.63154 0.10569 0.0
H48 H 0.39092 0.61481 0.08296 0.0
H49 H 0.38555 0.57366 0.19009 0.0
H50 H 0.42474 0.55073 0.19629 0.0
H51 H 0.43699 0.59251 1.00552 0.0
H52 H 0.38937 0.53316 0.99641 0.0
C53 C 0.81804 0.36434 0.41747 0.0
C54 C 0.81292 0.34476 0.41788 0.0
C55 C 0.82874 0.34405 0.42845 0.0
C56 C 0.84262 0.36316 0.43377 0.0
N57 N 0.83652 0.37581 0.42713 0.0
Co58 Co 0.85201 0.40464 0.43104 0.0
N59 N 0.87698 0.40436 0.43235 0.0
C60 C 0.87888 0.38869 0.43805 0.0
C61 C 0.89796 0.39288 0.43756 0.0
C62 C 0.90875 0.41243 0.43145 0.0
C63 C 0.89558 0.41914 0.42863 0.0
N64 N 0.8675 0.43347 0.43538 0.0
C65 C 0.88696 0.44588 0.43194 0.0
C66 C 0.89174 0.46496 0.43804 0.0
C67 C 0.87466 0.46434 0.44577 0.0
C68 C 0.86042 0.44498 0.44399 0.0
N69 N 0.82696 0.40473 0.42942 0.0
C70 C 0.82407 0.41924 0.43849 0.0
C71 C 0.80515 0.41514 0.43433 0.0
C72 C 0.79562 0.39691 0.42197 0.0
C73 C 0.8093 0.39091 0.41923 0.0
N74 N 0.84987 0.40217 0.47251 0.0
C75 C 0.84627 0.40327 0.53151 0.0
C76 C 0.82987 0.3918 0.51456 0.0
C77 C 0.83203 0.39116 0.48518 0.0
C78 C 0.86459 0.41347 0.5185 0.0
C79 C 0.86606 0.41289 0.48906 0.0
N80 N 0.85413 0.40754 0.38987 0.0
C81 C 0.85257 0.42424 0.34825 0.0
C82 C 0.85732 0.41281 0.33101 0.0
C83 C 0.86021 0.39843 0.34391 0.0
C84 C 0.85862 0.39609 0.3734 0.0
C85 C 0.85105 0.42139 0.37743 0.0
H86 H 0.86109 0.38509 0.38292 0.0
H87 H 0.84734 0.43046 0.38992 0.0
H88 H 0.81915 0.38225 0.47262 0.0
H89 H 0.88026 0.42173 0.47968 0.0
C90 C 0.8624 0.36996 0.43944 0.0
C91 C 0.80486 0.37152 0.40897 0.0
C92 C 0.90137 0.43985 0.42521 0.0
C93 C 0.84012 0.43749 0.44587 0.0
H94 H 0.79929 0.33228 0.41109 0.0
H95 H 0.83026 0.33123 0.4306 0.0
H96 H 0.90337 0.38281 0.44045 0.0
H97 H 0.92452 0.42083 0.42967 0.0
H98 H 0.90609 0.47791 0.43728 0.0
H99 H 0.8728 0.47662 0.45118 0.0
H100 H 0.79918 0.42457 0.43868 0.0
H101 H 0.78037 0.38891 0.41582 0.0
H102 H 0.81547 0.38352 0.52392 0.0
H103 H 0.87761 0.42254 0.53088 0.0
H104 H 0.84982 0.43525 0.33927 0.0
H105 H 0.86398 0.3893 0.33139 0.0
C106 C 0.45892 0.81665 0.75117 0.0
C107 C 0.4737 0.81199 0.75165 0.0
C108 C 0.4901 0.82812 0.76188 0.0
C109 C 0.48451 0.84175 0.76691 0.0
N110 N 0.46564 0.83519 0.76039 0.0
Co111 Co 0.45183 0.85025 0.76379 0.0
N112 N 0.47682 0.87552 0.76446 0.0
C113 C 0.49454 0.87786 0.77039 0.0
C114 C 0.50917 0.89707 0.76983 0.0
C115 C 0.50006 0.90747 0.76337 0.0
C116 C 0.48027 0.89396 0.76031 0.0
N117 N 0.43803 0.86533 0.76759 0.0
C118 C 0.4447 0.88469 0.76363 0.0
C119 C 0.43006 0.88908 0.76911 0.0
C120 C 0.41384 0.87192 0.77721 0.0
C121 C 0.41939 0.85799 0.77615 0.0
N122 N 0.42695 0.82489 0.76285 0.0
C123 C 0.40949 0.82176 0.77193 0.0
C124 C 0.39489 0.80267 0.76829 0.0
C125 C 0.40381 0.79328 0.75627 0.0
C126 C 0.42341 0.80721 0.75318 0.0
N127 N 0.45244 0.84874 0.80531 0.0
C128 C 0.44719 0.84585 0.86444 0.0
C129 C 0.4433 0.82942 0.84804 0.0
C130 C 0.4462 0.83121 0.81863 0.0
C131 C 0.45496 0.86393 0.85059 0.0
C132 C 0.45735 0.86503 0.82124 0.0
N133 N 0.45075 0.8518 0.72258 0.0
C134 C 0.43212 0.84957 0.68104 0.0
C135 C 0.44837 0.85475 0.66374 0.0
C136 C 0.46583 0.85809 0.67654 0.0
C137 C 0.46674 0.85661 0.70604 0.0
C138 C 0.43361 0.84817 0.71019 0.0
H139 H 0.48036 0.85948 0.71552 0.0
H140 H 0.42079 0.84419 0.72274 0.0
H141 H 0.44263 0.81825 0.80654 0.0
H142 H 0.46251 0.87906 0.81139 0.0
C143 C 0.49719 0.86164 0.77221 0.0
C144 C 0.43854 0.803 0.74308 0.0
C145 C 0.46507 0.89934 0.75667 0.0
C146 C 0.40692 0.83767 0.77865 0.0
H147 H 0.47285 0.79845 0.74512 0.0
H148 H 0.50459 0.83001 0.76399 0.0
H149 H 0.52468 0.9028 0.77299 0.0
H150 H 0.50714 0.92323 0.76169 0.0
H151 H 0.43101 0.9032 0.76762 0.0
H152 H 0.39954 0.86977 0.78235 0.0
H153 H 0.37946 0.79648 0.77271 0.0
H154 H 0.39677 0.77796 0.75054 0.0
H155 H 0.43732 0.81509 0.85755 0.0
H156 H 0.45887 0.87721 0.8622 0.0
H157 H 0.41822 0.84644 0.67211 0.0
H158 H 0.47877 0.86218 0.66396 0.0
C159 C 0.64645 0.45718 0.08458 0.0
C160 C 0.66587 0.47209 0.08471 0.0
C161 C 0.66609 0.48845 0.09496 0.0
C162 C 0.64689 0.48273 0.10029 0.0
N163 N 0.63461 0.46382 0.09394 0.0
Co164 Co 0.60573 0.4499 0.09763 0.0
N165 N 0.60533 0.47481 0.09832 0.0
C166 C 0.62071 0.49259 0.10408 0.0
C167 C 0.61604 0.50715 0.10364 0.0
C168 C 0.59647 0.49793 0.09745 0.0
C169 C 0.59025 0.47817 0.0944 0.0
N170 N 0.57686 0.43599 0.10182 0.0
C171 C 0.56409 0.44256 0.09804 0.0
C172 C 0.5451 0.42785 0.1037 0.0
C173 C 0.54618 0.4117 0.11176 0.0
C174 C 0.56568 0.41736 0.11049 0.0
N175 N 0.60632 0.42508 0.09657 0.0
C176 C 0.59205 0.40759 0.10571 0.0
C177 C 0.59658 0.39304 0.10194 0.0
C178 C 0.61485 0.40202 0.08977 0.0
C179 C 0.62044 0.4216 0.08672 0.0
N180 N 0.60818 0.45061 0.13913 0.0
C181 C 0.60692 0.44607 0.1982 0.0
C182 C 0.61887 0.44164 0.18153 0.0
C183 C 0.61954 0.44432 0.15212 0.0
C184 C 0.59636 0.45369 0.18483 0.0
C185 C 0.59706 0.4557 0.15538 0.0
N186 N 0.60289 0.4487 0.05642 0.0
C187 C 0.58696 0.42968 0.01491 0.0
C188 C 0.59883 0.4455 0.9973 0.0
C189 C 0.61262 0.46316 1.0101 0.0
C190 C 0.61439 0.46448 0.03971 0.0
C191 C 0.58928 0.43155 0.04416 0.0
H192 H 0.62515 0.47814 0.04908 0.0
H193 H 0.58003 0.41895 0.05686 0.0
H194 H 0.62876 0.44065 0.1398 0.0
H195 H 0.58797 0.46067 0.14574 0.0
C196 C 0.63962 0.49534 0.10567 0.0
C197 C 0.63976 0.43678 0.0766 0.0
C198 C 0.56966 0.46288 0.09101 0.0
C199 C 0.57361 0.40496 0.11274 0.0
H200 H 0.67856 0.47137 0.0779 0.0
H201 H 0.67866 0.503 0.09683 0.0
H202 H 0.62579 0.52267 0.10673 0.0
H203 H 0.58771 0.50493 0.09594 0.0
H204 H 0.53187 0.4287 0.10232 0.0
H205 H 0.5341 0.39738 0.11696 0.0
H206 H 0.58741 0.37761 0.10642 0.0
H207 H 0.62315 0.39504 0.08395 0.0
H208 H 0.62746 0.43595 0.19111 0.0
H209 H 0.58689 0.45724 0.19691 0.0
H210 H 0.57577 0.41588 1.00624 0.0
H211 H 0.62221 0.47579 0.99742 0.0
C212 C 0.19306 0.64413 0.41801 0.0
C213 C 0.19741 0.66349 0.41829 0.0
C214 C 0.18122 0.66352 0.42868 0.0
C215 C 0.16785 0.64426 0.43395 0.0
N216 N 0.17462 0.63213 0.42741 0.0
Co217 Co 0.1599 0.60325 0.43096 0.0
N218 N 0.13446 0.60257 0.43187 0.0
C219 C 0.1319 0.61782 0.43784 0.0
C220 C 0.11262 0.61297 0.43748 0.0
C221 C 0.10239 0.59341 0.43111 0.0
C222 C 0.11608 0.58739 0.42788 0.0
N223 N 0.14515 0.57436 0.43493 0.0
C224 C 0.12583 0.56146 0.43106 0.0
C225 C 0.12172 0.54251 0.43656 0.0
C226 C 0.13903 0.54373 0.44458 0.0
C227 C 0.15276 0.56329 0.44345 0.0
N228 N 0.18542 0.60411 0.42978 0.0
C229 C 0.18883 0.58995 0.43882 0.0
C230 C 0.20797 0.59469 0.43502 0.0
C231 C 0.21709 0.61298 0.42294 0.0
C232 C 0.20296 0.61838 0.41997 0.0
N233 N 0.16168 0.60556 0.47245 0.0
C234 C 0.16495 0.6043 0.53159 0.0
C235 C 0.18121 0.61674 0.51498 0.0
C236 C 0.17923 0.61731 0.48553 0.0
C237 C 0.14689 0.5932 0.51799 0.0
C238 C 0.14557 0.59401 0.48859 0.0
N239 N 0.15811 0.60048 0.38976 0.0
C240 C 0.16013 0.58398 0.3482 0.0
C241 C 0.1552 0.59524 0.33094 0.0
C242 C 0.152 0.60945 0.34372 0.0
C243 C 0.15339 0.61174 0.37325 0.0
C244 C 0.1616 0.58688 0.37736 0.0
H245 H 0.15059 0.62253 0.38274 0.0
H246 H 0.16557 0.57802 0.38988 0.0
H247 H 0.19203 0.62681 0.47325 0.0
H248 H 0.13157 0.58465 0.47888 0.0
C249 C 0.14796 0.6368 0.43947 0.0
C250 C 0.20689 0.63764 0.40991 0.0
C251 C 0.11096 0.56689 0.42419 0.0
C252 C 0.17313 0.5714 0.44573 0.0
H253 H 0.21076 0.67628 0.41151 0.0
H254 H 0.17911 0.676 0.43071 0.0
H255 H 0.10671 0.62258 0.4407 0.0
H256 H 0.08664 0.58454 0.42956 0.0
H257 H 0.10769 0.52921 0.43513 0.0
H258 H 0.1414 0.53172 0.44967 0.0
H259 H 0.21437 0.58563 0.43941 0.0
H260 H 0.23237 0.62142 0.41711 0.0
H261 H 0.19541 0.62583 0.52461 0.0
H262 H 0.13393 0.58327 0.52983 0.0
H263 H 0.16307 0.5731 0.3392 0.0
H264 H 0.14814 0.61846 0.33109 0.0
C265 C 0.55362 0.19172 0.75103 0.0
C266 C 0.53884 0.19639 0.75143 0.0
C267 C 0.52249 0.18035 0.76185 0.0
C268 C 0.52809 0.16676 0.76705 0.0
N269 N 0.54693 0.17324 0.76045 0.0
Co270 Co 0.56071 0.15814 0.76394 0.0
N271 N 0.5357 0.13291 0.76509 0.0
C272 C 0.518 0.13065 0.77092 0.0
C273 C 0.50332 0.11146 0.77036 0.0
C274 C 0.51237 0.10098 0.76404 0.0
C275 C 0.53218 0.11442 0.76117 0.0
N276 N 0.57448 0.14304 0.76783 0.0
C277 C 0.56773 0.12365 0.76415 0.0
C278 C 0.58229 0.11919 0.76999 0.0
C279 C 0.5986 0.1364 0.7778 0.0
C280 C 0.59314 0.15039 0.77634 0.0
N281 N 0.58562 0.18346 0.76254 0.0
C282 C 0.60313 0.1866 0.77148 0.0
C283 C 0.61774 0.20564 0.76758 0.0
C284 C 0.60877 0.21499 0.75554 0.0
C285 C 0.58914 0.20108 0.75271 0.0
N286 N 0.56041 0.16007 0.80543 0.0
C287 C 0.56522 0.16355 0.86455 0.0
C288 C 0.56911 0.17978 0.8478 0.0
C289 C 0.56644 0.17769 0.81838 0.0
C290 C 0.55804 0.14541 0.85109 0.0
C291 C 0.55576 0.14399 0.82169 0.0
N292 N 0.56146 0.15623 0.72274 0.0
C293 C 0.57969 0.15796 0.68102 0.0
C294 C 0.56351 0.15338 0.66386 0.0
C295 C 0.54626 0.15045 0.67679 0.0
C296 C 0.54549 0.1518 0.70633 0.0
C297 C 0.5784 0.15941 0.71021 0.0
H298 H 0.53201 0.14923 0.71592 0.0
H299 H 0.59122 0.16315 0.72265 0.0
H300 H 0.56983 0.19049 0.80601 0.0
H301 H 0.55091 0.12992 0.81208 0.0
C302 C 0.51541 0.14691 0.77252 0.0
C303 C 0.57397 0.2053 0.74278 0.0
C304 C 0.54733 0.10897 0.75754 0.0
C305 C 0.60568 0.17073 0.77848 0.0
H306 H 0.53965 0.20986 0.74469 0.0
H307 H 0.50801 0.17849 0.76394 0.0
H308 H 0.48781 0.1058 0.77333 0.0
H309 H 0.50523 0.08522 0.76217 0.0
H310 H 0.58115 0.10496 0.76901 0.0
H311 H 0.61286 0.13851 0.78309 0.0
H312 H 0.63319 0.21184 0.77189 0.0
H313 H 0.6158 0.23027 0.74968 0.0
H314 H 0.57437 0.19404 0.8573 0.0
H315 H 0.55494 0.13247 0.86302 0.0
H316 H 0.59341 0.16069 0.67191 0.0
H317 H 0.5334 0.14685 0.66424 0.0
C318 C 0.45666 0.64314 0.61017 0.0
C319 C 0.47078 0.66282 0.60911 0.0
C320 C 0.48739 0.66379 0.5984 0.0
C321 C 0.48249 0.64473 0.59346 0.0
N322 N 0.46386 0.63188 0.60042 0.0
Co323 Co 0.45082 0.60309 0.59654 0.0
N324 N 0.47625 0.60375 0.59527 0.0
C325 C 0.49372 0.61958 0.58958 0.0
C326 C 0.5088 0.61567 0.59012 0.0
C327 C 0.50026 0.59612 0.59624 0.0
C328 C 0.48032 0.58913 0.59896 0.0
N329 N 0.43778 0.57428 0.59218 0.0
C330 C 0.44505 0.56206 0.59557 0.0
C331 C 0.4309 0.54292 0.58943 0.0
C332 C 0.4143 0.5433 0.58176 0.0
C333 C 0.4192 0.56259 0.58358 0.0
N334 N 0.4255 0.60265 0.59815 0.0
C335 C 0.40816 0.58797 0.58919 0.0
C336 C 0.39316 0.59176 0.59359 0.0
C337 C 0.40168 0.60998 0.60598 0.0
C338 C 0.42148 0.61633 0.6084 0.0
N339 N 0.4511 0.60552 0.55505 0.0
C340 C 0.44628 0.60419 0.49603 0.0
C341 C 0.44111 0.61549 0.51291 0.0
C342 C 0.44398 0.61626 0.5423 0.0
C343 C 0.4547 0.5943 0.50914 0.0
C344 C 0.45681 0.59499 0.53857 0.0
N345 N 0.45011 0.60021 0.63772 0.0
C346 C 0.43212 0.58318 0.67932 0.0
C347 C 0.44811 0.59516 0.69658 0.0
C348 C 0.46515 0.60992 0.68376 0.0
C349 C 0.46591 0.61211 0.65422 0.0
C350 C 0.43338 0.586 0.65014 0.0
H351 H 0.47922 0.62338 0.64472 0.0
H352 H 0.42069 0.57662 0.63763 0.0
H353 H 0.43981 0.62502 0.5548 0.0
H354 H 0.4624 0.58636 0.54799 0.0
C355 C 0.49568 0.63819 0.58791 0.0
C356 C 0.43634 0.6357 0.61898 0.0
C357 C 0.46558 0.56833 0.60217 0.0
C358 C 0.40618 0.56983 0.5818 0.0
H359 H 0.46925 0.67516 0.61546 0.0
H360 H 0.50157 0.67678 0.59583 0.0
H361 H 0.52423 0.62589 0.58722 0.0
H362 H 0.50782 0.58792 0.59804 0.0
H363 H 0.43248 0.53008 0.59012 0.0
H364 H 0.40021 0.5309 0.57635 0.0
H365 H 0.37774 0.58211 0.58949 0.0
H366 H 0.3942 0.61765 0.6125 0.0
H367 H 0.43474 0.62352 0.50349 0.0
H368 H 0.45883 0.58535 0.49683 0.0
H369 H 0.41855 0.57182 0.68834 0.0
H370 H 0.47786 0.61949 0.69637 0.0
C371 C 0.81809 0.45474 0.94437 0.0
C372 C 0.81287 0.46911 0.94341 0.0
C373 C 0.8287 0.4856 0.93277 0.0
C374 C 0.84263 0.4804 0.9278 0.0
N375 N 0.83652 0.46169 0.93469 0.0
Co376 Co 0.85185 0.44823 0.93072 0.0
N377 N 0.87687 0.47342 0.92976 0.0
C378 C 0.87886 0.491 0.9238 0.0
C379 C 0.89799 0.50582 0.92406 0.0
C380 C 0.9087 0.49699 0.93032 0.0
C381 C 0.89544 0.47716 0.93359 0.0
N382 N 0.86722 0.43479 0.92633 0.0
C383 C 0.88664 0.44173 0.93002 0.0
C384 C 0.89125 0.42725 0.92434 0.0
C385 C 0.87414 0.41088 0.91639 0.0
C386 C 0.86003 0.41617 0.91774 0.0
N387 N 0.82668 0.42315 0.93195 0.0
C388 C 0.82372 0.40574 0.92282 0.0
C389 C 0.80479 0.39095 0.92699 0.0
C390 C 0.79533 0.39968 0.93942 0.0
C391 C 0.80905 0.41939 0.94209 0.0
N392 N 0.84985 0.44876 0.88923 0.0
C393 C 0.84643 0.44416 0.83017 0.0
C394 C 0.83 0.43933 0.84695 0.0
C395 C 0.83207 0.44207 0.87636 0.0
C396 C 0.8647 0.45216 0.84342 0.0
C397 C 0.86607 0.45418 0.87287 0.0
N398 N 0.85384 0.44727 0.97189 0.0
C399 C 0.85205 0.4288 1.01335 0.0
C400 C 0.85688 0.44495 0.03074 0.0
C401 C 0.85993 0.46231 0.01799 0.0
C402 C 0.85841 0.46319 0.98849 0.0
C403 C 0.8506 0.43025 0.98419 0.0
H404 H 0.861 0.47672 0.97907 0.0
H405 H 0.84682 0.41748 0.97159 0.0
H406 H 0.81916 0.43814 0.88878 0.0
H407 H 0.88023 0.45945 0.8824 0.0
C408 C 0.86242 0.49332 0.92213 0.0
C409 C 0.80488 0.43442 0.9529 0.0
C410 C 0.90113 0.46217 0.93704 0.0
C411 C 0.83972 0.40345 0.91567 0.0
H412 H 0.79909 0.4678 0.94972 0.0
H413 H 0.83016 0.4999 0.93023 0.0
H414 H 0.90349 0.52127 0.92078 0.0
H415 H 0.92449 0.50426 0.93171 0.0
H416 H 0.90547 0.42841 0.92565 0.0
H417 H 0.87216 0.39664 0.91123 0.0
H418 H 0.79878 0.37551 0.92276 0.0
H419 H 0.78015 0.39239 0.94583 0.0
H420 H 0.81564 0.4333 0.83743 0.0
H421 H 0.87775 0.45602 0.83123 0.0
H422 H 0.84917 0.41496 0.02223 0.0
H423 H 0.86376 0.47519 0.03062 0.0
C424 C 0.36716 0.81635 0.27714 0.0
C425 C 0.34761 0.81128 0.27597 0.0
C426 C 0.34714 0.82717 0.26515 0.0
C427 C 0.36634 0.84098 0.26029 0.0
N428 N 0.3788 0.83475 0.26742 0.0
Co429 Co 0.40762 0.84989 0.26375 0.0
N430 N 0.4077 0.87501 0.26252 0.0
C431 C 0.39223 0.87713 0.2562 0.0
C432 C 0.3967 0.8963 0.25622 0.0
C433 C 0.41623 0.90691 0.26273 0.0
C434 C 0.42262 0.89354 0.26638 0.0
N435 N 0.43649 0.86508 0.25979 0.0
C436 C 0.44909 0.88447 0.26365 0.0
C437 C 0.46817 0.88892 0.25842 0.0
C438 C 0.46733 0.87176 0.25054 0.0
C439 C 0.44786 0.85777 0.2515 0.0
N440 N 0.40728 0.82461 0.2651 0.0
C441 C 0.42167 0.82152 0.25618 0.0
C442 C 0.41735 0.80253 0.26037 0.0
C443 C 0.39909 0.79319 0.27259 0.0
C444 C 0.39326 0.80702 0.27513 0.0
N445 N 0.40528 0.84791 0.22227 0.0
C446 C 0.4063 0.84441 0.16313 0.0
C447 C 0.39407 0.82818 0.17994 0.0
C448 C 0.39363 0.83027 0.20937 0.0
C449 C 0.41735 0.86255 0.17655 0.0
C450 C 0.41666 0.86398 0.20597 0.0
N451 N 0.41039 0.85187 0.30493 0.0
C452 C 0.42681 0.85002 0.34669 0.0
C453 C 0.41559 0.85511 0.36379 0.0
C454 C 0.40142 0.85828 0.35078 0.0
C455 C 0.39911 0.85666 0.32127 0.0
C456 C 0.42398 0.84846 0.31751 0.0
H457 H 0.3883 0.85938 0.31163 0.0
H458 H 0.43289 0.84449 0.30511 0.0
H459 H 0.38428 0.81748 0.22179 0.0
H460 H 0.42593 0.87805 0.21554 0.0
C461 C 0.3734 0.86078 0.25444 0.0
C462 C 0.37409 0.80302 0.2858 0.0
C463 C 0.44324 0.89908 0.2703 0.0
C464 C 0.44011 0.83744 0.24933 0.0
H465 H 0.33505 0.79756 0.28223 0.0
H466 H 0.33438 0.82874 0.2624 0.0
H467 H 0.38687 0.90191 0.25264 0.0
H468 H 0.42484 0.92269 0.26403 0.0
H469 H 0.48132 0.90307 0.25996 0.0
H470 H 0.47954 0.86965 0.24568 0.0
H471 H 0.4267 0.79642 0.25633 0.0
H472 H 0.39107 0.77801 0.27899 0.0
H473 H 0.38502 0.81391 0.17046 0.0
H474 H 0.42711 0.8755 0.16456 0.0
H475 H 0.43765 0.84704 0.3558 0.0
H476 H 0.39245 0.8623 0.3632 0.0
C477 C 0.55576 0.36556 0.61073 0.0
C478 C 0.5415 0.34593 0.60951 0.0
C479 C 0.52504 0.34515 0.59845 0.0
C480 C 0.53017 0.36427 0.59351 0.0
N481 N 0.54879 0.37697 0.60081 0.0
Co482 Co 0.5621 0.40578 0.59705 0.0
N483 N 0.53682 0.40539 0.59539 0.0
C484 C 0.51935 0.38972 0.5891 0.0
C485 C 0.50443 0.39387 0.58892 0.0
C486 C 0.51309 0.41341 0.59525 0.0
C487 C 0.53291 0.42012 0.599 0.0
N488 N 0.57539 0.4346 0.59278 0.0
C489 C 0.5683 0.44697 0.59617 0.0
C490 C 0.58275 0.46612 0.59079 0.0
C491 C 0.59926 0.46555 0.58331 0.0
C492 C 0.59409 0.44618 0.58464 0.0
N493 N 0.58727 0.40593 0.59905 0.0
C494 C 0.60472 0.4205 0.59034 0.0
C495 C 0.61956 0.41649 0.59491 0.0
C496 C 0.61081 0.39824 0.60715 0.0
C497 C 0.59106 0.39211 0.60934 0.0
N498 N 0.562 0.40334 0.55557 0.0
C499 C 0.5669 0.40445 0.49664 0.0
C500 C 0.57187 0.39306 0.51363 0.0
C501 C 0.56896 0.39241 0.54299 0.0
C502 C 0.55869 0.41459 0.50954 0.0
C503 C 0.55653 0.414 0.53895 0.0
N504 N 0.56262 0.40863 0.63822 0.0
C505 C 0.58049 0.42546 0.6801 0.0
C506 C 0.56438 0.41354 0.69711 0.0
C507 C 0.54732 0.39894 0.68402 0.0
C508 C 0.54669 0.39682 0.65448 0.0
C509 C 0.57936 0.42271 0.65089 0.0
H510 H 0.53337 0.38568 0.64476 0.0
H511 H 0.59215 0.43202 0.63857 0.0
H512 H 0.57295 0.38355 0.5556 0.0
H513 H 0.55107 0.42279 0.54825 0.0
C514 C 0.51719 0.37102 0.58748 0.0
C515 C 0.57602 0.3728 0.61975 0.0
C516 C 0.54776 0.44085 0.60266 0.0
C517 C 0.60695 0.43875 0.58306 0.0
H518 H 0.54284 0.3335 0.61594 0.0
H519 H 0.51082 0.33226 0.59562 0.0
H520 H 0.48903 0.38383 0.58529 0.0
H521 H 0.50571 0.42182 0.59635 0.0
H522 H 0.5815 0.47913 0.59202 0.0
H523 H 0.61352 0.47789 0.5785 0.0
H524 H 0.63502 0.42601 0.59101 0.0
H525 H 0.61811 0.39039 0.61373 0.0
H526 H 0.5781 0.38486 0.50432 0.0
H527 H 0.55471 0.42359 0.49708 0.0
H528 H 0.59407 0.43669 0.68933 0.0
H529 H 0.53451 0.38943 0.69644 0.0
C530 C 0.19459 0.55334 0.94344 0.0
C531 C 0.20001 0.53913 0.94238 0.0
C532 C 0.18414 0.52245 0.93215 0.0
C533 C 0.17 0.52741 0.9275 0.0
N534 N 0.17601 0.54614 0.93416 0.0
Co535 Co 0.16035 0.5593 0.93077 0.0
N536 N 0.13546 0.53394 0.93036 0.0
C537 C 0.13361 0.51637 0.92475 0.0
C538 C 0.11457 0.50137 0.92578 0.0
C539 C 0.10376 0.51007 0.93212 0.0
C540 C 0.11685 0.53001 0.93449 0.0
N541 N 0.14467 0.57247 0.92702 0.0
C542 C 0.12524 0.56534 0.93092 0.0
C543 C 0.1203 0.57953 0.92493 0.0
C544 C 0.13723 0.59599 0.91678 0.0
C545 C 0.15155 0.59099 0.9182 0.0
N546 N 0.18538 0.58454 0.93139 0.0
C547 C 0.18802 0.60181 0.92226 0.0
C548 C 0.20694 0.61677 0.92601 0.0
C549 C 0.21672 0.60828 0.93817 0.0
C550 C 0.20319 0.58855 0.94112 0.0
N551 N 0.16175 0.55858 0.88926 0.0
C552 C 0.16443 0.56368 0.83012 0.0
C553 C 0.18097 0.56784 0.84644 0.0
C554 C 0.17928 0.56504 0.87586 0.0
C555 C 0.14637 0.55571 0.84404 0.0
C556 C 0.14535 0.55336 0.8734 0.0
N557 N 0.159 0.56049 0.972 0.0
C558 C 0.16195 0.57938 1.01356 0.0
C559 C 0.15835 0.56364 0.0311 0.0
C560 C 0.15475 0.54609 0.01826 0.0
C561 C 0.15514 0.54482 0.98866 0.0
C562 C 0.16228 0.57754 0.9843 0.0
H563 H 0.15247 0.53125 0.97924 0.0
H564 H 0.16529 0.59005 0.97162 0.0
H565 H 0.19234 0.56887 0.8879 0.0
H566 H 0.13131 0.54797 0.88331 0.0
C567 C 0.15015 0.51426 0.92259 0.0
C568 C 0.20768 0.57373 0.95183 0.0
C569 C 0.11092 0.54485 0.93769 0.0
C570 C 0.1718 0.60386 0.91556 0.0
H571 H 0.21392 0.54064 0.94843 0.0
H572 H 0.1828 0.5082 0.92975 0.0
H573 H 0.10922 0.4859 0.92299 0.0
H574 H 0.08801 0.50262 0.93424 0.0
H575 H 0.10593 0.57804 0.92596 0.0
H576 H 0.13895 0.61006 0.91123 0.0
H577 H 0.21273 0.63216 0.92171 0.0
H578 H 0.23198 0.61576 0.94425 0.0
H579 H 0.19528 0.57397 0.83682 0.0
H580 H 0.13303 0.55162 0.83245 0.0
H581 H 0.16435 0.59309 0.02231 0.0
H582 H 0.15198 0.53354 0.03094 0.0
C583 C 0.64568 0.19273 0.27655 0.0
C584 C 0.66534 0.19822 0.2757 0.0
C585 C 0.66624 0.18238 0.2656 0.0
C586 C 0.64715 0.16818 0.26085 0.0
N587 N 0.63437 0.17412 0.26734 0.0
Co588 Co 0.60554 0.15833 0.26392 0.0
N589 N 0.60612 0.13351 0.26368 0.0
C590 C 0.6219 0.13174 0.25826 0.0
C591 C 0.61796 0.11275 0.25953 0.0
C592 C 0.59844 0.10188 0.26583 0.0
C593 C 0.59149 0.11489 0.26791 0.0
N594 N 0.57668 0.14254 0.2601 0.0
C595 C 0.56444 0.1231 0.26408 0.0
C596 C 0.54528 0.11805 0.25798 0.0
C597 C 0.54568 0.13492 0.24969 0.0
C598 C 0.56499 0.14932 0.25113 0.0
N599 N 0.6052 0.18327 0.26441 0.0
C600 C 0.59053 0.18583 0.25513 0.0
C601 C 0.59446 0.20475 0.25868 0.0
C602 C 0.61274 0.21462 0.27087 0.0
C603 C 0.61895 0.20113 0.27408 0.0
N604 N 0.60765 0.15967 0.22239 0.0
C605 C 0.60502 0.16228 0.16326 0.0
C606 C 0.61732 0.17887 0.17956 0.0
C607 C 0.61857 0.17721 0.20896 0.0
C608 C 0.59515 0.1442 0.1772 0.0
C609 C 0.59657 0.14322 0.20656 0.0
N610 N 0.60299 0.15704 0.30514 0.0
C611 C 0.58689 0.15986 0.34656 0.0
C612 C 0.59916 0.15654 0.36424 0.0
C613 C 0.61328 0.15314 0.35153 0.0
C614 C 0.61493 0.15343 0.32193 0.0
C615 C 0.58909 0.16015 0.31732 0.0
H616 H 0.62594 0.15089 0.31262 0.0
H617 H 0.5795 0.163 0.30455 0.0
H618 H 0.62773 0.19031 0.22098 0.0
H619 H 0.58804 0.12917 0.2165 0.0
C620 C 0.64053 0.14833 0.25611 0.0
C621 C 0.63828 0.20573 0.28484 0.0
C622 C 0.57069 0.10887 0.271 0.0
C623 C 0.57229 0.16954 0.24839 0.0
H624 H 0.67771 0.21214 0.28185 0.0
H625 H 0.67918 0.18108 0.2634 0.0
H626 H 0.62815 0.10747 0.25697 0.0
H627 H 0.59022 0.08614 0.26816 0.0
H628 H 0.53243 0.10365 0.25903 0.0
H629 H 0.53329 0.13655 0.24404 0.0
H630 H 0.58486 0.2105 0.25417 0.0
H631 H 0.62057 0.22992 0.27675 0.0
H632 H 0.62533 0.1932 0.16996 0.0
H633 H 0.58598 0.13081 0.16565 0.0
H634 H 0.57544 0.16209 0.35518 0.0
H635 H 0.62318 0.15059 0.36429 0.0
H636 H 0.39958 0.53732 0.2405 0.0
H637 H 0.40477 0.54451 0.29129 0.0
H638 H 0.4234 0.60505 0.27428 0.0
H639 H 0.41705 0.59755 0.22378 0.0
H640 H 0.43523 0.56523 0.32016 0.0
H641 H 0.38805 0.59738 0.33753 0.0
H642 H 0.38762 0.58539 0.30485 0.0
H643 H 0.40593 0.61062 0.31083 0.0
C644 C 0.40447 0.55208 0.24775 0.0
C645 C 0.40766 0.56682 0.22828 0.0
C646 C 0.40751 0.55623 0.27678 0.0
C647 C 0.41415 0.5753 0.28699 0.0
C648 C 0.4176 0.59008 0.26736 0.0
H649 H 0.47186 0.61171 0.45251 0.0
H650 H 0.46438 0.60565 0.4019 0.0
C651 C 0.41409 0.58583 0.2384 0.0
C652 C 0.41838 0.57982 0.31788 0.0
H653 H 0.41142 0.60311 0.37395 0.0
C654 C 0.42984 0.57337 0.33191 0.0
C655 C 0.41117 0.59017 0.33364 0.0
C656 C 0.39734 0.59608 0.32099 0.0
C657 C 0.43441 0.57708 0.36087 0.0
C658 C 0.42819 0.58845 0.37622 0.0
C659 C 0.41653 0.5947 0.36229 0.0
C660 C 0.43312 0.59355 0.40682 0.0
C661 C 0.44534 0.56816 0.37477 0.0
C662 C 0.41834 0.59001 0.42651 0.0
C663 C 0.42275 0.59417 0.45533 0.0
C664 C 0.442 0.60172 0.46516 0.0
C665 C 0.45687 0.60572 0.44549 0.0
C666 C 0.45253 0.60202 0.41659 0.0
H667 H 0.44309 0.55494 0.36317 0.0
H668 H 0.46124 0.57891 0.37451 0.0
H669 H 0.44064 0.56398 0.39704 0.0
H670 H 0.40326 0.58361 0.4197 0.0
H671 H 0.411 0.59085 0.47009 0.0
H672 H 0.86427 0.39551 0.57485 0.0
H673 H 0.86228 0.40067 0.62566 0.0
H674 H 0.82346 0.42305 0.60809 0.0
H675 H 0.8245 0.41668 0.55757 0.0
H676 H 0.87366 0.43122 0.65481 0.0
H677 H 0.79378 0.38829 0.67078 0.0
H678 H 0.80508 0.38716 0.63826 0.0
H679 H 0.79978 0.4066 0.64425 0.0
C680 C 0.85504 0.40119 0.58201 0.0
C681 C 0.84432 0.40544 0.5624 0.0
C682 C 0.85396 0.40423 0.61103 0.0
C683 C 0.8424 0.41192 0.62108 0.0
C684 C 0.8319 0.41642 0.60129 0.0
H685 H 0.86594 0.46943 0.78689 0.0
H686 H 0.86439 0.46193 0.73628 0.0
C687 C 0.8326 0.41292 0.57234 0.0
C688 C 0.84222 0.41617 0.65197 0.0
H689 H 0.81223 0.41101 0.70754 0.0
C690 C 0.86017 0.42661 0.66633 0.0
C691 C 0.82469 0.40997 0.66744 0.0
C692 C 0.80477 0.3972 0.65444 0.0
C693 C 0.86113 0.43114 0.69531 0.0
C694 C 0.84366 0.42598 0.71034 0.0
C695 C 0.82568 0.41532 0.6961 0.0
C696 C 0.84366 0.43099 0.74093 0.0
C697 C 0.88091 0.44089 0.70957 0.0
C698 C 0.83164 0.41645 0.76045 0.0
C699 C 0.83201 0.4209 0.78926 0.0
C700 C 0.8446 0.43994 0.79928 0.0
C701 C 0.85626 0.45459 0.77975 0.0
C702 C 0.85553 0.45024 0.75085 0.0
H703 H 0.89136 0.43778 0.69815 0.0
H704 H 0.88708 0.45697 0.70944 0.0
H705 H 0.87988 0.43595 0.73182 0.0
H706 H 0.82224 0.4015 0.75351 0.0
H707 H 0.82296 0.4093 0.80388 0.0
H708 H 0.43378 0.86632 0.89518 0.0
H709 H 0.42668 0.86431 0.94555 0.0
H710 H 0.44087 0.8185 0.95452 0.0
H711 H 0.44931 0.82128 0.90429 0.0
H712 H 0.39991 0.83566 0.97655 0.0
H713 H 0.47289 0.85379 0.0177 0.0
H714 H 0.46876 0.85666 0.98091 0.0
H715 H 0.46229 0.83292 0.99465 0.0
C716 C 0.43589 0.8561 0.90784 0.0
C717 C 0.4425 0.8442 0.89544 0.0
C718 C 0.43156 0.85481 0.93674 0.0
C719 C 0.43355 0.84151 0.95414 0.0
C720 C 0.43969 0.82926 0.94181 0.0
H721 H 0.4095 0.81569 0.13512 0.0
H722 H 0.41497 0.81376 0.0844 0.0
C723 C 0.44425 0.83068 0.91288 0.0
C724 C 0.42877 0.84033 0.98494 0.0
H725 H 0.44749 0.84392 0.05149 0.0
C726 C 0.41036 0.83749 0.99288 0.0
C727 C 0.44235 0.84272 1.00642 0.0
C728 C 0.46274 0.84688 0.99956 0.0
C729 C 0.4052 0.83699 0.0215 0.0
C730 C 0.41879 0.83945 0.04287 0.0
C731 C 0.43706 0.84196 0.03506 0.0
C732 C 0.41459 0.84014 0.07344 0.0
C733 C 0.38518 0.83374 0.0287 0.0
C734 C 0.41254 0.85561 0.08416 0.0
C735 C 0.40944 0.85678 0.11311 0.0
C736 C 0.40827 0.84245 0.13203 0.0
C737 C 0.41005 0.82682 0.12113 0.0
C738 C 0.41332 0.82576 0.09218 0.0
H739 H 0.37495 0.82767 1.01047 0.0
H740 H 0.37884 0.82363 0.04695 0.0
H741 H 0.38644 0.84791 0.0347 0.0
H742 H 0.41369 0.867 0.07017 0.0
H743 H 0.40804 0.86896 0.12073 0.0
H744 H 0.59774 0.4118 0.22462 0.0
H745 H 0.59086 0.40385 0.27495 0.0
H746 H 0.60471 0.46312 0.292 0.0
H747 H 0.61054 0.47073 0.24146 0.0
H748 H 0.61043 0.41492 0.32116 0.0
H749 H 0.55327 0.43548 0.32952 0.0
H750 H 0.5636 0.43448 0.29601 0.0
H751 H 0.57604 0.45583 0.31829 0.0
C752 C 0.59937 0.42313 0.23918 0.0
C753 C 0.60454 0.44185 0.22911 0.0
C754 C 0.5954 0.41858 0.26797 0.0
C755 C 0.59673 0.43271 0.28741 0.0
C756 C 0.60281 0.45169 0.27747 0.0
H757 H 0.60244 0.4203 0.47101 0.0
H758 H 0.60978 0.4268 0.4205 0.0
C759 C 0.60635 0.45612 0.24859 0.0
C760 C 0.59185 0.42756 0.31797 0.0
H761 H 0.56529 0.43035 0.37307 0.0
C762 C 0.60044 0.41818 0.33243 0.0
C763 C 0.57846 0.43135 0.33276 0.0
C764 C 0.56715 0.43963 0.31825 0.0
C765 C 0.5963 0.41279 0.36109 0.0
C766 C 0.58382 0.41764 0.37632 0.0
C767 C 0.57503 0.42678 0.36174 0.0
C768 C 0.57948 0.41329 0.40719 0.0
C769 C 0.60495 0.40142 0.37435 0.0
C770 C 0.56006 0.40418 0.41704 0.0
C771 C 0.55593 0.40106 0.44604 0.0
C772 C 0.5711 0.40664 0.46581 0.0
C773 C 0.59048 0.41551 0.4561 0.0
C774 C 0.59465 0.41909 0.42715 0.0
H775 H 0.60803 0.39312 0.35815 0.0
H776 H 0.61904 0.41177 0.38464 0.0
H777 H 0.59503 0.39096 0.3905 0.0
H778 H 0.54803 0.3996 0.40228 0.0
H779 H 0.54088 0.39431 0.45307 0.0
H780 H 0.1937 0.60117 0.55969 0.0
H781 H 0.19497 0.59453 0.6101 0.0
H782 H 0.14175 0.59592 0.6242 0.0
H783 H 0.14025 0.60229 0.57387 0.0
H784 H 0.19698 0.61404 0.65855 0.0
H785 H 0.12743 0.54333 0.657 0.0
H786 H 0.13948 0.55617 0.62503 0.0
H787 H 0.1245 0.56322 0.64483 0.0
C788 C 0.18237 0.60027 0.57358 0.0
C789 C 0.16677 0.60209 0.56266 0.0
C790 C 0.18307 0.59637 0.6024 0.0
C791 C 0.1682 0.59422 0.62091 0.0
C792 C 0.15307 0.59688 0.61026 0.0
H793 H 0.14397 0.57716 0.79963 0.0
H794 H 0.14584 0.58418 0.7491 0.0
C795 C 0.15228 0.60062 0.58146 0.0
C796 C 0.1684 0.58912 0.65129 0.0
H797 H 0.14069 0.55631 0.70255 0.0
C798 C 0.18475 0.60132 0.66809 0.0
C799 C 0.15251 0.57241 0.66379 0.0
C800 C 0.13508 0.55792 0.64667 0.0
C801 C 0.18532 0.59763 0.69715 0.0
C802 C 0.16919 0.58128 0.70972 0.0
C803 C 0.153 0.5689 0.69288 0.0
C804 C 0.16847 0.5771 0.74054 0.0
C805 C 0.20291 0.61152 0.71447 0.0
C806 C 0.1805 0.57063 0.75257 0.0
C807 C 0.17926 0.56625 0.78156 0.0
C808 C 0.16596 0.56828 0.79913 0.0
C809 C 0.15408 0.57494 0.78685 0.0
C810 C 0.15523 0.57916 0.75792 0.0
H811 H 0.21295 0.62498 0.70253 0.0
H812 H 0.19824 0.61574 0.73413 0.0
H813 H 0.21113 0.60411 0.72077 0.0
H814 H 0.19066 0.56872 0.73945 0.0
H815 H 0.18849 0.56096 0.79005 0.0
H816 H 0.63128 0.18694 0.12313 0.0
H817 H 0.62514 0.1897 0.07301 0.0
H818 H 0.56549 0.14317 0.08264 0.0
H819 H 0.57107 0.14109 0.13282 0.0
H820 H 0.61476 0.16412 0.03024 0.0
H821 H 0.55665 0.18304 0.04393 0.0
H822 H 0.57151 0.1832 0.07307 0.0
H823 H 0.55069 0.16062 0.06145 0.0
C824 C 0.61675 0.17749 0.11475 0.0
C825 C 0.6017 0.1638 0.13232 0.0
C826 C 0.6133 0.179 0.08596 0.0
C827 C 0.59472 0.16692 0.07402 0.0
C828 C 0.57981 0.15303 0.09136 0.0
H829 H 0.54282 0.13888 0.90712 0.0
H830 H 0.55079 0.14087 0.95758 0.0
C831 C 0.58317 0.15162 0.12011 0.0
C832 C 0.59101 0.16834 0.04334 0.0
H833 H 0.55979 0.17267 0.99751 0.0
C834 C 0.60288 0.16623 0.02312 0.0
C835 C 0.57554 0.17115 0.03389 0.0
C836 C 0.56301 0.17484 0.05423 0.0
C837 C 0.5993 0.16616 0.9939 0.0
C838 C 0.5835 0.1684 0.98456 0.0
C839 C 0.57183 0.17084 1.00469 0.0
C840 C 0.57854 0.16772 0.95401 0.0
C841 C 0.61208 0.16312 0.97321 0.0
C842 C 0.5913 0.18236 0.93528 0.0
C843 C 0.58675 0.18129 0.90639 0.0
C844 C 0.56936 0.16551 0.89561 0.0
C845 C 0.55643 0.1511 0.91461 0.0
C846 C 0.56092 0.15226 0.94349 0.0
H847 H 0.62123 0.15796 0.98384 0.0
H848 H 0.60303 0.15232 0.9567 0.0
H849 H 0.62196 0.17716 0.96248 0.0
H850 H 0.60486 0.19455 0.94298 0.0
H851 H 0.59712 0.19255 0.89238 0.0
H852 H 0.37067 0.58188 0.02054 0.0
H853 H 0.3451 0.58689 0.99915 0.0
H854 H 0.31851 0.57998 0.08127 0.0
H855 H 0.34444 0.57571 0.10257 0.0
H856 H 0.30735 0.56183 0.99586 0.0
H857 H 0.31574 0.62623 0.05431 0.0
H858 H 0.33395 0.61884 0.05571 0.0
H859 H 0.31257 0.60712 0.07793 0.0
C860 C 0.35961 0.58196 0.034 0.0
C861 C 0.35954 0.57856 0.06317 0.0
C862 C 0.34493 0.58469 0.0218 0.0
C863 C 0.32987 0.5841 0.03854 0.0
C864 C 0.33013 0.58109 0.06787 0.0
H865 H 0.21451 0.56819 1.00654 0.0
H866 H 0.24498 0.57229 0.02709 0.0
C867 C 0.3449 0.57854 0.08007 0.0
C868 C 0.31315 0.58506 0.02512 0.0
H869 H 0.2853 0.60712 0.02964 0.0
C870 C 0.30275 0.57194 1.00305 0.0
C871 C 0.30694 0.59819 0.03439 0.0
C872 C 0.31802 0.61352 0.05668 0.0
C873 C 0.28615 0.5712 0.99068 0.0
C874 C 0.27972 0.58399 1.00041 0.0
C875 C 0.29018 0.59727 0.02222 0.0
C876 C 0.26184 0.58335 0.98862 0.0
C877 C 0.27523 0.55632 0.96778 0.0
C878 C 0.26127 0.58865 0.96036 0.0
C879 C 0.24394 0.58651 0.94874 0.0
C880 C 0.22687 0.57909 0.96518 0.0
C881 C 0.22757 0.57425 0.99361 0.0
C882 C 0.24494 0.57653 1.00529 0.0
H883 H 0.27986 0.54518 0.96628 0.0
H884 H 0.25923 0.54875 0.97169 0.0
H885 H 0.27807 0.56388 0.94707 0.0
H886 H 0.27413 0.59404 0.94711 0.0
H887 H 0.24365 0.58997 0.92662 0.0
H888 H 0.77238 0.34298 0.43547 0.0
H889 H 0.74245 0.31691 0.41341 0.0
H890 H 0.76383 0.34287 0.33141 0.0
H891 H 0.79405 0.36854 0.35352 0.0
H892 H 0.71311 0.31488 0.38191 0.0
H893 H 0.75401 0.28855 0.31752 0.0
H894 H 0.7655 0.30653 0.34515 0.0
H895 H 0.76127 0.31362 0.31084 0.0
C896 C 0.77051 0.34318 0.41278 0.0
C897 C 0.7855 0.35763 0.39611 0.0
C898 C 0.75343 0.32828 0.40015 0.0
C899 C 0.75098 0.32754 0.37058 0.0
C900 C 0.76553 0.3427 0.35413 0.0
H901 H 0.6607 0.24067 0.25815 0.0
H902 H 0.68707 0.27114 0.27883 0.0
C903 C 0.7827 0.35751 0.36676 0.0
C904 C 0.73353 0.31059 0.35709 0.0
H905 H 0.71999 0.27353 0.30894 0.0
C906 C 0.71465 0.30586 0.36596 0.0
C907 C 0.7354 0.29862 0.33635 0.0
C908 C 0.75512 0.30192 0.32708 0.0
C909 C 0.69775 0.28975 0.35453 0.0
C910 C 0.69967 0.2779 0.33375 0.0
C911 C 0.71849 0.28269 0.32471 0.0
C912 C 0.68245 0.26009 0.32171 0.0
C913 C 0.67792 0.2856 0.36458 0.0
C914 C 0.67097 0.24374 0.33888 0.0
C915 C 0.65597 0.22636 0.32705 0.0
C916 C 0.65205 0.22505 0.29789 0.0
C917 C 0.66321 0.2415 0.28078 0.0
C918 C 0.67832 0.25883 0.29257 0.0
H919 H 0.67868 0.29841 0.37554 0.0
H920 H 0.66754 0.2814 0.34655 0.0
H921 H 0.67199 0.27319 0.37969 0.0
H922 H 0.67408 0.24418 0.36129 0.0
H923 H 0.64782 0.21371 0.34051 0.0
H924 H 0.42821 0.79053 0.68858 0.0
H925 H 0.42301 0.75984 0.66728 0.0
H926 H 0.43306 0.74161 0.74864 0.0
H927 H 0.43751 0.77189 0.76991 0.0
H928 H 0.44827 0.74744 0.66212 0.0
H929 H 0.38612 0.69195 0.72463 0.0
H930 H 0.39334 0.71753 0.72562 0.0
H931 H 0.40593 0.70838 0.74699 0.0
C932 C 0.42884 0.77971 0.70192 0.0
C933 C 0.4332 0.78349 0.73084 0.0
C934 C 0.42598 0.76222 0.68976 0.0
C935 C 0.42737 0.74812 0.70631 0.0
C936 C 0.43135 0.75184 0.73542 0.0
H937 H 0.44286 0.64858 0.67348 0.0
H938 H 0.43905 0.67508 0.69416 0.0
C939 C 0.43404 0.76923 0.74758 0.0
C940 C 0.42611 0.73031 0.69286 0.0
H941 H 0.40459 0.68049 0.69866 0.0
C942 C 0.4385 0.7328 0.66992 0.0
C943 C 0.41342 0.71108 0.70292 0.0
C944 C 0.39882 0.70704 0.7262 0.0
C945 C 0.43899 0.71683 0.65746 0.0
C946 C 0.42667 0.69772 0.66797 0.0
C947 C 0.41409 0.69513 0.69064 0.0
C948 C 0.42713 0.68039 0.65615 0.0
C949 C 0.45316 0.7206 0.63363 0.0
C950 C 0.42122 0.67417 0.62814 0.0
C951 C 0.4232 0.6589 0.61644 0.0
C952 C 0.43105 0.64951 0.63258 0.0
C953 C 0.43646 0.65537 0.6608 0.0
C954 C 0.43436 0.67054 0.67255 0.0
H955 H 0.46422 0.73637 0.6316 0.0
H956 H 0.46088 0.71224 0.63689 0.0
H957 H 0.44497 0.71565 0.61338 0.0
H958 H 0.41548 0.68143 0.61511 0.0
H959 H 0.4193 0.65492 0.59447 0.0
H960 H 0.67085 0.43718 0.1027 0.0
H961 H 0.69674 0.43305 0.08083 0.0
H962 H 0.66602 0.41952 1.00105 0.0
H963 H 0.64055 0.4245 0.0228 0.0
H964 H 0.69909 0.40437 0.05519 0.0
H965 H 0.71804 0.46346 0.97688 0.0
H966 H 0.7014 0.459 1.00574 0.0
H967 H 0.69312 0.44408 0.97433 0.0
C968 C 0.66965 0.43324 0.08052 0.0
C969 C 0.65394 0.4315 0.06426 0.0
C970 C 0.68442 0.43086 0.068 0.0
C971 C 0.68374 0.42652 0.03899 0.0
C972 C 0.66732 0.42352 0.02319 0.0
H973 H 0.76876 0.41837 0.92808 0.0
H974 H 0.73848 0.41449 0.94895 0.0
C975 C 0.65264 0.42613 0.03567 0.0
C976 C 0.70045 0.42564 0.02538 0.0
H977 H 0.73453 0.44554 0.9725 0.0
C978 C 0.7068 0.41339 0.0371 0.0
C979 C 0.71071 0.43745 1.00179 0.0
C980 C 0.70563 0.45188 0.9891 0.0
C981 C 0.72292 0.41255 0.02589 0.0
C982 C 0.73313 0.42436 1.00237 0.0
C983 C 0.72665 0.4364 0.9904 0.0
C984 C 0.75099 0.42503 0.99045 0.0
C985 C 0.72882 0.39892 0.03919 0.0
C986 C 0.76813 0.43218 1.00676 0.0
C987 C 0.78539 0.43438 0.99484 0.0
C988 C 0.78583 0.42932 0.96645 0.0
C989 C 0.76865 0.4219 0.95021 0.0
C990 C 0.75141 0.41983 0.96207 0.0
H991 H 0.71683 0.38744 0.05213 0.0
H992 H 0.73314 0.39174 0.02276 0.0
H993 H 0.74159 0.40744 0.05328 0.0
H994 H 0.76836 0.43671 0.02847 0.0
H995 H 0.79858 0.44056 1.00757 0.0
H996 H 0.23755 0.66886 0.43594 0.0
H997 H 0.26746 0.69486 0.414 0.0
H998 H 0.25015 0.66418 0.33419 0.0
H999 H 0.21982 0.63858 0.35602 0.0
H1000 H 0.29849 0.69729 0.38814 0.0
H1001 H 0.25798 0.71619 0.3103 0.0
H1002 H 0.24593 0.69953 0.33917 0.0
H1003 H 0.25247 0.69129 0.30766 0.0
C1004 C 0.24024 0.66769 0.41374 0.0
C1005 C 0.22627 0.65195 0.3975 0.0
C1006 C 0.25733 0.68253 0.40119 0.0
C1007 C 0.26093 0.68189 0.37215 0.0
C1008 C 0.2475 0.66545 0.35636 0.0
H1009 H 0.35376 0.76693 0.26096 0.0
H1010 H 0.32734 0.73668 0.2819 0.0
C1011 C 0.23027 0.6507 0.36887 0.0
C1012 C 0.27844 0.69863 0.35852 0.0
H1013 H 0.2924 0.73275 0.30572 0.0
C1014 C 0.29711 0.70501 0.37011 0.0
C1015 C 0.2768 0.7089 0.33501 0.0
C1016 C 0.25721 0.70378 0.32246 0.0
C1017 C 0.31401 0.72115 0.35885 0.0
C1018 C 0.31231 0.73136 0.3354 0.0
C1019 C 0.29374 0.72487 0.32357 0.0
C1020 C 0.32946 0.74922 0.3234 0.0
C1021 C 0.33362 0.72707 0.37199 0.0
C1022 C 0.33952 0.76637 0.3397 0.0
C1023 C 0.35459 0.78361 0.32774 0.0
C1024 C 0.36001 0.78402 0.29933 0.0
C1025 C 0.35016 0.76684 0.28311 0.0
C1026 C 0.33499 0.74962 0.295 0.0
H1027 H 0.33316 0.7151 0.3849 0.0
H1028 H 0.34504 0.73138 0.35546 0.0
H1029 H 0.33794 0.73985 0.38606 0.0
H1030 H 0.33529 0.76661 0.36143 0.0
H1031 H 0.36168 0.7968 0.34046 0.0
H1032 H 0.57475 0.23645 0.76925 0.0
H1033 H 0.57878 0.26647 0.7475 0.0
H1034 H 0.5898 0.24822 0.6668 0.0
H1035 H 0.58497 0.21781 0.68849 0.0
H1036 H 0.60713 0.29713 0.72038 0.0
H1037 H 0.54556 0.25673 0.64555 0.0
H1038 H 0.55061 0.24473 0.67404 0.0
H1039 H 0.56456 0.25075 0.64177 0.0
C1040 C 0.57816 0.23898 0.7469 0.0
C1041 C 0.57926 0.22474 0.7304 0.0
C1042 C 0.58047 0.25613 0.73445 0.0
C1043 C 0.58407 0.2595 0.70525 0.0
C1044 C 0.5864 0.24577 0.68914 0.0
H1045 H 0.5913 0.35224 0.59444 0.0
H1046 H 0.59515 0.32577 0.61515 0.0
C1047 C 0.58388 0.2285 0.70157 0.0
C1048 C 0.58483 0.27706 0.69177 0.0
H1049 H 0.56386 0.29109 0.64021 0.0
C1050 C 0.59766 0.29576 0.70285 0.0
C1051 C 0.57241 0.27543 0.66892 0.0
C1052 C 0.55737 0.25583 0.65703 0.0
C1053 C 0.59848 0.31272 0.69168 0.0
C1054 C 0.5861 0.31104 0.66887 0.0
C1055 C 0.57346 0.29242 0.65756 0.0
C1056 C 0.58547 0.32827 0.657 0.0
C1057 C 0.61273 0.33236 0.70422 0.0
C1058 C 0.57883 0.33858 0.67358 0.0
C1059 C 0.57662 0.35365 0.66173 0.0
C1060 C 0.58117 0.35885 0.63317 0.0
C1061 C 0.58813 0.3488 0.61669 0.0
C1062 C 0.5902 0.33361 0.62846 0.0
H1063 H 0.62433 0.33177 0.71676 0.0
H1064 H 0.61973 0.34355 0.68737 0.0
H1065 H 0.60474 0.33711 0.71851 0.0
H1066 H 0.5747 0.33451 0.69545 0.0
H1067 H 0.57081 0.3609 0.67466 0.0
H1068 H 0.45531 0.53246 0.13466 0.0
H1069 H 0.47717 0.51871 0.13287 0.0
H1070 H 0.48313 0.52806 0.04262 0.0
H1071 H 0.46119 0.5418 0.0445 0.0
H1072 H 0.47057 0.48533 0.10064 0.0
H1073 H 0.54031 0.5515 0.07057 0.0
H1074 H 0.51989 0.55285 0.08518 0.0
H1075 H 0.51953 0.54612 0.04877 0.0
C1076 C 0.46157 0.53182 0.11456 0.0
C1077 C 0.45675 0.53827 0.08973 0.0
C1078 C 0.47396 0.5239 0.11351 0.0
C1079 C 0.48196 0.52247 0.08765 0.0
C1080 C 0.47741 0.52928 0.06288 0.0
H1081 H 0.56034 0.47747 0.04498 0.0
H1082 H 0.53817 0.49089 0.04299 0.0
C1083 C 0.46489 0.5371 0.06392 0.0
C1084 C 0.49426 0.51302 0.08658 0.0
H1085 H 0.54031 0.52159 0.07201 0.0
C1086 C 0.48583 0.49327 0.09441 0.0
C1087 C 0.51413 0.5233 0.07827 0.0
C1088 C 0.52413 0.54466 0.07041 0.0
C1089 C 0.49665 0.48351 0.09397 0.0
C1090 C 0.51665 0.49387 0.08613 0.0
C1091 C 0.52501 0.51359 0.07801 0.0
C1092 C 0.52927 0.48472 0.08687 0.0
C1093 C 0.4864 0.46206 0.10138 0.0
C1094 C 0.53175 0.47678 0.11214 0.0
C1095 C 0.54425 0.46898 0.11316 0.0
C1096 C 0.55458 0.46898 0.08897 0.0
C1097 C 0.55219 0.47694 0.06372 0.0
C1098 C 0.53964 0.48471 0.06266 0.0
H1099 H 0.47034 0.45503 0.09821 0.0
H1100 H 0.49196 0.45413 0.08844 0.0
H1101 H 0.48904 0.46043 0.12402 0.0
H1102 H 0.52442 0.47709 0.13133 0.0
H1103 H 0.54631 0.46346 0.13309 0.0
H1104 H 0.92708 0.45421 0.4691 0.0
H1105 H 0.96273 0.47587 0.46694 0.0
H1106 H 0.95915 0.4798 0.37629 0.0
H1107 H 0.92344 0.45804 0.37853 0.0
H1108 H 0.98921 0.46813 0.4352 0.0
H1109 H 0.99331 0.53764 0.40227 0.0
H1110 H 0.97158 0.51767 0.41776 0.0
H1111 H 0.97754 0.51642 0.38144 0.0
C1112 C 0.93395 0.46 0.44882 0.0
C1113 C 0.92262 0.45467 0.42399 0.0
C1114 C 0.95427 0.47227 0.44756 0.0
C1115 C 0.96365 0.47961 0.42148 0.0
C1116 C 0.95225 0.47457 0.39669 0.0
H1117 H 0.08705 0.55716 0.37805 0.0
H1118 H 0.05144 0.53496 0.37615 0.0
C1119 C 0.93189 0.46217 0.39794 0.0
C1120 C 0.98541 0.49174 0.42023 0.0
H1121 H 0.0231 0.53746 0.40451 0.0
C1122 C 0.99663 0.4833 0.42852 0.0
C1123 C 0.99511 0.51149 0.4113 0.0
C1124 C 0.98385 0.52148 0.40286 0.0
C1125 C 0.01721 0.49397 0.42795 0.0
C1126 C 0.02697 0.51387 0.41954 0.0
C1127 C 0.01572 0.52224 0.41096 0.0
C1128 C 0.04876 0.52638 0.42019 0.0
C1129 C 0.02828 0.48367 0.43584 0.0
C1130 C 0.05921 0.52902 0.44549 0.0
C1131 C 0.07952 0.54151 0.44645 0.0
C1132 C 0.08983 0.55169 0.42216 0.0
C1133 C 0.07946 0.54912 0.39687 0.0
C1134 C 0.05913 0.53656 0.39587 0.0
H1135 H 0.01915 0.46759 0.43293 0.0
H1136 H 0.04178 0.48904 0.423 0.0
H1137 H 0.03252 0.48648 0.4585 0.0
H1138 H 0.05159 0.52186 0.46477 0.0
H1139 H 0.08714 0.54371 0.4664 0.0
H1140 H 0.54243 0.08652 0.71079 0.0
H1141 H 0.52849 0.05076 0.70891 0.0
H1142 H 0.52365 0.04811 0.79991 0.0
H1143 H 0.53766 0.08378 0.80174 0.0
H1144 H 0.54104 0.02546 0.73832 0.0
H1145 H 0.46694 0.0104 0.76939 0.0
H1146 H 0.48541 0.03383 0.75584 0.0
H1147 H 0.48668 0.02719 0.79179 0.0
C1148 C 0.53865 0.07826 0.73033 0.0
C1149 C 0.54116 0.08778 0.7564 0.0
C1150 C 0.53065 0.05788 0.72927 0.0
C1151 C 0.52478 0.04671 0.75425 0.0
C1152 C 0.52784 0.05637 0.78036 0.0
H1153 H 0.46617 0.92353 0.79879 0.0
H1154 H 0.48042 0.95919 0.79698 0.0
C1155 C 0.53596 0.07671 0.78143 0.0
C1156 C 0.51505 0.02495 0.7531 0.0
H1157 H 0.47177 0.98319 0.76681 0.0
C1158 C 0.52586 0.01619 0.74436 0.0
C1159 C 0.49526 0.01287 0.76109 0.0
C1160 C 0.48278 0.02147 0.76986 0.0
C1161 C 0.51759 0.9957 0.74412 0.0
C1162 C 0.49776 0.98356 0.75211 0.0
C1163 C 0.48693 0.99239 0.76062 0.0
C1164 C 0.48814 0.96174 0.75259 0.0
C1165 C 0.53042 0.98729 0.73628 0.0
C1166 C 0.4872 0.95112 0.72812 0.0
C1167 C 0.47903 0.93074 0.72917 0.0
C1168 C 0.47131 0.92054 0.75458 0.0
C1169 C 0.47171 0.93104 0.77884 0.0
C1170 C 0.47994 0.95141 0.77782 0.0
H1171 H 0.54619 0.99831 0.73841 0.0
H1172 H 0.52718 0.97449 0.74972 0.0
H1173 H 0.52765 0.9824 0.71388 0.0
H1174 H 0.493 0.95861 0.70824 0.0
H1175 H 0.47906 0.92296 0.7103 0.0
H1176 H 0.47906 0.55592 0.55848 0.0
H1177 H 0.49268 0.53396 0.56036 0.0
H1178 H 0.48106 0.52619 0.65002 0.0
H1179 H 0.46742 0.54821 0.64804 0.0
H1180 H 0.5251 0.53965 0.5936 0.0
H1181 H 0.45818 0.46964 0.6203 0.0
H1182 H 0.45724 0.49043 0.6063 0.0
H1183 H 0.46326 0.48999 0.64286 0.0
C1184 C 0.47922 0.54928 0.57847 0.0
C1185 C 0.47219 0.55364 0.60311 0.0
C1186 C 0.48705 0.53682 0.57957 0.0
C1187 C 0.48779 0.52827 0.60528 0.0
C1188 C 0.48039 0.53234 0.62986 0.0
H1189 H 0.53211 0.44935 0.64825 0.0
H1190 H 0.51843 0.47131 0.65004 0.0
C1191 C 0.47265 0.54493 0.62877 0.0
C1192 C 0.49712 0.51586 0.60645 0.0
H1193 H 0.48806 0.46951 0.61998 0.0
C1194 C 0.51699 0.5243 0.59933 0.0
C1195 C 0.4866 0.49586 0.6141 0.0
C1196 C 0.4651 0.48582 0.62112 0.0
C1197 C 0.52664 0.51339 0.59985 0.0
C1198 C 0.51606 0.49328 0.60705 0.0
C1199 C 0.49622 0.48489 0.61446 0.0
C1200 C 0.52515 0.48062 0.60638 0.0
C1201 C 0.54821 0.52364 0.59319 0.0
C1202 C 0.53342 0.4784 0.58128 0.0
C1203 C 0.54135 0.46601 0.58036 0.0
C1204 C 0.54116 0.45554 0.60451 0.0
C1205 C 0.53279 0.4576 0.62955 0.0
C1206 C 0.52488 0.47004 0.6305 0.0
H1207 H 0.55525 0.53968 0.59669 0.0
H1208 H 0.55587 0.51788 0.60634 0.0
H1209 H 0.5502 0.52123 0.57059 0.0
H1210 H 0.53334 0.4859 0.56215 0.0
H1211 H 0.5472 0.46421 0.56058 0.0
H1212 H 0.0854 0.53226 0.89353 0.0
H1213 H 0.04987 0.51863 0.89487 0.0
H1214 H 0.05295 0.52886 0.98496 0.0
H1215 H 0.08857 0.54206 0.98359 0.0
H1216 H 0.0236 0.49256 0.97175 0.0
H1217 H 0.0185 0.54573 0.9012 0.0
H1218 H 0.03093 0.53454 0.88477 0.0
H1219 H 0.04149 0.5499 0.91541 0.0
C1220 C 0.07845 0.53181 0.9135 0.0
C1221 C 0.08963 0.53831 0.93843 0.0
C1222 C 0.05817 0.52411 0.91428 0.0
C1223 C 0.04864 0.52299 0.93994 0.0
C1224 C 0.05991 0.52966 0.96487 0.0
H1225 H 0.92492 0.47694 0.98322 0.0
H1226 H 0.96064 0.49122 0.98521 0.0
C1227 C 0.08023 0.53728 0.9641 0.0
C1228 C 0.02689 0.51405 0.94088 0.0
H1229 H 0.98857 0.51634 0.91107 0.0
C1230 C 0.01597 0.4979 0.95867 0.0
C1231 C 0.01681 0.52093 0.92383 0.0
C1232 C 0.02754 0.53885 0.90544 0.0
C1233 C 0.99537 0.48817 0.95928 0.0
C1234 C 0.98533 0.49485 0.94185 0.0
C1235 C 0.99622 0.51111 0.9243 0.0
C1236 C 0.96353 0.48517 0.94132 0.0
C1237 C 0.9845 0.47046 0.978 0.0
C1238 C 0.95322 0.47714 0.916 0.0
C1239 C 0.93286 0.46895 0.91491 0.0
C1240 C 0.92239 0.46865 0.93913 0.0
C1241 C 0.93264 0.47662 0.96447 0.0
C1242 C 0.95302 0.48476 0.96559 0.0
H1243 H 0.99392 0.46446 0.9848 0.0
H1244 H 0.97941 0.47465 0.99726 0.0
H1245 H 0.97145 0.45877 0.96693 0.0
H1246 H 0.96098 0.47742 0.89694 0.0
H1247 H 0.92533 0.46332 0.89496 0.0
H1248 H 0.45159 0.92311 0.31606 0.0
H1249 H 0.47292 0.95888 0.31775 0.0
H1250 H 0.48881 0.95862 0.23049 0.0
H1251 H 0.46734 0.92297 0.22876 0.0
H1252 H 0.51361 0.98348 0.30671 0.0
H1253 H 0.46817 0.99715 0.23077 0.0
H1254 H 0.45958 0.97377 0.2477 0.0
H1255 H 0.4759 0.98068 0.21797 0.0
C1256 C 0.45992 0.93073 0.29745 0.0
C1257 C 0.45811 0.92032 0.27243 0.0
C1258 C 0.47202 0.95113 0.29836 0.0
C1259 C 0.48229 0.96152 0.27413 0.0
C1260 C 0.48083 0.95102 0.24933 0.0
H1261 H 0.55859 0.08282 0.2275 0.0
H1262 H 0.53681 0.04724 0.22951 0.0
C1263 C 0.46877 0.93064 0.24844 0.0
C1264 C 0.49422 0.98333 0.27458 0.0
H1265 H 0.49874 0.0245 0.24349 0.0
C1266 C 0.5103 0.99247 0.29303 0.0
C1267 C 0.4899 0.99509 0.25676 0.0
C1268 C 0.47235 0.98623 0.23734 0.0
C1269 C 0.52252 0.01296 0.29349 0.0
C1270 C 0.51829 0.02474 0.27548 0.0
C1271 C 0.50204 0.01556 0.2573 0.0
C1272 C 0.5309 0.04652 0.27438 0.0
C1273 C 0.54024 0.02173 0.31256 0.0
C1274 C 0.5345 0.05815 0.29873 0.0
C1275 C 0.54703 0.07849 0.29756 0.0
C1276 C 0.55599 0.08756 0.27199 0.0
C1277 C 0.55183 0.07608 0.24745 0.0
C1278 C 0.53942 0.05578 0.24863 0.0
H1279 H 0.54429 0.0107 0.31908 0.0
H1280 H 0.55302 0.03403 0.30196 0.0
H1281 H 0.53697 0.02744 0.33201 0.0
H1282 H 0.52773 0.05149 0.31869 0.0
H1283 H 0.54999 0.08711 0.31669 0.0
H1284 H 0.45865 0.62274 0.7384 0.0
H1285 H 0.45325 0.61706 0.78959 0.0
H1286 H 0.42837 0.5551 0.77606 0.0
H1287 H 0.43377 0.56064 0.72507 0.0
H1288 H 0.41404 0.59047 0.81492 0.0
H1289 H 0.47002 0.56981 0.84095 0.0
H1290 H 0.47165 0.58389 0.80988 0.0
H1291 H 0.45484 0.55803 0.8106 0.0
C1292 C 0.45235 0.60796 0.74643 0.0
C1293 C 0.44661 0.59213 0.72774 0.0
C1294 C 0.44917 0.60473 0.7756 0.0
C1295 C 0.44052 0.58567 0.78658 0.0
C1296 C 0.43524 0.56993 0.76805 0.0
H1297 H 0.41001 0.53624 0.95653 0.0
H1298 H 0.41509 0.54101 0.90533 0.0
C1299 C 0.43823 0.57311 0.73893 0.0
C1300 C 0.43604 0.58205 0.81721 0.0
H1301 H 0.4477 0.56593 0.87713 0.0
C1302 C 0.42145 0.5852 0.82861 0.0
C1303 C 0.44554 0.57491 0.83483 0.0
C1304 C 0.4615 0.57155 0.82362 0.0
C1305 C 0.41591 0.58117 0.85718 0.0
C1306 C 0.42565 0.57434 0.87504 0.0
C1307 C 0.44021 0.57113 0.86351 0.0
C1308 C 0.42143 0.57103 0.90588 0.0
C1309 C 0.39933 0.58381 0.86768 0.0
C1310 C 0.42324 0.58627 0.92328 0.0
C1311 C 0.42003 0.58348 0.9524 0.0
C1312 C 0.41532 0.5655 0.96505 0.0
C1313 C 0.41338 0.55019 0.94755 0.0
C1314 C 0.41645 0.55295 0.91829 0.0
H1315 H 0.38947 0.58269 0.8501 0.0
H1316 H 0.39054 0.57277 0.884 0.0
H1317 H 0.40543 0.59859 0.87718 0.0
H1318 H 0.42748 0.60048 0.91441 0.0
H1319 H 0.42137 0.59554 0.96505 0.0
H1320 H 0.84357 0.38531 0.28855 0.0
H1321 H 0.84493 0.39105 0.23733 0.0
H1322 H 0.87574 0.4533 0.25201 0.0
H1323 H 0.87491 0.44773 0.30294 0.0
H1324 H 0.8292 0.4108 0.20775 0.0
H1325 H 0.90943 0.44692 0.19206 0.0
H1326 H 0.89752 0.43322 0.22359 0.0
H1327 H 0.90229 0.45785 0.21944 0.0
C1328 C 0.85094 0.40021 0.28082 0.0
C1329 C 0.85912 0.41605 0.29984 0.0
C1330 C 0.85158 0.40347 0.25158 0.0
C1331 C 0.8606 0.42261 0.24083 0.0
C1332 C 0.86897 0.43842 0.25976 0.0
H1333 H 0.84339 0.45881 0.07337 0.0
H1334 H 0.8445 0.45401 0.12451 0.0
C1335 C 0.86831 0.43519 0.28891 0.0
C1336 C 0.86065 0.42613 0.20993 0.0
H1337 H 0.89082 0.4487 0.15371 0.0
C1338 C 0.84266 0.41901 0.19589 0.0
C1339 C 0.87823 0.43674 0.19444 0.0
C1340 C 0.89797 0.44398 0.20805 0.0
C1341 C 0.84179 0.42245 0.16687 0.0
C1342 C 0.85938 0.43355 0.15158 0.0
C1343 C 0.87735 0.44042 0.16553 0.0
C1344 C 0.85945 0.43744 0.12079 0.0
C1345 C 0.82204 0.41384 0.15272 0.0
C1346 C 0.86812 0.43037 0.10182 0.0
C1347 C 0.86768 0.43325 0.07272 0.0
C1348 C 0.85862 0.44335 0.06189 0.0
C1349 C 0.85052 0.45102 0.08101 0.0
C1350 C 0.85094 0.44809 0.11021 0.0
H1351 H 0.81036 0.40199 0.1656 0.0
H1352 H 0.81822 0.42547 0.14987 0.0
H1353 H 0.82227 0.40788 0.13151 0.0
H1354 H 0.87493 0.42227 0.10951 0.0
H1355 H 0.87437 0.42745 0.05863 0.0
H1356 H 0.43055 0.87201 0.63619 0.0
H1357 H 0.42527 0.87267 0.58535 0.0
H1358 H 0.45759 0.8429 0.56979 0.0
H1359 H 0.46251 0.84171 0.62091 0.0
H1360 H 0.4517 0.8889 0.54111 0.0
H1361 H 0.40539 0.80838 0.52884 0.0
H1362 H 0.41125 0.82028 0.56298 0.0
H1363 H 0.42893 0.81641 0.54456 0.0
C1364 C 0.43646 0.8655 0.62199 0.0
C1365 C 0.44675 0.85659 0.63263 0.0
C1366 C 0.43352 0.866 0.59291 0.0
C1367 C 0.44072 0.85753 0.57381 0.0
C1368 C 0.45158 0.84919 0.58421 0.0
H1369 H 0.45054 0.87267 0.39183 0.0
H1370 H 0.45619 0.87364 0.4428 0.0
C1371 C 0.45457 0.84871 0.61339 0.0
C1372 C 0.43673 0.85745 0.54306 0.0
H1373 H 0.41391 0.82724 0.4868 0.0
C1374 C 0.44344 0.87542 0.52922 0.0
C1375 C 0.42565 0.83985 0.52771 0.0
C1376 C 0.41721 0.82011 0.54176 0.0
C1377 C 0.43965 0.87628 0.50035 0.0
C1378 C 0.42908 0.85869 0.48481 0.0
C1379 C 0.42209 0.84071 0.49873 0.0
C1380 C 0.42551 0.85863 0.45393 0.0
C1381 C 0.44676 0.896 0.48682 0.0
C1382 C 0.40636 0.84967 0.44318 0.0
C1383 C 0.40306 0.84897 0.41394 0.0
C1384 C 0.41888 0.85703 0.39494 0.0
C1385 C 0.43803 0.86617 0.40587 0.0
C1386 C 0.4413 0.8669 0.43502 0.0
H1387 H 0.44978 0.90747 0.50287 0.0
H1388 H 0.46057 0.90034 0.47527 0.0
H1389 H 0.43588 0.8955 0.47143 0.0
H1390 H 0.39396 0.8431 0.45742 0.0
H1391 H 0.38815 0.84165 0.40617 0.0
H1392 H 0.57885 0.44796 0.72602 0.0
H1393 H 0.58412 0.45326 0.77713 0.0
H1394 H 0.55859 0.39117 0.78986 0.0
H1395 H 0.5533 0.38574 0.73859 0.0
H1396 H 0.55464 0.43463 0.82429 0.0
H1397 H 0.61584 0.41876 0.82568 0.0
H1398 H 0.60814 0.42554 0.79369 0.0
H1399 H 0.59364 0.40142 0.80799 0.0
C1400 C 0.57428 0.43542 0.73972 0.0
C1401 C 0.56577 0.41643 0.7283 0.0
C1402 C 0.57724 0.43847 0.76888 0.0
C1403 C 0.57195 0.42264 0.78717 0.0
C1404 C 0.56293 0.40359 0.77601 0.0
H1405 H 0.59144 0.41356 0.96527 0.0
H1406 H 0.58471 0.40862 0.91469 0.0
C1407 C 0.55978 0.4005 0.7468 0.0
C1408 C 0.57636 0.42619 0.81783 0.0
H1409 H 0.6064 0.42573 0.86945 0.0
C1410 C 0.56595 0.4327 0.83425 0.0
C1411 C 0.59111 0.42365 0.83063 0.0
C1412 C 0.60298 0.41707 0.81369 0.0
C1413 C 0.56964 0.43639 0.86339 0.0
C1414 C 0.58458 0.43407 0.87623 0.0
C1415 C 0.59501 0.42759 0.85965 0.0
C1416 C 0.58917 0.43758 0.90699 0.0
C1417 C 0.55707 0.44215 0.88023 0.0
C1418 C 0.5944 0.45569 0.91957 0.0
C1419 C 0.59793 0.45848 0.94876 0.0
C1420 C 0.59654 0.44327 0.96592 0.0
C1421 C 0.59214 0.42545 0.95295 0.0
C1422 C 0.58845 0.42263 0.9239 0.0
H1423 H 0.54305 0.43789 0.86924 0.0
H1424 H 0.55375 0.4353 0.90152 0.0
H1425 H 0.56498 0.45827 0.88297 0.0
H1426 H 0.59562 0.46765 0.90685 0.0
H1427 H 0.60126 0.47237 0.95794 0.0
H1428 H 0.13375 0.53675 0.07021 0.0
H1429 H 0.13261 0.54154 0.12138 0.0
H1430 H 0.18122 0.60028 0.11396 0.0
H1431 H 0.18293 0.59552 0.06317 0.0
H1432 H 0.16841 0.55743 0.16373 0.0
H1433 H 0.13217 0.60208 0.15232 0.0
H1434 H 0.12995 0.58455 0.12581 0.0
H1435 H 0.15235 0.6074 0.12916 0.0
C1436 C 0.1444 0.55058 0.07951 0.0
C1437 C 0.1583 0.56581 0.06245 0.0
C1438 C 0.14364 0.55332 0.1087 0.0
C1439 C 0.15666 0.57135 0.12126 0.0
C1440 C 0.17087 0.58636 0.10453 0.0
H1441 H 0.1708 0.62267 0.28877 0.0
H1442 H 0.17085 0.61673 0.23773 0.0
C1443 C 0.17174 0.58361 0.07547 0.0
C1444 C 0.15542 0.57467 0.15185 0.0
H1445 H 0.14179 0.5988 0.19835 0.0
C1446 C 0.16249 0.56636 0.1714 0.0
C1447 C 0.14792 0.58654 0.1616 0.0
C1448 C 0.14004 0.59564 0.14126 0.0
C1449 C 0.16252 0.56984 0.20058 0.0
C1450 C 0.15474 0.58151 0.21047 0.0
C1451 C 0.14769 0.58983 0.1908 0.0
C1452 C 0.15378 0.58519 0.24114 0.0
C1453 C 0.17144 0.56147 0.22043 0.0
C1454 C 0.14364 0.5695 0.25988 0.0
C1455 C 0.14368 0.57286 0.28892 0.0
C1456 C 0.15363 0.59201 0.29984 0.0
C1457 C 0.16298 0.60778 0.28094 0.0
C1458 C 0.16307 0.60439 0.25183 0.0
H1459 H 0.18171 0.55801 0.2092 0.0
H1460 H 0.17943 0.57176 0.23801 0.0
H1461 H 0.15964 0.54767 0.22966 0.0
H1462 H 0.13585 0.55461 0.25207 0.0
H1463 H 0.13605 0.56044 0.30293 0.0
H1464 H 0.57869 0.13401 0.63526 0.0
H1465 H 0.58422 0.13414 0.58423 0.0
H1466 H 0.5576 0.16966 0.57098 0.0
H1467 H 0.55204 0.16964 0.62218 0.0
H1468 H 0.55494 0.12272 0.53676 0.0
H1469 H 0.6149 0.20042 0.53587 0.0
H1470 H 0.6073 0.18594 0.56783 0.0
H1471 H 0.59245 0.19504 0.55317 0.0
C1472 C 0.57393 0.14178 0.62146 0.0
C1473 C 0.56504 0.15193 0.63271 0.0
C1474 C 0.57705 0.14179 0.59234 0.0
C1475 C 0.57152 0.15209 0.57395 0.0
C1476 C 0.56212 0.16176 0.58493 0.0
H1477 H 0.59099 0.18061 0.39597 0.0
H1478 H 0.58417 0.17877 0.4465 0.0
C1479 C 0.55882 0.16162 0.6141 0.0
C1480 C 0.57609 0.15307 0.54337 0.0
H1481 H 0.60594 0.18397 0.49204 0.0
C1482 C 0.56608 0.13608 0.52689 0.0
C1483 C 0.59064 0.17053 0.5307 0.0
C1484 C 0.6021 0.18905 0.54771 0.0
C1485 C 0.56995 0.13617 0.49783 0.0
C1486 C 0.58469 0.15362 0.48513 0.0
C1487 C 0.59472 0.17059 0.50175 0.0
C1488 C 0.58943 0.15481 0.45444 0.0
C1489 C 0.5578 0.11774 0.48091 0.0
C1490 C 0.59515 0.14227 0.44204 0.0
C1491 C 0.59875 0.14304 0.41288 0.0
C1492 C 0.59691 0.15655 0.3956 0.0
C1493 C 0.59205 0.16966 0.40841 0.0
C1494 C 0.58829 0.16876 0.43742 0.0
H1495 H 0.54382 0.1077 0.49174 0.0
H1496 H 0.55441 0.12113 0.45955 0.0
H1497 H 0.56608 0.1099 0.47831 0.0
H1498 H 0.59669 0.13175 0.45486 0.0
H1499 H 0.60245 0.13272 0.40381 0.0
loop_
_geom_bond_atom_site_label_1
_geom_bond_atom_site_label_2
_geom_bond_distance
_geom_bond_site_symmetry_2
_ccdc_geom_bond_type
C0 C1 1.443 . S
C0 N4 1.376 . S
C0 C38 1.389 . S
C1 C0 1.443 . S
C1 C2 1.340 . S
C1 H41 0.951 . S
C2 C1 1.340 . S
C2 C3 1.439 . S
C2 H42 0.950 . S
C3 C2 1.439 . S
C3 N4 1.374 . S
C3 C37 1.395 . S
N4 C0 1.376 . S
N4 C3 1.374 . S
N4 Co5 2.008 . S
Co5 N4 2.008 . S
Co5 N6 1.995 . S
Co5 N11 2.008 . S
Co5 N16 1.995 . S
Co5 N21 2.282 . S
Co5 N27 2.282 . S
N6 Co5 1.995 . S
N6 C7 1.376 . S
N6 C10 1.383 . S
C7 N6 1.376 . S
C7 C8 1.446 . S
C7 C37 1.391 . S
C8 C7 1.446 . S
C8 C9 1.339 . S
C8 H43 0.949 . S
C9 C8 1.339 . S
C9 C10 1.439 . S
C9 H44 0.950 . S
C10 N6 1.383 . S
C10 C9 1.439 . S
C10 C39 1.392 . S
N11 Co5 2.008 . S
N11 C12 1.376 . S
N11 C15 1.374 . S
C12 N11 1.376 . S
C12 C13 1.443 . S
C12 C39 1.389 . S
C13 C12 1.443 . S
C13 C14 1.340 . S
C13 H45 0.951 . S
C14 C13 1.340 . S
C14 C15 1.439 . S
C14 H46 0.950 . S
C15 N11 1.374 . S
C15 C14 1.439 . S
C15 C40 1.395 . S
N16 Co5 1.995 . S
N16 C17 1.376 . S
N16 C20 1.383 . S
C17 N16 1.376 . S
C17 C18 1.446 . S
C17 C40 1.391 . S
C18 C17 1.446 . S
C18 C19 1.339 . S
C18 H47 0.949 . S
C19 C18 1.339 . S
C19 C20 1.439 . S
C19 H48 0.950 . S
C20 N16 1.383 . S
C20 C19 1.439 . S
C20 C38 1.392 . S
N21 Co5 2.282 . S
N21 C24 1.332 . S
N21 C26 1.332 . S
C22 C23 1.386 . S
C22 C25 1.388 . S
C23 C22 1.386 . S
C23 C24 1.382 . S
C23 H49 0.950 . S
C24 N21 1.332 . S
C24 C23 1.382 . S
C24 H35 0.952 . S
C25 C22 1.388 . S
C25 C26 1.382 . S
C25 H50 0.950 . S
C26 N21 1.332 . S
C26 C25 1.382 . S
C26 H36 0.948 . S
N27 Co5 2.282 . S
N27 C31 1.332 . S
N27 C32 1.332 . S
C28 C29 1.388 . S
C28 C32 1.382 1_556 S
C28 H51 0.950 . S
C29 C28 1.388 . S
C29 C30 1.386 . S
C30 C29 1.386 . S
C30 C31 1.382 1_556 S
C30 H52 0.950 . S
C31 N27 1.332 . S
C31 C30 1.382 1_554 S
C31 H33 0.952 . S
C32 N27 1.332 . S
C32 C28 1.382 1_554 S
C32 H34 0.948 . S
H33 C31 0.952 . S
H34 C32 0.948 . S
H35 C24 0.952 . S
H36 C26 0.948 . S
C37 C3 1.395 . S
C37 C7 1.391 . S
C38 C0 1.389 . S
C38 C20 1.392 . S
C39 C10 1.392 . S
C39 C12 1.389 . S
C40 C15 1.395 . S
C40 C17 1.391 . S
H41 C1 0.951 . S
H42 C2 0.950 . S
H43 C8 0.949 . S
H44 C9 0.950 . S
H45 C13 0.951 . S
H46 C14 0.950 . S
H47 C18 0.949 . S
H48 C19 0.950 . S
H49 C23 0.950 . S
H50 C25 0.950 . S
H51 C28 0.950 . S
H52 C30 0.950 . S
C53 C54 1.443 . S
C53 N57 1.376 . S
C53 C91 1.389 . S
C54 C53 1.443 . S
C54 C55 1.340 . S
C54 H94 0.951 . S
C55 C54 1.340 . S
C55 C56 1.439 . S
C55 H95 0.950 . S
C56 C55 1.439 . S
C56 N57 1.374 . S
C56 C90 1.395 . S
N57 C53 1.376 . S
N57 C56 1.374 . S
N57 Co58 2.008 . S
Co58 N57 2.008 . S
Co58 N59 1.995 . S
Co58 N64 2.008 . S
Co58 N69 1.995 . S
Co58 N74 2.282 . S
Co58 N80 2.282 . S
N59 Co58 1.995 . S
N59 C60 1.376 . S
N59 C63 1.383 . S
C60 N59 1.376 . S
C60 C61 1.446 . S
C60 C90 1.391 . S
C61 C60 1.446 . S
C61 C62 1.339 . S
C61 H96 0.949 . S
C62 C61 1.339 . S
C62 C63 1.439 . S
C62 H97 0.950 . S
C63 N59 1.383 . S
C63 C62 1.439 . S
C63 C92 1.392 . S
N64 Co58 2.008 . S
N64 C65 1.376 . S
N64 C68 1.374 . S
C65 N64 1.376 . S
C65 C66 1.443 . S
C65 C92 1.389 . S
C66 C65 1.443 . S
C66 C67 1.340 . S
C66 H98 0.951 . S
C67 C66 1.340 . S
C67 C68 1.439 . S
C67 H99 0.950 . S
C68 N64 1.374 . S
C68 C67 1.439 . S
C68 C93 1.395 . S
N69 Co58 1.995 . S
N69 C70 1.376 . S
N69 C73 1.383 . S
C70 N69 1.376 . S
C70 C71 1.446 . S
C70 C93 1.391 . S
C71 C70 1.446 . S
C71 C72 1.339 . S
C71 H100 0.949 . S
C72 C71 1.339 . S
C72 C73 1.439 . S
C72 H101 0.950 . S
C73 N69 1.383 . S
C73 C72 1.439 . S
C73 C91 1.392 . S
N74 Co58 2.282 . S
N74 C77 1.332 . S
N74 C79 1.332 . S
C75 C76 1.386 . S
C75 C78 1.388 . S
C76 C75 1.386 . S
C76 C77 1.382 . S
C76 H102 0.950 . S
C77 N74 1.332 . S
C77 C76 1.382 . S
C77 H88 0.952 . S
C78 C75 1.388 . S
C78 C79 1.382 . S
C78 H103 0.950 . S
C79 N74 1.332 . S
C79 C78 1.382 . S
C79 H89 0.948 . S
N80 Co58 2.282 . S
N80 C84 1.332 . S
N80 C85 1.332 . S
C81 C82 1.388 . S
C81 C85 1.382 . S
C81 H104 0.950 . S
C82 C81 1.388 . S
C82 C83 1.386 . S
C83 C82 1.386 . S
C83 C84 1.382 . S
C83 H105 0.950 . S
C84 N80 1.332 . S
C84 C83 1.382 . S
C84 H86 0.952 . S
C85 N80 1.332 . S
C85 C81 1.382 . S
C85 H87 0.948 . S
H86 C84 0.952 . S
H87 C85 0.948 . S
H88 C77 0.952 . S
H89 C79 0.948 . S
C90 C56 1.395 . S
C90 C60 1.391 . S
C91 C53 1.389 . S
C91 C73 1.392 . S
C92 C63 1.392 . S
C92 C65 1.389 . S
C93 C68 1.395 . S
C93 C70 1.391 . S
H94 C54 0.951 . S
H95 C55 0.950 . S
H96 C61 0.949 . S
H97 C62 0.950 . S
H98 C66 0.951 . S
H99 C67 0.950 . S
H100 C71 0.949 . S
H101 C72 0.950 . S
H102 C76 0.950 . S
H103 C78 0.950 . S
H104 C81 0.950 . S
H105 C83 0.950 . S
C106 C107 1.443 . S
C106 N110 1.376 . S
C106 C144 1.389 . S
C107 C106 1.443 . S
C107 C108 1.340 . S
C107 H147 0.951 . S
C108 C107 1.340 . S
C108 C109 1.439 . S
C108 H148 0.950 . S
C109 C108 1.439 . S
C109 N110 1.374 . S
C109 C143 1.395 . S
N110 C106 1.376 . S
N110 C109 1.374 . S
N110 Co111 2.008 . S
Co111 N110 2.008 . S
Co111 N112 1.995 . S
Co111 N117 2.008 . S
Co111 N122 1.995 . S
Co111 N127 2.282 . S
Co111 N133 2.282 . S
N112 Co111 1.995 . S
N112 C113 1.376 . S
N112 C116 1.383 . S
C113 N112 1.376 . S
C113 C114 1.446 . S
C113 C143 1.391 . S
C114 C113 1.446 . S
C114 C115 1.339 . S
C114 H149 0.949 . S
C115 C114 1.339 . S
C115 C116 1.439 . S
C115 H150 0.950 . S
C116 N112 1.383 . S
C116 C115 1.439 . S
C116 C145 1.392 . S
N117 Co111 2.008 . S
N117 C118 1.376 . S
N117 C121 1.374 . S
C118 N117 1.376 . S
C118 C119 1.443 . S
C118 C145 1.389 . S
C119 C118 1.443 . S
C119 C120 1.340 . S
C119 H151 0.951 . S
C120 C119 1.340 . S
C120 C121 1.439 . S
C120 H152 0.950 . S
C121 N117 1.374 . S
C121 C120 1.439 . S
C121 C146 1.395 . S
N122 Co111 1.995 . S
N122 C123 1.376 . S
N122 C126 1.383 . S
C123 N122 1.376 . S
C123 C124 1.446 . S
C123 C146 1.391 . S
C124 C123 1.446 . S
C124 C125 1.339 . S
C124 H153 0.949 . S
C125 C124 1.339 . S
C125 C126 1.439 . S
C125 H154 0.950 . S
C126 N122 1.383 . S
C126 C125 1.439 . S
C126 C144 1.392 . S
N127 Co111 2.282 . S
N127 C130 1.332 . S
N127 C132 1.332 . S
C128 C129 1.386 . S
C128 C131 1.388 . S
C129 C128 1.386 . S
C129 C130 1.382 . S
C129 H155 0.950 . S
C130 N127 1.332 . S
C130 C129 1.382 . S
C130 H141 0.952 . S
C131 C128 1.388 . S
C131 C132 1.382 . S
C131 H156 0.950 . S
C132 N127 1.332 . S
C132 C131 1.382 . S
C132 H142 0.948 . S
N133 Co111 2.282 . S
N133 C137 1.332 . S
N133 C138 1.332 . S
C134 C135 1.388 . S
C134 C138 1.382 . S
C134 H157 0.950 . S
C135 C134 1.388 . S
C135 C136 1.386 . S
C136 C135 1.386 . S
C136 C137 1.382 . S
C136 H158 0.950 . S
C137 N133 1.332 . S
C137 C136 1.382 . S
C137 H139 0.952 . S
C138 N133 1.332 . S
C138 C134 1.382 . S
C138 H140 0.948 . S
H139 C137 0.952 . S
H140 C138 0.948 . S
H141 C130 0.952 . S
H142 C132 0.948 . S
C143 C109 1.395 . S
C143 C113 1.391 . S
C144 C106 1.389 . S
C144 C126 1.392 . S
C145 C116 1.392 . S
C145 C118 1.389 . S
C146 C121 1.395 . S
C146 C123 1.391 . S
H147 C107 0.951 . S
H148 C108 0.950 . S
H149 C114 0.949 . S
H150 C115 0.950 . S
H151 C119 0.951 . S
H152 C120 0.950 . S
H153 C124 0.949 . S
H154 C125 0.950 . S
H155 C129 0.950 . S
H156 C131 0.950 . S
H157 C134 0.950 . S
H158 C136 0.950 . S
C159 C160 1.443 . S
C159 N163 1.376 . S
C159 C197 1.389 . S
C160 C159 1.443 . S
C160 C161 1.340 . S
C160 H200 0.951 . S
C161 C160 1.340 . S
C161 C162 1.439 . S
C161 H201 0.950 . S
C162 C161 1.439 . S
C162 N163 1.374 . S
C162 C196 1.395 . S
N163 C159 1.376 . S
N163 C162 1.374 . S
N163 Co164 2.008 . S
Co164 N163 2.008 . S
Co164 N165 1.995 . S
Co164 N170 2.008 . S
Co164 N175 1.995 . S
Co164 N180 2.282 . S
Co164 N186 2.282 . S
N165 Co164 1.995 . S
N165 C166 1.376 . S
N165 C169 1.383 . S
C166 N165 1.376 . S
C166 C167 1.446 . S
C166 C196 1.391 . S
C167 C166 1.446 . S
C167 C168 1.339 . S
C167 H202 0.949 . S
C168 C167 1.339 . S
C168 C169 1.439 . S
C168 H203 0.950 . S
C169 N165 1.383 . S
C169 C168 1.439 . S
C169 C198 1.392 . S
N170 Co164 2.008 . S
N170 C171 1.376 . S
N170 C174 1.374 . S
C171 N170 1.376 . S
C171 C172 1.443 . S
C171 C198 1.389 . S
C172 C171 1.443 . S
C172 C173 1.340 . S
C172 H204 0.951 . S
C173 C172 1.340 . S
C173 C174 1.439 . S
C173 H205 0.950 . S
C174 N170 1.374 . S
C174 C173 1.439 . S
C174 C199 1.395 . S
N175 Co164 1.995 . S
N175 C176 1.376 . S
N175 C179 1.383 . S
C176 N175 1.376 . S
C176 C177 1.446 . S
C176 C199 1.391 . S
C177 C176 1.446 . S
C177 C178 1.339 . S
C177 H206 0.949 . S
C178 C177 1.339 . S
C178 C179 1.439 . S
C178 H207 0.950 . S
C179 N175 1.383 . S
C179 C178 1.439 . S
C179 C197 1.392 . S
N180 Co164 2.282 . S
N180 C183 1.332 . S
N180 C185 1.332 . S
C181 C182 1.386 . S
C181 C184 1.388 . S
C182 C181 1.386 . S
C182 C183 1.382 . S
C182 H208 0.950 . S
C183 N180 1.332 . S
C183 C182 1.382 . S
C183 H194 0.952 . S
C184 C181 1.388 . S
C184 C185 1.382 . S
C184 H209 0.950 . S
C185 N180 1.332 . S
C185 C184 1.382 . S
C185 H195 0.948 . S
N186 Co164 2.282 . S
N186 C190 1.332 . S
N186 C191 1.332 . S
C187 C188 1.388 . S
C187 C191 1.382 1_556 S
C187 H210 0.950 . S
C188 C187 1.388 . S
C188 C189 1.386 . S
C189 C188 1.386 . S
C189 C190 1.382 1_556 S
C189 H211 0.950 . S
C190 N186 1.332 . S
C190 C189 1.382 1_554 S
C190 H192 0.952 . S
C191 N186 1.332 . S
C191 C187 1.382 1_554 S
C191 H193 0.948 . S
H192 C190 0.952 . S
H193 C191 0.948 . S
H194 C183 0.952 . S
H195 C185 0.948 . S
C196 C162 1.395 . S
C196 C166 1.391 . S
C197 C159 1.389 . S
C197 C179 1.392 . S
C198 C169 1.392 . S
C198 C171 1.389 . S
C199 C174 1.395 . S
C199 C176 1.391 . S
H200 C160 0.951 . S
H201 C161 0.950 . S
H202 C167 0.949 . S
H203 C168 0.950 . S
H204 C172 0.951 . S
H205 C173 0.950 . S
H206 C177 0.949 . S
H207 C178 0.950 . S
H208 C182 0.950 . S
H209 C184 0.950 . S
H210 C187 0.950 . S
H211 C189 0.950 . S
C212 C213 1.443 . S
C212 N216 1.376 . S
C212 C250 1.389 . S
C213 C212 1.443 . S
C213 C214 1.340 . S
C213 H253 0.951 . S
C214 C213 1.340 . S
C214 C215 1.439 . S
C214 H254 0.950 . S
C215 C214 1.439 . S
C215 N216 1.374 . S
C215 C249 1.395 . S
N216 C212 1.376 . S
N216 C215 1.374 . S
N216 Co217 2.008 . S
Co217 N216 2.008 . S
Co217 N218 1.995 . S
Co217 N223 2.008 . S
Co217 N228 1.995 . S
Co217 N233 2.282 . S
Co217 N239 2.282 . S
N218 Co217 1.995 . S
N218 C219 1.376 . S
N218 C222 1.383 . S
C219 N218 1.376 . S
C219 C220 1.446 . S
C219 C249 1.391 . S
C220 C219 1.446 . S
C220 C221 1.339 . S
C220 H255 0.949 . S
C221 C220 1.339 . S
C221 C222 1.439 . S
C221 H256 0.950 . S
C222 N218 1.383 . S
C222 C221 1.439 . S
C222 C251 1.392 . S
N223 Co217 2.008 . S
N223 C224 1.376 . S
N223 C227 1.374 . S
C224 N223 1.376 . S
C224 C225 1.443 . S
C224 C251 1.389 . S
C225 C224 1.443 . S
C225 C226 1.340 . S
C225 H257 0.951 . S
C226 C225 1.340 . S
C226 C227 1.439 . S
C226 H258 0.950 . S
C227 N223 1.374 . S
C227 C226 1.439 . S
C227 C252 1.395 . S
N228 Co217 1.995 . S
N228 C229 1.376 . S
N228 C232 1.383 . S
C229 N228 1.376 . S
C229 C230 1.446 . S
C229 C252 1.391 . S
C230 C229 1.446 . S
C230 C231 1.339 . S
C230 H259 0.949 . S
C231 C230 1.339 . S
C231 C232 1.439 . S
C231 H260 0.950 . S
C232 N228 1.383 . S
C232 C231 1.439 . S
C232 C250 1.392 . S
N233 Co217 2.282 . S
N233 C236 1.332 . S
N233 C238 1.332 . S
C234 C235 1.386 . S
C234 C237 1.388 . S
C235 C234 1.386 . S
C235 C236 1.382 . S
C235 H261 0.950 . S
C236 N233 1.332 . S
C236 C235 1.382 . S
C236 H247 0.952 . S
C237 C234 1.388 . S
C237 C238 1.382 . S
C237 H262 0.950 . S
C238 N233 1.332 . S
C238 C237 1.382 . S
C238 H248 0.948 . S
N239 Co217 2.282 . S
N239 C243 1.332 . S
N239 C244 1.332 . S
C240 C241 1.388 . S
C240 C244 1.382 . S
C240 H263 0.950 . S
C241 C240 1.388 . S
C241 C242 1.386 . S
C242 C241 1.386 . S
C242 C243 1.382 . S
C242 H264 0.950 . S
C243 N239 1.332 . S
C243 C242 1.382 . S
C243 H245 0.952 . S
C244 N239 1.332 . S
C244 C240 1.382 . S
C244 H246 0.948 . S
H245 C243 0.952 . S
H246 C244 0.948 . S
H247 C236 0.952 . S
H248 C238 0.948 . S
C249 C215 1.395 . S
C249 C219 1.391 . S
C250 C212 1.389 . S
C250 C232 1.392 . S
C251 C222 1.392 . S
C251 C224 1.389 . S
C252 C227 1.395 . S
C252 C229 1.391 . S
H253 C213 0.951 . S
H254 C214 0.950 . S
H255 C220 0.949 . S
H256 C221 0.950 . S
H257 C225 0.951 . S
H258 C226 0.950 . S
H259 C230 0.949 . S
H260 C231 0.950 . S
H261 C235 0.950 . S
H262 C237 0.950 . S
H263 C240 0.950 . S
H264 C242 0.950 . S
C265 C266 1.443 . S
C265 N269 1.376 . S
C265 C303 1.389 . S
C266 C265 1.443 . S
C266 C267 1.340 . S
C266 H306 0.951 . S
C267 C266 1.340 . S
C267 C268 1.439 . S
C267 H307 0.950 . S
C268 C267 1.439 . S
C268 N269 1.374 . S
C268 C302 1.395 . S
N269 C265 1.376 . S
N269 C268 1.374 . S
N269 Co270 2.008 . S
Co270 N269 2.008 . S
Co270 N271 1.995 . S
Co270 N276 2.008 . S
Co270 N281 1.995 . S
Co270 N286 2.282 . S
Co270 N292 2.282 . S
N271 Co270 1.995 . S
N271 C272 1.376 . S
N271 C275 1.383 . S
C272 N271 1.376 . S
C272 C273 1.446 . S
C272 C302 1.391 . S
C273 C272 1.446 . S
C273 C274 1.339 . S
C273 H308 0.949 . S
C274 C273 1.339 . S
C274 C275 1.439 . S
C274 H309 0.950 . S
C275 N271 1.383 . S
C275 C274 1.439 . S
C275 C304 1.392 . S
N276 Co270 2.008 . S
N276 C277 1.376 . S
N276 C280 1.374 . S
C277 N276 1.376 . S
C277 C278 1.443 . S
C277 C304 1.389 . S
C278 C277 1.443 . S
C278 C279 1.340 . S
C278 H310 0.951 . S
C279 C278 1.340 . S
C279 C280 1.439 . S
C279 H311 0.950 . S
C280 N276 1.374 . S
C280 C279 1.439 . S
C280 C305 1.395 . S
N281 Co270 1.995 . S
N281 C282 1.376 . S
N281 C285 1.383 . S
C282 N281 1.376 . S
C282 C283 1.446 . S
C282 C305 1.391 . S
C283 C282 1.446 . S
C283 C284 1.339 . S
C283 H312 0.949 . S
C284 C283 1.339 . S
C284 C285 1.439 . S
C284 H313 0.950 . S
C285 N281 1.383 . S
C285 C284 1.439 . S
C285 C303 1.392 . S
N286 Co270 2.282 . S
N286 C289 1.332 . S
N286 C291 1.332 . S
C287 C288 1.386 . S
C287 C290 1.388 . S
C288 C287 1.386 . S
C288 C289 1.382 . S
C288 H314 0.950 . S
C289 N286 1.332 . S
C289 C288 1.382 . S
C289 H300 0.952 . S
C290 C287 1.388 . S
C290 C291 1.382 . S
C290 H315 0.950 . S
C291 N286 1.332 . S
C291 C290 1.382 . S
C291 H301 0.948 . S
N292 Co270 2.282 . S
N292 C296 1.332 . S
N292 C297 1.332 . S
C293 C294 1.388 . S
C293 C297 1.382 . S
C293 H316 0.950 . S
C294 C293 1.388 . S
C294 C295 1.386 . S
C295 C294 1.386 . S
C295 C296 1.382 . S
C295 H317 0.950 . S
C296 N292 1.332 . S
C296 C295 1.382 . S
C296 H298 0.952 . S
C297 N292 1.332 . S
C297 C293 1.382 . S
C297 H299 0.948 . S
H298 C296 0.952 . S
H299 C297 0.948 . S
H300 C289 0.952 . S
H301 C291 0.948 . S
C302 C268 1.395 . S
C302 C272 1.391 . S
C303 C265 1.389 . S
C303 C285 1.392 . S
C304 C275 1.392 . S
C304 C277 1.389 . S
C305 C280 1.395 . S
C305 C282 1.391 . S
H306 C266 0.951 . S
H307 C267 0.950 . S
H308 C273 0.949 . S
H309 C274 0.950 . S
H310 C278 0.951 . S
H311 C279 0.950 . S
H312 C283 0.949 . S
H313 C284 0.950 . S
H314 C288 0.950 . S
H315 C290 0.950 . S
H316 C293 0.950 . S
H317 C295 0.950 . S
C318 C319 1.443 . S
C318 N322 1.376 . S
C318 C356 1.389 . S
C319 C318 1.443 . S
C319 C320 1.340 . S
C319 H359 0.951 . S
C320 C319 1.340 . S
C320 C321 1.439 . S
C320 H360 0.950 . S
C321 C320 1.439 . S
C321 N322 1.374 . S
C321 C355 1.395 . S
N322 C318 1.376 . S
N322 C321 1.374 . S
N322 Co323 2.008 . S
Co323 N322 2.008 . S
Co323 N324 1.995 . S
Co323 N329 2.008 . S
Co323 N334 1.995 . S
Co323 N339 2.282 . S
Co323 N345 2.282 . S
N324 Co323 1.995 . S
N324 C325 1.376 . S
N324 C328 1.383 . S
C325 N324 1.376 . S
C325 C326 1.446 . S
C325 C355 1.391 . S
C326 C325 1.446 . S
C326 C327 1.339 . S
C326 H361 0.949 . S
C327 C326 1.339 . S
C327 C328 1.439 . S
C327 H362 0.950 . S
C328 N324 1.383 . S
C328 C327 1.439 . S
C328 C357 1.392 . S
N329 Co323 2.008 . S
N329 C330 1.376 . S
N329 C333 1.374 . S
C330 N329 1.376 . S
C330 C331 1.443 . S
C330 C357 1.389 . S
C331 C330 1.443 . S
C331 C332 1.340 . S
C331 H363 0.951 . S
C332 C331 1.340 . S
C332 C333 1.439 . S
C332 H364 0.950 . S
C333 N329 1.374 . S
C333 C332 1.439 . S
C333 C358 1.395 . S
N334 Co323 1.995 . S
N334 C335 1.376 . S
N334 C338 1.383 . S
C335 N334 1.376 . S
C335 C336 1.446 . S
C335 C358 1.391 . S
C336 C335 1.446 . S
C336 C337 1.339 . S
C336 H365 0.949 . S
C337 C336 1.339 . S
C337 C338 1.439 . S
C337 H366 0.950 . S
C338 N334 1.383 . S
C338 C337 1.439 . S
C338 C356 1.392 . S
N339 Co323 2.282 . S
N339 C342 1.332 . S
N339 C344 1.332 . S
C340 C341 1.386 . S
C340 C343 1.388 . S
C341 C340 1.386 . S
C341 C342 1.382 . S
C341 H367 0.950 . S
C342 N339 1.332 . S
C342 C341 1.382 . S
C342 H353 0.952 . S
C343 C340 1.388 . S
C343 C344 1.382 . S
C343 H368 0.950 . S
C344 N339 1.332 . S
C344 C343 1.382 . S
C344 H354 0.948 . S
N345 Co323 2.282 . S
N345 C349 1.332 . S
N345 C350 1.332 . S
C346 C347 1.388 . S
C346 C350 1.382 . S
C346 H369 0.950 . S
C347 C346 1.388 . S
C347 C348 1.386 . S
C348 C347 1.386 . S
C348 C349 1.382 . S
C348 H370 0.950 . S
C349 N345 1.332 . S
C349 C348 1.382 . S
C349 H351 0.952 . S
C350 N345 1.332 . S
C350 C346 1.382 . S
C350 H352 0.948 . S
H351 C349 0.952 . S
H352 C350 0.948 . S
H353 C342 0.952 . S
H354 C344 0.948 . S
C355 C321 1.395 . S
C355 C325 1.391 . S
C356 C318 1.389 . S
C356 C338 1.392 . S
C357 C328 1.392 . S
C357 C330 1.389 . S
C358 C333 1.395 . S
C358 C335 1.391 . S
H359 C319 0.951 . S
H360 C320 0.950 . S
H361 C326 0.949 . S
H362 C327 0.950 . S
H363 C331 0.951 . S
H364 C332 0.950 . S
H365 C336 0.949 . S
H366 C337 0.950 . S
H367 C341 0.950 . S
H368 C343 0.950 . S
H369 C346 0.950 . S
H370 C348 0.950 . S
C371 C372 1.443 . S
C371 N375 1.376 . S
C371 C409 1.389 . S
C372 C371 1.443 . S
C372 C373 1.340 . S
C372 H412 0.951 . S
C373 C372 1.340 . S
C373 C374 1.439 . S
C373 H413 0.950 . S
C374 C373 1.439 . S
C374 N375 1.374 . S
C374 C408 1.395 . S
N375 C371 1.376 . S
N375 C374 1.374 . S
N375 Co376 2.008 . S
Co376 N375 2.008 . S
Co376 N377 1.995 . S
Co376 N382 2.008 . S
Co376 N387 1.995 . S
Co376 N392 2.282 . S
Co376 N398 2.282 . S
N377 Co376 1.995 . S
N377 C378 1.376 . S
N377 C381 1.383 . S
C378 N377 1.376 . S
C378 C379 1.446 . S
C378 C408 1.391 . S
C379 C378 1.446 . S
C379 C380 1.339 . S
C379 H414 0.949 . S
C380 C379 1.339 . S
C380 C381 1.439 . S
C380 H415 0.950 . S
C381 N377 1.383 . S
C381 C380 1.439 . S
C381 C410 1.392 . S
N382 Co376 2.008 . S
N382 C383 1.376 . S
N382 C386 1.374 . S
C383 N382 1.376 . S
C383 C384 1.443 . S
C383 C410 1.389 . S
C384 C383 1.443 . S
C384 C385 1.340 . S
C384 H416 0.951 . S
C385 C384 1.340 . S
C385 C386 1.439 . S
C385 H417 0.950 . S
C386 N382 1.374 . S
C386 C385 1.439 . S
C386 C411 1.395 . S
N387 Co376 1.995 . S
N387 C388 1.376 . S
N387 C391 1.383 . S
C388 N387 1.376 . S
C388 C389 1.446 . S
C388 C411 1.391 . S
C389 C388 1.446 . S
C389 C390 1.339 . S
C389 H418 0.949 . S
C390 C389 1.339 . S
C390 C391 1.439 . S
C390 H419 0.950 . S
C391 N387 1.383 . S
C391 C390 1.439 . S
C391 C409 1.392 . S
N392 Co376 2.282 . S
N392 C395 1.332 . S
N392 C397 1.332 . S
C393 C394 1.386 . S
C393 C396 1.388 . S
C394 C393 1.386 . S
C394 C395 1.382 . S
C394 H420 0.950 . S
C395 N392 1.332 . S
C395 C394 1.382 . S
C395 H406 0.952 . S
C396 C393 1.388 . S
C396 C397 1.382 . S
C396 H421 0.950 . S
C397 N392 1.332 . S
C397 C396 1.382 . S
C397 H407 0.948 . S
N398 Co376 2.282 . S
N398 C402 1.332 . S
N398 C403 1.332 . S
C399 C400 1.388 . S
C399 C403 1.382 1_554 S
C399 H422 0.950 . S
C400 C399 1.388 . S
C400 C401 1.386 . S
C401 C400 1.386 . S
C401 C402 1.382 1_554 S
C401 H423 0.950 . S
C402 N398 1.332 . S
C402 C401 1.382 1_556 S
C402 H404 0.952 . S
C403 N398 1.332 . S
C403 C399 1.382 1_556 S
C403 H405 0.948 . S
H404 C402 0.952 . S
H405 C403 0.948 . S
H406 C395 0.952 . S
H407 C397 0.948 . S
C408 C374 1.395 . S
C408 C378 1.391 . S
C409 C371 1.389 . S
C409 C391 1.392 . S
C410 C381 1.392 . S
C410 C383 1.389 . S
C411 C386 1.395 . S
C411 C388 1.391 . S
H412 C372 0.951 . S
H413 C373 0.950 . S
H414 C379 0.949 . S
H415 C380 0.950 . S
H416 C384 0.951 . S
H417 C385 0.950 . S
H418 C389 0.949 . S
H419 C390 0.950 . S
H420 C394 0.950 . S
H421 C396 0.950 . S
H422 C399 0.950 . S
H423 C401 0.950 . S
C424 C425 1.443 . S
C424 N428 1.376 . S
C424 C462 1.389 . S
C425 C424 1.443 . S
C425 C426 1.340 . S
C425 H465 0.951 . S
C426 C425 1.340 . S
C426 C427 1.439 . S
C426 H466 0.950 . S
C427 C426 1.439 . S
C427 N428 1.374 . S
C427 C461 1.395 . S
N428 C424 1.376 . S
N428 C427 1.374 . S
N428 Co429 2.008 . S
Co429 N428 2.008 . S
Co429 N430 1.995 . S
Co429 N435 2.008 . S
Co429 N440 1.995 . S
Co429 N445 2.282 . S
Co429 N451 2.282 . S
N430 Co429 1.995 . S
N430 C431 1.376 . S
N430 C434 1.383 . S
C431 N430 1.376 . S
C431 C432 1.446 . S
C431 C461 1.391 . S
C432 C431 1.446 . S
C432 C433 1.339 . S
C432 H467 0.949 . S
C433 C432 1.339 . S
C433 C434 1.439 . S
C433 H468 0.950 . S
C434 N430 1.383 . S
C434 C433 1.439 . S
C434 C463 1.392 . S
N435 Co429 2.008 . S
N435 C436 1.376 . S
N435 C439 1.374 . S
C436 N435 1.376 . S
C436 C437 1.443 . S
C436 C463 1.389 . S
C437 C436 1.443 . S
C437 C438 1.340 . S
C437 H469 0.951 . S
C438 C437 1.340 . S
C438 C439 1.439 . S
C438 H470 0.950 . S
C439 N435 1.374 . S
C439 C438 1.439 . S
C439 C464 1.395 . S
N440 Co429 1.995 . S
N440 C441 1.376 . S
N440 C444 1.383 . S
C441 N440 1.376 . S
C441 C442 1.446 . S
C441 C464 1.391 . S
C442 C441 1.446 . S
C442 C443 1.339 . S
C442 H471 0.949 . S
C443 C442 1.339 . S
C443 C444 1.439 . S
C443 H472 0.950 . S
C444 N440 1.383 . S
C444 C443 1.439 . S
C444 C462 1.392 . S
N445 Co429 2.282 . S
N445 C448 1.332 . S
N445 C450 1.332 . S
C446 C447 1.386 . S
C446 C449 1.388 . S
C447 C446 1.386 . S
C447 C448 1.382 . S
C447 H473 0.950 . S
C448 N445 1.332 . S
C448 C447 1.382 . S
C448 H459 0.952 . S
C449 C446 1.388 . S
C449 C450 1.382 . S
C449 H474 0.950 . S
C450 N445 1.332 . S
C450 C449 1.382 . S
C450 H460 0.948 . S
N451 Co429 2.282 . S
N451 C455 1.332 . S
N451 C456 1.332 . S
C452 C453 1.388 . S
C452 C456 1.382 . S
C452 H475 0.950 . S
C453 C452 1.388 . S
C453 C454 1.386 . S
C454 C453 1.386 . S
C454 C455 1.382 . S
C454 H476 0.950 . S
C455 N451 1.332 . S
C455 C454 1.382 . S
C455 H457 0.952 . S
C456 N451 1.332 . S
C456 C452 1.382 . S
C456 H458 0.948 . S
H457 C455 0.952 . S
H458 C456 0.948 . S
H459 C448 0.952 . S
H460 C450 0.948 . S
C461 C427 1.395 . S
C461 C431 1.391 . S
C462 C424 1.389 . S
C462 C444 1.392 . S
C463 C434 1.392 . S
C463 C436 1.389 . S
C464 C439 1.395 . S
C464 C441 1.391 . S
H465 C425 0.951 . S
H466 C426 0.950 . S
H467 C432 0.949 . S
H468 C433 0.950 . S
H469 C437 0.951 . S
H470 C438 0.950 . S
H471 C442 0.949 . S
H472 C443 0.950 . S
H473 C447 0.950 . S
H474 C449 0.950 . S
H475 C452 0.950 . S
H476 C454 0.950 . S
C477 C478 1.443 . S
C477 N481 1.376 . S
C477 C515 1.389 . S
C478 C477 1.443 . S
C478 C479 1.340 . S
C478 H518 0.951 . S
C479 C478 1.340 . S
C479 C480 1.439 . S
C479 H519 0.950 . S
C480 C479 1.439 . S
C480 N481 1.374 . S
C480 C514 1.395 . S
N481 C477 1.376 . S
N481 C480 1.374 . S
N481 Co482 2.008 . S
Co482 N481 2.008 . S
Co482 N483 1.995 . S
Co482 N488 2.008 . S
Co482 N493 1.995 . S
Co482 N498 2.282 . S
Co482 N504 2.282 . S
N483 Co482 1.995 . S
N483 C484 1.376 . S
N483 C487 1.383 . S
C484 N483 1.376 . S
C484 C485 1.446 . S
C484 C514 1.391 . S
C485 C484 1.446 . S
C485 C486 1.339 . S
C485 H520 0.949 . S
C486 C485 1.339 . S
C486 C487 1.439 . S
C486 H521 0.950 . S
C487 N483 1.383 . S
C487 C486 1.439 . S
C487 C516 1.392 . S
N488 Co482 2.008 . S
N488 C489 1.376 . S
N488 C492 1.374 . S
C489 N488 1.376 . S
C489 C490 1.443 . S
C489 C516 1.389 . S
C490 C489 1.443 . S
C490 C491 1.340 . S
C490 H522 0.951 . S
C491 C490 1.340 . S
C491 C492 1.439 . S
C491 H523 0.950 . S
C492 N488 1.374 . S
C492 C491 1.439 . S
C492 C517 1.395 . S
N493 Co482 1.995 . S
N493 C494 1.376 . S
N493 C497 1.383 . S
C494 N493 1.376 . S
C494 C495 1.446 . S
C494 C517 1.391 . S
C495 C494 1.446 . S
C495 C496 1.339 . S
C495 H524 0.949 . S
C496 C495 1.339 . S
C496 C497 1.439 . S
C496 H525 0.950 . S
C497 N493 1.383 . S
C497 C496 1.439 . S
C497 C515 1.392 . S
N498 Co482 2.282 . S
N498 C501 1.332 . S
N498 C503 1.332 . S
C499 C500 1.386 . S
C499 C502 1.388 . S
C500 C499 1.386 . S
C500 C501 1.382 . S
C500 H526 0.950 . S
C501 N498 1.332 . S
C501 C500 1.382 . S
C501 H512 0.952 . S
C502 C499 1.388 . S
C502 C503 1.382 . S
C502 H527 0.950 . S
C503 N498 1.332 . S
C503 C502 1.382 . S
C503 H513 0.948 . S
N504 Co482 2.282 . S
N504 C508 1.332 . S
N504 C509 1.332 . S
C505 C506 1.388 . S
C505 C509 1.382 . S
C505 H528 0.950 . S
C506 C505 1.388 . S
C506 C507 1.386 . S
C507 C506 1.386 . S
C507 C508 1.382 . S
C507 H529 0.950 . S
C508 N504 1.332 . S
C508 C507 1.382 . S
C508 H510 0.952 . S
C509 N504 1.332 . S
C509 C505 1.382 . S
C509 H511 0.948 . S
H510 C508 0.952 . S
H511 C509 0.948 . S
H512 C501 0.952 . S
H513 C503 0.948 . S
C514 C480 1.395 . S
C514 C484 1.391 . S
C515 C477 1.389 . S
C515 C497 1.392 . S
C516 C487 1.392 . S
C516 C489 1.389 . S
C517 C492 1.395 . S
C517 C494 1.391 . S
H518 C478 0.951 . S
H519 C479 0.950 . S
H520 C485 0.949 . S
H521 C486 0.950 . S
H522 C490 0.951 . S
H523 C491 0.950 . S
H524 C495 0.949 . S
H525 C496 0.950 . S
H526 C500 0.950 . S
H527 C502 0.950 . S
H528 C505 0.950 . S
H529 C507 0.950 . S
C530 C531 1.443 . S
C530 N534 1.376 . S
C530 C568 1.389 . S
C531 C530 1.443 . S
C531 C532 1.340 . S
C531 H571 0.951 . S
C532 C531 1.340 . S
C532 C533 1.439 . S
C532 H572 0.950 . S
C533 C532 1.439 . S
C533 N534 1.374 . S
C533 C567 1.395 . S
N534 C530 1.376 . S
N534 C533 1.374 . S
N534 Co535 2.008 . S
Co535 N534 2.008 . S
Co535 N536 1.995 . S
Co535 N541 2.008 . S
Co535 N546 1.995 . S
Co535 N551 2.282 . S
Co535 N557 2.282 . S
N536 Co535 1.995 . S
N536 C537 1.376 . S
N536 C540 1.383 . S
C537 N536 1.376 . S
C537 C538 1.446 . S
C537 C567 1.391 . S
C538 C537 1.446 . S
C538 C539 1.339 . S
C538 H573 0.949 . S
C539 C538 1.339 . S
C539 C540 1.439 . S
C539 H574 0.950 . S
C540 N536 1.383 . S
C540 C539 1.439 . S
C540 C569 1.392 . S
N541 Co535 2.008 . S
N541 C542 1.376 . S
N541 C545 1.374 . S
C542 N541 1.376 . S
C542 C543 1.443 . S
C542 C569 1.389 . S
C543 C542 1.443 . S
C543 C544 1.340 . S
C543 H575 0.951 . S
C544 C543 1.340 . S
C544 C545 1.439 . S
C544 H576 0.950 . S
C545 N541 1.374 . S
C545 C544 1.439 . S
C545 C570 1.395 . S
N546 Co535 1.995 . S
N546 C547 1.376 . S
N546 C550 1.383 . S
C547 N546 1.376 . S
C547 C548 1.446 . S
C547 C570 1.391 . S
C548 C547 1.446 . S
C548 C549 1.339 . S
C548 H577 0.949 . S
C549 C548 1.339 . S
C549 C550 1.439 . S
C549 H578 0.950 . S
C550 N546 1.383 . S
C550 C549 1.439 . S
C550 C568 1.392 . S
N551 Co535 2.282 . S
N551 C554 1.332 . S
N551 C556 1.332 . S
C552 C553 1.386 . S
C552 C555 1.388 . S
C553 C552 1.386 . S
C553 C554 1.382 . S
C553 H579 0.950 . S
C554 N551 1.332 . S
C554 C553 1.382 . S
C554 H565 0.952 . S
C555 C552 1.388 . S
C555 C556 1.382 . S
C555 H580 0.950 . S
C556 N551 1.332 . S
C556 C555 1.382 . S
C556 H566 0.948 . S
N557 Co535 2.282 . S
N557 C561 1.332 . S
N557 C562 1.332 . S
C558 C559 1.388 . S
C558 C562 1.382 1_554 S
C558 H581 0.950 . S
C559 C558 1.388 . S
C559 C560 1.386 . S
C560 C559 1.386 . S
C560 C561 1.382 1_554 S
C560 H582 0.950 . S
C561 N557 1.332 . S
C561 C560 1.382 1_556 S
C561 H563 0.952 . S
C562 N557 1.332 . S
C562 C558 1.382 1_556 S
C562 H564 0.948 . S
H563 C561 0.952 . S
H564 C562 0.948 . S
H565 C554 0.952 . S
H566 C556 0.948 . S
C567 C533 1.395 . S
C567 C537 1.391 . S
C568 C530 1.389 . S
C568 C550 1.392 . S
C569 C540 1.392 . S
C569 C542 1.389 . S
C570 C545 1.395 . S
C570 C547 1.391 . S
H571 C531 0.951 . S
H572 C532 0.950 . S
H573 C538 0.949 . S
H574 C539 0.950 . S
H575 C543 0.951 . S
H576 C544 0.950 . S
H577 C548 0.949 . S
H578 C549 0.950 . S
H579 C553 0.950 . S
H580 C555 0.950 . S
H581 C558 0.950 . S
H582 C560 0.950 . S
C583 C584 1.443 . S
C583 N587 1.376 . S
C583 C621 1.389 . S
C584 C583 1.443 . S
C584 C585 1.340 . S
C584 H624 0.951 . S
C585 C584 1.340 . S
C585 C586 1.439 . S
C585 H625 0.950 . S
C586 C585 1.439 . S
C586 N587 1.374 . S
C586 C620 1.395 . S
N587 C583 1.376 . S
N587 C586 1.374 . S
N587 Co588 2.008 . S
Co588 N587 2.008 . S
Co588 N589 1.995 . S
Co588 N594 2.008 . S
Co588 N599 1.995 . S
Co588 N604 2.282 . S
Co588 N610 2.282 . S
N589 Co588 1.995 . S
N589 C590 1.376 . S
N589 C593 1.383 . S
C590 N589 1.376 . S
C590 C591 1.446 . S
C590 C620 1.391 . S
C591 C590 1.446 . S
C591 C592 1.339 . S
C591 H626 0.949 . S
C592 C591 1.339 . S
C592 C593 1.439 . S
C592 H627 0.950 . S
C593 N589 1.383 . S
C593 C592 1.439 . S
C593 C622 1.392 . S
N594 Co588 2.008 . S
N594 C595 1.376 . S
N594 C598 1.374 . S
C595 N594 1.376 . S
C595 C596 1.443 . S
C595 C622 1.389 . S
C596 C595 1.443 . S
C596 C597 1.340 . S
C596 H628 0.951 . S
C597 C596 1.340 . S
C597 C598 1.439 . S
C597 H629 0.950 . S
C598 N594 1.374 . S
C598 C597 1.439 . S
C598 C623 1.395 . S
N599 Co588 1.995 . S
N599 C600 1.376 . S
N599 C603 1.383 . S
C600 N599 1.376 . S
C600 C601 1.446 . S
C600 C623 1.391 . S
C601 C600 1.446 . S
C601 C602 1.339 . S
C601 H630 0.949 . S
C602 C601 1.339 . S
C602 C603 1.439 . S
C602 H631 0.950 . S
C603 N599 1.383 . S
C603 C602 1.439 . S
C603 C621 1.392 . S
N604 Co588 2.282 . S
N604 C607 1.332 . S
N604 C609 1.332 . S
C605 C606 1.386 . S
C605 C608 1.388 . S
C606 C605 1.386 . S
C606 C607 1.382 . S
C606 H632 0.950 . S
C607 N604 1.332 . S
C607 C606 1.382 . S
C607 H618 0.952 . S
C608 C605 1.388 . S
C608 C609 1.382 . S
C608 H633 0.950 . S
C609 N604 1.332 . S
C609 C608 1.382 . S
C609 H619 0.948 . S
N610 Co588 2.282 . S
N610 C614 1.332 . S
N610 C615 1.332 . S
C611 C612 1.388 . S
C611 C615 1.382 . S
C611 H634 0.950 . S
C612 C611 1.388 . S
C612 C613 1.386 . S
C613 C612 1.386 . S
C613 C614 1.382 . S
C613 H635 0.950 . S
C614 N610 1.332 . S
C614 C613 1.382 . S
C614 H616 0.952 . S
C615 N610 1.332 . S
C615 C611 1.382 . S
C615 H617 0.948 . S
H616 C614 0.952 . S
H617 C615 0.948 . S
H618 C607 0.952 . S
H619 C609 0.948 . S
C620 C586 1.395 . S
C620 C590 1.391 . S
C621 C583 1.389 . S
C621 C603 1.392 . S
C622 C593 1.392 . S
C622 C595 1.389 . S
C623 C598 1.395 . S
C623 C600 1.391 . S
H624 C584 0.951 . S
H625 C585 0.950 . S
H626 C591 0.949 . S
H627 C592 0.950 . S
H628 C596 0.951 . S
H629 C597 0.950 . S
H630 C601 0.949 . S
H631 C602 0.950 . S
H632 C606 0.950 . S
H633 C608 0.950 . S
H634 C611 0.950 . S
H635 C613 0.950 . S
H636 C644 0.929 . S
H637 C646 0.930 . S
H638 C648 0.930 . S
H639 C651 0.929 . S
H640 C654 0.930 . S
H641 C656 0.960 . S
H642 C656 0.960 . S
H643 C656 0.960 . S
C644 H636 0.929 . S
C644 C645 1.377 . S
C644 C646 1.384 . S
C645 C644 1.377 . S
C645 C651 1.390 . S
C646 H637 0.930 . S
C646 C644 1.384 . S
C646 C647 1.372 . S
C647 C646 1.372 . S
C647 C648 1.400 . S
C647 C652 1.490 . S
C648 H638 0.930 . S
C648 C647 1.400 . S
C648 C651 1.386 . S
H649 C665 0.930 . S
H650 C666 0.931 . S
C651 H639 0.929 . S
C651 C645 1.390 . S
C651 C648 1.386 . S
C652 C647 1.490 . S
C652 C654 1.395 . S
C652 C655 1.403 . S
H653 C659 0.930 . S
C654 H640 0.930 . S
C654 C652 1.395 . S
C654 C657 1.403 . S
C655 C652 1.403 . S
C655 C656 1.524 . S
C655 C659 1.400 . S
C656 H641 0.960 . S
C656 H642 0.960 . S
C656 H643 0.960 . S
C656 C655 1.524 . S
C657 C654 1.403 . S
C657 C658 1.392 . S
C657 C661 1.495 . S
C658 C657 1.392 . S
C658 C659 1.385 . S
C658 C660 1.478 . S
C659 H653 0.930 . S
C659 C655 1.400 . S
C659 C658 1.385 . S
C660 C658 1.478 . S
C660 C662 1.381 . S
C660 C666 1.383 . S
C661 C657 1.495 . S
C661 H667 0.959 . S
C661 H668 0.961 . S
C661 H669 0.960 . S
C662 C660 1.381 . S
C662 C663 1.394 . S
C662 H670 0.930 . S
C663 C662 1.394 . S
C663 C664 1.383 . S
C663 H671 0.929 . S
C664 C663 1.383 . S
C664 C665 1.377 . S
C665 H649 0.930 . S
C665 C664 1.377 . S
C665 C666 1.379 . S
C666 H650 0.931 . S
C666 C660 1.383 . S
C666 C665 1.379 . S
H667 C661 0.959 . S
H668 C661 0.961 . S
H669 C661 0.960 . S
H670 C662 0.930 . S
H671 C663 0.929 . S
H672 C680 0.929 . S
H673 C682 0.930 . S
H674 C684 0.930 . S
H675 C687 0.929 . S
H676 C690 0.930 . S
H677 C692 0.960 . S
H678 C692 0.960 . S
H679 C692 0.960 . S
C680 H672 0.929 . S
C680 C681 1.377 . S
C680 C682 1.384 . S
C681 C680 1.377 . S
C681 C687 1.390 . S
C682 H673 0.930 . S
C682 C680 1.384 . S
C682 C683 1.372 . S
C683 C682 1.372 . S
C683 C684 1.400 . S
C683 C688 1.490 . S
C684 H674 0.930 . S
C684 C683 1.400 . S
C684 C687 1.386 . S
H685 C701 0.930 . S
H686 C702 0.931 . S
C687 H675 0.929 . S
C687 C681 1.390 . S
C687 C684 1.386 . S
C688 C683 1.490 . S
C688 C690 1.395 . S
C688 C691 1.403 . S
H689 C695 0.930 . S
C690 H676 0.930 . S
C690 C688 1.395 . S
C690 C693 1.403 . S
C691 C688 1.403 . S
C691 C692 1.524 . S
C691 C695 1.400 . S
C692 H677 0.960 . S
C692 H678 0.960 . S
C692 H679 0.960 . S
C692 C691 1.524 . S
C693 C690 1.403 . S
C693 C694 1.392 . S
C693 C697 1.495 . S
C694 C693 1.392 . S
C694 C695 1.385 . S
C694 C696 1.478 . S
C695 H689 0.930 . S
C695 C691 1.400 . S
C695 C694 1.385 . S
C696 C694 1.478 . S
C696 C698 1.381 . S
C696 C702 1.383 . S
C697 C693 1.495 . S
C697 H703 0.959 . S
C697 H704 0.961 . S
C697 H705 0.960 . S
C698 C696 1.381 . S
C698 C699 1.394 . S
C698 H706 0.930 . S
C699 C698 1.394 . S
C699 C700 1.383 . S
C699 H707 0.929 . S
C700 C699 1.383 . S
C700 C701 1.377 . S
C701 H685 0.930 . S
C701 C700 1.377 . S
C701 C702 1.379 . S
C702 H686 0.931 . S
C702 C696 1.383 . S
C702 C701 1.379 . S
H703 C697 0.959 . S
H704 C697 0.961 . S
H705 C697 0.960 . S
H706 C698 0.930 . S
H707 C699 0.929 . S
H708 C716 0.929 . S
H709 C718 0.930 . S
H710 C720 0.930 . S
H711 C723 0.929 . S
H712 C726 0.930 . S
H713 C728 0.960 . S
H714 C728 0.960 . S
H715 C728 0.960 . S
C716 H708 0.929 . S
C716 C717 1.377 . S
C716 C718 1.384 . S
C717 C716 1.377 . S
C717 C723 1.390 . S
C718 H709 0.930 . S
C718 C716 1.384 . S
C718 C719 1.372 . S
C719 C718 1.372 . S
C719 C720 1.400 . S
C719 C724 1.490 . S
C720 H710 0.930 . S
C720 C719 1.400 . S
C720 C723 1.386 . S
H721 C737 0.930 . S
H722 C738 0.931 . S
C723 H711 0.929 . S
C723 C717 1.390 . S
C723 C720 1.386 . S
C724 C719 1.490 . S
C724 C726 1.395 . S
C724 C727 1.403 . S
H725 C731 0.930 . S
C726 H712 0.930 . S
C726 C724 1.395 . S
C726 C729 1.403 1_556 S
C727 C724 1.403 . S
C727 C728 1.524 . S
C727 C731 1.400 1_556 S
C728 H713 0.960 . S
C728 H714 0.960 . S
C728 H715 0.960 . S
C728 C727 1.524 . S
C729 C726 1.403 1_554 S
C729 C730 1.392 . S
C729 C733 1.495 . S
C730 C729 1.392 . S
C730 C731 1.385 . S
C730 C732 1.478 . S
C731 H725 0.930 . S
C731 C727 1.400 1_554 S
C731 C730 1.385 . S
C732 C730 1.478 . S
C732 C734 1.381 . S
C732 C738 1.383 . S
C733 C729 1.495 . S
C733 H739 0.959 . S
C733 H740 0.961 . S
C733 H741 0.960 . S
C734 C732 1.381 . S
C734 C735 1.394 . S
C734 H742 0.930 . S
C735 C734 1.394 . S
C735 C736 1.383 . S
C735 H743 0.929 . S
C736 C735 1.383 . S
C736 C737 1.377 . S
C737 H721 0.930 . S
C737 C736 1.377 . S
C737 C738 1.379 . S
C738 H722 0.931 . S
C738 C732 1.383 . S
C738 C737 1.379 . S
H739 C733 0.959 . S
H740 C733 0.961 . S
H741 C733 0.960 . S
H742 C734 0.930 . S
H743 C735 0.929 . S
H744 C752 0.929 . S
H745 C754 0.930 . S
H746 C756 0.930 . S
H747 C759 0.929 . S
H748 C762 0.930 . S
H749 C764 0.960 . S
H750 C764 0.960 . S
H751 C764 0.960 . S
C752 H744 0.929 . S
C752 C753 1.377 . S
C752 C754 1.384 . S
C753 C752 1.377 . S
C753 C759 1.390 . S
C754 H745 0.930 . S
C754 C752 1.384 . S
C754 C755 1.372 . S
C755 C754 1.372 . S
C755 C756 1.400 . S
C755 C760 1.490 . S
C756 H746 0.930 . S
C756 C755 1.400 . S
C756 C759 1.386 . S
H757 C773 0.930 . S
H758 C774 0.931 . S
C759 H747 0.929 . S
C759 C753 1.390 . S
C759 C756 1.386 . S
C760 C755 1.490 . S
C760 C762 1.395 . S
C760 C763 1.403 . S
H761 C767 0.930 . S
C762 H748 0.930 . S
C762 C760 1.395 . S
C762 C765 1.403 . S
C763 C760 1.403 . S
C763 C764 1.524 . S
C763 C767 1.400 . S
C764 H749 0.960 . S
C764 H750 0.960 . S
C764 H751 0.960 . S
C764 C763 1.524 . S
C765 C762 1.403 . S
C765 C766 1.392 . S
C765 C769 1.495 . S
C766 C765 1.392 . S
C766 C767 1.385 . S
C766 C768 1.478 . S
C767 H761 0.930 . S
C767 C763 1.400 . S
C767 C766 1.385 . S
C768 C766 1.478 . S
C768 C770 1.381 . S
C768 C774 1.383 . S
C769 C765 1.495 . S
C769 H775 0.959 . S
C769 H776 0.961 . S
C769 H777 0.960 . S
C770 C768 1.381 . S
C770 C771 1.394 . S
C770 H778 0.930 . S
C771 C770 1.394 . S
C771 C772 1.383 . S
C771 H779 0.929 . S
C772 C771 1.383 . S
C772 C773 1.377 . S
C773 H757 0.930 . S
C773 C772 1.377 . S
C773 C774 1.379 . S
C774 H758 0.931 . S
C774 C768 1.383 . S
C774 C773 1.379 . S
H775 C769 0.959 . S
H776 C769 0.961 . S
H777 C769 0.960 . S
H778 C770 0.930 . S
H779 C771 0.929 . S
H780 C788 0.929 . S
H781 C790 0.930 . S
H782 C792 0.930 . S
H783 C795 0.929 . S
H784 C798 0.930 . S
H785 C800 0.960 . S
H786 C800 0.960 . S
H787 C800 0.960 . S
C788 H780 0.929 . S
C788 C789 1.377 . S
C788 C790 1.384 . S
C789 C788 1.377 . S
C789 C795 1.390 . S
C790 H781 0.930 . S
C790 C788 1.384 . S
C790 C791 1.372 . S
C791 C790 1.372 . S
C791 C792 1.400 . S
C791 C796 1.490 . S
C792 H782 0.930 . S
C792 C791 1.400 . S
C792 C795 1.386 . S
H793 C809 0.930 . S
H794 C810 0.931 . S
C795 H783 0.929 . S
C795 C789 1.390 . S
C795 C792 1.386 . S
C796 C791 1.490 . S
C796 C798 1.395 . S
C796 C799 1.403 . S
H797 C803 0.930 . S
C798 H784 0.930 . S
C798 C796 1.395 . S
C798 C801 1.403 . S
C799 C796 1.403 . S
C799 C800 1.524 . S
C799 C803 1.400 . S
C800 H785 0.960 . S
C800 H786 0.960 . S
C800 H787 0.960 . S
C800 C799 1.524 . S
C801 C798 1.403 . S
C801 C802 1.392 . S
C801 C805 1.495 . S
C802 C801 1.392 . S
C802 C803 1.385 . S
C802 C804 1.478 . S
C803 H797 0.930 . S
C803 C799 1.400 . S
C803 C802 1.385 . S
C804 C802 1.478 . S
C804 C806 1.381 . S
C804 C810 1.383 . S
C805 C801 1.495 . S
C805 H811 0.959 . S
C805 H812 0.961 . S
C805 H813 0.960 . S
C806 C804 1.381 . S
C806 C807 1.394 . S
C806 H814 0.930 . S
C807 C806 1.394 . S
C807 C808 1.383 . S
C807 H815 0.929 . S
C808 C807 1.383 . S
C808 C809 1.377 . S
C809 H793 0.930 . S
C809 C808 1.377 . S
C809 C810 1.379 . S
C810 H794 0.931 . S
C810 C804 1.383 . S
C810 C809 1.379 . S
H811 C805 0.959 . S
H812 C805 0.961 . S
H813 C805 0.960 . S
H814 C806 0.930 . S
H815 C807 0.929 . S
H816 C824 0.929 . S
H817 C826 0.930 . S
H818 C828 0.930 . S
H819 C831 0.929 . S
H820 C834 0.930 . S
H821 C836 0.960 . S
H822 C836 0.960 . S
H823 C836 0.960 . S
C824 H816 0.929 . S
C824 C825 1.377 . S
C824 C826 1.384 . S
C825 C824 1.377 . S
C825 C831 1.390 . S
C826 H817 0.930 . S
C826 C824 1.384 . S
C826 C827 1.372 . S
C827 C826 1.372 . S
C827 C828 1.400 . S
C827 C832 1.490 . S
C828 H818 0.930 . S
C828 C827 1.400 . S
C828 C831 1.386 . S
H829 C845 0.930 . S
H830 C846 0.931 . S
C831 H819 0.929 . S
C831 C825 1.390 . S
C831 C828 1.386 . S
C832 C827 1.490 . S
C832 C834 1.395 . S
C832 C835 1.403 . S
H833 C839 0.930 . S
C834 H820 0.930 . S
C834 C832 1.395 . S
C834 C837 1.403 1_554 S
C835 C832 1.403 . S
C835 C836 1.524 . S
C835 C839 1.400 1_554 S
C836 H821 0.960 . S
C836 H822 0.960 . S
C836 H823 0.960 . S
C836 C835 1.524 . S
C837 C834 1.403 1_556 S
C837 C838 1.392 . S
C837 C841 1.495 . S
C838 C837 1.392 . S
C838 C839 1.385 . S
C838 C840 1.478 . S
C839 H833 0.930 . S
C839 C835 1.400 1_556 S
C839 C838 1.385 . S
C840 C838 1.478 . S
C840 C842 1.381 . S
C840 C846 1.383 . S
C841 C837 1.495 . S
C841 H847 0.959 . S
C841 H848 0.961 . S
C841 H849 0.960 . S
C842 C840 1.381 . S
C842 C843 1.394 . S
C842 H850 0.930 . S
C843 C842 1.394 . S
C843 C844 1.383 . S
C843 H851 0.929 . S
C844 C843 1.383 . S
C844 C845 1.377 . S
C845 H829 0.930 . S
C845 C844 1.377 . S
C845 C846 1.379 . S
C846 H830 0.931 . S
C846 C840 1.383 . S
C846 C845 1.379 . S
H847 C841 0.959 . S
H848 C841 0.961 . S
H849 C841 0.960 . S
H850 C842 0.930 . S
H851 C843 0.929 . S
H852 C860 0.929 . S
H853 C862 0.930 1_556 S
H854 C864 0.930 . S
H855 C867 0.929 . S
H856 C870 0.930 . S
H857 C872 0.960 . S
H858 C872 0.960 . S
H859 C872 0.960 . S
C860 H852 0.929 . S
C860 C861 1.377 . S
C860 C862 1.384 . S
C861 C860 1.377 . S
C861 C867 1.390 . S
C862 H853 0.930 1_554 S
C862 C860 1.384 . S
C862 C863 1.372 . S
C863 C862 1.372 . S
C863 C864 1.400 . S
C863 C868 1.490 . S
C864 H854 0.930 . S
C864 C863 1.400 . S
C864 C867 1.386 . S
H865 C881 0.930 . S
H866 C882 0.931 1_554 S
C867 H855 0.929 . S
C867 C861 1.390 . S
C867 C864 1.386 . S
C868 C863 1.490 . S
C868 C870 1.395 1_554 S
C868 C871 1.403 . S
H869 C875 0.930 . S
C870 H856 0.930 . S
C870 C868 1.395 1_556 S
C870 C873 1.403 . S
C871 C868 1.403 . S
C871 C872 1.524 . S
C871 C875 1.400 . S
C872 H857 0.960 . S
C872 H858 0.960 . S
C872 H859 0.960 . S
C872 C871 1.524 . S
C873 C870 1.403 . S
C873 C874 1.392 . S
C873 C877 1.495 . S
C874 C873 1.392 . S
C874 C875 1.385 1_556 S
C874 C876 1.478 . S
C875 H869 0.930 . S
C875 C871 1.400 . S
C875 C874 1.385 1_554 S
C876 C874 1.478 . S
C876 C878 1.381 . S
C876 C882 1.383 . S
C877 C873 1.495 . S
C877 H883 0.959 . S
C877 H884 0.961 . S
C877 H885 0.960 . S
C878 C876 1.381 . S
C878 C879 1.394 . S
C878 H886 0.930 . S
C879 C878 1.394 . S
C879 C880 1.383 . S
C879 H887 0.929 . S
C880 C879 1.383 . S
C880 C881 1.377 . S
C881 H865 0.930 . S
C881 C880 1.377 . S
C881 C882 1.379 . S
C882 H866 0.931 1_556 S
C882 C876 1.383 . S
C882 C881 1.379 . S
H883 C877 0.959 . S
H884 C877 0.961 . S
H885 C877 0.960 . S
H886 C878 0.930 . S
H887 C879 0.929 . S
H888 C896 0.929 . S
H889 C898 0.930 . S
H890 C900 0.930 . S
H891 C903 0.929 . S
H892 C906 0.930 . S
H893 C908 0.960 . S
H894 C908 0.960 . S
H895 C908 0.960 . S
C896 H888 0.929 . S
C896 C897 1.377 . S
C896 C898 1.384 . S
C897 C896 1.377 . S
C897 C903 1.390 . S
C898 H889 0.930 . S
C898 C896 1.384 . S
C898 C899 1.372 . S
C899 C898 1.372 . S
C899 C900 1.400 . S
C899 C904 1.490 . S
C900 H890 0.930 . S
C900 C899 1.400 . S
C900 C903 1.386 . S
H901 C917 0.930 . S
H902 C918 0.931 . S
C903 H891 0.929 . S
C903 C897 1.390 . S
C903 C900 1.386 . S
C904 C899 1.490 . S
C904 C906 1.395 . S
C904 C907 1.403 . S
H905 C911 0.930 . S
C906 H892 0.930 . S
C906 C904 1.395 . S
C906 C909 1.403 . S
C907 C904 1.403 . S
C907 C908 1.524 . S
C907 C911 1.400 . S
C908 H893 0.960 . S
C908 H894 0.960 . S
C908 H895 0.960 . S
C908 C907 1.524 . S
C909 C906 1.403 . S
C909 C910 1.392 . S
C909 C913 1.495 . S
C910 C909 1.392 . S
C910 C911 1.385 . S
C910 C912 1.478 . S
C911 H905 0.930 . S
C911 C907 1.400 . S
C911 C910 1.385 . S
C912 C910 1.478 . S
C912 C914 1.381 . S
C912 C918 1.383 . S
C913 C909 1.495 . S
C913 H919 0.959 . S
C913 H920 0.961 . S
C913 H921 0.960 . S
C914 C912 1.381 . S
C914 C915 1.394 . S
C914 H922 0.930 . S
C915 C914 1.394 . S
C915 C916 1.383 . S
C915 H923 0.929 . S
C916 C915 1.383 . S
C916 C917 1.377 . S
C917 H901 0.930 . S
C917 C916 1.377 . S
C917 C918 1.379 . S
C918 H902 0.931 . S
C918 C912 1.383 . S
C918 C917 1.379 . S
H919 C913 0.959 . S
H920 C913 0.961 . S
H921 C913 0.960 . S
H922 C914 0.930 . S
H923 C915 0.929 . S
H924 C932 0.929 . S
H925 C934 0.930 . S
H926 C936 0.930 . S
H927 C939 0.929 . S
H928 C942 0.930 . S
H929 C944 0.960 . S
H930 C944 0.960 . S
H931 C944 0.960 . S
C932 H924 0.929 . S
C932 C933 1.377 . S
C932 C934 1.384 . S
C933 C932 1.377 . S
C933 C939 1.390 . S
C934 H925 0.930 . S
C934 C932 1.384 . S
C934 C935 1.372 . S
C935 C934 1.372 . S
C935 C936 1.400 . S
C935 C940 1.490 . S
C936 H926 0.930 . S
C936 C935 1.400 . S
C936 C939 1.386 . S
H937 C953 0.930 . S
H938 C954 0.931 . S
C939 H927 0.929 . S
C939 C933 1.390 . S
C939 C936 1.386 . S
C940 C935 1.490 . S
C940 C942 1.395 . S
C940 C943 1.403 . S
H941 C947 0.930 . S
C942 H928 0.930 . S
C942 C940 1.395 . S
C942 C945 1.403 . S
C943 C940 1.403 . S
C943 C944 1.524 . S
C943 C947 1.400 . S
C944 H929 0.960 . S
C944 H930 0.960 . S
C944 H931 0.960 . S
C944 C943 1.524 . S
C945 C942 1.403 . S
C945 C946 1.392 . S
C945 C949 1.495 . S
C946 C945 1.392 . S
C946 C947 1.385 . S
C946 C948 1.478 . S
C947 H941 0.930 . S
C947 C943 1.400 . S
C947 C946 1.385 . S
C948 C946 1.478 . S
C948 C950 1.381 . S
C948 C954 1.383 . S
C949 C945 1.495 . S
C949 H955 0.959 . S
C949 H956 0.961 . S
C949 H957 0.960 . S
C950 C948 1.381 . S
C950 C951 1.394 . S
C950 H958 0.930 . S
C951 C950 1.394 . S
C951 C952 1.383 . S
C951 H959 0.929 . S
C952 C951 1.383 . S
C952 C953 1.377 . S
C953 H937 0.930 . S
C953 C952 1.377 . S
C953 C954 1.379 . S
C954 H938 0.931 . S
C954 C948 1.383 . S
C954 C953 1.379 . S
H955 C949 0.959 . S
H956 C949 0.961 . S
H957 C949 0.960 . S
H958 C950 0.930 . S
H959 C951 0.929 . S
H960 C968 0.929 . S
H961 C970 0.930 . S
H962 C972 0.930 . S
H963 C975 0.929 . S
H964 C978 0.930 . S
H965 C980 0.960 . S
H966 C980 0.960 . S
H967 C980 0.960 . S
C968 H960 0.929 . S
C968 C969 1.377 . S
C968 C970 1.384 . S
C969 C968 1.377 . S
C969 C975 1.390 . S
C970 H961 0.930 . S
C970 C968 1.384 . S
C970 C971 1.372 . S
C971 C970 1.372 . S
C971 C972 1.400 . S
C971 C976 1.490 . S
C972 H962 0.930 . S
C972 C971 1.400 . S
C972 C975 1.386 . S
H973 C989 0.930 . S
H974 C990 0.931 . S
C975 H963 0.929 . S
C975 C969 1.390 . S
C975 C972 1.386 . S
C976 C971 1.490 . S
C976 C978 1.395 . S
C976 C979 1.403 1_554 S
H977 C983 0.930 . S
C978 H964 0.930 . S
C978 C976 1.395 . S
C978 C981 1.403 . S
C979 C976 1.403 1_556 S
C979 C980 1.524 . S
C979 C983 1.400 . S
C980 H965 0.960 . S
C980 H966 0.960 . S
C980 H967 0.960 . S
C980 C979 1.524 . S
C981 C978 1.403 . S
C981 C982 1.392 1_554 S
C981 C985 1.495 . S
C982 C981 1.392 1_556 S
C982 C983 1.385 . S
C982 C984 1.478 . S
C983 H977 0.930 . S
C983 C979 1.400 . S
C983 C982 1.385 . S
C984 C982 1.478 . S
C984 C986 1.381 . S
C984 C990 1.383 . S
C985 C981 1.495 . S
C985 H991 0.959 . S
C985 H992 0.961 . S
C985 H993 0.960 . S
C986 C984 1.381 . S
C986 C987 1.394 . S
C986 H994 0.930 . S
C987 C986 1.394 . S
C987 C988 1.383 . S
C987 H995 0.929 . S
C988 C987 1.383 . S
C988 C989 1.377 . S
C989 H973 0.930 . S
C989 C988 1.377 . S
C989 C990 1.379 . S
C990 H974 0.931 . S
C990 C984 1.383 . S
C990 C989 1.379 . S
H991 C985 0.959 . S
H992 C985 0.961 . S
H993 C985 0.960 . S
H994 C986 0.930 . S
H995 C987 0.929 . S
H996 C1004 0.929 . S
H997 C1006 0.930 . S
H998 C1008 0.930 . S
H999 C1011 0.929 . S
H1000 C1014 0.930 . S
H1001 C1016 0.960 . S
H1002 C1016 0.960 . S
H1003 C1016 0.960 . S
C1004 H996 0.929 . S
C1004 C1005 1.377 . S
C1004 C1006 1.384 . S
C1005 C1004 1.377 . S
C1005 C1011 1.390 . S
C1006 H997 0.930 . S
C1006 C1004 1.384 . S
C1006 C1007 1.372 . S
C1007 C1006 1.372 . S
C1007 C1008 1.400 . S
C1007 C1012 1.490 . S
C1008 H998 0.930 . S
C1008 C1007 1.400 . S
C1008 C1011 1.386 . S
H1009 C1025 0.930 . S
H1010 C1026 0.931 . S
C1011 H999 0.929 . S
C1011 C1005 1.390 . S
C1011 C1008 1.386 . S
C1012 C1007 1.490 . S
C1012 C1014 1.395 . S
C1012 C1015 1.403 . S
H1013 C1019 0.930 . S
C1014 H1000 0.930 . S
C1014 C1012 1.395 . S
C1014 C1017 1.403 . S
C1015 C1012 1.403 . S
C1015 C1016 1.524 . S
C1015 C1019 1.400 . S
C1016 H1001 0.960 . S
C1016 H1002 0.960 . S
C1016 H1003 0.960 . S
C1016 C1015 1.524 . S
C1017 C1014 1.403 . S
C1017 C1018 1.392 . S
C1017 C1021 1.495 . S
C1018 C1017 1.392 . S
C1018 C1019 1.385 . S
C1018 C1020 1.478 . S
C1019 H1013 0.930 . S
C1019 C1015 1.400 . S
C1019 C1018 1.385 . S
C1020 C1018 1.478 . S
C1020 C1022 1.381 . S
C1020 C1026 1.383 . S
C1021 C1017 1.495 . S
C1021 H1027 0.959 . S
C1021 H1028 0.961 . S
C1021 H1029 0.960 . S
C1022 C1020 1.381 . S
C1022 C1023 1.394 . S
C1022 H1030 0.930 . S
C1023 C1022 1.394 . S
C1023 C1024 1.383 . S
C1023 H1031 0.929 . S
C1024 C1023 1.383 . S
C1024 C1025 1.377 . S
C1025 H1009 0.930 . S
C1025 C1024 1.377 . S
C1025 C1026 1.379 . S
C1026 H1010 0.931 . S
C1026 C1020 1.383 . S
C1026 C1025 1.379 . S
H1027 C1021 0.959 . S
H1028 C1021 0.961 . S
H1029 C1021 0.960 . S
H1030 C1022 0.930 . S
H1031 C1023 0.929 . S
H1032 C1040 0.929 . S
H1033 C1042 0.930 . S
H1034 C1044 0.930 . S
H1035 C1047 0.929 . S
H1036 C1050 0.930 . S
H1037 C1052 0.960 . S
H1038 C1052 0.960 . S
H1039 C1052 0.960 . S
C1040 H1032 0.929 . S
C1040 C1041 1.377 . S
C1040 C1042 1.384 . S
C1041 C1040 1.377 . S
C1041 C1047 1.390 . S
C1042 H1033 0.930 . S
C1042 C1040 1.384 . S
C1042 C1043 1.372 . S
C1043 C1042 1.372 . S
C1043 C1044 1.400 . S
C1043 C1048 1.490 . S
C1044 H1034 0.930 . S
C1044 C1043 1.400 . S
C1044 C1047 1.386 . S
H1045 C1061 0.930 . S
H1046 C1062 0.931 . S
C1047 H1035 0.929 . S
C1047 C1041 1.390 . S
C1047 C1044 1.386 . S
C1048 C1043 1.490 . S
C1048 C1050 1.395 . S
C1048 C1051 1.403 . S
H1049 C1055 0.930 . S
C1050 H1036 0.930 . S
C1050 C1048 1.395 . S
C1050 C1053 1.403 . S
C1051 C1048 1.403 . S
C1051 C1052 1.524 . S
C1051 C1055 1.400 . S
C1052 H1037 0.960 . S
C1052 H1038 0.960 . S
C1052 H1039 0.960 . S
C1052 C1051 1.524 . S
C1053 C1050 1.403 . S
C1053 C1054 1.392 . S
C1053 C1057 1.495 . S
C1054 C1053 1.392 . S
C1054 C1055 1.385 . S
C1054 C1056 1.478 . S
C1055 H1049 0.930 . S
C1055 C1051 1.400 . S
C1055 C1054 1.385 . S
C1056 C1054 1.478 . S
C1056 C1058 1.381 . S
C1056 C1062 1.383 . S
C1057 C1053 1.495 . S
C1057 H1063 0.959 . S
C1057 H1064 0.961 . S
C1057 H1065 0.960 . S
C1058 C1056 1.381 . S
C1058 C1059 1.394 . S
C1058 H1066 0.930 . S
C1059 C1058 1.394 . S
C1059 C1060 1.383 . S
C1059 H1067 0.929 . S
C1060 C1059 1.383 . S
C1060 C1061 1.377 . S
C1061 H1045 0.930 . S
C1061 C1060 1.377 . S
C1061 C1062 1.379 . S
C1062 H1046 0.931 . S
C1062 C1056 1.383 . S
C1062 C1061 1.379 . S
H1063 C1057 0.959 . S
H1064 C1057 0.961 . S
H1065 C1057 0.960 . S
H1066 C1058 0.930 . S
H1067 C1059 0.929 . S
H1068 C1076 0.929 . S
H1069 C1078 0.930 . S
H1070 C1080 0.930 . S
H1071 C1083 0.929 . S
H1072 C1086 0.930 . S
H1073 C1088 0.960 . S
H1074 C1088 0.960 . S
H1075 C1088 0.960 . S
C1076 H1068 0.929 . S
C1076 C1077 1.377 . S
C1076 C1078 1.384 . S
C1077 C1076 1.377 . S
C1077 C1083 1.390 . S
C1078 H1069 0.930 . S
C1078 C1076 1.384 . S
C1078 C1079 1.372 . S
C1079 C1078 1.372 . S
C1079 C1080 1.400 . S
C1079 C1084 1.490 . S
C1080 H1070 0.930 . S
C1080 C1079 1.400 . S
C1080 C1083 1.386 . S
H1081 C1097 0.930 . S
H1082 C1098 0.931 . S
C1083 H1071 0.929 . S
C1083 C1077 1.390 . S
C1083 C1080 1.386 . S
C1084 C1079 1.490 . S
C1084 C1086 1.395 . S
C1084 C1087 1.403 . S
H1085 C1091 0.930 . S
C1086 H1072 0.930 . S
C1086 C1084 1.395 . S
C1086 C1089 1.403 . S
C1087 C1084 1.403 . S
C1087 C1088 1.524 . S
C1087 C1091 1.400 . S
C1088 H1073 0.960 . S
C1088 H1074 0.960 . S
C1088 H1075 0.960 . S
C1088 C1087 1.524 . S
C1089 C1086 1.403 . S
C1089 C1090 1.392 . S
C1089 C1093 1.495 . S
C1090 C1089 1.392 . S
C1090 C1091 1.385 . S
C1090 C1092 1.478 . S
C1091 H1085 0.930 . S
C1091 C1087 1.400 . S
C1091 C1090 1.385 . S
C1092 C1090 1.478 . S
C1092 C1094 1.381 . S
C1092 C1098 1.383 . S
C1093 C1089 1.495 . S
C1093 H1099 0.959 . S
C1093 H1100 0.961 . S
C1093 H1101 0.960 . S
C1094 C1092 1.381 . S
C1094 C1095 1.394 . S
C1094 H1102 0.930 . S
C1095 C1094 1.394 . S
C1095 C1096 1.383 . S
C1095 H1103 0.929 . S
C1096 C1095 1.383 . S
C1096 C1097 1.377 . S
C1097 H1081 0.930 . S
C1097 C1096 1.377 . S
C1097 C1098 1.379 . S
C1098 H1082 0.931 . S
C1098 C1092 1.383 . S
C1098 C1097 1.379 . S
H1099 C1093 0.959 . S
H1100 C1093 0.961 . S
H1101 C1093 0.960 . S
H1102 C1094 0.930 . S
H1103 C1095 0.929 . S
H1104 C1112 0.929 . S
H1105 C1114 0.930 . S
H1106 C1116 0.930 . S
H1107 C1119 0.929 . S
H1108 C1122 0.930 . S
H1109 C1124 0.960 . S
H1110 C1124 0.960 . S
H1111 C1124 0.960 . S
C1112 H1104 0.929 . S
C1112 C1113 1.377 . S
C1112 C1114 1.384 . S
C1113 C1112 1.377 . S
C1113 C1119 1.390 . S
C1114 H1105 0.930 . S
C1114 C1112 1.384 . S
C1114 C1115 1.372 . S
C1115 C1114 1.372 . S
C1115 C1116 1.400 . S
C1115 C1120 1.490 . S
C1116 H1106 0.930 . S
C1116 C1115 1.400 . S
C1116 C1119 1.386 . S
H1117 C1133 0.930 . S
H1118 C1134 0.931 . S
C1119 H1107 0.929 . S
C1119 C1113 1.390 . S
C1119 C1116 1.386 . S
C1120 C1115 1.490 . S
C1120 C1122 1.395 . S
C1120 C1123 1.403 . S
H1121 C1127 0.930 . S
C1122 H1108 0.930 . S
C1122 C1120 1.395 . S
C1122 C1125 1.403 1_655 S
C1123 C1120 1.403 . S
C1123 C1124 1.524 . S
C1123 C1127 1.400 1_655 S
C1124 H1109 0.960 . S
C1124 H1110 0.960 . S
C1124 H1111 0.960 . S
C1124 C1123 1.524 . S
C1125 C1122 1.403 1_455 S
C1125 C1126 1.392 . S
C1125 C1129 1.495 . S
C1126 C1125 1.392 . S
C1126 C1127 1.385 . S
C1126 C1128 1.478 . S
C1127 H1121 0.930 . S
C1127 C1123 1.400 1_455 S
C1127 C1126 1.385 . S
C1128 C1126 1.478 . S
C1128 C1130 1.381 . S
C1128 C1134 1.383 . S
C1129 C1125 1.495 . S
C1129 H1135 0.959 . S
C1129 H1136 0.961 . S
C1129 H1137 0.960 . S
C1130 C1128 1.381 . S
C1130 C1131 1.394 . S
C1130 H1138 0.930 . S
C1131 C1130 1.394 . S
C1131 C1132 1.383 . S
C1131 H1139 0.929 . S
C1132 C1131 1.383 . S
C1132 C1133 1.377 . S
C1133 H1117 0.930 . S
C1133 C1132 1.377 . S
C1133 C1134 1.379 . S
C1134 H1118 0.931 . S
C1134 C1128 1.383 . S
C1134 C1133 1.379 . S
H1135 C1129 0.959 . S
H1136 C1129 0.961 . S
H1137 C1129 0.960 . S
H1138 C1130 0.930 . S
H1139 C1131 0.929 . S
H1140 C1148 0.929 . S
H1141 C1150 0.930 . S
H1142 C1152 0.930 . S
H1143 C1155 0.929 . S
H1144 C1158 0.930 . S
H1145 C1160 0.960 . S
H1146 C1160 0.960 . S
H1147 C1160 0.960 . S
C1148 H1140 0.929 . S
C1148 C1149 1.377 . S
C1148 C1150 1.384 . S
C1149 C1148 1.377 . S
C1149 C1155 1.390 . S
C1150 H1141 0.930 . S
C1150 C1148 1.384 . S
C1150 C1151 1.372 . S
C1151 C1150 1.372 . S
C1151 C1152 1.400 . S
C1151 C1156 1.490 . S
C1152 H1142 0.930 . S
C1152 C1151 1.400 . S
C1152 C1155 1.386 . S
H1153 C1169 0.930 . S
H1154 C1170 0.931 . S
C1155 H1143 0.929 . S
C1155 C1149 1.390 . S
C1155 C1152 1.386 . S
C1156 C1151 1.490 . S
C1156 C1158 1.395 . S
C1156 C1159 1.403 . S
H1157 C1163 0.930 . S
C1158 H1144 0.930 . S
C1158 C1156 1.395 . S
C1158 C1161 1.403 1_545 S
C1159 C1156 1.403 . S
C1159 C1160 1.524 . S
C1159 C1163 1.400 1_545 S
C1160 H1145 0.960 . S
C1160 H1146 0.960 . S
C1160 H1147 0.960 . S
C1160 C1159 1.524 . S
C1161 C1158 1.403 1_565 S
C1161 C1162 1.392 . S
C1161 C1165 1.495 . S
C1162 C1161 1.392 . S
C1162 C1163 1.385 . S
C1162 C1164 1.478 . S
C1163 H1157 0.930 . S
C1163 C1159 1.400 1_565 S
C1163 C1162 1.385 . S
C1164 C1162 1.478 . S
C1164 C1166 1.381 . S
C1164 C1170 1.383 . S
C1165 C1161 1.495 . S
C1165 H1171 0.959 . S
C1165 H1172 0.961 . S
C1165 H1173 0.960 . S
C1166 C1164 1.381 . S
C1166 C1167 1.394 . S
C1166 H1174 0.930 . S
C1167 C1166 1.394 . S
C1167 C1168 1.383 . S
C1167 H1175 0.929 . S
C1168 C1167 1.383 . S
C1168 C1169 1.377 . S
C1169 H1153 0.930 . S
C1169 C1168 1.377 . S
C1169 C1170 1.379 . S
C1170 H1154 0.931 . S
C1170 C1164 1.383 . S
C1170 C1169 1.379 . S
H1171 C1165 0.959 . S
H1172 C1165 0.961 . S
H1173 C1165 0.960 . S
H1174 C1166 0.930 . S
H1175 C1167 0.929 . S
H1176 C1184 0.929 . S
H1177 C1186 0.930 . S
H1178 C1188 0.930 . S
H1179 C1191 0.929 . S
H1180 C1194 0.930 . S
H1181 C1196 0.960 . S
H1182 C1196 0.960 . S
H1183 C1196 0.960 . S
C1184 H1176 0.929 . S
C1184 C1185 1.377 . S
C1184 C1186 1.384 . S
C1185 C1184 1.377 . S
C1185 C1191 1.390 . S
C1186 H1177 0.930 . S
C1186 C1184 1.384 . S
C1186 C1187 1.372 . S
C1187 C1186 1.372 . S
C1187 C1188 1.400 . S
C1187 C1192 1.490 . S
C1188 H1178 0.930 . S
C1188 C1187 1.400 . S
C1188 C1191 1.386 . S
H1189 C1205 0.930 . S
H1190 C1206 0.931 . S
C1191 H1179 0.929 . S
C1191 C1185 1.390 . S
C1191 C1188 1.386 . S
C1192 C1187 1.490 . S
C1192 C1194 1.395 . S
C1192 C1195 1.403 . S
H1193 C1199 0.930 . S
C1194 H1180 0.930 . S
C1194 C1192 1.395 . S
C1194 C1197 1.403 . S
C1195 C1192 1.403 . S
C1195 C1196 1.524 . S
C1195 C1199 1.400 . S
C1196 H1181 0.960 . S
C1196 H1182 0.960 . S
C1196 H1183 0.960 . S
C1196 C1195 1.524 . S
C1197 C1194 1.403 . S
C1197 C1198 1.392 . S
C1197 C1201 1.495 . S
C1198 C1197 1.392 . S
C1198 C1199 1.385 . S
C1198 C1200 1.478 . S
C1199 H1193 0.930 . S
C1199 C1195 1.400 . S
C1199 C1198 1.385 . S
C1200 C1198 1.478 . S
C1200 C1202 1.381 . S
C1200 C1206 1.383 . S
C1201 C1197 1.495 . S
C1201 H1207 0.959 . S
C1201 H1208 0.961 . S
C1201 H1209 0.960 . S
C1202 C1200 1.381 . S
C1202 C1203 1.394 . S
C1202 H1210 0.930 . S
C1203 C1202 1.394 . S
C1203 C1204 1.383 . S
C1203 H1211 0.929 . S
C1204 C1203 1.383 . S
C1204 C1205 1.377 . S
C1205 H1189 0.930 . S
C1205 C1204 1.377 . S
C1205 C1206 1.379 . S
C1206 H1190 0.931 . S
C1206 C1200 1.383 . S
C1206 C1205 1.379 . S
H1207 C1201 0.959 . S
H1208 C1201 0.961 . S
H1209 C1201 0.960 . S
H1210 C1202 0.930 . S
H1211 C1203 0.929 . S
H1212 C1220 0.929 . S
H1213 C1222 0.930 . S
H1214 C1224 0.930 . S
H1215 C1227 0.929 . S
H1216 C1230 0.930 . S
H1217 C1232 0.960 . S
H1218 C1232 0.960 . S
H1219 C1232 0.960 . S
C1220 H1212 0.929 . S
C1220 C1221 1.377 . S
C1220 C1222 1.384 . S
C1221 C1220 1.377 . S
C1221 C1227 1.390 . S
C1222 H1213 0.930 . S
C1222 C1220 1.384 . S
C1222 C1223 1.372 . S
C1223 C1222 1.372 . S
C1223 C1224 1.400 . S
C1223 C1228 1.490 . S
C1224 H1214 0.930 . S
C1224 C1223 1.400 . S
C1224 C1227 1.386 . S
H1225 C1241 0.930 . S
H1226 C1242 0.931 . S
C1227 H1215 0.929 . S
C1227 C1221 1.390 . S
C1227 C1224 1.386 . S
C1228 C1223 1.490 . S
C1228 C1230 1.395 . S
C1228 C1231 1.403 . S
H1229 C1235 0.930 . S
C1230 H1216 0.930 . S
C1230 C1228 1.395 . S
C1230 C1233 1.403 1_455 S
C1231 C1228 1.403 . S
C1231 C1232 1.524 . S
C1231 C1235 1.400 1_455 S
C1232 H1217 0.960 . S
C1232 H1218 0.960 . S
C1232 H1219 0.960 . S
C1232 C1231 1.524 . S
C1233 C1230 1.403 1_655 S
C1233 C1234 1.392 . S
C1233 C1237 1.495 . S
C1234 C1233 1.392 . S
C1234 C1235 1.385 . S
C1234 C1236 1.478 . S
C1235 H1229 0.930 . S
C1235 C1231 1.400 1_655 S
C1235 C1234 1.385 . S
C1236 C1234 1.478 . S
C1236 C1238 1.381 . S
C1236 C1242 1.383 . S
C1237 C1233 1.495 . S
C1237 H1243 0.959 . S
C1237 H1244 0.961 . S
C1237 H1245 0.960 . S
C1238 C1236 1.381 . S
C1238 C1239 1.394 . S
C1238 H1246 0.930 . S
C1239 C1238 1.394 . S
C1239 C1240 1.383 . S
C1239 H1247 0.929 . S
C1240 C1239 1.383 . S
C1240 C1241 1.377 . S
C1241 H1225 0.930 . S
C1241 C1240 1.377 . S
C1241 C1242 1.379 . S
C1242 H1226 0.931 . S
C1242 C1236 1.383 . S
C1242 C1241 1.379 . S
H1243 C1237 0.959 . S
H1244 C1237 0.961 . S
H1245 C1237 0.960 . S
H1246 C1238 0.930 . S
H1247 C1239 0.929 . S
H1248 C1256 0.929 . S
H1249 C1258 0.930 . S
H1250 C1260 0.930 . S
H1251 C1263 0.929 . S
H1252 C1266 0.930 . S
H1253 C1268 0.960 . S
H1254 C1268 0.960 . S
H1255 C1268 0.960 . S
C1256 H1248 0.929 . S
C1256 C1257 1.377 . S
C1256 C1258 1.384 . S
C1257 C1256 1.377 . S
C1257 C1263 1.390 . S
C1258 H1249 0.930 . S
C1258 C1256 1.384 . S
C1258 C1259 1.372 . S
C1259 C1258 1.372 . S
C1259 C1260 1.400 . S
C1259 C1264 1.490 . S
C1260 H1250 0.930 . S
C1260 C1259 1.400 . S
C1260 C1263 1.386 . S
H1261 C1277 0.930 . S
H1262 C1278 0.931 . S
C1263 H1251 0.929 . S
C1263 C1257 1.390 . S
C1263 C1260 1.386 . S
C1264 C1259 1.490 . S
C1264 C1266 1.395 . S
C1264 C1267 1.403 . S
H1265 C1271 0.930 . S
C1266 H1252 0.930 . S
C1266 C1264 1.395 . S
C1266 C1269 1.403 1_565 S
C1267 C1264 1.403 . S
C1267 C1268 1.524 . S
C1267 C1271 1.400 1_565 S
C1268 H1253 0.960 . S
C1268 H1254 0.960 . S
C1268 H1255 0.960 . S
C1268 C1267 1.524 . S
C1269 C1266 1.403 1_545 S
C1269 C1270 1.392 . S
C1269 C1273 1.495 . S
C1270 C1269 1.392 . S
C1270 C1271 1.385 . S
C1270 C1272 1.478 . S
C1271 H1265 0.930 . S
C1271 C1267 1.400 1_545 S
C1271 C1270 1.385 . S
C1272 C1270 1.478 . S
C1272 C1274 1.381 . S
C1272 C1278 1.383 . S
C1273 C1269 1.495 . S
C1273 H1279 0.959 . S
C1273 H1280 0.961 . S
C1273 H1281 0.960 . S
C1274 C1272 1.381 . S
C1274 C1275 1.394 . S
C1274 H1282 0.930 . S
C1275 C1274 1.394 . S
C1275 C1276 1.383 . S
C1275 H1283 0.929 . S
C1276 C1275 1.383 . S
C1276 C1277 1.377 . S
C1277 H1261 0.930 . S
C1277 C1276 1.377 . S
C1277 C1278 1.379 . S
C1278 H1262 0.931 . S
C1278 C1272 1.383 . S
C1278 C1277 1.379 . S
H1279 C1273 0.959 . S
H1280 C1273 0.961 . S
H1281 C1273 0.960 . S
H1282 C1274 0.930 . S
H1283 C1275 0.929 . S
H1284 C1292 0.929 . S
H1285 C1294 0.930 . S
H1286 C1296 0.930 . S
H1287 C1299 0.929 . S
H1288 C1302 0.930 . S
H1289 C1304 0.960 . S
H1290 C1304 0.960 . S
H1291 C1304 0.960 . S
C1292 H1284 0.929 . S
C1292 C1293 1.377 . S
C1292 C1294 1.384 . S
C1293 C1292 1.377 . S
C1293 C1299 1.390 . S
C1294 H1285 0.930 . S
C1294 C1292 1.384 . S
C1294 C1295 1.372 . S
C1295 C1294 1.372 . S
C1295 C1296 1.400 . S
C1295 C1300 1.490 . S
C1296 H1286 0.930 . S
C1296 C1295 1.400 . S
C1296 C1299 1.386 . S
H1297 C1313 0.930 . S
H1298 C1314 0.931 . S
C1299 H1287 0.929 . S
C1299 C1293 1.390 . S
C1299 C1296 1.386 . S
C1300 C1295 1.490 . S
C1300 C1302 1.395 . S
C1300 C1303 1.403 . S
H1301 C1307 0.930 . S
C1302 H1288 0.930 . S
C1302 C1300 1.395 . S
C1302 C1305 1.403 . S
C1303 C1300 1.403 . S
C1303 C1304 1.524 . S
C1303 C1307 1.400 . S
C1304 H1289 0.960 . S
C1304 H1290 0.960 . S
C1304 H1291 0.960 . S
C1304 C1303 1.524 . S
C1305 C1302 1.403 . S
C1305 C1306 1.392 . S
C1305 C1309 1.495 . S
C1306 C1305 1.392 . S
C1306 C1307 1.385 . S
C1306 C1308 1.478 . S
C1307 H1301 0.930 . S
C1307 C1303 1.400 . S
C1307 C1306 1.385 . S
C1308 C1306 1.478 . S
C1308 C1310 1.381 . S
C1308 C1314 1.383 . S
C1309 C1305 1.495 . S
C1309 H1315 0.959 . S
C1309 H1316 0.961 . S
C1309 H1317 0.960 . S
C1310 C1308 1.381 . S
C1310 C1311 1.394 . S
C1310 H1318 0.930 . S
C1311 C1310 1.394 . S
C1311 C1312 1.383 . S
C1311 H1319 0.929 . S
C1312 C1311 1.383 . S
C1312 C1313 1.377 . S
C1313 H1297 0.930 . S
C1313 C1312 1.377 . S
C1313 C1314 1.379 . S
C1314 H1298 0.931 . S
C1314 C1308 1.383 . S
C1314 C1313 1.379 . S
H1315 C1309 0.959 . S
H1316 C1309 0.961 . S
H1317 C1309 0.960 . S
H1318 C1310 0.930 . S
H1319 C1311 0.929 . S
H1320 C1328 0.929 . S
H1321 C1330 0.930 . S
H1322 C1332 0.930 . S
H1323 C1335 0.929 . S
H1324 C1338 0.930 . S
H1325 C1340 0.960 . S
H1326 C1340 0.960 . S
H1327 C1340 0.960 . S
C1328 H1320 0.929 . S
C1328 C1329 1.377 . S
C1328 C1330 1.384 . S
C1329 C1328 1.377 . S
C1329 C1335 1.390 . S
C1330 H1321 0.930 . S
C1330 C1328 1.384 . S
C1330 C1331 1.372 . S
C1331 C1330 1.372 . S
C1331 C1332 1.400 . S
C1331 C1336 1.490 . S
C1332 H1322 0.930 . S
C1332 C1331 1.400 . S
C1332 C1335 1.386 . S
H1333 C1349 0.930 . S
H1334 C1350 0.931 . S
C1335 H1323 0.929 . S
C1335 C1329 1.390 . S
C1335 C1332 1.386 . S
C1336 C1331 1.490 . S
C1336 C1338 1.395 . S
C1336 C1339 1.403 . S
H1337 C1343 0.930 . S
C1338 H1324 0.930 . S
C1338 C1336 1.395 . S
C1338 C1341 1.403 . S
C1339 C1336 1.403 . S
C1339 C1340 1.524 . S
C1339 C1343 1.400 . S
C1340 H1325 0.960 . S
C1340 H1326 0.960 . S
C1340 H1327 0.960 . S
C1340 C1339 1.524 . S
C1341 C1338 1.403 . S
C1341 C1342 1.392 . S
C1341 C1345 1.495 . S
C1342 C1341 1.392 . S
C1342 C1343 1.385 . S
C1342 C1344 1.478 . S
C1343 H1337 0.930 . S
C1343 C1339 1.400 . S
C1343 C1342 1.385 . S
C1344 C1342 1.478 . S
C1344 C1346 1.381 . S
C1344 C1350 1.383 . S
C1345 C1341 1.495 . S
C1345 H1351 0.959 . S
C1345 H1352 0.961 . S
C1345 H1353 0.960 . S
C1346 C1344 1.381 . S
C1346 C1347 1.394 . S
C1346 H1354 0.930 . S
C1347 C1346 1.394 . S
C1347 C1348 1.383 . S
C1347 H1355 0.929 . S
C1348 C1347 1.383 . S
C1348 C1349 1.377 . S
C1349 H1333 0.930 . S
C1349 C1348 1.377 . S
C1349 C1350 1.379 . S
C1350 H1334 0.931 . S
C1350 C1344 1.383 . S
C1350 C1349 1.379 . S
H1351 C1345 0.959 . S
H1352 C1345 0.961 . S
H1353 C1345 0.960 . S
H1354 C1346 0.930 . S
H1355 C1347 0.929 . S
H1356 C1364 0.929 . S
H1357 C1366 0.930 . S
H1358 C1368 0.930 . S
H1359 C1371 0.929 . S
H1360 C1374 0.930 . S
H1361 C1376 0.960 . S
H1362 C1376 0.960 . S
H1363 C1376 0.960 . S
C1364 H1356 0.929 . S
C1364 C1365 1.377 . S
C1364 C1366 1.384 . S
C1365 C1364 1.377 . S
C1365 C1371 1.390 . S
C1366 H1357 0.930 . S
C1366 C1364 1.384 . S
C1366 C1367 1.372 . S
C1367 C1366 1.372 . S
C1367 C1368 1.400 . S
C1367 C1372 1.490 . S
C1368 H1358 0.930 . S
C1368 C1367 1.400 . S
C1368 C1371 1.386 . S
H1369 C1385 0.930 . S
H1370 C1386 0.931 . S
C1371 H1359 0.929 . S
C1371 C1365 1.390 . S
C1371 C1368 1.386 . S
C1372 C1367 1.490 . S
C1372 C1374 1.395 . S
C1372 C1375 1.403 . S
H1373 C1379 0.930 . S
C1374 H1360 0.930 . S
C1374 C1372 1.395 . S
C1374 C1377 1.403 . S
C1375 C1372 1.403 . S
C1375 C1376 1.524 . S
C1375 C1379 1.400 . S
C1376 H1361 0.960 . S
C1376 H1362 0.960 . S
C1376 H1363 0.960 . S
C1376 C1375 1.524 . S
C1377 C1374 1.403 . S
C1377 C1378 1.392 . S
C1377 C1381 1.495 . S
C1378 C1377 1.392 . S
C1378 C1379 1.385 . S
C1378 C1380 1.478 . S
C1379 H1373 0.930 . S
C1379 C1375 1.400 . S
C1379 C1378 1.385 . S
C1380 C1378 1.478 . S
C1380 C1382 1.381 . S
C1380 C1386 1.383 . S
C1381 C1377 1.495 . S
C1381 H1387 0.959 . S
C1381 H1388 0.961 . S
C1381 H1389 0.960 . S
C1382 C1380 1.381 . S
C1382 C1383 1.394 . S
C1382 H1390 0.930 . S
C1383 C1382 1.394 . S
C1383 C1384 1.383 . S
C1383 H1391 0.929 . S
C1384 C1383 1.383 . S
C1384 C1385 1.377 . S
C1385 H1369 0.930 . S
C1385 C1384 1.377 . S
C1385 C1386 1.379 . S
C1386 H1370 0.931 . S
C1386 C1380 1.383 . S
C1386 C1385 1.379 . S
H1387 C1381 0.959 . S
H1388 C1381 0.961 . S
H1389 C1381 0.960 . S
H1390 C1382 0.930 . S
H1391 C1383 0.929 . S
H1392 C1400 0.929 . S
H1393 C1402 0.930 . S
H1394 C1404 0.930 . S
H1395 C1407 0.929 . S
H1396 C1410 0.930 . S
H1397 C1412 0.960 . S
H1398 C1412 0.960 . S
H1399 C1412 0.960 . S
C1400 H1392 0.929 . S
C1400 C1401 1.377 . S
C1400 C1402 1.384 . S
C1401 C1400 1.377 . S
C1401 C1407 1.390 . S
C1402 H1393 0.930 . S
C1402 C1400 1.384 . S
C1402 C1403 1.372 . S
C1403 C1402 1.372 . S
C1403 C1404 1.400 . S
C1403 C1408 1.490 . S
C1404 H1394 0.930 . S
C1404 C1403 1.400 . S
C1404 C1407 1.386 . S
H1405 C1421 0.930 . S
H1406 C1422 0.931 . S
C1407 H1395 0.929 . S
C1407 C1401 1.390 . S
C1407 C1404 1.386 . S
C1408 C1403 1.490 . S
C1408 C1410 1.395 . S
C1408 C1411 1.403 . S
H1409 C1415 0.930 . S
C1410 H1396 0.930 . S
C1410 C1408 1.395 . S
C1410 C1413 1.403 . S
C1411 C1408 1.403 . S
C1411 C1412 1.524 . S
C1411 C1415 1.400 . S
C1412 H1397 0.960 . S
C1412 H1398 0.960 . S
C1412 H1399 0.960 . S
C1412 C1411 1.524 . S
C1413 C1410 1.403 . S
C1413 C1414 1.392 . S
C1413 C1417 1.495 . S
C1414 C1413 1.392 . S
C1414 C1415 1.385 . S
C1414 C1416 1.478 . S
C1415 H1409 0.930 . S
C1415 C1411 1.400 . S
C1415 C1414 1.385 . S
C1416 C1414 1.478 . S
C1416 C1418 1.381 . S
C1416 C1422 1.383 . S
C1417 C1413 1.495 . S
C1417 H1423 0.959 . S
C1417 H1424 0.961 . S
C1417 H1425 0.960 . S
C1418 C1416 1.381 . S
C1418 C1419 1.394 . S
C1418 H1426 0.930 . S
C1419 C1418 1.394 . S
C1419 C1420 1.383 . S
C1419 H1427 0.929 . S
C1420 C1419 1.383 . S
C1420 C1421 1.377 . S
C1421 H1405 0.930 . S
C1421 C1420 1.377 . S
C1421 C1422 1.379 . S
C1422 H1406 0.931 . S
C1422 C1416 1.383 . S
C1422 C1421 1.379 . S
H1423 C1417 0.959 . S
H1424 C1417 0.961 . S
H1425 C1417 0.960 . S
H1426 C1418 0.930 . S
H1427 C1419 0.929 . S
H1428 C1436 0.929 . S
H1429 C1438 0.930 . S
H1430 C1440 0.930 . S
H1431 C1443 0.929 . S
H1432 C1446 0.930 . S
H1433 C1448 0.960 . S
H1434 C1448 0.960 . S
H1435 C1448 0.960 . S
C1436 H1428 0.929 . S
C1436 C1437 1.377 . S
C1436 C1438 1.384 . S
C1437 C1436 1.377 . S
C1437 C1443 1.390 . S
C1438 H1429 0.930 . S
C1438 C1436 1.384 . S
C1438 C1439 1.372 . S
C1439 C1438 1.372 . S
C1439 C1440 1.400 . S
C1439 C1444 1.490 . S
C1440 H1430 0.930 . S
C1440 C1439 1.400 . S
C1440 C1443 1.386 . S
H1441 C1457 0.930 . S
H1442 C1458 0.931 . S
C1443 H1431 0.929 . S
C1443 C1437 1.390 . S
C1443 C1440 1.386 . S
C1444 C1439 1.490 . S
C1444 C1446 1.395 . S
C1444 C1447 1.403 . S
H1445 C1451 0.930 . S
C1446 H1432 0.930 . S
C1446 C1444 1.395 . S
C1446 C1449 1.403 . S
C1447 C1444 1.403 . S
C1447 C1448 1.524 . S
C1447 C1451 1.400 . S
C1448 H1433 0.960 . S
C1448 H1434 0.960 . S
C1448 H1435 0.960 . S
C1448 C1447 1.524 . S
C1449 C1446 1.403 . S
C1449 C1450 1.392 . S
C1449 C1453 1.495 . S
C1450 C1449 1.392 . S
C1450 C1451 1.385 . S
C1450 C1452 1.478 . S
C1451 H1445 0.930 . S
C1451 C1447 1.400 . S
C1451 C1450 1.385 . S
C1452 C1450 1.478 . S
C1452 C1454 1.381 . S
C1452 C1458 1.383 . S
C1453 C1449 1.495 . S
C1453 H1459 0.959 . S
C1453 H1460 0.961 . S
C1453 H1461 0.960 . S
C1454 C1452 1.381 . S
C1454 C1455 1.394 . S
C1454 H1462 0.930 . S
C1455 C1454 1.394 . S
C1455 C1456 1.383 . S
C1455 H1463 0.929 . S
C1456 C1455 1.383 . S
C1456 C1457 1.377 . S
C1457 H1441 0.930 . S
C1457 C1456 1.377 . S
C1457 C1458 1.379 . S
C1458 H1442 0.931 . S
C1458 C1452 1.383 . S
C1458 C1457 1.379 . S
H1459 C1453 0.959 . S
H1460 C1453 0.961 . S
H1461 C1453 0.960 . S
H1462 C1454 0.930 . S
H1463 C1455 0.929 . S
H1464 C1472 0.929 . S
H1465 C1474 0.930 . S
H1466 C1476 0.930 . S
H1467 C1479 0.929 . S
H1468 C1482 0.930 . S
H1469 C1484 0.960 . S
H1470 C1484 0.960 . S
H1471 C1484 0.960 . S
C1472 H1464 0.929 . S
C1472 C1473 1.377 . S
C1472 C1474 1.384 . S
C1473 C1472 1.377 . S
C1473 C1479 1.390 . S
C1474 H1465 0.930 . S
C1474 C1472 1.384 . S
C1474 C1475 1.372 . S
C1475 C1474 1.372 . S
C1475 C1476 1.400 . S
C1475 C1480 1.490 . S
C1476 H1466 0.930 . S
C1476 C1475 1.400 . S
C1476 C1479 1.386 . S
H1477 C1493 0.930 . S
H1478 C1494 0.931 . S
C1479 H1467 0.929 . S
C1479 C1473 1.390 . S
C1479 C1476 1.386 . S
C1480 C1475 1.490 . S
C1480 C1482 1.395 . S
C1480 C1483 1.403 . S
H1481 C1487 0.930 . S
C1482 H1468 0.930 . S
C1482 C1480 1.395 . S
C1482 C1485 1.403 . S
C1483 C1480 1.403 . S
C1483 C1484 1.524 . S
C1483 C1487 1.400 . S
C1484 H1469 0.960 . S
C1484 H1470 0.960 . S
C1484 H1471 0.960 . S
C1484 C1483 1.524 . S
C1485 C1482 1.403 . S
C1485 C1486 1.392 . S
C1485 C1489 1.495 . S
C1486 C1485 1.392 . S
C1486 C1487 1.385 . S
C1486 C1488 1.478 . S
C1487 H1481 0.930 . S
C1487 C1483 1.400 . S
C1487 C1486 1.385 . S
C1488 C1486 1.478 . S
C1488 C1490 1.381 . S
C1488 C1494 1.383 . S
C1489 C1485 1.495 . S
C1489 H1495 0.959 . S
C1489 H1496 0.961 . S
C1489 H1497 0.960 . S
C1490 C1488 1.381 . S
C1490 C1491 1.394 . S
C1490 H1498 0.930 . S
C1491 C1490 1.394 . S
C1491 C1492 1.383 . S
C1491 H1499 0.929 . S
C1492 C1491 1.383 . S
C1492 C1493 1.377 . S
C1493 H1477 0.930 . S
C1493 C1492 1.377 . S
C1493 C1494 1.379 . S
C1494 H1478 0.931 . S
C1494 C1488 1.383 . S
C1494 C1493 1.379 . S
H1495 C1489 0.959 . S
H1496 C1489 0.961 . S
H1497 C1489 0.960 . S
H1498 C1490 0.930 . S
H1499 C1491 0.929 . S
C645 C22 1.647 . S
C664 C340 1.647 . S
C681 C75 1.646 . S
C700 C393 1.646 . S
C717 C128 1.647 . S
C736 C446 1.647 . S
C753 C181 1.646 . S
C772 C499 1.638 . S
C789 C234 1.645 . S
C808 C552 1.637 . S
C825 C605 1.645 . S
C844 C287 1.638 . S
C861 C38 1.906 . S
C880 C568 1.897 . S
C897 C91 1.903 . S
C916 C621 1.906 . S
C933 C144 1.906 . S
C952 C356 1.899 . S
C969 C197 1.902 . S
C988 C409 1.894 . S
C1005 C250 1.902 . S
C1024 C462 1.900 . S
C1041 C303 1.903 . S
C1060 C515 1.905 . S
C1077 C39 1.964 . S
C1096 C198 1.963 . S
C1113 C92 1.965 . S
C1132 C251 1.969 . S
C1149 C304 1.958 . S
C1168 C145 1.949 . S
C1185 C357 1.964 . S
C1204 C516 1.965 . S
C1221 C569 1.963 . S
C1240 C410 1.957 . S
C1257 C463 1.960 . S
C1276 C622 1.945 . S
C1293 C347 1.290 . S
C1312 C29 1.293 . S
C1329 C82 1.290 . S
C1348 C400 1.290 . S
C1365 C135 1.287 . S
C1384 C453 1.280 . S
C1401 C506 1.286 . S
C1420 C188 1.277 . S
C1437 C559 1.288 . S
C1456 C241 1.283 . S
C1473 C294 1.286 . S
C1492 C612 1.275 . S
