# Generated by pormake.
# Topology wlr, (5)-cn, num edge types: 1
# Building blocks:
#     Node 0, Type 0, BuildingBlock: BEQFEK_clean_sbu_0, # of connection points: 5
#     Node 1, Type 0, BuildingBlock: BEQFEK_clean_sbu_0, # of connection points: 5
#     Node 2, Type 0, BuildingBlock: BEQFEK_clean_sbu_0, # of connection points: 5
#     Node 3, Type 0, BuildingBlock: BEQFEK_clean_sbu_0, # of connection points: 5
#     Node 4, Type 0, BuildingBlock: BEQFEK_clean_sbu_0, # of connection points: 5
#     Node 5, Type 0, BuildingBlock: BEQFEK_clean_sbu_0, # of connection points: 5
#     Node 6, Type 0, BuildingBlock: BEQFEK_clean_sbu_0, # of connection points: 5
#     Node 7, Type 0, BuildingBlock: BEQFEK_clean_sbu_0, # of connection points: 5
#     Node 8, Type 0, BuildingBlock: BEQFEK_clean_sbu_0, # of connection points: 5
#     Node 9, Type 0, BuildingBlock: BEQFEK_clean_sbu_0, # of connection points: 5
#     Node 10, Type 0, BuildingBlock: BEQFEK_clean_sbu_0, # of connection points: 5
#     Node 11, Type 0, BuildingBlock: BEQFEK_clean_sbu_0, # of connection points: 5
#     Node 12, Type 0, BuildingBlock: BEQFEK_clean_sbu_0, # of connection points: 5
#     Node 13, Type 0, BuildingBlock: BEQFEK_clean_sbu_0, # of connection points: 5
#     Node 14, Type 0, BuildingBlock: BEQFEK_clean_sbu_0, # of connection points: 5
#     Node 15, Type 0, BuildingBlock: BEQFEK_clean_sbu_0, # of connection points: 5
#     Node 16, Type 0, BuildingBlock: BEQFEK_clean_sbu_0, # of connection points: 5
#     Node 17, Type 0, BuildingBlock: BEQFEK_clean_sbu_0, # of connection points: 5
#     Node 18, Type 0, BuildingBlock: BEQFEK_clean_sbu_0, # of connection points: 5
#     Node 19, Type 0, BuildingBlock: BEQFEK_clean_sbu_0, # of connection points: 5
#     Node 20, Type 0, BuildingBlock: BEQFEK_clean_sbu_0, # of connection points: 5
#     Node 21, Type 0, BuildingBlock: BEQFEK_clean_sbu_0, # of connection points: 5
#     Node 22, Type 0, BuildingBlock: BEQFEK_clean_sbu_0, # of connection points: 5
#     Node 23, Type 0, BuildingBlock: BEQFEK_clean_sbu_0, # of connection points: 5
#     Node 24, Type 0, BuildingBlock: BEQFEK_clean_sbu_0, # of connection points: 5
#     Node 25, Type 0, BuildingBlock: BEQFEK_clean_sbu_0, # of connection points: 5
#     Node 26, Type 0, BuildingBlock: BEQFEK_clean_sbu_0, # of connection points: 5
#     Node 27, Type 0, BuildingBlock: BEQFEK_clean_sbu_0, # of connection points: 5
#     Node 28, Type 0, BuildingBlock: BEQFEK_clean_sbu_0, # of connection points: 5
#     Node 29, Type 0, BuildingBlock: BEQFEK_clean_sbu_0, # of connection points: 5
#     Node 30, Type 0, BuildingBlock: BEQFEK_clean_sbu_0, # of connection points: 5
#     Node 31, Type 0, BuildingBlock: BEQFEK_clean_sbu_0, # of connection points: 5
#     Node 32, Type 0, BuildingBlock: BEQFEK_clean_sbu_0, # of connection points: 5
#     Node 33, Type 0, BuildingBlock: BEQFEK_clean_sbu_0, # of connection points: 5
#     Node 34, Type 0, BuildingBlock: BEQFEK_clean_sbu_0, # of connection points: 5
#     Node 35, Type 0, BuildingBlock: BEQFEK_clean_sbu_0, # of connection points: 5
#     Edge 36, Type (0, 0), BuildingBlock: KIFKEQ_clean_linker_1, # of connection points: 2
#     Edge 37, Type (0, 0), BuildingBlock: KIFKEQ_clean_linker_1, # of connection points: 2
#     Edge 38, Type (0, 0), BuildingBlock: KIFKEQ_clean_linker_1, # of connection points: 2
#     Edge 39, Type (0, 0), BuildingBlock: KIFKEQ_clean_linker_1, # of connection points: 2
#     Edge 40, Type (0, 0), BuildingBlock: KIFKEQ_clean_linker_1, # of connection points: 2
#     Edge 41, Type (0, 0), BuildingBlock: KIFKEQ_clean_linker_1, # of connection points: 2
#     Edge 42, Type (0, 0), BuildingBlock: KIFKEQ_clean_linker_1, # of connection points: 2
#     Edge 43, Type (0, 0), BuildingBlock: KIFKEQ_clean_linker_1, # of connection points: 2
#     Edge 44, Type (0, 0), BuildingBlock: KIFKEQ_clean_linker_1, # of connection points: 2
#     Edge 45, Type (0, 0), BuildingBlock: KIFKEQ_clean_linker_1, # of connection points: 2
#     Edge 46, Type (0, 0), BuildingBlock: KIFKEQ_clean_linker_1, # of connection points: 2
#     Edge 47, Type (0, 0), BuildingBlock: KIFKEQ_clean_linker_1, # of connection points: 2
#     Edge 48, Type (0, 0), BuildingBlock: KIFKEQ_clean_linker_1, # of connection points: 2
#     Edge 49, Type (0, 0), BuildingBlock: KIFKEQ_clean_linker_1, # of connection points: 2
#     Edge 50, Type (0, 0), BuildingBlock: KIFKEQ_clean_linker_1, # of connection points: 2
#     Edge 51, Type (0, 0), BuildingBlock: KIFKEQ_clean_linker_1, # of connection points: 2
#     Edge 52, Type (0, 0), BuildingBlock: KIFKEQ_clean_linker_1, # of connection points: 2
#     Edge 53, Type (0, 0), BuildingBlock: KIFKEQ_clean_linker_1, # of connection points: 2
#     Edge 54, Type (0, 0), BuildingBlock: KIFKEQ_clean_linker_1, # of connection points: 2
#     Edge 55, Type (0, 0), BuildingBlock: KIFKEQ_clean_linker_1, # of connection points: 2
#     Edge 56, Type (0, 0), BuildingBlock: KIFKEQ_clean_linker_1, # of connection points: 2
#     Edge 57, Type (0, 0), BuildingBlock: KIFKEQ_clean_linker_1, # of connection points: 2
#     Edge 58, Type (0, 0), BuildingBlock: KIFKEQ_clean_linker_1, # of connection points: 2
#     Edge 59, Type (0, 0), BuildingBlock: KIFKEQ_clean_linker_1, # of connection points: 2
#     Edge 60, Type (0, 0), BuildingBlock: KIFKEQ_clean_linker_1, # of connection points: 2
#     Edge 61, Type (0, 0), BuildingBlock: KIFKEQ_clean_linker_1, # of connection points: 2
#     Edge 62, Type (0, 0), BuildingBlock: KIFKEQ_clean_linker_1, # of connection points: 2
#     Edge 63, Type (0, 0), BuildingBlock: KIFKEQ_clean_linker_1, # of connection points: 2
#     Edge 64, Type (0, 0), BuildingBlock: KIFKEQ_clean_linker_1, # of connection points: 2
#     Edge 65, Type (0, 0), BuildingBlock: KIFKEQ_clean_linker_1, # of connection points: 2
#     Edge 66, Type (0, 0), BuildingBlock: KIFKEQ_clean_linker_1, # of connection points: 2
#     Edge 67, Type (0, 0), BuildingBlock: KIFKEQ_clean_linker_1, # of connection points: 2
#     Edge 68, Type (0, 0), BuildingBlock: KIFKEQ_clean_linker_1, # of connection points: 2
#     Edge 69, Type (0, 0), BuildingBlock: KIFKEQ_clean_linker_1, # of connection points: 2
#     Edge 70, Type (0, 0), BuildingBlock: KIFKEQ_clean_linker_1, # of connection points: 2
#     Edge 71, Type (0, 0), BuildingBlock: KIFKEQ_clean_linker_1, # of connection points: 2
#     Edge 72, Type (0, 0), BuildingBlock: KIFKEQ_clean_linker_1, # of connection points: 2
#     Edge 73, Type (0, 0), BuildingBlock: KIFKEQ_clean_linker_1, # of connection points: 2
#     Edge 74, Type (0, 0), BuildingBlock: KIFKEQ_clean_linker_1, # of connection points: 2
#     Edge 75, Type (0, 0), BuildingBlock: KIFKEQ_clean_linker_1, # of connection points: 2
#     Edge 76, Type (0, 0), BuildingBlock: KIFKEQ_clean_linker_1, # of connection points: 2
#     Edge 77, Type (0, 0), BuildingBlock: KIFKEQ_clean_linker_1, # of connection points: 2
#     Edge 78, Type (0, 0), BuildingBlock: KIFKEQ_clean_linker_1, # of connection points: 2
#     Edge 79, Type (0, 0), BuildingBlock: KIFKEQ_clean_linker_1, # of connection points: 2
#     Edge 80, Type (0, 0), BuildingBlock: KIFKEQ_clean_linker_1, # of connection points: 2
#     Edge 81, Type (0, 0), BuildingBlock: KIFKEQ_clean_linker_1, # of connection points: 2
#     Edge 82, Type (0, 0), BuildingBlock: KIFKEQ_clean_linker_1, # of connection points: 2
#     Edge 83, Type (0, 0), BuildingBlock: KIFKEQ_clean_linker_1, # of connection points: 2
#     Edge 84, Type (0, 0), BuildingBlock: KIFKEQ_clean_linker_1, # of connection points: 2
#     Edge 85, Type (0, 0), BuildingBlock: KIFKEQ_clean_linker_1, # of connection points: 2
#     Edge 86, Type (0, 0), BuildingBlock: KIFKEQ_clean_linker_1, # of connection points: 2
#     Edge 87, Type (0, 0), BuildingBlock: KIFKEQ_clean_linker_1, # of connection points: 2
#     Edge 88, Type (0, 0), BuildingBlock: KIFKEQ_clean_linker_1, # of connection points: 2
#     Edge 89, Type (0, 0), BuildingBlock: KIFKEQ_clean_linker_1, # of connection points: 2
#     Edge 90, Type (0, 0), BuildingBlock: KIFKEQ_clean_linker_1, # of connection points: 2
#     Edge 91, Type (0, 0), BuildingBlock: KIFKEQ_clean_linker_1, # of connection points: 2
#     Edge 92, Type (0, 0), BuildingBlock: KIFKEQ_clean_linker_1, # of connection points: 2
#     Edge 93, Type (0, 0), BuildingBlock: KIFKEQ_clean_linker_1, # of connection points: 2
#     Edge 94, Type (0, 0), BuildingBlock: KIFKEQ_clean_linker_1, # of connection points: 2
#     Edge 95, Type (0, 0), BuildingBlock: KIFKEQ_clean_linker_1, # of connection points: 2
#     Edge 96, Type (0, 0), BuildingBlock: KIFKEQ_clean_linker_1, # of connection points: 2
#     Edge 97, Type (0, 0), BuildingBlock: KIFKEQ_clean_linker_1, # of connection points: 2
#     Edge 98, Type (0, 0), BuildingBlock: KIFKEQ_clean_linker_1, # of connection points: 2
#     Edge 99, Type (0, 0), BuildingBlock: KIFKEQ_clean_linker_1, # of connection points: 2
#     Edge 100, Type (0, 0), BuildingBlock: KIFKEQ_clean_linker_1, # of connection points: 2
#     Edge 101, Type (0, 0), BuildingBlock: KIFKEQ_clean_linker_1, # of connection points: 2
#     Edge 102, Type (0, 0), BuildingBlock: KIFKEQ_clean_linker_1, # of connection points: 2
#     Edge 103, Type (0, 0), BuildingBlock: KIFKEQ_clean_linker_1, # of connection points: 2
#     Edge 104, Type (0, 0), BuildingBlock: KIFKEQ_clean_linker_1, # of connection points: 2
#     Edge 105, Type (0, 0), BuildingBlock: KIFKEQ_clean_linker_1, # of connection points: 2
#     Edge 106, Type (0, 0), BuildingBlock: KIFKEQ_clean_linker_1, # of connection points: 2
#     Edge 107, Type (0, 0), BuildingBlock: KIFKEQ_clean_linker_1, # of connection points: 2
#     Edge 108, Type (0, 0), BuildingBlock: KIFKEQ_clean_linker_1, # of connection points: 2
#     Edge 109, Type (0, 0), BuildingBlock: KIFKEQ_clean_linker_1, # of connection points: 2
#     Edge 110, Type (0, 0), BuildingBlock: KIFKEQ_clean_linker_1, # of connection points: 2
#     Edge 111, Type (0, 0), BuildingBlock: KIFKEQ_clean_linker_1, # of connection points: 2
#     Edge 112, Type (0, 0), BuildingBlock: KIFKEQ_clean_linker_1, # of connection points: 2
#     Edge 113, Type (0, 0), BuildingBlock: KIFKEQ_clean_linker_1, # of connection points: 2
#     Edge 114, Type (0, 0), BuildingBlock: KIFKEQ_clean_linker_1, # of connection points: 2
#     Edge 115, Type (0, 0), BuildingBlock: KIFKEQ_clean_linker_1, # of connection points: 2
#     Edge 116, Type (0, 0), BuildingBlock: KIFKEQ_clean_linker_1, # of connection points: 2
#     Edge 117, Type (0, 0), BuildingBlock: KIFKEQ_clean_linker_1, # of connection points: 2
#     Edge 118, Type (0, 0), BuildingBlock: KIFKEQ_clean_linker_1, # of connection points: 2
#     Edge 119, Type (0, 0), BuildingBlock: KIFKEQ_clean_linker_1, # of connection points: 2
#     Edge 120, Type (0, 0), BuildingBlock: KIFKEQ_clean_linker_1, # of connection points: 2
#     Edge 121, Type (0, 0), BuildingBlock: KIFKEQ_clean_linker_1, # of connection points: 2
#     Edge 122, Type (0, 0), BuildingBlock: KIFKEQ_clean_linker_1, # of connection points: 2
#     Edge 123, Type (0, 0), BuildingBlock: KIFKEQ_clean_linker_1, # of connection points: 2
#     Edge 124, Type (0, 0), BuildingBlock: KIFKEQ_clean_linker_1, # of connection points: 2
#     Edge 125, Type (0, 0), BuildingBlock: KIFKEQ_clean_linker_1, # of connection points: 2
# Relax obj value: 0.099
# Max RMSD: 0.109
# Mean RMSD: 0.109
data_MOF--net-wlr--node1-BEQFEK_clean_sbu_0--edge1-KIFKEQ_clean_linker_1
_symmetry_space_group_name_H-M    P1
_symmetry_Int_Tables_number       1
_symmetry_cell_setting            triclinic
loop_
_symmetry_equiv_pos_as_xyz
'x, y, z'
_cell_length_a     75.008151
_cell_length_b     75.012457
_cell_length_c     40.777328
_cell_angle_alpha  90.004541
_cell_angle_beta   89.961008
_cell_angle_gamma 120.06181
loop_
_atom_site_label
_atom_site_type_symbol
_atom_site_fract_x
_atom_site_fract_y
_atom_site_fract_z
_atom_type_partial_charge
Co0 Co 0.28673 0.21009 0.07677 0.0
Co1 Co 0.24868 0.2097 0.04551 0.0
C2 C 0.29189 0.23696 0.01897 0.0
O3 O 0.29887 0.23055 0.04173 0.0
O4 O 0.27251 0.23034 0.01643 0.0
C5 C 0.32476 0.22154 0.11549 0.0
O6 O 0.33001 0.24105 0.11742 0.0
C7 C 0.21646 0.22038 0.02451 0.0
C8 C 0.1887 0.19007 0.03308 0.0
C9 C 0.19494 0.20999 0.02314 0.0
N10 N 0.22241 0.20712 0.03516 0.0
N11 N 0.20567 0.18906 0.04002 0.0
C12 C 0.23115 0.24221 0.01504 0.0
H13 H 0.24634 0.2441 1.0084 0.0
H14 H 0.23338 0.25244 0.03616 0.0
H15 H 0.22495 0.24692 0.99415 0.0
C16 C 0.27006 0.21797 0.13735 0.0
N17 N 0.26969 0.21508 0.10471 0.0
N18 N 0.25419 0.21613 0.09176 0.0
C19 C 0.2445 0.22036 0.11599 0.0
C20 C 0.25431 0.22175 0.14578 0.0
C21 C 0.28394 0.21511 0.16047 0.0
H22 H 0.28644 0.20256 0.15167 0.0
H23 H 0.29899 0.22959 0.16174 0.0
H24 H 0.27727 0.21117 0.18551 0.0
O25 O 0.27166 0.18262 0.05801 0.0
O26 O 0.24385 0.18101 0.03667 0.0
H27 H 0.2127 0.20875 0.10527 0.0
H28 H 0.22384 0.23095 0.13207 0.0
C29 C 0.22671 0.22375 0.11048 0.0
H30 H 0.22989 0.23388 0.08893 0.0
H31 H 0.2058 0.17603 0.0486 0.0
O32 O 0.30843 0.20879 0.10071 0.0
C33 C 0.25469 0.17269 0.04298 0.0
Co34 Co 0.80431 0.07765 0.08396 0.0
Co35 Co 0.80696 0.04194 0.04925 0.0
C36 C 0.77952 0.05793 0.02339 0.0
O37 O 0.78502 0.07051 0.04727 0.0
O38 O 0.78653 0.04552 0.02039 0.0
C39 C 0.80997 0.11623 0.10228 0.0
O40 O 0.81574 0.12068 0.07151 0.0
C41 C 0.79675 0.99967 0.02629 0.0
C42 C 0.82751 1.00277 0.03107 0.0
C43 C 0.80727 0.98876 0.02308 0.0
N44 N 0.81022 0.01901 0.03625 0.0
N45 N 0.82856 0.02068 0.03873 0.0
C46 C 0.77454 0.99222 0.01928 0.0
H47 H 0.77223 1.00539 1.01362 0.0
H48 H 0.76517 0.98423 0.04121 0.0
H49 H 0.76911 0.98123 0.99844 0.0
C50 C 0.79611 0.05125 0.14168 0.0
N51 N 0.79922 0.0546 0.10921 0.0
N52 N 0.79971 0.03905 0.0953 0.0
C53 C 0.7966 0.02502 0.11886 0.0
C54 C 0.7941 0.03227 0.14912 0.0
C55 C 0.79767 0.06722 0.1654 0.0
H56 H 0.81193 0.082 0.16023 0.0
H57 H 0.78432 0.06958 0.16198 0.0
H58 H 0.79824 0.06297 0.19124 0.0
O59 O 0.83263 0.09181 0.06734 0.0
O60 O 0.8353 0.0669 0.04294 0.0
H61 H 0.81149 0.00824 0.10492 0.0
H62 H 0.79092 0.99499 0.13445 0.0
C63 C 0.79597 1.00508 0.11251 0.0
H64 H 0.78513 0.9969 0.0922 0.0
H65 H 0.8418 0.03401 0.0464 0.0
O66 O 0.8027 0.09784 0.11215 0.0
C67 C 0.84313 0.08573 0.05142 0.0
Co68 Co 0.93579 0.72714 0.08289 0.0
Co69 Co 0.97014 0.76634 0.04753 0.0
C70 C 0.95592 0.72289 0.02271 0.0
O71 O 0.94365 0.71507 0.04684 0.0
O72 O 0.96709 0.74244 0.01937 0.0
C73 C 0.91337 0.68883 0.12199 0.0
O74 O 0.92859 0.68504 0.11905 0.0
C75 C 0.01308 0.79842 0.02886 0.0
C76 C 1.00815 0.82437 0.01724 0.0
C77 C 0.02346 0.81921 0.01959 0.0
N78 N 0.99285 0.79203 0.03207 0.0
N79 N 0.99008 0.80762 0.02473 0.0
C80 C 0.02203 0.78504 0.0367 0.0
H81 H 0.01077 0.77121 0.05062 0.0
H82 H 0.03642 0.79376 0.0511 0.0
H83 H 0.02571 0.77983 1.01351 0.0
C84 C 0.96214 0.74678 0.14073 0.0
N85 N 0.95858 0.74599 0.10823 0.0
N86 N 0.97325 0.76276 0.09409 0.0
C87 C 0.98668 0.77476 0.11768 0.0
C88 C 0.98008 0.76493 0.14788 0.0
C89 C 0.94837 0.73053 0.16463 0.0
H90 H 0.93237 0.72745 0.16183 0.0
H91 H 0.94859 0.71617 0.15928 0.0
H92 H 0.95338 0.73498 0.19036 0.0
O93 O 0.9212 0.74088 0.06617 0.0
O94 O 0.9449 0.76888 0.04078 0.0
H95 H 1.00013 0.80436 0.09437 0.0
H96 H 1.00921 0.80483 0.13563 0.0
C97 C 1.00439 0.79603 0.1123 0.0
H98 H 0.01764 0.79503 0.10254 0.0
H99 H 0.97587 0.80698 0.02562 0.0
O100 O 0.91464 0.70493 0.10967 0.0
C101 C 0.92635 0.75726 0.05012 0.0
Co102 Co 0.21573 0.28446 0.44496 0.0
Co103 Co 0.21318 0.24569 0.47776 0.0
C104 C 0.24051 0.28866 0.50515 0.0
O105 O 0.23482 0.29593 0.48184 0.0
O106 O 0.23364 0.26922 0.50751 0.0
C107 C 0.20744 0.31534 0.43129 0.0
O108 O 0.20134 0.31144 0.46198 0.0
C109 C 0.22282 0.2129 0.49892 0.0
C110 C 0.19196 0.18554 0.49233 0.0
C111 C 0.212 0.1914 0.50094 0.0
N112 N 0.20969 0.21919 0.48907 0.0
N113 N 0.19129 0.2027 0.48546 0.0
C114 C 0.24495 0.22728 0.50708 0.0
H115 H 0.24737 0.24269 0.51364 0.0
H116 H 0.25464 0.22908 0.48539 0.0
H117 H 0.24991 0.22108 0.52765 0.0
C118 C 0.22499 0.26795 0.38629 0.0
N119 N 0.22123 0.26731 0.41865 0.0
N120 N 0.22065 0.25102 0.43175 0.0
C121 C 0.22436 0.2408 0.40773 0.0
C122 C 0.22731 0.25127 0.37805 0.0
C123 C 0.22425 0.28321 0.36343 0.0
H124 H 0.21026 0.28422 0.36858 0.0
H125 H 0.23789 0.29863 0.36777 0.0
H126 H 0.22386 0.27888 0.33734 0.0
O127 O 0.1873 0.26943 0.46079 0.0
O128 O 0.18473 0.24187 0.48481 0.0
H129 H 0.20995 0.20885 0.4199 0.0
H130 H 0.23112 0.21733 0.39123 0.0
C131 C 0.22546 0.22167 0.41323 0.0
H132 H 0.236 0.22416 0.43391 0.0
H133 H 0.17827 0.20312 0.47762 0.0
O134 O 0.21685 0.30684 0.41895 0.0
C135 C 0.17679 0.25273 0.47639 0.0
Co136 Co 0.73474 0.9347 0.44737 0.0
Co137 Co 0.77221 0.9706 0.48268 0.0
C138 C 0.72737 0.95414 0.50476 0.0
O139 O 0.72054 0.94149 0.48095 0.0
O140 O 0.74679 0.96625 0.50865 0.0
C141 C 0.6976 0.90589 0.40768 0.0
O142 O 0.68778 0.91603 0.41284 0.0
C143 C 0.80306 0.01431 0.49961 0.0
C144 C 0.82722 0.00983 0.52254 0.0
C145 C 0.82248 0.02478 0.5139 0.0
N146 N 0.79673 0.99403 0.49949 0.0
N147 N 0.81128 0.99155 0.51337 0.0
C148 C 0.7902 0.02323 0.48837 0.0
H149 H 0.77606 0.01135 0.47587 0.0
H150 H 0.7992 0.03641 0.47165 0.0
H151 H 0.7858 0.0292 0.50995 0.0
C152 C 0.75353 0.96091 0.3894 0.0
N153 N 0.75307 0.9577 0.42195 0.0
N154 N 0.76946 0.97299 0.43579 0.0
C155 C 0.78111 0.98634 0.41185 0.0
C156 C 0.77131 0.97911 0.38175 0.0
C157 C 0.73699 0.94685 0.36617 0.0
H158 H 0.73689 0.93203 0.36457 0.0
H159 H 0.72184 0.94368 0.3757 0.0
H160 H 0.7392 0.95362 0.3413 0.0
O161 O 0.74885 0.92156 0.46789 0.0
O162 O 0.77666 0.94669 0.49116 0.0
H163 H 0.81006 1.00182 0.43736 0.0
H164 H 0.81152 0.00794 0.39416 0.0
C165 C 0.80211 1.00458 0.41677 0.0
H166 H 0.80065 0.01825 0.42233 0.0
H167 H 0.81042 0.97734 0.51647 0.0
O168 O 0.71542 0.91235 0.41943 0.0
C169 C 0.76537 0.92774 0.48394 0.0
Co170 Co 0.08022 0.7986 0.44361 0.0
Co171 Co 0.04534 0.80205 0.47924 0.0
C172 C 0.06077 0.77402 0.50431 0.0
O173 O 0.07314 0.77932 0.48018 0.0
O174 O 0.04868 0.78136 0.50774 0.0
C175 C 0.11808 0.80285 0.42517 0.0
O176 O 0.12241 0.80795 0.45618 0.0
C177 C 1.00353 0.79227 0.50344 0.0
C178 C 1.00696 0.82322 0.49962 0.0
C179 C 0.99288 0.80298 0.50754 0.0
N180 N 0.0228 0.80564 0.49309 0.0
N181 N 0.02469 0.82409 0.49115 0.0
C182 C 0.99592 0.76998 0.51003 0.0
H183 H 1.00901 0.76747 0.51514 0.0
H184 H 0.98771 0.76079 0.4881 0.0
H185 H 0.98509 0.76452 0.5311 0.0
C186 C 0.05334 0.79042 0.38659 0.0
N187 N 0.05708 0.79378 0.41892 0.0
N188 N 0.04188 0.79474 0.43322 0.0
C189 C 0.02772 0.79179 0.41002 0.0
C190 C 0.03448 0.78882 0.37963 0.0
C191 C 0.06879 0.79121 0.36248 0.0
H192 H 0.08379 0.80539 0.36679 0.0
H193 H 0.07091 0.77774 0.36639 0.0
H194 H 0.06419 0.79137 0.33672 0.0
O195 O 0.095 0.827 0.45998 0.0
O196 O 0.07061 0.83019 0.48514 0.0
H197 H 0.01177 0.80736 0.42497 0.0
H198 H 0.99801 0.78725 0.39495 0.0
C199 C 1.00812 0.79178 0.41683 0.0
H200 H 0.99973 0.78082 0.43694 0.0
H201 H 0.03802 0.83729 0.48337 0.0
O202 O 0.09989 0.79645 0.41506 0.0
C203 C 0.08933 0.83774 0.47618 0.0
Co204 Co 0.73128 0.80038 0.94595 0.0
Co205 Co 0.76904 0.80255 0.98155 0.0
C206 C 0.7249 0.77506 1.00568 0.0
O207 O 0.71814 0.78085 0.98179 0.0
O208 O 0.74427 0.78195 1.00912 0.0
C209 C 0.7015 0.80979 0.92996 0.0
O210 O 0.70448 0.8152 0.961 0.0
C211 C 0.79961 0.78983 1.00055 0.0
C212 C 0.82568 0.81986 0.01605 0.0
C213 C 0.81972 0.79931 1.01219 0.0
N214 N 0.79402 0.80425 0.99738 0.0
N215 N 0.80971 0.82212 1.00682 0.0
C216 C 0.78555 0.76734 0.99465 0.0
H217 H 0.77105 0.76457 0.98281 0.0
H218 H 0.79329 0.76109 0.97913 0.0
H219 H 0.78187 0.75909 0.01847 0.0
C220 C 0.74911 0.79142 0.88881 0.0
N221 N 0.74903 0.79481 0.92117 0.0
N222 N 0.76546 0.79606 0.935 0.0
C223 C 0.77676 0.79366 0.91124 0.0
C224 C 0.7666 0.7904 0.8812 0.0
C225 C 0.73377 0.79148 0.86533 0.0
H226 H 0.73355 0.80608 0.86812 0.0
H227 H 0.71818 0.7786 0.87144 0.0
H228 H 0.73742 0.79014 0.83944 0.0
O229 O 0.74626 0.82862 0.96292 0.0
O230 O 0.77336 0.83114 0.98846 0.0
H231 H 0.80654 0.80752 0.93388 0.0
H232 H 0.8054 0.7964 0.89399 0.0
C233 C 0.7969 0.79459 0.91711 0.0
H234 H 0.79394 0.78004 0.92878 0.0
H235 H 0.80962 0.83598 1.00676 0.0
O236 O 0.71014 0.80041 0.91803 0.0
C237 C 0.76264 0.83909 0.97928 0.0
Co238 Co 0.21237 0.9348 0.94264 0.0
Co239 Co 0.20892 0.96973 0.97786 0.0
C240 C 0.23662 0.95446 1.00403 0.0
O241 O 0.23105 0.94181 0.98023 0.0
O242 O 0.22972 0.96696 1.00688 0.0
C243 C 0.20883 0.89713 0.9244 0.0
O244 O 0.20307 0.89245 0.95512 0.0
C245 C 0.21804 0.01167 0.99942 0.0
C246 C 0.18696 0.00781 0.99443 0.0
C247 C 0.2072 0.02227 1.00154 0.0
N248 N 0.20474 0.99199 0.991 0.0
N249 N 0.18618 0.98981 0.9886 0.0
C250 C 0.24081 0.02039 1.00204 0.0
H251 H 0.24542 0.01004 0.98998 0.0
H252 H 0.24916 0.03596 0.99081 0.0
H253 H 0.24513 0.02181 0.02833 0.0
C254 C 0.2214 0.96174 0.88555 0.0
N255 N 0.21761 0.95798 0.91781 0.0
N256 N 0.21654 0.9732 0.93179 0.0
C257 C 0.21987 0.98741 0.9084 0.0
C258 C 0.2232 0.98064 0.87828 0.0
C259 C 0.22085 0.94628 0.86171 0.0
H260 H 0.20661 0.9313 0.86577 0.0
H261 H 0.23426 0.94415 0.86613 0.0
H262 H 0.221 0.95091 0.83586 0.0
O263 O 0.18363 0.92001 0.95737 0.0
O264 O 0.18094 0.94421 0.98416 0.0
H265 H 0.2048 1.00368 0.92436 0.0
H266 H 0.22371 0.01671 0.89236 0.0
C267 C 0.22004 0.00713 0.91477 0.0
H268 H 0.23179 0.01605 0.93362 0.0
H269 H 0.17305 0.97617 0.98161 0.0
O270 O 0.21521 0.91537 0.91454 0.0
C271 C 0.17308 0.92565 0.97421 0.0
Co272 Co 0.08105 0.28393 0.94542 0.0
Co273 Co 0.04524 0.24515 0.97912 0.0
C274 C 0.06017 0.28804 1.00552 0.0
O275 O 0.0731 0.29529 0.9821 0.0
O276 O 0.04784 0.26858 1.00832 0.0
C277 C 0.11947 0.31755 0.92801 0.0
O278 O 0.12393 0.31587 0.95861 0.0
C279 C 1.00315 0.21228 1.00108 0.0
C280 C 1.00609 0.18484 0.99181 0.0
C281 C 0.99217 0.19078 1.0017 0.0
N282 N 0.02253 0.21856 0.99094 0.0
N283 N 0.02415 0.20202 0.98593 0.0
C284 C 0.99496 0.22655 1.00683 0.0
H285 H 1.0051 0.24171 0.99513 0.0
H286 H 0.97905 0.21977 0.9971 0.0
H287 H 0.99451 0.22895 0.0336 0.0
C288 C 0.05527 0.26623 0.88728 0.0
N289 N 0.05844 0.26598 0.91967 0.0
N290 N 0.0426 0.24999 0.93321 0.0
C291 C 0.02842 0.23975 0.9095 0.0
C292 C 0.03599 0.24981 0.87953 0.0
C293 C 0.07148 0.2807 0.86388 0.0
H294 H 0.08634 0.28163 0.86991 0.0
H295 H 0.07341 0.29629 0.86658 0.0
H296 H 0.06767 0.27559 0.83805 0.0
O297 O 0.09538 0.27005 0.96162 0.0
O298 O 0.07052 0.24227 0.98576 0.0
H299 H 0.01001 0.20793 0.92205 0.0
H300 H 0.99764 0.21701 0.89393 0.0
C301 C 1.00786 0.22109 0.91562 0.0
H302 H 1.00034 0.22405 0.93662 0.0
H303 H 0.03745 0.20245 0.97727 0.0
O304 O 0.10113 0.30635 0.91801 0.0
C305 C 0.08937 0.25343 0.97739 0.0
Co306 Co 0.80449 0.73011 0.58538 0.0
Co307 Co 0.80865 0.76866 0.54919 0.0
C308 C 0.78079 0.72505 0.52383 0.0
O309 O 0.78565 0.71778 0.54825 0.0
O310 O 0.78824 0.74453 0.52055 0.0
C311 C 0.81027 0.69766 0.60547 0.0
O312 O 0.81586 0.69851 0.5747 0.0
C313 C 0.79866 0.80094 0.52843 0.0
C314 C 0.83003 0.8281 0.52776 0.0
C315 C 0.80946 0.82225 0.5242 0.0
N316 N 0.81232 0.79467 0.53463 0.0
N317 N 0.83102 0.811 0.53362 0.0
C318 C 0.77582 0.78706 0.52985 0.0
H319 H 0.7719 0.77252 0.5428 0.0
H320 H 0.76847 0.79489 0.54231 0.0
H321 H 0.7697 0.78325 0.50449 0.0
C322 C 0.79548 0.74872 0.64158 0.0
N323 N 0.79924 0.74837 0.60939 0.0
N324 N 0.80103 0.76491 0.59508 0.0
C325 C 0.79851 0.77644 0.61827 0.0
C326 C 0.79494 0.76649 0.64843 0.0
C327 C 0.7931 0.73258 0.66558 0.0
H328 H 0.80822 0.73349 0.66881 0.0
H329 H 0.78202 0.71711 0.65584 0.0
H330 H 0.78757 0.73462 0.68977 0.0
O331 O 0.83309 0.74401 0.56966 0.0
O332 O 0.8367 0.7716 0.54401 0.0
H333 H 0.81557 0.80695 0.59859 0.0
H334 H 0.80171 0.80509 0.63595 0.0
C335 C 0.80117 0.79731 0.6125 0.0
H336 H 0.78804 0.79574 0.59779 0.0
H337 H 0.84449 0.81062 0.53841 0.0
O338 O 0.8029 0.70879 0.61475 0.0
C339 C 0.84407 0.76042 0.55353 0.0
Co340 Co 0.28546 0.07796 0.57916 0.0
Co341 Co 0.24747 0.04177 0.54459 0.0
C342 C 0.29172 0.05814 0.52044 0.0
O343 O 0.29866 0.07079 0.54427 0.0
O344 O 0.27227 0.04583 0.51697 0.0
C345 C 0.32321 0.10653 0.61827 0.0
O346 O 0.33214 0.09539 0.61502 0.0
C347 C 0.21625 0.99854 0.52397 0.0
C348 C 0.18866 1.00188 0.52137 0.0
C349 C 0.19502 0.98754 0.51793 0.0
N350 N 0.22182 0.01824 0.53098 0.0
N351 N 0.2052 0.02003 0.52914 0.0
C352 C 0.2312 0.99089 0.52209 0.0
H353 H 0.2471 1.00394 0.51862 0.0
H354 H 0.23074 0.983 0.54534 0.0
H355 H 0.22707 0.97972 0.50165 0.0
C356 C 0.267 0.0521 0.63764 0.0
N357 N 0.26749 0.05521 0.60505 0.0
N358 N 0.25132 0.03967 0.59122 0.0
C359 C 0.23999 0.02606 0.61504 0.0
C360 C 0.24956 0.03357 0.64524 0.0
C361 C 0.28308 0.06671 0.661 0.0
H362 H 0.28339 0.08166 0.66058 0.0
H363 H 0.29836 0.06946 0.65294 0.0
H364 H 0.28025 0.06065 0.68642 0.0
O365 O 0.27092 0.0909 0.56004 0.0
O366 O 0.2432 0.06594 0.53632 0.0
H367 H 0.20935 0.01104 0.59577 0.0
H368 H 0.21215 0.99955 0.63299 0.0
C369 C 0.21963 0.00705 0.6095 0.0
H370 H 0.22192 0.99604 0.59451 0.0
H371 H 0.20505 0.03362 0.53382 0.0
O372 O 0.30562 0.10057 0.60594 0.0
C373 C 0.25439 0.08484 0.54408 0.0
Co374 Co 0.93839 0.21345 0.57786 0.0
Co375 Co 0.97406 0.20902 0.54634 0.0
C376 C 0.9598 0.23722 0.51766 0.0
O377 O 0.94697 0.23279 0.54096 0.0
O378 O 0.97126 0.22907 0.51572 0.0
C379 C 0.89891 0.20476 0.59177 0.0
O380 O 0.89651 0.19813 0.56137 0.0
C381 C 0.01655 0.21878 0.52535 0.0
C382 C 0.0134 0.18813 0.53237 0.0
C383 C 0.02743 0.20818 0.52337 0.0
N384 N 0.99718 0.20555 0.53551 0.0
N385 N 0.99549 0.18728 0.53941 0.0
C386 C 0.02407 0.24084 0.51698 0.0
H387 H 0.01097 0.24308 0.51058 0.0
H388 H 0.03202 0.25063 0.53855 0.0
H389 H 0.03512 0.24582 0.49622 0.0
C390 C 0.96339 0.22193 0.63701 0.0
N391 N 0.9606 0.2183 0.60461 0.0
N392 N 0.97611 0.21707 0.59211 0.0
C393 C 0.98969 0.22044 0.61655 0.0
C394 C 0.98208 0.2237 0.64589 0.0
C395 C 0.94718 0.22128 0.65933 0.0
H396 H 0.93213 0.2075 0.6536 0.0
H397 H 0.94578 0.23514 0.65507 0.0
H398 H 0.95061 0.22049 0.68554 0.0
O399 O 0.92481 0.18496 0.56256 0.0
O400 O 0.94916 0.18073 0.53971 0.0
H401 H 1.00659 0.20515 0.60601 0.0
H402 H 0.01967 0.2268 0.63369 0.0
C403 C 1.00969 0.22091 0.61171 0.0
H404 H 0.01796 0.23097 0.59061 0.0
H405 H 0.98212 0.1742 0.54744 0.0
O406 O 0.91697 0.21475 0.60352 0.0
C407 C 0.93042 0.17365 0.54803 0.0
Co408 Co 0.95406 0.54721 0.41923 0.0
Co409 Co 0.91655 0.5431 0.38019 0.0
C410 C 0.96092 0.57112 0.35763 0.0
O411 O 0.96763 0.56599 0.38243 0.0
O412 O 0.94155 0.56386 0.35351 0.0
C413 C 0.98606 0.5415 0.44108 0.0
O414 O 0.98608 0.53667 0.41011 0.0
C415 C 0.88466 0.55373 0.36051 0.0
C416 C 0.86093 0.52398 0.3398 0.0
C417 C 0.86507 0.54373 0.34678 0.0
N418 N 0.89164 0.54032 0.36199 0.0
N419 N 0.87736 0.52263 0.34939 0.0
C420 C 0.89709 0.57593 0.36997 0.0
H421 H 0.91149 0.57905 0.38257 0.0
H422 H 0.88799 0.58031 0.38605 0.0
H423 H 0.90105 0.58555 0.34753 0.0
C424 C 0.93457 0.55654 0.47349 0.0
N425 N 0.93545 0.55275 0.44147 0.0
N426 N 0.91873 0.55004 0.42649 0.0
C427 C 0.90637 0.55159 0.44929 0.0
C428 C 0.91614 0.55588 0.47968 0.0
C429 C 0.9508 0.55993 0.49801 0.0
H430 H 0.94989 0.54499 0.50328 0.0
H431 H 0.96626 0.57063 0.48777 0.0
H432 H 0.9488 0.56641 0.52127 0.0
O433 O 0.94005 0.51844 0.4041 0.0
O434 O 0.91377 0.51514 0.37476 0.0
H435 H 0.87753 0.53507 0.42366 0.0
H436 H 0.87538 0.54087 0.46607 0.0
C437 C 0.88471 0.54672 0.44335 0.0
H438 H 0.8848 0.56098 0.43599 0.0
H439 H 0.87871 0.50948 0.34766 0.0
O440 O 0.97451 0.54845 0.45005 0.0
C441 C 0.92436 0.50762 0.38636 0.0
Co442 Co 0.47211 0.41236 0.41591 0.0
Co443 Co 0.47622 0.37772 0.38083 0.0
C444 C 0.44725 0.39233 0.35608 0.0
O445 O 0.4525 0.40494 0.37988 0.0
O446 O 0.45491 0.38049 0.35286 0.0
C447 C 0.47732 0.45064 0.43497 0.0
O448 O 0.48246 0.45519 0.40401 0.0
C449 C 0.46596 0.33521 0.36112 0.0
C450 C 0.49729 0.33947 0.35864 0.0
C451 C 0.47667 0.32469 0.35614 0.0
N452 N 0.47973 0.35522 0.36662 0.0
N453 N 0.4984 0.35762 0.3646 0.0
C454 C 0.44316 0.3262 0.36383 0.0
H455 H 0.43952 0.33684 0.37731 0.0
H456 H 0.43608 0.31103 0.37637 0.0
H457 H 0.43651 0.32381 0.33883 0.0
C458 C 0.46397 0.38559 0.47319 0.0
N459 N 0.46744 0.38929 0.44085 0.0
N460 N 0.46954 0.37459 0.42709 0.0
C461 C 0.46779 0.36113 0.45082 0.0
C462 C 0.46428 0.36776 0.48088 0.0
C463 C 0.46032 0.39896 0.49627 0.0
H464 H 0.4498 0.40352 0.48482 0.0
H465 H 0.45342 0.39093 0.5197 0.0
H466 H 0.47522 0.41308 0.50145 0.0
O467 O 0.50048 0.42724 0.39872 0.0
O468 O 0.50405 0.40296 0.37405 0.0
H469 H 0.4732 0.33713 0.46906 0.0
H470 H 0.45798 0.33103 0.43218 0.0
C471 C 0.47132 0.34341 0.4455 0.0
H472 H 0.48531 0.34842 0.43034 0.0
H473 H 0.51196 0.37155 0.36862 0.0
O474 O 0.47064 0.43232 0.4447 0.0
C475 C 0.51135 0.4217 0.38257 0.0
Co476 Co 0.60531 0.06368 0.4137 0.0
Co477 Co 0.64139 0.10218 0.37997 0.0
C478 C 0.62566 0.05858 0.3544 0.0
O479 O 0.61278 0.05139 0.37789 0.0
O480 O 0.63804 0.07804 0.35146 0.0
C481 C 0.56568 0.03356 0.42794 0.0
O482 O 0.56384 0.03598 0.39645 0.0
C483 C 0.68444 0.13417 0.36089 0.0
C484 C 0.68099 0.16175 0.36184 0.0
C485 C 0.69537 0.15555 0.35752 0.0
N486 N 0.66458 0.12819 0.36724 0.0
N487 N 0.66268 0.14479 0.36728 0.0
C488 C 0.69295 0.11992 0.36116 0.0
H489 H 0.68214 0.10527 0.37369 0.0
H490 H 0.7082 0.12731 0.37347 0.0
H491 H 0.69507 0.1164 0.33551 0.0
C492 C 0.63111 0.08101 0.47206 0.0
N493 N 0.62803 0.08122 0.43961 0.0
N494 N 0.64354 0.09767 0.42631 0.0
C495 C 0.65714 0.10852 0.45042 0.0
C496 C 0.64961 0.09832 0.48021 0.0
C497 C 0.61645 0.06442 0.49474 0.0
H498 H 0.60241 0.06568 0.49764 0.0
H499 H 0.61177 0.04912 0.48394 0.0
H500 H 0.6234 0.06551 0.5192 0.0
O501 O 0.59211 0.07843 0.39616 0.0
O502 O 0.617 0.10611 0.3722 0.0
H503 H 0.67228 0.13945 0.4323 0.0
H504 H 0.6835 0.1361 0.46936 0.0
C505 C 0.67618 0.12897 0.44561 0.0
H506 H 0.68732 0.12691 0.43055 0.0
H507 H 0.64897 0.14465 0.37231 0.0
O508 O 0.58351 0.04248 0.44069 0.0
C509 C 0.59815 0.09498 0.38029 0.0
Co510 Co 0.88325 0.61716 0.78226 0.0
Co511 Co 0.87818 0.57667 0.8126 0.0
C512 C 0.90624 0.61877 0.84289 0.0
O513 O 0.90231 0.62752 0.81954 0.0
O514 O 0.8979 0.59911 0.84427 0.0
C515 C 0.87592 0.64897 0.76973 0.0
O516 O 0.86949 0.64473 0.80023 0.0
C517 C 0.88778 0.54393 0.83276 0.0
C518 C 0.85758 0.51628 0.82305 0.0
C519 C 0.8775 0.52245 0.83288 0.0
N520 N 0.87447 0.55 0.82298 0.0
N521 N 0.85642 0.53334 0.81768 0.0
C522 C 0.9102 0.55842 0.83851 0.0
H523 H 0.91507 0.57353 0.82679 0.0
H524 H 0.91951 0.55184 0.8288 0.0
H525 H 0.91301 0.56085 0.86528 0.0
C526 C 0.89155 0.6008 0.7224 0.0
N527 N 0.88809 0.59993 0.75491 0.0
N528 N 0.88658 0.58299 0.76708 0.0
C529 C 0.88944 0.57262 0.74234 0.0
C530 C 0.8927 0.58358 0.71311 0.0
C531 C 0.89115 0.6166 0.7004 0.0
H532 H 0.87744 0.61797 0.70623 0.0
H533 H 0.90507 0.63179 0.705 0.0
H534 H 0.89047 0.6126 0.6741 0.0
O535 O 0.85457 0.60247 0.79764 0.0
O536 O 0.84993 0.57324 0.81839 0.0
H537 H 0.87325 0.54031 0.75232 0.0
H538 H 0.89472 0.54845 0.72439 0.0
C539 C 0.88917 0.55268 0.74664 0.0
H540 H 0.89919 0.55401 0.76751 0.0
H541 H 0.84343 0.53362 0.80926 0.0
O542 O 0.88511 0.64029 0.75721 0.0
C543 C 0.84304 0.58522 0.81122 0.0
Co544 Co 0.40194 0.26964 0.77845 0.0
Co545 Co 0.44007 0.30501 0.81413 0.0
C546 C 0.39614 0.28854 0.839 0.0
O547 O 0.38923 0.27593 0.81515 0.0
O548 O 0.41553 0.30111 0.84217 0.0
C549 C 0.37212 0.23026 0.76339 0.0
O550 O 0.37467 0.22835 0.79482 0.0
C551 C 0.47143 0.34811 0.83432 0.0
C552 C 0.4987 0.34437 0.83941 0.0
C553 C 0.49255 0.35896 0.84131 0.0
N554 N 0.46574 0.32827 0.82827 0.0
N555 N 0.48215 0.32624 0.83157 0.0
C556 C 0.45666 0.356 0.83444 0.0
H557 H 0.44063 0.34309 0.83734 0.0
H558 H 0.4577 0.36373 0.81075 0.0
H559 H 0.46046 0.36733 0.85452 0.0
C560 C 0.41948 0.2966 0.72159 0.0
N561 N 0.41939 0.29304 0.75391 0.0
N562 N 0.43615 0.30788 0.76762 0.0
C563 C 0.4477 0.32137 0.74379 0.0
C564 C 0.43751 0.31458 0.71376 0.0
C565 C 0.40258 0.28273 0.69869 0.0
H566 H 0.38741 0.27737 0.71055 0.0
H567 H 0.40318 0.29069 0.67543 0.0
H568 H 0.40404 0.26903 0.69315 0.0
O569 O 0.41731 0.25658 0.7939 0.0
O570 O 0.44393 0.28047 0.82141 0.0
H571 H 0.47716 0.34526 0.72535 0.0
H572 H 0.46797 0.35162 0.76191 0.0
C573 C 0.46896 0.33916 0.74896 0.0
H574 H 0.47792 0.33431 0.76446 0.0
H575 H 0.48217 0.31248 0.82788 0.0
O576 O 0.38097 0.24812 0.75074 0.0
C577 C 0.4334 0.26209 0.81078 0.0
Co578 Co 0.74786 0.13247 0.77819 0.0
Co579 Co 0.71247 0.13591 0.81262 0.0
C580 C 0.7279 0.10829 0.83937 0.0
O581 O 0.74049 0.11355 0.81549 0.0
O582 O 0.71559 0.11544 0.84211 0.0
C583 C 0.78645 0.1383 0.75942 0.0
O584 O 0.79118 0.14482 0.78981 0.0
C585 C 0.67035 0.1269 0.83414 0.0
C586 C 0.67417 0.15784 0.82719 0.0
C587 C 0.65975 0.13778 0.8354 0.0
N588 N 0.69 0.14001 0.82514 0.0
N589 N 0.69213 0.1585 0.82157 0.0
C590 C 0.66162 0.10421 0.83814 0.0
H591 H 0.6719 0.09932 0.82662 0.0
H592 H 0.646 0.09564 0.82714 0.0
H593 H 0.66029 0.10047 0.86467 0.0
C594 C 0.72134 0.12387 0.7206 0.0
N595 N 0.72482 0.12739 0.75296 0.0
N596 N 0.7094 0.1282 0.76674 0.0
C597 C 0.69531 0.12489 0.74318 0.0
C598 C 0.7024 0.12193 0.71311 0.0
C599 C 0.73712 0.12493 0.69695 0.0
H600 H 0.75198 0.13922 0.70156 0.0
H601 H 0.73939 0.11157 0.70103 0.0
H602 H 0.73275 0.12509 0.67105 0.0
O603 O 0.76233 0.16094 0.79395 0.0
O604 O 0.7377 0.16406 0.81841 0.0
H605 H 0.67861 0.13981 0.7575 0.0
H606 H 0.66552 0.11973 0.72722 0.0
C607 C 0.67541 0.12437 0.74936 0.0
H608 H 0.66694 0.11322 0.76921 0.0
H609 H 0.70572 0.17147 0.81394 0.0
O610 O 0.76789 0.13037 0.7501 0.0
C611 C 0.75647 0.17168 0.8097 0.0
Co612 Co 0.40106 0.13667 0.27933 0.0
Co613 Co 0.43925 0.13896 0.31354 0.0
C614 C 0.39536 0.11117 0.33876 0.0
O615 O 0.38827 0.11677 0.31501 0.0
O616 O 0.41481 0.11829 0.34186 0.0
C617 C 0.37103 0.14619 0.26335 0.0
O618 O 0.37267 0.1504 0.29486 0.0
C619 C 0.47099 0.12786 0.33397 0.0
C620 C 0.49836 0.15906 0.33564 0.0
C621 C 0.49227 0.13844 0.33944 0.0
N622 N 0.46511 0.14172 0.32688 0.0
N623 N 0.48159 0.16029 0.32818 0.0
C624 C 0.4563 0.1052 0.33655 0.0
H625 H 0.44041 0.10217 0.34083 0.0
H626 H 0.45638 0.09761 0.31326 0.0
H627 H 0.46095 0.09846 0.35673 0.0
C628 C 0.41878 0.12811 0.22118 0.0
N629 N 0.41877 0.13144 0.25362 0.0
N630 N 0.43511 0.13237 0.26721 0.0
C631 C 0.44615 0.12968 0.24335 0.0
C632 C 0.43615 0.12696 0.21336 0.0
C633 C 0.40236 0.12613 0.19814 0.0
H634 H 0.38697 0.1158 0.20896 0.0
H635 H 0.40341 0.1199 0.17399 0.0
H636 H 0.40394 0.14152 0.19453 0.0
O637 O 0.41562 0.16466 0.29733 0.0
O638 O 0.44331 0.16733 0.32101 0.0
H639 H 0.47687 0.14567 0.26233 0.0
H640 H 0.47413 0.13155 0.22494 0.0
C641 C 0.46668 0.13137 0.24855 0.0
H642 H 0.46463 0.11809 0.26333 0.0
H643 H 0.48149 0.17389 0.32327 0.0
O644 O 0.38028 0.13738 0.25157 0.0
C645 C 0.43222 0.17511 0.31317 0.0
Co646 Co 0.88384 0.27029 0.28095 0.0
Co647 Co 0.87969 0.3055 0.31415 0.0
C648 C 0.9084 0.29077 0.34016 0.0
O649 O 0.90399 0.27832 0.31635 0.0
O650 O 0.90004 0.30199 0.34303 0.0
C651 C 0.87541 0.23106 0.26597 0.0
O652 O 0.86975 0.22859 0.29691 0.0
C653 C 0.89169 0.34869 0.33255 0.0
C654 C 0.86135 0.34445 0.3466 0.0
C655 C 0.88195 0.35916 0.3437 0.0
N656 N 0.87739 0.32866 0.32879 0.0
N657 N 0.85932 0.32632 0.33729 0.0
C658 C 0.9143 0.35725 0.32782 0.0
H659 H 0.9174 0.3454 0.31734 0.0
H660 H 0.92066 0.37087 0.31144 0.0
H661 H 0.9222 0.36246 0.35184 0.0
C662 C 0.89178 0.29596 0.22248 0.0
N663 N 0.88838 0.29287 0.25492 0.0
N664 N 0.88658 0.30795 0.26791 0.0
C665 C 0.88867 0.32119 0.24359 0.0
C666 C 0.89225 0.3141 0.21399 0.0
C667 C 0.89233 0.28052 0.19978 0.0
H668 H 0.87806 0.26544 0.20305 0.0
H669 H 0.90559 0.27853 0.20625 0.0
H670 H 0.89345 0.28505 0.17368 0.0
O671 O 0.85561 0.25634 0.29881 0.0
O672 O 0.8515 0.28095 0.32088 0.0
H673 H 0.8736 0.33651 0.26407 0.0
H674 H 0.88616 0.34699 0.22512 0.0
C675 C 0.88719 0.34017 0.24863 0.0
H676 H 0.90116 0.3518 0.26162 0.0
H677 H 0.84551 0.3123 0.33672 0.0
O678 O 0.88446 0.24907 0.25389 0.0
C679 C 0.84446 0.26207 0.31361 0.0
Co680 Co 0.75208 0.61817 0.27897 0.0
Co681 Co 0.71534 0.57984 0.31278 0.0
C682 C 0.73241 0.62328 0.33957 0.0
O683 O 0.74543 0.63035 0.3162 0.0
O684 O 0.7194 0.60393 0.34186 0.0
C685 C 0.79216 0.64665 0.26742 0.0
O686 O 0.79237 0.64307 0.29893 0.0
C687 C 0.67188 0.54853 0.33197 0.0
C688 C 0.67433 0.52041 0.32971 0.0
C689 C 0.66043 0.52713 0.33487 0.0
N690 N 0.69157 0.55402 0.32507 0.0
N691 N 0.69286 0.53708 0.32425 0.0
C692 C 0.66398 0.56329 0.3327 0.0
H693 H 0.675 0.57793 0.32035 0.0
H694 H 0.64865 0.55638 0.32074 0.0
H695 H 0.66223 0.56669 0.3586 0.0
C696 C 0.7258 0.60201 0.22095 0.0
N697 N 0.72894 0.60153 0.25331 0.0
N698 N 0.71335 0.58507 0.26651 0.0
C699 C 0.69962 0.57452 0.24239 0.0
C700 C 0.70716 0.5849 0.21272 0.0
C701 C 0.74071 0.61849 0.19838 0.0
H702 H 0.74644 0.6338 0.2099 0.0
H703 H 0.73353 0.61813 0.17441 0.0
H704 H 0.75411 0.61628 0.19428 0.0
O705 O 0.76391 0.60174 0.29419 0.0
O706 O 0.73925 0.57491 0.32019 0.0
H707 H 0.67297 0.54725 0.22329 0.0
H708 H 0.66957 0.55611 0.2627 0.0
C709 C 0.68051 0.55411 0.24703 0.0
H710 H 0.6844 0.54341 0.25965 0.0
H711 H 0.70631 0.53681 0.31873 0.0
O712 O 0.77492 0.63934 0.2529 0.0
C713 C 0.75781 0.58526 0.31024 0.0
Co714 Co 0.47224 0.06358 0.91389 0.0
Co715 Co 0.47423 0.10173 0.88031 0.0
C716 C 0.4462 0.05803 0.85516 0.0
O717 O 0.45195 0.05096 0.8787 0.0
O718 O 0.45336 0.07747 0.85209 0.0
C719 C 0.46104 0.02579 0.95423 0.0
O720 O 0.44133 0.01976 0.95613 0.0
C721 C 0.46282 0.13342 0.86091 0.0
C722 C 0.49388 0.15998 0.85179 0.0
C723 C 0.47323 0.15408 0.85187 0.0
N724 N 0.47681 0.12745 0.86622 0.0
N725 N 0.4953 0.14347 0.86061 0.0
C726 C 0.44002 0.11936 0.86252 0.0
H727 H 0.43626 0.10401 0.87211 0.0
H728 H 0.43293 0.12617 0.87833 0.0
H729 H 0.43343 0.11761 0.83758 0.0
C730 C 0.46481 0.08173 0.97319 0.0
N731 N 0.46767 0.08151 0.9406 0.0
N732 N 0.46794 0.09756 0.92696 0.0
C733 C 0.465 0.10842 0.95083 0.0
C734 C 0.46272 0.09861 0.98098 0.0
C735 C 0.46616 0.0672 0.99688 0.0
H736 H 0.47874 0.06436 0.9895 0.0
H737 H 0.45142 0.05236 0.99668 0.0
H738 H 0.46925 0.07342 0.02221 0.0
O739 O 0.49992 0.07785 0.89524 0.0
O740 O 0.50266 0.10575 0.87229 0.0
H741 H 0.47805 0.13899 0.93158 0.0
H742 H 0.46225 0.13441 0.9677 0.0
C743 C 0.46398 0.12755 0.94473 0.0
H744 H 0.45052 0.12368 0.92897 0.0
H745 H 0.50902 0.14323 0.86304 0.0
O746 O 0.47333 0.0422 0.93917 0.0
C747 C 0.5104 0.09453 0.87961 0.0
Co748 Co 0.95239 0.40982 0.91666 0.0
Co749 Co 0.91457 0.37459 0.88024 0.0
C750 C 0.95863 0.39065 0.85676 0.0
O751 O 0.96539 0.40311 0.88082 0.0
O752 O 0.93924 0.37836 0.85293 0.0
C753 C 0.98497 0.44821 0.93631 0.0
O754 O 0.98467 0.45266 0.90522 0.0
C755 C 0.8831 0.33209 0.85795 0.0
C756 C 0.85574 0.33584 0.85557 0.0
C757 C 0.86191 0.32137 0.85176 0.0
N758 N 0.88885 0.35176 0.86551 0.0
N759 N 0.87238 0.35382 0.86375 0.0
C760 C 0.89787 0.32423 0.85568 0.0
H761 H 0.91379 0.33717 0.85191 0.0
H762 H 0.89756 0.31638 0.87889 0.0
H763 H 0.8935 0.31301 0.83528 0.0
C764 C 0.93333 0.38264 0.97329 0.0
N765 N 0.93402 0.38645 0.94093 0.0
N766 N 0.91785 0.37131 0.92645 0.0
C767 C 0.90623 0.35731 0.94964 0.0
C768 C 0.91571 0.36412 0.98003 0.0
C769 C 0.9491 0.3968 0.99744 0.0
H770 H 0.94808 0.411 0.99967 0.0
H771 H 0.96472 0.40118 0.98844 0.0
H772 H 0.94678 0.38956 0.02197 0.0
O773 O 0.93849 0.42409 0.89925 0.0
O774 O 0.91131 0.39946 0.87361 0.0
H775 H 0.87573 0.34315 0.9299 0.0
H776 H 0.87801 0.33093 0.96669 0.0
C777 C 0.88569 0.33866 0.94344 0.0
H778 H 0.88778 0.32767 0.92807 0.0
H779 H 0.8724 0.36746 0.86886 0.0
O780 O 0.9733 0.42989 0.94607 0.0
C781 C 0.92219 0.41819 0.8826 0.0
Co782 Co 0.60621 0.54764 0.91691 0.0
Co783 Co 0.64156 0.54478 0.88148 0.0
C784 C 0.62581 0.57247 0.85631 0.0
O785 O 0.61329 0.56693 0.88029 0.0
O786 O 0.63814 0.56539 0.85295 0.0
C787 C 0.56794 0.54238 0.93585 0.0
O788 O 0.56335 0.53669 0.9051 0.0
C789 C 0.68349 0.5544 0.85759 0.0
C790 C 0.67995 0.52345 0.86236 0.0
C791 C 0.69408 0.54359 0.85402 0.0
N792 N 0.66419 0.54118 0.86804 0.0
N793 N 0.66225 0.52272 0.87054 0.0
C794 C 0.69119 0.57663 0.8503 0.0
H795 H 0.67813 0.57915 0.84488 0.0
H796 H 0.69947 0.58607 0.87199 0.0
H797 H 0.70202 0.5818 0.82922 0.0
C798 C 0.63317 0.55637 0.97395 0.0
N799 N 0.62939 0.55272 0.94168 0.0
N800 N 0.64482 0.55214 0.92745 0.0
C801 C 0.65919 0.5557 0.95061 0.0
C802 C 0.65231 0.55864 0.9809 0.0
C803 C 0.61759 0.55532 0.99803 0.0
H804 H 0.6027 0.54102 0.9937 0.0
H805 H 0.61526 0.56866 0.99415 0.0
H806 H 0.62222 0.55521 0.02379 0.0
O807 O 0.59174 0.5193 0.90042 0.0
O808 O 0.61642 0.51655 0.87536 0.0
H809 H 0.67608 0.54102 0.9361 0.0
H810 H 0.68943 0.56163 0.9655 0.0
C811 C 0.67917 0.5565 0.94378 0.0
H812 H 0.68713 0.56734 0.92336 0.0
H813 H 0.6489 0.50962 0.87853 0.0
O814 O 0.58634 0.54951 0.94549 0.0
C815 C 0.59765 0.50877 0.88418 0.0
Co816 Co 0.62095 0.88148 0.74864 0.0
Co817 Co 0.58196 0.8777 0.71471 0.0
C818 C 0.625 0.90549 0.68766 0.0
O819 O 0.63248 0.90047 0.71156 0.0
O820 O 0.6055 0.89807 0.68501 0.0
C821 C 0.65468 0.87708 0.76617 0.0
O822 O 0.65323 0.8712 0.73546 0.0
C823 C 0.54932 0.88706 0.69235 0.0
C824 C 0.52195 0.85605 0.6973 0.0
C825 C 0.52787 0.87622 0.68936 0.0
N826 N 0.55551 0.87384 0.70214 0.0
N827 N 0.53903 0.85534 0.70474 0.0
C828 C 0.5638 0.90933 0.6852 0.0
H829 H 0.57932 0.9119 0.67911 0.0
H830 H 0.56522 0.91864 0.70721 0.0
H831 H 0.55792 0.91462 0.66461 0.0
C832 C 0.603 0.88974 0.80658 0.0
N833 N 0.60297 0.88636 0.77416 0.0
N834 N 0.58661 0.88537 0.76058 0.0
C835 C 0.57573 0.88838 0.78433 0.0
C836 C 0.58586 0.89138 0.81433 0.0
C837 C 0.61786 0.88877 0.83002 0.0
H838 H 0.61868 0.87467 0.82504 0.0
H839 H 0.63342 0.90232 0.8261 0.0
H840 H 0.61326 0.88833 0.85597 0.0
O841 O 0.60708 0.85301 0.73272 0.0
O842 O 0.57904 0.84958 0.70887 0.0
H843 H 0.54393 0.87274 0.77091 0.0
H844 H 0.55092 0.89321 0.80047 0.0
C845 C 0.55607 0.88839 0.77839 0.0
H846 H 0.55833 0.89913 0.75813 0.0
H847 H 0.53938 0.84224 0.71233 0.0
O848 O 0.64328 0.88395 0.77628 0.0
C849 C 0.59038 0.84214 0.71723 0.0
Co850 Co 0.13656 0.74362 0.7468 0.0
Co851 Co 0.13965 0.70767 0.71405 0.0
C852 C 0.11176 0.72275 0.68696 0.0
O853 O 0.1172 0.73565 0.71034 0.0
O854 O 0.11901 0.71052 0.68449 0.0
C855 C 0.14452 0.78275 0.76049 0.0
O856 O 0.15046 0.78501 0.72971 0.0
C857 C 0.12988 0.66522 0.69289 0.0
C858 C 0.16081 0.66878 0.69826 0.0
C859 C 0.14065 0.65454 0.69027 0.0
N860 N 0.14314 0.6847 0.70248 0.0
N861 N 0.16158 0.68664 0.70537 0.0
C862 C 0.10763 0.65743 0.68559 0.0
H863 H 0.10514 0.67039 0.67928 0.0
H864 H 0.09827 0.64963 0.70762 0.0
H865 H 0.10236 0.64618 0.66511 0.0
C866 C 0.12825 0.71824 0.80568 0.0
N867 N 0.13158 0.72116 0.77321 0.0
N868 N 0.13241 0.70556 0.76016 0.0
C869 C 0.1293 0.69191 0.78435 0.0
C870 C 0.12647 0.69947 0.81407 0.0
C871 C 0.12909 0.73432 0.82846 0.0
H872 H 0.14295 0.74936 0.82291 0.0
H873 H 0.11533 0.73592 0.82444 0.0
H874 H 0.12979 0.7306 0.85456 0.0
O875 O 0.16481 0.75732 0.73018 0.0
O876 O 0.16795 0.73249 0.70676 0.0
H877 H 0.14445 0.67512 0.77198 0.0
H878 H 0.12367 0.66211 0.80125 0.0
C879 C 0.12884 0.67196 0.77903 0.0
H880 H 0.11819 0.6635 0.75865 0.0
H881 H 0.17471 0.70013 0.71283 0.0
O882 O 0.13539 0.76483 0.77289 0.0
C883 C 0.17553 0.75135 0.7147 0.0
Co884 Co 0.27276 0.39642 0.74769 0.0
Co885 Co 0.30841 0.43502 0.7132 0.0
C886 C 0.29246 0.39137 0.68749 0.0
O887 O 0.27983 0.38419 0.7113 0.0
O888 O 0.30478 0.41084 0.68448 0.0
C889 C 0.23355 0.36607 0.7633 0.0
O890 O 0.23106 0.36923 0.73237 0.0
C891 C 0.35127 0.46704 0.69249 0.0
C892 C 0.34732 0.49429 0.69109 0.0
C893 C 0.36191 0.48832 0.68697 0.0
N894 N 0.33151 0.46105 0.69988 0.0
N895 N 0.32935 0.47747 0.69876 0.0
C896 C 0.35929 0.45242 0.68973 0.0
H897 H 0.34642 0.43648 0.68588 0.0
H898 H 0.36726 0.45272 0.71278 0.0
H899 H 0.37046 0.457 0.66919 0.0
C900 C 0.29921 0.41396 0.80529 0.0
N901 N 0.2958 0.41407 0.77294 0.0
N902 N 0.31104 0.43062 0.75938 0.0
C903 C 0.32475 0.4417 0.78323 0.0
C904 C 0.31761 0.43148 0.81312 0.0
C905 C 0.28491 0.39731 0.82822 0.0
H906 H 0.27073 0.39829 0.83145 0.0
H907 H 0.2804 0.38204 0.81744 0.0
H908 H 0.29209 0.39857 0.85251 0.0
O909 O 0.25916 0.41115 0.73104 0.0
O910 O 0.28378 0.43874 0.70639 0.0
H911 H 0.33897 0.47252 0.76478 0.0
H912 H 0.35066 0.46978 0.8018 0.0
C913 C 0.34336 0.46243 0.77815 0.0
H914 H 0.3547 0.46075 0.763 0.0
H915 H 0.31563 0.47729 0.70385 0.0
O916 O 0.25159 0.37488 0.77522 0.0
C917 C 0.26503 0.42767 0.7151 0.0
Co918 Co 0.54828 0.95047 0.11245 0.0
Co919 Co 0.54457 0.91195 0.14781 0.0
C920 C 0.57286 0.95549 0.17293 0.0
O921 O 0.56744 0.96267 0.14909 0.0
O922 O 0.56558 0.93602 0.17609 0.0
C923 C 0.53981 0.98102 0.09712 0.0
O924 O 0.53586 0.9792 0.12873 0.0
C925 C 0.55467 0.87951 0.16749 0.0
C926 C 0.52329 0.85237 0.16779 0.0
C927 C 0.54383 0.85817 0.17144 0.0
N928 N 0.54105 0.88584 0.16141 0.0
N929 N 0.52234 0.86952 0.16214 0.0
C930 C 0.57752 0.89336 0.1663 0.0
H931 H 0.58151 0.90795 0.15344 0.0
H932 H 0.5849 0.88554 0.15386 0.0
H933 H 0.58354 0.89709 0.19172 0.0
C934 C 0.55693 0.9325 0.05528 0.0
N935 N 0.55344 0.93261 0.08761 0.0
N936 N 0.55166 0.91594 0.10141 0.0
C937 C 0.55401 0.90459 0.0777 0.0
C938 C 0.55734 0.91474 0.0477 0.0
C939 C 0.55942 0.94905 0.03205 0.0
H940 H 0.54423 0.94791 0.02832 0.0
H941 H 0.57004 0.96437 0.04277 0.0
H942 H 0.56555 0.94771 1.00797 0.0
O943 O 0.5199 0.93592 0.12817 0.0
O944 O 0.51643 0.90881 0.15499 0.0
H945 H 0.53714 0.87392 0.09679 0.0
H946 H 0.55105 0.87616 0.05933 0.0
C947 C 0.55153 0.88374 0.08295 0.0
H948 H 0.56467 0.88531 0.09763 0.0
H949 H 0.50889 0.86994 0.15743 0.0
O950 O 0.5484 0.97169 0.08474 0.0
C951 C 0.50899 0.91979 0.14483 0.0
Co952 Co 0.06801 0.60321 0.11334 0.0
Co953 Co 0.10691 0.63864 0.14742 0.0
C954 C 0.0635 0.62258 0.17427 0.0
O955 O 0.05604 0.61011 0.15033 0.0
O956 O 0.08299 0.63478 0.17691 0.0
C957 C 0.03716 0.56412 0.09842 0.0
O958 O 0.04058 0.56173 0.12927 0.0
C959 C 0.13837 0.68151 0.1681 0.0
C960 C 0.16604 0.67825 0.16946 0.0
C961 C 0.15963 0.69251 0.17366 0.0
N962 N 0.1328 0.66187 0.16062 0.0
N963 N 0.14946 0.66011 0.1617 0.0
C964 C 0.12338 0.68907 0.17089 0.0
H965 H 0.10755 0.67597 0.17472 0.0
H966 H 0.12349 0.69696 0.14783 0.0
H967 H 0.12772 0.70018 0.19144 0.0
C968 C 0.08524 0.62974 0.05575 0.0
N969 N 0.08546 0.62631 0.08807 0.0
N970 N 0.10215 0.64145 0.10145 0.0
C971 C 0.11321 0.65511 0.07751 0.0
C972 C 0.10283 0.64805 0.04777 0.0
C973 C 0.06857 0.61541 0.03292 0.0
H974 H 0.05332 0.61094 0.04373 0.0
H975 H 0.06984 0.62256 1.00858 0.0
H976 H 0.06952 0.60122 0.02977 0.0
O977 O 0.08294 0.58965 0.12908 0.0
O978 O 0.11082 0.61407 0.1534 0.0
H979 H 0.14413 0.66894 0.09537 0.0
H980 H 0.14134 0.68083 0.05861 0.0
C981 C 0.1341 0.67354 0.08233 0.0
H982 H 0.13271 0.68496 0.09771 0.0
H983 H 0.14958 0.64655 0.15657 0.0
O984 O 0.04619 0.58209 0.08617 0.0
C985 C 0.09961 0.59537 0.14451 0.0
Co986 Co 0.41432 0.46602 0.11381 0.0
Co987 Co 0.37761 0.46795 0.1464 0.0
C988 C 0.3935 0.44071 0.17341 0.0
O989 O 0.40652 0.44651 0.15012 0.0
O990 O 0.38091 0.44754 0.17587 0.0
C991 C 0.45381 0.47484 0.10012 0.0
O992 O 0.45594 0.48071 0.13093 0.0
C993 C 0.33497 0.45769 0.16787 0.0
C994 C 0.33814 0.48842 0.1617 0.0
C995 C 0.32411 0.46831 0.17035 0.0
N996 N 0.35433 0.47101 0.15779 0.0
N997 N 0.35602 0.48931 0.15439 0.0
C998 C 0.32744 0.43557 0.17571 0.0
H999 H 0.34056 0.43326 0.18168 0.0
H1000 H 0.31939 0.42596 0.15403 0.0
H1001 H 0.31646 0.43044 0.19657 0.0
C1002 C 0.38903 0.45756 0.05471 0.0
N1003 N 0.39179 0.46073 0.08724 0.0
N1004 N 0.37588 0.46096 0.10028 0.0
C1005 C 0.36218 0.45761 0.07606 0.0
C1006 C 0.37005 0.45527 0.0463 0.0
C1007 C 0.40539 0.45899 0.03193 0.0
H1008 H 0.42026 0.47296 0.03783 0.0
H1009 H 0.40729 0.44538 0.03557 0.0
H1010 H 0.40174 0.45988 1.00587 0.0
O1011 O 0.42748 0.49415 0.13094 0.0
O1012 O 0.40202 0.49642 0.15397 0.0
H1013 H 0.34453 0.47192 0.08791 0.0
H1014 H 0.33194 0.45068 0.05937 0.0
C1015 C 0.34189 0.45641 0.08143 0.0
H1016 H 0.33381 0.44591 0.10218 0.0
H1017 H 0.36938 0.50245 0.14651 0.0
O1018 O 0.4359 0.46548 0.08772 0.0
C1019 C 0.421 0.50443 0.14642 0.0
Co1020 Co 0.06482 0.46626 0.6158 0.0
Co1021 Co 0.10414 0.46888 0.64665 0.0
C1022 C 0.0617 0.44128 0.67532 0.0
O1023 O 0.0541 0.44699 0.65252 0.0
O1024 O 0.08118 0.4483 0.67711 0.0
C1025 C 0.03313 0.47389 0.60399 0.0
O1026 O 0.03735 0.48004 0.63461 0.0
C1027 C 0.13723 0.45943 0.66655 0.0
C1028 C 0.16459 0.48954 0.65513 0.0
C1029 C 0.15873 0.46984 0.66583 0.0
N1030 N 0.13086 0.47245 0.65643 0.0
N1031 N 0.14737 0.49044 0.65007 0.0
C1032 C 0.12297 0.43711 0.67361 0.0
H1033 H 0.10763 0.43192 0.66249 0.0
H1034 H 0.12948 0.4277 0.66412 0.0
H1035 H 0.12102 0.43486 0.70054 0.0
C1036 C 0.0809 0.45794 0.55589 0.0
N1037 N 0.0818 0.46122 0.5884 0.0
N1038 N 0.09808 0.46141 0.60074 0.0
C1039 C 0.10789 0.45766 0.57608 0.0
C1040 C 0.09727 0.4553 0.54674 0.0
C1041 C 0.06581 0.45956 0.53379 0.0
H1042 H 0.06455 0.47316 0.54083 0.0
H1043 H 0.05042 0.44562 0.53679 0.0
H1044 H 0.0705 0.46124 0.50768 0.0
O1045 O 0.0798 0.4945 0.63185 0.0
O1046 O 0.10792 0.49732 0.65418 0.0
H1047 H 0.14012 0.47132 0.58549 0.0
H1048 H 0.12988 0.44906 0.55887 0.0
C1049 C 0.12668 0.45584 0.5807 0.0
H1050 H 0.12452 0.44595 0.60222 0.0
H1051 H 0.14686 0.50323 0.6412 0.0
O1052 O 0.04189 0.4649 0.59103 0.0
C1053 C 0.09675 0.50511 0.6467 0.0
Co1054 Co 0.5507 0.60445 0.61359 0.0
Co1055 Co 0.54662 0.63937 0.64798 0.0
C1056 C 0.57489 0.62412 0.67393 0.0
O1057 O 0.5699 0.61164 0.65001 0.0
O1058 O 0.56729 0.63602 0.67685 0.0
C1059 C 0.54274 0.56554 0.59833 0.0
O1060 O 0.53724 0.56308 0.62934 0.0
C1061 C 0.55752 0.68217 0.66789 0.0
C1062 C 0.52628 0.67793 0.67255 0.0
C1063 C 0.54696 0.69273 0.67468 0.0
N1064 N 0.54359 0.66228 0.66172 0.0
N1065 N 0.525 0.65993 0.66477 0.0
C1066 C 0.58026 0.69039 0.66834 0.0
H1067 H 0.58358 0.67766 0.67155 0.0
H1068 H 0.58701 0.69809 0.64465 0.0
H1069 H 0.58758 0.70182 0.68837 0.0
C1070 C 0.5594 0.63091 0.55605 0.0
N1071 N 0.5559 0.62747 0.5884 0.0
N1072 N 0.55368 0.64221 0.60176 0.0
C1073 C 0.55541 0.65547 0.57771 0.0
C1074 C 0.55904 0.64867 0.54788 0.0
C1075 C 0.56288 0.6172 0.53346 0.0
H1076 H 0.5733 0.61264 0.54529 0.0
H1077 H 0.56978 0.62497 0.50986 0.0
H1078 H 0.54794 0.60303 0.5286 0.0
O1079 O 0.52222 0.59039 0.63004 0.0
O1080 O 0.51843 0.61454 0.65453 0.0
H1081 H 0.54945 0.67895 0.55876 0.0
H1082 H 0.56475 0.68562 0.59562 0.0
C1083 C 0.55151 0.67299 0.5825 0.0
H1084 H 0.53753 0.6679 0.59772 0.0
H1085 H 0.51135 0.64606 0.66097 0.0
O1086 O 0.55149 0.58352 0.58613 0.0
C1087 C 0.51117 0.59586 0.64577 0.0
Co1088 Co 0.41404 0.95011 0.61269 0.0
Co1089 Co 0.37835 0.91155 0.64671 0.0
C1090 C 0.39422 0.95551 0.67205 0.0
O1091 O 0.40684 0.96283 0.64822 0.0
O1092 O 0.38209 0.936 0.67507 0.0
C1093 C 0.44293 0.98835 0.57406 0.0
O1094 O 0.43237 0.99785 0.57788 0.0
C1095 C 0.33532 0.87954 0.66656 0.0
C1096 C 0.33957 0.85252 0.67022 0.0
C1097 C 0.32478 0.85834 0.67283 0.0
N1098 N 0.35522 0.88562 0.66022 0.0
N1099 N 0.35756 0.86935 0.66268 0.0
C1100 C 0.32707 0.89402 0.66766 0.0
H1101 H 0.3398 0.91008 0.67122 0.0
H1102 H 0.31938 0.89329 0.64408 0.0
H1103 H 0.31562 0.88965 0.68772 0.0
C1104 C 0.38796 0.93223 0.55429 0.0
N1105 N 0.39122 0.93229 0.58676 0.0
N1106 N 0.37605 0.91565 0.60022 0.0
C1107 C 0.36266 0.90427 0.5762 0.0
C1108 C 0.36983 0.91442 0.54624 0.0
C1109 C 0.40194 0.94921 0.53158 0.0
H1110 H 0.40519 0.96416 0.54206 0.0
H1111 H 0.39505 0.94754 0.50693 0.0
H1112 H 0.41674 0.94933 0.52926 0.0
O1113 O 0.42742 0.93562 0.63083 0.0
O1114 O 0.4027 0.90762 0.65429 0.0
H1115 H 0.33793 0.87537 0.55757 0.0
H1116 H 0.33237 0.88464 0.59481 0.0
C1117 C 0.34442 0.88326 0.58123 0.0
H1118 H 0.34895 0.87381 0.59612 0.0
H1119 H 0.37141 0.86961 0.65858 0.0
O1120 O 0.43647 0.97055 0.58596 0.0
C1121 C 0.42154 0.91898 0.6464 0.0
Co1122 Co 0.13597 0.39497 0.24756 0.0
Co1123 Co 0.13928 0.43375 0.21347 0.0
C1124 C 0.11132 0.39068 0.1872 0.0
O1125 O 0.11677 0.38342 0.21085 0.0
O1126 O 0.11858 0.41015 0.18429 0.0
C1127 C 0.14079 0.36154 0.2655 0.0
O1128 O 0.14704 0.36317 0.23497 0.0
C1129 C 0.13021 0.46661 0.19064 0.0
C1130 C 0.16109 0.49391 0.19731 0.0
C1131 C 0.14112 0.4881 0.18821 0.0
N1132 N 0.14319 0.46029 0.20119 0.0
N1133 N 0.16161 0.47675 0.20484 0.0
C1134 C 0.10811 0.45224 0.1822 0.0
H1135 H 0.10566 0.43677 0.17609 0.0
H1136 H 0.09829 0.45064 0.20361 0.0
H1137 H 0.10335 0.45834 0.16123 0.0
C1138 C 0.12752 0.4127 0.30533 0.0
N1139 N 0.13118 0.41294 0.27302 0.0
N1140 N 0.13169 0.42906 0.25936 0.0
C1141 C 0.12788 0.43947 0.28295 0.0
C1142 C 0.12498 0.42932 0.31292 0.0
C1143 C 0.12875 0.39802 0.32887 0.0
H1144 H 0.14282 0.39719 0.32361 0.0
H1145 H 0.11515 0.38245 0.32545 0.0
H1146 H 0.12947 0.40286 0.35475 0.0
O1147 O 0.1643 0.40884 0.23151 0.0
O1148 O 0.16746 0.43665 0.2072 0.0
H1149 H 0.14215 0.4713 0.27006 0.0
H1150 H 0.12087 0.46292 0.29847 0.0
C1151 C 0.12665 0.45847 0.27674 0.0
H1152 H 0.11619 0.45573 0.25584 0.0
H1153 H 0.17453 0.4763 0.21315 0.0
O1154 O 0.13353 0.37268 0.27525 0.0
C1155 C 0.17505 0.42545 0.21574 0.0
Co1156 Co 0.61751 0.74402 0.24617 0.0
Co1157 Co 0.57839 0.70811 0.21372 0.0
C1158 C 0.62175 0.72311 0.18716 0.0
O1159 O 0.62933 0.7361 0.21041 0.0
O1160 O 0.60221 0.71102 0.18468 0.0
C1161 C 0.64829 0.78357 0.25937 0.0
O1162 O 0.64542 0.78535 0.22803 0.0
C1163 C 0.54632 0.66502 0.1957 0.0
C1164 C 0.51875 0.66851 0.19549 0.0
C1165 C 0.52497 0.65408 0.19195 0.0
N1166 N 0.55227 0.68493 0.20146 0.0
N1167 N 0.53569 0.68685 0.20086 0.0
C1168 C 0.56057 0.65653 0.19685 0.0
H1169 H 0.575 0.66732 0.20989 0.0
H1170 H 0.553 0.64125 0.20909 0.0
H1171 H 0.56453 0.65451 0.17142 0.0
C1172 C 0.60062 0.71859 0.30511 0.0
N1173 N 0.60005 0.72152 0.27268 0.0
N1174 N 0.58318 0.70624 0.26001 0.0
C1175 C 0.57226 0.69307 0.28457 0.0
C1176 C 0.58296 0.70054 0.31403 0.0
C1177 C 0.618 0.73287 0.32695 0.0
H1178 H 0.63291 0.73764 0.31461 0.0
H1179 H 0.61766 0.72552 0.35072 0.0
H1180 H 0.61693 0.74689 0.33154 0.0
O1181 O 0.6029 0.75747 0.2286 0.0
O1182 O 0.57466 0.73257 0.20589 0.0
H1183 H 0.54375 0.66835 0.30446 0.0
H1184 H 0.55244 0.66262 0.26671 0.0
C1185 C 0.55122 0.67471 0.28048 0.0
H1186 H 0.54144 0.67908 0.26615 0.0
H1187 H 0.53583 0.70062 0.2053 0.0
O1188 O 0.63917 0.76583 0.27244 0.0
C1189 C 0.58615 0.75148 0.21332 0.0
Co1190 Co 0.27247 0.88189 0.248 0.0
Co1191 Co 0.30733 0.87845 0.21248 0.0
C1192 C 0.29069 0.90598 0.1874 0.0
O1193 O 0.27853 0.901 0.21175 0.0
O1194 O 0.30283 0.89867 0.18422 0.0
C1195 C 0.23345 0.87284 0.26386 0.0
O1196 O 0.23126 0.86799 0.23257 0.0
C1197 C 0.35072 0.88992 0.19592 0.0
C1198 C 0.34526 0.86103 0.17254 0.0
C1199 C 0.36069 0.88048 0.1815 0.0
N1200 N 0.33029 0.87648 0.19578 0.0
N1201 N 0.32723 0.85929 0.18167 0.0
C1202 C 0.36026 0.91174 0.20734 0.0
H1203 H 0.3485 0.91465 0.21866 0.0
H1204 H 0.37271 0.91519 0.22521 0.0
H1205 H 0.36738 0.92221 0.18609 0.0
C1206 C 0.29945 0.89106 0.30485 0.0
N1207 N 0.29599 0.88767 0.27249 0.0
N1208 N 0.31054 0.88517 0.25901 0.0
C1209 C 0.32351 0.8863 0.28317 0.0
C1210 C 0.31691 0.89015 0.31303 0.0
C1211 C 0.28594 0.89481 0.3275 0.0
H1212 H 0.28103 0.90487 0.31533 0.0
H1213 H 0.29404 0.90222 0.35064 0.0
H1214 H 0.27196 0.87989 0.33331 0.0
O1215 O 0.25876 0.85332 0.23153 0.0
O1216 O 0.28305 0.85003 0.20649 0.0
H1217 H 0.34209 0.87401 0.30158 0.0
H1218 H 0.35495 0.89541 0.27408 0.0
C1219 C 0.34018 0.88108 0.27892 0.0
H1220 H 0.33663 0.87031 0.25813 0.0
H1221 H 0.31278 0.84625 0.17832 0.0
O1222 O 0.25138 0.8818 0.27619 0.0
C1223 C 0.26441 0.84247 0.21564 0.0
H1224 H 0.35348 0.16938 0.27934 0.0
H1225 H 0.37198 0.14631 0.19659 0.0
H1226 H 0.34506 0.18955 0.24214 0.0
H1227 H 0.36441 0.16702 0.15979 0.0
H1228 H 0.32401 0.18587 0.10336 0.0
H1229 H 0.33534 0.16777 0.13901 0.0
H1230 H 0.36131 0.21952 0.20577 0.0
H1231 H 0.34909 0.23753 0.17016 0.0
C1232 C 0.35562 0.1685 0.25324 0.0
C1233 C 0.36331 0.15618 0.2409 0.0
C1234 C 0.35112 0.18032 0.23201 0.0
C1235 C 0.3543 0.18006 0.19809 0.0
C1236 C 0.36164 0.16744 0.18577 0.0
C1237 C 0.36595 0.15552 0.2069 0.0
C1238 C 0.33239 0.19356 0.12543 0.0
C1239 C 0.33554 0.21303 0.13419 0.0
C1240 C 0.33899 0.1832 0.1458 0.0
C1241 C 0.34907 0.19213 0.17536 0.0
C1242 C 0.35325 0.21213 0.18336 0.0
C1243 C 0.34655 0.22255 0.16283 0.0
H1244 H 0.82673 0.15752 0.09105 0.0
H1245 H 0.80787 0.11246 0.16881 0.0
H1246 H 0.84215 0.18508 0.13149 0.0
H1247 H 0.82432 0.13974 0.20875 0.0
H1248 H 0.84172 0.19357 0.27658 0.0
H1249 H 0.82374 0.1662 0.23692 0.0
H1250 H 0.87143 0.20082 0.16537 0.0
H1251 H 0.88876 0.22881 0.20473 0.0
C1252 C 0.82576 0.1535 0.11676 0.0
C1253 C 0.81628 0.13282 0.12667 0.0
C1254 C 0.83485 0.16928 0.13992 0.0
C1255 C 0.83486 0.16467 0.17338 0.0
C1256 C 0.82452 0.14395 0.18331 0.0
C1257 C 0.81514 0.12823 0.16027 0.0
C1258 C 0.84853 0.19519 0.25254 0.0
C1259 C 0.86668 0.21325 0.24373 0.0
C1260 C 0.8382 0.17949 0.22972 0.0
C1261 C 0.84602 0.18132 0.19778 0.0
C1262 C 0.86466 0.1991 0.18945 0.0
C1263 C 0.87479 0.215 0.21212 0.0
H1264 H 0.82617 0.64477 0.28452 0.0
H1265 H 0.80025 0.66317 0.20592 0.0
H1266 H 0.85502 0.65106 0.24971 0.0
H1267 H 0.82979 0.67072 0.17153 0.0
H1268 H 0.8735 0.66609 0.10488 0.0
H1269 H 0.84397 0.65445 0.1414 0.0
H1270 H 0.88521 0.6761 0.22476 0.0
H1271 H 0.91443 0.68635 0.18802 0.0
C1272 C 0.82694 0.65071 0.26002 0.0
C1273 C 0.81103 0.6536 0.24791 0.0
C1274 C 0.8435 0.65428 0.24 0.0
C1275 C 0.8447 0.66117 0.2076 0.0
C1276 C 0.82911 0.66483 0.196 0.0
C1277 C 0.81233 0.66084 0.21583 0.0
C1278 C 0.87602 0.66751 0.13115 0.0
C1279 C 0.89601 0.67675 0.14389 0.0
C1280 C 0.85921 0.66128 0.15206 0.0
C1281 C 0.8622 0.66482 0.18603 0.0
C1282 C 0.88224 0.67298 0.19882 0.0
C1283 C 0.89901 0.67878 0.17787 0.0
H1284 H 0.15917 0.33843 0.255 0.0
H1285 H 0.13651 0.36164 0.33183 0.0
H1286 H 0.17479 0.32702 0.2962 0.0
H1287 H 0.15317 0.35162 0.37258 0.0
H1288 H 0.1725 0.31695 0.44099 0.0
H1289 H 0.15401 0.32527 0.40074 0.0
H1290 H 0.20358 0.34207 0.33124 0.0
H1291 H 0.22147 0.33246 0.37114 0.0
C1292 C 0.15738 0.34095 0.28066 0.0
C1293 C 0.14687 0.3512 0.29011 0.0
C1294 C 0.16659 0.3347 0.30426 0.0
C1295 C 0.16568 0.33884 0.3377 0.0
C1296 C 0.15416 0.34806 0.34714 0.0
C1297 C 0.14466 0.35395 0.32365 0.0
C1298 C 0.17961 0.32276 0.4173 0.0
C1299 C 0.19844 0.32416 0.40916 0.0
C1300 C 0.16897 0.3275 0.39414 0.0
C1301 C 0.17717 0.33415 0.36256 0.0
C1302 C 0.19652 0.33645 0.355 0.0
C1303 C 0.20696 0.33129 0.37799 0.0
H1304 H 0.65651 0.78523 0.32469 0.0
H1305 H 0.66005 0.82313 0.24219 0.0
H1306 H 0.66687 0.81442 0.36128 0.0
H1307 H 0.67068 0.85243 0.27895 0.0
H1308 H 0.66663 0.89257 0.3618 0.0
H1309 H 0.65493 0.86272 0.32525 0.0
H1310 H 0.69797 0.84805 0.3709 0.0
H1311 H 0.70933 0.87726 0.40725 0.0
C1312 C 0.6598 0.79987 0.3143 0.0
C1313 C 0.65753 0.80191 0.28057 0.0
C1314 C 0.66567 0.81655 0.33526 0.0
C1315 C 0.66935 0.83558 0.32291 0.0
C1316 C 0.66758 0.8378 0.2891 0.0
C1317 C 0.6618 0.82112 0.26806 0.0
C1318 C 0.67334 0.88278 0.36416 0.0
C1319 C 0.6889 0.88725 0.38722 0.0
C1320 C 0.66682 0.86587 0.34314 0.0
C1321 C 0.67564 0.85319 0.34528 0.0
C1322 C 0.6908 0.85746 0.36889 0.0
C1323 C 0.69736 0.87428 0.38959 0.0
H1324 H 0.11463 0.80145 0.35863 0.0
H1325 H 0.15927 0.81916 0.43679 0.0
H1326 H 0.14213 0.8187 0.31921 0.0
H1327 H 0.18705 0.83542 0.39681 0.0
H1328 H 0.23042 0.88449 0.32593 0.0
H1329 H 0.20234 0.86563 0.36466 0.0
H1330 H 0.16913 0.81925 0.2907 0.0
H1331 H 0.19657 0.83873 0.25171 0.0
C1332 C 0.13035 0.80861 0.36734 0.0
C1333 C 0.13477 0.80926 0.40094 0.0
C1334 C 0.14619 0.81845 0.34461 0.0
C1335 C 0.16684 0.82879 0.35485 0.0
C1336 C 0.17129 0.82815 0.38821 0.0
C1337 C 0.15539 0.81858 0.41108 0.0
C1338 C 0.21689 0.87047 0.31791 0.0
C1339 C 0.21554 0.86317 0.28582 0.0
C1340 C 0.20096 0.85947 0.34019 0.0
C1341 C 0.18357 0.84075 0.33096 0.0
C1342 C 0.18213 0.83372 0.29858 0.0
C1343 C 0.19786 0.84493 0.27616 0.0
H1344 H 0.6995 0.84445 0.94036 0.0
H1345 H 0.68593 0.79694 0.86863 0.0
H1346 H 0.6913 0.86328 0.90056 0.0
H1347 H 0.67644 0.81515 0.82913 0.0
H1348 H 0.67887 0.85998 0.75471 0.0
H1349 H 0.69086 0.84446 0.79515 0.0
H1350 H 0.66467 0.86362 0.87261 0.0
H1351 H 0.65403 0.88019 0.83265 0.0
C1352 C 0.69418 0.83775 0.91631 0.0
C1353 C 0.69321 0.81919 0.90757 0.0
C1354 C 0.68951 0.84857 0.89341 0.0
C1355 C 0.68334 0.84084 0.86148 0.0
C1356 C 0.68165 0.82184 0.8532 0.0
C1357 C 0.68675 0.81122 0.87594 0.0
C1358 C 0.67612 0.86126 0.78046 0.0
C1359 C 0.66526 0.87106 0.79043 0.0
C1360 C 0.68272 0.85211 0.80362 0.0
C1361 C 0.67833 0.85237 0.83713 0.0
C1362 C 0.66846 0.86318 0.84711 0.0
C1363 C 0.66222 0.87262 0.82407 0.0
H1364 H 0.13105 0.78524 0.82144 0.0
H1365 H 0.17831 0.82018 0.7497 0.0
H1366 H 0.14854 0.81316 0.86082 0.0
H1367 H 0.19641 0.84752 0.78941 0.0
H1368 H 0.21169 0.90122 0.85794 0.0
H1369 H 0.19576 0.87405 0.81771 0.0
H1370 H 0.17805 0.8285 0.8946 0.0
H1371 H 0.19296 0.85593 0.93534 0.0
C1372 C 0.1451 0.79898 0.81407 0.0
C1373 C 0.15324 0.80065 0.78251 0.0
C1374 C 0.15531 0.81483 0.83675 0.0
C1375 C 0.17407 0.83248 0.82848 0.0
C1376 C 0.1819 0.83429 0.79655 0.0
C1377 C 0.17148 0.81862 0.77371 0.0
C1378 C 0.20458 0.88543 0.86634 0.0
C1379 C 0.20324 0.88072 0.89992 0.0
C1380 C 0.1955 0.86979 0.84314 0.0
C1381 C 0.18527 0.84905 0.85292 0.0
C1382 C 0.18525 0.84433 0.88633 0.0
C1383 C 0.19404 0.86003 0.90965 0.0
H1384 H 0.1156 0.31721 0.86158 0.0
H1385 H 0.16084 0.34157 0.93925 0.0
H1386 H 0.14274 0.32806 0.82137 0.0
H1387 H 0.1883 0.35382 0.89858 0.0
H1388 H 0.231 0.34998 0.82417 0.0
H1389 H 0.20327 0.33988 0.8639 0.0
H1390 H 0.1696 0.35488 0.79353 0.0
H1391 H 0.19665 0.36366 0.75346 0.0
C1392 C 0.13139 0.32533 0.87006 0.0
C1393 C 0.13605 0.32818 0.90368 0.0
C1394 C 0.14703 0.3317 0.84687 0.0
C1395 C 0.16776 0.34154 0.85669 0.0
C1396 C 0.17248 0.34571 0.89021 0.0
C1397 C 0.15676 0.33896 0.91352 0.0
C1398 C 0.21744 0.35069 0.81713 0.0
C1399 C 0.21584 0.35737 0.78572 0.0
C1400 C 0.2017 0.34524 0.84001 0.0
C1401 C 0.18427 0.34681 0.83211 0.0
C1402 C 0.1826 0.35317 0.80039 0.0
C1403 C 0.19812 0.35818 0.77734 0.0
H1404 H 0.84294 0.65391 0.78092 0.0
H1405 H 0.8896 0.66497 0.70877 0.0
H1406 H 0.82527 0.66374 0.7414 0.0
H1407 H 0.87251 0.67595 0.66954 0.0
H1408 H 0.82682 0.67289 0.59539 0.0
H1409 H 0.84272 0.66158 0.63628 0.0
H1410 H 0.82612 0.69086 0.7123 0.0
H1411 H 0.80929 0.70102 0.6719 0.0
C1412 C 0.84975 0.65904 0.75687 0.0
C1413 C 0.86765 0.6587 0.74789 0.0
C1414 C 0.83959 0.66466 0.73414 0.0
C1415 C 0.84731 0.67042 0.7021 0.0
C1416 C 0.86582 0.67106 0.6937 0.0
C1417 C 0.8758 0.66509 0.71629 0.0
C1418 C 0.82625 0.67654 0.62094 0.0
C1419 C 0.81695 0.68798 0.63036 0.0
C1420 C 0.8356 0.67032 0.64433 0.0
C1421 C 0.83607 0.67566 0.67754 0.0
C1422 C 0.82597 0.68634 0.68704 0.0
C1423 C 0.81635 0.69225 0.66377 0.0
H1424 H 0.31421 0.13705 0.61386 0.0
H1425 H 0.35288 0.11914 0.66623 0.0
H1426 H 0.32596 0.16692 0.64888 0.0
H1427 H 0.36504 0.14965 0.70139 0.0
H1428 H 0.35886 0.19044 0.78101 0.0
H1429 H 0.34891 0.16114 0.74461 0.0
H1430 H 0.35707 0.1998 0.66087 0.0
H1431 H 0.36674 0.22902 0.69712 0.0
C1432 C 0.32543 0.13963 0.63271 0.0
C1433 C 0.33255 0.1257 0.6375 0.0
C1434 C 0.33224 0.15684 0.65264 0.0
C1435 C 0.34633 0.16054 0.67788 0.0
C1436 C 0.35397 0.14696 0.68224 0.0
C1437 C 0.3472 0.12967 0.66201 0.0
C1438 C 0.35827 0.19263 0.75486 0.0
C1439 C 0.36349 0.21202 0.74192 0.0
C1440 C 0.35286 0.17592 0.73404 0.0
C1441 C 0.35246 0.17829 0.69996 0.0
C1442 C 0.3572 0.19754 0.68709 0.0
C1443 C 0.36266 0.21425 0.70786 0.0
H1444 H 0.82805 0.15709 0.76935 0.0
H1445 H 0.78187 0.13431 0.69305 0.0
H1446 H 0.85497 0.17278 0.72789 0.0
H1447 H 0.80846 0.15102 0.652 0.0
H1448 H 0.86216 0.16979 0.58297 0.0
H1449 H 0.83546 0.15162 0.62361 0.0
H1450 H 0.86892 0.20137 0.69243 0.0
H1451 H 0.8963 0.21898 0.65211 0.0
C1452 C 0.82365 0.15531 0.74374 0.0
C1453 C 0.80282 0.14467 0.73454 0.0
C1454 C 0.83905 0.16456 0.71998 0.0
C1455 C 0.8339 0.16357 0.68658 0.0
C1456 C 0.81308 0.15204 0.67739 0.0
C1457 C 0.79776 0.14251 0.70105 0.0
C1458 C 0.86365 0.17701 0.60659 0.0
C1459 C 0.88125 0.19584 0.61437 0.0
C1460 C 0.84833 0.16656 0.62999 0.0
C1461 C 0.85006 0.1749 0.66149 0.0
C1462 C 0.86731 0.19421 0.66873 0.0
C1463 C 0.88284 0.20448 0.6455 0.0
H1464 H 0.01157 0.52578 0.43157 0.0
H1465 H 0.98083 0.54074 0.5073 0.0
H1466 H 0.02215 0.5092 0.47236 0.0
H1467 H 0.99041 0.52331 0.54757 0.0
H1468 H 0.02726 0.50618 0.61659 0.0
H1469 H 0.01747 0.52421 0.57762 0.0
H1470 H 1.00686 0.47844 0.50391 0.0
H1471 H 0.01766 0.46096 0.54261 0.0
C1472 C 1.0072 0.52566 0.45694 0.0
C1473 C 0.99525 0.53443 0.46616 0.0
C1474 C 0.01301 0.51592 0.48024 0.0
C1475 C 1.00678 0.51456 0.51314 0.0
C1476 C 0.99559 0.52415 0.52253 0.0
C1477 C 0.99004 0.53412 0.49935 0.0
C1478 C 0.02247 0.49975 0.59225 0.0
C1479 C 0.02325 0.48219 0.58258 0.0
C1480 C 0.01689 0.51012 0.56985 0.0
C1481 C 0.01167 0.50295 0.53746 0.0
C1482 C 0.01136 0.48471 0.52839 0.0
C1483 C 0.01724 0.47451 0.55066 0.0
H1484 H 0.49294 0.49182 0.42416 0.0
H1485 H 0.47656 0.44677 0.5014 0.0
H1486 H 0.50846 0.51936 0.46465 0.0
H1487 H 0.49305 0.47407 0.54133 0.0
H1488 H 0.50978 0.52765 0.60966 0.0
H1489 H 0.49184 0.50013 0.57019 0.0
H1490 H 0.53839 0.53549 0.49747 0.0
H1491 H 0.55569 0.56358 0.53667 0.0
C1492 C 0.49253 0.4878 0.44977 0.0
C1493 C 0.4837 0.46714 0.45953 0.0
C1494 C 0.50166 0.50357 0.47293 0.0
C1495 C 0.50236 0.49896 0.5062 0.0
C1496 C 0.49269 0.47824 0.51602 0.0
C1497 C 0.48328 0.46253 0.49301 0.0
C1498 C 0.51636 0.52941 0.5854 0.0
C1499 C 0.53416 0.5477 0.5762 0.0
C1500 C 0.50605 0.51362 0.5627 0.0
C1501 C 0.51354 0.51563 0.5305 0.0
C1502 C 0.53188 0.53364 0.52178 0.0
C1503 C 0.54198 0.5496 0.54434 0.0
H1504 H 0.47279 0.97846 0.57857 0.0
H1505 H 0.45603 0.01788 0.52574 0.0
H1506 H 0.50233 0.98921 0.54315 0.0
H1507 H 0.48627 0.02908 0.49019 0.0
H1508 H 0.52603 0.02124 0.41047 0.0
H1509 H 0.49699 0.01223 0.44709 0.0
H1510 H 0.53549 0.0195 0.53059 0.0
H1511 H 0.56439 0.02814 0.49415 0.0
C1512 C 0.47558 0.98965 0.55954 0.0
C1513 C 0.46204 0.99727 0.55472 0.0
C1514 C 0.4926 0.99589 0.53938 0.0
C1515 C 0.49653 0.0099 0.51388 0.0
C1516 C 0.48339 0.01806 0.50952 0.0
C1517 C 0.46627 0.01185 0.52998 0.0
C1518 C 0.52821 0.02061 0.43662 0.0
C1519 C 0.54747 0.0253 0.44944 0.0
C1520 C 0.51167 0.01577 0.45756 0.0
C1521 C 0.51408 0.01542 0.49163 0.0
C1522 C 0.53319 0.0196 0.50438 0.0
C1523 C 0.54971 0.02447 0.4835 0.0
H1524 H 0.51667 0.99831 0.11471 0.0
H1525 H 0.53882 0.98017 0.03032 0.0
H1526 H 0.49569 1.00641 0.07882 0.0
H1527 H 0.51737 0.98754 0.9948 0.0
H1528 H 0.49704 0.02759 0.94073 0.0
H1529 H 0.51601 0.01666 0.97514 0.0
H1530 H 0.46508 0.98958 0.04349 0.0
H1531 H 0.44614 1.00134 1.00909 0.0
C1532 C 0.51719 0.99621 0.08852 0.0
C1533 C 0.52947 0.9887 0.07534 0.0
C1534 C 0.50492 1.00052 0.06805 0.0
C1535 C 0.50469 0.99736 0.03406 0.0
C1536 C 0.51731 0.99026 0.02088 0.0
C1537 C 0.52966 0.98609 0.04126 0.0
C1538 C 0.48973 0.01907 0.9629 0.0
C1539 C 0.47019 0.01545 0.97245 0.0
C1540 C 0.50059 0.01269 0.98255 0.0
C1541 C 0.49212 1.0024 1.01215 0.0
C1542 C 0.4721 0.9978 0.021 0.0
C1543 C 0.46115 1.00425 1.00118 0.0
H1544 H 0.98115 0.44468 1.00274 0.0
H1545 H 0.01119 0.48922 0.9252 0.0
H1546 H 0.99252 0.47224 0.04237 0.0
H1547 H 0.02366 0.51697 0.96538 0.0
H1548 H 0.02224 0.56229 0.03681 0.0
H1549 H 0.01051 0.53391 0.99796 0.0
H1550 H 0.02048 0.49795 0.07097 0.0
H1551 H 0.03108 0.52583 0.11009 0.0
C1552 C 0.99058 0.46036 0.99422 0.0
C1553 C 0.99507 0.46479 0.96075 0.0
C1554 C 0.99719 0.47622 0.01706 0.0
C1555 C 1.0088 0.49687 1.00706 0.0
C1556 C 0.01426 0.50125 0.97379 0.0
C1557 C 1.00736 0.48536 0.95081 0.0
C1558 C 0.02153 0.54814 0.04463 0.0
C1559 C 0.02743 0.54619 0.07646 0.0
C1560 C 0.01511 0.532 0.02227 0.0
C1561 C 0.01481 0.51373 0.03118 0.0
C1562 C 0.02026 0.51167 0.06335 0.0
C1563 C 0.02632 0.52766 0.08584 0.0
H1564 H 0.4567 0.46162 0.03918 0.0
H1565 H 0.49092 0.50902 0.11096 0.0
H1566 H 0.48457 0.47958 0.9998 0.0
H1567 H 0.51818 0.52759 0.07126 0.0
H1568 H 0.57208 0.54486 1.00233 0.0
H1569 H 0.54508 0.52792 0.04266 0.0
H1570 H 0.49924 0.50908 0.96608 0.0
H1571 H 0.52653 0.52501 0.92525 0.0
C1572 C 0.47027 0.47579 0.04656 0.0
C1573 C 0.47174 0.48386 0.07813 0.0
C1574 C 0.48609 0.48627 0.02389 0.0
C1575 C 0.50351 0.50522 0.03216 0.0
C1576 C 0.50514 0.51294 0.06411 0.0
C1577 C 0.48952 0.50226 0.08695 0.0
C1578 C 0.55626 0.53726 0.99403 0.0
C1579 C 0.55146 0.53596 0.9605 0.0
C1580 C 0.5407 0.52761 0.01728 0.0
C1581 C 0.51994 0.5168 1.00763 0.0
C1582 C 0.51509 0.51672 0.97427 0.0
C1583 C 0.53071 0.52611 0.9509 0.0
H1584 H 0.27798 0.15432 0.03877 0.0
H1585 H 0.21555 0.14187 0.02697 0.0
H1586 H 0.26686 0.1185 0.02764 0.0
H1587 H 0.20415 0.10557 0.01689 0.0
H1588 H 0.19351 0.04541 0.97144 0.0
H1589 H 0.20486 0.0817 0.97955 0.0
H1590 H 0.2487 0.08561 0.05207 0.0
H1591 H 0.23759 0.04936 0.04324 0.0
C1592 C 0.26181 0.14389 0.03386 0.0
C1593 C 0.24763 0.15099 0.03387 0.0
C1594 C 0.25539 0.12324 0.02773 0.0
C1595 C 0.23455 0.10895 0.02173 0.0
C1596 C 0.22038 0.11612 0.02109 0.0
C1597 C 0.22687 0.13693 0.02693 0.0
C1598 C 0.20564 0.05406 0.98904 0.0
C1599 C 0.21487 0.04457 1.00635 0.0
C1600 C 0.21207 0.07487 0.99386 0.0
C1601 C 0.22774 0.08673 0.01644 0.0
C1602 C 0.23689 0.07714 0.03392 0.0
C1603 C 0.23057 0.05633 0.02885 0.0
H1604 H 0.87385 0.07878 0.02966 0.0
H1605 H 0.86157 0.12762 0.05428 0.0
H1606 H 0.90968 0.10435 0.01807 0.0
H1607 H 0.89697 0.1531 0.04151 0.0
H1608 H 0.96698 0.1933 0.04843 0.0
H1609 H 0.93114 0.1679 0.06026 0.0
H1610 H 0.93153 0.12992 0.98081 0.0
H1611 H 0.96741 0.15501 0.96984 0.0
C1612 C 0.87873 0.09496 0.03227 0.0
C1613 C 0.86481 0.10109 0.04299 0.0
C1614 C 0.89929 0.10968 0.02547 0.0
C1615 C 0.90638 0.13092 0.02886 0.0
C1616 C 0.89231 0.13697 0.03921 0.0
C1617 C 0.87188 0.12228 0.04632 0.0
C1618 C 0.95929 0.17968 0.03323 0.0
C1619 C 0.96999 0.17628 1.00802 0.0
C1620 C 0.93871 0.16503 0.04001 0.0
C1621 C 0.92829 0.1467 0.02156 0.0
C1622 C 0.93903 0.14355 0.99604 0.0
C1623 C 0.95961 0.15805 0.98955 0.0
H1624 H 0.92553 0.78228 1.00143 0.0
H1625 H 0.8909 0.74497 0.08417 0.0
H1626 H 0.89843 0.79094 0.99128 0.0
H1627 H 0.86432 0.75401 0.07443 0.0
H1628 H 0.83982 0.80105 0.06824 0.0
H1629 H 0.86541 0.79028 0.07654 0.0
H1630 H 0.85717 0.76897 0.97641 0.0
H1631 H 0.83114 0.77935 0.96837 0.0
C1632 C 0.91221 0.77599 0.01743 0.0
C1633 C 0.91035 0.76292 0.04355 0.0
C1634 C 0.89669 0.78083 1.01151 0.0
C1635 C 0.87931 0.77308 0.03207 0.0
C1636 C 0.87757 0.76019 0.05826 0.0
C1637 C 0.89278 0.755 0.06373 0.0
C1638 C 0.84322 0.7937 0.04825 0.0
C1639 C 0.83325 0.79059 0.01793 0.0
C1640 C 0.85787 0.78762 0.05293 0.0
C1641 C 0.86327 0.77886 0.02707 0.0
C1642 C 0.8533 0.77575 0.99668 0.0
C1643 C 0.83825 0.7814 0.99223 0.0
H1644 H 0.04314 0.18615 0.49531 0.0
H1645 H 0.06171 0.2464 0.53481 0.0
H1646 H 0.0791 0.19667 0.48505 0.0
H1647 H 0.09762 0.25699 0.52408 0.0
H1648 H 0.15706 0.27456 0.46698 0.0
H1649 H 0.12132 0.26406 0.4781 0.0
H1650 H 0.11103 0.2057 0.51507 0.0
H1651 H 0.14701 0.21614 0.50356 0.0
C1652 C 0.05487 0.20172 0.50156 0.0
C1653 C 0.04939 0.21555 0.51518 0.0
C1654 C 0.07551 0.20769 0.49588 0.0
C1655 C 0.09128 0.22768 0.50371 0.0
C1656 C 0.08584 0.24157 0.51724 0.0
C1657 C 0.06516 0.23555 0.52307 0.0
C1658 C 0.14726 0.25947 0.47756 0.0
C1659 C 0.15499 0.24617 0.48433 0.0
C1660 C 0.12674 0.25351 0.48412 0.0
C1661 C 0.11328 0.23405 0.4975 0.0
C1662 C 0.12095 0.22073 0.50444 0.0
C1663 C 0.1416 0.22675 0.49803 0.0
H1664 H 0.74071 0.8861 0.488 0.0
H1665 H 0.80384 0.93457 0.50019 0.0
H1666 H 0.75051 0.86044 0.49975 0.0
H1667 H 0.81395 0.90881 0.51045 0.0
H1668 H 0.82409 0.85923 0.55412 0.0
H1669 H 0.81305 0.88443 0.54698 0.0
H1670 H 0.76714 0.84405 0.47712 0.0
H1671 H 0.77779 0.81852 0.48549 0.0
C1672 C 0.75675 0.89129 0.49311 0.0
C1673 C 0.77151 0.91242 0.49313 0.0
C1674 C 0.76242 0.87651 0.49958 0.0
C1675 C 0.78309 0.88239 0.5058 0.0
C1676 C 0.79783 0.9036 0.50627 0.0
C1677 C 0.79208 0.91844 0.50025 0.0
C1678 C 0.81153 0.8557 0.5374 0.0
C1679 C 0.80168 0.83682 0.52058 0.0
C1680 C 0.80528 0.87024 0.53309 0.0
C1681 C 0.78922 0.86647 0.51132 0.0
C1682 C 0.77929 0.84744 0.49459 0.0
C1683 C 0.78537 0.83274 0.49933 0.0
H1684 H 0.13114 0.8561 0.4704 0.0
H1685 H 0.08307 0.86859 0.49965 0.0
H1686 H 0.15697 0.8919 0.48071 0.0
H1687 H 0.10909 0.90455 0.51007 0.0
H1688 H 0.15873 0.97108 0.48506 0.0
H1689 H 0.13332 0.93498 0.47663 0.0
H1690 H 0.17271 0.9172 0.52662 0.0
H1691 H 0.198 0.95335 0.53589 0.0
C1692 C 0.12605 0.86645 0.47918 0.0
C1693 C 0.10496 0.85943 0.48407 0.0
C1694 C 0.14092 0.88698 0.48527 0.0
C1695 C 0.13512 0.90111 0.49611 0.0
C1696 C 0.11405 0.89408 0.50138 0.0
C1697 C 0.09915 0.87345 0.49561 0.0
C1698 C 0.1621 0.95953 0.49421 0.0
C1699 C 0.18073 0.96532 0.51067 0.0
C1700 C 0.14742 0.93879 0.48952 0.0
C1701 C 0.15093 0.92319 0.50105 0.0
C1702 C 0.16965 0.92887 0.51709 0.0
C1703 C 0.18431 0.94969 0.52207 0.0
H1704 H 0.74056 0.85854 0.96972 0.0
H1705 H 0.79919 0.86911 1.00611 0.0
H1706 H 0.75097 0.89435 0.98006 0.0
H1707 H 0.80956 0.90517 0.01673 0.0
H1708 H 0.82883 0.97274 0.9943 0.0
H1709 H 0.81821 0.93669 0.985 0.0
H1710 H 0.75841 0.91856 0.02589 0.0
H1711 H 0.76912 0.95457 0.03582 0.0
C1712 C 0.75567 0.86847 0.9801 0.0
C1713 C 0.76906 0.86088 0.98703 0.0
C1714 C 0.76158 0.88902 0.9862 0.0
C1715 C 0.78109 0.90266 0.9992 0.0
C1716 C 0.79448 0.8951 1.00637 0.0
C1717 C 0.7885 0.87442 1.00049 0.0
C1718 C 0.81335 0.96109 1.00116 0.0
C1719 C 0.7997 0.96672 0.01514 0.0
C1720 C 0.80733 0.9404 0.99603 0.0
C1721 C 0.78747 0.92471 1.00472 0.0
C1722 C 0.77373 0.93029 0.01845 0.0
C1723 C 0.77981 0.95103 0.0238 0.0
H1724 H 0.1475 0.928 0.02025 0.0
H1725 H 0.14939 0.88801 0.94584 0.0
H1726 H 0.11213 0.90189 0.03345 0.0
H1727 H 0.11391 0.86241 0.95781 0.0
H1728 H 0.05538 0.81211 1.00238 0.0
H1729 H 0.09147 0.83744 0.99461 0.0
H1730 H 0.07826 0.88625 0.01445 0.0
H1731 H 0.04256 0.8609 0.02471 0.0
C1732 C 0.14031 0.91372 1.00651 0.0
C1733 C 0.15134 0.91014 0.98203 0.0
C1734 C 0.11995 0.89873 0.01395 0.0
C1735 C 0.10997 0.87987 0.99678 0.0
C1736 C 0.12106 0.87644 0.97215 0.0
C1737 C 0.14145 0.89128 0.96504 0.0
C1738 C 0.06016 0.82812 1.00617 0.0
C1739 C 0.04588 0.83423 0.01496 0.0
C1740 C 0.08095 0.84281 1.00098 0.0
C1741 C 0.088 0.86406 1.00386 0.0
C1742 C 0.07368 0.87012 1.01259 0.0
C1743 C 0.05302 0.85546 0.01813 0.0
H1744 H 0.19928 0.24843 0.03347 0.0
H1745 H 0.15708 0.18782 0.99566 0.0
H1746 H 0.17382 0.25889 0.0233 0.0
H1747 H 0.13157 0.19823 0.9858 0.0
H1748 H 0.08306 0.21715 1.00498 0.0
H1749 H 0.10892 0.20715 0.01616 0.0
H1750 H 0.15648 0.26562 0.97838 0.0
H1751 H 0.13093 0.27571 0.96771 0.0
C1752 C 0.18484 0.23748 0.02221 0.0
C1753 C 0.18046 0.2174 0.01474 0.0
C1754 C 0.1701 0.24343 0.01668 0.0
C1755 C 0.15058 0.22937 1.00383 0.0
C1756 C 0.14629 0.20935 0.99619 0.0
C1757 C 0.16101 0.20345 1.00162 0.0
C1758 C 0.09904 0.2279 0.99924 0.0
C1759 C 0.10484 0.24721 0.9854 0.0
C1760 C 0.11386 0.22213 1.00544 0.0
C1761 C 0.1348 0.23558 0.99811 0.0
C1762 C 0.14057 0.25497 0.98469 0.0
C1763 C 0.12582 0.26068 0.97838 0.0
H1764 H 0.86275 0.73756 0.56308 0.0
H1765 H 0.87464 0.79681 0.52747 0.0
H1766 H 0.89847 0.74736 0.55264 0.0
H1767 H 0.91049 0.80654 0.51683 0.0
H1768 H 0.97761 0.82459 0.53828 0.0
H1769 H 0.94175 0.81433 0.54876 0.0
H1770 H 0.92251 0.75477 0.50597 0.0
H1771 H 0.95832 0.76514 0.4948 0.0
C1772 C 0.87296 0.75267 0.55292 0.0
C1773 C 0.86578 0.76642 0.54617 0.0
C1774 C 0.89343 0.75822 0.54677 0.0
C1775 C 0.90734 0.77772 0.53396 0.0
C1776 C 0.9002 0.79147 0.52706 0.0
C1777 C 0.87963 0.78585 0.53296 0.0
C1778 C 0.96576 0.80923 0.53127 0.0
C1779 C 0.971 0.79557 0.51632 0.0
C1780 C 0.94518 0.80342 0.53711 0.0
C1781 C 0.92926 0.78375 0.52817 0.0
C1782 C 0.93445 0.76994 0.51359 0.0
C1783 C 0.95507 0.77583 0.50752 0.0
H1784 H 0.27733 0.12649 0.55128 0.0
H1785 H 0.21772 0.07846 0.51793 0.0
H1786 H 0.26737 0.15213 0.54078 0.0
H1787 H 0.20783 0.10445 0.50689 0.0
H1788 H 0.18998 0.15376 0.52936 0.0
H1789 H 0.20002 0.12784 0.53789 0.0
H1790 H 0.2598 0.16897 0.49621 0.0
H1791 H 0.2497 0.19481 0.48736 0.0
C1792 C 0.2621 0.12136 0.54145 0.0
C1793 C 0.24829 0.10031 0.53554 0.0
C1794 C 0.25646 0.13616 0.53523 0.0
C1795 C 0.23681 0.1304 0.52302 0.0
C1796 C 0.22302 0.10939 0.51666 0.0
C1797 C 0.22872 0.0945 0.52276 0.0
C1798 C 0.20534 0.15735 0.52219 0.0
C1799 C 0.21919 0.17662 0.50837 0.0
C1800 C 0.21101 0.14239 0.52684 0.0
C1801 C 0.2307 0.14628 0.51771 0.0
C1802 C 0.24462 0.16558 0.50401 0.0
C1803 C 0.2389 0.18054 0.49926 0.0
H1804 H 0.89374 0.15152 0.57928 0.0
H1805 H 0.93104 0.14647 0.50304 0.0
H1806 H 0.86711 0.11593 0.56998 0.0
H1807 H 0.90385 0.1106 0.49336 0.0
H1808 H 0.83707 0.05493 0.46713 0.0
H1809 H 0.86369 0.09129 0.47413 0.0
H1810 H 0.86665 0.08073 0.5775 0.0
H1811 H 0.84042 0.04446 0.57036 0.0
C1812 C 0.89625 0.14284 0.5604 0.0
C1813 C 0.91458 0.15185 0.54191 0.0
C1814 C 0.88097 0.12243 0.55518 0.0
C1815 C 0.88342 0.11058 0.53094 0.0
C1816 C 0.90158 0.11952 0.51207 0.0
C1817 C 0.91715 0.13995 0.51775 0.0
C1818 C 0.84315 0.06056 0.4914 0.0
C1819 C 0.83645 0.04711 0.51838 0.0
C1820 C 0.85855 0.08121 0.4953 0.0
C1821 C 0.86721 0.08875 0.52634 0.0
C1822 C 0.86016 0.07532 0.55336 0.0
C1823 C 0.84513 0.05465 0.54932 0.0
H1824 H 0.87842 0.3764 0.39984 0.0
H1825 H 0.90371 0.39152 0.30211 0.0
H1826 H 0.88933 0.41267 0.40972 0.0
H1827 H 0.91426 0.42785 0.31171 0.0
H1828 H 0.90113 0.48279 0.33549 0.0
H1829 H 0.89244 0.44712 0.32457 0.0
H1830 H 0.92545 0.44778 0.41157 0.0
H1831 H 0.93455 0.48338 0.42214 0.0
C1832 C 0.88657 0.38758 0.38067 0.0
C1833 C 0.89062 0.38132 0.35049 0.0
C1834 C 0.89275 0.40827 0.38627 0.0
C1835 C 0.90258 0.42301 0.36144 0.0
C1836 C 0.90666 0.41676 0.3312 0.0
C1837 C 0.90088 0.39609 0.32587 0.0
C1838 C 0.90653 0.47531 0.35223 0.0
C1839 C 0.91852 0.48592 0.37967 0.0
C1840 C 0.90168 0.45499 0.34586 0.0
C1841 C 0.90834 0.44478 0.36721 0.0
C1842 C 0.92011 0.4553 0.39477 0.0
C1843 C 0.92533 0.47569 0.40074 0.0
H1844 H 0.54281 0.41561 0.36239 0.0
H1845 H 0.52868 0.46358 0.38365 0.0
H1846 H 0.57835 0.44162 0.3506 0.0
H1847 H 0.56389 0.48962 0.37039 0.0
H1848 H 0.63418 0.53125 0.37737 0.0
H1849 H 0.59811 0.50601 0.3884 0.0
H1850 H 0.60004 0.46637 0.31316 0.0
H1851 H 0.63614 0.49117 0.3034 0.0
C1852 C 0.54722 0.43171 0.36414 0.0
C1853 C 0.53287 0.43746 0.374 0.0
C1854 C 0.56763 0.44672 0.35717 0.0
C1855 C 0.57418 0.46789 0.35938 0.0
C1856 C 0.55967 0.47356 0.36892 0.0
C1857 C 0.53936 0.45857 0.37632 0.0
C1858 C 0.62675 0.51727 0.36292 0.0
C1859 C 0.63796 0.51322 0.33948 0.0
C1860 C 0.60603 0.50273 0.36921 0.0
C1861 C 0.59601 0.48391 0.3519 0.0
C1862 C 0.60721 0.48032 0.32767 0.0
C1863 C 0.62791 0.49467 0.32181 0.0
H1864 H 0.55637 0.07147 0.38487 0.0
H1865 H 0.60476 0.13234 0.3572 0.0
H1866 H 0.53071 0.08151 0.37452 0.0
H1867 H 0.57882 0.14236 0.34662 0.0
H1868 H 0.52858 0.15855 0.37214 0.0
H1869 H 0.5543 0.14821 0.3799 0.0
H1870 H 0.51531 0.09124 0.32888 0.0
H1871 H 0.48974 0.10174 0.32038 0.0
C1872 C 0.56157 0.087 0.37636 0.0
C1873 C 0.5827 0.10114 0.37197 0.0
C1874 C 0.54678 0.09269 0.37025 0.0
C1875 C 0.5527 0.11272 0.35982 0.0
C1876 C 0.5738 0.12684 0.35497 0.0
C1877 C 0.58865 0.12108 0.36082 0.0
C1878 C 0.5254 0.14375 0.36265 0.0
C1879 C 0.50679 0.13082 0.34622 0.0
C1880 C 0.54025 0.13791 0.36693 0.0
C1881 C 0.5369 0.11894 0.35494 0.0
C1882 C 0.51824 0.10586 0.33877 0.0
C1883 C 0.50341 0.11179 0.33425 0.0
H1884 H 0.8118 0.54833 0.83497 0.0
H1885 H 0.82485 0.60862 0.80286 0.0
H1886 H 0.77592 0.53879 0.84487 0.0
H1887 H 0.78916 0.599 0.81234 0.0
H1888 H 0.72869 0.5812 0.86731 0.0
H1889 H 0.76452 0.59123 0.85715 0.0
H1890 H 0.74508 0.53179 0.81364 0.0
H1891 H 0.70923 0.52184 0.82341 0.0
C1892 C 0.80706 0.55954 0.83006 0.0
C1893 C 0.82127 0.57923 0.81812 0.0
C1894 C 0.78647 0.55404 0.83553 0.0
C1895 C 0.77964 0.56814 0.82935 0.0
C1896 C 0.79391 0.58785 0.81772 0.0
C1897 C 0.81441 0.59331 0.81212 0.0
C1898 C 0.73194 0.57047 0.85469 0.0
C1899 C 0.71596 0.55085 0.84554 0.0
C1900 C 0.75256 0.57616 0.84916 0.0
C1901 C 0.75771 0.56229 0.83466 0.0
C1902 C 0.74171 0.54275 0.82529 0.0
C1903 C 0.72114 0.53711 0.83069 0.0
H1904 H 0.45619 0.26014 0.86227 0.0
H1905 H 0.4245 0.22865 0.77366 0.0
H1906 H 0.46461 0.23288 0.87294 0.0
H1907 H 0.43334 0.202 0.78395 0.0
H1908 H 0.47946 0.17687 0.7972 0.0
H1909 H 0.46987 0.20326 0.78788 0.0
H1910 H 0.44108 0.19067 0.88324 0.0
H1911 H 0.45028 0.16382 0.8922 0.0
C1912 C 0.45119 0.24755 0.84502 0.0
C1913 C 0.43969 0.24655 0.81716 0.0
C1914 C 0.45586 0.23192 0.85123 0.0
C1915 C 0.44954 0.21536 0.82927 0.0
C1916 C 0.4384 0.2146 0.80122 0.0
C1917 C 0.43334 0.22987 0.79541 0.0
C1918 C 0.47074 0.17951 0.81586 0.0
C1919 C 0.46519 0.16808 0.84507 0.0
C1920 C 0.46536 0.19463 0.81063 0.0
C1921 C 0.45485 0.19903 0.83493 0.0
C1922 C 0.44928 0.1876 0.86421 0.0
C1923 C 0.45426 0.1721 0.86913 0.0
H1924 H 0.86447 0.28711 0.87024 0.0
H1925 H 0.8258 0.30518 0.81839 0.0
H1926 H 0.83915 0.25103 0.86076 0.0
H1927 H 0.80029 0.26908 0.80972 0.0
H1928 H 0.74989 0.20246 0.83244 0.0
H1929 H 0.77575 0.23849 0.84283 0.0
H1930 H 0.82392 0.22603 0.81453 0.0
H1931 H 0.79828 0.19019 0.80428 0.0
C1932 C 0.85091 0.28353 0.85612 0.0
C1933 C 0.84751 0.29922 0.84443 0.0
C1934 C 0.83622 0.26276 0.85103 0.0
C1935 C 0.81766 0.25718 0.83458 0.0
C1936 C 0.81428 0.27284 0.82286 0.0
C1937 C 0.82901 0.29355 0.82768 0.0
C1938 C 0.766 0.20739 0.82862 0.0
C1939 C 0.77195 0.19341 0.81744 0.0
C1940 C 0.78081 0.22805 0.83437 0.0
C1941 C 0.8019 0.23513 0.82942 0.0
C1942 C 0.80785 0.22105 0.81885 0.0
C1943 C 0.79308 0.20051 0.8128 0.0
H1944 H 0.49142 0.30212 0.38486 0.0
H1945 H 0.44469 0.29699 0.31768 0.0
H1946 H 0.4803 0.2659 0.37676 0.0
H1947 H 0.43402 0.2609 0.30817 0.0
H1948 H 0.40772 0.19225 0.31683 0.0
H1949 H 0.41757 0.22765 0.32922 0.0
H1950 H 0.48096 0.24263 0.33992 0.0
H1951 H 0.47077 0.20677 0.32915 0.0
C1952 C 0.47874 0.29318 0.36826 0.0
C1953 C 0.46879 0.30233 0.35213 0.0
C1954 C 0.47246 0.27241 0.36335 0.0
C1955 C 0.45629 0.26028 0.34161 0.0
C1956 C 0.44626 0.26951 0.3256 0.0
C1957 C 0.45235 0.29025 0.33099 0.0
C1958 C 0.42377 0.20308 0.32202 0.0
C1959 C 0.43848 0.19667 0.32199 0.0
C1960 C 0.42947 0.22351 0.32888 0.0
C1961 C 0.45013 0.23825 0.33539 0.0
C1962 C 0.46484 0.23176 0.33559 0.0
C1963 C 0.45905 0.21118 0.32924 0.0
H1964 H 0.82761 0.22029 0.31445 0.0
H1965 H 0.81249 0.26805 0.3312 0.0
H1966 H 0.79234 0.19417 0.32681 0.0
H1967 H 0.77684 0.24186 0.34209 0.0
H1968 H 0.71857 0.19201 0.38835 0.0
H1969 H 0.75467 0.21725 0.37957 0.0
H1970 H 0.75858 0.17745 0.30667 0.0
H1971 H 0.72252 0.15183 0.31669 0.0
C1972 C 0.81671 0.22524 0.32062 0.0
C1973 C 0.82292 0.24632 0.32189 0.0
C1974 C 0.79636 0.21018 0.32747 0.0
C1975 C 0.78154 0.21575 0.33541 0.0
C1976 C 0.78781 0.23689 0.3367 0.0
C1977 C 0.80827 0.25197 0.33027 0.0
C1978 C 0.72723 0.18859 0.37065 0.0
C1979 C 0.71777 0.16988 0.35337 0.0
C1980 C 0.74793 0.20317 0.36537 0.0
C1981 C 0.75968 0.19963 0.34214 0.0
C1982 C 0.75021 0.18069 0.32514 0.0
C1983 C 0.72951 0.16593 0.33084 0.0
H1984 H 0.85096 0.56061 0.39209 0.0
H1985 H 0.84514 0.54217 0.29067 0.0
H1986 H 0.82407 0.56982 0.38428 0.0
H1987 H 0.81852 0.55156 0.28272 0.0
H1988 H 0.79283 0.59631 0.27604 0.0
H1989 H 0.81872 0.5865 0.28575 0.0
H1990 H 0.78373 0.5493 0.36814 0.0
H1991 H 0.75724 0.5589 0.35811 0.0
C1992 C 0.84424 0.55898 0.36799 0.0
C1993 C 0.85042 0.55119 0.34172 0.0
C1994 C 0.82866 0.56391 0.36368 0.0
C1995 C 0.81925 0.56138 0.33291 0.0
C1996 C 0.82561 0.55375 0.30664 0.0
C1997 C 0.84085 0.54847 0.31112 0.0
C1998 C 0.79051 0.58597 0.29622 0.0
C1999 C 0.77291 0.57835 0.31631 0.0
C2000 C 0.80537 0.58033 0.30168 0.0
C2001 C 0.80324 0.56718 0.32767 0.0
C2002 C 0.78575 0.55957 0.34801 0.0
C2003 C 0.77057 0.56493 0.34215 0.0
H2004 H 0.54175 0.13269 0.8604 0.0
H2005 H 0.528 0.07039 0.87914 0.0
H2006 H 0.57767 0.14282 0.84976 0.0
H2007 H 0.56345 0.08021 0.86736 0.0
H2008 H 0.63296 0.10865 0.87915 0.0
H2009 H 0.59699 0.09843 0.88901 0.0
H2010 H 0.60043 0.14016 0.81289 0.0
H2011 H 0.63643 0.15069 0.80386 0.0
C2012 C 0.54632 0.12111 0.86183 0.0
C2013 C 0.53198 0.10077 0.87077 0.0
C2014 C 0.56692 0.12687 0.85562 0.0
C2015 C 0.57364 0.11237 0.85786 0.0
C2016 C 0.5591 0.09195 0.8661 0.0
C2017 C 0.53864 0.08626 0.87261 0.0
C2018 C 0.62592 0.11538 0.86422 0.0
C2019 C 0.6375 0.13032 0.84052 0.0
C2020 C 0.60526 0.10956 0.86988 0.0
C2021 C 0.59564 0.11845 0.85176 0.0
C2022 C 0.60728 0.13323 0.82779 0.0
C2023 C 0.62794 0.13917 0.82243 0.0
H2024 H 0.86738 0.48719 0.80014 0.0
H2025 H 0.90498 0.52505 0.88001 0.0
H2026 H 0.87855 0.4624 0.81093 0.0
H2027 H 0.91575 0.49993 0.8917 0.0
H2028 H 0.94551 0.46008 0.8865 0.0
H2029 H 0.93558 0.48553 0.87354 0.0
H2030 H 0.87453 0.43667 0.84785 0.0
H2031 H 0.88481 0.41121 0.85958 0.0
C2032 C 0.87806 0.4902 0.82009 0.0
C2033 C 0.88547 0.5082 0.83899 0.0
C2034 C 0.88436 0.47588 0.82647 0.0
C2035 C 0.89801 0.47898 0.85234 0.0
C2036 C 0.90552 0.49711 0.87119 0.0
C2037 C 0.89938 0.51159 0.8645 0.0
C2038 C 0.92996 0.45474 0.87798 0.0
C2039 C 0.91596 0.43356 0.87405 0.0
C2040 C 0.92421 0.46938 0.87076 0.0
C2041 C 0.9042 0.46329 0.85971 0.0
C2042 C 0.89018 0.44206 0.85575 0.0
C2043 C 0.89603 0.42739 0.86264 0.0
H2044 H 0.49016 0.3932 0.82152 0.0
H2045 H 0.52844 0.37545 0.87535 0.0
H2046 H 0.51536 0.42934 0.83095 0.0
H2047 H 0.55382 0.41156 0.88386 0.0
H2048 H 0.60439 0.47809 0.86147 0.0
H2049 H 0.57861 0.44209 0.85055 0.0
H2050 H 0.5302 0.45447 0.87757 0.0
H2051 H 0.55578 0.49027 0.88844 0.0
C2052 C 0.5036 0.39684 0.836 0.0
C2053 C 0.50691 0.38121 0.84827 0.0
C2054 C 0.51823 0.41766 0.84107 0.0
C2055 C 0.53665 0.42334 0.85803 0.0
C2056 C 0.53994 0.40774 0.8703 0.0
C2057 C 0.52528 0.387 0.86555 0.0
C2058 C 0.58825 0.47315 0.86489 0.0
C2059 C 0.58221 0.48709 0.87596 0.0
C2060 C 0.57348 0.45251 0.85882 0.0
C2061 C 0.55235 0.44541 0.86328 0.0
C2062 C 0.54631 0.45946 0.87364 0.0
C2063 C 0.56104 0.47998 0.88006 0.0
H2064 H 0.52726 0.70875 0.7091 0.0
H2065 H 0.58329 0.72722 0.65459 0.0
H2066 H 0.53766 0.74477 0.71777 0.0
H2067 H 0.59388 0.76324 0.66414 0.0
H2068 H 0.61412 0.82406 0.72128 0.0
H2069 H 0.60414 0.78833 0.71064 0.0
H2070 H 0.54293 0.77514 0.68471 0.0
H2071 H 0.55287 0.81106 0.69544 0.0
C2072 C 0.5419 0.72045 0.69918 0.0
C2073 C 0.5546 0.7149 0.68169 0.0
C2074 C 0.54778 0.74112 0.70403 0.0
C2075 C 0.56657 0.75688 0.69161 0.0
C2076 C 0.57941 0.75143 0.67439 0.0
C2077 C 0.57343 0.73069 0.66926 0.0
C2078 C 0.59852 0.81361 0.7132 0.0
C2079 C 0.58426 0.82047 0.70932 0.0
C2080 C 0.59287 0.79312 0.70691 0.0
C2081 C 0.57275 0.77888 0.6969 0.0
C2082 C 0.5585 0.78572 0.69272 0.0
C2083 C 0.56423 0.80632 0.69868 0.0
H2084 H 0.30883 0.82231 0.70638 0.0
H2085 H 0.29027 0.86011 0.65301 0.0
H2086 H 0.27284 0.79633 0.71442 0.0
H2087 H 0.25425 0.83428 0.66185 0.0
H2088 H 0.19349 0.79314 0.71852 0.0
H2089 H 0.22912 0.81903 0.70781 0.0
H2090 H 0.24253 0.77122 0.68147 0.0
H2091 H 0.20662 0.74505 0.69235 0.0
C2092 C 0.29711 0.82522 0.69657 0.0
C2093 C 0.30261 0.84362 0.6796 0.0
C2094 C 0.27645 0.81021 0.70102 0.0
C2095 C 0.26067 0.81319 0.68872 0.0
C2096 C 0.26607 0.83164 0.672 0.0
C2097 C 0.2868 0.84662 0.66727 0.0
C2098 C 0.20395 0.78805 0.7103 0.0
C2099 C 0.19715 0.76693 0.70641 0.0
C2100 C 0.22439 0.80297 0.70397 0.0
C2101 C 0.23868 0.79722 0.69384 0.0
C2102 C 0.23191 0.77613 0.68956 0.0
C2103 C 0.21132 0.76114 0.6956 0.0
H2104 H 0.27143 0.46487 0.69176 0.0
H2105 H 0.22322 0.40413 0.72013 0.0
H2106 H 0.24552 0.47465 0.6803 0.0
H2107 H 0.19741 0.41354 0.70752 0.0
H2108 H 0.15701 0.44312 0.71375 0.0
H2109 H 0.18272 0.43315 0.72559 0.0
H2110 H 0.21929 0.46982 0.64361 0.0
H2111 H 0.1939 0.48016 0.63259 0.0
C2112 C 0.25532 0.45355 0.69524 0.0
C2113 C 0.24948 0.43374 0.70691 0.0
C2114 C 0.2404 0.45909 0.68852 0.0
C2115 C 0.21924 0.4449 0.69296 0.0
C2116 C 0.21348 0.42505 0.70435 0.0
C2117 C 0.22836 0.41959 0.71137 0.0
C2118 C 0.17037 0.44876 0.69799 0.0
C2119 C 0.1733 0.46226 0.67206 0.0
C2120 C 0.1852 0.4431 0.70478 0.0
C2121 C 0.20325 0.4507 0.68564 0.0
C2122 C 0.2059 0.46396 0.65938 0.0
C2123 C 0.19122 0.46977 0.65286 0.0
H2124 H 0.37965 0.88052 0.12511 0.0
H2125 H 0.39135 0.89654 0.22753 0.0
H2126 H 0.41569 0.88997 0.11741 0.0
H2127 H 0.42751 0.90582 0.21994 0.0
H2128 H 0.48259 0.89365 0.19234 0.0
H2129 H 0.44685 0.88517 0.20262 0.0
H2130 H 0.4508 0.92424 0.12199 0.0
H2131 H 0.48622 0.93294 0.11202 0.0
C2132 C 0.39005 0.88633 0.14586 0.0
C2133 C 0.38291 0.88828 0.17671 0.0
C2134 C 0.41061 0.89167 0.14149 0.0
C2135 C 0.42435 0.8986 0.1681 0.0
C2136 C 0.4172 0.90046 0.19907 0.0
C2137 C 0.39665 0.89549 0.20329 0.0
C2138 C 0.47578 0.90039 0.17687 0.0
C2139 C 0.48726 0.91394 0.15138 0.0
C2140 C 0.45543 0.89566 0.18289 0.0
C2141 C 0.44612 0.90408 0.16307 0.0
C2142 C 0.45756 0.91747 0.13754 0.0
C2143 C 0.47789 0.92247 0.13192 0.0
H2144 H 0.10321 0.48478 0.19976 0.0
H2145 H 0.16363 0.52576 0.15998 0.0
H2146 H 0.09331 0.51065 0.18959 0.0
H2147 H 0.15381 0.55175 0.15029 0.0
H2148 H 0.13594 0.60115 0.17101 0.0
H2149 H 0.14559 0.57494 0.18139 0.0
H2150 H 0.0867 0.528 0.14411 0.0
H2151 H 0.07698 0.55391 0.1341 0.0
C2152 C 0.11422 0.49902 0.18805 0.0
C2153 C 0.13408 0.50291 0.17998 0.0
C2154 C 0.10861 0.514 0.18254 0.0
C2155 C 0.12279 0.53332 0.16917 0.0
C2156 C 0.1426 0.53717 0.16103 0.0
C2157 C 0.14816 0.52218 0.16637 0.0
C2158 C 0.12505 0.58524 0.16516 0.0
C2159 C 0.10571 0.57971 0.15171 0.0
C2160 C 0.13061 0.57022 0.17092 0.0
C2161 C 0.11691 0.54934 0.16356 0.0
C2162 C 0.09753 0.54386 0.15042 0.0
C2163 C 0.09203 0.55881 0.14451 0.0
H2164 H 0.41362 0.53566 0.16331 0.0
H2165 H 0.46273 0.52214 0.14958 0.0
H2166 H 0.43903 0.57156 0.17471 0.0
H2167 H 0.488 0.55755 0.16246 0.0
H2168 H 0.52947 0.6271 0.15204 0.0
H2169 H 0.50429 0.591 0.14181 0.0
H2170 H 0.46301 0.59453 0.21222 0.0
H2171 H 0.48788 0.63075 0.2212 0.0
C2172 C 0.42982 0.54029 0.16318 0.0
C2173 C 0.43611 0.52604 0.15539 0.0
C2174 C 0.44445 0.56088 0.16988 0.0
C2175 C 0.46573 0.56765 0.16945 0.0
C2176 C 0.47188 0.55318 0.16233 0.0
C2177 C 0.45731 0.53274 0.15518 0.0
C2178 C 0.51514 0.62003 0.16564 0.0
C2179 C 0.51072 0.63169 0.18758 0.0
C2180 C 0.50063 0.59929 0.1598 0.0
C2181 C 0.48144 0.58967 0.17611 0.0
C2182 C 0.47733 0.60138 0.19861 0.0
C2183 C 0.49169 0.62213 0.20402 0.0
H2184 H 0.16233 0.63885 0.66095 0.0
H2185 H 0.10301 0.62022 0.70441 0.0
H2186 H 0.15203 0.60284 0.65187 0.0
H2187 H 0.09264 0.58425 0.69495 0.0
H2188 H 0.07425 0.52426 0.63942 0.0
H2189 H 0.08463 0.55999 0.64984 0.0
H2190 H 0.14421 0.57145 0.68256 0.0
H2191 H 0.13388 0.53541 0.67165 0.0
C2192 C 0.14701 0.62709 0.66832 0.0
C2193 C 0.13334 0.63254 0.6827 0.0
C2194 C 0.14118 0.60642 0.66334 0.0
C2195 C 0.12152 0.59063 0.67268 0.0
C2196 C 0.10779 0.59605 0.68697 0.0
C2197 C 0.11366 0.61675 0.69207 0.0
C2198 C 0.08958 0.53429 0.64894 0.0
C2199 C 0.10325 0.52688 0.65464 0.0
C2200 C 0.09547 0.55482 0.65511 0.0
C2201 C 0.11524 0.56861 0.66706 0.0
C2202 C 0.12893 0.56125 0.67303 0.0
C2203 C 0.12298 0.54058 0.66699 0.0
H2204 H 0.49324 0.55415 0.63906 0.0
H2205 H 0.47995 0.60148 0.66948 0.0
H2206 H 0.45757 0.52794 0.64909 0.0
H2207 H 0.44408 0.57505 0.67963 0.0
H2208 H 0.37776 0.5248 0.65475 0.0
H2209 H 0.41372 0.55071 0.64628 0.0
H2210 H 0.43246 0.51167 0.69499 0.0
H2211 H 0.39647 0.4859 0.70426 0.0
C2212 C 0.48275 0.559 0.64804 0.0
C2213 C 0.48951 0.58 0.65337 0.0
C2214 C 0.46229 0.5439 0.65397 0.0
C2215 C 0.44796 0.54938 0.66509 0.0
C2216 C 0.45471 0.57035 0.67073 0.0
C2217 C 0.47529 0.58548 0.6651 0.0
C2218 C 0.3895 0.52163 0.66359 0.0
C2219 C 0.38404 0.50296 0.67967 0.0
C2220 C 0.41015 0.53659 0.65888 0.0
C2221 C 0.42598 0.53331 0.67004 0.0
C2222 C 0.42061 0.51456 0.68573 0.0
C2223 C 0.39989 0.49962 0.69071 0.0
H2224 H 0.41525 0.88222 0.67184 0.0
H2225 H 0.46322 0.94196 0.63877 0.0
H2226 H 0.44122 0.87227 0.68245 0.0
H2227 H 0.4889 0.93195 0.64898 0.0
H2228 H 0.53112 0.9138 0.70354 0.0
H2229 H 0.50547 0.92406 0.69413 0.0
H2230 H 0.46475 0.8647 0.65093 0.0
H2231 H 0.49054 0.85452 0.65987 0.0
C2232 C 0.43128 0.89324 0.66696 0.0
C2233 C 0.43708 0.91287 0.65442 0.0
C2234 C 0.44615 0.88751 0.67282 0.0
C2235 C 0.46715 0.90132 0.66649 0.0
C2236 C 0.47293 0.92102 0.65446 0.0
C2237 C 0.45812 0.92669 0.64844 0.0
C2238 C 0.51702 0.90313 0.69115 0.0
C2239 C 0.51318 0.8835 0.68173 0.0
C2240 C 0.50216 0.90895 0.68609 0.0
C2241 C 0.48301 0.89519 0.67183 0.0
C2242 C 0.4792 0.87558 0.66238 0.0
C2243 C 0.49407 0.86982 0.6673 0.0
H2244 H 0.19399 0.40283 0.22468 0.0
H2245 H 0.20538 0.46192 0.18913 0.0
H2246 H 0.22965 0.41279 0.21403 0.0
H2247 H 0.24126 0.4718 0.17806 0.0
H2248 H 0.30859 0.49029 0.19908 0.0
H2249 H 0.27268 0.48006 0.20886 0.0
H2250 H 0.2538 0.41993 0.16863 0.0
H2251 H 0.2897 0.43024 0.15841 0.0
C2252 C 0.20407 0.41795 0.21442 0.0
C2253 C 0.19675 0.4316 0.20784 0.0
C2254 C 0.22454 0.42359 0.20812 0.0
C2255 C 0.23835 0.44308 0.19521 0.0
C2256 C 0.23106 0.45673 0.18836 0.0
C2257 C 0.21047 0.45103 0.1945 0.0
C2258 C 0.2968 0.47482 0.19247 0.0
C2259 C 0.30217 0.46097 0.17858 0.0
C2260 C 0.27619 0.46902 0.19787 0.0
C2261 C 0.26033 0.44919 0.18948 0.0
C2262 C 0.26565 0.43524 0.17584 0.0
C2263 C 0.28632 0.44109 0.17029 0.0
H2264 H 0.52933 0.82127 0.14139 0.0
H2265 H 0.57508 0.86168 0.21097 0.0
H2266 H 0.53993 0.7958 0.14942 0.0
H2267 H 0.58526 0.83587 0.22024 0.0
H2268 H 0.61109 0.79313 0.21061 0.0
H2269 H 0.60178 0.81911 0.19866 0.0
H2270 H 0.53824 0.77128 0.18645 0.0
H2271 H 0.54787 0.74518 0.19693 0.0
C2272 C 0.54169 0.82468 0.15849 0.0
C2273 C 0.55151 0.84354 0.17534 0.0
C2274 C 0.54767 0.80997 0.16333 0.0
C2275 C 0.5634 0.81357 0.18567 0.0
C2276 C 0.57334 0.8326 0.20238 0.0
C2277 C 0.56754 0.84747 0.19711 0.0
C2278 C 0.59513 0.78812 0.20519 0.0
C2279 C 0.58021 0.76703 0.20473 0.0
C2280 C 0.58974 0.80309 0.19858 0.0
C2281 C 0.56921 0.79746 0.19176 0.0
C2282 C 0.55428 0.7763 0.19106 0.0
C2283 C 0.55975 0.76127 0.19723 0.0
H2284 H 0.15626 0.72659 0.15674 0.0
H2285 H 0.19611 0.70899 0.20599 0.0
H2286 H 0.18127 0.76273 0.16661 0.0
H2287 H 0.22129 0.74514 0.21498 0.0
H2288 H 0.27085 0.81191 0.19149 0.0
H2289 H 0.24504 0.77586 0.18138 0.0
H2290 H 0.19703 0.78769 0.21322 0.0
H2291 H 0.22265 0.82359 0.22329 0.0
C2292 C 0.17002 0.73027 0.17037 0.0
C2293 C 0.17385 0.71469 0.18118 0.0
C2294 C 0.18452 0.75108 0.17569 0.0
C2295 C 0.20332 0.75682 0.19146 0.0
C2296 C 0.2071 0.74127 0.20236 0.0
C2297 C 0.19257 0.72052 0.19734 0.0
C2298 C 0.25479 0.80685 0.1962 0.0
C2299 C 0.24888 0.82068 0.20828 0.0
C2300 C 0.24001 0.78617 0.19058 0.0
C2301 C 0.21898 0.7789 0.19658 0.0
C2302 C 0.21306 0.79282 0.2081 0.0
C2303 C 0.22781 0.8134 0.21403 0.0
H2304 H 0.2169 0.20539 0.17731 0.0
H2305 H 0.28163 0.24865 0.18995 0.0
H2306 H 0.21028 0.21235 0.23331 0.0
H2307 H 0.27548 0.25451 0.2463 0.0
H2308 H 0.25704 0.27694 0.33562 0.0
H2309 H 0.26257 0.27029 0.2793 0.0
H2310 H 0.21369 0.20699 0.28935 0.0
H2311 H 0.20732 0.21431 0.34527 0.0
C2312 C 0.22969 0.21645 0.19203 0.0
C2313 C 0.24978 0.22651 0.17919 0.0
C2314 C 0.22599 0.22021 0.22437 0.0
C2315 C 0.24232 0.23399 0.24473 0.0
C2316 C 0.26238 0.24407 0.23153 0.0
C2317 C 0.26599 0.24053 0.19921 0.0
C2318 C 0.24746 0.26162 0.32572 0.0
C2319 C 0.23174 0.24618 0.34484 0.0
C2320 C 0.25074 0.25769 0.29343 0.0
C2321 C 0.23864 0.23803 0.2794 0.0
C2322 C 0.22315 0.22241 0.29892 0.0
C2323 C 0.21969 0.22647 0.33121 0.0
H2324 H 0.81583 0.01624 0.17915 0.0
H2325 H 0.7654 0.02751 0.19432 0.0
H2326 H 0.81221 1.00383 0.23587 0.0
H2327 H 0.76223 0.01583 0.25109 0.0
H2328 H 0.77836 0.01638 0.3597 0.0
H2329 H 0.78458 0.02892 0.30287 0.0
H2330 H 0.78539 0.97424 0.2722 0.0
H2331 H 0.77892 0.9617 0.32895 0.0
C2332 C 0.80382 0.01581 0.19446 0.0
C2333 C 0.79091 0.02286 0.18233 0.0
C2334 C 0.80184 0.00886 0.22697 0.0
C2335 C 0.78714 0.00915 0.24811 0.0
C2336 C 0.77397 0.01579 0.23565 0.0
C2337 C 0.77572 0.02238 0.20311 0.0
C2338 C 0.78022 0.00727 0.34083 0.0
C2339 C 0.77813 0.9881 0.34855 0.0
C2340 C 0.7836 0.01432 0.30831 0.0
C2341 C 0.78529 1.00247 0.28299 0.0
C2342 C 0.78422 0.98375 0.29112 0.0
C2343 C 0.78051 0.97657 0.32353 0.0
H2344 H 0.02785 0.75893 0.33569 0.0
H2345 H 0.01957 0.81136 0.34901 0.0
H2346 H 0.01577 0.75538 0.27915 0.0
H2347 H 1.00693 0.80753 0.29241 0.0
H2348 H 0.96436 0.77551 0.1997 0.0
H2349 H 0.97709 0.78217 0.25636 0.0
H2350 H 0.02905 0.77602 0.22685 0.0
H2351 H 0.01629 0.76953 0.17022 0.0
C2352 C 0.02327 0.7696 0.32653 0.0
C2353 C 0.02472 0.78546 0.34671 0.0
C2354 C 0.01648 0.76766 0.2941 0.0
C2355 C 0.01066 0.78135 0.28111 0.0
C2356 C 0.0113 0.79674 0.3017 0.0
C2357 C 0.0184 0.79885 0.33414 0.0
C2358 C 0.97871 0.77601 0.20536 0.0
C2359 C 0.98939 0.77204 0.18077 0.0
C2360 C 0.98599 0.7798 0.23772 0.0
C2361 C 1.00396 0.7794 0.2462 0.0
C2362 C 0.01501 0.77616 0.2212 0.0
C2363 C 1.00786 0.77264 0.18878 0.0
H2364 H 0.80258 0.81503 0.8478 0.0
H2365 H 0.744 0.75899 0.83928 0.0
H2366 H 0.81074 0.81105 0.79085 0.0
H2367 H 0.75177 0.75538 0.78221 0.0
H2368 H 0.7626 0.76951 0.67196 0.0
H2369 H 0.75674 0.77597 0.72893 0.0
H2370 H 0.81642 0.78518 0.75593 0.0
H2371 H 0.82201 0.77835 0.69907 0.0
C2372 C 0.79164 0.80168 0.83394 0.0
C2373 C 0.77274 0.7872 0.84801 0.0
C2374 C 0.7962 0.79951 0.8013 0.0
C2375 C 0.78178 0.78304 0.78196 0.0
C2376 C 0.76305 0.76841 0.79631 0.0
C2377 C 0.75866 0.77039 0.829 0.0
C2378 C 0.77455 0.77329 0.69004 0.0
C2379 C 0.79277 0.77357 0.68132 0.0
C2380 C 0.77117 0.7768 0.72262 0.0
C2381 C 0.78608 0.78095 0.74693 0.0
C2382 C 0.80471 0.78213 0.73775 0.0
C2383 C 0.80793 0.77827 0.7053 0.0
H2384 H 0.24505 0.99763 0.66922 0.0
H2385 H 0.23926 0.05004 0.69628 0.0
H2386 H 0.2382 0.98544 0.7262 0.0
H2387 H 0.23221 0.03785 0.75322 0.0
H2388 H 0.20119 0.99548 0.84576 0.0
H2389 H 0.20598 0.00798 0.78893 0.0
H2390 H 0.25838 0.9992 0.77919 0.0
H2391 H 0.25392 0.98733 0.836 0.0
C2392 C 0.24194 1.00631 0.68731 0.0
C2393 C 0.24266 0.02472 0.67851 0.0
C2394 C 0.23821 0.99947 0.71994 0.0
C2395 C 0.23483 0.01078 0.74431 0.0
C2396 C 0.23467 0.02875 0.73506 0.0
C2397 C 0.2387 0.03573 0.70254 0.0
C2398 C 0.21399 0.99668 0.83164 0.0
C2399 C 0.2272 0.99045 0.84529 0.0
C2400 C 0.21664 1.00368 0.79906 0.0
C2401 C 0.23237 1.00428 0.77939 0.0
C2402 C 0.24587 0.99854 0.79345 0.0
C2403 C 0.2434 0.99188 0.82603 0.0
H2404 H 0.01664 0.21257 0.84717 0.0
H2405 H 0.03383 0.27641 0.83704 0.0
H2406 H 1.00336 0.20598 0.79104 0.0
H2407 H 0.02262 0.27057 0.78048 0.0
H2408 H 0.98537 0.25304 0.6883 0.0
H2409 H 0.99601 0.25782 0.74517 0.0
H2410 H 0.01158 0.20974 0.73577 0.0
H2411 H 0.99882 0.20371 0.67939 0.0
C2412 C 0.01746 0.22515 0.83297 0.0
C2413 C 0.02625 0.24499 0.8465 0.0
C2414 C 0.01022 0.22151 0.8005 0.0
C2415 C 0.01192 0.23772 0.78065 0.0
C2416 C 0.02053 0.25749 0.7947 0.0
C2417 C 0.02726 0.26096 0.8272 0.0
C2418 C 0.99097 0.24341 0.69848 0.0
C2419 C 0.99116 0.22795 0.67939 0.0
C2420 C 0.99737 0.24631 0.73116 0.0
C2421 C 1.00484 0.23426 0.74559 0.0
C2422 C 1.00561 0.21913 0.72602 0.0
C2423 C 0.99869 0.2159 0.6934 0.0
H2424 H 0.90689 0.52986 0.53137 0.0
H2425 H 0.90912 0.58609 0.50175 0.0
H2426 H 0.89987 0.53544 0.58806 0.0
H2427 H 0.90242 0.59195 0.55859 0.0
H2428 H 0.92157 0.60794 0.66821 0.0
H2429 H 0.92442 0.60012 0.61089 0.0
H2430 H 0.87311 0.53854 0.62401 0.0
H2431 H 0.86977 0.54666 0.68121 0.0
C2432 C 0.90542 0.54319 0.537 0.0
C2433 C 0.9084 0.55751 0.51235 0.0
C2434 C 0.90145 0.5464 0.56938 0.0
C2435 C 0.90076 0.56422 0.57784 0.0
C2436 C 0.90305 0.57818 0.55285 0.0
C2437 C 0.90668 0.57476 0.52034 0.0
C2438 C 0.91084 0.59276 0.6588 0.0
C2439 C 0.89542 0.57794 0.67918 0.0
C2440 C 0.91242 0.58831 0.62596 0.0
C2441 C 0.89884 0.56879 0.61282 0.0
C2442 C 0.88379 0.55372 0.63345 0.0
C2443 C 0.88199 0.55831 0.66624 0.0
H2444 H 0.43839 0.32856 0.50274 0.0
H2445 H 0.48715 0.38795 0.53441 0.0
H2446 H 0.43373 0.31594 0.55926 0.0
H2447 H 0.48286 0.37545 0.59078 0.0
H2448 H 0.45084 0.35372 0.69175 0.0
H2449 H 0.45889 0.3663 0.63522 0.0
H2450 H 0.44837 0.30675 0.60385 0.0
H2451 H 0.44009 0.29429 0.66023 0.0
C2452 C 0.44834 0.33878 0.52176 0.0
C2453 C 0.463 0.35924 0.5143 0.0
C2454 C 0.44572 0.33159 0.55418 0.0
C2455 C 0.4578 0.34472 0.57983 0.0
C2456 C 0.47298 0.365 0.57193 0.0
C2457 C 0.47554 0.37215 0.5396 0.0
C2458 C 0.45055 0.34349 0.67276 0.0
C2459 C 0.44469 0.32302 0.68028 0.0
C2460 C 0.45518 0.35065 0.64034 0.0
C2461 C 0.45413 0.3375 0.61472 0.0
C2462 C 0.44894 0.31721 0.62267 0.0
C2463 C 0.44429 0.31009 0.65501 0.0
H2464 H 0.6869 0.14374 0.6819 0.0
H2465 H 0.69692 0.09234 0.66926 0.0
H2466 H 0.67439 0.13951 0.62518 0.0
H2467 H 0.68511 0.08852 0.61248 0.0
H2468 H 0.6862 0.10391 0.50307 0.0
H2469 H 0.69849 0.11008 0.56002 0.0
H2470 H 0.64454 0.11266 0.58952 0.0
H2471 H 0.63224 0.10625 0.53265 0.0
C2472 C 0.68615 0.13137 0.66715 0.0
C2473 C 0.69288 0.11836 0.67997 0.0
C2474 C 0.67914 0.12904 0.63465 0.0
C2475 C 0.67905 0.11386 0.61422 0.0
C2476 C 0.68536 0.1006 0.62738 0.0
C2477 C 0.69201 0.10271 0.65991 0.0
C2478 C 0.67719 0.1061 0.52173 0.0
C2479 C 0.65833 0.10462 0.51363 0.0
C2480 C 0.68409 0.10945 0.5543 0.0
C2481 C 0.6724 0.11171 0.5793 0.0
C2482 C 0.65392 0.11107 0.57083 0.0
C2483 C 0.64688 0.10739 0.53837 0.0
H2484 H 0.44384 0.15182 0.16031 0.0
H2485 H 0.44265 0.09632 0.19131 0.0
H2486 H 0.45105 0.14601 0.10385 0.0
H2487 H 0.44963 0.09027 0.13476 0.0
H2488 H 0.43354 0.07372 0.0249 0.0
H2489 H 0.42896 0.08138 0.0815 0.0
H2490 H 0.47871 0.14388 0.0693 0.0
H2491 H 0.48379 0.13593 1.01282 0.0
C2492 C 0.44537 0.1385 0.155 0.0
C2493 C 0.44271 0.12451 0.18006 0.0
C2494 C 0.44953 0.13519 0.12275 0.0
C2495 C 0.45078 0.11761 0.11476 0.0
C2496 C 0.44856 0.10386 0.14007 0.0
C2497 C 0.44473 0.10736 0.17244 0.0
C2498 C 0.44351 0.0891 0.0343 0.0
C2499 C 0.45894 0.10425 0.01431 0.0
C2500 C 0.44094 0.09346 0.06677 0.0
C2501 C 0.45356 0.1132 0.08001 0.0
C2502 C 0.46867 0.12855 0.05976 0.0
C2503 C 0.47146 0.12406 0.02735 0.0
H2504 H 0.92376 0.32299 0.17217 0.0
H2505 H 0.86709 0.32432 0.17979 0.0
H2506 H 0.92713 0.33367 0.11476 0.0
H2507 H 0.8708 0.33572 0.12245 0.0
H2508 H 0.9029 0.37906 0.0298 0.0
H2509 H 0.89609 0.36706 0.08686 0.0
H2510 H 0.90689 0.31735 0.06169 0.0
H2511 H 0.91337 0.32927 1.00451 0.0
C2512 C 0.91215 0.32582 0.1616 0.0
C2513 C 0.89523 0.32294 0.18046 0.0
C2514 C 0.914 0.33178 0.12871 0.0
C2515 C 0.89912 0.33533 0.114 0.0
C2516 C 0.88253 0.33314 0.13316 0.0
C2517 C 0.8805 0.32681 0.16602 0.0
C2518 C 0.90332 0.36529 0.03646 0.0
C2519 C 0.90848 0.35495 1.01293 0.0
C2520 C 0.89947 0.35845 0.06903 0.0
C2521 C 0.90112 0.34137 0.0788 0.0
C2522 C 0.9057 0.33068 0.05493 0.0
C2523 C 0.90921 0.33734 0.02223 0.0
H2524 H 0.66902 0.5379 1.01206 0.0
H2525 H 0.65776 0.58855 0.024 0.0
H2526 H 0.68223 0.54303 0.06845 0.0
H2527 H 0.67029 0.59328 0.08043 0.0
H2528 H 0.67034 0.57886 0.19013 0.0
H2529 H 0.65772 0.57219 0.13338 0.0
H2530 H 0.71208 0.57056 0.1033 0.0
H2531 H 0.7247 0.57743 0.15998 0.0
C2532 C 0.66965 0.5503 0.02658 0.0
C2533 C 0.66233 0.56281 1.01369 0.0
C2534 C 0.67707 0.55315 0.05888 0.0
C2535 C 0.67701 0.56837 0.07904 0.0
C2536 C 0.67017 0.58117 0.06576 0.0
C2537 C 0.66309 0.57854 0.03342 0.0
C2538 C 0.6794 0.57681 0.17138 0.0
C2539 C 0.69845 0.57866 0.17927 0.0
C2540 C 0.6723 0.57316 0.13892 0.0
C2541 C 0.68399 0.57099 0.11382 0.0
C2542 C 0.7027 0.57208 0.12207 0.0
C2543 C 0.70993 0.57605 0.15442 0.0
H2544 H 0.58796 0.90858 0.02469 0.0
H2545 H 0.53169 0.90645 0.99572 0.0
H2546 H 0.59385 0.90231 0.96763 0.0
H2547 H 0.53732 0.89989 0.93878 0.0
H2548 H 0.54854 0.8692 0.84567 0.0
H2549 H 0.54028 0.87307 0.90262 0.0
H2550 H 0.60196 0.92426 0.91541 0.0
H2551 H 0.60991 0.92083 0.85842 0.0
C2552 C 0.57668 0.90635 1.00617 0.0
C2553 C 0.55939 0.90794 0.01445 0.0
C2554 C 0.5801 0.90295 0.97353 0.0
C2555 C 0.56611 0.90075 0.94867 0.0
C2556 C 0.54832 0.90142 0.95735 0.0
C2557 C 0.54509 0.90517 0.98987 0.0
C2558 C 0.56015 0.88153 0.86049 0.0
C2559 C 0.57988 0.89471 0.84763 0.0
C2560 C 0.55549 0.88365 0.89313 0.0
C2561 C 0.57058 0.89877 0.91365 0.0
C2562 C 0.59013 0.91221 0.90045 0.0
C2563 C 0.59465 0.91031 0.86779 0.0
H2564 H 0.11061 0.63039 0.99562 0.0
H2565 H 0.10911 0.68486 0.0247 0.0
H2566 H 0.11719 0.64255 0.93868 0.0
H2567 H 0.11545 0.69702 0.96765 0.0
H2568 H 0.09735 0.69493 0.8583 0.0
H2569 H 0.09373 0.68362 0.91535 0.0
H2570 H 0.14419 0.67206 0.90269 0.0
H2571 H 0.14824 0.68409 0.8457 0.0
C2572 C 0.112 0.64512 0.98978 0.0
C2573 C 0.1094 0.65674 0.01438 0.0
C2574 C 0.11578 0.65209 0.95727 0.0
C2575 C 0.11668 0.67066 0.94863 0.0
C2576 C 0.11463 0.68254 0.97352 0.0
C2577 C 0.11117 0.67571 1.00614 0.0
C2578 C 0.10769 0.69 0.86773 0.0
C2579 C 0.12312 0.69046 0.84758 0.0
C2580 C 0.10567 0.68361 0.90042 0.0
C2581 C 0.11883 0.67718 0.91365 0.0
C2582 C 0.13381 0.67692 0.89318 0.0
C2583 C 0.13604 0.68365 0.86052 0.0
H2584 H 0.30002 0.43879 0.86586 0.0
H2585 H 0.35477 0.43824 0.8354 0.0
H2586 H 0.3125 0.44538 0.92258 0.0
H2587 H 0.3673 0.44467 0.89222 0.0
H2588 H 0.3666 0.42691 1.00137 0.0
H2589 H 0.35508 0.42324 0.94445 0.0
H2590 H 0.34146 0.47223 0.95846 0.0
H2591 H 0.35364 0.4763 0.01532 0.0
C2592 C 0.31487 0.44038 0.87135 0.0
C2593 C 0.32647 0.43803 0.84641 0.0
C2594 C 0.32203 0.44417 0.90375 0.0
C2595 C 0.3408 0.44538 0.91195 0.0
C2596 C 0.35266 0.44359 0.88673 0.0
C2597 C 0.34562 0.4401 0.85422 0.0
C2598 C 0.36119 0.43693 0.99225 0.0
C2599 C 0.36109 0.45193 1.01276 0.0
C2600 C 0.35468 0.43489 0.95964 0.0
C2601 C 0.34757 0.4476 0.94682 0.0
C2602 C 0.34682 0.46219 0.96764 0.0
C2603 C 0.35365 0.46443 1.00023 0.0
H2604 H 0.07048 0.42741 0.50316 0.0
H2605 H 0.13436 0.47396 0.51396 0.0
H2606 H 0.07639 0.42277 0.44618 0.0
H2607 H 0.14096 0.46805 0.45739 0.0
H2608 H 0.14381 0.46635 0.34586 0.0
H2609 H 0.13711 0.47297 0.40202 0.0
H2610 H 0.08962 0.40899 0.41111 0.0
H2611 H 0.09522 0.40315 0.35459 0.0
C2612 C 0.08592 0.43648 0.49336 0.0
C2613 C 0.10191 0.45111 0.51303 0.0
C2614 C 0.08943 0.43365 0.46063 0.0
C2615 C 0.10923 0.44496 0.4467 0.0
C2616 C 0.12541 0.45927 0.46679 0.0
C2617 C 0.12175 0.4624 0.4995 0.0
C2618 C 0.1316 0.45393 0.35974 0.0
C2619 C 0.12001 0.43425 0.34584 0.0
C2620 C 0.12798 0.45757 0.39221 0.0
C2621 C 0.11285 0.44152 0.41163 0.0
C2622 C 0.10113 0.42194 0.39719 0.0
C2623 C 0.10447 0.41847 0.36472 0.0
H2624 H 0.57103 0.66181 0.33657 0.0
H2625 H 0.58092 0.72099 0.36779 0.0
H2626 H 0.56388 0.64954 0.39331 0.0
H2627 H 0.57351 0.70882 0.42442 0.0
H2628 H 0.58447 0.68782 0.52547 0.0
H2629 H 0.58871 0.70017 0.46883 0.0
H2630 H 0.54017 0.64015 0.43807 0.0
H2631 H 0.5363 0.62792 0.49454 0.0
C2632 C 0.57134 0.67206 0.35556 0.0
C2633 C 0.57663 0.69235 0.34786 0.0
C2634 C 0.56722 0.66507 0.3881 0.0
C2635 C 0.56823 0.67822 0.41368 0.0
C2636 C 0.57297 0.69836 0.40561 0.0
C2637 C 0.57711 0.70532 0.37313 0.0
C2638 C 0.57457 0.67742 0.50657 0.0
C2639 C 0.56019 0.6569 0.51429 0.0
C2640 C 0.57695 0.68445 0.4741 0.0
C2641 C 0.5649 0.67112 0.44862 0.0
C2642 C 0.55003 0.65076 0.45677 0.0
C2643 C 0.54772 0.64376 0.48916 0.0
H2644 H 0.29563 0.86837 0.36697 0.0
H2645 H 0.3565 0.91379 0.33489 0.0
H2646 H 0.30795 0.87199 0.4233 0.0
H2647 H 0.36896 0.91782 0.39139 0.0
H2648 H 0.3893 0.91041 0.49275 0.0
H2649 H 0.37672 0.90257 0.43636 0.0
H2650 H 0.31857 0.8958 0.46766 0.0
H2651 H 0.33121 0.90326 0.52416 0.0
C2652 C 0.31169 0.87917 0.37206 0.0
C2653 C 0.32507 0.89099 0.34663 0.0
C2654 C 0.31876 0.88132 0.40439 0.0
C2655 C 0.33943 0.89539 0.41222 0.0
C2656 C 0.35298 0.90668 0.38643 0.0
C2657 C 0.34588 0.90444 0.354 0.0
C2658 C 0.37377 0.90707 0.4875 0.0
C2659 C 0.36125 0.90754 0.51274 0.0
C2660 C 0.36658 0.90271 0.45514 0.0
C2661 C 0.34666 0.89872 0.44714 0.0
C2662 C 0.33391 0.89856 0.47276 0.0
C2663 C 0.34112 0.90286 0.50519 0.0
H2664 H 0.33376 0.25721 0.023 0.0
H2665 H 0.28452 0.24788 0.95767 0.0
H2666 H 0.35861 0.27388 0.97961 0.0
H2667 H 0.30978 0.26561 0.91405 0.0
H2668 H 0.40325 0.30777 0.89954 0.0
H2669 H 0.37796 0.30069 0.94293 0.0
H2670 H 0.32946 0.25746 0.87926 0.0
H2671 H 0.35429 0.26513 0.83607 0.0
C2672 C 0.32822 0.25912 0.99948 0.0
C2673 C 0.30696 0.25079 0.9938 0.0
C2674 C 0.34264 0.26896 0.97448 0.0
C2675 C 0.33638 0.27099 0.94289 0.0
C2676 C 0.31524 0.26396 0.93779 0.0
C2677 C 0.3007 0.25395 0.96292 0.0
C2678 C 0.38713 0.29709 0.89466 0.0
C2679 C 0.38097 0.28688 0.86433 0.0
C2680 C 0.37258 0.29286 0.91965 0.0
C2681 C 0.35152 0.27825 0.91499 0.0
C2682 C 0.34535 0.26896 0.88399 0.0
C2683 C 0.35978 0.27325 0.85912 0.0
H2684 H 0.76798 0.03871 0.96279 0.0
H2685 H 0.76118 0.08144 0.02524 0.0
H2686 H 0.75044 0.04592 0.91857 0.0
H2687 H 0.74467 0.08925 0.9812 0.0
H2688 H 0.75025 0.08873 0.83724 0.0
H2689 H 0.75838 0.07267 0.88157 0.0
H2690 H 0.71726 0.08118 0.94551 0.0
H2691 H 0.70976 0.09829 0.90093 0.0
C2692 C 0.76257 0.04943 0.96728 0.0
C2693 C 0.76628 0.05961 0.99759 0.0
C2694 C 0.75264 0.05375 0.94179 0.0
C2695 C 0.74626 0.06843 0.94591 0.0
C2696 C 0.74903 0.0777 0.97687 0.0
C2697 C 0.75878 0.07332 1.00224 0.0
C2698 C 0.74268 0.08703 0.8606 0.0
C2699 C 0.72953 0.09518 0.86547 0.0
C2700 C 0.74724 0.07753 0.88616 0.0
C2701 C 0.73871 0.07568 0.91754 0.0
C2702 C 0.72453 0.08267 0.92194 0.0
C2703 C 0.72003 0.09234 0.89626 0.0
H2704 H 0.90006 0.61167 0.90887 0.0
H2705 H 0.94046 0.65663 0.8384 0.0
H2706 H 0.91563 0.63708 0.9525 0.0
H2707 H 0.95716 0.68176 0.88201 0.0
H2708 H 0.96035 0.72936 0.95637 0.0
H2709 H 0.95162 0.70356 0.91378 0.0
H2710 H 0.9412 0.65807 0.98794 0.0
H2711 H 0.94864 0.6837 0.03034 0.0
C2712 C 0.91286 0.62678 0.90295 0.0
C2713 C 0.91901 0.63215 0.87023 0.0
C2714 C 0.92189 0.64149 0.92802 0.0
C2715 C 0.93761 0.66187 0.92109 0.0
C2716 C 0.94472 0.6666 0.88851 0.0
C2717 C 0.93536 0.65205 0.86343 0.0
C2718 C 0.95661 0.71395 0.96346 0.0
C2719 C 0.95512 0.70858 0.99673 0.0
C2720 C 0.95159 0.69901 0.93897 0.0
C2721 C 0.94536 0.67837 0.94705 0.0
C2722 C 0.94527 0.67349 0.98044 0.0
C2723 C 0.94982 0.6883 1.00488 0.0
H2724 H 0.25152 0.28075 0.56608 0.0
H2725 H 0.25999 0.33054 0.50268 0.0
H2726 H 0.26937 0.30561 0.61013 0.0
H2727 H 0.27673 0.35494 0.54648 0.0
H2728 H 0.31118 0.39904 0.62643 0.0
H2729 H 0.30386 0.37409 0.58244 0.0
H2730 H 0.2618 0.32497 0.64644 0.0
H2731 H 0.26978 0.34946 0.69021 0.0
C2732 C 0.25738 0.29696 0.56136 0.0
C2733 C 0.254 0.30349 0.53086 0.0
C2734 C 0.26747 0.31127 0.58673 0.0
C2735 C 0.27436 0.33244 0.58228 0.0
C2736 C 0.27198 0.33896 0.5511 0.0
C2737 C 0.26208 0.32477 0.52587 0.0
C2738 C 0.30075 0.38286 0.63125 0.0
C2739 C 0.29092 0.37642 0.66185 0.0
C2740 C 0.29635 0.3685 0.60591 0.0
C2741 C 0.28193 0.34736 0.61047 0.0
C2742 C 0.27312 0.34092 0.64173 0.0
C2743 C 0.27759 0.35516 0.66696 0.0
H2744 H 0.61653 0.9143 0.62552 0.0
H2745 H 0.66693 0.92608 0.69003 0.0
H2746 H 0.64109 0.93109 0.58067 0.0
H2747 H 0.69108 0.94182 0.64551 0.0
H2748 H 0.73451 0.97461 0.56403 0.0
H2749 H 0.7095 0.96797 0.60757 0.0
H2750 H 0.66088 0.92293 0.54603 0.0
H2751 H 0.68547 0.93019 0.5025 0.0
C2752 C 0.63282 0.9207 0.63031 0.0
C2753 C 0.63962 0.91855 0.6614 0.0
C2754 C 0.64695 0.93017 0.60448 0.0
C2755 C 0.66822 0.93766 0.60908 0.0
C2756 C 0.67499 0.93655 0.64074 0.0
C2757 C 0.66097 0.92725 0.66642 0.0
C2758 C 0.71842 0.96363 0.55959 0.0
C2759 C 0.71217 0.9528 0.52978 0.0
C2760 C 0.70403 0.95965 0.5847 0.0
C2761 C 0.68304 0.94462 0.58076 0.0
C2762 C 0.67673 0.93473 0.55019 0.0
C2763 C 0.69101 0.93881 0.52513 0.0
H2764 H 0.08424 0.75565 0.50204 0.0
H2765 H 0.04131 0.76205 0.5647 0.0
H2766 H 0.09193 0.73889 0.54575 0.0
H2767 H 0.04836 0.74417 0.60857 0.0
H2768 H 0.09137 0.74423 0.68959 0.0
H2769 H 0.07494 0.75203 0.64552 0.0
H2770 H 0.08416 0.71153 0.58121 0.0
H2771 H 0.10171 0.70441 0.62556 0.0
C2772 C 0.07604 0.7531 0.525 0.0
C2773 C 0.06235 0.76059 0.52985 0.0
C2774 C 0.08035 0.74319 0.55018 0.0
C2775 C 0.071 0.74022 0.58112 0.0
C2776 C 0.05627 0.74654 0.58538 0.0
C2777 C 0.05205 0.75666 0.5601 0.0
C2778 C 0.08974 0.73671 0.66621 0.0
C2779 C 0.09827 0.72392 0.66113 0.0
C2780 C 0.08003 0.74108 0.6408 0.0
C2781 C 0.07829 0.73267 0.60937 0.0
C2782 C 0.08557 0.71872 0.60482 0.0
C2783 C 0.09548 0.71443 0.63036 0.0
H2784 H 0.73174 0.76186 0.0654 0.0
H2785 H 0.68312 0.75764 1.00333 0.0
H2786 H 0.70649 0.74366 0.1088 0.0
H2787 H 0.65835 0.74054 0.04662 0.0
H2788 H 0.61339 0.7055 0.12523 0.0
H2789 H 0.63816 0.71271 0.08095 0.0
H2790 H 0.68801 0.75138 0.1465 0.0
H2791 H 0.66364 0.74346 0.19048 0.0
C2792 C 0.7157 0.75689 0.06083 0.0
C2793 C 0.70964 0.76152 0.0309 0.0
C2794 C 0.70117 0.74657 0.08584 0.0
C2795 C 0.68023 0.74075 0.08163 0.0
C2796 C 0.67413 0.74444 0.05098 0.0
C2797 C 0.68854 0.75454 0.02606 0.0
C2798 C 0.62967 0.7151 0.13031 0.0
C2799 C 0.63638 0.72408 0.1614 0.0
C2800 C 0.64394 0.71946 0.10481 0.0
C2801 C 0.66525 0.73297 0.10974 0.0
C2802 C 0.6719 0.74079 0.14147 0.0
C2803 C 0.65775 0.73636 0.16683 0.0
H2804 H 0.2684 0.9256 0.19012 0.0
H2805 H 0.30787 0.91531 0.12517 0.0
H2806 H 0.25954 0.94113 0.14587 0.0
H2807 H 0.29964 0.93188 0.08066 0.0
H2808 H 0.24875 0.97418 0.06422 0.0
H2809 H 0.26681 0.96739 0.10814 0.0
H2810 H 0.27165 0.9233 0.04608 0.0
H2811 H 0.25464 0.93067 1.00234 0.0
C2812 C 0.2756 0.92704 0.16648 0.0
C2813 C 0.28867 0.91884 0.16126 0.0
C2814 C 0.27061 0.93622 0.14097 0.0
C2815 C 0.27862 0.93769 0.10927 0.0
C2816 C 0.29276 0.93067 0.10449 0.0
C2817 C 0.29768 0.92132 0.13013 0.0
C2818 C 0.25406 0.96336 0.0598 0.0
C2819 C 0.24997 0.95286 0.02972 0.0
C2820 C 0.26428 0.95929 0.08511 0.0
C2821 C 0.2706 0.94455 0.08106 0.0
C2822 C 0.26738 0.93491 0.05034 0.0
C2823 C 0.25733 0.93904 0.02515 0.0
H2824 H 0.08253 0.32993 1.00271 0.0
H2825 H 0.04101 0.28023 0.06622 0.0
H2826 H 0.09013 0.35439 0.04638 0.0
H2827 H 0.04794 0.30514 0.1101 0.0
H2828 H 0.09172 0.34879 0.18996 0.0
H2829 H 0.07494 0.32435 0.14624 0.0
H2830 H 0.08231 0.37361 0.08243 0.0
H2831 H 0.10022 0.39852 0.12637 0.0
C2832 C 0.07461 0.3242 0.02588 0.0
C2833 C 0.06139 0.30292 0.03098 0.0
C2834 C 0.07886 0.33841 0.05103 0.0
C2835 C 0.0699 0.33192 0.0822 0.0
C2836 C 0.05554 0.31077 0.0867 0.0
C2837 C 0.05138 0.29643 0.06143 0.0
C2838 C 0.08962 0.35453 0.16676 0.0
C2839 C 0.09774 0.37581 0.16166 0.0
C2840 C 0.07969 0.34032 0.14158 0.0
C2841 C 0.07733 0.34682 0.11038 0.0
C2842 C 0.08421 0.36798 0.10585 0.0
C2843 C 0.09434 0.38231 0.13115 0.0
H2844 H 0.75662 0.6651 0.33853 0.0
H2845 H 0.71229 0.61549 0.3994 0.0
H2846 H 0.76387 0.6893 0.38257 0.0
H2847 H 0.71903 0.64015 0.44365 0.0
H2848 H 0.76105 0.68307 0.5262 0.0
H2849 H 0.74544 0.65884 0.48168 0.0
H2850 H 0.75489 0.70854 0.41715 0.0
H2851 H 0.77148 0.73316 0.46189 0.0
C2852 C 0.74806 0.65934 0.36117 0.0
C2853 C 0.73403 0.63815 0.3654 0.0
C2854 C 0.75212 0.67341 0.38653 0.0
C2855 C 0.74221 0.66685 0.41704 0.0
C2856 C 0.7273 0.6458 0.42075 0.0
C2857 C 0.72327 0.63162 0.39527 0.0
C2858 C 0.75962 0.68894 0.50267 0.0
C2859 C 0.76789 0.71025 0.49766 0.0
C2860 C 0.75041 0.67487 0.47701 0.0
C2861 C 0.749 0.68158 0.44544 0.0
C2862 C 0.75607 0.70276 0.4409 0.0
C2863 C 0.76543 0.71693 0.46666 0.0
H2864 H 0.4029 0.09986 0.39966 0.0
H2865 H 0.35343 0.09198 0.33608 0.0
H2866 H 0.37789 0.08194 0.44352 0.0
H2867 H 0.32885 0.07511 0.37973 0.0
H2868 H 0.28443 0.03985 0.45914 0.0
H2869 H 0.30956 0.04764 0.41526 0.0
H2870 H 0.35837 0.08924 0.48003 0.0
H2871 H 0.33365 0.08081 0.52373 0.0
C2872 C 0.38672 0.09412 0.39485 0.0
C2873 C 0.38034 0.09765 0.36432 0.0
C2874 C 0.37233 0.08398 0.42012 0.0
C2875 C 0.35119 0.07718 0.41558 0.0
C2876 C 0.34481 0.07978 0.38441 0.0
C2877 C 0.35909 0.08974 0.35925 0.0
C2878 C 0.30059 0.05027 0.46417 0.0
C2879 C 0.30686 0.05984 0.49498 0.0
C2880 C 0.31505 0.05495 0.43888 0.0
C2881 C 0.33615 0.06939 0.44367 0.0
C2882 C 0.34244 0.07793 0.47513 0.0
C2883 C 0.32809 0.07318 0.50032 0.0
H2884 H 0.90486 0.29354 0.40649 0.0
H2885 H 0.94131 0.28515 0.33294 0.0
H2886 H 0.92132 0.28403 0.44901 0.0
H2887 H 0.95888 0.27694 0.37537 0.0
H2888 H 0.96216 0.23312 0.45136 0.0
H2889 H 0.95329 0.25003 0.40863 0.0
H2890 H 0.94811 0.28897 0.48185 0.0
H2891 H 0.95562 0.27096 0.52445 0.0
C2892 C 0.91698 0.29042 0.39957 0.0
C2893 C 0.92173 0.29003 0.36639 0.0
C2894 C 0.92653 0.28494 0.424 0.0
C2895 C 0.9414 0.27933 0.41593 0.0
C2896 C 0.94714 0.28049 0.38276 0.0
C2897 C 0.93726 0.28549 0.35835 0.0
C2898 C 0.95959 0.24562 0.45811 0.0
C2899 C 0.95951 0.25065 0.49122 0.0
C2900 C 0.95449 0.25543 0.43357 0.0
C2901 C 0.94958 0.27083 0.4415 0.0
C2902 C 0.95109 0.27682 0.47458 0.0
C2903 C 0.9557 0.26669 0.49908 0.0
H2904 H 0.02156 0.60098 0.17196 0.0
H2905 H 0.07193 0.64011 0.23623 0.0
H2906 H 0.99739 0.59286 0.21636 0.0
H2907 H 0.04735 0.63259 0.28094 0.0
H2908 H 1.00271 0.58812 0.35963 0.0
H2909 H 0.02737 0.60471 0.31589 0.0
H2910 H 0.97911 0.60129 0.25371 0.0
H2911 H 0.95402 0.5837 0.29752 0.0
C2912 C 0.02751 0.60826 0.19548 0.0
C2913 C 0.04886 0.621 0.20049 0.0
C2914 C 0.01348 0.60371 0.22107 0.0
C2915 C 0.02024 0.61185 0.25262 0.0
C2916 C 0.04151 0.62565 0.2572 0.0
C2917 C 0.05566 0.63015 0.23147 0.0
C2918 C 0.99727 0.59107 0.3368 0.0
C2919 C 0.97619 0.58423 0.33211 0.0
C2920 C 0.01159 0.60085 0.31162 0.0
C2921 C 1.00539 0.60429 0.28088 0.0
C2922 C 0.98448 0.59855 0.27676 0.0
C2923 C 0.97006 0.58858 0.302 0.0
H2924 H 0.37523 0.43036 0.23487 0.0
H2925 H 0.41572 0.42107 0.17073 0.0
H2926 H 0.38297 0.41331 0.27927 0.0
H2927 H 0.42413 0.40516 0.21486 0.0
H2928 H 0.43551 0.37262 0.29588 0.0
H2929 H 0.41706 0.37889 0.25204 0.0
H2930 H 0.41049 0.42177 0.31462 0.0
H2931 H 0.42782 0.41481 0.35832 0.0
C2932 C 0.38552 0.42446 0.23005 0.0
C2933 C 0.39501 0.4274 0.19924 0.0
C2934 C 0.39017 0.41484 0.25563 0.0
C2935 C 0.4045 0.40803 0.25107 0.0
C2936 C 0.41291 0.40989 0.2196 0.0
C2937 C 0.40818 0.41931 0.19416 0.0
C2938 C 0.42971 0.38302 0.30044 0.0
C2939 C 0.43346 0.39336 0.33062 0.0
C2940 C 0.41926 0.38681 0.27518 0.0
C2941 C 0.41242 0.40113 0.27936 0.0
C2942 C 0.4152 0.41049 0.31023 0.0
C2943 C 0.42543 0.40661 0.33541 0.0
H2944 H 0.58459 0.94789 0.23342 0.0
H2945 H 0.5919 0.99739 0.17033 0.0
H2946 H 0.6028 0.97288 0.27711 0.0
H2947 H 0.609 0.02192 0.21384 0.0
H2948 H 0.64402 0.06628 0.29306 0.0
H2949 H 0.63652 0.04129 0.24909 0.0
H2950 H 0.59544 0.99212 0.3139 0.0
H2951 H 0.60362 0.01667 0.35765 0.0
C2952 C 0.59025 0.96406 0.22868 0.0
C2953 C 0.58647 0.97047 0.19837 0.0
C2954 C 0.60057 0.97845 0.25386 0.0
C2955 C 0.60725 0.99957 0.24941 0.0
C2956 C 0.60443 1.00597 0.21842 0.0
C2957 C 0.59432 0.99171 0.19336 0.0
C2958 C 0.63379 0.05008 0.29807 0.0
C2959 C 0.62426 0.04364 0.32887 0.0
C2960 C 0.62928 0.03569 0.27273 0.0
C2961 C 0.61505 0.01453 0.27752 0.0
C2962 C 0.6066 0.0081 0.309 0.0
C2963 C 0.61119 0.02236 0.33422 0.0
H2964 H 0.41634 0.99748 0.66953 0.0
H2965 H 0.37599 0.94749 0.73354 0.0
H2966 H 0.42443 0.02179 0.71367 0.0
H2967 H 0.38341 0.97222 0.77791 0.0
H2968 H 0.42723 0.0161 0.85755 0.0
H2969 H 0.41056 0.99167 0.81368 0.0
H2970 H 0.41683 0.04078 0.75056 0.0
H2971 H 0.43459 0.06564 0.79458 0.0
C2972 C 0.40877 0.99165 0.69291 0.0
C2973 C 0.3957 0.97033 0.69793 0.0
C2974 C 0.41332 1.00578 0.71837 0.0
C2975 C 0.40483 0.99917 0.74981 0.0
C2976 C 0.39067 0.97796 0.75432 0.0
C2977 C 0.3862 0.96372 0.72874 0.0
C2978 C 0.4249 0.0218 0.83448 0.0
C2979 C 0.43263 0.04304 0.82963 0.0
C2980 C 0.41506 0.0076 0.80919 0.0
C2981 C 0.4124 0.01405 0.77811 0.0
C2982 C 0.41895 0.03516 0.77384 0.0
C2983 C 0.42899 0.04948 0.79923 0.0
H2984 H 0.07021 0.43232 0.73737 0.0
H2985 H 0.01986 0.41963 0.67217 0.0
H2986 H 0.04549 0.4149 0.78183 0.0
H2987 H 0.99555 0.40332 0.71626 0.0
H2988 H 0.95187 0.37032 0.79735 0.0
H2989 H 0.97716 0.37721 0.75413 0.0
H2990 H 0.02525 0.4226 0.81603 0.0
H2991 H 1.00043 0.41509 0.8592 0.0
C2992 C 0.05392 0.42557 0.73234 0.0
C2993 C 0.04715 0.42769 0.70123 0.0
C2994 C 0.03968 0.41574 0.75794 0.0
C2995 C 0.01836 0.40787 0.75304 0.0
C2996 C 0.01166 0.40889 0.72128 0.0
C2997 C 0.02578 0.41853 0.69585 0.0
C2998 C 0.96791 0.38145 0.80191 0.0
C2999 C 0.97394 0.39229 0.83172 0.0
C3000 C 0.98246 0.38556 0.777 0.0
C3001 C 1.00339 0.40074 0.78116 0.0
C3002 C 1.00947 0.41067 0.81171 0.0
C3003 C 0.99504 0.40646 0.83656 0.0
H3004 H 0.58456 0.64202 0.73563 0.0
H3005 H 0.59541 0.60274 0.67114 0.0
H3006 H 0.60204 0.6348 0.77995 0.0
H3007 H 0.61178 0.59483 0.71519 0.0
H3008 H 0.60205 0.59051 0.85864 0.0
H3009 H 0.5943 0.6073 0.81505 0.0
H3010 H 0.6383 0.60269 0.75233 0.0
H3011 H 0.64542 0.58479 0.79607 0.0
C3012 C 0.59088 0.63209 0.73073 0.0
C3013 C 0.58827 0.6228 0.69983 0.0
C3014 C 0.60075 0.62774 0.75625 0.0
C3015 C 0.60816 0.61392 0.75155 0.0
C3016 C 0.60658 0.60568 0.72002 0.0
C3017 C 0.59691 0.61012 0.69463 0.0
C3018 C 0.61033 0.59322 0.83572 0.0
C3019 C 0.62417 0.5859 0.83086 0.0
C3020 C 0.60598 0.60314 0.81061 0.0
C3021 C 0.61545 0.60631 0.77974 0.0
C3022 C 0.63031 0.60017 0.77547 0.0
C3023 C 0.63457 0.59003 0.80068 0.0
loop_
_geom_bond_atom_site_label_1
_geom_bond_atom_site_label_2
_geom_bond_distance
_geom_bond_site_symmetry_2
_ccdc_geom_bond_type
Co0 O3 1.970 . S
Co0 N17 1.989 . S
Co0 O25 1.967 . S
Co0 O32 1.920 . S
Co1 O4 1.966 . S
Co1 N10 2.022 . S
Co1 N18 1.993 . S
Co1 O26 1.941 . S
C2 O3 1.258 . S
C2 O4 1.263 . S
O3 Co0 1.970 . S
O3 C2 1.258 . S
O4 Co1 1.966 . S
O4 C2 1.263 . S
C5 O6 1.235 . S
C5 O32 1.289 . S
O6 C5 1.235 . S
C7 C9 1.400 . S
C7 N10 1.351 . S
C7 C12 1.501 1_554 S
C8 C9 1.387 . S
C8 N11 1.341 . S
C9 C7 1.400 . S
C9 C8 1.387 . S
N10 Co1 2.022 . S
N10 C7 1.351 . S
N10 N11 1.365 . S
N11 C8 1.341 . S
N11 N10 1.365 . S
N11 H31 0.862 . S
C12 C7 1.501 1_556 S
C12 H13 0.961 . S
C12 H14 0.961 1_556 S
C12 H15 0.960 . S
H13 C12 0.961 . S
H14 C12 0.961 1_554 S
H15 C12 0.960 . S
C16 N17 1.342 . S
C16 C20 1.401 . S
C16 C21 1.499 . S
N17 Co0 1.989 . S
N17 C16 1.342 . S
N17 N18 1.388 . S
N18 Co1 1.993 . S
N18 N17 1.388 . S
N18 C19 1.346 . S
C19 N18 1.346 . S
C19 C20 1.396 . S
C19 C29 1.510 . S
C20 C16 1.401 . S
C20 C19 1.396 . S
C21 C16 1.499 . S
C21 H22 0.959 . S
C21 H23 0.960 . S
C21 H24 0.961 . S
H22 C21 0.959 . S
H23 C21 0.960 . S
H24 C21 0.961 . S
O25 Co0 1.967 . S
O25 C33 1.258 . S
O26 Co1 1.941 . S
O26 C33 1.266 . S
H27 C29 0.959 . S
H28 C29 0.961 . S
C29 C19 1.510 . S
C29 H27 0.959 . S
C29 H28 0.961 . S
C29 H30 0.960 . S
H30 C29 0.960 . S
H31 N11 0.862 . S
O32 Co0 1.920 . S
O32 C5 1.289 . S
C33 O25 1.258 . S
C33 O26 1.266 . S
Co34 O37 1.970 . S
Co34 N51 1.989 . S
Co34 O59 1.967 . S
Co34 O66 1.920 . S
Co35 O38 1.966 . S
Co35 N44 2.022 . S
Co35 N52 1.993 . S
Co35 O60 1.941 . S
C36 O37 1.258 . S
C36 O38 1.263 . S
O37 Co34 1.970 . S
O37 C36 1.258 . S
O38 Co35 1.966 . S
O38 C36 1.263 . S
C39 O40 1.235 . S
C39 O66 1.289 . S
O40 C39 1.235 . S
C41 C43 1.400 1_545 S
C41 N44 1.351 . S
C41 C46 1.501 1_554 S
C42 C43 1.387 . S
C42 N45 1.341 1_565 S
C43 C41 1.400 1_565 S
C43 C42 1.387 . S
N44 Co35 2.022 . S
N44 C41 1.351 . S
N44 N45 1.365 . S
N45 C42 1.341 1_545 S
N45 N44 1.365 . S
N45 H65 0.862 . S
C46 C41 1.501 1_556 S
C46 H47 0.961 . S
C46 H48 0.961 1_546 S
C46 H49 0.960 . S
H47 C46 0.961 . S
H48 C46 0.961 1_564 S
H49 C46 0.960 . S
C50 N51 1.342 . S
C50 C54 1.401 . S
C50 C55 1.499 . S
N51 Co34 1.989 . S
N51 C50 1.342 . S
N51 N52 1.388 . S
N52 Co35 1.993 . S
N52 N51 1.388 . S
N52 C53 1.346 . S
C53 N52 1.346 . S
C53 C54 1.396 . S
C53 C63 1.510 . S
C54 C50 1.401 . S
C54 C53 1.396 . S
C55 C50 1.499 . S
C55 H56 0.959 . S
C55 H57 0.960 . S
C55 H58 0.961 . S
H56 C55 0.959 . S
H57 C55 0.960 . S
H58 C55 0.961 . S
O59 Co34 1.967 . S
O59 C67 1.258 . S
O60 Co35 1.941 . S
O60 C67 1.266 . S
H61 C63 1.001 . S
H62 C63 0.961 1_565 S
C63 C53 1.510 . S
C63 H61 1.001 . S
C63 H62 0.961 1_545 S
C63 H64 0.960 . S
H64 C63 0.960 . S
H65 N45 0.862 . S
O66 Co34 1.920 . S
O66 C39 1.289 . S
C67 O59 1.258 . S
C67 O60 1.266 . S
Co68 O71 1.970 . S
Co68 N85 1.989 . S
Co68 O93 1.967 . S
Co68 O100 1.920 . S
Co69 O72 1.966 . S
Co69 N78 2.022 . S
Co69 N86 1.993 . S
Co69 O94 1.941 . S
C70 O71 1.258 . S
C70 O72 1.263 . S
O71 Co68 1.970 . S
O71 C70 1.258 . S
O72 Co69 1.966 . S
O72 C70 1.263 . S
C73 O74 1.235 . S
C73 O100 1.289 . S
O74 C73 1.235 . S
C75 C77 1.400 1_655 S
C75 N78 1.351 . S
C75 C80 1.501 1_554 S
C76 C77 1.387 . S
C76 N79 1.341 1_455 S
C77 C75 1.400 1_455 S
C77 C76 1.387 . S
N78 Co69 2.022 . S
N78 C75 1.351 . S
N78 N79 1.365 . S
N79 C76 1.341 1_655 S
N79 N78 1.365 . S
N79 H99 0.862 . S
C80 C75 1.501 1_556 S
C80 H81 0.961 . S
C80 H82 0.961 1_656 S
C80 H83 0.960 . S
H81 C80 0.961 . S
H82 C80 0.961 1_454 S
H83 C80 0.960 . S
C84 N85 1.342 . S
C84 C88 1.401 . S
C84 C89 1.499 . S
N85 Co68 1.989 . S
N85 C84 1.342 . S
N85 N86 1.388 . S
N86 Co69 1.993 . S
N86 N85 1.388 . S
N86 C87 1.346 . S
C87 N86 1.346 . S
C87 C88 1.396 . S
C87 C97 1.510 . S
C88 C84 1.401 . S
C88 C87 1.396 . S
C89 C84 1.499 . S
C89 H90 0.959 . S
C89 H91 0.960 . S
C89 H92 0.961 . S
H90 C89 0.959 . S
H91 C89 0.960 . S
H92 C89 0.961 . S
O93 Co68 1.967 . S
O93 C101 1.258 . S
O94 Co69 1.941 . S
O94 C101 1.266 . S
H95 C97 0.947 . S
H96 C97 0.961 1_455 S
C97 C87 1.510 . S
C97 H95 0.947 . S
C97 H96 0.961 1_655 S
C97 H98 0.960 . S
H98 C97 0.960 . S
H99 N79 0.862 . S
O100 Co68 1.920 . S
O100 C73 1.289 . S
C101 O93 1.258 . S
C101 O94 1.266 . S
Co102 O105 1.970 . S
Co102 N119 1.989 . S
Co102 O127 1.967 . S
Co102 O134 1.920 . S
Co103 O106 1.966 . S
Co103 N112 2.022 . S
Co103 N120 1.993 . S
Co103 O128 1.941 . S
C104 O105 1.258 . S
C104 O106 1.263 . S
O105 Co102 1.970 . S
O105 C104 1.258 . S
O106 Co103 1.966 . S
O106 C104 1.263 . S
C107 O108 1.235 . S
C107 O134 1.289 . S
O108 C107 1.235 . S
C109 C111 1.400 . S
C109 N112 1.351 . S
C109 C114 1.501 . S
C110 C111 1.387 . S
C110 N113 1.341 . S
C111 C109 1.400 . S
C111 C110 1.387 . S
N112 Co103 2.022 . S
N112 C109 1.351 . S
N112 N113 1.365 . S
N113 C110 1.341 . S
N113 N112 1.365 . S
N113 H133 0.862 . S
C114 C109 1.501 . S
C114 H115 0.961 . S
C114 H116 0.961 . S
C114 H117 0.960 . S
H115 C114 0.961 . S
H116 C114 0.961 . S
H117 C114 0.960 . S
C118 N119 1.342 . S
C118 C122 1.401 . S
C118 C123 1.499 . S
N119 Co102 1.989 . S
N119 C118 1.342 . S
N119 N120 1.388 . S
N120 Co103 1.993 . S
N120 N119 1.388 . S
N120 C121 1.346 . S
C121 N120 1.346 . S
C121 C122 1.396 . S
C121 C131 1.510 . S
C122 C118 1.401 . S
C122 C121 1.396 . S
C123 C118 1.499 . S
C123 H124 0.959 . S
C123 H125 0.960 . S
C123 H126 0.961 . S
H124 C123 0.959 . S
H125 C123 0.960 . S
H126 C123 0.961 . S
O127 Co102 1.967 . S
O127 C135 1.258 . S
O128 Co103 1.941 . S
O128 C135 1.266 . S
H129 C131 0.959 . S
H130 C131 0.961 . S
C131 C121 1.510 . S
C131 H129 0.959 . S
C131 H130 0.961 . S
C131 H132 0.960 . S
H132 C131 0.960 . S
H133 N113 0.862 . S
O134 Co102 1.920 . S
O134 C107 1.289 . S
C135 O127 1.258 . S
C135 O128 1.266 . S
Co136 O139 1.970 . S
Co136 N153 1.989 . S
Co136 O161 1.967 . S
Co136 O168 1.920 . S
Co137 O140 1.966 . S
Co137 N146 2.022 . S
Co137 N154 1.993 . S
Co137 O162 1.941 . S
C138 O139 1.258 . S
C138 O140 1.263 . S
O139 Co136 1.970 . S
O139 C138 1.258 . S
O140 Co137 1.966 . S
O140 C138 1.263 . S
C141 O142 1.235 . S
C141 O168 1.289 . S
O142 C141 1.235 . S
C143 C145 1.400 1_565 S
C143 N146 1.351 . S
C143 C148 1.501 . S
C144 C145 1.387 . S
C144 N147 1.341 1_545 S
C145 C143 1.400 1_545 S
C145 C144 1.387 . S
N146 Co137 2.022 . S
N146 C143 1.351 . S
N146 N147 1.365 . S
N147 C144 1.341 1_565 S
N147 N146 1.365 . S
N147 H167 0.862 . S
C148 C143 1.501 . S
C148 H149 0.961 . S
C148 H150 0.961 1_565 S
C148 H151 0.960 . S
H149 C148 0.961 . S
H150 C148 0.961 1_545 S
H151 C148 0.960 . S
C152 N153 1.342 . S
C152 C156 1.401 . S
C152 C157 1.499 . S
N153 Co136 1.989 . S
N153 C152 1.342 . S
N153 N154 1.388 . S
N154 Co137 1.993 . S
N154 N153 1.388 . S
N154 C155 1.346 . S
C155 N154 1.346 . S
C155 C156 1.396 . S
C155 C165 1.510 . S
C156 C152 1.401 . S
C156 C155 1.396 . S
C157 C152 1.499 . S
C157 H158 0.959 . S
C157 H159 0.960 . S
C157 H160 0.961 . S
H158 C157 0.959 . S
H159 C157 0.960 . S
H160 C157 0.961 . S
O161 Co136 1.967 . S
O161 C169 1.258 . S
O162 Co137 1.941 . S
O162 C169 1.266 . S
H163 C165 0.947 . S
H164 C165 0.961 1_545 S
C165 C155 1.510 . S
C165 H163 0.947 . S
C165 H164 0.961 1_565 S
C165 H166 0.960 . S
H166 C165 0.960 . S
H167 N147 0.862 . S
O168 Co136 1.920 . S
O168 C141 1.289 . S
C169 O161 1.258 . S
C169 O162 1.266 . S
Co170 O173 1.970 . S
Co170 N187 1.989 . S
Co170 O195 1.967 . S
Co170 O202 1.920 . S
Co171 O174 1.966 . S
Co171 N180 2.022 . S
Co171 N188 1.993 . S
Co171 O196 1.941 . S
C172 O173 1.258 . S
C172 O174 1.263 . S
O173 Co170 1.970 . S
O173 C172 1.258 . S
O174 Co171 1.966 . S
O174 C172 1.263 . S
C175 O176 1.235 . S
C175 O202 1.289 . S
O176 C175 1.235 . S
C177 C179 1.400 1_455 S
C177 N180 1.351 . S
C177 C182 1.501 . S
C178 C179 1.387 . S
C178 N181 1.341 1_655 S
C179 C177 1.400 1_655 S
C179 C178 1.387 . S
N180 Co171 2.022 . S
N180 C177 1.351 . S
N180 N181 1.365 . S
N181 C178 1.341 1_455 S
N181 N180 1.365 . S
N181 H201 0.862 . S
C182 C177 1.501 . S
C182 H183 0.961 . S
C182 H184 0.961 1_455 S
C182 H185 0.960 . S
H183 C182 0.961 . S
H184 C182 0.961 1_655 S
H185 C182 0.960 . S
C186 N187 1.342 . S
C186 C190 1.401 . S
C186 C191 1.499 . S
N187 Co170 1.989 . S
N187 C186 1.342 . S
N187 N188 1.388 . S
N188 Co171 1.993 . S
N188 N187 1.388 . S
N188 C189 1.346 . S
C189 N188 1.346 . S
C189 C190 1.396 . S
C189 C199 1.510 . S
C190 C186 1.401 . S
C190 C189 1.396 . S
C191 C186 1.499 . S
C191 H192 0.959 . S
C191 H193 0.960 . S
C191 H194 0.961 . S
H192 C191 0.959 . S
H193 C191 0.960 . S
H194 C191 0.961 . S
O195 Co170 1.967 . S
O195 C203 1.258 . S
O196 Co171 1.941 . S
O196 C203 1.266 . S
H197 C199 1.001 . S
H198 C199 0.961 1_655 S
C199 C189 1.510 . S
C199 H197 1.001 . S
C199 H198 0.961 1_455 S
C199 H200 0.960 . S
H200 C199 0.960 . S
H201 N181 0.862 . S
O202 Co170 1.920 . S
O202 C175 1.289 . S
C203 O195 1.258 . S
C203 O196 1.266 . S
Co204 O207 1.970 . S
Co204 N221 1.989 . S
Co204 O229 1.967 . S
Co204 O236 1.920 . S
Co205 O208 1.966 . S
Co205 N214 2.022 . S
Co205 N222 1.993 . S
Co205 O230 1.941 . S
C206 O207 1.258 . S
C206 O208 1.263 . S
O207 Co204 1.970 . S
O207 C206 1.258 . S
O208 Co205 1.966 . S
O208 C206 1.263 . S
C209 O210 1.235 . S
C209 O236 1.289 . S
O210 C209 1.235 . S
C211 C213 1.400 . S
C211 N214 1.351 . S
C211 C216 1.501 1_556 S
C212 C213 1.387 . S
C212 N215 1.341 . S
C213 C211 1.400 . S
C213 C212 1.387 . S
N214 Co205 2.022 . S
N214 C211 1.351 . S
N214 N215 1.365 . S
N215 C212 1.341 . S
N215 N214 1.365 . S
N215 H235 0.862 . S
C216 C211 1.501 1_554 S
C216 H217 0.961 . S
C216 H218 0.961 1_554 S
C216 H219 0.960 . S
H217 C216 0.961 . S
H218 C216 0.961 1_556 S
H219 C216 0.960 . S
C220 N221 1.342 . S
C220 C224 1.401 . S
C220 C225 1.499 . S
N221 Co204 1.989 . S
N221 C220 1.342 . S
N221 N222 1.388 . S
N222 Co205 1.993 . S
N222 N221 1.388 . S
N222 C223 1.346 . S
C223 N222 1.346 . S
C223 C224 1.396 . S
C223 C233 1.510 . S
C224 C220 1.401 . S
C224 C223 1.396 . S
C225 C220 1.499 . S
C225 H226 0.959 . S
C225 H227 0.960 . S
C225 H228 0.961 . S
H226 C225 0.959 . S
H227 C225 0.960 . S
H228 C225 0.961 . S
O229 Co204 1.967 . S
O229 C237 1.258 . S
O230 Co205 1.941 . S
O230 C237 1.266 . S
H231 C233 0.959 . S
H232 C233 0.961 . S
C233 C223 1.510 . S
C233 H231 0.959 . S
C233 H232 0.961 . S
C233 H234 0.960 . S
H234 C233 0.960 . S
H235 N215 0.862 . S
O236 Co204 1.920 . S
O236 C209 1.289 . S
C237 O229 1.258 . S
C237 O230 1.266 . S
Co238 O241 1.970 . S
Co238 N255 1.989 . S
Co238 O263 1.967 . S
Co238 O270 1.920 . S
Co239 O242 1.966 . S
Co239 N248 2.022 . S
Co239 N256 1.993 . S
Co239 O264 1.941 . S
C240 O241 1.258 . S
C240 O242 1.263 . S
O241 Co238 1.970 . S
O241 C240 1.258 . S
O242 Co239 1.966 . S
O242 C240 1.263 . S
C243 O244 1.235 . S
C243 O270 1.289 . S
O244 C243 1.235 . S
C245 C247 1.400 1_565 S
C245 N248 1.351 . S
C245 C250 1.501 1_556 S
C246 C247 1.387 . S
C246 N249 1.341 1_545 S
C247 C245 1.400 1_545 S
C247 C246 1.387 . S
N248 Co239 2.022 . S
N248 C245 1.351 . S
N248 N249 1.365 . S
N249 C246 1.341 1_565 S
N249 N248 1.365 . S
N249 H269 0.862 . S
C250 C245 1.501 1_554 S
C250 H251 0.961 . S
C250 H252 0.961 1_564 S
C250 H253 0.960 . S
H251 C250 0.961 . S
H252 C250 0.961 1_546 S
H253 C250 0.960 . S
C254 N255 1.342 . S
C254 C258 1.401 . S
C254 C259 1.499 . S
N255 Co238 1.989 . S
N255 C254 1.342 . S
N255 N256 1.388 . S
N256 Co239 1.993 . S
N256 N255 1.388 . S
N256 C257 1.346 . S
C257 N256 1.346 . S
C257 C258 1.396 . S
C257 C267 1.510 . S
C258 C254 1.401 . S
C258 C257 1.396 . S
C259 C254 1.499 . S
C259 H260 0.959 . S
C259 H261 0.960 . S
C259 H262 0.961 . S
H260 C259 0.959 . S
H261 C259 0.960 . S
H262 C259 0.961 . S
O263 Co238 1.967 . S
O263 C271 1.258 . S
O264 Co239 1.941 . S
O264 C271 1.266 . S
H265 C267 1.001 . S
H266 C267 0.961 1_545 S
C267 C257 1.510 . S
C267 H265 1.001 . S
C267 H266 0.961 1_565 S
C267 H268 0.960 . S
H268 C267 0.960 . S
H269 N249 0.862 . S
O270 Co238 1.920 . S
O270 C243 1.289 . S
C271 O263 1.258 . S
C271 O264 1.266 . S
Co272 O275 1.970 . S
Co272 N289 1.989 . S
Co272 O297 1.967 . S
Co272 O304 1.920 . S
Co273 O276 1.966 . S
Co273 N282 2.022 . S
Co273 N290 1.993 . S
Co273 O298 1.941 . S
C274 O275 1.258 . S
C274 O276 1.263 . S
O275 Co272 1.970 . S
O275 C274 1.258 . S
O276 Co273 1.966 . S
O276 C274 1.263 . S
C277 O278 1.235 . S
C277 O304 1.289 . S
O278 C277 1.235 . S
C279 C281 1.400 1_455 S
C279 N282 1.351 . S
C279 C284 1.501 1_556 S
C280 C281 1.387 . S
C280 N283 1.341 1_655 S
C281 C279 1.400 1_655 S
C281 C280 1.387 . S
N282 Co273 2.022 . S
N282 C279 1.351 . S
N282 N283 1.365 . S
N283 C280 1.341 1_455 S
N283 N282 1.365 . S
N283 H303 0.862 . S
C284 C279 1.501 1_554 S
C284 H285 0.961 . S
C284 H286 0.961 1_454 S
C284 H287 0.960 . S
H285 C284 0.961 . S
H286 C284 0.961 1_656 S
H287 C284 0.960 . S
C288 N289 1.342 . S
C288 C292 1.401 . S
C288 C293 1.499 . S
N289 Co272 1.989 . S
N289 C288 1.342 . S
N289 N290 1.388 . S
N290 Co273 1.993 . S
N290 N289 1.388 . S
N290 C291 1.346 . S
C291 N290 1.346 . S
C291 C292 1.396 . S
C291 C301 1.510 . S
C292 C288 1.401 . S
C292 C291 1.396 . S
C293 C288 1.499 . S
C293 H294 0.959 . S
C293 H295 0.960 . S
C293 H296 0.961 . S
H294 C293 0.959 . S
H295 C293 0.960 . S
H296 C293 0.961 . S
O297 Co272 1.967 . S
O297 C305 1.258 . S
O298 Co273 1.941 . S
O298 C305 1.266 . S
H299 C301 0.947 . S
H300 C301 0.961 1_655 S
C301 C291 1.510 . S
C301 H299 0.947 . S
C301 H300 0.961 1_455 S
C301 H302 0.960 . S
H302 C301 0.960 . S
H303 N283 0.862 . S
O304 Co272 1.920 . S
O304 C277 1.289 . S
C305 O297 1.258 . S
C305 O298 1.266 . S
Co306 O309 1.970 . S
Co306 N323 1.989 . S
Co306 O331 1.967 . S
Co306 O338 1.920 . S
Co307 O310 1.966 . S
Co307 N316 2.022 . S
Co307 N324 1.993 . S
Co307 O332 1.941 . S
C308 O309 1.258 . S
C308 O310 1.263 . S
O309 Co306 1.970 . S
O309 C308 1.258 . S
O310 Co307 1.966 . S
O310 C308 1.263 . S
C311 O312 1.235 . S
C311 O338 1.289 . S
O312 C311 1.235 . S
C313 C315 1.400 . S
C313 N316 1.351 . S
C313 C318 1.501 . S
C314 C315 1.387 . S
C314 N317 1.341 . S
C315 C313 1.400 . S
C315 C314 1.387 . S
N316 Co307 2.022 . S
N316 C313 1.351 . S
N316 N317 1.365 . S
N317 C314 1.341 . S
N317 N316 1.365 . S
N317 H337 0.862 . S
C318 C313 1.501 . S
C318 H319 0.961 . S
C318 H320 0.961 . S
C318 H321 0.960 . S
H319 C318 0.961 . S
H320 C318 0.961 . S
H321 C318 0.960 . S
C322 N323 1.342 . S
C322 C326 1.401 . S
C322 C327 1.499 . S
N323 Co306 1.989 . S
N323 C322 1.342 . S
N323 N324 1.388 . S
N324 Co307 1.993 . S
N324 N323 1.388 . S
N324 C325 1.346 . S
C325 N324 1.346 . S
C325 C326 1.396 . S
C325 C335 1.510 . S
C326 C322 1.401 . S
C326 C325 1.396 . S
C327 C322 1.499 . S
C327 H328 0.959 . S
C327 H329 0.960 . S
C327 H330 0.961 . S
H328 C327 0.959 . S
H329 C327 0.960 . S
H330 C327 0.961 . S
O331 Co306 1.967 . S
O331 C339 1.258 . S
O332 Co307 1.941 . S
O332 C339 1.266 . S
H333 C335 0.959 . S
H334 C335 0.961 . S
C335 C325 1.510 . S
C335 H333 0.959 . S
C335 H334 0.961 . S
C335 H336 0.960 . S
H336 C335 0.960 . S
H337 N317 0.862 . S
O338 Co306 1.920 . S
O338 C311 1.289 . S
C339 O331 1.258 . S
C339 O332 1.266 . S
Co340 O343 1.970 . S
Co340 N357 1.989 . S
Co340 O365 1.967 . S
Co340 O372 1.920 . S
Co341 O344 1.966 . S
Co341 N350 2.022 . S
Co341 N358 1.993 . S
Co341 O366 1.941 . S
C342 O343 1.258 . S
C342 O344 1.263 . S
O343 Co340 1.970 . S
O343 C342 1.258 . S
O344 Co341 1.966 . S
O344 C342 1.263 . S
C345 O346 1.235 . S
C345 O372 1.289 . S
O346 C345 1.235 . S
C347 C349 1.400 1_545 S
C347 N350 1.351 . S
C347 C352 1.501 . S
C348 C349 1.387 . S
C348 N351 1.341 1_565 S
C349 C347 1.400 1_565 S
C349 C348 1.387 . S
N350 Co341 2.022 . S
N350 C347 1.351 . S
N350 N351 1.365 . S
N351 C348 1.341 1_545 S
N351 N350 1.365 . S
N351 H371 0.862 . S
C352 C347 1.501 . S
C352 H353 0.961 . S
C352 H354 0.961 1_545 S
C352 H355 0.960 . S
H353 C352 0.961 . S
H354 C352 0.961 1_565 S
H355 C352 0.960 . S
C356 N357 1.342 . S
C356 C360 1.401 . S
C356 C361 1.499 . S
N357 Co340 1.989 . S
N357 C356 1.342 . S
N357 N358 1.388 . S
N358 Co341 1.993 . S
N358 N357 1.388 . S
N358 C359 1.346 . S
C359 N358 1.346 . S
C359 C360 1.396 . S
C359 C369 1.510 . S
C360 C356 1.401 . S
C360 C359 1.396 . S
C361 C356 1.499 . S
C361 H362 0.959 . S
C361 H363 0.960 . S
C361 H364 0.961 . S
H362 C361 0.959 . S
H363 C361 0.960 . S
H364 C361 0.961 . S
O365 Co340 1.967 . S
O365 C373 1.258 . S
O366 Co341 1.941 . S
O366 C373 1.266 . S
H367 C369 0.947 . S
H368 C369 0.961 1_565 S
C369 C359 1.510 . S
C369 H367 0.947 . S
C369 H368 0.961 1_545 S
C369 H370 0.960 . S
H370 C369 0.960 . S
H371 N351 0.862 . S
O372 Co340 1.920 . S
O372 C345 1.289 . S
C373 O365 1.258 . S
C373 O366 1.266 . S
Co374 O377 1.970 . S
Co374 N391 1.989 . S
Co374 O399 1.967 . S
Co374 O406 1.920 . S
Co375 O378 1.966 . S
Co375 N384 2.022 . S
Co375 N392 1.993 . S
Co375 O400 1.941 . S
C376 O377 1.258 . S
C376 O378 1.263 . S
O377 Co374 1.970 . S
O377 C376 1.258 . S
O378 Co375 1.966 . S
O378 C376 1.263 . S
C379 O380 1.235 . S
C379 O406 1.289 . S
O380 C379 1.235 . S
C381 C383 1.400 1_655 S
C381 N384 1.351 . S
C381 C386 1.501 . S
C382 C383 1.387 . S
C382 N385 1.341 1_455 S
C383 C381 1.400 1_455 S
C383 C382 1.387 . S
N384 Co375 2.022 . S
N384 C381 1.351 . S
N384 N385 1.365 . S
N385 C382 1.341 1_655 S
N385 N384 1.365 . S
N385 H405 0.862 . S
C386 C381 1.501 . S
C386 H387 0.961 . S
C386 H388 0.961 1_655 S
C386 H389 0.960 . S
H387 C386 0.961 . S
H388 C386 0.961 1_455 S
H389 C386 0.960 . S
C390 N391 1.342 . S
C390 C394 1.401 . S
C390 C395 1.499 . S
N391 Co374 1.989 . S
N391 C390 1.342 . S
N391 N392 1.388 . S
N392 Co375 1.993 . S
N392 N391 1.388 . S
N392 C393 1.346 . S
C393 N392 1.346 . S
C393 C394 1.396 . S
C393 C403 1.510 . S
C394 C390 1.401 . S
C394 C393 1.396 . S
C395 C390 1.499 . S
C395 H396 0.959 . S
C395 H397 0.960 . S
C395 H398 0.961 . S
H396 C395 0.959 . S
H397 C395 0.960 . S
H398 C395 0.961 . S
O399 Co374 1.967 . S
O399 C407 1.258 . S
O400 Co375 1.941 . S
O400 C407 1.266 . S
H401 C403 1.001 . S
H402 C403 0.961 1_455 S
C403 C393 1.510 . S
C403 H401 1.001 . S
C403 H402 0.961 1_655 S
C403 H404 0.960 . S
H404 C403 0.960 . S
H405 N385 0.862 . S
O406 Co374 1.920 . S
O406 C379 1.289 . S
C407 O399 1.258 . S
C407 O400 1.266 . S
Co408 O411 1.970 . S
Co408 N425 1.989 . S
Co408 O433 1.967 . S
Co408 O440 1.920 . S
Co409 O412 1.966 . S
Co409 N418 2.022 . S
Co409 N426 1.993 . S
Co409 O434 1.941 . S
C410 O411 1.258 . S
C410 O412 1.263 . S
O411 Co408 1.970 . S
O411 C410 1.258 . S
O412 Co409 1.966 . S
O412 C410 1.263 . S
C413 O414 1.235 . S
C413 O440 1.289 . S
O414 C413 1.235 . S
C415 C417 1.400 . S
C415 N418 1.351 . S
C415 C420 1.501 . S
C416 C417 1.387 . S
C416 N419 1.341 . S
C417 C415 1.400 . S
C417 C416 1.387 . S
N418 Co409 2.022 . S
N418 C415 1.351 . S
N418 N419 1.365 . S
N419 C416 1.341 . S
N419 N418 1.365 . S
N419 H439 0.862 . S
C420 C415 1.501 . S
C420 H421 0.961 . S
C420 H422 0.961 . S
C420 H423 0.960 . S
H421 C420 0.961 . S
H422 C420 0.961 . S
H423 C420 0.960 . S
C424 N425 1.342 . S
C424 C428 1.401 . S
C424 C429 1.499 . S
N425 Co408 1.989 . S
N425 C424 1.342 . S
N425 N426 1.388 . S
N426 Co409 1.993 . S
N426 N425 1.388 . S
N426 C427 1.346 . S
C427 N426 1.346 . S
C427 C428 1.396 . S
C427 C437 1.510 . S
C428 C424 1.401 . S
C428 C427 1.396 . S
C429 C424 1.499 . S
C429 H430 0.959 . S
C429 H431 0.960 . S
C429 H432 0.961 . S
H430 C429 0.959 . S
H431 C429 0.960 . S
H432 C429 0.961 . S
O433 Co408 1.967 . S
O433 C441 1.258 . S
O434 Co409 1.941 . S
O434 C441 1.266 . S
H435 C437 0.959 . S
H436 C437 0.961 . S
C437 C427 1.510 . S
C437 H435 0.959 . S
C437 H436 0.961 . S
C437 H438 0.960 . S
H438 C437 0.960 . S
H439 N419 0.862 . S
O440 Co408 1.920 . S
O440 C413 1.289 . S
C441 O433 1.258 . S
C441 O434 1.266 . S
Co442 O445 1.970 . S
Co442 N459 1.989 . S
Co442 O467 1.967 . S
Co442 O474 1.920 . S
Co443 O446 1.966 . S
Co443 N452 2.022 . S
Co443 N460 1.993 . S
Co443 O468 1.941 . S
C444 O445 1.258 . S
C444 O446 1.263 . S
O445 Co442 1.970 . S
O445 C444 1.258 . S
O446 Co443 1.966 . S
O446 C444 1.263 . S
C447 O448 1.235 . S
C447 O474 1.289 . S
O448 C447 1.235 . S
C449 C451 1.400 . S
C449 N452 1.351 . S
C449 C454 1.501 . S
C450 C451 1.387 . S
C450 N453 1.341 . S
C451 C449 1.400 . S
C451 C450 1.387 . S
N452 Co443 2.022 . S
N452 C449 1.351 . S
N452 N453 1.365 . S
N453 C450 1.341 . S
N453 N452 1.365 . S
N453 H473 0.862 . S
C454 C449 1.501 . S
C454 H455 0.961 . S
C454 H456 0.961 . S
C454 H457 0.960 . S
H455 C454 0.961 . S
H456 C454 0.961 . S
H457 C454 0.960 . S
C458 N459 1.342 . S
C458 C462 1.401 . S
C458 C463 1.499 . S
N459 Co442 1.989 . S
N459 C458 1.342 . S
N459 N460 1.388 . S
N460 Co443 1.993 . S
N460 N459 1.388 . S
N460 C461 1.346 . S
C461 N460 1.346 . S
C461 C462 1.396 . S
C461 C471 1.510 . S
C462 C458 1.401 . S
C462 C461 1.396 . S
C463 C458 1.499 . S
C463 H464 0.959 . S
C463 H465 0.960 . S
C463 H466 0.961 . S
H464 C463 0.959 . S
H465 C463 0.960 . S
H466 C463 0.961 . S
O467 Co442 1.967 . S
O467 C475 1.258 . S
O468 Co443 1.941 . S
O468 C475 1.266 . S
H469 C471 0.959 . S
H470 C471 0.961 . S
C471 C461 1.510 . S
C471 H469 0.959 . S
C471 H470 0.961 . S
C471 H472 0.960 . S
H472 C471 0.960 . S
H473 N453 0.862 . S
O474 Co442 1.920 . S
O474 C447 1.289 . S
C475 O467 1.258 . S
C475 O468 1.266 . S
Co476 O479 1.970 . S
Co476 N493 1.989 . S
Co476 O501 1.967 . S
Co476 O508 1.920 . S
Co477 O480 1.966 . S
Co477 N486 2.022 . S
Co477 N494 1.993 . S
Co477 O502 1.941 . S
C478 O479 1.258 . S
C478 O480 1.263 . S
O479 Co476 1.970 . S
O479 C478 1.258 . S
O480 Co477 1.966 . S
O480 C478 1.263 . S
C481 O482 1.235 . S
C481 O508 1.289 . S
O482 C481 1.235 . S
C483 C485 1.400 . S
C483 N486 1.351 . S
C483 C488 1.501 . S
C484 C485 1.387 . S
C484 N487 1.341 . S
C485 C483 1.400 . S
C485 C484 1.387 . S
N486 Co477 2.022 . S
N486 C483 1.351 . S
N486 N487 1.365 . S
N487 C484 1.341 . S
N487 N486 1.365 . S
N487 H507 0.862 . S
C488 C483 1.501 . S
C488 H489 0.961 . S
C488 H490 0.961 . S
C488 H491 0.960 . S
H489 C488 0.961 . S
H490 C488 0.961 . S
H491 C488 0.960 . S
C492 N493 1.342 . S
C492 C496 1.401 . S
C492 C497 1.499 . S
N493 Co476 1.989 . S
N493 C492 1.342 . S
N493 N494 1.388 . S
N494 Co477 1.993 . S
N494 N493 1.388 . S
N494 C495 1.346 . S
C495 N494 1.346 . S
C495 C496 1.396 . S
C495 C505 1.510 . S
C496 C492 1.401 . S
C496 C495 1.396 . S
C497 C492 1.499 . S
C497 H498 0.959 . S
C497 H499 0.960 . S
C497 H500 0.961 . S
H498 C497 0.959 . S
H499 C497 0.960 . S
H500 C497 0.961 . S
O501 Co476 1.967 . S
O501 C509 1.258 . S
O502 Co477 1.941 . S
O502 C509 1.266 . S
H503 C505 0.959 . S
H504 C505 0.961 . S
C505 C495 1.510 . S
C505 H503 0.959 . S
C505 H504 0.961 . S
C505 H506 0.960 . S
H506 C505 0.960 . S
H507 N487 0.862 . S
O508 Co476 1.920 . S
O508 C481 1.289 . S
C509 O501 1.258 . S
C509 O502 1.266 . S
Co510 O513 1.970 . S
Co510 N527 1.989 . S
Co510 O535 1.967 . S
Co510 O542 1.920 . S
Co511 O514 1.966 . S
Co511 N520 2.022 . S
Co511 N528 1.993 . S
Co511 O536 1.941 . S
C512 O513 1.258 . S
C512 O514 1.263 . S
O513 Co510 1.970 . S
O513 C512 1.258 . S
O514 Co511 1.966 . S
O514 C512 1.263 . S
C515 O516 1.235 . S
C515 O542 1.289 . S
O516 C515 1.235 . S
C517 C519 1.400 . S
C517 N520 1.351 . S
C517 C522 1.501 . S
C518 C519 1.387 . S
C518 N521 1.341 . S
C519 C517 1.400 . S
C519 C518 1.387 . S
N520 Co511 2.022 . S
N520 C517 1.351 . S
N520 N521 1.365 . S
N521 C518 1.341 . S
N521 N520 1.365 . S
N521 H541 0.862 . S
C522 C517 1.501 . S
C522 H523 0.961 . S
C522 H524 0.961 . S
C522 H525 0.960 . S
H523 C522 0.961 . S
H524 C522 0.961 . S
H525 C522 0.960 . S
C526 N527 1.342 . S
C526 C530 1.401 . S
C526 C531 1.499 . S
N527 Co510 1.989 . S
N527 C526 1.342 . S
N527 N528 1.388 . S
N528 Co511 1.993 . S
N528 N527 1.388 . S
N528 C529 1.346 . S
C529 N528 1.346 . S
C529 C530 1.396 . S
C529 C539 1.510 . S
C530 C526 1.401 . S
C530 C529 1.396 . S
C531 C526 1.499 . S
C531 H532 0.959 . S
C531 H533 0.960 . S
C531 H534 0.961 . S
H532 C531 0.959 . S
H533 C531 0.960 . S
H534 C531 0.961 . S
O535 Co510 1.967 . S
O535 C543 1.258 . S
O536 Co511 1.941 . S
O536 C543 1.266 . S
H537 C539 0.959 . S
H538 C539 0.961 . S
C539 C529 1.510 . S
C539 H537 0.959 . S
C539 H538 0.961 . S
C539 H540 0.960 . S
H540 C539 0.960 . S
H541 N521 0.862 . S
O542 Co510 1.920 . S
O542 C515 1.289 . S
C543 O535 1.258 . S
C543 O536 1.266 . S
Co544 O547 1.970 . S
Co544 N561 1.989 . S
Co544 O569 1.967 . S
Co544 O576 1.920 . S
Co545 O548 1.966 . S
Co545 N554 2.022 . S
Co545 N562 1.993 . S
Co545 O570 1.941 . S
C546 O547 1.258 . S
C546 O548 1.263 . S
O547 Co544 1.970 . S
O547 C546 1.258 . S
O548 Co545 1.966 . S
O548 C546 1.263 . S
C549 O550 1.235 . S
C549 O576 1.289 . S
O550 C549 1.235 . S
C551 C553 1.400 . S
C551 N554 1.351 . S
C551 C556 1.501 . S
C552 C553 1.387 . S
C552 N555 1.341 . S
C553 C551 1.400 . S
C553 C552 1.387 . S
N554 Co545 2.022 . S
N554 C551 1.351 . S
N554 N555 1.365 . S
N555 C552 1.341 . S
N555 N554 1.365 . S
N555 H575 0.862 . S
C556 C551 1.501 . S
C556 H557 0.961 . S
C556 H558 0.961 . S
C556 H559 0.960 . S
H557 C556 0.961 . S
H558 C556 0.961 . S
H559 C556 0.960 . S
C560 N561 1.342 . S
C560 C564 1.401 . S
C560 C565 1.499 . S
N561 Co544 1.989 . S
N561 C560 1.342 . S
N561 N562 1.388 . S
N562 Co545 1.993 . S
N562 N561 1.388 . S
N562 C563 1.346 . S
C563 N562 1.346 . S
C563 C564 1.396 . S
C563 C573 1.510 . S
C564 C560 1.401 . S
C564 C563 1.396 . S
C565 C560 1.499 . S
C565 H566 0.959 . S
C565 H567 0.960 . S
C565 H568 0.961 . S
H566 C565 0.959 . S
H567 C565 0.960 . S
H568 C565 0.961 . S
O569 Co544 1.967 . S
O569 C577 1.258 . S
O570 Co545 1.941 . S
O570 C577 1.266 . S
H571 C573 0.959 . S
H572 C573 0.961 . S
C573 C563 1.510 . S
C573 H571 0.959 . S
C573 H572 0.961 . S
C573 H574 0.960 . S
H574 C573 0.960 . S
H575 N555 0.862 . S
O576 Co544 1.920 . S
O576 C549 1.289 . S
C577 O569 1.258 . S
C577 O570 1.266 . S
Co578 O581 1.970 . S
Co578 N595 1.989 . S
Co578 O603 1.967 . S
Co578 O610 1.920 . S
Co579 O582 1.966 . S
Co579 N588 2.022 . S
Co579 N596 1.993 . S
Co579 O604 1.941 . S
C580 O581 1.258 . S
C580 O582 1.263 . S
O581 Co578 1.970 . S
O581 C580 1.258 . S
O582 Co579 1.966 . S
O582 C580 1.263 . S
C583 O584 1.235 . S
C583 O610 1.289 . S
O584 C583 1.235 . S
C585 C587 1.400 . S
C585 N588 1.351 . S
C585 C590 1.501 . S
C586 C587 1.387 . S
C586 N589 1.341 . S
C587 C585 1.400 . S
C587 C586 1.387 . S
N588 Co579 2.022 . S
N588 C585 1.351 . S
N588 N589 1.365 . S
N589 C586 1.341 . S
N589 N588 1.365 . S
N589 H609 0.862 . S
C590 C585 1.501 . S
C590 H591 0.961 . S
C590 H592 0.961 . S
C590 H593 0.960 . S
H591 C590 0.961 . S
H592 C590 0.961 . S
H593 C590 0.960 . S
C594 N595 1.342 . S
C594 C598 1.401 . S
C594 C599 1.499 . S
N595 Co578 1.989 . S
N595 C594 1.342 . S
N595 N596 1.388 . S
N596 Co579 1.993 . S
N596 N595 1.388 . S
N596 C597 1.346 . S
C597 N596 1.346 . S
C597 C598 1.396 . S
C597 C607 1.510 . S
C598 C594 1.401 . S
C598 C597 1.396 . S
C599 C594 1.499 . S
C599 H600 0.959 . S
C599 H601 0.960 . S
C599 H602 0.961 . S
H600 C599 0.959 . S
H601 C599 0.960 . S
H602 C599 0.961 . S
O603 Co578 1.967 . S
O603 C611 1.258 . S
O604 Co579 1.941 . S
O604 C611 1.266 . S
H605 C607 0.959 . S
H606 C607 0.961 . S
C607 C597 1.510 . S
C607 H605 0.959 . S
C607 H606 0.961 . S
C607 H608 0.960 . S
H608 C607 0.960 . S
H609 N589 0.862 . S
O610 Co578 1.920 . S
O610 C583 1.289 . S
C611 O603 1.258 . S
C611 O604 1.266 . S
Co612 O615 1.970 . S
Co612 N629 1.989 . S
Co612 O637 1.967 . S
Co612 O644 1.920 . S
Co613 O616 1.966 . S
Co613 N622 2.022 . S
Co613 N630 1.993 . S
Co613 O638 1.941 . S
C614 O615 1.258 . S
C614 O616 1.263 . S
O615 Co612 1.970 . S
O615 C614 1.258 . S
O616 Co613 1.966 . S
O616 C614 1.263 . S
C617 O618 1.235 . S
C617 O644 1.289 . S
O618 C617 1.235 . S
C619 C621 1.400 . S
C619 N622 1.351 . S
C619 C624 1.501 . S
C620 C621 1.387 . S
C620 N623 1.341 . S
C621 C619 1.400 . S
C621 C620 1.387 . S
N622 Co613 2.022 . S
N622 C619 1.351 . S
N622 N623 1.365 . S
N623 C620 1.341 . S
N623 N622 1.365 . S
N623 H643 0.862 . S
C624 C619 1.501 . S
C624 H625 0.961 . S
C624 H626 0.961 . S
C624 H627 0.960 . S
H625 C624 0.961 . S
H626 C624 0.961 . S
H627 C624 0.960 . S
C628 N629 1.342 . S
C628 C632 1.401 . S
C628 C633 1.499 . S
N629 Co612 1.989 . S
N629 C628 1.342 . S
N629 N630 1.388 . S
N630 Co613 1.993 . S
N630 N629 1.388 . S
N630 C631 1.346 . S
C631 N630 1.346 . S
C631 C632 1.396 . S
C631 C641 1.510 . S
C632 C628 1.401 . S
C632 C631 1.396 . S
C633 C628 1.499 . S
C633 H634 0.959 . S
C633 H635 0.960 . S
C633 H636 0.961 . S
H634 C633 0.959 . S
H635 C633 0.960 . S
H636 C633 0.961 . S
O637 Co612 1.967 . S
O637 C645 1.258 . S
O638 Co613 1.941 . S
O638 C645 1.266 . S
H639 C641 0.959 . S
H640 C641 0.961 . S
C641 C631 1.510 . S
C641 H639 0.959 . S
C641 H640 0.961 . S
C641 H642 0.960 . S
H642 C641 0.960 . S
H643 N623 0.862 . S
O644 Co612 1.920 . S
O644 C617 1.289 . S
C645 O637 1.258 . S
C645 O638 1.266 . S
Co646 O649 1.970 . S
Co646 N663 1.989 . S
Co646 O671 1.967 . S
Co646 O678 1.920 . S
Co647 O650 1.966 . S
Co647 N656 2.022 . S
Co647 N664 1.993 . S
Co647 O672 1.941 . S
C648 O649 1.258 . S
C648 O650 1.263 . S
O649 Co646 1.970 . S
O649 C648 1.258 . S
O650 Co647 1.966 . S
O650 C648 1.263 . S
C651 O652 1.235 . S
C651 O678 1.289 . S
O652 C651 1.235 . S
C653 C655 1.400 . S
C653 N656 1.351 . S
C653 C658 1.501 . S
C654 C655 1.387 . S
C654 N657 1.341 . S
C655 C653 1.400 . S
C655 C654 1.387 . S
N656 Co647 2.022 . S
N656 C653 1.351 . S
N656 N657 1.365 . S
N657 C654 1.341 . S
N657 N656 1.365 . S
N657 H677 0.862 . S
C658 C653 1.501 . S
C658 H659 0.961 . S
C658 H660 0.961 . S
C658 H661 0.960 . S
H659 C658 0.961 . S
H660 C658 0.961 . S
H661 C658 0.960 . S
C662 N663 1.342 . S
C662 C666 1.401 . S
C662 C667 1.499 . S
N663 Co646 1.989 . S
N663 C662 1.342 . S
N663 N664 1.388 . S
N664 Co647 1.993 . S
N664 N663 1.388 . S
N664 C665 1.346 . S
C665 N664 1.346 . S
C665 C666 1.396 . S
C665 C675 1.510 . S
C666 C662 1.401 . S
C666 C665 1.396 . S
C667 C662 1.499 . S
C667 H668 0.959 . S
C667 H669 0.960 . S
C667 H670 0.961 . S
H668 C667 0.959 . S
H669 C667 0.960 . S
H670 C667 0.961 . S
O671 Co646 1.967 . S
O671 C679 1.258 . S
O672 Co647 1.941 . S
O672 C679 1.266 . S
H673 C675 0.959 . S
H674 C675 0.961 . S
C675 C665 1.510 . S
C675 H673 0.959 . S
C675 H674 0.961 . S
C675 H676 0.960 . S
H676 C675 0.960 . S
H677 N657 0.862 . S
O678 Co646 1.920 . S
O678 C651 1.289 . S
C679 O671 1.258 . S
C679 O672 1.266 . S
Co680 O683 1.970 . S
Co680 N697 1.989 . S
Co680 O705 1.967 . S
Co680 O712 1.920 . S
Co681 O684 1.966 . S
Co681 N690 2.022 . S
Co681 N698 1.993 . S
Co681 O706 1.941 . S
C682 O683 1.258 . S
C682 O684 1.263 . S
O683 Co680 1.970 . S
O683 C682 1.258 . S
O684 Co681 1.966 . S
O684 C682 1.263 . S
C685 O686 1.235 . S
C685 O712 1.289 . S
O686 C685 1.235 . S
C687 C689 1.400 . S
C687 N690 1.351 . S
C687 C692 1.501 . S
C688 C689 1.387 . S
C688 N691 1.341 . S
C689 C687 1.400 . S
C689 C688 1.387 . S
N690 Co681 2.022 . S
N690 C687 1.351 . S
N690 N691 1.365 . S
N691 C688 1.341 . S
N691 N690 1.365 . S
N691 H711 0.862 . S
C692 C687 1.501 . S
C692 H693 0.961 . S
C692 H694 0.961 . S
C692 H695 0.960 . S
H693 C692 0.961 . S
H694 C692 0.961 . S
H695 C692 0.960 . S
C696 N697 1.342 . S
C696 C700 1.401 . S
C696 C701 1.499 . S
N697 Co680 1.989 . S
N697 C696 1.342 . S
N697 N698 1.388 . S
N698 Co681 1.993 . S
N698 N697 1.388 . S
N698 C699 1.346 . S
C699 N698 1.346 . S
C699 C700 1.396 . S
C699 C709 1.510 . S
C700 C696 1.401 . S
C700 C699 1.396 . S
C701 C696 1.499 . S
C701 H702 0.959 . S
C701 H703 0.960 . S
C701 H704 0.961 . S
H702 C701 0.959 . S
H703 C701 0.960 . S
H704 C701 0.961 . S
O705 Co680 1.967 . S
O705 C713 1.258 . S
O706 Co681 1.941 . S
O706 C713 1.266 . S
H707 C709 0.959 . S
H708 C709 0.961 . S
C709 C699 1.510 . S
C709 H707 0.959 . S
C709 H708 0.961 . S
C709 H710 0.960 . S
H710 C709 0.960 . S
H711 N691 0.862 . S
O712 Co680 1.920 . S
O712 C685 1.289 . S
C713 O705 1.258 . S
C713 O706 1.266 . S
Co714 O717 1.970 . S
Co714 N731 1.989 . S
Co714 O739 1.967 . S
Co714 O746 1.920 . S
Co715 O718 1.966 . S
Co715 N724 2.022 . S
Co715 N732 1.993 . S
Co715 O740 1.941 . S
C716 O717 1.258 . S
C716 O718 1.263 . S
O717 Co714 1.970 . S
O717 C716 1.258 . S
O718 Co715 1.966 . S
O718 C716 1.263 . S
C719 O720 1.235 . S
C719 O746 1.289 . S
O720 C719 1.235 . S
C721 C723 1.400 . S
C721 N724 1.351 . S
C721 C726 1.501 . S
C722 C723 1.387 . S
C722 N725 1.341 . S
C723 C721 1.400 . S
C723 C722 1.387 . S
N724 Co715 2.022 . S
N724 C721 1.351 . S
N724 N725 1.365 . S
N725 C722 1.341 . S
N725 N724 1.365 . S
N725 H745 0.862 . S
C726 C721 1.501 . S
C726 H727 0.961 . S
C726 H728 0.961 . S
C726 H729 0.960 . S
H727 C726 0.961 . S
H728 C726 0.961 . S
H729 C726 0.960 . S
C730 N731 1.342 . S
C730 C734 1.401 . S
C730 C735 1.499 . S
N731 Co714 1.989 . S
N731 C730 1.342 . S
N731 N732 1.388 . S
N732 Co715 1.993 . S
N732 N731 1.388 . S
N732 C733 1.346 . S
C733 N732 1.346 . S
C733 C734 1.396 . S
C733 C743 1.510 . S
C734 C730 1.401 . S
C734 C733 1.396 . S
C735 C730 1.499 . S
C735 H736 0.959 . S
C735 H737 0.960 1_556 S
C735 H738 0.961 1_556 S
H736 C735 0.959 . S
H737 C735 0.960 1_554 S
H738 C735 0.961 1_554 S
O739 Co714 1.967 . S
O739 C747 1.258 . S
O740 Co715 1.941 . S
O740 C747 1.266 . S
H741 C743 0.959 . S
H742 C743 0.961 . S
C743 C733 1.510 . S
C743 H741 0.959 . S
C743 H742 0.961 . S
C743 H744 0.960 . S
H744 C743 0.960 . S
H745 N725 0.862 . S
O746 Co714 1.920 . S
O746 C719 1.289 . S
C747 O739 1.258 . S
C747 O740 1.266 . S
Co748 O751 1.970 . S
Co748 N765 1.989 . S
Co748 O773 1.967 . S
Co748 O780 1.920 . S
Co749 O752 1.966 . S
Co749 N758 2.022 . S
Co749 N766 1.993 . S
Co749 O774 1.941 . S
C750 O751 1.258 . S
C750 O752 1.263 . S
O751 Co748 1.970 . S
O751 C750 1.258 . S
O752 Co749 1.966 . S
O752 C750 1.263 . S
C753 O754 1.235 . S
C753 O780 1.289 . S
O754 C753 1.235 . S
C755 C757 1.400 . S
C755 N758 1.351 . S
C755 C760 1.501 . S
C756 C757 1.387 . S
C756 N759 1.341 . S
C757 C755 1.400 . S
C757 C756 1.387 . S
N758 Co749 2.022 . S
N758 C755 1.351 . S
N758 N759 1.365 . S
N759 C756 1.341 . S
N759 N758 1.365 . S
N759 H779 0.862 . S
C760 C755 1.501 . S
C760 H761 0.961 . S
C760 H762 0.961 . S
C760 H763 0.960 . S
H761 C760 0.961 . S
H762 C760 0.961 . S
H763 C760 0.960 . S
C764 N765 1.342 . S
C764 C768 1.401 . S
C764 C769 1.499 . S
N765 Co748 1.989 . S
N765 C764 1.342 . S
N765 N766 1.388 . S
N766 Co749 1.993 . S
N766 N765 1.388 . S
N766 C767 1.346 . S
C767 N766 1.346 . S
C767 C768 1.396 . S
C767 C777 1.510 . S
C768 C764 1.401 . S
C768 C767 1.396 . S
C769 C764 1.499 . S
C769 H770 0.959 . S
C769 H771 0.960 1_556 S
C769 H772 0.961 1_556 S
H770 C769 0.959 . S
H771 C769 0.960 1_554 S
H772 C769 0.961 1_554 S
O773 Co748 1.967 . S
O773 C781 1.258 . S
O774 Co749 1.941 . S
O774 C781 1.266 . S
H775 C777 0.959 . S
H776 C777 0.961 . S
C777 C767 1.510 . S
C777 H775 0.959 . S
C777 H776 0.961 . S
C777 H778 0.960 . S
H778 C777 0.960 . S
H779 N759 0.862 . S
O780 Co748 1.920 . S
O780 C753 1.289 . S
C781 O773 1.258 . S
C781 O774 1.266 . S
Co782 O785 1.970 . S
Co782 N799 1.989 . S
Co782 O807 1.967 . S
Co782 O814 1.920 . S
Co783 O786 1.966 . S
Co783 N792 2.022 . S
Co783 N800 1.993 . S
Co783 O808 1.941 . S
C784 O785 1.258 . S
C784 O786 1.263 . S
O785 Co782 1.970 . S
O785 C784 1.258 . S
O786 Co783 1.966 . S
O786 C784 1.263 . S
C787 O788 1.235 . S
C787 O814 1.289 . S
O788 C787 1.235 . S
C789 C791 1.400 . S
C789 N792 1.351 . S
C789 C794 1.501 . S
C790 C791 1.387 . S
C790 N793 1.341 . S
C791 C789 1.400 . S
C791 C790 1.387 . S
N792 Co783 2.022 . S
N792 C789 1.351 . S
N792 N793 1.365 . S
N793 C790 1.341 . S
N793 N792 1.365 . S
N793 H813 0.862 . S
C794 C789 1.501 . S
C794 H795 0.961 . S
C794 H796 0.961 . S
C794 H797 0.960 . S
H795 C794 0.961 . S
H796 C794 0.961 . S
H797 C794 0.960 . S
C798 N799 1.342 . S
C798 C802 1.401 . S
C798 C803 1.499 . S
N799 Co782 1.989 . S
N799 C798 1.342 . S
N799 N800 1.388 . S
N800 Co783 1.993 . S
N800 N799 1.388 . S
N800 C801 1.346 . S
C801 N800 1.346 . S
C801 C802 1.396 . S
C801 C811 1.510 . S
C802 C798 1.401 . S
C802 C801 1.396 . S
C803 C798 1.499 . S
C803 H804 0.959 . S
C803 H805 0.960 1_556 S
C803 H806 0.961 1_556 S
H804 C803 0.959 . S
H805 C803 0.960 1_554 S
H806 C803 0.961 1_554 S
O807 Co782 1.967 . S
O807 C815 1.258 . S
O808 Co783 1.941 . S
O808 C815 1.266 . S
H809 C811 0.959 . S
H810 C811 0.961 . S
C811 C801 1.510 . S
C811 H809 0.959 . S
C811 H810 0.961 . S
C811 H812 0.960 . S
H812 C811 0.960 . S
H813 N793 0.862 . S
O814 Co782 1.920 . S
O814 C787 1.289 . S
C815 O807 1.258 . S
C815 O808 1.266 . S
Co816 O819 1.970 . S
Co816 N833 1.989 . S
Co816 O841 1.967 . S
Co816 O848 1.920 . S
Co817 O820 1.966 . S
Co817 N826 2.022 . S
Co817 N834 1.993 . S
Co817 O842 1.941 . S
C818 O819 1.258 . S
C818 O820 1.263 . S
O819 Co816 1.970 . S
O819 C818 1.258 . S
O820 Co817 1.966 . S
O820 C818 1.263 . S
C821 O822 1.235 . S
C821 O848 1.289 . S
O822 C821 1.235 . S
C823 C825 1.400 . S
C823 N826 1.351 . S
C823 C828 1.501 . S
C824 C825 1.387 . S
C824 N827 1.341 . S
C825 C823 1.400 . S
C825 C824 1.387 . S
N826 Co817 2.022 . S
N826 C823 1.351 . S
N826 N827 1.365 . S
N827 C824 1.341 . S
N827 N826 1.365 . S
N827 H847 0.862 . S
C828 C823 1.501 . S
C828 H829 0.961 . S
C828 H830 0.961 . S
C828 H831 0.960 . S
H829 C828 0.961 . S
H830 C828 0.961 . S
H831 C828 0.960 . S
C832 N833 1.342 . S
C832 C836 1.401 . S
C832 C837 1.499 . S
N833 Co816 1.989 . S
N833 C832 1.342 . S
N833 N834 1.388 . S
N834 Co817 1.993 . S
N834 N833 1.388 . S
N834 C835 1.346 . S
C835 N834 1.346 . S
C835 C836 1.396 . S
C835 C845 1.510 . S
C836 C832 1.401 . S
C836 C835 1.396 . S
C837 C832 1.499 . S
C837 H838 0.959 . S
C837 H839 0.960 . S
C837 H840 0.961 . S
H838 C837 0.959 . S
H839 C837 0.960 . S
H840 C837 0.961 . S
O841 Co816 1.967 . S
O841 C849 1.258 . S
O842 Co817 1.941 . S
O842 C849 1.266 . S
H843 C845 0.959 . S
H844 C845 0.961 . S
C845 C835 1.510 . S
C845 H843 0.959 . S
C845 H844 0.961 . S
C845 H846 0.960 . S
H846 C845 0.960 . S
H847 N827 0.862 . S
O848 Co816 1.920 . S
O848 C821 1.289 . S
C849 O841 1.258 . S
C849 O842 1.266 . S
Co850 O853 1.970 . S
Co850 N867 1.989 . S
Co850 O875 1.967 . S
Co850 O882 1.920 . S
Co851 O854 1.966 . S
Co851 N860 2.022 . S
Co851 N868 1.993 . S
Co851 O876 1.941 . S
C852 O853 1.258 . S
C852 O854 1.263 . S
O853 Co850 1.970 . S
O853 C852 1.258 . S
O854 Co851 1.966 . S
O854 C852 1.263 . S
C855 O856 1.235 . S
C855 O882 1.289 . S
O856 C855 1.235 . S
C857 C859 1.400 . S
C857 N860 1.351 . S
C857 C862 1.501 . S
C858 C859 1.387 . S
C858 N861 1.341 . S
C859 C857 1.400 . S
C859 C858 1.387 . S
N860 Co851 2.022 . S
N860 C857 1.351 . S
N860 N861 1.365 . S
N861 C858 1.341 . S
N861 N860 1.365 . S
N861 H881 0.862 . S
C862 C857 1.501 . S
C862 H863 0.961 . S
C862 H864 0.961 . S
C862 H865 0.960 . S
H863 C862 0.961 . S
H864 C862 0.961 . S
H865 C862 0.960 . S
C866 N867 1.342 . S
C866 C870 1.401 . S
C866 C871 1.499 . S
N867 Co850 1.989 . S
N867 C866 1.342 . S
N867 N868 1.388 . S
N868 Co851 1.993 . S
N868 N867 1.388 . S
N868 C869 1.346 . S
C869 N868 1.346 . S
C869 C870 1.396 . S
C869 C879 1.510 . S
C870 C866 1.401 . S
C870 C869 1.396 . S
C871 C866 1.499 . S
C871 H872 0.959 . S
C871 H873 0.960 . S
C871 H874 0.961 . S
H872 C871 0.959 . S
H873 C871 0.960 . S
H874 C871 0.961 . S
O875 Co850 1.967 . S
O875 C883 1.258 . S
O876 Co851 1.941 . S
O876 C883 1.266 . S
H877 C879 0.959 . S
H878 C879 0.961 . S
C879 C869 1.510 . S
C879 H877 0.959 . S
C879 H878 0.961 . S
C879 H880 0.960 . S
H880 C879 0.960 . S
H881 N861 0.862 . S
O882 Co850 1.920 . S
O882 C855 1.289 . S
C883 O875 1.258 . S
C883 O876 1.266 . S
Co884 O887 1.970 . S
Co884 N901 1.989 . S
Co884 O909 1.967 . S
Co884 O916 1.920 . S
Co885 O888 1.966 . S
Co885 N894 2.022 . S
Co885 N902 1.993 . S
Co885 O910 1.941 . S
C886 O887 1.258 . S
C886 O888 1.263 . S
O887 Co884 1.970 . S
O887 C886 1.258 . S
O888 Co885 1.966 . S
O888 C886 1.263 . S
C889 O890 1.235 . S
C889 O916 1.289 . S
O890 C889 1.235 . S
C891 C893 1.400 . S
C891 N894 1.351 . S
C891 C896 1.501 . S
C892 C893 1.387 . S
C892 N895 1.341 . S
C893 C891 1.400 . S
C893 C892 1.387 . S
N894 Co885 2.022 . S
N894 C891 1.351 . S
N894 N895 1.365 . S
N895 C892 1.341 . S
N895 N894 1.365 . S
N895 H915 0.862 . S
C896 C891 1.501 . S
C896 H897 0.961 . S
C896 H898 0.961 . S
C896 H899 0.960 . S
H897 C896 0.961 . S
H898 C896 0.961 . S
H899 C896 0.960 . S
C900 N901 1.342 . S
C900 C904 1.401 . S
C900 C905 1.499 . S
N901 Co884 1.989 . S
N901 C900 1.342 . S
N901 N902 1.388 . S
N902 Co885 1.993 . S
N902 N901 1.388 . S
N902 C903 1.346 . S
C903 N902 1.346 . S
C903 C904 1.396 . S
C903 C913 1.510 . S
C904 C900 1.401 . S
C904 C903 1.396 . S
C905 C900 1.499 . S
C905 H906 0.959 . S
C905 H907 0.960 . S
C905 H908 0.961 . S
H906 C905 0.959 . S
H907 C905 0.960 . S
H908 C905 0.961 . S
O909 Co884 1.967 . S
O909 C917 1.258 . S
O910 Co885 1.941 . S
O910 C917 1.266 . S
H911 C913 0.959 . S
H912 C913 0.961 . S
C913 C903 1.510 . S
C913 H911 0.959 . S
C913 H912 0.961 . S
C913 H914 0.960 . S
H914 C913 0.960 . S
H915 N895 0.862 . S
O916 Co884 1.920 . S
O916 C889 1.289 . S
C917 O909 1.258 . S
C917 O910 1.266 . S
Co918 O921 1.970 . S
Co918 N935 1.989 . S
Co918 O943 1.967 . S
Co918 O950 1.920 . S
Co919 O922 1.966 . S
Co919 N928 2.022 . S
Co919 N936 1.993 . S
Co919 O944 1.941 . S
C920 O921 1.258 . S
C920 O922 1.263 . S
O921 Co918 1.970 . S
O921 C920 1.258 . S
O922 Co919 1.966 . S
O922 C920 1.263 . S
C923 O924 1.235 . S
C923 O950 1.289 . S
O924 C923 1.235 . S
C925 C927 1.400 . S
C925 N928 1.351 . S
C925 C930 1.501 . S
C926 C927 1.387 . S
C926 N929 1.341 . S
C927 C925 1.400 . S
C927 C926 1.387 . S
N928 Co919 2.022 . S
N928 C925 1.351 . S
N928 N929 1.365 . S
N929 C926 1.341 . S
N929 N928 1.365 . S
N929 H949 0.862 . S
C930 C925 1.501 . S
C930 H931 0.961 . S
C930 H932 0.961 . S
C930 H933 0.960 . S
H931 C930 0.961 . S
H932 C930 0.961 . S
H933 C930 0.960 . S
C934 N935 1.342 . S
C934 C938 1.401 . S
C934 C939 1.499 . S
N935 Co918 1.989 . S
N935 C934 1.342 . S
N935 N936 1.388 . S
N936 Co919 1.993 . S
N936 N935 1.388 . S
N936 C937 1.346 . S
C937 N936 1.346 . S
C937 C938 1.396 . S
C937 C947 1.510 . S
C938 C934 1.401 . S
C938 C937 1.396 . S
C939 C934 1.499 . S
C939 H940 0.959 . S
C939 H941 0.960 1_554 S
C939 H942 0.961 1_554 S
H940 C939 0.959 . S
H941 C939 0.960 1_556 S
H942 C939 0.961 1_556 S
O943 Co918 1.967 . S
O943 C951 1.258 . S
O944 Co919 1.941 . S
O944 C951 1.266 . S
H945 C947 0.959 . S
H946 C947 0.961 . S
C947 C937 1.510 . S
C947 H945 0.959 . S
C947 H946 0.961 . S
C947 H948 0.960 . S
H948 C947 0.960 . S
H949 N929 0.862 . S
O950 Co918 1.920 . S
O950 C923 1.289 . S
C951 O943 1.258 . S
C951 O944 1.266 . S
Co952 O955 1.970 . S
Co952 N969 1.989 . S
Co952 O977 1.967 . S
Co952 O984 1.920 . S
Co953 O956 1.966 . S
Co953 N962 2.022 . S
Co953 N970 1.993 . S
Co953 O978 1.941 . S
C954 O955 1.258 . S
C954 O956 1.263 . S
O955 Co952 1.970 . S
O955 C954 1.258 . S
O956 Co953 1.966 . S
O956 C954 1.263 . S
C957 O958 1.235 . S
C957 O984 1.289 . S
O958 C957 1.235 . S
C959 C961 1.400 . S
C959 N962 1.351 . S
C959 C964 1.501 . S
C960 C961 1.387 . S
C960 N963 1.341 . S
C961 C959 1.400 . S
C961 C960 1.387 . S
N962 Co953 2.022 . S
N962 C959 1.351 . S
N962 N963 1.365 . S
N963 C960 1.341 . S
N963 N962 1.365 . S
N963 H983 0.862 . S
C964 C959 1.501 . S
C964 H965 0.961 . S
C964 H966 0.961 . S
C964 H967 0.960 . S
H965 C964 0.961 . S
H966 C964 0.961 . S
H967 C964 0.960 . S
C968 N969 1.342 . S
C968 C972 1.401 . S
C968 C973 1.499 . S
N969 Co952 1.989 . S
N969 C968 1.342 . S
N969 N970 1.388 . S
N970 Co953 1.993 . S
N970 N969 1.388 . S
N970 C971 1.346 . S
C971 N970 1.346 . S
C971 C972 1.396 . S
C971 C981 1.510 . S
C972 C968 1.401 . S
C972 C971 1.396 . S
C973 C968 1.499 . S
C973 H974 0.959 . S
C973 H975 0.960 1_554 S
C973 H976 0.961 1_554 S
H974 C973 0.959 . S
H975 C973 0.960 1_556 S
H976 C973 0.961 1_556 S
O977 Co952 1.967 . S
O977 C985 1.258 . S
O978 Co953 1.941 . S
O978 C985 1.266 . S
H979 C981 0.959 . S
H980 C981 0.961 . S
C981 C971 1.510 . S
C981 H979 0.959 . S
C981 H980 0.961 . S
C981 H982 0.960 . S
H982 C981 0.960 . S
H983 N963 0.862 . S
O984 Co952 1.920 . S
O984 C957 1.289 . S
C985 O977 1.258 . S
C985 O978 1.266 . S
Co986 O989 1.970 . S
Co986 N1003 1.989 . S
Co986 O1011 1.967 . S
Co986 O1018 1.920 . S
Co987 O990 1.966 . S
Co987 N996 2.022 . S
Co987 N1004 1.993 . S
Co987 O1012 1.941 . S
C988 O989 1.258 . S
C988 O990 1.263 . S
O989 Co986 1.970 . S
O989 C988 1.258 . S
O990 Co987 1.966 . S
O990 C988 1.263 . S
C991 O992 1.235 . S
C991 O1018 1.289 . S
O992 C991 1.235 . S
C993 C995 1.400 . S
C993 N996 1.351 . S
C993 C998 1.501 . S
C994 C995 1.387 . S
C994 N997 1.341 . S
C995 C993 1.400 . S
C995 C994 1.387 . S
N996 Co987 2.022 . S
N996 C993 1.351 . S
N996 N997 1.365 . S
N997 C994 1.341 . S
N997 N996 1.365 . S
N997 H1017 0.862 . S
C998 C993 1.501 . S
C998 H999 0.961 . S
C998 H1000 0.961 . S
C998 H1001 0.960 . S
H999 C998 0.961 . S
H1000 C998 0.961 . S
H1001 C998 0.960 . S
C1002 N1003 1.342 . S
C1002 C1006 1.401 . S
C1002 C1007 1.499 . S
N1003 Co986 1.989 . S
N1003 C1002 1.342 . S
N1003 N1004 1.388 . S
N1004 Co987 1.993 . S
N1004 N1003 1.388 . S
N1004 C1005 1.346 . S
C1005 N1004 1.346 . S
C1005 C1006 1.396 . S
C1005 C1015 1.510 . S
C1006 C1002 1.401 . S
C1006 C1005 1.396 . S
C1007 C1002 1.499 . S
C1007 H1008 0.959 . S
C1007 H1009 0.960 1_554 S
C1007 H1010 0.961 1_554 S
H1008 C1007 0.959 . S
H1009 C1007 0.960 1_556 S
H1010 C1007 0.961 1_556 S
O1011 Co986 1.967 . S
O1011 C1019 1.258 . S
O1012 Co987 1.941 . S
O1012 C1019 1.266 . S
H1013 C1015 0.959 . S
H1014 C1015 0.961 . S
C1015 C1005 1.510 . S
C1015 H1013 0.959 . S
C1015 H1014 0.961 . S
C1015 H1016 0.960 . S
H1016 C1015 0.960 . S
H1017 N997 0.862 . S
O1018 Co986 1.920 . S
O1018 C991 1.289 . S
C1019 O1011 1.258 . S
C1019 O1012 1.266 . S
Co1020 O1023 1.970 . S
Co1020 N1037 1.989 . S
Co1020 O1045 1.967 . S
Co1020 O1052 1.920 . S
Co1021 O1024 1.966 . S
Co1021 N1030 2.022 . S
Co1021 N1038 1.993 . S
Co1021 O1046 1.941 . S
C1022 O1023 1.258 . S
C1022 O1024 1.263 . S
O1023 Co1020 1.970 . S
O1023 C1022 1.258 . S
O1024 Co1021 1.966 . S
O1024 C1022 1.263 . S
C1025 O1026 1.235 . S
C1025 O1052 1.289 . S
O1026 C1025 1.235 . S
C1027 C1029 1.400 . S
C1027 N1030 1.351 . S
C1027 C1032 1.501 . S
C1028 C1029 1.387 . S
C1028 N1031 1.341 . S
C1029 C1027 1.400 . S
C1029 C1028 1.387 . S
N1030 Co1021 2.022 . S
N1030 C1027 1.351 . S
N1030 N1031 1.365 . S
N1031 C1028 1.341 . S
N1031 N1030 1.365 . S
N1031 H1051 0.862 . S
C1032 C1027 1.501 . S
C1032 H1033 0.961 . S
C1032 H1034 0.961 . S
C1032 H1035 0.960 . S
H1033 C1032 0.961 . S
H1034 C1032 0.961 . S
H1035 C1032 0.960 . S
C1036 N1037 1.342 . S
C1036 C1040 1.401 . S
C1036 C1041 1.499 . S
N1037 Co1020 1.989 . S
N1037 C1036 1.342 . S
N1037 N1038 1.388 . S
N1038 Co1021 1.993 . S
N1038 N1037 1.388 . S
N1038 C1039 1.346 . S
C1039 N1038 1.346 . S
C1039 C1040 1.396 . S
C1039 C1049 1.510 . S
C1040 C1036 1.401 . S
C1040 C1039 1.396 . S
C1041 C1036 1.499 . S
C1041 H1042 0.959 . S
C1041 H1043 0.960 . S
C1041 H1044 0.961 . S
H1042 C1041 0.959 . S
H1043 C1041 0.960 . S
H1044 C1041 0.961 . S
O1045 Co1020 1.967 . S
O1045 C1053 1.258 . S
O1046 Co1021 1.941 . S
O1046 C1053 1.266 . S
H1047 C1049 0.959 . S
H1048 C1049 0.961 . S
C1049 C1039 1.510 . S
C1049 H1047 0.959 . S
C1049 H1048 0.961 . S
C1049 H1050 0.960 . S
H1050 C1049 0.960 . S
H1051 N1031 0.862 . S
O1052 Co1020 1.920 . S
O1052 C1025 1.289 . S
C1053 O1045 1.258 . S
C1053 O1046 1.266 . S
Co1054 O1057 1.970 . S
Co1054 N1071 1.989 . S
Co1054 O1079 1.967 . S
Co1054 O1086 1.920 . S
Co1055 O1058 1.966 . S
Co1055 N1064 2.022 . S
Co1055 N1072 1.993 . S
Co1055 O1080 1.941 . S
C1056 O1057 1.258 . S
C1056 O1058 1.263 . S
O1057 Co1054 1.970 . S
O1057 C1056 1.258 . S
O1058 Co1055 1.966 . S
O1058 C1056 1.263 . S
C1059 O1060 1.235 . S
C1059 O1086 1.289 . S
O1060 C1059 1.235 . S
C1061 C1063 1.400 . S
C1061 N1064 1.351 . S
C1061 C1066 1.501 . S
C1062 C1063 1.387 . S
C1062 N1065 1.341 . S
C1063 C1061 1.400 . S
C1063 C1062 1.387 . S
N1064 Co1055 2.022 . S
N1064 C1061 1.351 . S
N1064 N1065 1.365 . S
N1065 C1062 1.341 . S
N1065 N1064 1.365 . S
N1065 H1085 0.862 . S
C1066 C1061 1.501 . S
C1066 H1067 0.961 . S
C1066 H1068 0.961 . S
C1066 H1069 0.960 . S
H1067 C1066 0.961 . S
H1068 C1066 0.961 . S
H1069 C1066 0.960 . S
C1070 N1071 1.342 . S
C1070 C1074 1.401 . S
C1070 C1075 1.499 . S
N1071 Co1054 1.989 . S
N1071 C1070 1.342 . S
N1071 N1072 1.388 . S
N1072 Co1055 1.993 . S
N1072 N1071 1.388 . S
N1072 C1073 1.346 . S
C1073 N1072 1.346 . S
C1073 C1074 1.396 . S
C1073 C1083 1.510 . S
C1074 C1070 1.401 . S
C1074 C1073 1.396 . S
C1075 C1070 1.499 . S
C1075 H1076 0.959 . S
C1075 H1077 0.960 . S
C1075 H1078 0.961 . S
H1076 C1075 0.959 . S
H1077 C1075 0.960 . S
H1078 C1075 0.961 . S
O1079 Co1054 1.967 . S
O1079 C1087 1.258 . S
O1080 Co1055 1.941 . S
O1080 C1087 1.266 . S
H1081 C1083 0.959 . S
H1082 C1083 0.961 . S
C1083 C1073 1.510 . S
C1083 H1081 0.959 . S
C1083 H1082 0.961 . S
C1083 H1084 0.960 . S
H1084 C1083 0.960 . S
H1085 N1065 0.862 . S
O1086 Co1054 1.920 . S
O1086 C1059 1.289 . S
C1087 O1079 1.258 . S
C1087 O1080 1.266 . S
Co1088 O1091 1.970 . S
Co1088 N1105 1.989 . S
Co1088 O1113 1.967 . S
Co1088 O1120 1.920 . S
Co1089 O1092 1.966 . S
Co1089 N1098 2.022 . S
Co1089 N1106 1.993 . S
Co1089 O1114 1.941 . S
C1090 O1091 1.258 . S
C1090 O1092 1.263 . S
O1091 Co1088 1.970 . S
O1091 C1090 1.258 . S
O1092 Co1089 1.966 . S
O1092 C1090 1.263 . S
C1093 O1094 1.235 . S
C1093 O1120 1.289 . S
O1094 C1093 1.235 . S
C1095 C1097 1.400 . S
C1095 N1098 1.351 . S
C1095 C1100 1.501 . S
C1096 C1097 1.387 . S
C1096 N1099 1.341 . S
C1097 C1095 1.400 . S
C1097 C1096 1.387 . S
N1098 Co1089 2.022 . S
N1098 C1095 1.351 . S
N1098 N1099 1.365 . S
N1099 C1096 1.341 . S
N1099 N1098 1.365 . S
N1099 H1119 0.862 . S
C1100 C1095 1.501 . S
C1100 H1101 0.961 . S
C1100 H1102 0.961 . S
C1100 H1103 0.960 . S
H1101 C1100 0.961 . S
H1102 C1100 0.961 . S
H1103 C1100 0.960 . S
C1104 N1105 1.342 . S
C1104 C1108 1.401 . S
C1104 C1109 1.499 . S
N1105 Co1088 1.989 . S
N1105 C1104 1.342 . S
N1105 N1106 1.388 . S
N1106 Co1089 1.993 . S
N1106 N1105 1.388 . S
N1106 C1107 1.346 . S
C1107 N1106 1.346 . S
C1107 C1108 1.396 . S
C1107 C1117 1.510 . S
C1108 C1104 1.401 . S
C1108 C1107 1.396 . S
C1109 C1104 1.499 . S
C1109 H1110 0.959 . S
C1109 H1111 0.960 . S
C1109 H1112 0.961 . S
H1110 C1109 0.959 . S
H1111 C1109 0.960 . S
H1112 C1109 0.961 . S
O1113 Co1088 1.967 . S
O1113 C1121 1.258 . S
O1114 Co1089 1.941 . S
O1114 C1121 1.266 . S
H1115 C1117 0.959 . S
H1116 C1117 0.961 . S
C1117 C1107 1.510 . S
C1117 H1115 0.959 . S
C1117 H1116 0.961 . S
C1117 H1118 0.960 . S
H1118 C1117 0.960 . S
H1119 N1099 0.862 . S
O1120 Co1088 1.920 . S
O1120 C1093 1.289 . S
C1121 O1113 1.258 . S
C1121 O1114 1.266 . S
Co1122 O1125 1.970 . S
Co1122 N1139 1.989 . S
Co1122 O1147 1.967 . S
Co1122 O1154 1.920 . S
Co1123 O1126 1.966 . S
Co1123 N1132 2.022 . S
Co1123 N1140 1.993 . S
Co1123 O1148 1.941 . S
C1124 O1125 1.258 . S
C1124 O1126 1.263 . S
O1125 Co1122 1.970 . S
O1125 C1124 1.258 . S
O1126 Co1123 1.966 . S
O1126 C1124 1.263 . S
C1127 O1128 1.235 . S
C1127 O1154 1.289 . S
O1128 C1127 1.235 . S
C1129 C1131 1.400 . S
C1129 N1132 1.351 . S
C1129 C1134 1.501 . S
C1130 C1131 1.387 . S
C1130 N1133 1.341 . S
C1131 C1129 1.400 . S
C1131 C1130 1.387 . S
N1132 Co1123 2.022 . S
N1132 C1129 1.351 . S
N1132 N1133 1.365 . S
N1133 C1130 1.341 . S
N1133 N1132 1.365 . S
N1133 H1153 0.862 . S
C1134 C1129 1.501 . S
C1134 H1135 0.961 . S
C1134 H1136 0.961 . S
C1134 H1137 0.960 . S
H1135 C1134 0.961 . S
H1136 C1134 0.961 . S
H1137 C1134 0.960 . S
C1138 N1139 1.342 . S
C1138 C1142 1.401 . S
C1138 C1143 1.499 . S
N1139 Co1122 1.989 . S
N1139 C1138 1.342 . S
N1139 N1140 1.388 . S
N1140 Co1123 1.993 . S
N1140 N1139 1.388 . S
N1140 C1141 1.346 . S
C1141 N1140 1.346 . S
C1141 C1142 1.396 . S
C1141 C1151 1.510 . S
C1142 C1138 1.401 . S
C1142 C1141 1.396 . S
C1143 C1138 1.499 . S
C1143 H1144 0.959 . S
C1143 H1145 0.960 . S
C1143 H1146 0.961 . S
H1144 C1143 0.959 . S
H1145 C1143 0.960 . S
H1146 C1143 0.961 . S
O1147 Co1122 1.967 . S
O1147 C1155 1.258 . S
O1148 Co1123 1.941 . S
O1148 C1155 1.266 . S
H1149 C1151 0.959 . S
H1150 C1151 0.961 . S
C1151 C1141 1.510 . S
C1151 H1149 0.959 . S
C1151 H1150 0.961 . S
C1151 H1152 0.960 . S
H1152 C1151 0.960 . S
H1153 N1133 0.862 . S
O1154 Co1122 1.920 . S
O1154 C1127 1.289 . S
C1155 O1147 1.258 . S
C1155 O1148 1.266 . S
Co1156 O1159 1.970 . S
Co1156 N1173 1.989 . S
Co1156 O1181 1.967 . S
Co1156 O1188 1.920 . S
Co1157 O1160 1.966 . S
Co1157 N1166 2.022 . S
Co1157 N1174 1.993 . S
Co1157 O1182 1.941 . S
C1158 O1159 1.258 . S
C1158 O1160 1.263 . S
O1159 Co1156 1.970 . S
O1159 C1158 1.258 . S
O1160 Co1157 1.966 . S
O1160 C1158 1.263 . S
C1161 O1162 1.235 . S
C1161 O1188 1.289 . S
O1162 C1161 1.235 . S
C1163 C1165 1.400 . S
C1163 N1166 1.351 . S
C1163 C1168 1.501 . S
C1164 C1165 1.387 . S
C1164 N1167 1.341 . S
C1165 C1163 1.400 . S
C1165 C1164 1.387 . S
N1166 Co1157 2.022 . S
N1166 C1163 1.351 . S
N1166 N1167 1.365 . S
N1167 C1164 1.341 . S
N1167 N1166 1.365 . S
N1167 H1187 0.862 . S
C1168 C1163 1.501 . S
C1168 H1169 0.961 . S
C1168 H1170 0.961 . S
C1168 H1171 0.960 . S
H1169 C1168 0.961 . S
H1170 C1168 0.961 . S
H1171 C1168 0.960 . S
C1172 N1173 1.342 . S
C1172 C1176 1.401 . S
C1172 C1177 1.499 . S
N1173 Co1156 1.989 . S
N1173 C1172 1.342 . S
N1173 N1174 1.388 . S
N1174 Co1157 1.993 . S
N1174 N1173 1.388 . S
N1174 C1175 1.346 . S
C1175 N1174 1.346 . S
C1175 C1176 1.396 . S
C1175 C1185 1.510 . S
C1176 C1172 1.401 . S
C1176 C1175 1.396 . S
C1177 C1172 1.499 . S
C1177 H1178 0.959 . S
C1177 H1179 0.960 . S
C1177 H1180 0.961 . S
H1178 C1177 0.959 . S
H1179 C1177 0.960 . S
H1180 C1177 0.961 . S
O1181 Co1156 1.967 . S
O1181 C1189 1.258 . S
O1182 Co1157 1.941 . S
O1182 C1189 1.266 . S
H1183 C1185 0.959 . S
H1184 C1185 0.961 . S
C1185 C1175 1.510 . S
C1185 H1183 0.959 . S
C1185 H1184 0.961 . S
C1185 H1186 0.960 . S
H1186 C1185 0.960 . S
H1187 N1167 0.862 . S
O1188 Co1156 1.920 . S
O1188 C1161 1.289 . S
C1189 O1181 1.258 . S
C1189 O1182 1.266 . S
Co1190 O1193 1.970 . S
Co1190 N1207 1.989 . S
Co1190 O1215 1.967 . S
Co1190 O1222 1.920 . S
Co1191 O1194 1.966 . S
Co1191 N1200 2.022 . S
Co1191 N1208 1.993 . S
Co1191 O1216 1.941 . S
C1192 O1193 1.258 . S
C1192 O1194 1.263 . S
O1193 Co1190 1.970 . S
O1193 C1192 1.258 . S
O1194 Co1191 1.966 . S
O1194 C1192 1.263 . S
C1195 O1196 1.235 . S
C1195 O1222 1.289 . S
O1196 C1195 1.235 . S
C1197 C1199 1.400 . S
C1197 N1200 1.351 . S
C1197 C1202 1.501 . S
C1198 C1199 1.387 . S
C1198 N1201 1.341 . S
C1199 C1197 1.400 . S
C1199 C1198 1.387 . S
N1200 Co1191 2.022 . S
N1200 C1197 1.351 . S
N1200 N1201 1.365 . S
N1201 C1198 1.341 . S
N1201 N1200 1.365 . S
N1201 H1221 0.862 . S
C1202 C1197 1.501 . S
C1202 H1203 0.961 . S
C1202 H1204 0.961 . S
C1202 H1205 0.960 . S
H1203 C1202 0.961 . S
H1204 C1202 0.961 . S
H1205 C1202 0.960 . S
C1206 N1207 1.342 . S
C1206 C1210 1.401 . S
C1206 C1211 1.499 . S
N1207 Co1190 1.989 . S
N1207 C1206 1.342 . S
N1207 N1208 1.388 . S
N1208 Co1191 1.993 . S
N1208 N1207 1.388 . S
N1208 C1209 1.346 . S
C1209 N1208 1.346 . S
C1209 C1210 1.396 . S
C1209 C1219 1.510 . S
C1210 C1206 1.401 . S
C1210 C1209 1.396 . S
C1211 C1206 1.499 . S
C1211 H1212 0.959 . S
C1211 H1213 0.960 . S
C1211 H1214 0.961 . S
H1212 C1211 0.959 . S
H1213 C1211 0.960 . S
H1214 C1211 0.961 . S
O1215 Co1190 1.967 . S
O1215 C1223 1.258 . S
O1216 Co1191 1.941 . S
O1216 C1223 1.266 . S
H1217 C1219 0.959 . S
H1218 C1219 0.961 . S
C1219 C1209 1.510 . S
C1219 H1217 0.959 . S
C1219 H1218 0.961 . S
C1219 H1220 0.960 . S
H1220 C1219 0.960 . S
H1221 N1201 0.862 . S
O1222 Co1190 1.920 . S
O1222 C1195 1.289 . S
C1223 O1215 1.258 . S
C1223 O1216 1.266 . S
H1224 C1232 0.950 . S
H1225 C1237 0.950 . S
H1226 C1234 0.950 . S
H1227 C1236 0.950 . S
H1228 C1238 0.950 . S
H1229 C1240 0.950 . S
H1230 C1242 0.950 . S
H1231 C1243 0.950 . S
C1232 H1224 0.950 . S
C1232 C1233 1.386 . S
C1232 C1234 1.391 . S
C1233 C1232 1.386 . S
C1233 C1237 1.393 . S
C1234 H1226 0.950 . S
C1234 C1232 1.391 . S
C1234 C1235 1.400 . S
C1235 C1234 1.400 . S
C1235 C1236 1.398 . S
C1235 C1241 1.491 . S
C1236 H1227 0.950 . S
C1236 C1235 1.398 . S
C1236 C1237 1.391 . S
C1237 H1225 0.950 . S
C1237 C1233 1.393 . S
C1237 C1236 1.391 . S
C1238 H1228 0.950 . S
C1238 C1239 1.386 . S
C1238 C1240 1.391 . S
C1239 C1238 1.386 . S
C1239 C1243 1.393 . S
C1240 H1229 0.950 . S
C1240 C1238 1.391 . S
C1240 C1241 1.400 . S
C1241 C1235 1.491 . S
C1241 C1240 1.400 . S
C1241 C1242 1.398 . S
C1242 H1230 0.950 . S
C1242 C1241 1.398 . S
C1242 C1243 1.391 . S
C1243 H1231 0.950 . S
C1243 C1239 1.393 . S
C1243 C1242 1.391 . S
H1244 C1252 0.950 . S
H1245 C1257 0.950 . S
H1246 C1254 0.950 . S
H1247 C1256 0.950 . S
H1248 C1258 0.950 . S
H1249 C1260 0.950 . S
H1250 C1262 0.950 . S
H1251 C1263 0.950 . S
C1252 H1244 0.950 . S
C1252 C1253 1.386 . S
C1252 C1254 1.391 . S
C1253 C1252 1.386 . S
C1253 C1257 1.393 . S
C1254 H1246 0.950 . S
C1254 C1252 1.391 . S
C1254 C1255 1.400 . S
C1255 C1254 1.400 . S
C1255 C1256 1.398 . S
C1255 C1261 1.491 . S
C1256 H1247 0.950 . S
C1256 C1255 1.398 . S
C1256 C1257 1.391 . S
C1257 H1245 0.950 . S
C1257 C1253 1.393 . S
C1257 C1256 1.391 . S
C1258 H1248 0.950 . S
C1258 C1259 1.386 . S
C1258 C1260 1.391 . S
C1259 C1258 1.386 . S
C1259 C1263 1.393 . S
C1260 H1249 0.950 . S
C1260 C1258 1.391 . S
C1260 C1261 1.400 . S
C1261 C1255 1.491 . S
C1261 C1260 1.400 . S
C1261 C1262 1.398 . S
C1262 H1250 0.950 . S
C1262 C1261 1.398 . S
C1262 C1263 1.391 . S
C1263 H1251 0.950 . S
C1263 C1259 1.393 . S
C1263 C1262 1.391 . S
H1264 C1272 0.950 . S
H1265 C1277 0.950 . S
H1266 C1274 0.950 . S
H1267 C1276 0.950 . S
H1268 C1278 0.950 . S
H1269 C1280 0.950 . S
H1270 C1282 0.950 . S
H1271 C1283 0.950 . S
C1272 H1264 0.950 . S
C1272 C1273 1.386 . S
C1272 C1274 1.391 . S
C1273 C1272 1.386 . S
C1273 C1277 1.393 . S
C1274 H1266 0.950 . S
C1274 C1272 1.391 . S
C1274 C1275 1.400 . S
C1275 C1274 1.400 . S
C1275 C1276 1.398 . S
C1275 C1281 1.491 . S
C1276 H1267 0.950 . S
C1276 C1275 1.398 . S
C1276 C1277 1.391 . S
C1277 H1265 0.950 . S
C1277 C1273 1.393 . S
C1277 C1276 1.391 . S
C1278 H1268 0.950 . S
C1278 C1279 1.386 . S
C1278 C1280 1.391 . S
C1279 C1278 1.386 . S
C1279 C1283 1.393 . S
C1280 H1269 0.950 . S
C1280 C1278 1.391 . S
C1280 C1281 1.400 . S
C1281 C1275 1.491 . S
C1281 C1280 1.400 . S
C1281 C1282 1.398 . S
C1282 H1270 0.950 . S
C1282 C1281 1.398 . S
C1282 C1283 1.391 . S
C1283 H1271 0.950 . S
C1283 C1279 1.393 . S
C1283 C1282 1.391 . S
H1284 C1292 0.950 . S
H1285 C1297 0.950 . S
H1286 C1294 0.950 . S
H1287 C1296 0.950 . S
H1288 C1298 0.950 . S
H1289 C1300 0.950 . S
H1290 C1302 0.950 . S
H1291 C1303 0.950 . S
C1292 H1284 0.950 . S
C1292 C1293 1.386 . S
C1292 C1294 1.391 . S
C1293 C1292 1.386 . S
C1293 C1297 1.393 . S
C1294 H1286 0.950 . S
C1294 C1292 1.391 . S
C1294 C1295 1.400 . S
C1295 C1294 1.400 . S
C1295 C1296 1.398 . S
C1295 C1301 1.491 . S
C1296 H1287 0.950 . S
C1296 C1295 1.398 . S
C1296 C1297 1.391 . S
C1297 H1285 0.950 . S
C1297 C1293 1.393 . S
C1297 C1296 1.391 . S
C1298 H1288 0.950 . S
C1298 C1299 1.386 . S
C1298 C1300 1.391 . S
C1299 C1298 1.386 . S
C1299 C1303 1.393 . S
C1300 H1289 0.950 . S
C1300 C1298 1.391 . S
C1300 C1301 1.400 . S
C1301 C1295 1.491 . S
C1301 C1300 1.400 . S
C1301 C1302 1.398 . S
C1302 H1290 0.950 . S
C1302 C1301 1.398 . S
C1302 C1303 1.391 . S
C1303 H1291 0.950 . S
C1303 C1299 1.393 . S
C1303 C1302 1.391 . S
H1304 C1312 0.950 . S
H1305 C1317 0.950 . S
H1306 C1314 0.950 . S
H1307 C1316 0.950 . S
H1308 C1318 0.950 . S
H1309 C1320 0.950 . S
H1310 C1322 0.950 . S
H1311 C1323 0.950 . S
C1312 H1304 0.950 . S
C1312 C1313 1.386 . S
C1312 C1314 1.391 . S
C1313 C1312 1.386 . S
C1313 C1317 1.393 . S
C1314 H1306 0.950 . S
C1314 C1312 1.391 . S
C1314 C1315 1.400 . S
C1315 C1314 1.400 . S
C1315 C1316 1.398 . S
C1315 C1321 1.491 . S
C1316 H1307 0.950 . S
C1316 C1315 1.398 . S
C1316 C1317 1.391 . S
C1317 H1305 0.950 . S
C1317 C1313 1.393 . S
C1317 C1316 1.391 . S
C1318 H1308 0.950 . S
C1318 C1319 1.386 . S
C1318 C1320 1.391 . S
C1319 C1318 1.386 . S
C1319 C1323 1.393 . S
C1320 H1309 0.950 . S
C1320 C1318 1.391 . S
C1320 C1321 1.400 . S
C1321 C1315 1.491 . S
C1321 C1320 1.400 . S
C1321 C1322 1.398 . S
C1322 H1310 0.950 . S
C1322 C1321 1.398 . S
C1322 C1323 1.391 . S
C1323 H1311 0.950 . S
C1323 C1319 1.393 . S
C1323 C1322 1.391 . S
H1324 C1332 0.950 . S
H1325 C1337 0.950 . S
H1326 C1334 0.950 . S
H1327 C1336 0.950 . S
H1328 C1338 0.950 . S
H1329 C1340 0.950 . S
H1330 C1342 0.950 . S
H1331 C1343 0.950 . S
C1332 H1324 0.950 . S
C1332 C1333 1.386 . S
C1332 C1334 1.391 . S
C1333 C1332 1.386 . S
C1333 C1337 1.393 . S
C1334 H1326 0.950 . S
C1334 C1332 1.391 . S
C1334 C1335 1.400 . S
C1335 C1334 1.400 . S
C1335 C1336 1.398 . S
C1335 C1341 1.491 . S
C1336 H1327 0.950 . S
C1336 C1335 1.398 . S
C1336 C1337 1.391 . S
C1337 H1325 0.950 . S
C1337 C1333 1.393 . S
C1337 C1336 1.391 . S
C1338 H1328 0.950 . S
C1338 C1339 1.386 . S
C1338 C1340 1.391 . S
C1339 C1338 1.386 . S
C1339 C1343 1.393 . S
C1340 H1329 0.950 . S
C1340 C1338 1.391 . S
C1340 C1341 1.400 . S
C1341 C1335 1.491 . S
C1341 C1340 1.400 . S
C1341 C1342 1.398 . S
C1342 H1330 0.950 . S
C1342 C1341 1.398 . S
C1342 C1343 1.391 . S
C1343 H1331 0.950 . S
C1343 C1339 1.393 . S
C1343 C1342 1.391 . S
H1344 C1352 0.950 . S
H1345 C1357 0.950 . S
H1346 C1354 0.950 . S
H1347 C1356 0.950 . S
H1348 C1358 0.950 . S
H1349 C1360 0.950 . S
H1350 C1362 0.950 . S
H1351 C1363 0.950 . S
C1352 H1344 0.950 . S
C1352 C1353 1.386 . S
C1352 C1354 1.391 . S
C1353 C1352 1.386 . S
C1353 C1357 1.393 . S
C1354 H1346 0.950 . S
C1354 C1352 1.391 . S
C1354 C1355 1.400 . S
C1355 C1354 1.400 . S
C1355 C1356 1.398 . S
C1355 C1361 1.491 . S
C1356 H1347 0.950 . S
C1356 C1355 1.398 . S
C1356 C1357 1.391 . S
C1357 H1345 0.950 . S
C1357 C1353 1.393 . S
C1357 C1356 1.391 . S
C1358 H1348 0.950 . S
C1358 C1359 1.386 . S
C1358 C1360 1.391 . S
C1359 C1358 1.386 . S
C1359 C1363 1.393 . S
C1360 H1349 0.950 . S
C1360 C1358 1.391 . S
C1360 C1361 1.400 . S
C1361 C1355 1.491 . S
C1361 C1360 1.400 . S
C1361 C1362 1.398 . S
C1362 H1350 0.950 . S
C1362 C1361 1.398 . S
C1362 C1363 1.391 . S
C1363 H1351 0.950 . S
C1363 C1359 1.393 . S
C1363 C1362 1.391 . S
H1364 C1372 0.950 . S
H1365 C1377 0.950 . S
H1366 C1374 0.950 . S
H1367 C1376 0.950 . S
H1368 C1378 0.950 . S
H1369 C1380 0.950 . S
H1370 C1382 0.950 . S
H1371 C1383 0.950 . S
C1372 H1364 0.950 . S
C1372 C1373 1.386 . S
C1372 C1374 1.391 . S
C1373 C1372 1.386 . S
C1373 C1377 1.393 . S
C1374 H1366 0.950 . S
C1374 C1372 1.391 . S
C1374 C1375 1.400 . S
C1375 C1374 1.400 . S
C1375 C1376 1.398 . S
C1375 C1381 1.491 . S
C1376 H1367 0.950 . S
C1376 C1375 1.398 . S
C1376 C1377 1.391 . S
C1377 H1365 0.950 . S
C1377 C1373 1.393 . S
C1377 C1376 1.391 . S
C1378 H1368 0.950 . S
C1378 C1379 1.386 . S
C1378 C1380 1.391 . S
C1379 C1378 1.386 . S
C1379 C1383 1.393 . S
C1380 H1369 0.950 . S
C1380 C1378 1.391 . S
C1380 C1381 1.400 . S
C1381 C1375 1.491 . S
C1381 C1380 1.400 . S
C1381 C1382 1.398 . S
C1382 H1370 0.950 . S
C1382 C1381 1.398 . S
C1382 C1383 1.391 . S
C1383 H1371 0.950 . S
C1383 C1379 1.393 . S
C1383 C1382 1.391 . S
H1384 C1392 0.950 . S
H1385 C1397 0.950 . S
H1386 C1394 0.950 . S
H1387 C1396 0.950 . S
H1388 C1398 0.950 . S
H1389 C1400 0.950 . S
H1390 C1402 0.950 . S
H1391 C1403 0.950 . S
C1392 H1384 0.950 . S
C1392 C1393 1.386 . S
C1392 C1394 1.391 . S
C1393 C1392 1.386 . S
C1393 C1397 1.393 . S
C1394 H1386 0.950 . S
C1394 C1392 1.391 . S
C1394 C1395 1.400 . S
C1395 C1394 1.400 . S
C1395 C1396 1.398 . S
C1395 C1401 1.491 . S
C1396 H1387 0.950 . S
C1396 C1395 1.398 . S
C1396 C1397 1.391 . S
C1397 H1385 0.950 . S
C1397 C1393 1.393 . S
C1397 C1396 1.391 . S
C1398 H1388 0.950 . S
C1398 C1399 1.386 . S
C1398 C1400 1.391 . S
C1399 C1398 1.386 . S
C1399 C1403 1.393 . S
C1400 H1389 0.950 . S
C1400 C1398 1.391 . S
C1400 C1401 1.400 . S
C1401 C1395 1.491 . S
C1401 C1400 1.400 . S
C1401 C1402 1.398 . S
C1402 H1390 0.950 . S
C1402 C1401 1.398 . S
C1402 C1403 1.391 . S
C1403 H1391 0.950 . S
C1403 C1399 1.393 . S
C1403 C1402 1.391 . S
H1404 C1412 0.950 . S
H1405 C1417 0.950 . S
H1406 C1414 0.950 . S
H1407 C1416 0.950 . S
H1408 C1418 0.950 . S
H1409 C1420 0.950 . S
H1410 C1422 0.950 . S
H1411 C1423 0.950 . S
C1412 H1404 0.950 . S
C1412 C1413 1.386 . S
C1412 C1414 1.391 . S
C1413 C1412 1.386 . S
C1413 C1417 1.393 . S
C1414 H1406 0.950 . S
C1414 C1412 1.391 . S
C1414 C1415 1.400 . S
C1415 C1414 1.400 . S
C1415 C1416 1.398 . S
C1415 C1421 1.491 . S
C1416 H1407 0.950 . S
C1416 C1415 1.398 . S
C1416 C1417 1.391 . S
C1417 H1405 0.950 . S
C1417 C1413 1.393 . S
C1417 C1416 1.391 . S
C1418 H1408 0.950 . S
C1418 C1419 1.386 . S
C1418 C1420 1.391 . S
C1419 C1418 1.386 . S
C1419 C1423 1.393 . S
C1420 H1409 0.950 . S
C1420 C1418 1.391 . S
C1420 C1421 1.400 . S
C1421 C1415 1.491 . S
C1421 C1420 1.400 . S
C1421 C1422 1.398 . S
C1422 H1410 0.950 . S
C1422 C1421 1.398 . S
C1422 C1423 1.391 . S
C1423 H1411 0.950 . S
C1423 C1419 1.393 . S
C1423 C1422 1.391 . S
H1424 C1432 0.950 . S
H1425 C1437 0.950 . S
H1426 C1434 0.950 . S
H1427 C1436 0.950 . S
H1428 C1438 0.950 . S
H1429 C1440 0.950 . S
H1430 C1442 0.950 . S
H1431 C1443 0.950 . S
C1432 H1424 0.950 . S
C1432 C1433 1.386 . S
C1432 C1434 1.391 . S
C1433 C1432 1.386 . S
C1433 C1437 1.393 . S
C1434 H1426 0.950 . S
C1434 C1432 1.391 . S
C1434 C1435 1.400 . S
C1435 C1434 1.400 . S
C1435 C1436 1.398 . S
C1435 C1441 1.491 . S
C1436 H1427 0.950 . S
C1436 C1435 1.398 . S
C1436 C1437 1.391 . S
C1437 H1425 0.950 . S
C1437 C1433 1.393 . S
C1437 C1436 1.391 . S
C1438 H1428 0.950 . S
C1438 C1439 1.386 . S
C1438 C1440 1.391 . S
C1439 C1438 1.386 . S
C1439 C1443 1.393 . S
C1440 H1429 0.950 . S
C1440 C1438 1.391 . S
C1440 C1441 1.400 . S
C1441 C1435 1.491 . S
C1441 C1440 1.400 . S
C1441 C1442 1.398 . S
C1442 H1430 0.950 . S
C1442 C1441 1.398 . S
C1442 C1443 1.391 . S
C1443 H1431 0.950 . S
C1443 C1439 1.393 . S
C1443 C1442 1.391 . S
H1444 C1452 0.950 . S
H1445 C1457 0.950 . S
H1446 C1454 0.950 . S
H1447 C1456 0.950 . S
H1448 C1458 0.950 . S
H1449 C1460 0.950 . S
H1450 C1462 0.950 . S
H1451 C1463 0.950 . S
C1452 H1444 0.950 . S
C1452 C1453 1.386 . S
C1452 C1454 1.391 . S
C1453 C1452 1.386 . S
C1453 C1457 1.393 . S
C1454 H1446 0.950 . S
C1454 C1452 1.391 . S
C1454 C1455 1.400 . S
C1455 C1454 1.400 . S
C1455 C1456 1.398 . S
C1455 C1461 1.491 . S
C1456 H1447 0.950 . S
C1456 C1455 1.398 . S
C1456 C1457 1.391 . S
C1457 H1445 0.950 . S
C1457 C1453 1.393 . S
C1457 C1456 1.391 . S
C1458 H1448 0.950 . S
C1458 C1459 1.386 . S
C1458 C1460 1.391 . S
C1459 C1458 1.386 . S
C1459 C1463 1.393 . S
C1460 H1449 0.950 . S
C1460 C1458 1.391 . S
C1460 C1461 1.400 . S
C1461 C1455 1.491 . S
C1461 C1460 1.400 . S
C1461 C1462 1.398 . S
C1462 H1450 0.950 . S
C1462 C1461 1.398 . S
C1462 C1463 1.391 . S
C1463 H1451 0.950 . S
C1463 C1459 1.393 . S
C1463 C1462 1.391 . S
H1464 C1472 0.950 . S
H1465 C1477 0.950 . S
H1466 C1474 0.950 1_455 S
H1467 C1476 0.950 . S
H1468 C1478 0.950 . S
H1469 C1480 0.950 1_655 S
H1470 C1482 0.950 . S
H1471 C1483 0.950 . S
C1472 H1464 0.950 . S
C1472 C1473 1.386 . S
C1472 C1474 1.391 . S
C1473 C1472 1.386 . S
C1473 C1477 1.393 . S
C1474 H1466 0.950 1_655 S
C1474 C1472 1.391 . S
C1474 C1475 1.400 . S
C1475 C1474 1.400 . S
C1475 C1476 1.398 . S
C1475 C1481 1.491 1_655 S
C1476 H1467 0.950 . S
C1476 C1475 1.398 . S
C1476 C1477 1.391 . S
C1477 H1465 0.950 . S
C1477 C1473 1.393 . S
C1477 C1476 1.391 . S
C1478 H1468 0.950 . S
C1478 C1479 1.386 . S
C1478 C1480 1.391 . S
C1479 C1478 1.386 . S
C1479 C1483 1.393 . S
C1480 H1469 0.950 1_455 S
C1480 C1478 1.391 . S
C1480 C1481 1.400 . S
C1481 C1475 1.491 1_455 S
C1481 C1480 1.400 . S
C1481 C1482 1.398 . S
C1482 H1470 0.950 . S
C1482 C1481 1.398 . S
C1482 C1483 1.391 . S
C1483 H1471 0.950 . S
C1483 C1479 1.393 . S
C1483 C1482 1.391 . S
H1484 C1492 0.950 . S
H1485 C1497 0.950 . S
H1486 C1494 0.950 . S
H1487 C1496 0.950 . S
H1488 C1498 0.950 . S
H1489 C1500 0.950 . S
H1490 C1502 0.950 . S
H1491 C1503 0.950 . S
C1492 H1484 0.950 . S
C1492 C1493 1.386 . S
C1492 C1494 1.391 . S
C1493 C1492 1.386 . S
C1493 C1497 1.393 . S
C1494 H1486 0.950 . S
C1494 C1492 1.391 . S
C1494 C1495 1.400 . S
C1495 C1494 1.400 . S
C1495 C1496 1.398 . S
C1495 C1501 1.491 . S
C1496 H1487 0.950 . S
C1496 C1495 1.398 . S
C1496 C1497 1.391 . S
C1497 H1485 0.950 . S
C1497 C1493 1.393 . S
C1497 C1496 1.391 . S
C1498 H1488 0.950 . S
C1498 C1499 1.386 . S
C1498 C1500 1.391 . S
C1499 C1498 1.386 . S
C1499 C1503 1.393 . S
C1500 H1489 0.950 . S
C1500 C1498 1.391 . S
C1500 C1501 1.400 . S
C1501 C1495 1.491 . S
C1501 C1500 1.400 . S
C1501 C1502 1.398 . S
C1502 H1490 0.950 . S
C1502 C1501 1.398 . S
C1502 C1503 1.391 . S
C1503 H1491 0.950 . S
C1503 C1499 1.393 . S
C1503 C1502 1.391 . S
H1504 C1512 0.950 . S
H1505 C1517 0.950 . S
H1506 C1514 0.950 . S
H1507 C1516 0.950 . S
H1508 C1518 0.950 . S
H1509 C1520 0.950 . S
H1510 C1522 0.950 . S
H1511 C1523 0.950 . S
C1512 H1504 0.950 . S
C1512 C1513 1.386 . S
C1512 C1514 1.391 . S
C1513 C1512 1.386 . S
C1513 C1517 1.393 . S
C1514 H1506 0.950 . S
C1514 C1512 1.391 . S
C1514 C1515 1.400 . S
C1515 C1514 1.400 . S
C1515 C1516 1.398 . S
C1515 C1521 1.491 1_565 S
C1516 H1507 0.950 . S
C1516 C1515 1.398 . S
C1516 C1517 1.391 . S
C1517 H1505 0.950 . S
C1517 C1513 1.393 . S
C1517 C1516 1.391 . S
C1518 H1508 0.950 . S
C1518 C1519 1.386 . S
C1518 C1520 1.391 . S
C1519 C1518 1.386 . S
C1519 C1523 1.393 . S
C1520 H1509 0.950 . S
C1520 C1518 1.391 . S
C1520 C1521 1.400 . S
C1521 C1515 1.491 1_545 S
C1521 C1520 1.400 . S
C1521 C1522 1.398 . S
C1522 H1510 0.950 . S
C1522 C1521 1.398 . S
C1522 C1523 1.391 . S
C1523 H1511 0.950 . S
C1523 C1519 1.393 . S
C1523 C1522 1.391 . S
H1524 C1532 0.950 . S
H1525 C1537 0.947 1_556 S
H1526 C1534 0.950 . S
H1527 C1536 0.950 . S
H1528 C1538 0.950 . S
H1529 C1540 0.950 . S
H1530 C1542 0.950 . S
H1531 C1543 0.947 1_554 S
C1532 H1524 0.950 . S
C1532 C1533 1.386 . S
C1532 C1534 1.391 . S
C1533 C1532 1.386 . S
C1533 C1537 1.393 . S
C1534 H1526 0.950 . S
C1534 C1532 1.391 . S
C1534 C1535 1.400 . S
C1535 C1534 1.400 . S
C1535 C1536 1.398 1_554 S
C1535 C1541 1.491 1_564 S
C1536 H1527 0.950 . S
C1536 C1535 1.398 1_556 S
C1536 C1537 1.391 1_556 S
C1537 H1525 0.947 1_554 S
C1537 C1533 1.393 . S
C1537 C1536 1.391 1_554 S
C1538 H1528 0.950 . S
C1538 C1539 1.386 . S
C1538 C1540 1.391 . S
C1539 C1538 1.386 . S
C1539 C1543 1.393 . S
C1540 H1529 0.950 . S
C1540 C1538 1.391 . S
C1540 C1541 1.400 . S
C1541 C1535 1.491 1_546 S
C1541 C1540 1.400 . S
C1541 C1542 1.398 1_556 S
C1542 H1530 0.950 . S
C1542 C1541 1.398 1_554 S
C1542 C1543 1.391 1_554 S
C1543 H1531 0.947 1_556 S
C1543 C1539 1.393 . S
C1543 C1542 1.391 1_556 S
H1544 C1552 0.950 . S
H1545 C1557 0.950 . S
H1546 C1554 0.950 . S
H1547 C1556 1.003 1_554 S
H1548 C1558 0.950 . S
H1549 C1560 0.950 . S
H1550 C1562 1.003 1_556 S
H1551 C1563 0.950 . S
C1552 H1544 0.950 . S
C1552 C1553 1.386 . S
C1552 C1554 1.391 . S
C1553 C1552 1.386 . S
C1553 C1557 1.393 . S
C1554 H1546 0.950 . S
C1554 C1552 1.391 . S
C1554 C1555 1.400 . S
C1555 C1554 1.400 . S
C1555 C1556 1.352 1_655 S
C1555 C1561 1.491 1_656 S
C1556 H1547 1.003 1_556 S
C1556 C1555 1.352 1_455 S
C1556 C1557 1.389 1_455 S
C1557 H1545 0.950 . S
C1557 C1553 1.393 . S
C1557 C1556 1.389 1_655 S
C1558 H1548 0.950 . S
C1558 C1559 1.386 . S
C1558 C1560 1.391 . S
C1559 C1558 1.386 . S
C1559 C1563 1.393 . S
C1560 H1549 0.950 . S
C1560 C1558 1.391 . S
C1560 C1561 1.400 . S
C1561 C1555 1.491 1_454 S
C1561 C1560 1.400 . S
C1561 C1562 1.352 1_455 S
C1562 H1550 1.003 1_554 S
C1562 C1561 1.352 1_655 S
C1562 C1563 1.389 1_655 S
C1563 H1551 0.950 . S
C1563 C1559 1.393 . S
C1563 C1562 1.389 1_455 S
H1564 C1572 0.950 . S
H1565 C1577 0.950 . S
H1566 C1574 0.950 . S
H1567 C1576 0.950 . S
H1568 C1578 0.950 . S
H1569 C1580 0.950 . S
H1570 C1582 0.950 . S
H1571 C1583 0.950 . S
C1572 H1564 0.950 . S
C1572 C1573 1.386 . S
C1572 C1574 1.391 . S
C1573 C1572 1.386 . S
C1573 C1577 1.393 . S
C1574 H1566 0.950 . S
C1574 C1572 1.391 . S
C1574 C1575 1.400 . S
C1575 C1574 1.400 . S
C1575 C1576 1.398 . S
C1575 C1581 1.491 1_554 S
C1576 H1567 0.950 . S
C1576 C1575 1.398 . S
C1576 C1577 1.391 . S
C1577 H1565 0.950 . S
C1577 C1573 1.393 . S
C1577 C1576 1.391 . S
C1578 H1568 0.950 . S
C1578 C1579 1.386 . S
C1578 C1580 1.391 . S
C1579 C1578 1.386 . S
C1579 C1583 1.393 . S
C1580 H1569 0.950 . S
C1580 C1578 1.391 . S
C1580 C1581 1.400 . S
C1581 C1575 1.491 1_556 S
C1581 C1580 1.400 . S
C1581 C1582 1.398 . S
C1582 H1570 0.950 . S
C1582 C1581 1.398 . S
C1582 C1583 1.391 . S
C1583 H1571 0.950 . S
C1583 C1579 1.393 . S
C1583 C1582 1.391 . S
H1584 C1592 0.950 . S
H1585 C1597 0.950 1_556 S
H1586 C1594 0.950 . S
H1587 C1596 0.922 1_556 S
H1588 C1598 0.950 . S
H1589 C1600 0.950 . S
H1590 C1602 0.950 . S
H1591 C1603 0.950 . S
C1592 H1584 0.950 . S
C1592 C1593 1.386 . S
C1592 C1594 1.391 . S
C1593 C1592 1.386 . S
C1593 C1597 1.393 . S
C1594 H1586 0.950 . S
C1594 C1592 1.391 . S
C1594 C1595 1.400 . S
C1595 C1594 1.400 . S
C1595 C1596 1.419 . S
C1595 C1601 1.491 . S
C1596 H1587 0.922 1_554 S
C1596 C1595 1.419 . S
C1596 C1597 1.398 . S
C1597 H1585 0.950 1_554 S
C1597 C1593 1.393 . S
C1597 C1596 1.398 . S
C1598 H1588 0.950 . S
C1598 C1599 1.386 . S
C1598 C1600 1.391 . S
C1599 C1598 1.386 . S
C1599 C1603 1.393 1_556 S
C1600 H1589 0.950 . S
C1600 C1598 1.391 . S
C1600 C1601 1.400 1_556 S
C1601 C1595 1.491 . S
C1601 C1600 1.400 1_554 S
C1601 C1602 1.398 . S
C1602 H1590 0.950 . S
C1602 C1601 1.398 . S
C1602 C1603 1.391 . S
C1603 H1591 0.950 . S
C1603 C1599 1.393 1_554 S
C1603 C1602 1.391 . S
H1604 C1612 0.950 . S
H1605 C1617 0.950 . S
H1606 C1614 0.950 1_556 S
H1607 C1616 0.950 . S
H1608 C1618 0.950 . S
H1609 C1620 0.950 . S
H1610 C1622 0.950 . S
H1611 C1623 0.950 . S
C1612 H1604 0.950 . S
C1612 C1613 1.386 . S
C1612 C1614 1.391 . S
C1613 C1612 1.386 . S
C1613 C1617 1.393 . S
C1614 H1606 0.950 1_554 S
C1614 C1612 1.391 . S
C1614 C1615 1.400 . S
C1615 C1614 1.400 . S
C1615 C1616 1.398 . S
C1615 C1621 1.491 . S
C1616 H1607 0.950 . S
C1616 C1615 1.398 . S
C1616 C1617 1.391 . S
C1617 H1605 0.950 . S
C1617 C1613 1.393 . S
C1617 C1616 1.391 . S
C1618 H1608 0.950 . S
C1618 C1619 1.374 1_554 S
C1618 C1620 1.391 . S
C1619 C1618 1.374 1_556 S
C1619 C1623 1.400 . S
C1620 H1609 0.950 . S
C1620 C1618 1.391 . S
C1620 C1621 1.400 . S
C1621 C1615 1.491 . S
C1621 C1620 1.400 . S
C1621 C1622 1.398 1_554 S
C1622 H1610 0.950 . S
C1622 C1621 1.398 1_556 S
C1622 C1623 1.391 . S
C1623 H1611 0.950 . S
C1623 C1619 1.400 . S
C1623 C1622 1.391 . S
H1624 C1632 0.950 1_556 S
H1625 C1637 0.950 . S
H1626 C1634 0.950 . S
H1627 C1636 0.950 . S
H1628 C1638 0.950 . S
H1629 C1640 0.950 . S
H1630 C1642 0.950 . S
H1631 C1643 0.950 . S
C1632 H1624 0.950 1_554 S
C1632 C1633 1.386 . S
C1632 C1634 1.391 1_554 S
C1633 C1632 1.386 . S
C1633 C1637 1.393 . S
C1634 H1626 0.950 . S
C1634 C1632 1.391 1_556 S
C1634 C1635 1.400 1_556 S
C1635 C1634 1.400 1_554 S
C1635 C1636 1.398 . S
C1635 C1641 1.491 . S
C1636 H1627 0.950 . S
C1636 C1635 1.398 . S
C1636 C1637 1.391 . S
C1637 H1625 0.950 . S
C1637 C1633 1.393 . S
C1637 C1636 1.391 . S
C1638 H1628 0.950 . S
C1638 C1639 1.386 1_554 S
C1638 C1640 1.391 . S
C1639 C1638 1.386 1_556 S
C1639 C1643 1.393 . S
C1640 H1629 0.950 . S
C1640 C1638 1.391 . S
C1640 C1641 1.400 . S
C1641 C1635 1.491 . S
C1641 C1640 1.400 . S
C1641 C1642 1.398 1_554 S
C1642 H1630 0.950 . S
C1642 C1641 1.398 1_556 S
C1642 C1643 1.391 . S
C1643 H1631 0.950 . S
C1643 C1639 1.393 . S
C1643 C1642 1.391 . S
H1644 C1652 0.950 . S
H1645 C1657 0.950 . S
H1646 C1654 0.950 . S
H1647 C1656 0.950 . S
H1648 C1658 0.950 . S
H1649 C1660 0.950 . S
H1650 C1662 0.950 . S
H1651 C1663 0.950 . S
C1652 H1644 0.950 . S
C1652 C1653 1.386 . S
C1652 C1654 1.391 . S
C1653 C1652 1.386 . S
C1653 C1657 1.393 . S
C1654 H1646 0.950 . S
C1654 C1652 1.391 . S
C1654 C1655 1.400 . S
C1655 C1654 1.400 . S
C1655 C1656 1.398 . S
C1655 C1661 1.491 . S
C1656 H1647 0.950 . S
C1656 C1655 1.398 . S
C1656 C1657 1.391 . S
C1657 H1645 0.950 . S
C1657 C1653 1.393 . S
C1657 C1656 1.391 . S
C1658 H1648 0.950 . S
C1658 C1659 1.386 . S
C1658 C1660 1.391 . S
C1659 C1658 1.386 . S
C1659 C1663 1.393 . S
C1660 H1649 0.950 . S
C1660 C1658 1.391 . S
C1660 C1661 1.400 . S
C1661 C1655 1.491 . S
C1661 C1660 1.400 . S
C1661 C1662 1.398 . S
C1662 H1650 0.950 . S
C1662 C1661 1.398 . S
C1662 C1663 1.391 . S
C1663 H1651 0.950 . S
C1663 C1659 1.393 . S
C1663 C1662 1.391 . S
H1664 C1672 0.950 . S
H1665 C1677 0.950 . S
H1666 C1674 0.950 . S
H1667 C1676 0.950 . S
H1668 C1678 0.950 . S
H1669 C1680 0.950 . S
H1670 C1682 0.950 . S
H1671 C1683 0.950 . S
C1672 H1664 0.950 . S
C1672 C1673 1.386 . S
C1672 C1674 1.391 . S
C1673 C1672 1.386 . S
C1673 C1677 1.393 . S
C1674 H1666 0.950 . S
C1674 C1672 1.391 . S
C1674 C1675 1.400 . S
C1675 C1674 1.400 . S
C1675 C1676 1.398 . S
C1675 C1681 1.491 . S
C1676 H1667 0.950 . S
C1676 C1675 1.398 . S
C1676 C1677 1.391 . S
C1677 H1665 0.950 . S
C1677 C1673 1.393 . S
C1677 C1676 1.391 . S
C1678 H1668 0.950 . S
C1678 C1679 1.386 . S
C1678 C1680 1.391 . S
C1679 C1678 1.386 . S
C1679 C1683 1.393 . S
C1680 H1669 0.950 . S
C1680 C1678 1.391 . S
C1680 C1681 1.400 . S
C1681 C1675 1.491 . S
C1681 C1680 1.400 . S
C1681 C1682 1.398 . S
C1682 H1670 0.950 . S
C1682 C1681 1.398 . S
C1682 C1683 1.391 . S
C1683 H1671 0.950 . S
C1683 C1679 1.393 . S
C1683 C1682 1.391 . S
H1684 C1692 0.950 . S
H1685 C1697 0.950 . S
H1686 C1694 0.950 . S
H1687 C1696 0.950 . S
H1688 C1698 0.950 . S
H1689 C1700 0.950 . S
H1690 C1702 0.950 . S
H1691 C1703 0.950 . S
C1692 H1684 0.950 . S
C1692 C1693 1.386 . S
C1692 C1694 1.391 . S
C1693 C1692 1.386 . S
C1693 C1697 1.393 . S
C1694 H1686 0.950 . S
C1694 C1692 1.391 . S
C1694 C1695 1.400 . S
C1695 C1694 1.400 . S
C1695 C1696 1.398 . S
C1695 C1701 1.491 . S
C1696 H1687 0.950 . S
C1696 C1695 1.398 . S
C1696 C1697 1.391 . S
C1697 H1685 0.950 . S
C1697 C1693 1.393 . S
C1697 C1696 1.391 . S
C1698 H1688 0.950 . S
C1698 C1699 1.386 . S
C1698 C1700 1.391 . S
C1699 C1698 1.386 . S
C1699 C1703 1.393 . S
C1700 H1689 0.950 . S
C1700 C1698 1.391 . S
C1700 C1701 1.400 . S
C1701 C1695 1.491 . S
C1701 C1700 1.400 . S
C1701 C1702 1.398 . S
C1702 H1690 0.950 . S
C1702 C1701 1.398 . S
C1702 C1703 1.391 . S
C1703 H1691 0.950 . S
C1703 C1699 1.393 . S
C1703 C1702 1.391 . S
H1704 C1712 0.950 1_554 S
H1705 C1717 0.950 . S
H1706 C1714 0.950 . S
H1707 C1716 0.950 . S
H1708 C1718 0.950 . S
H1709 C1720 0.950 . S
H1710 C1722 0.950 . S
H1711 C1723 0.950 . S
C1712 H1704 0.950 1_556 S
C1712 C1713 1.386 . S
C1712 C1714 1.391 1_556 S
C1713 C1712 1.386 . S
C1713 C1717 1.393 . S
C1714 H1706 0.950 . S
C1714 C1712 1.391 1_554 S
C1714 C1715 1.400 1_554 S
C1715 C1714 1.400 1_556 S
C1715 C1716 1.398 . S
C1715 C1721 1.491 . S
C1716 H1707 0.950 . S
C1716 C1715 1.398 . S
C1716 C1717 1.391 . S
C1717 H1705 0.950 . S
C1717 C1713 1.393 . S
C1717 C1716 1.391 . S
C1718 H1708 0.950 . S
C1718 C1719 1.354 1_556 S
C1718 C1720 1.391 . S
C1719 C1718 1.354 1_554 S
C1719 C1723 1.417 . S
C1720 H1709 0.950 . S
C1720 C1718 1.391 . S
C1720 C1721 1.400 . S
C1721 C1715 1.491 . S
C1721 C1720 1.400 . S
C1721 C1722 1.398 1_556 S
C1722 H1710 0.950 . S
C1722 C1721 1.398 1_554 S
C1722 C1723 1.391 . S
C1723 H1711 0.950 . S
C1723 C1719 1.417 . S
C1723 C1722 1.391 . S
H1724 C1732 0.950 1_554 S
H1725 C1737 0.950 . S
H1726 C1734 0.950 . S
H1727 C1736 0.950 . S
H1728 C1738 0.950 . S
H1729 C1740 0.950 . S
H1730 C1742 0.950 . S
H1731 C1743 0.950 . S
C1732 H1724 0.950 1_556 S
C1732 C1733 1.386 . S
C1732 C1734 1.391 1_556 S
C1733 C1732 1.386 . S
C1733 C1737 1.393 . S
C1734 H1726 0.950 . S
C1734 C1732 1.391 1_554 S
C1734 C1735 1.400 1_554 S
C1735 C1734 1.400 1_556 S
C1735 C1736 1.398 . S
C1735 C1741 1.491 . S
C1736 H1727 0.950 . S
C1736 C1735 1.398 . S
C1736 C1737 1.391 . S
C1737 H1725 0.950 . S
C1737 C1733 1.393 . S
C1737 C1736 1.391 . S
C1738 H1728 0.950 . S
C1738 C1739 1.386 1_556 S
C1738 C1740 1.391 . S
C1739 C1738 1.386 1_554 S
C1739 C1743 1.393 . S
C1740 H1729 0.950 . S
C1740 C1738 1.391 . S
C1740 C1741 1.400 . S
C1741 C1735 1.491 . S
C1741 C1740 1.400 . S
C1741 C1742 1.398 1_556 S
C1742 H1730 0.950 . S
C1742 C1741 1.398 1_554 S
C1742 C1743 1.391 . S
C1743 H1731 0.950 . S
C1743 C1739 1.393 . S
C1743 C1742 1.391 . S
H1744 C1752 0.950 . S
H1745 C1757 0.950 . S
H1746 C1754 0.950 . S
H1747 C1756 0.950 . S
H1748 C1758 0.950 . S
H1749 C1760 0.950 . S
H1750 C1762 0.950 . S
H1751 C1763 0.950 1_554 S
C1752 H1744 0.950 . S
C1752 C1753 1.400 . S
C1752 C1754 1.391 . S
C1753 C1752 1.400 . S
C1753 C1757 1.374 1_554 S
C1754 H1746 0.950 . S
C1754 C1752 1.391 . S
C1754 C1755 1.400 1_554 S
C1755 C1754 1.400 1_556 S
C1755 C1756 1.398 . S
C1755 C1761 1.491 . S
C1756 H1747 0.950 . S
C1756 C1755 1.398 . S
C1756 C1757 1.391 . S
C1757 H1745 0.950 . S
C1757 C1753 1.374 1_556 S
C1757 C1756 1.391 . S
C1758 H1748 0.950 . S
C1758 C1759 1.386 . S
C1758 C1760 1.391 . S
C1759 C1758 1.386 . S
C1759 C1763 1.393 . S
C1760 H1749 0.950 . S
C1760 C1758 1.391 . S
C1760 C1761 1.400 . S
C1761 C1755 1.491 . S
C1761 C1760 1.400 . S
C1761 C1762 1.398 1_556 S
C1762 H1750 0.950 . S
C1762 C1761 1.398 1_554 S
C1762 C1763 1.391 1_554 S
C1763 H1751 0.950 1_556 S
C1763 C1759 1.393 . S
C1763 C1762 1.391 1_556 S
H1764 C1772 0.950 . S
H1765 C1777 0.950 . S
H1766 C1774 0.950 . S
H1767 C1776 0.950 . S
H1768 C1778 0.950 . S
H1769 C1780 0.950 . S
H1770 C1782 0.950 . S
H1771 C1783 0.950 . S
C1772 H1764 0.950 . S
C1772 C1773 1.386 . S
C1772 C1774 1.391 . S
C1773 C1772 1.386 . S
C1773 C1777 1.393 . S
C1774 H1766 0.950 . S
C1774 C1772 1.391 . S
C1774 C1775 1.400 . S
C1775 C1774 1.400 . S
C1775 C1776 1.398 . S
C1775 C1781 1.491 . S
C1776 H1767 0.950 . S
C1776 C1775 1.398 . S
C1776 C1777 1.391 . S
C1777 H1765 0.950 . S
C1777 C1773 1.393 . S
C1777 C1776 1.391 . S
C1778 H1768 0.950 . S
C1778 C1779 1.386 . S
C1778 C1780 1.391 . S
C1779 C1778 1.386 . S
C1779 C1783 1.393 . S
C1780 H1769 0.950 . S
C1780 C1778 1.391 . S
C1780 C1781 1.400 . S
C1781 C1775 1.491 . S
C1781 C1780 1.400 . S
C1781 C1782 1.398 . S
C1782 H1770 0.950 . S
C1782 C1781 1.398 . S
C1782 C1783 1.391 . S
C1783 H1771 0.950 . S
C1783 C1779 1.393 . S
C1783 C1782 1.391 . S
H1784 C1792 0.950 . S
H1785 C1797 0.950 . S
H1786 C1794 0.950 . S
H1787 C1796 0.950 . S
H1788 C1798 0.950 . S
H1789 C1800 0.950 . S
H1790 C1802 0.950 . S
H1791 C1803 0.950 . S
C1792 H1784 0.950 . S
C1792 C1793 1.386 . S
C1792 C1794 1.391 . S
C1793 C1792 1.386 . S
C1793 C1797 1.393 . S
C1794 H1786 0.950 . S
C1794 C1792 1.391 . S
C1794 C1795 1.400 . S
C1795 C1794 1.400 . S
C1795 C1796 1.398 . S
C1795 C1801 1.491 . S
C1796 H1787 0.950 . S
C1796 C1795 1.398 . S
C1796 C1797 1.391 . S
C1797 H1785 0.950 . S
C1797 C1793 1.393 . S
C1797 C1796 1.391 . S
C1798 H1788 0.950 . S
C1798 C1799 1.386 . S
C1798 C1800 1.391 . S
C1799 C1798 1.386 . S
C1799 C1803 1.393 . S
C1800 H1789 0.950 . S
C1800 C1798 1.391 . S
C1800 C1801 1.400 . S
C1801 C1795 1.491 . S
C1801 C1800 1.400 . S
C1801 C1802 1.398 . S
C1802 H1790 0.950 . S
C1802 C1801 1.398 . S
C1802 C1803 1.391 . S
C1803 H1791 0.950 . S
C1803 C1799 1.393 . S
C1803 C1802 1.391 . S
H1804 C1812 0.950 . S
H1805 C1817 0.950 . S
H1806 C1814 0.950 . S
H1807 C1816 0.950 . S
H1808 C1818 0.950 . S
H1809 C1820 0.950 . S
H1810 C1822 0.950 . S
H1811 C1823 0.950 . S
C1812 H1804 0.950 . S
C1812 C1813 1.386 . S
C1812 C1814 1.391 . S
C1813 C1812 1.386 . S
C1813 C1817 1.393 . S
C1814 H1806 0.950 . S
C1814 C1812 1.391 . S
C1814 C1815 1.400 . S
C1815 C1814 1.400 . S
C1815 C1816 1.398 . S
C1815 C1821 1.491 . S
C1816 H1807 0.950 . S
C1816 C1815 1.398 . S
C1816 C1817 1.391 . S
C1817 H1805 0.950 . S
C1817 C1813 1.393 . S
C1817 C1816 1.391 . S
C1818 H1808 0.950 . S
C1818 C1819 1.386 . S
C1818 C1820 1.391 . S
C1819 C1818 1.386 . S
C1819 C1823 1.393 . S
C1820 H1809 0.950 . S
C1820 C1818 1.391 . S
C1820 C1821 1.400 . S
C1821 C1815 1.491 . S
C1821 C1820 1.400 . S
C1821 C1822 1.398 . S
C1822 H1810 0.950 . S
C1822 C1821 1.398 . S
C1822 C1823 1.391 . S
C1823 H1811 0.950 . S
C1823 C1819 1.393 . S
C1823 C1822 1.391 . S
H1824 C1832 0.950 . S
H1825 C1837 0.950 . S
H1826 C1834 0.950 . S
H1827 C1836 0.950 . S
H1828 C1838 0.950 . S
H1829 C1840 0.950 . S
H1830 C1842 0.950 . S
H1831 C1843 0.950 . S
C1832 H1824 0.950 . S
C1832 C1833 1.386 . S
C1832 C1834 1.391 . S
C1833 C1832 1.386 . S
C1833 C1837 1.393 . S
C1834 H1826 0.950 . S
C1834 C1832 1.391 . S
C1834 C1835 1.400 . S
C1835 C1834 1.400 . S
C1835 C1836 1.398 . S
C1835 C1841 1.491 . S
C1836 H1827 0.950 . S
C1836 C1835 1.398 . S
C1836 C1837 1.391 . S
C1837 H1825 0.950 . S
C1837 C1833 1.393 . S
C1837 C1836 1.391 . S
C1838 H1828 0.950 . S
C1838 C1839 1.386 . S
C1838 C1840 1.391 . S
C1839 C1838 1.386 . S
C1839 C1843 1.393 . S
C1840 H1829 0.950 . S
C1840 C1838 1.391 . S
C1840 C1841 1.400 . S
C1841 C1835 1.491 . S
C1841 C1840 1.400 . S
C1841 C1842 1.398 . S
C1842 H1830 0.950 . S
C1842 C1841 1.398 . S
C1842 C1843 1.391 . S
C1843 H1831 0.950 . S
C1843 C1839 1.393 . S
C1843 C1842 1.391 . S
H1844 C1852 0.950 . S
H1845 C1857 0.950 . S
H1846 C1854 0.950 . S
H1847 C1856 0.950 . S
H1848 C1858 0.950 . S
H1849 C1860 0.950 . S
H1850 C1862 0.950 . S
H1851 C1863 0.950 . S
C1852 H1844 0.950 . S
C1852 C1853 1.386 . S
C1852 C1854 1.391 . S
C1853 C1852 1.386 . S
C1853 C1857 1.393 . S
C1854 H1846 0.950 . S
C1854 C1852 1.391 . S
C1854 C1855 1.400 . S
C1855 C1854 1.400 . S
C1855 C1856 1.398 . S
C1855 C1861 1.491 . S
C1856 H1847 0.950 . S
C1856 C1855 1.398 . S
C1856 C1857 1.391 . S
C1857 H1845 0.950 . S
C1857 C1853 1.393 . S
C1857 C1856 1.391 . S
C1858 H1848 0.950 . S
C1858 C1859 1.386 . S
C1858 C1860 1.391 . S
C1859 C1858 1.386 . S
C1859 C1863 1.393 . S
C1860 H1849 0.950 . S
C1860 C1858 1.391 . S
C1860 C1861 1.400 . S
C1861 C1855 1.491 . S
C1861 C1860 1.400 . S
C1861 C1862 1.398 . S
C1862 H1850 0.950 . S
C1862 C1861 1.398 . S
C1862 C1863 1.391 . S
C1863 H1851 0.950 . S
C1863 C1859 1.393 . S
C1863 C1862 1.391 . S
H1864 C1872 0.950 . S
H1865 C1877 0.950 . S
H1866 C1874 0.950 . S
H1867 C1876 0.950 . S
H1868 C1878 0.950 . S
H1869 C1880 0.950 . S
H1870 C1882 0.950 . S
H1871 C1883 0.950 . S
C1872 H1864 0.950 . S
C1872 C1873 1.386 . S
C1872 C1874 1.391 . S
C1873 C1872 1.386 . S
C1873 C1877 1.393 . S
C1874 H1866 0.950 . S
C1874 C1872 1.391 . S
C1874 C1875 1.400 . S
C1875 C1874 1.400 . S
C1875 C1876 1.398 . S
C1875 C1881 1.491 . S
C1876 H1867 0.950 . S
C1876 C1875 1.398 . S
C1876 C1877 1.391 . S
C1877 H1865 0.950 . S
C1877 C1873 1.393 . S
C1877 C1876 1.391 . S
C1878 H1868 0.950 . S
C1878 C1879 1.386 . S
C1878 C1880 1.391 . S
C1879 C1878 1.386 . S
C1879 C1883 1.393 . S
C1880 H1869 0.950 . S
C1880 C1878 1.391 . S
C1880 C1881 1.400 . S
C1881 C1875 1.491 . S
C1881 C1880 1.400 . S
C1881 C1882 1.398 . S
C1882 H1870 0.950 . S
C1882 C1881 1.398 . S
C1882 C1883 1.391 . S
C1883 H1871 0.950 . S
C1883 C1879 1.393 . S
C1883 C1882 1.391 . S
H1884 C1892 0.950 . S
H1885 C1897 0.950 . S
H1886 C1894 0.950 . S
H1887 C1896 0.950 . S
H1888 C1898 0.950 . S
H1889 C1900 0.950 . S
H1890 C1902 0.950 . S
H1891 C1903 0.950 . S
C1892 H1884 0.950 . S
C1892 C1893 1.386 . S
C1892 C1894 1.391 . S
C1893 C1892 1.386 . S
C1893 C1897 1.393 . S
C1894 H1886 0.950 . S
C1894 C1892 1.391 . S
C1894 C1895 1.400 . S
C1895 C1894 1.400 . S
C1895 C1896 1.398 . S
C1895 C1901 1.491 . S
C1896 H1887 0.950 . S
C1896 C1895 1.398 . S
C1896 C1897 1.391 . S
C1897 H1885 0.950 . S
C1897 C1893 1.393 . S
C1897 C1896 1.391 . S
C1898 H1888 0.950 . S
C1898 C1899 1.386 . S
C1898 C1900 1.391 . S
C1899 C1898 1.386 . S
C1899 C1903 1.393 . S
C1900 H1889 0.950 . S
C1900 C1898 1.391 . S
C1900 C1901 1.400 . S
C1901 C1895 1.491 . S
C1901 C1900 1.400 . S
C1901 C1902 1.398 . S
C1902 H1890 0.950 . S
C1902 C1901 1.398 . S
C1902 C1903 1.391 . S
C1903 H1891 0.950 . S
C1903 C1899 1.393 . S
C1903 C1902 1.391 . S
H1904 C1912 0.950 . S
H1905 C1917 0.950 . S
H1906 C1914 0.950 . S
H1907 C1916 0.950 . S
H1908 C1918 0.950 . S
H1909 C1920 0.950 . S
H1910 C1922 0.950 . S
H1911 C1923 0.950 . S
C1912 H1904 0.950 . S
C1912 C1913 1.386 . S
C1912 C1914 1.391 . S
C1913 C1912 1.386 . S
C1913 C1917 1.393 . S
C1914 H1906 0.950 . S
C1914 C1912 1.391 . S
C1914 C1915 1.400 . S
C1915 C1914 1.400 . S
C1915 C1916 1.398 . S
C1915 C1921 1.491 . S
C1916 H1907 0.950 . S
C1916 C1915 1.398 . S
C1916 C1917 1.391 . S
C1917 H1905 0.950 . S
C1917 C1913 1.393 . S
C1917 C1916 1.391 . S
C1918 H1908 0.950 . S
C1918 C1919 1.386 . S
C1918 C1920 1.391 . S
C1919 C1918 1.386 . S
C1919 C1923 1.393 . S
C1920 H1909 0.950 . S
C1920 C1918 1.391 . S
C1920 C1921 1.400 . S
C1921 C1915 1.491 . S
C1921 C1920 1.400 . S
C1921 C1922 1.398 . S
C1922 H1910 0.950 . S
C1922 C1921 1.398 . S
C1922 C1923 1.391 . S
C1923 H1911 0.950 . S
C1923 C1919 1.393 . S
C1923 C1922 1.391 . S
H1924 C1932 0.950 . S
H1925 C1937 0.950 . S
H1926 C1934 0.950 . S
H1927 C1936 0.950 . S
H1928 C1938 0.950 . S
H1929 C1940 0.950 . S
H1930 C1942 0.950 . S
H1931 C1943 0.950 . S
C1932 H1924 0.950 . S
C1932 C1933 1.386 . S
C1932 C1934 1.391 . S
C1933 C1932 1.386 . S
C1933 C1937 1.393 . S
C1934 H1926 0.950 . S
C1934 C1932 1.391 . S
C1934 C1935 1.400 . S
C1935 C1934 1.400 . S
C1935 C1936 1.398 . S
C1935 C1941 1.491 . S
C1936 H1927 0.950 . S
C1936 C1935 1.398 . S
C1936 C1937 1.391 . S
C1937 H1925 0.950 . S
C1937 C1933 1.393 . S
C1937 C1936 1.391 . S
C1938 H1928 0.950 . S
C1938 C1939 1.386 . S
C1938 C1940 1.391 . S
C1939 C1938 1.386 . S
C1939 C1943 1.393 . S
C1940 H1929 0.950 . S
C1940 C1938 1.391 . S
C1940 C1941 1.400 . S
C1941 C1935 1.491 . S
C1941 C1940 1.400 . S
C1941 C1942 1.398 . S
C1942 H1930 0.950 . S
C1942 C1941 1.398 . S
C1942 C1943 1.391 . S
C1943 H1931 0.950 . S
C1943 C1939 1.393 . S
C1943 C1942 1.391 . S
H1944 C1952 0.950 . S
H1945 C1957 0.950 . S
H1946 C1954 0.950 . S
H1947 C1956 0.950 . S
H1948 C1958 0.950 . S
H1949 C1960 0.950 . S
H1950 C1962 0.950 . S
H1951 C1963 0.950 . S
C1952 H1944 0.950 . S
C1952 C1953 1.386 . S
C1952 C1954 1.391 . S
C1953 C1952 1.386 . S
C1953 C1957 1.393 . S
C1954 H1946 0.950 . S
C1954 C1952 1.391 . S
C1954 C1955 1.400 . S
C1955 C1954 1.400 . S
C1955 C1956 1.398 . S
C1955 C1961 1.491 . S
C1956 H1947 0.950 . S
C1956 C1955 1.398 . S
C1956 C1957 1.391 . S
C1957 H1945 0.950 . S
C1957 C1953 1.393 . S
C1957 C1956 1.391 . S
C1958 H1948 0.950 . S
C1958 C1959 1.386 . S
C1958 C1960 1.391 . S
C1959 C1958 1.386 . S
C1959 C1963 1.393 . S
C1960 H1949 0.950 . S
C1960 C1958 1.391 . S
C1960 C1961 1.400 . S
C1961 C1955 1.491 . S
C1961 C1960 1.400 . S
C1961 C1962 1.398 . S
C1962 H1950 0.950 . S
C1962 C1961 1.398 . S
C1962 C1963 1.391 . S
C1963 H1951 0.950 . S
C1963 C1959 1.393 . S
C1963 C1962 1.391 . S
H1964 C1972 0.950 . S
H1965 C1977 0.950 . S
H1966 C1974 0.950 . S
H1967 C1976 0.950 . S
H1968 C1978 0.950 . S
H1969 C1980 0.950 . S
H1970 C1982 0.950 . S
H1971 C1983 0.950 . S
C1972 H1964 0.950 . S
C1972 C1973 1.386 . S
C1972 C1974 1.391 . S
C1973 C1972 1.386 . S
C1973 C1977 1.393 . S
C1974 H1966 0.950 . S
C1974 C1972 1.391 . S
C1974 C1975 1.400 . S
C1975 C1974 1.400 . S
C1975 C1976 1.398 . S
C1975 C1981 1.491 . S
C1976 H1967 0.950 . S
C1976 C1975 1.398 . S
C1976 C1977 1.391 . S
C1977 H1965 0.950 . S
C1977 C1973 1.393 . S
C1977 C1976 1.391 . S
C1978 H1968 0.950 . S
C1978 C1979 1.386 . S
C1978 C1980 1.391 . S
C1979 C1978 1.386 . S
C1979 C1983 1.393 . S
C1980 H1969 0.950 . S
C1980 C1978 1.391 . S
C1980 C1981 1.400 . S
C1981 C1975 1.491 . S
C1981 C1980 1.400 . S
C1981 C1982 1.398 . S
C1982 H1970 0.950 . S
C1982 C1981 1.398 . S
C1982 C1983 1.391 . S
C1983 H1971 0.950 . S
C1983 C1979 1.393 . S
C1983 C1982 1.391 . S
H1984 C1992 0.950 . S
H1985 C1997 0.950 . S
H1986 C1994 0.950 . S
H1987 C1996 0.950 . S
H1988 C1998 0.950 . S
H1989 C2000 0.950 . S
H1990 C2002 0.950 . S
H1991 C2003 0.950 . S
C1992 H1984 0.950 . S
C1992 C1993 1.386 . S
C1992 C1994 1.391 . S
C1993 C1992 1.386 . S
C1993 C1997 1.393 . S
C1994 H1986 0.950 . S
C1994 C1992 1.391 . S
C1994 C1995 1.400 . S
C1995 C1994 1.400 . S
C1995 C1996 1.398 . S
C1995 C2001 1.491 . S
C1996 H1987 0.950 . S
C1996 C1995 1.398 . S
C1996 C1997 1.391 . S
C1997 H1985 0.950 . S
C1997 C1993 1.393 . S
C1997 C1996 1.391 . S
C1998 H1988 0.950 . S
C1998 C1999 1.386 . S
C1998 C2000 1.391 . S
C1999 C1998 1.386 . S
C1999 C2003 1.393 . S
C2000 H1989 0.950 . S
C2000 C1998 1.391 . S
C2000 C2001 1.400 . S
C2001 C1995 1.491 . S
C2001 C2000 1.400 . S
C2001 C2002 1.398 . S
C2002 H1990 0.950 . S
C2002 C2001 1.398 . S
C2002 C2003 1.391 . S
C2003 H1991 0.950 . S
C2003 C1999 1.393 . S
C2003 C2002 1.391 . S
H2004 C2012 0.950 . S
H2005 C2017 0.950 . S
H2006 C2014 0.950 . S
H2007 C2016 0.950 . S
H2008 C2018 0.950 . S
H2009 C2020 0.950 . S
H2010 C2022 0.950 . S
H2011 C2023 0.950 . S
C2012 H2004 0.950 . S
C2012 C2013 1.386 . S
C2012 C2014 1.391 . S
C2013 C2012 1.386 . S
C2013 C2017 1.393 . S
C2014 H2006 0.950 . S
C2014 C2012 1.391 . S
C2014 C2015 1.400 . S
C2015 C2014 1.400 . S
C2015 C2016 1.398 . S
C2015 C2021 1.491 . S
C2016 H2007 0.950 . S
C2016 C2015 1.398 . S
C2016 C2017 1.391 . S
C2017 H2005 0.950 . S
C2017 C2013 1.393 . S
C2017 C2016 1.391 . S
C2018 H2008 0.950 . S
C2018 C2019 1.386 . S
C2018 C2020 1.391 . S
C2019 C2018 1.386 . S
C2019 C2023 1.393 . S
C2020 H2009 0.950 . S
C2020 C2018 1.391 . S
C2020 C2021 1.400 . S
C2021 C2015 1.491 . S
C2021 C2020 1.400 . S
C2021 C2022 1.398 . S
C2022 H2010 0.950 . S
C2022 C2021 1.398 . S
C2022 C2023 1.391 . S
C2023 H2011 0.950 . S
C2023 C2019 1.393 . S
C2023 C2022 1.391 . S
H2024 C2032 0.950 . S
H2025 C2037 0.950 . S
H2026 C2034 0.950 . S
H2027 C2036 0.950 . S
H2028 C2038 0.950 . S
H2029 C2040 0.950 . S
H2030 C2042 0.950 . S
H2031 C2043 0.950 . S
C2032 H2024 0.950 . S
C2032 C2033 1.386 . S
C2032 C2034 1.391 . S
C2033 C2032 1.386 . S
C2033 C2037 1.393 . S
C2034 H2026 0.950 . S
C2034 C2032 1.391 . S
C2034 C2035 1.400 . S
C2035 C2034 1.400 . S
C2035 C2036 1.398 . S
C2035 C2041 1.491 . S
C2036 H2027 0.950 . S
C2036 C2035 1.398 . S
C2036 C2037 1.391 . S
C2037 H2025 0.950 . S
C2037 C2033 1.393 . S
C2037 C2036 1.391 . S
C2038 H2028 0.950 . S
C2038 C2039 1.386 . S
C2038 C2040 1.391 . S
C2039 C2038 1.386 . S
C2039 C2043 1.393 . S
C2040 H2029 0.950 . S
C2040 C2038 1.391 . S
C2040 C2041 1.400 . S
C2041 C2035 1.491 . S
C2041 C2040 1.400 . S
C2041 C2042 1.398 . S
C2042 H2030 0.950 . S
C2042 C2041 1.398 . S
C2042 C2043 1.391 . S
C2043 H2031 0.950 . S
C2043 C2039 1.393 . S
C2043 C2042 1.391 . S
H2044 C2052 0.950 . S
H2045 C2057 0.950 . S
H2046 C2054 0.950 . S
H2047 C2056 0.950 . S
H2048 C2058 0.950 . S
H2049 C2060 0.950 . S
H2050 C2062 0.950 . S
H2051 C2063 0.950 . S
C2052 H2044 0.950 . S
C2052 C2053 1.386 . S
C2052 C2054 1.391 . S
C2053 C2052 1.386 . S
C2053 C2057 1.393 . S
C2054 H2046 0.950 . S
C2054 C2052 1.391 . S
C2054 C2055 1.400 . S
C2055 C2054 1.400 . S
C2055 C2056 1.398 . S
C2055 C2061 1.491 . S
C2056 H2047 0.950 . S
C2056 C2055 1.398 . S
C2056 C2057 1.391 . S
C2057 H2045 0.950 . S
C2057 C2053 1.393 . S
C2057 C2056 1.391 . S
C2058 H2048 0.950 . S
C2058 C2059 1.386 . S
C2058 C2060 1.391 . S
C2059 C2058 1.386 . S
C2059 C2063 1.393 . S
C2060 H2049 0.950 . S
C2060 C2058 1.391 . S
C2060 C2061 1.400 . S
C2061 C2055 1.491 . S
C2061 C2060 1.400 . S
C2061 C2062 1.398 . S
C2062 H2050 0.950 . S
C2062 C2061 1.398 . S
C2062 C2063 1.391 . S
C2063 H2051 0.950 . S
C2063 C2059 1.393 . S
C2063 C2062 1.391 . S
H2064 C2072 0.950 . S
H2065 C2077 0.950 . S
H2066 C2074 0.950 . S
H2067 C2076 0.950 . S
H2068 C2078 0.950 . S
H2069 C2080 0.950 . S
H2070 C2082 0.950 . S
H2071 C2083 0.950 . S
C2072 H2064 0.950 . S
C2072 C2073 1.386 . S
C2072 C2074 1.391 . S
C2073 C2072 1.386 . S
C2073 C2077 1.393 . S
C2074 H2066 0.950 . S
C2074 C2072 1.391 . S
C2074 C2075 1.400 . S
C2075 C2074 1.400 . S
C2075 C2076 1.398 . S
C2075 C2081 1.491 . S
C2076 H2067 0.950 . S
C2076 C2075 1.398 . S
C2076 C2077 1.391 . S
C2077 H2065 0.950 . S
C2077 C2073 1.393 . S
C2077 C2076 1.391 . S
C2078 H2068 0.950 . S
C2078 C2079 1.386 . S
C2078 C2080 1.391 . S
C2079 C2078 1.386 . S
C2079 C2083 1.393 . S
C2080 H2069 0.950 . S
C2080 C2078 1.391 . S
C2080 C2081 1.400 . S
C2081 C2075 1.491 . S
C2081 C2080 1.400 . S
C2081 C2082 1.398 . S
C2082 H2070 0.950 . S
C2082 C2081 1.398 . S
C2082 C2083 1.391 . S
C2083 H2071 0.950 . S
C2083 C2079 1.393 . S
C2083 C2082 1.391 . S
H2084 C2092 0.950 . S
H2085 C2097 0.950 . S
H2086 C2094 0.950 . S
H2087 C2096 0.950 . S
H2088 C2098 0.950 . S
H2089 C2100 0.950 . S
H2090 C2102 0.950 . S
H2091 C2103 0.950 . S
C2092 H2084 0.950 . S
C2092 C2093 1.386 . S
C2092 C2094 1.391 . S
C2093 C2092 1.386 . S
C2093 C2097 1.393 . S
C2094 H2086 0.950 . S
C2094 C2092 1.391 . S
C2094 C2095 1.400 . S
C2095 C2094 1.400 . S
C2095 C2096 1.398 . S
C2095 C2101 1.491 . S
C2096 H2087 0.950 . S
C2096 C2095 1.398 . S
C2096 C2097 1.391 . S
C2097 H2085 0.950 . S
C2097 C2093 1.393 . S
C2097 C2096 1.391 . S
C2098 H2088 0.950 . S
C2098 C2099 1.386 . S
C2098 C2100 1.391 . S
C2099 C2098 1.386 . S
C2099 C2103 1.393 . S
C2100 H2089 0.950 . S
C2100 C2098 1.391 . S
C2100 C2101 1.400 . S
C2101 C2095 1.491 . S
C2101 C2100 1.400 . S
C2101 C2102 1.398 . S
C2102 H2090 0.950 . S
C2102 C2101 1.398 . S
C2102 C2103 1.391 . S
C2103 H2091 0.950 . S
C2103 C2099 1.393 . S
C2103 C2102 1.391 . S
H2104 C2112 0.950 . S
H2105 C2117 0.950 . S
H2106 C2114 0.950 . S
H2107 C2116 0.950 . S
H2108 C2118 0.950 . S
H2109 C2120 0.950 . S
H2110 C2122 0.950 . S
H2111 C2123 0.950 . S
C2112 H2104 0.950 . S
C2112 C2113 1.386 . S
C2112 C2114 1.391 . S
C2113 C2112 1.386 . S
C2113 C2117 1.393 . S
C2114 H2106 0.950 . S
C2114 C2112 1.391 . S
C2114 C2115 1.400 . S
C2115 C2114 1.400 . S
C2115 C2116 1.398 . S
C2115 C2121 1.491 . S
C2116 H2107 0.950 . S
C2116 C2115 1.398 . S
C2116 C2117 1.391 . S
C2117 H2105 0.950 . S
C2117 C2113 1.393 . S
C2117 C2116 1.391 . S
C2118 H2108 0.950 . S
C2118 C2119 1.386 . S
C2118 C2120 1.391 . S
C2119 C2118 1.386 . S
C2119 C2123 1.393 . S
C2120 H2109 0.950 . S
C2120 C2118 1.391 . S
C2120 C2121 1.400 . S
C2121 C2115 1.491 . S
C2121 C2120 1.400 . S
C2121 C2122 1.398 . S
C2122 H2110 0.950 . S
C2122 C2121 1.398 . S
C2122 C2123 1.391 . S
C2123 H2111 0.950 . S
C2123 C2119 1.393 . S
C2123 C2122 1.391 . S
H2124 C2132 0.950 . S
H2125 C2137 0.950 . S
H2126 C2134 0.950 . S
H2127 C2136 0.950 . S
H2128 C2138 0.950 . S
H2129 C2140 0.950 . S
H2130 C2142 0.950 . S
H2131 C2143 0.950 . S
C2132 H2124 0.950 . S
C2132 C2133 1.386 . S
C2132 C2134 1.391 . S
C2133 C2132 1.386 . S
C2133 C2137 1.393 . S
C2134 H2126 0.950 . S
C2134 C2132 1.391 . S
C2134 C2135 1.400 . S
C2135 C2134 1.400 . S
C2135 C2136 1.398 . S
C2135 C2141 1.491 . S
C2136 H2127 0.950 . S
C2136 C2135 1.398 . S
C2136 C2137 1.391 . S
C2137 H2125 0.950 . S
C2137 C2133 1.393 . S
C2137 C2136 1.391 . S
C2138 H2128 0.950 . S
C2138 C2139 1.386 . S
C2138 C2140 1.391 . S
C2139 C2138 1.386 . S
C2139 C2143 1.393 . S
C2140 H2129 0.950 . S
C2140 C2138 1.391 . S
C2140 C2141 1.400 . S
C2141 C2135 1.491 . S
C2141 C2140 1.400 . S
C2141 C2142 1.398 . S
C2142 H2130 0.950 . S
C2142 C2141 1.398 . S
C2142 C2143 1.391 . S
C2143 H2131 0.950 . S
C2143 C2139 1.393 . S
C2143 C2142 1.391 . S
H2144 C2152 0.950 . S
H2145 C2157 0.950 . S
H2146 C2154 0.950 . S
H2147 C2156 0.950 . S
H2148 C2158 0.950 . S
H2149 C2160 0.950 . S
H2150 C2162 0.950 . S
H2151 C2163 0.950 . S
C2152 H2144 0.950 . S
C2152 C2153 1.386 . S
C2152 C2154 1.391 . S
C2153 C2152 1.386 . S
C2153 C2157 1.393 . S
C2154 H2146 0.950 . S
C2154 C2152 1.391 . S
C2154 C2155 1.400 . S
C2155 C2154 1.400 . S
C2155 C2156 1.398 . S
C2155 C2161 1.491 . S
C2156 H2147 0.950 . S
C2156 C2155 1.398 . S
C2156 C2157 1.391 . S
C2157 H2145 0.950 . S
C2157 C2153 1.393 . S
C2157 C2156 1.391 . S
C2158 H2148 0.950 . S
C2158 C2159 1.386 . S
C2158 C2160 1.391 . S
C2159 C2158 1.386 . S
C2159 C2163 1.393 . S
C2160 H2149 0.950 . S
C2160 C2158 1.391 . S
C2160 C2161 1.400 . S
C2161 C2155 1.491 . S
C2161 C2160 1.400 . S
C2161 C2162 1.398 . S
C2162 H2150 0.950 . S
C2162 C2161 1.398 . S
C2162 C2163 1.391 . S
C2163 H2151 0.950 . S
C2163 C2159 1.393 . S
C2163 C2162 1.391 . S
H2164 C2172 0.950 . S
H2165 C2177 0.950 . S
H2166 C2174 0.950 . S
H2167 C2176 0.950 . S
H2168 C2178 0.950 . S
H2169 C2180 0.950 . S
H2170 C2182 0.950 . S
H2171 C2183 0.950 . S
C2172 H2164 0.950 . S
C2172 C2173 1.386 . S
C2172 C2174 1.391 . S
C2173 C2172 1.386 . S
C2173 C2177 1.393 . S
C2174 H2166 0.950 . S
C2174 C2172 1.391 . S
C2174 C2175 1.400 . S
C2175 C2174 1.400 . S
C2175 C2176 1.398 . S
C2175 C2181 1.491 . S
C2176 H2167 0.950 . S
C2176 C2175 1.398 . S
C2176 C2177 1.391 . S
C2177 H2165 0.950 . S
C2177 C2173 1.393 . S
C2177 C2176 1.391 . S
C2178 H2168 0.950 . S
C2178 C2179 1.386 . S
C2178 C2180 1.391 . S
C2179 C2178 1.386 . S
C2179 C2183 1.393 . S
C2180 H2169 0.950 . S
C2180 C2178 1.391 . S
C2180 C2181 1.400 . S
C2181 C2175 1.491 . S
C2181 C2180 1.400 . S
C2181 C2182 1.398 . S
C2182 H2170 0.950 . S
C2182 C2181 1.398 . S
C2182 C2183 1.391 . S
C2183 H2171 0.950 . S
C2183 C2179 1.393 . S
C2183 C2182 1.391 . S
H2184 C2192 0.950 . S
H2185 C2197 0.950 . S
H2186 C2194 0.950 . S
H2187 C2196 0.950 . S
H2188 C2198 0.950 . S
H2189 C2200 0.950 . S
H2190 C2202 0.950 . S
H2191 C2203 0.950 . S
C2192 H2184 0.950 . S
C2192 C2193 1.386 . S
C2192 C2194 1.391 . S
C2193 C2192 1.386 . S
C2193 C2197 1.393 . S
C2194 H2186 0.950 . S
C2194 C2192 1.391 . S
C2194 C2195 1.400 . S
C2195 C2194 1.400 . S
C2195 C2196 1.398 . S
C2195 C2201 1.491 . S
C2196 H2187 0.950 . S
C2196 C2195 1.398 . S
C2196 C2197 1.391 . S
C2197 H2185 0.950 . S
C2197 C2193 1.393 . S
C2197 C2196 1.391 . S
C2198 H2188 0.950 . S
C2198 C2199 1.386 . S
C2198 C2200 1.391 . S
C2199 C2198 1.386 . S
C2199 C2203 1.393 . S
C2200 H2189 0.950 . S
C2200 C2198 1.391 . S
C2200 C2201 1.400 . S
C2201 C2195 1.491 . S
C2201 C2200 1.400 . S
C2201 C2202 1.398 . S
C2202 H2190 0.950 . S
C2202 C2201 1.398 . S
C2202 C2203 1.391 . S
C2203 H2191 0.950 . S
C2203 C2199 1.393 . S
C2203 C2202 1.391 . S
H2204 C2212 0.950 . S
H2205 C2217 0.950 . S
H2206 C2214 0.950 . S
H2207 C2216 0.950 . S
H2208 C2218 0.950 . S
H2209 C2220 0.950 . S
H2210 C2222 0.950 . S
H2211 C2223 0.950 . S
C2212 H2204 0.950 . S
C2212 C2213 1.386 . S
C2212 C2214 1.391 . S
C2213 C2212 1.386 . S
C2213 C2217 1.393 . S
C2214 H2206 0.950 . S
C2214 C2212 1.391 . S
C2214 C2215 1.400 . S
C2215 C2214 1.400 . S
C2215 C2216 1.398 . S
C2215 C2221 1.491 . S
C2216 H2207 0.950 . S
C2216 C2215 1.398 . S
C2216 C2217 1.391 . S
C2217 H2205 0.950 . S
C2217 C2213 1.393 . S
C2217 C2216 1.391 . S
C2218 H2208 0.950 . S
C2218 C2219 1.386 . S
C2218 C2220 1.391 . S
C2219 C2218 1.386 . S
C2219 C2223 1.393 . S
C2220 H2209 0.950 . S
C2220 C2218 1.391 . S
C2220 C2221 1.400 . S
C2221 C2215 1.491 . S
C2221 C2220 1.400 . S
C2221 C2222 1.398 . S
C2222 H2210 0.950 . S
C2222 C2221 1.398 . S
C2222 C2223 1.391 . S
C2223 H2211 0.950 . S
C2223 C2219 1.393 . S
C2223 C2222 1.391 . S
H2224 C2232 0.950 . S
H2225 C2237 0.950 . S
H2226 C2234 0.950 . S
H2227 C2236 0.950 . S
H2228 C2238 0.950 . S
H2229 C2240 0.950 . S
H2230 C2242 0.950 . S
H2231 C2243 0.950 . S
C2232 H2224 0.950 . S
C2232 C2233 1.386 . S
C2232 C2234 1.391 . S
C2233 C2232 1.386 . S
C2233 C2237 1.393 . S
C2234 H2226 0.950 . S
C2234 C2232 1.391 . S
C2234 C2235 1.400 . S
C2235 C2234 1.400 . S
C2235 C2236 1.398 . S
C2235 C2241 1.491 . S
C2236 H2227 0.950 . S
C2236 C2235 1.398 . S
C2236 C2237 1.391 . S
C2237 H2225 0.950 . S
C2237 C2233 1.393 . S
C2237 C2236 1.391 . S
C2238 H2228 0.950 . S
C2238 C2239 1.386 . S
C2238 C2240 1.391 . S
C2239 C2238 1.386 . S
C2239 C2243 1.393 . S
C2240 H2229 0.950 . S
C2240 C2238 1.391 . S
C2240 C2241 1.400 . S
C2241 C2235 1.491 . S
C2241 C2240 1.400 . S
C2241 C2242 1.398 . S
C2242 H2230 0.950 . S
C2242 C2241 1.398 . S
C2242 C2243 1.391 . S
C2243 H2231 0.950 . S
C2243 C2239 1.393 . S
C2243 C2242 1.391 . S
H2244 C2252 0.950 . S
H2245 C2257 0.950 . S
H2246 C2254 0.950 . S
H2247 C2256 0.950 . S
H2248 C2258 0.950 . S
H2249 C2260 0.950 . S
H2250 C2262 0.950 . S
H2251 C2263 0.950 . S
C2252 H2244 0.950 . S
C2252 C2253 1.386 . S
C2252 C2254 1.391 . S
C2253 C2252 1.386 . S
C2253 C2257 1.393 . S
C2254 H2246 0.950 . S
C2254 C2252 1.391 . S
C2254 C2255 1.400 . S
C2255 C2254 1.400 . S
C2255 C2256 1.398 . S
C2255 C2261 1.491 . S
C2256 H2247 0.950 . S
C2256 C2255 1.398 . S
C2256 C2257 1.391 . S
C2257 H2245 0.950 . S
C2257 C2253 1.393 . S
C2257 C2256 1.391 . S
C2258 H2248 0.950 . S
C2258 C2259 1.386 . S
C2258 C2260 1.391 . S
C2259 C2258 1.386 . S
C2259 C2263 1.393 . S
C2260 H2249 0.950 . S
C2260 C2258 1.391 . S
C2260 C2261 1.400 . S
C2261 C2255 1.491 . S
C2261 C2260 1.400 . S
C2261 C2262 1.398 . S
C2262 H2250 0.950 . S
C2262 C2261 1.398 . S
C2262 C2263 1.391 . S
C2263 H2251 0.950 . S
C2263 C2259 1.393 . S
C2263 C2262 1.391 . S
H2264 C2272 0.950 . S
H2265 C2277 0.950 . S
H2266 C2274 0.950 . S
H2267 C2276 0.950 . S
H2268 C2278 0.950 . S
H2269 C2280 0.950 . S
H2270 C2282 0.950 . S
H2271 C2283 0.950 . S
C2272 H2264 0.950 . S
C2272 C2273 1.386 . S
C2272 C2274 1.391 . S
C2273 C2272 1.386 . S
C2273 C2277 1.393 . S
C2274 H2266 0.950 . S
C2274 C2272 1.391 . S
C2274 C2275 1.400 . S
C2275 C2274 1.400 . S
C2275 C2276 1.398 . S
C2275 C2281 1.491 . S
C2276 H2267 0.950 . S
C2276 C2275 1.398 . S
C2276 C2277 1.391 . S
C2277 H2265 0.950 . S
C2277 C2273 1.393 . S
C2277 C2276 1.391 . S
C2278 H2268 0.950 . S
C2278 C2279 1.386 . S
C2278 C2280 1.391 . S
C2279 C2278 1.386 . S
C2279 C2283 1.393 . S
C2280 H2269 0.950 . S
C2280 C2278 1.391 . S
C2280 C2281 1.400 . S
C2281 C2275 1.491 . S
C2281 C2280 1.400 . S
C2281 C2282 1.398 . S
C2282 H2270 0.950 . S
C2282 C2281 1.398 . S
C2282 C2283 1.391 . S
C2283 H2271 0.950 . S
C2283 C2279 1.393 . S
C2283 C2282 1.391 . S
H2284 C2292 0.950 . S
H2285 C2297 0.950 . S
H2286 C2294 0.950 . S
H2287 C2296 0.950 . S
H2288 C2298 0.950 . S
H2289 C2300 0.950 . S
H2290 C2302 0.950 . S
H2291 C2303 0.950 . S
C2292 H2284 0.950 . S
C2292 C2293 1.386 . S
C2292 C2294 1.391 . S
C2293 C2292 1.386 . S
C2293 C2297 1.393 . S
C2294 H2286 0.950 . S
C2294 C2292 1.391 . S
C2294 C2295 1.400 . S
C2295 C2294 1.400 . S
C2295 C2296 1.398 . S
C2295 C2301 1.491 . S
C2296 H2287 0.950 . S
C2296 C2295 1.398 . S
C2296 C2297 1.391 . S
C2297 H2285 0.950 . S
C2297 C2293 1.393 . S
C2297 C2296 1.391 . S
C2298 H2288 0.950 . S
C2298 C2299 1.386 . S
C2298 C2300 1.391 . S
C2299 C2298 1.386 . S
C2299 C2303 1.393 . S
C2300 H2289 0.950 . S
C2300 C2298 1.391 . S
C2300 C2301 1.400 . S
C2301 C2295 1.491 . S
C2301 C2300 1.400 . S
C2301 C2302 1.398 . S
C2302 H2290 0.950 . S
C2302 C2301 1.398 . S
C2302 C2303 1.391 . S
C2303 H2291 0.950 . S
C2303 C2299 1.393 . S
C2303 C2302 1.391 . S
H2304 C2312 0.950 . S
H2305 C2317 0.950 . S
H2306 C2314 0.950 . S
H2307 C2316 0.950 . S
H2308 C2318 0.950 . S
H2309 C2320 0.950 . S
H2310 C2322 0.950 . S
H2311 C2323 0.950 . S
C2312 H2304 0.950 . S
C2312 C2313 1.386 . S
C2312 C2314 1.391 . S
C2313 C2312 1.386 . S
C2313 C2317 1.393 . S
C2314 H2306 0.950 . S
C2314 C2312 1.391 . S
C2314 C2315 1.400 . S
C2315 C2314 1.400 . S
C2315 C2316 1.398 . S
C2315 C2321 1.491 . S
C2316 H2307 0.950 . S
C2316 C2315 1.398 . S
C2316 C2317 1.391 . S
C2317 H2305 0.950 . S
C2317 C2313 1.393 . S
C2317 C2316 1.391 . S
C2318 H2308 0.950 . S
C2318 C2319 1.386 . S
C2318 C2320 1.391 . S
C2319 C2318 1.386 . S
C2319 C2323 1.393 . S
C2320 H2309 0.950 . S
C2320 C2318 1.391 . S
C2320 C2321 1.400 . S
C2321 C2315 1.491 . S
C2321 C2320 1.400 . S
C2321 C2322 1.398 . S
C2322 H2310 0.950 . S
C2322 C2321 1.398 . S
C2322 C2323 1.391 . S
C2323 H2311 0.950 . S
C2323 C2319 1.393 . S
C2323 C2322 1.391 . S
H2324 C2332 0.950 . S
H2325 C2337 0.950 . S
H2326 C2334 0.950 1_565 S
H2327 C2336 0.950 . S
H2328 C2338 0.950 . S
H2329 C2340 0.950 1_545 S
H2330 C2342 0.950 . S
H2331 C2343 0.950 . S
C2332 H2324 0.950 . S
C2332 C2333 1.386 . S
C2332 C2334 1.391 . S
C2333 C2332 1.386 . S
C2333 C2337 1.393 . S
C2334 H2326 0.950 1_545 S
C2334 C2332 1.391 . S
C2334 C2335 1.400 . S
C2335 C2334 1.400 . S
C2335 C2336 1.398 . S
C2335 C2341 1.491 1_545 S
C2336 H2327 0.950 . S
C2336 C2335 1.398 . S
C2336 C2337 1.391 . S
C2337 H2325 0.950 . S
C2337 C2333 1.393 . S
C2337 C2336 1.391 . S
C2338 H2328 0.950 . S
C2338 C2339 1.386 . S
C2338 C2340 1.391 . S
C2339 C2338 1.386 . S
C2339 C2343 1.393 . S
C2340 H2329 0.950 1_565 S
C2340 C2338 1.391 . S
C2340 C2341 1.400 . S
C2341 C2335 1.491 1_565 S
C2341 C2340 1.400 . S
C2341 C2342 1.398 . S
C2342 H2330 0.950 . S
C2342 C2341 1.398 . S
C2342 C2343 1.391 . S
C2343 H2331 0.950 . S
C2343 C2339 1.393 . S
C2343 C2342 1.391 . S
H2344 C2352 0.950 . S
H2345 C2357 0.950 . S
H2346 C2354 0.950 . S
H2347 C2356 0.950 . S
H2348 C2358 0.950 . S
H2349 C2360 0.950 . S
H2350 C2362 0.950 . S
H2351 C2363 0.950 . S
C2352 H2344 0.950 . S
C2352 C2353 1.386 . S
C2352 C2354 1.391 . S
C2353 C2352 1.386 . S
C2353 C2357 1.393 . S
C2354 H2346 0.950 . S
C2354 C2352 1.391 . S
C2354 C2355 1.400 . S
C2355 C2354 1.400 . S
C2355 C2356 1.398 1_455 S
C2355 C2361 1.491 1_455 S
C2356 H2347 0.950 . S
C2356 C2355 1.398 1_655 S
C2356 C2357 1.391 1_655 S
C2357 H2345 0.950 . S
C2357 C2353 1.393 . S
C2357 C2356 1.391 1_455 S
C2358 H2348 0.950 . S
C2358 C2359 1.386 . S
C2358 C2360 1.391 . S
C2359 C2358 1.386 . S
C2359 C2363 1.393 . S
C2360 H2349 0.950 . S
C2360 C2358 1.391 . S
C2360 C2361 1.400 . S
C2361 C2355 1.491 1_655 S
C2361 C2360 1.400 . S
C2361 C2362 1.398 1_655 S
C2362 H2350 0.950 . S
C2362 C2361 1.398 1_455 S
C2362 C2363 1.391 1_455 S
C2363 H2351 0.950 . S
C2363 C2359 1.393 . S
C2363 C2362 1.391 1_655 S
H2364 C2372 0.950 . S
H2365 C2377 0.950 . S
H2366 C2374 0.950 . S
H2367 C2376 0.950 . S
H2368 C2378 0.950 . S
H2369 C2380 0.950 . S
H2370 C2382 0.950 . S
H2371 C2383 0.950 . S
C2372 H2364 0.950 . S
C2372 C2373 1.386 . S
C2372 C2374 1.391 . S
C2373 C2372 1.386 . S
C2373 C2377 1.393 . S
C2374 H2366 0.950 . S
C2374 C2372 1.391 . S
C2374 C2375 1.400 . S
C2375 C2374 1.400 . S
C2375 C2376 1.398 . S
C2375 C2381 1.491 . S
C2376 H2367 0.950 . S
C2376 C2375 1.398 . S
C2376 C2377 1.391 . S
C2377 H2365 0.950 . S
C2377 C2373 1.393 . S
C2377 C2376 1.391 . S
C2378 H2368 0.950 . S
C2378 C2379 1.386 . S
C2378 C2380 1.391 . S
C2379 C2378 1.386 . S
C2379 C2383 1.393 . S
C2380 H2369 0.950 . S
C2380 C2378 1.391 . S
C2380 C2381 1.400 . S
C2381 C2375 1.491 . S
C2381 C2380 1.400 . S
C2381 C2382 1.398 . S
C2382 H2370 0.950 . S
C2382 C2381 1.398 . S
C2382 C2383 1.391 . S
C2383 H2371 0.950 . S
C2383 C2379 1.393 . S
C2383 C2382 1.391 . S
H2384 C2392 0.950 . S
H2385 C2397 0.950 . S
H2386 C2394 0.950 . S
H2387 C2396 0.950 . S
H2388 C2398 0.950 . S
H2389 C2400 0.950 . S
H2390 C2402 0.950 . S
H2391 C2403 0.950 . S
C2392 H2384 0.950 . S
C2392 C2393 1.386 . S
C2392 C2394 1.391 1_545 S
C2393 C2392 1.386 . S
C2393 C2397 1.393 . S
C2394 H2386 0.950 . S
C2394 C2392 1.391 1_565 S
C2394 C2395 1.400 1_565 S
C2395 C2394 1.400 1_545 S
C2395 C2396 1.398 . S
C2395 C2401 1.491 1_545 S
C2396 H2387 0.950 . S
C2396 C2395 1.398 . S
C2396 C2397 1.391 . S
C2397 H2385 0.950 . S
C2397 C2393 1.393 . S
C2397 C2396 1.391 . S
C2398 H2388 0.950 . S
C2398 C2399 1.386 . S
C2398 C2400 1.391 1_565 S
C2399 C2398 1.386 . S
C2399 C2403 1.393 . S
C2400 H2389 0.950 . S
C2400 C2398 1.391 1_545 S
C2400 C2401 1.400 1_545 S
C2401 C2395 1.491 1_565 S
C2401 C2400 1.400 1_565 S
C2401 C2402 1.398 . S
C2402 H2390 0.950 . S
C2402 C2401 1.398 . S
C2402 C2403 1.391 . S
C2403 H2391 0.950 . S
C2403 C2399 1.393 . S
C2403 C2402 1.391 . S
H2404 C2412 0.950 . S
H2405 C2417 0.950 . S
H2406 C2414 0.950 . S
H2407 C2416 0.962 . S
H2408 C2418 0.950 . S
H2409 C2420 0.950 . S
H2410 C2422 0.963 . S
H2411 C2423 0.950 . S
C2412 H2404 0.950 . S
C2412 C2413 1.386 . S
C2412 C2414 1.391 . S
C2413 C2412 1.386 . S
C2413 C2417 1.393 . S
C2414 H2406 0.950 . S
C2414 C2412 1.391 . S
C2414 C2415 1.400 . S
C2415 C2414 1.400 . S
C2415 C2416 1.398 . S
C2415 C2421 1.491 1_455 S
C2416 H2407 0.962 . S
C2416 C2415 1.398 . S
C2416 C2417 1.391 . S
C2417 H2405 0.950 . S
C2417 C2413 1.393 . S
C2417 C2416 1.391 . S
C2418 H2408 0.950 . S
C2418 C2419 1.386 . S
C2418 C2420 1.391 . S
C2419 C2418 1.386 . S
C2419 C2423 1.393 . S
C2420 H2409 0.950 . S
C2420 C2418 1.391 . S
C2420 C2421 1.400 . S
C2421 C2415 1.491 1_655 S
C2421 C2420 1.400 . S
C2421 C2422 1.398 . S
C2422 H2410 0.963 . S
C2422 C2421 1.398 . S
C2422 C2423 1.391 . S
C2423 H2411 0.950 . S
C2423 C2419 1.393 . S
C2423 C2422 1.391 . S
H2424 C2432 0.950 . S
H2425 C2437 0.950 . S
H2426 C2434 0.950 . S
H2427 C2436 0.950 . S
H2428 C2438 0.950 . S
H2429 C2440 0.950 . S
H2430 C2442 0.950 . S
H2431 C2443 0.950 . S
C2432 H2424 0.950 . S
C2432 C2433 1.386 . S
C2432 C2434 1.391 . S
C2433 C2432 1.386 . S
C2433 C2437 1.393 . S
C2434 H2426 0.950 . S
C2434 C2432 1.391 . S
C2434 C2435 1.400 . S
C2435 C2434 1.400 . S
C2435 C2436 1.398 . S
C2435 C2441 1.491 . S
C2436 H2427 0.950 . S
C2436 C2435 1.398 . S
C2436 C2437 1.391 . S
C2437 H2425 0.950 . S
C2437 C2433 1.393 . S
C2437 C2436 1.391 . S
C2438 H2428 0.950 . S
C2438 C2439 1.386 . S
C2438 C2440 1.391 . S
C2439 C2438 1.386 . S
C2439 C2443 1.393 . S
C2440 H2429 0.950 . S
C2440 C2438 1.391 . S
C2440 C2441 1.400 . S
C2441 C2435 1.491 . S
C2441 C2440 1.400 . S
C2441 C2442 1.398 . S
C2442 H2430 0.950 . S
C2442 C2441 1.398 . S
C2442 C2443 1.391 . S
C2443 H2431 0.950 . S
C2443 C2439 1.393 . S
C2443 C2442 1.391 . S
H2444 C2452 0.950 . S
H2445 C2457 0.950 . S
H2446 C2454 0.950 . S
H2447 C2456 0.950 . S
H2448 C2458 0.950 . S
H2449 C2460 0.950 . S
H2450 C2462 0.950 . S
H2451 C2463 0.950 . S
C2452 H2444 0.950 . S
C2452 C2453 1.386 . S
C2452 C2454 1.391 . S
C2453 C2452 1.386 . S
C2453 C2457 1.393 . S
C2454 H2446 0.950 . S
C2454 C2452 1.391 . S
C2454 C2455 1.400 . S
C2455 C2454 1.400 . S
C2455 C2456 1.398 . S
C2455 C2461 1.491 . S
C2456 H2447 0.950 . S
C2456 C2455 1.398 . S
C2456 C2457 1.391 . S
C2457 H2445 0.950 . S
C2457 C2453 1.393 . S
C2457 C2456 1.391 . S
C2458 H2448 0.950 . S
C2458 C2459 1.386 . S
C2458 C2460 1.391 . S
C2459 C2458 1.386 . S
C2459 C2463 1.393 . S
C2460 H2449 0.950 . S
C2460 C2458 1.391 . S
C2460 C2461 1.400 . S
C2461 C2455 1.491 . S
C2461 C2460 1.400 . S
C2461 C2462 1.398 . S
C2462 H2450 0.950 . S
C2462 C2461 1.398 . S
C2462 C2463 1.391 . S
C2463 H2451 0.950 . S
C2463 C2459 1.393 . S
C2463 C2462 1.391 . S
H2464 C2472 0.950 . S
H2465 C2477 0.950 . S
H2466 C2474 0.950 . S
H2467 C2476 0.950 . S
H2468 C2478 0.950 . S
H2469 C2480 0.950 . S
H2470 C2482 0.950 . S
H2471 C2483 0.950 . S
C2472 H2464 0.950 . S
C2472 C2473 1.386 . S
C2472 C2474 1.391 . S
C2473 C2472 1.386 . S
C2473 C2477 1.393 . S
C2474 H2466 0.950 . S
C2474 C2472 1.391 . S
C2474 C2475 1.400 . S
C2475 C2474 1.400 . S
C2475 C2476 1.398 . S
C2475 C2481 1.491 . S
C2476 H2467 0.950 . S
C2476 C2475 1.398 . S
C2476 C2477 1.391 . S
C2477 H2465 0.950 . S
C2477 C2473 1.393 . S
C2477 C2476 1.391 . S
C2478 H2468 0.950 . S
C2478 C2479 1.386 . S
C2478 C2480 1.391 . S
C2479 C2478 1.386 . S
C2479 C2483 1.393 . S
C2480 H2469 0.950 . S
C2480 C2478 1.391 . S
C2480 C2481 1.400 . S
C2481 C2475 1.491 . S
C2481 C2480 1.400 . S
C2481 C2482 1.398 . S
C2482 H2470 0.950 . S
C2482 C2481 1.398 . S
C2482 C2483 1.391 . S
C2483 H2471 0.950 . S
C2483 C2479 1.393 . S
C2483 C2482 1.391 . S
H2484 C2492 0.950 . S
H2485 C2497 0.950 . S
H2486 C2494 0.950 . S
H2487 C2496 0.950 . S
H2488 C2498 0.950 . S
H2489 C2500 0.950 . S
H2490 C2502 0.950 . S
H2491 C2503 0.950 1_556 S
C2492 H2484 0.950 . S
C2492 C2493 1.386 . S
C2492 C2494 1.391 . S
C2493 C2492 1.386 . S
C2493 C2497 1.393 . S
C2494 H2486 0.950 . S
C2494 C2492 1.391 . S
C2494 C2495 1.400 . S
C2495 C2494 1.400 . S
C2495 C2496 1.398 . S
C2495 C2501 1.491 . S
C2496 H2487 0.950 . S
C2496 C2495 1.398 . S
C2496 C2497 1.391 . S
C2497 H2485 0.950 . S
C2497 C2493 1.393 . S
C2497 C2496 1.391 . S
C2498 H2488 0.950 . S
C2498 C2499 1.386 . S
C2498 C2500 1.391 . S
C2499 C2498 1.386 . S
C2499 C2503 1.393 . S
C2500 H2489 0.950 . S
C2500 C2498 1.391 . S
C2500 C2501 1.400 . S
C2501 C2495 1.491 . S
C2501 C2500 1.400 . S
C2501 C2502 1.398 . S
C2502 H2490 0.950 . S
C2502 C2501 1.398 . S
C2502 C2503 1.391 . S
C2503 H2491 0.950 1_554 S
C2503 C2499 1.393 . S
C2503 C2502 1.391 . S
H2504 C2512 0.950 . S
H2505 C2517 0.950 . S
H2506 C2514 0.950 . S
H2507 C2516 0.950 . S
H2508 C2518 0.950 . S
H2509 C2520 0.950 . S
H2510 C2522 0.950 . S
H2511 C2523 0.950 1_556 S
C2512 H2504 0.950 . S
C2512 C2513 1.386 . S
C2512 C2514 1.391 . S
C2513 C2512 1.386 . S
C2513 C2517 1.393 . S
C2514 H2506 0.950 . S
C2514 C2512 1.391 . S
C2514 C2515 1.400 . S
C2515 C2514 1.400 . S
C2515 C2516 1.398 . S
C2515 C2521 1.491 . S
C2516 H2507 0.950 . S
C2516 C2515 1.398 . S
C2516 C2517 1.391 . S
C2517 H2505 0.950 . S
C2517 C2513 1.393 . S
C2517 C2516 1.391 . S
C2518 H2508 0.950 . S
C2518 C2519 1.386 . S
C2518 C2520 1.391 . S
C2519 C2518 1.386 . S
C2519 C2523 1.393 . S
C2520 H2509 0.950 . S
C2520 C2518 1.391 . S
C2520 C2521 1.400 . S
C2521 C2515 1.491 . S
C2521 C2520 1.400 . S
C2521 C2522 1.398 . S
C2522 H2510 0.950 . S
C2522 C2521 1.398 . S
C2522 C2523 1.391 . S
C2523 H2511 0.950 1_554 S
C2523 C2519 1.393 . S
C2523 C2522 1.391 . S
H2524 C2532 0.950 1_556 S
H2525 C2537 0.950 . S
H2526 C2534 0.950 . S
H2527 C2536 0.950 . S
H2528 C2538 0.950 . S
H2529 C2540 0.950 . S
H2530 C2542 0.950 . S
H2531 C2543 0.950 . S
C2532 H2524 0.950 1_554 S
C2532 C2533 1.386 . S
C2532 C2534 1.391 . S
C2533 C2532 1.386 . S
C2533 C2537 1.393 . S
C2534 H2526 0.950 . S
C2534 C2532 1.391 . S
C2534 C2535 1.400 . S
C2535 C2534 1.400 . S
C2535 C2536 1.398 . S
C2535 C2541 1.491 . S
C2536 H2527 0.950 . S
C2536 C2535 1.398 . S
C2536 C2537 1.391 . S
C2537 H2525 0.950 . S
C2537 C2533 1.393 . S
C2537 C2536 1.391 . S
C2538 H2528 0.950 . S
C2538 C2539 1.386 . S
C2538 C2540 1.391 . S
C2539 C2538 1.386 . S
C2539 C2543 1.393 . S
C2540 H2529 0.950 . S
C2540 C2538 1.391 . S
C2540 C2541 1.400 . S
C2541 C2535 1.491 . S
C2541 C2540 1.400 . S
C2541 C2542 1.398 . S
C2542 H2530 0.950 . S
C2542 C2541 1.398 . S
C2542 C2543 1.391 . S
C2543 H2531 0.950 . S
C2543 C2539 1.393 . S
C2543 C2542 1.391 . S
H2544 C2552 0.950 1_554 S
H2545 C2557 0.950 . S
H2546 C2554 0.950 . S
H2547 C2556 0.950 . S
H2548 C2558 0.950 . S
H2549 C2560 0.950 . S
H2550 C2562 0.950 . S
H2551 C2563 0.950 . S
C2552 H2544 0.950 1_556 S
C2552 C2553 1.386 . S
C2552 C2554 1.391 . S
C2553 C2552 1.386 . S
C2553 C2557 1.393 . S
C2554 H2546 0.950 . S
C2554 C2552 1.391 . S
C2554 C2555 1.400 . S
C2555 C2554 1.400 . S
C2555 C2556 1.398 . S
C2555 C2561 1.491 . S
C2556 H2547 0.950 . S
C2556 C2555 1.398 . S
C2556 C2557 1.391 . S
C2557 H2545 0.950 . S
C2557 C2553 1.393 . S
C2557 C2556 1.391 . S
C2558 H2548 0.950 . S
C2558 C2559 1.386 . S
C2558 C2560 1.391 . S
C2559 C2558 1.386 . S
C2559 C2563 1.393 . S
C2560 H2549 0.950 . S
C2560 C2558 1.391 . S
C2560 C2561 1.400 . S
C2561 C2555 1.491 . S
C2561 C2560 1.400 . S
C2561 C2562 1.398 . S
C2562 H2550 0.950 . S
C2562 C2561 1.398 . S
C2562 C2563 1.391 . S
C2563 H2551 0.950 . S
C2563 C2559 1.393 . S
C2563 C2562 1.391 . S
H2564 C2572 0.950 . S
H2565 C2577 0.950 1_554 S
H2566 C2574 0.950 . S
H2567 C2576 0.950 . S
H2568 C2578 0.950 . S
H2569 C2580 0.950 . S
H2570 C2582 0.950 . S
H2571 C2583 0.950 . S
C2572 H2564 0.950 . S
C2572 C2573 1.386 . S
C2572 C2574 1.391 . S
C2573 C2572 1.386 . S
C2573 C2577 1.393 . S
C2574 H2566 0.950 . S
C2574 C2572 1.391 . S
C2574 C2575 1.400 . S
C2575 C2574 1.400 . S
C2575 C2576 1.398 . S
C2575 C2581 1.491 . S
C2576 H2567 0.950 . S
C2576 C2575 1.398 . S
C2576 C2577 1.391 . S
C2577 H2565 0.950 1_556 S
C2577 C2573 1.393 . S
C2577 C2576 1.391 . S
C2578 H2568 0.950 . S
C2578 C2579 1.386 . S
C2578 C2580 1.391 . S
C2579 C2578 1.386 . S
C2579 C2583 1.393 . S
C2580 H2569 0.950 . S
C2580 C2578 1.391 . S
C2580 C2581 1.400 . S
C2581 C2575 1.491 . S
C2581 C2580 1.400 . S
C2581 C2582 1.398 . S
C2582 H2570 0.950 . S
C2582 C2581 1.398 . S
C2582 C2583 1.391 . S
C2583 H2571 0.950 . S
C2583 C2579 1.393 . S
C2583 C2582 1.391 . S
H2584 C2592 0.950 . S
H2585 C2597 0.950 . S
H2586 C2594 0.950 . S
H2587 C2596 0.950 . S
H2588 C2598 0.950 . S
H2589 C2600 0.950 . S
H2590 C2602 0.950 . S
H2591 C2603 0.965 . S
C2592 H2584 0.950 . S
C2592 C2593 1.386 . S
C2592 C2594 1.391 . S
C2593 C2592 1.386 . S
C2593 C2597 1.393 . S
C2594 H2586 0.950 . S
C2594 C2592 1.391 . S
C2594 C2595 1.400 . S
C2595 C2594 1.400 . S
C2595 C2596 1.398 . S
C2595 C2601 1.491 . S
C2596 H2587 0.950 . S
C2596 C2595 1.398 . S
C2596 C2597 1.391 . S
C2597 H2585 0.950 . S
C2597 C2593 1.393 . S
C2597 C2596 1.391 . S
C2598 H2588 0.950 . S
C2598 C2599 1.386 . S
C2598 C2600 1.391 . S
C2599 C2598 1.386 . S
C2599 C2603 1.393 . S
C2600 H2589 0.950 . S
C2600 C2598 1.391 . S
C2600 C2601 1.400 . S
C2601 C2595 1.491 . S
C2601 C2600 1.400 . S
C2601 C2602 1.398 . S
C2602 H2590 0.950 . S
C2602 C2601 1.398 . S
C2602 C2603 1.391 . S
C2603 H2591 0.965 . S
C2603 C2599 1.393 . S
C2603 C2602 1.391 . S
H2604 C2612 0.950 . S
H2605 C2617 0.950 . S
H2606 C2614 0.950 . S
H2607 C2616 0.950 . S
H2608 C2618 0.950 . S
H2609 C2620 0.950 . S
H2610 C2622 0.950 . S
H2611 C2623 0.950 . S
C2612 H2604 0.950 . S
C2612 C2613 1.386 . S
C2612 C2614 1.391 . S
C2613 C2612 1.386 . S
C2613 C2617 1.393 . S
C2614 H2606 0.950 . S
C2614 C2612 1.391 . S
C2614 C2615 1.400 . S
C2615 C2614 1.400 . S
C2615 C2616 1.398 . S
C2615 C2621 1.491 . S
C2616 H2607 0.950 . S
C2616 C2615 1.398 . S
C2616 C2617 1.391 . S
C2617 H2605 0.950 . S
C2617 C2613 1.393 . S
C2617 C2616 1.391 . S
C2618 H2608 0.950 . S
C2618 C2619 1.386 . S
C2618 C2620 1.391 . S
C2619 C2618 1.386 . S
C2619 C2623 1.393 . S
C2620 H2609 0.950 . S
C2620 C2618 1.391 . S
C2620 C2621 1.400 . S
C2621 C2615 1.491 . S
C2621 C2620 1.400 . S
C2621 C2622 1.398 . S
C2622 H2610 0.950 . S
C2622 C2621 1.398 . S
C2622 C2623 1.391 . S
C2623 H2611 0.950 . S
C2623 C2619 1.393 . S
C2623 C2622 1.391 . S
H2624 C2632 0.950 . S
H2625 C2637 0.950 . S
H2626 C2634 0.950 . S
H2627 C2636 0.950 . S
H2628 C2638 0.950 . S
H2629 C2640 0.950 . S
H2630 C2642 0.950 . S
H2631 C2643 0.950 . S
C2632 H2624 0.950 . S
C2632 C2633 1.386 . S
C2632 C2634 1.391 . S
C2633 C2632 1.386 . S
C2633 C2637 1.393 . S
C2634 H2626 0.950 . S
C2634 C2632 1.391 . S
C2634 C2635 1.400 . S
C2635 C2634 1.400 . S
C2635 C2636 1.398 . S
C2635 C2641 1.491 . S
C2636 H2627 0.950 . S
C2636 C2635 1.398 . S
C2636 C2637 1.391 . S
C2637 H2625 0.950 . S
C2637 C2633 1.393 . S
C2637 C2636 1.391 . S
C2638 H2628 0.950 . S
C2638 C2639 1.386 . S
C2638 C2640 1.391 . S
C2639 C2638 1.386 . S
C2639 C2643 1.393 . S
C2640 H2629 0.950 . S
C2640 C2638 1.391 . S
C2640 C2641 1.400 . S
C2641 C2635 1.491 . S
C2641 C2640 1.400 . S
C2641 C2642 1.398 . S
C2642 H2630 0.950 . S
C2642 C2641 1.398 . S
C2642 C2643 1.391 . S
C2643 H2631 0.950 . S
C2643 C2639 1.393 . S
C2643 C2642 1.391 . S
H2644 C2652 0.950 . S
H2645 C2657 0.950 . S
H2646 C2654 0.950 . S
H2647 C2656 0.950 . S
H2648 C2658 0.950 . S
H2649 C2660 0.950 . S
H2650 C2662 0.950 . S
H2651 C2663 0.950 . S
C2652 H2644 0.950 . S
C2652 C2653 1.386 . S
C2652 C2654 1.391 . S
C2653 C2652 1.386 . S
C2653 C2657 1.393 . S
C2654 H2646 0.950 . S
C2654 C2652 1.391 . S
C2654 C2655 1.400 . S
C2655 C2654 1.400 . S
C2655 C2656 1.398 . S
C2655 C2661 1.491 . S
C2656 H2647 0.950 . S
C2656 C2655 1.398 . S
C2656 C2657 1.391 . S
C2657 H2645 0.950 . S
C2657 C2653 1.393 . S
C2657 C2656 1.391 . S
C2658 H2648 0.950 . S
C2658 C2659 1.386 . S
C2658 C2660 1.391 . S
C2659 C2658 1.386 . S
C2659 C2663 1.393 . S
C2660 H2649 0.950 . S
C2660 C2658 1.391 . S
C2660 C2661 1.400 . S
C2661 C2655 1.491 . S
C2661 C2660 1.400 . S
C2661 C2662 1.398 . S
C2662 H2650 0.950 . S
C2662 C2661 1.398 . S
C2662 C2663 1.391 . S
C2663 H2651 0.950 . S
C2663 C2659 1.393 . S
C2663 C2662 1.391 . S
H2664 C2672 0.950 . S
H2665 C2677 0.950 . S
H2666 C2674 0.950 . S
H2667 C2676 0.950 . S
H2668 C2678 0.950 . S
H2669 C2680 0.950 . S
H2670 C2682 0.950 . S
H2671 C2683 0.950 . S
C2672 H2664 0.950 . S
C2672 C2673 1.386 . S
C2672 C2674 1.391 . S
C2673 C2672 1.386 . S
C2673 C2677 1.393 . S
C2674 H2666 0.950 . S
C2674 C2672 1.391 . S
C2674 C2675 1.400 . S
C2675 C2674 1.400 . S
C2675 C2676 1.398 . S
C2675 C2681 1.491 . S
C2676 H2667 0.950 . S
C2676 C2675 1.398 . S
C2676 C2677 1.391 . S
C2677 H2665 0.950 . S
C2677 C2673 1.393 . S
C2677 C2676 1.391 . S
C2678 H2668 0.950 . S
C2678 C2679 1.386 . S
C2678 C2680 1.391 . S
C2679 C2678 1.386 . S
C2679 C2683 1.393 . S
C2680 H2669 0.950 . S
C2680 C2678 1.391 . S
C2680 C2681 1.400 . S
C2681 C2675 1.491 . S
C2681 C2680 1.400 . S
C2681 C2682 1.398 . S
C2682 H2670 0.950 . S
C2682 C2681 1.398 . S
C2682 C2683 1.391 . S
C2683 H2671 0.950 . S
C2683 C2679 1.393 . S
C2683 C2682 1.391 . S
H2684 C2692 0.950 . S
H2685 C2697 0.950 . S
H2686 C2694 0.950 . S
H2687 C2696 0.950 . S
H2688 C2698 0.950 . S
H2689 C2700 0.950 . S
H2690 C2702 0.950 . S
H2691 C2703 0.950 . S
C2692 H2684 0.950 . S
C2692 C2693 1.386 . S
C2692 C2694 1.391 . S
C2693 C2692 1.386 . S
C2693 C2697 1.393 . S
C2694 H2686 0.950 . S
C2694 C2692 1.391 . S
C2694 C2695 1.400 . S
C2695 C2694 1.400 . S
C2695 C2696 1.398 . S
C2695 C2701 1.491 . S
C2696 H2687 0.950 . S
C2696 C2695 1.398 . S
C2696 C2697 1.391 . S
C2697 H2685 0.950 . S
C2697 C2693 1.393 . S
C2697 C2696 1.391 . S
C2698 H2688 0.950 . S
C2698 C2699 1.386 . S
C2698 C2700 1.391 . S
C2699 C2698 1.386 . S
C2699 C2703 1.393 . S
C2700 H2689 0.950 . S
C2700 C2698 1.391 . S
C2700 C2701 1.400 . S
C2701 C2695 1.491 . S
C2701 C2700 1.400 . S
C2701 C2702 1.398 . S
C2702 H2690 0.950 . S
C2702 C2701 1.398 . S
C2702 C2703 1.391 . S
C2703 H2691 0.950 . S
C2703 C2699 1.393 . S
C2703 C2702 1.391 . S
H2704 C2712 0.950 . S
H2705 C2717 0.950 . S
H2706 C2714 0.950 . S
H2707 C2716 0.950 . S
H2708 C2718 0.950 . S
H2709 C2720 0.950 . S
H2710 C2722 0.950 . S
H2711 C2723 0.950 . S
C2712 H2704 0.950 . S
C2712 C2713 1.386 . S
C2712 C2714 1.391 . S
C2713 C2712 1.386 . S
C2713 C2717 1.393 . S
C2714 H2706 0.950 . S
C2714 C2712 1.391 . S
C2714 C2715 1.400 . S
C2715 C2714 1.400 . S
C2715 C2716 1.398 . S
C2715 C2721 1.491 . S
C2716 H2707 0.950 . S
C2716 C2715 1.398 . S
C2716 C2717 1.391 . S
C2717 H2705 0.950 . S
C2717 C2713 1.393 . S
C2717 C2716 1.391 . S
C2718 H2708 0.950 . S
C2718 C2719 1.386 . S
C2718 C2720 1.391 . S
C2719 C2718 1.386 . S
C2719 C2723 1.393 . S
C2720 H2709 0.950 . S
C2720 C2718 1.391 . S
C2720 C2721 1.400 . S
C2721 C2715 1.491 . S
C2721 C2720 1.400 . S
C2721 C2722 1.398 . S
C2722 H2710 0.950 . S
C2722 C2721 1.398 . S
C2722 C2723 1.391 . S
C2723 H2711 0.950 . S
C2723 C2719 1.393 . S
C2723 C2722 1.391 . S
H2724 C2732 0.950 . S
H2725 C2737 0.950 . S
H2726 C2734 0.950 . S
H2727 C2736 0.950 . S
H2728 C2738 0.950 . S
H2729 C2740 0.950 . S
H2730 C2742 0.950 . S
H2731 C2743 0.950 . S
C2732 H2724 0.950 . S
C2732 C2733 1.386 . S
C2732 C2734 1.391 . S
C2733 C2732 1.386 . S
C2733 C2737 1.393 . S
C2734 H2726 0.950 . S
C2734 C2732 1.391 . S
C2734 C2735 1.400 . S
C2735 C2734 1.400 . S
C2735 C2736 1.398 . S
C2735 C2741 1.491 . S
C2736 H2727 0.950 . S
C2736 C2735 1.398 . S
C2736 C2737 1.391 . S
C2737 H2725 0.950 . S
C2737 C2733 1.393 . S
C2737 C2736 1.391 . S
C2738 H2728 0.950 . S
C2738 C2739 1.386 . S
C2738 C2740 1.391 . S
C2739 C2738 1.386 . S
C2739 C2743 1.393 . S
C2740 H2729 0.950 . S
C2740 C2738 1.391 . S
C2740 C2741 1.400 . S
C2741 C2735 1.491 . S
C2741 C2740 1.400 . S
C2741 C2742 1.398 . S
C2742 H2730 0.950 . S
C2742 C2741 1.398 . S
C2742 C2743 1.391 . S
C2743 H2731 0.950 . S
C2743 C2739 1.393 . S
C2743 C2742 1.391 . S
H2744 C2752 0.950 . S
H2745 C2757 0.950 . S
H2746 C2754 0.950 . S
H2747 C2756 0.950 . S
H2748 C2758 0.950 . S
H2749 C2760 0.950 . S
H2750 C2762 0.950 . S
H2751 C2763 0.950 . S
C2752 H2744 0.950 . S
C2752 C2753 1.386 . S
C2752 C2754 1.391 . S
C2753 C2752 1.386 . S
C2753 C2757 1.393 . S
C2754 H2746 0.950 . S
C2754 C2752 1.391 . S
C2754 C2755 1.400 . S
C2755 C2754 1.400 . S
C2755 C2756 1.398 . S
C2755 C2761 1.491 . S
C2756 H2747 0.950 . S
C2756 C2755 1.398 . S
C2756 C2757 1.391 . S
C2757 H2745 0.950 . S
C2757 C2753 1.393 . S
C2757 C2756 1.391 . S
C2758 H2748 0.950 . S
C2758 C2759 1.386 . S
C2758 C2760 1.391 . S
C2759 C2758 1.386 . S
C2759 C2763 1.393 . S
C2760 H2749 0.950 . S
C2760 C2758 1.391 . S
C2760 C2761 1.400 . S
C2761 C2755 1.491 . S
C2761 C2760 1.400 . S
C2761 C2762 1.398 . S
C2762 H2750 0.950 . S
C2762 C2761 1.398 . S
C2762 C2763 1.391 . S
C2763 H2751 0.950 . S
C2763 C2759 1.393 . S
C2763 C2762 1.391 . S
H2764 C2772 0.950 . S
H2765 C2777 0.950 . S
H2766 C2774 0.950 . S
H2767 C2776 0.950 . S
H2768 C2778 0.950 . S
H2769 C2780 0.950 . S
H2770 C2782 0.950 . S
H2771 C2783 0.950 . S
C2772 H2764 0.950 . S
C2772 C2773 1.386 . S
C2772 C2774 1.391 . S
C2773 C2772 1.386 . S
C2773 C2777 1.393 . S
C2774 H2766 0.950 . S
C2774 C2772 1.391 . S
C2774 C2775 1.400 . S
C2775 C2774 1.400 . S
C2775 C2776 1.398 . S
C2775 C2781 1.491 . S
C2776 H2767 0.950 . S
C2776 C2775 1.398 . S
C2776 C2777 1.391 . S
C2777 H2765 0.950 . S
C2777 C2773 1.393 . S
C2777 C2776 1.391 . S
C2778 H2768 0.950 . S
C2778 C2779 1.386 . S
C2778 C2780 1.391 . S
C2779 C2778 1.386 . S
C2779 C2783 1.393 . S
C2780 H2769 0.950 . S
C2780 C2778 1.391 . S
C2780 C2781 1.400 . S
C2781 C2775 1.491 . S
C2781 C2780 1.400 . S
C2781 C2782 1.398 . S
C2782 H2770 0.950 . S
C2782 C2781 1.398 . S
C2782 C2783 1.391 . S
C2783 H2771 0.950 . S
C2783 C2779 1.393 . S
C2783 C2782 1.391 . S
H2784 C2792 0.950 . S
H2785 C2797 0.950 . S
H2786 C2794 0.950 . S
H2787 C2796 0.950 . S
H2788 C2798 0.950 . S
H2789 C2800 0.950 . S
H2790 C2802 0.950 . S
H2791 C2803 0.950 . S
C2792 H2784 0.950 . S
C2792 C2793 1.386 . S
C2792 C2794 1.391 . S
C2793 C2792 1.386 . S
C2793 C2797 1.393 . S
C2794 H2786 0.950 . S
C2794 C2792 1.391 . S
C2794 C2795 1.400 . S
C2795 C2794 1.400 . S
C2795 C2796 1.398 . S
C2795 C2801 1.491 . S
C2796 H2787 0.950 . S
C2796 C2795 1.398 . S
C2796 C2797 1.391 . S
C2797 H2785 0.950 . S
C2797 C2793 1.393 . S
C2797 C2796 1.391 . S
C2798 H2788 0.950 . S
C2798 C2799 1.386 . S
C2798 C2800 1.391 . S
C2799 C2798 1.386 . S
C2799 C2803 1.393 . S
C2800 H2789 0.950 . S
C2800 C2798 1.391 . S
C2800 C2801 1.400 . S
C2801 C2795 1.491 . S
C2801 C2800 1.400 . S
C2801 C2802 1.398 . S
C2802 H2790 0.950 . S
C2802 C2801 1.398 . S
C2802 C2803 1.391 . S
C2803 H2791 0.950 . S
C2803 C2799 1.393 . S
C2803 C2802 1.391 . S
H2804 C2812 0.950 . S
H2805 C2817 0.950 . S
H2806 C2814 0.950 . S
H2807 C2816 0.950 . S
H2808 C2818 0.950 . S
H2809 C2820 0.950 . S
H2810 C2822 0.950 . S
H2811 C2823 0.950 . S
C2812 H2804 0.950 . S
C2812 C2813 1.386 . S
C2812 C2814 1.391 . S
C2813 C2812 1.386 . S
C2813 C2817 1.393 . S
C2814 H2806 0.950 . S
C2814 C2812 1.391 . S
C2814 C2815 1.400 . S
C2815 C2814 1.400 . S
C2815 C2816 1.398 . S
C2815 C2821 1.491 . S
C2816 H2807 0.950 . S
C2816 C2815 1.398 . S
C2816 C2817 1.391 . S
C2817 H2805 0.950 . S
C2817 C2813 1.393 . S
C2817 C2816 1.391 . S
C2818 H2808 0.950 . S
C2818 C2819 1.386 . S
C2818 C2820 1.391 . S
C2819 C2818 1.386 . S
C2819 C2823 1.393 . S
C2820 H2809 0.950 . S
C2820 C2818 1.391 . S
C2820 C2821 1.400 . S
C2821 C2815 1.491 . S
C2821 C2820 1.400 . S
C2821 C2822 1.398 . S
C2822 H2810 0.950 . S
C2822 C2821 1.398 . S
C2822 C2823 1.391 . S
C2823 H2811 0.950 . S
C2823 C2819 1.393 . S
C2823 C2822 1.391 . S
H2824 C2832 0.950 1_556 S
H2825 C2837 0.950 . S
H2826 C2834 0.950 . S
H2827 C2836 0.950 . S
H2828 C2838 0.950 . S
H2829 C2840 0.950 . S
H2830 C2842 0.950 . S
H2831 C2843 0.950 . S
C2832 H2824 0.950 1_554 S
C2832 C2833 1.386 . S
C2832 C2834 1.391 . S
C2833 C2832 1.386 . S
C2833 C2837 1.393 . S
C2834 H2826 0.950 . S
C2834 C2832 1.391 . S
C2834 C2835 1.400 . S
C2835 C2834 1.400 . S
C2835 C2836 1.398 . S
C2835 C2841 1.491 . S
C2836 H2827 0.950 . S
C2836 C2835 1.398 . S
C2836 C2837 1.391 . S
C2837 H2825 0.950 . S
C2837 C2833 1.393 . S
C2837 C2836 1.391 . S
C2838 H2828 0.950 . S
C2838 C2839 1.386 . S
C2838 C2840 1.391 . S
C2839 C2838 1.386 . S
C2839 C2843 1.393 . S
C2840 H2829 0.950 . S
C2840 C2838 1.391 . S
C2840 C2841 1.400 . S
C2841 C2835 1.491 . S
C2841 C2840 1.400 . S
C2841 C2842 1.398 . S
C2842 H2830 0.950 . S
C2842 C2841 1.398 . S
C2842 C2843 1.391 . S
C2843 H2831 0.950 . S
C2843 C2839 1.393 . S
C2843 C2842 1.391 . S
H2844 C2852 0.950 . S
H2845 C2857 0.950 . S
H2846 C2854 0.950 . S
H2847 C2856 0.950 . S
H2848 C2858 0.950 . S
H2849 C2860 0.950 . S
H2850 C2862 0.950 . S
H2851 C2863 0.950 . S
C2852 H2844 0.950 . S
C2852 C2853 1.386 . S
C2852 C2854 1.391 . S
C2853 C2852 1.386 . S
C2853 C2857 1.393 . S
C2854 H2846 0.950 . S
C2854 C2852 1.391 . S
C2854 C2855 1.400 . S
C2855 C2854 1.400 . S
C2855 C2856 1.398 . S
C2855 C2861 1.491 . S
C2856 H2847 0.950 . S
C2856 C2855 1.398 . S
C2856 C2857 1.391 . S
C2857 H2845 0.950 . S
C2857 C2853 1.393 . S
C2857 C2856 1.391 . S
C2858 H2848 0.950 . S
C2858 C2859 1.386 . S
C2858 C2860 1.391 . S
C2859 C2858 1.386 . S
C2859 C2863 1.393 . S
C2860 H2849 0.950 . S
C2860 C2858 1.391 . S
C2860 C2861 1.400 . S
C2861 C2855 1.491 . S
C2861 C2860 1.400 . S
C2861 C2862 1.398 . S
C2862 H2850 0.950 . S
C2862 C2861 1.398 . S
C2862 C2863 1.391 . S
C2863 H2851 0.950 . S
C2863 C2859 1.393 . S
C2863 C2862 1.391 . S
H2864 C2872 0.950 . S
H2865 C2877 0.950 . S
H2866 C2874 0.950 . S
H2867 C2876 0.950 . S
H2868 C2878 0.950 . S
H2869 C2880 0.950 . S
H2870 C2882 0.950 . S
H2871 C2883 0.950 . S
C2872 H2864 0.950 . S
C2872 C2873 1.386 . S
C2872 C2874 1.391 . S
C2873 C2872 1.386 . S
C2873 C2877 1.393 . S
C2874 H2866 0.950 . S
C2874 C2872 1.391 . S
C2874 C2875 1.400 . S
C2875 C2874 1.400 . S
C2875 C2876 1.398 . S
C2875 C2881 1.491 . S
C2876 H2867 0.950 . S
C2876 C2875 1.398 . S
C2876 C2877 1.391 . S
C2877 H2865 0.950 . S
C2877 C2873 1.393 . S
C2877 C2876 1.391 . S
C2878 H2868 0.950 . S
C2878 C2879 1.386 . S
C2878 C2880 1.391 . S
C2879 C2878 1.386 . S
C2879 C2883 1.393 . S
C2880 H2869 0.950 . S
C2880 C2878 1.391 . S
C2880 C2881 1.400 . S
C2881 C2875 1.491 . S
C2881 C2880 1.400 . S
C2881 C2882 1.398 . S
C2882 H2870 0.950 . S
C2882 C2881 1.398 . S
C2882 C2883 1.391 . S
C2883 H2871 0.950 . S
C2883 C2879 1.393 . S
C2883 C2882 1.391 . S
H2884 C2892 0.950 . S
H2885 C2897 0.950 . S
H2886 C2894 0.950 . S
H2887 C2896 0.950 . S
H2888 C2898 0.950 . S
H2889 C2900 0.950 . S
H2890 C2902 0.950 . S
H2891 C2903 0.950 . S
C2892 H2884 0.950 . S
C2892 C2893 1.386 . S
C2892 C2894 1.391 . S
C2893 C2892 1.386 . S
C2893 C2897 1.393 . S
C2894 H2886 0.950 . S
C2894 C2892 1.391 . S
C2894 C2895 1.400 . S
C2895 C2894 1.400 . S
C2895 C2896 1.398 . S
C2895 C2901 1.491 . S
C2896 H2887 0.950 . S
C2896 C2895 1.398 . S
C2896 C2897 1.391 . S
C2897 H2885 0.950 . S
C2897 C2893 1.393 . S
C2897 C2896 1.391 . S
C2898 H2888 0.950 . S
C2898 C2899 1.386 . S
C2898 C2900 1.391 . S
C2899 C2898 1.386 . S
C2899 C2903 1.393 . S
C2900 H2889 0.950 . S
C2900 C2898 1.391 . S
C2900 C2901 1.400 . S
C2901 C2895 1.491 . S
C2901 C2900 1.400 . S
C2901 C2902 1.398 . S
C2902 H2890 0.950 . S
C2902 C2901 1.398 . S
C2902 C2903 1.391 . S
C2903 H2891 0.950 . S
C2903 C2899 1.393 . S
C2903 C2902 1.391 . S
H2904 C2912 0.950 . S
H2905 C2917 0.950 . S
H2906 C2914 0.950 1_655 S
H2907 C2916 0.950 . S
H2908 C2918 0.950 . S
H2909 C2920 0.950 1_455 S
H2910 C2922 0.950 . S
H2911 C2923 0.950 . S
C2912 H2904 0.950 . S
C2912 C2913 1.386 . S
C2912 C2914 1.391 . S
C2913 C2912 1.386 . S
C2913 C2917 1.393 . S
C2914 H2906 0.950 1_455 S
C2914 C2912 1.391 . S
C2914 C2915 1.400 . S
C2915 C2914 1.400 . S
C2915 C2916 1.398 . S
C2915 C2921 1.491 1_455 S
C2916 H2907 0.950 . S
C2916 C2915 1.398 . S
C2916 C2917 1.391 . S
C2917 H2905 0.950 . S
C2917 C2913 1.393 . S
C2917 C2916 1.391 . S
C2918 H2908 0.950 . S
C2918 C2919 1.386 . S
C2918 C2920 1.391 . S
C2919 C2918 1.386 . S
C2919 C2923 1.393 . S
C2920 H2909 0.950 1_655 S
C2920 C2918 1.391 . S
C2920 C2921 1.400 . S
C2921 C2915 1.491 1_655 S
C2921 C2920 1.400 . S
C2921 C2922 1.398 . S
C2922 H2910 0.950 . S
C2922 C2921 1.398 . S
C2922 C2923 1.391 . S
C2923 H2911 0.950 . S
C2923 C2919 1.393 . S
C2923 C2922 1.391 . S
H2924 C2932 0.950 . S
H2925 C2937 0.950 . S
H2926 C2934 0.950 . S
H2927 C2936 0.950 . S
H2928 C2938 0.950 . S
H2929 C2940 0.950 . S
H2930 C2942 0.950 . S
H2931 C2943 0.950 . S
C2932 H2924 0.950 . S
C2932 C2933 1.386 . S
C2932 C2934 1.391 . S
C2933 C2932 1.386 . S
C2933 C2937 1.393 . S
C2934 H2926 0.950 . S
C2934 C2932 1.391 . S
C2934 C2935 1.400 . S
C2935 C2934 1.400 . S
C2935 C2936 1.398 . S
C2935 C2941 1.491 . S
C2936 H2927 0.950 . S
C2936 C2935 1.398 . S
C2936 C2937 1.391 . S
C2937 H2925 0.950 . S
C2937 C2933 1.393 . S
C2937 C2936 1.391 . S
C2938 H2928 0.950 . S
C2938 C2939 1.386 . S
C2938 C2940 1.391 . S
C2939 C2938 1.386 . S
C2939 C2943 1.393 . S
C2940 H2929 0.950 . S
C2940 C2938 1.391 . S
C2940 C2941 1.400 . S
C2941 C2935 1.491 . S
C2941 C2940 1.400 . S
C2941 C2942 1.398 . S
C2942 H2930 0.950 . S
C2942 C2941 1.398 . S
C2942 C2943 1.391 . S
C2943 H2931 0.950 . S
C2943 C2939 1.393 . S
C2943 C2942 1.391 . S
H2944 C2952 0.950 . S
H2945 C2957 0.950 . S
H2946 C2954 0.950 . S
H2947 C2956 0.950 1_545 S
H2948 C2958 0.950 . S
H2949 C2960 0.950 . S
H2950 C2962 0.950 1_565 S
H2951 C2963 0.950 . S
C2952 H2944 0.950 . S
C2952 C2953 1.386 . S
C2952 C2954 1.391 . S
C2953 C2952 1.386 . S
C2953 C2957 1.393 . S
C2954 H2946 0.950 . S
C2954 C2952 1.391 . S
C2954 C2955 1.400 . S
C2955 C2954 1.400 . S
C2955 C2956 1.398 . S
C2955 C2961 1.491 1_565 S
C2956 H2947 0.950 1_565 S
C2956 C2955 1.398 . S
C2956 C2957 1.391 . S
C2957 H2945 0.950 . S
C2957 C2953 1.393 . S
C2957 C2956 1.391 . S
C2958 H2948 0.950 . S
C2958 C2959 1.386 . S
C2958 C2960 1.391 . S
C2959 C2958 1.386 . S
C2959 C2963 1.393 . S
C2960 H2949 0.950 . S
C2960 C2958 1.391 . S
C2960 C2961 1.400 . S
C2961 C2955 1.491 1_545 S
C2961 C2960 1.400 . S
C2961 C2962 1.398 . S
C2962 H2950 0.950 1_545 S
C2962 C2961 1.398 . S
C2962 C2963 1.391 . S
C2963 H2951 0.950 . S
C2963 C2959 1.393 . S
C2963 C2962 1.391 . S
H2964 C2972 0.950 . S
H2965 C2977 0.950 . S
H2966 C2974 0.950 1_545 S
H2967 C2976 0.950 . S
H2968 C2978 0.950 . S
H2969 C2980 0.950 1_565 S
H2970 C2982 0.950 . S
H2971 C2983 0.950 . S
C2972 H2964 0.950 . S
C2972 C2973 1.386 . S
C2972 C2974 1.391 . S
C2973 C2972 1.386 . S
C2973 C2977 1.393 . S
C2974 H2966 0.950 1_565 S
C2974 C2972 1.391 . S
C2974 C2975 1.400 . S
C2975 C2974 1.400 . S
C2975 C2976 1.398 . S
C2975 C2981 1.491 1_565 S
C2976 H2967 0.950 . S
C2976 C2975 1.398 . S
C2976 C2977 1.391 . S
C2977 H2965 0.950 . S
C2977 C2973 1.393 . S
C2977 C2976 1.391 . S
C2978 H2968 0.950 . S
C2978 C2979 1.386 . S
C2978 C2980 1.391 . S
C2979 C2978 1.386 . S
C2979 C2983 1.393 . S
C2980 H2969 0.950 1_545 S
C2980 C2978 1.391 . S
C2980 C2981 1.400 . S
C2981 C2975 1.491 1_545 S
C2981 C2980 1.400 . S
C2981 C2982 1.398 . S
C2982 H2970 0.950 . S
C2982 C2981 1.398 . S
C2982 C2983 1.391 . S
C2983 H2971 0.950 . S
C2983 C2979 1.393 . S
C2983 C2982 1.391 . S
H2984 C2992 0.950 . S
H2985 C2997 0.950 . S
H2986 C2994 0.950 . S
H2987 C2996 0.950 1_655 S
H2988 C2998 0.950 . S
H2989 C3000 0.950 . S
H2990 C3002 0.950 1_455 S
H2991 C3003 0.950 . S
C2992 H2984 0.950 . S
C2992 C2993 1.386 . S
C2992 C2994 1.391 . S
C2993 C2992 1.386 . S
C2993 C2997 1.393 . S
C2994 H2986 0.950 . S
C2994 C2992 1.391 . S
C2994 C2995 1.400 . S
C2995 C2994 1.400 . S
C2995 C2996 1.398 . S
C2995 C3001 1.491 1_455 S
C2996 H2987 0.950 1_455 S
C2996 C2995 1.398 . S
C2996 C2997 1.391 . S
C2997 H2985 0.950 . S
C2997 C2993 1.393 . S
C2997 C2996 1.391 . S
C2998 H2988 0.950 . S
C2998 C2999 1.386 . S
C2998 C3000 1.391 . S
C2999 C2998 1.386 . S
C2999 C3003 1.393 . S
C3000 H2989 0.950 . S
C3000 C2998 1.391 . S
C3000 C3001 1.400 . S
C3001 C2995 1.491 1_655 S
C3001 C3000 1.400 . S
C3001 C3002 1.398 . S
C3002 H2990 0.950 1_655 S
C3002 C3001 1.398 . S
C3002 C3003 1.391 . S
C3003 H2991 0.950 . S
C3003 C2999 1.393 . S
C3003 C3002 1.391 . S
H3004 C3012 0.950 . S
H3005 C3017 0.950 . S
H3006 C3014 0.950 . S
H3007 C3016 0.950 . S
H3008 C3018 0.950 . S
H3009 C3020 0.950 . S
H3010 C3022 0.950 . S
H3011 C3023 0.950 . S
C3012 H3004 0.950 . S
C3012 C3013 1.386 . S
C3012 C3014 1.391 . S
C3013 C3012 1.386 . S
C3013 C3017 1.393 . S
C3014 H3006 0.950 . S
C3014 C3012 1.391 . S
C3014 C3015 1.400 . S
C3015 C3014 1.400 . S
C3015 C3016 1.398 . S
C3015 C3021 1.491 . S
C3016 H3007 0.950 . S
C3016 C3015 1.398 . S
C3016 C3017 1.391 . S
C3017 H3005 0.950 . S
C3017 C3013 1.393 . S
C3017 C3016 1.391 . S
C3018 H3008 0.950 . S
C3018 C3019 1.386 . S
C3018 C3020 1.391 . S
C3019 C3018 1.386 . S
C3019 C3023 1.393 . S
C3020 H3009 0.950 . S
C3020 C3018 1.391 . S
C3020 C3021 1.400 . S
C3021 C3015 1.491 . S
C3021 C3020 1.400 . S
C3021 C3022 1.398 . S
C3022 H3010 0.950 . S
C3022 C3021 1.398 . S
C3022 C3023 1.391 . S
C3023 H3011 0.950 . S
C3023 C3019 1.393 . S
C3023 C3022 1.391 . S
C1233 C617 0.900 . S
C1239 C5 0.900 . S
C1253 C39 0.902 . S
C1259 C651 0.902 . S
C1273 C685 0.901 . S
C1279 C73 0.901 . S
C1293 C1127 0.902 . S
C1299 C107 0.902 . S
C1313 C1161 0.910 . S
C1319 C141 0.910 . S
C1333 C175 0.906 . S
C1339 C1195 0.906 . S
C1353 C209 0.904 . S
C1359 C821 0.904 . S
C1373 C855 0.908 . S
C1379 C243 0.908 . S
C1393 C277 0.901 . S
C1399 C889 0.901 . S
C1413 C515 0.900 . S
C1419 C311 0.900 . S
C1433 C345 0.902 . S
C1439 C549 0.902 . S
C1453 C583 0.902 . S
C1459 C379 0.902 . S
C1473 C413 0.901 . S
C1479 C1025 0.901 . S
C1493 C447 0.901 . S
C1499 C1059 0.901 . S
C1513 C1093 0.901 . S
C1519 C481 0.901 . S
C1533 C923 0.909 . S
C1539 C719 0.909 . S
C1553 C753 0.902 . S
C1559 C957 0.902 . S
C1573 C991 0.908 . S
C1579 C787 0.908 . S
C1593 C33 1.307 . S
C1599 C247 1.227 . S
C1613 C67 1.297 . S
C1619 C281 1.210 . S
C1633 C101 1.293 . S
C1639 C213 1.190 . S
C1653 C383 1.226 . S
C1659 C135 1.305 . S
C1673 C169 1.305 . S
C1679 C315 1.222 . S
C1693 C203 1.299 . S
C1699 C349 1.205 . S
C1713 C237 1.308 . S
C1719 C43 1.247 . S
C1733 C271 1.308 . S
C1739 C77 1.234 . S
C1753 C9 1.240 . S
C1759 C305 1.307 . S
C1773 C339 1.307 . S
C1779 C179 1.232 . S
C1793 C373 1.308 . S
C1799 C111 1.234 . S
C1813 C407 1.293 . S
C1819 C145 1.191 . S
C1833 C655 1.233 . S
C1839 C441 1.308 . S
C1853 C475 1.295 . S
C1859 C689 1.199 . S
C1873 C509 1.302 . S
C1879 C621 1.213 . S
C1893 C543 1.302 . S
C1899 C791 1.218 . S
C1913 C577 1.293 . S
C1919 C723 1.191 . S
C1933 C757 1.191 . S
C1939 C611 1.293 . S
C1953 C451 1.227 . S
C1959 C645 1.307 . S
C1973 C679 1.295 . S
C1979 C485 1.197 . S
C1993 C417 1.233 . S
C1999 C713 1.308 . S
C2013 C747 1.306 . S
C2019 C587 1.225 . S
C2033 C519 1.225 . S
C2039 C781 1.306 . S
C2053 C553 1.231 . S
C2059 C815 1.307 . S
C2073 C1063 1.212 . S
C2079 C849 1.300 . S
C2093 C1097 1.228 . S
C2099 C883 1.305 . S
C2113 C917 1.295 . S
C2119 C1029 1.197 . S
C2133 C1199 1.230 . S
C2139 C951 1.307 . S
C2153 C1131 1.196 . S
C2159 C985 1.295 . S
C2173 C1019 1.294 . S
C2179 C1165 1.193 . S
C2193 C859 1.194 . S
C2199 C1053 1.295 . S
C2213 C1087 1.304 . S
C2219 C893 1.224 . S
C2233 C1121 1.296 . S
C2239 C825 1.198 . S
C2253 C1155 1.302 . S
C2259 C995 1.219 . S
C2273 C927 1.217 . S
C2279 C1189 1.303 . S
C2293 C961 1.214 . S
C2299 C1223 1.300 . S
C2313 C20 1.575 . S
C2319 C122 1.574 . S
C2333 C54 1.575 . S
C2339 C156 1.574 . S
C2353 C190 1.576 . S
C2359 C88 1.579 . S
C2373 C224 1.575 . S
C2379 C326 1.580 . S
C2393 C360 1.573 . S
C2399 C258 1.577 . S
C2413 C292 1.578 . S
C2419 C394 1.577 . S
C2433 C428 1.572 . S
C2439 C530 1.577 . S
C2453 C462 1.579 . S
C2459 C564 1.572 . S
C2473 C598 1.577 . S
C2479 C496 1.573 . S
C2493 C632 1.580 . S
C2499 C734 1.574 1_554 S
C2513 C666 1.579 . S
C2519 C768 1.572 1_554 S
C2533 C802 1.572 1_554 S
C2539 C700 1.580 . S
C2553 C938 1.580 1_556 S
C2559 C836 1.573 . S
C2573 C972 1.572 1_556 S
C2579 C870 1.579 . S
C2593 C904 1.572 . S
C2599 C1006 1.577 1_556 S
C2613 C1040 1.576 . S
C2619 C1142 1.573 . S
C2633 C1176 1.572 . S
C2639 C1074 1.579 . S
C2653 C1210 1.580 . S
C2659 C1108 1.573 . S
C2673 C2 2.305 1_556 S
C2679 C546 2.305 . S
C2693 C36 2.300 1_556 S
C2699 C580 2.301 . S
C2713 C512 2.302 . S
C2719 C70 2.299 1_556 S
C2733 C104 2.306 . S
C2739 C886 2.301 . S
C2753 C818 2.304 . S
C2759 C138 2.299 . S
C2773 C172 2.303 . S
C2779 C852 2.306 . S
C2793 C206 2.302 1_554 S
C2799 C1158 2.306 . S
C2813 C1192 2.302 . S
C2819 C240 2.299 1_554 S
C2833 C274 2.305 1_554 S
C2839 C1124 2.299 . S
C2853 C682 2.305 . S
C2859 C308 2.299 . S
C2873 C614 2.299 . S
C2879 C342 2.304 . S
C2893 C648 2.299 . S
C2899 C376 2.301 . S
C2913 C954 2.299 . S
C2919 C410 2.303 . S
C2933 C988 2.302 . S
C2939 C444 2.299 . S
C2953 C920 2.306 . S
C2959 C478 2.301 . S
C2973 C1090 2.304 . S
C2979 C716 2.299 . S
C2993 C1022 2.300 . S
C2999 C750 2.306 . S
C3013 C1056 2.305 . S
C3019 C784 2.305 . S
