# Generated by pormake.
# Topology wli, (5)-cn, num edge types: 1
# Building blocks:
#     Node 0, Type 0, BuildingBlock: XOMCOT_clean_sbu_0, # of connection points: 5
#     Node 1, Type 0, BuildingBlock: XOMCOT_clean_sbu_0, # of connection points: 5
#     Node 2, Type 0, BuildingBlock: XOMCOT_clean_sbu_0, # of connection points: 5
#     Node 3, Type 0, BuildingBlock: XOMCOT_clean_sbu_0, # of connection points: 5
#     Node 4, Type 0, BuildingBlock: XOMCOT_clean_sbu_0, # of connection points: 5
#     Node 5, Type 0, BuildingBlock: XOMCOT_clean_sbu_0, # of connection points: 5
#     Edge 6, Type (0, 0), BuildingBlock: OJICUG_clean_linker_0, # of connection points: 2
#     Edge 7, Type (0, 0), BuildingBlock: OJICUG_clean_linker_0, # of connection points: 2
#     Edge 8, Type (0, 0), BuildingBlock: OJICUG_clean_linker_0, # of connection points: 2
#     Edge 9, Type (0, 0), BuildingBlock: OJICUG_clean_linker_0, # of connection points: 2
#     Edge 10, Type (0, 0), BuildingBlock: OJICUG_clean_linker_0, # of connection points: 2
#     Edge 11, Type (0, 0), BuildingBlock: OJICUG_clean_linker_0, # of connection points: 2
#     Edge 12, Type (0, 0), BuildingBlock: OJICUG_clean_linker_0, # of connection points: 2
#     Edge 13, Type (0, 0), BuildingBlock: OJICUG_clean_linker_0, # of connection points: 2
#     Edge 14, Type (0, 0), BuildingBlock: OJICUG_clean_linker_0, # of connection points: 2
#     Edge 15, Type (0, 0), BuildingBlock: OJICUG_clean_linker_0, # of connection points: 2
#     Edge 16, Type (0, 0), BuildingBlock: OJICUG_clean_linker_0, # of connection points: 2
#     Edge 17, Type (0, 0), BuildingBlock: OJICUG_clean_linker_0, # of connection points: 2
#     Edge 18, Type (0, 0), BuildingBlock: OJICUG_clean_linker_0, # of connection points: 2
#     Edge 19, Type (0, 0), BuildingBlock: OJICUG_clean_linker_0, # of connection points: 2
#     Edge 20, Type (0, 0), BuildingBlock: OJICUG_clean_linker_0, # of connection points: 2
# Relax obj value: 0.136
# Max RMSD: 0.158
# Mean RMSD: 0.158
data_MOF--net-wli--node1-XOMCOT_clean_sbu_0--edge1-OJICUG_clean_linker_0
_symmetry_space_group_name_H-M    P1
_symmetry_Int_Tables_number       1
_symmetry_cell_setting            triclinic
loop_
_symmetry_equiv_pos_as_xyz
'x, y, z'
_cell_length_a     26.73292
_cell_length_b     26.749701
_cell_length_c     21.009639
_cell_angle_alpha  89.993826
_cell_angle_beta   89.998582
_cell_angle_gamma 119.98243
loop_
_atom_site_label
_atom_site_type_symbol
_atom_site_fract_x
_atom_site_fract_y
_atom_site_fract_z
_atom_type_partial_charge
Co0 Co 0.25655 0.4616 0.11546 0.0
C1 C 0.16241 0.38105 0.20245 0.0
C2 C 0.23794 0.37324 0.21173 0.0
C3 C 0.19808 0.33811 0.25646 0.0
N4 N 0.21492 0.3988 0.17615 0.0
N5 N 0.15082 0.34347 0.25075 0.0
H6 H 0.13427 0.39739 0.18945 0.0
H7 H 0.28171 0.38143 0.20735 0.0
C8 C 0.28313 0.37137 0.07382 0.0
O9 O 0.22758 0.33611 0.08259 0.0
N10 N 0.29711 0.52578 0.05779 0.0
C11 C 0.27286 0.55401 0.03021 0.0
C12 C 0.31461 0.60084 -0.00206 0.0
C13 C 0.35357 0.55577 0.04189 0.0
N14 N 0.36531 0.60214 0.0054 0.0
C15 C 0.14624 0.41584 0.05284 0.0
C16 C 0.18115 0.39174 0.93877 0.0
C17 C 0.12529 0.38379 0.94291 0.0
C18 C 0.10825 0.39656 0.00118 0.0
C19 C 0.21839 0.41357 0.99046 0.0
N20 N 0.20018 0.42268 0.04788 0.0
H21 H 0.13343 0.42919 0.09512 0.0
H22 H 0.26283 0.42531 0.9829 0.0
H23 H 0.22785 0.54183 0.03426 0.0
H24 H 0.38542 0.54485 0.05786 0.0
O25 O 0.22237 0.5026 0.15462 0.0
O26 O 0.3048 0.50895 0.18481 0.0
O27 O 0.30437 0.42546 0.08511 0.0
C28 C 0.26658 0.52519 0.1926 0.0
H29 H 0.20459 0.31319 0.29276 0.0
H30 H 0.30808 0.63136 0.97047 0.0
H31 H 0.19721 0.38276 0.89557 0.0
H32 H 0.06694 0.39431 0.00656 0.0
Co33 Co 0.62205 0.81007 0.77786 0.0
C34 C 0.70276 0.79522 0.86366 0.0
C35 C 0.71378 0.87995 0.87086 0.0
C36 C 0.7493 0.87503 0.9149 0.0
N37 N 0.68599 0.83057 0.83687 0.0
N38 N 0.74196 0.82157 0.91049 0.0
H39 H 0.68459 0.75018 0.85217 0.0
H40 H 0.70696 0.91633 0.86588 0.0
C41 C 0.71336 0.92422 0.73197 0.0
O42 O 0.74682 0.90183 0.74067 0.0
N43 N 0.55663 0.78733 0.72214 0.0
C44 C 0.52705 0.7349 0.69474 0.0
C45 C 0.47967 0.73051 0.66435 0.0
C46 C 0.52685 0.81443 0.70806 0.0
N47 N 0.47931 0.78027 0.67284 0.0
C48 C 0.66668 0.74474 0.71402 0.0
C49 C 0.68682 0.80172 0.59897 0.0
C50 C 0.69684 0.75517 0.60337 0.0
C51 C 0.68579 0.72616 0.66205 0.0
C52 C 0.66527 0.81696 0.65101 0.0
N53 N 0.65849 0.79098 0.70891 0.0
H54 H 0.65499 0.71943 0.75688 0.0
H55 H 0.65248 0.84894 0.64374 0.0
H56 H 0.53872 0.70164 0.69765 0.0
H57 H 0.53877 0.85733 0.72447 0.0
O58 O 0.5809 0.73534 0.81756 0.0
O59 O 0.57673 0.81237 0.84875 0.0
O60 O 0.65952 0.89389 0.7464 0.0
C61 C 0.55983 0.75776 0.85649 0.0
H62 H 0.77591 0.90706 0.94991 0.0
H63 H 0.44813 0.69367 0.63741 0.0
H64 H 0.69437 0.8261 0.55548 0.0
H65 H 0.68957 0.68799 0.66766 0.0
Co66 Co 0.27203 0.8299 0.44708 0.0
C67 C 0.28278 0.92159 0.53562 0.0
C68 C 0.19558 0.85219 0.53115 0.0
C69 C 0.19886 0.89149 0.57594 0.0
N70 N 0.24788 0.87216 0.5037 0.0
N71 N 0.25394 0.93503 0.57876 0.0
H72 H 0.3291 0.94576 0.53052 0.0
H73 H 0.158 0.81065 0.52161 0.0
C74 C 0.16063 0.80504 0.39048 0.0
O75 O 0.1816 0.86082 0.39777 0.0
N76 N 0.29835 0.78835 0.39427 0.0
C77 C 0.35242 0.81148 0.37107 0.0
C78 C 0.35769 0.76947 0.33958 0.0
C79 C 0.27116 0.73234 0.37656 0.0
N80 N 0.30679 0.71975 0.34308 0.0
C81 C 0.32912 0.94248 0.38594 0.0
C82 C 0.28909 0.90038 0.2652 0.0
C83 C 0.32527 0.95983 0.27337 0.0
C84 C 0.34536 0.98082 0.33483 0.0
C85 C 0.27332 0.86388 0.31754 0.0
N86 N 0.29184 0.88497 0.37754 0.0
H87 H 0.34843 0.95921 0.43137 0.0
H88 H 0.24683 0.81802 0.30943 0.0
H89 H 0.38584 0.85607 0.37679 0.0
H90 H 0.22683 0.7015 0.38856 0.0
O91 O 0.34558 0.8651 0.4897 0.0
O92 O 0.26874 0.78292 0.51907 0.0
O93 O 0.18983 0.78214 0.41132 0.0
C94 C 0.32297 0.82135 0.52829 0.0
H95 H 0.16416 0.88673 0.60652 0.0
H96 H 0.39578 0.77535 0.31483 0.0
H97 H 0.2743 0.88167 0.21849 0.0
H98 H 0.37401 1.02637 0.34348 0.0
Co99 Co 0.47491 0.23563 0.87776 0.0
C100 C 0.39337 0.14301 0.7905 0.0
C101 C 0.37565 0.21249 0.79422 0.0
C102 C 0.33945 0.17284 0.74984 0.0
N103 N 0.40809 0.19274 0.82187 0.0
N104 N 0.35092 0.12924 0.74747 0.0
H105 H 0.41554 0.11889 0.79584 0.0
H106 H 0.37973 0.25415 0.80328 0.0
C107 C 0.38853 0.2606 0.93449 0.0
O108 O 0.35386 0.20472 0.92775 0.0
N109 N 0.54322 0.27776 0.92982 0.0
C110 C 0.57449 0.2549 0.95278 0.0
C111 C 0.62186 0.29711 0.98394 0.0
C112 C 0.57194 0.33382 0.94737 0.0
N113 N 0.62042 0.34669 0.9805 0.0
C114 C 0.41978 0.12357 0.94041 0.0
C115 C 0.42359 0.1674 0.06073 0.0
C116 C 0.40034 0.1081 0.05307 0.0
C117 C 0.39823 0.08592 0.99222 0.0
C118 C 0.44363 0.2032 0.00781 0.0
N119 N 0.44032 0.18127 0.94805 0.0
H120 H 0.42192 0.10625 0.8952 0.0
H121 H 0.46285 0.24912 0.01521 0.0
H122 H 0.56343 0.21034 0.9472 0.0
H123 H 0.55815 0.36447 0.93561 0.0
O124 O 0.51307 0.20019 0.83518 0.0
O125 O 0.51795 0.282 0.80514 0.0
O126 O 0.44052 0.28352 0.91329 0.0
C127 C 0.53385 0.24363 0.79616 0.0
H128 H 0.30945 0.1774 0.71914 0.0
H129 H 0.65428 0.29144 0.0085 0.0
H130 H 0.42659 0.18602 0.10736 0.0
H131 H 0.38216 0.04025 0.98521 0.0
Co132 Co 0.84463 0.25569 0.54655 0.0
C133 C 0.94042 0.27081 0.46089 0.0
C134 C 0.8668 0.18604 0.45356 0.0
C135 C 0.90731 0.19104 0.40959 0.0
N136 N 0.88826 0.23537 0.4876 0.0
N137 N 0.95338 0.24454 0.41408 0.0
H138 H 0.96722 0.31585 0.47243 0.0
H139 H 0.82359 0.1496 0.45844 0.0
C140 C 0.82183 0.14148 0.59217 0.0
O141 O 0.87775 0.16402 0.58382 0.0
N142 N 0.80173 0.27821 0.60221 0.0
C143 C 0.82439 0.33063 0.62959 0.0
C144 C 0.78125 0.33482 0.65994 0.0
C145 C 0.74482 0.25089 0.61629 0.0
N146 N 0.73125 0.28493 0.65146 0.0
C147 C 0.95445 0.32105 0.61059 0.0
C148 C 0.91755 0.2639 0.72555 0.0
C149 C 0.97413 0.31049 0.72121 0.0
C150 C 0.9921 0.33959 0.66259 0.0
C151 C 0.8808 0.24869 0.67347 0.0
N152 N 0.90005 0.27476 0.61561 0.0
H153 H 0.96809 0.34642 0.56777 0.0
H154 H 0.83605 0.21663 0.68065 0.0
H155 H 0.86926 0.36402 0.62668 0.0
H156 H 0.71398 0.20794 0.59991 0.0
O157 O 0.87819 0.33047 0.50698 0.0
O158 O 0.79712 0.25342 0.47555 0.0
O159 O 0.79832 0.17182 0.57782 0.0
C160 C 0.83479 0.30806 0.46793 0.0
H161 H 0.90199 0.15907 0.37456 0.0
H162 H 0.78637 0.37161 0.68684 0.0
H163 H 0.90072 0.23948 0.769 0.0
H164 H 1.03404 0.37778 0.65704 0.0
Co165 Co 0.82803 0.60432 0.20876 0.0
C166 C 0.81453 0.6851 0.12207 0.0
C167 C 0.89785 0.6929 0.11271 0.0
C168 C 0.89315 0.72812 0.06808 0.0
N169 N 0.84927 0.66728 0.14828 0.0
N170 N 0.84052 0.72275 0.07385 0.0
H171 H 0.77003 0.66872 0.13507 0.0
H172 H 0.93342 0.68469 0.11702 0.0
C173 C 0.94479 0.6945 0.25059 0.0
O174 O 0.92448 0.72975 0.24194 0.0
N175 N 0.80433 0.53999 0.26623 0.0
C176 C 0.75177 0.51165 0.29363 0.0
C177 C 0.74666 0.4648 0.32586 0.0
C178 C 0.83084 0.51005 0.28222 0.0
N179 N 0.79612 0.4636 0.31858 0.0
C180 C 0.76341 0.64989 0.27159 0.0
C181 C 0.82237 0.67377 0.38567 0.0
C182 C 0.77448 0.68175 0.38159 0.0
C183 C 0.74468 0.66907 0.32332 0.0
C184 C 0.8378 0.65205 0.33391 0.0
N185 N 0.81052 0.64307 0.27648 0.0
H186 H 0.73728 0.63663 0.22929 0.0
H187 H 0.87049 0.64028 0.34141 0.0
H188 H 0.71891 0.52378 0.28949 0.0
H189 H 0.87369 0.52109 0.26644 0.0
O190 O 0.75288 0.56344 0.1695 0.0
O191 O 0.82898 0.55717 0.13923 0.0
O192 O 0.91197 0.64042 0.23918 0.0
C193 C 0.77454 0.54096 0.13141 0.0
H194 H 0.92458 0.75308 0.0318 0.0
H195 H 0.70956 0.43422 0.35322 0.0
H196 H 0.8474 0.68268 0.42887 0.0
H197 H 0.70561 0.67132 0.31796 0.0
C198 C 0.2394 0.6302 0.28617 0.0
C199 C 0.29388 0.66618 0.31316 0.0
H200 H 0.18808 0.5572 0.22664 0.0
C201 C 0.33748 0.6518 0.30553 0.0
H202 H 0.20515 0.64037 0.29106 0.0
C203 C 0.32784 0.60421 0.26885 0.0
C204 C 0.27448 0.57029 0.23868 0.0
H205 H 0.37964 0.6783 0.32668 0.0
H206 H 0.36291 0.59547 0.26206 0.0
C207 C 0.22987 0.58284 0.249 0.0
C208 C 0.47969 0.73937 0.93139 0.0
C209 C 0.51533 0.721 0.90331 0.0
H210 H 0.40381 0.71553 0.98679 0.0
C211 C 0.50458 0.66474 0.91566 0.0
H212 H 0.487 0.78246 0.92289 0.0
C213 C 0.45714 0.62653 0.9525 0.0
C214 C 0.41925 0.6437 0.97694 0.0
H215 H 0.53164 0.6495 0.89496 0.0
H216 H 0.44827 0.58267 0.95883 0.0
C217 C 0.43193 0.70097 0.9676 0.0
C218 C 0.34126 0.75915 0.60261 0.0
C219 C 0.35963 0.81339 0.57517 0.0
H220 H 0.36531 0.70633 0.65613 0.0
C221 C 0.41616 0.85857 0.58727 0.0
H222 H 0.29801 0.72358 0.59429 0.0
C223 C 0.45466 0.84872 0.62283 0.0
C224 C 0.43752 0.79338 0.64629 0.0
H225 H 0.43146 0.90102 0.56701 0.0
H226 H 0.49873 0.88344 0.6287 0.0
C227 C 0.37992 0.74921 0.6376 0.0
C228 C 0.61391 0.30559 0.72129 0.0
C229 C 0.57836 0.25148 0.74915 0.0
H230 H 0.69058 0.35842 0.66744 0.0
C231 C 0.59 0.20644 0.73744 0.0
H232 H 0.606 0.34105 0.7293 0.0
C233 C 0.63836 0.21635 0.70184 0.0
C234 C 0.67628 0.27163 0.67797 0.0
H235 H 0.56311 0.16409 0.75805 0.0
H236 H 0.64798 0.18179 0.69626 0.0
C237 C 0.66253 0.31561 0.68627 0.0
C238 C 0.86349 0.43931 0.37186 0.0
C239 C 0.80851 0.42208 0.34714 0.0
H240 H 0.91489 0.41642 0.42974 0.0
C241 C 0.76394 0.36477 0.35635 0.0
H242 H 0.89845 0.48321 0.36565 0.0
C243 C 0.77323 0.32639 0.39268 0.0
C244 C 0.82715 0.34483 0.42103 0.0
H245 H 0.72132 0.35016 0.33694 0.0
H246 H 0.73746 0.28326 0.40105 0.0
C247 C 0.87265 0.40113 0.40882 0.0
C248 C 0.64236 0.43602 0.03777 0.0
C249 C 0.66101 0.40031 0.01037 0.0
H250 H 0.66387 0.5087 0.09777 0.0
C251 C 0.71909 0.41493 0.01771 0.0
H252 H 0.59786 0.42565 0.03313 0.0
C253 C 0.75697 0.46242 0.05454 0.0
C254 C 0.73738 0.49603 0.08514 0.0
H255 H 0.73485 0.38864 -0.00376 0.0
H256 H 0.80086 0.47132 0.06111 0.0
C257 C 0.68013 0.48329 0.07508 0.0
C258 C 0.99005 0.31952 0.84017 0.0
C259 C 1.01293 0.32972 0.77802 0.0
H260 H 1.00626 0.32495 0.9398 0.0
C261 C 0.07327 0.35849 0.77087 0.0
H262 H 0.94409 0.29922 0.8486 0.0
C263 C 0.10944 0.37698 0.82394 0.0
C264 C 0.08652 0.36518 0.8861 0.0
H265 H 0.0931 0.36669 0.72431 0.0
H266 H 0.15549 0.40098 0.81552 0.0
C267 C 1.02616 0.33583 0.89324 0.0
C268 C 0.76551 0.68856 0.50058 0.0
C269 C 0.75433 0.70034 0.43844 0.0
H270 H 0.75956 0.6989 0.60023 0.0
C271 C 0.72332 0.72968 0.43134 0.0
H272 H 0.78755 0.66456 0.50898 0.0
C273 C 0.70357 0.74601 0.48442 0.0
C274 C 0.71632 0.73585 0.54656 0.0
H275 H 0.71427 0.74056 0.38479 0.0
H276 H 0.6779 0.76629 0.47601 0.0
C277 C 0.74788 0.70708 0.55367 0.0
C278 C 0.32465 1.02311 0.11206 0.0
C279 C 0.38095 0.07017 0.10912 0.0
H280 H 0.26195 0.95274 0.16755 0.0
C281 C 0.41864 0.0817 0.16051 0.0
H282 H 0.2948 1.01404 0.07304 0.0
C283 C 0.40052 0.04613 0.21399 0.0
C284 C 0.34399 0.99889 0.21746 0.0
H285 H 0.46247 0.11773 0.15879 0.0
H286 H 0.43128 0.05508 0.25193 0.0
C287 C 0.3061 0.98809 0.16605 0.0
C288 C 0.31961 0.26083 0.01358 0.0
C289 C 0.36754 0.29284 0.9738 0.0
H290 H 0.25729 0.26054 0.07681 0.0
C291 C 0.39222 0.35333 0.97217 0.0
H292 H 0.30005 0.2144 0.01761 0.0
C293 C 0.36702 0.38039 0.00704 0.0
C294 C 0.31715 0.34725 0.04419 0.0
H295 H 0.42946 0.37929 0.94244 0.0
H296 H 0.38502 0.42661 0.00289 0.0
C297 C 0.29503 0.28747 0.04809 0.0
C298 C 0.73213 0.05933 0.64534 0.0
C299 C 0.7904 0.08501 0.62617 0.0
H300 H 0.66119 0.98792 0.69417 0.0
C301 C 0.82154 0.05742 0.64281 0.0
H302 H 0.70693 0.07959 0.63366 0.0
C303 C 0.79618 1.00655 0.67779 0.0
C304 C 0.73819 0.98032 0.69721 0.0
H305 H 0.86638 0.07531 0.62933 0.0
H306 H 0.82269 0.98765 0.68917 0.0
C307 C 0.70609 1.00714 0.68038 0.0
C308 C 0.0718 0.71239 0.35234 0.0
C309 C 0.10754 0.77289 0.35096 0.0
H310 H 0.99142 0.63914 0.32132 0.0
C311 C 0.09166 0.80499 0.31128 0.0
H312 H 0.08306 0.68638 0.38199 0.0
C313 C 1.04051 0.7784 0.27663 0.0
C314 C 1.00291 0.71859 0.2803 0.0
H315 H 0.1185 0.85143 0.30745 0.0
H316 H 1.02971 0.80538 0.24799 0.0
C317 C 1.01961 0.68538 0.31734 0.0
C318 C 1.02744 0.32705 0.35189 0.0
C319 C 1.00345 0.26978 0.37321 0.0
H320 H 0.0929 0.3952 0.29536 0.0
C321 C 1.02865 0.23719 0.35337 0.0
H322 H 1.00857 0.35296 0.36596 0.0
C323 C 0.07728 0.26155 0.31369 0.0
C324 C 0.10086 0.31857 0.29177 0.0
H325 H 1.01111 0.19306 0.36932 0.0
H326 H 0.09606 0.23562 0.29934 0.0
C327 C 0.07528 0.351 0.31106 0.0
C328 C 0.82457 0.82903 0.97131 0.0
C329 C 0.76679 0.79639 0.95143 0.0
H330 H 0.89355 0.83064 0.02537 0.0
C331 C 0.73355 0.73911 0.97272 0.0
H332 H 0.85113 0.87317 0.95538 0.0
C333 C 0.75746 0.71519 0.01355 0.0
C334 C 0.81545 0.74766 0.03286 0.0
H335 H 0.68877 0.71316 0.95862 0.0
H336 H 0.73089 0.67097 0.0292 0.0
C337 C 0.84885 0.80469 0.01099 0.0
C338 C 0.35931 0.05578 0.68383 0.0
C339 C 0.32639 0.08038 0.70467 0.0
H340 H 0.36215 0.99027 0.62835 0.0
C341 C 0.26897 0.05604 0.68352 0.0
H342 H 0.40383 0.07371 0.69845 0.0
C343 C 0.24499 1.00803 0.64287 0.0
C344 C 0.27809 0.98369 0.62183 0.0
H345 H 0.24235 0.07369 0.69907 0.0
H346 H 0.20077 0.99043 0.62716 0.0
C347 C 0.33555 1.00821 0.64288 0.0
loop_
_geom_bond_atom_site_label_1
_geom_bond_atom_site_label_2
_geom_bond_distance
_geom_bond_site_symmetry_2
_ccdc_geom_bond_type
Co0 N4 2.148 . S
Co0 N10 2.128 . S
Co0 N20 2.194 . S
Co0 O25 2.351 . S
Co0 O26 2.155 . S
Co0 O27 2.096 . S
C1 N4 1.301 . S
C1 N5 1.328 . S
C1 H6 0.930 . S
C2 C3 1.333 . S
C2 N4 1.317 . S
C2 H7 0.930 . S
C3 C2 1.333 . S
C3 N5 1.350 . S
C3 H29 0.931 . S
N4 Co0 2.148 . S
N4 C1 1.301 . S
N4 C2 1.317 . S
N5 C1 1.328 . S
N5 C3 1.350 . S
H6 C1 0.930 . S
H7 C2 0.930 . S
C8 O9 1.224 . S
C8 O27 1.247 . S
O9 C8 1.224 . S
N10 Co0 2.128 . S
N10 C11 1.355 1_554 S
N10 C13 1.311 1_554 S
C11 N10 1.355 1_556 S
C11 C12 1.363 . S
C11 H23 0.929 . S
C12 C11 1.363 . S
C12 N14 1.375 . S
C12 H30 0.931 . S
C13 N10 1.311 1_556 S
C13 N14 1.347 . S
C13 H24 0.929 . S
N14 C12 1.375 . S
N14 C13 1.347 . S
C15 C18 1.365 1_554 S
C15 N20 1.328 . S
C15 H21 0.929 . S
C16 C17 1.362 . S
C16 C19 1.378 . S
C16 H31 0.929 . S
C17 C16 1.362 . S
C17 C18 1.366 . S
C18 C15 1.365 1_556 S
C18 C17 1.366 . S
C18 H32 0.930 . S
C19 C16 1.378 . S
C19 N20 1.315 1_556 S
C19 H22 0.930 . S
N20 Co0 2.194 . S
N20 C15 1.328 . S
N20 C19 1.315 1_554 S
H21 C15 0.929 . S
H22 C19 0.930 . S
H23 C11 0.929 . S
H24 C13 0.929 . S
O25 Co0 2.351 . S
O25 C28 1.244 . S
O26 Co0 2.155 . S
O26 C28 1.240 . S
O27 Co0 2.096 . S
O27 C8 1.247 . S
C28 O25 1.244 . S
C28 O26 1.240 . S
H29 C3 0.931 . S
H30 C12 0.931 . S
H31 C16 0.929 . S
H32 C18 0.930 . S
Co33 N37 2.148 . S
Co33 N43 2.128 . S
Co33 N53 2.194 . S
Co33 O58 2.351 . S
Co33 O59 2.155 . S
Co33 O60 2.096 . S
C34 N37 1.301 . S
C34 N38 1.328 . S
C34 H39 0.930 . S
C35 C36 1.333 . S
C35 N37 1.317 . S
C35 H40 0.930 . S
C36 C35 1.333 . S
C36 N38 1.350 . S
C36 H62 0.931 . S
N37 Co33 2.148 . S
N37 C34 1.301 . S
N37 C35 1.317 . S
N38 C34 1.328 . S
N38 C36 1.350 . S
H39 C34 0.930 . S
H40 C35 0.930 . S
C41 O42 1.224 . S
C41 O60 1.247 . S
O42 C41 1.224 . S
N43 Co33 2.128 . S
N43 C44 1.355 . S
N43 C46 1.311 . S
C44 N43 1.355 . S
C44 C45 1.363 . S
C44 H56 0.929 . S
C45 C44 1.363 . S
C45 N47 1.375 . S
C45 H63 0.931 . S
C46 N43 1.311 . S
C46 N47 1.347 . S
C46 H57 0.929 . S
N47 C45 1.375 . S
N47 C46 1.347 . S
C48 C51 1.365 . S
C48 N53 1.328 . S
C48 H54 0.929 . S
C49 C50 1.362 . S
C49 C52 1.378 . S
C49 H64 0.929 . S
C50 C49 1.362 . S
C50 C51 1.366 . S
C51 C48 1.365 . S
C51 C50 1.366 . S
C51 H65 0.930 . S
C52 C49 1.378 . S
C52 N53 1.315 . S
C52 H55 0.930 . S
N53 Co33 2.194 . S
N53 C48 1.328 . S
N53 C52 1.315 . S
H54 C48 0.929 . S
H55 C52 0.930 . S
H56 C44 0.929 . S
H57 C46 0.929 . S
O58 Co33 2.351 . S
O58 C61 1.244 . S
O59 Co33 2.155 . S
O59 C61 1.240 . S
O60 Co33 2.096 . S
O60 C41 1.247 . S
C61 O58 1.244 . S
C61 O59 1.240 . S
H62 C36 0.931 . S
H63 C45 0.931 . S
H64 C49 0.929 . S
H65 C51 0.930 . S
Co66 N70 2.148 . S
Co66 N76 2.128 . S
Co66 N86 2.194 . S
Co66 O91 2.351 . S
Co66 O92 2.155 . S
Co66 O93 2.096 . S
C67 N70 1.301 . S
C67 N71 1.328 . S
C67 H72 0.930 . S
C68 C69 1.333 . S
C68 N70 1.317 . S
C68 H73 0.930 . S
C69 C68 1.333 . S
C69 N71 1.350 . S
C69 H95 0.931 . S
N70 Co66 2.148 . S
N70 C67 1.301 . S
N70 C68 1.317 . S
N71 C67 1.328 . S
N71 C69 1.350 . S
H72 C67 0.930 . S
H73 C68 0.930 . S
C74 O75 1.224 . S
C74 O93 1.247 . S
O75 C74 1.224 . S
N76 Co66 2.128 . S
N76 C77 1.355 . S
N76 C79 1.311 . S
C77 N76 1.355 . S
C77 C78 1.363 . S
C77 H89 0.929 . S
C78 C77 1.363 . S
C78 N80 1.375 . S
C78 H96 0.931 . S
C79 N76 1.311 . S
C79 N80 1.347 . S
C79 H90 0.929 . S
N80 C78 1.375 . S
N80 C79 1.347 . S
C81 C84 1.365 . S
C81 N86 1.328 . S
C81 H87 0.929 . S
C82 C83 1.362 . S
C82 C85 1.378 . S
C82 H97 0.929 . S
C83 C82 1.362 . S
C83 C84 1.366 . S
C84 C81 1.365 . S
C84 C83 1.366 . S
C84 H98 0.930 . S
C85 C82 1.378 . S
C85 N86 1.315 . S
C85 H88 0.930 . S
N86 Co66 2.194 . S
N86 C81 1.328 . S
N86 C85 1.315 . S
H87 C81 0.929 . S
H88 C85 0.930 . S
H89 C77 0.929 . S
H90 C79 0.929 . S
O91 Co66 2.351 . S
O91 C94 1.244 . S
O92 Co66 2.155 . S
O92 C94 1.240 . S
O93 Co66 2.096 . S
O93 C74 1.247 . S
C94 O91 1.244 . S
C94 O92 1.240 . S
H95 C69 0.931 . S
H96 C78 0.931 . S
H97 C82 0.929 . S
H98 C84 0.930 . S
Co99 N103 2.148 . S
Co99 N109 2.128 . S
Co99 N119 2.194 . S
Co99 O124 2.351 . S
Co99 O125 2.155 . S
Co99 O126 2.096 . S
C100 N103 1.301 . S
C100 N104 1.328 . S
C100 H105 0.930 . S
C101 C102 1.333 . S
C101 N103 1.317 . S
C101 H106 0.930 . S
C102 C101 1.333 . S
C102 N104 1.350 . S
C102 H128 0.931 . S
N103 Co99 2.148 . S
N103 C100 1.301 . S
N103 C101 1.317 . S
N104 C100 1.328 . S
N104 C102 1.350 . S
H105 C100 0.930 . S
H106 C101 0.930 . S
C107 O108 1.224 . S
C107 O126 1.247 . S
O108 C107 1.224 . S
N109 Co99 2.128 . S
N109 C110 1.355 1_556 S
N109 C112 1.311 1_556 S
C110 N109 1.355 1_554 S
C110 C111 1.363 . S
C110 H122 0.929 . S
C111 C110 1.363 . S
C111 N113 1.375 . S
C111 H129 0.931 . S
C112 N109 1.311 1_554 S
C112 N113 1.347 . S
C112 H123 0.929 . S
N113 C111 1.375 . S
N113 C112 1.347 . S
C114 C117 1.365 1_556 S
C114 N119 1.328 . S
C114 H120 0.929 . S
C115 C116 1.362 . S
C115 C118 1.378 . S
C115 H130 0.929 . S
C116 C115 1.362 . S
C116 C117 1.366 . S
C117 C114 1.365 1_554 S
C117 C116 1.366 . S
C117 H131 0.930 . S
C118 C115 1.378 . S
C118 N119 1.315 1_554 S
C118 H121 0.930 . S
N119 Co99 2.194 . S
N119 C114 1.328 . S
N119 C118 1.315 1_556 S
H120 C114 0.929 . S
H121 C118 0.930 . S
H122 C110 0.929 . S
H123 C112 0.929 . S
O124 Co99 2.351 . S
O124 C127 1.244 . S
O125 Co99 2.155 . S
O125 C127 1.240 . S
O126 Co99 2.096 . S
O126 C107 1.247 . S
C127 O124 1.244 . S
C127 O125 1.240 . S
H128 C102 0.931 . S
H129 C111 0.931 . S
H130 C115 0.929 . S
H131 C117 0.930 . S
Co132 N136 2.148 . S
Co132 N142 2.128 . S
Co132 N152 2.194 . S
Co132 O157 2.351 . S
Co132 O158 2.155 . S
Co132 O159 2.096 . S
C133 N136 1.301 . S
C133 N137 1.328 . S
C133 H138 0.930 . S
C134 C135 1.333 . S
C134 N136 1.317 . S
C134 H139 0.930 . S
C135 C134 1.333 . S
C135 N137 1.350 . S
C135 H161 0.931 . S
N136 Co132 2.148 . S
N136 C133 1.301 . S
N136 C134 1.317 . S
N137 C133 1.328 . S
N137 C135 1.350 . S
H138 C133 0.930 . S
H139 C134 0.930 . S
C140 O141 1.224 . S
C140 O159 1.247 . S
O141 C140 1.224 . S
N142 Co132 2.128 . S
N142 C143 1.355 . S
N142 C145 1.311 . S
C143 N142 1.355 . S
C143 C144 1.363 . S
C143 H155 0.929 . S
C144 C143 1.363 . S
C144 N146 1.375 . S
C144 H162 0.931 . S
C145 N142 1.311 . S
C145 N146 1.347 . S
C145 H156 0.929 . S
N146 C144 1.375 . S
N146 C145 1.347 . S
C147 C150 1.365 . S
C147 N152 1.328 . S
C147 H153 0.929 . S
C148 C149 1.362 . S
C148 C151 1.378 . S
C148 H163 0.929 . S
C149 C148 1.362 . S
C149 C150 1.366 . S
C150 C147 1.365 . S
C150 C149 1.366 . S
C150 H164 0.930 . S
C151 C148 1.378 . S
C151 N152 1.315 . S
C151 H154 0.930 . S
N152 Co132 2.194 . S
N152 C147 1.328 . S
N152 C151 1.315 . S
H153 C147 0.929 . S
H154 C151 0.930 . S
H155 C143 0.929 . S
H156 C145 0.929 . S
O157 Co132 2.351 . S
O157 C160 1.244 . S
O158 Co132 2.155 . S
O158 C160 1.240 . S
O159 Co132 2.096 . S
O159 C140 1.247 . S
C160 O157 1.244 . S
C160 O158 1.240 . S
H161 C135 0.931 . S
H162 C144 0.931 . S
H163 C148 0.929 . S
H164 C150 0.930 . S
Co165 N169 2.148 . S
Co165 N175 2.128 . S
Co165 N185 2.194 . S
Co165 O190 2.351 . S
Co165 O191 2.155 . S
Co165 O192 2.096 . S
C166 N169 1.301 . S
C166 N170 1.328 . S
C166 H171 0.930 . S
C167 C168 1.333 . S
C167 N169 1.317 . S
C167 H172 0.930 . S
C168 C167 1.333 . S
C168 N170 1.350 . S
C168 H194 0.931 . S
N169 Co165 2.148 . S
N169 C166 1.301 . S
N169 C167 1.317 . S
N170 C166 1.328 . S
N170 C168 1.350 . S
H171 C166 0.930 . S
H172 C167 0.930 . S
C173 O174 1.224 . S
C173 O192 1.247 . S
O174 C173 1.224 . S
N175 Co165 2.128 . S
N175 C176 1.355 . S
N175 C178 1.311 . S
C176 N175 1.355 . S
C176 C177 1.363 . S
C176 H188 0.929 . S
C177 C176 1.363 . S
C177 N179 1.375 . S
C177 H195 0.931 . S
C178 N175 1.311 . S
C178 N179 1.347 . S
C178 H189 0.929 . S
N179 C177 1.375 . S
N179 C178 1.347 . S
C180 C183 1.365 . S
C180 N185 1.328 . S
C180 H186 0.929 . S
C181 C182 1.362 . S
C181 C184 1.378 . S
C181 H196 0.929 . S
C182 C181 1.362 . S
C182 C183 1.366 . S
C183 C180 1.365 . S
C183 C182 1.366 . S
C183 H197 0.930 . S
C184 C181 1.378 . S
C184 N185 1.315 . S
C184 H187 0.930 . S
N185 Co165 2.194 . S
N185 C180 1.328 . S
N185 C184 1.315 . S
H186 C180 0.929 . S
H187 C184 0.930 . S
H188 C176 0.929 . S
H189 C178 0.929 . S
O190 Co165 2.351 . S
O190 C193 1.244 . S
O191 Co165 2.155 . S
O191 C193 1.240 . S
O192 Co165 2.096 . S
O192 C173 1.247 . S
C193 O190 1.244 . S
C193 O191 1.240 . S
H194 C168 0.931 . S
H195 C177 0.931 . S
H196 C181 0.929 . S
H197 C183 0.930 . S
C198 C199 1.387 . S
C198 H202 0.950 . S
C198 C207 1.390 . S
C199 C198 1.387 . S
C199 C201 1.387 . S
H200 C207 0.950 . S
C201 C199 1.387 . S
C201 C203 1.390 . S
C201 H205 0.950 . S
H202 C198 0.950 . S
C203 C201 1.390 . S
C203 C204 1.387 . S
C203 H206 0.950 . S
C204 C203 1.387 . S
C204 C207 1.387 . S
H205 C201 0.950 . S
H206 C203 0.950 . S
C207 C198 1.390 . S
C207 H200 0.950 . S
C207 C204 1.387 . S
C208 C209 1.387 . S
C208 H212 0.950 . S
C208 C217 1.390 . S
C209 C208 1.387 . S
C209 C211 1.387 . S
H210 C217 0.950 . S
C211 C209 1.387 . S
C211 C213 1.390 . S
C211 H215 0.950 . S
H212 C208 0.950 . S
C213 C211 1.390 . S
C213 C214 1.387 . S
C213 H216 0.950 . S
C214 C213 1.387 . S
C214 C217 1.387 . S
H215 C211 0.950 . S
H216 C213 0.950 . S
C217 C208 1.390 . S
C217 H210 0.950 . S
C217 C214 1.387 . S
C218 C219 1.387 . S
C218 H222 0.950 . S
C218 C227 1.390 . S
C219 C218 1.387 . S
C219 C221 1.387 . S
H220 C227 0.950 . S
C221 C219 1.387 . S
C221 C223 1.390 . S
C221 H225 0.950 . S
H222 C218 0.950 . S
C223 C221 1.390 . S
C223 C224 1.387 . S
C223 H226 0.950 . S
C224 C223 1.387 . S
C224 C227 1.387 . S
H225 C221 0.950 . S
H226 C223 0.950 . S
C227 C218 1.390 . S
C227 H220 0.950 . S
C227 C224 1.387 . S
C228 C229 1.387 . S
C228 H232 0.950 . S
C228 C237 1.390 . S
C229 C228 1.387 . S
C229 C231 1.387 . S
H230 C237 0.950 . S
C231 C229 1.387 . S
C231 C233 1.390 . S
C231 H235 0.950 . S
H232 C228 0.950 . S
C233 C231 1.390 . S
C233 C234 1.387 . S
C233 H236 0.950 . S
C234 C233 1.387 . S
C234 C237 1.387 . S
H235 C231 0.950 . S
H236 C233 0.950 . S
C237 C228 1.390 . S
C237 H230 0.950 . S
C237 C234 1.387 . S
C238 C239 1.387 . S
C238 H242 0.950 . S
C238 C247 1.390 . S
C239 C238 1.387 . S
C239 C241 1.387 . S
H240 C247 0.950 . S
C241 C239 1.387 . S
C241 C243 1.390 . S
C241 H245 0.950 . S
H242 C238 0.950 . S
C243 C241 1.390 . S
C243 C244 1.387 . S
C243 H246 0.950 . S
C244 C243 1.387 . S
C244 C247 1.387 . S
H245 C241 0.950 . S
H246 C243 0.950 . S
C247 C238 1.390 . S
C247 H240 0.950 . S
C247 C244 1.387 . S
C248 C249 1.387 . S
C248 H252 0.950 . S
C248 C257 1.390 . S
C249 C248 1.387 . S
C249 C251 1.387 . S
H250 C257 0.950 . S
C251 C249 1.387 . S
C251 C253 1.390 . S
C251 H255 0.950 . S
H252 C248 0.950 . S
C253 C251 1.390 . S
C253 C254 1.387 . S
C253 H256 0.950 . S
C254 C253 1.387 . S
C254 C257 1.387 . S
H255 C251 0.950 . S
H256 C253 0.950 . S
C257 C248 1.390 . S
C257 H250 0.950 . S
C257 C254 1.387 . S
C258 C259 1.387 . S
C258 H262 0.950 . S
C258 C267 1.390 . S
C259 C258 1.387 . S
C259 C261 1.387 1_655 S
H260 C267 0.950 . S
C261 C259 1.387 1_455 S
C261 C263 1.390 . S
C261 H265 0.950 . S
H262 C258 0.950 . S
C263 C261 1.390 . S
C263 C264 1.387 . S
C263 H266 0.950 . S
C264 C263 1.387 . S
C264 C267 1.387 1_455 S
H265 C261 0.950 . S
H266 C263 0.950 . S
C267 C258 1.390 . S
C267 H260 0.950 . S
C267 C264 1.387 1_655 S
C268 C269 1.387 . S
C268 H272 0.950 . S
C268 C277 1.390 . S
C269 C268 1.387 . S
C269 C271 1.387 . S
H270 C277 0.950 . S
C271 C269 1.387 . S
C271 C273 1.390 . S
C271 H275 0.950 . S
H272 C268 0.950 . S
C273 C271 1.390 . S
C273 C274 1.387 . S
C273 H276 0.950 . S
C274 C273 1.387 . S
C274 C277 1.387 . S
H275 C271 0.950 . S
H276 C273 0.950 . S
C277 C268 1.390 . S
C277 H270 0.950 . S
C277 C274 1.387 . S
C278 C279 1.387 . S
C278 H282 0.950 . S
C278 C287 1.390 1_545 S
C279 C278 1.387 . S
C279 C281 1.387 . S
H280 C287 0.950 . S
C281 C279 1.387 . S
C281 C283 1.390 1_545 S
C281 H285 0.950 . S
H282 C278 0.950 . S
C283 C281 1.390 1_565 S
C283 C284 1.387 . S
C283 H286 0.950 . S
C284 C283 1.387 . S
C284 C287 1.387 . S
H285 C281 0.950 . S
H286 C283 0.950 . S
C287 C278 1.390 1_565 S
C287 H280 0.950 . S
C287 C284 1.387 . S
C288 C289 1.387 1_554 S
C288 H292 0.950 . S
C288 C297 1.390 . S
C289 C288 1.387 1_556 S
C289 C291 1.387 . S
H290 C297 0.950 . S
C291 C289 1.387 . S
C291 C293 1.390 . S
C291 H295 0.950 . S
H292 C288 0.950 . S
C293 C291 1.390 . S
C293 C294 1.387 1_556 S
C293 H296 0.950 . S
C294 C293 1.387 1_554 S
C294 C297 1.387 . S
H295 C291 0.950 . S
H296 C293 0.950 . S
C297 C288 1.390 . S
C297 H290 0.950 . S
C297 C294 1.387 . S
C298 C299 1.387 . S
C298 H302 0.950 . S
C298 C307 1.390 1_545 S
C299 C298 1.387 . S
C299 C301 1.387 . S
H300 C307 0.950 . S
C301 C299 1.387 . S
C301 C303 1.390 1_545 S
C301 H305 0.950 . S
H302 C298 0.950 . S
C303 C301 1.390 1_565 S
C303 C304 1.387 . S
C303 H306 0.950 . S
C304 C303 1.387 . S
C304 C307 1.387 . S
H305 C301 0.950 . S
H306 C303 0.950 . S
C307 C298 1.390 1_565 S
C307 H300 0.950 . S
C307 C304 1.387 . S
C308 C309 1.387 . S
C308 H312 0.950 . S
C308 C317 1.390 1_455 S
C309 C308 1.387 . S
C309 C311 1.387 . S
H310 C317 0.950 . S
C311 C309 1.387 . S
C311 C313 1.390 1_455 S
C311 H315 0.950 . S
H312 C308 0.950 . S
C313 C311 1.390 1_655 S
C313 C314 1.387 . S
C313 H316 0.950 . S
C314 C313 1.387 . S
C314 C317 1.387 . S
H315 C311 0.950 . S
H316 C313 0.950 . S
C317 C308 1.390 1_655 S
C317 H310 0.950 . S
C317 C314 1.387 . S
C318 C319 1.387 . S
C318 H322 0.950 . S
C318 C327 1.390 1_655 S
C319 C318 1.387 . S
C319 C321 1.387 . S
H320 C327 0.950 . S
C321 C319 1.387 . S
C321 C323 1.390 1_655 S
C321 H325 0.950 . S
H322 C318 0.950 . S
C323 C321 1.390 1_455 S
C323 C324 1.387 . S
C323 H326 0.950 . S
C324 C323 1.387 . S
C324 C327 1.387 . S
H325 C321 0.950 . S
H326 C323 0.950 . S
C327 C318 1.390 1_455 S
C327 H320 0.950 . S
C327 C324 1.387 . S
C328 C329 1.387 . S
C328 H332 0.950 . S
C328 C337 1.390 1_556 S
C329 C328 1.387 . S
C329 C331 1.387 . S
H330 C337 0.950 . S
C331 C329 1.387 . S
C331 C333 1.390 1_556 S
C331 H335 0.950 . S
H332 C328 0.950 . S
C333 C331 1.390 1_554 S
C333 C334 1.387 . S
C333 H336 0.950 . S
C334 C333 1.387 . S
C334 C337 1.387 . S
H335 C331 0.950 . S
H336 C333 0.950 . S
C337 C328 1.390 1_554 S
C337 H330 0.950 . S
C337 C334 1.387 . S
C338 C339 1.387 . S
C338 H342 0.950 . S
C338 C347 1.390 1_545 S
C339 C338 1.387 . S
C339 C341 1.387 . S
H340 C347 0.950 . S
C341 C339 1.387 . S
C341 C343 1.390 1_545 S
C341 H345 0.950 . S
H342 C338 0.950 . S
C343 C341 1.390 1_565 S
C343 C344 1.387 . S
C343 H346 0.950 . S
C344 C343 1.387 . S
C344 C347 1.387 . S
H345 C341 0.950 . S
H346 C343 0.950 . S
C347 C338 1.390 1_565 S
C347 H340 0.950 . S
C347 C344 1.387 . S
C199 N80 1.266 . S
C204 C28 1.362 . S
C209 C61 1.362 . S
C214 N14 1.266 . S
C219 C94 1.363 . S
C224 N47 1.268 . S
C229 C127 1.364 . S
C234 N146 1.269 . S
C239 N179 1.271 . S
C244 C160 1.364 . S
C249 N113 1.270 . S
C254 C193 1.364 . S
C259 C149 0.881 . S
C264 C17 0.881 . S
C269 C182 0.881 . S
C274 C50 0.881 . S
C279 C116 0.881 . S
C284 C83 0.881 . S
C289 C107 1.832 . S
C294 C8 1.833 . S
C299 C140 1.830 . S
C304 C41 1.830 . S
C309 C74 1.830 . S
C314 C173 1.830 . S
C319 N137 1.895 . S
C324 N5 1.895 . S
C329 N38 1.896 . S
C334 N170 1.896 . S
C339 N104 1.895 . S
C344 N71 1.895 . S
