# Generated by pormake.
# Topology smc, (6)-cn, num edge types: 1
# Building blocks:
#     Node 0, Type 0, BuildingBlock: MIFKUJ_clean_sbu_0, # of connection points: 6
#     Node 1, Type 0, BuildingBlock: MIFKUJ_clean_sbu_0, # of connection points: 6
#     Node 2, Type 0, BuildingBlock: MIFKUJ_clean_sbu_0, # of connection points: 6
#     Node 3, Type 0, BuildingBlock: MIFKUJ_clean_sbu_0, # of connection points: 6
#     Node 4, Type 0, BuildingBlock: MIFKUJ_clean_sbu_0, # of connection points: 6
#     Node 5, Type 0, BuildingBlock: MIFKUJ_clean_sbu_0, # of connection points: 6
#     Node 6, Type 0, BuildingBlock: MIFKUJ_clean_sbu_0, # of connection points: 6
#     Node 7, Type 0, BuildingBlock: MIFKUJ_clean_sbu_0, # of connection points: 6
#     Node 8, Type 0, BuildingBlock: MIFKUJ_clean_sbu_0, # of connection points: 6
#     Edge 9, Type (0, 0), BuildingBlock: AJUNOK_clean_linker_0, # of connection points: 2
#     Edge 10, Type (0, 0), BuildingBlock: AJUNOK_clean_linker_0, # of connection points: 2
#     Edge 11, Type (0, 0), BuildingBlock: AJUNOK_clean_linker_0, # of connection points: 2
#     Edge 12, Type (0, 0), BuildingBlock: AJUNOK_clean_linker_0, # of connection points: 2
#     Edge 13, Type (0, 0), BuildingBlock: AJUNOK_clean_linker_0, # of connection points: 2
#     Edge 14, Type (0, 0), BuildingBlock: AJUNOK_clean_linker_0, # of connection points: 2
#     Edge 15, Type (0, 0), BuildingBlock: AJUNOK_clean_linker_0, # of connection points: 2
#     Edge 16, Type (0, 0), BuildingBlock: AJUNOK_clean_linker_0, # of connection points: 2
#     Edge 17, Type (0, 0), BuildingBlock: AJUNOK_clean_linker_0, # of connection points: 2
#     Edge 18, Type (0, 0), BuildingBlock: AJUNOK_clean_linker_0, # of connection points: 2
#     Edge 19, Type (0, 0), BuildingBlock: AJUNOK_clean_linker_0, # of connection points: 2
#     Edge 20, Type (0, 0), BuildingBlock: AJUNOK_clean_linker_0, # of connection points: 2
#     Edge 21, Type (0, 0), BuildingBlock: AJUNOK_clean_linker_0, # of connection points: 2
#     Edge 22, Type (0, 0), BuildingBlock: AJUNOK_clean_linker_0, # of connection points: 2
#     Edge 23, Type (0, 0), BuildingBlock: AJUNOK_clean_linker_0, # of connection points: 2
#     Edge 24, Type (0, 0), BuildingBlock: AJUNOK_clean_linker_0, # of connection points: 2
#     Edge 25, Type (0, 0), BuildingBlock: AJUNOK_clean_linker_0, # of connection points: 2
#     Edge 26, Type (0, 0), BuildingBlock: AJUNOK_clean_linker_0, # of connection points: 2
#     Edge 27, Type (0, 0), BuildingBlock: AJUNOK_clean_linker_0, # of connection points: 2
#     Edge 28, Type (0, 0), BuildingBlock: AJUNOK_clean_linker_0, # of connection points: 2
#     Edge 29, Type (0, 0), BuildingBlock: AJUNOK_clean_linker_0, # of connection points: 2
#     Edge 30, Type (0, 0), BuildingBlock: AJUNOK_clean_linker_0, # of connection points: 2
#     Edge 31, Type (0, 0), BuildingBlock: AJUNOK_clean_linker_0, # of connection points: 2
#     Edge 32, Type (0, 0), BuildingBlock: AJUNOK_clean_linker_0, # of connection points: 2
#     Edge 33, Type (0, 0), BuildingBlock: AJUNOK_clean_linker_0, # of connection points: 2
#     Edge 34, Type (0, 0), BuildingBlock: AJUNOK_clean_linker_0, # of connection points: 2
#     Edge 35, Type (0, 0), BuildingBlock: AJUNOK_clean_linker_0, # of connection points: 2
# Relax obj value: 0.196
# Max RMSD: 0.316
# Mean RMSD: 0.308
data_MOF--net-smc--node1-MIFKUJ_clean_sbu_0--edge1-AJUNOK_clean_linker_0
_symmetry_space_group_name_H-M    P1
_symmetry_Int_Tables_number       1
_symmetry_cell_setting            triclinic
loop_
_symmetry_equiv_pos_as_xyz
'x, y, z'
_cell_length_a     27.368598
_cell_length_b     26.440669
_cell_length_c     28.37509
_cell_angle_alpha  90.361136
_cell_angle_beta   91.902972
_cell_angle_gamma 120.48276
loop_
_atom_site_label
_atom_site_type_symbol
_atom_site_fract_x
_atom_site_fract_y
_atom_site_fract_z
_atom_type_partial_charge
Zn0 Zn 0.08307 0.44301 0.95961 0.0
Zn1 Zn 0.93798 0.39957 0.97632 0.0
C2 C 0.12694 0.56302 0.95798 0.0
O3 O 0.13242 0.55002 0.91443 0.0
C4 C 0.84055 0.28325 0.00734 0.0
O5 O 0.87394 0.28129 0.0407 0.0
O6 O 0.16021 0.45199 0.95838 0.0
O7 O 0.03904 0.37458 0.00014 0.0
O8 O 0.98602 0.40378 0.03393 0.0
C9 C 0.18577 0.4585 -0.00185 0.0
O10 O 0.15957 0.45681 0.03659 0.0
O11 O 0.09938 0.52118 0.98574 0.0
C12 C 0.88555 0.46027 0.94639 0.0
O13 O 0.87496 0.42332 0.91103 0.0
O14 O 0.91892 0.46339 0.97997 0.0
O15 O 0.96111 0.39387 0.91021 0.0
O16 O 0.05076 0.42653 0.8949 0.0
O17 O 0.8603 0.32639 0.97975 0.0
C18 C 0.01859 0.38271 0.03669 0.0
C19 C -0.00078 0.404 0.88118 0.0
Zn20 Zn 0.63903 0.54559 0.01967 0.0
Zn21 Zn 0.54117 0.62135 -0.01366 0.0
C22 C 0.57176 0.43527 0.06322 0.0
O23 O 0.59569 0.4683 0.10137 0.0
C24 C 0.54219 0.72167 0.95571 0.0
O25 O 0.53288 0.69153 0.91614 0.0
O26 O 0.71403 0.55032 0.0143 0.0
O27 O 0.62534 0.58069 0.95961 0.0
O28 O 0.57746 0.61941 0.92723 0.0
C29 C 0.71465 0.52257 0.97784 0.0
O30 O 0.66906 0.49712 0.94957 0.0
O31 O 0.58181 0.45936 0.02325 0.0
C32 C 0.42798 0.54821 0.01716 0.0
O33 O 0.45278 0.56973 0.05881 0.0
O34 O 0.45838 0.56165 0.9814 0.0
O35 O 0.58358 0.60534 0.03513 0.0
O36 O 0.6361 0.58479 0.07989 0.0
O37 O 0.54909 0.70065 -0.00615 0.0
C38 C 0.61367 0.60299 0.92433 0.0
C39 C 0.60483 0.60704 0.0756 0.0
Zn40 Zn 0.39142 0.91727 -0.00157 0.0
Zn41 Zn 0.48461 0.08176 0.0285 0.0
C42 C 0.46897 0.89074 0.95841 0.0
O43 O 0.44171 0.89245 0.92002 0.0
C44 C 0.48763 0.18552 0.07198 0.0
O45 O 0.46826 0.15454 0.11 0.0
O46 O 0.32259 0.83686 0.98581 0.0
O47 O 0.38296 0.94226 0.0623 0.0
O48 O 0.43744 0.03671 0.08322 0.0
C49 C 0.29659 0.80062 0.01795 0.0
O50 O 0.31505 0.81554 0.06199 0.0
O51 O 0.45792 0.90532 -0.00242 0.0
C52 C 0.59442 0.13278 -0.00272 0.0
O53 O 0.56794 0.14904 0.96706 0.0
O54 O 0.56541 0.09674 0.0287 0.0
O55 O 0.44501 0.05878 0.96454 0.0
O56 O 0.38814 0.9646 0.94528 0.0
O57 O 0.4967 0.16283 0.0362 0.0
C58 C 0.39985 0.98432 0.09213 0.0
C59 C 0.41105 0.01845 0.93556 0.0
Zn60 Zn 0.74013 0.78038 0.31205 0.0
Zn61 Zn 0.59157 0.73092 0.33442 0.0
C62 C 0.76647 0.89119 0.27709 0.0
O63 O 0.7741 0.86811 0.23888 0.0
C64 C 0.48814 0.62319 0.35424 0.0
O65 O 0.50019 0.64619 0.39721 0.0
O66 O 0.81673 0.79455 0.29406 0.0
O67 O 0.72667 0.75079 0.37646 0.0
O68 O 0.63714 0.72381 0.39021 0.0
C69 C 0.84045 0.76755 0.31102 0.0
O70 O 0.81447 0.72751 0.34271 0.0
O71 O 0.74632 0.85904 0.31252 0.0
C72 C 0.51737 0.7728 0.32435 0.0
O73 O 0.50428 0.73736 0.28743 0.0
O74 O 0.55829 0.78103 0.35221 0.0
O75 O 0.6249 0.75635 0.27023 0.0
O76 O 0.68424 0.72386 0.26466 0.0
O77 O 0.52281 0.65025 0.32221 0.0
C78 C 0.68522 0.73079 0.40345 0.0
C79 C 0.64122 0.72548 0.24922 0.0
Zn80 Zn 0.18975 0.93938 0.32086 0.0
Zn81 Zn 0.25256 0.84599 0.35007 0.0
C82 C 0.08015 0.86726 0.28067 0.0
O83 O 0.10424 0.90593 0.24767 0.0
C84 C 0.36521 0.86055 0.35857 0.0
O85 O 0.38303 0.91698 0.35902 0.0
O86 O 0.17625 0.0069 0.31025 0.0
O87 O 0.22394 0.95079 0.3866 0.0
O88 O 0.26184 0.89615 0.4061 0.0
C89 C 0.18668 0.04858 0.33906 0.0
O90 O 0.21006 0.05103 0.38081 0.0
O91 O 0.11113 0.86823 0.31551 0.0
C92 C 0.17814 0.7339 0.31445 0.0
O93 O 0.21365 0.75771 0.28033 0.0
O94 O 0.18065 0.76724 0.34804 0.0
O95 O 0.2731 0.88765 0.28952 0.0
O96 O 0.24013 0.94552 0.26868 0.0
O97 O 0.31225 0.82377 0.35735 0.0
C98 C 0.24913 0.93482 0.41613 0.0
C99 C 0.27006 0.92245 0.26076 0.0
Zn100 Zn 0.02507 0.24426 0.2948 0.0
Zn101 Zn 0.13485 0.39681 0.31908 0.0
C102 C 0.09349 0.19619 0.28681 0.0
O103 O 0.0671 0.18555 0.2452 0.0
C104 C 0.1084 0.49067 0.34376 0.0
O105 O 0.07178 0.45552 0.37396 0.0
O106 O 0.95545 0.16513 0.28247 0.0
O107 O 0.00439 0.285 0.34253 0.0
O108 O 0.08861 0.35067 0.37437 0.0
C109 C 0.9147 0.14046 0.3102 0.0
O110 O 0.91675 0.16786 0.34963 0.0
O111 O 0.08562 0.22701 0.31681 0.0
C112 C 0.25333 0.45435 0.30145 0.0
O113 O 0.23482 0.46571 0.26191 0.0
O114 O 0.21723 0.4206 0.33043 0.0
O115 O 0.10661 0.37274 0.25127 0.0
O116 O 0.04024 0.28101 0.2334 0.0
O117 O 0.13718 0.47402 0.32094 0.0
C118 C 0.03562 0.31565 0.37748 0.0
C119 C 0.07409 0.33288 0.22132 0.0
Zn120 Zn 0.40803 0.13983 0.66479 0.0
Zn121 Zn 0.25876 0.07058 0.68697 0.0
C122 C 0.43578 0.24029 0.6198 0.0
O123 O 0.43804 0.20662 0.58672 0.0
C124 C 0.15664 0.9551 0.68607 0.0
O125 O 0.1916 0.93501 0.69112 0.0
O126 O 0.49059 0.16534 0.66593 0.0
O127 O 0.38556 0.10572 0.728 0.0
O128 O 0.29532 0.06156 0.74638 0.0
C129 C 0.51512 0.14009 0.64866 0.0
O130 O 0.48487 0.09009 0.62498 0.0
O131 O 0.41122 0.21662 0.65742 0.0
C132 C 0.2448 0.15787 0.64297 0.0
O133 O 0.24596 0.12859 0.60594 0.0
O134 O 0.25806 0.14642 0.68326 0.0
O135 O 0.28037 0.0489 0.62705 0.0
O136 O 0.36989 0.08467 0.60962 0.0
O137 O 0.17614 0.01014 0.68676 0.0
C138 C 0.34694 0.07862 0.75701 0.0
C139 C 0.31729 0.05231 0.59945 0.0
Zn140 Zn 0.96998 0.21278 0.64283 0.0
Zn141 Zn 0.87172 0.29442 0.63207 0.0
C142 C 0.89789 0.10306 0.68906 0.0
O143 O 0.91551 0.13692 0.72728 0.0
C144 C 0.90908 0.41715 0.61665 0.0
O145 O 0.92904 0.40795 0.57813 0.0
O146 O 0.04319 0.21677 0.62773 0.0
O147 O 0.94597 0.2496 0.5899 0.0
O148 O 0.89657 0.29093 0.5668 0.0
C149 C 0.08926 0.24426 0.6525 0.0
O150 O 0.09173 0.27605 0.68927 0.0
O151 O 0.91306 0.12647 0.64911 0.0
C152 C 0.7617 0.25381 0.66476 0.0
O153 O 0.79198 0.30033 0.69235 0.0
O154 O 0.78732 0.23915 0.63601 0.0
O155 O 0.91809 0.27098 0.66991 0.0
O156 O 0.98 0.25525 0.70488 0.0
O157 O 0.88802 0.37674 0.64666 0.0
C158 C 0.93039 0.27255 0.5577 0.0
C159 C 0.94974 0.27881 0.70582 0.0
Zn160 Zn 0.72568 0.5822 0.65647 0.0
Zn161 Zn 0.80586 0.74407 0.68115 0.0
C162 C 0.81514 0.56878 0.62053 0.0
O163 O 0.79134 0.57109 0.58026 0.0
C164 C 0.80729 0.85345 0.71489 0.0
O165 O 0.78713 0.8291 0.75531 0.0
O166 O 0.66329 0.49919 0.64581 0.0
O167 O 0.71072 0.60533 0.71915 0.0
O168 O 0.76193 0.70098 0.73764 0.0
C169 C 0.6114 0.4849 0.64504 0.0
O170 O 0.59829 0.52552 0.653 0.0
O171 O 0.7971 0.57768 0.6586 0.0
C172 C 0.91441 0.7982 0.65068 0.0
O173 O 0.88604 0.80905 0.61803 0.0
O174 O 0.88668 0.76183 0.68225 0.0
O175 O 0.7664 0.71689 0.61764 0.0
O176 O 0.71591 0.62176 0.60028 0.0
O177 O 0.81649 0.82506 0.68368 0.0
C178 C 0.72596 0.64841 0.74765 0.0
C179 C 0.73443 0.67463 0.58943 0.0
C180 C 0.33203 0.50464 0.05083 0.0
C181 C 0.3652 0.51712 0.01101 0.0
C182 C 0.27365 0.48338 0.04617 0.0
C183 C 0.24597 0.47379 0.0015 0.0
H184 H 0.3515 0.51315 0.08604 0.0
H185 H 0.25051 0.47623 0.07804 0.0
S186 S 0.31221 0.49348 0.88581 0.0
N187 N 0.365 0.51354 0.92515 0.0
N188 N 0.2554 0.47385 0.9165 0.0
C189 C 0.27796 0.48297 0.9613 0.0
C190 C 0.33749 0.50451 0.96603 0.0
C191 C 0.50904 0.83584 -7e-05 0.0
C192 C 0.50006 0.85839 0.95777 0.0
C193 C 0.5263 0.79422 -0.00071 0.0
C194 C 0.53534 0.77372 0.95649 0.0
H195 H 0.49931 0.8475 0.03356 0.0
H196 H 0.52935 0.77564 0.03241 0.0
S197 S 0.52961 0.82824 0.83732 0.0
N198 N 0.5101 0.86394 0.87281 0.0
N199 N 0.54279 0.78596 0.87157 0.0
C200 C 0.53165 0.79994 0.91453 0.0
C201 C 0.51399 0.84225 0.91518 0.0
C202 C 0.22856 0.72696 0.95765 0.0
C203 C 0.24806 0.74116 0.00511 0.0
C204 C 0.18677 0.66991 0.94338 0.0
C205 C 0.16245 0.62452 0.97589 0.0
H206 H 0.24683 0.75973 0.93085 0.0
H207 H 0.17485 0.66096 0.90615 0.0
S208 S 0.1949 0.63924 0.10507 0.0
N209 N 0.23687 0.70564 0.08531 0.0
N210 N 0.1583 0.59836 0.05834 0.0
C211 C 0.17923 0.6386 0.02388 0.0
C212 C 0.22208 0.69686 0.03849 0.0
C213 C 0.51519 0.27651 0.02739 0.0
C214 C 0.50212 0.24765 0.07068 0.0
C215 C 0.53464 0.33655 0.02505 0.0
C216 C 0.54232 0.37048 0.06597 0.0
H217 H 0.51179 0.25293 -0.00507 0.0
H218 H 0.54601 0.35683 -0.00897 0.0
S219 S 0.50789 0.31502 0.18746 0.0
N220 N 0.49339 0.25664 0.15498 0.0
N221 N 0.53026 0.3698 0.15064 0.0
C222 C 0.52651 0.3417 0.10922 0.0
C223 C 0.50632 0.28024 0.11156 0.0
C224 C 0.68644 0.2048 0.96318 0.0
C225 C 0.65761 0.16358 -0.00192 0.0
C226 C 0.74546 0.24139 0.96579 0.0
C227 C 0.77881 0.23857 0.00339 0.0
H228 H 0.66317 0.2105 0.93409 0.0
H229 H 0.76481 0.27334 0.93853 0.0
S230 S 0.72529 0.13331 0.10108 0.0
N231 N 0.66759 0.11844 0.0694 0.0
N232 N 0.7789 0.18718 0.07426 0.0
C233 C 0.75107 0.19521 0.03718 0.0
C234 C 0.6905 0.15777 0.03454 0.0
C235 C 0.80272 0.46888 0.91947 0.0
C236 C 0.84899 0.48619 0.9517 0.0
C237 C 0.76094 0.48299 0.92755 0.0
C238 C 0.76361 0.51528 0.9681 0.0
H239 H 0.79702 0.44178 0.88863 0.0
H240 H 0.72524 0.46655 0.90236 0.0
S241 S 0.88084 0.57964 0.05963 0.0
N242 N 0.89867 0.54347 0.02302 0.0
N243 N 0.81991 0.57032 0.03815 0.0
C244 C 0.81169 0.53662 -0.001 0.0
C245 C 0.85443 0.52203 -0.0092 0.0
C246 C 0.93398 0.77507 0.32991 0.0
C247 C 0.89924 0.78555 0.29871 0.0
C248 C 0.99188 0.79865 0.3223 0.0
C249 C 0.01724 0.83325 0.28296 0.0
H250 H 0.91707 0.75087 0.36173 0.0
H251 H 0.01733 0.79174 0.34863 0.0
S252 S 0.94222 0.86495 0.18639 0.0
N253 N 0.89262 0.82674 0.22404 0.0
N254 N 0.001 0.87041 0.20927 0.0
C255 C 0.98186 0.84018 0.24959 0.0
C256 C 0.92304 0.81662 0.25762 0.0
C257 C 0.123 0.1236 0.26788 0.0
C258 C 0.12393 0.16484 0.30005 0.0
C259 C 0.14477 0.08764 0.28057 0.0
C260 C 0.16879 0.09135 0.326 0.0
H261 H 0.10367 0.1175 0.23279 0.0
H262 H 0.14146 0.0557 0.25462 0.0
S263 S 0.18728 0.19654 0.42205 0.0
N264 N 0.15483 0.21051 0.3784 0.0
N265 N 0.19612 0.14295 0.40234 0.0
C266 C 0.17252 0.13432 0.35798 0.0
C267 C 0.15006 0.17102 0.345 0.0
C268 C 0.86652 0.05211 0.2563 0.0
C269 C 0.86895 0.07896 0.3 0.0
C270 C 0.82984 0.99191 0.24789 0.0
C271 C 0.79424 0.95592 0.28293 0.0
H272 H 0.89486 0.07724 0.22885 0.0
H273 H 0.83187 0.97312 0.2145 0.0
S274 S 0.77718 0.00623 0.40057 0.0
N275 N 0.82721 0.06622 0.37662 0.0
N276 N 0.75821 0.95294 0.36084 0.0
C277 C 0.79278 0.98298 0.32539 0.0
C278 C 0.83017 0.0445 0.33394 0.0
C279 C 0.15441 0.6349 0.28465 0.0
C280 C 0.14874 0.66922 0.31975 0.0
C281 C 0.13921 0.57666 0.29234 0.0
C282 C 0.11694 0.54978 0.33522 0.0
H283 H 0.17346 0.65389 0.25164 0.0
H284 H 0.14654 0.55302 0.26476 0.0
S285 S 0.08563 0.61711 0.43617 0.0
N286 N 0.11354 0.6698 0.39742 0.0
N287 N 0.08429 0.55967 0.41148 0.0
C288 C 0.10678 0.58181 0.3693 0.0
C289 C 0.12277 0.64165 0.36165 0.0
C290 C 0.35426 0.52145 0.28104 0.0
C291 C 0.31486 0.48895 0.31523 0.0
C292 C 0.41105 0.56221 0.29375 0.0
C293 C 0.43076 0.57276 0.3413 0.0
H294 H 0.34075 0.517 0.24417 0.0
H295 H 0.43891 0.58767 0.26613 0.0
S296 S 0.34678 0.49424 0.44409 0.0
N297 N 0.30117 0.46611 0.39848 0.0
N298 N 0.4077 0.54312 0.42231 0.0
C299 C 0.39276 0.53809 0.37561 0.0
C300 C 0.33494 0.49607 0.36261 0.0
C301 C 0.38544 0.78362 0.33136 0.0
C302 C 0.40534 0.83922 0.35272 0.0
C303 C 0.42229 0.76301 0.32244 0.0
C304 C 0.48039 0.79656 0.33531 0.0
H305 H 0.34112 0.75613 0.32034 0.0
H306 H 0.40491 0.7201 0.30551 0.0
S307 S 0.55405 0.94453 0.39289 0.0
N308 N 0.48714 0.92757 0.38669 0.0
N309 N 0.55636 0.88777 0.37094 0.0
C310 C 0.50093 0.85175 0.35748 0.0
C311 C 0.46344 0.87339 0.36581 0.0
C312 C 0.66627 0.1738 0.63338 0.0
C313 C 0.6987 0.223 0.66371 0.0
C314 C 0.60693 0.14665 0.62925 0.0
C315 C 0.57766 0.16781 0.65505 0.0
H316 H 0.68685 0.15649 0.61206 0.0
H317 H 0.58403 0.10943 0.60495 0.0
S318 S 0.64225 0.29375 0.7412 0.0
N319 N 0.69655 0.29037 0.72144 0.0
N320 N 0.58559 0.23976 0.71352 0.0
C321 C 0.60947 0.21625 0.68628 0.0
C322 C 0.66977 0.24367 0.69067 0.0
C323 C 0.8765 0.47571 0.66156 0.0
C324 C 0.89821 0.46671 0.62005 0.0
C325 C 0.85386 0.51283 0.66257 0.0
C326 C 0.85144 0.54194 0.62195 0.0
H327 H 0.87412 0.45149 0.6929 0.0
H328 H 0.83469 0.51545 0.6946 0.0
S329 S 0.91189 0.54184 0.50683 0.0
N330 N 0.92321 0.49685 0.53923 0.0
N331 N 0.87983 0.56575 0.54107 0.0
C332 C 0.87738 0.53735 0.58147 0.0
C333 C 0.90104 0.50003 0.58056 0.0
C334 C 0.50971 0.40398 0.64643 0.0
C335 C 0.56632 0.42299 0.63575 0.0
C336 C 0.46691 0.34486 0.64012 0.0
C337 C 0.47907 0.30323 0.62174 0.0
H338 H 0.49855 0.4346 0.66094 0.0
H339 H 0.42423 0.33153 0.65008 0.0
S340 S 0.62016 0.32981 0.58853 0.0
N341 N 0.6319 0.39479 0.60611 0.0
N342 N 0.55156 0.28443 0.59366 0.0
C343 C 0.53517 0.32175 0.61014 0.0
C344 C 0.57879 0.38147 0.61728 0.0
C345 C 0.8296 0.95292 0.74427 0.0
C346 C 0.82393 0.91545 0.70644 0.0
C347 C 0.85131 0.01309 0.73787 0.0
C348 C 0.86788 0.03819 0.69333 0.0
H349 H 0.81916 0.93619 0.77951 0.0
H350 H 0.8566 0.04035 0.76849 0.0
S351 S 0.85565 0.95778 0.58157 0.0
N352 N 0.83228 0.90696 0.62191 0.0
N353 N 0.87282 0.01963 0.60995 0.0
C354 C 0.85957 0.00059 0.65468 0.0
C355 C 0.83774 0.93941 0.66123 0.0
C356 C 0.00919 0.8195 0.6844 0.0
C357 C 0.97693 0.83644 0.65612 0.0
C358 C 0.06767 0.85762 0.6933 0.0
C359 C 0.09553 0.91449 0.67522 0.0
H360 H 0.98904 0.7767 0.70014 0.0
H361 H 0.09089 0.84304 0.71549 0.0
S362 S 0.03128 0.97966 0.59757 0.0
N363 N 0.97821 0.91356 0.60853 0.0
N364 N 0.08732 0.98504 0.62605 0.0
C365 C 0.06407 0.93161 0.64624 0.0
C366 C 0.00498 0.8926 0.63645 0.0
C367 C 0.21593 0.22536 0.67828 0.0
C368 C 0.21347 0.19007 0.63991 0.0
C369 C 0.17803 0.24623 0.68058 0.0
C370 C 0.13573 0.23198 0.64486 0.0
H371 H 0.24565 0.23475 0.70784 0.0
H372 H 0.18 0.27091 0.71192 0.0
S373 S 0.11537 0.14663 0.53416 0.0
N374 N 0.16864 0.14658 0.56307 0.0
N375 N 0.09747 0.18537 0.56765 0.0
C376 C 0.1354 0.20019 0.60476 0.0
C377 C 0.17427 0.17939 0.6022 0.0
C378 C 0.06681 0.40041 0.16499 0.0
C379 C 0.06821 0.3487 0.17283 0.0
C380 C 0.05019 0.41099 0.12071 0.0
C381 C 0.03593 0.37089 0.0828 0.0
H382 H 0.07583 0.43146 0.19378 0.0
H383 H 0.0484 0.45069 0.11613 0.0
S384 S 0.03773 0.23171 0.0842 0.0
N385 N 0.05674 0.25856 0.13875 0.0
N386 N 0.02756 0.27961 0.0549 0.0
C387 C 0.03996 0.32058 0.08957 0.0
C388 C 0.05559 0.30916 0.13483 0.0
C389 C 0.63726 0.72858 0.16208 0.0
C390 C 0.61593 0.69713 0.20342 0.0
C391 C 0.62815 0.69888 0.11863 0.0
C392 C 0.59813 0.63726 0.11596 0.0
H393 H 0.66491 0.77585 0.16401 0.0
H394 H 0.64885 0.72392 0.08799 0.0
S395 S 0.52687 0.53602 0.21295 0.0
N396 N 0.55807 0.60219 0.23817 0.0
N397 N 0.54145 0.54625 0.15656 0.0
C398 C 0.57262 0.60584 0.15626 0.0
C399 C 0.58146 0.63595 0.20019 0.0
C400 C 0.35008 0.00576 0.15409 0.0
C401 C 0.37193 0.97142 0.1374 0.0
C402 C 0.3166 0.98931 0.19375 0.0
C403 C 0.30466 0.93846 0.21843 0.0
H404 H 0.35724 0.04441 0.13541 0.0
H405 H 0.30003 0.01669 0.20511 0.0
S406 S 0.35606 0.83625 0.19011 0.0
N407 N 0.38204 0.88629 0.14917 0.0
N408 N 0.31982 0.85533 0.22393 0.0
C409 C 0.32793 0.90479 0.20263 0.0
C410 C 0.36139 0.92129 0.16204 0.0
C411 C 0.34102 -0.00083 0.86923 0.0
C412 C 0.39564 0.03481 0.8902 0.0
C413 C 0.32484 0.01454 0.82681 0.0
C414 C 0.36313 0.06542 0.80344 0.0
H415 H 0.3103 0.95941 0.88597 0.0
H416 H 0.28251 0.98567 0.81171 0.0
S417 S 0.51133 0.17335 0.84354 0.0
N418 N 0.48786 0.12332 0.88457 0.0
N419 N 0.45796 0.15179 0.80453 0.0
C420 C 0.4179 0.10143 0.82405 0.0
C421 C 0.43402 0.08624 0.86753 0.0
C422 C 0.02626 0.39443 0.80028 0.0
C423 C 0.98305 0.38223 0.8317 0.0
C424 C 0.01425 0.36337 0.75749 0.0
C425 C 0.95859 0.32009 0.74413 0.0
H426 H 0.07029 0.42546 0.81002 0.0
H427 H 0.04916 0.37109 0.73582 0.0
S428 S 0.82893 0.27736 0.80928 0.0
N429 N 0.88109 0.32826 0.8434 0.0
N430 N 0.85907 0.27039 0.76213 0.0
C431 C 0.91425 0.31117 0.77261 0.0
C432 C 0.92636 0.34235 0.81665 0.0
C433 C 0.64178 0.6216 0.79419 0.0
C434 C 0.69876 0.63671 0.79301 0.0
C435 C 0.61442 0.60991 0.83693 0.0
C436 C 0.64286 0.61171 0.87973 0.0
H437 H 0.61845 0.61951 0.76191 0.0
H438 H 0.57063 0.59935 0.83643 0.0
S439 S 0.79247 0.64773 0.8945 0.0
N440 N 0.78281 0.65205 0.8372 0.0
N441 N 0.73143 0.62971 0.91794 0.0
C442 C 0.69978 0.62582 0.87871 0.0
C443 C 0.72779 0.63851 0.83516 0.0
C444 C 0.74782 0.75204 0.47505 0.0
C445 C 0.69463 0.71656 0.45179 0.0
C446 C 0.75981 0.73848 0.51989 0.0
C447 C 0.71958 0.68807 0.54261 0.0
H448 H 0.78053 0.79074 0.45846 0.0
H449 H 0.80141 0.76705 0.53643 0.0
S450 S 0.57363 0.5813 0.49711 0.0
N451 N 0.6008 0.62984 0.45511 0.0
N452 N 0.62396 0.60314 0.53917 0.0
C453 C 0.66608 0.65226 0.5199 0.0
C454 C 0.65338 0.6669 0.47457 0.0
C455 C 0.31695 0.97673 0.4855 0.0
C456 C 0.2647 0.96269 0.46341 0.0
C457 C 0.33374 0.00572 0.52964 0.0
C458 C 0.29816 0.02023 0.55359 0.0
H459 H 0.34563 0.96649 0.46805 0.0
H460 H 0.37478 0.01667 0.54513 0.0
S461 S 0.15547 0.98987 0.51135 0.0
N462 N 0.17683 0.96379 0.46874 0.0
N463 N 0.2073 0.01668 0.55228 0.0
C464 C 0.24503 0.00493 0.53223 0.0
C465 C 0.22859 0.9766 0.48692 0.0
C466 C 0.00556 0.28047 0.50553 0.0
C467 C 0.95566 0.28269 0.51095 0.0
C468 C 0.03242 0.29319 0.46248 0.0
C469 C 0.00966 0.30738 0.42323 0.0
H470 H 0.02458 0.26959 0.53489 0.0
H471 H 0.07048 0.2906 0.45959 0.0
S472 S 0.8811 0.32034 0.41831 0.0
N473 N 0.88555 0.30175 0.47306 0.0
N474 N 0.93555 0.32391 0.39183 0.0
C475 C 0.95999 0.30965 0.42783 0.0
C476 C 0.9331 0.29778 0.47181 0.0
loop_
_geom_bond_atom_site_label_1
_geom_bond_atom_site_label_2
_geom_bond_distance
_geom_bond_site_symmetry_2
_ccdc_geom_bond_type
Zn0 O6 1.969 . S
Zn0 O7 1.965 1_556 S
Zn0 O11 2.024 1_556 S
Zn0 O16 1.969 . S
Zn1 O8 1.969 . S
Zn1 O14 1.969 . S
Zn1 O15 1.965 1_554 S
Zn1 O17 2.024 1_554 S
C2 O3 1.229 . S
C2 O11 1.058 1_556 S
O3 C2 1.229 . S
C4 O5 1.229 . S
C4 O17 1.058 1_554 S
O5 C4 1.229 . S
O6 Zn0 1.969 . S
O6 C9 1.267 1_556 S
O7 Zn0 1.965 1_554 S
O7 C18 1.260 . S
O8 Zn1 1.969 . S
O8 C18 1.258 1_655 S
C9 O6 1.267 1_554 S
C9 O10 1.228 . S
O10 C9 1.228 . S
O11 Zn0 2.024 1_554 S
O11 C2 1.058 1_554 S
C12 O13 1.228 1_554 S
C12 O14 1.267 . S
O13 C12 1.228 1_556 S
O14 Zn1 1.969 . S
O14 C12 1.267 . S
O15 Zn1 1.965 1_556 S
O15 C19 1.260 . S
O16 Zn0 1.969 . S
O16 C19 1.258 1_455 S
O17 Zn1 2.024 1_556 S
O17 C4 1.058 1_556 S
C18 O7 1.260 . S
C18 O8 1.258 1_455 S
C19 O15 1.260 . S
C19 O16 1.258 1_655 S
Zn20 O26 1.969 . S
Zn20 O27 1.965 1_554 S
Zn20 O31 2.024 1_554 S
Zn20 O36 1.969 . S
Zn21 O28 1.969 . S
Zn21 O34 1.969 . S
Zn21 O35 1.965 1_556 S
Zn21 O37 2.024 1_556 S
C22 O23 1.229 . S
C22 O31 1.058 1_554 S
O23 C22 1.229 . S
C24 O25 1.229 . S
C24 O37 1.058 1_556 S
O25 C24 1.229 . S
O26 Zn20 1.969 . S
O26 C29 1.264 1_554 S
O27 Zn20 1.965 1_556 S
O27 C38 1.260 . S
O28 Zn21 1.969 . S
O28 C38 1.258 . S
C29 O26 1.264 1_556 S
C29 O30 1.232 . S
O30 C29 1.232 . S
O31 Zn20 2.024 1_556 S
O31 C22 1.058 1_556 S
C32 O33 1.228 . S
C32 O34 1.267 1_554 S
O33 C32 1.228 . S
O34 Zn21 1.969 . S
O34 C32 1.267 1_556 S
O35 Zn21 1.965 1_554 S
O35 C39 1.260 . S
O36 Zn20 1.969 . S
O36 C39 1.258 . S
O37 Zn21 2.024 1_554 S
O37 C24 1.058 1_554 S
C38 O27 1.260 . S
C38 O28 1.258 . S
C39 O35 1.260 . S
C39 O36 1.258 . S
Zn40 O46 1.969 . S
Zn40 O47 1.965 1_556 S
Zn40 O51 2.024 1_556 S
Zn40 O56 1.969 . S
Zn41 O48 1.969 . S
Zn41 O54 1.969 . S
Zn41 O55 1.965 1_554 S
Zn41 O57 2.024 1_554 S
C42 O43 1.229 . S
C42 O51 1.058 1_556 S
O43 C42 1.229 . S
C44 O45 1.229 . S
C44 O57 1.058 1_554 S
O45 C44 1.229 . S
O46 Zn40 1.969 . S
O46 C49 1.267 1_556 S
O47 Zn40 1.965 1_554 S
O47 C58 1.260 . S
O48 Zn41 1.969 . S
O48 C58 1.258 1_545 S
C49 O46 1.267 1_554 S
C49 O50 1.228 . S
O50 C49 1.228 . S
O51 Zn40 2.024 1_554 S
O51 C42 1.058 1_554 S
C52 O53 1.228 1_554 S
C52 O54 1.267 . S
O53 C52 1.228 1_556 S
O54 Zn41 1.969 . S
O54 C52 1.267 . S
O55 Zn41 1.965 1_556 S
O55 C59 1.260 . S
O56 Zn40 1.969 . S
O56 C59 1.258 1_565 S
O57 Zn41 2.024 1_556 S
O57 C44 1.058 1_556 S
C58 O47 1.260 . S
C58 O48 1.258 1_565 S
C59 O55 1.260 . S
C59 O56 1.258 1_545 S
Zn60 O66 1.969 . S
Zn60 O67 1.965 . S
Zn60 O71 2.024 . S
Zn60 O76 1.969 . S
Zn61 O68 1.969 . S
Zn61 O74 1.969 . S
Zn61 O75 1.965 . S
Zn61 O77 2.024 . S
C62 O63 1.229 . S
C62 O71 1.058 . S
O63 C62 1.229 . S
C64 O65 1.229 . S
C64 O77 1.058 . S
O65 C64 1.229 . S
O66 Zn60 1.969 . S
O66 C69 1.267 . S
O67 Zn60 1.965 . S
O67 C78 1.260 . S
O68 Zn61 1.969 . S
O68 C78 1.258 . S
C69 O66 1.267 . S
C69 O70 1.228 . S
O70 C69 1.228 . S
O71 Zn60 2.024 . S
O71 C62 1.058 . S
C72 O73 1.228 . S
C72 O74 1.267 . S
O73 C72 1.228 . S
O74 Zn61 1.969 . S
O74 C72 1.267 . S
O75 Zn61 1.965 . S
O75 C79 1.260 . S
O76 Zn60 1.969 . S
O76 C79 1.258 . S
O77 Zn61 2.024 . S
O77 C64 1.058 . S
C78 O67 1.260 . S
C78 O68 1.258 . S
C79 O75 1.260 . S
C79 O76 1.258 . S
Zn80 O86 1.969 1_565 S
Zn80 O87 1.965 . S
Zn80 O91 2.024 . S
Zn80 O96 1.969 . S
Zn81 O88 1.969 . S
Zn81 O94 1.969 . S
Zn81 O95 1.965 . S
Zn81 O97 2.024 . S
C82 O83 1.229 . S
C82 O91 1.058 . S
O83 C82 1.229 . S
C84 O85 1.229 . S
C84 O97 1.058 . S
O85 C84 1.229 . S
O86 Zn80 1.969 1_545 S
O86 C89 1.267 . S
O87 Zn80 1.965 . S
O87 C98 1.260 . S
O88 Zn81 1.969 . S
O88 C98 1.258 . S
C89 O86 1.267 . S
C89 O90 1.228 . S
O90 C89 1.228 . S
O91 Zn80 2.024 . S
O91 C82 1.058 . S
C92 O93 1.228 . S
C92 O94 1.267 . S
O93 C92 1.228 . S
O94 Zn81 1.969 . S
O94 C92 1.267 . S
O95 Zn81 1.965 . S
O95 C99 1.260 . S
O96 Zn80 1.969 . S
O96 C99 1.258 . S
O97 Zn81 2.024 . S
O97 C84 1.058 . S
C98 O87 1.260 . S
C98 O88 1.258 . S
C99 O95 1.260 . S
C99 O96 1.258 . S
Zn100 O106 1.969 1_455 S
Zn100 O107 1.965 . S
Zn100 O111 2.024 . S
Zn100 O116 1.969 . S
Zn101 O108 1.969 . S
Zn101 O114 1.969 . S
Zn101 O115 1.965 . S
Zn101 O117 2.024 . S
C102 O103 1.229 . S
C102 O111 1.058 . S
O103 C102 1.229 . S
C104 O105 1.229 . S
C104 O117 1.058 . S
O105 C104 1.229 . S
O106 Zn100 1.969 1_655 S
O106 C109 1.267 . S
O107 Zn100 1.965 . S
O107 C118 1.260 . S
O108 Zn101 1.969 . S
O108 C118 1.258 . S
C109 O106 1.267 . S
C109 O110 1.228 . S
O110 C109 1.228 . S
O111 Zn100 2.024 . S
O111 C102 1.058 . S
C112 O113 1.228 . S
C112 O114 1.267 . S
O113 C112 1.228 . S
O114 Zn101 1.969 . S
O114 C112 1.267 . S
O115 Zn101 1.965 . S
O115 C119 1.260 . S
O116 Zn100 1.969 . S
O116 C119 1.258 . S
O117 Zn101 2.024 . S
O117 C104 1.058 . S
C118 O107 1.260 . S
C118 O108 1.258 . S
C119 O115 1.260 . S
C119 O116 1.258 . S
Zn120 O126 1.969 . S
Zn120 O127 1.965 . S
Zn120 O131 2.024 . S
Zn120 O136 1.969 . S
Zn121 O128 1.969 . S
Zn121 O134 1.969 . S
Zn121 O135 1.965 . S
Zn121 O137 2.024 1_545 S
C122 O123 1.229 . S
C122 O131 1.058 . S
O123 C122 1.229 . S
C124 O125 1.229 . S
C124 O137 1.058 . S
O125 C124 1.229 . S
O126 Zn120 1.969 . S
O126 C129 1.267 . S
O127 Zn120 1.965 . S
O127 C138 1.260 . S
O128 Zn121 1.969 . S
O128 C138 1.258 . S
C129 O126 1.267 . S
C129 O130 1.228 . S
O130 C129 1.228 . S
O131 Zn120 2.024 . S
O131 C122 1.058 . S
C132 O133 1.228 . S
C132 O134 1.267 . S
O133 C132 1.228 . S
O134 Zn121 1.969 . S
O134 C132 1.267 . S
O135 Zn121 1.965 . S
O135 C139 1.260 . S
O136 Zn120 1.969 . S
O136 C139 1.258 . S
O137 Zn121 2.024 1_565 S
O137 C124 1.058 . S
C138 O127 1.260 . S
C138 O128 1.258 . S
C139 O135 1.260 . S
C139 O136 1.258 . S
Zn140 O146 1.969 1_655 S
Zn140 O147 1.965 . S
Zn140 O151 2.024 . S
Zn140 O156 1.969 . S
Zn141 O148 1.969 . S
Zn141 O154 1.969 . S
Zn141 O155 1.965 . S
Zn141 O157 2.024 . S
C142 O143 1.229 . S
C142 O151 1.058 . S
O143 C142 1.229 . S
C144 O145 1.229 . S
C144 O157 1.058 . S
O145 C144 1.229 . S
O146 Zn140 1.969 1_455 S
O146 C149 1.267 . S
O147 Zn140 1.965 . S
O147 C158 1.260 . S
O148 Zn141 1.969 . S
O148 C158 1.258 . S
C149 O146 1.267 . S
C149 O150 1.228 . S
O150 C149 1.228 . S
O151 Zn140 2.024 . S
O151 C142 1.058 . S
C152 O153 1.228 . S
C152 O154 1.267 . S
O153 C152 1.228 . S
O154 Zn141 1.969 . S
O154 C152 1.267 . S
O155 Zn141 1.965 . S
O155 C159 1.260 . S
O156 Zn140 1.969 . S
O156 C159 1.258 . S
O157 Zn141 2.024 . S
O157 C144 1.058 . S
C158 O147 1.260 . S
C158 O148 1.258 . S
C159 O155 1.260 . S
C159 O156 1.258 . S
Zn160 O166 1.969 . S
Zn160 O167 1.965 . S
Zn160 O171 2.024 . S
Zn160 O176 1.969 . S
Zn161 O168 1.969 . S
Zn161 O174 1.969 . S
Zn161 O175 1.965 . S
Zn161 O177 2.024 . S
C162 O163 1.229 . S
C162 O171 1.058 . S
O163 C162 1.229 . S
C164 O165 1.229 . S
C164 O177 1.058 . S
O165 C164 1.229 . S
O166 Zn160 1.969 . S
O166 C169 1.267 . S
O167 Zn160 1.965 . S
O167 C178 1.260 . S
O168 Zn161 1.969 . S
O168 C178 1.258 . S
C169 O166 1.267 . S
C169 O170 1.228 . S
O170 C169 1.228 . S
O171 Zn160 2.024 . S
O171 C162 1.058 . S
C172 O173 1.228 . S
C172 O174 1.267 . S
O173 C172 1.228 . S
O174 Zn161 1.969 . S
O174 C172 1.267 . S
O175 Zn161 1.965 . S
O175 C179 1.260 . S
O176 Zn160 1.969 . S
O176 C179 1.258 . S
O177 Zn161 2.024 . S
O177 C164 1.058 . S
C178 O167 1.260 . S
C178 O168 1.258 . S
C179 O175 1.260 . S
C179 O176 1.258 . S
C180 C181 1.369 1_554 S
C180 C182 1.419 . S
C180 H184 0.930 . S
C181 C180 1.369 1_556 S
C181 C190 1.429 . S
C182 C180 1.419 . S
C182 C183 1.363 . S
C182 H185 0.929 . S
C183 C182 1.363 . S
C183 C189 1.428 1_554 S
H184 C180 0.930 . S
H185 C182 0.929 . S
S186 N187 1.613 . S
S186 N188 1.610 . S
N187 S186 1.613 . S
N187 C190 1.350 . S
N188 S186 1.610 . S
N188 C189 1.351 . S
C189 C183 1.428 1_556 S
C189 N188 1.351 . S
C189 C190 1.434 . S
C190 C181 1.429 . S
C190 N187 1.350 . S
C190 C189 1.434 . S
C191 C192 1.369 1_554 S
C191 C193 1.419 . S
C191 H195 0.930 . S
C192 C191 1.369 1_556 S
C192 C201 1.429 . S
C193 C191 1.419 . S
C193 C194 1.363 1_554 S
C193 H196 0.929 . S
C194 C193 1.363 1_556 S
C194 C200 1.428 . S
H195 C191 0.930 . S
H196 C193 0.929 . S
S197 N198 1.613 . S
S197 N199 1.610 . S
N198 S197 1.613 . S
N198 C201 1.350 . S
N199 S197 1.610 . S
N199 C200 1.351 . S
C200 C194 1.428 . S
C200 N199 1.351 . S
C200 C201 1.434 . S
C201 C192 1.429 . S
C201 N198 1.350 . S
C201 C200 1.434 . S
C202 C203 1.369 . S
C202 C204 1.419 . S
C202 H206 0.930 . S
C203 C202 1.369 . S
C203 C212 1.429 1_556 S
C204 C202 1.419 . S
C204 C205 1.363 . S
C204 H207 0.929 . S
C205 C204 1.363 . S
C205 C211 1.428 1_556 S
H206 C202 0.930 . S
H207 C204 0.929 . S
S208 N209 1.613 . S
S208 N210 1.610 . S
N209 S208 1.613 . S
N209 C212 1.350 . S
N210 S208 1.610 . S
N210 C211 1.351 . S
C211 C205 1.428 1_554 S
C211 N210 1.351 . S
C211 C212 1.434 . S
C212 C203 1.429 1_554 S
C212 N209 1.350 . S
C212 C211 1.434 . S
C213 C214 1.369 1_556 S
C213 C215 1.419 . S
C213 H217 0.930 . S
C214 C213 1.369 1_554 S
C214 C223 1.429 . S
C215 C213 1.419 . S
C215 C216 1.363 1_556 S
C215 H218 0.929 . S
C216 C215 1.363 1_554 S
C216 C222 1.428 . S
H217 C213 0.930 . S
H218 C215 0.929 . S
S219 N220 1.613 . S
S219 N221 1.610 . S
N220 S219 1.613 . S
N220 C223 1.350 . S
N221 S219 1.610 . S
N221 C222 1.351 . S
C222 C216 1.428 . S
C222 N221 1.351 . S
C222 C223 1.434 . S
C223 C214 1.429 . S
C223 N220 1.350 . S
C223 C222 1.434 . S
C224 C225 1.369 . S
C224 C226 1.419 . S
C224 H228 0.930 . S
C225 C224 1.369 . S
C225 C234 1.429 . S
C226 C224 1.419 . S
C226 C227 1.363 . S
C226 H229 0.929 . S
C227 C226 1.363 . S
C227 C233 1.428 . S
H228 C224 0.930 . S
H229 C226 0.929 . S
S230 N231 1.613 . S
S230 N232 1.610 . S
N231 S230 1.613 . S
N231 C234 1.350 . S
N232 S230 1.610 . S
N232 C233 1.351 . S
C233 C227 1.428 . S
C233 N232 1.351 . S
C233 C234 1.434 . S
C234 C225 1.429 . S
C234 N231 1.350 . S
C234 C233 1.434 . S
C235 C236 1.369 . S
C235 C237 1.419 . S
C235 H239 0.930 . S
C236 C235 1.369 . S
C236 C245 1.429 1_554 S
C237 C235 1.419 . S
C237 C238 1.363 . S
C237 H240 0.929 . S
C238 C237 1.363 . S
C238 C244 1.428 1_554 S
H239 C235 0.930 . S
H240 C237 0.929 . S
S241 N242 1.613 . S
S241 N243 1.610 . S
N242 S241 1.613 . S
N242 C245 1.350 . S
N243 S241 1.610 . S
N243 C244 1.351 . S
C244 C238 1.428 1_556 S
C244 N243 1.351 . S
C244 C245 1.434 . S
C245 C236 1.429 1_556 S
C245 N242 1.350 . S
C245 C244 1.434 . S
C246 C247 1.369 . S
C246 C248 1.419 . S
C246 H250 0.930 . S
C247 C246 1.369 . S
C247 C256 1.429 . S
C248 C246 1.419 . S
C248 C249 1.363 1_655 S
C248 H251 0.929 1_655 S
C249 C248 1.363 1_455 S
C249 C255 1.428 1_455 S
H250 C246 0.930 . S
H251 C248 0.929 1_455 S
S252 N253 1.613 . S
S252 N254 1.610 . S
N253 S252 1.613 . S
N253 C256 1.350 . S
N254 S252 1.610 . S
N254 C255 1.351 . S
C255 C249 1.428 1_655 S
C255 N254 1.351 . S
C255 C256 1.434 . S
C256 C247 1.429 . S
C256 N253 1.350 . S
C256 C255 1.434 . S
C257 C258 1.369 . S
C257 C259 1.419 . S
C257 H261 0.930 . S
C258 C257 1.369 . S
C258 C267 1.429 . S
C259 C257 1.419 . S
C259 C260 1.363 . S
C259 H262 0.929 . S
C260 C259 1.363 . S
C260 C266 1.428 . S
H261 C257 0.930 . S
H262 C259 0.929 . S
S263 N264 1.613 . S
S263 N265 1.610 . S
N264 S263 1.613 . S
N264 C267 1.350 . S
N265 S263 1.610 . S
N265 C266 1.351 . S
C266 C260 1.428 . S
C266 N265 1.351 . S
C266 C267 1.434 . S
C267 C258 1.429 . S
C267 N264 1.350 . S
C267 C266 1.434 . S
C268 C269 1.369 . S
C268 C270 1.419 . S
C268 H272 0.930 . S
C269 C268 1.369 . S
C269 C278 1.429 . S
C270 C268 1.419 . S
C270 C271 1.363 1_545 S
C270 H273 0.929 . S
C271 C270 1.363 1_565 S
C271 C277 1.428 1_565 S
H272 C268 0.930 . S
H273 C270 0.929 . S
S274 N275 1.613 . S
S274 N276 1.610 1_545 S
N275 S274 1.613 . S
N275 C278 1.350 . S
N276 S274 1.610 1_565 S
N276 C277 1.351 1_565 S
C277 C271 1.428 1_545 S
C277 N276 1.351 1_545 S
C277 C278 1.434 . S
C278 C269 1.429 . S
C278 N275 1.350 . S
C278 C277 1.434 . S
C279 C280 1.369 . S
C279 C281 1.419 . S
C279 H283 0.930 . S
C280 C279 1.369 . S
C280 C289 1.429 . S
C281 C279 1.419 . S
C281 C282 1.363 . S
C281 H284 0.929 . S
C282 C281 1.363 . S
C282 C288 1.428 . S
H283 C279 0.930 . S
H284 C281 0.929 . S
S285 N286 1.613 . S
S285 N287 1.610 . S
N286 S285 1.613 . S
N286 C289 1.350 . S
N287 S285 1.610 . S
N287 C288 1.351 . S
C288 C282 1.428 . S
C288 N287 1.351 . S
C288 C289 1.434 . S
C289 C280 1.429 . S
C289 N286 1.350 . S
C289 C288 1.434 . S
C290 C291 1.369 . S
C290 C292 1.419 . S
C290 H294 0.930 . S
C291 C290 1.369 . S
C291 C300 1.429 . S
C292 C290 1.419 . S
C292 C293 1.363 . S
C292 H295 0.929 . S
C293 C292 1.363 . S
C293 C299 1.428 . S
H294 C290 0.930 . S
H295 C292 0.929 . S
S296 N297 1.613 . S
S296 N298 1.610 . S
N297 S296 1.613 . S
N297 C300 1.350 . S
N298 S296 1.610 . S
N298 C299 1.351 . S
C299 C293 1.428 . S
C299 N298 1.351 . S
C299 C300 1.434 . S
C300 C291 1.429 . S
C300 N297 1.350 . S
C300 C299 1.434 . S
C301 C302 1.369 . S
C301 C303 1.419 . S
C301 H305 0.930 . S
C302 C301 1.369 . S
C302 C311 1.429 . S
C303 C301 1.419 . S
C303 C304 1.363 . S
C303 H306 0.929 . S
C304 C303 1.363 . S
C304 C310 1.428 . S
H305 C301 0.930 . S
H306 C303 0.929 . S
S307 N308 1.613 . S
S307 N309 1.610 . S
N308 S307 1.613 . S
N308 C311 1.350 . S
N309 S307 1.610 . S
N309 C310 1.351 . S
C310 C304 1.428 . S
C310 N309 1.351 . S
C310 C311 1.434 . S
C311 C302 1.429 . S
C311 N308 1.350 . S
C311 C310 1.434 . S
C312 C313 1.369 . S
C312 C314 1.419 . S
C312 H316 0.930 . S
C313 C312 1.369 . S
C313 C322 1.429 . S
C314 C312 1.419 . S
C314 C315 1.363 . S
C314 H317 0.929 . S
C315 C314 1.363 . S
C315 C321 1.428 . S
H316 C312 0.930 . S
H317 C314 0.929 . S
S318 N319 1.613 . S
S318 N320 1.610 . S
N319 S318 1.613 . S
N319 C322 1.350 . S
N320 S318 1.610 . S
N320 C321 1.351 . S
C321 C315 1.428 . S
C321 N320 1.351 . S
C321 C322 1.434 . S
C322 C313 1.429 . S
C322 N319 1.350 . S
C322 C321 1.434 . S
C323 C324 1.369 . S
C323 C325 1.419 . S
C323 H327 0.930 . S
C324 C323 1.369 . S
C324 C333 1.429 . S
C325 C323 1.419 . S
C325 C326 1.363 . S
C325 H328 0.929 . S
C326 C325 1.363 . S
C326 C332 1.428 . S
H327 C323 0.930 . S
H328 C325 0.929 . S
S329 N330 1.613 . S
S329 N331 1.610 . S
N330 S329 1.613 . S
N330 C333 1.350 . S
N331 S329 1.610 . S
N331 C332 1.351 . S
C332 C326 1.428 . S
C332 N331 1.351 . S
C332 C333 1.434 . S
C333 C324 1.429 . S
C333 N330 1.350 . S
C333 C332 1.434 . S
C334 C335 1.369 . S
C334 C336 1.419 . S
C334 H338 0.930 . S
C335 C334 1.369 . S
C335 C344 1.429 . S
C336 C334 1.419 . S
C336 C337 1.363 . S
C336 H339 0.929 . S
C337 C336 1.363 . S
C337 C343 1.428 . S
H338 C334 0.930 . S
H339 C336 0.929 . S
S340 N341 1.613 . S
S340 N342 1.610 . S
N341 S340 1.613 . S
N341 C344 1.350 . S
N342 S340 1.610 . S
N342 C343 1.351 . S
C343 C337 1.428 . S
C343 N342 1.351 . S
C343 C344 1.434 . S
C344 C335 1.429 . S
C344 N341 1.350 . S
C344 C343 1.434 . S
C345 C346 1.369 . S
C345 C347 1.419 . S
C345 H349 0.930 . S
C346 C345 1.369 . S
C346 C355 1.429 . S
C347 C345 1.419 . S
C347 C348 1.363 1_565 S
C347 H350 0.929 1_565 S
C348 C347 1.363 1_545 S
C348 C354 1.428 1_545 S
H349 C345 0.930 . S
H350 C347 0.929 1_545 S
S351 N352 1.613 . S
S351 N353 1.610 . S
N352 S351 1.613 . S
N352 C355 1.350 . S
N353 S351 1.610 . S
N353 C354 1.351 . S
C354 C348 1.428 1_565 S
C354 N353 1.351 . S
C354 C355 1.434 . S
C355 C346 1.429 . S
C355 N352 1.350 . S
C355 C354 1.434 . S
C356 C357 1.369 . S
C356 C358 1.419 . S
C356 H360 0.930 . S
C357 C356 1.369 . S
C357 C366 1.429 . S
C358 C356 1.419 . S
C358 C359 1.363 . S
C358 H361 0.929 . S
C359 C358 1.363 . S
C359 C365 1.428 . S
H360 C356 0.930 . S
H361 C358 0.929 . S
S362 N363 1.613 . S
S362 N364 1.610 . S
N363 S362 1.613 . S
N363 C366 1.350 . S
N364 S362 1.610 . S
N364 C365 1.351 . S
C365 C359 1.428 . S
C365 N364 1.351 . S
C365 C366 1.434 . S
C366 C357 1.429 . S
C366 N363 1.350 . S
C366 C365 1.434 . S
C367 C368 1.369 . S
C367 C369 1.419 . S
C367 H371 0.930 . S
C368 C367 1.369 . S
C368 C377 1.429 . S
C369 C367 1.419 . S
C369 C370 1.363 . S
C369 H372 0.929 . S
C370 C369 1.363 . S
C370 C376 1.428 . S
H371 C367 0.930 . S
H372 C369 0.929 . S
S373 N374 1.613 . S
S373 N375 1.610 . S
N374 S373 1.613 . S
N374 C377 1.350 . S
N375 S373 1.610 . S
N375 C376 1.351 . S
C376 C370 1.428 . S
C376 N375 1.351 . S
C376 C377 1.434 . S
C377 C368 1.429 . S
C377 N374 1.350 . S
C377 C376 1.434 . S
C378 C379 1.369 . S
C378 C380 1.419 . S
C378 H382 0.930 . S
C379 C378 1.369 . S
C379 C388 1.429 . S
C380 C378 1.419 . S
C380 C381 1.363 . S
C380 H383 0.929 . S
C381 C380 1.363 . S
C381 C387 1.428 . S
H382 C378 0.930 . S
H383 C380 0.929 . S
S384 N385 1.613 1_655 S
S384 N386 1.610 . S
N385 S384 1.613 1_455 S
N385 C388 1.350 . S
N386 S384 1.610 . S
N386 C387 1.351 1_655 S
C387 C381 1.428 . S
C387 N386 1.351 1_455 S
C387 C388 1.434 . S
C388 C379 1.429 . S
C388 N385 1.350 . S
C388 C387 1.434 . S
C389 C390 1.369 . S
C389 C391 1.419 . S
C389 H393 0.930 . S
C390 C389 1.369 . S
C390 C399 1.429 . S
C391 C389 1.419 . S
C391 C392 1.363 . S
C391 H394 0.929 . S
C392 C391 1.363 . S
C392 C398 1.428 . S
H393 C389 0.930 . S
H394 C391 0.929 . S
S395 N396 1.613 . S
S395 N397 1.610 . S
N396 S395 1.613 . S
N396 C399 1.350 . S
N397 S395 1.610 . S
N397 C398 1.351 . S
C398 C392 1.428 . S
C398 N397 1.351 . S
C398 C399 1.434 . S
C399 C390 1.429 . S
C399 N396 1.350 . S
C399 C398 1.434 . S
C400 C401 1.369 . S
C400 C402 1.419 . S
C400 H404 0.930 . S
C401 C400 1.369 . S
C401 C410 1.429 . S
C402 C400 1.419 . S
C402 C403 1.363 . S
C402 H405 0.929 . S
C403 C402 1.363 . S
C403 C409 1.428 . S
H404 C400 0.930 . S
H405 C402 0.929 . S
S406 N407 1.613 . S
S406 N408 1.610 . S
N407 S406 1.613 . S
N407 C410 1.350 . S
N408 S406 1.610 . S
N408 C409 1.351 . S
C409 C403 1.428 . S
C409 N408 1.351 . S
C409 C410 1.434 . S
C410 C401 1.429 . S
C410 N407 1.350 . S
C410 C409 1.434 . S
C411 C412 1.369 . S
C411 C413 1.419 . S
C411 H415 0.930 1_545 S
C412 C411 1.369 . S
C412 C421 1.429 . S
C413 C411 1.419 . S
C413 C414 1.363 . S
C413 H416 0.929 . S
C414 C413 1.363 . S
C414 C420 1.428 . S
H415 C411 0.930 1_565 S
H416 C413 0.929 . S
S417 N418 1.613 . S
S417 N419 1.610 . S
N418 S417 1.613 . S
N418 C421 1.350 . S
N419 S417 1.610 . S
N419 C420 1.351 . S
C420 C414 1.428 . S
C420 N419 1.351 . S
C420 C421 1.434 . S
C421 C412 1.429 . S
C421 N418 1.350 . S
C421 C420 1.434 . S
C422 C423 1.369 . S
C422 C424 1.419 . S
C422 H426 0.930 . S
C423 C422 1.369 . S
C423 C432 1.429 . S
C424 C422 1.419 . S
C424 C425 1.363 . S
C424 H427 0.929 . S
C425 C424 1.363 . S
C425 C431 1.428 . S
H426 C422 0.930 . S
H427 C424 0.929 . S
S428 N429 1.613 . S
S428 N430 1.610 . S
N429 S428 1.613 . S
N429 C432 1.350 . S
N430 S428 1.610 . S
N430 C431 1.351 . S
C431 C425 1.428 . S
C431 N430 1.351 . S
C431 C432 1.434 . S
C432 C423 1.429 . S
C432 N429 1.350 . S
C432 C431 1.434 . S
C433 C434 1.369 . S
C433 C435 1.419 . S
C433 H437 0.930 . S
C434 C433 1.369 . S
C434 C443 1.429 . S
C435 C433 1.419 . S
C435 C436 1.363 . S
C435 H438 0.929 . S
C436 C435 1.363 . S
C436 C442 1.428 . S
H437 C433 0.930 . S
H438 C435 0.929 . S
S439 N440 1.613 . S
S439 N441 1.610 . S
N440 S439 1.613 . S
N440 C443 1.350 . S
N441 S439 1.610 . S
N441 C442 1.351 . S
C442 C436 1.428 . S
C442 N441 1.351 . S
C442 C443 1.434 . S
C443 C434 1.429 . S
C443 N440 1.350 . S
C443 C442 1.434 . S
C444 C445 1.369 . S
C444 C446 1.419 . S
C444 H448 0.930 . S
C445 C444 1.369 . S
C445 C454 1.429 . S
C446 C444 1.419 . S
C446 C447 1.363 . S
C446 H449 0.929 . S
C447 C446 1.363 . S
C447 C453 1.428 . S
H448 C444 0.930 . S
H449 C446 0.929 . S
S450 N451 1.613 . S
S450 N452 1.610 . S
N451 S450 1.613 . S
N451 C454 1.350 . S
N452 S450 1.610 . S
N452 C453 1.351 . S
C453 C447 1.428 . S
C453 N452 1.351 . S
C453 C454 1.434 . S
C454 C445 1.429 . S
C454 N451 1.350 . S
C454 C453 1.434 . S
C455 C456 1.369 1_545 S
C455 C457 1.419 . S
C455 H459 0.930 1_545 S
C456 C455 1.369 1_565 S
C456 C465 1.429 . S
C457 C455 1.419 . S
C457 C458 1.363 . S
C457 H460 0.929 . S
C458 C457 1.363 . S
C458 C464 1.428 . S
H459 C455 0.930 1_565 S
H460 C457 0.929 . S
S461 N462 1.613 . S
S461 N463 1.610 1_565 S
N462 S461 1.613 . S
N462 C465 1.350 . S
N463 S461 1.610 1_545 S
N463 C464 1.351 . S
C464 C458 1.428 . S
C464 N463 1.351 . S
C464 C465 1.434 1_545 S
C465 C456 1.429 . S
C465 N462 1.350 . S
C465 C464 1.434 1_565 S
C466 C467 1.369 . S
C466 C468 1.419 1_655 S
C466 H470 0.930 . S
C467 C466 1.369 . S
C467 C476 1.429 . S
C468 C466 1.419 1_455 S
C468 C469 1.363 . S
C468 H471 0.929 . S
C469 C468 1.363 . S
C469 C475 1.428 . S
H470 C466 0.930 . S
H471 C468 0.929 . S
S472 N473 1.613 . S
S472 N474 1.610 1_655 S
N473 S472 1.613 . S
N473 C476 1.350 . S
N474 S472 1.610 1_455 S
N474 C475 1.351 . S
C475 C469 1.428 . S
C475 N474 1.351 . S
C475 C476 1.434 1_455 S
C476 C467 1.429 . S
C476 N473 1.350 . S
C476 C475 1.434 1_655 S
C181 C32 1.375 1_556 S
C183 C9 1.154 . S
C192 C42 1.594 . S
C194 C24 1.282 . S
C203 C49 1.210 1_556 S
C205 C2 1.389 . S
C214 C44 1.334 . S
C216 C22 1.609 . S
C225 C52 1.561 . S
C227 C4 1.239 . S
C236 C12 1.348 . S
C238 C29 1.160 1_554 S
C247 C69 1.393 . S
C249 C82 1.608 . S
C258 C102 1.361 . S
C260 C89 1.165 . S
C269 C109 1.231 . S
C271 C62 1.399 . S
C280 C92 1.390 . S
C282 C104 1.120 . S
C291 C112 1.548 . S
C293 C64 1.214 . S
C302 C84 1.307 . S
C304 C72 1.601 . S
C313 C152 1.331 . S
C315 C129 1.123 . S
C324 C144 1.284 . S
C326 C162 1.584 . S
C335 C169 1.210 . S
C337 C122 1.383 . S
C346 C164 1.301 . S
C348 C142 1.571 . S
C357 C172 1.554 1_455 S
C359 C124 1.225 . S
C368 C132 1.339 . S
C370 C149 1.147 . S
C379 C119 2.252 . S
C381 C18 2.169 . S
C390 C79 2.252 . S
C392 C39 2.253 . S
C401 C58 2.268 . S
C403 C99 2.356 . S
C412 C59 2.260 . S
C414 C138 2.169 . S
C423 C19 2.197 . S
C425 C159 2.201 . S
C434 C178 2.217 . S
C436 C38 2.212 . S
C445 C78 2.182 . S
C447 C179 2.260 . S
C456 C98 2.072 . S
C458 C139 2.155 . S
C467 C158 2.167 . S
C469 C118 2.158 . S
