# Generated by pormake.
# Topology fnv, (5)-cn, num edge types: 1
# Building blocks:
#     Node 0, Type 0, BuildingBlock: BEQFEK_clean_sbu_0, # of connection points: 5
#     Node 1, Type 0, BuildingBlock: BEQFEK_clean_sbu_0, # of connection points: 5
#     Node 2, Type 0, BuildingBlock: BEQFEK_clean_sbu_0, # of connection points: 5
#     Node 3, Type 0, BuildingBlock: BEQFEK_clean_sbu_0, # of connection points: 5
#     Node 4, Type 0, BuildingBlock: BEQFEK_clean_sbu_0, # of connection points: 5
#     Node 5, Type 0, BuildingBlock: BEQFEK_clean_sbu_0, # of connection points: 5
#     Edge 6, Type (0, 0), BuildingBlock: OJICUG_clean_linker_0, # of connection points: 2
#     Edge 7, Type (0, 0), BuildingBlock: OJICUG_clean_linker_0, # of connection points: 2
#     Edge 8, Type (0, 0), BuildingBlock: OJICUG_clean_linker_0, # of connection points: 2
#     Edge 9, Type (0, 0), BuildingBlock: OJICUG_clean_linker_0, # of connection points: 2
#     Edge 10, Type (0, 0), BuildingBlock: OJICUG_clean_linker_0, # of connection points: 2
#     Edge 11, Type (0, 0), BuildingBlock: OJICUG_clean_linker_0, # of connection points: 2
#     Edge 12, Type (0, 0), BuildingBlock: OJICUG_clean_linker_0, # of connection points: 2
#     Edge 13, Type (0, 0), BuildingBlock: OJICUG_clean_linker_0, # of connection points: 2
#     Edge 14, Type (0, 0), BuildingBlock: OJICUG_clean_linker_0, # of connection points: 2
#     Edge 15, Type (0, 0), BuildingBlock: OJICUG_clean_linker_0, # of connection points: 2
#     Edge 16, Type (0, 0), BuildingBlock: OJICUG_clean_linker_0, # of connection points: 2
#     Edge 17, Type (0, 0), BuildingBlock: OJICUG_clean_linker_0, # of connection points: 2
#     Edge 18, Type (0, 0), BuildingBlock: OJICUG_clean_linker_0, # of connection points: 2
#     Edge 19, Type (0, 0), BuildingBlock: OJICUG_clean_linker_0, # of connection points: 2
#     Edge 20, Type (0, 0), BuildingBlock: OJICUG_clean_linker_0, # of connection points: 2
# Relax obj value: 0.508
# Max RMSD: 0.271
# Mean RMSD: 0.271
data_MOF--net-fnv--node1-BEQFEK_clean_sbu_0--edge1-OJICUG_clean_linker_0
_symmetry_space_group_name_H-M    P1
_symmetry_Int_Tables_number       1
_symmetry_cell_setting            triclinic
loop_
_symmetry_equiv_pos_as_xyz
'x, y, z'
_cell_length_a     26.733738
_cell_length_b     26.765375
_cell_length_c     24.683233
_cell_angle_alpha  90.085914
_cell_angle_beta   90.025812
_cell_angle_gamma 120.21292
loop_
_atom_site_label
_atom_site_type_symbol
_atom_site_fract_x
_atom_site_fract_y
_atom_site_fract_z
_atom_type_partial_charge
Co0 Co 0.25364 0.36688 0.91851 0.0
Co1 Co 0.27232 0.46563 -0.00016 0.0
C2 C 0.25973 0.47409 0.87954 0.0
O3 O 0.25234 0.42425 0.86905 0.0
O4 O 0.26699 0.49329 0.92775 0.0
C5 C 0.22102 0.28833 0.82762 0.0
O6 O 0.20857 0.32465 0.80393 0.0
C7 C 0.26652 0.56329 0.04774 0.0
C8 C 0.29724 0.56393 0.13101 0.0
C9 C 0.27886 0.59249 0.09678 0.0
N10 N 0.27685 0.51926 0.05297 0.0
N11 N 0.29568 0.52023 0.10267 0.0
C12 C 0.25092 0.58003 -0.0047 0.0
H13 H 0.21002 0.54321 -0.02043 0.0
H14 H 0.24669 0.61897 -0.00075 0.0
H15 H 0.28559 0.58984 -0.0346 0.0
C16 C 0.15276 0.29995 -0.00811 0.0
N17 N 0.20157 0.34883 -0.02225 0.0
N18 N 0.20998 0.39031 0.01174 0.0
C19 C 0.16709 0.36937 0.04848 0.0
C20 C 0.12969 0.31124 0.03759 0.0
C21 C 0.12838 0.24426 -0.0387 0.0
H22 H 0.16201 0.23179 -0.04266 0.0
H23 H 0.1165 0.25052 0.9198 0.0
H24 H 0.08975 0.20908 -0.01822 0.0
O25 O 0.33598 0.40323 0.94212 0.0
O26 O 0.34666 0.46841 0.00376 0.0
H27 H 0.19121 0.4178 0.12226 0.0
H28 H 0.11486 0.38336 0.10732 0.0
C29 C 0.15883 0.40599 0.08941 0.0
H30 H 0.1658 0.44631 0.07 0.0
H31 H 0.30761 0.49108 0.11715 0.0
O32 O 0.23748 0.29676 0.87683 0.0
C33 C 0.36689 0.44256 -0.02375 0.0
Co34 Co 0.8727 0.2547 0.24609 0.0
Co35 Co 0.79576 0.2753 0.32918 0.0
C36 C 0.77142 0.26182 0.2091 0.0
O37 O 0.81309 0.25352 0.19744 0.0
O38 O 0.76124 0.26987 0.25768 0.0
C39 C 0.91955 0.22338 0.15471 0.0
O40 O 0.87185 0.21275 0.12957 0.0
C41 C 0.6948 0.27262 0.37968 0.0
C42 C 0.72631 0.29923 0.46343 0.0
C43 C 0.67906 0.28347 0.42991 0.0
N44 N 0.74868 0.28099 0.38361 0.0
N45 N 0.76749 0.29759 0.43358 0.0
C46 C 0.66196 0.26017 0.32759 0.0
H47 H 0.68875 0.29424 0.29786 0.0
H48 H 0.6536 0.218 0.31124 0.0
H49 H 0.62067 0.25998 0.33238 0.0
C50 C 0.83976 0.15479 0.32042 0.0
N51 N 0.83951 0.20326 0.30596 0.0
N52 N 0.80746 0.21233 0.3406 0.0
C53 C 0.78621 0.17009 0.37794 0.0
C54 C 0.80654 0.1326 0.36695 0.0
C55 C 0.87069 0.13024 0.28971 0.0
H56 H 0.91698 0.16382 0.28545 0.0
H57 H 0.8521 0.11816 0.24832 0.0
H58 H 0.86726 0.09181 0.31028 0.0
O59 O 0.92062 0.337 0.26913 0.0
O60 O 0.8685 0.3489 0.33233 0.0
H61 H 0.76456 0.19375 0.45332 0.0
H62 H 0.71993 0.11814 0.43687 0.0
C63 C 0.74244 0.16249 0.4199 0.0
H64 H 0.70963 0.17117 0.40182 0.0
H65 H 0.80843 0.30757 0.4473 0.0
O66 O 0.92607 0.2381 0.20437 0.0
C67 C 0.91395 0.36839 0.30386 0.0
Co68 Co 0.6135 0.87956 0.58281 0.0
Co69 Co 0.51845 0.80551 0.66897 0.0
C70 C 0.50487 0.77883 0.54857 0.0
O71 O 0.5554 0.81833 0.53502 0.0
O72 O 0.48798 0.77229 0.59745 0.0
C73 C 0.68998 0.926 0.49023 0.0
O74 O 0.65316 0.87713 0.46646 0.0
C75 C 0.43277 0.69711 0.72066 0.0
C76 C 0.40233 0.73043 0.78715 0.0
C77 C 0.39209 0.67956 0.76228 0.0
N78 N 0.46447 0.75523 0.72112 0.0
N79 N 0.4462 0.7748 0.76105 0.0
C80 C 0.44075 0.66034 0.67973 0.0
H81 H 0.46984 0.68675 0.64668 0.0
H82 H 0.46167 0.63829 0.69937 0.0
H83 H 0.39828 0.62728 0.66289 0.0
C84 C 0.6829 0.84956 0.65748 0.0
N85 N 0.63366 0.84853 0.64324 0.0
N86 N 0.59369 0.81871 0.67967 0.0
C87 C 0.61612 0.80074 0.71858 0.0
C88 C 0.67358 0.81977 0.70603 0.0
C89 C 0.73725 0.87797 0.62468 0.0
H90 H 0.7508 0.92414 0.61859 0.0
H91 H 0.72851 0.85732 0.58409 0.0
H92 H 0.77275 0.87484 0.6447 0.0
O93 O 0.57709 0.92583 0.60568 0.0
O94 O 0.51737 0.87755 0.67326 0.0
H95 H 0.55868 0.78106 0.78584 0.0
H96 H 0.60753 0.75326 0.79302 0.0
C97 C 0.58109 0.7617 0.76399 0.0
H98 H 0.54764 0.71975 0.74688 0.0
H99 H 0.46264 0.81853 0.76954 0.0
O100 O 0.6826 0.93357 0.53984 0.0
C101 C 0.54107 0.92097 0.64205 0.0
Co102 Co 0.7275 0.62324 0.919 0.0
Co103 Co 0.70831 0.52369 -0.00068 0.0
C104 C 0.72133 0.51605 0.87911 0.0
O105 O 0.7285 0.56585 0.86909 0.0
O106 O 0.71405 0.49655 0.92712 0.0
C107 C 0.76191 0.70224 0.82867 0.0
O108 O 0.77517 0.66619 0.80556 0.0
C109 C 0.71341 0.42538 0.04628 0.0
C110 C 0.68235 0.42418 0.12948 0.0
C111 C 0.70073 0.39575 0.09499 0.0
N112 N 0.70329 0.46953 0.05195 0.0
N113 N 0.68426 0.46822 0.1016 0.0
C114 C 0.72914 0.40896 -0.00631 0.0
H115 H 0.77025 0.44577 -0.02155 0.0
H116 H 0.73307 0.36983 -0.00277 0.0
H117 H 0.69471 0.39962 -0.03641 0.0
C118 C 0.82789 0.68948 -0.00645 0.0
N119 N 0.77931 0.6407 -0.02146 0.0
N120 N 0.77065 0.59885 0.01204 0.0
C121 C 0.81316 0.61943 0.04926 0.0
C122 C 0.85052 0.6777 0.03928 0.0
C123 C 0.85236 0.74559 -0.03613 0.0
H124 H 0.81851 0.75773 -0.04036 0.0
H125 H 0.86507 0.7401 0.92247 0.0
H126 H 0.89048 0.78063 -0.01479 0.0
O127 O 0.64516 0.58727 0.94238 0.0
O128 O 0.63412 0.52125 0.003 0.0
H129 H 0.78861 0.57056 0.12261 0.0
H130 H 0.86497 0.60475 0.10803 0.0
C131 C 0.82105 0.5824 0.08989 0.0
H132 H 0.81396 0.54213 0.07013 0.0
H133 H 0.67242 0.49736 0.11637 0.0
O134 O 0.74434 0.69358 0.8775 0.0
C135 C 0.61411 0.54762 -0.02394 0.0
Co136 Co 0.10395 0.72904 0.24999 0.0
Co137 Co 0.181 0.70806 0.33268 0.0
C138 C 0.20594 0.72351 0.21278 0.0
O139 O 0.16405 0.7315 0.2013 0.0
O140 O 0.21596 0.71485 0.2612 0.0
C141 C 0.05849 0.76322 0.1596 0.0
O142 O 0.10716 0.77596 0.13525 0.0
C143 C 0.28215 0.71056 0.38268 0.0
C144 C 0.25151 0.68479 0.46665 0.0
C145 C 0.29845 0.70031 0.43287 0.0
N146 N 0.2283 0.70221 0.38689 0.0
N147 N 0.20998 0.68604 0.43698 0.0
C148 C 0.31453 0.72258 0.33044 0.0
H149 H 0.28714 0.68882 0.30055 0.0
H150 H 0.32366 0.7651 0.31452 0.0
H151 H 0.35541 0.72187 0.3349 0.0
C152 C 0.13627 0.82809 0.32543 0.0
N153 N 0.13657 0.7797 0.31061 0.0
N154 N 0.16871 0.77056 0.34507 0.0
C155 C 0.19005 0.81275 0.38265 0.0
C156 C 0.16964 0.85023 0.37198 0.0
C157 C 0.10548 0.85282 0.29484 0.0
H158 H 0.05937 0.81908 0.2896 0.0
H159 H 0.12477 0.86587 0.25385 0.0
H160 H 0.10821 0.89069 0.31606 0.0
O161 O 0.05644 0.64639 0.27171 0.0
O162 O 0.10854 0.63406 0.33466 0.0
H163 H 0.21269 0.78963 0.45775 0.0
H164 H 0.25719 0.86509 0.44099 0.0
C165 C 0.23438 0.82061 0.42416 0.0
H166 H 0.26691 0.81175 0.40572 0.0
H167 H 0.16919 0.67622 0.45095 0.0
O168 O 0.05073 0.74599 0.20849 0.0
C169 C 0.06323 0.61469 0.30588 0.0
Co170 Co 0.36741 0.10711 0.58395 0.0
Co171 Co 0.46389 0.18312 0.66856 0.0
C172 C 0.47492 0.20759 0.54781 0.0
O173 O 0.42424 0.1676 0.53512 0.0
O174 O 0.49281 0.21518 0.59645 0.0
C175 C 0.28869 0.05884 0.49294 0.0
O176 O 0.32448 0.10753 0.46852 0.0
C177 C 0.55006 0.29246 0.71933 0.0
C178 C 0.58088 0.25996 0.78613 0.0
C179 C 0.59081 0.3105 0.761 0.0
N180 N 0.51854 0.23433 0.72003 0.0
N181 N 0.53708 0.21527 0.76013 0.0
C182 C 0.54199 0.32884 0.67813 0.0
H183 H 0.51371 0.30226 0.64462 0.0
H184 H 0.52017 0.35026 0.69731 0.0
H185 H 0.58449 0.36245 0.66198 0.0
C186 C 0.29909 0.1382 0.65873 0.0
N187 N 0.34815 0.13901 0.64429 0.0
N188 N 0.38865 0.16959 0.68017 0.0
C189 C 0.36672 0.18827 0.71897 0.0
C190 C 0.30907 0.16895 0.70686 0.0
C191 C 0.24433 0.10925 0.6264 0.0
H192 H 0.23054 0.0629 0.62103 0.0
H193 H 0.25262 0.129 0.58549 0.0
H194 H 0.20916 0.11295 0.64639 0.0
O195 O 0.40475 0.06172 0.60661 0.0
O196 O 0.46569 0.11144 0.67315 0.0
H197 H 0.42554 0.20975 0.78548 0.0
H198 H 0.37615 0.23686 0.79297 0.0
C199 C 0.40234 0.22832 0.76373 0.0
H200 H 0.43515 0.2701 0.74599 0.0
H201 H 0.52075 0.17164 0.76889 0.0
O202 O 0.29757 0.05203 0.54231 0.0
C203 C 0.44165 0.06749 0.64245 0.0
C204 C 0.52085 0.50882 0.02629 0.0
C205 C 0.55132 0.52421 -0.02288 0.0
H206 H 0.43751 0.47116 0.0646 0.0
C207 C 0.52063 0.51031 0.92807 0.0
H208 H 0.54383 0.51844 0.06452 0.0
C209 C 0.46027 0.48081 0.92809 0.0
C210 C 0.42974 0.46631 -0.02282 0.0
H211 H 0.5433 0.5207 0.88967 0.0
H212 H 0.43747 0.4708 0.88972 0.0
C213 C 0.46037 0.48123 0.02633 0.0
C214 C 0.00531 0.52197 0.2569 0.0
C215 C 0.02259 0.55212 0.30623 0.0
H216 H 0.95926 0.43937 0.21783 0.0
C217 C 0.00606 0.52126 0.35513 0.0
H218 H 0.0186 0.54492 0.21871 0.0
C219 C 0.97125 0.46101 0.35463 0.0
C220 C 0.95488 0.43087 0.30522 0.0
H221 H 0.01968 0.54379 0.39358 0.0
H222 H 0.95741 0.43792 0.3927 0.0
C223 C 0.97243 0.46174 0.2564 0.0
C224 C 0.505 0.97789 0.59377 0.0
C225 C 0.519 0.96133 0.64279 0.0
H226 H 0.46689 0.02258 0.55556 0.0
C227 C 0.50526 0.97793 0.692 0.0
H228 H 0.51415 0.96454 0.55534 0.0
C229 C 0.47909 0.01186 0.69212 0.0
C230 C 0.46411 0.02746 0.64305 0.0
H231 H 0.51503 0.96489 0.73025 0.0
H232 H 0.47019 0.0256 0.73045 0.0
C233 C 0.477 0.01 0.59391 0.0
C234 C 0.19935 0.67187 0.12753 0.0
C235 C 0.23383 0.70833 0.1696 0.0
H236 H 0.18555 0.60429 0.07275 0.0
C237 C 0.28874 0.71515 0.17886 0.0
H238 H 0.15642 0.66512 0.12012 0.0
C239 C 0.30572 0.68058 0.15134 0.0
C240 C 0.26826 0.63917 0.11381 0.0
H241 H 0.31627 0.74338 0.21081 0.0
H242 H 0.3463 0.6833 0.16223 0.0
C243 C 0.2161 0.6369 0.1003 0.0
C244 C 0.56852 0.29023 0.51796 0.0
C245 C 0.51893 0.23709 0.50568 0.0
H246 H 0.65862 0.34699 0.50248 0.0
C247 C 0.51953 0.20545 0.46055 0.0
H248 H 0.5691 0.31537 0.55265 0.0
C249 C 0.57112 0.2229 0.43261 0.0
C250 C 0.62223 0.27307 0.44851 0.0
H251 H 0.48218 0.16386 0.45082 0.0
H252 H 0.57193 0.19408 0.40228 0.0
C253 C 0.61981 0.30805 0.48959 0.0
C254 C 0.35173 0.57154 0.76999 0.0
C255 C 0.34729 0.62087 0.7804 0.0
H256 H 0.32436 0.48429 0.79179 0.0
C257 C 0.30243 0.61518 0.81444 0.0
H258 H 0.38542 0.57311 0.74508 0.0
C259 C 0.26768 0.56373 0.8422 0.0
C260 C 0.27661 0.51677 0.83591 0.0
H261 H 0.29663 0.65171 0.82265 0.0
H262 H 0.23711 0.56226 0.87185 0.0
C263 C 0.3161 0.51973 0.79691 0.0
C264 C 0.68939 0.27169 0.17544 0.0
C265 C 0.74412 0.27807 0.16623 0.0
H266 H 0.63251 0.30446 0.1593 0.0
C267 C 0.77903 0.31494 0.12473 0.0
H268 H 0.66155 0.24318 0.20696 0.0
C269 C 0.76285 0.35061 0.09804 0.0
C270 C 0.71084 0.34864 0.1115 0.0
H271 H 0.82184 0.32138 0.11738 0.0
H272 H 0.79371 0.38341 0.07095 0.0
C273 C 0.67298 0.30695 0.14845 0.0
C274 C 0.35881 0.67724 0.49265 0.0
C275 C 0.35564 0.71131 0.45118 0.0
H276 H 0.41066 0.67125 0.55538 0.0
C277 C 0.40645 0.76122 0.43444 0.0
H278 H 0.32026 0.63853 0.5062 0.0
C279 C 0.45853 0.77928 0.4618 0.0
C280 C 0.45997 0.74854 0.50719 0.0
H281 H 0.40509 0.78941 0.40381 0.0
H282 H 0.49569 0.82067 0.45134 0.0
C283 C 0.41061 0.69568 0.52044 0.0
C284 C 0.62953 0.41815 0.76936 0.0
C285 C 0.63517 0.36943 0.77912 0.0
H286 H 0.65556 0.50497 0.79196 0.0
C287 C 0.68062 0.37585 0.81274 0.0
H288 H 0.59518 0.41586 0.74489 0.0
C289 C 0.71489 0.42737 0.84077 0.0
C290 C 0.70486 0.47368 0.83512 0.0
H291 H 0.68724 0.33976 0.82047 0.0
H292 H 0.74591 0.42933 0.87018 0.0
C293 C 0.6647 0.47007 0.79651 0.0
C294 C 0.25475 0.22203 0.70827 0.0
C295 C 0.2716 0.18655 0.73478 0.0
H296 H 0.22434 0.28183 0.71711 0.0
C297 C 0.26131 0.17646 0.79049 0.0
H298 H 0.26244 0.2304 0.66527 0.0
C299 C 0.24026 0.2063 0.82039 0.0
C300 C 0.22874 0.24636 0.79484 0.0
H301 H 0.27368 0.14881 0.81153 0.0
H302 H 0.23652 0.2007 0.86394 0.0
C303 C 0.23318 0.25159 0.73808 0.0
C304 C 0.97001 0.23262 0.06645 0.0
C305 C 0.97026 0.23121 0.12346 0.0
H306 H 0.0214 0.25909 -0.00599 0.0
C307 C 0.02221 0.24585 0.15047 0.0
H308 H 0.93067 0.22132 0.04438 0.0
C309 C 0.07378 0.26712 0.12156 0.0
C310 C 0.07427 0.27384 0.06522 0.0
H311 H 0.02382 0.24458 0.19428 0.0
H312 H 0.11396 0.28219 0.14357 0.0
C313 C 0.02179 0.25394 0.03751 0.0
C314 C 0.79755 0.07993 0.45241 0.0
C315 C 0.78993 0.07837 0.3961 0.0
H316 H 0.77257 0.03244 0.52657 0.0
C317 C 0.75734 0.02489 0.36998 0.0
H318 H 0.8227 0.12089 0.47323 0.0
C319 C 0.72832 0.97405 0.40045 0.0
C320 C 0.73139 0.97622 0.45743 0.0
H321 H 0.75069 0.02289 0.32655 0.0
H322 H 0.70027 0.93381 0.37957 0.0
C323 C 0.76864 0.0293 0.48285 0.0
C324 C 0.72205 0.81392 0.78991 0.0
C325 C 0.71151 0.80294 0.73427 0.0
H326 H 0.74689 0.79062 0.86383 0.0
C327 C 0.72831 0.7671 0.7083 0.0
H328 H 0.70975 0.84188 0.81053 0.0
C329 C 0.74995 0.73797 0.73861 0.0
C330 C 0.75445 0.74396 0.79535 0.0
H331 H 0.72044 0.75804 0.66536 0.0
H332 H 0.75868 0.70738 0.71808 0.0
C333 C 0.74309 0.78444 0.82032 0.0
C334 C 0.95838 0.73551 0.04104 0.0
C335 C 0.90543 0.71491 0.06795 0.0
H336 H 0.04938 0.76801 0.04927 0.0
C337 C 0.90495 0.72044 0.12439 0.0
H338 H 0.9595 0.73128 -0.00254 0.0
C339 C 0.956 0.74104 0.15413 0.0
C340 C 0.0084 0.75626 0.12781 0.0
H341 H 0.86439 0.70483 0.1458 0.0
H342 H 0.95364 0.74129 0.19793 0.0
C343 C 0.00966 0.75623 0.0708 0.0
C344 C 0.18071 0.90419 0.45729 0.0
C345 C 0.18698 0.90488 0.40085 0.0
H346 H 0.20735 0.95288 0.53092 0.0
C347 C 0.21878 0.95797 0.37409 0.0
H348 H 0.15616 0.86355 0.4786 0.0
C349 C 0.24837 0.0093 0.40396 0.0
C350 C 0.24667 0.00802 0.46097 0.0
H351 H 0.22439 0.95932 0.33055 0.0
H352 H 0.27578 0.04924 0.38253 0.0
C353 C 0.21021 0.95531 0.48713 0.0
loop_
_geom_bond_atom_site_label_1
_geom_bond_atom_site_label_2
_geom_bond_distance
_geom_bond_site_symmetry_2
_ccdc_geom_bond_type
Co0 O3 1.970 . S
Co0 N17 1.989 1_556 S
Co0 O25 1.967 . S
Co0 O32 1.920 . S
Co1 O4 1.966 1_554 S
Co1 N10 2.022 . S
Co1 N18 1.993 . S
Co1 O26 1.941 . S
C2 O3 1.258 . S
C2 O4 1.263 . S
O3 Co0 1.970 . S
O3 C2 1.258 . S
O4 Co1 1.966 1_556 S
O4 C2 1.263 . S
C5 O6 1.235 . S
C5 O32 1.289 . S
O6 C5 1.235 . S
C7 C9 1.400 . S
C7 N10 1.351 . S
C7 C12 1.501 . S
C8 C9 1.387 . S
C8 N11 1.341 . S
C9 C7 1.400 . S
C9 C8 1.387 . S
N10 Co1 2.022 . S
N10 C7 1.351 . S
N10 N11 1.365 . S
N11 C8 1.341 . S
N11 N10 1.365 . S
N11 H31 0.862 . S
C12 C7 1.501 . S
C12 H13 0.966 . S
C12 H14 0.961 . S
C12 H15 0.960 . S
H13 C12 0.966 . S
H14 C12 0.961 . S
H15 C12 0.960 . S
C16 N17 1.342 . S
C16 C20 1.401 . S
C16 C21 1.499 1_554 S
N17 Co0 1.989 1_554 S
N17 C16 1.342 . S
N17 N18 1.388 . S
N18 Co1 1.993 . S
N18 N17 1.388 . S
N18 C19 1.346 . S
C19 N18 1.346 . S
C19 C20 1.396 . S
C19 C29 1.510 . S
C20 C16 1.401 . S
C20 C19 1.396 . S
C21 C16 1.499 1_556 S
C21 H22 0.959 . S
C21 H23 0.960 . S
C21 H24 0.961 1_556 S
H22 C21 0.959 . S
H23 C21 0.960 . S
H24 C21 0.961 1_554 S
O25 Co0 1.967 . S
O25 C33 1.258 1_556 S
O26 Co1 1.941 . S
O26 C33 1.266 . S
H27 C29 0.959 . S
H28 C29 0.961 . S
C29 C19 1.510 . S
C29 H27 0.959 . S
C29 H28 0.961 . S
C29 H30 0.960 . S
H30 C29 0.960 . S
H31 N11 0.862 . S
O32 Co0 1.920 . S
O32 C5 1.289 . S
C33 O25 1.258 1_554 S
C33 O26 1.266 . S
Co34 O37 1.970 . S
Co34 N51 1.989 . S
Co34 O59 1.967 . S
Co34 O66 1.920 . S
Co35 O38 1.966 . S
Co35 N44 2.022 . S
Co35 N52 1.993 . S
Co35 O60 1.941 . S
C36 O37 1.258 . S
C36 O38 1.263 . S
O37 Co34 1.970 . S
O37 C36 1.258 . S
O38 Co35 1.966 . S
O38 C36 1.263 . S
C39 O40 1.235 . S
C39 O66 1.289 . S
O40 C39 1.235 . S
C41 C43 1.400 . S
C41 N44 1.351 . S
C41 C46 1.501 . S
C42 C43 1.387 . S
C42 N45 1.341 . S
C43 C41 1.400 . S
C43 C42 1.387 . S
N44 Co35 2.022 . S
N44 C41 1.351 . S
N44 N45 1.365 . S
N45 C42 1.341 . S
N45 N44 1.365 . S
N45 H65 0.862 . S
C46 C41 1.501 . S
C46 H47 0.961 . S
C46 H48 0.961 . S
C46 H49 0.960 . S
H47 C46 0.961 . S
H48 C46 0.961 . S
H49 C46 0.960 . S
C50 N51 1.342 . S
C50 C54 1.401 . S
C50 C55 1.499 . S
N51 Co34 1.989 . S
N51 C50 1.342 . S
N51 N52 1.388 . S
N52 Co35 1.993 . S
N52 N51 1.388 . S
N52 C53 1.346 . S
C53 N52 1.346 . S
C53 C54 1.396 . S
C53 C63 1.510 . S
C54 C50 1.401 . S
C54 C53 1.396 . S
C55 C50 1.499 . S
C55 H56 0.959 . S
C55 H57 0.960 . S
C55 H58 0.961 . S
H56 C55 0.959 . S
H57 C55 0.960 . S
H58 C55 0.961 . S
O59 Co34 1.967 . S
O59 C67 1.258 . S
O60 Co35 1.941 . S
O60 C67 1.266 . S
H61 C63 0.959 . S
H62 C63 0.961 . S
C63 C53 1.510 . S
C63 H61 0.959 . S
C63 H62 0.961 . S
C63 H64 0.960 . S
H64 C63 0.960 . S
H65 N45 0.862 . S
O66 Co34 1.920 . S
O66 C39 1.289 . S
C67 O59 1.258 . S
C67 O60 1.266 . S
Co68 O71 1.970 . S
Co68 N85 1.989 . S
Co68 O93 1.967 . S
Co68 O100 1.920 . S
Co69 O72 1.966 . S
Co69 N78 2.022 . S
Co69 N86 1.993 . S
Co69 O94 1.941 . S
C70 O71 1.258 . S
C70 O72 1.263 . S
O71 Co68 1.970 . S
O71 C70 1.258 . S
O72 Co69 1.966 . S
O72 C70 1.263 . S
C73 O74 1.235 . S
C73 O100 1.289 . S
O74 C73 1.235 . S
C75 C77 1.400 . S
C75 N78 1.351 . S
C75 C80 1.501 . S
C76 C77 1.387 . S
C76 N79 1.341 . S
C77 C75 1.400 . S
C77 C76 1.387 . S
N78 Co69 2.022 . S
N78 C75 1.351 . S
N78 N79 1.365 . S
N79 C76 1.341 . S
N79 N78 1.365 . S
N79 H99 0.862 . S
C80 C75 1.501 . S
C80 H81 0.961 . S
C80 H82 0.961 . S
C80 H83 0.960 . S
H81 C80 0.961 . S
H82 C80 0.961 . S
H83 C80 0.960 . S
C84 N85 1.342 . S
C84 C88 1.401 . S
C84 C89 1.499 . S
N85 Co68 1.989 . S
N85 C84 1.342 . S
N85 N86 1.388 . S
N86 Co69 1.993 . S
N86 N85 1.388 . S
N86 C87 1.346 . S
C87 N86 1.346 . S
C87 C88 1.396 . S
C87 C97 1.510 . S
C88 C84 1.401 . S
C88 C87 1.396 . S
C89 C84 1.499 . S
C89 H90 0.959 . S
C89 H91 0.960 . S
C89 H92 0.961 . S
H90 C89 0.959 . S
H91 C89 0.960 . S
H92 C89 0.961 . S
O93 Co68 1.967 . S
O93 C101 1.258 . S
O94 Co69 1.941 . S
O94 C101 1.266 . S
H95 C97 0.959 . S
H96 C97 0.961 . S
C97 C87 1.510 . S
C97 H95 0.959 . S
C97 H96 0.961 . S
C97 H98 0.960 . S
H98 C97 0.960 . S
H99 N79 0.862 . S
O100 Co68 1.920 . S
O100 C73 1.289 . S
C101 O93 1.258 . S
C101 O94 1.266 . S
Co102 O105 1.970 . S
Co102 N119 1.989 1_556 S
Co102 O127 1.967 . S
Co102 O134 1.920 . S
Co103 O106 1.966 1_554 S
Co103 N112 2.022 . S
Co103 N120 1.993 . S
Co103 O128 1.941 . S
C104 O105 1.258 . S
C104 O106 1.263 . S
O105 Co102 1.970 . S
O105 C104 1.258 . S
O106 Co103 1.966 1_556 S
O106 C104 1.263 . S
C107 O108 1.235 . S
C107 O134 1.289 . S
O108 C107 1.235 . S
C109 C111 1.400 . S
C109 N112 1.351 . S
C109 C114 1.501 . S
C110 C111 1.387 . S
C110 N113 1.341 . S
C111 C109 1.400 . S
C111 C110 1.387 . S
N112 Co103 2.022 . S
N112 C109 1.351 . S
N112 N113 1.365 . S
N113 C110 1.341 . S
N113 N112 1.365 . S
N113 H133 0.862 . S
C114 C109 1.501 . S
C114 H115 0.966 . S
C114 H116 0.961 . S
C114 H117 0.960 . S
H115 C114 0.966 . S
H116 C114 0.961 . S
H117 C114 0.960 . S
C118 N119 1.342 . S
C118 C122 1.401 . S
C118 C123 1.499 1_554 S
N119 Co102 1.989 1_554 S
N119 C118 1.342 . S
N119 N120 1.388 . S
N120 Co103 1.993 . S
N120 N119 1.388 . S
N120 C121 1.346 . S
C121 N120 1.346 . S
C121 C122 1.396 . S
C121 C131 1.510 . S
C122 C118 1.401 . S
C122 C121 1.396 . S
C123 C118 1.499 1_556 S
C123 H124 0.959 . S
C123 H125 0.960 . S
C123 H126 0.961 1_556 S
H124 C123 0.959 . S
H125 C123 0.960 . S
H126 C123 0.961 1_554 S
O127 Co102 1.967 . S
O127 C135 1.258 1_556 S
O128 Co103 1.941 . S
O128 C135 1.266 . S
H129 C131 0.959 . S
H130 C131 0.961 . S
C131 C121 1.510 . S
C131 H129 0.959 . S
C131 H130 0.961 . S
C131 H132 0.960 . S
H132 C131 0.960 . S
H133 N113 0.862 . S
O134 Co102 1.920 . S
O134 C107 1.289 . S
C135 O127 1.258 1_554 S
C135 O128 1.266 . S
Co136 O139 1.970 . S
Co136 N153 1.989 . S
Co136 O161 1.967 . S
Co136 O168 1.920 . S
Co137 O140 1.966 . S
Co137 N146 2.022 . S
Co137 N154 1.993 . S
Co137 O162 1.941 . S
C138 O139 1.258 . S
C138 O140 1.263 . S
O139 Co136 1.970 . S
O139 C138 1.258 . S
O140 Co137 1.966 . S
O140 C138 1.263 . S
C141 O142 1.235 . S
C141 O168 1.289 . S
O142 C141 1.235 . S
C143 C145 1.400 . S
C143 N146 1.351 . S
C143 C148 1.501 . S
C144 C145 1.387 . S
C144 N147 1.341 . S
C145 C143 1.400 . S
C145 C144 1.387 . S
N146 Co137 2.022 . S
N146 C143 1.351 . S
N146 N147 1.365 . S
N147 C144 1.341 . S
N147 N146 1.365 . S
N147 H167 0.862 . S
C148 C143 1.501 . S
C148 H149 0.961 . S
C148 H150 0.961 . S
C148 H151 0.960 . S
H149 C148 0.961 . S
H150 C148 0.961 . S
H151 C148 0.960 . S
C152 N153 1.342 . S
C152 C156 1.401 . S
C152 C157 1.499 . S
N153 Co136 1.989 . S
N153 C152 1.342 . S
N153 N154 1.388 . S
N154 Co137 1.993 . S
N154 N153 1.388 . S
N154 C155 1.346 . S
C155 N154 1.346 . S
C155 C156 1.396 . S
C155 C165 1.510 . S
C156 C152 1.401 . S
C156 C155 1.396 . S
C157 C152 1.499 . S
C157 H158 0.959 . S
C157 H159 0.960 . S
C157 H160 0.961 . S
H158 C157 0.959 . S
H159 C157 0.960 . S
H160 C157 0.961 . S
O161 Co136 1.967 . S
O161 C169 1.258 . S
O162 Co137 1.941 . S
O162 C169 1.266 . S
H163 C165 0.959 . S
H164 C165 0.961 . S
C165 C155 1.510 . S
C165 H163 0.959 . S
C165 H164 0.961 . S
C165 H166 0.960 . S
H166 C165 0.960 . S
H167 N147 0.862 . S
O168 Co136 1.920 . S
O168 C141 1.289 . S
C169 O161 1.258 . S
C169 O162 1.266 . S
Co170 O173 1.970 . S
Co170 N187 1.989 . S
Co170 O195 1.967 . S
Co170 O202 1.920 . S
Co171 O174 1.966 . S
Co171 N180 2.022 . S
Co171 N188 1.993 . S
Co171 O196 1.941 . S
C172 O173 1.258 . S
C172 O174 1.263 . S
O173 Co170 1.970 . S
O173 C172 1.258 . S
O174 Co171 1.966 . S
O174 C172 1.263 . S
C175 O176 1.235 . S
C175 O202 1.289 . S
O176 C175 1.235 . S
C177 C179 1.400 . S
C177 N180 1.351 . S
C177 C182 1.501 . S
C178 C179 1.387 . S
C178 N181 1.341 . S
C179 C177 1.400 . S
C179 C178 1.387 . S
N180 Co171 2.022 . S
N180 C177 1.351 . S
N180 N181 1.365 . S
N181 C178 1.341 . S
N181 N180 1.365 . S
N181 H201 0.862 . S
C182 C177 1.501 . S
C182 H183 0.961 . S
C182 H184 0.961 . S
C182 H185 0.960 . S
H183 C182 0.961 . S
H184 C182 0.961 . S
H185 C182 0.960 . S
C186 N187 1.342 . S
C186 C190 1.401 . S
C186 C191 1.499 . S
N187 Co170 1.989 . S
N187 C186 1.342 . S
N187 N188 1.388 . S
N188 Co171 1.993 . S
N188 N187 1.388 . S
N188 C189 1.346 . S
C189 N188 1.346 . S
C189 C190 1.396 . S
C189 C199 1.510 . S
C190 C186 1.401 . S
C190 C189 1.396 . S
C191 C186 1.499 . S
C191 H192 0.959 . S
C191 H193 0.960 . S
C191 H194 0.961 . S
H192 C191 0.959 . S
H193 C191 0.960 . S
H194 C191 0.961 . S
O195 Co170 1.967 . S
O195 C203 1.258 . S
O196 Co171 1.941 . S
O196 C203 1.266 . S
H197 C199 0.959 . S
H198 C199 0.961 . S
C199 C189 1.510 . S
C199 H197 0.959 . S
C199 H198 0.961 . S
C199 H200 0.960 . S
H200 C199 0.960 . S
H201 N181 0.862 . S
O202 Co170 1.920 . S
O202 C175 1.289 . S
C203 O195 1.258 . S
C203 O196 1.266 . S
C204 C205 1.387 . S
C204 H208 0.950 . S
C204 C213 1.390 . S
C205 C204 1.387 . S
C205 C207 1.387 1_554 S
H206 C213 0.950 . S
C207 C205 1.387 1_556 S
C207 C209 1.390 . S
C207 H211 0.950 . S
H208 C204 0.950 . S
C209 C207 1.390 . S
C209 C210 1.387 1_556 S
C209 H212 0.950 . S
C210 C209 1.387 1_554 S
C210 C213 1.387 . S
H211 C207 0.950 . S
H212 C209 0.950 . S
C213 C204 1.390 . S
C213 H206 0.950 . S
C213 C210 1.387 . S
C214 C215 1.387 . S
C214 H218 0.950 . S
C214 C223 1.390 1_455 S
C215 C214 1.387 . S
C215 C217 1.387 . S
H216 C223 0.950 . S
C217 C215 1.387 . S
C217 C219 1.390 1_455 S
C217 H221 0.950 . S
H218 C214 0.950 . S
C219 C217 1.390 1_655 S
C219 C220 1.387 . S
C219 H222 0.950 . S
C220 C219 1.387 . S
C220 C223 1.387 . S
H221 C217 0.950 . S
H222 C219 0.950 . S
C223 C214 1.390 1_655 S
C223 H216 0.950 . S
C223 C220 1.387 . S
C224 C225 1.387 . S
C224 H228 0.950 . S
C224 C233 1.390 1_565 S
C225 C224 1.387 . S
C225 C227 1.387 . S
H226 C233 0.950 . S
C227 C225 1.387 . S
C227 C229 1.390 1_565 S
C227 H231 0.950 . S
H228 C224 0.950 . S
C229 C227 1.390 1_545 S
C229 C230 1.387 . S
C229 H232 0.950 . S
C230 C229 1.387 . S
C230 C233 1.387 . S
H231 C227 0.950 . S
H232 C229 0.950 . S
C233 C224 1.390 1_545 S
C233 H226 0.950 . S
C233 C230 1.387 . S
C234 C235 1.387 . S
C234 H238 0.950 . S
C234 C243 1.390 . S
C235 C234 1.387 . S
C235 C237 1.387 . S
H236 C243 0.950 . S
C237 C235 1.387 . S
C237 C239 1.390 . S
C237 H241 0.950 . S
H238 C234 0.950 . S
C239 C237 1.390 . S
C239 C240 1.387 . S
C239 H242 0.950 . S
C240 C239 1.387 . S
C240 C243 1.387 . S
H241 C237 0.950 . S
H242 C239 0.950 . S
C243 C234 1.390 . S
C243 H236 0.950 . S
C243 C240 1.387 . S
C244 C245 1.387 . S
C244 H248 0.950 . S
C244 C253 1.390 . S
C245 C244 1.387 . S
C245 C247 1.387 . S
H246 C253 0.950 . S
C247 C245 1.387 . S
C247 C249 1.390 . S
C247 H251 0.950 . S
H248 C244 0.950 . S
C249 C247 1.390 . S
C249 C250 1.387 . S
C249 H252 0.950 . S
C250 C249 1.387 . S
C250 C253 1.387 . S
H251 C247 0.950 . S
H252 C249 0.950 . S
C253 C244 1.390 . S
C253 H246 0.950 . S
C253 C250 1.387 . S
C254 C255 1.387 . S
C254 H258 0.950 . S
C254 C263 1.390 . S
C255 C254 1.387 . S
C255 C257 1.387 . S
H256 C263 0.950 . S
C257 C255 1.387 . S
C257 C259 1.390 . S
C257 H261 0.950 . S
H258 C254 0.950 . S
C259 C257 1.390 . S
C259 C260 1.387 . S
C259 H262 0.950 . S
C260 C259 1.387 . S
C260 C263 1.387 . S
H261 C257 0.950 . S
H262 C259 0.950 . S
C263 C254 1.390 . S
C263 H256 0.950 . S
C263 C260 1.387 . S
C264 C265 1.387 . S
C264 H268 0.950 . S
C264 C273 1.390 . S
C265 C264 1.387 . S
C265 C267 1.387 . S
H266 C273 0.950 . S
C267 C265 1.387 . S
C267 C269 1.390 . S
C267 H271 0.950 . S
H268 C264 0.950 . S
C269 C267 1.390 . S
C269 C270 1.387 . S
C269 H272 0.950 . S
C270 C269 1.387 . S
C270 C273 1.387 . S
H271 C267 0.950 . S
H272 C269 0.950 . S
C273 C264 1.390 . S
C273 H266 0.950 . S
C273 C270 1.387 . S
C274 C275 1.387 . S
C274 H278 0.950 . S
C274 C283 1.390 . S
C275 C274 1.387 . S
C275 C277 1.387 . S
H276 C283 0.950 . S
C277 C275 1.387 . S
C277 C279 1.390 . S
C277 H281 0.950 . S
H278 C274 0.950 . S
C279 C277 1.390 . S
C279 C280 1.387 . S
C279 H282 0.950 . S
C280 C279 1.387 . S
C280 C283 1.387 . S
H281 C277 0.950 . S
H282 C279 0.950 . S
C283 C274 1.390 . S
C283 H276 0.950 . S
C283 C280 1.387 . S
C284 C285 1.387 . S
C284 H288 0.950 . S
C284 C293 1.390 . S
C285 C284 1.387 . S
C285 C287 1.387 . S
H286 C293 0.950 . S
C287 C285 1.387 . S
C287 C289 1.390 . S
C287 H291 0.950 . S
H288 C284 0.950 . S
C289 C287 1.390 . S
C289 C290 1.387 . S
C289 H292 0.950 . S
C290 C289 1.387 . S
C290 C293 1.387 . S
H291 C287 0.950 . S
H292 C289 0.950 . S
C293 C284 1.390 . S
C293 H286 0.950 . S
C293 C290 1.387 . S
C294 C295 1.387 . S
C294 H298 0.950 . S
C294 C303 1.390 . S
C295 C294 1.387 . S
C295 C297 1.387 . S
H296 C303 0.950 . S
C297 C295 1.387 . S
C297 C299 1.390 . S
C297 H301 0.950 . S
H298 C294 0.950 . S
C299 C297 1.390 . S
C299 C300 1.387 . S
C299 H302 0.950 . S
C300 C299 1.387 . S
C300 C303 1.387 . S
H301 C297 0.950 . S
H302 C299 0.950 . S
C303 C294 1.390 . S
C303 H296 0.950 . S
C303 C300 1.387 . S
C304 C305 1.387 . S
C304 H308 0.950 1_455 S
C304 C313 1.390 . S
C305 C304 1.387 . S
C305 C307 1.387 . S
H306 C313 0.950 . S
C307 C305 1.387 . S
C307 C309 1.390 . S
C307 H311 0.950 . S
H308 C304 0.950 1_655 S
C309 C307 1.390 . S
C309 C310 1.387 . S
C309 H312 0.950 . S
C310 C309 1.387 . S
C310 C313 1.387 . S
H311 C307 0.950 . S
H312 C309 0.950 . S
C313 C304 1.390 . S
C313 H306 0.950 . S
C313 C310 1.387 . S
C314 C315 1.387 . S
C314 H318 0.950 . S
C314 C323 1.390 . S
C315 C314 1.387 . S
C315 C317 1.387 . S
H316 C323 0.950 1_565 S
C317 C315 1.387 . S
C317 C319 1.390 . S
C317 H321 0.950 . S
H318 C314 0.950 . S
C319 C317 1.390 . S
C319 C320 1.387 . S
C319 H322 0.950 . S
C320 C319 1.387 . S
C320 C323 1.387 . S
H321 C317 0.950 . S
H322 C319 0.950 . S
C323 C314 1.390 . S
C323 H316 0.950 1_545 S
C323 C320 1.387 . S
C324 C325 1.387 . S
C324 H328 0.950 . S
C324 C333 1.390 . S
C325 C324 1.387 . S
C325 C327 1.387 . S
H326 C333 0.950 . S
C327 C325 1.387 . S
C327 C329 1.390 . S
C327 H331 0.950 . S
H328 C324 0.950 . S
C329 C327 1.390 . S
C329 C330 1.387 . S
C329 H332 0.950 . S
C330 C329 1.387 . S
C330 C333 1.387 . S
H331 C327 0.950 . S
H332 C329 0.950 . S
C333 C324 1.390 . S
C333 H326 0.950 . S
C333 C330 1.387 . S
C334 C335 1.387 . S
C334 H338 0.950 . S
C334 C343 1.390 1_655 S
C335 C334 1.387 . S
C335 C337 1.387 . S
H336 C343 0.950 . S
C337 C335 1.387 . S
C337 C339 1.390 . S
C337 H341 0.950 . S
H338 C334 0.950 . S
C339 C337 1.390 . S
C339 C340 1.387 . S
C339 H342 0.950 . S
C340 C339 1.387 . S
C340 C343 1.387 1_655 S
H341 C337 0.950 . S
H342 C339 0.950 . S
C343 C334 1.390 1_455 S
C343 H336 0.950 . S
C343 C340 1.387 1_455 S
C344 C345 1.387 . S
C344 H348 0.950 . S
C344 C353 1.390 . S
C345 C344 1.387 . S
C345 C347 1.387 . S
H346 C353 0.950 . S
C347 C345 1.387 . S
C347 C349 1.390 1_565 S
C347 H351 0.950 . S
H348 C344 0.950 . S
C349 C347 1.390 1_545 S
C349 C350 1.387 1_545 S
C349 H352 0.950 . S
C350 C349 1.387 1_565 S
C350 C353 1.387 . S
H351 C347 0.950 . S
H352 C349 0.950 . S
C353 C344 1.390 . S
C353 H346 0.950 . S
C353 C350 1.387 . S
C205 C135 1.459 . S
C210 C33 1.459 . S
C215 C169 1.463 . S
C220 C67 1.463 . S
C225 C101 1.463 . S
C230 C203 1.463 . S
C235 C138 1.150 . S
C240 C9 1.136 . S
C245 C172 1.152 . S
C250 C43 1.134 . S
C255 C77 1.136 . S
C260 C2 1.151 . S
C265 C36 1.150 . S
C270 C111 1.133 . S
C275 C145 1.134 . S
C280 C70 1.152 . S
C285 C179 1.135 . S
C290 C104 1.149 . S
C295 C190 1.102 . S
C300 C5 1.139 . S
C305 C39 1.140 1_455 S
C310 C20 1.102 . S
C315 C54 1.102 . S
C320 C73 1.140 1_545 S
C325 C88 1.105 . S
C330 C107 1.139 . S
C335 C122 1.101 . S
C340 C141 1.140 1_655 S
C345 C156 1.104 . S
C350 C175 1.139 1_565 S
