# Generated by pormake.
# Topology fnv, (5)-cn, num edge types: 1
# Building blocks:
#     Node 0, Type 0, BuildingBlock: BEQFEK_clean_sbu_0, # of connection points: 5
#     Node 1, Type 0, BuildingBlock: BEQFEK_clean_sbu_0, # of connection points: 5
#     Node 2, Type 0, BuildingBlock: BEQFEK_clean_sbu_0, # of connection points: 5
#     Node 3, Type 0, BuildingBlock: BEQFEK_clean_sbu_0, # of connection points: 5
#     Node 4, Type 0, BuildingBlock: BEQFEK_clean_sbu_0, # of connection points: 5
#     Node 5, Type 0, BuildingBlock: BEQFEK_clean_sbu_0, # of connection points: 5
#     Edge 6, Type (0, 0), BuildingBlock: CIFDUS_clean_linker_0, # of connection points: 2
#     Edge 7, Type (0, 0), BuildingBlock: CIFDUS_clean_linker_0, # of connection points: 2
#     Edge 8, Type (0, 0), BuildingBlock: CIFDUS_clean_linker_0, # of connection points: 2
#     Edge 9, Type (0, 0), BuildingBlock: CIFDUS_clean_linker_0, # of connection points: 2
#     Edge 10, Type (0, 0), BuildingBlock: CIFDUS_clean_linker_0, # of connection points: 2
#     Edge 11, Type (0, 0), BuildingBlock: CIFDUS_clean_linker_0, # of connection points: 2
#     Edge 12, Type (0, 0), BuildingBlock: CIFDUS_clean_linker_0, # of connection points: 2
#     Edge 13, Type (0, 0), BuildingBlock: CIFDUS_clean_linker_0, # of connection points: 2
#     Edge 14, Type (0, 0), BuildingBlock: CIFDUS_clean_linker_0, # of connection points: 2
#     Edge 15, Type (0, 0), BuildingBlock: CIFDUS_clean_linker_0, # of connection points: 2
#     Edge 16, Type (0, 0), BuildingBlock: CIFDUS_clean_linker_0, # of connection points: 2
#     Edge 17, Type (0, 0), BuildingBlock: CIFDUS_clean_linker_0, # of connection points: 2
#     Edge 18, Type (0, 0), BuildingBlock: CIFDUS_clean_linker_0, # of connection points: 2
#     Edge 19, Type (0, 0), BuildingBlock: CIFDUS_clean_linker_0, # of connection points: 2
#     Edge 20, Type (0, 0), BuildingBlock: CIFDUS_clean_linker_0, # of connection points: 2
# Relax obj value: 0.502
# Max RMSD: 0.270
# Mean RMSD: 0.270
data_MOF--net-fnv--node1-BEQFEK_clean_sbu_0--edge1-CIFDUS_clean_linker_0
_symmetry_space_group_name_H-M    P1
_symmetry_Int_Tables_number       1
_symmetry_cell_setting            triclinic
loop_
_symmetry_equiv_pos_as_xyz
'x, y, z'
_cell_length_a     31.11521
_cell_length_b     31.273437
_cell_length_c     26.789598
_cell_angle_alpha  89.934106
_cell_angle_beta   89.389538
_cell_angle_gamma 120.32739
loop_
_atom_site_label
_atom_site_type_symbol
_atom_site_fract_x
_atom_site_fract_y
_atom_site_fract_z
_atom_type_partial_charge
Co0 Co 0.28932 0.36866 0.01171 0.0
Co1 Co 0.31326 0.46322 0.073 0.0
C2 C 0.29051 0.45537 0.96453 0.0
O3 O 0.28779 0.41364 0.95988 0.0
O4 O 0.29875 0.47684 0.00632 0.0
C5 C 0.23603 0.28971 0.94256 0.0
O6 O 0.21726 0.31707 0.92839 0.0
C7 C 0.30064 0.54456 0.10453 0.0
C8 C 0.36791 0.58948 0.14918 0.0
C9 C 0.32761 0.5902 0.12824 0.0
N10 N 0.3246 0.51929 0.11051 0.0
N11 N 0.36468 0.54618 0.13735 0.0
C12 C 0.25297 0.52411 0.07648 0.0
H13 H 0.23615 0.48362 0.07113 0.0
H14 H 0.2261 0.53132 0.09695 0.0
H15 H 0.26062 0.54185 0.03904 0.0
C16 C 0.20659 0.32352 0.08648 0.0
N17 N 0.2493 0.36228 0.06901 0.0
N18 N 0.26038 0.40146 0.09632 0.0
C19 C 0.2253 0.38864 0.13235 0.0
C20 C 0.18969 0.33886 0.12698 0.0
C21 C 0.18099 0.27341 0.06301 0.0
H22 H 0.20823 0.26102 0.05627 0.0
H23 H 0.16584 0.27578 0.02647 0.0
H24 H 0.15015 0.24577 0.08708 0.0
O25 O 0.36045 0.3958 0.02967 0.0
O26 O 0.37704 0.46464 0.06938 0.0
H27 H 0.25997 0.45675 0.1736 0.0
H28 H 0.20535 0.40693 0.20327 0.0
C29 C 0.22241 0.42469 0.16695 0.0
H30 H 0.19875 0.43793 0.15016 0.0
H31 H 0.39099 0.53594 0.14569 0.0
O32 O 0.26604 0.30387 0.97893 0.0
C33 C 0.39093 0.43591 0.05144 0.0
Co34 Co 0.85415 0.26202 0.2772 0.0
Co35 Co 0.779 0.28197 0.33758 0.0
C36 C 0.75948 0.24734 0.2325 0.0
O37 O 0.80049 0.24756 0.22893 0.0
O38 O 0.74549 0.25744 0.27346 0.0
C39 C 0.90939 0.24639 0.20123 0.0
O40 O 0.87807 0.25051 0.17194 0.0
C41 C 0.68912 0.2687 0.39131 0.0
C42 C 0.72224 0.3391 0.43269 0.0
C43 C 0.67739 0.29578 0.42472 0.0
N44 N 0.73827 0.29505 0.38096 0.0
N45 N 0.75762 0.33718 0.40552 0.0
C46 C 0.6557 0.21832 0.37044 0.0
H47 H 0.67788 0.20428 0.35126 0.0
H48 H 0.63286 0.19216 0.40073 0.0
H49 H 0.6305 0.22042 0.34282 0.0
C50 C 0.83327 0.19355 0.36235 0.0
N51 N 0.82837 0.22899 0.33911 0.0
N52 N 0.79844 0.23862 0.36568 0.0
C53 C 0.78425 0.21032 0.40733 0.0
C54 C 0.80558 0.18053 0.40643 0.0
C55 C 0.8626 0.17159 0.34157 0.0
H56 H 0.90154 0.20157 0.3344 0.0
H57 H 0.84667 0.15387 0.30529 0.0
H58 H 0.86264 0.14391 0.36749 0.0
O59 O 0.89213 0.33478 0.28559 0.0
O60 O 0.83682 0.34784 0.32454 0.0
H61 H 0.74871 0.19188 0.48055 0.0
H62 H 0.70901 0.18479 0.42945 0.0
C63 C 0.7469 0.20817 0.44449 0.0
H64 H 0.75328 0.24586 0.4512 0.0
H65 H 0.79516 0.36463 0.40395 0.0
O66 O 0.90368 0.24668 0.24824 0.0
C67 C 0.87923 0.36412 0.30403 0.0
Co68 Co 0.59274 0.88277 0.63202 0.0
Co69 Co 0.51756 0.80842 0.71178 0.0
C70 C 0.50101 0.79135 0.60174 0.0
O71 O 0.54124 0.83044 0.58905 0.0
O72 O 0.48961 0.77974 0.64735 0.0
C73 C 0.65644 0.92312 0.54527 0.0
O74 O 0.62944 0.87828 0.52726 0.0
C75 C 0.45761 0.71099 0.75729 0.0
C76 C 0.43492 0.72852 0.82933 0.0
C77 C 0.42972 0.68955 0.80031 0.0
N78 N 0.47845 0.76036 0.76092 0.0
N79 N 0.46473 0.77067 0.80396 0.0
C80 C 0.46116 0.68563 0.71134 0.0
H81 H 0.49984 0.70569 0.69623 0.0
H82 H 0.44921 0.64625 0.7181 0.0
H83 H 0.43649 0.68691 0.68257 0.0
C84 C 0.6621 0.86296 0.68927 0.0
N85 N 0.61667 0.85673 0.68098 0.0
N86 N 0.58542 0.82709 0.71555 0.0
C87 C 0.60999 0.81395 0.74732 0.0
C88 C 0.65944 0.83643 0.73185 0.0
C89 C 0.70691 0.89375 0.65697 0.0
H90 H 0.71366 0.93209 0.65474 0.0
H91 H 0.69962 0.87852 0.61861 0.0
H92 H 0.74054 0.89459 0.67167 0.0
O93 O 0.56196 0.91838 0.66405 0.0
O94 O 0.50748 0.86508 0.71961 0.0
H95 H 0.56445 0.78942 0.81346 0.0
H96 H 0.6125 0.7731 0.812 0.0
C97 C 0.58545 0.77742 0.78918 0.0
H98 H 0.55864 0.7408 0.77348 0.0
H99 H 0.47536 0.80642 0.81576 0.0
O100 O 0.64782 0.93203 0.58937 0.0
C101 C 0.52818 0.90678 0.6973 0.0
Co102 Co 0.75699 0.62348 0.91271 0.0
Co103 Co 0.75478 0.53659 0.97231 0.0
C104 C 0.72948 0.52476 0.86631 0.0
O105 O 0.73354 0.56741 0.86444 0.0
O106 O 0.73961 0.50906 0.90569 0.0
C107 C 0.7823 0.69011 0.82964 0.0
O108 O 0.79229 0.65888 0.80689 0.0
C109 C 0.75815 0.44938 0.00854 0.0
C110 C 0.74465 0.45333 0.08919 0.0
C111 C 0.74977 0.42423 0.05346 0.0
N112 N 0.75733 0.49131 0.01741 0.0
N113 N 0.74962 0.49356 0.06567 0.0
C114 C 0.76089 0.43146 0.95755 0.0
H115 H 0.7247 0.41825 0.9389 0.0
H116 H 0.79015 0.46252 0.93498 0.0
H117 H 0.76847 0.40045 0.95902 0.0
C118 C 0.86077 0.67573 0.95101 0.0
N119 N 0.81509 0.63536 0.9468 0.0
N120 N 0.8139 0.59831 0.97133 0.0
C121 C 0.85882 0.61338 -0.00903 0.0
C122 C 0.88997 0.66285 0.9787 0.0
C123 C 0.8761 0.72515 0.92827 0.0
H124 H 0.84799 0.73585 0.93767 0.0
H125 H 0.87733 0.7224 0.88705 0.0
H126 H 0.91329 0.75401 0.94139 0.0
O127 O 0.70042 0.60609 0.9595 0.0
O128 O 0.69693 0.5407 -0.00435 0.0
H129 H 0.84924 0.57118 0.05711 0.0
H130 H 0.91123 0.59965 0.03064 0.0
C131 C 0.87107 0.58103 0.02171 0.0
H132 H 0.86013 0.54619 0.00137 0.0
H133 H 0.74598 0.52176 0.08224 0.0
O134 O 0.76883 0.68279 0.87529 0.0
C135 C 0.67929 0.56904 -0.01093 0.0
Co136 Co 0.14044 0.7496 0.25202 0.0
Co137 Co 0.1828 0.71986 0.34236 0.0
C138 C 0.23984 0.75533 0.24734 0.0
O139 O 0.20531 0.75881 0.2259 0.0
O140 O 0.23619 0.7429 0.29298 0.0
C141 C 0.11531 0.76623 0.15613 0.0
O142 O 0.14347 0.74779 0.14313 0.0
C143 C 0.25115 0.72158 0.4165 0.0
C144 C 0.20146 0.65673 0.46365 0.0
C145 C 0.251 0.69275 0.45614 0.0
N146 N 0.20416 0.70277 0.40102 0.0
N147 N 0.17459 0.6641 0.42933 0.0
C148 C 0.29423 0.76753 0.39462 0.0
H149 H 0.28107 0.78987 0.37478 0.0
H150 H 0.32046 0.79032 0.42424 0.0
H151 H 0.31422 0.757 0.36728 0.0
C152 C 0.13639 0.81577 0.32988 0.0
N153 N 0.14638 0.78056 0.3148 0.0
N154 N 0.16321 0.76703 0.35291 0.0
C155 C 0.16469 0.79308 0.39338 0.0
C156 C 0.1474 0.82476 0.38032 0.0
C157 C 0.11632 0.83978 0.29649 0.0
H158 H 0.08326 0.81078 0.27676 0.0
H159 H 0.14494 0.86247 0.26783 0.0
H160 H 0.1057 0.86354 0.31776 0.0
O161 O 0.09292 0.67704 0.25762 0.0
O162 O 0.12793 0.65736 0.3184 0.0
H163 H 0.16265 0.75345 0.45929 0.0
H164 H 0.19111 0.81956 0.46844 0.0
C165 C 0.18667 0.79047 0.442 0.0
H166 H 0.22381 0.79487 0.43503 0.0
H167 H 0.13625 0.642 0.42439 0.0
O168 O 0.1112 0.77366 0.20209 0.0
C169 C 0.09487 0.64512 0.28547 0.0
Co170 Co 0.32766 0.0891 0.62063 0.0
Co171 Co 0.41484 0.16155 0.68958 0.0
C172 C 0.42468 0.17096 0.57903 0.0
O173 O 0.38137 0.13403 0.57177 0.0
O174 O 0.44054 0.18491 0.62283 0.0
C175 C 0.26048 0.0634 0.54005 0.0
O176 O 0.28965 0.11028 0.52801 0.0
C177 C 0.49641 0.253 0.7319 0.0
C178 C 0.51558 0.22236 0.79672 0.0
C179 C 0.53095 0.26564 0.76971 0.0
N180 N 0.46287 0.20434 0.73615 0.0
N181 N 0.47415 0.1865 0.77539 0.0
C182 C 0.49667 0.28562 0.69079 0.0
H183 H 0.53441 0.30709 0.67365 0.0
H184 H 0.4689 0.26398 0.66214 0.0
H185 H 0.48623 0.31201 0.70631 0.0
C186 C 0.27306 0.12333 0.68785 0.0
N187 N 0.31479 0.12442 0.67136 0.0
N188 N 0.35213 0.1548 0.69965 0.0
C189 C 0.33583 0.17406 0.73462 0.0
C190 C 0.28509 0.15438 0.72887 0.0
C191 C 0.22262 0.09127 0.66631 0.0
H192 H 0.21483 0.05258 0.66388 0.0
H193 H 0.22225 0.10414 0.62778 0.0
H194 H 0.19321 0.0924 0.6891 0.0
O195 O 0.3493 0.04439 0.65078 0.0
O196 O 0.41153 0.09822 0.69755 0.0
H197 H 0.38222 0.19376 0.79877 0.0
H198 H 0.34954 0.2277 0.79293 0.0
C199 C 0.36885 0.21152 0.77209 0.0
H200 H 0.40169 0.24194 0.75265 0.0
H201 H 0.4549 0.14925 0.78619 0.0
O202 O 0.26779 0.0472 0.58073 0.0
C203 C 0.38496 0.05484 0.68052 0.0
H204 H 0.6083 0.47654 0.01616 0.0
H205 H 0.63816 0.627 0.00816 0.0
H206 H 0.55198 0.59886 0.03349 0.0
H207 H 0.46679 0.53072 0.04959 0.0
H208 H 0.43535 0.37962 0.04797 0.0
H209 H 0.52399 0.40884 0.03507 0.0
C210 C 0.59628 0.50339 0.02085 0.0
C211 C 0.62961 0.55387 0.0105 0.0
C212 C 0.54639 0.48669 0.03328 0.0
C213 C 0.61319 0.588 0.01592 0.0
C214 C 0.56396 0.57188 0.03026 0.0
C215 C 0.47946 0.50419 0.04735 0.0
C216 C 0.44469 0.45305 0.04994 0.0
C217 C 0.53 0.5212 0.03786 0.0
C218 C 0.46147 0.41911 0.04607 0.0
C219 C 0.51205 0.43582 0.03861 0.0
H220 H -0.00495 0.59803 0.29789 0.0
H221 H 0.11691 0.57477 0.26187 0.0
H222 H 0.06037 0.48497 0.26211 0.0
H223 H 0.97736 0.41332 0.27783 0.0
H224 H 0.85643 0.43652 0.32036 0.0
H225 H 0.91138 0.52589 0.31285 0.0
C226 C 0.00871 0.57306 0.28923 0.0
C227 C 0.05947 0.59229 0.27924 0.0
C228 C 0.97639 0.52159 0.29146 0.0
C229 C 0.07759 0.56018 0.26921 0.0
C230 C 0.04543 0.50904 0.26963 0.0
C231 C 0.96299 0.4379 0.28532 0.0
C232 C 0.91298 0.41824 0.29983 0.0
C233 C -0.00508 0.48931 0.28165 0.0
C234 C 0.89495 0.45066 0.30953 0.0
C235 C 0.92626 0.50182 0.30503 0.0
H236 H 0.43174 0.88113 0.69512 0.0
H237 H 0.57976 0.00581 0.71367 0.0
H238 H 0.54645 0.06197 0.71626 0.0
H239 H 0.47694 0.0759 0.70573 0.0
H240 H 0.33001 0.95312 0.67607 0.0
H241 H 0.36104 0.89535 0.68545 0.0
C242 C 0.45638 0.92054 0.7007 0.0
C243 C 0.50791 0.93964 0.70489 0.0
C244 C 0.43721 0.95263 0.69959 0.0
C245 C 0.53996 0.99065 0.71075 0.0
C246 C 0.52094 0.02258 0.71205 0.0
C247 C 0.45135 0.03641 0.70207 0.0
C248 C 0.40112 0.01868 0.69052 0.0
C249 C 0.46984 0.00404 0.70543 0.0
C250 C 0.36879 0.96755 0.68499 0.0
C251 C 0.38655 0.93464 0.6903 0.0
H252 H 0.23214 0.72369 0.15193 0.0
H253 H 0.33162 0.77583 0.27694 0.0
H254 H 0.37291 0.73216 0.24628 0.0
H255 H 0.36641 0.66398 0.19598 0.0
H256 H 0.26953 0.61433 0.06862 0.0
H257 H 0.24101 0.67142 0.08883 0.0
C258 C 0.26434 0.72742 0.17121 0.0
C259 C 0.2778 0.75151 0.21748 0.0
C260 C 0.28662 0.70056 0.15443 0.0
C261 C 0.31993 0.7565 0.24176 0.0
C262 C 0.34314 0.731 0.22458 0.0
C263 C 0.33956 0.66592 0.17203 0.0
C264 C 0.31712 0.6315 0.1333 0.0
C265 C 0.32434 0.70014 0.18298 0.0
C266 C 0.28422 0.63662 0.10149 0.0
C267 C 0.26868 0.67043 0.11227 0.0
H268 H 0.51088 0.25773 0.58187 0.0
H269 H 0.42024 0.13735 0.48294 0.0
H270 H 0.48964 0.16855 0.4226 0.0
H271 H 0.57877 0.22474 0.4033 0.0
H272 H 0.66931 0.33895 0.50893 0.0
H273 H 0.5967 0.31576 0.56068 0.0
C274 C 0.50585 0.23846 0.54686 0.0
C275 C 0.46074 0.19479 0.53735 0.0
C276 C 0.5462 0.25517 0.51375 0.0
C277 C 0.45468 0.17101 0.49129 0.0
C278 C 0.49454 0.18857 0.45704 0.0
C279 C 0.58324 0.24402 0.43794 0.0
C280 C 0.63055 0.28242 0.45265 0.0
C281 C 0.54115 0.22954 0.46886 0.0
C282 C 0.63395 0.30874 0.49651 0.0
C283 C 0.59231 0.29553 0.52645 0.0
H284 H 0.33815 0.64099 0.84192 0.0
H285 H 0.46049 0.62197 0.79554 0.0
H286 H 0.41874 0.53861 0.8313 0.0
H287 H 0.3554 0.47819 0.88891 0.0
H288 H 0.23998 0.50306 0.94591 0.0
H289 H 0.26973 0.57607 0.89201 0.0
C290 C 0.35498 0.618 0.83879 0.0
C291 C 0.40164 0.63696 0.81524 0.0
C292 C 0.3318 0.57107 0.86147 0.0
C293 C 0.42368 0.60741 0.81185 0.0
C294 C 0.40011 0.55997 0.8329 0.0
C295 C 0.33553 0.49841 0.88763 0.0
C296 C 0.2954 0.48538 0.92057 0.0
C297 C 0.35501 0.54213 0.85925 0.0
C298 C 0.27061 0.51241 0.92015 0.0
C299 C 0.28807 0.55446 0.88994 0.0
H300 H 0.80126 0.27386 0.14008 0.0
H301 H 0.66531 0.23161 0.22213 0.0
H302 H 0.64419 0.27696 0.16264 0.0
H303 H 0.67694 0.34739 0.10429 0.0
H304 H 0.81723 0.39647 0.02864 0.0
H305 H 0.82416 0.32973 0.06817 0.0
C306 C 0.76591 0.27264 0.14374 0.0
C307 C 0.73578 0.25102 0.18648 0.0
C308 C 0.75569 0.30153 0.11131 0.0
C309 C 0.68967 0.24897 0.19011 0.0
C310 C 0.6779 0.27549 0.15647 0.0
C311 C 0.70809 0.3422 0.09526 0.0
C312 C 0.74674 0.37667 0.06419 0.0
C313 C 0.71263 0.30505 0.11958 0.0
C314 C 0.78692 0.36996 0.05225 0.0
C315 C 0.79107 0.3321 0.07524 0.0
H316 H 0.349 0.73008 0.42767 0.0
H317 H 0.24705 0.66512 0.55265 0.0
H318 H 0.31602 0.68095 0.60645 0.0
H319 H 0.40476 0.72369 0.6207 0.0
H320 H 0.50852 0.79954 0.49926 0.0
H321 H 0.43906 0.76935 0.44115 0.0
C322 C 0.34181 0.72052 0.46684 0.0
C323 C 0.29305 0.69867 0.48657 0.0
C324 C 0.38193 0.73163 0.49812 0.0
C325 C 0.28429 0.68295 0.53667 0.0
C326 C 0.32372 0.69205 0.56753 0.0
C327 C 0.41262 0.73291 0.58137 0.0
C328 C 0.46184 0.76433 0.56447 0.0
C329 C 0.37271 0.71786 0.549 0.0
C330 C 0.47096 0.77566 0.5133 0.0
C331 C 0.43125 0.75872 0.48017 0.0
H332 H 0.5497 0.36066 0.75582 0.0
H333 H 0.61716 0.27673 0.80484 0.0
H334 H 0.69161 0.35301 0.82906 0.0
H335 H 0.73193 0.44137 0.84673 0.0
H336 H 0.66326 0.5248 0.80017 0.0
H337 H 0.59655 0.45119 0.76055 0.0
C338 C 0.5812 0.35889 0.76975 0.0
C339 C 0.57769 0.31286 0.77832 0.0
C340 C 0.62399 0.40294 0.78357 0.0
C341 C 0.61861 0.31164 0.79844 0.0
C342 C 0.66137 0.35525 0.81198 0.0
C343 C 0.70304 0.44373 0.82674 0.0
C344 C 0.70177 0.48798 0.82744 0.0
C345 C 0.66373 0.40088 0.80619 0.0
C346 C 0.66493 0.49102 0.80042 0.0
C347 C 0.62631 0.44873 0.77844 0.0
H348 H 0.27007 0.13631 0.82711 0.0
H349 H 0.2311 0.19751 0.70349 0.0
H350 H 0.20244 0.23883 0.76153 0.0
H351 H 0.20564 0.27083 0.84622 0.0
H352 H 0.25346 0.2157 0.9687 0.0
H353 H 0.26116 0.15837 0.9127 0.0
C354 C 0.25361 0.15734 0.81315 0.0
C355 C 0.25292 0.16451 0.76152 0.0
C356 C 0.24 0.18295 0.84661 0.0
C357 C 0.23174 0.19163 0.74327 0.0
C358 C 0.21605 0.2157 0.77645 0.0
C359 C 0.21649 0.24537 0.86089 0.0
C360 C 0.22988 0.24811 0.91133 0.0
C361 C 0.22261 0.21378 0.82808 0.0
C362 C 0.24374 0.21482 0.92985 0.0
C363 C 0.24818 0.18206 0.89785 0.0
H364 H 0.99133 0.26086 0.25148 0.0
H365 H 0.93234 0.24446 0.10306 0.0
H366 H 0.01356 0.26737 0.06704 0.0
H367 H 0.10326 0.30136 0.07765 0.0
H368 H 0.16315 0.31973 0.2254 0.0
H369 H 0.07966 0.28704 0.26194 0.0
C370 C -0.00403 0.26142 0.21126 0.0
C371 C 0.95589 0.25148 0.18002 0.0
C372 C 0.0431 0.27572 0.19074 0.0
C373 C 0.96261 0.25231 0.12798 0.0
C374 C 0.00911 0.26559 0.10731 0.0
C375 C 0.09773 0.29717 0.1178 0.0
C376 C 0.13898 0.31322 0.14898 0.0
C377 C 0.04989 0.27878 0.13831 0.0
C378 C 0.13177 0.30819 0.20089 0.0
C379 C 0.08413 0.28941 0.22168 0.0
H380 H 0.76119 0.08516 0.37781 0.0
H381 H 0.81787 0.179 0.50658 0.0
H382 H 0.78072 0.10608 0.56163 0.0
H383 H 0.724 0.01675 0.57295 0.0
H384 H 0.66641 0.92285 0.44384 0.0
H385 H 0.71303 0.99456 0.3889 0.0
C386 C 0.76632 0.08936 0.41787 0.0
C387 C 0.79147 0.13697 0.43851 0.0
C388 C 0.74443 0.0474 0.44907 0.0
C389 C 0.79799 0.14243 0.49027 0.0
C390 C 0.77675 0.10086 0.5216 0.0
C391 C 0.72218 0.01185 0.53279 0.0
C392 C 0.69111 0.96468 0.51251 0.0
C393 C 0.74853 0.05328 0.50145 0.0
C394 C 0.68977 0.9588 0.46044 0.0
C395 C 0.71624 -0.00017 0.42896 0.0
H396 H 0.70466 0.79266 0.68612 0.0
H397 H 0.698 0.85904 0.82456 0.0
H398 H 0.74468 0.8258 0.86619 0.0
H399 H 0.77357 0.76611 0.86603 0.0
H400 H 0.77691 0.69633 0.7283 0.0
H401 H 0.74662 0.74359 0.68312 0.0
C402 C 0.71495 0.801 0.72497 0.0
C403 C 0.69777 0.82752 0.7527 0.0
C404 C 0.74054 0.78064 0.74879 0.0
C405 C 0.71087 0.8383 0.80293 0.0
C406 C 0.73721 0.8191 0.82668 0.0
C407 C 0.76865 0.762 0.82594 0.0
C408 C 0.77629 0.72694 0.80075 0.0
C409 C 0.75012 0.78833 0.80049 0.0
C410 C 0.77077 0.72271 0.74868 0.0
C411 C 0.75316 0.7495 0.72283 0.0
H412 H 0.92215 0.73112 0.05118 0.0
H413 H 0.97128 0.66171 0.94429 0.0
H414 H 0.05184 0.69688 0.98567 0.0
H415 H 0.10107 0.73426 0.06036 0.0
H416 H 0.04904 0.79823 0.17132 0.0
H417 H 0.97747 0.77957 0.11982 0.0
C418 C 0.95133 0.72529 0.03624 0.0
C419 C 0.94151 0.69424 -0.00493 0.0
C420 C -0.0034 0.74404 0.06139 0.0
C421 C 0.97873 0.68593 0.97593 0.0
C422 C 0.02445 0.70566 -0.00021 0.0
C423 C 0.07475 0.7452 0.07281 0.0
C424 C 0.07978 0.76656 0.12012 0.0
C425 C 0.03284 0.73285 0.04384 0.0
C426 C 0.04563 0.78105 0.13537 0.0
C427 C 0.00455 0.77021 0.10603 0.0
H428 H 0.19218 0.92243 0.35776 0.0
H429 H 0.1069 0.8156 0.47285 0.0
H430 H 0.12838 0.88238 0.53257 0.0
H431 H 0.18374 0.96964 0.5548 0.0
H432 H 0.26819 0.0765 0.43908 0.0
H433 H 0.23342 0.01146 0.37643 0.0
C434 C 0.17691 0.91396 0.39544 0.0
C435 C 0.14905 0.86445 0.41149 0.0
C436 C 0.18972 0.9525 0.4295 0.0
C437 C 0.12926 0.85368 0.46022 0.0
C438 C 0.14164 0.89177 0.49431 0.0
C439 C 0.19349 0.97883 0.51569 0.0
C440 C 0.22929 0.02749 0.50173 0.0
C441 C 0.17382 0.94116 0.47991 0.0
C442 C 0.24098 0.0392 0.45087 0.0
C443 C 0.22141 0.00195 0.41501 0.0
loop_
_geom_bond_atom_site_label_1
_geom_bond_atom_site_label_2
_geom_bond_distance
_geom_bond_site_symmetry_2
_ccdc_geom_bond_type
Co0 O3 1.970 . S
Co0 N17 1.989 1_556 S
Co0 O25 1.967 . S
Co0 O32 1.920 . S
Co1 O4 1.966 1_554 S
Co1 N10 2.022 . S
Co1 N18 1.993 . S
Co1 O26 1.941 . S
C2 O3 1.258 . S
C2 O4 1.263 . S
O3 Co0 1.970 . S
O3 C2 1.258 . S
O4 Co1 1.966 1_556 S
O4 C2 1.263 . S
C5 O6 1.235 . S
C5 O32 1.289 . S
O6 C5 1.235 . S
C7 C9 1.400 . S
C7 N10 1.351 . S
C7 C12 1.501 . S
C8 C9 1.387 . S
C8 N11 1.341 . S
C9 C7 1.400 . S
C9 C8 1.387 . S
N10 Co1 2.022 . S
N10 C7 1.351 . S
N10 N11 1.365 . S
N11 C8 1.341 . S
N11 N10 1.365 . S
N11 H31 0.862 . S
C12 C7 1.501 . S
C12 H13 0.961 1_554 S
C12 H14 0.961 . S
C12 H15 0.960 . S
H13 C12 0.961 1_556 S
H14 C12 0.961 . S
H15 C12 0.960 . S
C16 N17 1.342 . S
C16 C20 1.401 . S
C16 C21 1.499 1_554 S
N17 Co0 1.989 1_554 S
N17 C16 1.342 . S
N17 N18 1.388 . S
N18 Co1 1.993 . S
N18 N17 1.388 . S
N18 C19 1.346 . S
C19 N18 1.346 . S
C19 C20 1.396 . S
C19 C29 1.510 . S
C20 C16 1.401 . S
C20 C19 1.396 . S
C21 C16 1.499 1_556 S
C21 H22 0.959 . S
C21 H23 0.960 . S
C21 H24 0.961 1_556 S
H22 C21 0.959 . S
H23 C21 0.960 . S
H24 C21 0.961 1_554 S
O25 Co0 1.967 . S
O25 C33 1.258 1_556 S
O26 Co1 1.941 . S
O26 C33 1.266 . S
H27 C29 0.959 . S
H28 C29 0.961 . S
C29 C19 1.510 . S
C29 H27 0.959 . S
C29 H28 0.961 . S
C29 H30 0.960 . S
H30 C29 0.960 . S
H31 N11 0.862 . S
O32 Co0 1.920 . S
O32 C5 1.289 . S
C33 O25 1.258 1_554 S
C33 O26 1.266 . S
Co34 O37 1.970 . S
Co34 N51 1.989 . S
Co34 O59 1.967 . S
Co34 O66 1.920 . S
Co35 O38 1.966 . S
Co35 N44 2.022 . S
Co35 N52 1.993 . S
Co35 O60 1.941 . S
C36 O37 1.258 . S
C36 O38 1.263 . S
O37 Co34 1.970 . S
O37 C36 1.258 . S
O38 Co35 1.966 . S
O38 C36 1.263 . S
C39 O40 1.235 . S
C39 O66 1.289 . S
O40 C39 1.235 . S
C41 C43 1.400 . S
C41 N44 1.351 . S
C41 C46 1.501 . S
C42 C43 1.387 . S
C42 N45 1.341 . S
C43 C41 1.400 . S
C43 C42 1.387 . S
N44 Co35 2.022 . S
N44 C41 1.351 . S
N44 N45 1.365 . S
N45 C42 1.341 . S
N45 N44 1.365 . S
N45 H65 0.862 . S
C46 C41 1.501 . S
C46 H47 0.961 . S
C46 H48 0.961 . S
C46 H49 0.960 . S
H47 C46 0.961 . S
H48 C46 0.961 . S
H49 C46 0.960 . S
C50 N51 1.342 . S
C50 C54 1.401 . S
C50 C55 1.499 . S
N51 Co34 1.989 . S
N51 C50 1.342 . S
N51 N52 1.388 . S
N52 Co35 1.993 . S
N52 N51 1.388 . S
N52 C53 1.346 . S
C53 N52 1.346 . S
C53 C54 1.396 . S
C53 C63 1.510 . S
C54 C50 1.401 . S
C54 C53 1.396 . S
C55 C50 1.499 . S
C55 H56 0.959 . S
C55 H57 0.960 . S
C55 H58 0.961 . S
H56 C55 0.959 . S
H57 C55 0.960 . S
H58 C55 0.961 . S
O59 Co34 1.967 . S
O59 C67 1.258 . S
O60 Co35 1.941 . S
O60 C67 1.266 . S
H61 C63 0.959 . S
H62 C63 0.961 . S
C63 C53 1.510 . S
C63 H61 0.959 . S
C63 H62 0.961 . S
C63 H64 0.960 . S
H64 C63 0.960 . S
H65 N45 0.862 . S
O66 Co34 1.920 . S
O66 C39 1.289 . S
C67 O59 1.258 . S
C67 O60 1.266 . S
Co68 O71 1.970 . S
Co68 N85 1.989 . S
Co68 O93 1.967 . S
Co68 O100 1.920 . S
Co69 O72 1.966 . S
Co69 N78 2.022 . S
Co69 N86 1.993 . S
Co69 O94 1.941 . S
C70 O71 1.258 . S
C70 O72 1.263 . S
O71 Co68 1.970 . S
O71 C70 1.258 . S
O72 Co69 1.966 . S
O72 C70 1.263 . S
C73 O74 1.235 . S
C73 O100 1.289 . S
O74 C73 1.235 . S
C75 C77 1.400 . S
C75 N78 1.351 . S
C75 C80 1.501 . S
C76 C77 1.387 . S
C76 N79 1.341 . S
C77 C75 1.400 . S
C77 C76 1.387 . S
N78 Co69 2.022 . S
N78 C75 1.351 . S
N78 N79 1.365 . S
N79 C76 1.341 . S
N79 N78 1.365 . S
N79 H99 0.862 . S
C80 C75 1.501 . S
C80 H81 0.961 . S
C80 H82 0.961 . S
C80 H83 0.960 . S
H81 C80 0.961 . S
H82 C80 0.961 . S
H83 C80 0.960 . S
C84 N85 1.342 . S
C84 C88 1.401 . S
C84 C89 1.499 . S
N85 Co68 1.989 . S
N85 C84 1.342 . S
N85 N86 1.388 . S
N86 Co69 1.993 . S
N86 N85 1.388 . S
N86 C87 1.346 . S
C87 N86 1.346 . S
C87 C88 1.396 . S
C87 C97 1.510 . S
C88 C84 1.401 . S
C88 C87 1.396 . S
C89 C84 1.499 . S
C89 H90 0.959 . S
C89 H91 0.960 . S
C89 H92 0.961 . S
H90 C89 0.959 . S
H91 C89 0.960 . S
H92 C89 0.961 . S
O93 Co68 1.967 . S
O93 C101 1.258 . S
O94 Co69 1.941 . S
O94 C101 1.266 . S
H95 C97 0.959 . S
H96 C97 0.961 . S
C97 C87 1.510 . S
C97 H95 0.959 . S
C97 H96 0.961 . S
C97 H98 0.960 . S
H98 C97 0.960 . S
H99 N79 0.862 . S
O100 Co68 1.920 . S
O100 C73 1.289 . S
C101 O93 1.258 . S
C101 O94 1.266 . S
Co102 O105 1.970 . S
Co102 N119 1.989 1_556 S
Co102 O127 1.967 . S
Co102 O134 1.920 . S
Co103 O106 1.966 1_554 S
Co103 N112 2.022 . S
Co103 N120 1.993 . S
Co103 O128 1.941 . S
C104 O105 1.258 . S
C104 O106 1.263 . S
O105 Co102 1.970 . S
O105 C104 1.258 . S
O106 Co103 1.966 1_556 S
O106 C104 1.263 . S
C107 O108 1.235 . S
C107 O134 1.289 . S
O108 C107 1.235 . S
C109 C111 1.400 . S
C109 N112 1.351 . S
C109 C114 1.501 . S
C110 C111 1.387 . S
C110 N113 1.341 . S
C111 C109 1.400 . S
C111 C110 1.387 . S
N112 Co103 2.022 . S
N112 C109 1.351 . S
N112 N113 1.365 . S
N113 C110 1.341 . S
N113 N112 1.365 . S
N113 H133 0.862 . S
C114 C109 1.501 . S
C114 H115 0.961 1_554 S
C114 H116 0.961 . S
C114 H117 0.960 . S
H115 C114 0.961 1_556 S
H116 C114 0.961 . S
H117 C114 0.960 . S
C118 N119 1.342 . S
C118 C122 1.401 . S
C118 C123 1.499 1_554 S
N119 Co102 1.989 1_554 S
N119 C118 1.342 . S
N119 N120 1.388 . S
N120 Co103 1.993 . S
N120 N119 1.388 . S
N120 C121 1.346 . S
C121 N120 1.346 . S
C121 C122 1.396 . S
C121 C131 1.510 . S
C122 C118 1.401 . S
C122 C121 1.396 . S
C123 C118 1.499 1_556 S
C123 H124 0.959 . S
C123 H125 0.960 . S
C123 H126 0.961 1_556 S
H124 C123 0.959 . S
H125 C123 0.960 . S
H126 C123 0.961 1_554 S
O127 Co102 1.967 . S
O127 C135 1.258 1_556 S
O128 Co103 1.941 . S
O128 C135 1.266 . S
H129 C131 0.959 . S
H130 C131 0.961 . S
C131 C121 1.510 . S
C131 H129 0.959 . S
C131 H130 0.961 . S
C131 H132 0.960 . S
H132 C131 0.960 . S
H133 N113 0.862 . S
O134 Co102 1.920 . S
O134 C107 1.289 . S
C135 O127 1.258 1_554 S
C135 O128 1.266 . S
Co136 O139 1.970 . S
Co136 N153 1.989 . S
Co136 O161 1.967 . S
Co136 O168 1.920 . S
Co137 O140 1.966 . S
Co137 N146 2.022 . S
Co137 N154 1.993 . S
Co137 O162 1.941 . S
C138 O139 1.258 . S
C138 O140 1.263 . S
O139 Co136 1.970 . S
O139 C138 1.258 . S
O140 Co137 1.966 . S
O140 C138 1.263 . S
C141 O142 1.235 . S
C141 O168 1.289 . S
O142 C141 1.235 . S
C143 C145 1.400 . S
C143 N146 1.351 . S
C143 C148 1.501 . S
C144 C145 1.387 . S
C144 N147 1.341 . S
C145 C143 1.400 . S
C145 C144 1.387 . S
N146 Co137 2.022 . S
N146 C143 1.351 . S
N146 N147 1.365 . S
N147 C144 1.341 . S
N147 N146 1.365 . S
N147 H167 0.862 . S
C148 C143 1.501 . S
C148 H149 0.961 . S
C148 H150 0.961 . S
C148 H151 0.960 . S
H149 C148 0.961 . S
H150 C148 0.961 . S
H151 C148 0.960 . S
C152 N153 1.342 . S
C152 C156 1.401 . S
C152 C157 1.499 . S
N153 Co136 1.989 . S
N153 C152 1.342 . S
N153 N154 1.388 . S
N154 Co137 1.993 . S
N154 N153 1.388 . S
N154 C155 1.346 . S
C155 N154 1.346 . S
C155 C156 1.396 . S
C155 C165 1.510 . S
C156 C152 1.401 . S
C156 C155 1.396 . S
C157 C152 1.499 . S
C157 H158 0.959 . S
C157 H159 0.960 . S
C157 H160 0.961 . S
H158 C157 0.959 . S
H159 C157 0.960 . S
H160 C157 0.961 . S
O161 Co136 1.967 . S
O161 C169 1.258 . S
O162 Co137 1.941 . S
O162 C169 1.266 . S
H163 C165 0.959 . S
H164 C165 0.961 . S
C165 C155 1.510 . S
C165 H163 0.959 . S
C165 H164 0.961 . S
C165 H166 0.960 . S
H166 C165 0.960 . S
H167 N147 0.862 . S
O168 Co136 1.920 . S
O168 C141 1.289 . S
C169 O161 1.258 . S
C169 O162 1.266 . S
Co170 O173 1.970 . S
Co170 N187 1.989 . S
Co170 O195 1.967 . S
Co170 O202 1.920 . S
Co171 O174 1.966 . S
Co171 N180 2.022 . S
Co171 N188 1.993 . S
Co171 O196 1.941 . S
C172 O173 1.258 . S
C172 O174 1.263 . S
O173 Co170 1.970 . S
O173 C172 1.258 . S
O174 Co171 1.966 . S
O174 C172 1.263 . S
C175 O176 1.235 . S
C175 O202 1.289 . S
O176 C175 1.235 . S
C177 C179 1.400 . S
C177 N180 1.351 . S
C177 C182 1.501 . S
C178 C179 1.387 . S
C178 N181 1.341 . S
C179 C177 1.400 . S
C179 C178 1.387 . S
N180 Co171 2.022 . S
N180 C177 1.351 . S
N180 N181 1.365 . S
N181 C178 1.341 . S
N181 N180 1.365 . S
N181 H201 0.862 . S
C182 C177 1.501 . S
C182 H183 0.961 . S
C182 H184 0.961 . S
C182 H185 0.960 . S
H183 C182 0.961 . S
H184 C182 0.961 . S
H185 C182 0.960 . S
C186 N187 1.342 . S
C186 C190 1.401 . S
C186 C191 1.499 . S
N187 Co170 1.989 . S
N187 C186 1.342 . S
N187 N188 1.388 . S
N188 Co171 1.993 . S
N188 N187 1.388 . S
N188 C189 1.346 . S
C189 N188 1.346 . S
C189 C190 1.396 . S
C189 C199 1.510 . S
C190 C186 1.401 . S
C190 C189 1.396 . S
C191 C186 1.499 . S
C191 H192 0.959 . S
C191 H193 0.960 . S
C191 H194 0.961 . S
H192 C191 0.959 . S
H193 C191 0.960 . S
H194 C191 0.961 . S
O195 Co170 1.967 . S
O195 C203 1.258 . S
O196 Co171 1.941 . S
O196 C203 1.266 . S
H197 C199 0.959 . S
H198 C199 0.961 . S
C199 C189 1.510 . S
C199 H197 0.959 . S
C199 H198 0.961 . S
C199 H200 0.960 . S
H200 C199 0.960 . S
H201 N181 0.862 . S
O202 Co170 1.920 . S
O202 C175 1.289 . S
C203 O195 1.258 . S
C203 O196 1.266 . S
H204 C210 0.930 . S
H205 C213 0.930 . S
H206 C214 0.930 1_556 S
H207 C215 0.930 . S
H208 C218 0.930 . S
H209 C219 0.930 . S
C210 H204 0.930 . S
C210 C211 1.355 . S
C210 C212 1.415 . S
C211 C210 1.355 . S
C211 C213 1.419 . S
C212 C210 1.415 . S
C212 C217 1.425 . S
C212 C219 1.409 . S
C213 H205 0.930 . S
C213 C211 1.419 . S
C213 C214 1.362 . S
C214 H206 0.930 1_554 S
C214 C213 1.362 . S
C214 C217 1.409 . S
C215 H207 0.930 . S
C215 C216 1.355 . S
C215 C217 1.415 . S
C216 C215 1.355 . S
C216 C218 1.419 . S
C217 C212 1.425 . S
C217 C214 1.409 . S
C217 C215 1.415 . S
C218 H208 0.930 . S
C218 C216 1.419 . S
C218 C219 1.362 . S
C219 H209 0.930 . S
C219 C212 1.409 . S
C219 C218 1.362 . S
H220 C226 0.930 1_655 S
H221 C229 0.930 . S
H222 C230 0.930 . S
H223 C231 0.930 1_455 S
H224 C234 0.930 . S
H225 C235 0.930 . S
C226 H220 0.930 1_455 S
C226 C227 1.355 . S
C226 C228 1.415 1_455 S
C227 C226 1.355 . S
C227 C229 1.419 . S
C228 C226 1.415 1_655 S
C228 C233 1.425 1_655 S
C228 C235 1.409 . S
C229 H221 0.930 . S
C229 C227 1.419 . S
C229 C230 1.362 . S
C230 H222 0.930 . S
C230 C229 1.362 . S
C230 C233 1.409 . S
C231 H223 0.930 1_655 S
C231 C232 1.355 . S
C231 C233 1.415 1_655 S
C232 C231 1.355 . S
C232 C234 1.419 . S
C233 C228 1.425 1_455 S
C233 C230 1.409 . S
C233 C231 1.415 1_455 S
C234 H224 0.930 . S
C234 C232 1.419 . S
C234 C235 1.362 . S
C235 H225 0.930 . S
C235 C228 1.409 . S
C235 C234 1.362 . S
H236 C242 0.930 . S
H237 C245 0.930 . S
H238 C246 0.930 . S
H239 C247 0.930 . S
H240 C250 0.930 . S
H241 C251 0.930 . S
C242 H236 0.930 . S
C242 C243 1.355 . S
C242 C244 1.415 . S
C243 C242 1.355 . S
C243 C245 1.419 . S
C244 C242 1.415 . S
C244 C249 1.425 1_565 S
C244 C251 1.409 . S
C245 H237 0.930 . S
C245 C243 1.419 . S
C245 C246 1.362 1_565 S
C246 H238 0.930 . S
C246 C245 1.362 1_545 S
C246 C249 1.409 . S
C247 H239 0.930 . S
C247 C248 1.355 . S
C247 C249 1.415 . S
C248 C247 1.355 . S
C248 C250 1.419 . S
C249 C244 1.425 1_545 S
C249 C246 1.409 . S
C249 C247 1.415 . S
C250 H240 0.930 . S
C250 C248 1.419 . S
C250 C251 1.362 1_545 S
C251 H241 0.930 . S
C251 C244 1.409 . S
C251 C250 1.362 1_565 S
H252 C258 0.930 . S
H253 C261 0.930 . S
H254 C262 0.930 . S
H255 C263 0.930 . S
H256 C266 0.930 . S
H257 C267 0.930 . S
C258 H252 0.930 . S
C258 C259 1.355 . S
C258 C260 1.415 . S
C259 C258 1.355 . S
C259 C261 1.419 . S
C260 C258 1.415 . S
C260 C265 1.425 . S
C260 C267 1.409 . S
C261 H253 0.930 . S
C261 C259 1.419 . S
C261 C262 1.362 . S
C262 H254 0.930 . S
C262 C261 1.362 . S
C262 C265 1.409 . S
C263 H255 0.930 . S
C263 C264 1.355 . S
C263 C265 1.415 . S
C264 C263 1.355 . S
C264 C266 1.419 . S
C265 C260 1.425 . S
C265 C262 1.409 . S
C265 C263 1.415 . S
C266 H256 0.930 . S
C266 C264 1.419 . S
C266 C267 1.362 . S
C267 H257 0.930 . S
C267 C260 1.409 . S
C267 C266 1.362 . S
H268 C274 0.930 . S
H269 C277 0.930 . S
H270 C278 0.930 . S
H271 C279 0.930 . S
H272 C282 0.930 . S
H273 C283 0.930 . S
C274 H268 0.930 . S
C274 C275 1.355 . S
C274 C276 1.415 . S
C275 C274 1.355 . S
C275 C277 1.419 . S
C276 C274 1.415 . S
C276 C281 1.425 . S
C276 C283 1.409 . S
C277 H269 0.930 . S
C277 C275 1.419 . S
C277 C278 1.362 . S
C278 H270 0.930 . S
C278 C277 1.362 . S
C278 C281 1.409 . S
C279 H271 0.930 . S
C279 C280 1.355 . S
C279 C281 1.415 . S
C280 C279 1.355 . S
C280 C282 1.419 . S
C281 C276 1.425 . S
C281 C278 1.409 . S
C281 C279 1.415 . S
C282 H272 0.930 . S
C282 C280 1.419 . S
C282 C283 1.362 . S
C283 H273 0.930 . S
C283 C276 1.409 . S
C283 C282 1.362 . S
H284 C290 0.930 . S
H285 C293 0.930 . S
H286 C294 0.930 . S
H287 C295 0.930 . S
H288 C298 0.930 . S
H289 C299 0.930 . S
C290 H284 0.930 . S
C290 C291 1.355 . S
C290 C292 1.415 . S
C291 C290 1.355 . S
C291 C293 1.419 . S
C292 C290 1.415 . S
C292 C297 1.425 . S
C292 C299 1.409 . S
C293 H285 0.930 . S
C293 C291 1.419 . S
C293 C294 1.362 . S
C294 H286 0.930 . S
C294 C293 1.362 . S
C294 C297 1.409 . S
C295 H287 0.930 . S
C295 C296 1.355 . S
C295 C297 1.415 . S
C296 C295 1.355 . S
C296 C298 1.419 . S
C297 C292 1.425 . S
C297 C294 1.409 . S
C297 C295 1.415 . S
C298 H288 0.930 . S
C298 C296 1.419 . S
C298 C299 1.362 . S
C299 H289 0.930 . S
C299 C292 1.409 . S
C299 C298 1.362 . S
H300 C306 0.930 . S
H301 C309 0.930 . S
H302 C310 0.930 . S
H303 C311 0.930 . S
H304 C314 0.930 . S
H305 C315 0.930 . S
C306 H300 0.930 . S
C306 C307 1.355 . S
C306 C308 1.415 . S
C307 C306 1.355 . S
C307 C309 1.419 . S
C308 C306 1.415 . S
C308 C313 1.425 . S
C308 C315 1.409 . S
C309 H301 0.930 . S
C309 C307 1.419 . S
C309 C310 1.362 . S
C310 H302 0.930 . S
C310 C309 1.362 . S
C310 C313 1.409 . S
C311 H303 0.930 . S
C311 C312 1.355 . S
C311 C313 1.415 . S
C312 C311 1.355 . S
C312 C314 1.419 . S
C313 C308 1.425 . S
C313 C310 1.409 . S
C313 C311 1.415 . S
C314 H304 0.930 . S
C314 C312 1.419 . S
C314 C315 1.362 . S
C315 H305 0.930 . S
C315 C308 1.409 . S
C315 C314 1.362 . S
H316 C322 0.930 . S
H317 C325 0.930 . S
H318 C326 0.930 . S
H319 C327 0.930 . S
H320 C330 0.930 . S
H321 C331 0.930 . S
C322 H316 0.930 . S
C322 C323 1.355 . S
C322 C324 1.415 . S
C323 C322 1.355 . S
C323 C325 1.419 . S
C324 C322 1.415 . S
C324 C329 1.425 . S
C324 C331 1.409 . S
C325 H317 0.930 . S
C325 C323 1.419 . S
C325 C326 1.362 . S
C326 H318 0.930 . S
C326 C325 1.362 . S
C326 C329 1.409 . S
C327 H319 0.930 . S
C327 C328 1.355 . S
C327 C329 1.415 . S
C328 C327 1.355 . S
C328 C330 1.419 . S
C329 C324 1.425 . S
C329 C326 1.409 . S
C329 C327 1.415 . S
C330 H320 0.930 . S
C330 C328 1.419 . S
C330 C331 1.362 . S
C331 H321 0.930 . S
C331 C324 1.409 . S
C331 C330 1.362 . S
H332 C338 0.930 . S
H333 C341 0.930 . S
H334 C342 0.930 . S
H335 C343 0.930 . S
H336 C346 0.930 . S
H337 C347 0.930 . S
C338 H332 0.930 . S
C338 C339 1.355 . S
C338 C340 1.415 . S
C339 C338 1.355 . S
C339 C341 1.419 . S
C340 C338 1.415 . S
C340 C345 1.425 . S
C340 C347 1.409 . S
C341 H333 0.930 . S
C341 C339 1.419 . S
C341 C342 1.362 . S
C342 H334 0.930 . S
C342 C341 1.362 . S
C342 C345 1.409 . S
C343 H335 0.930 . S
C343 C344 1.355 . S
C343 C345 1.415 . S
C344 C343 1.355 . S
C344 C346 1.419 . S
C345 C340 1.425 . S
C345 C342 1.409 . S
C345 C343 1.415 . S
C346 H336 0.930 . S
C346 C344 1.419 . S
C346 C347 1.362 . S
C347 H337 0.930 . S
C347 C340 1.409 . S
C347 C346 1.362 . S
H348 C354 0.930 . S
H349 C357 0.930 . S
H350 C358 0.930 . S
H351 C359 0.930 . S
H352 C362 0.930 . S
H353 C363 0.930 . S
C354 H348 0.930 . S
C354 C355 1.355 . S
C354 C356 1.415 . S
C355 C354 1.355 . S
C355 C357 1.419 . S
C356 C354 1.415 . S
C356 C361 1.425 . S
C356 C363 1.409 . S
C357 H349 0.930 . S
C357 C355 1.419 . S
C357 C358 1.362 . S
C358 H350 0.930 . S
C358 C357 1.362 . S
C358 C361 1.409 . S
C359 H351 0.930 . S
C359 C360 1.355 . S
C359 C361 1.415 . S
C360 C359 1.355 . S
C360 C362 1.419 . S
C361 C356 1.425 . S
C361 C358 1.409 . S
C361 C359 1.415 . S
C362 H352 0.930 . S
C362 C360 1.419 . S
C362 C363 1.362 . S
C363 H353 0.930 . S
C363 C356 1.409 . S
C363 C362 1.362 . S
H364 C370 0.930 . S
H365 C373 0.930 . S
H366 C374 0.930 . S
H367 C375 0.930 . S
H368 C378 0.930 . S
H369 C379 0.930 . S
C370 H364 0.930 . S
C370 C371 1.355 1_455 S
C370 C372 1.415 . S
C371 C370 1.355 1_655 S
C371 C373 1.419 . S
C372 C370 1.415 . S
C372 C377 1.425 . S
C372 C379 1.409 . S
C373 H365 0.930 . S
C373 C371 1.419 . S
C373 C374 1.362 . S
C374 H366 0.930 . S
C374 C373 1.362 . S
C374 C377 1.409 1_655 S
C375 H367 0.930 . S
C375 C376 1.355 . S
C375 C377 1.415 . S
C376 C375 1.355 . S
C376 C378 1.419 . S
C377 C372 1.425 . S
C377 C374 1.409 1_455 S
C377 C375 1.415 . S
C378 H368 0.930 . S
C378 C376 1.419 . S
C378 C379 1.362 . S
C379 H369 0.930 . S
C379 C372 1.409 . S
C379 C378 1.362 . S
H380 C386 0.930 . S
H381 C389 0.930 . S
H382 C390 0.930 . S
H383 C391 0.930 . S
H384 C394 0.930 . S
H385 C395 0.930 . S
C386 H380 0.930 . S
C386 C387 1.355 . S
C386 C388 1.415 . S
C387 C386 1.355 . S
C387 C389 1.419 . S
C388 C386 1.415 . S
C388 C393 1.425 . S
C388 C395 1.409 . S
C389 H381 0.930 . S
C389 C387 1.419 . S
C389 C390 1.362 . S
C390 H382 0.930 . S
C390 C389 1.362 . S
C390 C393 1.409 . S
C391 H383 0.930 . S
C391 C392 1.355 1_545 S
C391 C393 1.415 . S
C392 C391 1.355 1_565 S
C392 C394 1.419 . S
C393 C388 1.425 . S
C393 C390 1.409 . S
C393 C391 1.415 . S
C394 H384 0.930 . S
C394 C392 1.419 . S
C394 C395 1.362 1_565 S
C395 H385 0.930 . S
C395 C388 1.409 . S
C395 C394 1.362 1_545 S
H396 C402 0.930 . S
H397 C405 0.930 . S
H398 C406 0.930 . S
H399 C407 0.930 . S
H400 C410 0.930 . S
H401 C411 0.930 . S
C402 H396 0.930 . S
C402 C403 1.355 . S
C402 C404 1.415 . S
C403 C402 1.355 . S
C403 C405 1.419 . S
C404 C402 1.415 . S
C404 C409 1.425 . S
C404 C411 1.409 . S
C405 H397 0.930 . S
C405 C403 1.419 . S
C405 C406 1.362 . S
C406 H398 0.930 . S
C406 C405 1.362 . S
C406 C409 1.409 . S
C407 H399 0.930 . S
C407 C408 1.355 . S
C407 C409 1.415 . S
C408 C407 1.355 . S
C408 C410 1.419 . S
C409 C404 1.425 . S
C409 C406 1.409 . S
C409 C407 1.415 . S
C410 H400 0.930 . S
C410 C408 1.419 . S
C410 C411 1.362 . S
C411 H401 0.930 . S
C411 C404 1.409 . S
C411 C410 1.362 . S
H412 C418 0.930 . S
H413 C421 0.930 . S
H414 C422 0.930 . S
H415 C423 0.930 . S
H416 C426 0.930 . S
H417 C427 0.930 . S
C418 H412 0.930 . S
C418 C419 1.355 . S
C418 C420 1.415 . S
C419 C418 1.355 . S
C419 C421 1.419 . S
C420 C418 1.415 . S
C420 C425 1.425 . S
C420 C427 1.409 . S
C421 H413 0.930 . S
C421 C419 1.419 . S
C421 C422 1.362 . S
C422 H414 0.930 . S
C422 C421 1.362 . S
C422 C425 1.409 . S
C423 H415 0.930 . S
C423 C424 1.355 . S
C423 C425 1.415 1_455 S
C424 C423 1.355 . S
C424 C426 1.419 1_455 S
C425 C420 1.425 . S
C425 C422 1.409 . S
C425 C423 1.415 1_655 S
C426 H416 0.930 . S
C426 C424 1.419 1_655 S
C426 C427 1.362 . S
C427 H417 0.930 . S
C427 C420 1.409 . S
C427 C426 1.362 . S
H428 C434 0.930 . S
H429 C437 0.930 . S
H430 C438 0.930 . S
H431 C439 0.930 . S
H432 C442 0.930 . S
H433 C443 0.930 . S
C434 H428 0.930 . S
C434 C435 1.355 . S
C434 C436 1.415 . S
C435 C434 1.355 . S
C435 C437 1.419 . S
C436 C434 1.415 . S
C436 C441 1.425 . S
C436 C443 1.409 1_565 S
C437 H429 0.930 . S
C437 C435 1.419 . S
C437 C438 1.362 . S
C438 H430 0.930 . S
C438 C437 1.362 . S
C438 C441 1.409 . S
C439 H431 0.930 . S
C439 C440 1.355 1_565 S
C439 C441 1.415 . S
C440 C439 1.355 1_545 S
C440 C442 1.419 . S
C441 C436 1.425 . S
C441 C438 1.409 . S
C441 C439 1.415 . S
C442 H432 0.930 . S
C442 C440 1.419 . S
C442 C443 1.362 . S
C443 H433 0.930 . S
C443 C436 1.409 1_545 S
C443 C442 1.362 . S
C211 C135 1.331 . S
C216 C33 1.364 . S
C227 C169 1.281 . S
C232 C67 1.292 . S
C243 C101 1.364 . S
C248 C203 1.335 . S
C259 C138 1.049 . S
C264 C9 1.088 . S
C275 C172 1.110 . S
C280 C43 1.034 . S
C291 C77 1.034 . S
C296 C2 1.110 . S
C307 C36 1.062 . S
C312 C111 1.108 . S
C323 C145 1.024 . S
C328 C70 1.075 . S
C339 C179 1.063 . S
C344 C104 1.053 . S
C355 C190 0.996 . S
C360 C5 1.023 . S
C371 C39 0.996 . S
C376 C20 0.989 . S
C387 C54 1.016 . S
C392 C73 0.990 . S
C403 C88 0.949 . S
C408 C107 1.013 . S
C419 C122 0.990 . S
C424 C141 1.025 . S
C435 C156 0.941 . S
C440 C175 1.019 . S
