# Generated by pormake.
# Topology svb, (7)-cn, num edge types: 1
# Building blocks:
#     Node 0, Type 0, BuildingBlock: HICVOG_clean_sbu_0, # of connection points: 7
#     Node 1, Type 0, BuildingBlock: HICVOG_clean_sbu_0, # of connection points: 7
#     Node 2, Type 0, BuildingBlock: HICVOG_clean_sbu_0, # of connection points: 7
#     Node 3, Type 0, BuildingBlock: HICVOG_clean_sbu_0, # of connection points: 7
#     Node 4, Type 0, BuildingBlock: HICVOG_clean_sbu_0, # of connection points: 7
#     Node 5, Type 0, BuildingBlock: HICVOG_clean_sbu_0, # of connection points: 7
#     Node 6, Type 0, BuildingBlock: HICVOG_clean_sbu_0, # of connection points: 7
#     Node 7, Type 0, BuildingBlock: HICVOG_clean_sbu_0, # of connection points: 7
#     Node 8, Type 0, BuildingBlock: HICVOG_clean_sbu_0, # of connection points: 7
#     Node 9, Type 0, BuildingBlock: HICVOG_clean_sbu_0, # of connection points: 7
#     Node 10, Type 0, BuildingBlock: HICVOG_clean_sbu_0, # of connection points: 7
#     Node 11, Type 0, BuildingBlock: HICVOG_clean_sbu_0, # of connection points: 7
#     Node 12, Type 0, BuildingBlock: HICVOG_clean_sbu_0, # of connection points: 7
#     Node 13, Type 0, BuildingBlock: HICVOG_clean_sbu_0, # of connection points: 7
#     Node 14, Type 0, BuildingBlock: HICVOG_clean_sbu_0, # of connection points: 7
#     Node 15, Type 0, BuildingBlock: HICVOG_clean_sbu_0, # of connection points: 7
#     Edge 16, Type (0, 0), BuildingBlock: XIVTED_clean_linker_0, # of connection points: 2
#     Edge 17, Type (0, 0), BuildingBlock: XIVTED_clean_linker_0, # of connection points: 2
#     Edge 18, Type (0, 0), BuildingBlock: XIVTED_clean_linker_0, # of connection points: 2
#     Edge 19, Type (0, 0), BuildingBlock: XIVTED_clean_linker_0, # of connection points: 2
#     Edge 20, Type (0, 0), BuildingBlock: XIVTED_clean_linker_0, # of connection points: 2
#     Edge 21, Type (0, 0), BuildingBlock: XIVTED_clean_linker_0, # of connection points: 2
#     Edge 22, Type (0, 0), BuildingBlock: XIVTED_clean_linker_0, # of connection points: 2
#     Edge 23, Type (0, 0), BuildingBlock: XIVTED_clean_linker_0, # of connection points: 2
#     Edge 24, Type (0, 0), BuildingBlock: XIVTED_clean_linker_0, # of connection points: 2
#     Edge 25, Type (0, 0), BuildingBlock: XIVTED_clean_linker_0, # of connection points: 2
#     Edge 26, Type (0, 0), BuildingBlock: XIVTED_clean_linker_0, # of connection points: 2
#     Edge 27, Type (0, 0), BuildingBlock: XIVTED_clean_linker_0, # of connection points: 2
#     Edge 28, Type (0, 0), BuildingBlock: XIVTED_clean_linker_0, # of connection points: 2
#     Edge 29, Type (0, 0), BuildingBlock: XIVTED_clean_linker_0, # of connection points: 2
#     Edge 30, Type (0, 0), BuildingBlock: XIVTED_clean_linker_0, # of connection points: 2
#     Edge 31, Type (0, 0), BuildingBlock: XIVTED_clean_linker_0, # of connection points: 2
#     Edge 32, Type (0, 0), BuildingBlock: XIVTED_clean_linker_0, # of connection points: 2
#     Edge 33, Type (0, 0), BuildingBlock: XIVTED_clean_linker_0, # of connection points: 2
#     Edge 34, Type (0, 0), BuildingBlock: XIVTED_clean_linker_0, # of connection points: 2
#     Edge 35, Type (0, 0), BuildingBlock: XIVTED_clean_linker_0, # of connection points: 2
#     Edge 36, Type (0, 0), BuildingBlock: XIVTED_clean_linker_0, # of connection points: 2
#     Edge 37, Type (0, 0), BuildingBlock: XIVTED_clean_linker_0, # of connection points: 2
#     Edge 38, Type (0, 0), BuildingBlock: XIVTED_clean_linker_0, # of connection points: 2
#     Edge 39, Type (0, 0), BuildingBlock: XIVTED_clean_linker_0, # of connection points: 2
#     Edge 40, Type (0, 0), BuildingBlock: XIVTED_clean_linker_0, # of connection points: 2
#     Edge 41, Type (0, 0), BuildingBlock: XIVTED_clean_linker_0, # of connection points: 2
#     Edge 42, Type (0, 0), BuildingBlock: XIVTED_clean_linker_0, # of connection points: 2
#     Edge 43, Type (0, 0), BuildingBlock: XIVTED_clean_linker_0, # of connection points: 2
#     Edge 44, Type (0, 0), BuildingBlock: XIVTED_clean_linker_0, # of connection points: 2
#     Edge 45, Type (0, 0), BuildingBlock: XIVTED_clean_linker_0, # of connection points: 2
#     Edge 46, Type (0, 0), BuildingBlock: XIVTED_clean_linker_0, # of connection points: 2
#     Edge 47, Type (0, 0), BuildingBlock: XIVTED_clean_linker_0, # of connection points: 2
#     Edge 48, Type (0, 0), BuildingBlock: XIVTED_clean_linker_0, # of connection points: 2
#     Edge 49, Type (0, 0), BuildingBlock: XIVTED_clean_linker_0, # of connection points: 2
#     Edge 50, Type (0, 0), BuildingBlock: XIVTED_clean_linker_0, # of connection points: 2
#     Edge 51, Type (0, 0), BuildingBlock: XIVTED_clean_linker_0, # of connection points: 2
#     Edge 52, Type (0, 0), BuildingBlock: XIVTED_clean_linker_0, # of connection points: 2
#     Edge 53, Type (0, 0), BuildingBlock: XIVTED_clean_linker_0, # of connection points: 2
#     Edge 54, Type (0, 0), BuildingBlock: XIVTED_clean_linker_0, # of connection points: 2
#     Edge 55, Type (0, 0), BuildingBlock: XIVTED_clean_linker_0, # of connection points: 2
#     Edge 56, Type (0, 0), BuildingBlock: XIVTED_clean_linker_0, # of connection points: 2
#     Edge 57, Type (0, 0), BuildingBlock: XIVTED_clean_linker_0, # of connection points: 2
#     Edge 58, Type (0, 0), BuildingBlock: XIVTED_clean_linker_0, # of connection points: 2
#     Edge 59, Type (0, 0), BuildingBlock: XIVTED_clean_linker_0, # of connection points: 2
#     Edge 60, Type (0, 0), BuildingBlock: XIVTED_clean_linker_0, # of connection points: 2
#     Edge 61, Type (0, 0), BuildingBlock: XIVTED_clean_linker_0, # of connection points: 2
#     Edge 62, Type (0, 0), BuildingBlock: XIVTED_clean_linker_0, # of connection points: 2
#     Edge 63, Type (0, 0), BuildingBlock: XIVTED_clean_linker_0, # of connection points: 2
#     Edge 64, Type (0, 0), BuildingBlock: XIVTED_clean_linker_0, # of connection points: 2
#     Edge 65, Type (0, 0), BuildingBlock: XIVTED_clean_linker_0, # of connection points: 2
#     Edge 66, Type (0, 0), BuildingBlock: XIVTED_clean_linker_0, # of connection points: 2
#     Edge 67, Type (0, 0), BuildingBlock: XIVTED_clean_linker_0, # of connection points: 2
#     Edge 68, Type (0, 0), BuildingBlock: XIVTED_clean_linker_0, # of connection points: 2
#     Edge 69, Type (0, 0), BuildingBlock: XIVTED_clean_linker_0, # of connection points: 2
#     Edge 70, Type (0, 0), BuildingBlock: XIVTED_clean_linker_0, # of connection points: 2
#     Edge 71, Type (0, 0), BuildingBlock: XIVTED_clean_linker_0, # of connection points: 2
# Relax obj value: 0.377
# Max RMSD: 0.274
# Mean RMSD: 0.256
data_MOF--net-svb--node1-HICVOG_clean_sbu_0--edge1-XIVTED_clean_linker_0
_symmetry_space_group_name_H-M    P1
_symmetry_Int_Tables_number       1
_symmetry_cell_setting            triclinic
loop_
_symmetry_equiv_pos_as_xyz
'x, y, z'
_cell_length_a     48.621933
_cell_length_b     52.62769
_cell_length_c     26.074209
_cell_angle_alpha  96.20376
_cell_angle_beta   97.645765
_cell_angle_gamma 89.866068
loop_
_atom_site_label
_atom_site_type_symbol
_atom_site_fract_x
_atom_site_fract_y
_atom_site_fract_z
_atom_type_partial_charge
Zn0 Zn 0.11588 0.35052 0.29883 0.0
C1 C 0.11163 0.42614 0.27847 0.0
N2 N 0.09917 0.42769 0.32155 0.0
C3 C 0.09752 0.40331 0.33117 0.0
N4 N 0.10907 0.38734 0.29571 0.0
N5 N 0.11691 0.40166 0.26103 0.0
C6 C 0.16353 0.41484 0.1572 0.0
O7 O 0.17553 0.40654 0.20033 0.0
O8 O 0.07994 0.33254 0.3058 0.0
Zn9 Zn 0.12025 0.38761 0.18909 0.0
N10 N 0.14219 0.34676 0.36032 0.0
C11 C 0.18062 0.36409 0.41959 0.0
C12 C 0.16122 0.36583 0.37581 0.0
C13 C 0.14196 0.32569 0.38649 0.0
N14 N 0.18037 0.34323 0.44588 0.0
C15 C 0.16169 0.32371 0.43073 0.0
O16 O 0.14579 0.35756 0.18482 0.0
C17 C 0.1462 0.33546 0.20032 0.0
O18 O 0.13398 0.33066 0.23871 0.0
H19 H 0.16124 0.38229 0.35431 0.0
H20 H 0.12632 0.31102 0.37327 0.0
C21 C 0.06763 0.3776 0.11095 0.0
C22 C 0.04385 0.36184 0.0928 0.0
C23 C 0.05571 0.33675 0.16253 0.0
C24 C 0.07823 0.35269 0.18107 0.0
N25 N 0.08426 0.37256 0.15532 0.0
N26 N 0.03906 0.34179 0.11936 0.0
H27 H 0.07275 0.39342 0.09054 0.0
C28 C 0.05563 0.34106 0.29405 0.0
O29 O 0.05243 0.36342 0.27629 0.0
O30 O 0.13736 0.41167 0.14542 0.0
H31 H 0.0909 0.34932 0.21623 0.0
H32 H 0.19582 0.37919 0.4326 0.0
H33 H 0.05133 0.32053 0.18242 0.0
Zn34 Zn 0.85751 0.88912 0.37532 0.0
C35 C 0.86285 0.88353 0.22212 0.0
N36 N 0.85165 0.90683 0.22337 0.0
C37 C 0.84417 0.91068 0.27164 0.0
N38 N 0.85102 0.89064 0.29943 0.0
N39 N 0.86174 0.8734 0.26706 0.0
C40 C 0.91765 0.81943 0.30261 0.0
O41 O 0.91087 0.82626 0.34917 0.0
O42 O 0.82961 0.90924 0.41554 0.0
Zn43 Zn 0.86363 0.83701 0.26863 0.0
N44 N 0.89545 0.90148 0.39954 0.0
C45 C 0.9359 0.92145 0.37911 0.0
C46 C 0.90855 0.91321 0.36539 0.0
C47 C 0.90911 0.8971 0.447 0.0
N48 N 0.94945 0.9171 0.42608 0.0
C49 C 0.93711 0.90503 0.46083 0.0
O50 O 0.8527 0.82273 0.33188 0.0
C51 C 0.85221 0.82997 0.37991 0.0
O52 O 0.85509 0.85342 0.39794 0.0
H53 H 0.89796 0.91611 0.32746 0.0
H54 H 0.89849 0.88688 0.47254 0.0
C55 C 0.8508 0.8038 0.17285 0.0
C56 C 0.83413 0.79434 0.12636 0.0
C57 C 0.79738 0.82071 0.15145 0.0
C58 C 0.81401 0.83003 0.19733 0.0
N59 N 0.84036 0.82151 0.20705 0.0
N60 N 0.80783 0.80328 0.11707 0.0
H61 H 0.87206 0.79779 0.18108 0.0
C62 C 0.80354 0.90642 0.40199 0.0
O63 O 0.79462 0.89297 0.35748 0.0
O64 O 0.90141 0.82418 0.26274 0.0
H65 H 0.8062 0.84429 0.22468 0.0
H66 H 0.94645 0.93094 0.35237 0.0
H67 H 0.77641 0.82745 0.14295 0.0
Zn68 Zn 0.44126 0.63736 0.60323 0.0
C69 C 0.35962 0.61817 0.58793 0.0
N70 N 0.35957 0.62801 0.54252 0.0
C71 C 0.38564 0.63674 0.54487 0.0
N72 N 0.40112 0.63197 0.58978 0.0
N73 N 0.38453 0.62133 0.61819 0.0
C74 C 0.37384 0.58942 0.76567 0.0
O75 O 0.39573 0.60022 0.79479 0.0
O76 O 0.44959 0.67508 0.60585 0.0
Zn77 Zn 0.39405 0.61899 0.69287 0.0
N78 N 0.45671 0.61985 0.54404 0.0
C79 C 0.45165 0.58491 0.4774 0.0
C80 C 0.44318 0.59803 0.52173 0.0
C81 C 0.47924 0.62867 0.52475 0.0
N82 N 0.47358 0.59394 0.45742 0.0
C83 C 0.4879 0.61538 0.47986 0.0
O84 O 0.4319 0.60391 0.71061 0.0
C85 C 0.45661 0.6086 0.70274 0.0
O86 O 0.46167 0.62209 0.66711 0.0
H87 H 0.4256 0.59112 0.53785 0.0
H88 H 0.48974 0.64606 0.5432 0.0
C89 C 0.38209 0.66379 0.76881 0.0
C90 C 0.38949 0.68842 0.79416 0.0
C91 C 0.42748 0.68969 0.74634 0.0
C92 C 0.42011 0.66562 0.72124 0.0
N93 N 0.39748 0.65316 0.73187 0.0
N94 N 0.41196 0.70056 0.78183 0.0
H95 H 0.36465 0.65335 0.77839 0.0
C96 C 0.4323 0.69269 0.61472 0.0
O97 O 0.40744 0.68687 0.62446 0.0
O98 O 0.36732 0.59584 0.71994 0.0
H99 H 0.43221 0.65701 0.69264 0.0
H100 H 0.44081 0.56772 0.45882 0.0
H101 H 0.44543 0.6997 0.7377 0.0
Zn102 Zn 0.62003 0.12811 0.89094 0.0
C103 C 0.61063 0.13646 0.73713 0.0
N104 N 0.6214 0.11315 0.73088 0.0
C105 C 0.62906 0.10766 0.77999 0.0
N106 N 0.62281 0.12707 0.81562 0.0
N107 N 0.61195 0.14525 0.78782 0.0
C108 C 0.55069 0.18671 0.8223 0.0
O109 O 0.55941 0.17537 0.86385 0.0
O110 O 0.65348 0.11102 0.93112 0.0
Zn111 Zn 0.60653 0.1812 0.80667 0.0
N112 N 0.58348 0.11365 0.8976 0.0
C113 C 0.54429 0.08915 0.85467 0.0
C114 C 0.57138 0.09781 0.85607 0.0
C115 C 0.56898 0.1216 0.93788 0.0
N116 N 0.52986 0.0972 0.89423 0.0
C117 C 0.54115 0.11332 0.93605 0.0
O118 O 0.61712 0.19589 0.88139 0.0
C119 C 0.62085 0.18758 0.9257 0.0
O120 O 0.62109 0.16375 0.93008 0.0
H121 H 0.5823 0.09245 0.82327 0.0
H122 H 0.57854 0.13504 0.96951 0.0
C123 C 0.61729 0.21803 0.73573 0.0
C124 C 0.6336 0.22842 0.70224 0.0
C125 C 0.67045 0.20106 0.72894 0.0
C126 C 0.65423 0.19073 0.76183 0.0
N127 N 0.62796 0.19917 0.76424 0.0
N128 N 0.65972 0.21944 0.69971 0.0
H129 H 0.59618 0.22419 0.73779 0.0
C130 C 0.67412 0.12593 0.94818 0.0
O131 O 0.67351 0.14941 0.9355 0.0
O132 O 0.56725 0.18986 0.78981 0.0
H133 H 0.66225 0.1757 0.78464 0.0
H134 H 0.53454 0.07656 0.82176 0.0
H135 H 0.6913 0.19435 0.72617 0.0
Zn136 Zn 0.13146 0.63926 0.38799 0.0
C137 C 0.11689 0.63444 0.23021 0.0
N138 N 0.12461 0.61007 0.23231 0.0
C139 C 0.13347 0.60891 0.28303 0.0
N140 N 0.13064 0.63156 0.31187 0.0
N141 N 0.12124 0.64776 0.27801 0.0
C142 C 0.0556 0.68454 0.26075 0.0
O143 O 0.05336 0.66097 0.27178 0.0
O144 O 0.15549 0.61566 0.43225 0.0
Zn145 Zn 0.11759 0.68476 0.29042 0.0
N146 N 0.09337 0.64261 0.40468 0.0
C147 C 0.05479 0.67008 0.38965 0.0
C148 C 0.08103 0.66204 0.38045 0.0
C149 C 0.08013 0.63064 0.43874 0.0
N150 N 0.04132 0.65792 0.42207 0.0
C151 C 0.053 0.63836 0.44691 0.0
O152 O 0.13014 0.70219 0.36454 0.0
C153 C 0.14308 0.69681 0.40779 0.0
O154 O 0.14815 0.67381 0.4165 0.0
H155 H 0.09176 0.67143 0.35433 0.0
H156 H 0.09039 0.61561 0.45896 0.0
C157 C 0.1294 0.72013 0.22016 0.0
C158 C 0.14677 0.7343 0.19473 0.0
C159 C 0.18465 0.7084 0.2229 0.0
C160 C 0.16738 0.69457 0.24874 0.0
N161 N 0.1402 0.70085 0.24723 0.0
N162 N 0.17407 0.72808 0.19706 0.0
H163 H 0.10783 0.72515 0.22034 0.0
C164 C 0.17961 0.61002 0.4209 0.0
O165 O 0.18658 0.61621 0.37686 0.0
O166 O 0.07909 0.69567 0.26729 0.0
H167 H 0.17565 0.67942 0.27097 0.0
H168 H 0.04519 0.68593 0.37134 0.0
H169 H 0.20642 0.70383 0.22416 0.0
Zn170 Zn 0.61297 0.89791 0.67603 0.0
C171 C 0.60018 0.8938 0.82415 0.0
N172 N 0.60986 0.91778 0.83446 0.0
C173 C 0.61959 0.92216 0.79006 0.0
N174 N 0.61551 0.90155 0.75318 0.0
N175 N 0.60417 0.88367 0.77621 0.0
C176 C 0.55231 0.83876 0.71816 0.0
O177 O 0.56232 0.85429 0.68887 0.0
O178 O 0.64163 0.91825 0.64574 0.0
Zn179 Zn 0.60587 0.84701 0.76332 0.0
N180 N 0.57477 0.90652 0.64948 0.0
C181 C 0.5347 0.9299 0.66844 0.0
C182 C 0.56261 0.92436 0.68055 0.0
C183 C 0.5598 0.89383 0.60612 0.0
N184 N 0.51976 0.91713 0.62597 0.0
C185 C 0.53127 0.89911 0.59409 0.0
O186 O 0.62009 0.83249 0.69731 0.0
C187 C 0.6237 0.83921 0.65331 0.0
O188 O 0.62039 0.86222 0.64325 0.0
H189 H 0.57425 0.93381 0.71545 0.0
H190 H 0.56966 0.87915 0.58281 0.0
C191 C 0.62805 0.81647 0.84895 0.0
C192 C 0.64886 0.81187 0.89009 0.0
C193 C 0.67512 0.84692 0.87121 0.0
C194 C 0.65472 0.85128 0.83066 0.0
N195 N 0.6315 0.83629 0.82053 0.0
N196 N 0.67169 0.82747 0.89986 0.0
H197 H 0.60934 0.80486 0.8402 0.0
C198 C 0.66729 0.91345 0.65717 0.0
O199 O 0.67462 0.89887 0.69441 0.0
O200 O 0.56768 0.83258 0.75815 0.0
H201 H 0.65725 0.8667 0.80735 0.0
H202 H 0.52482 0.94398 0.69309 0.0
H203 H 0.69358 0.85887 0.87991 0.0
Zn204 Zn 0.35337 0.3915 0.88502 0.0
C205 C 0.35897 0.38363 0.73221 0.0
N206 N 0.34985 0.40772 0.73281 0.0
C207 C 0.34226 0.41257 0.78087 0.0
N208 N 0.34719 0.39246 0.80917 0.0
N209 N 0.35652 0.37415 0.7773 0.0
C210 C 0.40967 0.32263 0.82177 0.0
O211 O 0.40318 0.33487 0.86504 0.0
O212 O 0.32546 0.41318 0.92176 0.0
Zn213 Zn 0.35611 0.33799 0.78064 0.0
N214 N 0.39205 0.40198 0.90945 0.0
C215 C 0.43461 0.41638 0.88613 0.0
C216 C 0.40675 0.40982 0.87298 0.0
C217 C 0.40463 0.39978 0.95888 0.0
N218 N 0.44704 0.41434 0.93508 0.0
C219 C 0.43316 0.40611 0.97237 0.0
O220 O 0.34282 0.32535 0.84328 0.0
C221 C 0.34338 0.33311 0.89133 0.0
O222 O 0.34857 0.35638 0.90884 0.0
H223 H 0.39702 0.41098 0.83368 0.0
H224 H 0.39253 0.39317 0.98683 0.0
C225 C 0.34378 0.30546 0.68403 0.0
C226 C 0.32717 0.29612 0.63742 0.0
C227 C 0.29025 0.32216 0.66286 0.0
C228 C 0.3068 0.33132 0.70893 0.0
N229 N 0.3332 0.32288 0.71851 0.0
N230 N 0.30081 0.30494 0.62823 0.0
H231 H 0.36509 0.29958 0.69222 0.0
C232 C 0.29987 0.4085 0.90574 0.0
O233 O 0.29333 0.39268 0.8633 0.0
O234 O 0.39336 0.32323 0.77976 0.0
H235 H 0.29889 0.34536 0.73657 0.0
H236 H 0.4464 0.42281 0.85749 0.0
H237 H 0.26923 0.32881 0.65446 0.0
Zn238 Zn 0.94292 0.14152 0.12931 0.0
C239 C 0.864 0.11536 0.0875 0.0
N240 N 0.86859 0.12368 0.04224 0.0
C241 C 0.89365 0.13501 0.05405 0.0
N242 N 0.90422 0.13314 0.10393 0.0
N243 N 0.88526 0.12181 0.12606 0.0
C244 C 0.86503 0.09037 0.26682 0.0
O245 O 0.88323 0.10317 0.30183 0.0
O246 O 0.94856 0.17935 0.14454 0.0
Zn247 Zn 0.88564 0.12482 0.2017 0.0
N248 N 0.96431 0.12705 0.07482 0.0
C249 C 0.96664 0.09104 0.01191 0.0
C250 C 0.95469 0.10357 0.05302 0.0
C251 C 0.98626 0.13832 0.05783 0.0
N252 N 0.98807 0.10231 0.99439 0.0
C253 C 0.99849 0.12552 0.01622 0.0
O254 O 0.92415 0.11952 0.24129 0.0
C255 C 0.94993 0.12016 0.23662 0.0
O256 O 0.9584 0.12703 0.19599 0.0
H257 H 0.93757 0.09473 0.06729 0.0
H258 H 0.99374 0.15699 0.07567 0.0
C259 C 0.86924 0.16766 0.27407 0.0
C260 C 0.85933 0.19263 0.28575 0.0
C261 C 0.85653 0.19898 0.19637 0.0
C262 C 0.86623 0.17446 0.1851 0.0
N263 N 0.87222 0.15906 0.22372 0.0
N264 N 0.85328 0.2074 0.24606 0.0
H265 H 0.87416 0.15516 0.30421 0.0
C266 C 0.94178 0.18928 0.18764 0.0
O267 O 0.93114 0.17467 0.21785 0.0
O268 O 0.86116 0.097 0.22084 0.0
H269 H 0.86872 0.16778 0.14547 0.0
H270 H 0.95891 0.07249 0.99393 0.0
H271 H 0.85161 0.21128 0.16583 0.0
Zn272 Zn 0.90079 0.6048 0.82855 0.0
C273 C 0.9145 0.60697 0.68105 0.0
N274 N 0.90415 0.58323 0.67161 0.0
C275 C 0.89388 0.57975 0.71582 0.0
N276 N 0.89837 0.60061 0.75188 0.0
N277 N 0.91039 0.61789 0.72842 0.0
C278 C 0.96299 0.66517 0.77607 0.0
O279 O 0.95581 0.65086 0.81052 0.0
O280 O 0.87087 0.58533 0.85704 0.0
Zn281 Zn 0.9078 0.65474 0.73871 0.0
N282 N 0.93888 0.5967 0.85656 0.0
C283 C 0.98077 0.57619 0.83849 0.0
C284 C 0.95249 0.58006 0.82549 0.0
C285 C 0.95264 0.60957 0.90097 0.0
N286 N 0.99452 0.58921 0.88205 0.0
C287 C 0.98141 0.60585 0.91411 0.0
O288 O 0.89508 0.67033 0.80566 0.0
C289 C 0.89144 0.66387 0.84987 0.0
O290 O 0.89404 0.64083 0.85997 0.0
H291 H 0.94167 0.57042 0.78988 0.0
H292 H 0.9416 0.62324 0.92446 0.0
C293 C 0.88353 0.68421 0.65311 0.0
C294 C 0.86232 0.68829 0.61226 0.0
C295 C 0.83727 0.65274 0.63237 0.0
C296 C 0.85811 0.64886 0.67256 0.0
N297 N 0.88093 0.66437 0.68197 0.0
N298 N 0.8399 0.67219 0.60326 0.0
H299 H 0.90196 0.69624 0.66125 0.0
C300 C 0.84702 0.59518 0.84748 0.0
O301 O 0.844 0.61244 0.81436 0.0
O302 O 0.94517 0.66964 0.73794 0.0
H303 H 0.85624 0.63342 0.69614 0.0
H304 H 0.99184 0.56319 0.81373 0.0
H305 H 0.81911 0.64039 0.62427 0.0
Zn306 Zn 0.15719 0.12064 0.65538 0.0
C307 C 0.15245 0.12451 0.80853 0.0
N308 N 0.16006 0.09994 0.80423 0.0
C309 C 0.1677 0.09641 0.75606 0.0
N310 N 0.16426 0.11774 0.73107 0.0
N311 N 0.1559 0.1355 0.76551 0.0
C312 C 0.10525 0.19144 0.7358 0.0
O313 O 0.11098 0.18137 0.69019 0.0
O314 O 0.18279 0.0991 0.61206 0.0
Zn315 Zn 0.15804 0.17215 0.76797 0.0
N316 N 0.11794 0.11136 0.63168 0.0
C317 C 0.07486 0.09989 0.65742 0.0
C318 C 0.1028 0.10629 0.66975 0.0
C319 C 0.10574 0.11071 0.58108 0.0
N320 N 0.06282 0.09905 0.6074 0.0
C321 C 0.07716 0.10432 0.56829 0.0
O322 O 0.16948 0.18595 0.70461 0.0
C323 C 0.16884 0.17936 0.65604 0.0
O324 O 0.1632 0.15648 0.63612 0.0
H325 H 0.11224 0.10707 0.70967 0.0
H326 H 0.11818 0.1149 0.55154 0.0
C327 C 0.17629 0.20002 0.86966 0.0
C328 C 0.19652 0.20947 0.91127 0.0
C329 C 0.23115 0.18741 0.86819 0.0
C330 C 0.21112 0.1783 0.8271 0.0
N331 N 0.18419 0.18488 0.82833 0.0
N332 N 0.22345 0.20283 0.90889 0.0
H333 H 0.15472 0.20516 0.86933 0.0
C334 C 0.20909 0.10145 0.62253 0.0
O335 O 0.21957 0.11495 0.66605 0.0
O336 O 0.12187 0.18843 0.77639 0.0
H337 H 0.21694 0.16622 0.79409 0.0
H338 H 0.06273 0.09568 0.68744 0.0
H339 H 0.25272 0.18245 0.8676 0.0
Zn340 Zn 0.56743 0.36163 0.41012 0.0
C341 C 0.64544 0.39061 0.4494 0.0
N342 N 0.64083 0.38336 0.49563 0.0
C343 C 0.61604 0.3715 0.48451 0.0
N344 N 0.6057 0.37202 0.43415 0.0
N345 N 0.62452 0.3829 0.41095 0.0
C346 C 0.63342 0.4225 0.29043 0.0
O347 O 0.60676 0.42372 0.2938 0.0
O348 O 0.56425 0.32372 0.40456 0.0
Zn349 Zn 0.62443 0.3769 0.33556 0.0
N350 N 0.54545 0.37772 0.462 0.0
C351 C 0.54108 0.41582 0.5184 0.0
C352 C 0.5538 0.40212 0.47958 0.0
C353 C 0.52411 0.36657 0.48106 0.0
N354 N 0.52021 0.40471 0.53794 0.0
C355 C 0.51112 0.38052 0.52031 0.0
O356 O 0.58565 0.37835 0.29507 0.0
C357 C 0.5598 0.37722 0.29852 0.0
O358 O 0.55102 0.37217 0.34018 0.0
H359 H 0.5705 0.41079 0.46376 0.0
H360 H 0.51769 0.34714 0.46662 0.0
C361 C 0.63622 0.33015 0.27011 0.0
C362 C 0.64472 0.3044 0.26215 0.0
C363 C 0.65775 0.30507 0.35358 0.0
C364 C 0.6491 0.33018 0.3611 0.0
N365 N 0.63866 0.34241 0.31952 0.0
N366 N 0.6553 0.2929 0.30473 0.0
H367 H 0.62758 0.34036 0.23807 0.0
C368 C 0.57306 0.31137 0.36554 0.0
O369 O 0.58313 0.324 0.33137 0.0
O370 O 0.64735 0.40423 0.30895 0.0
H371 H 0.65043 0.33967 0.40013 0.0
H372 H 0.54777 0.43514 0.53304 0.0
H373 H 0.66608 0.29518 0.3864 0.0
Zn374 Zn 0.40049 0.8235 0.21777 0.0
C375 C 0.3767 0.89653 0.22991 0.0
N376 N 0.38327 0.89359 0.28082 0.0
C377 C 0.39482 0.87047 0.27997 0.0
N378 N 0.39484 0.85954 0.23093 0.0
N379 N 0.3844 0.87602 0.19883 0.0
C380 C 0.33994 0.87952 0.05922 0.0
O381 O 0.33797 0.85539 0.0667 0.0
O382 O 0.43996 0.81495 0.23306 0.0
Zn383 Zn 0.39057 0.87249 0.12527 0.0
N384 N 0.37985 0.8079 0.2645 0.0
C385 C 0.3375 0.80774 0.30059 0.0
C386 C 0.35354 0.81645 0.26561 0.0
C387 C 0.39079 0.79049 0.29637 0.0
N388 N 0.34841 0.7907 0.33289 0.0
C389 C 0.37462 0.78163 0.33183 0.0
O390 O 0.3862 0.83592 0.09016 0.0
C391 C 0.38398 0.8128 0.09934 0.0
O392 O 0.38744 0.80664 0.14554 0.0
H393 H 0.34531 0.8303 0.23998 0.0
H394 H 0.41192 0.78421 0.29501 0.0
C395 C 0.44338 0.87717 0.08118 0.0
C396 C 0.47212 0.88299 0.08597 0.0
C397 C 0.47068 0.90079 0.1733 0.0
C398 C 0.44264 0.8947 0.1687 0.0
N399 N 0.42928 0.88316 0.12293 0.0
N400 N 0.48466 0.89473 0.13223 0.0
H401 H 0.43266 0.8672 0.04572 0.0
C402 C 0.45562 0.81683 0.19845 0.0
O403 O 0.44592 0.82697 0.15591 0.0
O404 O 0.361 0.89264 0.08204 0.0
H405 H 0.43178 0.89887 0.20203 0.0
H406 H 0.3166 0.81455 0.30234 0.0
H407 H 0.48141 0.90996 0.20956 0.0
Zn408 Zn 0.89463 0.32077 0.7279 0.0
C409 C 0.88223 0.3968 0.73069 0.0
N410 N 0.89299 0.39616 0.78067 0.0
C411 C 0.90071 0.3719 0.78265 0.0
N412 N 0.89452 0.35803 0.73587 0.0
N413 N 0.8841 0.37385 0.70201 0.0
C414 C 0.83357 0.39284 0.59646 0.0
O415 O 0.82838 0.3857 0.64097 0.0
O416 O 0.93291 0.30788 0.74522 0.0
Zn417 Zn 0.88166 0.3645 0.62599 0.0
N418 N 0.87427 0.30904 0.77981 0.0
C419 C 0.83756 0.31438 0.83162 0.0
C420 C 0.85124 0.32175 0.79179 0.0
C421 C 0.88387 0.28878 0.80513 0.0
N422 N 0.84743 0.29453 0.85763 0.0
C423 C 0.87021 0.28129 0.8454 0.0
O424 O 0.86314 0.33007 0.60189 0.0
C425 C 0.86474 0.30729 0.61425 0.0
O426 O 0.8771 0.30224 0.65815 0.0
H427 H 0.84394 0.33778 0.77124 0.0
H428 H 0.9024 0.27917 0.79502 0.0
C429 C 0.93512 0.37007 0.576 0.0
C430 C 0.96131 0.35954 0.56721 0.0
C431 C 0.95373 0.32647 0.61894 0.0
C432 C 0.92876 0.33726 0.62883 0.0
N433 N 0.91949 0.35853 0.60722 0.0
N434 N 0.96937 0.3379 0.58892 0.0
H435 H 0.92745 0.38694 0.55872 0.0
C436 C 0.95622 0.3191 0.74845 0.0
O437 O 0.95766 0.34271 0.73712 0.0
O438 O 0.85714 0.3878 0.58181 0.0
H439 H 0.91671 0.32869 0.65399 0.0
H440 H 0.81938 0.32448 0.84213 0.0
H441 H 0.96081 0.30921 0.63531 0.0
Zn442 Zn 0.39926 0.15843 0.24743 0.0
C443 C 0.39737 0.08152 0.23033 0.0
N444 N 0.40688 0.08592 0.18588 0.0
C445 C 0.41022 0.11125 0.19112 0.0
N446 N 0.403 0.12196 0.2366 0.0
N447 N 0.39561 0.10336 0.26279 0.0
C448 C 0.34128 0.09464 0.36045 0.0
O449 O 0.33449 0.11176 0.32796 0.0
O450 O 0.43633 0.1735 0.24481 0.0
Zn451 Zn 0.39603 0.10784 0.33969 0.0
N452 N 0.37157 0.16756 0.19179 0.0
C453 C 0.32781 0.15525 0.14341 0.0
C454 C 0.34915 0.15157 0.18285 0.0
C455 C 0.3734 0.18756 0.16307 0.0
N456 N 0.32961 0.17495 0.11455 0.0
C457 C 0.35169 0.19146 0.12303 0.0
O458 O 0.38845 0.14381 0.37023 0.0
C459 C 0.38481 0.16674 0.35993 0.0
O460 O 0.3874 0.17329 0.31531 0.0
H461 H 0.34799 0.13593 0.20622 0.0
H462 H 0.39163 0.19984 0.17076 0.0
C463 C 0.44859 0.11448 0.4104 0.0
C464 C 0.47572 0.10718 0.42921 0.0
C465 C 0.46966 0.06885 0.37163 0.0
C466 C 0.44288 0.07603 0.35355 0.0
N467 N 0.43292 0.09881 0.37229 0.0
N468 N 0.4854 0.08454 0.40869 0.0
H469 H 0.44028 0.13252 0.42507 0.0
C470 C 0.45496 0.16714 0.27991 0.0
O471 O 0.44839 0.15166 0.31281 0.0
O472 O 0.36645 0.08745 0.3674 0.0
H473 H 0.43016 0.06355 0.32457 0.0
H474 H 0.30993 0.14256 0.13569 0.0
H475 H 0.47788 0.05088 0.35645 0.0
Zn476 Zn 0.65526 0.61212 0.12852 0.0
C477 C 0.64663 0.61822 0.28044 0.0
N478 N 0.65675 0.5945 0.2798 0.0
C479 C 0.66536 0.59041 0.23248 0.0
N480 N 0.65996 0.61057 0.20443 0.0
N481 N 0.6494 0.62823 0.23606 0.0
C482 C 0.5948 0.67921 0.19625 0.0
O483 O 0.60115 0.66718 0.15267 0.0
O484 O 0.68611 0.59377 0.09365 0.0
Zn485 Zn 0.64888 0.6646 0.23504 0.0
N486 N 0.61839 0.59844 0.09923 0.0
C487 C 0.57509 0.58238 0.11591 0.0
C488 C 0.60176 0.59169 0.13369 0.0
C489 C 0.60875 0.59728 0.04731 0.0
N490 N 0.56564 0.58089 0.06441 0.0
C491 C 0.58147 0.58824 0.02913 0.0
O492 O 0.66087 0.67851 0.1727 0.0
C493 C 0.66019 0.67137 0.12437 0.0
O494 O 0.65647 0.64803 0.10603 0.0
H495 H 0.60915 0.59331 0.17482 0.0
H496 H 0.62216 0.6033 0.02082 0.0
C497 C 0.66199 0.69776 0.33109 0.0
C498 C 0.67878 0.70697 0.37764 0.0
C499 C 0.71473 0.67936 0.35334 0.0
C500 C 0.69801 0.67031 0.30741 0.0
N501 N 0.67199 0.67957 0.29727 0.0
N502 N 0.70473 0.69729 0.38733 0.0
H503 H 0.64098 0.70437 0.32246 0.0
C504 C 0.70865 0.60673 0.10045 0.0
O505 O 0.71059 0.6275 0.13363 0.0
O506 O 0.61134 0.67852 0.23795 0.0
H507 H 0.70547 0.65573 0.28028 0.0
H508 H 0.56184 0.57661 0.14291 0.0
H509 H 0.73544 0.67205 0.36216 0.0
Zn510 Zn 0.07177 0.86494 0.89969 0.0
C511 C 0.15035 0.89304 0.93944 0.0
N512 N 0.14546 0.88721 0.98644 0.0
C513 C 0.12073 0.8752 0.97623 0.0
N514 N 0.11046 0.87439 0.92536 0.0
N515 N 0.12956 0.8845 0.90146 0.0
C516 C 0.14831 0.9148 0.75854 0.0
O517 O 0.1316 0.90032 0.72367 0.0
O518 O 0.06674 0.82716 0.89211 0.0
Zn519 Zn 0.12987 0.88005 0.82596 0.0
N520 N 0.04873 0.88152 0.94939 0.0
C521 C 0.03885 0.92186 0.99334 0.0
C522 C 0.05455 0.90688 0.96109 0.0
C523 C 0.02772 0.87031 0.96942 0.0
N524 N 0.01771 0.91095 0.01249 0.0
C525 C 0.01159 0.88557 1.00173 0.0
O526 O 0.09176 0.88291 0.78568 0.0
C527 C 0.06585 0.88173 0.78829 0.0
O528 O 0.05666 0.87609 0.8292 0.0
H529 H 0.07112 0.91546 0.94471 0.0
H530 H 0.0232 0.85013 0.95934 0.0
C531 C 0.14459 0.83634 0.75447 0.0
C532 C 0.15453 0.81135 0.74298 0.0
C533 C 0.16296 0.80735 0.83372 0.0
C534 C 0.15307 0.83184 0.84473 0.0
N535 N 0.14435 0.84609 0.80525 0.0
N536 N 0.16348 0.79778 0.78351 0.0
H537 H 0.1373 0.84795 0.72378 0.0
C538 C 0.07598 0.81447 0.85392 0.0
O539 O 0.08768 0.82665 0.82096 0.0
O540 O 0.15248 0.90893 0.80508 0.0
H541 H 0.15235 0.83943 0.88469 0.0
H542 H 0.04322 0.9421 1.00265 0.0
H543 H 0.17007 0.79592 0.86486 0.0
H544 H 0.95052 0.22852 0.13097 0.0
H545 H 0.05039 0.30031 0.34848 0.0
H546 H 0.95119 0.2102 0.28855 0.0
H547 H 0.00659 0.34226 0.23017 0.0
H548 H 0.0144 0.26692 0.32853 0.0
H549 H 0.97098 0.27048 0.16519 0.0
C550 C 0.9546 0.23352 0.17272 0.0
C551 C 0.94964 0.21586 0.20706 0.0
C552 C 0.01238 0.28375 0.30782 0.0
C553 C 0.97323 0.26328 0.24612 0.0
C554 C 0.03292 0.30269 0.31903 0.0
C555 C 0.03161 0.32376 0.2903 0.0
C556 C 0.99099 0.28565 0.26666 0.0
C557 C 0.00843 0.32615 0.2529 0.0
C558 C 0.96605 0.25744 0.19218 0.0
C559 C 0.95495 0.22326 0.26081 0.0
N560 N 0.98936 0.30691 0.24104 0.0
N561 N 0.96715 0.24624 0.27878 0.0
H562 H 0.04999 0.7254 0.2055 0.0
H563 H 0.93795 0.78538 0.36899 0.0
H564 H 1.00616 0.6803 0.29805 0.0
H565 H 0.94558 0.81014 0.21887 0.0
H566 H 0.96818 0.74939 0.34963 0.0
H567 H 0.01477 0.75844 0.21166 0.0
C568 C 0.03257 0.72226 0.22612 0.0
C569 C 0.03107 0.70044 0.25212 0.0
C570 C 0.96321 0.76277 0.32106 0.0
C571 C 0.99161 0.7382 0.26061 0.0
C572 C 0.94645 0.7835 0.33242 0.0
C573 C 0.93949 0.80071 0.2955 0.0
C574 C 0.97341 0.75961 0.27297 0.0
C575 C 0.95061 0.79723 0.24832 0.0
C576 C 0.01263 0.74109 0.22975 0.0
C577 C 0.00811 0.69703 0.27795 0.0
N578 N 0.96722 0.77705 0.23841 0.0
N579 N 0.98953 0.71612 0.28273 0.0
H580 H 0.52677 0.83061 0.61832 0.0
H581 H 0.4151 0.73203 0.67924 0.0
H582 H 0.51845 0.8155 0.77507 0.0
H583 H 0.47013 0.71413 0.56383 0.0
H584 H 0.43709 0.77451 0.70045 0.0
H585 H 0.48916 0.79982 0.58539 0.0
C586 C 0.51651 0.82136 0.64588 0.0
C587 C 0.52604 0.82502 0.6994 0.0
C588 C 0.44375 0.76141 0.66964 0.0
C589 C 0.48297 0.79057 0.66207 0.0
C590 C 0.43134 0.73728 0.65756 0.0
C591 C 0.44144 0.7195 0.62074 0.0
C592 C 0.46561 0.76788 0.64335 0.0
C593 C 0.46227 0.72721 0.59329 0.0
C594 C 0.49516 0.80386 0.62701 0.0
C595 C 0.51198 0.81272 0.73345 0.0
N596 N 0.47385 0.75088 0.60539 0.0
N597 N 0.49121 0.79576 0.71413 0.0
H598 H 0.43789 0.30372 0.90704 0.0
H599 H 0.52227 0.20446 0.73684 0.0
H600 H 0.43126 0.29804 0.73932 0.0
H601 H 0.5218 0.20348 0.90208 0.0
H602 H 0.48717 0.23756 0.73663 0.0
H603 H 0.46926 0.26736 0.90653 0.0
C604 C 0.44338 0.29507 0.87021 0.0
C605 C 0.43198 0.3038 0.82314 0.0
C606 C 0.49446 0.22991 0.77286 0.0
C607 C 0.46722 0.26206 0.82219 0.0
C608 C 0.51433 0.21091 0.7729 0.0
C609 C 0.5251 0.20154 0.81966 0.0
C610 C 0.48556 0.23975 0.82002 0.0
C611 C 0.51405 0.21031 0.86523 0.0
C612 C 0.46097 0.27414 0.86989 0.0
C613 C 0.43954 0.29181 0.77649 0.0
N614 N 0.49512 0.22929 0.86445 0.0
N615 N 0.45665 0.27148 0.7772 0.0
H616 H 0.99922 0.6715 0.86611 0.0
H617 H 0.07821 0.78376 0.76315 0.0
H618 H 0.98805 0.68946 0.707 0.0
H619 H 0.06252 0.78212 0.9219 0.0
H620 H 0.06081 0.73972 0.743 0.0
H621 H 0.03799 0.70204 0.88578 0.0
C622 C 1.00532 0.68143 0.83503 0.0
C623 C 0.9899 0.67868 0.78527 0.0
C624 C 0.06177 0.74887 0.78246 0.0
C625 C 0.0341 0.71332 0.80747 0.0
C626 C 0.07164 0.77396 0.79399 0.0
C627 C 0.07089 0.78676 0.84382 0.0
C628 C 0.0514 0.73661 0.8212 0.0
C629 C 0.06265 0.77311 0.88258 0.0
C630 C 0.02741 0.69883 0.84633 0.0
C631 C 0.99896 0.69164 0.74626 0.0
N632 N 0.05281 0.74882 0.87025 0.0
N633 N 0.02024 0.70877 0.7584 0.0
H634 H 0.08262 0.22029 0.66102 0.0
H635 H 0.96428 0.28022 0.80867 0.0
H636 H 0.07778 0.20499 0.81899 0.0
H637 H 1.00433 0.3229 0.70652 0.0
H638 H 1.00225 0.24956 0.8095 0.0
H639 H 0.04884 0.25442 0.67069 0.0
C640 C 0.07413 0.2239 0.69746 0.0
C641 C 0.08277 0.20985 0.73926 0.0
C642 C 1.00289 0.26587 0.78762 0.0
C643 C 0.04459 0.24872 0.75051 0.0
C644 C 0.98135 0.2833 0.78713 0.0
C645 C 0.98125 0.30385 0.75711 0.0
C646 C 0.0239 0.26876 0.75675 0.0
C647 C 1.00375 0.30721 0.73005 0.0
C648 C 0.05525 0.24356 0.70315 0.0
C649 C 0.07152 0.21547 0.78591 0.0
N650 N 0.02401 0.28944 0.72958 0.0
N651 N 0.05274 0.23443 0.79022 0.0
H652 H 0.47951 0.19151 0.21037 0.0
H653 H 0.56159 0.27822 0.43359 0.0
H654 H 0.49296 0.17081 0.36743 0.0
H655 H 0.57386 0.28144 0.27347 0.0
H656 H 0.54339 0.23475 0.41074 0.0
H657 H 0.52013 0.21973 0.23051 0.0
C658 C 0.49133 0.1926 0.24884 0.0
C659 C 0.48244 0.17956 0.28784 0.0
C660 C 0.55066 0.2447 0.38077 0.0
C661 C 0.52858 0.21191 0.31134 0.0
C662 C 0.56088 0.26957 0.39378 0.0
C663 C 0.56824 0.28365 0.35495 0.0
C664 C 0.54719 0.23421 0.3284 0.0
C665 C 0.56769 0.27141 0.30431 0.0
C666 C 0.51463 0.20857 0.26027 0.0
C667 C 0.49882 0.18105 0.3366 0.0
N668 N 0.55653 0.24756 0.29212 0.0
N669 N 0.52073 0.19755 0.34746 0.0
H670 H 0.56611 0.69811 0.11145 0.0
H671 H 0.48484 0.79932 0.28357 0.0
H672 H 0.57398 0.70417 0.27932 0.0
H673 H 0.4833 0.79904 0.11754 0.0
H674 H 0.51939 0.76575 0.2831 0.0
H675 H 0.53522 0.7348 0.11249 0.0
C676 C 0.56098 0.7069 0.14844 0.0
C677 C 0.57261 0.69817 0.19539 0.0
C678 C 0.51177 0.77321 0.24683 0.0
C679 C 0.53791 0.74032 0.19691 0.0
C680 C 0.4922 0.79249 0.24716 0.0
C681 C 0.48098 0.80163 0.20041 0.0
C682 C 0.51993 0.76289 0.19934 0.0
C683 C 0.49135 0.79237 0.1544 0.0
C684 C 0.54366 0.72802 0.14905 0.0
C685 C 0.56551 0.71038 0.24224 0.0
N686 N 0.51 0.77315 0.15487 0.0
N687 N 0.54867 0.73091 0.2418 0.0
H688 H 0.24363 0.40433 0.87925 0.0
H689 H 0.14793 0.42285 0.05455 0.0
H690 H 0.30596 0.43102 1.00717 0.0
H691 H 0.2196 0.42348 0.17164 0.0
H692 H 0.17866 0.42763 0.98922 0.0
H693 H 0.20815 0.41142 0.93639 0.0
C694 C 0.24981 0.41223 0.91922 0.0
C695 C 0.27794 0.41694 0.93834 0.0
C696 C 0.1878 0.42657 0.02905 0.0
C697 C 0.23698 0.42552 1.0048 0.0
C698 C 0.17012 0.42423 0.06664 0.0
C699 C 0.18115 0.42232 0.11864 0.0
C700 C 0.2168 0.42678 0.04344 0.0
C701 C 0.2101 0.42448 0.13195 0.0
C702 C 0.22936 0.41649 0.95204 0.0
C703 C 0.28459 0.42711 0.9906 0.0
N704 N 0.22685 0.42633 0.09463 0.0
N705 N 0.26434 0.43069 0.02209 0.0
H706 H 0.86116 0.94127 0.36425 0.0
H707 H 0.82437 0.06024 0.20677 0.0
H708 H 0.80579 0.93868 0.2204 0.0
H709 H 0.87762 0.06545 0.35389 0.0
H710 H 0.80956 0.01762 0.22137 0.0
H711 H 0.85899 0.98807 0.37286 0.0
C712 C 0.84787 0.95043 0.33538 0.0
C713 C 0.83439 0.93615 0.29065 0.0
C714 C 0.82418 0.02819 0.25092 0.0
C715 C 0.83187 0.98953 0.29983 0.0
C716 C 0.83268 0.05257 0.24249 0.0
C717 C 0.85262 0.0663 0.27869 0.0
C718 C 0.836 0.01722 0.29554 0.0
C719 C 0.86241 0.05545 0.32459 0.0
C720 C 0.84673 0.97722 0.34009 0.0
C721 C 0.81695 0.94907 0.25504 0.0
N722 N 0.8544 0.0314 0.33127 0.0
N723 N 0.81666 0.97498 0.25974 0.0
H724 H 0.22202 0.57739 0.40571 0.0
H725 H 0.31977 0.64334 0.63648 0.0
H726 H 0.18827 0.62573 0.52559 0.0
H727 H 0.33932 0.57047 0.55928 0.0
H728 H 0.27039 0.63457 0.60702 0.0
H729 H 0.26372 0.57177 0.46698 0.0
C730 C 0.22315 0.58631 0.4454 0.0
C731 C 0.20168 0.60199 0.46061 0.0
C732 C 0.28532 0.61996 0.5984 0.0
C733 C 0.24981 0.59641 0.5307 0.0
C734 C 0.31353 0.62477 0.61618 0.0
C735 C 0.33367 0.60754 0.60051 0.0
C736 C 0.27741 0.59803 0.56378 0.0
C737 C 0.32444 0.58416 0.5726 0.0
C738 C 0.24695 0.5831 0.48047 0.0
C739 C 0.20429 0.6133 0.51243 0.0
N740 N 0.29713 0.58043 0.5536 0.0
N741 N 0.22822 0.61083 0.54526 0.0
H742 H 0.64604 0.95388 0.86862 0.0
H743 H 0.65149 0.07428 0.71174 0.0
H744 H 0.61831 0.9497 0.70376 0.0
H745 H 0.62686 0.08002 0.86549 0.0
H746 H 0.65555 0.02821 0.71257 0.0
H747 H 0.65516 0.99947 0.87027 0.0
C748 C 0.64243 0.9624 0.83232 0.0
C749 C 0.63113 0.94781 0.78584 0.0
C750 C 0.64974 0.03966 0.74645 0.0
C751 C 0.64194 1.00014 0.78784 0.0
C752 C 0.64748 0.06603 0.74636 0.0
C753 C 0.63831 0.08129 0.78849 0.0
C754 C 0.6435 0.02832 0.78952 0.0
C755 C 0.63406 0.06935 0.83236 0.0
C756 C 0.64758 0.98846 0.83359 0.0
C757 C 0.62728 0.95993 0.74018 0.0
N758 N 0.63645 0.04348 0.83158 0.0
N759 N 0.63249 0.98553 0.74237 0.0
H760 H 0.84068 0.55752 0.91195 0.0
H761 H 0.7465 0.64063 0.07967 0.0
H762 H 0.80346 0.6265 0.86039 0.0
H763 H 0.71976 0.56195 0.04042 0.0
H764 H 0.77925 0.63453 0.01641 0.0
H765 H 0.8064 0.55704 0.97404 0.0
C766 C 0.82519 0.57232 0.91317 0.0
C767 C 0.82499 0.59209 0.88087 0.0
C768 C 0.76639 0.61854 0.02208 0.0
C769 C 0.78662 0.59194 0.95219 0.0
C770 C 0.74777 0.62191 0.05836 0.0
C771 C 0.73022 0.60177 0.06535 0.0
C772 C 0.76813 0.59472 0.99317 0.0
C773 C 0.73281 0.578 0.03607 0.0
C774 C 0.80571 0.57197 0.94842 0.0
C775 C 0.80448 0.61083 0.88423 0.0
N776 N 0.75157 0.57504 1.00123 0.0
N777 N 0.78653 0.61054 0.91982 0.0
H778 H 0.13239 0.93847 0.67092 0.0
H779 H 0.21019 0.06849 0.79409 0.0
H780 H 0.18674 0.94806 0.81684 0.0
H781 H 0.14035 0.06526 0.67329 0.0
H782 H 0.21175 0.02187 0.78436 0.0
H783 H 0.14403 0.98203 0.6558 0.0
C784 C 0.14716 0.94954 0.69941 0.0
C785 C 0.15836 0.93965 0.74561 0.0
C786 C 0.19651 0.03129 0.75891 0.0
C787 C 0.17184 0.98953 0.72818 0.0
C788 C 0.19589 0.05791 0.76389 0.0
C789 C 0.17515 0.0707 0.73439 0.0
C790 C 0.17595 0.01727 0.72459 0.0
C791 C 0.15678 0.05614 0.69652 0.0
C792 C 0.15372 0.97445 0.6907 0.0
C793 C 0.17738 0.95494 0.78096 0.0
N794 N 0.15724 0.0301 0.69336 0.0
N795 N 0.18334 0.97914 0.77167 0.0
H796 H 0.68511 0.37126 0.3891 0.0
H797 H 0.79478 0.42737 0.62162 0.0
H798 H 0.66903 0.43322 0.50259 0.0
H799 H 0.81856 0.37829 0.49214 0.0
H800 H 0.75056 0.435 0.56971 0.0
H801 H 0.7351 0.37866 0.41456 0.0
C802 C 0.69201 0.3871 0.41773 0.0
C803 C 0.67286 0.40143 0.44427 0.0
C804 C 0.76557 0.42297 0.55194 0.0
C805 C 0.72997 0.40966 0.47463 0.0
C806 C 0.79088 0.4187 0.58167 0.0
C807 C 0.8103 0.40222 0.56113 0.0
C808 C 0.7591 0.40999 0.50167 0.0
C809 C 0.80417 0.3913 0.50924 0.0
C810 C 0.72064 0.39121 0.43269 0.0
C811 C 0.68311 0.42168 0.48125 0.0
N812 N 0.77882 0.39489 0.48164 0.0
N813 N 0.71085 0.42483 0.49611 0.0
H814 H 0.34221 0.92966 0.2748 0.0
H815 H 0.43183 0.04287 0.21325 0.0
H816 H 0.395 0.92248 0.15395 0.0
H817 H 0.35251 0.0595 0.26506 0.0
H818 H 0.42049 0.99751 0.20297 0.0
H819 H 0.34439 0.97623 0.27662 0.0
C820 C 0.35353 0.93786 0.24734 0.0
C821 C 0.36903 0.92215 0.21495 0.0
C822 C 0.40557 0.01098 0.21696 0.0
C823 C 0.37239 0.97527 0.21839 0.0
C824 C 0.4122 0.03684 0.22373 0.0
C825 C 0.39315 0.05491 0.24049 0.0
C826 C 0.37967 0.00286 0.22728 0.0
C827 C 0.36798 0.0461 0.25319 0.0
C828 C 0.35493 0.96442 0.24885 0.0
C829 C 0.38323 0.93372 0.18022 0.0
N830 N 0.36187 0.02052 0.24625 0.0
N831 N 0.3852 0.95964 0.18384 0.0
H832 H 0.74696 0.91005 0.38175 0.0
H833 H 0.72398 0.91337 0.67825 0.0
H834 H 0.81451 0.92001 0.50767 0.0
H835 H 0.65774 0.92676 0.55716 0.0
H836 H 0.75749 0.91681 0.61706 0.0
H837 H 0.71402 0.9171 0.44503 0.0
C838 C 0.75491 0.91405 0.42266 0.0
C839 C 0.78361 0.91432 0.4393 0.0
C840 C 0.73567 0.91937 0.60401 0.0
C841 C 0.74586 0.922 0.51229 0.0
C842 C 0.71649 0.91742 0.63899 0.0
C843 C 0.68793 0.9197 0.62289 0.0
C844 C 0.72629 0.92316 0.55208 0.0
C845 C 0.67952 0.92494 0.57143 0.0
C846 C 0.73605 0.91809 0.45882 0.0
C847 C 0.79261 0.91964 0.49292 0.0
N848 N 0.69854 0.9261 0.53772 0.0
N849 N 0.77383 0.9229 0.52746 0.0
H850 H 0.30349 0.4412 0.73233 0.0
H851 H 0.38771 0.56653 0.85507 0.0
H852 H 0.36419 0.44391 0.86902 0.0
H853 H 0.32958 0.56068 0.71386 0.0
H854 H 0.37115 0.52515 0.87385 0.0
H855 H 0.30317 0.48774 0.74051 0.0
C856 C 0.3161 0.45167 0.76524 0.0
C857 C 0.33432 0.43869 0.79944 0.0
C858 C 0.36165 0.53313 0.83927 0.0
C859 C 0.33507 0.49209 0.80776 0.0
C860 C 0.37109 0.5568 0.82845 0.0
C861 C 0.36039 0.56693 0.78223 0.0
C862 C 0.34137 0.51942 0.80363 0.0
C863 C 0.33873 0.5535 0.74955 0.0
C864 C 0.31616 0.47828 0.76955 0.0
C865 C 0.35021 0.45312 0.84129 0.0
N866 N 0.33024 0.53032 0.76052 0.0
N867 N 0.35081 0.47913 0.84352 0.0
H868 H 0.70175 0.15509 0.03049 0.0
H869 H 0.83644 0.07466 0.03279 0.0
H870 H 0.70162 0.07982 0.94697 0.0
H871 H 0.82682 0.1373 0.14917 0.0
H872 H 0.78602 0.07164 1.01067 0.0
H873 H 0.74551 0.14585 0.082 0.0
C874 C 0.71084 0.13642 0.0235 0.0
C875 C 0.69822 0.11828 0.98404 0.0
C876 C 0.79479 0.08551 0.0423 0.0
C877 C 0.74884 0.10765 0.04249 0.0
C878 C 0.82361 0.08702 0.05546 0.0
C879 C 0.83589 0.10631 0.09287 0.0
C880 C 0.77812 0.10389 0.06584 0.0
C881 C 0.81833 0.12216 0.1202 0.0
C882 C 0.7358 0.1311 0.05315 0.0
C883 C 0.71073 0.09433 0.97697 0.0
N884 N 0.79038 0.12107 0.10519 0.0
N885 N 0.7357 0.08989 1.00515 0.0
H886 H 0.17855 0.57942 0.27517 0.0
H887 H 0.16346 0.44496 0.27588 0.0
H888 H 0.09732 0.58036 0.32353 0.0
H889 H 0.0767 0.46222 0.2447 0.0
H890 H 0.17444 0.49083 0.28596 0.0
H891 H 0.1771 0.53263 0.26496 0.0
C892 C 0.16106 0.56968 0.28647 0.0
C893 C 0.13835 0.58372 0.30168 0.0
C894 C 0.15308 0.48461 0.27491 0.0
C895 C 0.13575 0.53022 0.2872 0.0
C896 C 0.14687 0.45833 0.26792 0.0
C897 C 0.11918 0.44976 0.25805 0.0
C898 C 0.13129 0.50229 0.2727 0.0
C899 C 0.09835 0.46803 0.25113 0.0
C900 C 0.16002 0.54294 0.27976 0.0
C901 C 0.11558 0.57024 0.31329 0.0
N902 N 0.10476 0.49337 0.25967 0.0
N903 N 0.11461 0.54426 0.30474 0.0
H904 H 0.35211 0.0766 0.45622 0.0
H905 H 0.19472 0.08941 0.51702 0.0
H906 H 0.28466 0.0987 0.3457 0.0
H907 H 0.26555 0.09558 0.63653 0.0
H908 H 0.22626 0.08253 0.45089 0.0
H909 H 0.31934 0.07317 0.51915 0.0
C910 C 0.33034 0.0802 0.44472 0.0
C911 C 0.32119 0.08807 0.39556 0.0
C912 C 0.23485 0.08507 0.49163 0.0
C913 C 0.28355 0.08421 0.4676 0.0
C914 C 0.21685 0.08883 0.52948 0.0
C915 C 0.22747 0.09323 0.58254 0.0
C916 C 0.26371 0.08534 0.50684 0.0
C917 C 0.25641 0.09243 0.59614 0.0
C918 C 0.31168 0.07843 0.48086 0.0
C919 C 0.29271 0.0927 0.38318 0.0
N920 N 0.27348 0.08867 0.55864 0.0
N921 N 0.27497 0.09079 0.41892 0.0
H922 H 0.60932 0.44576 0.20874 0.0
H923 H 0.70732 0.56399 0.27833 0.0
H924 H 0.68582 0.44429 0.31292 0.0
H925 H 0.64226 0.55746 0.14845 0.0
H926 H 0.70697 0.51762 0.27769 0.0
H927 H 0.62619 0.48314 0.17439 0.0
C928 C 0.62992 0.45317 0.22388 0.0
C929 C 0.64604 0.44223 0.26433 0.0
C930 C 0.69334 0.52615 0.24812 0.0
C931 C 0.66542 0.48546 0.22567 0.0
C932 C 0.6938 0.55266 0.248 0.0
C933 C 0.67436 0.56464 0.21405 0.0
C934 C 0.67282 0.5116 0.2147 0.0
C935 C 0.6572 0.54913 0.17591 0.0
C936 C 0.63963 0.47447 0.20401 0.0
C937 C 0.6727 0.45231 0.28196 0.0
N938 N 0.65619 0.52343 0.17828 0.0
N939 N 0.68132 0.47377 0.26336 0.0
H940 H 0.18499 0.87526 0.86786 0.0
H941 H 0.31467 0.92624 0.07362 0.0
H942 H 0.17989 0.9311 0.99953 0.0
H943 H 0.31256 0.8568 0.96909 0.0
H944 H 0.26974 0.9381 0.02732 0.0
H945 H 0.23566 0.87908 0.88387 0.0
C946 C 0.1944 0.88902 0.89884 0.0
C947 C 0.17823 0.90244 0.93306 0.0
C948 C 0.27951 0.92059 0.01373 0.0
C949 C 0.23617 0.90675 0.95224 0.0
C950 C 0.30518 0.91393 0.03996 0.0
C951 C 0.31705 0.89039 0.02545 0.0
C952 C 0.26594 0.90366 0.97259 0.0
C953 C 0.30384 0.87498 0.98186 0.0
C954 C 0.22341 0.89107 0.90834 0.0
C955 C 0.19169 0.92016 0.97257 0.0
N956 N 0.27891 0.88173 0.95737 0.0
N957 N 0.21985 0.92144 0.98178 0.0
H958 H 0.89622 0.55249 0.80233 0.0
H959 H 0.89463 0.42126 0.64767 0.0
H960 H 0.86572 0.54873 0.63853 0.0
H961 H 0.84912 0.4288 0.77943 0.0
H962 H 0.89012 0.46776 0.64311 0.0
H963 H 0.88505 0.50663 0.79916 0.0
C964 C 0.88633 0.54239 0.76637 0.0
C965 C 0.88176 0.55451 0.72083 0.0
C966 C 0.88054 0.45895 0.67209 0.0
C967 C 0.87066 0.50218 0.71618 0.0
C968 C 0.88272 0.43247 0.67405 0.0
C969 C 0.87199 0.42127 0.7136 0.0
C970 C 0.8685 0.47404 0.711 0.0
C971 C 0.85761 0.43682 0.74825 0.0
C972 C 0.88036 0.51618 0.76431 0.0
C973 C 0.86983 0.54007 0.67456 0.0
N974 N 0.85694 0.46251 0.74715 0.0
N975 N 0.86533 0.51458 0.67307 0.0
H976 H 0.22873 0.24817 0.96548 0.0
H977 H 0.12813 0.2855 0.18047 0.0
H978 H 0.14949 0.2107 0.96135 0.0
H979 H 0.18812 0.33777 0.14082 0.0
H980 H 0.14079 0.25351 0.11186 0.0
H981 H 0.21872 0.27696 0.04048 0.0
C982 C 0.2092 0.24596 0.98034 0.0
C983 C 0.18981 0.22712 0.9565 0.0
C984 C 0.15139 0.27188 0.11872 0.0
C985 C 0.17839 0.25995 0.04328 0.0
C986 C 0.14445 0.29002 0.15829 0.0
C987 C 0.1572 0.31433 0.1666 0.0
C988 C 0.17154 0.27794 0.08786 0.0
C989 C 0.1778 0.31929 0.13588 0.0
C990 C 0.2035 0.26247 0.02316 0.0
C991 C 0.16485 0.22521 0.97774 0.0
N992 N 0.18432 0.3013 0.09801 0.0
N993 N 0.15991 0.24136 0.02004 0.0
H994 H 0.01238 0.85445 0.07965 0.0
H995 H 0.85334 0.88349 0.11629 0.0
H996 H 0.95713 0.89605 0.97674 0.0
H997 H 0.91582 0.86674 0.2407 0.0
H998 H 0.88791 0.87717 0.05541 0.0
H999 H 0.97384 0.84734 0.12921 0.0
C1000 C 0.9919 0.86132 0.06653 0.0
C1001 C 0.98776 0.87558 0.02378 0.0
C1002 C 0.89383 0.8741 0.09578 0.0
C1003 C 0.94381 0.86799 0.08053 0.0
C1004 C 0.87407 0.87755 0.1304 0.0
C1005 C 0.88141 0.87456 0.18325 0.0
C1006 C 0.92127 0.86788 0.11424 0.0
C1007 C 0.90882 0.86767 0.19982 0.0
C1008 C 0.97001 0.85752 0.09506 0.0
C1009 C 0.96104 0.88471 1.00917 0.0
N1010 N 0.92775 0.86466 0.1656 0.0
N1011 N 0.94014 0.88087 0.03754 0.0
H1012 H 0.42301 0.64231 0.47384 0.0
H1013 H 0.36572 0.78233 0.43195 0.0
H1014 H 0.35826 0.68053 0.54909 0.0
H1015 H 0.40614 0.73835 0.31476 0.0
H1016 H 0.37481 0.74845 0.48821 0.0
H1017 H 0.4273 0.67994 0.42622 0.0
C1018 C 0.41027 0.65877 0.48131 0.0
C1019 C 0.39074 0.65864 0.51635 0.0
C1020 C 0.38196 0.74621 0.45039 0.0
C1021 C 0.39519 0.7012 0.46208 0.0
C1022 C 0.37682 0.7656 0.41831 0.0
C1023 C 0.38483 0.76299 0.3684 0.0
C1024 C 0.39483 0.7237 0.43232 0.0
C1025 C 0.39958 0.74106 0.35303 0.0
C1026 C 0.41251 0.68008 0.45382 0.0
C1027 C 0.37375 0.67997 0.52272 0.0
N1028 N 0.40374 0.72196 0.38462 0.0
N1029 N 0.37649 0.70033 0.49626 0.0
H1030 H 0.46248 0.13282 0.52075 0.0
H1031 H 0.62268 0.14482 0.6414 0.0
H1032 H 0.53116 0.11549 0.43448 0.0
H1033 H 0.55558 0.14628 0.73388 0.0
H1034 H 0.58883 0.14657 0.56332 0.0
H1035 H 0.49553 0.14978 0.59638 0.0
C1036 C 0.48441 0.13324 0.51722 0.0
C1037 C 0.49411 0.12254 0.47137 0.0
C1038 C 0.58149 0.14736 0.60088 0.0
C1039 C 0.532 0.14168 0.5577 0.0
C1040 C 0.60085 0.14664 0.64547 0.0
C1041 C 0.59194 0.14614 0.69428 0.0
C1042 C 0.55292 0.147 0.60499 0.0
C1043 C 0.56337 0.14774 0.69731 0.0
C1044 C 0.50329 0.14274 0.56051 0.0
C1045 C 0.52281 0.1233 0.46925 0.0
N1046 N 0.54485 0.14773 0.65324 0.0
N1047 N 0.54068 0.13244 0.51179 0.0
H1048 H 0.1215 0.81925 0.64994 0.0
H1049 H 0.18006 0.69536 0.49608 0.0
H1050 H 0.18961 0.77409 0.71256 0.0
H1051 H 0.11963 0.74445 0.42156 0.0
H1052 H 0.18524 0.72593 0.57395 0.0
H1053 H 0.12173 0.79431 0.56478 0.0
C1054 C 0.13683 0.80449 0.64582 0.0
C1055 C 0.15556 0.79884 0.68897 0.0
C1056 C 0.17103 0.73026 0.54049 0.0
C1057 C 0.15557 0.7699 0.5915 0.0
C1058 C 0.16811 0.71276 0.49581 0.0
C1059 C 0.14934 0.71724 0.45204 0.0
C1060 C 0.1548 0.75241 0.54215 0.0
C1061 C 0.13446 0.74022 0.45423 0.0
C1062 C 0.13681 0.79011 0.59712 0.0
C1063 C 0.17454 0.77908 0.68091 0.0
N1064 N 0.13724 0.75679 0.49873 0.0
N1065 N 0.17393 0.76534 0.63357 0.0
H1066 H 0.52693 0.87161 0.09751 0.0
H1067 H 0.54611 0.87882 0.79924 0.0
H1068 H 0.45814 0.88052 0.97819 0.0
H1069 H 0.61275 0.88659 0.92645 0.0
H1070 H 0.51375 0.86994 0.86004 0.0
H1071 H 0.55812 0.86776 0.03156 0.0
C1072 C 0.51826 0.87253 0.05727 0.0
C1073 C 0.48977 0.87671 0.04372 0.0
C1074 C 0.53554 0.87299 0.8745 0.0
C1075 C 0.5258 0.87237 0.96738 0.0
C1076 C 0.5541 0.87759 0.83967 0.0
C1077 C 0.58224 0.88272 0.85775 0.0
C1078 C 0.54522 0.8737 0.92789 0.0
C1079 C 0.59128 0.88232 0.91092 0.0
C1080 C 0.53619 0.87031 0.01955 0.0
C1081 C 0.47986 0.87727 0.99065 0.0
N1082 N 0.57285 0.87798 0.94409 0.0
N1083 N 0.49791 0.87543 0.95449 0.0
H1084 H 0.35902 0.33806 0.99744 0.0
H1085 H 0.32783 0.19087 0.02268 0.0
H1086 H 0.32505 0.2835 0.86917 0.0
H1087 H 0.37472 0.24037 0.14632 0.0
H1088 H 0.32416 0.22576 0.96825 0.0
H1089 H 0.36166 0.30397 0.05502 0.0
C1090 C 0.35171 0.31904 0.98149 0.0
C1091 C 0.34175 0.3137 0.92825 0.0
C1092 C 0.3354 0.22904 1.00716 0.0
C1093 C 0.34504 0.27455 0.99392 0.0
C1094 C 0.33751 0.20907 0.03841 0.0
C1095 C 0.35175 0.21252 0.08923 0.0
C1096 C 0.34738 0.25295 0.02671 0.0
C1097 C 0.36392 0.23662 0.10719 0.0
C1098 C 0.35348 0.29955 0.01434 0.0
C1099 C 0.33291 0.28859 0.90981 0.0
N1100 N 0.36133 0.25596 0.07603 0.0
N1101 N 0.3348 0.27004 0.94249 0.0
H1102 H 1.00568 0.13212 0.25357 0.0
H1103 H 0.03003 0.07708 0.53026 0.0
H1104 H 0.94175 0.09656 0.32244 0.0
H1105 H 0.08781 0.12953 0.48365 0.0
H1106 H 1.00076 0.07873 0.44766 0.0
H1107 H 0.03875 0.12622 0.33084 0.0
C1108 C 0.99861 0.12283 0.28462 0.0
C1109 C 0.97075 0.11488 0.28139 0.0
C1110 C 0.01991 0.08978 0.45525 0.0
C1111 C 0.00867 0.10807 0.37001 0.0
C1112 C 0.03677 0.08886 0.50259 0.0
C1113 C 0.06155 0.10331 0.51464 0.0
C1114 C 0.02765 0.10524 0.41891 0.0
C1115 C 0.06912 0.11788 0.47639 0.0
C1116 C 0.01753 0.1196 0.32884 0.0
C1117 C 0.96289 0.10313 0.32313 0.0
N1118 N 0.05215 0.11859 0.43039 0.0
N1119 N 0.9817 0.10009 0.36553 0.0
H1120 H 0.87002 0.75416 0.14155 0.0
H1121 H 0.87176 0.71207 0.83788 0.0
H1122 H 0.82138 0.79122 0.02086 0.0
H1123 H 0.89398 0.66086 0.95495 0.0
H1124 H 0.85899 0.74417 0.90547 0.0
H1125 H 0.88492 0.72274 0.07458 0.0
C1126 C 0.86272 0.7559 0.10101 0.0
C1127 C 0.8445 0.7755 0.08682 0.0
C1128 C 0.86666 0.7259 0.91634 0.0
C1129 C 0.86143 0.7395 1.01008 0.0
C1130 C 0.87405 0.70757 0.87779 0.0
C1131 C 0.88388 0.68364 0.89063 0.0
C1132 C 0.86949 0.72049 0.96836 0.0
C1133 C 0.88633 0.67896 0.94313 0.0
C1134 C 0.87105 0.73782 0.06285 0.0
C1135 C 0.83534 0.77642 0.03364 0.0
N1136 N 0.8793 0.69724 0.98007 0.0
N1137 N 0.84399 0.7588 0.99727 0.0
H1138 H 0.10173 0.14422 0.78358 0.0
H1139 H 0.05262 0.13248 0.0612 0.0
H1140 H 0.15717 0.12328 0.91469 0.0
H1141 H 0.99795 0.14003 0.91975 0.0
H1142 H 0.09271 0.13883 0.01495 0.0
H1143 H 0.06572 0.153 0.83942 0.0
C1144 C 0.10674 0.14264 0.8248 0.0
C1145 C 0.13288 0.13411 0.84496 0.0
C1146 C 0.07192 0.1397 0.99439 0.0
C1147 C 0.09088 0.14231 0.90897 0.0
C1148 C 0.04908 0.13639 0.02092 0.0
C1149 C 0.02201 0.13606 0.99427 0.0
C1150 C 0.06753 0.14272 0.94093 0.0
C1151 C 0.0185 0.14043 0.94175 0.0
C1152 C 0.08592 0.14709 0.85658 0.0
C1153 C 0.13746 0.13039 0.89793 0.0
N1154 N 0.04092 0.14343 0.91681 0.0
N1155 N 0.11661 0.13437 0.9281 0.0
H1156 H 0.63682 0.2278 0.59958 0.0
H1157 H 0.60518 0.37515 0.58622 0.0
H1158 H 0.60767 0.27387 0.72787 0.0
H1159 H 0.61441 0.32126 0.45345 0.0
H1160 H 0.60303 0.33913 0.63901 0.0
H1161 H 0.62564 0.26208 0.5449 0.0
C1162 C 0.62774 0.24513 0.616 0.0
C1163 C 0.62318 0.24806 0.66818 0.0
C1164 C 0.60464 0.33522 0.5979 0.0
C1165 C 0.61085 0.28788 0.60613 0.0
C1166 C 0.60576 0.35572 0.56788 0.0
C1167 C 0.60886 0.35102 0.515 0.0
C1168 C 0.60745 0.31004 0.5749 0.0
C1169 C 0.61055 0.32563 0.49333 0.0
C1170 C 0.62131 0.26475 0.58479 0.0
C1171 C 0.61132 0.27088 0.68761 0.0
N1172 N 0.61001 0.30619 0.52331 0.0
N1173 N 0.60596 0.29016 0.65677 0.0
H1174 H 0.38342 0.8681 0.37896 0.0
H1175 H 0.54386 0.88096 0.4959 0.0
H1176 H 0.44974 0.85997 0.28452 0.0
H1177 H 0.47639 0.88775 0.58837 0.0
H1178 H 0.51059 0.86593 0.41937 0.0
H1179 H 0.41758 0.86781 0.45704 0.0
C1180 C 0.40512 0.86533 0.37468 0.0
C1181 C 0.41372 0.86333 0.32527 0.0
C1182 C 0.50315 0.87035 0.45662 0.0
C1183 C 0.45319 0.86413 0.41436 0.0
C1184 C 0.52221 0.87879 0.50046 0.0
C1185 C 0.51292 0.88595 0.54867 0.0
C1186 C 0.47464 0.86905 0.46105 0.0
C1187 C 0.48449 0.8829 0.55188 0.0
C1188 C 0.42469 0.86538 0.41921 0.0
C1189 C 0.44216 0.86049 0.3218 0.0
N1190 N 0.46643 0.87497 0.50878 0.0
N1191 N 0.46091 0.86133 0.36571 0.0
H1192 H 0.88837 0.18358 0.38142 0.0
H1193 H 0.82803 0.30849 0.52547 0.0
H1194 H 0.8217 0.22825 0.31195 0.0
H1195 H 0.88449 0.25825 0.60641 0.0
H1196 H 0.82256 0.27675 0.44933 0.0
H1197 H 0.88478 0.20784 0.4661 0.0
C1198 C 0.8726 0.19804 0.384 0.0
C1199 C 0.85542 0.20393 0.33918 0.0
C1200 C 0.83584 0.27241 0.48394 0.0
C1201 C 0.85155 0.23206 0.43588 0.0
C1202 C 0.83888 0.29055 0.52758 0.0
C1203 C 0.85681 0.28612 0.57242 0.0
C1204 C 0.85123 0.24975 0.48452 0.0
C1205 C 0.87035 0.26246 0.57277 0.0
C1206 C 0.87067 0.21202 0.43239 0.0
C1207 C 0.83567 0.22321 0.34512 0.0
N1208 N 0.86765 0.24535 0.52921 0.0
N1209 N 0.83448 0.23666 0.3922 0.0
H1210 H 0.55546 0.12449 0.04299 0.0
H1211 H 0.39628 0.12474 0.09292 0.0
H1212 H 0.48544 0.12074 0.92181 0.0
H1213 H 0.46511 0.12173 0.21418 0.0
H1214 H 0.429 0.13233 0.03194 0.0
H1215 H 0.52335 0.13212 0.10811 0.0
C1216 C 0.53346 0.12577 0.02995 0.0
C1217 C 0.52318 0.1217 0.97671 0.0
C1218 C 0.43697 0.13072 0.07224 0.0
C1219 C 0.48625 0.13021 0.05109 0.0
C1220 C 0.41824 0.12669 0.10707 0.0
C1221 C 0.42802 0.12338 0.15885 0.0
C1222 C 0.46575 0.13084 0.0891 0.0
C1223 C 0.45674 0.1251 0.17494 0.0
C1224 C 0.51508 0.12997 0.06719 0.0
C1225 C 0.49435 0.12335 0.96238 0.0
N1226 N 0.47461 0.12846 0.14016 0.0
N1227 N 0.47699 0.12725 0.99917 0.0
H1228 H 0.67532 0.72163 0.14891 0.0
H1229 H 0.62608 0.76306 0.86418 0.0
H1230 H 0.6446 0.66712 0.01814 0.0
H1231 H 0.66898 0.81274 0.99226 0.0
H1232 H 0.62919 0.72813 0.92015 0.0
H1233 H 0.6708 0.75546 0.09179 0.0
C1234 C 0.66785 0.71669 0.10802 0.0
C1235 C 0.66042 0.6914 0.0884 0.0
C1236 C 0.63777 0.74674 0.93592 0.0
C1237 C 0.65477 0.73038 0.02244 0.0
C1238 C 0.63572 0.76676 0.90418 0.0
C1239 C 0.64725 0.79093 0.92356 0.0
C1240 C 0.65125 0.75102 0.98737 0.0
C1241 C 0.65995 0.79443 0.97547 0.0
C1242 C 0.66517 0.7361 0.07535 0.0
C1243 C 0.65079 0.68629 0.03494 0.0
N1244 N 0.66161 0.77479 1.00537 0.0
N1245 N 0.64808 0.70564 1.00386 0.0
H1246 H 0.92068 0.89755 0.55704 0.0
H1247 H 0.07807 0.89085 0.69259 0.0
H1248 H 0.9932 0.90164 0.47867 0.0
H1249 H 0.00843 0.88134 0.77593 0.0
H1250 H 0.04618 0.89574 0.6147 0.0
H1251 H 0.95121 0.89167 0.6377 0.0
C1252 C 0.94287 0.89694 0.55637 0.0
C1253 C 0.95425 0.90009 0.51053 0.0
C1254 C 0.03772 0.89263 0.64993 0.0
C1255 C 0.98927 0.89379 0.60306 0.0
C1256 C 0.05604 0.88993 0.69475 0.0
C1257 C 0.04607 0.88574 0.74127 0.0
C1258 C 0.00897 0.89116 0.65104 0.0
C1259 C 0.01712 0.88457 0.74104 0.0
C1260 C 0.96031 0.89377 0.60265 0.0
C1261 C 0.98329 0.89957 0.5128 0.0
N1262 N 0.99957 0.88726 0.69661 0.0
N1263 N 0.99964 0.89655 0.55802 0.0
H1264 H 0.64393 0.7479 0.36195 0.0
H1265 H 0.64401 0.79133 0.66556 0.0
H1266 H 0.69177 0.7105 0.48306 0.0
H1267 H 0.62107 0.84214 0.54803 0.0
H1268 H 0.6564 0.75904 0.59813 0.0
H1269 H 0.62996 0.78006 0.42861 0.0
C1270 C 0.65125 0.74624 0.4025 0.0
C1271 C 0.66895 0.72632 0.4169 0.0
C1272 C 0.6487 0.77727 0.58709 0.0
C1273 C 0.65313 0.76316 0.49328 0.0
C1274 C 0.64155 0.79572 0.62558 0.0
C1275 C 0.63156 0.81958 0.61258 0.0
C1276 C 0.64552 0.78247 0.53493 0.0
C1277 C 0.62886 0.82411 0.55996 0.0
C1278 C 0.64346 0.76475 0.44049 0.0
C1279 C 0.67819 0.72553 0.4701 0.0
N1280 N 0.63566 0.80569 0.52305 0.0
N1281 N 0.67008 0.74356 0.50626 0.0
H1282 H 0.45705 0.37147 0.47711 0.0
H1283 H 0.41042 0.36574 0.75856 0.0
H1284 H 0.51292 0.36852 0.61895 0.0
H1285 H 0.35347 0.3819 0.6254 0.0
H1286 H 0.44624 0.35618 0.70262 0.0
H1287 H 0.4176 0.36537 0.52513 0.0
C1288 C 0.46101 0.36863 0.51796 0.0
C1289 C 0.4882 0.37016 0.54414 0.0
C1290 C 0.42577 0.36118 0.68511 0.0
C1291 C 0.44341 0.36381 0.59943 0.0
C1292 C 0.40506 0.36603 0.717 0.0
C1293 C 0.37857 0.37351 0.6963 0.0
C1294 C 0.42031 0.36449 0.63199 0.0
C1295 C 0.37349 0.37568 0.64268 0.0
C1296 C 0.43853 0.36545 0.54546 0.0
C1297 C 0.49226 0.36714 0.59733 0.0
N1298 N 0.39423 0.37136 0.61236 0.0
N1299 N 0.47016 0.36427 0.62322 0.0
H1300 H 0.90262 0.18454 0.09069 0.0
H1301 H 0.89226 0.23513 0.81052 0.0
H1302 H 0.89762 0.13315 0.94962 0.0
H1303 H 0.87041 0.2786 0.94893 0.0
H1304 H 0.90526 0.19929 0.86166 0.0
H1305 H 0.90372 0.22071 0.0403 0.0
C1306 C 0.90334 0.18081 0.04931 0.0
C1307 C 0.90128 0.15577 0.02458 0.0
C1308 C 0.89788 0.2168 0.88079 0.0
C1309 C 0.90032 0.19731 0.96575 0.0
C1310 C 0.8906 0.2373 0.85176 0.0
C1311 C 0.88017 0.2599 0.87554 0.0
C1312 C 0.89512 0.21911 0.93403 0.0
C1313 C 0.87812 0.26148 0.92892 0.0
C1314 C 0.90315 0.20154 0.02027 0.0
C1315 C 0.89985 0.15219 0.97016 0.0
N1316 N 0.88552 0.24143 0.95628 0.0
N1317 N 0.89922 0.17277 0.9424 0.0
H1318 H 0.12007 0.66206 0.14628 0.0
H1319 H 0.96708 0.61581 0.01307 0.0
H1320 H 0.06457 0.61711 0.21673 0.0
H1321 H 0.03417 0.62504 0.92361 0.0
H1322 H 0.99832 0.63033 0.09274 0.0
H1323 H 0.08448 0.66187 0.06882 0.0
C1324 C 0.10008 0.65301 0.14619 0.0
C1325 C 0.09483 0.64024 0.18844 0.0
C1326 C 1.00602 0.62962 0.0555 0.0
C1327 C 0.05446 0.63969 0.10063 0.0
C1328 C 0.98814 0.6215 1.01 0.0
C1329 C 0.99808 0.61899 0.96162 0.0
C1330 C 0.03394 0.63558 0.05263 0.0
C1331 C 0.02575 0.62639 0.96021 0.0
C1332 C 0.07992 0.6527 0.10201 0.0
C1333 C 0.06905 0.62786 0.18557 0.0
N1334 N 0.04276 0.63419 1.00499 0.0
N1335 N 0.04986 0.62798 0.14275 0.0
H1336 H 0.66966 0.25906 0.238 0.0
H1337 H 0.60866 0.23884 0.9363 0.0
H1338 H 0.61421 0.3134 0.1664 0.0
H1339 H 0.64215 0.17835 0.02444 0.0
H1340 H 0.61488 0.26849 0.01656 0.0
H1341 H 0.66433 0.2317 0.15638 0.0
C1342 C 0.65638 0.26545 0.20528 0.0
C1343 C 0.64239 0.28887 0.21002 0.0
C1344 C 0.62084 0.24873 0.01819 0.0
C1345 C 0.63634 0.2571 0.11509 0.0
C1346 C 0.61743 0.2318 0.97241 0.0
C1347 C 0.62488 0.20601 0.97355 0.0
C1348 C 0.63217 0.2399 0.06534 0.0
C1349 C 0.63598 0.19798 0.02158 0.0
C1350 C 0.65337 0.24964 0.15843 0.0
C1351 C 0.62575 0.29583 0.1653 0.0
N1352 N 0.63938 0.21485 0.06533 0.0
N1353 N 0.6232 0.28001 0.11978 0.0
H1354 H 0.95033 0.38765 0.48191 0.0
H1355 H 0.10426 0.36918 0.40626 0.0
H1356 H 0.01718 0.35446 0.57813 0.0
H1357 H 0.04637 0.42188 0.33715 0.0
H1358 H 0.07062 0.35982 0.46416 0.0
H1359 H 0.98372 0.39825 0.4242 0.0
C1360 C 0.97196 0.38298 0.49151 0.0
C1361 C 0.9808 0.37002 0.535 0.0
C1362 C 0.06528 0.3734 0.43615 0.0
C1363 C 0.0189 0.3814 0.46839 0.0
C1364 C 0.08444 0.37846 0.40271 0.0
C1365 C 0.07805 0.39604 0.36644 0.0
C1366 C 0.03956 0.38597 0.43303 0.0
C1367 C 0.05217 0.4082 0.36474 0.0
C1368 C 0.99099 0.3888 0.45826 0.0
C1369 C 0.00918 0.36413 0.54475 0.0
N1370 N 0.03386 0.40286 0.39725 0.0
N1371 N 0.02705 0.36963 0.51164 0.0
H1372 H 0.84191 0.68654 0.50998 0.0
H1373 H 0.86517 0.83521 0.48676 0.0
H1374 H 0.88374 0.7377 0.63669 0.0
H1375 H 0.83934 0.77907 0.35598 0.0
H1376 H 0.86911 0.801 0.54418 0.0
H1377 H 0.83866 0.72118 0.45484 0.0
C1378 C 0.85061 0.70507 0.52618 0.0
C1379 C 0.86323 0.7091 0.5781 0.0
C1380 C 0.86248 0.79624 0.50294 0.0
C1381 C 0.85923 0.74926 0.51486 0.0
C1382 C 0.85997 0.81578 0.47015 0.0
C1383 C 0.85181 0.81009 0.4163 0.0
C1384 C 0.85657 0.77082 0.48187 0.0
C1385 C 0.84569 0.78447 0.3971 0.0
C1386 C 0.84873 0.72489 0.49456 0.0
C1387 C 0.87417 0.73358 0.59674 0.0
N1388 N 0.84818 0.76589 0.42975 0.0
N1389 N 0.87174 0.7528 0.56524 0.0
H1390 H 0.54258 0.55425 0.97834 0.0
H1391 H 0.50964 0.62875 0.72553 0.0
H1392 H 0.59034 0.61983 0.95377 0.0
H1393 H 0.45598 0.57189 0.76921 0.0
H1394 H 0.54425 0.62087 0.79952 0.0
H1395 H 0.51599 0.55561 0.8928 0.0
C1396 C 0.54773 0.5688 0.95469 0.0
C1397 C 0.5687 0.58703 0.97369 0.0
C1398 C 0.52506 0.60989 0.79239 0.0
C1399 C 0.53787 0.58887 0.87511 0.0
C1400 C 0.50535 0.61424 0.74993 0.0
C1401 C 0.47973 0.60107 0.74122 0.0
C1402 C 0.5192 0.5921 0.82609 0.0
C1403 C 0.47529 0.58265 0.7745 0.0
C1404 C 0.53246 0.56958 0.90572 0.0
C1405 C 0.57454 0.60525 0.94079 0.0
N1406 N 0.49469 0.57885 0.81545 0.0
N1407 N 0.55898 0.60589 0.89333 0.0
H1408 H 0.36353 0.25628 0.65221 0.0
H1409 H 0.36378 0.21443 0.34814 0.0
H1410 H 0.31413 0.2931 0.53204 0.0
H1411 H 0.38871 0.16385 0.46526 0.0
H1412 H 0.35102 0.24632 0.41599 0.0
H1413 H 0.37861 0.22516 0.58501 0.0
C1414 C 0.3561 0.25804 0.61174 0.0
C1415 C 0.33763 0.27748 0.59774 0.0
C1416 C 0.35928 0.22824 0.42682 0.0
C1417 C 0.35472 0.2418 0.52076 0.0
C1418 C 0.36665 0.21003 0.38812 0.0
C1419 C 0.37724 0.18633 0.40091 0.0
C1420 C 0.36283 0.22294 0.47892 0.0
C1421 C 0.38045 0.18176 0.4535 0.0
C1422 C 0.36454 0.24012 0.57344 0.0
C1423 C 0.3283 0.27841 0.54465 0.0
N1424 N 0.37337 0.19992 0.49059 0.0
N1425 N 0.33702 0.26094 0.50815 0.0
H1426 H 0.54075 0.62997 0.52623 0.0
H1427 H 0.59458 0.63327 0.24957 0.0
H1428 H 0.48933 0.61886 0.37747 0.0
H1429 H 0.64969 0.61961 0.38699 0.0
H1430 H 0.55661 0.63983 0.3016 0.0
H1431 H 0.58118 0.63686 0.48106 0.0
C1432 C 0.53787 0.62958 0.48424 0.0
C1433 C 0.5117 0.62381 0.45543 0.0
C1434 C 0.5771 0.636 0.32085 0.0
C1435 C 0.55757 0.63165 0.40383 0.0
C1436 C 0.59897 0.63285 0.29127 0.0
C1437 C 0.62556 0.62693 0.31434 0.0
C1438 C 0.58158 0.63266 0.37401 0.0
C1439 C 0.62956 0.62467 0.36799 0.0
C1440 C 0.56093 0.63331 0.45852 0.0
C1441 C 0.50915 0.62314 0.4011 0.0
N1442 N 0.60775 0.62742 0.39609 0.0
N1443 N 0.53172 0.62695 0.37717 0.0
H1444 H 0.10271 0.73534 0.11772 0.0
H1445 H 0.12089 0.88292 0.08156 0.0
H1446 H 0.16734 0.78292 0.2091 0.0
H1447 H 0.10914 0.82485 0.9512 0.0
H1448 H 0.12181 0.84925 0.14049 0.0
H1449 H 0.08872 0.77141 0.06738 0.0
C1450 C 0.11359 0.75351 0.12769 0.0
C1451 C 0.13631 0.75624 0.1672 0.0
C1452 C 0.1177 0.84411 0.09881 0.0
C1453 C 0.12001 0.79742 0.11124 0.0
C1454 C 0.11691 0.86325 0.06528 0.0
C1455 C 0.11313 0.85678 0.01114 0.0
C1456 C 0.11454 0.81839 0.07792 0.0
C1457 C 0.10943 0.83088 0.99209 0.0
C1458 C 0.10563 0.77397 0.09909 0.0
C1459 C 0.14986 0.78008 0.17858 0.0
N1460 N 0.11023 0.81263 0.02533 0.0
N1461 N 0.14148 0.79981 0.1508 0.0
H1462 H 0.05156 0.38314 1.00216 0.0
H1463 H 0.89851 0.34157 0.86209 0.0
H1464 H 0.98967 0.34757 0.07642 0.0
H1465 H 0.95248 0.39098 0.79827 0.0
H1466 H 0.93459 0.33865 0.93646 0.0
H1467 H 0.01758 0.38315 0.92347 0.0
C1468 C 0.03085 0.3757 1.00236 0.0
C1469 C 0.02358 0.36535 0.04619 0.0
C1470 C 0.93872 0.34981 0.90572 0.0
C1471 C 0.98493 0.36463 0.95597 0.0
C1472 C 0.91826 0.35106 0.8629 0.0
C1473 C 0.92295 0.36582 0.82338 0.0
C1474 C 0.96378 0.36372 0.90912 0.0
C1475 C 0.9484 0.37897 0.82771 0.0
C1476 C 0.01153 0.37544 0.95723 0.0
C1477 C 0.99644 0.35553 0.04354 0.0
N1478 N 0.96787 0.37762 0.86972 0.0
N1479 N 0.97826 0.35531 0.99934 0.0
H1480 H 0.36262 0.73321 0.79111 0.0
H1481 H 0.38494 0.76062 0.10114 0.0
H1482 H 0.38708 0.67528 0.89211 0.0
H1483 H 0.36867 0.81856 0.99612 0.0
H1484 H 0.37744 0.7277 0.02662 0.0
H1485 H 0.35464 0.76258 0.8667 0.0
C1486 C 0.36522 0.72639 0.8292 0.0
C1487 C 0.37515 0.70175 0.83547 0.0
C1488 C 0.37525 0.74761 0.01998 0.0
C1489 C 0.36749 0.73564 0.92264 0.0
C1490 C 0.37956 0.76646 0.06253 0.0
C1491 C 0.37776 0.7925 0.05499 0.0
C1492 C 0.36896 0.75479 0.96943 0.0
C1493 C 0.37062 0.79881 1.00395 0.0
C1494 C 0.36108 0.74327 0.87248 0.0
C1495 C 0.37893 0.694 0.88569 0.0
N1496 N 0.36666 0.78013 0.96327 0.0
N1497 N 0.37555 0.71105 0.92756 0.0
H1498 H 0.96828 0.62086 0.71252 0.0
H1499 H 1.0028 0.61596 0.42003 0.0
H1500 H 0.90709 0.60934 0.57666 0.0
H1501 H 0.06386 0.63775 0.55283 0.0
H1502 H 0.96874 0.6095 0.4783 0.0
H1503 H 1.00414 0.62625 0.65666 0.0
C1504 C 0.96223 0.62072 0.67103 0.0
C1505 C 0.93454 0.61597 0.6492 0.0
C1506 C 0.98966 0.61529 0.49499 0.0
C1507 C 0.97566 0.61995 0.58473 0.0
C1508 C 0.00922 0.61856 0.46171 0.0
C1509 C 0.03623 0.62695 0.48178 0.0
C1510 C 0.997 0.62079 0.54897 0.0
C1511 C 0.04338 0.6307 0.53598 0.0
C1512 C 0.9828 0.62308 0.63905 0.0
C1513 C 0.92811 0.61374 0.59496 0.0
N1514 N 0.02377 0.62783 0.56783 0.0
N1515 N 0.9485 0.61569 0.56459 0.0
H1516 H 0.14451 0.27327 0.39962 0.0
H1517 H 0.18626 0.22898 0.68391 0.0
H1518 H 0.18219 0.32299 0.53303 0.0
H1519 H 0.15639 0.17643 0.54931 0.0
H1520 H 0.1852 0.2634 0.62824 0.0
H1521 H 0.14806 0.23764 0.45303 0.0
C1522 C 0.15322 0.27688 0.44016 0.0
C1523 C 0.16275 0.30144 0.46184 0.0
C1524 C 0.17905 0.24432 0.6107 0.0
C1525 C 0.16735 0.26039 0.52301 0.0
C1526 C 0.17972 0.22458 0.64253 0.0
C1527 C 0.17137 0.19968 0.62142 0.0
C1528 C 0.16975 0.23933 0.55718 0.0
C1529 C 0.16311 0.19527 0.56738 0.0
C1530 C 0.1555 0.25638 0.47053 0.0
C1531 C 0.17456 0.3045 0.51439 0.0
N1532 N 0.16231 0.21492 0.53722 0.0
N1533 N 0.17641 0.28433 0.54304 0.0
H1534 H 0.48169 0.43028 0.01389 0.0
H1535 H 0.50358 0.36678 0.28085 0.0
H1536 H 0.42213 0.37646 0.05061 0.0
H1537 H 0.56972 0.39848 0.21132 0.0
H1538 H 0.47091 0.37473 0.20403 0.0
H1539 H 0.51113 0.42393 0.09401 0.0
C1540 C 0.47459 0.41718 0.03879 0.0
C1541 C 0.44921 0.40383 0.0247 0.0
C1542 C 0.49258 0.37993 0.2058 0.0
C1543 C 0.48331 0.39652 0.11766 0.0
C1544 C 0.51124 0.3755 0.24965 0.0
C1545 C 0.53952 0.382 0.25272 0.0
C1546 C 0.50217 0.39132 0.16511 0.0
C1547 C 0.54821 0.39311 0.21089 0.0
C1548 C 0.49157 0.41356 0.08473 0.0
C1549 C 0.44126 0.38742 0.05956 0.0
N1550 N 0.52963 0.3975 0.16913 0.0
N1551 N 0.45831 0.38417 0.10435 0.0
loop_
_geom_bond_atom_site_label_1
_geom_bond_atom_site_label_2
_geom_bond_distance
_geom_bond_site_symmetry_2
_ccdc_geom_bond_type
Zn0 N4 2.020 . S
Zn0 O8 2.019 . S
Zn0 N10 2.119 . S
Zn0 O18 1.975 . S
C1 N2 1.334 . S
C1 N5 1.336 . S
N2 C1 1.334 . S
N2 C3 1.334 . S
C3 N2 1.334 . S
C3 N4 1.336 . S
N4 Zn0 2.020 . S
N4 C3 1.336 . S
N4 N5 1.354 . S
N5 C1 1.336 . S
N5 N4 1.354 . S
N5 Zn9 2.020 . S
C6 O7 1.244 . S
C6 O30 1.257 . S
O7 C6 1.244 . S
O8 Zn0 2.019 . S
O8 C28 1.257 . S
Zn9 N5 2.020 . S
Zn9 O16 1.975 . S
Zn9 N25 2.119 . S
Zn9 O30 2.019 . S
N10 Zn0 2.119 . S
N10 C12 1.334 . S
N10 C13 1.328 . S
C11 C12 1.391 . S
C11 N14 1.329 . S
C11 H32 0.930 . S
C12 N10 1.334 . S
C12 C11 1.391 . S
C12 H19 0.930 . S
C13 N10 1.328 . S
C13 C15 1.392 . S
C13 H20 0.930 . S
N14 C11 1.329 . S
N14 C15 1.331 . S
C15 C13 1.392 . S
C15 N14 1.331 . S
O16 Zn9 1.975 . S
O16 C17 1.252 . S
C17 O16 1.252 . S
C17 O18 1.252 . S
O18 Zn0 1.975 . S
O18 C17 1.252 . S
H19 C12 0.930 . S
H20 C13 0.930 . S
C21 C22 1.392 1_554 S
C21 N25 1.328 . S
C21 H27 0.930 . S
C22 C21 1.392 1_556 S
C22 N26 1.331 . S
C23 C24 1.391 . S
C23 N26 1.329 1_554 S
C23 H33 0.930 . S
C24 C23 1.391 . S
C24 N25 1.334 . S
C24 H31 0.930 . S
N25 Zn9 2.119 . S
N25 C21 1.328 . S
N25 C24 1.334 . S
N26 C22 1.331 . S
N26 C23 1.329 1_556 S
H27 C21 0.930 . S
C28 O8 1.257 . S
C28 O29 1.244 . S
O29 C28 1.244 . S
O30 C6 1.257 . S
O30 Zn9 2.019 . S
H31 C24 0.930 . S
H32 C11 0.930 . S
H33 C23 0.930 . S
Zn34 N38 2.020 . S
Zn34 O42 2.019 . S
Zn34 N44 2.119 . S
Zn34 O52 1.975 . S
C35 N36 1.334 . S
C35 N39 1.336 . S
N36 C35 1.334 . S
N36 C37 1.334 . S
C37 N36 1.334 . S
C37 N38 1.336 . S
N38 Zn34 2.020 . S
N38 C37 1.336 . S
N38 N39 1.354 . S
N39 C35 1.336 . S
N39 N38 1.354 . S
N39 Zn43 2.020 . S
C40 O41 1.244 . S
C40 O64 1.257 . S
O41 C40 1.244 . S
O42 Zn34 2.019 . S
O42 C62 1.257 . S
Zn43 N39 2.020 . S
Zn43 O50 1.975 . S
Zn43 N59 2.119 . S
Zn43 O64 2.019 . S
N44 Zn34 2.119 . S
N44 C46 1.334 . S
N44 C47 1.328 . S
C45 C46 1.391 . S
C45 N48 1.329 . S
C45 H66 0.930 . S
C46 N44 1.334 . S
C46 C45 1.391 . S
C46 H53 0.930 . S
C47 N44 1.328 . S
C47 C49 1.392 . S
C47 H54 0.930 . S
N48 C45 1.329 . S
N48 C49 1.331 . S
C49 C47 1.392 . S
C49 N48 1.331 . S
O50 Zn43 1.975 . S
O50 C51 1.252 . S
C51 O50 1.252 . S
C51 O52 1.252 . S
O52 Zn34 1.975 . S
O52 C51 1.252 . S
H53 C46 0.930 . S
H54 C47 0.930 . S
C55 C56 1.392 . S
C55 N59 1.328 . S
C55 H61 0.930 . S
C56 C55 1.392 . S
C56 N60 1.331 . S
C57 C58 1.391 . S
C57 N60 1.329 . S
C57 H67 0.930 . S
C58 C57 1.391 . S
C58 N59 1.334 . S
C58 H65 0.930 . S
N59 Zn43 2.119 . S
N59 C55 1.328 . S
N59 C58 1.334 . S
N60 C56 1.331 . S
N60 C57 1.329 . S
H61 C55 0.930 . S
C62 O42 1.257 . S
C62 O63 1.244 . S
O63 C62 1.244 . S
O64 C40 1.257 . S
O64 Zn43 2.019 . S
H65 C58 0.930 . S
H66 C45 0.930 . S
H67 C57 0.930 . S
Zn68 N72 2.020 . S
Zn68 O76 2.019 . S
Zn68 N78 2.119 . S
Zn68 O86 1.975 . S
C69 N70 1.334 . S
C69 N73 1.336 . S
N70 C69 1.334 . S
N70 C71 1.334 . S
C71 N70 1.334 . S
C71 N72 1.336 . S
N72 Zn68 2.020 . S
N72 C71 1.336 . S
N72 N73 1.354 . S
N73 C69 1.336 . S
N73 N72 1.354 . S
N73 Zn77 2.020 . S
C74 O75 1.244 . S
C74 O98 1.257 . S
O75 C74 1.244 . S
O76 Zn68 2.019 . S
O76 C96 1.257 . S
Zn77 N73 2.020 . S
Zn77 O84 1.975 . S
Zn77 N93 2.119 . S
Zn77 O98 2.019 . S
N78 Zn68 2.119 . S
N78 C80 1.334 . S
N78 C81 1.328 . S
C79 C80 1.391 . S
C79 N82 1.329 . S
C79 H100 0.930 . S
C80 N78 1.334 . S
C80 C79 1.391 . S
C80 H87 0.930 . S
C81 N78 1.328 . S
C81 C83 1.392 . S
C81 H88 0.930 . S
N82 C79 1.329 . S
N82 C83 1.331 . S
C83 C81 1.392 . S
C83 N82 1.331 . S
O84 Zn77 1.975 . S
O84 C85 1.252 . S
C85 O84 1.252 . S
C85 O86 1.252 . S
O86 Zn68 1.975 . S
O86 C85 1.252 . S
H87 C80 0.930 . S
H88 C81 0.930 . S
C89 C90 1.392 . S
C89 N93 1.328 . S
C89 H95 0.930 . S
C90 C89 1.392 . S
C90 N94 1.331 . S
C91 C92 1.391 . S
C91 N94 1.329 . S
C91 H101 0.930 . S
C92 C91 1.391 . S
C92 N93 1.334 . S
C92 H99 0.930 . S
N93 Zn77 2.119 . S
N93 C89 1.328 . S
N93 C92 1.334 . S
N94 C90 1.331 . S
N94 C91 1.329 . S
H95 C89 0.930 . S
C96 O76 1.257 . S
C96 O97 1.244 . S
O97 C96 1.244 . S
O98 C74 1.257 . S
O98 Zn77 2.019 . S
H99 C92 0.930 . S
H100 C79 0.930 . S
H101 C91 0.930 . S
Zn102 N106 2.020 . S
Zn102 O110 2.019 . S
Zn102 N112 2.119 . S
Zn102 O120 1.975 . S
C103 N104 1.334 . S
C103 N107 1.336 . S
N104 C103 1.334 . S
N104 C105 1.334 . S
C105 N104 1.334 . S
C105 N106 1.336 . S
N106 Zn102 2.020 . S
N106 C105 1.336 . S
N106 N107 1.354 . S
N107 C103 1.336 . S
N107 N106 1.354 . S
N107 Zn111 2.020 . S
C108 O109 1.244 . S
C108 O132 1.257 . S
O109 C108 1.244 . S
O110 Zn102 2.019 . S
O110 C130 1.257 . S
Zn111 N107 2.020 . S
Zn111 O118 1.975 . S
Zn111 N127 2.119 . S
Zn111 O132 2.019 . S
N112 Zn102 2.119 . S
N112 C114 1.334 . S
N112 C115 1.328 . S
C113 C114 1.391 . S
C113 N116 1.329 1_556 S
C113 H134 0.930 . S
C114 N112 1.334 . S
C114 C113 1.391 . S
C114 H121 0.930 . S
C115 N112 1.328 . S
C115 C117 1.392 1_556 S
C115 H122 0.930 . S
N116 C113 1.329 1_554 S
N116 C117 1.331 . S
C117 C115 1.392 1_554 S
C117 N116 1.331 . S
O118 Zn111 1.975 . S
O118 C119 1.252 . S
C119 O118 1.252 . S
C119 O120 1.252 . S
O120 Zn102 1.975 . S
O120 C119 1.252 . S
H121 C114 0.930 . S
H122 C115 0.930 . S
C123 C124 1.392 . S
C123 N127 1.328 . S
C123 H129 0.930 . S
C124 C123 1.392 . S
C124 N128 1.331 . S
C125 C126 1.391 . S
C125 N128 1.329 . S
C125 H135 0.930 . S
C126 C125 1.391 . S
C126 N127 1.334 . S
C126 H133 0.930 . S
N127 Zn111 2.119 . S
N127 C123 1.328 . S
N127 C126 1.334 . S
N128 C124 1.331 . S
N128 C125 1.329 . S
H129 C123 0.930 . S
C130 O110 1.257 . S
C130 O131 1.244 . S
O131 C130 1.244 . S
O132 C108 1.257 . S
O132 Zn111 2.019 . S
H133 C126 0.930 . S
H134 C113 0.930 . S
H135 C125 0.930 . S
Zn136 N140 2.020 . S
Zn136 O144 2.019 . S
Zn136 N146 2.119 . S
Zn136 O154 1.975 . S
C137 N138 1.334 . S
C137 N141 1.336 . S
N138 C137 1.334 . S
N138 C139 1.334 . S
C139 N138 1.334 . S
C139 N140 1.336 . S
N140 Zn136 2.020 . S
N140 C139 1.336 . S
N140 N141 1.354 . S
N141 C137 1.336 . S
N141 N140 1.354 . S
N141 Zn145 2.020 . S
C142 O143 1.244 . S
C142 O166 1.257 . S
O143 C142 1.244 . S
O144 Zn136 2.019 . S
O144 C164 1.257 . S
Zn145 N141 2.020 . S
Zn145 O152 1.975 . S
Zn145 N161 2.119 . S
Zn145 O166 2.019 . S
N146 Zn136 2.119 . S
N146 C148 1.334 . S
N146 C149 1.328 . S
C147 C148 1.391 . S
C147 N150 1.329 . S
C147 H168 0.930 . S
C148 N146 1.334 . S
C148 C147 1.391 . S
C148 H155 0.930 . S
C149 N146 1.328 . S
C149 C151 1.392 . S
C149 H156 0.930 . S
N150 C147 1.329 . S
N150 C151 1.331 . S
C151 C149 1.392 . S
C151 N150 1.331 . S
O152 Zn145 1.975 . S
O152 C153 1.252 . S
C153 O152 1.252 . S
C153 O154 1.252 . S
O154 Zn136 1.975 . S
O154 C153 1.252 . S
H155 C148 0.930 . S
H156 C149 0.930 . S
C157 C158 1.392 . S
C157 N161 1.328 . S
C157 H163 0.930 . S
C158 C157 1.392 . S
C158 N162 1.331 . S
C159 C160 1.391 . S
C159 N162 1.329 . S
C159 H169 0.930 . S
C160 C159 1.391 . S
C160 N161 1.334 . S
C160 H167 0.930 . S
N161 Zn145 2.119 . S
N161 C157 1.328 . S
N161 C160 1.334 . S
N162 C158 1.331 . S
N162 C159 1.329 . S
H163 C157 0.930 . S
C164 O144 1.257 . S
C164 O165 1.244 . S
O165 C164 1.244 . S
O166 C142 1.257 . S
O166 Zn145 2.019 . S
H167 C160 0.930 . S
H168 C147 0.930 . S
H169 C159 0.930 . S
Zn170 N174 2.020 . S
Zn170 O178 2.019 . S
Zn170 N180 2.119 . S
Zn170 O188 1.975 . S
C171 N172 1.334 . S
C171 N175 1.336 . S
N172 C171 1.334 . S
N172 C173 1.334 . S
C173 N172 1.334 . S
C173 N174 1.336 . S
N174 Zn170 2.020 . S
N174 C173 1.336 . S
N174 N175 1.354 . S
N175 C171 1.336 . S
N175 N174 1.354 . S
N175 Zn179 2.020 . S
C176 O177 1.244 . S
C176 O200 1.257 . S
O177 C176 1.244 . S
O178 Zn170 2.019 . S
O178 C198 1.257 . S
Zn179 N175 2.020 . S
Zn179 O186 1.975 . S
Zn179 N195 2.119 . S
Zn179 O200 2.019 . S
N180 Zn170 2.119 . S
N180 C182 1.334 . S
N180 C183 1.328 . S
C181 C182 1.391 . S
C181 N184 1.329 . S
C181 H202 0.930 . S
C182 N180 1.334 . S
C182 C181 1.391 . S
C182 H189 0.930 . S
C183 N180 1.328 . S
C183 C185 1.392 . S
C183 H190 0.930 . S
N184 C181 1.329 . S
N184 C185 1.331 . S
C185 C183 1.392 . S
C185 N184 1.331 . S
O186 Zn179 1.975 . S
O186 C187 1.252 . S
C187 O186 1.252 . S
C187 O188 1.252 . S
O188 Zn170 1.975 . S
O188 C187 1.252 . S
H189 C182 0.930 . S
H190 C183 0.930 . S
C191 C192 1.392 . S
C191 N195 1.328 . S
C191 H197 0.930 . S
C192 C191 1.392 . S
C192 N196 1.331 . S
C193 C194 1.391 . S
C193 N196 1.329 . S
C193 H203 0.930 . S
C194 C193 1.391 . S
C194 N195 1.334 . S
C194 H201 0.930 . S
N195 Zn179 2.119 . S
N195 C191 1.328 . S
N195 C194 1.334 . S
N196 C192 1.331 . S
N196 C193 1.329 . S
H197 C191 0.930 . S
C198 O178 1.257 . S
C198 O199 1.244 . S
O199 C198 1.244 . S
O200 C176 1.257 . S
O200 Zn179 2.019 . S
H201 C194 0.930 . S
H202 C181 0.930 . S
H203 C193 0.930 . S
Zn204 N208 2.020 . S
Zn204 O212 2.019 . S
Zn204 N214 2.119 . S
Zn204 O222 1.975 . S
C205 N206 1.334 . S
C205 N209 1.336 . S
N206 C205 1.334 . S
N206 C207 1.334 . S
C207 N206 1.334 . S
C207 N208 1.336 . S
N208 Zn204 2.020 . S
N208 C207 1.336 . S
N208 N209 1.354 . S
N209 C205 1.336 . S
N209 N208 1.354 . S
N209 Zn213 2.020 . S
C210 O211 1.244 . S
C210 O234 1.257 . S
O211 C210 1.244 . S
O212 Zn204 2.019 . S
O212 C232 1.257 . S
Zn213 N209 2.020 . S
Zn213 O220 1.975 . S
Zn213 N229 2.119 . S
Zn213 O234 2.019 . S
N214 Zn204 2.119 . S
N214 C216 1.334 . S
N214 C217 1.328 . S
C215 C216 1.391 . S
C215 N218 1.329 1_556 S
C215 H236 0.930 . S
C216 N214 1.334 . S
C216 C215 1.391 . S
C216 H223 0.930 . S
C217 N214 1.328 . S
C217 C219 1.391 . S
C217 H224 0.930 . S
N218 C215 1.329 1_554 S
N218 C219 1.331 1_554 S
C219 C217 1.391 . S
C219 N218 1.331 1_556 S
O220 Zn213 1.975 . S
O220 C221 1.252 . S
C221 O220 1.252 . S
C221 O222 1.252 . S
O222 Zn204 1.975 . S
O222 C221 1.252 . S
H223 C216 0.930 . S
H224 C217 0.930 . S
C225 C226 1.392 . S
C225 N229 1.328 . S
C225 H231 0.930 . S
C226 C225 1.392 . S
C226 N230 1.331 . S
C227 C228 1.391 . S
C227 N230 1.329 . S
C227 H237 0.930 . S
C228 C227 1.391 . S
C228 N229 1.334 . S
C228 H235 0.930 . S
N229 Zn213 2.119 . S
N229 C225 1.328 . S
N229 C228 1.334 . S
N230 C226 1.331 . S
N230 C227 1.329 . S
H231 C225 0.930 . S
C232 O212 1.257 . S
C232 O233 1.244 . S
O233 C232 1.244 . S
O234 C210 1.257 . S
O234 Zn213 2.019 . S
H235 C228 0.930 . S
H236 C215 0.930 . S
H237 C227 0.930 . S
Zn238 N242 2.020 . S
Zn238 O246 2.019 . S
Zn238 N248 2.119 . S
Zn238 O256 1.975 . S
C239 N240 1.334 . S
C239 N243 1.336 . S
N240 C239 1.334 . S
N240 C241 1.334 . S
C241 N240 1.334 . S
C241 N242 1.336 . S
N242 Zn238 2.020 . S
N242 C241 1.336 . S
N242 N243 1.354 . S
N243 C239 1.336 . S
N243 N242 1.354 . S
N243 Zn247 2.020 . S
C244 O245 1.244 . S
C244 O268 1.257 . S
O245 C244 1.244 . S
O246 Zn238 2.019 . S
O246 C266 1.257 . S
Zn247 N243 2.020 . S
Zn247 O254 1.975 . S
Zn247 N263 2.119 . S
Zn247 O268 2.019 . S
N248 Zn238 2.119 . S
N248 C250 1.334 . S
N248 C251 1.328 . S
C249 C250 1.391 . S
C249 N252 1.329 . S
C249 H270 0.930 . S
C250 N248 1.334 . S
C250 C249 1.391 . S
C250 H257 0.930 . S
C251 N248 1.328 . S
C251 C253 1.392 1_655 S
C251 H258 0.930 . S
N252 C249 1.329 . S
N252 C253 1.331 1_655 S
C253 C251 1.392 1_455 S
C253 N252 1.331 1_455 S
O254 Zn247 1.975 . S
O254 C255 1.252 . S
C255 O254 1.252 . S
C255 O256 1.252 . S
O256 Zn238 1.975 . S
O256 C255 1.252 . S
H257 C250 0.930 . S
H258 C251 0.930 . S
C259 C260 1.392 . S
C259 N263 1.328 . S
C259 H265 0.930 . S
C260 C259 1.392 . S
C260 N264 1.331 . S
C261 C262 1.391 . S
C261 N264 1.329 . S
C261 H271 0.930 . S
C262 C261 1.391 . S
C262 N263 1.334 . S
C262 H269 0.930 . S
N263 Zn247 2.119 . S
N263 C259 1.328 . S
N263 C262 1.334 . S
N264 C260 1.331 . S
N264 C261 1.329 . S
H265 C259 0.930 . S
C266 O246 1.257 . S
C266 O267 1.244 . S
O267 C266 1.244 . S
O268 C244 1.257 . S
O268 Zn247 2.019 . S
H269 C262 0.930 . S
H270 C249 0.930 . S
H271 C261 0.930 . S
Zn272 N276 2.020 . S
Zn272 O280 2.019 . S
Zn272 N282 2.119 . S
Zn272 O290 1.975 . S
C273 N274 1.334 . S
C273 N277 1.336 . S
N274 C273 1.334 . S
N274 C275 1.334 . S
C275 N274 1.334 . S
C275 N276 1.336 . S
N276 Zn272 2.020 . S
N276 C275 1.336 . S
N276 N277 1.354 . S
N277 C273 1.336 . S
N277 N276 1.354 . S
N277 Zn281 2.020 . S
C278 O279 1.244 . S
C278 O302 1.257 . S
O279 C278 1.244 . S
O280 Zn272 2.019 . S
O280 C300 1.257 . S
Zn281 N277 2.020 . S
Zn281 O288 1.975 . S
Zn281 N297 2.119 . S
Zn281 O302 2.019 . S
N282 Zn272 2.119 . S
N282 C284 1.334 . S
N282 C285 1.328 . S
C283 C284 1.391 . S
C283 N286 1.329 1_556 S
C283 H304 0.930 . S
C284 N282 1.334 . S
C284 C283 1.391 . S
C284 H291 0.930 . S
C285 N282 1.328 . S
C285 C287 1.392 1_556 S
C285 H292 0.930 . S
N286 C283 1.329 1_554 S
N286 C287 1.331 . S
C287 C285 1.392 1_554 S
C287 N286 1.331 . S
O288 Zn281 1.975 . S
O288 C289 1.252 . S
C289 O288 1.252 . S
C289 O290 1.252 . S
O290 Zn272 1.975 . S
O290 C289 1.252 . S
H291 C284 0.930 . S
H292 C285 0.930 . S
C293 C294 1.392 . S
C293 N297 1.328 . S
C293 H299 0.930 . S
C294 C293 1.392 . S
C294 N298 1.331 . S
C295 C296 1.391 . S
C295 N298 1.329 . S
C295 H305 0.930 . S
C296 C295 1.391 . S
C296 N297 1.334 . S
C296 H303 0.930 . S
N297 Zn281 2.119 . S
N297 C293 1.328 . S
N297 C296 1.334 . S
N298 C294 1.331 . S
N298 C295 1.329 . S
H299 C293 0.930 . S
C300 O280 1.257 . S
C300 O301 1.244 . S
O301 C300 1.244 . S
O302 C278 1.257 . S
O302 Zn281 2.019 . S
H303 C296 0.930 . S
H304 C283 0.930 . S
H305 C295 0.930 . S
Zn306 N310 2.020 . S
Zn306 O314 2.019 . S
Zn306 N316 2.119 . S
Zn306 O324 1.975 . S
C307 N308 1.334 . S
C307 N311 1.336 . S
N308 C307 1.334 . S
N308 C309 1.334 . S
C309 N308 1.334 . S
C309 N310 1.336 . S
N310 Zn306 2.020 . S
N310 C309 1.336 . S
N310 N311 1.354 . S
N311 C307 1.336 . S
N311 N310 1.354 . S
N311 Zn315 2.020 . S
C312 O313 1.244 . S
C312 O336 1.257 . S
O313 C312 1.244 . S
O314 Zn306 2.019 . S
O314 C334 1.257 . S
Zn315 N311 2.020 . S
Zn315 O322 1.975 . S
Zn315 N331 2.119 . S
Zn315 O336 2.019 . S
N316 Zn306 2.119 . S
N316 C318 1.334 . S
N316 C319 1.328 . S
C317 C318 1.391 . S
C317 N320 1.329 . S
C317 H338 0.930 . S
C318 N316 1.334 . S
C318 C317 1.391 . S
C318 H325 0.930 . S
C319 N316 1.328 . S
C319 C321 1.392 . S
C319 H326 0.930 . S
N320 C317 1.329 . S
N320 C321 1.331 . S
C321 C319 1.392 . S
C321 N320 1.331 . S
O322 Zn315 1.975 . S
O322 C323 1.252 . S
C323 O322 1.252 . S
C323 O324 1.252 . S
O324 Zn306 1.975 . S
O324 C323 1.252 . S
H325 C318 0.930 . S
H326 C319 0.930 . S
C327 C328 1.392 . S
C327 N331 1.328 . S
C327 H333 0.930 . S
C328 C327 1.392 . S
C328 N332 1.331 . S
C329 C330 1.391 . S
C329 N332 1.329 . S
C329 H339 0.930 . S
C330 C329 1.391 . S
C330 N331 1.334 . S
C330 H337 0.930 . S
N331 Zn315 2.119 . S
N331 C327 1.328 . S
N331 C330 1.334 . S
N332 C328 1.331 . S
N332 C329 1.329 . S
H333 C327 0.930 . S
C334 O314 1.257 . S
C334 O335 1.244 . S
O335 C334 1.244 . S
O336 C312 1.257 . S
O336 Zn315 2.019 . S
H337 C330 0.930 . S
H338 C317 0.930 . S
H339 C329 0.930 . S
Zn340 N344 2.020 . S
Zn340 O348 2.019 . S
Zn340 N350 2.119 . S
Zn340 O358 1.975 . S
C341 N342 1.334 . S
C341 N345 1.336 . S
N342 C341 1.334 . S
N342 C343 1.334 . S
C343 N342 1.334 . S
C343 N344 1.336 . S
N344 Zn340 2.020 . S
N344 C343 1.336 . S
N344 N345 1.354 . S
N345 C341 1.336 . S
N345 N344 1.354 . S
N345 Zn349 2.020 . S
C346 O347 1.244 . S
C346 O370 1.257 . S
O347 C346 1.244 . S
O348 Zn340 2.019 . S
O348 C368 1.257 . S
Zn349 N345 2.020 . S
Zn349 O356 1.975 . S
Zn349 N365 2.119 . S
Zn349 O370 2.019 . S
N350 Zn340 2.119 . S
N350 C352 1.334 . S
N350 C353 1.328 . S
C351 C352 1.391 . S
C351 N354 1.329 . S
C351 H372 0.930 . S
C352 N350 1.334 . S
C352 C351 1.391 . S
C352 H359 0.930 . S
C353 N350 1.328 . S
C353 C355 1.392 . S
C353 H360 0.930 . S
N354 C351 1.329 . S
N354 C355 1.331 . S
C355 C353 1.392 . S
C355 N354 1.331 . S
O356 Zn349 1.975 . S
O356 C357 1.252 . S
C357 O356 1.252 . S
C357 O358 1.252 . S
O358 Zn340 1.975 . S
O358 C357 1.252 . S
H359 C352 0.930 . S
H360 C353 0.930 . S
C361 C362 1.392 . S
C361 N365 1.328 . S
C361 H367 0.930 . S
C362 C361 1.392 . S
C362 N366 1.331 . S
C363 C364 1.391 . S
C363 N366 1.329 . S
C363 H373 0.930 . S
C364 C363 1.391 . S
C364 N365 1.334 . S
C364 H371 0.930 . S
N365 Zn349 2.119 . S
N365 C361 1.328 . S
N365 C364 1.334 . S
N366 C362 1.331 . S
N366 C363 1.329 . S
H367 C361 0.930 . S
C368 O348 1.257 . S
C368 O369 1.244 . S
O369 C368 1.244 . S
O370 C346 1.257 . S
O370 Zn349 2.019 . S
H371 C364 0.930 . S
H372 C351 0.930 . S
H373 C363 0.930 . S
Zn374 N378 2.020 . S
Zn374 O382 2.019 . S
Zn374 N384 2.119 . S
Zn374 O392 1.975 . S
C375 N376 1.334 . S
C375 N379 1.336 . S
N376 C375 1.334 . S
N376 C377 1.334 . S
C377 N376 1.334 . S
C377 N378 1.336 . S
N378 Zn374 2.020 . S
N378 C377 1.336 . S
N378 N379 1.354 . S
N379 C375 1.336 . S
N379 N378 1.354 . S
N379 Zn383 2.020 . S
C380 O381 1.244 . S
C380 O404 1.257 . S
O381 C380 1.244 . S
O382 Zn374 2.019 . S
O382 C402 1.257 . S
Zn383 N379 2.020 . S
Zn383 O390 1.975 . S
Zn383 N399 2.119 . S
Zn383 O404 2.019 . S
N384 Zn374 2.119 . S
N384 C386 1.334 . S
N384 C387 1.328 . S
C385 C386 1.391 . S
C385 N388 1.329 . S
C385 H406 0.930 . S
C386 N384 1.334 . S
C386 C385 1.391 . S
C386 H393 0.930 . S
C387 N384 1.328 . S
C387 C389 1.392 . S
C387 H394 0.930 . S
N388 C385 1.329 . S
N388 C389 1.331 . S
C389 C387 1.392 . S
C389 N388 1.331 . S
O390 Zn383 1.975 . S
O390 C391 1.252 . S
C391 O390 1.252 . S
C391 O392 1.252 . S
O392 Zn374 1.975 . S
O392 C391 1.252 . S
H393 C386 0.930 . S
H394 C387 0.930 . S
C395 C396 1.392 1_554 S
C395 N399 1.328 . S
C395 H401 0.930 . S
C396 C395 1.392 1_556 S
C396 N400 1.331 . S
C397 C398 1.391 . S
C397 N400 1.329 1_554 S
C397 H407 0.930 . S
C398 C397 1.391 . S
C398 N399 1.334 . S
C398 H405 0.930 . S
N399 Zn383 2.119 . S
N399 C395 1.328 . S
N399 C398 1.334 . S
N400 C396 1.331 . S
N400 C397 1.329 1_556 S
H401 C395 0.930 . S
C402 O382 1.257 . S
C402 O403 1.244 . S
O403 C402 1.244 . S
O404 C380 1.257 . S
O404 Zn383 2.019 . S
H405 C398 0.930 . S
H406 C385 0.930 . S
H407 C397 0.930 . S
Zn408 N412 2.020 . S
Zn408 O416 2.019 . S
Zn408 N418 2.119 . S
Zn408 O426 1.975 . S
C409 N410 1.334 . S
C409 N413 1.336 . S
N410 C409 1.334 . S
N410 C411 1.334 . S
C411 N410 1.334 . S
C411 N412 1.336 . S
N412 Zn408 2.020 . S
N412 C411 1.336 . S
N412 N413 1.354 . S
N413 C409 1.336 . S
N413 N412 1.354 . S
N413 Zn417 2.020 . S
C414 O415 1.244 . S
C414 O438 1.257 . S
O415 C414 1.244 . S
O416 Zn408 2.019 . S
O416 C436 1.257 . S
Zn417 N413 2.020 . S
Zn417 O424 1.975 . S
Zn417 N433 2.119 . S
Zn417 O438 2.019 . S
N418 Zn408 2.119 . S
N418 C420 1.334 . S
N418 C421 1.328 . S
C419 C420 1.391 . S
C419 N422 1.329 . S
C419 H440 0.930 . S
C420 N418 1.334 . S
C420 C419 1.391 . S
C420 H427 0.930 . S
C421 N418 1.328 . S
C421 C423 1.392 . S
C421 H428 0.930 . S
N422 C419 1.329 . S
N422 C423 1.331 . S
C423 C421 1.392 . S
C423 N422 1.331 . S
O424 Zn417 1.975 . S
O424 C425 1.252 . S
C425 O424 1.252 . S
C425 O426 1.252 . S
O426 Zn408 1.975 . S
O426 C425 1.252 . S
H427 C420 0.930 . S
H428 C421 0.930 . S
C429 C430 1.392 . S
C429 N433 1.328 . S
C429 H435 0.930 . S
C430 C429 1.392 . S
C430 N434 1.331 . S
C431 C432 1.391 . S
C431 N434 1.329 . S
C431 H441 0.930 . S
C432 C431 1.391 . S
C432 N433 1.334 . S
C432 H439 0.930 . S
N433 Zn417 2.119 . S
N433 C429 1.328 . S
N433 C432 1.334 . S
N434 C430 1.331 . S
N434 C431 1.329 . S
H435 C429 0.930 . S
C436 O416 1.257 . S
C436 O437 1.244 . S
O437 C436 1.244 . S
O438 C414 1.257 . S
O438 Zn417 2.019 . S
H439 C432 0.930 . S
H440 C419 0.930 . S
H441 C431 0.930 . S
Zn442 N446 2.020 . S
Zn442 O450 2.019 . S
Zn442 N452 2.119 . S
Zn442 O460 1.975 . S
C443 N444 1.334 . S
C443 N447 1.336 . S
N444 C443 1.334 . S
N444 C445 1.334 . S
C445 N444 1.334 . S
C445 N446 1.336 . S
N446 Zn442 2.020 . S
N446 C445 1.336 . S
N446 N447 1.354 . S
N447 C443 1.336 . S
N447 N446 1.354 . S
N447 Zn451 2.020 . S
C448 O449 1.244 . S
C448 O472 1.257 . S
O449 C448 1.244 . S
O450 Zn442 2.019 . S
O450 C470 1.257 . S
Zn451 N447 2.020 . S
Zn451 O458 1.975 . S
Zn451 N467 2.119 . S
Zn451 O472 2.019 . S
N452 Zn442 2.119 . S
N452 C454 1.334 . S
N452 C455 1.328 . S
C453 C454 1.391 . S
C453 N456 1.329 . S
C453 H474 0.930 . S
C454 N452 1.334 . S
C454 C453 1.391 . S
C454 H461 0.930 . S
C455 N452 1.328 . S
C455 C457 1.392 . S
C455 H462 0.930 . S
N456 C453 1.329 . S
N456 C457 1.331 . S
C457 C455 1.392 . S
C457 N456 1.331 . S
O458 Zn451 1.975 . S
O458 C459 1.252 . S
C459 O458 1.252 . S
C459 O460 1.252 . S
O460 Zn442 1.975 . S
O460 C459 1.252 . S
H461 C454 0.930 . S
H462 C455 0.930 . S
C463 C464 1.392 . S
C463 N467 1.328 . S
C463 H469 0.930 . S
C464 C463 1.392 . S
C464 N468 1.331 . S
C465 C466 1.391 . S
C465 N468 1.329 . S
C465 H475 0.930 . S
C466 C465 1.391 . S
C466 N467 1.334 . S
C466 H473 0.930 . S
N467 Zn451 2.119 . S
N467 C463 1.328 . S
N467 C466 1.334 . S
N468 C464 1.331 . S
N468 C465 1.329 . S
H469 C463 0.930 . S
C470 O450 1.257 . S
C470 O471 1.244 . S
O471 C470 1.244 . S
O472 C448 1.257 . S
O472 Zn451 2.019 . S
H473 C466 0.930 . S
H474 C453 0.930 . S
H475 C465 0.930 . S
Zn476 N480 2.020 . S
Zn476 O484 2.019 . S
Zn476 N486 2.119 . S
Zn476 O494 1.975 . S
C477 N478 1.334 . S
C477 N481 1.336 . S
N478 C477 1.334 . S
N478 C479 1.334 . S
C479 N478 1.334 . S
C479 N480 1.336 . S
N480 Zn476 2.020 . S
N480 C479 1.336 . S
N480 N481 1.354 . S
N481 C477 1.336 . S
N481 N480 1.354 . S
N481 Zn485 2.020 . S
C482 O483 1.244 . S
C482 O506 1.257 . S
O483 C482 1.244 . S
O484 Zn476 2.019 . S
O484 C504 1.257 . S
Zn485 N481 2.020 . S
Zn485 O492 1.975 . S
Zn485 N501 2.119 . S
Zn485 O506 2.019 . S
N486 Zn476 2.119 . S
N486 C488 1.334 . S
N486 C489 1.328 . S
C487 C488 1.391 . S
C487 N490 1.329 1_554 S
C487 H508 0.930 . S
C488 N486 1.334 . S
C488 C487 1.391 . S
C488 H495 0.930 . S
C489 N486 1.328 . S
C489 C491 1.391 . S
C489 H496 0.930 . S
N490 C487 1.329 1_556 S
N490 C491 1.331 1_556 S
C491 C489 1.391 . S
C491 N490 1.331 1_554 S
O492 Zn485 1.975 . S
O492 C493 1.252 . S
C493 O492 1.252 . S
C493 O494 1.252 . S
O494 Zn476 1.975 . S
O494 C493 1.252 . S
H495 C488 0.930 . S
H496 C489 0.930 . S
C497 C498 1.392 . S
C497 N501 1.328 . S
C497 H503 0.930 . S
C498 C497 1.392 . S
C498 N502 1.331 . S
C499 C500 1.391 . S
C499 N502 1.329 . S
C499 H509 0.930 . S
C500 C499 1.391 . S
C500 N501 1.334 . S
C500 H507 0.930 . S
N501 Zn485 2.119 . S
N501 C497 1.328 . S
N501 C500 1.334 . S
N502 C498 1.331 . S
N502 C499 1.329 . S
H503 C497 0.930 . S
C504 O484 1.257 . S
C504 O505 1.244 . S
O505 C504 1.244 . S
O506 C482 1.257 . S
O506 Zn485 2.019 . S
H507 C500 0.930 . S
H508 C487 0.930 . S
H509 C499 0.930 . S
Zn510 N514 2.020 . S
Zn510 O518 2.019 . S
Zn510 N520 2.119 . S
Zn510 O528 1.975 . S
C511 N512 1.334 . S
C511 N515 1.336 . S
N512 C511 1.334 . S
N512 C513 1.334 . S
C513 N512 1.334 . S
C513 N514 1.336 . S
N514 Zn510 2.020 . S
N514 C513 1.336 . S
N514 N515 1.354 . S
N515 C511 1.336 . S
N515 N514 1.354 . S
N515 Zn519 2.020 . S
C516 O517 1.244 . S
C516 O540 1.257 . S
O517 C516 1.244 . S
O518 Zn510 2.019 . S
O518 C538 1.257 . S
Zn519 N515 2.020 . S
Zn519 O526 1.975 . S
Zn519 N535 2.119 . S
Zn519 O540 2.019 . S
N520 Zn510 2.119 . S
N520 C522 1.334 . S
N520 C523 1.328 . S
C521 C522 1.391 . S
C521 N524 1.329 . S
C521 H542 0.930 . S
C522 N520 1.334 . S
C522 C521 1.391 . S
C522 H529 0.930 . S
C523 N520 1.328 . S
C523 C525 1.392 1_455 S
C523 H530 0.930 . S
N524 C521 1.329 . S
N524 C525 1.331 1_455 S
C525 C523 1.392 1_655 S
C525 N524 1.331 1_655 S
O526 Zn519 1.975 . S
O526 C527 1.252 . S
C527 O526 1.252 . S
C527 O528 1.252 . S
O528 Zn510 1.975 . S
O528 C527 1.252 . S
H529 C522 0.930 . S
H530 C523 0.930 . S
C531 C532 1.392 . S
C531 N535 1.328 . S
C531 H537 0.930 . S
C532 C531 1.392 . S
C532 N536 1.331 . S
C533 C534 1.391 . S
C533 N536 1.329 . S
C533 H543 0.930 . S
C534 C533 1.391 . S
C534 N535 1.334 . S
C534 H541 0.930 . S
N535 Zn519 2.119 . S
N535 C531 1.328 . S
N535 C534 1.334 . S
N536 C532 1.331 . S
N536 C533 1.329 . S
H537 C531 0.930 . S
C538 O518 1.257 . S
C538 O539 1.244 . S
O539 C538 1.244 . S
O540 C516 1.257 . S
O540 Zn519 2.019 . S
H541 C534 0.930 . S
H542 C521 0.930 . S
H543 C533 0.930 . S
H544 C550 0.930 . S
H545 C554 0.930 . S
H546 C559 0.929 . S
H547 C557 0.929 . S
H548 C552 0.929 . S
H549 C558 0.929 . S
C550 H544 0.930 . S
C550 C551 1.367 . S
C550 C558 1.378 . S
C551 C550 1.367 . S
C551 C559 1.433 1_655 S
C552 H548 0.929 . S
C552 C554 1.378 . S
C552 C556 1.350 . S
C553 C556 1.463 . S
C553 C558 1.350 1_455 S
C553 N561 1.427 . S
C554 H545 0.930 . S
C554 C552 1.378 . S
C554 C555 1.367 . S
C555 C554 1.367 . S
C555 C557 1.433 . S
C556 C552 1.350 . S
C556 C553 1.463 . S
C556 N560 1.427 . S
C557 H547 0.929 . S
C557 C555 1.433 . S
C557 N560 1.384 . S
C558 H549 0.929 . S
C558 C550 1.378 . S
C558 C553 1.350 1_655 S
C559 H546 0.929 . S
C559 C551 1.433 1_455 S
C559 N561 1.384 . S
N560 C556 1.427 . S
N560 C557 1.384 . S
N561 C553 1.427 . S
N561 C559 1.384 . S
H562 C568 0.930 . S
H563 C572 0.930 . S
H564 C577 0.929 . S
H565 C575 0.929 . S
H566 C570 0.929 . S
H567 C576 0.929 . S
C568 H562 0.930 . S
C568 C569 1.367 . S
C568 C576 1.378 1_455 S
C569 C568 1.367 . S
C569 C577 1.433 . S
C570 H566 0.929 . S
C570 C572 1.378 . S
C570 C574 1.350 . S
C571 C574 1.463 . S
C571 C576 1.350 . S
C571 N579 1.427 . S
C572 H563 0.930 . S
C572 C570 1.378 . S
C572 C573 1.367 . S
C573 C572 1.367 . S
C573 C575 1.433 . S
C574 C570 1.350 . S
C574 C571 1.463 . S
C574 N578 1.427 . S
C575 H565 0.929 . S
C575 C573 1.433 . S
C575 N578 1.384 . S
C576 H567 0.929 . S
C576 C568 1.378 1_655 S
C576 C571 1.350 . S
C577 H564 0.929 . S
C577 C569 1.433 . S
C577 N579 1.384 1_455 S
N578 C574 1.427 . S
N578 C575 1.384 . S
N579 C571 1.427 . S
N579 C577 1.384 1_655 S
H580 C586 0.930 . S
H581 C590 0.930 . S
H582 C595 0.929 . S
H583 C593 0.929 . S
H584 C588 0.929 . S
H585 C594 0.929 . S
C586 H580 0.930 . S
C586 C587 1.367 . S
C586 C594 1.378 . S
C587 C586 1.367 . S
C587 C595 1.433 . S
C588 H584 0.929 . S
C588 C590 1.378 . S
C588 C592 1.350 . S
C589 C592 1.463 . S
C589 C594 1.350 . S
C589 N597 1.427 . S
C590 H581 0.930 . S
C590 C588 1.378 . S
C590 C591 1.367 . S
C591 C590 1.367 . S
C591 C593 1.433 . S
C592 C588 1.350 . S
C592 C589 1.463 . S
C592 N596 1.427 . S
C593 H583 0.929 . S
C593 C591 1.433 . S
C593 N596 1.384 . S
C594 H585 0.929 . S
C594 C586 1.378 . S
C594 C589 1.350 . S
C595 H582 0.929 . S
C595 C587 1.433 . S
C595 N597 1.384 . S
N596 C592 1.427 . S
N596 C593 1.384 . S
N597 C589 1.427 . S
N597 C595 1.384 . S
H598 C604 0.930 . S
H599 C608 0.930 . S
H600 C613 0.929 . S
H601 C611 0.929 . S
H602 C606 0.929 . S
H603 C612 0.929 . S
C604 H598 0.930 . S
C604 C605 1.367 . S
C604 C612 1.378 . S
C605 C604 1.367 . S
C605 C613 1.433 . S
C606 H602 0.929 . S
C606 C608 1.378 . S
C606 C610 1.350 . S
C607 C610 1.463 . S
C607 C612 1.350 . S
C607 N615 1.427 . S
C608 H599 0.930 . S
C608 C606 1.378 . S
C608 C609 1.367 . S
C609 C608 1.367 . S
C609 C611 1.433 . S
C610 C606 1.350 . S
C610 C607 1.463 . S
C610 N614 1.427 . S
C611 H601 0.929 . S
C611 C609 1.433 . S
C611 N614 1.384 . S
C612 H603 0.929 . S
C612 C604 1.378 . S
C612 C607 1.350 . S
C613 H600 0.929 . S
C613 C605 1.433 . S
C613 N615 1.384 . S
N614 C610 1.427 . S
N614 C611 1.384 . S
N615 C607 1.427 . S
N615 C613 1.384 . S
H616 C622 0.930 . S
H617 C626 0.930 1_655 S
H618 C631 0.929 . S
H619 C629 0.929 . S
H620 C624 0.929 . S
H621 C630 0.929 . S
C622 H616 0.930 . S
C622 C623 1.367 . S
C622 C630 1.378 . S
C623 C622 1.367 . S
C623 C631 1.433 . S
C624 H620 0.929 . S
C624 C626 1.369 1_655 S
C624 C628 1.350 . S
C625 C628 1.463 . S
C625 C630 1.350 . S
C625 N633 1.427 . S
C626 H617 0.930 1_455 S
C626 C624 1.369 1_455 S
C626 C627 1.377 . S
C627 C626 1.377 . S
C627 C629 1.433 . S
C628 C624 1.350 . S
C628 C625 1.463 . S
C628 N632 1.427 1_655 S
C629 H619 0.929 . S
C629 C627 1.433 . S
C629 N632 1.384 . S
C630 H621 0.929 . S
C630 C622 1.378 . S
C630 C625 1.350 . S
C631 H618 0.929 . S
C631 C623 1.433 . S
C631 N633 1.384 . S
N632 C628 1.427 1_455 S
N632 C629 1.384 . S
N633 C625 1.427 . S
N633 C631 1.384 . S
H634 C640 0.930 . S
H635 C644 0.930 . S
H636 C649 0.929 . S
H637 C647 0.929 . S
H638 C642 0.929 . S
H639 C648 0.929 . S
C640 H634 0.930 . S
C640 C641 1.367 . S
C640 C648 1.378 . S
C641 C640 1.367 . S
C641 C649 1.433 . S
C642 H638 0.929 . S
C642 C644 1.378 1_455 S
C642 C646 1.350 . S
C643 C646 1.463 . S
C643 C648 1.350 . S
C643 N651 1.427 . S
C644 H635 0.930 . S
C644 C642 1.378 1_655 S
C644 C645 1.367 . S
C645 C644 1.367 . S
C645 C647 1.433 . S
C646 C642 1.350 . S
C646 C643 1.463 . S
C646 N650 1.427 1_455 S
C647 H637 0.929 . S
C647 C645 1.433 . S
C647 N650 1.384 . S
C648 H639 0.929 . S
C648 C640 1.378 . S
C648 C643 1.350 . S
C649 H636 0.929 . S
C649 C641 1.433 . S
C649 N651 1.384 . S
N650 C646 1.427 1_655 S
N650 C647 1.384 . S
N651 C643 1.427 . S
N651 C649 1.384 . S
H652 C658 0.930 . S
H653 C662 0.930 . S
H654 C667 0.929 . S
H655 C665 0.929 . S
H656 C660 0.929 . S
H657 C666 0.929 . S
C658 H652 0.930 . S
C658 C659 1.367 . S
C658 C666 1.378 . S
C659 C658 1.367 . S
C659 C667 1.433 . S
C660 H656 0.929 . S
C660 C662 1.378 . S
C660 C664 1.350 . S
C661 C664 1.463 . S
C661 C666 1.350 . S
C661 N669 1.427 . S
C662 H653 0.930 . S
C662 C660 1.378 . S
C662 C663 1.367 . S
C663 C662 1.367 . S
C663 C665 1.433 . S
C664 C660 1.350 . S
C664 C661 1.463 . S
C664 N668 1.427 . S
C665 H655 0.929 . S
C665 C663 1.433 . S
C665 N668 1.384 . S
C666 H657 0.929 . S
C666 C658 1.378 . S
C666 C661 1.350 . S
C667 H654 0.929 . S
C667 C659 1.433 . S
C667 N669 1.384 . S
N668 C664 1.427 . S
N668 C665 1.384 . S
N669 C661 1.427 . S
N669 C667 1.384 . S
H670 C676 0.930 . S
H671 C680 0.930 . S
H672 C685 0.929 . S
H673 C683 0.929 . S
H674 C678 0.929 . S
H675 C684 0.929 . S
C676 H670 0.930 . S
C676 C677 1.367 . S
C676 C684 1.378 . S
C677 C676 1.367 . S
C677 C685 1.433 . S
C678 H674 0.929 . S
C678 C680 1.378 . S
C678 C682 1.350 . S
C679 C682 1.463 . S
C679 C684 1.350 . S
C679 N687 1.427 . S
C680 H671 0.930 . S
C680 C678 1.378 . S
C680 C681 1.367 . S
C681 C680 1.367 . S
C681 C683 1.433 . S
C682 C678 1.350 . S
C682 C679 1.463 . S
C682 N686 1.427 . S
C683 H673 0.929 . S
C683 C681 1.433 . S
C683 N686 1.384 . S
C684 H675 0.929 . S
C684 C676 1.378 . S
C684 C679 1.350 . S
C685 H672 0.929 . S
C685 C677 1.433 . S
C685 N687 1.384 . S
N686 C682 1.427 . S
N686 C683 1.384 . S
N687 C679 1.427 . S
N687 C685 1.384 . S
H688 C694 0.930 . S
H689 C698 0.930 . S
H690 C703 0.929 . S
H691 C701 0.929 . S
H692 C696 0.929 1_556 S
H693 C702 0.929 . S
C694 H688 0.930 . S
C694 C695 1.367 . S
C694 C702 1.378 . S
C695 C694 1.367 . S
C695 C703 1.433 . S
C696 H692 0.929 1_554 S
C696 C698 1.378 . S
C696 C700 1.350 . S
C697 C700 1.463 1_556 S
C697 C702 1.350 . S
C697 N705 1.427 . S
C698 H689 0.930 . S
C698 C696 1.378 . S
C698 C699 1.367 . S
C699 C698 1.367 . S
C699 C701 1.433 . S
C700 C696 1.350 . S
C700 C697 1.463 1_554 S
C700 N704 1.427 . S
C701 H691 0.929 . S
C701 C699 1.433 . S
C701 N704 1.384 . S
C702 H693 0.929 . S
C702 C694 1.378 . S
C702 C697 1.350 . S
C703 H690 0.929 . S
C703 C695 1.433 . S
C703 N705 1.384 . S
N704 C700 1.427 . S
N704 C701 1.384 . S
N705 C697 1.427 . S
N705 C703 1.384 . S
H706 C712 0.930 . S
H707 C716 0.930 . S
H708 C721 0.929 . S
H709 C719 0.929 . S
H710 C714 0.929 1_565 S
H711 C720 0.929 . S
C712 H706 0.930 . S
C712 C713 1.367 . S
C712 C720 1.378 . S
C713 C712 1.367 . S
C713 C721 1.433 . S
C714 H710 0.929 1_545 S
C714 C716 1.378 . S
C714 C718 1.350 1_545 S
C715 C718 1.463 . S
C715 C720 1.350 . S
C715 N723 1.427 . S
C716 H707 0.930 . S
C716 C714 1.378 . S
C716 C717 1.367 . S
C717 C716 1.367 . S
C717 C719 1.433 . S
C718 C714 1.350 1_565 S
C718 C715 1.463 . S
C718 N722 1.427 1_565 S
C719 H709 0.929 . S
C719 C717 1.433 . S
C719 N722 1.384 . S
C720 H711 0.929 . S
C720 C712 1.378 . S
C720 C715 1.350 . S
C721 H708 0.929 . S
C721 C713 1.433 . S
C721 N723 1.384 . S
N722 C718 1.427 1_545 S
N722 C719 1.384 . S
N723 C715 1.427 . S
N723 C721 1.384 . S
H724 C730 0.930 . S
H725 C734 0.930 . S
H726 C739 0.929 . S
H727 C737 0.929 . S
H728 C732 0.929 . S
H729 C738 0.929 . S
C730 H724 0.930 . S
C730 C731 1.367 . S
C730 C738 1.378 . S
C731 C730 1.367 . S
C731 C739 1.433 . S
C732 H728 0.929 . S
C732 C734 1.378 . S
C732 C736 1.350 . S
C733 C736 1.463 . S
C733 C738 1.350 . S
C733 N741 1.427 . S
C734 H725 0.930 . S
C734 C732 1.378 . S
C734 C735 1.367 . S
C735 C734 1.367 . S
C735 C737 1.433 . S
C736 C732 1.350 . S
C736 C733 1.463 . S
C736 N740 1.427 . S
C737 H727 0.929 . S
C737 C735 1.433 . S
C737 N740 1.384 . S
C738 H729 0.929 . S
C738 C730 1.378 . S
C738 C733 1.350 . S
C739 H726 0.929 . S
C739 C731 1.433 . S
C739 N741 1.384 . S
N740 C736 1.427 . S
N740 C737 1.384 . S
N741 C733 1.427 . S
N741 C739 1.384 . S
H742 C748 0.930 . S
H743 C752 0.930 . S
H744 C757 0.929 . S
H745 C755 0.929 . S
H746 C750 0.929 . S
H747 C756 0.929 . S
C748 H742 0.930 . S
C748 C749 1.367 . S
C748 C756 1.378 . S
C749 C748 1.367 . S
C749 C757 1.433 . S
C750 H746 0.929 . S
C750 C752 1.378 . S
C750 C754 1.350 . S
C751 C754 1.463 . S
C751 C756 1.350 1_545 S
C751 N759 1.427 1_545 S
C752 H743 0.930 . S
C752 C750 1.378 . S
C752 C753 1.367 . S
C753 C752 1.367 . S
C753 C755 1.433 . S
C754 C750 1.350 . S
C754 C751 1.463 . S
C754 N758 1.427 . S
C755 H745 0.929 . S
C755 C753 1.433 . S
C755 N758 1.384 . S
C756 H747 0.929 . S
C756 C748 1.378 . S
C756 C751 1.350 1_565 S
C757 H744 0.929 . S
C757 C749 1.433 . S
C757 N759 1.384 . S
N758 C754 1.427 . S
N758 C755 1.384 . S
N759 C751 1.427 1_565 S
N759 C757 1.384 . S
H760 C766 0.930 . S
H761 C770 0.930 . S
H762 C775 0.929 . S
H763 C773 0.929 . S
H764 C768 0.929 . S
H765 C774 0.929 . S
C766 H760 0.930 . S
C766 C767 1.367 . S
C766 C774 1.378 . S
C767 C766 1.367 . S
C767 C775 1.433 . S
C768 H764 0.929 . S
C768 C770 1.378 . S
C768 C772 1.350 . S
C769 C772 1.463 1_556 S
C769 C774 1.350 . S
C769 N777 1.427 . S
C770 H761 0.930 . S
C770 C768 1.378 . S
C770 C771 1.367 . S
C771 C770 1.367 . S
C771 C773 1.433 . S
C772 C768 1.350 . S
C772 C769 1.463 1_554 S
C772 N776 1.427 . S
C773 H763 0.929 . S
C773 C771 1.433 . S
C773 N776 1.384 . S
C774 H765 0.929 . S
C774 C766 1.378 . S
C774 C769 1.350 . S
C775 H762 0.929 . S
C775 C767 1.433 . S
C775 N777 1.384 . S
N776 C772 1.427 . S
N776 C773 1.384 . S
N777 C769 1.427 . S
N777 C775 1.384 . S
H778 C784 0.930 . S
H779 C788 0.930 . S
H780 C793 0.929 . S
H781 C791 0.929 . S
H782 C786 0.929 . S
H783 C792 0.929 1_545 S
C784 H778 0.930 . S
C784 C785 1.367 . S
C784 C792 1.378 . S
C785 C784 1.367 . S
C785 C793 1.433 . S
C786 H782 0.929 . S
C786 C788 1.378 . S
C786 C790 1.350 . S
C787 C790 1.463 . S
C787 C792 1.350 1_545 S
C787 N795 1.427 1_545 S
C788 H779 0.930 . S
C788 C786 1.378 . S
C788 C789 1.367 . S
C789 C788 1.367 . S
C789 C791 1.433 . S
C790 C786 1.350 . S
C790 C787 1.463 . S
C790 N794 1.427 . S
C791 H781 0.929 . S
C791 C789 1.433 . S
C791 N794 1.384 . S
C792 H783 0.929 1_565 S
C792 C784 1.378 . S
C792 C787 1.350 1_565 S
C793 H780 0.929 . S
C793 C785 1.433 . S
C793 N795 1.384 . S
N794 C790 1.427 . S
N794 C791 1.384 . S
N795 C787 1.427 1_565 S
N795 C793 1.384 . S
H796 C802 0.930 . S
H797 C806 0.930 . S
H798 C811 0.929 . S
H799 C809 0.929 . S
H800 C804 0.929 . S
H801 C810 0.929 . S
C802 H796 0.930 . S
C802 C803 1.367 . S
C802 C810 1.378 . S
C803 C802 1.367 . S
C803 C811 1.433 . S
C804 H800 0.929 . S
C804 C806 1.378 . S
C804 C808 1.350 . S
C805 C808 1.463 . S
C805 C810 1.350 . S
C805 N813 1.427 . S
C806 H797 0.930 . S
C806 C804 1.378 . S
C806 C807 1.367 . S
C807 C806 1.367 . S
C807 C809 1.433 . S
C808 C804 1.350 . S
C808 C805 1.463 . S
C808 N812 1.427 . S
C809 H799 0.929 . S
C809 C807 1.433 . S
C809 N812 1.384 . S
C810 H801 0.929 . S
C810 C802 1.378 . S
C810 C805 1.350 . S
C811 H798 0.929 . S
C811 C803 1.433 . S
C811 N813 1.384 . S
N812 C808 1.427 . S
N812 C809 1.384 . S
N813 C805 1.427 . S
N813 C811 1.384 . S
H814 C820 0.930 . S
H815 C824 0.930 . S
H816 C829 0.929 . S
H817 C827 0.929 . S
H818 C822 0.929 1_565 S
H819 C828 0.929 . S
C820 H814 0.930 . S
C820 C821 1.367 . S
C820 C828 1.378 . S
C821 C820 1.367 . S
C821 C829 1.433 . S
C822 H818 0.929 1_545 S
C822 C824 1.378 . S
C822 C826 1.350 1_545 S
C823 C826 1.463 . S
C823 C828 1.350 . S
C823 N831 1.427 . S
C824 H815 0.930 . S
C824 C822 1.378 . S
C824 C825 1.367 . S
C825 C824 1.367 . S
C825 C827 1.433 . S
C826 C822 1.350 1_565 S
C826 C823 1.463 . S
C826 N830 1.427 1_565 S
C827 H817 0.929 . S
C827 C825 1.433 . S
C827 N830 1.384 . S
C828 H819 0.929 . S
C828 C820 1.378 . S
C828 C823 1.350 . S
C829 H816 0.929 . S
C829 C821 1.433 . S
C829 N831 1.384 . S
N830 C826 1.427 1_545 S
N830 C827 1.384 . S
N831 C823 1.427 . S
N831 C829 1.384 . S
H832 C838 0.930 . S
H833 C842 0.930 . S
H834 C847 0.929 . S
H835 C845 0.929 . S
H836 C840 0.929 . S
H837 C846 0.929 . S
C838 H832 0.930 . S
C838 C839 1.367 . S
C838 C846 1.378 . S
C839 C838 1.367 . S
C839 C847 1.433 . S
C840 H836 0.929 . S
C840 C842 1.378 . S
C840 C844 1.350 . S
C841 C844 1.463 . S
C841 C846 1.350 . S
C841 N849 1.427 . S
C842 H833 0.930 . S
C842 C840 1.378 . S
C842 C843 1.367 . S
C843 C842 1.367 . S
C843 C845 1.433 . S
C844 C840 1.350 . S
C844 C841 1.463 . S
C844 N848 1.427 . S
C845 H835 0.929 . S
C845 C843 1.433 . S
C845 N848 1.384 . S
C846 H837 0.929 . S
C846 C838 1.378 . S
C846 C841 1.350 . S
C847 H834 0.929 . S
C847 C839 1.433 . S
C847 N849 1.384 . S
N848 C844 1.427 . S
N848 C845 1.384 . S
N849 C841 1.427 . S
N849 C847 1.384 . S
H850 C856 0.930 . S
H851 C860 0.930 . S
H852 C865 0.929 . S
H853 C863 0.929 . S
H854 C858 0.929 . S
H855 C864 0.929 . S
C856 H850 0.930 . S
C856 C857 1.367 . S
C856 C864 1.378 . S
C857 C856 1.367 . S
C857 C865 1.433 . S
C858 H854 0.929 . S
C858 C860 1.378 . S
C858 C862 1.350 . S
C859 C862 1.463 . S
C859 C864 1.350 . S
C859 N867 1.427 . S
C860 H851 0.930 . S
C860 C858 1.378 . S
C860 C861 1.367 . S
C861 C860 1.367 . S
C861 C863 1.433 . S
C862 C858 1.350 . S
C862 C859 1.463 . S
C862 N866 1.427 . S
C863 H853 0.929 . S
C863 C861 1.433 . S
C863 N866 1.384 . S
C864 H855 0.929 . S
C864 C856 1.378 . S
C864 C859 1.350 . S
C865 H852 0.929 . S
C865 C857 1.433 . S
C865 N867 1.384 . S
N866 C862 1.427 . S
N866 C863 1.384 . S
N867 C859 1.427 . S
N867 C865 1.384 . S
H868 C874 0.930 . S
H869 C878 0.930 . S
H870 C883 0.929 . S
H871 C881 0.929 . S
H872 C876 0.929 . S
H873 C882 0.929 . S
C874 H868 0.930 . S
C874 C875 1.367 . S
C874 C882 1.378 1_556 S
C875 C874 1.367 . S
C875 C883 1.433 . S
C876 H872 0.929 . S
C876 C878 1.378 . S
C876 C880 1.350 . S
C877 C880 1.463 . S
C877 C882 1.350 . S
C877 N885 1.427 1_554 S
C878 H869 0.930 . S
C878 C876 1.378 . S
C878 C879 1.367 . S
C879 C878 1.367 . S
C879 C881 1.433 . S
C880 C876 1.350 . S
C880 C877 1.463 . S
C880 N884 1.427 . S
C881 H871 0.929 . S
C881 C879 1.433 . S
C881 N884 1.384 . S
C882 H873 0.929 . S
C882 C874 1.378 1_554 S
C882 C877 1.350 . S
C883 H870 0.929 . S
C883 C875 1.433 . S
C883 N885 1.384 . S
N884 C880 1.427 . S
N884 C881 1.384 . S
N885 C877 1.427 1_556 S
N885 C883 1.384 . S
H886 C892 0.930 . S
H887 C896 0.930 . S
H888 C901 0.929 . S
H889 C899 0.929 . S
H890 C894 0.929 . S
H891 C900 0.929 . S
C892 H886 0.930 . S
C892 C893 1.367 . S
C892 C900 1.378 . S
C893 C892 1.367 . S
C893 C901 1.433 . S
C894 H890 0.929 . S
C894 C896 1.378 . S
C894 C898 1.350 . S
C895 C898 1.463 . S
C895 C900 1.350 . S
C895 N903 1.427 . S
C896 H887 0.930 . S
C896 C894 1.378 . S
C896 C897 1.367 . S
C897 C896 1.367 . S
C897 C899 1.433 . S
C898 C894 1.350 . S
C898 C895 1.463 . S
C898 N902 1.427 . S
C899 H889 0.929 . S
C899 C897 1.433 . S
C899 N902 1.384 . S
C900 H891 0.929 . S
C900 C892 1.378 . S
C900 C895 1.350 . S
C901 H888 0.929 . S
C901 C893 1.433 . S
C901 N903 1.384 . S
N902 C898 1.427 . S
N902 C899 1.384 . S
N903 C895 1.427 . S
N903 C901 1.384 . S
H904 C910 0.930 . S
H905 C914 0.930 . S
H906 C919 0.929 . S
H907 C917 0.929 . S
H908 C912 0.929 . S
H909 C918 0.929 . S
C910 H904 0.930 . S
C910 C911 1.367 . S
C910 C918 1.378 . S
C911 C910 1.367 . S
C911 C919 1.433 . S
C912 H908 0.929 . S
C912 C914 1.378 . S
C912 C916 1.350 . S
C913 C916 1.463 . S
C913 C918 1.350 . S
C913 N921 1.427 . S
C914 H905 0.930 . S
C914 C912 1.378 . S
C914 C915 1.367 . S
C915 C914 1.367 . S
C915 C917 1.433 . S
C916 C912 1.350 . S
C916 C913 1.463 . S
C916 N920 1.427 . S
C917 H907 0.929 . S
C917 C915 1.433 . S
C917 N920 1.384 . S
C918 H909 0.929 . S
C918 C910 1.378 . S
C918 C913 1.350 . S
C919 H906 0.929 . S
C919 C911 1.433 . S
C919 N921 1.384 . S
N920 C916 1.427 . S
N920 C917 1.384 . S
N921 C913 1.427 . S
N921 C919 1.384 . S
H922 C928 0.930 . S
H923 C932 0.930 . S
H924 C937 0.929 . S
H925 C935 0.929 . S
H926 C930 0.929 . S
H927 C936 0.929 . S
C928 H922 0.930 . S
C928 C929 1.367 . S
C928 C936 1.378 . S
C929 C928 1.367 . S
C929 C937 1.433 . S
C930 H926 0.929 . S
C930 C932 1.378 . S
C930 C934 1.350 . S
C931 C934 1.463 . S
C931 C936 1.350 . S
C931 N939 1.427 . S
C932 H923 0.930 . S
C932 C930 1.378 . S
C932 C933 1.367 . S
C933 C932 1.367 . S
C933 C935 1.433 . S
C934 C930 1.350 . S
C934 C931 1.463 . S
C934 N938 1.427 . S
C935 H925 0.929 . S
C935 C933 1.433 . S
C935 N938 1.384 . S
C936 H927 0.929 . S
C936 C928 1.378 . S
C936 C931 1.350 . S
C937 H924 0.929 . S
C937 C929 1.433 . S
C937 N939 1.384 . S
N938 C934 1.427 . S
N938 C935 1.384 . S
N939 C931 1.427 . S
N939 C937 1.384 . S
H940 C946 0.930 . S
H941 C950 0.930 1_556 S
H942 C955 0.929 . S
H943 C953 0.929 . S
H944 C948 0.929 . S
H945 C954 0.929 . S
C946 H940 0.930 . S
C946 C947 1.367 . S
C946 C954 1.378 . S
C947 C946 1.367 . S
C947 C955 1.433 . S
C948 H944 0.929 . S
C948 C950 1.378 1_556 S
C948 C952 1.350 . S
C949 C952 1.463 . S
C949 C954 1.350 . S
C949 N957 1.427 . S
C950 H941 0.930 1_554 S
C950 C948 1.378 1_554 S
C950 C951 1.367 . S
C951 C950 1.367 . S
C951 C953 1.433 . S
C952 C948 1.350 . S
C952 C949 1.463 . S
C952 N956 1.427 1_556 S
C953 H943 0.929 . S
C953 C951 1.433 . S
C953 N956 1.384 . S
C954 H945 0.929 . S
C954 C946 1.378 . S
C954 C949 1.350 . S
C955 H942 0.929 . S
C955 C947 1.433 . S
C955 N957 1.384 . S
N956 C952 1.427 1_554 S
N956 C953 1.384 . S
N957 C949 1.427 . S
N957 C955 1.384 . S
H958 C964 0.930 . S
H959 C968 0.930 . S
H960 C973 0.929 . S
H961 C971 0.929 . S
H962 C966 0.929 . S
H963 C972 0.929 . S
C964 H958 0.930 . S
C964 C965 1.367 . S
C964 C972 1.378 . S
C965 C964 1.367 . S
C965 C973 1.433 . S
C966 H962 0.929 . S
C966 C968 1.378 . S
C966 C970 1.350 . S
C967 C970 1.463 . S
C967 C972 1.350 . S
C967 N975 1.427 . S
C968 H959 0.930 . S
C968 C966 1.378 . S
C968 C969 1.367 . S
C969 C968 1.367 . S
C969 C971 1.433 . S
C970 C966 1.350 . S
C970 C967 1.463 . S
C970 N974 1.427 . S
C971 H961 0.929 . S
C971 C969 1.433 . S
C971 N974 1.384 . S
C972 H963 0.929 . S
C972 C964 1.378 . S
C972 C967 1.350 . S
C973 H960 0.929 . S
C973 C965 1.433 . S
C973 N975 1.384 . S
N974 C970 1.427 . S
N974 C971 1.384 . S
N975 C967 1.427 . S
N975 C973 1.384 . S
H976 C982 0.930 . S
H977 C986 0.930 . S
H978 C991 0.929 . S
H979 C989 0.929 . S
H980 C984 0.929 . S
H981 C990 0.929 . S
C982 H976 0.930 . S
C982 C983 1.367 . S
C982 C990 1.378 . S
C983 C982 1.367 . S
C983 C991 1.433 . S
C984 H980 0.929 . S
C984 C986 1.378 . S
C984 C988 1.350 . S
C985 C988 1.463 1_556 S
C985 C990 1.350 . S
C985 N993 1.427 . S
C986 H977 0.930 . S
C986 C984 1.378 . S
C986 C987 1.367 . S
C987 C986 1.367 . S
C987 C989 1.433 . S
C988 C984 1.350 . S
C988 C985 1.463 1_554 S
C988 N992 1.427 . S
C989 H979 0.929 . S
C989 C987 1.433 . S
C989 N992 1.384 . S
C990 H981 0.929 . S
C990 C982 1.378 . S
C990 C985 1.350 . S
C991 H978 0.929 . S
C991 C983 1.433 . S
C991 N993 1.384 . S
N992 C988 1.427 . S
N992 C989 1.384 . S
N993 C985 1.427 . S
N993 C991 1.384 . S
H994 C1000 0.930 . S
H995 C1004 0.930 . S
H996 C1009 0.929 1_556 S
H997 C1007 0.929 . S
H998 C1002 0.929 . S
H999 C1008 0.929 . S
C1000 H994 0.930 . S
C1000 C1001 1.378 . S
C1000 C1008 1.378 . S
C1001 C1000 1.378 . S
C1001 C1009 1.440 . S
C1002 H998 0.929 . S
C1002 C1004 1.378 . S
C1002 C1006 1.350 . S
C1003 C1006 1.463 . S
C1003 C1008 1.350 . S
C1003 N1011 1.427 . S
C1004 H995 0.930 . S
C1004 C1002 1.378 . S
C1004 C1005 1.367 . S
C1005 C1004 1.367 . S
C1005 C1007 1.433 . S
C1006 C1002 1.350 . S
C1006 C1003 1.463 . S
C1006 N1010 1.427 . S
C1007 H997 0.929 . S
C1007 C1005 1.433 . S
C1007 N1010 1.384 . S
C1008 H999 0.929 . S
C1008 C1000 1.378 . S
C1008 C1003 1.350 . S
C1009 H996 0.929 1_554 S
C1009 C1001 1.440 . S
C1009 N1011 1.384 . S
N1010 C1006 1.427 . S
N1010 C1007 1.384 . S
N1011 C1003 1.427 . S
N1011 C1009 1.384 . S
H1012 C1018 0.930 . S
H1013 C1022 0.930 . S
H1014 C1027 0.929 . S
H1015 C1025 0.929 . S
H1016 C1020 0.929 . S
H1017 C1026 0.929 . S
C1018 H1012 0.930 . S
C1018 C1019 1.367 . S
C1018 C1026 1.378 . S
C1019 C1018 1.367 . S
C1019 C1027 1.433 . S
C1020 H1016 0.929 . S
C1020 C1022 1.378 . S
C1020 C1024 1.350 . S
C1021 C1024 1.463 . S
C1021 C1026 1.350 . S
C1021 N1029 1.427 . S
C1022 H1013 0.930 . S
C1022 C1020 1.378 . S
C1022 C1023 1.367 . S
C1023 C1022 1.367 . S
C1023 C1025 1.433 . S
C1024 C1020 1.350 . S
C1024 C1021 1.463 . S
C1024 N1028 1.427 . S
C1025 H1015 0.929 . S
C1025 C1023 1.433 . S
C1025 N1028 1.384 . S
C1026 H1017 0.929 . S
C1026 C1018 1.378 . S
C1026 C1021 1.350 . S
C1027 H1014 0.929 . S
C1027 C1019 1.433 . S
C1027 N1029 1.384 . S
N1028 C1024 1.427 . S
N1028 C1025 1.384 . S
N1029 C1021 1.427 . S
N1029 C1027 1.384 . S
H1030 C1036 0.930 . S
H1031 C1040 0.930 . S
H1032 C1045 0.929 . S
H1033 C1043 0.929 . S
H1034 C1038 0.929 . S
H1035 C1044 0.929 . S
C1036 H1030 0.930 . S
C1036 C1037 1.367 . S
C1036 C1044 1.378 . S
C1037 C1036 1.367 . S
C1037 C1045 1.433 . S
C1038 H1034 0.929 . S
C1038 C1040 1.378 . S
C1038 C1042 1.350 . S
C1039 C1042 1.463 . S
C1039 C1044 1.350 . S
C1039 N1047 1.427 . S
C1040 H1031 0.930 . S
C1040 C1038 1.378 . S
C1040 C1041 1.367 . S
C1041 C1040 1.367 . S
C1041 C1043 1.433 . S
C1042 C1038 1.350 . S
C1042 C1039 1.463 . S
C1042 N1046 1.427 . S
C1043 H1033 0.929 . S
C1043 C1041 1.433 . S
C1043 N1046 1.384 . S
C1044 H1035 0.929 . S
C1044 C1036 1.378 . S
C1044 C1039 1.350 . S
C1045 H1032 0.929 . S
C1045 C1037 1.433 . S
C1045 N1047 1.384 . S
N1046 C1042 1.427 . S
N1046 C1043 1.384 . S
N1047 C1039 1.427 . S
N1047 C1045 1.384 . S
H1048 C1054 0.930 . S
H1049 C1058 0.930 . S
H1050 C1063 0.929 . S
H1051 C1061 0.929 . S
H1052 C1056 0.929 . S
H1053 C1062 0.929 . S
C1054 H1048 0.930 . S
C1054 C1055 1.367 . S
C1054 C1062 1.378 . S
C1055 C1054 1.367 . S
C1055 C1063 1.433 . S
C1056 H1052 0.929 . S
C1056 C1058 1.378 . S
C1056 C1060 1.350 . S
C1057 C1060 1.463 . S
C1057 C1062 1.350 . S
C1057 N1065 1.427 . S
C1058 H1049 0.930 . S
C1058 C1056 1.378 . S
C1058 C1059 1.367 . S
C1059 C1058 1.367 . S
C1059 C1061 1.433 . S
C1060 C1056 1.350 . S
C1060 C1057 1.463 . S
C1060 N1064 1.427 . S
C1061 H1051 0.929 . S
C1061 C1059 1.433 . S
C1061 N1064 1.384 . S
C1062 H1053 0.929 . S
C1062 C1054 1.378 . S
C1062 C1057 1.350 . S
C1063 H1050 0.929 . S
C1063 C1055 1.433 . S
C1063 N1065 1.384 . S
N1064 C1060 1.427 . S
N1064 C1061 1.384 . S
N1065 C1057 1.427 . S
N1065 C1063 1.384 . S
H1066 C1072 0.930 . S
H1067 C1076 0.930 . S
H1068 C1081 0.929 . S
H1069 C1079 0.929 . S
H1070 C1074 0.929 . S
H1071 C1080 0.929 . S
C1072 H1066 0.930 . S
C1072 C1073 1.367 . S
C1072 C1080 1.378 . S
C1073 C1072 1.367 . S
C1073 C1081 1.433 . S
C1074 H1070 0.929 . S
C1074 C1076 1.378 . S
C1074 C1078 1.350 . S
C1075 C1078 1.463 . S
C1075 C1080 1.350 . S
C1075 N1083 1.427 . S
C1076 H1067 0.930 . S
C1076 C1074 1.378 . S
C1076 C1077 1.367 . S
C1077 C1076 1.367 . S
C1077 C1079 1.433 . S
C1078 C1074 1.350 . S
C1078 C1075 1.463 . S
C1078 N1082 1.427 . S
C1079 H1069 0.929 . S
C1079 C1077 1.433 . S
C1079 N1082 1.384 . S
C1080 H1071 0.929 . S
C1080 C1072 1.378 . S
C1080 C1075 1.350 . S
C1081 H1068 0.929 . S
C1081 C1073 1.433 . S
C1081 N1083 1.384 . S
N1082 C1078 1.427 . S
N1082 C1079 1.384 . S
N1083 C1075 1.427 . S
N1083 C1081 1.384 . S
H1084 C1090 0.930 . S
H1085 C1094 0.930 . S
H1086 C1099 0.929 . S
H1087 C1097 0.929 . S
H1088 C1092 0.929 1_556 S
H1089 C1098 0.929 . S
C1090 H1084 0.930 . S
C1090 C1091 1.367 . S
C1090 C1098 1.378 1_556 S
C1091 C1090 1.367 . S
C1091 C1099 1.433 . S
C1092 H1088 0.929 1_554 S
C1092 C1094 1.378 . S
C1092 C1096 1.350 . S
C1093 C1096 1.465 . S
C1093 C1098 1.350 . S
C1093 N1101 1.425 1_554 S
C1094 H1085 0.930 . S
C1094 C1092 1.378 . S
C1094 C1095 1.367 . S
C1095 C1094 1.367 . S
C1095 C1097 1.433 . S
C1096 C1092 1.350 . S
C1096 C1093 1.465 . S
C1096 N1100 1.427 . S
C1097 H1087 0.929 . S
C1097 C1095 1.433 . S
C1097 N1100 1.384 . S
C1098 H1089 0.929 . S
C1098 C1090 1.378 1_554 S
C1098 C1093 1.350 . S
C1099 H1086 0.929 . S
C1099 C1091 1.433 . S
C1099 N1101 1.384 . S
N1100 C1096 1.427 . S
N1100 C1097 1.384 . S
N1101 C1093 1.425 1_556 S
N1101 C1099 1.384 . S
H1102 C1108 0.930 . S
H1103 C1112 0.930 . S
H1104 C1117 0.929 . S
H1105 C1115 0.929 . S
H1106 C1110 0.929 . S
H1107 C1116 0.929 . S
C1108 H1102 0.930 . S
C1108 C1109 1.367 1_455 S
C1108 C1116 1.378 . S
C1109 C1108 1.367 1_655 S
C1109 C1117 1.433 . S
C1110 H1106 0.929 . S
C1110 C1112 1.378 . S
C1110 C1114 1.350 . S
C1111 C1114 1.463 . S
C1111 C1116 1.350 . S
C1111 N1119 1.427 . S
C1112 H1103 0.930 . S
C1112 C1110 1.378 . S
C1112 C1113 1.367 . S
C1113 C1112 1.367 . S
C1113 C1115 1.433 . S
C1114 C1110 1.350 . S
C1114 C1111 1.463 . S
C1114 N1118 1.427 . S
C1115 H1105 0.929 . S
C1115 C1113 1.433 . S
C1115 N1118 1.384 . S
C1116 H1107 0.929 . S
C1116 C1108 1.378 . S
C1116 C1111 1.350 . S
C1117 H1104 0.929 . S
C1117 C1109 1.433 . S
C1117 N1119 1.384 1_655 S
N1118 C1114 1.427 . S
N1118 C1115 1.384 . S
N1119 C1111 1.427 . S
N1119 C1117 1.384 1_455 S
H1120 C1126 0.930 . S
H1121 C1130 0.930 . S
H1122 C1135 0.929 . S
H1123 C1133 0.929 . S
H1124 C1128 0.929 . S
H1125 C1134 0.929 . S
C1126 H1120 0.930 . S
C1126 C1127 1.367 . S
C1126 C1134 1.378 . S
C1127 C1126 1.367 . S
C1127 C1135 1.433 . S
C1128 H1124 0.929 . S
C1128 C1130 1.378 . S
C1128 C1132 1.350 . S
C1129 C1132 1.463 1_554 S
C1129 C1134 1.350 . S
C1129 N1137 1.427 . S
C1130 H1121 0.930 . S
C1130 C1128 1.378 . S
C1130 C1131 1.367 . S
C1131 C1130 1.367 . S
C1131 C1133 1.433 . S
C1132 C1128 1.350 . S
C1132 C1129 1.463 1_556 S
C1132 N1136 1.427 1_556 S
C1133 H1123 0.929 . S
C1133 C1131 1.433 . S
C1133 N1136 1.384 1_556 S
C1134 H1125 0.929 . S
C1134 C1126 1.378 . S
C1134 C1129 1.350 . S
C1135 H1122 0.929 . S
C1135 C1127 1.433 . S
C1135 N1137 1.384 . S
N1136 C1132 1.427 1_554 S
N1136 C1133 1.384 1_554 S
N1137 C1129 1.427 . S
N1137 C1135 1.384 . S
H1138 C1144 0.930 . S
H1139 C1148 0.918 1_554 S
H1140 C1153 0.929 . S
H1141 C1151 0.929 . S
H1142 C1146 0.929 . S
H1143 C1152 0.929 . S
C1144 H1138 0.930 . S
C1144 C1145 1.367 . S
C1144 C1152 1.378 . S
C1145 C1144 1.367 . S
C1145 C1153 1.433 . S
C1146 H1142 0.929 . S
C1146 C1148 1.393 . S
C1146 C1150 1.350 . S
C1147 C1150 1.463 . S
C1147 C1152 1.350 . S
C1147 N1155 1.427 . S
C1148 H1139 0.918 1_556 S
C1148 C1146 1.393 . S
C1148 C1149 1.365 . S
C1149 C1148 1.365 . S
C1149 C1151 1.439 . S
C1150 C1146 1.350 . S
C1150 C1147 1.463 . S
C1150 N1154 1.427 . S
C1151 H1141 0.929 . S
C1151 C1149 1.439 . S
C1151 N1154 1.384 . S
C1152 H1143 0.929 . S
C1152 C1144 1.378 . S
C1152 C1147 1.350 . S
C1153 H1140 0.929 . S
C1153 C1145 1.433 . S
C1153 N1155 1.384 . S
N1154 C1150 1.427 . S
N1154 C1151 1.384 . S
N1155 C1147 1.427 . S
N1155 C1153 1.384 . S
H1156 C1162 0.930 . S
H1157 C1166 0.930 . S
H1158 C1171 0.929 . S
H1159 C1169 0.929 . S
H1160 C1164 0.929 . S
H1161 C1170 0.929 . S
C1162 H1156 0.930 . S
C1162 C1163 1.367 . S
C1162 C1170 1.378 . S
C1163 C1162 1.367 . S
C1163 C1171 1.433 . S
C1164 H1160 0.929 . S
C1164 C1166 1.378 . S
C1164 C1168 1.350 . S
C1165 C1168 1.463 . S
C1165 C1170 1.350 . S
C1165 N1173 1.427 . S
C1166 H1157 0.930 . S
C1166 C1164 1.378 . S
C1166 C1167 1.367 . S
C1167 C1166 1.367 . S
C1167 C1169 1.433 . S
C1168 C1164 1.350 . S
C1168 C1165 1.463 . S
C1168 N1172 1.427 . S
C1169 H1159 0.929 . S
C1169 C1167 1.433 . S
C1169 N1172 1.384 . S
C1170 H1161 0.929 . S
C1170 C1162 1.378 . S
C1170 C1165 1.350 . S
C1171 H1158 0.929 . S
C1171 C1163 1.433 . S
C1171 N1173 1.384 . S
N1172 C1168 1.427 . S
N1172 C1169 1.384 . S
N1173 C1165 1.427 . S
N1173 C1171 1.384 . S
H1174 C1180 0.930 . S
H1175 C1184 0.930 . S
H1176 C1189 0.929 . S
H1177 C1187 0.929 . S
H1178 C1182 0.929 . S
H1179 C1188 0.929 . S
C1180 H1174 0.930 . S
C1180 C1181 1.367 . S
C1180 C1188 1.378 . S
C1181 C1180 1.367 . S
C1181 C1189 1.433 . S
C1182 H1178 0.929 . S
C1182 C1184 1.378 . S
C1182 C1186 1.350 . S
C1183 C1186 1.463 . S
C1183 C1188 1.350 . S
C1183 N1191 1.427 . S
C1184 H1175 0.930 . S
C1184 C1182 1.378 . S
C1184 C1185 1.367 . S
C1185 C1184 1.367 . S
C1185 C1187 1.433 . S
C1186 C1182 1.350 . S
C1186 C1183 1.463 . S
C1186 N1190 1.427 . S
C1187 H1177 0.929 . S
C1187 C1185 1.433 . S
C1187 N1190 1.384 . S
C1188 H1179 0.929 . S
C1188 C1180 1.378 . S
C1188 C1183 1.350 . S
C1189 H1176 0.929 . S
C1189 C1181 1.433 . S
C1189 N1191 1.384 . S
N1190 C1186 1.427 . S
N1190 C1187 1.384 . S
N1191 C1183 1.427 . S
N1191 C1189 1.384 . S
H1192 C1198 0.930 . S
H1193 C1202 0.930 . S
H1194 C1207 0.929 . S
H1195 C1205 0.929 . S
H1196 C1200 0.929 . S
H1197 C1206 0.929 . S
C1198 H1192 0.930 . S
C1198 C1199 1.367 . S
C1198 C1206 1.378 . S
C1199 C1198 1.367 . S
C1199 C1207 1.433 . S
C1200 H1196 0.929 . S
C1200 C1202 1.378 . S
C1200 C1204 1.350 . S
C1201 C1204 1.463 . S
C1201 C1206 1.350 . S
C1201 N1209 1.427 . S
C1202 H1193 0.930 . S
C1202 C1200 1.378 . S
C1202 C1203 1.367 . S
C1203 C1202 1.367 . S
C1203 C1205 1.433 . S
C1204 C1200 1.350 . S
C1204 C1201 1.463 . S
C1204 N1208 1.427 . S
C1205 H1195 0.929 . S
C1205 C1203 1.433 . S
C1205 N1208 1.384 . S
C1206 H1197 0.929 . S
C1206 C1198 1.378 . S
C1206 C1201 1.350 . S
C1207 H1194 0.929 . S
C1207 C1199 1.433 . S
C1207 N1209 1.384 . S
N1208 C1204 1.427 . S
N1208 C1205 1.384 . S
N1209 C1201 1.427 . S
N1209 C1207 1.384 . S
H1210 C1216 0.930 . S
H1211 C1220 0.930 . S
H1212 C1225 0.929 . S
H1213 C1223 0.929 . S
H1214 C1218 0.929 . S
H1215 C1224 0.929 . S
C1216 H1210 0.930 . S
C1216 C1217 1.367 . S
C1216 C1224 1.378 . S
C1217 C1216 1.367 . S
C1217 C1225 1.433 . S
C1218 H1214 0.929 . S
C1218 C1220 1.378 . S
C1218 C1222 1.350 . S
C1219 C1222 1.463 . S
C1219 C1224 1.350 . S
C1219 N1227 1.427 . S
C1220 H1211 0.930 . S
C1220 C1218 1.378 . S
C1220 C1221 1.367 . S
C1221 C1220 1.367 . S
C1221 C1223 1.433 . S
C1222 C1218 1.350 . S
C1222 C1219 1.463 . S
C1222 N1226 1.427 . S
C1223 H1213 0.929 . S
C1223 C1221 1.433 . S
C1223 N1226 1.384 . S
C1224 H1215 0.929 . S
C1224 C1216 1.378 . S
C1224 C1219 1.350 . S
C1225 H1212 0.929 . S
C1225 C1217 1.433 . S
C1225 N1227 1.384 . S
N1226 C1222 1.427 . S
N1226 C1223 1.384 . S
N1227 C1219 1.427 . S
N1227 C1225 1.384 . S
H1228 C1234 0.930 . S
H1229 C1238 0.930 . S
H1230 C1243 0.929 . S
H1231 C1241 0.929 . S
H1232 C1236 0.929 . S
H1233 C1242 0.929 . S
C1234 H1228 0.930 . S
C1234 C1235 1.367 . S
C1234 C1242 1.378 . S
C1235 C1234 1.367 . S
C1235 C1243 1.433 . S
C1236 H1232 0.929 . S
C1236 C1238 1.378 . S
C1236 C1240 1.350 . S
C1237 C1240 1.463 1_554 S
C1237 C1242 1.350 . S
C1237 N1245 1.427 1_554 S
C1238 H1229 0.930 . S
C1238 C1236 1.378 . S
C1238 C1239 1.367 . S
C1239 C1238 1.367 . S
C1239 C1241 1.433 . S
C1240 C1236 1.350 . S
C1240 C1237 1.463 1_556 S
C1240 N1244 1.427 . S
C1241 H1231 0.929 . S
C1241 C1239 1.433 . S
C1241 N1244 1.384 . S
C1242 H1233 0.929 . S
C1242 C1234 1.378 . S
C1242 C1237 1.350 . S
C1243 H1230 0.929 . S
C1243 C1235 1.433 . S
C1243 N1245 1.384 1_554 S
N1244 C1240 1.427 . S
N1244 C1241 1.384 . S
N1245 C1237 1.427 1_556 S
N1245 C1243 1.384 1_556 S
H1246 C1252 0.930 . S
H1247 C1256 0.930 . S
H1248 C1261 0.929 . S
H1249 C1259 0.929 . S
H1250 C1254 0.929 . S
H1251 C1260 0.929 . S
C1252 H1246 0.930 . S
C1252 C1253 1.367 . S
C1252 C1260 1.378 . S
C1253 C1252 1.367 . S
C1253 C1261 1.433 . S
C1254 H1250 0.929 . S
C1254 C1256 1.378 1_655 S
C1254 C1258 1.350 . S
C1255 C1258 1.463 . S
C1255 C1260 1.350 . S
C1255 N1263 1.427 . S
C1256 H1247 0.930 . S
C1256 C1254 1.378 1_455 S
C1256 C1257 1.367 . S
C1257 C1256 1.367 . S
C1257 C1259 1.433 1_455 S
C1258 C1254 1.350 . S
C1258 C1255 1.463 . S
C1258 N1262 1.427 . S
C1259 H1249 0.929 . S
C1259 C1257 1.433 1_655 S
C1259 N1262 1.384 . S
C1260 H1251 0.929 . S
C1260 C1252 1.378 . S
C1260 C1255 1.350 . S
C1261 H1248 0.929 . S
C1261 C1253 1.433 . S
C1261 N1263 1.384 . S
N1262 C1258 1.427 . S
N1262 C1259 1.384 . S
N1263 C1255 1.427 . S
N1263 C1261 1.384 . S
H1264 C1270 0.930 . S
H1265 C1274 0.930 . S
H1266 C1279 0.929 . S
H1267 C1277 0.929 . S
H1268 C1272 0.929 . S
H1269 C1278 0.929 . S
C1270 H1264 0.930 . S
C1270 C1271 1.367 . S
C1270 C1278 1.378 . S
C1271 C1270 1.367 . S
C1271 C1279 1.433 . S
C1272 H1268 0.929 . S
C1272 C1274 1.378 . S
C1272 C1276 1.350 . S
C1273 C1276 1.463 . S
C1273 C1278 1.350 . S
C1273 N1281 1.427 . S
C1274 H1265 0.930 . S
C1274 C1272 1.378 . S
C1274 C1275 1.367 . S
C1275 C1274 1.367 . S
C1275 C1277 1.433 . S
C1276 C1272 1.350 . S
C1276 C1273 1.463 . S
C1276 N1280 1.427 . S
C1277 H1267 0.929 . S
C1277 C1275 1.433 . S
C1277 N1280 1.384 . S
C1278 H1269 0.929 . S
C1278 C1270 1.378 . S
C1278 C1273 1.350 . S
C1279 H1266 0.929 . S
C1279 C1271 1.433 . S
C1279 N1281 1.384 . S
N1280 C1276 1.427 . S
N1280 C1277 1.384 . S
N1281 C1273 1.427 . S
N1281 C1279 1.384 . S
H1282 C1288 0.930 . S
H1283 C1292 0.930 . S
H1284 C1297 0.929 . S
H1285 C1295 0.929 . S
H1286 C1290 0.929 . S
H1287 C1296 0.929 . S
C1288 H1282 0.930 . S
C1288 C1289 1.367 . S
C1288 C1296 1.378 . S
C1289 C1288 1.367 . S
C1289 C1297 1.433 . S
C1290 H1286 0.929 . S
C1290 C1292 1.378 . S
C1290 C1294 1.350 . S
C1291 C1294 1.463 . S
C1291 C1296 1.350 . S
C1291 N1299 1.427 . S
C1292 H1283 0.930 . S
C1292 C1290 1.378 . S
C1292 C1293 1.367 . S
C1293 C1292 1.367 . S
C1293 C1295 1.433 . S
C1294 C1290 1.350 . S
C1294 C1291 1.463 . S
C1294 N1298 1.427 . S
C1295 H1285 0.929 . S
C1295 C1293 1.433 . S
C1295 N1298 1.384 . S
C1296 H1287 0.929 . S
C1296 C1288 1.378 . S
C1296 C1291 1.350 . S
C1297 H1284 0.929 . S
C1297 C1289 1.433 . S
C1297 N1299 1.384 . S
N1298 C1294 1.427 . S
N1298 C1295 1.384 . S
N1299 C1291 1.427 . S
N1299 C1297 1.384 . S
H1300 C1306 0.930 . S
H1301 C1310 0.930 . S
H1302 C1315 0.929 . S
H1303 C1313 0.929 . S
H1304 C1308 0.929 . S
H1305 C1314 0.930 . S
C1306 H1300 0.930 . S
C1306 C1307 1.367 . S
C1306 C1314 1.393 . S
C1307 C1306 1.367 . S
C1307 C1315 1.433 1_554 S
C1308 H1304 0.929 . S
C1308 C1310 1.378 . S
C1308 C1312 1.350 . S
C1309 C1312 1.463 . S
C1309 C1314 1.333 1_556 S
C1309 N1317 1.427 . S
C1310 H1301 0.930 . S
C1310 C1308 1.378 . S
C1310 C1311 1.367 . S
C1311 C1310 1.367 . S
C1311 C1313 1.433 . S
C1312 C1308 1.350 . S
C1312 C1309 1.463 . S
C1312 N1316 1.427 . S
C1313 H1303 0.929 . S
C1313 C1311 1.433 . S
C1313 N1316 1.384 . S
C1314 H1305 0.930 . S
C1314 C1306 1.393 . S
C1314 C1309 1.333 1_554 S
C1315 H1302 0.929 . S
C1315 C1307 1.433 1_556 S
C1315 N1317 1.384 . S
N1316 C1312 1.427 . S
N1316 C1313 1.384 . S
N1317 C1309 1.427 . S
N1317 C1315 1.384 . S
H1318 C1324 0.930 . S
H1319 C1328 0.930 . S
H1320 C1333 0.929 . S
H1321 C1331 0.929 . S
H1322 C1326 0.929 . S
H1323 C1332 0.929 . S
C1324 H1318 0.930 . S
C1324 C1325 1.367 . S
C1324 C1332 1.378 . S
C1325 C1324 1.367 . S
C1325 C1333 1.433 . S
C1326 H1322 0.929 . S
C1326 C1328 1.378 . S
C1326 C1330 1.350 . S
C1327 C1330 1.463 1_455 S
C1327 C1332 1.350 . S
C1327 N1335 1.427 . S
C1328 H1319 0.930 . S
C1328 C1326 1.378 . S
C1328 C1329 1.367 . S
C1329 C1328 1.367 . S
C1329 C1331 1.433 . S
C1330 C1326 1.350 . S
C1330 C1327 1.463 1_655 S
C1330 N1334 1.427 . S
C1331 H1321 0.929 . S
C1331 C1329 1.433 . S
C1331 N1334 1.384 . S
C1332 H1323 0.929 . S
C1332 C1324 1.378 . S
C1332 C1327 1.350 . S
C1333 H1320 0.929 . S
C1333 C1325 1.433 . S
C1333 N1335 1.384 . S
N1334 C1330 1.427 . S
N1334 C1331 1.384 . S
N1335 C1327 1.427 . S
N1335 C1333 1.384 . S
H1336 C1342 0.930 . S
H1337 C1346 0.930 . S
H1338 C1351 0.929 . S
H1339 C1349 0.929 . S
H1340 C1344 0.929 . S
H1341 C1350 0.929 . S
C1342 H1336 0.930 . S
C1342 C1343 1.367 . S
C1342 C1350 1.378 . S
C1343 C1342 1.367 . S
C1343 C1351 1.433 . S
C1344 H1340 0.929 . S
C1344 C1346 1.378 1_554 S
C1344 C1348 1.350 . S
C1345 C1348 1.463 . S
C1345 C1350 1.350 . S
C1345 N1353 1.427 . S
C1346 H1337 0.930 . S
C1346 C1344 1.378 1_556 S
C1346 C1347 1.367 . S
C1347 C1346 1.367 . S
C1347 C1349 1.433 . S
C1348 C1344 1.350 . S
C1348 C1345 1.463 . S
C1348 N1352 1.427 1_554 S
C1349 H1339 0.929 . S
C1349 C1347 1.433 . S
C1349 N1352 1.384 . S
C1350 H1341 0.929 . S
C1350 C1342 1.378 . S
C1350 C1345 1.350 . S
C1351 H1338 0.929 . S
C1351 C1343 1.433 . S
C1351 N1353 1.384 . S
N1352 C1348 1.427 1_556 S
N1352 C1349 1.384 . S
N1353 C1345 1.427 . S
N1353 C1351 1.384 . S
H1354 C1360 0.930 . S
H1355 C1364 0.930 . S
H1356 C1369 0.929 . S
H1357 C1367 0.929 . S
H1358 C1362 0.929 . S
H1359 C1368 0.929 . S
C1360 H1354 0.930 . S
C1360 C1361 1.367 . S
C1360 C1368 1.378 . S
C1361 C1360 1.367 . S
C1361 C1369 1.433 . S
C1362 H1358 0.929 . S
C1362 C1364 1.378 . S
C1362 C1366 1.350 . S
C1363 C1366 1.463 1_655 S
C1363 C1368 1.350 . S
C1363 N1371 1.427 . S
C1364 H1355 0.930 . S
C1364 C1362 1.378 . S
C1364 C1365 1.367 . S
C1365 C1364 1.367 . S
C1365 C1367 1.433 . S
C1366 C1362 1.350 . S
C1366 C1363 1.463 1_455 S
C1366 N1370 1.427 . S
C1367 H1357 0.929 . S
C1367 C1365 1.433 . S
C1367 N1370 1.384 . S
C1368 H1359 0.929 . S
C1368 C1360 1.378 . S
C1368 C1363 1.350 . S
C1369 H1356 0.929 . S
C1369 C1361 1.433 . S
C1369 N1371 1.384 . S
N1370 C1366 1.427 . S
N1370 C1367 1.384 . S
N1371 C1363 1.427 . S
N1371 C1369 1.384 . S
H1372 C1378 0.930 . S
H1373 C1382 0.930 . S
H1374 C1387 0.929 . S
H1375 C1385 0.929 . S
H1376 C1380 0.929 . S
H1377 C1386 0.929 . S
C1378 H1372 0.930 . S
C1378 C1379 1.367 . S
C1378 C1386 1.378 . S
C1379 C1378 1.367 . S
C1379 C1387 1.433 . S
C1380 H1376 0.929 . S
C1380 C1382 1.378 . S
C1380 C1384 1.350 . S
C1381 C1384 1.463 . S
C1381 C1386 1.350 . S
C1381 N1389 1.427 . S
C1382 H1373 0.930 . S
C1382 C1380 1.378 . S
C1382 C1383 1.367 . S
C1383 C1382 1.367 . S
C1383 C1385 1.433 . S
C1384 C1380 1.350 . S
C1384 C1381 1.463 . S
C1384 N1388 1.427 . S
C1385 H1375 0.929 . S
C1385 C1383 1.433 . S
C1385 N1388 1.384 . S
C1386 H1377 0.929 . S
C1386 C1378 1.378 . S
C1386 C1381 1.350 . S
C1387 H1374 0.929 . S
C1387 C1379 1.433 . S
C1387 N1389 1.384 . S
N1388 C1384 1.427 . S
N1388 C1385 1.384 . S
N1389 C1381 1.427 . S
N1389 C1387 1.384 . S
H1390 C1396 0.930 . S
H1391 C1400 0.930 . S
H1392 C1405 0.929 . S
H1393 C1403 0.929 . S
H1394 C1398 0.929 . S
H1395 C1404 0.929 . S
C1396 H1390 0.930 . S
C1396 C1397 1.367 . S
C1396 C1404 1.378 . S
C1397 C1396 1.367 . S
C1397 C1405 1.433 . S
C1398 H1394 0.929 . S
C1398 C1400 1.378 . S
C1398 C1402 1.350 . S
C1399 C1402 1.463 . S
C1399 C1404 1.350 . S
C1399 N1407 1.427 . S
C1400 H1391 0.930 . S
C1400 C1398 1.378 . S
C1400 C1401 1.367 . S
C1401 C1400 1.367 . S
C1401 C1403 1.433 . S
C1402 C1398 1.350 . S
C1402 C1399 1.463 . S
C1402 N1406 1.427 . S
C1403 H1393 0.929 . S
C1403 C1401 1.433 . S
C1403 N1406 1.384 . S
C1404 H1395 0.929 . S
C1404 C1396 1.378 . S
C1404 C1399 1.350 . S
C1405 H1392 0.929 . S
C1405 C1397 1.433 . S
C1405 N1407 1.384 . S
N1406 C1402 1.427 . S
N1406 C1403 1.384 . S
N1407 C1399 1.427 . S
N1407 C1405 1.384 . S
H1408 C1414 0.930 . S
H1409 C1418 0.930 . S
H1410 C1423 0.929 . S
H1411 C1421 0.929 . S
H1412 C1416 0.929 . S
H1413 C1422 0.929 . S
C1414 H1408 0.930 . S
C1414 C1415 1.367 . S
C1414 C1422 1.378 . S
C1415 C1414 1.367 . S
C1415 C1423 1.433 . S
C1416 H1412 0.929 . S
C1416 C1418 1.378 . S
C1416 C1420 1.350 . S
C1417 C1420 1.463 . S
C1417 C1422 1.350 . S
C1417 N1425 1.427 . S
C1418 H1409 0.930 . S
C1418 C1416 1.378 . S
C1418 C1419 1.367 . S
C1419 C1418 1.367 . S
C1419 C1421 1.433 . S
C1420 C1416 1.350 . S
C1420 C1417 1.463 . S
C1420 N1424 1.427 . S
C1421 H1411 0.929 . S
C1421 C1419 1.433 . S
C1421 N1424 1.384 . S
C1422 H1413 0.929 . S
C1422 C1414 1.378 . S
C1422 C1417 1.350 . S
C1423 H1410 0.929 . S
C1423 C1415 1.433 . S
C1423 N1425 1.384 . S
N1424 C1420 1.427 . S
N1424 C1421 1.384 . S
N1425 C1417 1.427 . S
N1425 C1423 1.384 . S
H1426 C1432 0.930 . S
H1427 C1436 0.930 . S
H1428 C1441 0.929 . S
H1429 C1439 0.929 . S
H1430 C1434 0.929 . S
H1431 C1440 0.929 . S
C1432 H1426 0.930 . S
C1432 C1433 1.367 . S
C1432 C1440 1.378 . S
C1433 C1432 1.367 . S
C1433 C1441 1.433 . S
C1434 H1430 0.929 . S
C1434 C1436 1.378 . S
C1434 C1438 1.350 . S
C1435 C1438 1.463 . S
C1435 C1440 1.350 . S
C1435 N1443 1.427 . S
C1436 H1427 0.930 . S
C1436 C1434 1.378 . S
C1436 C1437 1.367 . S
C1437 C1436 1.367 . S
C1437 C1439 1.433 . S
C1438 C1434 1.350 . S
C1438 C1435 1.463 . S
C1438 N1442 1.427 . S
C1439 H1429 0.929 . S
C1439 C1437 1.433 . S
C1439 N1442 1.384 . S
C1440 H1431 0.929 . S
C1440 C1432 1.378 . S
C1440 C1435 1.350 . S
C1441 H1428 0.929 . S
C1441 C1433 1.433 . S
C1441 N1443 1.384 . S
N1442 C1438 1.427 . S
N1442 C1439 1.384 . S
N1443 C1435 1.427 . S
N1443 C1441 1.384 . S
H1444 C1450 0.930 . S
H1445 C1454 0.930 . S
H1446 C1459 0.929 . S
H1447 C1457 0.929 . S
H1448 C1452 0.929 . S
H1449 C1458 0.929 . S
C1450 H1444 0.930 . S
C1450 C1451 1.367 . S
C1450 C1458 1.378 . S
C1451 C1450 1.367 . S
C1451 C1459 1.433 . S
C1452 H1448 0.929 . S
C1452 C1454 1.378 . S
C1452 C1456 1.350 . S
C1453 C1456 1.463 . S
C1453 C1458 1.350 . S
C1453 N1461 1.427 . S
C1454 H1445 0.930 . S
C1454 C1452 1.378 . S
C1454 C1455 1.367 1_554 S
C1455 C1454 1.367 1_556 S
C1455 C1457 1.433 . S
C1456 C1452 1.350 . S
C1456 C1453 1.463 . S
C1456 N1460 1.427 . S
C1457 H1447 0.929 . S
C1457 C1455 1.433 . S
C1457 N1460 1.384 1_556 S
C1458 H1449 0.929 . S
C1458 C1450 1.378 . S
C1458 C1453 1.350 . S
C1459 H1446 0.929 . S
C1459 C1451 1.433 . S
C1459 N1461 1.384 . S
N1460 C1456 1.427 . S
N1460 C1457 1.384 1_554 S
N1461 C1453 1.427 . S
N1461 C1459 1.384 . S
H1462 C1468 0.930 . S
H1463 C1472 0.930 . S
H1464 C1477 0.929 1_554 S
H1465 C1475 0.929 . S
H1466 C1470 0.929 . S
H1467 C1476 0.929 . S
C1468 H1462 0.930 . S
C1468 C1469 1.367 . S
C1468 C1476 1.378 . S
C1469 C1468 1.367 . S
C1469 C1477 1.433 . S
C1470 H1466 0.929 . S
C1470 C1472 1.378 . S
C1470 C1474 1.350 . S
C1471 C1474 1.463 1_455 S
C1471 C1476 1.350 . S
C1471 N1479 1.427 . S
C1472 H1463 0.930 . S
C1472 C1470 1.378 . S
C1472 C1473 1.367 . S
C1473 C1472 1.367 . S
C1473 C1475 1.433 . S
C1474 C1470 1.350 . S
C1474 C1471 1.463 1_655 S
C1474 N1478 1.427 . S
C1475 H1465 0.929 . S
C1475 C1473 1.433 . S
C1475 N1478 1.384 . S
C1476 H1467 0.929 . S
C1476 C1468 1.378 . S
C1476 C1471 1.350 . S
C1477 H1464 0.929 1_556 S
C1477 C1469 1.433 . S
C1477 N1479 1.384 . S
N1478 C1474 1.427 . S
N1478 C1475 1.384 . S
N1479 C1471 1.427 . S
N1479 C1477 1.384 . S
H1480 C1486 0.930 . S
H1481 C1490 0.930 . S
H1482 C1495 0.929 . S
H1483 C1493 0.931 . S
H1484 C1488 0.929 . S
H1485 C1494 0.929 . S
C1486 H1480 0.930 . S
C1486 C1487 1.367 . S
C1486 C1494 1.378 . S
C1487 C1486 1.367 . S
C1487 C1495 1.433 . S
C1488 H1484 0.929 . S
C1488 C1490 1.378 . S
C1488 C1492 1.350 1_554 S
C1489 C1492 1.463 . S
C1489 C1494 1.350 . S
C1489 N1497 1.427 . S
C1490 H1481 0.930 . S
C1490 C1488 1.378 . S
C1490 C1491 1.367 . S
C1491 C1490 1.367 . S
C1491 C1493 1.433 . S
C1492 C1488 1.350 1_556 S
C1492 C1489 1.463 . S
C1492 N1496 1.427 . S
C1493 H1483 0.931 . S
C1493 C1491 1.433 . S
C1493 N1496 1.384 1_554 S
C1494 H1485 0.929 . S
C1494 C1486 1.378 . S
C1494 C1489 1.350 . S
C1495 H1482 0.929 . S
C1495 C1487 1.433 . S
C1495 N1497 1.384 . S
N1496 C1492 1.427 . S
N1496 C1493 1.384 1_556 S
N1497 C1489 1.427 . S
N1497 C1495 1.384 . S
H1498 C1504 0.930 . S
H1499 C1508 0.930 . S
H1500 C1513 0.929 . S
H1501 C1511 0.929 . S
H1502 C1506 0.903 1_655 S
H1503 C1512 0.929 1_455 S
C1504 H1498 0.930 . S
C1504 C1505 1.367 . S
C1504 C1512 1.378 . S
C1505 C1504 1.367 . S
C1505 C1513 1.433 . S
C1506 H1502 0.903 1_455 S
C1506 C1508 1.378 . S
C1506 C1510 1.350 . S
C1507 C1510 1.463 1_655 S
C1507 C1512 1.350 . S
C1507 N1515 1.427 . S
C1508 H1499 0.930 . S
C1508 C1506 1.378 . S
C1508 C1509 1.367 . S
C1509 C1508 1.367 . S
C1509 C1511 1.433 . S
C1510 C1506 1.350 . S
C1510 C1507 1.463 1_455 S
C1510 N1514 1.427 . S
C1511 H1501 0.929 . S
C1511 C1509 1.433 . S
C1511 N1514 1.384 . S
C1512 H1503 0.929 1_655 S
C1512 C1504 1.378 . S
C1512 C1507 1.350 . S
C1513 H1500 0.929 . S
C1513 C1505 1.433 . S
C1513 N1515 1.384 . S
N1514 C1510 1.427 . S
N1514 C1511 1.384 . S
N1515 C1507 1.427 . S
N1515 C1513 1.384 . S
H1516 C1522 0.930 . S
H1517 C1526 0.930 . S
H1518 C1531 0.929 . S
H1519 C1529 0.929 . S
H1520 C1524 0.929 . S
H1521 C1530 0.929 . S
C1522 H1516 0.930 . S
C1522 C1523 1.367 . S
C1522 C1530 1.378 . S
C1523 C1522 1.367 . S
C1523 C1531 1.433 . S
C1524 H1520 0.929 . S
C1524 C1526 1.378 . S
C1524 C1528 1.350 . S
C1525 C1528 1.463 . S
C1525 C1530 1.350 . S
C1525 N1533 1.427 . S
C1526 H1517 0.930 . S
C1526 C1524 1.378 . S
C1526 C1527 1.367 . S
C1527 C1526 1.367 . S
C1527 C1529 1.433 . S
C1528 C1524 1.350 . S
C1528 C1525 1.463 . S
C1528 N1532 1.427 . S
C1529 H1519 0.929 . S
C1529 C1527 1.433 . S
C1529 N1532 1.384 . S
C1530 H1521 0.929 . S
C1530 C1522 1.378 . S
C1530 C1525 1.350 . S
C1531 H1518 0.929 . S
C1531 C1523 1.433 . S
C1531 N1533 1.384 . S
N1532 C1528 1.427 . S
N1532 C1529 1.384 . S
N1533 C1525 1.427 . S
N1533 C1531 1.384 . S
H1534 C1540 0.930 1_556 S
H1535 C1544 0.930 . S
H1536 C1549 0.929 . S
H1537 C1547 0.929 . S
H1538 C1542 0.929 . S
H1539 C1548 0.929 . S
C1540 H1534 0.930 1_554 S
C1540 C1541 1.367 . S
C1540 C1548 1.378 . S
C1541 C1540 1.367 . S
C1541 C1549 1.433 . S
C1542 H1538 0.929 . S
C1542 C1544 1.378 . S
C1542 C1546 1.350 . S
C1543 C1546 1.463 . S
C1543 C1548 1.350 . S
C1543 N1551 1.427 . S
C1544 H1535 0.930 . S
C1544 C1542 1.378 . S
C1544 C1545 1.367 . S
C1545 C1544 1.367 . S
C1545 C1547 1.433 . S
C1546 C1542 1.350 . S
C1546 C1543 1.463 . S
C1546 N1550 1.427 . S
C1547 H1537 0.929 . S
C1547 C1545 1.433 . S
C1547 N1550 1.384 . S
C1548 H1539 0.929 . S
C1548 C1540 1.378 . S
C1548 C1543 1.350 . S
C1549 H1536 0.929 . S
C1549 C1541 1.433 . S
C1549 N1551 1.384 . S
N1550 C1546 1.427 . S
N1550 C1547 1.384 . S
N1551 C1543 1.427 . S
N1551 C1549 1.384 . S
C551 C266 0.408 . S
C555 C28 0.506 . S
C569 C142 0.285 . S
C573 C40 0.279 . S
C587 C176 0.481 . S
C591 C96 0.381 . S
C605 C210 0.312 . S
C609 C108 0.294 . S
C623 C278 0.496 . S
C627 C538 0.392 . S
C641 C312 0.287 . S
C645 C436 0.292 . S
C659 C470 0.512 . S
C663 C368 0.412 . S
C677 C482 0.277 . S
C681 C402 0.264 . S
C695 C232 1.574 . S
C699 C6 1.531 . S
C713 C37 1.134 . S
C717 C244 1.271 . S
C731 C164 2.000 . S
C735 C69 1.841 . S
C749 C173 1.610 . S
C753 C105 1.586 . S
C767 C300 1.533 . S
C771 C504 1.575 . S
C785 C516 1.264 . S
C789 C309 1.146 . S
C803 C341 1.839 . S
C807 C414 2.001 . S
C821 C375 1.598 . S
C825 C443 1.618 . S
C839 C62 1.585 . S
C843 C198 1.525 . S
C857 C207 1.151 . S
C861 C74 1.265 . S
C875 C130 1.996 . S
C879 C239 1.834 . S
C893 C139 1.583 . S
C897 C1 1.610 . S
C911 C448 1.530 . S
C915 C334 1.573 . S
C929 C346 1.264 . S
C933 C479 1.140 . S
C947 C511 1.824 . S
C951 C380 2.002 . S
C965 C275 1.627 . S
C969 C409 1.595 . S
C983 C328 1.553 . S
C987 C17 1.554 . S
C1001 C525 1.611 1_554 S
C1005 C35 1.555 . S
C1019 C71 1.766 . S
C1023 C389 1.840 . S
C1037 C464 0.987 . S
C1041 C103 1.170 . S
C1055 C532 1.441 . S
C1059 C153 1.852 . S
C1073 C396 1.662 . S
C1077 C171 1.960 . S
C1091 C221 2.258 . S
C1095 C457 2.279 . S
C1109 C255 1.602 . S
C1113 C321 1.250 . S
C1127 C56 1.549 . S
C1131 C289 1.552 . S
C1145 C307 1.554 . S
C1149 C253 1.624 1_556 S
C1163 C124 1.839 . S
C1167 C343 1.776 . S
C1181 C377 1.170 . S
C1185 C185 0.980 . S
C1199 C260 1.422 . S
C1203 C425 1.853 . S
C1217 C117 1.680 . S
C1221 C445 1.970 . S
C1235 C493 2.262 . S
C1239 C192 2.280 . S
C1253 C49 1.260 . S
C1257 C527 1.602 . S
C1271 C498 1.550 . S
C1275 C187 1.553 . S
C1289 C355 1.631 . S
C1293 C205 1.563 . S
C1307 C241 1.773 . S
C1311 C423 1.841 . S
C1325 C137 1.171 . S
C1329 C287 0.987 . S
C1343 C362 1.440 . S
C1347 C119 1.851 . S
C1361 C430 1.669 . S
C1365 C3 1.964 . S
C1379 C294 2.279 . S
C1383 C51 2.258 . S
C1397 C491 1.240 1_556 S
C1401 C85 1.602 . S
C1415 C226 1.551 . S
C1419 C459 1.553 . S
C1433 C83 1.631 . S
C1437 C477 1.556 . S
C1451 C158 1.840 . S
C1455 C513 1.765 . S
C1469 C22 0.981 . S
C1473 C411 1.163 . S
C1487 C90 1.427 . S
C1491 C391 1.850 . S
C1505 C273 1.964 . S
C1509 C151 1.666 . S
C1523 C15 2.280 . S
C1527 C323 2.261 . S
C1541 C219 1.232 1_554 S
C1545 C357 1.602 . S
