# Generated by pormake.
# Topology gis, (4)-cn, num edge types: 1
# Building blocks:
#     Node 0, Type 0, BuildingBlock: ICAMEG_clean_sbu_1, # of connection points: 4
#     Node 1, Type 0, BuildingBlock: ICAMEG_clean_sbu_1, # of connection points: 4
#     Node 2, Type 0, BuildingBlock: ICAMEG_clean_sbu_1, # of connection points: 4
#     Node 3, Type 0, BuildingBlock: ICAMEG_clean_sbu_1, # of connection points: 4
#     Node 4, Type 0, BuildingBlock: ICAMEG_clean_sbu_1, # of connection points: 4
#     Node 5, Type 0, BuildingBlock: ICAMEG_clean_sbu_1, # of connection points: 4
#     Node 6, Type 0, BuildingBlock: ICAMEG_clean_sbu_1, # of connection points: 4
#     Node 7, Type 0, BuildingBlock: ICAMEG_clean_sbu_1, # of connection points: 4
#     Node 8, Type 0, BuildingBlock: ICAMEG_clean_sbu_1, # of connection points: 4
#     Node 9, Type 0, BuildingBlock: ICAMEG_clean_sbu_1, # of connection points: 4
#     Node 10, Type 0, BuildingBlock: ICAMEG_clean_sbu_1, # of connection points: 4
#     Node 11, Type 0, BuildingBlock: ICAMEG_clean_sbu_1, # of connection points: 4
#     Node 12, Type 0, BuildingBlock: ICAMEG_clean_sbu_1, # of connection points: 4
#     Node 13, Type 0, BuildingBlock: ICAMEG_clean_sbu_1, # of connection points: 4
#     Node 14, Type 0, BuildingBlock: ICAMEG_clean_sbu_1, # of connection points: 4
#     Node 15, Type 0, BuildingBlock: ICAMEG_clean_sbu_1, # of connection points: 4
#     Edge 16, Type (0, 0), BuildingBlock: KIFKEQ_clean_linker_1, # of connection points: 2
#     Edge 17, Type (0, 0), BuildingBlock: KIFKEQ_clean_linker_1, # of connection points: 2
#     Edge 18, Type (0, 0), BuildingBlock: KIFKEQ_clean_linker_1, # of connection points: 2
#     Edge 19, Type (0, 0), BuildingBlock: KIFKEQ_clean_linker_1, # of connection points: 2
#     Edge 20, Type (0, 0), BuildingBlock: KIFKEQ_clean_linker_1, # of connection points: 2
#     Edge 21, Type (0, 0), BuildingBlock: KIFKEQ_clean_linker_1, # of connection points: 2
#     Edge 22, Type (0, 0), BuildingBlock: KIFKEQ_clean_linker_1, # of connection points: 2
#     Edge 23, Type (0, 0), BuildingBlock: KIFKEQ_clean_linker_1, # of connection points: 2
#     Edge 24, Type (0, 0), BuildingBlock: KIFKEQ_clean_linker_1, # of connection points: 2
#     Edge 25, Type (0, 0), BuildingBlock: KIFKEQ_clean_linker_1, # of connection points: 2
#     Edge 26, Type (0, 0), BuildingBlock: KIFKEQ_clean_linker_1, # of connection points: 2
#     Edge 27, Type (0, 0), BuildingBlock: KIFKEQ_clean_linker_1, # of connection points: 2
#     Edge 28, Type (0, 0), BuildingBlock: KIFKEQ_clean_linker_1, # of connection points: 2
#     Edge 29, Type (0, 0), BuildingBlock: KIFKEQ_clean_linker_1, # of connection points: 2
#     Edge 30, Type (0, 0), BuildingBlock: KIFKEQ_clean_linker_1, # of connection points: 2
#     Edge 31, Type (0, 0), BuildingBlock: KIFKEQ_clean_linker_1, # of connection points: 2
#     Edge 32, Type (0, 0), BuildingBlock: KIFKEQ_clean_linker_1, # of connection points: 2
#     Edge 33, Type (0, 0), BuildingBlock: KIFKEQ_clean_linker_1, # of connection points: 2
#     Edge 34, Type (0, 0), BuildingBlock: KIFKEQ_clean_linker_1, # of connection points: 2
#     Edge 35, Type (0, 0), BuildingBlock: KIFKEQ_clean_linker_1, # of connection points: 2
#     Edge 36, Type (0, 0), BuildingBlock: KIFKEQ_clean_linker_1, # of connection points: 2
#     Edge 37, Type (0, 0), BuildingBlock: KIFKEQ_clean_linker_1, # of connection points: 2
#     Edge 38, Type (0, 0), BuildingBlock: KIFKEQ_clean_linker_1, # of connection points: 2
#     Edge 39, Type (0, 0), BuildingBlock: KIFKEQ_clean_linker_1, # of connection points: 2
#     Edge 40, Type (0, 0), BuildingBlock: KIFKEQ_clean_linker_1, # of connection points: 2
#     Edge 41, Type (0, 0), BuildingBlock: KIFKEQ_clean_linker_1, # of connection points: 2
#     Edge 42, Type (0, 0), BuildingBlock: KIFKEQ_clean_linker_1, # of connection points: 2
#     Edge 43, Type (0, 0), BuildingBlock: KIFKEQ_clean_linker_1, # of connection points: 2
#     Edge 44, Type (0, 0), BuildingBlock: KIFKEQ_clean_linker_1, # of connection points: 2
#     Edge 45, Type (0, 0), BuildingBlock: KIFKEQ_clean_linker_1, # of connection points: 2
#     Edge 46, Type (0, 0), BuildingBlock: KIFKEQ_clean_linker_1, # of connection points: 2
#     Edge 47, Type (0, 0), BuildingBlock: KIFKEQ_clean_linker_1, # of connection points: 2
# Relax obj value: 0.027
# Max RMSD: 0.089
# Mean RMSD: 0.088
data_MOF--net-gis--node1-ICAMEG_clean_sbu_1--edge1-KIFKEQ_clean_linker_1
_symmetry_space_group_name_H-M    P1
_symmetry_Int_Tables_number       1
_symmetry_cell_setting            triclinic
loop_
_symmetry_equiv_pos_as_xyz
'x, y, z'
_cell_length_a     59.002568
_cell_length_b     58.955447
_cell_length_c     36.318563
_cell_angle_alpha  90.072907
_cell_angle_beta   90.047304
_cell_angle_gamma 89.998741
loop_
_atom_site_label
_atom_site_type_symbol
_atom_site_fract_x
_atom_site_fract_y
_atom_site_fract_z
_atom_type_partial_charge
Co0 Co 0.12998 0.6235 0.07763 0.0
Co1 Co 0.12776 0.62045 0.17294 0.0
O2 O 0.13992 0.6112 0.12507 0.0
C3 C 0.12214 0.57406 0.07179 0.0
O4 O 0.1156 0.57437 0.1063 0.0
C5 C 0.17684 0.63019 0.17904 0.0
O6 O 0.17574 0.63904 0.14594 0.0
O7 O 0.12987 0.65325 0.15974 0.0
O8 O 0.13098 0.65492 0.09791 0.0
H9 H 0.07675 0.66442 0.25767 0.0
H10 H 0.16955 0.59264 0.08127 0.0
O11 O 0.12864 0.59221 0.05603 0.0
H12 H 0.1988 0.66388 0.02851 0.0
H13 H 0.12908 0.62844 0.93923 0.0
H14 H 0.09749 0.65913 0.05468 0.0
H15 H 0.15836 0.66003 0.04441 0.0
H16 H 0.14159 0.61351 0.99933 0.0
O17 O 0.15918 0.62179 0.19384 0.0
H18 H 0.09201 0.65237 0.19752 0.0
H19 H 0.1384 0.60809 0.2507 0.0
H20 H 0.08463 0.67469 0.99519 0.0
H21 H 0.21009 0.59566 0.06547 0.0
H22 H 0.10046 0.65931 0.93692 0.0
H23 H 0.22497 0.63152 0.03901 0.0
O24 O 0.09741 0.62083 0.09155 0.0
H25 H 0.15691 0.54065 0.18329 0.0
H26 H 0.09181 0.59121 0.20587 0.0
H27 H 0.0887 0.55057 0.22108 0.0
H28 H 0.12143 0.52499 0.20982 0.0
H29 H 0.1592 0.58136 0.16816 0.0
H30 H 0.12377 0.6198 0.31143 0.0
H31 H 0.09266 0.6481 0.31517 0.0
O32 O 0.0962 0.61926 0.15335 0.0
C33 C 0.1308 0.66431 0.12957 0.0
C34 C 0.09026 0.65202 0.2564 0.0
C35 C 0.11667 0.62701 0.28657 0.0
N36 N 0.11596 0.62943 0.2206 0.0
C37 C 0.09892 0.64509 0.22242 0.0
C38 C 0.12492 0.62048 0.25211 0.0
C39 C 0.09921 0.64288 0.28865 0.0
C40 C 0.17587 0.60823 0.06948 0.0
N41 N 0.1616 0.62612 0.06371 0.0
C42 C 0.19885 0.60987 0.06071 0.0
C43 C 0.2072 0.63 0.04591 0.0
C44 C 0.19253 0.64817 0.04004 0.0
C45 C 0.16965 0.64592 0.0492 0.0
C46 C 0.12209 0.63531 0.96443 0.0
C47 C 0.10456 0.65246 0.02944 0.0
C48 C 0.12907 0.62689 0.99854 0.0
N49 N 0.12039 0.63556 0.03047 0.0
C50 C 0.09717 0.66129 0.99584 0.0
C51 C 0.10603 0.65263 0.96316 0.0
C52 C 0.0866 0.61953 0.12188 0.0
C53 C 0.14255 0.55163 0.18838 0.0
C54 C 0.10607 0.58017 0.20071 0.0
C55 C 0.10424 0.55718 0.2095 0.0
C56 C 0.12262 0.54285 0.20321 0.0
N57 N 0.12566 0.58865 0.18614 0.0
C58 C 0.14378 0.57471 0.18001 0.0
Co59 Co 0.63091 0.87787 0.42103 0.0
Co60 Co 0.62823 0.87982 0.32573 0.0
O61 O 0.64046 0.88984 0.37322 0.0
C62 C 0.62342 0.92738 0.42674 0.0
O63 O 0.61633 0.92701 0.39249 0.0
C64 C 0.67747 0.87166 0.3189 0.0
O65 O 0.67666 0.86264 0.35191 0.0
O66 O 0.63176 0.8473 0.33935 0.0
O67 O 0.63131 0.84624 0.40122 0.0
H68 H 0.57864 0.83316 0.24243 0.0
H69 H 0.6708 0.9082 0.41607 0.0
O70 O 0.63017 0.90926 0.44231 0.0
H71 H 0.69972 0.83689 0.46913 0.0
H72 H 0.6314 0.87352 0.5595 0.0
H73 H 0.5981 0.84288 0.4452 0.0
H74 H 0.65917 0.84116 0.45416 0.0
H75 H 0.64348 0.88803 0.49893 0.0
O76 O 0.65954 0.87966 0.30429 0.0
H77 H 0.59387 0.84609 0.30215 0.0
H78 H 0.63757 0.89241 0.2477 0.0
H79 H 0.58567 0.82774 0.50519 0.0
H80 H 0.71146 0.90477 0.43093 0.0
H81 H 0.60235 0.8431 0.56287 0.0
H82 H 0.72617 0.86887 0.45753 0.0
O83 O 0.59829 0.881 0.40775 0.0
H84 H 0.65395 0.96065 0.31266 0.0
H85 H 0.59046 0.90739 0.29438 0.0
H86 H 0.58545 0.94775 0.27856 0.0
H87 H 0.61735 0.97468 0.28764 0.0
H88 H 0.65816 0.92018 0.32843 0.0
H89 H 0.62295 0.87986 0.18737 0.0
H90 H 0.59321 0.85009 0.18449 0.0
O91 O 0.59678 0.87967 0.34594 0.0
C92 C 0.63198 0.83655 0.3698 0.0
C93 C 0.59154 0.8462 0.24333 0.0
C94 C 0.61643 0.87239 0.21242 0.0
N95 N 0.61644 0.87012 0.27841 0.0
C96 C 0.60018 0.85364 0.27706 0.0
C97 C 0.62467 0.8794 0.24666 0.0
C98 C 0.59974 0.85569 0.21083 0.0
C99 C 0.67705 0.8926 0.42792 0.0
N100 N 0.66263 0.87491 0.43426 0.0
C101 C 0.7001 0.89073 0.43616 0.0
C102 C 0.70835 0.87057 0.45104 0.0
C103 C 0.69352 0.85261 0.45752 0.0
C104 C 0.67059 0.85509 0.44887 0.0
C105 C 0.62404 0.86666 0.53455 0.0
C106 C 0.60555 0.84953 0.47019 0.0
C107 C 0.63077 0.87484 0.50019 0.0
N108 N 0.62162 0.86617 0.46857 0.0
C109 C 0.59839 0.84095 0.50407 0.0
C110 C 0.60774 0.84959 0.53643 0.0
C111 C 0.58732 0.88067 0.37747 0.0
C112 C 0.63995 0.94907 0.30847 0.0
C113 C 0.6044 0.91902 0.29851 0.0
C114 C 0.60148 0.94184 0.28942 0.0
C115 C 0.6194 0.95694 0.29449 0.0
N116 N 0.62462 0.91143 0.31218 0.0
C117 C 0.64227 0.92612 0.31719 0.0
Co118 Co 0.37315 0.38021 0.67437 0.0
Co119 Co 0.37213 0.37771 0.57892 0.0
O120 O 0.36142 0.38967 0.62624 0.0
C121 C 0.32369 0.37212 0.67872 0.0
O122 O 0.32434 0.36527 0.64435 0.0
C123 C 0.37815 0.42743 0.57316 0.0
O124 O 0.38471 0.42737 0.60768 0.0
O125 O 0.40435 0.38175 0.59357 0.0
O126 O 0.40495 0.38116 0.65543 0.0
H127 H 0.42036 0.32873 0.49717 0.0
H128 H 0.34209 0.41957 0.66957 0.0
O129 O 0.34163 0.37891 0.69481 0.0
H130 H 0.41261 0.44962 0.72385 0.0
H131 H 0.37633 0.38044 0.81294 0.0
H132 H 0.40841 0.34785 0.69922 0.0
H133 H 0.40921 0.40905 0.70815 0.0
H134 H 0.36216 0.39245 0.75208 0.0
O135 O 0.3723 0.40903 0.55737 0.0
H136 H 0.40654 0.34377 0.55645 0.0
H137 H 0.36038 0.38695 0.50046 0.0
H138 H 0.42322 0.3355 0.7595 0.0
H139 H 0.34465 0.46023 0.6852 0.0
H140 H 0.40714 0.35184 0.8169 0.0
H141 H 0.38015 0.47551 0.71241 0.0
O142 O 0.37064 0.34756 0.66081 0.0
H143 H 0.29121 0.40242 0.5633 0.0
H144 H 0.34544 0.3396 0.54645 0.0
H145 H 0.30537 0.33411 0.52924 0.0
H146 H 0.27795 0.36567 0.5376 0.0
H147 H 0.33141 0.40711 0.58045 0.0
H148 H 0.37382 0.37251 0.44056 0.0
H149 H 0.40396 0.34312 0.43867 0.0
O150 O 0.37244 0.3462 0.59904 0.0
C151 C 0.41486 0.38209 0.62426 0.0
C152 C 0.40716 0.34147 0.49763 0.0
C153 C 0.38106 0.36607 0.46586 0.0
N154 N 0.38253 0.36605 0.53192 0.0
C155 C 0.39922 0.34999 0.53112 0.0
C156 C 0.37354 0.3742 0.49986 0.0
C157 C 0.39797 0.34957 0.46482 0.0
C158 C 0.35751 0.42606 0.68173 0.0
N159 N 0.37547 0.41195 0.68797 0.0
C160 C 0.35889 0.44911 0.69038 0.0
C161 C 0.37883 0.45768 0.70559 0.0
C162 C 0.39706 0.44317 0.71198 0.0
C163 C 0.39507 0.42023 0.70291 0.0
C164 C 0.3835 0.37324 0.78812 0.0
C165 C 0.40144 0.35515 0.72408 0.0
C166 C 0.37552 0.37994 0.75359 0.0
N167 N 0.38458 0.37099 0.72214 0.0
C168 C 0.40984 0.34804 0.75813 0.0
C169 C 0.4008 0.35719 0.79033 0.0
C170 C 0.37131 0.33665 0.63048 0.0
C171 C 0.30301 0.38856 0.55941 0.0
C172 C 0.3336 0.3534 0.55027 0.0
C173 C 0.31094 0.35021 0.54039 0.0
C174 C 0.29557 0.36793 0.54505 0.0
N175 N 0.34076 0.3737 0.56429 0.0
C176 C 0.32581 0.39116 0.56891 0.0
Co177 Co 0.87384 0.12237 0.82546 0.0
Co178 Co 0.8718 0.12477 0.92062 0.0
O179 O 0.86164 0.11293 0.87307 0.0
C180 C 0.82475 0.13158 0.81899 0.0
O181 O 0.82593 0.14101 0.85171 0.0
C182 C 0.87888 0.07536 0.9269 0.0
O183 O 0.8882 0.07626 0.89412 0.0
O184 O 0.90422 0.12046 0.90719 0.0
O185 O 0.90546 0.1218 0.84536 0.0
H186 H 0.91939 0.17291 0.00477 0.0
H187 H 0.84328 0.0826 0.83021 0.0
O188 O 0.84243 0.12305 0.80438 0.0
H189 H 0.91452 0.05327 0.77757 0.0
H190 H 0.87828 0.12173 0.68703 0.0
H191 H 0.90903 0.15497 0.80129 0.0
H192 H 0.91044 0.09387 0.79257 0.0
H193 H 0.86367 0.10979 0.74761 0.0
O194 O 0.87108 0.09334 0.94171 0.0
H195 H 0.90629 0.15822 0.94479 0.0
H196 H 0.85874 0.11547 0.99843 0.0
H197 H 0.92428 0.16726 0.7413 0.0
H198 H 0.84652 0.04189 0.81529 0.0
H199 H 0.90887 0.1506 0.68363 0.0
H200 H 0.88238 0.02697 0.7889 0.0
O201 O 0.87099 0.15508 0.83885 0.0
H202 H 0.79023 0.10135 0.9319 0.0
H203 H 0.84519 0.16313 0.95232 0.0
H204 H 0.80492 0.16925 0.96751 0.0
H205 H 0.77713 0.13821 0.95733 0.0
H206 H 0.83065 0.09601 0.91683 0.0
H207 H 0.87145 0.12957 0.05902 0.0
H208 H 0.90192 0.15856 0.06243 0.0
O209 O 0.87284 0.15628 0.90066 0.0
C210 C 0.91505 0.12053 0.87681 0.0
C211 C 0.90604 0.16034 0.00364 0.0
C212 C 0.87915 0.13599 0.03409 0.0
N213 N 0.88163 0.13617 0.96812 0.0
C214 C 0.8985 0.15201 0.96976 0.0
C215 C 0.87206 0.12804 0.99971 0.0
C216 C 0.89625 0.15226 0.03598 0.0
C217 C 0.85887 0.07626 0.81844 0.0
N218 N 0.87665 0.0906 0.81224 0.0
C219 C 0.86063 0.05318 0.81017 0.0
C220 C 0.88077 0.04482 0.79542 0.0
C221 C 0.89881 0.05956 0.78908 0.0
C222 C 0.89644 0.08252 0.79775 0.0
C223 C 0.88516 0.12908 0.71196 0.0
C224 C 0.90235 0.14755 0.77631 0.0
C225 C 0.87692 0.12243 0.74634 0.0
N226 N 0.88562 0.13157 0.77794 0.0
C227 C 0.911 0.15461 0.74243 0.0
C228 C 0.90233 0.14528 0.71008 0.0
C229 C 0.8718 0.16592 0.86927 0.0
C230 C 0.80219 0.11498 0.93656 0.0
C231 C 0.8332 0.14955 0.94776 0.0
C232 C 0.81042 0.15311 0.95647 0.0
C233 C 0.79484 0.13568 0.95078 0.0
N234 N 0.84027 0.12919 0.93388 0.0
C235 C 0.8251 0.11202 0.92823 0.0
Co236 Co 0.12981 0.3777 0.92311 0.0
Co237 Co 0.12733 0.37878 0.82766 0.0
O238 O 0.13938 0.38936 0.87502 0.0
C239 C 0.12203 0.42725 0.92758 0.0
O240 O 0.11528 0.42666 0.89316 0.0
C241 C 0.17686 0.37192 0.82211 0.0
O242 O 0.1766 0.36538 0.85662 0.0
O243 O 0.13088 0.34648 0.84222 0.0
O244 O 0.1306 0.34588 0.90408 0.0
H245 H 0.0778 0.33119 0.74568 0.0
H246 H 0.16933 0.40854 0.91841 0.0
O247 O 0.12868 0.40925 0.94363 0.0
H248 H 0.19889 0.33781 0.97259 0.0
H249 H 0.12992 0.37456 0.06166 0.0
H250 H 0.09725 0.34262 0.94782 0.0
H251 H 0.15839 0.34145 0.95685 0.0
H252 H 0.14205 0.38865 0.00086 0.0
O253 O 0.15864 0.37812 0.80623 0.0
H254 H 0.09295 0.34483 0.80503 0.0
H255 H 0.13685 0.39036 0.74925 0.0
H256 H 0.08478 0.32789 0.00805 0.0
H257 H 0.20993 0.40574 0.93408 0.0
H258 H 0.10115 0.3439 0.06551 0.0
H259 H 0.22496 0.37013 0.96124 0.0
O260 O 0.09722 0.38041 0.9095 0.0
H261 H 0.15322 0.45939 0.81231 0.0
H262 H 0.0897 0.40604 0.79515 0.0
H263 H 0.08481 0.44622 0.77804 0.0
H264 H 0.11674 0.47319 0.78656 0.0
H265 H 0.15731 0.4191 0.82936 0.0
H266 H 0.1223 0.37709 0.68928 0.0
H267 H 0.0925 0.34735 0.68725 0.0
O268 O 0.09585 0.37896 0.8477 0.0
C269 C 0.13128 0.33596 0.87286 0.0
C270 C 0.09072 0.34422 0.7462 0.0
C271 C 0.11572 0.36995 0.71455 0.0
N272 N 0.11559 0.36852 0.7806 0.0
C273 C 0.09931 0.35206 0.77972 0.0
C274 C 0.12391 0.37738 0.74858 0.0
C275 C 0.099 0.35327 0.71343 0.0
C276 C 0.17572 0.39308 0.93055 0.0
N277 N 0.16151 0.37519 0.93675 0.0
C278 C 0.19873 0.39155 0.93922 0.0
C279 C 0.20716 0.37156 0.95441 0.0
C280 C 0.19255 0.35341 0.96075 0.0
C281 C 0.16964 0.35553 0.95166 0.0
C282 C 0.1227 0.36742 0.03682 0.0
C283 C 0.10456 0.34956 0.97271 0.0
C284 C 0.12947 0.37536 0.00232 0.0
N285 N 0.12049 0.36633 0.97084 0.0
C286 C 0.09739 0.3412 0.00673 0.0
C287 C 0.10656 0.35021 0.03896 0.0
C288 C 0.08632 0.38003 0.87917 0.0
C289 C 0.13921 0.44779 0.80836 0.0
C290 C 0.10365 0.41768 0.79903 0.0
C291 C 0.1008 0.4404 0.78921 0.0
C292 C 0.11872 0.45552 0.79397 0.0
N293 N 0.12381 0.41022 0.81308 0.0
C294 C 0.14147 0.42494 0.8178 0.0
Co295 Co 0.87275 0.87856 0.07561 0.0
Co296 Co 0.87377 0.88159 0.17075 0.0
O297 O 0.86208 0.89072 0.12263 0.0
C298 C 0.87979 0.92794 0.06867 0.0
O299 O 0.88889 0.92724 0.10164 0.0
C300 C 0.82459 0.87259 0.17644 0.0
O301 O 0.82587 0.86294 0.14392 0.0
O302 O 0.8708 0.84882 0.15788 0.0
O303 O 0.87362 0.84719 0.09618 0.0
H304 H 0.9231 0.83694 0.2571 0.0
H305 H 0.83151 0.90726 0.07762 0.0
O306 O 0.87218 0.90984 0.05394 0.0
H307 H 0.80646 0.83364 0.02745 0.0
H308 H 0.87385 0.87279 0.93731 0.0
H309 H 0.90753 0.845 0.05309 0.0
H310 H 0.84656 0.83994 0.04381 0.0
H311 H 0.8605 0.8873 0.99724 0.0
O312 O 0.84221 0.88125 0.19108 0.0
H313 H 0.90846 0.84886 0.19649 0.0
H314 H 0.86307 0.89487 0.24808 0.0
H315 H 0.92126 0.82989 0.9938 0.0
H316 H 0.79128 0.90175 0.06135 0.0
H317 H 0.90438 0.84381 0.93535 0.0
H318 H 0.77852 0.8647 0.03617 0.0
O319 O 0.90504 0.883 0.08991 0.0
H320 H 0.84692 0.96231 0.17852 0.0
H321 H 0.91028 0.9101 0.20401 0.0
H322 H 0.91451 0.9508 0.2182 0.0
H323 H 0.88266 0.97721 0.20546 0.0
H324 H 0.84352 0.9215 0.16444 0.0
H325 H 0.87707 0.8833 0.30927 0.0
H326 H 0.90737 0.8542 0.31403 0.0
O327 O 0.90556 0.88177 0.15176 0.0
C328 C 0.87205 0.83778 0.12769 0.0
C329 C 0.90995 0.84969 0.25538 0.0
C330 C 0.88408 0.87569 0.28466 0.0
N331 N 0.88506 0.87266 0.21876 0.0
C332 C 0.90164 0.85655 0.22114 0.0
C333 C 0.87619 0.88213 0.24995 0.0
C334 C 0.90109 0.85936 0.28731 0.0
C335 C 0.82612 0.89117 0.06635 0.0
N336 N 0.84138 0.87399 0.06148 0.0
C337 C 0.80331 0.88811 0.05733 0.0
C338 C 0.79615 0.86731 0.04325 0.0
C339 C 0.81182 0.84987 0.03837 0.0
C340 C 0.83449 0.85352 0.04775 0.0
C341 C 0.8813 0.86656 0.96259 0.0
C342 C 0.89999 0.85101 0.02778 0.0
C343 C 0.87384 0.87474 0.99659 0.0
N344 N 0.8831 0.86685 0.02862 0.0
C345 C 0.90789 0.84245 0.99429 0.0
C346 C 0.89843 0.85029 0.96151 0.0
C347 C 0.91552 0.8829 0.12064 0.0
C348 C 0.86091 0.95096 0.18424 0.0
C349 C 0.8964 0.9215 0.19823 0.0
C350 C 0.89886 0.94451 0.20643 0.0
C351 C 0.88097 0.95932 0.19931 0.0
N352 N 0.87668 0.91343 0.18341 0.0
C353 C 0.85905 0.92783 0.17645 0.0
Co354 Co 0.37335 0.62218 0.32726 0.0
Co355 Co 0.37264 0.62364 0.42247 0.0
O356 O 0.36169 0.61216 0.37504 0.0
C357 C 0.3241 0.63053 0.32143 0.0
O358 O 0.32526 0.63992 0.35418 0.0
C359 C 0.37754 0.57385 0.42814 0.0
O360 O 0.38462 0.57392 0.39391 0.0
O361 O 0.40468 0.6184 0.40795 0.0
O362 O 0.40513 0.62251 0.34647 0.0
H363 H 0.42242 0.67058 0.50502 0.0
H364 H 0.34367 0.58167 0.33044 0.0
O365 O 0.34182 0.62217 0.3067 0.0
H366 H 0.41595 0.55452 0.27844 0.0
H367 H 0.37708 0.6222 0.18877 0.0
H368 H 0.40712 0.65622 0.30292 0.0
H369 H 0.41092 0.59484 0.29472 0.0
H370 H 0.36323 0.60953 0.24942 0.0
O371 O 0.37165 0.59228 0.44377 0.0
H372 H 0.40823 0.65619 0.44549 0.0
H373 H 0.36033 0.61463 0.50073 0.0
H374 H 0.42159 0.66927 0.24286 0.0
H375 H 0.34789 0.54125 0.3142 0.0
H376 H 0.40654 0.65222 0.18523 0.0
H377 H 0.38427 0.52743 0.28812 0.0
O378 O 0.36968 0.65461 0.34124 0.0
H379 H 0.29075 0.60201 0.43628 0.0
H380 H 0.34728 0.66254 0.45528 0.0
H381 H 0.30734 0.66949 0.47181 0.0
H382 H 0.27877 0.63908 0.46236 0.0
H383 H 0.33086 0.59585 0.41986 0.0
H384 H 0.37413 0.62842 0.56087 0.0
H385 H 0.40533 0.65667 0.56326 0.0
O386 O 0.3741 0.65527 0.40269 0.0
C387 C 0.41512 0.61985 0.37734 0.0
C388 C 0.40876 0.65834 0.50434 0.0
C389 C 0.38167 0.63465 0.53569 0.0
N390 N 0.38334 0.63477 0.46965 0.0
C391 C 0.40061 0.65019 0.47072 0.0
C392 C 0.37396 0.62688 0.50156 0.0
C393 C 0.39918 0.65051 0.537 0.0
C394 C 0.35947 0.57582 0.31873 0.0
N395 N 0.37699 0.59061 0.31341 0.0
C396 C 0.3618 0.5529 0.30975 0.0
C397 C 0.38223 0.54515 0.29518 0.0
C398 C 0.40001 0.56034 0.28978 0.0
C399 C 0.39709 0.58314 0.29915 0.0
C400 C 0.38381 0.62972 0.21368 0.0
C401 C 0.40061 0.64862 0.27797 0.0
C402 C 0.37601 0.62265 0.2481 0.0
N403 N 0.38452 0.63199 0.27967 0.0
C404 C 0.40881 0.65612 0.24404 0.0
C405 C 0.40034 0.64656 0.21172 0.0
C406 C 0.37173 0.66519 0.37171 0.0
C407 C 0.30305 0.61537 0.44063 0.0
C408 C 0.33494 0.64924 0.45102 0.0
C409 C 0.31236 0.65326 0.4605 0.0
C410 C 0.29634 0.63619 0.45521 0.0
N411 N 0.34139 0.62876 0.43678 0.0
C412 C 0.32579 0.61194 0.43153 0.0
Co413 Co 0.62761 0.12193 0.67242 0.0
Co414 Co 0.62948 0.12347 0.57706 0.0
O415 O 0.63945 0.11171 0.62483 0.0
C416 C 0.67687 0.13024 0.67822 0.0
O417 O 0.67574 0.13914 0.64515 0.0
C418 C 0.62232 0.07386 0.57197 0.0
O419 O 0.61554 0.07424 0.60636 0.0
O420 O 0.59698 0.12026 0.59098 0.0
O421 O 0.596 0.12201 0.65279 0.0
H422 H 0.58335 0.17303 0.49318 0.0
H423 H 0.65752 0.08156 0.66974 0.0
O424 O 0.6591 0.12221 0.69326 0.0
H425 H 0.58523 0.05426 0.72136 0.0
H426 H 0.62346 0.12258 0.81088 0.0
H427 H 0.59345 0.15579 0.69621 0.0
H428 H 0.59009 0.09453 0.70479 0.0
H429 H 0.63758 0.10973 0.75043 0.0
O430 O 0.62874 0.092 0.55612 0.0
H431 H 0.59631 0.1582 0.5531 0.0
H432 H 0.64153 0.11308 0.49907 0.0
H433 H 0.57871 0.16901 0.75605 0.0
H434 H 0.65346 0.04119 0.68625 0.0
H435 H 0.59374 0.15237 0.81393 0.0
H436 H 0.61708 0.0273 0.71215 0.0
O437 O 0.63103 0.15437 0.65835 0.0
H438 H 0.71008 0.09689 0.56606 0.0
H439 H 0.65733 0.1602 0.54316 0.0
H440 H 0.69776 0.1646 0.5275 0.0
H441 H 0.72443 0.13277 0.53893 0.0
H442 H 0.66954 0.09332 0.58161 0.0
H443 H 0.62892 0.12728 0.43856 0.0
H444 H 0.59969 0.15753 0.43537 0.0
O445 O 0.62989 0.1552 0.5965 0.0
C446 C 0.58627 0.12079 0.62146 0.0
C447 C 0.59615 0.1599 0.49421 0.0
C448 C 0.6217 0.1342 0.46356 0.0
N449 N 0.61978 0.13494 0.52957 0.0
C450 C 0.6036 0.15149 0.52806 0.0
C451 C 0.62874 0.12619 0.49789 0.0
C452 C 0.60531 0.15118 0.46179 0.0
C453 C 0.64172 0.07568 0.68135 0.0
N454 N 0.62411 0.09039 0.68644 0.0
C455 C 0.63949 0.05279 0.69049 0.0
C456 C 0.61906 0.045 0.70497 0.0
C457 C 0.60117 0.06011 0.71011 0.0
C458 C 0.604 0.08288 0.70059 0.0
C459 C 0.61674 0.12992 0.78585 0.0
C460 C 0.59996 0.14836 0.72128 0.0
C461 C 0.6247 0.12274 0.75155 0.0
N462 N 0.6162 0.13186 0.71983 0.0
C463 C 0.5916 0.15596 0.75508 0.0
C464 C 0.60006 0.14663 0.78754 0.0
C465 C 0.6309 0.16501 0.6278 0.0
C466 C 0.69861 0.11087 0.5609 0.0
C467 C 0.66885 0.14633 0.54836 0.0
C468 C 0.69171 0.14888 0.53933 0.0
C469 C 0.70666 0.13101 0.54572 0.0
N470 N 0.66109 0.12652 0.56326 0.0
C471 C 0.67563 0.10891 0.56952 0.0
Co472 Co 0.87142 0.3784 0.92421 0.0
Co473 Co 0.87379 0.38145 0.82882 0.0
O474 O 0.86164 0.39082 0.87672 0.0
C475 C 0.87956 0.42789 0.93011 0.0
O476 O 0.88583 0.42765 0.89546 0.0
C477 C 0.82437 0.37307 0.82361 0.0
O478 O 0.82478 0.36665 0.85817 0.0
O479 O 0.87178 0.34871 0.84217 0.0
O480 O 0.87003 0.34695 0.90393 0.0
H481 H 0.92522 0.33757 0.74465 0.0
H482 H 0.8323 0.40987 0.92113 0.0
O483 O 0.87315 0.4097 0.94587 0.0
H484 H 0.80212 0.33887 0.97336 0.0
H485 H 0.87227 0.3734 0.06262 0.0
H486 H 0.9035 0.3424 0.94713 0.0
H487 H 0.84256 0.34215 0.95713 0.0
H488 H 0.85995 0.38852 0.00254 0.0
O489 O 0.84243 0.37967 0.8077 0.0
H490 H 0.9098 0.34972 0.80464 0.0
H491 H 0.86311 0.39343 0.75091 0.0
H492 H 0.91616 0.32665 0.0066 0.0
H493 H 0.79178 0.40742 0.93729 0.0
H494 H 0.90051 0.34219 0.06489 0.0
H495 H 0.77643 0.37169 0.96348 0.0
O496 O 0.90402 0.3807 0.91028 0.0
H497 H 0.84422 0.46106 0.81791 0.0
H498 H 0.9096 0.41079 0.79575 0.0
H499 H 0.91251 0.45141 0.78029 0.0
H500 H 0.87963 0.47684 0.79133 0.0
H501 H 0.84214 0.42037 0.83329 0.0
H502 H 0.87789 0.38162 0.69033 0.0
H503 H 0.90923 0.35355 0.68695 0.0
O504 O 0.90531 0.3829 0.84853 0.0
C505 C 0.87045 0.33762 0.87223 0.0
C506 C 0.91161 0.34986 0.74576 0.0
C507 C 0.88503 0.37456 0.71528 0.0
N508 N 0.88571 0.37239 0.78127 0.0
C509 C 0.90286 0.35686 0.77965 0.0
C510 C 0.8767 0.38115 0.74965 0.0
C511 C 0.90262 0.35882 0.7134 0.0
C512 C 0.82579 0.39434 0.93284 0.0
N513 N 0.83979 0.37619 0.93824 0.0
C514 C 0.80281 0.39302 0.9418 0.0
C515 C 0.7942 0.37296 0.95644 0.0
C516 C 0.8086 0.35453 0.96195 0.0
C517 C 0.83147 0.35645 0.9526 0.0
C518 C 0.87918 0.36646 0.03741 0.0
C519 C 0.89651 0.34913 0.97238 0.0
C520 C 0.8723 0.37498 0.00331 0.0
N521 N 0.88088 0.36623 0.97137 0.0
C522 C 0.90379 0.3402 0.00597 0.0
C523 C 0.89502 0.34894 0.03866 0.0
C524 C 0.91487 0.3823 0.88002 0.0
C525 C 0.85864 0.45015 0.8129 0.0
C526 C 0.89527 0.42177 0.8008 0.0
C527 C 0.89699 0.44474 0.79187 0.0
C528 C 0.87853 0.45899 0.79804 0.0
N529 N 0.87571 0.41322 0.81537 0.0
C530 C 0.85753 0.42708 0.82141 0.0
Co531 Co 0.37114 0.12414 0.57855 0.0
Co532 Co 0.37373 0.12114 0.67383 0.0
O533 O 0.36148 0.11179 0.62605 0.0
C534 C 0.37955 0.0748 0.57285 0.0
O535 O 0.38629 0.07531 0.60727 0.0
C536 C 0.32452 0.13031 0.68017 0.0
O537 O 0.3254 0.13916 0.64705 0.0
O538 O 0.37133 0.15393 0.66063 0.0
O539 O 0.36992 0.15558 0.5988 0.0
H540 H 0.42469 0.16549 0.75824 0.0
H541 H 0.33189 0.0929 0.58246 0.0
O542 O 0.37271 0.09282 0.55704 0.0
H543 H 0.30178 0.16381 0.52973 0.0
H544 H 0.37151 0.12896 0.44014 0.0
H545 H 0.40321 0.16006 0.5553 0.0
H546 H 0.34231 0.16037 0.54544 0.0
H547 H 0.35938 0.11395 0.50036 0.0
O548 O 0.34236 0.12221 0.69492 0.0
H549 H 0.40932 0.15332 0.69819 0.0
H550 H 0.36343 0.10871 0.75166 0.0
H551 H 0.41568 0.17571 0.49569 0.0
H552 H 0.29127 0.0955 0.56685 0.0
H553 H 0.3998 0.16012 0.43757 0.0
H554 H 0.27596 0.1312 0.5404 0.0
O555 O 0.40379 0.12177 0.59225 0.0
H556 H 0.34527 0.04108 0.6842 0.0
H557 H 0.40999 0.09218 0.70661 0.0
H558 H 0.4135 0.05156 0.72171 0.0
H559 H 0.38096 0.02571 0.71053 0.0
H560 H 0.34259 0.08179 0.66917 0.0
H561 H 0.37817 0.12053 0.8123 0.0
H562 H 0.40908 0.14906 0.81584 0.0
O563 O 0.40525 0.12017 0.65404 0.0
C564 C 0.37018 0.16497 0.63046 0.0
C565 C 0.41127 0.15299 0.75705 0.0
C566 C 0.38513 0.12779 0.78739 0.0
N567 N 0.38562 0.13021 0.72142 0.0
C568 C 0.40255 0.14599 0.72313 0.0
C569 C 0.37682 0.1212 0.75299 0.0
C570 C 0.40248 0.14379 0.78936 0.0
C571 C 0.32538 0.10841 0.57068 0.0
N572 N 0.33946 0.12645 0.56481 0.0
C573 C 0.30236 0.10982 0.56201 0.0
C574 C 0.29377 0.12986 0.54722 0.0
C575 C 0.30825 0.14817 0.54126 0.0
C576 C 0.33117 0.14616 0.55031 0.0
C577 C 0.37852 0.13592 0.46528 0.0
C578 C 0.39611 0.15331 0.53013 0.0
C579 C 0.37176 0.12746 0.49945 0.0
N580 N 0.38046 0.13624 0.5313 0.0
C581 C 0.40329 0.16218 0.49646 0.0
C582 C 0.39439 0.15341 0.46385 0.0
C583 C 0.41473 0.12052 0.6225 0.0
C584 C 0.35955 0.05218 0.68926 0.0
C585 C 0.39582 0.08102 0.70149 0.0
C586 C 0.39786 0.05805 0.71022 0.0
C587 C 0.37959 0.04356 0.70398 0.0
N588 N 0.37611 0.08935 0.68702 0.0
C589 C 0.3581 0.07526 0.68094 0.0
Co590 Co 0.6283 0.6213 0.32762 0.0
Co591 Co 0.62922 0.62408 0.42306 0.0
O592 O 0.64001 0.61201 0.37586 0.0
C593 C 0.67772 0.62968 0.3234 0.0
O594 O 0.677 0.63656 0.35774 0.0
C595 C 0.62308 0.57444 0.42899 0.0
O596 O 0.61655 0.57448 0.39445 0.0
O597 O 0.59702 0.62 0.40831 0.0
O598 O 0.59649 0.62019 0.34644 0.0
H599 H 0.58081 0.67316 0.50436 0.0
H600 H 0.65957 0.58213 0.33284 0.0
O601 O 0.65984 0.62274 0.30728 0.0
H602 H 0.58934 0.55155 0.27836 0.0
H603 H 0.62531 0.62072 0.18904 0.0
H604 H 0.59289 0.65338 0.30245 0.0
H605 H 0.59247 0.59217 0.29382 0.0
H606 H 0.63948 0.60895 0.25002 0.0
O607 O 0.62901 0.59282 0.44474 0.0
H608 H 0.59473 0.65801 0.44522 0.0
H609 H 0.64088 0.61501 0.50161 0.0
H610 H 0.57807 0.66549 0.24205 0.0
H611 H 0.65727 0.54142 0.31747 0.0
H612 H 0.59432 0.64912 0.1848 0.0
H613 H 0.62192 0.52587 0.29016 0.0
O614 O 0.63063 0.65399 0.341 0.0
H615 H 0.71013 0.59943 0.4391 0.0
H616 H 0.65585 0.66226 0.45542 0.0
H617 H 0.6959 0.6678 0.47272 0.0
H618 H 0.72334 0.63624 0.46463 0.0
H619 H 0.66995 0.59468 0.42185 0.0
H620 H 0.62734 0.62956 0.56139 0.0
H621 H 0.59715 0.65892 0.563 0.0
O622 O 0.62894 0.65551 0.40278 0.0
C623 C 0.58655 0.61941 0.37761 0.0
C624 C 0.59403 0.66044 0.50402 0.0
C625 C 0.62013 0.63595 0.53602 0.0
N626 N 0.61874 0.63582 0.46996 0.0
C627 C 0.60203 0.65185 0.47061 0.0
C628 C 0.6277 0.62775 0.5021 0.0
C629 C 0.60319 0.65242 0.53691 0.0
C630 C 0.64422 0.57552 0.32064 0.0
N631 N 0.62618 0.58951 0.31421 0.0
C632 C 0.64298 0.55244 0.31213 0.0
C633 C 0.62312 0.54372 0.29687 0.0
C634 C 0.60483 0.55811 0.29028 0.0
C635 C 0.60666 0.58109 0.29921 0.0
C636 C 0.61806 0.62794 0.21379 0.0
C637 C 0.59994 0.64608 0.27766 0.0
C638 C 0.62605 0.62138 0.24839 0.0
N639 N 0.61689 0.63035 0.27975 0.0
C640 C 0.59153 0.65304 0.24354 0.0
C641 C 0.60066 0.64387 0.21143 0.0
C642 C 0.63001 0.66496 0.37126 0.0
C643 C 0.69832 0.61329 0.44287 0.0
C644 C 0.6677 0.64846 0.45172 0.0
C645 C 0.69035 0.65168 0.46165 0.0
C646 C 0.70573 0.63396 0.45713 0.0
N647 N 0.66056 0.62812 0.43779 0.0
C648 C 0.67553 0.61066 0.43331 0.0
Co649 Co 0.12796 0.87866 0.17694 0.0
Co650 Co 0.1303 0.8777 0.0818 0.0
O651 O 0.14012 0.88922 0.12981 0.0
C652 C 0.17742 0.87233 0.18347 0.0
O653 O 0.17715 0.86492 0.1494 0.0
C654 C 0.1233 0.92719 0.07565 0.0
O655 O 0.11365 0.92634 0.10817 0.0
O656 O 0.0979 0.88223 0.09487 0.0
O657 O 0.0965 0.87798 0.15633 0.0
H658 H 0.08287 0.83042 0.99614 0.0
H659 H 0.15686 0.91973 0.17501 0.0
O660 O 0.15918 0.87887 0.1989 0.0
H661 H 0.08349 0.94529 0.22503 0.0
H662 H 0.12212 0.87757 0.31522 0.0
H663 H 0.09431 0.84398 0.19926 0.0
H664 H 0.08952 0.90512 0.20869 0.0
H665 H 0.13671 0.89088 0.25538 0.0
O666 O 0.13131 0.9092 0.06116 0.0
H667 H 0.09569 0.84471 0.05655 0.0
H668 H 0.14394 0.88732 0.00432 0.0
H669 H 0.07912 0.83029 0.25847 0.0
H670 H 0.15163 0.96004 0.19126 0.0
H671 H 0.09305 0.84712 0.31699 0.0
H672 H 0.1147 0.97305 0.21637 0.0
O673 O 0.13244 0.84643 0.16267 0.0
H674 H 0.21192 0.90106 0.07112 0.0
H675 H 0.15698 0.83934 0.05012 0.0
H676 H 0.19727 0.83324 0.03509 0.0
H677 H 0.22505 0.86425 0.04554 0.0
H678 H 0.17148 0.90636 0.08611 0.0
H679 H 0.13152 0.87364 0.94333 0.0
H680 H 0.10083 0.84492 0.93899 0.0
O681 O 0.12898 0.84594 0.10108 0.0
C682 C 0.08698 0.88053 0.12502 0.0
C683 C 0.09631 0.84288 0.99768 0.0
C684 C 0.1236 0.86716 0.96804 0.0
N685 N 0.12068 0.86665 0.03396 0.0
C686 C 0.10369 0.85097 0.0318 0.0
C687 C 0.13054 0.87486 0.00264 0.0
C688 C 0.10638 0.85104 0.96562 0.0
C689 C 0.14082 0.92524 0.18625 0.0
N690 N 0.12357 0.91009 0.19108 0.0
C691 C 0.13792 0.94809 0.19526 0.0
C692 C 0.11719 0.95539 0.2093 0.0
C693 C 0.09967 0.93982 0.21414 0.0
C694 C 0.10317 0.91711 0.20477 0.0
C695 C 0.11588 0.87015 0.2899 0.0
C696 C 0.10033 0.8515 0.22461 0.0
C697 C 0.1241 0.87759 0.25595 0.0
N698 N 0.1162 0.86836 0.22387 0.0
C699 C 0.09172 0.84363 0.25805 0.0
C700 C 0.09956 0.85306 0.29088 0.0
C701 C 0.13101 0.83594 0.13206 0.0
C702 C 0.19996 0.88745 0.06634 0.0
C703 C 0.16897 0.85289 0.05487 0.0
C704 C 0.19176 0.84936 0.04621 0.0
C705 C 0.20733 0.86677 0.05205 0.0
N706 N 0.16188 0.87322 0.06887 0.0
C707 C 0.17704 0.89039 0.07461 0.0
Co708 Co 0.87168 0.62431 0.07936 0.0
Co709 Co 0.87414 0.62327 0.17482 0.0
O710 O 0.86205 0.61272 0.12746 0.0
C711 C 0.87919 0.57465 0.07485 0.0
O712 O 0.88585 0.57517 0.10931 0.0
C713 C 0.82465 0.6304 0.18029 0.0
O714 O 0.82496 0.63692 0.14577 0.0
O715 O 0.87078 0.6556 0.16022 0.0
O716 O 0.87104 0.65616 0.09835 0.0
H717 H 0.92389 0.67064 0.2568 0.0
H718 H 0.83201 0.59366 0.08409 0.0
O719 O 0.87268 0.59272 0.05882 0.0
H720 H 0.80282 0.66448 0.0297 0.0
H721 H 0.87168 0.62736 0.94079 0.0
H722 H 0.90443 0.6592 0.05465 0.0
H723 H 0.8433 0.66066 0.04549 0.0
H724 H 0.85943 0.61338 0.00159 0.0
O725 O 0.84283 0.62412 0.19621 0.0
H726 H 0.90871 0.65704 0.19744 0.0
H727 H 0.86451 0.61181 0.25323 0.0
H728 H 0.91703 0.67382 0.99442 0.0
H729 H 0.79143 0.59665 0.06839 0.0
H730 H 0.90063 0.65786 0.93696 0.0
H731 H 0.77659 0.6323 0.04111 0.0
O732 O 0.90425 0.62144 0.093 0.0
H733 H 0.84777 0.54284 0.19038 0.0
H734 H 0.91161 0.59583 0.20741 0.0
H735 H 0.91624 0.55565 0.22468 0.0
H736 H 0.88416 0.52886 0.21623 0.0
H737 H 0.84394 0.58313 0.17317 0.0
H738 H 0.87908 0.62505 0.3132 0.0
H739 H 0.90905 0.65462 0.31523 0.0
O740 O 0.90563 0.62292 0.15481 0.0
C741 C 0.87042 0.66611 0.12957 0.0
C742 C 0.9109 0.65769 0.25628 0.0
C743 C 0.88572 0.63212 0.28793 0.0
N744 N 0.88591 0.6335 0.22187 0.0
C745 C 0.90229 0.64987 0.22275 0.0
C746 C 0.87752 0.62472 0.2539 0.0
C747 C 0.90254 0.64871 0.28905 0.0
C748 C 0.82571 0.60914 0.07191 0.0
N749 N 0.84001 0.62696 0.06568 0.0
C750 C 0.8027 0.61077 0.06322 0.0
C751 C 0.79438 0.63079 0.04797 0.0
C752 C 0.80908 0.64886 0.0416 0.0
C753 C 0.83197 0.64664 0.05071 0.0
C754 C 0.87892 0.63449 0.96564 0.0
C755 C 0.8971 0.65229 0.02975 0.0
C756 C 0.87208 0.62661 1.00014 0.0
N757 N 0.88108 0.63561 0.03163 0.0
C758 C 0.90435 0.66059 0.99574 0.0
C759 C 0.89516 0.6516 0.96351 0.0
C760 C 0.91515 0.62178 0.12334 0.0
C761 C 0.86185 0.55436 0.1943 0.0
C762 C 0.89759 0.58426 0.20356 0.0
C763 C 0.9003 0.56154 0.21347 0.0
C764 C 0.88228 0.54652 0.20875 0.0
N765 N 0.87748 0.59183 0.18945 0.0
C766 C 0.85974 0.57721 0.18477 0.0
Co767 Co 0.12925 0.12303 0.92419 0.0
Co768 Co 0.12822 0.12129 0.82914 0.0
O769 O 0.13983 0.11124 0.87686 0.0
C770 C 0.12268 0.07356 0.93107 0.0
O771 O 0.11328 0.07415 0.8983 0.0
C772 C 0.17753 0.12888 0.823 0.0
O773 O 0.17647 0.13847 0.85561 0.0
O774 O 0.13255 0.15368 0.8428 0.0
O775 O 0.12783 0.15459 0.90418 0.0
H776 H 0.08065 0.16898 0.74448 0.0
H777 H 0.17089 0.09498 0.92136 0.0
O778 O 0.13038 0.09169 0.94551 0.0
H779 H 0.19505 0.1687 0.9723 0.0
H780 H 0.12865 0.12817 0.06257 0.0
H781 H 0.09396 0.15584 0.94749 0.0
H782 H 0.15499 0.16189 0.9563 0.0
H783 H 0.14199 0.11417 0.00233 0.0
O784 O 0.15971 0.1206 0.80841 0.0
H785 H 0.09505 0.15591 0.80461 0.0
H786 H 0.13784 0.10812 0.75141 0.0
H787 H 0.08022 0.17045 0.00711 0.0
H788 H 0.21111 0.101 0.93727 0.0
H789 H 0.09761 0.15659 0.0652 0.0
H790 H 0.22342 0.13811 0.96283 0.0
O791 O 0.09704 0.11805 0.91005 0.0
H792 H 0.15176 0.0397 0.81784 0.0
H793 H 0.09006 0.09463 0.79687 0.0
H794 H 0.08407 0.05431 0.78145 0.0
H795 H 0.11507 0.02654 0.7919 0.0
H796 H 0.15696 0.08015 0.83315 0.0
H797 H 0.12405 0.1208 0.69068 0.0
H798 H 0.09517 0.15138 0.68697 0.0
O799 O 0.09653 0.12234 0.84857 0.0
C800 C 0.13046 0.16438 0.87315 0.0
C801 C 0.09317 0.15559 0.74574 0.0
C802 C 0.11755 0.12856 0.71555 0.0
N803 N 0.11709 0.13113 0.78152 0.0
C804 C 0.10133 0.14807 0.77971 0.0
C805 C 0.12532 0.12148 0.75 0.0
C806 C 0.10134 0.14572 0.71349 0.0
C807 C 0.17609 0.11109 0.93281 0.0
N808 N 0.1606 0.12801 0.93807 0.0
C809 C 0.1989 0.11444 0.94162 0.0
C810 C 0.2058 0.13528 0.95591 0.0
C811 C 0.18989 0.15245 0.96121 0.0
C812 C 0.16724 0.14851 0.95203 0.0
C813 C 0.12098 0.13438 0.03745 0.0
C814 C 0.10171 0.14985 0.97264 0.0
C815 C 0.12843 0.12648 0.00327 0.0
N816 N 0.1189 0.13434 0.97143 0.0
C817 C 0.09382 0.15813 0.00632 0.0
C818 C 0.10356 0.15033 0.0389 0.0
C819 C 0.08655 0.11981 0.87947 0.0
C820 C 0.13815 0.05165 0.81306 0.0
C821 C 0.10361 0.08264 0.80157 0.0
C822 C 0.10014 0.05984 0.79271 0.0
C823 C 0.11755 0.04427 0.79856 0.0
N824 N 0.12388 0.08974 0.81574 0.0
C825 C 0.14103 0.07458 0.82153 0.0
Co826 Co 0.62813 0.37918 0.67426 0.0
Co827 Co 0.62882 0.37844 0.57893 0.0
O828 O 0.63958 0.38983 0.62662 0.0
C829 C 0.67779 0.37302 0.67914 0.0
O830 O 0.67741 0.36613 0.64478 0.0
C831 C 0.62311 0.42819 0.57409 0.0
O832 O 0.61624 0.42792 0.60843 0.0
O833 O 0.59672 0.38299 0.59359 0.0
O834 O 0.59635 0.37862 0.65502 0.0
H835 H 0.57981 0.33115 0.49568 0.0
H836 H 0.6572 0.42012 0.67205 0.0
O837 O 0.65961 0.37924 0.69507 0.0
H838 H 0.58458 0.44575 0.72478 0.0
H839 H 0.62433 0.37764 0.81274 0.0
H840 H 0.59484 0.34442 0.69759 0.0
H841 H 0.59018 0.40566 0.70754 0.0
H842 H 0.63802 0.39116 0.75248 0.0
O843 O 0.62916 0.40991 0.55817 0.0
H844 H 0.5938 0.3454 0.55541 0.0
H845 H 0.64088 0.38819 0.50077 0.0
H846 H 0.58054 0.33051 0.75725 0.0
H847 H 0.65241 0.46033 0.68924 0.0
H848 H 0.59531 0.34716 0.81537 0.0
H849 H 0.61585 0.47338 0.7157 0.0
O850 O 0.63239 0.34701 0.65954 0.0
H851 H 0.7101 0.40207 0.56412 0.0
H852 H 0.65496 0.34021 0.54565 0.0
H853 H 0.69496 0.33428 0.52843 0.0
H854 H 0.72282 0.36537 0.53759 0.0
H855 H 0.66997 0.40719 0.58129 0.0
H856 H 0.62727 0.37454 0.44044 0.0
H857 H 0.59658 0.34575 0.43765 0.0
O858 O 0.62799 0.34665 0.5981 0.0
C859 C 0.58632 0.38128 0.62419 0.0
C860 C 0.59325 0.34363 0.49654 0.0
C861 C 0.61987 0.36801 0.46553 0.0
N862 N 0.61829 0.36742 0.53157 0.0
C863 C 0.60129 0.35171 0.53028 0.0
C864 C 0.62748 0.37569 0.49977 0.0
C865 C 0.60265 0.35185 0.46399 0.0
C866 C 0.64134 0.42563 0.68391 0.0
N867 N 0.62404 0.41055 0.68892 0.0
C868 C 0.63868 0.44844 0.69343 0.0
C869 C 0.61815 0.45576 0.70822 0.0
C870 C 0.60059 0.44026 0.71329 0.0
C871 C 0.60384 0.4176 0.70338 0.0
C872 C 0.61771 0.3703 0.78761 0.0
C873 C 0.60122 0.35185 0.72277 0.0
C874 C 0.62543 0.37786 0.75341 0.0
N875 N 0.61706 0.36873 0.72156 0.0
C876 C 0.59312 0.34386 0.75646 0.0
C877 C 0.60143 0.3532 0.78906 0.0
C878 C 0.63058 0.3366 0.62891 0.0
C879 C 0.6981 0.38842 0.55989 0.0
C880 C 0.667 0.35379 0.54985 0.0
C881 C 0.68961 0.35035 0.53995 0.0
C882 C 0.70524 0.36781 0.54507 0.0
N883 N 0.66014 0.37406 0.56435 0.0
C884 C 0.67535 0.39126 0.5694 0.0
Co885 Co 0.37273 0.878 0.42538 0.0
Co886 Co 0.37428 0.88037 0.32991 0.0
O887 O 0.36256 0.89009 0.37789 0.0
C888 C 0.38099 0.92747 0.43002 0.0
O889 O 0.38701 0.92695 0.39527 0.0
C890 C 0.32475 0.87218 0.32601 0.0
O891 O 0.32539 0.86608 0.36071 0.0
O892 O 0.37233 0.84775 0.34394 0.0
O893 O 0.37112 0.84641 0.40576 0.0
H894 H 0.4249 0.83579 0.24541 0.0
H895 H 0.33364 0.90951 0.42267 0.0
O896 O 0.37468 0.90944 0.44632 0.0
H897 H 0.3038 0.83893 0.47685 0.0
H898 H 0.37476 0.87404 0.56384 0.0
H899 H 0.40495 0.84211 0.44828 0.0
H900 H 0.3441 0.84201 0.45956 0.0
H901 H 0.36195 0.88872 0.50375 0.0
O902 O 0.34272 0.8785 0.30954 0.0
H903 H 0.41003 0.84841 0.30551 0.0
H904 H 0.36294 0.89181 0.25203 0.0
H905 H 0.41809 0.82679 0.50777 0.0
H906 H 0.29327 0.90727 0.43988 0.0
H907 H 0.40297 0.84279 0.56609 0.0
H908 H 0.27809 0.87174 0.46706 0.0
O909 O 0.4052 0.88014 0.41067 0.0
H910 H 0.34475 0.95996 0.31819 0.0
H911 H 0.40983 0.90941 0.29544 0.0
H912 H 0.41267 0.94991 0.27913 0.0
H913 H 0.37994 0.97548 0.29047 0.0
H914 H 0.34274 0.91939 0.33439 0.0
H915 H 0.37718 0.87953 0.19134 0.0
H916 H 0.40843 0.85138 0.18778 0.0
O917 O 0.406 0.88192 0.34887 0.0
C918 C 0.37126 0.83686 0.37422 0.0
C919 C 0.41132 0.84812 0.2466 0.0
C920 C 0.38452 0.87264 0.21626 0.0
N921 N 0.38577 0.87095 0.28227 0.0
C922 C 0.40289 0.85538 0.28055 0.0
C923 C 0.3765 0.8795 0.25069 0.0
C924 C 0.40206 0.85686 0.21428 0.0
C925 C 0.3272 0.89408 0.43481 0.0
N926 N 0.34121 0.87593 0.44017 0.0
C927 C 0.30431 0.89287 0.44436 0.0
C928 C 0.2958 0.87292 0.45955 0.0
C929 C 0.31021 0.8545 0.46501 0.0
C930 C 0.333 0.85631 0.45506 0.0
C931 C 0.38144 0.8669 0.53861 0.0
C932 C 0.39818 0.84905 0.47355 0.0
C933 C 0.37429 0.87517 0.50451 0.0
N934 N 0.38258 0.86616 0.47255 0.0
C935 C 0.40574 0.84036 0.50715 0.0
C936 C 0.39726 0.84936 0.53986 0.0
C937 C 0.41581 0.88154 0.38017 0.0
C938 C 0.3591 0.94898 0.31304 0.0
C939 C 0.39557 0.92045 0.30061 0.0
C940 C 0.39725 0.94335 0.29121 0.0
C941 C 0.37887 0.95768 0.29754 0.0
N942 N 0.37614 0.91204 0.31581 0.0
C943 C 0.35803 0.92598 0.32202 0.0
H944 H 0.14375 0.80781 0.18848 0.0
H945 H 0.11912 0.8071 0.07637 0.0
H946 H 0.1446 0.76648 0.18854 0.0
H947 H 0.119 0.76595 0.07696 0.0
H948 H 0.1421 0.69343 0.0741 0.0
H949 H 0.14318 0.73449 0.07568 0.0
H950 H 0.12158 0.73354 0.1894 0.0
H951 H 0.12154 0.69219 0.18827 0.0
C952 C 0.13837 0.79885 0.16393 0.0
C953 C 0.13147 0.8108 0.13237 0.0
C954 C 0.13871 0.77511 0.16404 0.0
C955 C 0.13193 0.76276 0.13273 0.0
C956 C 0.12482 0.7748 0.10133 0.0
C957 C 0.12475 0.79848 0.10106 0.0
C958 C 0.13769 0.7019 0.09956 0.0
C959 C 0.13174 0.68943 0.13107 0.0
C960 C 0.13812 0.72556 0.10038 0.0
C961 C 0.13228 0.73747 0.13257 0.0
C962 C 0.12648 0.72499 0.16424 0.0
C963 C 0.12633 0.70125 0.16355 0.0
H964 H 0.44428 0.87094 0.43736 0.0
H965 H 0.44429 0.89428 0.32461 0.0
H966 H 0.48557 0.87087 0.4373 0.0
H967 H 0.48538 0.89525 0.32507 0.0
H968 H 0.55772 0.87059 0.32199 0.0
H969 H 0.51666 0.87093 0.32378 0.0
H970 H 0.5187 0.89345 0.43709 0.0
H971 H 0.56 0.89209 0.43574 0.0
C972 C 0.45307 0.87633 0.4127 0.0
C973 C 0.44092 0.88252 0.38093 0.0
C974 C 0.47679 0.87642 0.41273 0.0
C975 C 0.48894 0.88294 0.38112 0.0
C976 C 0.47671 0.88962 0.34967 0.0
C977 C 0.45305 0.88924 0.34949 0.0
C978 C 0.54947 0.87562 0.34733 0.0
C979 C 0.56221 0.88132 0.37872 0.0
C980 C 0.52582 0.87599 0.34829 0.0
C981 C 0.51422 0.88238 0.38051 0.0
C982 C 0.52699 0.88814 0.41193 0.0
C983 C 0.5507 0.88749 0.41111 0.0
H984 H 0.35974 0.30909 0.68837 0.0
H985 H 0.38199 0.30721 0.57506 0.0
H986 H 0.35843 0.26774 0.68931 0.0
H987 H 0.38168 0.26611 0.57647 0.0
H988 H 0.35775 0.19401 0.57552 0.0
H989 H 0.35701 0.23509 0.57683 0.0
H990 H 0.3808 0.2343 0.68946 0.0
H991 H 0.38051 0.19293 0.68863 0.0
C992 C 0.36453 0.29987 0.66376 0.0
C993 C 0.37086 0.31151 0.63159 0.0
C994 C 0.36391 0.27613 0.66436 0.0
C995 C 0.36984 0.26346 0.63291 0.0
C996 C 0.37647 0.27519 0.60097 0.0
C997 C 0.37681 0.29886 0.60023 0.0
C998 C 0.36271 0.20253 0.60068 0.0
C999 C 0.36922 0.1901 0.63195 0.0
C1000 C 0.36247 0.22619 0.60135 0.0
C1001 C 0.36909 0.23816 0.63312 0.0
C1002 C 0.37534 0.22573 0.66461 0.0
C1003 C 0.37529 0.20197 0.6641 0.0
H1004 H 0.05839 0.10521 0.93462 0.0
H1005 H 0.05781 0.13308 0.82462 0.0
H1006 H 0.01709 0.10411 0.93432 0.0
H1007 H 0.01672 0.133 0.82493 0.0
H1008 H 0.94399 0.11098 0.82007 0.0
H1009 H 0.98505 0.1094 0.82147 0.0
H1010 H 0.9843 0.12691 0.93712 0.0
H1011 H 0.94305 0.12734 0.93609 0.0
C1012 C 0.04946 0.11125 0.91048 0.0
C1013 C 0.06144 0.11916 0.87961 0.0
C1014 C 0.02574 0.11076 0.91037 0.0
C1015 C 0.01343 0.11842 0.87957 0.0
C1016 C 0.02551 0.12648 0.84886 0.0
C1017 C 0.04917 0.12668 0.84877 0.0
C1018 C 0.95253 0.11434 0.84589 0.0
C1019 C 0.94014 0.11925 0.87797 0.0
C1020 C 0.97618 0.11363 0.84664 0.0
C1021 C 0.98815 0.1182 0.87935 0.0
C1022 C 0.97574 0.12296 0.91153 0.0
C1023 C 0.95203 0.12335 0.91089 0.0
H1024 H 0.14075 0.30733 0.9301 0.0
H1025 H 0.12379 0.30758 0.81429 0.0
H1026 H 0.14171 0.26618 0.92948 0.0
H1027 H 0.12369 0.26631 0.81406 0.0
H1028 H 0.14511 0.19214 0.81756 0.0
H1029 H 0.14648 0.23345 0.81727 0.0
H1030 H 0.11755 0.23467 0.92661 0.0
H1031 H 0.11714 0.19353 0.92749 0.0
C1032 C 0.13714 0.29863 0.9045 0.0
C1033 C 0.13224 0.31083 0.87224 0.0
C1034 C 0.1375 0.27494 0.9042 0.0
C1035 C 0.13264 0.26279 0.87177 0.0
C1036 C 0.12786 0.27503 0.83943 0.0
C1037 C 0.12779 0.29875 0.83961 0.0
C1038 C 0.13909 0.20125 0.84155 0.0
C1039 C 0.13108 0.1895 0.87258 0.0
C1040 C 0.13975 0.22497 0.84132 0.0
C1041 C 0.13216 0.23751 0.87194 0.0
C1042 C 0.12399 0.22567 0.90281 0.0
C1043 C 0.1236 0.202 0.90322 0.0
H1044 H 0.94384 0.89195 0.17847 0.0
H1045 H 0.9442 0.87576 0.06238 0.0
H1046 H 0.98492 0.89266 0.17874 0.0
H1047 H 0.98547 0.87532 0.06303 0.0
H1048 H 0.05991 0.89563 0.06879 0.0
H1049 H 0.01866 0.89746 0.06735 0.0
H1050 H 0.01612 0.86831 0.17647 0.0
H1051 H 0.05721 0.86749 0.17851 0.0
C1052 C 0.95267 0.88846 0.15298 0.0
C1053 C 0.94064 0.88384 0.12039 0.0
C1054 C 0.97632 0.88866 0.1532 0.0
C1055 C 0.98866 0.88385 0.12098 0.0
C1056 C 0.97662 0.87941 0.08827 0.0
C1057 C 0.9529 0.87954 0.08793 0.0
C1058 C 0.05052 0.88967 0.09249 0.0
C1059 C 0.06189 0.88148 0.12381 0.0
C1060 C 0.02682 0.89059 0.09159 0.0
C1061 C 0.01393 0.88308 0.12181 0.0
C1062 C 0.02539 0.87471 0.15296 0.0
C1063 C 0.04904 0.87409 0.15406 0.0
H1064 H 0.35863 0.69333 0.31547 0.0
H1065 H 0.38402 0.69406 0.42714 0.0
H1066 H 0.35753 0.73466 0.31559 0.0
H1067 H 0.38384 0.73521 0.42673 0.0
H1068 H 0.36029 0.80775 0.42999 0.0
H1069 H 0.35944 0.76662 0.42847 0.0
H1070 H 0.38047 0.76764 0.31448 0.0
H1071 H 0.38034 0.80896 0.31557 0.0
C1072 C 0.36414 0.70229 0.33995 0.0
C1073 C 0.37133 0.69034 0.37134 0.0
C1074 C 0.36364 0.72603 0.33995 0.0
C1075 C 0.37054 0.73838 0.3712 0.0
C1076 C 0.37794 0.72635 0.40241 0.0
C1077 C 0.3782 0.70267 0.40257 0.0
C1078 C 0.36463 0.79925 0.4045 0.0
C1079 C 0.37037 0.81173 0.3729 0.0
C1080 C 0.36431 0.77558 0.40371 0.0
C1081 C 0.37006 0.76368 0.37144 0.0
C1082 C 0.37565 0.77617 0.33971 0.0
C1083 C 0.37569 0.7999 0.34038 0.0
H1084 H 0.55839 0.10919 0.56389 0.0
H1085 H 0.5572 0.13129 0.67738 0.0
H1086 H 0.51706 0.10804 0.56339 0.0
H1087 H 0.51613 0.13117 0.67641 0.0
H1088 H 0.44375 0.10809 0.67757 0.0
H1089 H 0.4848 0.10698 0.67615 0.0
H1090 H 0.48397 0.13073 0.56357 0.0
H1091 H 0.44266 0.13078 0.56448 0.0
C1092 C 0.54932 0.11396 0.58865 0.0
C1093 C 0.56115 0.12023 0.62072 0.0
C1094 C 0.5256 0.11344 0.5883 0.0
C1095 C 0.51313 0.11943 0.6199 0.0
C1096 C 0.52505 0.12594 0.65178 0.0
C1097 C 0.5487 0.12616 0.65227 0.0
C1098 C 0.45226 0.11297 0.6524 0.0
C1099 C 0.43983 0.11953 0.62115 0.0
C1100 C 0.4759 0.11251 0.65167 0.0
C1101 C 0.48785 0.11897 0.61986 0.0
C1102 C 0.47541 0.12535 0.58843 0.0
C1103 C 0.45168 0.12551 0.58901 0.0
H1104 H 0.86013 0.19387 0.81184 0.0
H1105 H 0.88281 0.19499 0.925 0.0
H1106 H 0.85878 0.23524 0.81169 0.0
H1107 H 0.88245 0.23609 0.92438 0.0
H1108 H 0.85835 0.30819 0.92688 0.0
H1109 H 0.85772 0.26709 0.92484 0.0
H1110 H 0.88112 0.26869 0.81209 0.0
H1111 H 0.88074 0.31003 0.81366 0.0
C1112 C 0.86501 0.20293 0.83657 0.0
C1113 C 0.87146 0.19107 0.86848 0.0
C1114 C 0.86436 0.22668 0.83644 0.0
C1115 C 0.87037 0.23913 0.86809 0.0
C1116 C 0.87716 0.22718 0.89975 0.0
C1117 C 0.87754 0.20351 0.90002 0.0
C1118 C 0.86325 0.29984 0.90155 0.0
C1119 C 0.86962 0.31249 0.87046 0.0
C1120 C 0.86307 0.27617 0.90045 0.0
C1121 C 0.86959 0.26443 0.86841 0.0
C1122 C 0.87572 0.27709 0.83713 0.0
C1123 C 0.87563 0.30083 0.83808 0.0
H1124 H 0.61805 0.69451 0.42576 0.0
H1125 H 0.64305 0.6923 0.31401 0.0
H1126 H 0.61858 0.73561 0.42418 0.0
H1127 H 0.64464 0.73363 0.31296 0.0
H1128 H 0.62318 0.80837 0.31136 0.0
H1129 H 0.62263 0.76705 0.31101 0.0
H1130 H 0.64308 0.76663 0.42537 0.0
H1131 H 0.64248 0.80773 0.42617 0.0
C1132 C 0.62388 0.7028 0.40092 0.0
C1133 C 0.63052 0.69008 0.37002 0.0
C1134 C 0.62435 0.72646 0.40009 0.0
C1135 C 0.63184 0.73809 0.36855 0.0
C1136 C 0.63848 0.72533 0.33758 0.0
C1137 C 0.63769 0.7016 0.33823 0.0
C1138 C 0.62761 0.79944 0.3364 0.0
C1139 C 0.6328 0.81142 0.36883 0.0
C1140 C 0.62742 0.7757 0.33615 0.0
C1141 C 0.63269 0.76337 0.36822 0.0
C1142 C 0.63841 0.77544 0.40035 0.0
C1143 C 0.63826 0.79911 0.40074 0.0
H1144 H 0.8786 0.6945 0.18791 0.0
H1145 H 0.86057 0.69477 0.07255 0.0
H1146 H 0.87901 0.73578 0.18805 0.0
H1147 H 0.85987 0.73591 0.0731 0.0
H1148 H 0.8847 0.80825 0.07356 0.0
H1149 H 0.88419 0.76715 0.07503 0.0
H1150 H 0.85682 0.76903 0.1854 0.0
H1151 H 0.85835 0.81037 0.18449 0.0
C1152 C 0.87443 0.70334 0.16268 0.0
C1153 C 0.86961 0.69125 0.13019 0.0
C1154 C 0.87453 0.72707 0.16281 0.0
C1155 C 0.86956 0.73932 0.13055 0.0
C1156 C 0.86428 0.72716 0.09829 0.0
C1157 C 0.86449 0.70347 0.09804 0.0
C1158 C 0.87859 0.79994 0.0982 0.0
C1159 C 0.87156 0.81265 0.12892 0.0
C1160 C 0.87812 0.77628 0.09895 0.0
C1161 C 0.87029 0.76462 0.13023 0.0
C1162 C 0.86325 0.77735 0.161 0.0
C1163 C 0.86401 0.80109 0.16043 0.0
H1164 H 0.61723 0.30775 0.5741 0.0
H1165 H 0.6454 0.30856 0.68398 0.0
H1166 H 0.6174 0.26658 0.57461 0.0
H1167 H 0.64658 0.26727 0.68388 0.0
H1168 H 0.63997 0.19373 0.57059 0.0
H1169 H 0.64111 0.23486 0.57141 0.0
H1170 H 0.62373 0.23456 0.68705 0.0
H1171 H 0.62371 0.19327 0.6866 0.0
C1172 C 0.6237 0.29914 0.59826 0.0
C1173 C 0.63127 0.31148 0.62903 0.0
C1174 C 0.62395 0.27546 0.59847 0.0
C1175 C 0.63209 0.26346 0.62923 0.0
C1176 C 0.63984 0.27585 0.65992 0.0
C1177 C 0.6393 0.29957 0.6599 0.0
C1178 C 0.63653 0.20239 0.59628 0.0
C1179 C 0.63181 0.19013 0.62855 0.0
C1180 C 0.637 0.22607 0.59669 0.0
C1181 C 0.63238 0.23817 0.62925 0.0
C1182 C 0.62773 0.22588 0.66158 0.0
C1183 C 0.62758 0.20216 0.66129 0.0
H1184 H 0.05894 0.39157 0.93729 0.0
H1185 H 0.0568 0.37009 0.82351 0.0
H1186 H 0.01764 0.39329 0.93833 0.0
H1187 H 0.01573 0.37082 0.82499 0.0
H1188 H 0.94375 0.39515 0.8251 0.0
H1189 H 0.98483 0.39571 0.8261 0.0
H1190 H 0.98424 0.37094 0.9381 0.0
H1191 H 0.94293 0.37138 0.93761 0.0
C1192 C 0.04967 0.38704 0.91259 0.0
C1193 C 0.06122 0.38078 0.88028 0.0
C1194 C 0.02596 0.3879 0.91324 0.0
C1195 C 0.01324 0.38229 0.8817 0.0
C1196 C 0.02488 0.37577 0.84958 0.0
C1197 C 0.04851 0.37519 0.8488 0.0
C1198 C 0.95232 0.38994 0.85005 0.0
C1199 C 0.93998 0.3832 0.88125 0.0
C1200 C 0.97597 0.39009 0.85054 0.0
C1201 C 0.98798 0.38315 0.88206 0.0
C1202 C 0.97563 0.37666 0.91347 0.0
C1203 C 0.9519 0.3768 0.91314 0.0
H1204 H 0.55806 0.62712 0.4358 0.0
H1205 H 0.55812 0.60903 0.32043 0.0
H1206 H 0.51684 0.6268 0.4358 0.0
H1207 H 0.517 0.6076 0.32085 0.0
H1208 H 0.44412 0.63192 0.32211 0.0
H1209 H 0.48524 0.63137 0.32283 0.0
H1210 H 0.48422 0.60383 0.43312 0.0
H1211 H 0.44297 0.60538 0.43298 0.0
C1212 C 0.54931 0.62277 0.41054 0.0
C1213 C 0.56146 0.61814 0.37809 0.0
C1214 C 0.52561 0.62245 0.41058 0.0
C1215 C 0.51346 0.61722 0.3783 0.0
C1216 C 0.52568 0.61216 0.34606 0.0
C1217 C 0.54935 0.61279 0.34589 0.0
C1218 C 0.45264 0.62571 0.34653 0.0
C1219 C 0.44021 0.61874 0.37752 0.0
C1220 C 0.4763 0.62524 0.34686 0.0
C1221 C 0.48819 0.61749 0.378 0.0
C1222 C 0.47572 0.61027 0.40887 0.0
C1223 C 0.45202 0.61102 0.40871 0.0
H1224 H 0.55738 0.36844 0.67906 0.0
H1225 H 0.5584 0.39617 0.56897 0.0
H1226 H 0.51624 0.36895 0.67842 0.0
H1227 H 0.51716 0.39768 0.56894 0.0
H1228 H 0.44325 0.37481 0.56579 0.0
H1229 H 0.48447 0.37485 0.56571 0.0
H1230 H 0.48454 0.3928 0.68119 0.0
H1231 H 0.44341 0.39165 0.68165 0.0
C1232 C 0.54883 0.37489 0.65483 0.0
C1233 C 0.56122 0.38222 0.62403 0.0
C1234 C 0.52516 0.37533 0.65455 0.0
C1235 C 0.51324 0.38343 0.62367 0.0
C1236 C 0.52568 0.39097 0.59298 0.0
C1237 C 0.54938 0.39024 0.59307 0.0
C1238 C 0.45206 0.37883 0.59116 0.0
C1239 C 0.43996 0.3832 0.62375 0.0
C1240 C 0.47576 0.37899 0.59107 0.0
C1241 C 0.48797 0.38379 0.62346 0.0
C1242 C 0.4758 0.38857 0.65587 0.0
C1243 C 0.45213 0.38811 0.65607 0.0
H1244 H 0.05783 0.60709 0.17719 0.0
H1245 H 0.05843 0.62995 0.06419 0.0
H1246 H 0.01676 0.60643 0.17638 0.0
H1247 H 0.01712 0.63034 0.06388 0.0
H1248 H 0.94245 0.60982 0.06534 0.0
H1249 H 0.98374 0.60806 0.0642 0.0
H1250 H 0.9858 0.63119 0.17719 0.0
H1251 H 0.94474 0.63194 0.17879 0.0
C1252 C 0.04921 0.61208 0.15217 0.0
C1253 C 0.06149 0.61859 0.12077 0.0
C1254 C 0.02556 0.61189 0.15178 0.0
C1255 C 0.01348 0.61856 0.12018 0.0
C1256 C 0.02578 0.62482 0.08858 0.0
C1257 C 0.04951 0.62472 0.08881 0.0
C1258 C 0.95175 0.61448 0.08995 0.0
C1259 C 0.94025 0.62094 0.1222 0.0
C1260 C 0.97546 0.6136 0.08924 0.0
C1261 C 0.98822 0.6194 0.12064 0.0
C1262 C 0.97663 0.62609 0.15271 0.0
C1263 C 0.95299 0.62669 0.15356 0.0
H1264 H 0.13086 0.53157 0.09738 0.0
H1265 H 0.11303 0.56841 0.99904 0.0
H1266 H 0.1318 0.49638 0.06237 0.0
H1267 H 0.11192 0.53316 0.96433 0.0
H1268 H 0.11299 0.43311 1.0002 0.0
H1269 H 0.11194 0.46841 0.03469 0.0
H1270 H 0.13147 0.50503 0.93636 0.0
H1271 H 0.13046 0.46974 0.90153 0.0
C1272 C 0.12677 0.532 0.06829 0.0
C1273 C 0.12193 0.55263 0.05085 0.0
C1274 C 0.1271 0.51178 0.04812 0.0
C1275 C 0.12184 0.5116 0.01019 0.0
C1276 C 0.11663 0.53241 0.99309 0.0
C1277 C 0.11703 0.55269 0.01305 0.0
C1278 C 0.11692 0.4488 0.98606 0.0
C1279 C 0.12173 0.44878 0.94825 0.0
C1280 C 0.11657 0.46911 0.0059 0.0
C1281 C 0.12175 0.48989 0.98869 0.0
C1282 C 0.12684 0.48965 0.95071 0.0
C1283 C 0.12647 0.46938 0.93064 0.0
H1284 H 0.68409 0.88491 0.2476 0.0
H1285 H 0.71974 0.85959 0.34311 0.0
H1286 H 0.7195 0.88541 0.21309 0.0
H1287 H 0.75513 0.85988 0.30834 0.0
H1288 H 0.8172 0.88731 0.24679 0.0
H1289 H 0.78171 0.88734 0.28099 0.0
H1290 H 0.74727 0.85851 0.18697 0.0
H1291 H 0.78278 0.85868 0.15245 0.0
C1292 C 0.69947 0.87943 0.26126 0.0
C1293 C 0.69907 0.87219 0.29815 0.0
C1294 C 0.71974 0.87959 0.24136 0.0
C1295 C 0.74012 0.87265 0.25793 0.0
C1296 C 0.73975 0.86554 0.29489 0.0
C1297 C 0.71945 0.86526 0.31476 0.0
C1298 C 0.80207 0.88101 0.23331 0.0
C1299 C 0.80285 0.87295 0.19685 0.0
C1300 C 0.78175 0.8809 0.25304 0.0
C1301 C 0.76169 0.87286 0.23676 0.0
C1302 C 0.7624 0.865 0.20019 0.0
C1303 C 0.78278 0.86499 0.18047 0.0
H1304 H 0.36859 0.46982 0.59871 0.0
H1305 H 0.38677 0.43313 0.50029 0.0
H1306 H 0.36693 0.50494 0.56367 0.0
H1307 H 0.38715 0.46832 0.46556 0.0
H1308 H 0.3686 0.53132 0.40252 0.0
H1309 H 0.36733 0.49618 0.43757 0.0
H1310 H 0.3863 0.53319 0.536 0.0
H1311 H 0.38553 0.56835 0.50124 0.0
C1312 C 0.37257 0.46941 0.56959 0.0
C1313 C 0.37775 0.44883 0.55215 0.0
C1314 C 0.37183 0.4896 0.5494 0.0
C1315 C 0.37698 0.48981 0.51145 0.0
C1316 C 0.38248 0.46904 0.49434 0.0
C1317 C 0.38251 0.44879 0.51432 0.0
C1318 C 0.37235 0.53181 0.43172 0.0
C1319 C 0.37708 0.55248 0.44923 0.0
C1320 C 0.37185 0.51162 0.45192 0.0
C1321 C 0.37681 0.5115 0.48995 0.0
C1322 C 0.38181 0.53237 0.50715 0.0
C1323 C 0.38159 0.55261 0.48716 0.0
H1324 H 0.71879 0.14289 0.65331 0.0
H1325 H 0.6842 0.11707 0.7494 0.0
H1326 H 0.75441 0.14322 0.68754 0.0
H1327 H 0.71984 0.11717 0.78337 0.0
H1328 H 0.78287 0.14492 0.84326 0.0
H1329 H 0.74721 0.14453 0.80907 0.0
H1330 H 0.78173 0.11643 0.71462 0.0
H1331 H 0.81737 0.11704 0.7485 0.0
C1332 C 0.71878 0.13722 0.68167 0.0
C1333 C 0.69863 0.12999 0.69861 0.0
C1334 C 0.73922 0.1373 0.70123 0.0
C1335 C 0.73995 0.13025 0.73821 0.0
C1336 C 0.7198 0.12297 0.75508 0.0
C1337 C 0.6994 0.12277 0.7355 0.0
C1338 C 0.78285 0.13867 0.81519 0.0
C1339 C 0.80299 0.13106 0.79862 0.0
C1340 C 0.7624 0.13833 0.79567 0.0
C1341 C 0.76164 0.13048 0.75909 0.0
C1342 C 0.78178 0.12284 0.74258 0.0
C1343 C 0.80219 0.12307 0.76213 0.0
H1344 H 0.87086 0.47042 0.90461 0.0
H1345 H 0.88858 0.43352 0.00294 0.0
H1346 H 0.86979 0.50558 0.9397 0.0
H1347 H 0.88955 0.46874 0.03775 0.0
H1348 H 0.8882 0.56888 0.00216 0.0
H1349 H 0.88939 0.53363 0.96756 0.0
H1350 H 0.86997 0.49682 0.06576 0.0
H1351 H 0.87083 0.53208 0.1007 0.0
C1352 C 0.87491 0.46997 0.93372 0.0
C1353 C 0.87976 0.44932 0.95112 0.0
C1354 C 0.8745 0.49018 0.95395 0.0
C1355 C 0.87967 0.49034 0.9919 0.0
C1356 C 0.8849 0.46951 0.00897 0.0
C1357 C 0.88459 0.44925 0.98894 0.0
C1358 C 0.88431 0.55317 0.01625 0.0
C1359 C 0.87949 0.55314 0.05406 0.0
C1360 C 0.88475 0.53287 0.99634 0.0
C1361 C 0.87965 0.51204 0.01348 0.0
C1362 C 0.87454 0.51223 0.05145 0.0
C1363 C 0.87482 0.53249 0.07159 0.0
H1364 H 0.21944 0.14235 0.8469 0.0
H1365 H 0.18463 0.11454 0.7523 0.0
H1366 H 0.25481 0.14272 0.81213 0.0
H1367 H 0.22004 0.11469 0.71778 0.0
H1368 H 0.28226 0.14267 0.65601 0.0
H1369 H 0.24681 0.14215 0.6907 0.0
H1370 H 0.28237 0.11601 0.78559 0.0
H1371 H 0.31778 0.11676 0.75123 0.0
C1372 C 0.21934 0.13624 0.81876 0.0
C1373 C 0.19919 0.12845 0.8024 0.0
C1374 C 0.23964 0.13635 0.79889 0.0
C1375 C 0.24023 0.12878 0.76215 0.0
C1376 C 0.2201 0.1209 0.74586 0.0
C1377 C 0.19983 0.12067 0.76577 0.0
C1378 C 0.28252 0.13683 0.68428 0.0
C1379 C 0.30288 0.12981 0.70084 0.0
C1380 C 0.26218 0.13641 0.70408 0.0
C1381 C 0.26178 0.12907 0.74093 0.0
C1382 C 0.28214 0.12203 0.75742 0.0
C1383 C 0.30243 0.12233 0.7376 0.0
H1384 H 0.63243 0.53197 0.40367 0.0
H1385 H 0.61426 0.56896 0.50182 0.0
H1386 H 0.63375 0.4969 0.43887 0.0
H1387 H 0.61356 0.53383 0.5367 0.0
H1388 H 0.63201 0.47071 0.59987 0.0
H1389 H 0.6333 0.50586 0.56482 0.0
H1390 H 0.61387 0.46895 0.46652 0.0
H1391 H 0.61461 0.43379 0.50124 0.0
C1392 C 0.62838 0.53246 0.43276 0.0
C1393 C 0.62329 0.55309 0.45009 0.0
C1394 C 0.62892 0.51231 0.45304 0.0
C1395 C 0.62367 0.51221 0.49095 0.0
C1396 C 0.61828 0.53303 0.50795 0.0
C1397 C 0.61844 0.55324 0.48789 0.0
C1398 C 0.62813 0.47025 0.57071 0.0
C1399 C 0.6233 0.44961 0.55319 0.0
C1400 C 0.62866 0.49044 0.55052 0.0
C1401 C 0.62364 0.49056 0.51251 0.0
C1402 C 0.61844 0.46974 0.49534 0.0
C1403 C 0.61863 0.44951 0.51532 0.0
H1404 H 0.3183 0.86219 0.25379 0.0
H1405 H 0.28261 0.88172 0.3524 0.0
H1406 H 0.28282 0.8614 0.21985 0.0
H1407 H 0.24718 0.883 0.31808 0.0
H1408 H 0.18313 0.86483 0.25671 0.0
H1409 H 0.21846 0.86379 0.29112 0.0
H1410 H 0.25516 0.88144 0.19193 0.0
H1411 H 0.21986 0.88042 0.15731 0.0
C1412 C 0.30278 0.86661 0.26803 0.0
C1413 C 0.30311 0.87192 0.30567 0.0
C1414 C 0.28237 0.86642 0.2485 0.0
C1415 C 0.26181 0.87229 0.26584 0.0
C1416 C 0.26237 0.87785 0.30365 0.0
C1417 C 0.28273 0.87732 0.32343 0.0
C1418 C 0.19884 0.86841 0.2424 0.0
C1419 C 0.19885 0.87261 0.2044 0.0
C1420 C 0.21918 0.86803 0.26218 0.0
C1421 C 0.24 0.87256 0.24464 0.0
C1422 C 0.23975 0.87724 0.20654 0.0
C1423 C 0.21947 0.87689 0.18659 0.0
H1424 H 0.63152 0.03143 0.59757 0.0
H1425 H 0.61313 0.06809 0.49934 0.0
H1426 H 0.63291 0.99626 0.56246 0.0
H1427 H 0.61244 0.03288 0.46457 0.0
H1428 H 0.63152 0.97003 0.40121 0.0
H1429 H 0.63233 0.00517 0.43641 0.0
H1430 H 0.61366 0.96794 0.53459 0.0
H1431 H 0.61493 0.93279 0.49967 0.0
C1432 C 0.62741 0.03182 0.56849 0.0
C1433 C 0.6223 0.05239 0.55109 0.0
C1434 C 0.628 0.01161 0.54826 0.0
C1435 C 0.62274 0.0114 0.51033 0.0
C1436 C 0.6172 0.03215 0.49331 0.0
C1437 C 0.61735 0.05241 0.51331 0.0
C1438 C 0.62769 0.9695 0.43037 0.0
C1439 C 0.62323 0.94878 0.44779 0.0
C1440 C 0.62794 0.98969 0.45066 0.0
C1441 C 0.62298 0.98973 0.48868 0.0
C1442 C 0.61816 0.96882 0.50575 0.0
C1443 C 0.61864 0.94859 0.48567 0.0
H1444 H 0.31778 0.36328 0.75137 0.0
H1445 H 0.28124 0.38036 0.65235 0.0
H1446 H 0.28248 0.36224 0.78566 0.0
H1447 H 0.24594 0.38139 0.68696 0.0
H1448 H 0.1826 0.36283 0.74938 0.0
H1449 H 0.21785 0.36183 0.71487 0.0
H1450 H 0.25443 0.38209 0.81304 0.0
H1451 H 0.21924 0.38102 0.84786 0.0
C1452 C 0.30211 0.36713 0.73711 0.0
C1453 C 0.30216 0.37182 0.69926 0.0
C1454 C 0.28179 0.36678 0.75683 0.0
C1455 C 0.26103 0.37187 0.73945 0.0
C1456 C 0.2613 0.37684 0.70144 0.0
C1457 C 0.28158 0.37645 0.68149 0.0
C1458 C 0.19828 0.36695 0.76347 0.0
C1459 C 0.19828 0.3719 0.80125 0.0
C1460 C 0.21856 0.36661 0.74362 0.0
C1461 C 0.23932 0.37195 0.76082 0.0
C1462 C 0.23908 0.37729 0.79872 0.0
C1463 C 0.21886 0.3769 0.81878 0.0
H1464 H 0.89152 0.03325 0.9026 0.0
H1465 H 0.86433 0.06825 0.99743 0.0
H1466 H 0.89125 0.99772 0.937 0.0
H1467 H 0.86379 0.03268 0.03156 0.0
H1468 H 0.89165 0.97027 0.09297 0.0
H1469 H 0.8909 0.00575 0.05846 0.0
H1470 H 0.86462 0.97019 0.96354 0.0
H1471 H 0.86563 0.93467 0.99778 0.0
C1472 C 0.8854 0.03336 0.93071 0.0
C1473 C 0.87802 0.05362 0.94728 0.0
C1474 C 0.88512 0.01297 0.95035 0.0
C1475 C 0.87755 0.01238 0.98706 0.0
C1476 C 0.87 0.03261 0.0035 0.0
C1477 C 0.87018 0.05297 0.98383 0.0
C1478 C 0.8857 0.97001 0.06475 0.0
C1479 C 0.87877 0.94961 0.04812 0.0
C1480 C 0.88514 0.99038 0.04504 0.0
C1481 C 0.87773 0.99079 0.00822 0.0
C1482 C 0.87068 0.97041 0.99169 0.0
C1483 C 0.87114 0.95007 0.01143 0.0
H1484 H 0.21881 0.64331 0.15481 0.0
H1485 H 0.18391 0.6169 0.25017 0.0
H1486 H 0.25431 0.64351 0.18946 0.0
H1487 H 0.21937 0.61688 0.2845 0.0
H1488 H 0.28219 0.6439 0.34554 0.0
H1489 H 0.2467 0.64403 0.31091 0.0
H1490 H 0.28141 0.61631 0.21637 0.0
H1491 H 0.3169 0.61639 0.2507 0.0
C1492 C 0.2187 0.63752 0.1831 0.0
C1493 C 0.19851 0.63013 0.1997 0.0
C1494 C 0.23906 0.63752 0.20289 0.0
C1495 C 0.23965 0.63024 0.23976 0.0
C1496 C 0.21944 0.62286 0.25632 0.0
C1497 C 0.19913 0.62274 0.23651 0.0
C1498 C 0.28225 0.63783 0.31737 0.0
C1499 C 0.3024 0.63016 0.3009 0.0
C1500 C 0.26189 0.6378 0.29759 0.0
C1501 C 0.26125 0.63022 0.26086 0.0
C1502 C 0.28139 0.62252 0.24445 0.0
C1503 C 0.30171 0.62243 0.26426 0.0
H1504 H 0.38812 0.06906 0.49995 0.0
H1505 H 0.37192 0.03224 0.599 0.0
H1506 H 0.38971 0.0337 0.46558 0.0
H1507 H 0.37146 0.99689 0.56438 0.0
H1508 H 0.39083 0.93374 0.50237 0.0
H1509 H 0.39163 0.9692 0.53652 0.0
H1510 H 0.37042 0.0051 0.43835 0.0
H1511 H 0.37166 0.96971 0.40384 0.0
C1512 C 0.38458 0.05332 0.5142 0.0
C1513 C 0.37999 0.0533 0.55208 0.0
C1514 C 0.38525 0.03297 0.49444 0.0
C1515 C 0.38063 0.01211 0.51186 0.0
C1516 C 0.3757 0.01233 0.54988 0.0
C1517 C 0.37574 0.03264 0.56983 0.0
C1518 C 0.3865 0.94931 0.48819 0.0
C1519 C 0.38128 0.94907 0.45051 0.0
C1520 C 0.3867 0.96971 0.50783 0.0
C1521 C 0.38096 0.99033 0.49056 0.0
C1522 C 0.37549 0.98986 0.45272 0.0
C1523 C 0.376 0.96952 0.43284 0.0
H1524 H 0.7823 0.62126 0.15444 0.0
H1525 H 0.81882 0.63961 0.25295 0.0
H1526 H 0.74708 0.62014 0.18919 0.0
H1527 H 0.78354 0.64056 0.28739 0.0
H1528 H 0.72021 0.62171 0.34984 0.0
H1529 H 0.75554 0.6209 0.31528 0.0
H1530 H 0.71893 0.63984 0.21653 0.0
H1531 H 0.68362 0.63858 0.25077 0.0
C1532 C 0.78265 0.62541 0.18351 0.0
C1533 C 0.8032 0.63046 0.20108 0.0
C1534 C 0.76241 0.625 0.20353 0.0
C1535 C 0.76213 0.63035 0.24142 0.0
C1536 C 0.78287 0.63576 0.25865 0.0
C1537 C 0.80317 0.63545 0.23884 0.0
C1538 C 0.71986 0.62562 0.32069 0.0
C1539 C 0.69926 0.63012 0.30289 0.0
C1540 C 0.74015 0.62536 0.30078 0.0
C1541 C 0.74041 0.63034 0.26277 0.0
C1542 C 0.71963 0.6353 0.24536 0.0
C1543 C 0.69931 0.63483 0.26505 0.0
H1544 H 0.13819 0.93388 0.00524 0.0
H1545 H 0.11043 0.96945 0.09907 0.0
H1546 H 0.13874 0.96917 0.97042 0.0
H1547 H 0.11077 0.00474 0.06395 0.0
H1548 H 0.13685 0.0673 0.00203 0.0
H1549 H 0.13771 0.03206 0.03702 0.0
H1550 H 0.11145 0.99582 0.94277 0.0
H1551 H 0.1108 0.03104 0.90752 0.0
C1552 C 0.13222 0.94922 0.01849 0.0
C1553 C 0.12422 0.94882 0.05496 0.0
C1554 C 0.13241 0.96943 0.99841 0.0
C1555 C 0.12472 0.98974 0.01435 0.0
C1556 C 0.11699 0.98941 0.05098 0.0
C1557 C 0.11669 0.96916 0.07104 0.0
C1558 C 0.13132 0.05181 0.98867 0.0
C1559 C 0.12372 0.052 0.95195 0.0
C1560 C 0.13169 0.03164 0.00885 0.0
C1561 C 0.12459 0.01115 0.99274 0.0
C1562 C 0.11723 0.01129 0.95588 0.0
C1563 C 0.11674 0.0315 0.93574 0.0
H1564 H 0.68348 0.36419 0.75188 0.0
H1565 H 0.72026 0.38181 0.65342 0.0
H1566 H 0.71869 0.36315 0.78653 0.0
H1567 H 0.75545 0.38283 0.68842 0.0
H1568 H 0.81865 0.36396 0.7509 0.0
H1569 H 0.78342 0.36301 0.71623 0.0
H1570 H 0.74673 0.3828 0.81443 0.0
H1571 H 0.78191 0.38169 0.8494 0.0
C1572 C 0.69918 0.36819 0.73783 0.0
C1573 C 0.69923 0.37301 0.70002 0.0
C1574 C 0.71944 0.36783 0.75776 0.0
C1575 C 0.74024 0.37301 0.74064 0.0
C1576 C 0.74006 0.37818 0.70269 0.0
C1577 C 0.71984 0.37782 0.68254 0.0
C1578 C 0.80295 0.36796 0.76497 0.0
C1579 C 0.80291 0.37279 0.80279 0.0
C1580 C 0.78269 0.36767 0.74502 0.0
C1581 C 0.76191 0.37294 0.76217 0.0
C1582 C 0.7621 0.37808 0.80014 0.0
C1583 C 0.78232 0.37765 0.82029 0.0
loop_
_geom_bond_atom_site_label_1
_geom_bond_atom_site_label_2
_geom_bond_distance
_geom_bond_site_symmetry_2
_ccdc_geom_bond_type
Co0 O2 2.143 . S
Co0 O8 2.074 . S
Co0 O11 2.093 . S
Co0 O24 2.097 . S
Co0 N41 2.151 . S
Co0 N49 2.214 . S
Co1 O2 2.160 . S
Co1 O7 2.058 . S
Co1 O17 2.057 . S
Co1 O32 2.037 . S
Co1 N36 2.145 . S
Co1 N57 2.257 . S
O2 Co0 2.143 . S
O2 Co1 2.160 . S
C3 O4 1.278 . S
C3 O11 1.224 . S
O4 C3 1.278 . S
C5 O6 1.245 . S
C5 O17 1.232 . S
O6 C5 1.245 . S
O7 Co1 2.058 . S
O7 C33 1.269 . S
O8 Co0 2.074 . S
O8 C33 1.257 . S
H9 C34 0.930 . S
H10 C40 0.930 . S
O11 Co0 2.093 . S
O11 C3 1.224 . S
H12 C44 0.916 1_556 S
H13 C46 0.930 . S
H14 C47 0.930 . S
H15 C45 0.929 . S
H16 C48 0.928 . S
O17 Co1 2.057 . S
O17 C5 1.232 . S
H18 C37 0.929 . S
H19 C38 0.929 . S
H20 C50 0.931 . S
H21 C42 0.929 . S
H22 C51 0.930 . S
H23 C43 0.931 . S
O24 Co0 2.097 . S
O24 C52 1.214 . S
H25 C53 0.929 . S
H26 C54 0.929 . S
H27 C55 0.930 . S
H28 C56 0.929 . S
H29 C58 0.930 . S
H30 C35 0.930 . S
H31 C39 0.930 . S
O32 Co1 2.037 . S
O32 C52 1.234 . S
C33 O7 1.269 . S
C33 O8 1.257 . S
C34 H9 0.930 . S
C34 C37 1.388 . S
C34 C39 1.418 . S
C35 H30 0.930 . S
C35 C38 1.404 . S
C35 C39 1.353 . S
N36 Co1 2.145 . S
N36 C37 1.397 . S
N36 C38 1.334 . S
C37 H18 0.929 . S
C37 C34 1.388 . S
C37 N36 1.397 . S
C38 H19 0.929 . S
C38 C35 1.404 . S
C38 N36 1.334 . S
C39 H31 0.930 . S
C39 C34 1.418 . S
C39 C35 1.353 . S
C40 H10 0.930 . S
C40 N41 1.330 . S
C40 C42 1.446 . S
N41 Co0 2.151 . S
N41 C40 1.330 . S
N41 C45 1.418 . S
C42 H21 0.929 . S
C42 C40 1.446 . S
C42 C43 1.332 1_554 S
C43 H23 0.931 . S
C43 C42 1.332 1_556 S
C43 C44 1.263 1_556 S
C44 H12 0.916 1_554 S
C44 C43 1.263 1_554 S
C44 C45 1.268 . S
C45 H15 0.929 . S
C45 N41 1.418 . S
C45 C44 1.268 . S
C46 H13 0.930 . S
C46 C48 1.406 . S
C46 C51 1.261 . S
C47 H14 0.930 . S
C47 N49 1.325 . S
C47 C50 1.357 . S
C48 H16 0.928 . S
C48 C46 1.406 . S
C48 N49 1.261 1_556 S
N49 Co0 2.214 . S
N49 C47 1.325 . S
N49 C48 1.261 1_554 S
C50 H20 0.931 . S
C50 C47 1.357 . S
C50 C51 1.312 1_554 S
C51 H22 0.930 . S
C51 C46 1.261 . S
C51 C50 1.312 1_556 S
C52 O24 1.214 . S
C52 O32 1.234 . S
C53 H25 0.929 . S
C53 C56 1.391 . S
C53 C58 1.391 . S
C54 H26 0.929 . S
C54 C55 1.390 . S
C54 N57 1.391 . S
C55 H27 0.930 . S
C55 C54 1.390 . S
C55 C56 1.392 . S
C56 H28 0.929 . S
C56 C53 1.391 . S
C56 C55 1.392 . S
N57 Co1 2.257 . S
N57 C54 1.391 . S
N57 C58 1.388 . S
C58 H29 0.930 . S
C58 C53 1.391 . S
C58 N57 1.388 . S
Co59 O61 2.143 . S
Co59 O67 2.074 . S
Co59 O70 2.093 . S
Co59 O83 2.097 . S
Co59 N100 2.151 . S
Co59 N108 2.214 . S
Co60 O61 2.160 . S
Co60 O66 2.058 . S
Co60 O76 2.057 . S
Co60 O91 2.037 . S
Co60 N95 2.145 . S
Co60 N116 2.257 . S
O61 Co59 2.143 . S
O61 Co60 2.160 . S
C62 O63 1.278 . S
C62 O70 1.224 . S
O63 C62 1.278 . S
C64 O65 1.245 . S
C64 O76 1.232 . S
O65 C64 1.245 . S
O66 Co60 2.058 . S
O66 C92 1.269 . S
O67 Co59 2.074 . S
O67 C92 1.257 . S
H68 C93 0.930 . S
H69 C99 0.930 . S
O70 Co59 2.093 . S
O70 C62 1.224 . S
H71 C103 0.929 . S
H72 C105 0.930 . S
H73 C106 0.930 . S
H74 C104 0.929 . S
H75 C107 0.928 . S
O76 Co60 2.057 . S
O76 C64 1.232 . S
H77 C96 0.929 . S
H78 C97 0.929 . S
H79 C109 0.931 . S
H80 C101 0.929 . S
H81 C110 0.930 . S
H82 C102 0.931 . S
O83 Co59 2.097 . S
O83 C111 1.214 . S
H84 C112 0.929 . S
H85 C113 0.929 . S
H86 C114 0.930 . S
H87 C115 0.929 . S
H88 C117 0.930 . S
H89 C94 0.930 . S
H90 C98 0.930 . S
O91 Co60 2.037 . S
O91 C111 1.234 . S
C92 O66 1.269 . S
C92 O67 1.257 . S
C93 H68 0.930 . S
C93 C96 1.388 . S
C93 C98 1.418 . S
C94 H89 0.930 . S
C94 C97 1.404 . S
C94 C98 1.353 . S
N95 Co60 2.145 . S
N95 C96 1.397 . S
N95 C97 1.334 . S
C96 H77 0.929 . S
C96 C93 1.388 . S
C96 N95 1.397 . S
C97 H78 0.929 . S
C97 C94 1.404 . S
C97 N95 1.334 . S
C98 H90 0.930 . S
C98 C93 1.418 . S
C98 C94 1.353 . S
C99 H69 0.930 . S
C99 N100 1.330 . S
C99 C101 1.446 . S
N100 Co59 2.151 . S
N100 C99 1.330 . S
N100 C104 1.418 . S
C101 H80 0.929 . S
C101 C99 1.446 . S
C101 C102 1.332 . S
C102 H82 0.931 . S
C102 C101 1.332 . S
C102 C103 1.267 . S
C103 H71 0.929 . S
C103 C102 1.267 . S
C103 C104 1.251 . S
C104 H74 0.929 . S
C104 N100 1.418 . S
C104 C103 1.251 . S
C105 H72 0.930 . S
C105 C107 1.406 . S
C105 C110 1.261 . S
C106 H73 0.930 . S
C106 N108 1.325 . S
C106 C109 1.357 . S
C107 H75 0.928 . S
C107 C105 1.406 . S
C107 N108 1.261 . S
N108 Co59 2.214 . S
N108 C106 1.325 . S
N108 C107 1.261 . S
C109 H79 0.931 . S
C109 C106 1.357 . S
C109 C110 1.312 . S
C110 H81 0.930 . S
C110 C105 1.261 . S
C110 C109 1.312 . S
C111 O83 1.214 . S
C111 O91 1.234 . S
C112 H84 0.929 . S
C112 C115 1.391 . S
C112 C117 1.391 . S
C113 H85 0.929 . S
C113 C114 1.390 . S
C113 N116 1.391 . S
C114 H86 0.930 . S
C114 C113 1.390 . S
C114 C115 1.392 . S
C115 H87 0.929 . S
C115 C112 1.391 . S
C115 C114 1.392 . S
N116 Co60 2.257 . S
N116 C113 1.391 . S
N116 C117 1.388 . S
C117 H88 0.930 . S
C117 C112 1.391 . S
C117 N116 1.388 . S
Co118 O120 2.143 . S
Co118 O126 2.074 . S
Co118 O129 2.093 . S
Co118 O142 2.097 . S
Co118 N159 2.151 . S
Co118 N167 2.214 . S
Co119 O120 2.160 . S
Co119 O125 2.058 . S
Co119 O135 2.057 . S
Co119 O150 2.037 . S
Co119 N154 2.145 . S
Co119 N175 2.257 . S
O120 Co118 2.143 . S
O120 Co119 2.160 . S
C121 O122 1.278 . S
C121 O129 1.224 . S
O122 C121 1.278 . S
C123 O124 1.245 . S
C123 O135 1.232 . S
O124 C123 1.245 . S
O125 Co119 2.058 . S
O125 C151 1.269 . S
O126 Co118 2.074 . S
O126 C151 1.257 . S
H127 C152 0.930 . S
H128 C158 0.930 . S
O129 Co118 2.093 . S
O129 C121 1.224 . S
H130 C162 0.929 . S
H131 C164 0.930 . S
H132 C165 0.930 . S
H133 C163 0.929 . S
H134 C166 0.928 . S
O135 Co119 2.057 . S
O135 C123 1.232 . S
H136 C155 0.929 . S
H137 C156 0.929 . S
H138 C168 0.931 . S
H139 C160 0.929 . S
H140 C169 0.930 . S
H141 C161 0.931 . S
O142 Co118 2.097 . S
O142 C170 1.214 . S
H143 C171 0.929 . S
H144 C172 0.929 . S
H145 C173 0.930 . S
H146 C174 0.929 . S
H147 C176 0.930 . S
H148 C153 0.930 . S
H149 C157 0.930 . S
O150 Co119 2.037 . S
O150 C170 1.234 . S
C151 O125 1.269 . S
C151 O126 1.257 . S
C152 H127 0.930 . S
C152 C155 1.388 . S
C152 C157 1.418 . S
C153 H148 0.930 . S
C153 C156 1.404 . S
C153 C157 1.353 . S
N154 Co119 2.145 . S
N154 C155 1.397 . S
N154 C156 1.334 . S
C155 H136 0.929 . S
C155 C152 1.388 . S
C155 N154 1.397 . S
C156 H137 0.929 . S
C156 C153 1.404 . S
C156 N154 1.334 . S
C157 H149 0.930 . S
C157 C152 1.418 . S
C157 C153 1.353 . S
C158 H128 0.930 . S
C158 N159 1.330 . S
C158 C160 1.446 . S
N159 Co118 2.151 . S
N159 C158 1.330 . S
N159 C163 1.418 . S
C160 H139 0.929 . S
C160 C158 1.446 . S
C160 C161 1.332 . S
C161 H141 0.931 . S
C161 C160 1.332 . S
C161 C162 1.267 . S
C162 H130 0.929 . S
C162 C161 1.267 . S
C162 C163 1.251 . S
C163 H133 0.929 . S
C163 N159 1.418 . S
C163 C162 1.251 . S
C164 H131 0.930 . S
C164 C166 1.406 . S
C164 C169 1.261 . S
C165 H132 0.930 . S
C165 N167 1.325 . S
C165 C168 1.357 . S
C166 H134 0.928 . S
C166 C164 1.406 . S
C166 N167 1.261 . S
N167 Co118 2.214 . S
N167 C165 1.325 . S
N167 C166 1.261 . S
C168 H138 0.931 . S
C168 C165 1.357 . S
C168 C169 1.312 . S
C169 H140 0.930 . S
C169 C164 1.261 . S
C169 C168 1.312 . S
C170 O142 1.214 . S
C170 O150 1.234 . S
C171 H143 0.929 . S
C171 C174 1.391 . S
C171 C176 1.391 . S
C172 H144 0.929 . S
C172 C173 1.390 . S
C172 N175 1.391 . S
C173 H145 0.930 . S
C173 C172 1.390 . S
C173 C174 1.392 . S
C174 H146 0.929 . S
C174 C171 1.391 . S
C174 C173 1.392 . S
N175 Co119 2.257 . S
N175 C172 1.391 . S
N175 C176 1.388 . S
C176 H147 0.930 . S
C176 C171 1.391 . S
C176 N175 1.388 . S
Co177 O179 2.143 . S
Co177 O185 2.074 . S
Co177 O188 2.093 . S
Co177 O201 2.097 . S
Co177 N218 2.151 . S
Co177 N226 2.214 . S
Co178 O179 2.160 . S
Co178 O184 2.058 . S
Co178 O194 2.057 . S
Co178 O209 2.037 . S
Co178 N213 2.145 . S
Co178 N234 2.257 . S
O179 Co177 2.143 . S
O179 Co178 2.160 . S
C180 O181 1.278 . S
C180 O188 1.224 . S
O181 C180 1.278 . S
C182 O183 1.245 . S
C182 O194 1.232 . S
O183 C182 1.245 . S
O184 Co178 2.058 . S
O184 C210 1.269 . S
O185 Co177 2.074 . S
O185 C210 1.257 . S
H186 C211 0.930 . S
H187 C217 0.930 . S
O188 Co177 2.093 . S
O188 C180 1.224 . S
H189 C221 0.929 . S
H190 C223 0.930 . S
H191 C224 0.930 . S
H192 C222 0.929 . S
H193 C225 0.928 . S
O194 Co178 2.057 . S
O194 C182 1.232 . S
H195 C214 0.929 . S
H196 C215 0.929 . S
H197 C227 0.931 . S
H198 C219 0.929 . S
H199 C228 0.930 . S
H200 C220 0.931 . S
O201 Co177 2.097 . S
O201 C229 1.214 . S
H202 C230 0.929 . S
H203 C231 0.929 . S
H204 C232 0.930 . S
H205 C233 0.929 . S
H206 C235 0.930 . S
H207 C212 0.930 . S
H208 C216 0.930 . S
O209 Co178 2.037 . S
O209 C229 1.234 . S
C210 O184 1.269 . S
C210 O185 1.257 . S
C211 H186 0.930 . S
C211 C214 1.388 1_554 S
C211 C216 1.418 . S
C212 H207 0.930 . S
C212 C215 1.404 . S
C212 C216 1.353 . S
N213 Co178 2.145 . S
N213 C214 1.397 . S
N213 C215 1.334 1_556 S
C214 H195 0.929 . S
C214 C211 1.388 1_556 S
C214 N213 1.397 . S
C215 H196 0.929 . S
C215 C212 1.404 . S
C215 N213 1.334 1_554 S
C216 H208 0.930 . S
C216 C211 1.418 . S
C216 C212 1.353 . S
C217 H187 0.930 . S
C217 N218 1.330 . S
C217 C219 1.446 . S
N218 Co177 2.151 . S
N218 C217 1.330 . S
N218 C222 1.418 . S
C219 H198 0.929 . S
C219 C217 1.446 . S
C219 C220 1.332 . S
C220 H200 0.931 . S
C220 C219 1.332 . S
C220 C221 1.267 . S
C221 H189 0.929 . S
C221 C220 1.267 . S
C221 C222 1.251 . S
C222 H192 0.929 . S
C222 N218 1.418 . S
C222 C221 1.251 . S
C223 H190 0.930 . S
C223 C225 1.406 . S
C223 C228 1.261 . S
C224 H191 0.930 . S
C224 N226 1.325 . S
C224 C227 1.357 . S
C225 H193 0.928 . S
C225 C223 1.406 . S
C225 N226 1.261 . S
N226 Co177 2.214 . S
N226 C224 1.325 . S
N226 C225 1.261 . S
C227 H197 0.931 . S
C227 C224 1.357 . S
C227 C228 1.312 . S
C228 H199 0.930 . S
C228 C223 1.261 . S
C228 C227 1.312 . S
C229 O201 1.214 . S
C229 O209 1.234 . S
C230 H202 0.929 . S
C230 C233 1.391 . S
C230 C235 1.391 . S
C231 H203 0.929 . S
C231 C232 1.390 . S
C231 N234 1.391 . S
C232 H204 0.930 . S
C232 C231 1.390 . S
C232 C233 1.392 . S
C233 H205 0.929 . S
C233 C230 1.391 . S
C233 C232 1.392 . S
N234 Co178 2.257 . S
N234 C231 1.391 . S
N234 C235 1.388 . S
C235 H206 0.930 . S
C235 C230 1.391 . S
C235 N234 1.388 . S
Co236 O238 2.143 . S
Co236 O244 2.074 . S
Co236 O247 2.093 . S
Co236 O260 2.097 . S
Co236 N277 2.151 . S
Co236 N285 2.214 . S
Co237 O238 2.160 . S
Co237 O243 2.058 . S
Co237 O253 2.057 . S
Co237 O268 2.037 . S
Co237 N272 2.145 . S
Co237 N293 2.257 . S
O238 Co236 2.143 . S
O238 Co237 2.160 . S
C239 O240 1.278 . S
C239 O247 1.224 . S
O240 C239 1.278 . S
C241 O242 1.245 . S
C241 O253 1.232 . S
O242 C241 1.245 . S
O243 Co237 2.058 . S
O243 C269 1.269 . S
O244 Co236 2.074 . S
O244 C269 1.257 . S
H245 C270 0.930 . S
H246 C276 0.930 . S
O247 Co236 2.093 . S
O247 C239 1.224 . S
H248 C280 0.918 1_554 S
H249 C282 0.930 . S
H250 C283 0.930 . S
H251 C281 0.929 . S
H252 C284 0.928 . S
O253 Co237 2.057 . S
O253 C241 1.232 . S
H254 C273 0.929 . S
H255 C274 0.929 . S
H256 C286 0.931 . S
H257 C278 0.929 . S
H258 C287 0.930 . S
H259 C279 0.931 . S
O260 Co236 2.097 . S
O260 C288 1.214 . S
H261 C289 0.929 . S
H262 C290 0.929 . S
H263 C291 0.930 . S
H264 C292 0.929 . S
H265 C294 0.930 . S
H266 C271 0.930 . S
H267 C275 0.930 . S
O268 Co237 2.037 . S
O268 C288 1.234 . S
C269 O243 1.269 . S
C269 O244 1.257 . S
C270 H245 0.930 . S
C270 C273 1.388 . S
C270 C275 1.418 . S
C271 H266 0.930 . S
C271 C274 1.404 . S
C271 C275 1.353 . S
N272 Co237 2.145 . S
N272 C273 1.397 . S
N272 C274 1.334 . S
C273 H254 0.929 . S
C273 C270 1.388 . S
C273 N272 1.397 . S
C274 H255 0.929 . S
C274 C271 1.404 . S
C274 N272 1.334 . S
C275 H267 0.930 . S
C275 C270 1.418 . S
C275 C271 1.353 . S
C276 H246 0.930 . S
C276 N277 1.330 . S
C276 C278 1.446 . S
N277 Co236 2.151 . S
N277 C276 1.330 . S
N277 C281 1.418 . S
C278 H257 0.929 . S
C278 C276 1.446 . S
C278 C279 1.332 1_556 S
C279 H259 0.931 . S
C279 C278 1.332 1_554 S
C279 C280 1.264 1_554 S
C280 H248 0.918 1_556 S
C280 C279 1.264 1_556 S
C280 C281 1.266 . S
C281 H251 0.929 . S
C281 N277 1.418 . S
C281 C280 1.266 . S
C282 H249 0.930 . S
C282 C284 1.406 . S
C282 C287 1.261 . S
C283 H250 0.930 . S
C283 N285 1.325 . S
C283 C286 1.357 . S
C284 H252 0.928 . S
C284 C282 1.406 . S
C284 N285 1.261 1_554 S
N285 Co236 2.214 . S
N285 C283 1.325 . S
N285 C284 1.261 1_556 S
C286 H256 0.931 . S
C286 C283 1.357 . S
C286 C287 1.312 1_556 S
C287 H258 0.930 . S
C287 C282 1.261 . S
C287 C286 1.312 1_554 S
C288 O260 1.214 . S
C288 O268 1.234 . S
C289 H261 0.929 . S
C289 C292 1.391 . S
C289 C294 1.391 . S
C290 H262 0.929 . S
C290 C291 1.390 . S
C290 N293 1.391 . S
C291 H263 0.930 . S
C291 C290 1.390 . S
C291 C292 1.392 . S
C292 H264 0.929 . S
C292 C289 1.391 . S
C292 C291 1.392 . S
N293 Co237 2.257 . S
N293 C290 1.391 . S
N293 C294 1.388 . S
C294 H265 0.930 . S
C294 C289 1.391 . S
C294 N293 1.388 . S
Co295 O297 2.143 . S
Co295 O303 2.074 . S
Co295 O306 2.093 . S
Co295 O319 2.097 . S
Co295 N336 2.151 . S
Co295 N344 2.214 . S
Co296 O297 2.160 . S
Co296 O302 2.058 . S
Co296 O312 2.057 . S
Co296 O327 2.037 . S
Co296 N331 2.145 . S
Co296 N352 2.257 . S
O297 Co295 2.143 . S
O297 Co296 2.160 . S
C298 O299 1.278 . S
C298 O306 1.224 . S
O299 C298 1.278 . S
C300 O301 1.245 . S
C300 O312 1.232 . S
O301 C300 1.245 . S
O302 Co296 2.058 . S
O302 C328 1.269 . S
O303 Co295 2.074 . S
O303 C328 1.257 . S
H304 C329 0.930 . S
H305 C335 0.930 . S
O306 Co295 2.093 . S
O306 C298 1.224 . S
H307 C339 0.920 1_556 S
H308 C341 0.930 . S
H309 C342 0.930 . S
H310 C340 0.929 . S
H311 C343 0.928 . S
O312 Co296 2.057 . S
O312 C300 1.232 . S
H313 C332 0.929 . S
H314 C333 0.929 . S
H315 C345 0.931 . S
H316 C337 0.929 . S
H317 C346 0.930 . S
H318 C338 0.931 . S
O319 Co295 2.097 . S
O319 C347 1.214 . S
H320 C348 0.929 . S
H321 C349 0.929 . S
H322 C350 0.930 . S
H323 C351 0.929 . S
H324 C353 0.930 . S
H325 C330 0.930 . S
H326 C334 0.930 . S
O327 Co296 2.037 . S
O327 C347 1.234 . S
C328 O302 1.269 . S
C328 O303 1.257 . S
C329 H304 0.930 . S
C329 C332 1.388 . S
C329 C334 1.418 . S
C330 H325 0.930 . S
C330 C333 1.404 . S
C330 C334 1.353 . S
N331 Co296 2.145 . S
N331 C332 1.397 . S
N331 C333 1.334 . S
C332 H313 0.929 . S
C332 C329 1.388 . S
C332 N331 1.397 . S
C333 H314 0.929 . S
C333 C330 1.404 . S
C333 N331 1.334 . S
C334 H326 0.930 . S
C334 C329 1.418 . S
C334 C330 1.353 . S
C335 H305 0.930 . S
C335 N336 1.330 . S
C335 C337 1.446 . S
N336 Co295 2.151 . S
N336 C335 1.330 . S
N336 C340 1.418 . S
C337 H316 0.929 . S
C337 C335 1.446 . S
C337 C338 1.332 1_554 S
C338 H318 0.931 . S
C338 C337 1.332 1_556 S
C338 C339 1.264 1_556 S
C339 H307 0.920 1_554 S
C339 C338 1.264 1_554 S
C339 C340 1.264 . S
C340 H310 0.929 . S
C340 N336 1.418 . S
C340 C339 1.264 . S
C341 H308 0.930 . S
C341 C343 1.406 . S
C341 C346 1.261 . S
C342 H309 0.930 . S
C342 N344 1.325 . S
C342 C345 1.357 . S
C343 H311 0.928 . S
C343 C341 1.406 . S
C343 N344 1.261 1_556 S
N344 Co295 2.214 . S
N344 C342 1.325 . S
N344 C343 1.261 1_554 S
C345 H315 0.931 . S
C345 C342 1.357 . S
C345 C346 1.312 1_554 S
C346 H317 0.930 . S
C346 C341 1.261 . S
C346 C345 1.312 1_556 S
C347 O319 1.214 . S
C347 O327 1.234 . S
C348 H320 0.929 . S
C348 C351 1.391 . S
C348 C353 1.391 . S
C349 H321 0.929 . S
C349 C350 1.390 . S
C349 N352 1.391 . S
C350 H322 0.930 . S
C350 C349 1.390 . S
C350 C351 1.392 . S
C351 H323 0.929 . S
C351 C348 1.391 . S
C351 C350 1.392 . S
N352 Co296 2.257 . S
N352 C349 1.391 . S
N352 C353 1.388 . S
C353 H324 0.930 . S
C353 C348 1.391 . S
C353 N352 1.388 . S
Co354 O356 2.143 . S
Co354 O362 2.074 . S
Co354 O365 2.093 . S
Co354 O378 2.097 . S
Co354 N395 2.151 . S
Co354 N403 2.214 . S
Co355 O356 2.160 . S
Co355 O361 2.058 . S
Co355 O371 2.057 . S
Co355 O386 2.037 . S
Co355 N390 2.145 . S
Co355 N411 2.257 . S
O356 Co354 2.143 . S
O356 Co355 2.160 . S
C357 O358 1.278 . S
C357 O365 1.224 . S
O358 C357 1.278 . S
C359 O360 1.245 . S
C359 O371 1.232 . S
O360 C359 1.245 . S
O361 Co355 2.058 . S
O361 C387 1.269 . S
O362 Co354 2.074 . S
O362 C387 1.257 . S
H363 C388 0.930 . S
H364 C394 0.930 . S
O365 Co354 2.093 . S
O365 C357 1.224 . S
H366 C398 0.929 . S
H367 C400 0.930 . S
H368 C401 0.930 . S
H369 C399 0.929 . S
H370 C402 0.928 . S
O371 Co355 2.057 . S
O371 C359 1.232 . S
H372 C391 0.929 . S
H373 C392 0.929 . S
H374 C404 0.931 . S
H375 C396 0.929 . S
H376 C405 0.930 . S
H377 C397 0.931 . S
O378 Co354 2.097 . S
O378 C406 1.214 . S
H379 C407 0.929 . S
H380 C408 0.929 . S
H381 C409 0.930 . S
H382 C410 0.929 . S
H383 C412 0.930 . S
H384 C389 0.930 . S
H385 C393 0.930 . S
O386 Co355 2.037 . S
O386 C406 1.234 . S
C387 O361 1.269 . S
C387 O362 1.257 . S
C388 H363 0.930 . S
C388 C391 1.388 . S
C388 C393 1.418 . S
C389 H384 0.930 . S
C389 C392 1.404 . S
C389 C393 1.353 . S
N390 Co355 2.145 . S
N390 C391 1.397 . S
N390 C392 1.334 . S
C391 H372 0.929 . S
C391 C388 1.388 . S
C391 N390 1.397 . S
C392 H373 0.929 . S
C392 C389 1.404 . S
C392 N390 1.334 . S
C393 H385 0.930 . S
C393 C388 1.418 . S
C393 C389 1.353 . S
C394 H364 0.930 . S
C394 N395 1.330 . S
C394 C396 1.446 . S
N395 Co354 2.151 . S
N395 C394 1.330 . S
N395 C399 1.418 . S
C396 H375 0.929 . S
C396 C394 1.446 . S
C396 C397 1.332 . S
C397 H377 0.931 . S
C397 C396 1.332 . S
C397 C398 1.267 . S
C398 H366 0.929 . S
C398 C397 1.267 . S
C398 C399 1.251 . S
C399 H369 0.929 . S
C399 N395 1.418 . S
C399 C398 1.251 . S
C400 H367 0.930 . S
C400 C402 1.406 . S
C400 C405 1.261 . S
C401 H368 0.930 . S
C401 N403 1.325 . S
C401 C404 1.357 . S
C402 H370 0.928 . S
C402 C400 1.406 . S
C402 N403 1.261 . S
N403 Co354 2.214 . S
N403 C401 1.325 . S
N403 C402 1.261 . S
C404 H374 0.931 . S
C404 C401 1.357 . S
C404 C405 1.312 . S
C405 H376 0.930 . S
C405 C400 1.261 . S
C405 C404 1.312 . S
C406 O378 1.214 . S
C406 O386 1.234 . S
C407 H379 0.929 . S
C407 C410 1.391 . S
C407 C412 1.391 . S
C408 H380 0.929 . S
C408 C409 1.390 . S
C408 N411 1.391 . S
C409 H381 0.930 . S
C409 C408 1.390 . S
C409 C410 1.392 . S
C410 H382 0.929 . S
C410 C407 1.391 . S
C410 C409 1.392 . S
N411 Co355 2.257 . S
N411 C408 1.391 . S
N411 C412 1.388 . S
C412 H383 0.930 . S
C412 C407 1.391 . S
C412 N411 1.388 . S
Co413 O415 2.143 . S
Co413 O421 2.074 . S
Co413 O424 2.093 . S
Co413 O437 2.097 . S
Co413 N454 2.151 . S
Co413 N462 2.214 . S
Co414 O415 2.160 . S
Co414 O420 2.058 . S
Co414 O430 2.057 . S
Co414 O445 2.037 . S
Co414 N449 2.145 . S
Co414 N470 2.257 . S
O415 Co413 2.143 . S
O415 Co414 2.160 . S
C416 O417 1.278 . S
C416 O424 1.224 . S
O417 C416 1.278 . S
C418 O419 1.245 . S
C418 O430 1.232 . S
O419 C418 1.245 . S
O420 Co414 2.058 . S
O420 C446 1.269 . S
O421 Co413 2.074 . S
O421 C446 1.257 . S
H422 C447 0.930 . S
H423 C453 0.930 . S
O424 Co413 2.093 . S
O424 C416 1.224 . S
H425 C457 0.929 . S
H426 C459 0.930 . S
H427 C460 0.930 . S
H428 C458 0.929 . S
H429 C461 0.928 . S
O430 Co414 2.057 . S
O430 C418 1.232 . S
H431 C450 0.929 . S
H432 C451 0.929 . S
H433 C463 0.931 . S
H434 C455 0.929 . S
H435 C464 0.930 . S
H436 C456 0.931 . S
O437 Co413 2.097 . S
O437 C465 1.214 . S
H438 C466 0.929 . S
H439 C467 0.929 . S
H440 C468 0.930 . S
H441 C469 0.929 . S
H442 C471 0.930 . S
H443 C448 0.930 . S
H444 C452 0.930 . S
O445 Co414 2.037 . S
O445 C465 1.234 . S
C446 O420 1.269 . S
C446 O421 1.257 . S
C447 H422 0.930 . S
C447 C450 1.388 . S
C447 C452 1.418 . S
C448 H443 0.930 . S
C448 C451 1.404 . S
C448 C452 1.353 . S
N449 Co414 2.145 . S
N449 C450 1.397 . S
N449 C451 1.334 . S
C450 H431 0.929 . S
C450 C447 1.388 . S
C450 N449 1.397 . S
C451 H432 0.929 . S
C451 C448 1.404 . S
C451 N449 1.334 . S
C452 H444 0.930 . S
C452 C447 1.418 . S
C452 C448 1.353 . S
C453 H423 0.930 . S
C453 N454 1.330 . S
C453 C455 1.446 . S
N454 Co413 2.151 . S
N454 C453 1.330 . S
N454 C458 1.418 . S
C455 H434 0.929 . S
C455 C453 1.446 . S
C455 C456 1.332 . S
C456 H436 0.931 . S
C456 C455 1.332 . S
C456 C457 1.267 . S
C457 H425 0.929 . S
C457 C456 1.267 . S
C457 C458 1.251 . S
C458 H428 0.929 . S
C458 N454 1.418 . S
C458 C457 1.251 . S
C459 H426 0.930 . S
C459 C461 1.406 . S
C459 C464 1.261 . S
C460 H427 0.930 . S
C460 N462 1.325 . S
C460 C463 1.357 . S
C461 H429 0.928 . S
C461 C459 1.406 . S
C461 N462 1.261 . S
N462 Co413 2.214 . S
N462 C460 1.325 . S
N462 C461 1.261 . S
C463 H433 0.931 . S
C463 C460 1.357 . S
C463 C464 1.312 . S
C464 H435 0.930 . S
C464 C459 1.261 . S
C464 C463 1.312 . S
C465 O437 1.214 . S
C465 O445 1.234 . S
C466 H438 0.929 . S
C466 C469 1.391 . S
C466 C471 1.391 . S
C467 H439 0.929 . S
C467 C468 1.390 . S
C467 N470 1.391 . S
C468 H440 0.930 . S
C468 C467 1.390 . S
C468 C469 1.392 . S
C469 H441 0.929 . S
C469 C466 1.391 . S
C469 C468 1.392 . S
N470 Co414 2.257 . S
N470 C467 1.391 . S
N470 C471 1.388 . S
C471 H442 0.930 . S
C471 C466 1.391 . S
C471 N470 1.388 . S
Co472 O474 2.143 . S
Co472 O480 2.074 . S
Co472 O483 2.093 . S
Co472 O496 2.097 . S
Co472 N513 2.151 . S
Co472 N521 2.214 . S
Co473 O474 2.160 . S
Co473 O479 2.058 . S
Co473 O489 2.057 . S
Co473 O504 2.037 . S
Co473 N508 2.145 . S
Co473 N529 2.257 . S
O474 Co472 2.143 . S
O474 Co473 2.160 . S
C475 O476 1.278 . S
C475 O483 1.224 . S
O476 C475 1.278 . S
C477 O478 1.245 . S
C477 O489 1.232 . S
O478 C477 1.245 . S
O479 Co473 2.058 . S
O479 C505 1.269 . S
O480 Co472 2.074 . S
O480 C505 1.257 . S
H481 C506 0.930 . S
H482 C512 0.930 . S
O483 Co472 2.093 . S
O483 C475 1.224 . S
H484 C516 0.916 1_554 S
H485 C518 0.930 . S
H486 C519 0.930 . S
H487 C517 0.929 . S
H488 C520 0.928 . S
O489 Co473 2.057 . S
O489 C477 1.232 . S
H490 C509 0.929 . S
H491 C510 0.929 . S
H492 C522 0.931 . S
H493 C514 0.929 . S
H494 C523 0.930 . S
H495 C515 0.931 . S
O496 Co472 2.097 . S
O496 C524 1.214 . S
H497 C525 0.929 . S
H498 C526 0.929 . S
H499 C527 0.930 . S
H500 C528 0.929 . S
H501 C530 0.930 . S
H502 C507 0.930 . S
H503 C511 0.930 . S
O504 Co473 2.037 . S
O504 C524 1.234 . S
C505 O479 1.269 . S
C505 O480 1.257 . S
C506 H481 0.930 . S
C506 C509 1.388 . S
C506 C511 1.418 . S
C507 H502 0.930 . S
C507 C510 1.404 . S
C507 C511 1.353 . S
N508 Co473 2.145 . S
N508 C509 1.397 . S
N508 C510 1.334 . S
C509 H490 0.929 . S
C509 C506 1.388 . S
C509 N508 1.397 . S
C510 H491 0.929 . S
C510 C507 1.404 . S
C510 N508 1.334 . S
C511 H503 0.930 . S
C511 C506 1.418 . S
C511 C507 1.353 . S
C512 H482 0.930 . S
C512 N513 1.330 . S
C512 C514 1.446 . S
N513 Co472 2.151 . S
N513 C512 1.330 . S
N513 C517 1.418 . S
C514 H493 0.929 . S
C514 C512 1.446 . S
C514 C515 1.332 1_556 S
C515 H495 0.931 . S
C515 C514 1.332 1_554 S
C515 C516 1.263 1_554 S
C516 H484 0.916 1_556 S
C516 C515 1.263 1_556 S
C516 C517 1.268 . S
C517 H487 0.929 . S
C517 N513 1.418 . S
C517 C516 1.268 . S
C518 H485 0.930 . S
C518 C520 1.406 . S
C518 C523 1.261 . S
C519 H486 0.930 . S
C519 N521 1.325 . S
C519 C522 1.357 . S
C520 H488 0.928 . S
C520 C518 1.406 . S
C520 N521 1.261 1_554 S
N521 Co472 2.214 . S
N521 C519 1.325 . S
N521 C520 1.261 1_556 S
C522 H492 0.931 . S
C522 C519 1.357 . S
C522 C523 1.312 1_556 S
C523 H494 0.930 . S
C523 C518 1.261 . S
C523 C522 1.312 1_554 S
C524 O496 1.214 . S
C524 O504 1.234 . S
C525 H497 0.929 . S
C525 C528 1.391 . S
C525 C530 1.391 . S
C526 H498 0.929 . S
C526 C527 1.390 . S
C526 N529 1.391 . S
C527 H499 0.930 . S
C527 C526 1.390 . S
C527 C528 1.392 . S
C528 H500 0.929 . S
C528 C525 1.391 . S
C528 C527 1.392 . S
N529 Co473 2.257 . S
N529 C526 1.391 . S
N529 C530 1.388 . S
C530 H501 0.930 . S
C530 C525 1.391 . S
C530 N529 1.388 . S
Co531 O533 2.143 . S
Co531 O539 2.074 . S
Co531 O542 2.093 . S
Co531 O555 2.097 . S
Co531 N572 2.151 . S
Co531 N580 2.214 . S
Co532 O533 2.160 . S
Co532 O538 2.058 . S
Co532 O548 2.057 . S
Co532 O563 2.037 . S
Co532 N567 2.145 . S
Co532 N588 2.257 . S
O533 Co531 2.143 . S
O533 Co532 2.160 . S
C534 O535 1.278 . S
C534 O542 1.224 . S
O535 C534 1.278 . S
C536 O537 1.245 . S
C536 O548 1.232 . S
O537 C536 1.245 . S
O538 Co532 2.058 . S
O538 C564 1.269 . S
O539 Co531 2.074 . S
O539 C564 1.257 . S
H540 C565 0.930 . S
H541 C571 0.930 . S
O542 Co531 2.093 . S
O542 C534 1.224 . S
H543 C575 0.929 . S
H544 C577 0.930 . S
H545 C578 0.930 . S
H546 C576 0.929 . S
H547 C579 0.928 . S
O548 Co532 2.057 . S
O548 C536 1.232 . S
H549 C568 0.929 . S
H550 C569 0.929 . S
H551 C581 0.931 . S
H552 C573 0.929 . S
H553 C582 0.930 . S
H554 C574 0.931 . S
O555 Co531 2.097 . S
O555 C583 1.214 . S
H556 C584 0.929 . S
H557 C585 0.929 . S
H558 C586 0.930 . S
H559 C587 0.929 . S
H560 C589 0.930 . S
H561 C566 0.930 . S
H562 C570 0.930 . S
O563 Co532 2.037 . S
O563 C583 1.234 . S
C564 O538 1.269 . S
C564 O539 1.257 . S
C565 H540 0.930 . S
C565 C568 1.388 . S
C565 C570 1.418 . S
C566 H561 0.930 . S
C566 C569 1.404 . S
C566 C570 1.353 . S
N567 Co532 2.145 . S
N567 C568 1.397 . S
N567 C569 1.334 . S
C568 H549 0.929 . S
C568 C565 1.388 . S
C568 N567 1.397 . S
C569 H550 0.929 . S
C569 C566 1.404 . S
C569 N567 1.334 . S
C570 H562 0.930 . S
C570 C565 1.418 . S
C570 C566 1.353 . S
C571 H541 0.930 . S
C571 N572 1.330 . S
C571 C573 1.446 . S
N572 Co531 2.151 . S
N572 C571 1.330 . S
N572 C576 1.418 . S
C573 H552 0.929 . S
C573 C571 1.446 . S
C573 C574 1.332 . S
C574 H554 0.931 . S
C574 C573 1.332 . S
C574 C575 1.267 . S
C575 H543 0.929 . S
C575 C574 1.267 . S
C575 C576 1.251 . S
C576 H546 0.929 . S
C576 N572 1.418 . S
C576 C575 1.251 . S
C577 H544 0.930 . S
C577 C579 1.406 . S
C577 C582 1.261 . S
C578 H545 0.930 . S
C578 N580 1.325 . S
C578 C581 1.357 . S
C579 H547 0.928 . S
C579 C577 1.406 . S
C579 N580 1.261 . S
N580 Co531 2.214 . S
N580 C578 1.325 . S
N580 C579 1.261 . S
C581 H551 0.931 . S
C581 C578 1.357 . S
C581 C582 1.312 . S
C582 H553 0.930 . S
C582 C577 1.261 . S
C582 C581 1.312 . S
C583 O555 1.214 . S
C583 O563 1.234 . S
C584 H556 0.929 . S
C584 C587 1.391 . S
C584 C589 1.391 . S
C585 H557 0.929 . S
C585 C586 1.390 . S
C585 N588 1.391 . S
C586 H558 0.930 . S
C586 C585 1.390 . S
C586 C587 1.392 . S
C587 H559 0.929 . S
C587 C584 1.391 . S
C587 C586 1.392 . S
N588 Co532 2.257 . S
N588 C585 1.391 . S
N588 C589 1.388 . S
C589 H560 0.930 . S
C589 C584 1.391 . S
C589 N588 1.388 . S
Co590 O592 2.143 . S
Co590 O598 2.074 . S
Co590 O601 2.093 . S
Co590 O614 2.097 . S
Co590 N631 2.151 . S
Co590 N639 2.214 . S
Co591 O592 2.160 . S
Co591 O597 2.058 . S
Co591 O607 2.057 . S
Co591 O622 2.037 . S
Co591 N626 2.145 . S
Co591 N647 2.257 . S
O592 Co590 2.143 . S
O592 Co591 2.160 . S
C593 O594 1.278 . S
C593 O601 1.224 . S
O594 C593 1.278 . S
C595 O596 1.245 . S
C595 O607 1.232 . S
O596 C595 1.245 . S
O597 Co591 2.058 . S
O597 C623 1.269 . S
O598 Co590 2.074 . S
O598 C623 1.257 . S
H599 C624 0.930 . S
H600 C630 0.930 . S
O601 Co590 2.093 . S
O601 C593 1.224 . S
H602 C634 0.929 . S
H603 C636 0.930 . S
H604 C637 0.930 . S
H605 C635 0.929 . S
H606 C638 0.928 . S
O607 Co591 2.057 . S
O607 C595 1.232 . S
H608 C627 0.929 . S
H609 C628 0.929 . S
H610 C640 0.931 . S
H611 C632 0.929 . S
H612 C641 0.930 . S
H613 C633 0.931 . S
O614 Co590 2.097 . S
O614 C642 1.214 . S
H615 C643 0.929 . S
H616 C644 0.929 . S
H617 C645 0.930 . S
H618 C646 0.929 . S
H619 C648 0.930 . S
H620 C625 0.930 . S
H621 C629 0.930 . S
O622 Co591 2.037 . S
O622 C642 1.234 . S
C623 O597 1.269 . S
C623 O598 1.257 . S
C624 H599 0.930 . S
C624 C627 1.388 . S
C624 C629 1.418 . S
C625 H620 0.930 . S
C625 C628 1.404 . S
C625 C629 1.353 . S
N626 Co591 2.145 . S
N626 C627 1.397 . S
N626 C628 1.334 . S
C627 H608 0.929 . S
C627 C624 1.388 . S
C627 N626 1.397 . S
C628 H609 0.929 . S
C628 C625 1.404 . S
C628 N626 1.334 . S
C629 H621 0.930 . S
C629 C624 1.418 . S
C629 C625 1.353 . S
C630 H600 0.930 . S
C630 N631 1.330 . S
C630 C632 1.446 . S
N631 Co590 2.151 . S
N631 C630 1.330 . S
N631 C635 1.418 . S
C632 H611 0.929 . S
C632 C630 1.446 . S
C632 C633 1.332 . S
C633 H613 0.931 . S
C633 C632 1.332 . S
C633 C634 1.267 . S
C634 H602 0.929 . S
C634 C633 1.267 . S
C634 C635 1.251 . S
C635 H605 0.929 . S
C635 N631 1.418 . S
C635 C634 1.251 . S
C636 H603 0.930 . S
C636 C638 1.406 . S
C636 C641 1.261 . S
C637 H604 0.930 . S
C637 N639 1.325 . S
C637 C640 1.357 . S
C638 H606 0.928 . S
C638 C636 1.406 . S
C638 N639 1.261 . S
N639 Co590 2.214 . S
N639 C637 1.325 . S
N639 C638 1.261 . S
C640 H610 0.931 . S
C640 C637 1.357 . S
C640 C641 1.312 . S
C641 H612 0.930 . S
C641 C636 1.261 . S
C641 C640 1.312 . S
C642 O614 1.214 . S
C642 O622 1.234 . S
C643 H615 0.929 . S
C643 C646 1.391 . S
C643 C648 1.391 . S
C644 H616 0.929 . S
C644 C645 1.390 . S
C644 N647 1.391 . S
C645 H617 0.930 . S
C645 C644 1.390 . S
C645 C646 1.392 . S
C646 H618 0.929 . S
C646 C643 1.391 . S
C646 C645 1.392 . S
N647 Co591 2.257 . S
N647 C644 1.391 . S
N647 C648 1.388 . S
C648 H619 0.930 . S
C648 C643 1.391 . S
C648 N647 1.388 . S
Co649 O651 2.143 . S
Co649 O657 2.074 . S
Co649 O660 2.093 . S
Co649 O673 2.097 . S
Co649 N690 2.151 . S
Co649 N698 2.214 . S
Co650 O651 2.160 . S
Co650 O656 2.058 . S
Co650 O666 2.057 . S
Co650 O681 2.037 . S
Co650 N685 2.145 . S
Co650 N706 2.257 . S
O651 Co649 2.143 . S
O651 Co650 2.160 . S
C652 O653 1.278 . S
C652 O660 1.224 . S
O653 C652 1.278 . S
C654 O655 1.245 . S
C654 O666 1.232 . S
O655 C654 1.245 . S
O656 Co650 2.058 . S
O656 C682 1.269 . S
O657 Co649 2.074 . S
O657 C682 1.257 . S
H658 C683 0.930 . S
H659 C689 0.930 . S
O660 Co649 2.093 . S
O660 C652 1.224 . S
H661 C693 0.929 . S
H662 C695 0.930 . S
H663 C696 0.930 . S
H664 C694 0.929 . S
H665 C697 0.928 . S
O666 Co650 2.057 . S
O666 C654 1.232 . S
H667 C686 0.929 . S
H668 C687 0.929 . S
H669 C699 0.931 . S
H670 C691 0.929 . S
H671 C700 0.930 . S
H672 C692 0.931 . S
O673 Co649 2.097 . S
O673 C701 1.214 . S
H674 C702 0.929 . S
H675 C703 0.929 . S
H676 C704 0.930 . S
H677 C705 0.929 . S
H678 C707 0.930 . S
H679 C684 0.930 . S
H680 C688 0.930 . S
O681 Co650 2.037 . S
O681 C701 1.234 . S
C682 O656 1.269 . S
C682 O657 1.257 . S
C683 H658 0.930 . S
C683 C686 1.388 1_556 S
C683 C688 1.418 . S
C684 H679 0.930 . S
C684 C687 1.404 . S
C684 C688 1.353 . S
N685 Co650 2.145 . S
N685 C686 1.397 . S
N685 C687 1.334 1_554 S
C686 H667 0.929 . S
C686 C683 1.388 1_554 S
C686 N685 1.397 . S
C687 H668 0.929 . S
C687 C684 1.404 . S
C687 N685 1.334 1_556 S
C688 H680 0.930 . S
C688 C683 1.418 . S
C688 C684 1.353 . S
C689 H659 0.930 . S
C689 N690 1.330 . S
C689 C691 1.446 . S
N690 Co649 2.151 . S
N690 C689 1.330 . S
N690 C694 1.418 . S
C691 H670 0.929 . S
C691 C689 1.446 . S
C691 C692 1.332 . S
C692 H672 0.931 . S
C692 C691 1.332 . S
C692 C693 1.267 . S
C693 H661 0.929 . S
C693 C692 1.267 . S
C693 C694 1.251 . S
C694 H664 0.929 . S
C694 N690 1.418 . S
C694 C693 1.251 . S
C695 H662 0.930 . S
C695 C697 1.406 . S
C695 C700 1.261 . S
C696 H663 0.930 . S
C696 N698 1.325 . S
C696 C699 1.357 . S
C697 H665 0.928 . S
C697 C695 1.406 . S
C697 N698 1.261 . S
N698 Co649 2.214 . S
N698 C696 1.325 . S
N698 C697 1.261 . S
C699 H669 0.931 . S
C699 C696 1.357 . S
C699 C700 1.312 . S
C700 H671 0.930 . S
C700 C695 1.261 . S
C700 C699 1.312 . S
C701 O673 1.214 . S
C701 O681 1.234 . S
C702 H674 0.929 . S
C702 C705 1.391 . S
C702 C707 1.391 . S
C703 H675 0.929 . S
C703 C704 1.390 . S
C703 N706 1.391 . S
C704 H676 0.930 . S
C704 C703 1.390 . S
C704 C705 1.392 . S
C705 H677 0.929 . S
C705 C702 1.391 . S
C705 C704 1.392 . S
N706 Co650 2.257 . S
N706 C703 1.391 . S
N706 C707 1.388 . S
C707 H678 0.930 . S
C707 C702 1.391 . S
C707 N706 1.388 . S
Co708 O710 2.143 . S
Co708 O716 2.074 . S
Co708 O719 2.093 . S
Co708 O732 2.097 . S
Co708 N749 2.151 . S
Co708 N757 2.214 . S
Co709 O710 2.160 . S
Co709 O715 2.058 . S
Co709 O725 2.057 . S
Co709 O740 2.037 . S
Co709 N744 2.145 . S
Co709 N765 2.257 . S
O710 Co708 2.143 . S
O710 Co709 2.160 . S
C711 O712 1.278 . S
C711 O719 1.224 . S
O712 C711 1.278 . S
C713 O714 1.245 . S
C713 O725 1.232 . S
O714 C713 1.245 . S
O715 Co709 2.058 . S
O715 C741 1.269 . S
O716 Co708 2.074 . S
O716 C741 1.257 . S
H717 C742 0.930 . S
H718 C748 0.930 . S
O719 Co708 2.093 . S
O719 C711 1.224 . S
H720 C752 0.918 1_556 S
H721 C754 0.930 . S
H722 C755 0.930 . S
H723 C753 0.929 . S
H724 C756 0.928 . S
O725 Co709 2.057 . S
O725 C713 1.232 . S
H726 C745 0.929 . S
H727 C746 0.929 . S
H728 C758 0.931 . S
H729 C750 0.929 . S
H730 C759 0.930 . S
H731 C751 0.931 . S
O732 Co708 2.097 . S
O732 C760 1.214 . S
H733 C761 0.929 . S
H734 C762 0.929 . S
H735 C763 0.930 . S
H736 C764 0.929 . S
H737 C766 0.930 . S
H738 C743 0.930 . S
H739 C747 0.930 . S
O740 Co709 2.037 . S
O740 C760 1.234 . S
C741 O715 1.269 . S
C741 O716 1.257 . S
C742 H717 0.930 . S
C742 C745 1.388 . S
C742 C747 1.418 . S
C743 H738 0.930 . S
C743 C746 1.404 . S
C743 C747 1.353 . S
N744 Co709 2.145 . S
N744 C745 1.397 . S
N744 C746 1.334 . S
C745 H726 0.929 . S
C745 C742 1.388 . S
C745 N744 1.397 . S
C746 H727 0.929 . S
C746 C743 1.404 . S
C746 N744 1.334 . S
C747 H739 0.930 . S
C747 C742 1.418 . S
C747 C743 1.353 . S
C748 H718 0.930 . S
C748 N749 1.330 . S
C748 C750 1.446 . S
N749 Co708 2.151 . S
N749 C748 1.330 . S
N749 C753 1.418 . S
C750 H729 0.929 . S
C750 C748 1.446 . S
C750 C751 1.332 1_554 S
C751 H731 0.931 . S
C751 C750 1.332 1_556 S
C751 C752 1.264 1_556 S
C752 H720 0.918 1_554 S
C752 C751 1.264 1_554 S
C752 C753 1.265 . S
C753 H723 0.929 . S
C753 N749 1.418 . S
C753 C752 1.265 . S
C754 H721 0.930 . S
C754 C756 1.406 . S
C754 C759 1.261 . S
C755 H722 0.930 . S
C755 N757 1.325 . S
C755 C758 1.357 . S
C756 H724 0.928 . S
C756 C754 1.406 . S
C756 N757 1.261 1_556 S
N757 Co708 2.214 . S
N757 C755 1.325 . S
N757 C756 1.261 1_554 S
C758 H728 0.931 . S
C758 C755 1.357 . S
C758 C759 1.312 1_554 S
C759 H730 0.930 . S
C759 C754 1.261 . S
C759 C758 1.312 1_556 S
C760 O732 1.214 . S
C760 O740 1.234 . S
C761 H733 0.929 . S
C761 C764 1.391 . S
C761 C766 1.391 . S
C762 H734 0.929 . S
C762 C763 1.390 . S
C762 N765 1.391 . S
C763 H735 0.930 . S
C763 C762 1.390 . S
C763 C764 1.392 . S
C764 H736 0.929 . S
C764 C761 1.391 . S
C764 C763 1.392 . S
N765 Co709 2.257 . S
N765 C762 1.391 . S
N765 C766 1.388 . S
C766 H737 0.930 . S
C766 C761 1.391 . S
C766 N765 1.388 . S
Co767 O769 2.143 . S
Co767 O775 2.074 . S
Co767 O778 2.093 . S
Co767 O791 2.097 . S
Co767 N808 2.151 . S
Co767 N816 2.214 . S
Co768 O769 2.160 . S
Co768 O774 2.058 . S
Co768 O784 2.057 . S
Co768 O799 2.037 . S
Co768 N803 2.145 . S
Co768 N824 2.257 . S
O769 Co767 2.143 . S
O769 Co768 2.160 . S
C770 O771 1.278 . S
C770 O778 1.224 . S
O771 C770 1.278 . S
C772 O773 1.245 . S
C772 O784 1.232 . S
O773 C772 1.245 . S
O774 Co768 2.058 . S
O774 C800 1.269 . S
O775 Co767 2.074 . S
O775 C800 1.257 . S
H776 C801 0.930 . S
H777 C807 0.930 . S
O778 Co767 2.093 . S
O778 C770 1.224 . S
H779 C811 0.916 1_554 S
H780 C813 0.930 . S
H781 C814 0.930 . S
H782 C812 0.929 . S
H783 C815 0.928 . S
O784 Co768 2.057 . S
O784 C772 1.232 . S
H785 C804 0.929 . S
H786 C805 0.929 . S
H787 C817 0.931 . S
H788 C809 0.929 . S
H789 C818 0.930 . S
H790 C810 0.931 . S
O791 Co767 2.097 . S
O791 C819 1.214 . S
H792 C820 0.929 . S
H793 C821 0.929 . S
H794 C822 0.930 . S
H795 C823 0.929 . S
H796 C825 0.930 . S
H797 C802 0.930 . S
H798 C806 0.930 . S
O799 Co768 2.037 . S
O799 C819 1.234 . S
C800 O774 1.269 . S
C800 O775 1.257 . S
C801 H776 0.930 . S
C801 C804 1.388 . S
C801 C806 1.418 . S
C802 H797 0.930 . S
C802 C805 1.404 . S
C802 C806 1.353 . S
N803 Co768 2.145 . S
N803 C804 1.397 . S
N803 C805 1.334 . S
C804 H785 0.929 . S
C804 C801 1.388 . S
C804 N803 1.397 . S
C805 H786 0.929 . S
C805 C802 1.404 . S
C805 N803 1.334 . S
C806 H798 0.930 . S
C806 C801 1.418 . S
C806 C802 1.353 . S
C807 H777 0.930 . S
C807 N808 1.330 . S
C807 C809 1.446 . S
N808 Co767 2.151 . S
N808 C807 1.330 . S
N808 C812 1.418 . S
C809 H788 0.929 . S
C809 C807 1.446 . S
C809 C810 1.332 1_556 S
C810 H790 0.931 . S
C810 C809 1.332 1_554 S
C810 C811 1.263 1_554 S
C811 H779 0.916 1_556 S
C811 C810 1.263 1_556 S
C811 C812 1.269 . S
C812 H782 0.929 . S
C812 N808 1.418 . S
C812 C811 1.269 . S
C813 H780 0.930 . S
C813 C815 1.406 . S
C813 C818 1.261 . S
C814 H781 0.930 . S
C814 N816 1.325 . S
C814 C817 1.357 . S
C815 H783 0.928 . S
C815 C813 1.406 . S
C815 N816 1.261 1_554 S
N816 Co767 2.214 . S
N816 C814 1.325 . S
N816 C815 1.261 1_556 S
C817 H787 0.931 . S
C817 C814 1.357 . S
C817 C818 1.312 1_556 S
C818 H789 0.930 . S
C818 C813 1.261 . S
C818 C817 1.312 1_554 S
C819 O791 1.214 . S
C819 O799 1.234 . S
C820 H792 0.929 . S
C820 C823 1.391 . S
C820 C825 1.391 . S
C821 H793 0.929 . S
C821 C822 1.390 . S
C821 N824 1.391 . S
C822 H794 0.930 . S
C822 C821 1.390 . S
C822 C823 1.392 . S
C823 H795 0.929 . S
C823 C820 1.391 . S
C823 C822 1.392 . S
N824 Co768 2.257 . S
N824 C821 1.391 . S
N824 C825 1.388 . S
C825 H796 0.930 . S
C825 C820 1.391 . S
C825 N824 1.388 . S
Co826 O828 2.143 . S
Co826 O834 2.074 . S
Co826 O837 2.093 . S
Co826 O850 2.097 . S
Co826 N867 2.151 . S
Co826 N875 2.214 . S
Co827 O828 2.160 . S
Co827 O833 2.058 . S
Co827 O843 2.057 . S
Co827 O858 2.037 . S
Co827 N862 2.145 . S
Co827 N883 2.257 . S
O828 Co826 2.143 . S
O828 Co827 2.160 . S
C829 O830 1.278 . S
C829 O837 1.224 . S
O830 C829 1.278 . S
C831 O832 1.245 . S
C831 O843 1.232 . S
O832 C831 1.245 . S
O833 Co827 2.058 . S
O833 C859 1.269 . S
O834 Co826 2.074 . S
O834 C859 1.257 . S
H835 C860 0.930 . S
H836 C866 0.930 . S
O837 Co826 2.093 . S
O837 C829 1.224 . S
H838 C870 0.929 . S
H839 C872 0.930 . S
H840 C873 0.930 . S
H841 C871 0.929 . S
H842 C874 0.928 . S
O843 Co827 2.057 . S
O843 C831 1.232 . S
H844 C863 0.929 . S
H845 C864 0.929 . S
H846 C876 0.931 . S
H847 C868 0.929 . S
H848 C877 0.930 . S
H849 C869 0.931 . S
O850 Co826 2.097 . S
O850 C878 1.214 . S
H851 C879 0.929 . S
H852 C880 0.929 . S
H853 C881 0.930 . S
H854 C882 0.929 . S
H855 C884 0.930 . S
H856 C861 0.930 . S
H857 C865 0.930 . S
O858 Co827 2.037 . S
O858 C878 1.234 . S
C859 O833 1.269 . S
C859 O834 1.257 . S
C860 H835 0.930 . S
C860 C863 1.388 . S
C860 C865 1.418 . S
C861 H856 0.930 . S
C861 C864 1.404 . S
C861 C865 1.353 . S
N862 Co827 2.145 . S
N862 C863 1.397 . S
N862 C864 1.334 . S
C863 H844 0.929 . S
C863 C860 1.388 . S
C863 N862 1.397 . S
C864 H845 0.929 . S
C864 C861 1.404 . S
C864 N862 1.334 . S
C865 H857 0.930 . S
C865 C860 1.418 . S
C865 C861 1.353 . S
C866 H836 0.930 . S
C866 N867 1.330 . S
C866 C868 1.446 . S
N867 Co826 2.151 . S
N867 C866 1.330 . S
N867 C871 1.418 . S
C868 H847 0.929 . S
C868 C866 1.446 . S
C868 C869 1.332 . S
C869 H849 0.931 . S
C869 C868 1.332 . S
C869 C870 1.267 . S
C870 H838 0.929 . S
C870 C869 1.267 . S
C870 C871 1.251 . S
C871 H841 0.929 . S
C871 N867 1.418 . S
C871 C870 1.251 . S
C872 H839 0.930 . S
C872 C874 1.406 . S
C872 C877 1.261 . S
C873 H840 0.930 . S
C873 N875 1.325 . S
C873 C876 1.357 . S
C874 H842 0.928 . S
C874 C872 1.406 . S
C874 N875 1.261 . S
N875 Co826 2.214 . S
N875 C873 1.325 . S
N875 C874 1.261 . S
C876 H846 0.931 . S
C876 C873 1.357 . S
C876 C877 1.312 . S
C877 H848 0.930 . S
C877 C872 1.261 . S
C877 C876 1.312 . S
C878 O850 1.214 . S
C878 O858 1.234 . S
C879 H851 0.929 . S
C879 C882 1.391 . S
C879 C884 1.391 . S
C880 H852 0.929 . S
C880 C881 1.390 . S
C880 N883 1.391 . S
C881 H853 0.930 . S
C881 C880 1.390 . S
C881 C882 1.392 . S
C882 H854 0.929 . S
C882 C879 1.391 . S
C882 C881 1.392 . S
N883 Co827 2.257 . S
N883 C880 1.391 . S
N883 C884 1.388 . S
C884 H855 0.930 . S
C884 C879 1.391 . S
C884 N883 1.388 . S
Co885 O887 2.143 . S
Co885 O893 2.074 . S
Co885 O896 2.093 . S
Co885 O909 2.097 . S
Co885 N926 2.151 . S
Co885 N934 2.214 . S
Co886 O887 2.160 . S
Co886 O892 2.058 . S
Co886 O902 2.057 . S
Co886 O917 2.037 . S
Co886 N921 2.145 . S
Co886 N942 2.257 . S
O887 Co885 2.143 . S
O887 Co886 2.160 . S
C888 O889 1.278 . S
C888 O896 1.224 . S
O889 C888 1.278 . S
C890 O891 1.245 . S
C890 O902 1.232 . S
O891 C890 1.245 . S
O892 Co886 2.058 . S
O892 C918 1.269 . S
O893 Co885 2.074 . S
O893 C918 1.257 . S
H894 C919 0.930 . S
H895 C925 0.930 . S
O896 Co885 2.093 . S
O896 C888 1.224 . S
H897 C929 0.929 . S
H898 C931 0.930 . S
H899 C932 0.930 . S
H900 C930 0.929 . S
H901 C933 0.928 . S
O902 Co886 2.057 . S
O902 C890 1.232 . S
H903 C922 0.929 . S
H904 C923 0.929 . S
H905 C935 0.931 . S
H906 C927 0.929 . S
H907 C936 0.930 . S
H908 C928 0.931 . S
O909 Co885 2.097 . S
O909 C937 1.214 . S
H910 C938 0.929 . S
H911 C939 0.929 . S
H912 C940 0.930 . S
H913 C941 0.929 . S
H914 C943 0.930 . S
H915 C920 0.930 . S
H916 C924 0.930 . S
O917 Co886 2.037 . S
O917 C937 1.234 . S
C918 O892 1.269 . S
C918 O893 1.257 . S
C919 H894 0.930 . S
C919 C922 1.388 . S
C919 C924 1.418 . S
C920 H915 0.930 . S
C920 C923 1.404 . S
C920 C924 1.353 . S
N921 Co886 2.145 . S
N921 C922 1.397 . S
N921 C923 1.334 . S
C922 H903 0.929 . S
C922 C919 1.388 . S
C922 N921 1.397 . S
C923 H904 0.929 . S
C923 C920 1.404 . S
C923 N921 1.334 . S
C924 H916 0.930 . S
C924 C919 1.418 . S
C924 C920 1.353 . S
C925 H895 0.930 . S
C925 N926 1.330 . S
C925 C927 1.446 . S
N926 Co885 2.151 . S
N926 C925 1.330 . S
N926 C930 1.418 . S
C927 H906 0.929 . S
C927 C925 1.446 . S
C927 C928 1.332 . S
C928 H908 0.931 . S
C928 C927 1.332 . S
C928 C929 1.267 . S
C929 H897 0.929 . S
C929 C928 1.267 . S
C929 C930 1.251 . S
C930 H900 0.929 . S
C930 N926 1.418 . S
C930 C929 1.251 . S
C931 H898 0.930 . S
C931 C933 1.406 . S
C931 C936 1.261 . S
C932 H899 0.930 . S
C932 N934 1.325 . S
C932 C935 1.357 . S
C933 H901 0.928 . S
C933 C931 1.406 . S
C933 N934 1.261 . S
N934 Co885 2.214 . S
N934 C932 1.325 . S
N934 C933 1.261 . S
C935 H905 0.931 . S
C935 C932 1.357 . S
C935 C936 1.312 . S
C936 H907 0.930 . S
C936 C931 1.261 . S
C936 C935 1.312 . S
C937 O909 1.214 . S
C937 O917 1.234 . S
C938 H910 0.929 . S
C938 C941 1.391 . S
C938 C943 1.391 . S
C939 H911 0.929 . S
C939 C940 1.390 . S
C939 N942 1.391 . S
C940 H912 0.930 . S
C940 C939 1.390 . S
C940 C941 1.392 . S
C941 H913 0.929 . S
C941 C938 1.391 . S
C941 C940 1.392 . S
N942 Co886 2.257 . S
N942 C939 1.391 . S
N942 C943 1.388 . S
C943 H914 0.930 . S
C943 C938 1.391 . S
C943 N942 1.388 . S
H944 C952 0.950 . S
H945 C957 0.950 . S
H946 C954 0.950 . S
H947 C956 0.950 . S
H948 C958 0.950 . S
H949 C960 0.950 . S
H950 C962 0.950 . S
H951 C963 0.950 . S
C952 H944 0.950 . S
C952 C953 1.386 . S
C952 C954 1.391 . S
C953 C952 1.386 . S
C953 C957 1.393 . S
C954 H946 0.950 . S
C954 C952 1.391 . S
C954 C955 1.400 . S
C955 C954 1.400 . S
C955 C956 1.398 . S
C955 C961 1.491 . S
C956 H947 0.950 . S
C956 C955 1.398 . S
C956 C957 1.391 . S
C957 H945 0.950 . S
C957 C953 1.393 . S
C957 C956 1.391 . S
C958 H948 0.950 . S
C958 C959 1.386 . S
C958 C960 1.391 . S
C959 C958 1.386 . S
C959 C963 1.393 . S
C960 H949 0.950 . S
C960 C958 1.391 . S
C960 C961 1.400 . S
C961 C955 1.491 . S
C961 C960 1.400 . S
C961 C962 1.398 . S
C962 H950 0.950 . S
C962 C961 1.398 . S
C962 C963 1.391 . S
C963 H951 0.950 . S
C963 C959 1.393 . S
C963 C962 1.391 . S
H964 C972 0.950 . S
H965 C977 0.950 . S
H966 C974 0.950 . S
H967 C976 0.950 . S
H968 C978 0.950 . S
H969 C980 0.950 . S
H970 C982 0.950 . S
H971 C983 0.950 . S
C972 H964 0.950 . S
C972 C973 1.386 . S
C972 C974 1.391 . S
C973 C972 1.386 . S
C973 C977 1.393 . S
C974 H966 0.950 . S
C974 C972 1.391 . S
C974 C975 1.400 . S
C975 C974 1.400 . S
C975 C976 1.398 . S
C975 C981 1.491 . S
C976 H967 0.950 . S
C976 C975 1.398 . S
C976 C977 1.391 . S
C977 H965 0.950 . S
C977 C973 1.393 . S
C977 C976 1.391 . S
C978 H968 0.950 . S
C978 C979 1.386 . S
C978 C980 1.391 . S
C979 C978 1.386 . S
C979 C983 1.393 . S
C980 H969 0.950 . S
C980 C978 1.391 . S
C980 C981 1.400 . S
C981 C975 1.491 . S
C981 C980 1.400 . S
C981 C982 1.398 . S
C982 H970 0.950 . S
C982 C981 1.398 . S
C982 C983 1.391 . S
C983 H971 0.950 . S
C983 C979 1.393 . S
C983 C982 1.391 . S
H984 C992 0.950 . S
H985 C997 0.950 . S
H986 C994 0.950 . S
H987 C996 0.950 . S
H988 C998 0.950 . S
H989 C1000 0.950 . S
H990 C1002 0.950 . S
H991 C1003 0.950 . S
C992 H984 0.950 . S
C992 C993 1.386 . S
C992 C994 1.391 . S
C993 C992 1.386 . S
C993 C997 1.393 . S
C994 H986 0.950 . S
C994 C992 1.391 . S
C994 C995 1.400 . S
C995 C994 1.400 . S
C995 C996 1.398 . S
C995 C1001 1.491 . S
C996 H987 0.950 . S
C996 C995 1.398 . S
C996 C997 1.391 . S
C997 H985 0.950 . S
C997 C993 1.393 . S
C997 C996 1.391 . S
C998 H988 0.950 . S
C998 C999 1.386 . S
C998 C1000 1.391 . S
C999 C998 1.386 . S
C999 C1003 1.393 . S
C1000 H989 0.950 . S
C1000 C998 1.391 . S
C1000 C1001 1.400 . S
C1001 C995 1.491 . S
C1001 C1000 1.400 . S
C1001 C1002 1.398 . S
C1002 H990 0.950 . S
C1002 C1001 1.398 . S
C1002 C1003 1.391 . S
C1003 H991 0.950 . S
C1003 C999 1.393 . S
C1003 C1002 1.391 . S
H1004 C1012 0.950 . S
H1005 C1017 0.950 . S
H1006 C1014 0.950 . S
H1007 C1016 0.950 . S
H1008 C1018 0.950 . S
H1009 C1020 0.950 . S
H1010 C1022 0.950 . S
H1011 C1023 0.950 . S
C1012 H1004 0.950 . S
C1012 C1013 1.386 . S
C1012 C1014 1.391 . S
C1013 C1012 1.386 . S
C1013 C1017 1.393 . S
C1014 H1006 0.950 . S
C1014 C1012 1.391 . S
C1014 C1015 1.400 . S
C1015 C1014 1.400 . S
C1015 C1016 1.398 . S
C1015 C1021 1.491 1_455 S
C1016 H1007 0.950 . S
C1016 C1015 1.398 . S
C1016 C1017 1.391 . S
C1017 H1005 0.950 . S
C1017 C1013 1.393 . S
C1017 C1016 1.391 . S
C1018 H1008 0.950 . S
C1018 C1019 1.386 . S
C1018 C1020 1.391 . S
C1019 C1018 1.386 . S
C1019 C1023 1.393 . S
C1020 H1009 0.950 . S
C1020 C1018 1.391 . S
C1020 C1021 1.400 . S
C1021 C1015 1.491 1_655 S
C1021 C1020 1.400 . S
C1021 C1022 1.398 . S
C1022 H1010 0.950 . S
C1022 C1021 1.398 . S
C1022 C1023 1.391 . S
C1023 H1011 0.950 . S
C1023 C1019 1.393 . S
C1023 C1022 1.391 . S
H1024 C1032 0.950 . S
H1025 C1037 0.950 . S
H1026 C1034 0.950 . S
H1027 C1036 0.950 . S
H1028 C1038 0.950 . S
H1029 C1040 0.950 . S
H1030 C1042 0.950 . S
H1031 C1043 0.950 . S
C1032 H1024 0.950 . S
C1032 C1033 1.386 . S
C1032 C1034 1.391 . S
C1033 C1032 1.386 . S
C1033 C1037 1.393 . S
C1034 H1026 0.950 . S
C1034 C1032 1.391 . S
C1034 C1035 1.400 . S
C1035 C1034 1.400 . S
C1035 C1036 1.398 . S
C1035 C1041 1.491 . S
C1036 H1027 0.950 . S
C1036 C1035 1.398 . S
C1036 C1037 1.391 . S
C1037 H1025 0.950 . S
C1037 C1033 1.393 . S
C1037 C1036 1.391 . S
C1038 H1028 0.950 . S
C1038 C1039 1.386 . S
C1038 C1040 1.391 . S
C1039 C1038 1.386 . S
C1039 C1043 1.393 . S
C1040 H1029 0.950 . S
C1040 C1038 1.391 . S
C1040 C1041 1.400 . S
C1041 C1035 1.491 . S
C1041 C1040 1.400 . S
C1041 C1042 1.398 . S
C1042 H1030 0.950 . S
C1042 C1041 1.398 . S
C1042 C1043 1.391 . S
C1043 H1031 0.950 . S
C1043 C1039 1.393 . S
C1043 C1042 1.391 . S
H1044 C1052 0.950 . S
H1045 C1057 0.950 . S
H1046 C1054 0.950 . S
H1047 C1056 0.950 . S
H1048 C1058 0.950 . S
H1049 C1060 0.950 . S
H1050 C1062 0.950 . S
H1051 C1063 0.950 . S
C1052 H1044 0.950 . S
C1052 C1053 1.386 . S
C1052 C1054 1.391 . S
C1053 C1052 1.386 . S
C1053 C1057 1.393 . S
C1054 H1046 0.950 . S
C1054 C1052 1.391 . S
C1054 C1055 1.400 . S
C1055 C1054 1.400 . S
C1055 C1056 1.398 . S
C1055 C1061 1.491 1_655 S
C1056 H1047 0.950 . S
C1056 C1055 1.398 . S
C1056 C1057 1.391 . S
C1057 H1045 0.950 . S
C1057 C1053 1.393 . S
C1057 C1056 1.391 . S
C1058 H1048 0.950 . S
C1058 C1059 1.386 . S
C1058 C1060 1.391 . S
C1059 C1058 1.386 . S
C1059 C1063 1.393 . S
C1060 H1049 0.950 . S
C1060 C1058 1.391 . S
C1060 C1061 1.400 . S
C1061 C1055 1.491 1_455 S
C1061 C1060 1.400 . S
C1061 C1062 1.398 . S
C1062 H1050 0.950 . S
C1062 C1061 1.398 . S
C1062 C1063 1.391 . S
C1063 H1051 0.950 . S
C1063 C1059 1.393 . S
C1063 C1062 1.391 . S
H1064 C1072 0.950 . S
H1065 C1077 0.950 . S
H1066 C1074 0.950 . S
H1067 C1076 0.950 . S
H1068 C1078 0.950 . S
H1069 C1080 0.950 . S
H1070 C1082 0.950 . S
H1071 C1083 0.950 . S
C1072 H1064 0.950 . S
C1072 C1073 1.386 . S
C1072 C1074 1.391 . S
C1073 C1072 1.386 . S
C1073 C1077 1.393 . S
C1074 H1066 0.950 . S
C1074 C1072 1.391 . S
C1074 C1075 1.400 . S
C1075 C1074 1.400 . S
C1075 C1076 1.398 . S
C1075 C1081 1.491 . S
C1076 H1067 0.950 . S
C1076 C1075 1.398 . S
C1076 C1077 1.391 . S
C1077 H1065 0.950 . S
C1077 C1073 1.393 . S
C1077 C1076 1.391 . S
C1078 H1068 0.950 . S
C1078 C1079 1.386 . S
C1078 C1080 1.391 . S
C1079 C1078 1.386 . S
C1079 C1083 1.393 . S
C1080 H1069 0.950 . S
C1080 C1078 1.391 . S
C1080 C1081 1.400 . S
C1081 C1075 1.491 . S
C1081 C1080 1.400 . S
C1081 C1082 1.398 . S
C1082 H1070 0.950 . S
C1082 C1081 1.398 . S
C1082 C1083 1.391 . S
C1083 H1071 0.950 . S
C1083 C1079 1.393 . S
C1083 C1082 1.391 . S
H1084 C1092 0.950 . S
H1085 C1097 0.950 . S
H1086 C1094 0.950 . S
H1087 C1096 0.950 . S
H1088 C1098 0.950 . S
H1089 C1100 0.950 . S
H1090 C1102 0.950 . S
H1091 C1103 0.950 . S
C1092 H1084 0.950 . S
C1092 C1093 1.386 . S
C1092 C1094 1.391 . S
C1093 C1092 1.386 . S
C1093 C1097 1.393 . S
C1094 H1086 0.950 . S
C1094 C1092 1.391 . S
C1094 C1095 1.400 . S
C1095 C1094 1.400 . S
C1095 C1096 1.398 . S
C1095 C1101 1.491 . S
C1096 H1087 0.950 . S
C1096 C1095 1.398 . S
C1096 C1097 1.391 . S
C1097 H1085 0.950 . S
C1097 C1093 1.393 . S
C1097 C1096 1.391 . S
C1098 H1088 0.950 . S
C1098 C1099 1.386 . S
C1098 C1100 1.391 . S
C1099 C1098 1.386 . S
C1099 C1103 1.393 . S
C1100 H1089 0.950 . S
C1100 C1098 1.391 . S
C1100 C1101 1.400 . S
C1101 C1095 1.491 . S
C1101 C1100 1.400 . S
C1101 C1102 1.398 . S
C1102 H1090 0.950 . S
C1102 C1101 1.398 . S
C1102 C1103 1.391 . S
C1103 H1091 0.950 . S
C1103 C1099 1.393 . S
C1103 C1102 1.391 . S
H1104 C1112 0.950 . S
H1105 C1117 0.950 . S
H1106 C1114 0.950 . S
H1107 C1116 0.950 . S
H1108 C1118 0.950 . S
H1109 C1120 0.950 . S
H1110 C1122 0.950 . S
H1111 C1123 0.950 . S
C1112 H1104 0.950 . S
C1112 C1113 1.386 . S
C1112 C1114 1.391 . S
C1113 C1112 1.386 . S
C1113 C1117 1.393 . S
C1114 H1106 0.950 . S
C1114 C1112 1.391 . S
C1114 C1115 1.400 . S
C1115 C1114 1.400 . S
C1115 C1116 1.398 . S
C1115 C1121 1.491 . S
C1116 H1107 0.950 . S
C1116 C1115 1.398 . S
C1116 C1117 1.391 . S
C1117 H1105 0.950 . S
C1117 C1113 1.393 . S
C1117 C1116 1.391 . S
C1118 H1108 0.950 . S
C1118 C1119 1.386 . S
C1118 C1120 1.391 . S
C1119 C1118 1.386 . S
C1119 C1123 1.393 . S
C1120 H1109 0.950 . S
C1120 C1118 1.391 . S
C1120 C1121 1.400 . S
C1121 C1115 1.491 . S
C1121 C1120 1.400 . S
C1121 C1122 1.398 . S
C1122 H1110 0.950 . S
C1122 C1121 1.398 . S
C1122 C1123 1.391 . S
C1123 H1111 0.950 . S
C1123 C1119 1.393 . S
C1123 C1122 1.391 . S
H1124 C1132 0.950 . S
H1125 C1137 0.950 . S
H1126 C1134 0.950 . S
H1127 C1136 0.950 . S
H1128 C1138 0.950 . S
H1129 C1140 0.950 . S
H1130 C1142 0.950 . S
H1131 C1143 0.950 . S
C1132 H1124 0.950 . S
C1132 C1133 1.386 . S
C1132 C1134 1.391 . S
C1133 C1132 1.386 . S
C1133 C1137 1.393 . S
C1134 H1126 0.950 . S
C1134 C1132 1.391 . S
C1134 C1135 1.400 . S
C1135 C1134 1.400 . S
C1135 C1136 1.398 . S
C1135 C1141 1.491 . S
C1136 H1127 0.950 . S
C1136 C1135 1.398 . S
C1136 C1137 1.391 . S
C1137 H1125 0.950 . S
C1137 C1133 1.393 . S
C1137 C1136 1.391 . S
C1138 H1128 0.950 . S
C1138 C1139 1.386 . S
C1138 C1140 1.391 . S
C1139 C1138 1.386 . S
C1139 C1143 1.393 . S
C1140 H1129 0.950 . S
C1140 C1138 1.391 . S
C1140 C1141 1.400 . S
C1141 C1135 1.491 . S
C1141 C1140 1.400 . S
C1141 C1142 1.398 . S
C1142 H1130 0.950 . S
C1142 C1141 1.398 . S
C1142 C1143 1.391 . S
C1143 H1131 0.950 . S
C1143 C1139 1.393 . S
C1143 C1142 1.391 . S
H1144 C1152 0.950 . S
H1145 C1157 0.950 . S
H1146 C1154 0.950 . S
H1147 C1156 0.950 . S
H1148 C1158 0.950 . S
H1149 C1160 0.950 . S
H1150 C1162 0.950 . S
H1151 C1163 0.950 . S
C1152 H1144 0.950 . S
C1152 C1153 1.386 . S
C1152 C1154 1.391 . S
C1153 C1152 1.386 . S
C1153 C1157 1.393 . S
C1154 H1146 0.950 . S
C1154 C1152 1.391 . S
C1154 C1155 1.400 . S
C1155 C1154 1.400 . S
C1155 C1156 1.398 . S
C1155 C1161 1.491 . S
C1156 H1147 0.950 . S
C1156 C1155 1.398 . S
C1156 C1157 1.391 . S
C1157 H1145 0.950 . S
C1157 C1153 1.393 . S
C1157 C1156 1.391 . S
C1158 H1148 0.950 . S
C1158 C1159 1.386 . S
C1158 C1160 1.391 . S
C1159 C1158 1.386 . S
C1159 C1163 1.393 . S
C1160 H1149 0.950 . S
C1160 C1158 1.391 . S
C1160 C1161 1.400 . S
C1161 C1155 1.491 . S
C1161 C1160 1.400 . S
C1161 C1162 1.398 . S
C1162 H1150 0.950 . S
C1162 C1161 1.398 . S
C1162 C1163 1.391 . S
C1163 H1151 0.950 . S
C1163 C1159 1.393 . S
C1163 C1162 1.391 . S
H1164 C1172 0.950 . S
H1165 C1177 0.950 . S
H1166 C1174 0.950 . S
H1167 C1176 0.950 . S
H1168 C1178 0.950 . S
H1169 C1180 0.950 . S
H1170 C1182 0.950 . S
H1171 C1183 0.950 . S
C1172 H1164 0.950 . S
C1172 C1173 1.386 . S
C1172 C1174 1.391 . S
C1173 C1172 1.386 . S
C1173 C1177 1.393 . S
C1174 H1166 0.950 . S
C1174 C1172 1.391 . S
C1174 C1175 1.400 . S
C1175 C1174 1.400 . S
C1175 C1176 1.398 . S
C1175 C1181 1.491 . S
C1176 H1167 0.950 . S
C1176 C1175 1.398 . S
C1176 C1177 1.391 . S
C1177 H1165 0.950 . S
C1177 C1173 1.393 . S
C1177 C1176 1.391 . S
C1178 H1168 0.950 . S
C1178 C1179 1.386 . S
C1178 C1180 1.391 . S
C1179 C1178 1.386 . S
C1179 C1183 1.393 . S
C1180 H1169 0.950 . S
C1180 C1178 1.391 . S
C1180 C1181 1.400 . S
C1181 C1175 1.491 . S
C1181 C1180 1.400 . S
C1181 C1182 1.398 . S
C1182 H1170 0.950 . S
C1182 C1181 1.398 . S
C1182 C1183 1.391 . S
C1183 H1171 0.950 . S
C1183 C1179 1.393 . S
C1183 C1182 1.391 . S
H1184 C1192 0.950 . S
H1185 C1197 0.950 . S
H1186 C1194 0.950 . S
H1187 C1196 0.950 . S
H1188 C1198 0.950 . S
H1189 C1200 0.950 . S
H1190 C1202 0.950 . S
H1191 C1203 0.950 . S
C1192 H1184 0.950 . S
C1192 C1193 1.386 . S
C1192 C1194 1.391 . S
C1193 C1192 1.386 . S
C1193 C1197 1.393 . S
C1194 H1186 0.950 . S
C1194 C1192 1.391 . S
C1194 C1195 1.400 . S
C1195 C1194 1.400 . S
C1195 C1196 1.398 . S
C1195 C1201 1.491 1_455 S
C1196 H1187 0.950 . S
C1196 C1195 1.398 . S
C1196 C1197 1.391 . S
C1197 H1185 0.950 . S
C1197 C1193 1.393 . S
C1197 C1196 1.391 . S
C1198 H1188 0.950 . S
C1198 C1199 1.386 . S
C1198 C1200 1.391 . S
C1199 C1198 1.386 . S
C1199 C1203 1.393 . S
C1200 H1189 0.950 . S
C1200 C1198 1.391 . S
C1200 C1201 1.400 . S
C1201 C1195 1.491 1_655 S
C1201 C1200 1.400 . S
C1201 C1202 1.398 . S
C1202 H1190 0.950 . S
C1202 C1201 1.398 . S
C1202 C1203 1.391 . S
C1203 H1191 0.950 . S
C1203 C1199 1.393 . S
C1203 C1202 1.391 . S
H1204 C1212 0.950 . S
H1205 C1217 0.950 . S
H1206 C1214 0.950 . S
H1207 C1216 0.950 . S
H1208 C1218 0.950 . S
H1209 C1220 0.950 . S
H1210 C1222 0.950 . S
H1211 C1223 0.950 . S
C1212 H1204 0.950 . S
C1212 C1213 1.386 . S
C1212 C1214 1.391 . S
C1213 C1212 1.386 . S
C1213 C1217 1.393 . S
C1214 H1206 0.950 . S
C1214 C1212 1.391 . S
C1214 C1215 1.400 . S
C1215 C1214 1.400 . S
C1215 C1216 1.398 . S
C1215 C1221 1.491 . S
C1216 H1207 0.950 . S
C1216 C1215 1.398 . S
C1216 C1217 1.391 . S
C1217 H1205 0.950 . S
C1217 C1213 1.393 . S
C1217 C1216 1.391 . S
C1218 H1208 0.950 . S
C1218 C1219 1.386 . S
C1218 C1220 1.391 . S
C1219 C1218 1.386 . S
C1219 C1223 1.393 . S
C1220 H1209 0.950 . S
C1220 C1218 1.391 . S
C1220 C1221 1.400 . S
C1221 C1215 1.491 . S
C1221 C1220 1.400 . S
C1221 C1222 1.398 . S
C1222 H1210 0.950 . S
C1222 C1221 1.398 . S
C1222 C1223 1.391 . S
C1223 H1211 0.950 . S
C1223 C1219 1.393 . S
C1223 C1222 1.391 . S
H1224 C1232 0.950 . S
H1225 C1237 0.950 . S
H1226 C1234 0.950 . S
H1227 C1236 0.950 . S
H1228 C1238 0.950 . S
H1229 C1240 0.950 . S
H1230 C1242 0.950 . S
H1231 C1243 0.950 . S
C1232 H1224 0.950 . S
C1232 C1233 1.386 . S
C1232 C1234 1.391 . S
C1233 C1232 1.386 . S
C1233 C1237 1.393 . S
C1234 H1226 0.950 . S
C1234 C1232 1.391 . S
C1234 C1235 1.400 . S
C1235 C1234 1.400 . S
C1235 C1236 1.398 . S
C1235 C1241 1.491 . S
C1236 H1227 0.950 . S
C1236 C1235 1.398 . S
C1236 C1237 1.391 . S
C1237 H1225 0.950 . S
C1237 C1233 1.393 . S
C1237 C1236 1.391 . S
C1238 H1228 0.950 . S
C1238 C1239 1.386 . S
C1238 C1240 1.391 . S
C1239 C1238 1.386 . S
C1239 C1243 1.393 . S
C1240 H1229 0.950 . S
C1240 C1238 1.391 . S
C1240 C1241 1.400 . S
C1241 C1235 1.491 . S
C1241 C1240 1.400 . S
C1241 C1242 1.398 . S
C1242 H1230 0.950 . S
C1242 C1241 1.398 . S
C1242 C1243 1.391 . S
C1243 H1231 0.950 . S
C1243 C1239 1.393 . S
C1243 C1242 1.391 . S
H1244 C1252 0.950 . S
H1245 C1257 0.950 . S
H1246 C1254 0.950 . S
H1247 C1256 0.950 . S
H1248 C1258 0.950 . S
H1249 C1260 0.950 . S
H1250 C1262 0.950 . S
H1251 C1263 0.950 . S
C1252 H1244 0.950 . S
C1252 C1253 1.386 . S
C1252 C1254 1.391 . S
C1253 C1252 1.386 . S
C1253 C1257 1.393 . S
C1254 H1246 0.950 . S
C1254 C1252 1.391 . S
C1254 C1255 1.400 . S
C1255 C1254 1.400 . S
C1255 C1256 1.398 . S
C1255 C1261 1.491 1_455 S
C1256 H1247 0.950 . S
C1256 C1255 1.398 . S
C1256 C1257 1.391 . S
C1257 H1245 0.950 . S
C1257 C1253 1.393 . S
C1257 C1256 1.391 . S
C1258 H1248 0.950 . S
C1258 C1259 1.386 . S
C1258 C1260 1.391 . S
C1259 C1258 1.386 . S
C1259 C1263 1.393 . S
C1260 H1249 0.950 . S
C1260 C1258 1.391 . S
C1260 C1261 1.400 . S
C1261 C1255 1.491 1_655 S
C1261 C1260 1.400 . S
C1261 C1262 1.398 . S
C1262 H1250 0.950 . S
C1262 C1261 1.398 . S
C1262 C1263 1.391 . S
C1263 H1251 0.950 . S
C1263 C1259 1.393 . S
C1263 C1262 1.391 . S
H1264 C1272 0.950 . S
H1265 C1277 0.950 . S
H1266 C1274 0.950 . S
H1267 C1276 0.950 . S
H1268 C1278 0.950 . S
H1269 C1280 0.950 . S
H1270 C1282 0.950 . S
H1271 C1283 0.950 . S
C1272 H1264 0.950 . S
C1272 C1273 1.386 . S
C1272 C1274 1.391 . S
C1273 C1272 1.386 . S
C1273 C1277 1.393 . S
C1274 H1266 0.950 . S
C1274 C1272 1.391 . S
C1274 C1275 1.400 . S
C1275 C1274 1.400 . S
C1275 C1276 1.398 . S
C1275 C1281 1.491 1_554 S
C1276 H1267 0.950 . S
C1276 C1275 1.398 . S
C1276 C1277 1.391 . S
C1277 H1265 0.950 . S
C1277 C1273 1.393 . S
C1277 C1276 1.391 . S
C1278 H1268 0.950 . S
C1278 C1279 1.386 . S
C1278 C1280 1.391 . S
C1279 C1278 1.386 . S
C1279 C1283 1.393 . S
C1280 H1269 0.950 . S
C1280 C1278 1.391 . S
C1280 C1281 1.400 . S
C1281 C1275 1.491 1_556 S
C1281 C1280 1.400 . S
C1281 C1282 1.398 . S
C1282 H1270 0.950 . S
C1282 C1281 1.398 . S
C1282 C1283 1.391 . S
C1283 H1271 0.950 . S
C1283 C1279 1.393 . S
C1283 C1282 1.391 . S
H1284 C1292 0.950 . S
H1285 C1297 0.950 . S
H1286 C1294 0.950 . S
H1287 C1296 0.950 . S
H1288 C1298 0.950 . S
H1289 C1300 0.950 . S
H1290 C1302 0.950 . S
H1291 C1303 0.950 . S
C1292 H1284 0.950 . S
C1292 C1293 1.386 . S
C1292 C1294 1.391 . S
C1293 C1292 1.386 . S
C1293 C1297 1.393 . S
C1294 H1286 0.950 . S
C1294 C1292 1.391 . S
C1294 C1295 1.400 . S
C1295 C1294 1.400 . S
C1295 C1296 1.398 . S
C1295 C1301 1.491 . S
C1296 H1287 0.950 . S
C1296 C1295 1.398 . S
C1296 C1297 1.391 . S
C1297 H1285 0.950 . S
C1297 C1293 1.393 . S
C1297 C1296 1.391 . S
C1298 H1288 0.950 . S
C1298 C1299 1.386 . S
C1298 C1300 1.391 . S
C1299 C1298 1.386 . S
C1299 C1303 1.393 . S
C1300 H1289 0.950 . S
C1300 C1298 1.391 . S
C1300 C1301 1.400 . S
C1301 C1295 1.491 . S
C1301 C1300 1.400 . S
C1301 C1302 1.398 . S
C1302 H1290 0.950 . S
C1302 C1301 1.398 . S
C1302 C1303 1.391 . S
C1303 H1291 0.950 . S
C1303 C1299 1.393 . S
C1303 C1302 1.391 . S
H1304 C1312 0.950 . S
H1305 C1317 0.950 . S
H1306 C1314 0.950 . S
H1307 C1316 0.950 . S
H1308 C1318 0.950 . S
H1309 C1320 0.950 . S
H1310 C1322 0.950 . S
H1311 C1323 0.950 . S
C1312 H1304 0.950 . S
C1312 C1313 1.386 . S
C1312 C1314 1.391 . S
C1313 C1312 1.386 . S
C1313 C1317 1.393 . S
C1314 H1306 0.950 . S
C1314 C1312 1.391 . S
C1314 C1315 1.400 . S
C1315 C1314 1.400 . S
C1315 C1316 1.398 . S
C1315 C1321 1.491 . S
C1316 H1307 0.950 . S
C1316 C1315 1.398 . S
C1316 C1317 1.391 . S
C1317 H1305 0.950 . S
C1317 C1313 1.393 . S
C1317 C1316 1.391 . S
C1318 H1308 0.950 . S
C1318 C1319 1.386 . S
C1318 C1320 1.391 . S
C1319 C1318 1.386 . S
C1319 C1323 1.393 . S
C1320 H1309 0.950 . S
C1320 C1318 1.391 . S
C1320 C1321 1.400 . S
C1321 C1315 1.491 . S
C1321 C1320 1.400 . S
C1321 C1322 1.398 . S
C1322 H1310 0.950 . S
C1322 C1321 1.398 . S
C1322 C1323 1.391 . S
C1323 H1311 0.950 . S
C1323 C1319 1.393 . S
C1323 C1322 1.391 . S
H1324 C1332 0.950 . S
H1325 C1337 0.950 . S
H1326 C1334 0.950 . S
H1327 C1336 0.950 . S
H1328 C1338 0.950 . S
H1329 C1340 0.950 . S
H1330 C1342 0.950 . S
H1331 C1343 0.950 . S
C1332 H1324 0.950 . S
C1332 C1333 1.386 . S
C1332 C1334 1.391 . S
C1333 C1332 1.386 . S
C1333 C1337 1.393 . S
C1334 H1326 0.950 . S
C1334 C1332 1.391 . S
C1334 C1335 1.400 . S
C1335 C1334 1.400 . S
C1335 C1336 1.398 . S
C1335 C1341 1.491 . S
C1336 H1327 0.950 . S
C1336 C1335 1.398 . S
C1336 C1337 1.391 . S
C1337 H1325 0.950 . S
C1337 C1333 1.393 . S
C1337 C1336 1.391 . S
C1338 H1328 0.950 . S
C1338 C1339 1.386 . S
C1338 C1340 1.391 . S
C1339 C1338 1.386 . S
C1339 C1343 1.393 . S
C1340 H1329 0.950 . S
C1340 C1338 1.391 . S
C1340 C1341 1.400 . S
C1341 C1335 1.491 . S
C1341 C1340 1.400 . S
C1341 C1342 1.398 . S
C1342 H1330 0.950 . S
C1342 C1341 1.398 . S
C1342 C1343 1.391 . S
C1343 H1331 0.950 . S
C1343 C1339 1.393 . S
C1343 C1342 1.391 . S
H1344 C1352 0.950 . S
H1345 C1357 0.950 . S
H1346 C1354 0.950 . S
H1347 C1356 0.950 . S
H1348 C1358 0.950 . S
H1349 C1360 0.950 . S
H1350 C1362 0.950 . S
H1351 C1363 0.950 . S
C1352 H1344 0.950 . S
C1352 C1353 1.386 . S
C1352 C1354 1.391 . S
C1353 C1352 1.386 . S
C1353 C1357 1.393 . S
C1354 H1346 0.950 . S
C1354 C1352 1.391 . S
C1354 C1355 1.400 . S
C1355 C1354 1.400 . S
C1355 C1356 1.398 . S
C1355 C1361 1.491 1_556 S
C1356 H1347 0.950 . S
C1356 C1355 1.398 . S
C1356 C1357 1.391 . S
C1357 H1345 0.950 . S
C1357 C1353 1.393 . S
C1357 C1356 1.391 . S
C1358 H1348 0.950 . S
C1358 C1359 1.386 . S
C1358 C1360 1.391 . S
C1359 C1358 1.386 . S
C1359 C1363 1.393 . S
C1360 H1349 0.950 . S
C1360 C1358 1.391 . S
C1360 C1361 1.400 . S
C1361 C1355 1.491 1_554 S
C1361 C1360 1.400 . S
C1361 C1362 1.398 . S
C1362 H1350 0.950 . S
C1362 C1361 1.398 . S
C1362 C1363 1.391 . S
C1363 H1351 0.950 . S
C1363 C1359 1.393 . S
C1363 C1362 1.391 . S
H1364 C1372 0.950 . S
H1365 C1377 0.950 . S
H1366 C1374 0.950 . S
H1367 C1376 0.950 . S
H1368 C1378 0.950 . S
H1369 C1380 0.950 . S
H1370 C1382 0.950 . S
H1371 C1383 0.950 . S
C1372 H1364 0.950 . S
C1372 C1373 1.386 . S
C1372 C1374 1.391 . S
C1373 C1372 1.386 . S
C1373 C1377 1.393 . S
C1374 H1366 0.950 . S
C1374 C1372 1.391 . S
C1374 C1375 1.400 . S
C1375 C1374 1.400 . S
C1375 C1376 1.398 . S
C1375 C1381 1.491 . S
C1376 H1367 0.950 . S
C1376 C1375 1.398 . S
C1376 C1377 1.391 . S
C1377 H1365 0.950 . S
C1377 C1373 1.393 . S
C1377 C1376 1.391 . S
C1378 H1368 0.950 . S
C1378 C1379 1.386 . S
C1378 C1380 1.391 . S
C1379 C1378 1.386 . S
C1379 C1383 1.393 . S
C1380 H1369 0.950 . S
C1380 C1378 1.391 . S
C1380 C1381 1.400 . S
C1381 C1375 1.491 . S
C1381 C1380 1.400 . S
C1381 C1382 1.398 . S
C1382 H1370 0.950 . S
C1382 C1381 1.398 . S
C1382 C1383 1.391 . S
C1383 H1371 0.950 . S
C1383 C1379 1.393 . S
C1383 C1382 1.391 . S
H1384 C1392 0.950 . S
H1385 C1397 0.950 . S
H1386 C1394 0.950 . S
H1387 C1396 0.950 . S
H1388 C1398 0.950 . S
H1389 C1400 0.950 . S
H1390 C1402 0.950 . S
H1391 C1403 0.950 . S
C1392 H1384 0.950 . S
C1392 C1393 1.386 . S
C1392 C1394 1.391 . S
C1393 C1392 1.386 . S
C1393 C1397 1.393 . S
C1394 H1386 0.950 . S
C1394 C1392 1.391 . S
C1394 C1395 1.400 . S
C1395 C1394 1.400 . S
C1395 C1396 1.398 . S
C1395 C1401 1.491 . S
C1396 H1387 0.950 . S
C1396 C1395 1.398 . S
C1396 C1397 1.391 . S
C1397 H1385 0.950 . S
C1397 C1393 1.393 . S
C1397 C1396 1.391 . S
C1398 H1388 0.950 . S
C1398 C1399 1.386 . S
C1398 C1400 1.391 . S
C1399 C1398 1.386 . S
C1399 C1403 1.393 . S
C1400 H1389 0.950 . S
C1400 C1398 1.391 . S
C1400 C1401 1.400 . S
C1401 C1395 1.491 . S
C1401 C1400 1.400 . S
C1401 C1402 1.398 . S
C1402 H1390 0.950 . S
C1402 C1401 1.398 . S
C1402 C1403 1.391 . S
C1403 H1391 0.950 . S
C1403 C1399 1.393 . S
C1403 C1402 1.391 . S
H1404 C1412 0.950 . S
H1405 C1417 0.950 . S
H1406 C1414 0.950 . S
H1407 C1416 0.950 . S
H1408 C1418 0.950 . S
H1409 C1420 0.950 . S
H1410 C1422 0.950 . S
H1411 C1423 0.950 . S
C1412 H1404 0.950 . S
C1412 C1413 1.386 . S
C1412 C1414 1.391 . S
C1413 C1412 1.386 . S
C1413 C1417 1.393 . S
C1414 H1406 0.950 . S
C1414 C1412 1.391 . S
C1414 C1415 1.400 . S
C1415 C1414 1.400 . S
C1415 C1416 1.398 . S
C1415 C1421 1.491 . S
C1416 H1407 0.950 . S
C1416 C1415 1.398 . S
C1416 C1417 1.391 . S
C1417 H1405 0.950 . S
C1417 C1413 1.393 . S
C1417 C1416 1.391 . S
C1418 H1408 0.950 . S
C1418 C1419 1.386 . S
C1418 C1420 1.391 . S
C1419 C1418 1.386 . S
C1419 C1423 1.393 . S
C1420 H1409 0.950 . S
C1420 C1418 1.391 . S
C1420 C1421 1.400 . S
C1421 C1415 1.491 . S
C1421 C1420 1.400 . S
C1421 C1422 1.398 . S
C1422 H1410 0.950 . S
C1422 C1421 1.398 . S
C1422 C1423 1.391 . S
C1423 H1411 0.950 . S
C1423 C1419 1.393 . S
C1423 C1422 1.391 . S
H1424 C1432 0.950 . S
H1425 C1437 0.950 . S
H1426 C1434 0.950 . S
H1427 C1436 0.950 . S
H1428 C1438 0.950 . S
H1429 C1440 0.950 . S
H1430 C1442 0.950 . S
H1431 C1443 0.950 . S
C1432 H1424 0.950 . S
C1432 C1433 1.386 . S
C1432 C1434 1.391 . S
C1433 C1432 1.386 . S
C1433 C1437 1.393 . S
C1434 H1426 0.950 . S
C1434 C1432 1.391 . S
C1434 C1435 1.400 . S
C1435 C1434 1.400 . S
C1435 C1436 1.398 . S
C1435 C1441 1.491 1_545 S
C1436 H1427 0.950 . S
C1436 C1435 1.398 . S
C1436 C1437 1.391 . S
C1437 H1425 0.950 . S
C1437 C1433 1.393 . S
C1437 C1436 1.391 . S
C1438 H1428 0.950 . S
C1438 C1439 1.386 . S
C1438 C1440 1.391 . S
C1439 C1438 1.386 . S
C1439 C1443 1.393 . S
C1440 H1429 0.950 . S
C1440 C1438 1.391 . S
C1440 C1441 1.400 . S
C1441 C1435 1.491 1_565 S
C1441 C1440 1.400 . S
C1441 C1442 1.398 . S
C1442 H1430 0.950 . S
C1442 C1441 1.398 . S
C1442 C1443 1.391 . S
C1443 H1431 0.950 . S
C1443 C1439 1.393 . S
C1443 C1442 1.391 . S
H1444 C1452 0.950 . S
H1445 C1457 0.950 . S
H1446 C1454 0.950 . S
H1447 C1456 0.950 . S
H1448 C1458 0.950 . S
H1449 C1460 0.950 . S
H1450 C1462 0.950 . S
H1451 C1463 0.950 . S
C1452 H1444 0.950 . S
C1452 C1453 1.386 . S
C1452 C1454 1.391 . S
C1453 C1452 1.386 . S
C1453 C1457 1.393 . S
C1454 H1446 0.950 . S
C1454 C1452 1.391 . S
C1454 C1455 1.400 . S
C1455 C1454 1.400 . S
C1455 C1456 1.398 . S
C1455 C1461 1.491 . S
C1456 H1447 0.950 . S
C1456 C1455 1.398 . S
C1456 C1457 1.391 . S
C1457 H1445 0.950 . S
C1457 C1453 1.393 . S
C1457 C1456 1.391 . S
C1458 H1448 0.950 . S
C1458 C1459 1.386 . S
C1458 C1460 1.391 . S
C1459 C1458 1.386 . S
C1459 C1463 1.393 . S
C1460 H1449 0.950 . S
C1460 C1458 1.391 . S
C1460 C1461 1.400 . S
C1461 C1455 1.491 . S
C1461 C1460 1.400 . S
C1461 C1462 1.398 . S
C1462 H1450 0.950 . S
C1462 C1461 1.398 . S
C1462 C1463 1.391 . S
C1463 H1451 0.950 . S
C1463 C1459 1.393 . S
C1463 C1462 1.391 . S
H1464 C1472 0.950 . S
H1465 C1477 0.950 . S
H1466 C1474 0.909 1_565 S
H1467 C1476 0.950 . S
H1468 C1478 0.950 . S
H1469 C1480 0.928 1_545 S
H1470 C1482 0.950 . S
H1471 C1483 0.950 . S
C1472 H1464 0.950 . S
C1472 C1473 1.386 . S
C1472 C1474 1.391 . S
C1473 C1472 1.386 . S
C1473 C1477 1.393 . S
C1474 H1466 0.909 1_545 S
C1474 C1472 1.391 . S
C1474 C1475 1.400 . S
C1475 C1474 1.400 . S
C1475 C1476 1.398 1_556 S
C1475 C1481 1.491 1_546 S
C1476 H1467 0.950 . S
C1476 C1475 1.398 1_554 S
C1476 C1477 1.391 1_554 S
C1477 H1465 0.950 . S
C1477 C1473 1.393 . S
C1477 C1476 1.391 1_556 S
C1478 H1468 0.950 . S
C1478 C1479 1.386 . S
C1478 C1480 1.391 . S
C1479 C1478 1.386 . S
C1479 C1483 1.393 . S
C1480 H1469 0.928 1_565 S
C1480 C1478 1.391 . S
C1480 C1481 1.400 . S
C1481 C1475 1.491 1_564 S
C1481 C1480 1.400 . S
C1481 C1482 1.398 1_554 S
C1482 H1470 0.950 . S
C1482 C1481 1.398 1_556 S
C1482 C1483 1.391 1_556 S
C1483 H1471 0.950 . S
C1483 C1479 1.393 . S
C1483 C1482 1.391 1_554 S
H1484 C1492 0.950 . S
H1485 C1497 0.950 . S
H1486 C1494 0.950 . S
H1487 C1496 0.950 . S
H1488 C1498 0.950 . S
H1489 C1500 0.950 . S
H1490 C1502 0.950 . S
H1491 C1503 0.950 . S
C1492 H1484 0.950 . S
C1492 C1493 1.386 . S
C1492 C1494 1.391 . S
C1493 C1492 1.386 . S
C1493 C1497 1.393 . S
C1494 H1486 0.950 . S
C1494 C1492 1.391 . S
C1494 C1495 1.400 . S
C1495 C1494 1.400 . S
C1495 C1496 1.398 . S
C1495 C1501 1.491 . S
C1496 H1487 0.950 . S
C1496 C1495 1.398 . S
C1496 C1497 1.391 . S
C1497 H1485 0.950 . S
C1497 C1493 1.393 . S
C1497 C1496 1.391 . S
C1498 H1488 0.950 . S
C1498 C1499 1.386 . S
C1498 C1500 1.391 . S
C1499 C1498 1.386 . S
C1499 C1503 1.393 . S
C1500 H1489 0.950 . S
C1500 C1498 1.391 . S
C1500 C1501 1.400 . S
C1501 C1495 1.491 . S
C1501 C1500 1.400 . S
C1501 C1502 1.398 . S
C1502 H1490 0.950 . S
C1502 C1501 1.398 . S
C1502 C1503 1.391 . S
C1503 H1491 0.950 . S
C1503 C1499 1.393 . S
C1503 C1502 1.391 . S
H1504 C1512 0.950 . S
H1505 C1517 0.950 . S
H1506 C1514 0.950 . S
H1507 C1516 0.977 . S
H1508 C1518 0.950 . S
H1509 C1520 0.950 . S
H1510 C1522 0.974 . S
H1511 C1523 0.950 . S
C1512 H1504 0.950 . S
C1512 C1513 1.386 . S
C1512 C1514 1.391 . S
C1513 C1512 1.386 . S
C1513 C1517 1.393 . S
C1514 H1506 0.950 . S
C1514 C1512 1.391 . S
C1514 C1515 1.400 . S
C1515 C1514 1.400 . S
C1515 C1516 1.398 . S
C1515 C1521 1.491 1_545 S
C1516 H1507 0.977 . S
C1516 C1515 1.398 . S
C1516 C1517 1.391 . S
C1517 H1505 0.950 . S
C1517 C1513 1.393 . S
C1517 C1516 1.391 . S
C1518 H1508 0.950 . S
C1518 C1519 1.386 . S
C1518 C1520 1.391 . S
C1519 C1518 1.386 . S
C1519 C1523 1.393 . S
C1520 H1509 0.950 . S
C1520 C1518 1.391 . S
C1520 C1521 1.400 . S
C1521 C1515 1.491 1_565 S
C1521 C1520 1.400 . S
C1521 C1522 1.398 . S
C1522 H1510 0.974 . S
C1522 C1521 1.398 . S
C1522 C1523 1.391 . S
C1523 H1511 0.950 . S
C1523 C1519 1.393 . S
C1523 C1522 1.391 . S
H1524 C1532 0.950 . S
H1525 C1537 0.950 . S
H1526 C1534 0.950 . S
H1527 C1536 0.950 . S
H1528 C1538 0.950 . S
H1529 C1540 0.950 . S
H1530 C1542 0.950 . S
H1531 C1543 0.950 . S
C1532 H1524 0.950 . S
C1532 C1533 1.386 . S
C1532 C1534 1.391 . S
C1533 C1532 1.386 . S
C1533 C1537 1.393 . S
C1534 H1526 0.950 . S
C1534 C1532 1.391 . S
C1534 C1535 1.400 . S
C1535 C1534 1.400 . S
C1535 C1536 1.398 . S
C1535 C1541 1.491 . S
C1536 H1527 0.950 . S
C1536 C1535 1.398 . S
C1536 C1537 1.391 . S
C1537 H1525 0.950 . S
C1537 C1533 1.393 . S
C1537 C1536 1.391 . S
C1538 H1528 0.950 . S
C1538 C1539 1.386 . S
C1538 C1540 1.391 . S
C1539 C1538 1.386 . S
C1539 C1543 1.393 . S
C1540 H1529 0.950 . S
C1540 C1538 1.391 . S
C1540 C1541 1.400 . S
C1541 C1535 1.491 . S
C1541 C1540 1.400 . S
C1541 C1542 1.398 . S
C1542 H1530 0.950 . S
C1542 C1541 1.398 . S
C1542 C1543 1.391 . S
C1543 H1531 0.950 . S
C1543 C1539 1.393 . S
C1543 C1542 1.391 . S
H1544 C1552 0.950 1_556 S
H1545 C1557 0.950 . S
H1546 C1554 0.950 . S
H1547 C1556 0.950 1_545 S
H1548 C1558 0.950 1_554 S
H1549 C1560 0.950 . S
H1550 C1562 0.950 1_565 S
H1551 C1563 0.950 . S
C1552 H1544 0.950 1_554 S
C1552 C1553 1.386 . S
C1552 C1554 1.391 1_554 S
C1553 C1552 1.386 . S
C1553 C1557 1.393 . S
C1554 H1546 0.950 . S
C1554 C1552 1.391 1_556 S
C1554 C1555 1.400 1_556 S
C1555 C1554 1.400 1_554 S
C1555 C1556 1.398 . S
C1555 C1561 1.491 1_564 S
C1556 H1547 0.950 1_565 S
C1556 C1555 1.398 . S
C1556 C1557 1.391 . S
C1557 H1545 0.950 . S
C1557 C1553 1.393 . S
C1557 C1556 1.391 . S
C1558 H1548 0.950 1_556 S
C1558 C1559 1.386 . S
C1558 C1560 1.391 1_556 S
C1559 C1558 1.386 . S
C1559 C1563 1.393 . S
C1560 H1549 0.950 . S
C1560 C1558 1.391 1_554 S
C1560 C1561 1.400 1_554 S
C1561 C1555 1.491 1_546 S
C1561 C1560 1.400 1_556 S
C1561 C1562 1.398 . S
C1562 H1550 0.950 1_545 S
C1562 C1561 1.398 . S
C1562 C1563 1.391 . S
C1563 H1551 0.950 . S
C1563 C1559 1.393 . S
C1563 C1562 1.391 . S
H1564 C1572 0.950 . S
H1565 C1577 0.950 . S
H1566 C1574 0.950 . S
H1567 C1576 0.950 . S
H1568 C1578 0.950 . S
H1569 C1580 0.950 . S
H1570 C1582 0.950 . S
H1571 C1583 0.950 . S
C1572 H1564 0.950 . S
C1572 C1573 1.386 . S
C1572 C1574 1.391 . S
C1573 C1572 1.386 . S
C1573 C1577 1.393 . S
C1574 H1566 0.950 . S
C1574 C1572 1.391 . S
C1574 C1575 1.400 . S
C1575 C1574 1.400 . S
C1575 C1576 1.398 . S
C1575 C1581 1.491 . S
C1576 H1567 0.950 . S
C1576 C1575 1.398 . S
C1576 C1577 1.391 . S
C1577 H1565 0.950 . S
C1577 C1573 1.393 . S
C1577 C1576 1.391 . S
C1578 H1568 0.950 . S
C1578 C1579 1.386 . S
C1578 C1580 1.391 . S
C1579 C1578 1.386 . S
C1579 C1583 1.393 . S
C1580 H1569 0.950 . S
C1580 C1578 1.391 . S
C1580 C1581 1.400 . S
C1581 C1575 1.491 . S
C1581 C1580 1.400 . S
C1581 C1582 1.398 . S
C1582 H1570 0.950 . S
C1582 C1581 1.398 . S
C1582 C1583 1.391 . S
C1583 H1571 0.950 . S
C1583 C1579 1.393 . S
C1583 C1582 1.391 . S
C953 C701 1.417 . S
C959 C33 1.412 . S
C973 C937 1.411 . S
C979 C111 1.411 . S
C993 C170 1.415 . S
C999 C564 1.410 . S
C1013 C819 1.415 . S
C1019 C210 1.411 . S
C1033 C269 1.409 . S
C1039 C800 1.415 . S
C1053 C347 1.410 . S
C1059 C682 1.412 . S
C1073 C406 1.409 . S
C1079 C918 1.413 . S
C1093 C446 1.409 . S
C1099 C583 1.414 . S
C1113 C229 1.414 . S
C1119 C505 1.410 . S
C1133 C642 1.411 . S
C1139 C92 1.407 . S
C1153 C741 1.409 . S
C1159 C328 1.415 . S
C1173 C878 1.414 . S
C1179 C465 1.408 . S
C1193 C288 1.410 . S
C1199 C524 1.415 . S
C1213 C623 1.414 . S
C1219 C387 1.409 . S
C1233 C859 1.413 . S
C1239 C151 1.408 . S
C1253 C52 1.412 . S
C1259 C760 1.414 . S
C1273 C3 1.391 . S
C1279 C239 1.390 . S
C1293 C64 1.401 . S
C1299 C300 1.396 . S
C1313 C123 1.397 . S
C1319 C359 1.405 . S
C1333 C416 1.389 . S
C1339 C180 1.401 . S
C1353 C475 1.392 . S
C1359 C711 1.393 . S
C1373 C772 1.402 . S
C1379 C536 1.394 . S
C1393 C595 1.405 . S
C1399 C831 1.399 . S
C1413 C890 1.397 . S
C1419 C652 1.393 . S
C1433 C418 1.392 . S
C1439 C62 1.391 . S
C1453 C121 1.401 . S
C1459 C241 1.400 . S
C1473 C182 1.400 . S
C1479 C298 1.399 . S
C1493 C5 1.399 . S
C1499 C357 1.396 . S
C1513 C534 1.387 . S
C1519 C888 1.400 . S
C1533 C713 1.409 . S
C1539 C593 1.390 . S
C1553 C654 1.397 . S
C1559 C770 1.399 . S
C1573 C829 1.382 . S
C1579 C477 1.396 . S
