# Generated by pormake.
# Topology ukc, (4)-cn, num edge types: 1
# Building blocks:
#     Node 0, Type 0, BuildingBlock: KUFVIS_clean_sbu_0, # of connection points: 4
#     Node 1, Type 0, BuildingBlock: KUFVIS_clean_sbu_0, # of connection points: 4
#     Node 2, Type 0, BuildingBlock: KUFVIS_clean_sbu_0, # of connection points: 4
#     Node 3, Type 0, BuildingBlock: KUFVIS_clean_sbu_0, # of connection points: 4
#     Node 4, Type 0, BuildingBlock: KUFVIS_clean_sbu_0, # of connection points: 4
#     Node 5, Type 0, BuildingBlock: KUFVIS_clean_sbu_0, # of connection points: 4
#     Node 6, Type 0, BuildingBlock: KUFVIS_clean_sbu_0, # of connection points: 4
#     Node 7, Type 0, BuildingBlock: KUFVIS_clean_sbu_0, # of connection points: 4
#     Node 8, Type 0, BuildingBlock: KUFVIS_clean_sbu_0, # of connection points: 4
#     Node 9, Type 0, BuildingBlock: KUFVIS_clean_sbu_0, # of connection points: 4
#     Node 10, Type 0, BuildingBlock: KUFVIS_clean_sbu_0, # of connection points: 4
#     Node 11, Type 0, BuildingBlock: KUFVIS_clean_sbu_0, # of connection points: 4
#     Node 12, Type 0, BuildingBlock: KUFVIS_clean_sbu_0, # of connection points: 4
#     Node 13, Type 0, BuildingBlock: KUFVIS_clean_sbu_0, # of connection points: 4
#     Node 14, Type 0, BuildingBlock: KUFVIS_clean_sbu_0, # of connection points: 4
#     Node 15, Type 0, BuildingBlock: KUFVIS_clean_sbu_0, # of connection points: 4
#     Node 16, Type 0, BuildingBlock: KUFVIS_clean_sbu_0, # of connection points: 4
#     Node 17, Type 0, BuildingBlock: KUFVIS_clean_sbu_0, # of connection points: 4
#     Node 18, Type 0, BuildingBlock: KUFVIS_clean_sbu_0, # of connection points: 4
#     Node 19, Type 0, BuildingBlock: KUFVIS_clean_sbu_0, # of connection points: 4
#     Node 20, Type 0, BuildingBlock: KUFVIS_clean_sbu_0, # of connection points: 4
#     Node 21, Type 0, BuildingBlock: KUFVIS_clean_sbu_0, # of connection points: 4
#     Node 22, Type 0, BuildingBlock: KUFVIS_clean_sbu_0, # of connection points: 4
#     Node 23, Type 0, BuildingBlock: KUFVIS_clean_sbu_0, # of connection points: 4
#     Node 24, Type 0, BuildingBlock: KUFVIS_clean_sbu_0, # of connection points: 4
#     Node 25, Type 0, BuildingBlock: KUFVIS_clean_sbu_0, # of connection points: 4
#     Node 26, Type 0, BuildingBlock: KUFVIS_clean_sbu_0, # of connection points: 4
#     Node 27, Type 0, BuildingBlock: KUFVIS_clean_sbu_0, # of connection points: 4
#     Node 28, Type 0, BuildingBlock: KUFVIS_clean_sbu_0, # of connection points: 4
#     Node 29, Type 0, BuildingBlock: KUFVIS_clean_sbu_0, # of connection points: 4
#     Node 30, Type 0, BuildingBlock: KUFVIS_clean_sbu_0, # of connection points: 4
#     Node 31, Type 0, BuildingBlock: KUFVIS_clean_sbu_0, # of connection points: 4
#     Edge 32, Type (0, 0), BuildingBlock: AJUNOK_clean_linker_0, # of connection points: 2
#     Edge 33, Type (0, 0), BuildingBlock: AJUNOK_clean_linker_0, # of connection points: 2
#     Edge 34, Type (0, 0), BuildingBlock: AJUNOK_clean_linker_0, # of connection points: 2
#     Edge 35, Type (0, 0), BuildingBlock: AJUNOK_clean_linker_0, # of connection points: 2
#     Edge 36, Type (0, 0), BuildingBlock: AJUNOK_clean_linker_0, # of connection points: 2
#     Edge 37, Type (0, 0), BuildingBlock: AJUNOK_clean_linker_0, # of connection points: 2
#     Edge 38, Type (0, 0), BuildingBlock: AJUNOK_clean_linker_0, # of connection points: 2
#     Edge 39, Type (0, 0), BuildingBlock: AJUNOK_clean_linker_0, # of connection points: 2
#     Edge 40, Type (0, 0), BuildingBlock: AJUNOK_clean_linker_0, # of connection points: 2
#     Edge 41, Type (0, 0), BuildingBlock: AJUNOK_clean_linker_0, # of connection points: 2
#     Edge 42, Type (0, 0), BuildingBlock: AJUNOK_clean_linker_0, # of connection points: 2
#     Edge 43, Type (0, 0), BuildingBlock: AJUNOK_clean_linker_0, # of connection points: 2
#     Edge 44, Type (0, 0), BuildingBlock: AJUNOK_clean_linker_0, # of connection points: 2
#     Edge 45, Type (0, 0), BuildingBlock: AJUNOK_clean_linker_0, # of connection points: 2
#     Edge 46, Type (0, 0), BuildingBlock: AJUNOK_clean_linker_0, # of connection points: 2
#     Edge 47, Type (0, 0), BuildingBlock: AJUNOK_clean_linker_0, # of connection points: 2
#     Edge 48, Type (0, 0), BuildingBlock: AJUNOK_clean_linker_0, # of connection points: 2
#     Edge 49, Type (0, 0), BuildingBlock: AJUNOK_clean_linker_0, # of connection points: 2
#     Edge 50, Type (0, 0), BuildingBlock: AJUNOK_clean_linker_0, # of connection points: 2
#     Edge 51, Type (0, 0), BuildingBlock: AJUNOK_clean_linker_0, # of connection points: 2
#     Edge 52, Type (0, 0), BuildingBlock: AJUNOK_clean_linker_0, # of connection points: 2
#     Edge 53, Type (0, 0), BuildingBlock: AJUNOK_clean_linker_0, # of connection points: 2
#     Edge 54, Type (0, 0), BuildingBlock: AJUNOK_clean_linker_0, # of connection points: 2
#     Edge 55, Type (0, 0), BuildingBlock: AJUNOK_clean_linker_0, # of connection points: 2
#     Edge 56, Type (0, 0), BuildingBlock: AJUNOK_clean_linker_0, # of connection points: 2
#     Edge 57, Type (0, 0), BuildingBlock: AJUNOK_clean_linker_0, # of connection points: 2
#     Edge 58, Type (0, 0), BuildingBlock: AJUNOK_clean_linker_0, # of connection points: 2
#     Edge 59, Type (0, 0), BuildingBlock: AJUNOK_clean_linker_0, # of connection points: 2
#     Edge 60, Type (0, 0), BuildingBlock: AJUNOK_clean_linker_0, # of connection points: 2
#     Edge 61, Type (0, 0), BuildingBlock: AJUNOK_clean_linker_0, # of connection points: 2
#     Edge 62, Type (0, 0), BuildingBlock: AJUNOK_clean_linker_0, # of connection points: 2
#     Edge 63, Type (0, 0), BuildingBlock: AJUNOK_clean_linker_0, # of connection points: 2
#     Edge 64, Type (0, 0), BuildingBlock: AJUNOK_clean_linker_0, # of connection points: 2
#     Edge 65, Type (0, 0), BuildingBlock: AJUNOK_clean_linker_0, # of connection points: 2
#     Edge 66, Type (0, 0), BuildingBlock: AJUNOK_clean_linker_0, # of connection points: 2
#     Edge 67, Type (0, 0), BuildingBlock: AJUNOK_clean_linker_0, # of connection points: 2
#     Edge 68, Type (0, 0), BuildingBlock: AJUNOK_clean_linker_0, # of connection points: 2
#     Edge 69, Type (0, 0), BuildingBlock: AJUNOK_clean_linker_0, # of connection points: 2
#     Edge 70, Type (0, 0), BuildingBlock: AJUNOK_clean_linker_0, # of connection points: 2
#     Edge 71, Type (0, 0), BuildingBlock: AJUNOK_clean_linker_0, # of connection points: 2
#     Edge 72, Type (0, 0), BuildingBlock: AJUNOK_clean_linker_0, # of connection points: 2
#     Edge 73, Type (0, 0), BuildingBlock: AJUNOK_clean_linker_0, # of connection points: 2
#     Edge 74, Type (0, 0), BuildingBlock: AJUNOK_clean_linker_0, # of connection points: 2
#     Edge 75, Type (0, 0), BuildingBlock: AJUNOK_clean_linker_0, # of connection points: 2
#     Edge 76, Type (0, 0), BuildingBlock: AJUNOK_clean_linker_0, # of connection points: 2
#     Edge 77, Type (0, 0), BuildingBlock: AJUNOK_clean_linker_0, # of connection points: 2
#     Edge 78, Type (0, 0), BuildingBlock: AJUNOK_clean_linker_0, # of connection points: 2
#     Edge 79, Type (0, 0), BuildingBlock: AJUNOK_clean_linker_0, # of connection points: 2
#     Edge 80, Type (0, 0), BuildingBlock: AJUNOK_clean_linker_0, # of connection points: 2
#     Edge 81, Type (0, 0), BuildingBlock: AJUNOK_clean_linker_0, # of connection points: 2
#     Edge 82, Type (0, 0), BuildingBlock: AJUNOK_clean_linker_0, # of connection points: 2
#     Edge 83, Type (0, 0), BuildingBlock: AJUNOK_clean_linker_0, # of connection points: 2
#     Edge 84, Type (0, 0), BuildingBlock: AJUNOK_clean_linker_0, # of connection points: 2
#     Edge 85, Type (0, 0), BuildingBlock: AJUNOK_clean_linker_0, # of connection points: 2
#     Edge 86, Type (0, 0), BuildingBlock: AJUNOK_clean_linker_0, # of connection points: 2
#     Edge 87, Type (0, 0), BuildingBlock: AJUNOK_clean_linker_0, # of connection points: 2
#     Edge 88, Type (0, 0), BuildingBlock: AJUNOK_clean_linker_0, # of connection points: 2
#     Edge 89, Type (0, 0), BuildingBlock: AJUNOK_clean_linker_0, # of connection points: 2
#     Edge 90, Type (0, 0), BuildingBlock: AJUNOK_clean_linker_0, # of connection points: 2
#     Edge 91, Type (0, 0), BuildingBlock: AJUNOK_clean_linker_0, # of connection points: 2
#     Edge 92, Type (0, 0), BuildingBlock: AJUNOK_clean_linker_0, # of connection points: 2
#     Edge 93, Type (0, 0), BuildingBlock: AJUNOK_clean_linker_0, # of connection points: 2
#     Edge 94, Type (0, 0), BuildingBlock: AJUNOK_clean_linker_0, # of connection points: 2
#     Edge 95, Type (0, 0), BuildingBlock: AJUNOK_clean_linker_0, # of connection points: 2
# Relax obj value: 0.037
# Max RMSD: 0.055
# Mean RMSD: 0.055
data_MOF--net-ukc--node1-KUFVIS_clean_sbu_0--edge1-AJUNOK_clean_linker_0
_symmetry_space_group_name_H-M    P1
_symmetry_Int_Tables_number       1
_symmetry_cell_setting            triclinic
loop_
_symmetry_equiv_pos_as_xyz
'x, y, z'
_cell_length_a     32.3657
_cell_length_b     32.363239
_cell_length_c     64.377231
_cell_angle_alpha  90.031424
_cell_angle_beta   90.049554
_cell_angle_gamma 89.977919
loop_
_atom_site_label
_atom_site_type_symbol
_atom_site_fract_x
_atom_site_fract_y
_atom_site_fract_z
_atom_type_partial_charge
Mn0 Mn 0.10094 0.38231 0.07066 0.0
Mn1 Mn 0.08538 0.35642 1.02041 0.0
C2 C 0.05374 0.33005 0.06259 0.0
C3 C 0.12671 0.38206 0.10509 0.0
C4 C 0.05692 0.43646 0.0391 0.0
O5 O 0.15478 0.40115 0.05584 0.0
O6 O 0.14296 0.37739 1.02308 0.0
C7 C 0.14371 0.2966 1.00195 0.0
N8 N 0.10428 0.30491 1.0081 0.0
C9 C 0.0806 0.25214 0.97895 0.0
C10 C 0.12232 0.24702 0.97449 0.0
C11 C 0.15275 0.2682 0.98591 0.0
C12 C 0.07214 0.28657 0.9985 0.0
H13 H 0.16923 0.31303 1.00892 0.0
C14 C 0.16622 0.39446 0.03689 0.0
O15 O 0.11125 0.41446 0.09649 0.0
O16 O 0.1315 0.35007 0.09301 0.0
N17 N 0.02965 0.33667 1.01871 0.0
C18 C 0.99469 0.35594 0.02535 0.0
C19 C 0.95566 0.33794 1.02319 0.0
C20 C 0.94929 0.29997 1.01341 0.0
C21 C 0.98258 0.27919 1.00283 0.0
C22 C 0.0282 0.3005 1.00904 0.0
H23 H 0.99629 0.38499 0.03341 0.0
O24 O 0.0496 0.353 0.07901 0.0
O25 O 0.08526 0.33868 0.05042 0.0
O26 O 0.06627 0.42854 0.05769 0.0
O27 O 0.06495 0.4118 1.02466 0.0
C28 C 0.9932 0.22413 0.97289 0.0
C29 C 0.04486 0.22179 0.96657 0.0
H30 H 0.13166 0.22557 0.96247 0.0
H31 H 0.18481 0.26312 0.98188 0.0
H32 H 0.92925 0.35408 0.02957 0.0
H33 H 0.91749 0.28986 1.0134 0.0
H34 H 0.97163 0.20457 0.96425 0.0
H35 H 0.05485 0.2005 0.95463 0.0
Mn36 Mn 0.87523 0.85171 0.31925 0.0
Mn37 Mn 0.90329 0.83768 0.2693 0.0
C38 C 0.92765 0.80459 0.31158 0.0
C39 C 0.87492 0.8776 0.35357 0.0
C40 C 0.82175 0.80996 0.28677 0.0
O41 O 0.85703 0.90569 0.30448 0.0
O42 O 0.88333 0.89578 0.27208 0.0
C43 C 0.96488 0.89486 0.2515 0.0
N44 N 0.95565 0.85559 0.25757 0.0
C45 C 0.00915 0.83094 0.22898 0.0
C46 C 0.01514 0.87255 0.22456 0.0
C47 C 0.99404 0.90337 0.23575 0.0
C48 C 0.97381 0.82312 0.24815 0.0
H49 H 0.94861 0.92067 0.25829 0.0
C50 C 0.86544 0.91838 0.28593 0.0
O51 O 0.8426 0.86202 0.3449 0.0
O52 O 0.90713 0.88217 0.34165 0.0
N53 N 0.92204 0.78154 0.26765 0.0
C54 C 0.90191 0.7469 0.27403 0.0
C55 C 0.91949 0.7076 0.27222 0.0
C56 C 0.95794 0.70061 0.26307 0.0
C57 C 0.97974 0.73352 0.25272 0.0
C58 C 0.95878 0.77948 0.25858 0.0
H59 H 0.87245 0.74895 0.28165 0.0
O60 O 0.90404 0.80022 0.32774 0.0
O61 O 0.91965 0.8364 0.29947 0.0
O62 O 0.82921 0.81743 0.30564 0.0
O63 O 0.84736 0.81847 0.27286 0.0
C64 C 0.03619 0.74306 0.2234 0.0
C65 C 0.03951 0.79464 0.217 0.0
H66 H 0.03722 0.8815 0.21277 0.0
H67 H 0.99984 0.93534 0.23177 0.0
H68 H 0.90264 0.68146 0.27841 0.0
H69 H 0.96764 0.66869 0.2633 0.0
H70 H 0.05579 0.72112 0.21503 0.0
H71 H 0.06145 0.80424 0.2053 0.0
Mn72 Mn 0.41021 0.62817 0.56899 0.0
Mn73 Mn 0.42365 0.65287 0.51833 0.0
C74 C 0.45836 0.67903 0.56004 0.0
C75 C 0.38584 0.63099 0.6037 0.0
C76 C 0.44937 0.57155 0.53691 0.0
O77 O 0.35464 0.61159 0.55518 0.0
O78 O 0.36495 0.63525 0.52217 0.0
C79 C 0.36828 0.71282 0.49789 0.0
N80 N 0.40688 0.70456 0.50531 0.0
C81 C 0.43304 0.75938 0.47775 0.0
C82 C 0.39184 0.76546 0.47258 0.0
C83 C 0.36057 0.74283 0.48247 0.0
C84 C 0.43989 0.72265 0.49641 0.0
H85 H 0.34251 0.69453 0.50288 0.0
C86 C 0.34212 0.61941 0.53654 0.0
O87 O 0.39914 0.5974 0.59532 0.0
O88 O 0.38316 0.66294 0.59148 0.0
N89 N 0.48035 0.66999 0.51607 0.0
C90 C 0.51473 0.64931 0.52247 0.0
C91 C 0.55432 0.66647 0.5209 0.0
C92 C 0.56186 0.70544 0.51235 0.0
C93 C 0.52934 0.72831 0.50225 0.0
C94 C 0.48304 0.70687 0.50716 0.0
H95 H 0.51226 0.61969 0.5299 0.0
O96 O 0.46321 0.65565 0.57627 0.0
O97 O 0.426 0.67115 0.5483 0.0
O98 O 0.44191 0.57968 0.55572 0.0
O99 O 0.44152 0.59702 0.52287 0.0
C100 C 0.52086 0.7869 0.47389 0.0
C101 C 0.46975 0.79062 0.46689 0.0
H102 H 0.3836 0.78823 0.46099 0.0
H103 H 0.32894 0.74786 0.4776 0.0
H104 H 0.58013 0.64921 0.52719 0.0
H105 H 0.59382 0.71495 0.51296 0.0
H106 H 0.54308 0.80709 0.4661 0.0
H107 H 0.46071 0.81332 0.45543 0.0
Mn108 Mn 0.634 0.15857 0.82017 0.0
Mn109 Mn 0.60884 0.17204 0.76978 0.0
C110 C 0.58144 0.20497 0.81149 0.0
C111 C 0.63395 0.13451 0.85485 0.0
C112 C 0.68864 0.20108 0.78845 0.0
O113 O 0.65351 0.10439 0.80584 0.0
O114 O 0.62926 0.11455 0.77302 0.0
C115 C 0.54781 0.11354 0.75242 0.0
N116 N 0.55691 0.15317 0.75795 0.0
C117 C 0.50245 0.17602 0.72948 0.0
C118 C 0.4966 0.13416 0.72559 0.0
C119 C 0.51825 0.10405 0.73698 0.0
C120 C 0.53826 0.18506 0.74832 0.0
H121 H 0.56443 0.08819 0.75943 0.0
C122 C 0.64674 0.09212 0.78701 0.0
O123 O 0.66622 0.14956 0.84601 0.0
O124 O 0.60197 0.12866 0.84287 0.0
N125 N 0.5898 0.22798 0.7675 0.0
C126 C 0.60984 0.26307 0.7734 0.0
C127 C 0.5924 0.30228 0.77078 0.0
C128 C 0.55411 0.30863 0.76132 0.0
C129 C 0.53215 0.27496 0.75163 0.0
C130 C 0.55333 0.2294 0.75811 0.0
H131 H 0.6391 0.26161 0.78124 0.0
O132 O 0.60401 0.21003 0.82799 0.0
O133 O 0.5907 0.17313 0.79968 0.0
O134 O 0.67991 0.19314 0.80709 0.0
O135 O 0.66459 0.19188 0.77391 0.0
C136 C 0.47506 0.26339 0.72275 0.0
C137 C 0.47173 0.21147 0.71715 0.0
H138 H 0.47425 0.12449 0.71406 0.0
H139 H 0.51257 0.07185 0.73342 0.0
H140 H 0.60902 0.32879 0.77676 0.0
H141 H 0.54446 0.34058 0.76093 0.0
H142 H 0.45518 0.28472 0.71415 0.0
H143 H 0.44955 0.20112 0.7057 0.0
Mn144 Mn 0.09966 0.62633 0.48101 0.0
Mn145 Mn 0.08677 0.65189 0.53146 0.0
C146 C 0.05268 0.67851 0.48962 0.0
C147 C 0.12303 0.6262 0.44601 0.0
C148 C 0.06076 0.5705 0.51324 0.0
O149 O 0.15487 0.60876 0.49503 0.0
O150 O 0.14554 0.63486 0.52769 0.0
C151 C 0.14118 0.71227 0.55217 0.0
N152 N 0.10279 0.70374 0.54456 0.0
C153 C 0.07559 0.75792 0.57224 0.0
C154 C 0.11664 0.76429 0.57762 0.0
C155 C 0.14831 0.74212 0.56776 0.0
C156 C 0.06944 0.7214 0.5534 0.0
H157 H 0.16723 0.69432 0.5472 0.0
C158 C 0.16796 0.61799 0.51344 0.0
O159 O 0.10883 0.59388 0.45515 0.0
O160 O 0.12821 0.65852 0.45784 0.0
N161 N 0.02985 0.66854 0.53345 0.0
C162 C 0.99578 0.64776 0.52675 0.0
C163 C 0.95604 0.66467 0.52809 0.0
C164 C 0.94801 0.7035 0.5367 0.0
C165 C 0.98011 0.72649 0.54707 0.0
C166 C 0.02668 0.70541 0.54237 0.0
H167 H 0.99861 0.61828 0.51923 0.0
O168 O 0.0475 0.65503 0.47344 0.0
O169 O 0.08485 0.67019 0.50143 0.0
O170 O 0.06639 0.57946 0.49441 0.0
O171 O 0.06987 0.59536 0.52738 0.0
C172 C 0.98746 0.78477 0.5757 0.0
C173 C 0.03838 0.78875 0.58301 0.0
H174 H 0.12445 0.78697 0.58934 0.0
H175 H 0.17981 0.74739 0.57279 0.0
H176 H 0.93052 0.64733 0.52157 0.0
H177 H 0.916 0.71282 0.53591 0.0
H178 H 0.96489 0.80469 0.58343 0.0
H179 H 0.04698 0.81138 0.5946 0.0
Mn180 Mn 0.63388 0.85106 0.73059 0.0
Mn181 Mn 0.60512 0.83953 0.78058 0.0
C182 C 0.5803 0.80551 0.73864 0.0
C183 C 0.63489 0.87615 0.69611 0.0
C184 C 0.68641 0.80987 0.76358 0.0
O185 O 0.65334 0.90506 0.74503 0.0
O186 O 0.62582 0.89697 0.77729 0.0
C187 C 0.54284 0.89854 0.79626 0.0
N188 N 0.55234 0.85874 0.79124 0.0
C189 C 0.49607 0.83682 0.81893 0.0
C190 C 0.48993 0.87879 0.82236 0.0
C191 C 0.51226 0.90854 0.81108 0.0
C192 C 0.53299 0.82716 0.80075 0.0
H193 H 0.5599 0.92366 0.78933 0.0
C194 C 0.64477 0.91853 0.76344 0.0
O195 O 0.66678 0.85986 0.70486 0.0
O196 O 0.60277 0.88173 0.70799 0.0
N197 N 0.58589 0.78366 0.78292 0.0
C198 C 0.60636 0.74839 0.7777 0.0
C199 C 0.58874 0.70927 0.78029 0.0
C200 C 0.54984 0.70319 0.78913 0.0
C201 C 0.52724 0.73717 0.79814 0.0
C202 C 0.54872 0.78252 0.7916 0.0
H203 H 0.63619 0.74963 0.77044 0.0
O204 O 0.60362 0.79997 0.72246 0.0
O205 O 0.58926 0.83745 0.75042 0.0
O206 O 0.67885 0.81618 0.74461 0.0
O207 O 0.66109 0.8197 0.77746 0.0
C208 C 0.46845 0.74966 0.826 0.0
C209 C 0.46469 0.80176 0.83108 0.0
H210 H 0.46687 0.88883 0.83343 0.0
H211 H 0.50631 0.94084 0.81426 0.0
H212 H 0.60578 0.68258 0.77484 0.0
H213 H 0.5402 0.67125 0.78962 0.0
H214 H 0.44811 0.7286 0.83448 0.0
H215 H 0.44184 0.81247 0.84208 0.0
Mn216 Mn 0.40688 0.384 0.97905 0.0
Mn217 Mn 0.42054 0.35637 0.02912 0.0
C218 C 0.45404 0.33167 0.98701 0.0
C219 C 0.38285 0.385 0.94426 0.0
C220 C 0.44794 0.43781 1.01163 0.0
O221 O 0.35241 0.40182 0.9936 0.0
O222 O 0.36249 0.37611 0.02614 0.0
C223 C 0.36351 0.29499 0.04718 0.0
N224 N 0.40277 0.3042 0.04111 0.0
C225 C 0.42748 0.25193 0.07028 0.0
C226 C 0.38586 0.24588 0.07466 0.0
C227 C 0.35503 0.26638 0.0632 0.0
C228 C 0.43525 0.28662 0.0508 0.0
H229 H 0.33768 0.31089 0.04018 0.0
C230 C 0.33981 0.39369 1.01223 0.0
O231 O 0.39726 0.41716 0.95351 0.0
O232 O 0.3776 0.35248 0.95591 0.0
N233 N 0.47672 0.3379 0.03094 0.0
C234 C 0.51129 0.35799 1.02443 0.0
C235 C 0.55066 0.34065 0.02644 0.0
C236 C 0.55777 0.30257 0.03596 0.0
C237 C 0.52491 0.28098 0.04645 0.0
C238 C 0.47889 0.3015 0.04033 0.0
H239 H 0.50911 0.38716 1.01653 0.0
O240 O 0.45874 0.35537 0.9709 0.0
O241 O 0.42199 0.33963 0.99895 0.0
O242 O 0.44069 0.43016 0.99277 0.0
O243 O 0.43953 0.4123 0.02558 0.0
C244 C 0.51545 0.22551 0.07627 0.0
C245 C 0.46383 0.22217 0.0826 0.0
H246 H 0.37693 0.22418 0.08663 0.0
H247 H 0.32306 0.26056 0.06716 0.0
H248 H 0.57674 0.3574 1.02014 0.0
H249 H 0.58974 0.29301 0.03587 0.0
H250 H 0.53743 0.20631 0.08485 0.0
H251 H 0.45427 0.20058 0.09448 0.0
Mn252 Mn 0.87519 0.15917 0.22907 0.0
Mn253 Mn 0.90191 0.17315 0.27927 0.0
C254 C 0.92748 0.20634 0.23727 0.0
C255 C 0.87575 0.13399 0.19456 0.0
C256 C 0.82082 0.20077 0.26126 0.0
O257 O 0.85699 0.10473 0.24354 0.0
O258 O 0.88168 0.11537 0.27624 0.0
C259 C 0.96244 0.11531 0.29752 0.0
N260 N 0.9537 0.15471 0.29145 0.0
C261 C 0.00631 0.17869 0.32062 0.0
C262 C 0.01188 0.13699 0.325 0.0
C263 C 0.99096 0.10644 0.31354 0.0
C264 C 0.97164 0.18695 0.30116 0.0
H265 H 0.94624 0.08969 0.29051 0.0
C266 C 0.86433 0.09258 0.26232 0.0
O267 O 0.84319 0.14918 0.20314 0.0
O268 O 0.90773 0.12932 0.20666 0.0
N269 N 0.92091 0.22909 0.28119 0.0
C270 C 0.90119 0.2639 0.27468 0.0
C271 C 0.9189 0.30307 0.2768 0.0
C272 C 0.95702 0.30972 0.28639 0.0
C273 C 0.97826 0.27656 0.29687 0.0
C274 C 0.95723 0.23081 0.2907 0.0
H275 H 0.872 0.26204 0.26675 0.0
O276 O 0.90412 0.21095 0.22101 0.0
O277 O 0.91915 0.17442 0.24923 0.0
O278 O 0.82848 0.19302 0.24244 0.0
O279 O 0.84635 0.19276 0.27528 0.0
C280 C 0.03372 0.26631 0.32666 0.0
C281 C 0.03652 0.21464 0.33295 0.0
H282 H 0.0335 0.12777 0.33697 0.0
H283 H 0.99638 0.07439 0.3175 0.0
H284 H 0.90243 0.32938 0.27051 0.0
H285 H 0.96689 0.34159 0.28636 0.0
H286 H 0.05321 0.28802 0.33525 0.0
H287 H 0.05803 0.20478 0.34482 0.0
Mn288 Mn 0.90892 0.62554 0.98156 0.0
Mn289 Mn 0.92208 0.65128 0.0319 0.0
C290 C 0.95588 0.67786 0.98994 0.0
C291 C 0.88454 0.6249 0.94673 0.0
C292 C 0.94791 0.56985 1.01371 0.0
O293 O 0.8541 0.60762 0.99572 0.0
O294 O 0.86316 0.63456 0.02821 0.0
C295 C 0.86823 0.71201 0.05271 0.0
N296 N 0.90649 0.70324 0.04502 0.0
C297 C 0.93423 0.75765 0.07245 0.0
C298 C 0.89328 0.76426 0.07791 0.0
C299 C 0.86141 0.74207 0.06823 0.0
C300 C 0.94001 0.72078 0.05375 0.0
H301 H 0.84208 0.69409 0.04787 0.0
C302 C 0.84089 0.6172 1.01403 0.0
O303 O 0.89926 0.5928 0.95587 0.0
O304 O 0.87979 0.6574 0.95848 0.0
N305 N 0.97913 0.66757 0.0338 0.0
C306 C 0.01305 0.64664 0.02702 0.0
C307 C 0.05287 0.66338 0.02825 0.0
C308 C 0.06116 0.70225 0.03676 0.0
C309 C 0.02927 0.72548 0.04714 0.0
C310 C 0.98257 0.70447 0.04266 0.0
H311 H 0.01005 0.61715 1.01954 0.0
O312 O 0.96079 0.65437 0.97375 0.0
O313 O 0.92387 0.66958 1.00186 0.0
O314 O 0.94264 0.57901 0.99489 0.0
O315 O 0.93854 0.59459 0.02787 0.0
C316 C 0.02246 0.7843 0.07552 0.0
C317 C 0.97166 0.78856 0.08296 0.0
H318 H 0.88571 0.78715 0.08957 0.0
H319 H 0.83 0.74752 0.07332 0.0
H320 H 0.07824 0.64588 1.0217 0.0
H321 H 0.09319 0.71142 0.03587 0.0
H322 H 0.04517 0.80431 0.08309 0.0
H323 H 0.96329 0.81142 0.09447 0.0
Mn324 Mn 0.13273 0.15895 0.72931 0.0
Mn325 Mn 0.10712 0.17285 0.7796 0.0
C326 C 0.08087 0.20622 0.73762 0.0
C327 C 0.13227 0.13381 0.69482 0.0
C328 C 0.18747 0.20123 0.76119 0.0
O329 O 0.15124 0.10473 0.7437 0.0
O330 O 0.12699 0.11472 0.77648 0.0
C331 C 0.04624 0.11536 0.79782 0.0
N332 N 0.05526 0.15472 0.79182 0.0
C333 C 1.0025 0.17894 0.82083 0.0
C334 C 0.9967 0.13727 0.82518 0.0
C335 C 0.01754 0.10662 0.81375 0.0
C336 C 0.03734 0.18705 0.80146 0.0
H337 H 0.06232 0.08965 0.79082 0.0
C338 C 0.14379 0.09199 0.76234 0.0
O339 O 0.16478 0.14899 0.70346 0.0
O340 O 0.10025 0.12908 0.70687 0.0
N341 N 0.08834 0.22895 0.78159 0.0
C342 C 0.1081 0.26373 0.77508 0.0
C343 C 0.09054 0.30297 0.77721 0.0
C344 C 0.05245 0.30979 0.78676 0.0
C345 C 0.03107 0.27671 0.79718 0.0
C346 C 0.05199 0.23085 0.79105 0.0
H347 H 0.1372 0.26187 0.76713 0.0
O348 O 0.10386 0.21064 0.72124 0.0
O349 O 0.08923 0.17427 0.74959 0.0
O350 O 0.17908 0.1929 0.74254 0.0
O351 O 0.16297 0.19241 0.77557 0.0
C352 C 0.97539 0.26668 0.82683 0.0
C353 C 0.97236 0.21502 0.8331 0.0
H354 H 0.97494 0.12814 0.83708 0.0
H355 H 0.01189 0.07459 0.81767 0.0
H356 H 0.10711 0.32922 0.77094 0.0
H357 H 0.04271 0.34171 0.78673 0.0
H358 H 0.95593 0.28846 0.83538 0.0
H359 H 0.95073 0.20524 0.84491 0.0
Mn360 Mn 0.60145 0.38269 0.48018 0.0
Mn361 Mn 0.58679 0.35611 0.53031 0.0
C362 C 0.55432 0.33054 0.48807 0.0
C363 C 0.62712 0.38259 0.44576 0.0
C364 C 0.55825 0.43669 0.51213 0.0
O365 O 0.65534 0.40115 0.49492 0.0
O366 O 0.64486 0.3764 0.52758 0.0
C367 C 0.64432 0.29517 0.54851 0.0
N368 N 0.60502 0.30405 0.54234 0.0
C369 C 0.58062 0.25089 0.57112 0.0
C370 C 0.62225 0.24524 0.57565 0.0
C371 C 0.65296 0.26631 0.56441 0.0
C372 C 0.57263 0.28576 0.55174 0.0
H373 H 0.67004 0.31148 0.5417 0.0
C374 C 0.66776 0.39354 0.51362 0.0
O375 O 0.61179 0.41502 0.45443 0.0
O376 O 0.63174 0.35051 0.45779 0.0
N377 N 0.53078 0.33692 0.53191 0.0
C378 C 0.49602 0.35665 0.52531 0.0
C379 C 0.45683 0.33891 0.52718 0.0
C380 C 0.45004 0.30072 0.53662 0.0
C381 C 0.48305 0.27937 0.54715 0.0
C382 C 0.52892 0.30037 0.54119 0.0
H383 H 0.49787 0.38588 0.51747 0.0
O384 O 0.55001 0.35376 0.47175 0.0
O385 O 0.58601 0.33886 0.50022 0.0
O386 O 0.56706 0.42874 0.49347 0.0
O387 O 0.5669 0.41196 0.52646 0.0
C388 C 0.49287 0.22365 0.57683 0.0
C389 C 0.54447 0.22067 0.58327 0.0
H390 H 0.6313 0.22344 0.58756 0.0
H391 H 0.68495 0.26078 0.56847 0.0
H392 H 0.43062 0.35544 0.52082 0.0
H393 H 0.41817 0.29087 0.53643 0.0
H394 H 0.47103 0.20416 0.5853 0.0
H395 H 0.55417 0.19905 0.59511 0.0
Mn396 Mn 0.37596 0.85043 0.23004 0.0
Mn397 Mn 0.40175 0.83654 0.28033 0.0
C398 C 0.42861 0.80377 0.2384 0.0
C399 C 0.37529 0.87431 0.19522 0.0
C400 C 0.32139 0.80828 0.262 0.0
O401 O 0.35733 0.90491 0.24448 0.0
O402 O 0.38181 0.8944 0.27724 0.0
C403 C 0.46305 0.89416 0.29817 0.0
N404 N 0.45375 0.85475 0.29233 0.0
C405 C 0.50857 0.83077 0.3204 0.0
C406 C 0.51455 0.87247 0.32465 0.0
C407 C 0.49277 0.90303 0.31363 0.0
C408 C 0.4722 0.82247 0.30174 0.0
H409 H 0.44648 0.9198 0.29141 0.0
C410 C 0.36455 0.91715 0.26328 0.0
O411 O 0.34318 0.85963 0.20435 0.0
O412 O 0.4076 0.87994 0.20701 0.0
N413 N 0.42041 0.78037 0.28233 0.0
C414 C 0.40032 0.7455 0.27617 0.0
C415 C 0.41791 0.70621 0.27828 0.0
C416 C 0.45659 0.69953 0.28731 0.0
C417 C 0.47877 0.73279 0.29721 0.0
C418 C 0.45705 0.77857 0.29153 0.0
H419 H 0.37088 0.74726 0.26851 0.0
O420 O 0.40546 0.79878 0.22209 0.0
O421 O 0.41972 0.83558 0.25032 0.0
O422 O 0.3299 0.81614 0.24332 0.0
O423 O 0.3458 0.81722 0.27641 0.0
C424 C 0.53678 0.74329 0.32573 0.0
C425 C 0.53993 0.79491 0.33199 0.0
H426 H 0.53718 0.88168 0.33614 0.0
H427 H 0.49859 0.93508 0.31745 0.0
H428 H 0.40118 0.67992 0.27213 0.0
H429 H 0.46642 0.66764 0.28718 0.0
H430 H 0.55707 0.72167 0.33389 0.0
H431 H 0.56245 0.80482 0.34336 0.0
Mn432 Mn 0.90827 0.38346 0.57086 0.0
Mn433 Mn 0.92291 0.3573 0.5206 0.0
C434 C 0.95544 0.33125 0.5627 0.0
C435 C 0.88295 0.38328 0.60534 0.0
C436 C 0.95162 0.43754 0.53903 0.0
O437 O 0.85406 0.40203 0.55626 0.0
O438 O 0.86521 0.37806 0.52349 0.0
C439 C 0.86455 0.29718 0.5024 0.0
N440 N 0.90403 0.30563 0.50844 0.0
C441 C 0.92748 0.25257 0.47939 0.0
C442 C 0.88574 0.24734 0.47502 0.0
C443 C 0.85539 0.2686 0.48644 0.0
C444 C 0.9361 0.28723 0.49881 0.0
H445 H 0.83907 0.31365 0.50937 0.0
C446 C 0.84216 0.39506 0.5374 0.0
O447 O 0.89829 0.41567 0.59669 0.0
O448 O 0.87812 0.35123 0.59329 0.0
N449 N 0.97871 0.33768 0.51875 0.0
C450 C 0.01372 0.35707 0.52525 0.0
C451 C 0.05276 0.33908 0.52307 0.0
C452 C 0.0591 0.30097 0.51342 0.0
C453 C 0.02573 0.28001 0.50298 0.0
C454 C 0.98013 0.30135 0.50921 0.0
H455 H 0.01217 0.38621 0.53322 0.0
O456 O 0.95982 0.35431 0.57908 0.0
O457 O 0.92369 0.33975 0.55064 0.0
O458 O 0.94267 0.42967 0.55767 0.0
O459 O 0.94324 0.41283 0.52465 0.0
C460 C 0.01488 0.22459 0.47322 0.0
C461 C 0.96315 0.22212 0.46702 0.0
H462 H 0.8763 0.22575 0.46308 0.0
H463 H 0.82329 0.26343 0.4825 0.0
H464 H 0.07922 0.35534 0.52934 0.0
H465 H 0.09091 0.2909 0.51338 0.0
H466 H 0.03639 0.20496 0.4646 0.0
H467 H 0.95306 0.20068 0.45516 0.0
Mn468 Mn 0.37749 0.15851 0.3199 0.0
Mn469 Mn 0.40178 0.17245 0.26948 0.0
C470 C 0.42959 0.20524 0.31129 0.0
C471 C 0.37833 0.134 0.35448 0.0
C472 C 0.32182 0.20044 0.28842 0.0
O473 O 0.35837 0.10435 0.30547 0.0
O474 O 0.38249 0.11425 0.27263 0.0
C475 C 0.46327 0.1156 0.25118 0.0
N476 N 0.45372 0.15486 0.25717 0.0
C477 C 0.50786 0.17961 0.22899 0.0
C478 C 0.5141 0.13801 0.22458 0.0
C479 C 0.49279 0.10715 0.2356 0.0
C480 C 0.47179 0.1874 0.24782 0.0
H481 H 0.44706 0.08975 0.25794 0.0
C482 C 0.36565 0.0916 0.28678 0.0
O483 O 0.3458 0.14908 0.34586 0.0
O484 O 0.41017 0.12859 0.34239 0.0
N485 N 0.41992 0.22886 0.26748 0.0
C486 C 0.39965 0.26355 0.27377 0.0
C487 C 0.41695 0.30298 0.27177 0.0
C488 C 0.45551 0.31003 0.26271 0.0
C489 C 0.47781 0.27706 0.25265 0.0
C490 C 0.4565 0.23104 0.25825 0.0
H491 H 0.3703 0.26156 0.28146 0.0
O492 O 0.40704 0.21002 0.3278 0.0
O493 O 0.42051 0.17348 0.29936 0.0
O494 O 0.3311 0.19293 0.30704 0.0
O495 O 0.34568 0.19123 0.27382 0.0
C496 C 0.53533 0.26735 0.22386 0.0
C497 C 0.53873 0.21584 0.2174 0.0
H498 H 0.53659 0.12911 0.21298 0.0
H499 H 0.49883 0.07519 0.23166 0.0
H500 H 0.40009 0.32907 0.27803 0.0
H501 H 0.46513 0.34198 0.26294 0.0
H502 H 0.55528 0.28922 0.21568 0.0
H503 H 0.56111 0.20623 0.2059 0.0
Mn504 Mn 0.59972 0.62527 0.06917 0.0
Mn505 Mn 0.58498 0.65035 1.01867 0.0
C506 C 0.55232 0.67696 0.0608 0.0
C507 C 0.62498 0.62602 0.10367 0.0
C508 C 0.55765 0.57004 0.03756 0.0
O509 O 0.65405 0.6069 0.05482 0.0
O510 O 0.64347 0.63168 1.02205 0.0
C511 C 0.64075 0.70895 0.99763 0.0
N512 N 0.60223 0.70164 1.00539 0.0
C513 C 0.576 0.75481 0.97695 0.0
C514 C 0.61713 0.75995 0.97145 0.0
C515 C 0.6484 0.73778 0.98164 0.0
C516 C 0.56924 0.71988 0.99647 0.0
H517 H 0.66647 0.69072 1.00279 0.0
C518 C 0.66635 0.61509 0.03621 0.0
O519 O 0.60978 0.59347 0.0951 0.0
O520 O 0.62964 0.65798 0.09157 0.0
N521 N 0.5286 0.66876 1.01692 0.0
C522 C 0.49416 0.64905 1.0239 0.0
C523 C 0.45486 0.66686 1.0225 0.0
C524 C 0.44757 0.7053 1.01335 0.0
C525 C 0.47999 0.72672 1.00247 0.0
C526 C 0.52619 0.70538 1.00768 0.0
H527 H 0.49641 0.61978 0.03168 0.0
O528 O 0.54812 0.65398 0.07721 0.0
O529 O 0.5841 0.66873 0.0487 0.0
O530 O 0.5657 0.57868 0.05621 0.0
O531 O 0.56623 0.59441 1.0231 0.0
C532 C 0.48822 0.78255 0.97273 0.0
C533 C 0.53927 0.78528 0.96548 0.0
H534 H 0.62534 0.78163 0.95934 0.0
H535 H 0.67996 0.74207 0.97653 0.0
H536 H 0.42897 0.65026 0.02911 0.0
H537 H 0.41575 0.71528 1.014 0.0
H538 H 0.46596 0.80218 0.96459 0.0
H539 H 0.54823 0.80682 0.95346 0.0
Mn540 Mn 0.13343 0.85023 0.81826 0.0
Mn541 Mn 0.10533 0.83695 0.76822 0.0
C542 C 0.08044 0.80376 0.81032 0.0
C543 C 0.13371 0.87552 0.8528 0.0
C544 C 0.18673 0.80859 0.78556 0.0
O545 O 0.15182 0.90456 0.80371 0.0
O546 O 0.12535 0.89484 0.77127 0.0
C547 C 0.0432 0.89457 0.75113 0.0
N548 N 0.05275 0.85515 0.75684 0.0
C549 C 0.99685 0.8312 0.7293 0.0
C550 C 0.99065 0.87291 0.72516 0.0
C551 C 0.01284 0.90346 0.73599 0.0
C552 C 0.03392 0.82289 0.7476 0.0
H553 H 0.06005 0.9202 0.75773 0.0
C554 C 0.14357 0.9172 0.7851 0.0
O555 O 0.16596 0.85986 0.8441 0.0
O556 O 0.10163 0.8805 0.8408 0.0
N557 N 0.08668 0.78077 0.76629 0.0
C558 C 0.10717 0.74589 0.77211 0.0
C559 C 0.08954 0.7066 0.77019 0.0
C560 C 0.05042 0.69993 0.76165 0.0
C561 C 0.02774 0.7332 0.75205 0.0
C562 C 0.04957 0.77898 0.75759 0.0
H563 H 0.13701 0.74763 0.77937 0.0
O564 O 0.10402 0.79876 0.82646 0.0
O565 O 0.08896 0.83558 0.79836 0.0
O566 O 0.17925 0.81573 0.80447 0.0
O567 O 0.16128 0.81771 0.77165 0.0
C568 C 0.96865 0.74368 0.7241 0.0
C569 C 0.96514 0.79533 0.71795 0.0
H570 H 0.96757 0.88214 0.71391 0.0
H571 H 0.00684 0.93552 0.73226 0.0
H572 H 0.10662 0.68031 0.77608 0.0
H573 H 0.04065 0.66803 0.76187 0.0
H574 H 0.94813 0.72204 0.71609 0.0
H575 H 0.94218 0.80525 0.7068 0.0
Mn576 Mn 0.60261 0.88484 0.57055 0.0
Mn577 Mn 0.5881 0.85712 0.52051 0.0
C578 C 0.55591 0.83202 0.5627 0.0
C579 C 0.62732 0.88615 0.60515 0.0
C580 C 0.55871 0.93762 0.53832 0.0
O581 O 0.65652 0.90359 0.55582 0.0
O582 O 0.64534 0.87865 0.52323 0.0
C583 C 0.64733 0.79671 0.50333 0.0
N584 N 0.60766 0.80512 0.50902 0.0
C585 C 0.58521 0.75161 0.47997 0.0
C586 C 0.6271 0.74636 0.476 0.0
C587 C 0.65705 0.76782 0.48761 0.0
C588 C 0.57593 0.78623 0.49934 0.0
H589 H 0.67253 0.81345 0.51041 0.0
C590 C 0.66819 0.89648 0.53695 0.0
O591 O 0.61224 0.91811 0.59601 0.0
O592 O 0.63281 0.85368 0.59346 0.0
N593 N 0.53259 0.83698 0.5187 0.0
C594 C 0.49742 0.85644 0.52492 0.0
C595 C 0.45845 0.83859 0.52238 0.0
C596 C 0.45237 0.80073 0.51248 0.0
C597 C 0.48612 0.77971 0.50237 0.0
C598 C 0.53151 0.8006 0.50923 0.0
H599 H 0.49876 0.88556 0.53293 0.0
O600 O 0.55126 0.85543 0.57893 0.0
O601 O 0.58759 0.84053 0.55065 0.0
O602 O 0.5679 0.9303 0.55699 0.0
O603 O 0.56714 0.91263 0.52408 0.0
C604 C 0.49791 0.72441 0.47265 0.0
C605 C 0.5499 0.72152 0.4671 0.0
H606 H 0.63694 0.72472 0.46417 0.0
H607 H 0.68928 0.76267 0.48394 0.0
H608 H 0.43182 0.85486 0.52844 0.0
H609 H 0.4205 0.7909 0.512 0.0
H610 H 0.47664 0.70497 0.46375 0.0
H611 H 0.56037 0.7001 0.45533 0.0
Mn612 Mn 0.3767 0.35057 0.81852 0.0
Mn613 Mn 0.40457 0.33692 0.76832 0.0
C614 C 0.42886 0.30317 0.81055 0.0
C615 C 0.37649 0.37538 0.85316 0.0
C616 C 0.32294 0.30959 0.78589 0.0
O617 O 0.35925 0.40533 0.80422 0.0
O618 O 0.38596 0.3954 0.77178 0.0
C619 C 0.46418 0.39279 0.74811 0.0
N620 N 0.45644 0.35417 0.75563 0.0
C621 C 0.51027 0.3282 0.72746 0.0
C622 C 0.51585 0.36941 0.72223 0.0
C623 C 0.49355 0.4006 0.7324 0.0
C624 C 0.47468 0.32125 0.74666 0.0
H625 H 0.44589 0.41847 0.75323 0.0
C626 C 0.36854 0.418 0.78579 0.0
O627 O 0.34412 0.36037 0.8443 0.0
O628 O 0.40879 0.37997 0.84131 0.0
N629 N 0.42271 0.2805 0.76649 0.0
C630 C 0.40253 0.24604 0.7731 0.0
C631 C 0.4201 0.20665 0.77163 0.0
C632 C 0.45877 0.19932 0.76277 0.0
C633 C 0.48073 0.23183 0.75223 0.0
C634 C 0.45956 0.27805 0.75752 0.0
H635 H 0.37303 0.24832 0.78065 0.0
O636 O 0.40498 0.29862 0.82659 0.0
O637 O 0.42128 0.33526 0.79854 0.0
O638 O 0.33018 0.3171 0.80477 0.0
O639 O 0.34868 0.31832 0.77212 0.0
C640 C 0.53757 0.24031 0.72301 0.0
C641 C 0.54087 0.2915 0.71605 0.0
H642 H 0.53795 0.37774 0.71033 0.0
H643 H 0.49817 0.43224 0.72747 0.0
H644 H 0.40313 0.18074 0.77797 0.0
H645 H 0.46851 0.16742 0.76333 0.0
H646 H 0.55731 0.21809 0.71492 0.0
H647 H 0.56285 0.30058 0.70426 0.0
Mn648 Mn 0.90869 0.12496 0.06887 0.0
Mn649 Mn 0.92282 0.15075 1.01862 0.0
C650 C 0.95566 0.17725 0.06061 0.0
C651 C 0.88454 0.12467 0.10358 0.0
C652 C 0.95103 0.07028 0.03694 0.0
O653 O 0.85421 0.10668 0.05446 0.0
O654 O 0.86494 0.13076 1.02168 0.0
C655 C 0.865 0.21216 1.00099 0.0
N656 N 0.90444 0.20283 1.00676 0.0
C657 C 0.9282 0.2583 0.97903 0.0
C658 C 0.88648 0.26426 0.97482 0.0
C659 C 0.85601 0.24218 0.98571 0.0
C660 C 0.93665 0.22154 0.99746 0.0
H661 H 0.8394 0.19543 1.00767 0.0
C662 C 0.84204 0.11383 0.03566 0.0
O663 O 0.89913 0.09238 0.09454 0.0
O664 O 0.87925 0.15697 0.09177 0.0
N665 N 0.97893 0.16952 1.01662 0.0
C666 C 0.01389 0.14937 1.02265 0.0
C667 C 0.05312 0.16707 1.02059 0.0
C668 C 0.05966 0.20595 1.01177 0.0
C669 C 0.02631 0.22825 1.00202 0.0
C670 C 0.98061 0.20629 1.00758 0.0
H671 H 0.01223 0.11978 0.03015 0.0
O672 O 0.96048 0.15403 0.07689 0.0
O673 O 0.92383 0.16862 0.04865 0.0
O674 O 0.9426 0.07861 0.05558 0.0
O675 O 0.94242 0.09488 1.02255 0.0
C676 C 0.01556 0.28685 0.97386 0.0
C677 C 0.96393 0.29 0.96763 0.0
H678 H 0.87718 0.28712 0.96347 0.0
H679 H 0.82393 0.24801 0.98194 0.0
H680 H 0.07947 0.15028 0.02662 0.0
H681 H 0.09152 0.21584 1.01193 0.0
H682 H 0.0371 0.30738 0.96582 0.0
H683 H 0.95392 0.31275 0.9564 0.0
Mn684 Mn 0.13285 0.65982 0.32019 0.0
Mn685 Mn 0.10697 0.67202 0.26981 0.0
C686 C 0.08014 0.70606 0.31149 0.0
C687 C 0.13222 0.63526 0.35488 0.0
C688 C 0.18783 0.69995 0.28796 0.0
O689 O 0.15187 0.6053 0.30595 0.0
O690 O 0.12614 0.61395 0.27329 0.0
C691 C 0.0451 0.61497 0.25204 0.0
N692 N 0.0548 0.65433 0.25778 0.0
C693 C 1.00089 0.6786 0.22932 0.0
C694 C 0.99446 0.63692 0.22519 0.0
C695 C 0.01558 0.60625 0.23646 0.0
C696 C 0.03695 0.6867 0.24815 0.0
H697 H 0.0612 0.58922 0.25898 0.0
C698 C 0.14379 0.59191 0.28743 0.0
O699 O 0.16462 0.65082 0.34633 0.0
O700 O 0.10049 0.62989 0.34269 0.0
N701 N 0.08904 0.72841 0.26751 0.0
C702 C 0.1095 0.76313 0.27359 0.0
C703 C 0.09233 0.80257 0.27138 0.0
C704 C 0.05375 0.80957 0.26228 0.0
C705 C 0.03131 0.77647 0.25241 0.0
C706 C 0.05241 0.73051 0.2583 0.0
H707 H 0.13891 0.76113 0.28126 0.0
O708 O 0.103 0.71137 0.32788 0.0
O709 O 0.08919 0.67402 0.29976 0.0
O710 O 0.17913 0.69408 0.30682 0.0
O711 O 0.16306 0.69045 0.27381 0.0
C712 C 0.97377 0.76635 0.22361 0.0
C713 C 0.97017 0.7147 0.21746 0.0
H714 H 0.97195 0.62783 0.21362 0.0
H715 H 0.00941 0.57422 0.23273 0.0
H716 H 0.10931 0.82874 0.27748 0.0
H717 H 0.04425 0.84157 0.26233 0.0
H718 H 0.95392 0.78813 0.21528 0.0
H719 H 0.94777 0.70492 0.206 0.0
Mn720 Mn 0.5992 0.12646 0.98034 0.0
Mn721 Mn 0.58715 0.15364 0.03045 0.0
C722 C 0.55293 0.17938 0.98858 0.0
C723 C 0.62424 0.12657 0.94582 0.0
C724 C 0.5587 0.07246 1.01285 0.0
O725 O 0.65356 0.10767 0.9947 0.0
O726 O 0.64538 0.13469 0.0271 0.0
C727 C 0.64376 0.21632 0.04787 0.0
N728 N 0.60448 0.20621 0.04216 0.0
C729 C 0.57977 0.26091 0.07014 0.0
C730 C 0.62139 0.2677 0.07426 0.0
C731 C 0.65224 0.24638 0.06321 0.0
C732 C 0.57197 0.22416 0.05162 0.0
H733 H 0.66962 0.20014 0.04108 0.0
C734 C 0.66721 0.11643 1.01307 0.0
O735 O 0.60864 0.09422 0.95442 0.0
O736 O 0.62927 0.15851 0.95791 0.0
N737 N 0.53063 0.17127 0.0326 0.0
C738 C 0.49602 0.15054 0.02658 0.0
C739 C 0.45649 0.16756 0.02861 0.0
C740 C 0.44926 0.20634 0.03741 0.0
C741 C 0.48221 0.22921 0.04716 0.0
C742 C 0.52829 0.20813 0.04154 0.0
H743 H 0.4981 0.12102 1.01907 0.0
O744 O 0.54772 0.15609 0.97235 0.0
O745 O 0.58496 0.17068 1.00041 0.0
O746 O 0.56475 0.08053 0.99393 0.0
O747 O 0.56904 0.09741 0.02675 0.0
C748 C 0.49186 0.2878 0.07545 0.0
C749 C 0.54346 0.29186 0.08165 0.0
H750 H 0.63031 0.29066 0.08565 0.0
H751 H 0.68421 0.25286 0.06692 0.0
H752 H 0.43044 0.1503 1.02258 0.0
H753 H 0.41723 0.21567 0.03723 0.0
H754 H 0.46993 0.30785 0.08356 0.0
H755 H 0.55306 0.31472 0.09293 0.0
Mn756 Mn 0.13374 0.35049 0.23099 0.0
Mn757 Mn 0.10636 0.33714 0.28105 0.0
C758 C 0.08069 0.30406 0.23901 0.0
C759 C 0.135 0.37429 0.19618 0.0
C760 C 0.18761 0.30925 0.26349 0.0
O761 O 0.15206 0.40502 0.24552 0.0
O762 O 0.12623 0.39498 0.27804 0.0
C763 C 0.04454 0.3946 0.29851 0.0
N764 N 0.05404 0.35522 0.29271 0.0
C765 C 0.99904 0.33108 0.3206 0.0
C766 C 0.99284 0.37276 0.32481 0.0
C767 C 0.0146 0.40339 0.31386 0.0
C768 C 0.03563 0.3229 0.30206 0.0
H769 H 0.06111 0.42029 0.29181 0.0
C770 C 0.14419 0.41747 0.26422 0.0
O771 O 0.16698 0.35956 0.20545 0.0
O772 O 0.10252 0.37997 0.20781 0.0
N773 N 0.08789 0.28096 0.28295 0.0
C774 C 0.10826 0.24617 0.27689 0.0
C775 C 0.09079 0.20683 0.27888 0.0
C776 C 0.05199 0.20004 0.28772 0.0
C777 C 0.02954 0.23322 0.29752 0.0
C778 C 0.05109 0.27905 0.29192 0.0
H779 H 0.13784 0.24806 0.26939 0.0
O780 O 0.10432 0.29883 0.22292 0.0
O781 O 0.08932 0.33594 0.25093 0.0
O782 O 0.17968 0.31631 0.24466 0.0
O783 O 0.16234 0.31804 0.27751 0.0
C784 C 0.97117 0.24347 0.32584 0.0
C785 C 0.96772 0.29509 0.33209 0.0
H786 H 0.97004 0.38191 0.33622 0.0
H787 H 0.00862 0.43543 0.31765 0.0
H788 H 0.10773 0.18061 0.27281 0.0
H789 H 0.0423 0.16811 0.28753 0.0
H790 H 0.95091 0.22176 0.33393 0.0
H791 H 0.94503 0.30492 0.34338 0.0
Mn792 Mn 0.90817 0.88437 0.47912 0.0
Mn793 Mn 0.92071 0.85518 0.52903 0.0
C794 C 0.9546 0.83126 0.48697 0.0
C795 C 0.8839 0.88633 0.44447 0.0
C796 C 0.94998 0.93661 0.51213 0.0
O797 O 0.85396 0.90293 0.4936 0.0
O798 O 0.8633 0.87631 0.52598 0.0
C799 C 0.86162 0.79389 0.54544 0.0
N800 N 0.90136 0.80275 0.54008 0.0
C801 C 0.92353 0.74909 0.56909 0.0
C802 C 0.88158 0.74342 0.57275 0.0
C803 C 0.85175 0.76472 0.56099 0.0
C804 C 0.93299 0.78403 0.54992 0.0
H805 H 0.83646 0.81048 0.53824 0.0
C806 C 0.84114 0.89473 0.51216 0.0
O807 O 0.89909 0.91809 0.45377 0.0
O808 O 0.87831 0.85367 0.45598 0.0
N809 N 0.97636 0.83549 0.53114 0.0
C810 C 0.01151 0.85541 0.52531 0.0
C811 C 0.05057 0.83777 0.52797 0.0
C812 C 0.05671 0.79968 0.53762 0.0
C813 C 0.0229 0.7782 0.5474 0.0
C814 C 0.97752 0.79886 0.54037 0.0
H815 H 0.01012 0.88474 0.51752 0.0
O816 O 0.95971 0.85503 0.47092 0.0
O817 O 0.9225 0.83948 0.4988 0.0
O818 O 0.94242 0.92964 0.49323 0.0
O819 O 0.94111 0.91088 0.52594 0.0
C820 C 0.01089 0.72243 0.57684 0.0
C821 C 0.95878 0.71909 0.58207 0.0
H822 H 0.87163 0.72154 0.58443 0.0
H823 H 0.81948 0.7592 0.5644 0.0
H824 H 0.07721 0.85439 0.52219 0.0
H825 H 0.08864 0.79004 0.53821 0.0
H826 H 0.0321 0.70305 0.58579 0.0
H827 H 0.9482 0.69744 0.59369 0.0
Mn828 Mn 0.37808 0.65841 0.72901 0.0
Mn829 Mn 0.40089 0.67434 0.77984 0.0
C830 C 0.42762 0.70772 0.73797 0.0
C831 C 0.38204 0.63321 0.69446 0.0
C832 C 0.32041 0.69934 0.76016 0.0
O833 O 0.36183 0.60319 0.74307 0.0
O834 O 0.383 0.61551 0.77635 0.0
C835 C 0.45893 0.61943 0.80186 0.0
N836 N 0.45184 0.65769 0.79372 0.0
C837 C 0.50404 0.68476 0.82244 0.0
C838 C 0.50928 0.64378 0.8282 0.0
C839 C 0.48741 0.61223 0.81808 0.0
C840 C 0.46959 0.69096 0.80262 0.0
H841 H 0.44066 0.59364 0.79689 0.0
C842 C 0.36845 0.59174 0.76198 0.0
O843 O 0.34806 0.64607 0.70259 0.0
O844 O 0.41375 0.63128 0.7069 0.0
N845 N 0.41861 0.7309 0.7817 0.0
C846 C 0.39865 0.76508 0.77454 0.0
C847 C 0.41608 0.80455 0.7759 0.0
C848 C 0.4543 0.81226 0.78522 0.0
C849 C 0.4758 0.78017 0.79634 0.0
C850 C 0.45501 0.73373 0.79115 0.0
H851 H 0.36951 0.76243 0.76662 0.0
O852 O 0.40472 0.7115 0.72149 0.0
O853 O 0.42008 0.67563 0.74996 0.0
O854 O 0.32899 0.68987 0.74164 0.0
O855 O 0.34524 0.69271 0.77469 0.0
C856 C 0.5309 0.77282 0.82652 0.0
C857 C 0.53389 0.7219 0.83399 0.0
H858 H 0.53067 0.63593 0.84051 0.0
H859 H 0.49159 0.58081 0.82346 0.0
H860 H 0.39937 0.83022 0.76912 0.0
H861 H 0.46403 0.84416 0.78451 0.0
H862 H 0.55009 0.79536 0.83474 0.0
H863 H 0.55515 0.71329 0.84621 0.0
Mn864 Mn 0.40945 0.1258 0.48028 0.0
Mn865 Mn 0.42198 0.1517 0.53065 0.0
C866 C 0.45631 0.17786 0.48897 0.0
C867 C 0.3851 0.12703 0.44555 0.0
C868 C 0.44946 0.0706 0.51255 0.0
O869 O 0.35467 0.10763 0.49436 0.0
O870 O 0.36384 0.13248 0.52714 0.0
C871 C 0.36477 0.21371 0.54818 0.0
N872 N 0.40416 0.20397 0.54253 0.0
C873 C 0.42826 0.2586 0.57067 0.0
C874 C 0.38657 0.265 0.57474 0.0
C875 C 0.35596 0.24354 0.56359 0.0
C876 C 0.43648 0.22211 0.55207 0.0
H877 H 0.33906 0.19742 0.5413 0.0
C878 C 0.3415 0.1154 0.51292 0.0
O879 O 0.3997 0.0942 0.45416 0.0
O880 O 0.38048 0.15882 0.45777 0.0
N881 N 0.47834 0.16973 0.53301 0.0
C882 C 0.51313 0.14919 0.5271 0.0
C883 C 0.55253 0.16652 0.52926 0.0
C884 C 0.5594 0.20535 0.53811 0.0
C885 C 0.52623 0.22796 0.54781 0.0
C886 C 0.48034 0.20655 0.54203 0.0
H887 H 0.5112 0.11957 0.51962 0.0
O888 O 0.46149 0.15476 0.47267 0.0
O889 O 0.42415 0.16928 0.50068 0.0
O890 O 0.44285 0.07895 0.4937 0.0
O891 O 0.44066 0.09568 0.52668 0.0
C892 C 0.51588 0.28615 0.57625 0.0
C893 C 0.46423 0.28971 0.58234 0.0
H894 H 0.37741 0.28775 0.58618 0.0
H895 H 0.32391 0.24972 0.56726 0.0
H896 H 0.57875 0.14944 0.5233 0.0
H897 H 0.59136 0.21495 0.53803 0.0
H898 H 0.53757 0.30627 0.58447 0.0
H899 H 0.45437 0.31236 0.59367 0.0
Mn900 Mn 0.63371 0.65817 0.22937 0.0
Mn901 Mn 0.60708 0.67328 0.2795 0.0
C902 C 0.58163 0.70568 0.23731 0.0
C903 C 0.63439 0.63383 0.19468 0.0
C904 C 0.68768 0.70139 0.26138 0.0
O905 O 0.65157 0.60378 0.24399 0.0
O906 O 0.62782 0.61552 0.27674 0.0
C907 C 0.54673 0.61514 0.29762 0.0
N908 N 0.55529 0.65456 0.29154 0.0
C909 C 0.50202 0.67836 0.3204 0.0
C910 C 0.49668 0.63666 0.32481 0.0
C911 C 0.51799 0.60617 0.3135 0.0
C912 C 0.53688 0.68675 0.30106 0.0
H913 H 0.56323 0.58958 0.29073 0.0
C914 C 0.64468 0.5922 0.26289 0.0
O915 O 0.66665 0.64816 0.20386 0.0
O916 O 0.6019 0.6288 0.20638 0.0
N917 N 0.58755 0.7291 0.28122 0.0
C918 C 0.60707 0.76401 0.27471 0.0
C919 C 0.58913 0.8031 0.27678 0.0
C920 C 0.55095 0.80959 0.2863 0.0
C921 C 0.52984 0.77634 0.29673 0.0
C922 C 0.55116 0.73066 0.29064 0.0
H923 H 0.63629 0.76232 0.26683 0.0
O924 O 0.60515 0.71005 0.22112 0.0
O925 O 0.58975 0.67387 0.24939 0.0
O926 O 0.68006 0.69194 0.24277 0.0
O927 O 0.66265 0.69358 0.27566 0.0
C928 C 0.47411 0.76587 0.32632 0.0
C929 C 0.4715 0.7142 0.33261 0.0
H930 H 0.47495 0.62736 0.33669 0.0
H931 H 0.51273 0.57411 0.31748 0.0
H932 H 0.60549 0.82948 0.27051 0.0
H933 H 0.54093 0.84142 0.28624 0.0
H934 H 0.45442 0.78749 0.33484 0.0
H935 H 0.44992 0.70425 0.34441 0.0
Mn936 Mn 0.10136 0.88314 0.97863 0.0
Mn937 Mn 0.08846 0.85393 0.02856 0.0
C938 C 0.05461 0.83019 0.98653 0.0
C939 C 0.12528 0.88463 0.94385 0.0
C940 C 0.05927 0.93544 1.01167 0.0
O941 O 0.15589 0.90134 0.99313 0.0
O942 O 0.1457 0.87528 0.02557 0.0
C943 C 0.14786 0.79291 0.04502 0.0
N944 N 0.10805 0.80162 0.03965 0.0
C945 C 0.08622 0.74835 0.06889 0.0
C946 C 0.12821 0.74277 0.07251 0.0
C947 C 0.1579 0.76396 0.06065 0.0
C948 C 0.07653 0.78296 0.04958 0.0
H949 H 0.17292 0.8095 0.03775 0.0
C950 C 0.1681 0.89365 1.01188 0.0
O951 O 0.11045 0.91659 0.95313 0.0
O952 O 0.13081 0.85207 0.95544 0.0
N953 N 0.03291 0.83415 0.03069 0.0
C954 C 0.99771 0.85404 1.02486 0.0
C955 C 0.95868 0.83652 0.02768 0.0
C956 C 0.95264 0.79866 0.03755 0.0
C957 C 0.98657 0.77731 0.04735 0.0
C958 C 0.03187 0.79771 0.04008 0.0
H959 H 0.99904 0.88324 1.01694 0.0
O960 O 0.04952 0.85402 0.9705 0.0
O961 O 0.08677 0.83831 0.99835 0.0
O962 O 0.06745 0.92885 0.99279 0.0
O963 O 0.06778 0.90941 0.02539 0.0
C964 C 0.99893 0.72205 0.07701 0.0
C965 C 0.05111 0.71867 0.0821 0.0
H966 H 0.1383 0.72109 0.08426 0.0
H967 H 0.19022 0.75856 0.06405 0.0
H968 H 0.93197 0.85307 1.02189 0.0
H969 H 0.9207 0.78911 0.03828 0.0
H970 H 0.97782 0.70288 0.08611 0.0
H971 H 0.06183 0.69722 0.0938 0.0
Mn972 Mn 0.87572 0.35175 0.73114 0.0
Mn973 Mn 0.90312 0.33796 0.78121 0.0
C974 C 0.92852 0.30503 0.73915 0.0
C975 C 0.87453 0.37575 0.69639 0.0
C976 C 0.82182 0.31055 0.76352 0.0
O977 O 0.85745 0.40617 0.74575 0.0
O978 O 0.88333 0.3959 0.77827 0.0
C979 C 0.9651 0.39509 0.7988 0.0
N980 N 0.95551 0.35577 0.79293 0.0
C981 C 0.01036 0.3313 0.82088 0.0
C982 C 0.01666 0.37294 0.82516 0.0
C983 C 0.99501 0.40369 0.8142 0.0
C984 C 0.97385 0.32333 0.80226 0.0
H985 H 0.94859 0.42086 0.79212 0.0
C986 C 0.86529 0.41847 0.76448 0.0
O987 O 0.8425 0.36111 0.70561 0.0
O988 O 0.90704 0.38127 0.70806 0.0
N989 N 0.92147 0.28167 0.78306 0.0
C990 C 0.90093 0.24697 0.77701 0.0
C991 C 0.91827 0.20755 0.77899 0.0
C992 C 0.95706 0.20055 0.78785 0.0
C993 C 0.97963 0.23361 0.7977 0.0
C994 C 0.95828 0.27957 0.79206 0.0
H995 H 0.87133 0.249 0.76953 0.0
O996 O 0.90493 0.30005 0.723 0.0
O997 O 0.92005 0.33689 0.75111 0.0
O998 O 0.82974 0.31767 0.7447 0.0
O999 O 0.84713 0.3191 0.77757 0.0
C1000 C 0.03786 0.24356 0.82616 0.0
C1001 C 0.04148 0.29515 0.83243 0.0
H1002 H 0.03942 0.38195 0.83662 0.0
H1003 H 1.00107 0.43569 0.81805 0.0
H1004 H 0.90122 0.18141 0.77292 0.0
H1005 H 0.96665 0.16859 0.78765 0.0
H1006 H 0.05798 0.22174 0.8343 0.0
H1007 H 0.06412 0.30486 0.84379 0.0
Mn1008 Mn 0.40831 0.88235 0.06948 0.0
Mn1009 Mn 0.42138 0.85599 1.01914 0.0
C1010 C 0.4547 0.82974 0.06095 0.0
C1011 C 0.38361 0.88216 0.1041 0.0
C1012 C 0.451 0.9362 0.03733 0.0
O1013 O 0.3541 0.90154 0.05514 0.0
O1014 O 0.36391 0.87692 1.02239 0.0
C1015 C 0.36214 0.7947 1.00262 0.0
N1016 N 0.40193 0.80378 1.00785 0.0
C1017 C 0.42384 0.74807 0.97982 0.0
C1018 C 0.38188 0.74236 0.97619 0.0
C1019 C 0.35214 0.76461 0.98753 0.0
C1020 C 0.43351 0.78444 0.99831 0.0
H1021 H 0.33703 0.8117 1.00961 0.0
C1022 C 0.34145 0.89427 0.03643 0.0
O1023 O 0.39914 0.91447 0.09545 0.0
O1024 O 0.3783 0.85026 0.09201 0.0
N1025 N 0.47715 0.83639 1.01678 0.0
C1026 C 0.5125 0.85643 1.02227 0.0
C1027 C 0.55153 0.8386 1.01963 0.0
C1028 C 0.55744 0.7999 1.01052 0.0
C1029 C 0.52343 0.77782 1.00122 0.0
C1030 C 0.47813 0.79953 1.00775 0.0
H1031 H 0.51141 0.88605 0.02978 0.0
O1032 O 0.45982 0.85254 0.07736 0.0
O1033 O 0.42279 0.83878 0.04915 0.0
O1034 O 0.44255 0.92815 0.05601 0.0
O1035 O 0.44189 0.91166 1.02296 0.0
C1036 C 0.51087 0.71988 0.97287 0.0
C1037 C 0.45883 0.71672 0.96757 0.0
H1038 H 0.37184 0.71967 0.96492 0.0
H1039 H 0.31984 0.75897 0.9842 0.0
H1040 H 0.57828 0.85528 0.02529 0.0
H1041 H 0.58931 0.79001 1.01006 0.0
H1042 H 0.53189 0.6996 0.96432 0.0
H1043 H 0.44809 0.69425 0.95636 0.0
Mn1044 Mn 0.8753 0.65936 0.82135 0.0
Mn1045 Mn 0.90039 0.67322 0.77096 0.0
C1046 C 0.92761 0.70603 0.81289 0.0
C1047 C 0.87581 0.63405 0.85578 0.0
C1048 C 0.82045 0.70196 0.78971 0.0
O1049 O 0.85604 0.60536 0.80685 0.0
O1050 O 0.8803 0.61532 0.77406 0.0
C1051 C 0.9605 0.61541 0.75232 0.0
N1052 N 0.95187 0.6548 0.75844 0.0
C1053 C 1.00378 0.6788 0.72902 0.0
C1054 C 0.00922 0.63711 0.72457 0.0
C1055 C 0.98862 0.60655 0.73613 0.0
C1056 C 0.96964 0.68706 0.74869 0.0
H1057 H 0.94453 0.58978 0.75942 0.0
C1058 C 0.86338 0.59268 0.78816 0.0
O1059 O 0.84348 0.64994 0.84731 0.0
O1060 O 0.90763 0.62877 0.84366 0.0
N1061 N 0.91948 0.7292 0.769 0.0
C1062 C 0.9001 0.76406 0.77571 0.0
C1063 C 0.91785 0.8032 0.77354 0.0
C1064 C 0.95572 0.8098 0.76373 0.0
C1065 C 0.97659 0.77664 0.75308 0.0
C1066 C 0.95559 0.73089 0.75929 0.0
H1067 H 0.87118 0.76232 0.78384 0.0
O1068 O 0.90498 0.71062 0.82939 0.0
O1069 O 0.91869 0.67424 0.80091 0.0
O1070 O 0.82912 0.69404 0.80837 0.0
O1071 O 0.84469 0.69294 0.77524 0.0
C1072 C 0.03122 0.76638 0.72295 0.0
C1073 C 0.03373 0.71474 0.71656 0.0
H1074 H 0.03053 0.62789 0.71248 0.0
H1075 H 0.99398 0.5745 0.73213 0.0
H1076 H 0.90163 0.82952 0.77998 0.0
H1077 H 0.96567 0.84165 0.76374 0.0
H1078 H 0.05052 0.78808 0.71427 0.0
H1079 H 0.05491 0.70487 0.70456 0.0
Mn1080 Mn 0.10044 0.12598 0.56913 0.0
Mn1081 Mn 0.0859 0.15166 0.5189 0.0
C1082 C 0.05351 0.17837 0.56091 0.0
C1083 C 0.12458 0.12544 0.60383 0.0
C1084 C 0.05796 0.07128 0.53734 0.0
O1085 O 0.15477 0.10751 0.55464 0.0
O1086 O 0.14383 0.13166 0.52187 0.0
C1087 C 0.14342 0.21298 0.50106 0.0
N1088 N 0.10406 0.2037 0.50695 0.0
C1089 C 0.07988 0.25889 0.47914 0.0
C1090 C 0.12154 0.26483 0.47482 0.0
C1091 C 0.15218 0.24286 0.48569 0.0
C1092 C 0.07171 0.22235 0.49769 0.0
H1093 H 0.16911 0.19629 0.50771 0.0
C1094 C 0.1668 0.11461 0.53581 0.0
O1095 O 0.11001 0.09322 0.59472 0.0
O1096 O 0.13 0.1578 0.59207 0.0
N1097 N 0.02973 0.17041 0.51701 0.0
C1098 C 0.99488 0.15028 0.52314 0.0
C1099 C 0.9556 0.16795 0.52115 0.0
C1100 C 0.9489 0.20676 0.51228 0.0
C1101 C 0.9821 0.22901 0.50241 0.0
C1102 C 0.0279 0.20716 0.50794 0.0
H1103 H 0.99667 0.12072 0.53067 0.0
O1104 O 0.04876 0.15519 0.5772 0.0
O1105 O 0.08523 0.16965 0.54891 0.0
O1106 O 0.06634 0.07975 0.55596 0.0
O1107 O 0.06647 0.09575 0.5229 0.0
C1108 C 0.99241 0.2873 0.47406 0.0
C1109 C 0.04396 0.29043 0.46772 0.0
H1110 H 0.13067 0.28757 0.46339 0.0
H1111 H 0.1842 0.24865 0.48182 0.0
H1112 H 0.92935 0.15117 0.52726 0.0
H1113 H 0.91702 0.21663 0.51249 0.0
H1114 H 0.97074 0.3077 0.46599 0.0
H1115 H 0.0538 0.31305 0.4564 0.0
Mn1116 Mn 0.63391 0.35107 0.32004 0.0
Mn1117 Mn 0.60625 0.33725 0.26993 0.0
C1118 C 0.58178 0.3039 0.31211 0.0
C1119 C 0.63501 0.37517 0.35472 0.0
C1120 C 0.68726 0.30875 0.28758 0.0
O1121 O 0.6518 0.40542 0.30553 0.0
O1122 O 0.62659 0.39522 0.27291 0.0
C1123 C 0.54493 0.39517 0.25239 0.0
N1124 N 0.55396 0.35573 0.25826 0.0
C1125 C 0.50021 0.33197 0.22957 0.0
C1126 C 0.49444 0.37371 0.22535 0.0
C1127 C 0.51574 0.40417 0.23669 0.0
C1128 C 0.53551 0.32355 0.24873 0.0
H1129 H 0.56137 0.42074 0.2593 0.0
C1130 C 0.64389 0.41799 0.28689 0.0
O1131 O 0.66715 0.36059 0.34554 0.0
O1132 O 0.60246 0.38053 0.34308 0.0
N1133 N 0.58707 0.28126 0.26807 0.0
C1134 C 0.60699 0.24636 0.27431 0.0
C1135 C 0.58924 0.2072 0.27224 0.0
C1136 C 0.55081 0.2006 0.26296 0.0
C1137 C 0.52919 0.23385 0.25277 0.0
C1138 C 0.55034 0.27959 0.25892 0.0
H1139 H 0.63642 0.24807 0.282 0.0
O1140 O 0.60542 0.2993 0.32826 0.0
O1141 O 0.58965 0.33591 0.30012 0.0
O1142 O 0.67971 0.31716 0.30631 0.0
O1143 O 0.66221 0.31738 0.27338 0.0
C1144 C 0.47282 0.24437 0.22344 0.0
C1145 C 0.46971 0.29611 0.21735 0.0
H1146 H 0.47239 0.38303 0.2136 0.0
H1147 H 0.51011 0.43625 0.23287 0.0
H1148 H 0.60594 0.18084 0.27831 0.0
H1149 H 0.54098 0.16872 0.26298 0.0
H1150 H 0.45313 0.22273 0.21492 0.0
H1151 H 0.44783 0.30608 0.20568 0.0
C1152 C 1.00143 0.51612 1.00613 0.0
C1153 C 0.97294 0.53357 1.02001 0.0
C1154 C 0.02956 0.486 1.01278 0.0
C1155 C 0.03042 0.4721 0.03356 0.0
H1156 H 1.00281 0.52652 0.99015 0.0
H1157 H 0.05084 0.47338 1.00144 0.0
S1158 S 0.96048 0.50609 0.07579 0.0
N1159 N 0.94602 0.5334 0.0554 0.0
N1160 N 0.99914 0.47694 0.06774 0.0
C1161 C 1.00186 0.48896 0.04756 0.0
C1162 C 0.97299 0.51946 0.04079 0.0
C1163 C 0.73595 0.73021 0.28801 0.0
C1164 C 0.72351 0.72765 0.26701 0.0
C1165 C 0.76644 0.7581 0.29454 0.0
C1166 C 0.78575 0.78463 0.28032 0.0
H1167 H 0.7219 0.71051 0.29963 0.0
H1168 H 0.77554 0.75813 0.31073 0.0
S1169 S 0.76291 0.79201 0.22374 0.0
N1170 N 0.732 0.75515 0.23219 0.0
N1171 N 0.78906 0.80777 0.24429 0.0
C1172 C 0.77323 0.78279 0.25928 0.0
C1173 C 0.74234 0.75419 0.25265 0.0
C1174 C 0.52594 0.48263 0.53895 0.0
C1175 C 0.5315 0.4723 0.51778 0.0
C1176 C 0.49798 0.51332 0.54521 0.0
C1177 C 0.47427 0.53499 0.53058 0.0
H1178 H 0.54338 0.46684 0.55092 0.0
H1179 H 0.49573 0.52073 0.56159 0.0
S1180 S 0.47544 0.51853 0.47325 0.0
N1181 N 0.50994 0.48559 0.48228 0.0
N1182 N 0.45703 0.5427 0.49382 0.0
C1183 C 0.47898 0.52445 0.50934 0.0
C1184 C 0.50773 0.49346 0.503 0.0
C1185 C 0.76801 0.25733 0.75566 0.0
C1186 C 0.7858 0.28523 0.76974 0.0
C1187 C 0.73785 0.22915 0.76215 0.0
C1188 C 0.72422 0.2277 0.78298 0.0
H1189 H 0.77815 0.25647 0.73963 0.0
H1190 H 0.72499 0.20833 0.75066 0.0
S1191 S 0.75941 0.29596 0.82574 0.0
N1192 N 0.78643 0.31093 0.80536 0.0
N1193 N 0.72989 0.25779 0.81744 0.0
C1194 C 0.7415 0.25568 0.79718 0.0
C1195 C 0.77207 0.28455 0.79057 0.0
C1196 C 0.97856 0.48712 0.5126 0.0
C1197 C 0.97822 0.47304 0.53337 0.0
C1198 C 0.00673 0.51711 0.50583 0.0
C1199 C 0.03579 0.53419 0.51954 0.0
H1200 H 0.95682 0.47479 0.50139 0.0
H1201 H 0.0049 0.52773 0.4899 0.0
S1202 S 0.04991 0.5059 0.57513 0.0
N1203 N 0.01074 0.4772 0.5673 0.0
N1204 N 0.06388 0.53334 0.55471 0.0
C1205 C 0.0363 0.51982 0.54028 0.0
C1206 C 0.0074 0.48949 0.54718 0.0
C1207 C 0.7407 0.75668 0.75638 0.0
C1208 C 0.72219 0.78448 0.77026 0.0
C1209 C 0.77117 0.72901 0.76312 0.0
C1210 C 0.78448 0.72799 0.78402 0.0
H1211 H 0.73102 0.75559 0.74028 0.0
H1212 H 0.78458 0.70831 0.75174 0.0
S1213 S 0.74719 0.79592 0.82642 0.0
N1214 N 0.72033 0.81031 0.80586 0.0
N1215 N 0.77753 0.75818 0.81839 0.0
C1216 C 0.76638 0.75574 0.79806 0.0
C1217 C 0.73542 0.78408 0.7912 0.0
C1218 C 0.50247 0.49055 1.00434 0.0
C1219 C 0.47337 0.47364 1.01804 0.0
C1220 C 0.53084 0.5203 1.01116 0.0
C1221 C 0.53125 0.53437 0.03194 0.0
H1222 H 0.50413 0.47999 0.98839 0.0
H1223 H 0.55257 0.53257 0.99996 0.0
S1224 S 0.4597 0.5015 0.07369 0.0
N1225 N 0.44551 0.47425 0.05322 0.0
N1226 N 0.49893 0.53011 0.0659 0.0
C1227 C 0.50212 0.51793 0.04575 0.0
C1228 C 0.47308 0.48777 0.03881 0.0
C1229 C 0.76673 0.25424 0.25394 0.0
C1230 C 0.78446 0.22556 0.26762 0.0
C1231 C 0.73645 0.28205 0.26081 0.0
C1232 C 0.72279 0.28238 0.28165 0.0
H1233 H 0.77706 0.25602 0.23796 0.0
H1234 H 0.72358 0.30355 0.24965 0.0
S1235 S 0.75734 0.21132 0.32333 0.0
N1236 N 0.78459 0.1976 0.3028 0.0
N1237 N 0.72801 0.2501 0.3156 0.0
C1238 C 0.73989 0.25349 0.29542 0.0
C1239 C 0.77047 0.22497 0.28842 0.0
C1240 C 0.2626 0.26373 0.79407 0.0
C1241 C 0.28708 0.28396 0.77928 0.0
C1242 C 0.2315 0.23616 0.78799 0.0
C1243 C 0.22343 0.22754 0.76683 0.0
H1244 H 0.26784 0.26865 0.81051 0.0
H1245 H 0.21348 0.22163 0.80013 0.0
S1246 S 0.27836 0.27282 0.72175 0.0
N1247 N 0.30063 0.29385 0.74224 0.0
N1248 N 0.24251 0.24178 0.73108 0.0
C1249 C 0.24764 0.24753 0.75184 0.0
C1250 C 0.2792 0.27583 0.75799 0.0
C1251 C 0.24134 0.75397 0.29527 0.0
C1252 C 0.22402 0.72501 0.28158 0.0
C1253 C 0.27155 0.78187 0.28847 0.0
C1254 C 0.28565 0.78202 0.2677 0.0
H1255 H 0.23079 0.75586 0.3112 0.0
H1256 H 0.28409 0.80351 0.29966 0.0
S1257 S 0.25199 0.71064 0.22596 0.0
N1258 N 0.22452 0.6969 0.24641 0.0
N1259 N 0.28104 0.74956 0.23377 0.0
C1260 C 0.26887 0.753 0.2539 0.0
C1261 C 0.23831 0.72438 0.26082 0.0
C1262 C 0.27235 0.22843 0.26211 0.0
C1263 C 0.28586 0.22674 0.28297 0.0
C1264 C 0.24192 0.25641 0.25565 0.0
C1265 C 0.22366 0.28387 0.26979 0.0
H1266 H 0.28557 0.208 0.25055 0.0
H1267 H 0.232 0.25579 0.23958 0.0
S1268 S 0.24925 0.29365 0.32596 0.0
N1269 N 0.27935 0.25601 0.31757 0.0
N1270 N 0.22229 0.30875 0.30556 0.0
C1271 C 0.23714 0.28286 0.29068 0.0
C1272 C 0.26802 0.25421 0.29725 0.0
C1273 C 0.24124 0.75568 0.79313 0.0
C1274 C 0.22228 0.78263 0.77899 0.0
C1275 C 0.2713 0.7274 0.78656 0.0
C1276 C 0.28384 0.72486 0.76556 0.0
H1277 H 0.23227 0.75578 0.80934 0.0
H1278 H 0.28522 0.70757 0.79817 0.0
S1279 S 0.24464 0.78953 0.72234 0.0
N1280 N 0.21882 0.80561 0.74292 0.0
N1281 N 0.27529 0.75236 0.73075 0.0
C1282 C 0.26508 0.75153 0.75122 0.0
C1283 C 0.23453 0.7805 0.7579 0.0
C1284 C 0.53109 0.98662 0.51174 0.0
C1285 C 0.53191 0.97292 0.53256 0.0
C1286 C 0.50298 0.01675 0.50501 0.0
C1287 C 0.47446 0.03431 0.51884 0.0
H1288 H 0.55245 0.97393 0.50046 0.0
H1289 H 0.50443 0.0271 0.48903 0.0
S1290 S 0.46151 0.00693 0.57461 0.0
N1291 N 0.50029 0.97784 0.56666 0.0
N1292 N 0.44721 0.03417 0.55416 0.0
C1293 C 0.47435 0.02024 0.53963 0.0
C1294 C 0.50319 0.98979 0.54648 0.0
C1295 C 0.00949 0.99268 1.00377 0.0
C1296 C 0.03368 0.97122 1.01828 0.0
C1297 C 0.98181 0.02347 1.01014 0.0
C1298 C 0.97714 0.03423 0.0313 0.0
H1299 H 0.01128 0.98516 0.9874 0.0
H1300 H 0.96403 0.03913 0.99825 0.0
S1301 S 0.03443 0.9883 0.07552 0.0
N1302 N 0.05199 0.96366 0.05489 0.0
N1303 N 0.9998 0.02132 0.06668 0.0
C1304 C 1.00121 0.01309 0.04598 0.0
C1305 C 0.02957 0.98183 0.03952 0.0
C1306 C 0.51506 0.01037 1.00468 0.0
C1307 C 0.53286 0.03674 1.01949 0.0
C1308 C 0.48792 0.97882 1.01064 0.0
C1309 C 0.47726 0.97219 0.03168 0.0
H1310 H 0.52175 0.01429 0.98832 0.0
H1311 H 0.47542 0.95928 0.99851 0.0
S1312 S 0.5151 0.03278 0.07674 0.0
N1313 N 0.53775 0.05395 0.05643 0.0
N1314 N 0.48658 0.99494 0.06732 0.0
C1315 C 0.49469 0.99837 0.04667 0.0
C1316 C 0.52254 0.03041 0.04067 0.0
C1317 C 0.02943 0.02261 0.51083 0.0
C1318 C 0.03195 0.03519 0.5318 0.0
C1319 C 1.00176 0.9919 0.50438 0.0
C1320 C 0.97548 0.97241 0.51865 0.0
H1321 H 0.04892 0.03677 0.49916 0.0
H1322 H 1.00165 0.98284 0.48818 0.0
S1323 S 0.96839 0.9951 0.57523 0.0
N1324 N 0.00485 0.0264 0.5667 0.0
N1325 N 0.95273 0.96878 0.55472 0.0
C1326 C 0.97741 0.98488 0.53968 0.0
C1327 C 0.00574 0.01608 0.54623 0.0
C1328 C 0.02326 0.21615 0.05903 0.0
C1329 C 0.97972 0.21671 0.05932 0.0
C1330 C 0.0467 0.25291 0.05827 0.0
C1331 C 0.02789 0.29179 0.06066 0.0
H1332 H 0.03944 0.18695 0.05954 0.0
H1333 H 0.08002 0.25072 0.05711 0.0
S1334 S 0.91646 0.30887 0.07159 0.0
N1335 N 0.91954 0.25901 0.06627 0.0
N1336 N 0.964 0.3271 0.06965 0.0
C1337 C 0.98489 0.29226 0.06431 0.0
C1338 C 0.96069 0.25516 0.06264 0.0
C1339 C 0.04154 0.77377 0.30939 0.0
C1340 C 0.04084 0.73023 0.30968 0.0
C1341 C 0.0049 0.79734 0.30816 0.0
C1342 C 0.96589 0.77863 0.31002 0.0
H1343 H 0.07076 0.78985 0.31023 0.0
H1344 H 0.00724 0.83065 0.30704 0.0
S1345 S 0.94798 0.66721 0.32065 0.0
N1346 N 0.99808 0.67014 0.31599 0.0
N1347 N 0.92998 0.71483 0.31851 0.0
C1348 C 0.96512 0.73561 0.31363 0.0
C1349 C 1.00221 0.7113 0.31244 0.0
C1350 C 0.52588 0.71805 0.55891 0.0
C1351 C 0.48235 0.71852 0.55894 0.0
C1352 C 0.54924 0.75487 0.5584 0.0
C1353 C 0.53024 0.79367 0.56075 0.0
H1354 H 0.54213 0.68889 0.55944 0.0
H1355 H 0.58258 0.75278 0.55742 0.0
S1356 S 0.41845 0.81049 0.57075 0.0
N1357 N 0.42184 0.76064 0.56547 0.0
N1358 N 0.466 0.82885 0.5692 0.0
C1359 C 0.48715 0.79405 0.56406 0.0
C1360 C 0.46311 0.7569 0.56217 0.0
C1361 C 0.54284 0.27265 0.80906 0.0
C1362 C 0.54219 0.22912 0.80952 0.0
C1363 C 0.50617 0.29611 0.80751 0.0
C1364 C 0.46716 0.27732 0.80917 0.0
H1365 H 0.57202 0.2888 0.80999 0.0
H1366 H 0.50845 0.32941 0.8063 0.0
S1367 S 0.44923 0.166 0.82006 0.0
N1368 N 0.49944 0.169 0.81572 0.0
N1369 N 0.43119 0.21355 0.81767 0.0
C1370 C 0.46639 0.23435 0.81293 0.0
C1371 C 0.50355 0.21013 0.81207 0.0
C1372 C 0.96154 0.75409 0.49104 0.0
C1373 C 0.98041 0.79298 0.48895 0.0
C1374 C 0.98508 0.71737 0.49056 0.0
C1375 C 0.02861 0.71797 0.49083 0.0
H1376 H 0.92818 0.75186 0.49178 0.0
H1377 H 0.96896 0.68817 0.4898 0.0
S1378 S 0.09242 0.81032 0.47984 0.0
N1379 N 0.04475 0.82849 0.48111 0.0
N1380 N 0.08911 0.76039 0.4849 0.0
C1381 C 0.04777 0.75646 0.48789 0.0
C1382 C 0.02361 0.79355 0.48596 0.0
C1383 C 0.5414 0.73813 0.74101 0.0
C1384 C 0.54087 0.78162 0.74021 0.0
C1385 C 0.50463 0.71482 0.74213 0.0
C1386 C 0.46578 0.73365 0.73968 0.0
H1387 H 0.57059 0.72188 0.7407 0.0
H1388 H 0.50679 0.68155 0.74364 0.0
S1389 S 0.44869 0.84466 0.72774 0.0
N1390 N 0.49862 0.84167 0.73289 0.0
N1391 N 0.43041 0.79722 0.73018 0.0
C1392 C 0.46529 0.77648 0.7356 0.0
C1393 C 0.50243 0.80064 0.73689 0.0
C1394 C 0.48518 0.21793 0.99032 0.0
C1395 C 0.52871 0.21872 0.99004 0.0
C1396 C 0.46151 0.25455 0.99113 0.0
C1397 C 0.4801 0.29352 0.98883 0.0
H1398 H 0.46917 0.18865 0.98977 0.0
H1399 H 0.42821 0.25217 0.99228 0.0
S1400 S 0.59152 0.3113 0.97817 0.0
N1401 N 0.5887 0.26137 0.98332 0.0
N1402 N 0.54386 0.32926 0.98007 0.0
C1403 C 0.52313 0.29426 0.98525 0.0
C1404 C 0.54754 0.25728 0.98686 0.0
C1405 C 0.04157 0.2365 0.24044 0.0
C1406 C 0.04115 0.28005 0.24027 0.0
C1407 C 1.00475 0.21313 0.24128 0.0
C1408 C 0.96588 0.23208 0.23913 0.0
H1409 H 0.07072 0.22023 0.23984 0.0
H1410 H 0.00688 0.1798 0.24234 0.0
S1411 S 0.94893 0.34375 0.22871 0.0
N1412 N 0.99886 0.34045 0.23378 0.0
N1413 N 0.9306 0.29622 0.23054 0.0
C1414 C 0.96547 0.27514 0.23564 0.0
C1415 C 1.00268 0.29922 0.23723 0.0
C1416 C 0.0236 0.71649 0.99075 0.0
C1417 C 0.98006 0.71729 0.99102 0.0
C1418 C 0.0473 0.7531 0.99097 0.0
C1419 C 0.02861 0.79203 0.98861 0.0
H1420 H 0.0396 0.68721 0.99013 0.0
H1421 H 0.08065 0.75072 0.99175 0.0
S1422 S 0.91662 0.8097 0.97943 0.0
N1423 N 0.91974 0.75987 0.9848 0.0
N1424 N 0.96437 0.82767 0.98058 0.0
C1425 C 0.98539 0.79273 0.98563 0.0
C1426 C 0.96108 0.75581 0.9878 0.0
C1427 C 0.96707 0.23718 0.74059 0.0
C1428 C 0.96783 0.28072 0.74048 0.0
C1429 C 1.00371 0.21353 0.74153 0.0
C1430 C 0.04271 0.23221 0.73955 0.0
H1431 H 0.9378 0.22115 0.73987 0.0
H1432 H 1.00135 0.1802 0.74252 0.0
S1433 S 0.06053 0.34375 0.72919 0.0
N1434 N 0.01054 0.34083 0.73415 0.0
N1435 N 0.0785 0.29608 0.73105 0.0
C1436 C 0.04346 0.27528 0.73608 0.0
C1437 C 0.00643 0.29963 0.73758 0.0
C1438 C 0.54732 0.25337 0.49198 0.0
C1439 C 0.52849 0.29228 0.48979 0.0
C1440 C 0.52389 0.21664 0.49094 0.0
C1441 C 0.48036 0.21724 0.49053 0.0
H1442 H 0.58063 0.25116 0.4932 0.0
H1443 H 0.54007 0.18744 0.49034 0.0
S1444 S 0.41713 0.30961 0.4787 0.0
N1445 N 0.46466 0.32781 0.48086 0.0
N1446 N 0.42019 0.25965 0.48371 0.0
C1447 C 0.46133 0.25574 0.48742 0.0
C1448 C 0.48552 0.29285 0.48604 0.0
C1449 C 0.46759 0.73616 0.24009 0.0
C1450 C 0.4681 0.7797 0.23986 0.0
C1451 C 0.50436 0.71271 0.24107 0.0
C1452 C 0.54327 0.73154 0.23898 0.0
H1453 H 0.43842 0.71996 0.23939 0.0
H1454 H 0.50216 0.67939 0.24219 0.0
S1455 S 0.56049 0.84307 0.22836 0.0
N1456 N 0.51052 0.83994 0.23332 0.0
N1457 N 0.57872 0.79551 0.23034 0.0
C1458 C 0.54378 0.77457 0.2354 0.0
C1459 C 0.50661 0.79876 0.23685 0.0
C1460 C 0.96242 0.25406 0.5586 0.0
C1461 C 0.98127 0.29295 0.5608 0.0
C1462 C 0.98589 0.2173 0.55942 0.0
C1463 C 0.02943 0.21783 0.55959 0.0
H1464 H 0.92909 0.25188 0.55754 0.0
H1465 H 0.96971 0.18811 0.56006 0.0
S1466 S 0.09286 0.3101 0.57136 0.0
N1467 N 0.04528 0.32834 0.56949 0.0
N1468 N 0.08971 0.26019 0.56621 0.0
C1469 C 0.0485 0.25632 0.56271 0.0
C1470 C 0.02432 0.29345 0.56432 0.0
C1471 C 0.46802 0.27297 0.30953 0.0
C1472 C 0.46883 0.22944 0.30962 0.0
C1473 C 0.5046 0.29661 0.3085 0.0
C1474 C 0.54363 0.27792 0.31039 0.0
H1475 H 0.43877 0.289 0.31043 0.0
H1476 H 0.5022 0.32994 0.30753 0.0
S1477 S 0.56173 0.16637 0.32062 0.0
N1478 N 0.51166 0.16931 0.31583 0.0
N1479 N 0.57964 0.21404 0.31871 0.0
C1480 C 0.54449 0.23485 0.31383 0.0
C1481 C 0.50747 0.21051 0.31243 0.0
C1482 C 0.52219 0.7909 0.05851 0.0
C1483 C 0.47868 0.7904 0.05917 0.0
C1484 C 0.54548 0.75412 0.05711 0.0
C1485 C 0.52658 0.71524 0.05915 0.0
H1486 H 0.53845 0.82005 0.05913 0.0
H1487 H 0.57877 0.75625 0.05574 0.0
S1488 S 0.41549 0.69802 0.07083 0.0
N1489 N 0.41855 0.74807 0.06605 0.0
N1490 N 0.46291 0.67974 0.06831 0.0
C1491 C 0.48371 0.71472 0.06315 0.0
C1492 C 0.4596 0.75192 0.06212 0.0
C1493 C 1.00464 0.71285 0.80827 0.0
C1494 C 0.96585 0.73177 0.81072 0.0
C1495 C 0.04144 0.73624 0.80891 0.0
C1496 C 0.04095 0.77978 0.80915 0.0
H1497 H 0.00676 0.67952 0.80716 0.0
H1498 H 0.07063 0.72001 0.80933 0.0
S1499 S 0.9491 0.84333 0.82154 0.0
N1500 N 0.93076 0.7958 0.81972 0.0
N1501 N 0.99887 0.84012 0.8161 0.0
C1502 C 1.00259 0.79892 0.81251 0.0
C1503 C 0.96549 0.77481 0.8143 0.0
C1504 C 0.28381 0.40033 0.03928 0.0
C1505 C 0.29567 0.40175 1.01815 0.0
C1506 C 0.24204 0.40096 0.04536 0.0
C1507 C 0.21003 0.40268 0.03059 0.0
H1508 H 0.30697 0.39713 0.05133 0.0
H1509 H 0.23485 0.39771 0.06171 0.0
S1510 S 0.22388 0.41218 0.97343 0.0
N1511 N 0.27143 0.40898 0.98258 0.0
N1512 N 0.19328 0.41017 0.9939 0.0
C1513 C 0.22143 0.40678 1.0095 0.0
C1514 C 0.26402 0.40638 1.00331 0.0
C1515 C 0.85875 0.01694 0.25329 0.0
C1516 C 0.85635 0.04855 0.26825 0.0
C1517 C 0.8595 0.97501 0.25912 0.0
C1518 C 0.85746 0.96262 0.28016 0.0
H1519 H 0.86244 0.02459 0.23702 0.0
H1520 H 0.86322 0.95215 0.24697 0.0
S1521 S 0.84537 0.03329 0.32524 0.0
N1522 N 0.84778 0.06439 0.30496 0.0
N1523 N 0.84909 0.98599 0.31583 0.0
C1524 C 0.85224 0.9939 0.29516 0.0
C1525 C 0.85177 0.03663 0.28923 0.0
C1526 C 0.23457 0.57954 0.5215 0.0
C1527 C 0.21302 0.61672 0.51786 0.0
C1528 C 0.27632 0.57991 0.52818 0.0
C1529 C 0.2972 0.61747 0.53185 0.0
H1530 H 0.21902 0.55021 0.5194 0.0
H1531 H 0.29236 0.55085 0.53034 0.0
S1532 S 0.25421 0.72273 0.52482 0.0
N1533 N 0.21664 0.69159 0.51736 0.0
N1534 N 0.29232 0.69225 0.53229 0.0
C1535 C 0.27549 0.65447 0.52863 0.0
C1536 C 0.23414 0.6541 0.52102 0.0
C1537 C 0.65331 0.01671 0.79604 0.0
C1538 C 0.65532 0.04826 0.78108 0.0
C1539 C 0.65241 0.97484 0.7902 0.0
C1540 C 0.65381 0.9625 0.76912 0.0
H1541 H 0.64988 0.02437 0.81233 0.0
H1542 H 0.64886 0.95199 0.80235 0.0
S1543 S 0.66536 0.03295 0.72402 0.0
N1544 N 0.66345 0.06408 0.74432 0.0
N1545 N 0.66165 0.98567 0.73343 0.0
C1546 C 0.65896 0.99365 0.75412 0.0
C1547 C 0.65968 0.03634 0.76006 0.0
C1548 C 0.73278 0.57686 0.02756 0.0
C1549 C 0.71129 0.6139 0.03162 0.0
C1550 C 0.7747 0.57746 1.02121 0.0
C1551 C 0.79586 0.61514 1.0184 0.0
H1552 H 0.7171 0.54748 0.02914 0.0
H1553 H 0.79069 0.54848 1.01872 0.0
S1554 S 0.75283 0.72012 0.02645 0.0
N1555 N 0.71499 0.6887 0.03317 0.0
N1556 N 0.79111 0.68994 1.01892 0.0
C1557 C 0.77413 0.65202 1.02195 0.0
C1558 C 0.73255 0.65137 0.02917 0.0
C1559 C 0.15019 0.99264 0.79445 0.0
C1560 C 0.1517 0.96129 0.77932 0.0
C1561 C 0.14983 0.03472 0.78885 0.0
C1562 C 0.1514 0.04752 0.76785 0.0
H1563 H 0.14694 0.9847 0.81071 0.0
H1564 H 0.14678 0.05737 0.80114 0.0
S1565 S 0.16111 0.97756 0.72234 0.0
N1566 N 0.15888 0.94609 0.74247 0.0
N1567 N 0.15834 0.02471 0.73201 0.0
C1568 C 0.1557 0.01644 0.75267 0.0
C1569 C 0.15576 0.97359 0.75837 0.0
C1570 C 0.76642 0.40046 0.54632 0.0
C1571 C 0.79806 0.40285 0.5314 0.0
C1572 C 0.72447 0.3996 0.54047 0.0
C1573 C 0.71205 0.4015 0.51942 0.0
H1574 H 0.77406 0.3969 0.56261 0.0
H1575 H 0.70163 0.39591 0.55262 0.0
S1576 S 0.78274 0.41335 0.47437 0.0
N1577 N 0.81384 0.41113 0.49467 0.0
N1578 N 0.73545 0.40963 0.48376 0.0
C1579 C 0.74336 0.40663 0.50445 0.0
C1580 C 0.7861 0.40722 0.5104 0.0
C1581 C 0.35924 0.03476 0.26005 0.0
C1582 C 0.35762 0.04727 0.2811 0.0
C1583 C 0.35853 0.99279 0.25424 0.0
C1584 C 0.35653 0.96123 0.26922 0.0
H1585 H 0.36264 0.05755 0.24785 0.0
H1586 H 0.36191 0.98509 0.23796 0.0
S1587 S 0.34651 0.97679 0.32626 0.0
N1588 N 0.34996 0.02405 0.3168 0.0
N1589 N 0.34864 0.9456 0.30599 0.0
C1590 C 0.35229 0.97328 0.29023 0.0
C1591 C 0.35277 0.01604 0.29612 0.0
C1592 C 0.78555 0.90246 0.53927 0.0
C1593 C 0.79726 0.90361 0.51811 0.0
C1594 C 0.74385 0.90332 0.5454 0.0
C1595 C 0.71184 0.90503 0.53066 0.0
H1596 H 0.80877 0.89916 0.55129 0.0
H1597 H 0.73671 0.90012 0.56176 0.0
S1598 S 0.72538 0.91432 0.47347 0.0
N1599 N 0.77296 0.9109 0.48256 0.0
N1600 N 0.69488 0.91257 0.49399 0.0
C1601 C 0.7231 0.9091 0.50955 0.0
C1602 C 0.76562 0.90845 0.50331 0.0
C1603 C 0.32958 0.5255 0.77015 0.0
C1604 C 0.36697 0.54698 0.76706 0.0
C1605 C 0.32951 0.48382 0.7769 0.0
C1606 C 0.36681 0.46294 0.78118 0.0
H1607 H 0.3004 0.54099 0.76745 0.0
H1608 H 0.30034 0.46778 0.77856 0.0
S1609 S 0.47247 0.50581 0.77578 0.0
N1610 N 0.44182 0.54328 0.76771 0.0
N1611 N 0.44153 0.46785 0.7829 0.0
C1612 C 0.40399 0.48467 0.7786 0.0
C1613 C 0.40412 0.52592 0.77088 0.0
C1614 C 0.76659 0.10823 0.045 0.0
C1615 C 0.79782 0.10633 0.02984 0.0
C1616 C 0.72452 0.10934 0.03943 0.0
C1617 C 0.71158 0.10818 1.01845 0.0
H1618 H 0.77464 0.11119 0.06127 0.0
H1619 H 0.70199 0.11261 0.05176 0.0
S1620 S 0.78096 0.09787 0.97282 0.0
N1621 N 0.81262 0.0993 0.99293 0.0
N1622 N 0.73393 0.10131 0.98257 0.0
C1623 C 0.74243 0.10352 1.00322 0.0
C1624 C 0.78532 0.10268 1.00887 0.0
C1625 C 0.15104 0.53495 0.26089 0.0
C1626 C 0.15186 0.54755 0.28194 0.0
C1627 C 0.1515 0.49295 0.25516 0.0
C1628 C 0.15244 0.46147 0.2702 0.0
H1629 H 0.14843 0.55772 0.24864 0.0
H1630 H 0.14876 0.48519 0.23884 0.0
S1631 S 0.16006 0.47728 0.32733 0.0
N1632 N 0.1576 0.52453 0.31776 0.0
N1633 N 0.15851 0.44598 0.3071 0.0
C1634 C 0.15592 0.47359 0.29124 0.0
C1635 C 0.15569 0.51639 0.29707 0.0
C1636 C 0.24232 0.10811 0.545 0.0
C1637 C 0.2109 0.10674 0.5299 0.0
C1638 C 0.28434 0.1087 0.53937 0.0
C1639 C 0.29707 0.10758 0.51836 0.0
H1640 H 0.23447 0.11103 0.56129 0.0
H1641 H 0.30701 0.11158 0.55166 0.0
S1642 S 0.22707 0.09833 0.47285 0.0
N1643 N 0.19565 0.10007 0.49301 0.0
N1644 N 0.27424 0.10116 0.48251 0.0
C1645 C 0.266 0.1034 0.50317 0.0
C1646 C 0.22315 0.10306 0.50891 0.0
C1647 C 0.65025 0.47451 0.26004 0.0
C1648 C 0.65171 0.46228 0.28112 0.0
C1649 C 0.65085 0.51641 0.25414 0.0
C1650 C 0.65253 0.54819 0.26904 0.0
H1651 H 0.64712 0.45154 0.2479 0.0
H1652 H 0.64769 0.52388 0.23782 0.0
S1653 S 0.66169 0.53337 0.32617 0.0
N1654 N 0.65867 0.48598 0.3168 0.0
N1655 N 0.65972 0.56431 0.30582 0.0
C1656 C 0.65648 0.53643 0.2901 0.0
C1657 C 0.65615 0.49372 0.29609 0.0
C1658 C 0.24366 0.90177 1.00333 0.0
C1659 C 0.21175 0.90263 1.01812 0.0
C1660 C 0.28545 0.9016 1.00941 0.0
C1661 C 0.29736 0.90261 0.03056 0.0
H1662 H 0.23641 0.89873 0.98697 0.0
H1663 H 0.3086 0.89892 0.99734 0.0
S1664 S 0.22566 0.91125 0.07534 0.0
N1665 N 0.19502 0.90926 0.05485 0.0
N1666 N 0.27321 0.90884 0.06617 0.0
C1667 C 0.26574 0.90659 0.04542 0.0
C1668 C 0.22316 0.90655 0.03924 0.0
C1669 C 0.85714 0.49398 0.75559 0.0
C1670 C 0.85664 0.46234 0.77056 0.0
C1671 C 0.85692 0.53593 0.76143 0.0
C1672 C 0.8558 0.5483 0.7825 0.0
H1673 H 0.86005 0.48642 0.73926 0.0
H1674 H 0.85926 0.55885 0.74923 0.0
S1675 S 0.8485 0.47743 0.82771 0.0
N1676 N 0.85064 0.44637 0.80739 0.0
N1677 N 0.85025 0.5248 0.81826 0.0
C1678 C 0.8524 0.51692 0.79755 0.0
C1679 C 0.85288 0.47418 0.79161 0.0
C1680 C 0.10767 0.40758 0.14076 0.0
C1681 C 0.13171 0.38087 0.12821 0.0
C1682 C 0.1087 0.40563 0.16264 0.0
C1683 C 0.13473 0.37767 0.17297 0.0
H1684 H 0.0868 0.42958 0.13362 0.0
H1685 H 0.08903 0.42619 0.1715 0.0
S1686 S 0.20443 0.3013 0.14751 0.0
N1687 N 0.18213 0.32555 0.12792 0.0
N1688 N 0.18549 0.32255 0.1688 0.0
C1689 C 0.15956 0.3513 0.16059 0.0
C1690 C 0.15769 0.35268 0.13833 0.0
C1691 C 0.85224 0.85969 0.41112 0.0
C1692 C 0.87977 0.8864 0.42131 0.0
C1693 C 0.84998 0.85846 0.38926 0.0
C1694 C 0.87596 0.883 0.37662 0.0
H1695 H 0.83237 0.83951 0.42007 0.0
H1696 H 0.82847 0.83698 0.38221 0.0
S1697 S 0.9537 0.95807 0.39551 0.0
N1698 N 0.93334 0.93867 0.4169 0.0
N1699 N 0.92979 0.93497 0.37604 0.0
C1700 C 0.90353 0.90986 0.38659 0.0
C1701 C 0.90521 0.91192 0.40883 0.0
C1702 C 0.41198 0.65489 0.66018 0.0
C1703 C 0.38497 0.62915 0.67143 0.0
C1704 C 0.41029 0.6572 0.63828 0.0
C1705 C 0.38196 0.63337 0.62674 0.0
H1706 H 0.43378 0.67436 0.6684 0.0
H1707 H 0.43204 0.67703 0.63029 0.0
S1708 S 0.30515 0.56053 0.64864 0.0
N1709 N 0.32861 0.57988 0.66927 0.0
N1710 N 0.32723 0.58229 0.62825 0.0
C1711 C 0.35536 0.60701 0.63778 0.0
C1712 C 0.35628 0.60554 0.66006 0.0
C1713 C 0.61023 0.10052 0.8882 0.0
C1714 C 0.63275 0.13149 0.87801 0.0
C1715 C 0.60919 0.09841 0.91009 0.0
C1716 C 0.62968 0.12784 0.92273 0.0
H1717 H 0.59352 0.07763 0.87924 0.0
H1718 H 0.59114 0.074 0.91714 0.0
S1719 S 0.69169 0.21618 0.90361 0.0
N1720 N 0.67584 0.19264 0.88228 0.0
N1721 N 0.67264 0.1892 0.92314 0.0
C1722 C 0.65204 0.15908 0.91268 0.0
C1723 C 0.65386 0.16076 0.89044 0.0
C1724 C 0.15513 0.6564 0.39073 0.0
C1725 C 0.13067 0.63042 0.378 0.0
C1726 C 0.15286 0.65503 0.41262 0.0
C1727 C 0.12688 0.62677 0.42278 0.0
H1728 H 0.17553 0.67895 0.38372 0.0
H1729 H 0.1716 0.67624 0.42161 0.0
S1730 S 0.05719 0.55113 0.3967 0.0
N1731 N 0.07981 0.5756 0.3773 0.0
N1732 N 0.0763 0.57162 0.41815 0.0
C1733 C 0.10287 0.59999 0.41018 0.0
C1734 C 0.10451 0.60218 0.38792 0.0
C1735 C 0.66032 0.85729 0.66041 0.0
C1736 C 0.63419 0.88174 0.67305 0.0
C1737 C 0.65841 0.85883 0.63854 0.0
C1738 C 0.6311 0.88577 0.62833 0.0
H1739 H 0.68169 0.83568 0.66746 0.0
H1740 H 0.67838 0.83873 0.62958 0.0
S1741 S 0.55675 0.95713 0.65414 0.0
N1742 N 0.58037 0.93376 0.67361 0.0
N1743 N 0.57745 0.938 0.63276 0.0
C1744 C 0.60547 0.91112 0.64083 0.0
C1745 C 0.6068 0.90877 0.66307 0.0
C1746 C 0.35127 0.35571 0.88879 0.0
C1747 C 0.37723 0.38054 0.87626 0.0
C1748 C 0.35283 0.35722 0.91068 0.0
C1749 C 0.37955 0.38453 0.92103 0.0
H1750 H 0.33027 0.33389 0.88162 0.0
H1751 H 0.33298 0.33685 0.91953 0.0
S1752 S 0.45323 0.45696 0.89556 0.0
N1753 N 0.43031 0.43326 0.87598 0.0
N1754 N 0.43249 0.43751 0.91685 0.0
C1755 C 0.40504 0.41021 0.90865 0.0
C1756 C 0.40412 0.40786 0.88639 0.0
C1757 C 0.85048 0.15263 0.15879 0.0
C1758 C 0.87716 0.12884 0.17148 0.0
C1759 C 0.85272 0.15139 0.13691 0.0
C1760 C 0.88096 0.12539 0.12676 0.0
H1761 H 0.82829 0.17344 0.16581 0.0
H1762 H 0.83216 0.17084 0.12792 0.0
S1763 S 0.9574 0.05638 0.15265 0.0
N1764 N 0.93276 0.07872 0.17209 0.0
N1765 N 0.93632 0.07501 0.13124 0.0
C1766 C 0.90731 0.10084 0.13929 0.0
C1767 C 0.90563 0.10292 0.16153 0.0
C1768 C 0.86023 0.66102 0.89142 0.0
C1769 C 0.87738 0.62964 0.87881 0.0
C1770 C 0.86177 0.6591 0.91328 0.0
C1771 C 0.87959 0.62514 0.92354 0.0
H1772 H 0.84634 0.68798 0.88429 0.0
H1773 H 0.84927 0.68462 0.92217 0.0
S1774 S 0.92591 0.53311 0.89752 0.0
N1775 N 0.91127 0.56304 0.8781 0.0
N1776 N 0.91308 0.55805 0.91896 0.0
C1777 C 0.89566 0.59281 0.91099 0.0
C1778 C 0.89492 0.59542 0.88873 0.0
C1779 C 0.15662 0.15102 0.63733 0.0
C1780 C 0.12773 0.12604 0.62701 0.0
C1781 C 0.15861 0.15195 0.65921 0.0
C1782 C 0.13103 0.12886 0.67173 0.0
H1783 H 0.17793 0.16985 0.62848 0.0
H1784 H 0.18136 0.17195 0.66637 0.0
S1785 S 0.04871 0.05936 0.65236 0.0
N1786 N 0.07068 0.07752 0.6311 0.0
N1787 N 0.07382 0.08061 0.67197 0.0
C1788 C 0.10188 0.10399 0.66159 0.0
C1789 C 0.10042 0.10225 0.63934 0.0
C1790 C 0.61125 0.41076 0.41016 0.0
C1791 C 0.63228 0.38146 0.42265 0.0
C1792 C 0.61189 0.40881 0.38828 0.0
C1793 C 0.63456 0.37815 0.3779 0.0
H1794 H 0.59302 0.43492 0.41734 0.0
H1795 H 0.5947 0.43154 0.37945 0.0
S1796 S 0.69504 0.29402 0.40303 0.0
N1797 N 0.676 0.32061 0.42272 0.0
N1798 N 0.67853 0.31752 0.38183 0.0
C1799 C 0.65629 0.34907 0.39017 0.0
C1800 C 0.65484 0.35055 0.41243 0.0
C1801 C 0.40241 0.90795 0.13981 0.0
C1802 C 0.37874 0.88093 0.12723 0.0
C1803 C 0.40143 0.90594 0.1617 0.0
C1804 C 0.37582 0.87759 0.17201 0.0
H1805 H 0.42291 0.93027 0.13269 0.0
H1806 H 0.42076 0.92679 0.17059 0.0
S1807 S 0.30735 0.8002 0.14646 0.0
N1808 N 0.3292 0.82485 0.1269 0.0
N1809 N 0.326 0.82169 0.16777 0.0
C1810 C 0.35142 0.85087 0.15959 0.0
C1811 C 0.35322 0.85234 0.13733 0.0
C1812 C 0.90107 0.40686 0.66288 0.0
C1813 C 0.87484 0.37911 0.67319 0.0
C1814 C 0.90216 0.40875 0.641 0.0
C1815 C 0.87798 0.38216 0.62844 0.0
H1816 H 0.92086 0.42731 0.67175 0.0
H1817 H 0.92317 0.43058 0.63386 0.0
S1818 S 0.80471 0.30316 0.64768 0.0
N1819 N 0.82376 0.32433 0.66898 0.0
N1820 N 0.82721 0.3272 0.62811 0.0
C1821 C 0.8518 0.35418 0.63853 0.0
C1822 C 0.84988 0.35287 0.66079 0.0
C1823 C 0.3936 0.09645 0.38814 0.0
C1824 C 0.3803 0.13197 0.3776 0.0
C1825 C 0.3933 0.09475 0.41005 0.0
C1826 C 0.38043 0.12875 0.42237 0.0
H1827 H 0.40375 0.06967 0.37943 0.0
H1828 H 0.40406 0.06662 0.41739 0.0
S1829 S 0.34465 0.2298 0.40199 0.0
N1830 N 0.35457 0.20223 0.38098 0.0
N1831 N 0.35509 0.19937 0.4219 0.0
C1832 C 0.36738 0.16451 0.41188 0.0
C1833 C 0.3671 0.166 0.38962 0.0
C1834 C 0.60603 0.60399 0.16123 0.0
C1835 C 0.63388 0.63027 0.17148 0.0
C1836 C 0.60455 0.60213 0.13936 0.0
C1837 C 0.62997 0.62733 0.12675 0.0
H1838 H 0.58523 0.58471 0.17014 0.0
H1839 H 0.58231 0.58145 0.13227 0.0
S1840 S 0.70794 0.702 0.14576 0.0
N1841 N 0.688 0.68204 0.16712 0.0
N1842 N 0.68378 0.67929 0.12625 0.0
C1843 C 0.6578 0.65383 0.13676 0.0
C1844 C 0.66012 0.65506 0.15902 0.0
C1845 C 0.15911 0.8568 0.88856 0.0
C1846 C 0.13265 0.88087 0.87589 0.0
C1847 C 0.15697 0.85808 0.91044 0.0
C1848 C 0.12908 0.8844 0.92065 0.0
H1849 H 0.18097 0.83568 0.88151 0.0
H1850 H 0.17727 0.8383 0.91939 0.0
S1851 S 0.05356 0.95451 0.89483 0.0
N1852 N 0.07777 0.9318 0.87536 0.0
N1853 N 0.07448 0.9356 0.91622 0.0
C1854 C 0.10307 0.90936 0.90815 0.0
C1855 C 0.10462 0.90724 0.88589 0.0
loop_
_geom_bond_atom_site_label_1
_geom_bond_atom_site_label_2
_geom_bond_distance
_geom_bond_site_symmetry_2
_ccdc_geom_bond_type
Mn0 O5 2.095 . S
Mn0 O15 2.162 . S
Mn0 O16 2.297 . S
Mn0 O24 2.385 . S
Mn0 O25 2.209 . S
Mn0 O26 2.094 . S
Mn1 O6 2.121 1_556 S
Mn1 N8 2.257 . S
Mn1 N17 2.282 . S
Mn1 O25 2.215 1_556 S
Mn1 O27 2.117 1_556 S
C2 O24 1.234 . S
C2 O25 1.283 . S
C3 O15 1.281 . S
C3 O16 1.236 . S
C4 O26 1.240 . S
C4 O27 1.264 . S
O5 Mn0 2.095 . S
O5 C14 1.250 . S
O6 Mn1 2.121 1_554 S
O6 C14 1.258 . S
C7 N8 1.326 . S
C7 C11 1.460 . S
C7 H13 0.929 . S
N8 Mn1 2.257 . S
N8 C7 1.326 . S
N8 C12 1.362 . S
C9 C10 1.258 . S
C9 C12 1.431 . S
C9 C29 1.449 . S
C10 C9 1.258 . S
C10 C11 1.477 . S
C10 H30 0.931 . S
C11 C7 1.460 . S
C11 C10 1.477 . S
C11 H31 0.930 . S
C12 N8 1.362 . S
C12 C9 1.431 . S
C12 C22 1.476 . S
H13 C7 0.929 . S
C14 O5 1.250 . S
C14 O6 1.258 . S
O15 Mn0 2.162 . S
O15 C3 1.281 . S
O16 Mn0 2.297 . S
O16 C3 1.236 . S
N17 Mn1 2.282 . S
N17 C18 1.328 1_455 S
N17 C22 1.318 . S
C18 N17 1.328 1_655 S
C18 C19 1.457 . S
C18 H23 0.948 . S
C19 C18 1.457 . S
C19 C20 1.291 . S
C19 H32 0.931 . S
C20 C19 1.291 . S
C20 C21 1.373 . S
C20 H33 0.929 . S
C21 C20 1.373 . S
C21 C22 1.396 1_655 S
C21 C28 1.403 . S
C22 C12 1.476 . S
C22 N17 1.318 . S
C22 C21 1.396 1_455 S
H23 C18 0.948 . S
O24 Mn0 2.385 . S
O24 C2 1.234 . S
O25 Mn0 2.209 . S
O25 Mn1 2.215 1_554 S
O25 C2 1.283 . S
O26 Mn0 2.094 . S
O26 C4 1.240 . S
O27 Mn1 2.117 1_554 S
O27 C4 1.264 . S
C28 C21 1.403 . S
C28 C29 1.399 1_655 S
C28 H34 0.929 . S
C29 C9 1.449 . S
C29 C28 1.399 1_455 S
C29 H35 0.930 . S
H30 C10 0.931 . S
H31 C11 0.930 . S
H32 C19 0.931 . S
H33 C20 0.929 . S
H34 C28 0.929 . S
H35 C29 0.930 . S
Mn36 O41 2.095 . S
Mn36 O51 2.162 . S
Mn36 O52 2.297 . S
Mn36 O60 2.385 . S
Mn36 O61 2.209 . S
Mn36 O62 2.094 . S
Mn37 O42 2.121 . S
Mn37 N44 2.257 . S
Mn37 N53 2.282 . S
Mn37 O61 2.215 . S
Mn37 O63 2.117 . S
C38 O60 1.234 . S
C38 O61 1.283 . S
C39 O51 1.281 . S
C39 O52 1.236 . S
C40 O62 1.240 . S
C40 O63 1.264 . S
O41 Mn36 2.095 . S
O41 C50 1.250 . S
O42 Mn37 2.121 . S
O42 C50 1.258 . S
C43 N44 1.326 . S
C43 C47 1.460 1_655 S
C43 H49 0.929 . S
N44 Mn37 2.257 . S
N44 C43 1.326 . S
N44 C48 1.362 . S
C45 C46 1.258 . S
C45 C48 1.431 1_455 S
C45 C65 1.449 . S
C46 C45 1.258 . S
C46 C47 1.477 . S
C46 H66 0.931 . S
C47 C43 1.460 1_455 S
C47 C46 1.477 . S
C47 H67 0.930 . S
C48 N44 1.362 . S
C48 C45 1.431 1_655 S
C48 C58 1.476 . S
H49 C43 0.929 . S
C50 O41 1.250 . S
C50 O42 1.258 . S
O51 Mn36 2.162 . S
O51 C39 1.281 . S
O52 Mn36 2.297 . S
O52 C39 1.236 . S
N53 Mn37 2.282 . S
N53 C54 1.328 . S
N53 C58 1.318 . S
C54 N53 1.328 . S
C54 C55 1.457 . S
C54 H59 0.929 . S
C55 C54 1.457 . S
C55 C56 1.291 . S
C55 H68 0.931 . S
C56 C55 1.291 . S
C56 C57 1.373 . S
C56 H69 0.929 . S
C57 C56 1.373 . S
C57 C58 1.396 . S
C57 C64 1.403 1_655 S
C58 C48 1.476 . S
C58 N53 1.318 . S
C58 C57 1.396 . S
H59 C54 0.929 . S
O60 Mn36 2.385 . S
O60 C38 1.234 . S
O61 Mn36 2.209 . S
O61 Mn37 2.215 . S
O61 C38 1.283 . S
O62 Mn36 2.094 . S
O62 C40 1.240 . S
O63 Mn37 2.117 . S
O63 C40 1.264 . S
C64 C57 1.403 1_455 S
C64 C65 1.399 . S
C64 H70 0.929 . S
C65 C45 1.449 . S
C65 C64 1.399 . S
C65 H71 0.930 . S
H66 C46 0.931 . S
H67 C47 0.930 . S
H68 C55 0.931 . S
H69 C56 0.929 . S
H70 C64 0.929 . S
H71 C65 0.930 . S
Mn72 O77 2.095 . S
Mn72 O87 2.162 . S
Mn72 O88 2.297 . S
Mn72 O96 2.385 . S
Mn72 O97 2.209 . S
Mn72 O98 2.094 . S
Mn73 O78 2.121 . S
Mn73 N80 2.257 . S
Mn73 N89 2.282 . S
Mn73 O97 2.215 . S
Mn73 O99 2.117 . S
C74 O96 1.234 . S
C74 O97 1.283 . S
C75 O87 1.281 . S
C75 O88 1.236 . S
C76 O98 1.240 . S
C76 O99 1.264 . S
O77 Mn72 2.095 . S
O77 C86 1.250 . S
O78 Mn73 2.121 . S
O78 C86 1.258 . S
C79 N80 1.326 . S
C79 C83 1.460 . S
C79 H85 0.929 . S
N80 Mn73 2.257 . S
N80 C79 1.326 . S
N80 C84 1.362 . S
C81 C82 1.258 . S
C81 C84 1.431 . S
C81 C101 1.449 . S
C82 C81 1.258 . S
C82 C83 1.477 . S
C82 H102 0.931 . S
C83 C79 1.460 . S
C83 C82 1.477 . S
C83 H103 0.930 . S
C84 N80 1.362 . S
C84 C81 1.431 . S
C84 C94 1.476 . S
H85 C79 0.929 . S
C86 O77 1.250 . S
C86 O78 1.258 . S
O87 Mn72 2.162 . S
O87 C75 1.281 . S
O88 Mn72 2.297 . S
O88 C75 1.236 . S
N89 Mn73 2.282 . S
N89 C90 1.328 . S
N89 C94 1.318 . S
C90 N89 1.328 . S
C90 C91 1.457 . S
C90 H95 0.929 . S
C91 C90 1.457 . S
C91 C92 1.291 . S
C91 H104 0.931 . S
C92 C91 1.291 . S
C92 C93 1.373 . S
C92 H105 0.929 . S
C93 C92 1.373 . S
C93 C94 1.396 . S
C93 C100 1.403 . S
C94 C84 1.476 . S
C94 N89 1.318 . S
C94 C93 1.396 . S
H95 C90 0.929 . S
O96 Mn72 2.385 . S
O96 C74 1.234 . S
O97 Mn72 2.209 . S
O97 Mn73 2.215 . S
O97 C74 1.283 . S
O98 Mn72 2.094 . S
O98 C76 1.240 . S
O99 Mn73 2.117 . S
O99 C76 1.264 . S
C100 C93 1.403 . S
C100 C101 1.399 . S
C100 H106 0.929 . S
C101 C81 1.449 . S
C101 C100 1.399 . S
C101 H107 0.930 . S
H102 C82 0.931 . S
H103 C83 0.930 . S
H104 C91 0.931 . S
H105 C92 0.929 . S
H106 C100 0.929 . S
H107 C101 0.930 . S
Mn108 O113 2.095 . S
Mn108 O123 2.162 . S
Mn108 O124 2.297 . S
Mn108 O132 2.385 . S
Mn108 O133 2.209 . S
Mn108 O134 2.094 . S
Mn109 O114 2.121 . S
Mn109 N116 2.257 . S
Mn109 N125 2.282 . S
Mn109 O133 2.215 . S
Mn109 O135 2.117 . S
C110 O132 1.234 . S
C110 O133 1.283 . S
C111 O123 1.281 . S
C111 O124 1.236 . S
C112 O134 1.240 . S
C112 O135 1.264 . S
O113 Mn108 2.095 . S
O113 C122 1.250 . S
O114 Mn109 2.121 . S
O114 C122 1.258 . S
C115 N116 1.326 . S
C115 C119 1.460 . S
C115 H121 0.929 . S
N116 Mn109 2.257 . S
N116 C115 1.326 . S
N116 C120 1.362 . S
C117 C118 1.258 . S
C117 C120 1.431 . S
C117 C137 1.449 . S
C118 C117 1.258 . S
C118 C119 1.477 . S
C118 H138 0.931 . S
C119 C115 1.460 . S
C119 C118 1.477 . S
C119 H139 0.930 . S
C120 N116 1.362 . S
C120 C117 1.431 . S
C120 C130 1.476 . S
H121 C115 0.929 . S
C122 O113 1.250 . S
C122 O114 1.258 . S
O123 Mn108 2.162 . S
O123 C111 1.281 . S
O124 Mn108 2.297 . S
O124 C111 1.236 . S
N125 Mn109 2.282 . S
N125 C126 1.328 . S
N125 C130 1.318 . S
C126 N125 1.328 . S
C126 C127 1.457 . S
C126 H131 0.929 . S
C127 C126 1.457 . S
C127 C128 1.291 . S
C127 H140 0.931 . S
C128 C127 1.291 . S
C128 C129 1.373 . S
C128 H141 0.929 . S
C129 C128 1.373 . S
C129 C130 1.396 . S
C129 C136 1.403 . S
C130 C120 1.476 . S
C130 N125 1.318 . S
C130 C129 1.396 . S
H131 C126 0.929 . S
O132 Mn108 2.385 . S
O132 C110 1.234 . S
O133 Mn108 2.209 . S
O133 Mn109 2.215 . S
O133 C110 1.283 . S
O134 Mn108 2.094 . S
O134 C112 1.240 . S
O135 Mn109 2.117 . S
O135 C112 1.264 . S
C136 C129 1.403 . S
C136 C137 1.399 . S
C136 H142 0.929 . S
C137 C117 1.449 . S
C137 C136 1.399 . S
C137 H143 0.930 . S
H138 C118 0.931 . S
H139 C119 0.930 . S
H140 C127 0.931 . S
H141 C128 0.929 . S
H142 C136 0.929 . S
H143 C137 0.930 . S
Mn144 O149 2.095 . S
Mn144 O159 2.162 . S
Mn144 O160 2.297 . S
Mn144 O168 2.385 . S
Mn144 O169 2.209 . S
Mn144 O170 2.094 . S
Mn145 O150 2.121 . S
Mn145 N152 2.257 . S
Mn145 N161 2.282 . S
Mn145 O169 2.215 . S
Mn145 O171 2.117 . S
C146 O168 1.234 . S
C146 O169 1.283 . S
C147 O159 1.281 . S
C147 O160 1.236 . S
C148 O170 1.240 . S
C148 O171 1.264 . S
O149 Mn144 2.095 . S
O149 C158 1.250 . S
O150 Mn145 2.121 . S
O150 C158 1.258 . S
C151 N152 1.326 . S
C151 C155 1.460 . S
C151 H157 0.929 . S
N152 Mn145 2.257 . S
N152 C151 1.326 . S
N152 C156 1.362 . S
C153 C154 1.258 . S
C153 C156 1.431 . S
C153 C173 1.449 . S
C154 C153 1.258 . S
C154 C155 1.477 . S
C154 H174 0.931 . S
C155 C151 1.460 . S
C155 C154 1.477 . S
C155 H175 0.930 . S
C156 N152 1.362 . S
C156 C153 1.431 . S
C156 C166 1.476 . S
H157 C151 0.929 . S
C158 O149 1.250 . S
C158 O150 1.258 . S
O159 Mn144 2.162 . S
O159 C147 1.281 . S
O160 Mn144 2.297 . S
O160 C147 1.236 . S
N161 Mn145 2.282 . S
N161 C162 1.328 1_455 S
N161 C166 1.318 . S
C162 N161 1.328 1_655 S
C162 C163 1.457 . S
C162 H167 0.929 . S
C163 C162 1.457 . S
C163 C164 1.291 . S
C163 H176 0.931 . S
C164 C163 1.291 . S
C164 C165 1.373 . S
C164 H177 0.929 . S
C165 C164 1.373 . S
C165 C166 1.396 1_655 S
C165 C172 1.403 . S
C166 C156 1.476 . S
C166 N161 1.318 . S
C166 C165 1.396 1_455 S
H167 C162 0.929 . S
O168 Mn144 2.385 . S
O168 C146 1.234 . S
O169 Mn144 2.209 . S
O169 Mn145 2.215 . S
O169 C146 1.283 . S
O170 Mn144 2.094 . S
O170 C148 1.240 . S
O171 Mn145 2.117 . S
O171 C148 1.264 . S
C172 C165 1.403 . S
C172 C173 1.399 1_655 S
C172 H178 0.929 . S
C173 C153 1.449 . S
C173 C172 1.399 1_455 S
C173 H179 0.930 . S
H174 C154 0.931 . S
H175 C155 0.930 . S
H176 C163 0.931 . S
H177 C164 0.929 . S
H178 C172 0.929 . S
H179 C173 0.930 . S
Mn180 O185 2.095 . S
Mn180 O195 2.162 . S
Mn180 O196 2.297 . S
Mn180 O204 2.385 . S
Mn180 O205 2.209 . S
Mn180 O206 2.094 . S
Mn181 O186 2.121 . S
Mn181 N188 2.257 . S
Mn181 N197 2.282 . S
Mn181 O205 2.215 . S
Mn181 O207 2.117 . S
C182 O204 1.234 . S
C182 O205 1.283 . S
C183 O195 1.281 . S
C183 O196 1.236 . S
C184 O206 1.240 . S
C184 O207 1.264 . S
O185 Mn180 2.095 . S
O185 C194 1.250 . S
O186 Mn181 2.121 . S
O186 C194 1.258 . S
C187 N188 1.326 . S
C187 C191 1.460 . S
C187 H193 0.929 . S
N188 Mn181 2.257 . S
N188 C187 1.326 . S
N188 C192 1.362 . S
C189 C190 1.258 . S
C189 C192 1.431 . S
C189 C209 1.449 . S
C190 C189 1.258 . S
C190 C191 1.477 . S
C190 H210 0.931 . S
C191 C187 1.460 . S
C191 C190 1.477 . S
C191 H211 0.930 . S
C192 N188 1.362 . S
C192 C189 1.431 . S
C192 C202 1.476 . S
H193 C187 0.929 . S
C194 O185 1.250 . S
C194 O186 1.258 . S
O195 Mn180 2.162 . S
O195 C183 1.281 . S
O196 Mn180 2.297 . S
O196 C183 1.236 . S
N197 Mn181 2.282 . S
N197 C198 1.328 . S
N197 C202 1.318 . S
C198 N197 1.328 . S
C198 C199 1.457 . S
C198 H203 0.929 . S
C199 C198 1.457 . S
C199 C200 1.291 . S
C199 H212 0.931 . S
C200 C199 1.291 . S
C200 C201 1.373 . S
C200 H213 0.929 . S
C201 C200 1.373 . S
C201 C202 1.396 . S
C201 C208 1.403 . S
C202 C192 1.476 . S
C202 N197 1.318 . S
C202 C201 1.396 . S
H203 C198 0.929 . S
O204 Mn180 2.385 . S
O204 C182 1.234 . S
O205 Mn180 2.209 . S
O205 Mn181 2.215 . S
O205 C182 1.283 . S
O206 Mn180 2.094 . S
O206 C184 1.240 . S
O207 Mn181 2.117 . S
O207 C184 1.264 . S
C208 C201 1.403 . S
C208 C209 1.399 . S
C208 H214 0.929 . S
C209 C189 1.449 . S
C209 C208 1.399 . S
C209 H215 0.930 . S
H210 C190 0.931 . S
H211 C191 0.930 . S
H212 C199 0.931 . S
H213 C200 0.929 . S
H214 C208 0.929 . S
H215 C209 0.930 . S
Mn216 O221 2.095 . S
Mn216 O231 2.162 . S
Mn216 O232 2.297 . S
Mn216 O240 2.385 . S
Mn216 O241 2.209 . S
Mn216 O242 2.094 . S
Mn217 O222 2.121 1_554 S
Mn217 N224 2.257 . S
Mn217 N233 2.282 . S
Mn217 O241 2.215 1_554 S
Mn217 O243 2.117 1_554 S
C218 O240 1.234 . S
C218 O241 1.283 . S
C219 O231 1.281 . S
C219 O232 1.236 . S
C220 O242 1.240 . S
C220 O243 1.264 . S
O221 Mn216 2.095 . S
O221 C230 1.250 . S
O222 Mn217 2.121 1_556 S
O222 C230 1.258 . S
C223 N224 1.326 . S
C223 C227 1.460 . S
C223 H229 0.929 . S
N224 Mn217 2.257 . S
N224 C223 1.326 . S
N224 C228 1.362 . S
C225 C226 1.258 . S
C225 C228 1.431 . S
C225 C245 1.449 . S
C226 C225 1.258 . S
C226 C227 1.477 . S
C226 H246 0.931 . S
C227 C223 1.460 . S
C227 C226 1.477 . S
C227 H247 0.930 . S
C228 N224 1.362 . S
C228 C225 1.431 . S
C228 C238 1.476 . S
H229 C223 0.929 . S
C230 O221 1.250 . S
C230 O222 1.258 . S
O231 Mn216 2.162 . S
O231 C219 1.281 . S
O232 Mn216 2.297 . S
O232 C219 1.236 . S
N233 Mn217 2.282 . S
N233 C234 1.328 . S
N233 C238 1.318 . S
C234 N233 1.328 . S
C234 C235 1.457 . S
C234 H239 0.948 . S
C235 C234 1.457 . S
C235 C236 1.291 . S
C235 H248 0.931 . S
C236 C235 1.291 . S
C236 C237 1.373 . S
C236 H249 0.929 . S
C237 C236 1.373 . S
C237 C238 1.396 . S
C237 C244 1.403 . S
C238 C228 1.476 . S
C238 N233 1.318 . S
C238 C237 1.396 . S
H239 C234 0.948 . S
O240 Mn216 2.385 . S
O240 C218 1.234 . S
O241 Mn216 2.209 . S
O241 Mn217 2.215 1_556 S
O241 C218 1.283 . S
O242 Mn216 2.094 . S
O242 C220 1.240 . S
O243 Mn217 2.117 1_556 S
O243 C220 1.264 . S
C244 C237 1.403 . S
C244 C245 1.399 . S
C244 H250 0.929 . S
C245 C225 1.449 . S
C245 C244 1.399 . S
C245 H251 0.930 . S
H246 C226 0.931 . S
H247 C227 0.930 . S
H248 C235 0.931 . S
H249 C236 0.929 . S
H250 C244 0.929 . S
H251 C245 0.930 . S
Mn252 O257 2.095 . S
Mn252 O267 2.162 . S
Mn252 O268 2.297 . S
Mn252 O276 2.385 . S
Mn252 O277 2.209 . S
Mn252 O278 2.094 . S
Mn253 O258 2.121 . S
Mn253 N260 2.257 . S
Mn253 N269 2.282 . S
Mn253 O277 2.215 . S
Mn253 O279 2.117 . S
C254 O276 1.234 . S
C254 O277 1.283 . S
C255 O267 1.281 . S
C255 O268 1.236 . S
C256 O278 1.240 . S
C256 O279 1.264 . S
O257 Mn252 2.095 . S
O257 C266 1.250 . S
O258 Mn253 2.121 . S
O258 C266 1.258 . S
C259 N260 1.326 . S
C259 C263 1.460 1_655 S
C259 H265 0.929 . S
N260 Mn253 2.257 . S
N260 C259 1.326 . S
N260 C264 1.362 . S
C261 C262 1.258 . S
C261 C264 1.431 1_455 S
C261 C281 1.449 . S
C262 C261 1.258 . S
C262 C263 1.477 . S
C262 H282 0.931 . S
C263 C259 1.460 1_455 S
C263 C262 1.477 . S
C263 H283 0.930 . S
C264 N260 1.362 . S
C264 C261 1.431 1_655 S
C264 C274 1.476 . S
H265 C259 0.929 . S
C266 O257 1.250 . S
C266 O258 1.258 . S
O267 Mn252 2.162 . S
O267 C255 1.281 . S
O268 Mn252 2.297 . S
O268 C255 1.236 . S
N269 Mn253 2.282 . S
N269 C270 1.328 . S
N269 C274 1.318 . S
C270 N269 1.328 . S
C270 C271 1.457 . S
C270 H275 0.929 . S
C271 C270 1.457 . S
C271 C272 1.291 . S
C271 H284 0.931 . S
C272 C271 1.291 . S
C272 C273 1.373 . S
C272 H285 0.929 . S
C273 C272 1.373 . S
C273 C274 1.396 . S
C273 C280 1.403 1_655 S
C274 C264 1.476 . S
C274 N269 1.318 . S
C274 C273 1.396 . S
H275 C270 0.929 . S
O276 Mn252 2.385 . S
O276 C254 1.234 . S
O277 Mn252 2.209 . S
O277 Mn253 2.215 . S
O277 C254 1.283 . S
O278 Mn252 2.094 . S
O278 C256 1.240 . S
O279 Mn253 2.117 . S
O279 C256 1.264 . S
C280 C273 1.403 1_455 S
C280 C281 1.399 . S
C280 H286 0.929 . S
C281 C261 1.449 . S
C281 C280 1.399 . S
C281 H287 0.930 . S
H282 C262 0.931 . S
H283 C263 0.930 . S
H284 C271 0.931 . S
H285 C272 0.929 . S
H286 C280 0.929 . S
H287 C281 0.930 . S
Mn288 O293 2.095 . S
Mn288 O303 2.162 . S
Mn288 O304 2.297 . S
Mn288 O312 2.385 . S
Mn288 O313 2.209 . S
Mn288 O314 2.094 . S
Mn289 O294 2.121 1_554 S
Mn289 N296 2.257 . S
Mn289 N305 2.282 . S
Mn289 O313 2.215 1_554 S
Mn289 O315 2.117 1_554 S
C290 O312 1.234 . S
C290 O313 1.283 . S
C291 O303 1.281 . S
C291 O304 1.236 . S
C292 O314 1.240 . S
C292 O315 1.264 . S
O293 Mn288 2.095 . S
O293 C302 1.250 . S
O294 Mn289 2.121 1_556 S
O294 C302 1.258 . S
C295 N296 1.326 . S
C295 C299 1.460 . S
C295 H301 0.929 . S
N296 Mn289 2.257 . S
N296 C295 1.326 . S
N296 C300 1.362 . S
C297 C298 1.258 . S
C297 C300 1.431 . S
C297 C317 1.449 . S
C298 C297 1.258 . S
C298 C299 1.477 . S
C298 H318 0.931 . S
C299 C295 1.460 . S
C299 C298 1.477 . S
C299 H319 0.930 . S
C300 N296 1.362 . S
C300 C297 1.431 . S
C300 C310 1.476 . S
H301 C295 0.929 . S
C302 O293 1.250 . S
C302 O294 1.258 . S
O303 Mn288 2.162 . S
O303 C291 1.281 . S
O304 Mn288 2.297 . S
O304 C291 1.236 . S
N305 Mn289 2.282 . S
N305 C306 1.328 1_655 S
N305 C310 1.318 . S
C306 N305 1.328 1_455 S
C306 C307 1.457 . S
C306 H311 0.948 . S
C307 C306 1.457 . S
C307 C308 1.291 . S
C307 H320 0.931 . S
C308 C307 1.291 . S
C308 C309 1.373 . S
C308 H321 0.929 . S
C309 C308 1.373 . S
C309 C310 1.396 1_455 S
C309 C316 1.403 . S
C310 C300 1.476 . S
C310 N305 1.318 . S
C310 C309 1.396 1_655 S
H311 C306 0.948 . S
O312 Mn288 2.385 . S
O312 C290 1.234 . S
O313 Mn288 2.209 . S
O313 Mn289 2.215 1_556 S
O313 C290 1.283 . S
O314 Mn288 2.094 . S
O314 C292 1.240 . S
O315 Mn289 2.117 1_556 S
O315 C292 1.264 . S
C316 C309 1.403 . S
C316 C317 1.399 1_455 S
C316 H322 0.929 . S
C317 C297 1.449 . S
C317 C316 1.399 1_655 S
C317 H323 0.930 . S
H318 C298 0.931 . S
H319 C299 0.930 . S
H320 C307 0.931 . S
H321 C308 0.929 . S
H322 C316 0.929 . S
H323 C317 0.930 . S
Mn324 O329 2.095 . S
Mn324 O339 2.162 . S
Mn324 O340 2.297 . S
Mn324 O348 2.385 . S
Mn324 O349 2.209 . S
Mn324 O350 2.094 . S
Mn325 O330 2.121 . S
Mn325 N332 2.257 . S
Mn325 N341 2.282 . S
Mn325 O349 2.215 . S
Mn325 O351 2.117 . S
C326 O348 1.234 . S
C326 O349 1.283 . S
C327 O339 1.281 . S
C327 O340 1.236 . S
C328 O350 1.240 . S
C328 O351 1.264 . S
O329 Mn324 2.095 . S
O329 C338 1.250 . S
O330 Mn325 2.121 . S
O330 C338 1.258 . S
C331 N332 1.326 . S
C331 C335 1.460 1_455 S
C331 H337 0.929 . S
N332 Mn325 2.257 . S
N332 C331 1.326 . S
N332 C336 1.362 . S
C333 C334 1.258 . S
C333 C336 1.431 1_655 S
C333 C353 1.449 . S
C334 C333 1.258 . S
C334 C335 1.477 . S
C334 H354 0.931 . S
C335 C331 1.460 1_655 S
C335 C334 1.477 . S
C335 H355 0.930 . S
C336 N332 1.362 . S
C336 C333 1.431 1_455 S
C336 C346 1.476 . S
H337 C331 0.929 . S
C338 O329 1.250 . S
C338 O330 1.258 . S
O339 Mn324 2.162 . S
O339 C327 1.281 . S
O340 Mn324 2.297 . S
O340 C327 1.236 . S
N341 Mn325 2.282 . S
N341 C342 1.328 . S
N341 C346 1.318 . S
C342 N341 1.328 . S
C342 C343 1.457 . S
C342 H347 0.929 . S
C343 C342 1.457 . S
C343 C344 1.291 . S
C343 H356 0.931 . S
C344 C343 1.291 . S
C344 C345 1.373 . S
C344 H357 0.929 . S
C345 C344 1.373 . S
C345 C346 1.396 . S
C345 C352 1.403 1_455 S
C346 C336 1.476 . S
C346 N341 1.318 . S
C346 C345 1.396 . S
H347 C342 0.929 . S
O348 Mn324 2.385 . S
O348 C326 1.234 . S
O349 Mn324 2.209 . S
O349 Mn325 2.215 . S
O349 C326 1.283 . S
O350 Mn324 2.094 . S
O350 C328 1.240 . S
O351 Mn325 2.117 . S
O351 C328 1.264 . S
C352 C345 1.403 1_655 S
C352 C353 1.399 . S
C352 H358 0.929 . S
C353 C333 1.449 . S
C353 C352 1.399 . S
C353 H359 0.930 . S
H354 C334 0.931 . S
H355 C335 0.930 . S
H356 C343 0.931 . S
H357 C344 0.929 . S
H358 C352 0.929 . S
H359 C353 0.930 . S
Mn360 O365 2.095 . S
Mn360 O375 2.162 . S
Mn360 O376 2.297 . S
Mn360 O384 2.385 . S
Mn360 O385 2.209 . S
Mn360 O386 2.094 . S
Mn361 O366 2.121 . S
Mn361 N368 2.257 . S
Mn361 N377 2.282 . S
Mn361 O385 2.215 . S
Mn361 O387 2.117 . S
C362 O384 1.234 . S
C362 O385 1.283 . S
C363 O375 1.281 . S
C363 O376 1.236 . S
C364 O386 1.240 . S
C364 O387 1.264 . S
O365 Mn360 2.095 . S
O365 C374 1.250 . S
O366 Mn361 2.121 . S
O366 C374 1.258 . S
C367 N368 1.326 . S
C367 C371 1.460 . S
C367 H373 0.929 . S
N368 Mn361 2.257 . S
N368 C367 1.326 . S
N368 C372 1.362 . S
C369 C370 1.258 . S
C369 C372 1.431 . S
C369 C389 1.449 . S
C370 C369 1.258 . S
C370 C371 1.477 . S
C370 H390 0.931 . S
C371 C367 1.460 . S
C371 C370 1.477 . S
C371 H391 0.930 . S
C372 N368 1.362 . S
C372 C369 1.431 . S
C372 C382 1.476 . S
H373 C367 0.929 . S
C374 O365 1.250 . S
C374 O366 1.258 . S
O375 Mn360 2.162 . S
O375 C363 1.281 . S
O376 Mn360 2.297 . S
O376 C363 1.236 . S
N377 Mn361 2.282 . S
N377 C378 1.328 . S
N377 C382 1.318 . S
C378 N377 1.328 . S
C378 C379 1.457 . S
C378 H383 0.929 . S
C379 C378 1.457 . S
C379 C380 1.291 . S
C379 H392 0.931 . S
C380 C379 1.291 . S
C380 C381 1.373 . S
C380 H393 0.929 . S
C381 C380 1.373 . S
C381 C382 1.396 . S
C381 C388 1.403 . S
C382 C372 1.476 . S
C382 N377 1.318 . S
C382 C381 1.396 . S
H383 C378 0.929 . S
O384 Mn360 2.385 . S
O384 C362 1.234 . S
O385 Mn360 2.209 . S
O385 Mn361 2.215 . S
O385 C362 1.283 . S
O386 Mn360 2.094 . S
O386 C364 1.240 . S
O387 Mn361 2.117 . S
O387 C364 1.264 . S
C388 C381 1.403 . S
C388 C389 1.399 . S
C388 H394 0.929 . S
C389 C369 1.449 . S
C389 C388 1.399 . S
C389 H395 0.930 . S
H390 C370 0.931 . S
H391 C371 0.930 . S
H392 C379 0.931 . S
H393 C380 0.929 . S
H394 C388 0.929 . S
H395 C389 0.930 . S
Mn396 O401 2.095 . S
Mn396 O411 2.162 . S
Mn396 O412 2.297 . S
Mn396 O420 2.385 . S
Mn396 O421 2.209 . S
Mn396 O422 2.094 . S
Mn397 O402 2.121 . S
Mn397 N404 2.257 . S
Mn397 N413 2.282 . S
Mn397 O421 2.215 . S
Mn397 O423 2.117 . S
C398 O420 1.234 . S
C398 O421 1.283 . S
C399 O411 1.281 . S
C399 O412 1.236 . S
C400 O422 1.240 . S
C400 O423 1.264 . S
O401 Mn396 2.095 . S
O401 C410 1.250 . S
O402 Mn397 2.121 . S
O402 C410 1.258 . S
C403 N404 1.326 . S
C403 C407 1.460 . S
C403 H409 0.929 . S
N404 Mn397 2.257 . S
N404 C403 1.326 . S
N404 C408 1.362 . S
C405 C406 1.258 . S
C405 C408 1.431 . S
C405 C425 1.449 . S
C406 C405 1.258 . S
C406 C407 1.477 . S
C406 H426 0.931 . S
C407 C403 1.460 . S
C407 C406 1.477 . S
C407 H427 0.930 . S
C408 N404 1.362 . S
C408 C405 1.431 . S
C408 C418 1.476 . S
H409 C403 0.929 . S
C410 O401 1.250 . S
C410 O402 1.258 . S
O411 Mn396 2.162 . S
O411 C399 1.281 . S
O412 Mn396 2.297 . S
O412 C399 1.236 . S
N413 Mn397 2.282 . S
N413 C414 1.328 . S
N413 C418 1.318 . S
C414 N413 1.328 . S
C414 C415 1.457 . S
C414 H419 0.929 . S
C415 C414 1.457 . S
C415 C416 1.291 . S
C415 H428 0.931 . S
C416 C415 1.291 . S
C416 C417 1.373 . S
C416 H429 0.929 . S
C417 C416 1.373 . S
C417 C418 1.396 . S
C417 C424 1.403 . S
C418 C408 1.476 . S
C418 N413 1.318 . S
C418 C417 1.396 . S
H419 C414 0.929 . S
O420 Mn396 2.385 . S
O420 C398 1.234 . S
O421 Mn396 2.209 . S
O421 Mn397 2.215 . S
O421 C398 1.283 . S
O422 Mn396 2.094 . S
O422 C400 1.240 . S
O423 Mn397 2.117 . S
O423 C400 1.264 . S
C424 C417 1.403 . S
C424 C425 1.399 . S
C424 H430 0.929 . S
C425 C405 1.449 . S
C425 C424 1.399 . S
C425 H431 0.930 . S
H426 C406 0.931 . S
H427 C407 0.930 . S
H428 C415 0.931 . S
H429 C416 0.929 . S
H430 C424 0.929 . S
H431 C425 0.930 . S
Mn432 O437 2.095 . S
Mn432 O447 2.162 . S
Mn432 O448 2.297 . S
Mn432 O456 2.385 . S
Mn432 O457 2.209 . S
Mn432 O458 2.094 . S
Mn433 O438 2.121 . S
Mn433 N440 2.257 . S
Mn433 N449 2.282 . S
Mn433 O457 2.215 . S
Mn433 O459 2.117 . S
C434 O456 1.234 . S
C434 O457 1.283 . S
C435 O447 1.281 . S
C435 O448 1.236 . S
C436 O458 1.240 . S
C436 O459 1.264 . S
O437 Mn432 2.095 . S
O437 C446 1.250 . S
O438 Mn433 2.121 . S
O438 C446 1.258 . S
C439 N440 1.326 . S
C439 C443 1.460 . S
C439 H445 0.929 . S
N440 Mn433 2.257 . S
N440 C439 1.326 . S
N440 C444 1.362 . S
C441 C442 1.258 . S
C441 C444 1.431 . S
C441 C461 1.449 . S
C442 C441 1.258 . S
C442 C443 1.477 . S
C442 H462 0.931 . S
C443 C439 1.460 . S
C443 C442 1.477 . S
C443 H463 0.930 . S
C444 N440 1.362 . S
C444 C441 1.431 . S
C444 C454 1.476 . S
H445 C439 0.929 . S
C446 O437 1.250 . S
C446 O438 1.258 . S
O447 Mn432 2.162 . S
O447 C435 1.281 . S
O448 Mn432 2.297 . S
O448 C435 1.236 . S
N449 Mn433 2.282 . S
N449 C450 1.328 1_655 S
N449 C454 1.318 . S
C450 N449 1.328 1_455 S
C450 C451 1.457 . S
C450 H455 0.929 . S
C451 C450 1.457 . S
C451 C452 1.291 . S
C451 H464 0.931 . S
C452 C451 1.291 . S
C452 C453 1.373 . S
C452 H465 0.929 . S
C453 C452 1.373 . S
C453 C454 1.396 1_455 S
C453 C460 1.403 . S
C454 C444 1.476 . S
C454 N449 1.318 . S
C454 C453 1.396 1_655 S
H455 C450 0.929 . S
O456 Mn432 2.385 . S
O456 C434 1.234 . S
O457 Mn432 2.209 . S
O457 Mn433 2.215 . S
O457 C434 1.283 . S
O458 Mn432 2.094 . S
O458 C436 1.240 . S
O459 Mn433 2.117 . S
O459 C436 1.264 . S
C460 C453 1.403 . S
C460 C461 1.399 1_455 S
C460 H466 0.929 . S
C461 C441 1.449 . S
C461 C460 1.399 1_655 S
C461 H467 0.930 . S
H462 C442 0.931 . S
H463 C443 0.930 . S
H464 C451 0.931 . S
H465 C452 0.929 . S
H466 C460 0.929 . S
H467 C461 0.930 . S
Mn468 O473 2.095 . S
Mn468 O483 2.162 . S
Mn468 O484 2.297 . S
Mn468 O492 2.385 . S
Mn468 O493 2.209 . S
Mn468 O494 2.094 . S
Mn469 O474 2.121 . S
Mn469 N476 2.257 . S
Mn469 N485 2.282 . S
Mn469 O493 2.215 . S
Mn469 O495 2.117 . S
C470 O492 1.234 . S
C470 O493 1.283 . S
C471 O483 1.281 . S
C471 O484 1.236 . S
C472 O494 1.240 . S
C472 O495 1.264 . S
O473 Mn468 2.095 . S
O473 C482 1.250 . S
O474 Mn469 2.121 . S
O474 C482 1.258 . S
C475 N476 1.326 . S
C475 C479 1.460 . S
C475 H481 0.929 . S
N476 Mn469 2.257 . S
N476 C475 1.326 . S
N476 C480 1.362 . S
C477 C478 1.258 . S
C477 C480 1.431 . S
C477 C497 1.449 . S
C478 C477 1.258 . S
C478 C479 1.477 . S
C478 H498 0.931 . S
C479 C475 1.460 . S
C479 C478 1.477 . S
C479 H499 0.930 . S
C480 N476 1.362 . S
C480 C477 1.431 . S
C480 C490 1.476 . S
H481 C475 0.929 . S
C482 O473 1.250 . S
C482 O474 1.258 . S
O483 Mn468 2.162 . S
O483 C471 1.281 . S
O484 Mn468 2.297 . S
O484 C471 1.236 . S
N485 Mn469 2.282 . S
N485 C486 1.328 . S
N485 C490 1.318 . S
C486 N485 1.328 . S
C486 C487 1.457 . S
C486 H491 0.929 . S
C487 C486 1.457 . S
C487 C488 1.291 . S
C487 H500 0.931 . S
C488 C487 1.291 . S
C488 C489 1.373 . S
C488 H501 0.929 . S
C489 C488 1.373 . S
C489 C490 1.396 . S
C489 C496 1.403 . S
C490 C480 1.476 . S
C490 N485 1.318 . S
C490 C489 1.396 . S
H491 C486 0.929 . S
O492 Mn468 2.385 . S
O492 C470 1.234 . S
O493 Mn468 2.209 . S
O493 Mn469 2.215 . S
O493 C470 1.283 . S
O494 Mn468 2.094 . S
O494 C472 1.240 . S
O495 Mn469 2.117 . S
O495 C472 1.264 . S
C496 C489 1.403 . S
C496 C497 1.399 . S
C496 H502 0.929 . S
C497 C477 1.449 . S
C497 C496 1.399 . S
C497 H503 0.930 . S
H498 C478 0.931 . S
H499 C479 0.930 . S
H500 C487 0.931 . S
H501 C488 0.929 . S
H502 C496 0.929 . S
H503 C497 0.930 . S
Mn504 O509 2.095 . S
Mn504 O519 2.162 . S
Mn504 O520 2.297 . S
Mn504 O528 2.385 . S
Mn504 O529 2.209 . S
Mn504 O530 2.094 . S
Mn505 O510 2.121 1_556 S
Mn505 N512 2.257 . S
Mn505 N521 2.282 . S
Mn505 O529 2.215 1_556 S
Mn505 O531 2.117 1_556 S
C506 O528 1.234 . S
C506 O529 1.283 . S
C507 O519 1.281 . S
C507 O520 1.236 . S
C508 O530 1.240 . S
C508 O531 1.264 . S
O509 Mn504 2.095 . S
O509 C518 1.250 . S
O510 Mn505 2.121 1_554 S
O510 C518 1.258 . S
C511 N512 1.326 . S
C511 C515 1.460 . S
C511 H517 0.929 . S
N512 Mn505 2.257 . S
N512 C511 1.326 . S
N512 C516 1.362 . S
C513 C514 1.258 . S
C513 C516 1.431 . S
C513 C533 1.449 . S
C514 C513 1.258 . S
C514 C515 1.477 . S
C514 H534 0.931 . S
C515 C511 1.460 . S
C515 C514 1.477 . S
C515 H535 0.930 . S
C516 N512 1.362 . S
C516 C513 1.431 . S
C516 C526 1.476 . S
H517 C511 0.929 . S
C518 O509 1.250 . S
C518 O510 1.258 . S
O519 Mn504 2.162 . S
O519 C507 1.281 . S
O520 Mn504 2.297 . S
O520 C507 1.236 . S
N521 Mn505 2.282 . S
N521 C522 1.328 . S
N521 C526 1.318 . S
C522 N521 1.328 . S
C522 C523 1.457 . S
C522 H527 0.948 . S
C523 C522 1.457 . S
C523 C524 1.291 . S
C523 H536 0.931 . S
C524 C523 1.291 . S
C524 C525 1.373 . S
C524 H537 0.929 . S
C525 C524 1.373 . S
C525 C526 1.396 . S
C525 C532 1.403 . S
C526 C516 1.476 . S
C526 N521 1.318 . S
C526 C525 1.396 . S
H527 C522 0.948 . S
O528 Mn504 2.385 . S
O528 C506 1.234 . S
O529 Mn504 2.209 . S
O529 Mn505 2.215 1_554 S
O529 C506 1.283 . S
O530 Mn504 2.094 . S
O530 C508 1.240 . S
O531 Mn505 2.117 1_554 S
O531 C508 1.264 . S
C532 C525 1.403 . S
C532 C533 1.399 . S
C532 H538 0.929 . S
C533 C513 1.449 . S
C533 C532 1.399 . S
C533 H539 0.930 . S
H534 C514 0.931 . S
H535 C515 0.930 . S
H536 C523 0.931 . S
H537 C524 0.929 . S
H538 C532 0.929 . S
H539 C533 0.930 . S
Mn540 O545 2.095 . S
Mn540 O555 2.162 . S
Mn540 O556 2.297 . S
Mn540 O564 2.385 . S
Mn540 O565 2.209 . S
Mn540 O566 2.094 . S
Mn541 O546 2.121 . S
Mn541 N548 2.257 . S
Mn541 N557 2.282 . S
Mn541 O565 2.215 . S
Mn541 O567 2.117 . S
C542 O564 1.234 . S
C542 O565 1.283 . S
C543 O555 1.281 . S
C543 O556 1.236 . S
C544 O566 1.240 . S
C544 O567 1.264 . S
O545 Mn540 2.095 . S
O545 C554 1.250 . S
O546 Mn541 2.121 . S
O546 C554 1.258 . S
C547 N548 1.326 . S
C547 C551 1.460 1_455 S
C547 H553 0.929 . S
N548 Mn541 2.257 . S
N548 C547 1.326 . S
N548 C552 1.362 . S
C549 C550 1.258 . S
C549 C552 1.431 1_655 S
C549 C569 1.449 . S
C550 C549 1.258 . S
C550 C551 1.477 . S
C550 H570 0.931 . S
C551 C547 1.460 1_655 S
C551 C550 1.477 . S
C551 H571 0.930 . S
C552 N548 1.362 . S
C552 C549 1.431 1_455 S
C552 C562 1.476 . S
H553 C547 0.929 . S
C554 O545 1.250 . S
C554 O546 1.258 . S
O555 Mn540 2.162 . S
O555 C543 1.281 . S
O556 Mn540 2.297 . S
O556 C543 1.236 . S
N557 Mn541 2.282 . S
N557 C558 1.328 . S
N557 C562 1.318 . S
C558 N557 1.328 . S
C558 C559 1.457 . S
C558 H563 0.929 . S
C559 C558 1.457 . S
C559 C560 1.291 . S
C559 H572 0.931 . S
C560 C559 1.291 . S
C560 C561 1.373 . S
C560 H573 0.929 . S
C561 C560 1.373 . S
C561 C562 1.396 . S
C561 C568 1.403 1_455 S
C562 C552 1.476 . S
C562 N557 1.318 . S
C562 C561 1.396 . S
H563 C558 0.929 . S
O564 Mn540 2.385 . S
O564 C542 1.234 . S
O565 Mn540 2.209 . S
O565 Mn541 2.215 . S
O565 C542 1.283 . S
O566 Mn540 2.094 . S
O566 C544 1.240 . S
O567 Mn541 2.117 . S
O567 C544 1.264 . S
C568 C561 1.403 1_655 S
C568 C569 1.399 . S
C568 H574 0.929 . S
C569 C549 1.449 . S
C569 C568 1.399 . S
C569 H575 0.930 . S
H570 C550 0.931 . S
H571 C551 0.930 . S
H572 C559 0.931 . S
H573 C560 0.929 . S
H574 C568 0.929 . S
H575 C569 0.930 . S
Mn576 O581 2.095 . S
Mn576 O591 2.162 . S
Mn576 O592 2.297 . S
Mn576 O600 2.385 . S
Mn576 O601 2.209 . S
Mn576 O602 2.094 . S
Mn577 O582 2.121 . S
Mn577 N584 2.257 . S
Mn577 N593 2.282 . S
Mn577 O601 2.215 . S
Mn577 O603 2.117 . S
C578 O600 1.234 . S
C578 O601 1.283 . S
C579 O591 1.281 . S
C579 O592 1.236 . S
C580 O602 1.240 . S
C580 O603 1.264 . S
O581 Mn576 2.095 . S
O581 C590 1.250 . S
O582 Mn577 2.121 . S
O582 C590 1.258 . S
C583 N584 1.326 . S
C583 C587 1.460 . S
C583 H589 0.929 . S
N584 Mn577 2.257 . S
N584 C583 1.326 . S
N584 C588 1.362 . S
C585 C586 1.258 . S
C585 C588 1.431 . S
C585 C605 1.449 . S
C586 C585 1.258 . S
C586 C587 1.477 . S
C586 H606 0.931 . S
C587 C583 1.460 . S
C587 C586 1.477 . S
C587 H607 0.930 . S
C588 N584 1.362 . S
C588 C585 1.431 . S
C588 C598 1.476 . S
H589 C583 0.929 . S
C590 O581 1.250 . S
C590 O582 1.258 . S
O591 Mn576 2.162 . S
O591 C579 1.281 . S
O592 Mn576 2.297 . S
O592 C579 1.236 . S
N593 Mn577 2.282 . S
N593 C594 1.328 . S
N593 C598 1.318 . S
C594 N593 1.328 . S
C594 C595 1.457 . S
C594 H599 0.929 . S
C595 C594 1.457 . S
C595 C596 1.291 . S
C595 H608 0.931 . S
C596 C595 1.291 . S
C596 C597 1.373 . S
C596 H609 0.929 . S
C597 C596 1.373 . S
C597 C598 1.396 . S
C597 C604 1.403 . S
C598 C588 1.476 . S
C598 N593 1.318 . S
C598 C597 1.396 . S
H599 C594 0.929 . S
O600 Mn576 2.385 . S
O600 C578 1.234 . S
O601 Mn576 2.209 . S
O601 Mn577 2.215 . S
O601 C578 1.283 . S
O602 Mn576 2.094 . S
O602 C580 1.240 . S
O603 Mn577 2.117 . S
O603 C580 1.264 . S
C604 C597 1.403 . S
C604 C605 1.399 . S
C604 H610 0.929 . S
C605 C585 1.449 . S
C605 C604 1.399 . S
C605 H611 0.930 . S
H606 C586 0.931 . S
H607 C587 0.930 . S
H608 C595 0.931 . S
H609 C596 0.929 . S
H610 C604 0.929 . S
H611 C605 0.930 . S
Mn612 O617 2.095 . S
Mn612 O627 2.162 . S
Mn612 O628 2.297 . S
Mn612 O636 2.385 . S
Mn612 O637 2.209 . S
Mn612 O638 2.094 . S
Mn613 O618 2.121 . S
Mn613 N620 2.257 . S
Mn613 N629 2.282 . S
Mn613 O637 2.215 . S
Mn613 O639 2.117 . S
C614 O636 1.234 . S
C614 O637 1.283 . S
C615 O627 1.281 . S
C615 O628 1.236 . S
C616 O638 1.240 . S
C616 O639 1.264 . S
O617 Mn612 2.095 . S
O617 C626 1.250 . S
O618 Mn613 2.121 . S
O618 C626 1.258 . S
C619 N620 1.326 . S
C619 C623 1.460 . S
C619 H625 0.929 . S
N620 Mn613 2.257 . S
N620 C619 1.326 . S
N620 C624 1.362 . S
C621 C622 1.258 . S
C621 C624 1.431 . S
C621 C641 1.449 . S
C622 C621 1.258 . S
C622 C623 1.477 . S
C622 H642 0.931 . S
C623 C619 1.460 . S
C623 C622 1.477 . S
C623 H643 0.930 . S
C624 N620 1.362 . S
C624 C621 1.431 . S
C624 C634 1.476 . S
H625 C619 0.929 . S
C626 O617 1.250 . S
C626 O618 1.258 . S
O627 Mn612 2.162 . S
O627 C615 1.281 . S
O628 Mn612 2.297 . S
O628 C615 1.236 . S
N629 Mn613 2.282 . S
N629 C630 1.328 . S
N629 C634 1.318 . S
C630 N629 1.328 . S
C630 C631 1.457 . S
C630 H635 0.929 . S
C631 C630 1.457 . S
C631 C632 1.291 . S
C631 H644 0.931 . S
C632 C631 1.291 . S
C632 C633 1.373 . S
C632 H645 0.929 . S
C633 C632 1.373 . S
C633 C634 1.396 . S
C633 C640 1.403 . S
C634 C624 1.476 . S
C634 N629 1.318 . S
C634 C633 1.396 . S
H635 C630 0.929 . S
O636 Mn612 2.385 . S
O636 C614 1.234 . S
O637 Mn612 2.209 . S
O637 Mn613 2.215 . S
O637 C614 1.283 . S
O638 Mn612 2.094 . S
O638 C616 1.240 . S
O639 Mn613 2.117 . S
O639 C616 1.264 . S
C640 C633 1.403 . S
C640 C641 1.399 . S
C640 H646 0.929 . S
C641 C621 1.449 . S
C641 C640 1.399 . S
C641 H647 0.930 . S
H642 C622 0.931 . S
H643 C623 0.930 . S
H644 C631 0.931 . S
H645 C632 0.929 . S
H646 C640 0.929 . S
H647 C641 0.930 . S
Mn648 O653 2.095 . S
Mn648 O663 2.162 . S
Mn648 O664 2.297 . S
Mn648 O672 2.385 . S
Mn648 O673 2.209 . S
Mn648 O674 2.094 . S
Mn649 O654 2.121 1_556 S
Mn649 N656 2.257 . S
Mn649 N665 2.282 . S
Mn649 O673 2.215 1_556 S
Mn649 O675 2.117 1_556 S
C650 O672 1.234 . S
C650 O673 1.283 . S
C651 O663 1.281 . S
C651 O664 1.236 . S
C652 O674 1.240 . S
C652 O675 1.264 . S
O653 Mn648 2.095 . S
O653 C662 1.250 . S
O654 Mn649 2.121 1_554 S
O654 C662 1.258 . S
C655 N656 1.326 . S
C655 C659 1.460 . S
C655 H661 0.929 . S
N656 Mn649 2.257 . S
N656 C655 1.326 . S
N656 C660 1.362 . S
C657 C658 1.258 . S
C657 C660 1.431 . S
C657 C677 1.449 . S
C658 C657 1.258 . S
C658 C659 1.477 . S
C658 H678 0.931 . S
C659 C655 1.460 . S
C659 C658 1.477 . S
C659 H679 0.930 . S
C660 N656 1.362 . S
C660 C657 1.431 . S
C660 C670 1.476 . S
H661 C655 0.929 . S
C662 O653 1.250 . S
C662 O654 1.258 . S
O663 Mn648 2.162 . S
O663 C651 1.281 . S
O664 Mn648 2.297 . S
O664 C651 1.236 . S
N665 Mn649 2.282 . S
N665 C666 1.328 1_655 S
N665 C670 1.318 . S
C666 N665 1.328 1_455 S
C666 C667 1.457 . S
C666 H671 0.948 . S
C667 C666 1.457 . S
C667 C668 1.291 . S
C667 H680 0.931 . S
C668 C667 1.291 . S
C668 C669 1.373 . S
C668 H681 0.929 . S
C669 C668 1.373 . S
C669 C670 1.396 1_455 S
C669 C676 1.403 . S
C670 C660 1.476 . S
C670 N665 1.318 . S
C670 C669 1.396 1_655 S
H671 C666 0.948 . S
O672 Mn648 2.385 . S
O672 C650 1.234 . S
O673 Mn648 2.209 . S
O673 Mn649 2.215 1_554 S
O673 C650 1.283 . S
O674 Mn648 2.094 . S
O674 C652 1.240 . S
O675 Mn649 2.117 1_554 S
O675 C652 1.264 . S
C676 C669 1.403 . S
C676 C677 1.399 1_455 S
C676 H682 0.929 . S
C677 C657 1.449 . S
C677 C676 1.399 1_655 S
C677 H683 0.930 . S
H678 C658 0.931 . S
H679 C659 0.930 . S
H680 C667 0.931 . S
H681 C668 0.929 . S
H682 C676 0.929 . S
H683 C677 0.930 . S
Mn684 O689 2.095 . S
Mn684 O699 2.162 . S
Mn684 O700 2.297 . S
Mn684 O708 2.385 . S
Mn684 O709 2.209 . S
Mn684 O710 2.094 . S
Mn685 O690 2.121 . S
Mn685 N692 2.257 . S
Mn685 N701 2.282 . S
Mn685 O709 2.215 . S
Mn685 O711 2.117 . S
C686 O708 1.234 . S
C686 O709 1.283 . S
C687 O699 1.281 . S
C687 O700 1.236 . S
C688 O710 1.240 . S
C688 O711 1.264 . S
O689 Mn684 2.095 . S
O689 C698 1.250 . S
O690 Mn685 2.121 . S
O690 C698 1.258 . S
C691 N692 1.326 . S
C691 C695 1.460 1_455 S
C691 H697 0.929 . S
N692 Mn685 2.257 . S
N692 C691 1.326 . S
N692 C696 1.362 . S
C693 C694 1.258 . S
C693 C696 1.431 1_655 S
C693 C713 1.449 . S
C694 C693 1.258 . S
C694 C695 1.477 . S
C694 H714 0.931 . S
C695 C691 1.460 1_655 S
C695 C694 1.477 . S
C695 H715 0.930 . S
C696 N692 1.362 . S
C696 C693 1.431 1_455 S
C696 C706 1.476 . S
H697 C691 0.929 . S
C698 O689 1.250 . S
C698 O690 1.258 . S
O699 Mn684 2.162 . S
O699 C687 1.281 . S
O700 Mn684 2.297 . S
O700 C687 1.236 . S
N701 Mn685 2.282 . S
N701 C702 1.328 . S
N701 C706 1.318 . S
C702 N701 1.328 . S
C702 C703 1.457 . S
C702 H707 0.929 . S
C703 C702 1.457 . S
C703 C704 1.291 . S
C703 H716 0.931 . S
C704 C703 1.291 . S
C704 C705 1.373 . S
C704 H717 0.929 . S
C705 C704 1.373 . S
C705 C706 1.396 . S
C705 C712 1.403 1_455 S
C706 C696 1.476 . S
C706 N701 1.318 . S
C706 C705 1.396 . S
H707 C702 0.929 . S
O708 Mn684 2.385 . S
O708 C686 1.234 . S
O709 Mn684 2.209 . S
O709 Mn685 2.215 . S
O709 C686 1.283 . S
O710 Mn684 2.094 . S
O710 C688 1.240 . S
O711 Mn685 2.117 . S
O711 C688 1.264 . S
C712 C705 1.403 1_655 S
C712 C713 1.399 . S
C712 H718 0.929 . S
C713 C693 1.449 . S
C713 C712 1.399 . S
C713 H719 0.930 . S
H714 C694 0.931 . S
H715 C695 0.930 . S
H716 C703 0.931 . S
H717 C704 0.929 . S
H718 C712 0.929 . S
H719 C713 0.930 . S
Mn720 O725 2.095 . S
Mn720 O735 2.162 . S
Mn720 O736 2.297 . S
Mn720 O744 2.385 . S
Mn720 O745 2.209 . S
Mn720 O746 2.094 . S
Mn721 O726 2.121 1_554 S
Mn721 N728 2.257 . S
Mn721 N737 2.282 . S
Mn721 O745 2.215 1_554 S
Mn721 O747 2.117 1_554 S
C722 O744 1.234 . S
C722 O745 1.283 . S
C723 O735 1.281 . S
C723 O736 1.236 . S
C724 O746 1.240 . S
C724 O747 1.264 . S
O725 Mn720 2.095 . S
O725 C734 1.250 . S
O726 Mn721 2.121 1_556 S
O726 C734 1.258 . S
C727 N728 1.326 . S
C727 C731 1.460 . S
C727 H733 0.929 . S
N728 Mn721 2.257 . S
N728 C727 1.326 . S
N728 C732 1.362 . S
C729 C730 1.258 . S
C729 C732 1.431 . S
C729 C749 1.449 . S
C730 C729 1.258 . S
C730 C731 1.477 . S
C730 H750 0.931 . S
C731 C727 1.460 . S
C731 C730 1.477 . S
C731 H751 0.930 . S
C732 N728 1.362 . S
C732 C729 1.431 . S
C732 C742 1.476 . S
H733 C727 0.929 . S
C734 O725 1.250 . S
C734 O726 1.258 . S
O735 Mn720 2.162 . S
O735 C723 1.281 . S
O736 Mn720 2.297 . S
O736 C723 1.236 . S
N737 Mn721 2.282 . S
N737 C738 1.328 . S
N737 C742 1.318 . S
C738 N737 1.328 . S
C738 C739 1.457 . S
C738 H743 0.948 . S
C739 C738 1.457 . S
C739 C740 1.291 . S
C739 H752 0.931 . S
C740 C739 1.291 . S
C740 C741 1.373 . S
C740 H753 0.929 . S
C741 C740 1.373 . S
C741 C742 1.396 . S
C741 C748 1.403 . S
C742 C732 1.476 . S
C742 N737 1.318 . S
C742 C741 1.396 . S
H743 C738 0.948 . S
O744 Mn720 2.385 . S
O744 C722 1.234 . S
O745 Mn720 2.209 . S
O745 Mn721 2.215 1_556 S
O745 C722 1.283 . S
O746 Mn720 2.094 . S
O746 C724 1.240 . S
O747 Mn721 2.117 1_556 S
O747 C724 1.264 . S
C748 C741 1.403 . S
C748 C749 1.399 . S
C748 H754 0.929 . S
C749 C729 1.449 . S
C749 C748 1.399 . S
C749 H755 0.930 . S
H750 C730 0.931 . S
H751 C731 0.930 . S
H752 C739 0.931 . S
H753 C740 0.929 . S
H754 C748 0.929 . S
H755 C749 0.930 . S
Mn756 O761 2.095 . S
Mn756 O771 2.162 . S
Mn756 O772 2.297 . S
Mn756 O780 2.385 . S
Mn756 O781 2.209 . S
Mn756 O782 2.094 . S
Mn757 O762 2.121 . S
Mn757 N764 2.257 . S
Mn757 N773 2.282 . S
Mn757 O781 2.215 . S
Mn757 O783 2.117 . S
C758 O780 1.234 . S
C758 O781 1.283 . S
C759 O771 1.281 . S
C759 O772 1.236 . S
C760 O782 1.240 . S
C760 O783 1.264 . S
O761 Mn756 2.095 . S
O761 C770 1.250 . S
O762 Mn757 2.121 . S
O762 C770 1.258 . S
C763 N764 1.326 . S
C763 C767 1.460 1_455 S
C763 H769 0.929 . S
N764 Mn757 2.257 . S
N764 C763 1.326 . S
N764 C768 1.362 . S
C765 C766 1.258 . S
C765 C768 1.431 1_655 S
C765 C785 1.449 . S
C766 C765 1.258 . S
C766 C767 1.477 . S
C766 H786 0.931 . S
C767 C763 1.460 1_655 S
C767 C766 1.477 . S
C767 H787 0.930 . S
C768 N764 1.362 . S
C768 C765 1.431 1_455 S
C768 C778 1.476 . S
H769 C763 0.929 . S
C770 O761 1.250 . S
C770 O762 1.258 . S
O771 Mn756 2.162 . S
O771 C759 1.281 . S
O772 Mn756 2.297 . S
O772 C759 1.236 . S
N773 Mn757 2.282 . S
N773 C774 1.328 . S
N773 C778 1.318 . S
C774 N773 1.328 . S
C774 C775 1.457 . S
C774 H779 0.929 . S
C775 C774 1.457 . S
C775 C776 1.291 . S
C775 H788 0.931 . S
C776 C775 1.291 . S
C776 C777 1.373 . S
C776 H789 0.929 . S
C777 C776 1.373 . S
C777 C778 1.396 . S
C777 C784 1.403 1_455 S
C778 C768 1.476 . S
C778 N773 1.318 . S
C778 C777 1.396 . S
H779 C774 0.929 . S
O780 Mn756 2.385 . S
O780 C758 1.234 . S
O781 Mn756 2.209 . S
O781 Mn757 2.215 . S
O781 C758 1.283 . S
O782 Mn756 2.094 . S
O782 C760 1.240 . S
O783 Mn757 2.117 . S
O783 C760 1.264 . S
C784 C777 1.403 1_655 S
C784 C785 1.399 . S
C784 H790 0.929 . S
C785 C765 1.449 . S
C785 C784 1.399 . S
C785 H791 0.930 . S
H786 C766 0.931 . S
H787 C767 0.930 . S
H788 C775 0.931 . S
H789 C776 0.929 . S
H790 C784 0.929 . S
H791 C785 0.930 . S
Mn792 O797 2.095 . S
Mn792 O807 2.162 . S
Mn792 O808 2.297 . S
Mn792 O816 2.385 . S
Mn792 O817 2.209 . S
Mn792 O818 2.094 . S
Mn793 O798 2.121 . S
Mn793 N800 2.257 . S
Mn793 N809 2.282 . S
Mn793 O817 2.215 . S
Mn793 O819 2.117 . S
C794 O816 1.234 . S
C794 O817 1.283 . S
C795 O807 1.281 . S
C795 O808 1.236 . S
C796 O818 1.240 . S
C796 O819 1.264 . S
O797 Mn792 2.095 . S
O797 C806 1.250 . S
O798 Mn793 2.121 . S
O798 C806 1.258 . S
C799 N800 1.326 . S
C799 C803 1.460 . S
C799 H805 0.929 . S
N800 Mn793 2.257 . S
N800 C799 1.326 . S
N800 C804 1.362 . S
C801 C802 1.258 . S
C801 C804 1.431 . S
C801 C821 1.449 . S
C802 C801 1.258 . S
C802 C803 1.477 . S
C802 H822 0.931 . S
C803 C799 1.460 . S
C803 C802 1.477 . S
C803 H823 0.930 . S
C804 N800 1.362 . S
C804 C801 1.431 . S
C804 C814 1.476 . S
H805 C799 0.929 . S
C806 O797 1.250 . S
C806 O798 1.258 . S
O807 Mn792 2.162 . S
O807 C795 1.281 . S
O808 Mn792 2.297 . S
O808 C795 1.236 . S
N809 Mn793 2.282 . S
N809 C810 1.328 1_655 S
N809 C814 1.318 . S
C810 N809 1.328 1_455 S
C810 C811 1.457 . S
C810 H815 0.929 . S
C811 C810 1.457 . S
C811 C812 1.291 . S
C811 H824 0.931 . S
C812 C811 1.291 . S
C812 C813 1.373 . S
C812 H825 0.929 . S
C813 C812 1.373 . S
C813 C814 1.396 1_455 S
C813 C820 1.403 . S
C814 C804 1.476 . S
C814 N809 1.318 . S
C814 C813 1.396 1_655 S
H815 C810 0.929 . S
O816 Mn792 2.385 . S
O816 C794 1.234 . S
O817 Mn792 2.209 . S
O817 Mn793 2.215 . S
O817 C794 1.283 . S
O818 Mn792 2.094 . S
O818 C796 1.240 . S
O819 Mn793 2.117 . S
O819 C796 1.264 . S
C820 C813 1.403 . S
C820 C821 1.399 1_455 S
C820 H826 0.929 . S
C821 C801 1.449 . S
C821 C820 1.399 1_655 S
C821 H827 0.930 . S
H822 C802 0.931 . S
H823 C803 0.930 . S
H824 C811 0.931 . S
H825 C812 0.929 . S
H826 C820 0.929 . S
H827 C821 0.930 . S
Mn828 O833 2.095 . S
Mn828 O843 2.162 . S
Mn828 O844 2.297 . S
Mn828 O852 2.385 . S
Mn828 O853 2.209 . S
Mn828 O854 2.094 . S
Mn829 O834 2.121 . S
Mn829 N836 2.257 . S
Mn829 N845 2.282 . S
Mn829 O853 2.215 . S
Mn829 O855 2.117 . S
C830 O852 1.234 . S
C830 O853 1.283 . S
C831 O843 1.281 . S
C831 O844 1.236 . S
C832 O854 1.240 . S
C832 O855 1.264 . S
O833 Mn828 2.095 . S
O833 C842 1.250 . S
O834 Mn829 2.121 . S
O834 C842 1.258 . S
C835 N836 1.326 . S
C835 C839 1.460 . S
C835 H841 0.929 . S
N836 Mn829 2.257 . S
N836 C835 1.326 . S
N836 C840 1.362 . S
C837 C838 1.258 . S
C837 C840 1.431 . S
C837 C857 1.449 . S
C838 C837 1.258 . S
C838 C839 1.477 . S
C838 H858 0.931 . S
C839 C835 1.460 . S
C839 C838 1.477 . S
C839 H859 0.930 . S
C840 N836 1.362 . S
C840 C837 1.431 . S
C840 C850 1.476 . S
H841 C835 0.929 . S
C842 O833 1.250 . S
C842 O834 1.258 . S
O843 Mn828 2.162 . S
O843 C831 1.281 . S
O844 Mn828 2.297 . S
O844 C831 1.236 . S
N845 Mn829 2.282 . S
N845 C846 1.328 . S
N845 C850 1.318 . S
C846 N845 1.328 . S
C846 C847 1.457 . S
C846 H851 0.929 . S
C847 C846 1.457 . S
C847 C848 1.291 . S
C847 H860 0.931 . S
C848 C847 1.291 . S
C848 C849 1.373 . S
C848 H861 0.929 . S
C849 C848 1.373 . S
C849 C850 1.396 . S
C849 C856 1.403 . S
C850 C840 1.476 . S
C850 N845 1.318 . S
C850 C849 1.396 . S
H851 C846 0.929 . S
O852 Mn828 2.385 . S
O852 C830 1.234 . S
O853 Mn828 2.209 . S
O853 Mn829 2.215 . S
O853 C830 1.283 . S
O854 Mn828 2.094 . S
O854 C832 1.240 . S
O855 Mn829 2.117 . S
O855 C832 1.264 . S
C856 C849 1.403 . S
C856 C857 1.399 . S
C856 H862 0.929 . S
C857 C837 1.449 . S
C857 C856 1.399 . S
C857 H863 0.930 . S
H858 C838 0.931 . S
H859 C839 0.930 . S
H860 C847 0.931 . S
H861 C848 0.929 . S
H862 C856 0.929 . S
H863 C857 0.930 . S
Mn864 O869 2.095 . S
Mn864 O879 2.162 . S
Mn864 O880 2.297 . S
Mn864 O888 2.385 . S
Mn864 O889 2.209 . S
Mn864 O890 2.094 . S
Mn865 O870 2.121 . S
Mn865 N872 2.257 . S
Mn865 N881 2.282 . S
Mn865 O889 2.215 . S
Mn865 O891 2.117 . S
C866 O888 1.234 . S
C866 O889 1.283 . S
C867 O879 1.281 . S
C867 O880 1.236 . S
C868 O890 1.240 . S
C868 O891 1.264 . S
O869 Mn864 2.095 . S
O869 C878 1.250 . S
O870 Mn865 2.121 . S
O870 C878 1.258 . S
C871 N872 1.326 . S
C871 C875 1.460 . S
C871 H877 0.929 . S
N872 Mn865 2.257 . S
N872 C871 1.326 . S
N872 C876 1.362 . S
C873 C874 1.258 . S
C873 C876 1.431 . S
C873 C893 1.449 . S
C874 C873 1.258 . S
C874 C875 1.477 . S
C874 H894 0.931 . S
C875 C871 1.460 . S
C875 C874 1.477 . S
C875 H895 0.930 . S
C876 N872 1.362 . S
C876 C873 1.431 . S
C876 C886 1.476 . S
H877 C871 0.929 . S
C878 O869 1.250 . S
C878 O870 1.258 . S
O879 Mn864 2.162 . S
O879 C867 1.281 . S
O880 Mn864 2.297 . S
O880 C867 1.236 . S
N881 Mn865 2.282 . S
N881 C882 1.328 . S
N881 C886 1.318 . S
C882 N881 1.328 . S
C882 C883 1.457 . S
C882 H887 0.929 . S
C883 C882 1.457 . S
C883 C884 1.291 . S
C883 H896 0.931 . S
C884 C883 1.291 . S
C884 C885 1.373 . S
C884 H897 0.929 . S
C885 C884 1.373 . S
C885 C886 1.396 . S
C885 C892 1.403 . S
C886 C876 1.476 . S
C886 N881 1.318 . S
C886 C885 1.396 . S
H887 C882 0.929 . S
O888 Mn864 2.385 . S
O888 C866 1.234 . S
O889 Mn864 2.209 . S
O889 Mn865 2.215 . S
O889 C866 1.283 . S
O890 Mn864 2.094 . S
O890 C868 1.240 . S
O891 Mn865 2.117 . S
O891 C868 1.264 . S
C892 C885 1.403 . S
C892 C893 1.399 . S
C892 H898 0.929 . S
C893 C873 1.449 . S
C893 C892 1.399 . S
C893 H899 0.930 . S
H894 C874 0.931 . S
H895 C875 0.930 . S
H896 C883 0.931 . S
H897 C884 0.929 . S
H898 C892 0.929 . S
H899 C893 0.930 . S
Mn900 O905 2.095 . S
Mn900 O915 2.162 . S
Mn900 O916 2.297 . S
Mn900 O924 2.385 . S
Mn900 O925 2.209 . S
Mn900 O926 2.094 . S
Mn901 O906 2.121 . S
Mn901 N908 2.257 . S
Mn901 N917 2.282 . S
Mn901 O925 2.215 . S
Mn901 O927 2.117 . S
C902 O924 1.234 . S
C902 O925 1.283 . S
C903 O915 1.281 . S
C903 O916 1.236 . S
C904 O926 1.240 . S
C904 O927 1.264 . S
O905 Mn900 2.095 . S
O905 C914 1.250 . S
O906 Mn901 2.121 . S
O906 C914 1.258 . S
C907 N908 1.326 . S
C907 C911 1.460 . S
C907 H913 0.929 . S
N908 Mn901 2.257 . S
N908 C907 1.326 . S
N908 C912 1.362 . S
C909 C910 1.258 . S
C909 C912 1.431 . S
C909 C929 1.449 . S
C910 C909 1.258 . S
C910 C911 1.477 . S
C910 H930 0.931 . S
C911 C907 1.460 . S
C911 C910 1.477 . S
C911 H931 0.930 . S
C912 N908 1.362 . S
C912 C909 1.431 . S
C912 C922 1.476 . S
H913 C907 0.929 . S
C914 O905 1.250 . S
C914 O906 1.258 . S
O915 Mn900 2.162 . S
O915 C903 1.281 . S
O916 Mn900 2.297 . S
O916 C903 1.236 . S
N917 Mn901 2.282 . S
N917 C918 1.328 . S
N917 C922 1.318 . S
C918 N917 1.328 . S
C918 C919 1.457 . S
C918 H923 0.929 . S
C919 C918 1.457 . S
C919 C920 1.291 . S
C919 H932 0.931 . S
C920 C919 1.291 . S
C920 C921 1.373 . S
C920 H933 0.929 . S
C921 C920 1.373 . S
C921 C922 1.396 . S
C921 C928 1.403 . S
C922 C912 1.476 . S
C922 N917 1.318 . S
C922 C921 1.396 . S
H923 C918 0.929 . S
O924 Mn900 2.385 . S
O924 C902 1.234 . S
O925 Mn900 2.209 . S
O925 Mn901 2.215 . S
O925 C902 1.283 . S
O926 Mn900 2.094 . S
O926 C904 1.240 . S
O927 Mn901 2.117 . S
O927 C904 1.264 . S
C928 C921 1.403 . S
C928 C929 1.399 . S
C928 H934 0.929 . S
C929 C909 1.449 . S
C929 C928 1.399 . S
C929 H935 0.930 . S
H930 C910 0.931 . S
H931 C911 0.930 . S
H932 C919 0.931 . S
H933 C920 0.929 . S
H934 C928 0.929 . S
H935 C929 0.930 . S
Mn936 O941 2.095 . S
Mn936 O951 2.162 . S
Mn936 O952 2.297 . S
Mn936 O960 2.385 . S
Mn936 O961 2.209 . S
Mn936 O962 2.094 . S
Mn937 O942 2.121 1_554 S
Mn937 N944 2.257 . S
Mn937 N953 2.282 . S
Mn937 O961 2.215 1_554 S
Mn937 O963 2.117 1_554 S
C938 O960 1.234 . S
C938 O961 1.283 . S
C939 O951 1.281 . S
C939 O952 1.236 . S
C940 O962 1.240 . S
C940 O963 1.264 . S
O941 Mn936 2.095 . S
O941 C950 1.250 . S
O942 Mn937 2.121 1_556 S
O942 C950 1.258 . S
C943 N944 1.326 . S
C943 C947 1.460 . S
C943 H949 0.929 . S
N944 Mn937 2.257 . S
N944 C943 1.326 . S
N944 C948 1.362 . S
C945 C946 1.258 . S
C945 C948 1.431 . S
C945 C965 1.449 . S
C946 C945 1.258 . S
C946 C947 1.477 . S
C946 H966 0.931 . S
C947 C943 1.460 . S
C947 C946 1.477 . S
C947 H967 0.930 . S
C948 N944 1.362 . S
C948 C945 1.431 . S
C948 C958 1.476 . S
H949 C943 0.929 . S
C950 O941 1.250 . S
C950 O942 1.258 . S
O951 Mn936 2.162 . S
O951 C939 1.281 . S
O952 Mn936 2.297 . S
O952 C939 1.236 . S
N953 Mn937 2.282 . S
N953 C954 1.328 1_455 S
N953 C958 1.318 . S
C954 N953 1.328 1_655 S
C954 C955 1.457 . S
C954 H959 0.948 . S
C955 C954 1.457 . S
C955 C956 1.291 . S
C955 H968 0.931 . S
C956 C955 1.291 . S
C956 C957 1.373 . S
C956 H969 0.929 . S
C957 C956 1.373 . S
C957 C958 1.396 1_655 S
C957 C964 1.403 . S
C958 C948 1.476 . S
C958 N953 1.318 . S
C958 C957 1.396 1_455 S
H959 C954 0.948 . S
O960 Mn936 2.385 . S
O960 C938 1.234 . S
O961 Mn936 2.209 . S
O961 Mn937 2.215 1_556 S
O961 C938 1.283 . S
O962 Mn936 2.094 . S
O962 C940 1.240 . S
O963 Mn937 2.117 1_556 S
O963 C940 1.264 . S
C964 C957 1.403 . S
C964 C965 1.399 1_655 S
C964 H970 0.929 . S
C965 C945 1.449 . S
C965 C964 1.399 1_455 S
C965 H971 0.930 . S
H966 C946 0.931 . S
H967 C947 0.930 . S
H968 C955 0.931 . S
H969 C956 0.929 . S
H970 C964 0.929 . S
H971 C965 0.930 . S
Mn972 O977 2.095 . S
Mn972 O987 2.162 . S
Mn972 O988 2.297 . S
Mn972 O996 2.385 . S
Mn972 O997 2.209 . S
Mn972 O998 2.094 . S
Mn973 O978 2.121 . S
Mn973 N980 2.257 . S
Mn973 N989 2.282 . S
Mn973 O997 2.215 . S
Mn973 O999 2.117 . S
C974 O996 1.234 . S
C974 O997 1.283 . S
C975 O987 1.281 . S
C975 O988 1.236 . S
C976 O998 1.240 . S
C976 O999 1.264 . S
O977 Mn972 2.095 . S
O977 C986 1.250 . S
O978 Mn973 2.121 . S
O978 C986 1.258 . S
C979 N980 1.326 . S
C979 C983 1.460 1_655 S
C979 H985 0.929 . S
N980 Mn973 2.257 . S
N980 C979 1.326 . S
N980 C984 1.362 . S
C981 C982 1.258 . S
C981 C984 1.431 1_455 S
C981 C1001 1.449 . S
C982 C981 1.258 . S
C982 C983 1.477 . S
C982 H1002 0.931 . S
C983 C979 1.460 1_455 S
C983 C982 1.477 . S
C983 H1003 0.930 . S
C984 N980 1.362 . S
C984 C981 1.431 1_655 S
C984 C994 1.476 . S
H985 C979 0.929 . S
C986 O977 1.250 . S
C986 O978 1.258 . S
O987 Mn972 2.162 . S
O987 C975 1.281 . S
O988 Mn972 2.297 . S
O988 C975 1.236 . S
N989 Mn973 2.282 . S
N989 C990 1.328 . S
N989 C994 1.318 . S
C990 N989 1.328 . S
C990 C991 1.457 . S
C990 H995 0.929 . S
C991 C990 1.457 . S
C991 C992 1.291 . S
C991 H1004 0.931 . S
C992 C991 1.291 . S
C992 C993 1.373 . S
C992 H1005 0.929 . S
C993 C992 1.373 . S
C993 C994 1.396 . S
C993 C1000 1.403 1_655 S
C994 C984 1.476 . S
C994 N989 1.318 . S
C994 C993 1.396 . S
H995 C990 0.929 . S
O996 Mn972 2.385 . S
O996 C974 1.234 . S
O997 Mn972 2.209 . S
O997 Mn973 2.215 . S
O997 C974 1.283 . S
O998 Mn972 2.094 . S
O998 C976 1.240 . S
O999 Mn973 2.117 . S
O999 C976 1.264 . S
C1000 C993 1.403 1_455 S
C1000 C1001 1.399 . S
C1000 H1006 0.929 . S
C1001 C981 1.449 . S
C1001 C1000 1.399 . S
C1001 H1007 0.930 . S
H1002 C982 0.931 . S
H1003 C983 0.930 . S
H1004 C991 0.931 . S
H1005 C992 0.929 . S
H1006 C1000 0.929 . S
H1007 C1001 0.930 . S
Mn1008 O1013 2.095 . S
Mn1008 O1023 2.162 . S
Mn1008 O1024 2.297 . S
Mn1008 O1032 2.385 . S
Mn1008 O1033 2.209 . S
Mn1008 O1034 2.094 . S
Mn1009 O1014 2.121 1_556 S
Mn1009 N1016 2.257 . S
Mn1009 N1025 2.282 . S
Mn1009 O1033 2.215 1_556 S
Mn1009 O1035 2.117 1_556 S
C1010 O1032 1.234 . S
C1010 O1033 1.283 . S
C1011 O1023 1.281 . S
C1011 O1024 1.236 . S
C1012 O1034 1.240 . S
C1012 O1035 1.264 . S
O1013 Mn1008 2.095 . S
O1013 C1022 1.250 . S
O1014 Mn1009 2.121 1_554 S
O1014 C1022 1.258 . S
C1015 N1016 1.326 . S
C1015 C1019 1.460 . S
C1015 H1021 0.929 . S
N1016 Mn1009 2.257 . S
N1016 C1015 1.326 . S
N1016 C1020 1.362 . S
C1017 C1018 1.258 . S
C1017 C1020 1.431 . S
C1017 C1037 1.449 . S
C1018 C1017 1.258 . S
C1018 C1019 1.477 . S
C1018 H1038 0.931 . S
C1019 C1015 1.460 . S
C1019 C1018 1.477 . S
C1019 H1039 0.930 . S
C1020 N1016 1.362 . S
C1020 C1017 1.431 . S
C1020 C1030 1.476 . S
H1021 C1015 0.929 . S
C1022 O1013 1.250 . S
C1022 O1014 1.258 . S
O1023 Mn1008 2.162 . S
O1023 C1011 1.281 . S
O1024 Mn1008 2.297 . S
O1024 C1011 1.236 . S
N1025 Mn1009 2.282 . S
N1025 C1026 1.328 . S
N1025 C1030 1.318 . S
C1026 N1025 1.328 . S
C1026 C1027 1.457 . S
C1026 H1031 0.948 . S
C1027 C1026 1.457 . S
C1027 C1028 1.291 . S
C1027 H1040 0.931 . S
C1028 C1027 1.291 . S
C1028 C1029 1.373 . S
C1028 H1041 0.929 . S
C1029 C1028 1.373 . S
C1029 C1030 1.396 . S
C1029 C1036 1.403 . S
C1030 C1020 1.476 . S
C1030 N1025 1.318 . S
C1030 C1029 1.396 . S
H1031 C1026 0.948 . S
O1032 Mn1008 2.385 . S
O1032 C1010 1.234 . S
O1033 Mn1008 2.209 . S
O1033 Mn1009 2.215 1_554 S
O1033 C1010 1.283 . S
O1034 Mn1008 2.094 . S
O1034 C1012 1.240 . S
O1035 Mn1009 2.117 1_554 S
O1035 C1012 1.264 . S
C1036 C1029 1.403 . S
C1036 C1037 1.399 . S
C1036 H1042 0.929 . S
C1037 C1017 1.449 . S
C1037 C1036 1.399 . S
C1037 H1043 0.930 . S
H1038 C1018 0.931 . S
H1039 C1019 0.930 . S
H1040 C1027 0.931 . S
H1041 C1028 0.929 . S
H1042 C1036 0.929 . S
H1043 C1037 0.930 . S
Mn1044 O1049 2.095 . S
Mn1044 O1059 2.162 . S
Mn1044 O1060 2.297 . S
Mn1044 O1068 2.385 . S
Mn1044 O1069 2.209 . S
Mn1044 O1070 2.094 . S
Mn1045 O1050 2.121 . S
Mn1045 N1052 2.257 . S
Mn1045 N1061 2.282 . S
Mn1045 O1069 2.215 . S
Mn1045 O1071 2.117 . S
C1046 O1068 1.234 . S
C1046 O1069 1.283 . S
C1047 O1059 1.281 . S
C1047 O1060 1.236 . S
C1048 O1070 1.240 . S
C1048 O1071 1.264 . S
O1049 Mn1044 2.095 . S
O1049 C1058 1.250 . S
O1050 Mn1045 2.121 . S
O1050 C1058 1.258 . S
C1051 N1052 1.326 . S
C1051 C1055 1.460 1_655 S
C1051 H1057 0.929 . S
N1052 Mn1045 2.257 . S
N1052 C1051 1.326 . S
N1052 C1056 1.362 . S
C1053 C1054 1.258 . S
C1053 C1056 1.431 1_455 S
C1053 C1073 1.449 . S
C1054 C1053 1.258 . S
C1054 C1055 1.477 . S
C1054 H1074 0.931 . S
C1055 C1051 1.460 1_455 S
C1055 C1054 1.477 . S
C1055 H1075 0.930 . S
C1056 N1052 1.362 . S
C1056 C1053 1.431 1_655 S
C1056 C1066 1.476 . S
H1057 C1051 0.929 . S
C1058 O1049 1.250 . S
C1058 O1050 1.258 . S
O1059 Mn1044 2.162 . S
O1059 C1047 1.281 . S
O1060 Mn1044 2.297 . S
O1060 C1047 1.236 . S
N1061 Mn1045 2.282 . S
N1061 C1062 1.328 . S
N1061 C1066 1.318 . S
C1062 N1061 1.328 . S
C1062 C1063 1.457 . S
C1062 H1067 0.929 . S
C1063 C1062 1.457 . S
C1063 C1064 1.291 . S
C1063 H1076 0.931 . S
C1064 C1063 1.291 . S
C1064 C1065 1.373 . S
C1064 H1077 0.929 . S
C1065 C1064 1.373 . S
C1065 C1066 1.396 . S
C1065 C1072 1.403 1_655 S
C1066 C1056 1.476 . S
C1066 N1061 1.318 . S
C1066 C1065 1.396 . S
H1067 C1062 0.929 . S
O1068 Mn1044 2.385 . S
O1068 C1046 1.234 . S
O1069 Mn1044 2.209 . S
O1069 Mn1045 2.215 . S
O1069 C1046 1.283 . S
O1070 Mn1044 2.094 . S
O1070 C1048 1.240 . S
O1071 Mn1045 2.117 . S
O1071 C1048 1.264 . S
C1072 C1065 1.403 1_455 S
C1072 C1073 1.399 . S
C1072 H1078 0.929 . S
C1073 C1053 1.449 . S
C1073 C1072 1.399 . S
C1073 H1079 0.930 . S
H1074 C1054 0.931 . S
H1075 C1055 0.930 . S
H1076 C1063 0.931 . S
H1077 C1064 0.929 . S
H1078 C1072 0.929 . S
H1079 C1073 0.930 . S
Mn1080 O1085 2.095 . S
Mn1080 O1095 2.162 . S
Mn1080 O1096 2.297 . S
Mn1080 O1104 2.385 . S
Mn1080 O1105 2.209 . S
Mn1080 O1106 2.094 . S
Mn1081 O1086 2.121 . S
Mn1081 N1088 2.257 . S
Mn1081 N1097 2.282 . S
Mn1081 O1105 2.215 . S
Mn1081 O1107 2.117 . S
C1082 O1104 1.234 . S
C1082 O1105 1.283 . S
C1083 O1095 1.281 . S
C1083 O1096 1.236 . S
C1084 O1106 1.240 . S
C1084 O1107 1.264 . S
O1085 Mn1080 2.095 . S
O1085 C1094 1.250 . S
O1086 Mn1081 2.121 . S
O1086 C1094 1.258 . S
C1087 N1088 1.326 . S
C1087 C1091 1.460 . S
C1087 H1093 0.929 . S
N1088 Mn1081 2.257 . S
N1088 C1087 1.326 . S
N1088 C1092 1.362 . S
C1089 C1090 1.258 . S
C1089 C1092 1.431 . S
C1089 C1109 1.449 . S
C1090 C1089 1.258 . S
C1090 C1091 1.477 . S
C1090 H1110 0.931 . S
C1091 C1087 1.460 . S
C1091 C1090 1.477 . S
C1091 H1111 0.930 . S
C1092 N1088 1.362 . S
C1092 C1089 1.431 . S
C1092 C1102 1.476 . S
H1093 C1087 0.929 . S
C1094 O1085 1.250 . S
C1094 O1086 1.258 . S
O1095 Mn1080 2.162 . S
O1095 C1083 1.281 . S
O1096 Mn1080 2.297 . S
O1096 C1083 1.236 . S
N1097 Mn1081 2.282 . S
N1097 C1098 1.328 1_455 S
N1097 C1102 1.318 . S
C1098 N1097 1.328 1_655 S
C1098 C1099 1.457 . S
C1098 H1103 0.929 . S
C1099 C1098 1.457 . S
C1099 C1100 1.291 . S
C1099 H1112 0.931 . S
C1100 C1099 1.291 . S
C1100 C1101 1.373 . S
C1100 H1113 0.929 . S
C1101 C1100 1.373 . S
C1101 C1102 1.396 1_655 S
C1101 C1108 1.403 . S
C1102 C1092 1.476 . S
C1102 N1097 1.318 . S
C1102 C1101 1.396 1_455 S
H1103 C1098 0.929 . S
O1104 Mn1080 2.385 . S
O1104 C1082 1.234 . S
O1105 Mn1080 2.209 . S
O1105 Mn1081 2.215 . S
O1105 C1082 1.283 . S
O1106 Mn1080 2.094 . S
O1106 C1084 1.240 . S
O1107 Mn1081 2.117 . S
O1107 C1084 1.264 . S
C1108 C1101 1.403 . S
C1108 C1109 1.399 1_655 S
C1108 H1114 0.929 . S
C1109 C1089 1.449 . S
C1109 C1108 1.399 1_455 S
C1109 H1115 0.930 . S
H1110 C1090 0.931 . S
H1111 C1091 0.930 . S
H1112 C1099 0.931 . S
H1113 C1100 0.929 . S
H1114 C1108 0.929 . S
H1115 C1109 0.930 . S
Mn1116 O1121 2.095 . S
Mn1116 O1131 2.162 . S
Mn1116 O1132 2.297 . S
Mn1116 O1140 2.385 . S
Mn1116 O1141 2.209 . S
Mn1116 O1142 2.094 . S
Mn1117 O1122 2.121 . S
Mn1117 N1124 2.257 . S
Mn1117 N1133 2.282 . S
Mn1117 O1141 2.215 . S
Mn1117 O1143 2.117 . S
C1118 O1140 1.234 . S
C1118 O1141 1.283 . S
C1119 O1131 1.281 . S
C1119 O1132 1.236 . S
C1120 O1142 1.240 . S
C1120 O1143 1.264 . S
O1121 Mn1116 2.095 . S
O1121 C1130 1.250 . S
O1122 Mn1117 2.121 . S
O1122 C1130 1.258 . S
C1123 N1124 1.326 . S
C1123 C1127 1.460 . S
C1123 H1129 0.929 . S
N1124 Mn1117 2.257 . S
N1124 C1123 1.326 . S
N1124 C1128 1.362 . S
C1125 C1126 1.258 . S
C1125 C1128 1.431 . S
C1125 C1145 1.449 . S
C1126 C1125 1.258 . S
C1126 C1127 1.477 . S
C1126 H1146 0.931 . S
C1127 C1123 1.460 . S
C1127 C1126 1.477 . S
C1127 H1147 0.930 . S
C1128 N1124 1.362 . S
C1128 C1125 1.431 . S
C1128 C1138 1.476 . S
H1129 C1123 0.929 . S
C1130 O1121 1.250 . S
C1130 O1122 1.258 . S
O1131 Mn1116 2.162 . S
O1131 C1119 1.281 . S
O1132 Mn1116 2.297 . S
O1132 C1119 1.236 . S
N1133 Mn1117 2.282 . S
N1133 C1134 1.328 . S
N1133 C1138 1.318 . S
C1134 N1133 1.328 . S
C1134 C1135 1.457 . S
C1134 H1139 0.929 . S
C1135 C1134 1.457 . S
C1135 C1136 1.291 . S
C1135 H1148 0.931 . S
C1136 C1135 1.291 . S
C1136 C1137 1.373 . S
C1136 H1149 0.929 . S
C1137 C1136 1.373 . S
C1137 C1138 1.396 . S
C1137 C1144 1.403 . S
C1138 C1128 1.476 . S
C1138 N1133 1.318 . S
C1138 C1137 1.396 . S
H1139 C1134 0.929 . S
O1140 Mn1116 2.385 . S
O1140 C1118 1.234 . S
O1141 Mn1116 2.209 . S
O1141 Mn1117 2.215 . S
O1141 C1118 1.283 . S
O1142 Mn1116 2.094 . S
O1142 C1120 1.240 . S
O1143 Mn1117 2.117 . S
O1143 C1120 1.264 . S
C1144 C1137 1.403 . S
C1144 C1145 1.399 . S
C1144 H1150 0.929 . S
C1145 C1125 1.449 . S
C1145 C1144 1.399 . S
C1145 H1151 0.930 . S
H1146 C1126 0.931 . S
H1147 C1127 0.930 . S
H1148 C1135 0.931 . S
H1149 C1136 0.929 . S
H1150 C1144 0.929 . S
H1151 C1145 0.930 . S
C1152 C1153 1.369 . S
C1152 C1154 1.419 1_655 S
C1152 H1156 0.930 . S
C1153 C1152 1.369 . S
C1153 C1162 1.429 1_556 S
C1154 C1152 1.419 1_455 S
C1154 C1155 1.363 1_556 S
C1154 H1157 0.929 . S
C1155 C1154 1.363 1_554 S
C1155 C1161 1.428 . S
H1156 C1152 0.930 . S
H1157 C1154 0.929 . S
S1158 N1159 1.613 . S
S1158 N1160 1.610 1_655 S
N1159 S1158 1.613 . S
N1159 C1162 1.350 . S
N1160 S1158 1.610 1_455 S
N1160 C1161 1.351 . S
C1161 C1155 1.428 . S
C1161 N1160 1.351 . S
C1161 C1162 1.434 1_455 S
C1162 C1153 1.429 1_554 S
C1162 N1159 1.350 . S
C1162 C1161 1.434 1_655 S
C1163 C1164 1.369 . S
C1163 C1165 1.419 . S
C1163 H1167 0.930 . S
C1164 C1163 1.369 . S
C1164 C1173 1.429 . S
C1165 C1163 1.419 . S
C1165 C1166 1.363 . S
C1165 H1168 0.929 . S
C1166 C1165 1.363 . S
C1166 C1172 1.428 . S
H1167 C1163 0.930 . S
H1168 C1165 0.929 . S
S1169 N1170 1.613 . S
S1169 N1171 1.610 . S
N1170 S1169 1.613 . S
N1170 C1173 1.350 . S
N1171 S1169 1.610 . S
N1171 C1172 1.351 . S
C1172 C1166 1.428 . S
C1172 N1171 1.351 . S
C1172 C1173 1.434 . S
C1173 C1164 1.429 . S
C1173 N1170 1.350 . S
C1173 C1172 1.434 . S
C1174 C1175 1.369 . S
C1174 C1176 1.419 . S
C1174 H1178 0.930 . S
C1175 C1174 1.369 . S
C1175 C1184 1.429 . S
C1176 C1174 1.419 . S
C1176 C1177 1.363 . S
C1176 H1179 0.929 . S
C1177 C1176 1.363 . S
C1177 C1183 1.428 . S
H1178 C1174 0.930 . S
H1179 C1176 0.929 . S
S1180 N1181 1.613 . S
S1180 N1182 1.610 . S
N1181 S1180 1.613 . S
N1181 C1184 1.350 . S
N1182 S1180 1.610 . S
N1182 C1183 1.351 . S
C1183 C1177 1.428 . S
C1183 N1182 1.351 . S
C1183 C1184 1.434 . S
C1184 C1175 1.429 . S
C1184 N1181 1.350 . S
C1184 C1183 1.434 . S
C1185 C1186 1.369 . S
C1185 C1187 1.419 . S
C1185 H1189 0.930 . S
C1186 C1185 1.369 . S
C1186 C1195 1.429 . S
C1187 C1185 1.419 . S
C1187 C1188 1.363 . S
C1187 H1190 0.929 . S
C1188 C1187 1.363 . S
C1188 C1194 1.428 . S
H1189 C1185 0.930 . S
H1190 C1187 0.929 . S
S1191 N1192 1.613 . S
S1191 N1193 1.610 . S
N1192 S1191 1.613 . S
N1192 C1195 1.350 . S
N1193 S1191 1.610 . S
N1193 C1194 1.351 . S
C1194 C1188 1.428 . S
C1194 N1193 1.351 . S
C1194 C1195 1.434 . S
C1195 C1186 1.429 . S
C1195 N1192 1.350 . S
C1195 C1194 1.434 . S
C1196 C1197 1.369 . S
C1196 C1198 1.419 . S
C1196 H1200 0.930 . S
C1197 C1196 1.369 . S
C1197 C1206 1.429 1_655 S
C1198 C1196 1.419 . S
C1198 C1199 1.363 1_655 S
C1198 H1201 0.929 . S
C1199 C1198 1.363 1_455 S
C1199 C1205 1.428 . S
H1200 C1196 0.930 . S
H1201 C1198 0.929 . S
S1202 N1203 1.613 . S
S1202 N1204 1.610 . S
N1203 S1202 1.613 . S
N1203 C1206 1.350 . S
N1204 S1202 1.610 . S
N1204 C1205 1.351 . S
C1205 C1199 1.428 . S
C1205 N1204 1.351 . S
C1205 C1206 1.434 . S
C1206 C1197 1.429 1_455 S
C1206 N1203 1.350 . S
C1206 C1205 1.434 . S
C1207 C1208 1.369 . S
C1207 C1209 1.419 . S
C1207 H1211 0.930 . S
C1208 C1207 1.369 . S
C1208 C1217 1.429 . S
C1209 C1207 1.419 . S
C1209 C1210 1.363 . S
C1209 H1212 0.929 . S
C1210 C1209 1.363 . S
C1210 C1216 1.428 . S
H1211 C1207 0.930 . S
H1212 C1209 0.929 . S
S1213 N1214 1.613 . S
S1213 N1215 1.610 . S
N1214 S1213 1.613 . S
N1214 C1217 1.350 . S
N1215 S1213 1.610 . S
N1215 C1216 1.351 . S
C1216 C1210 1.428 . S
C1216 N1215 1.351 . S
C1216 C1217 1.434 . S
C1217 C1208 1.429 . S
C1217 N1214 1.350 . S
C1217 C1216 1.434 . S
C1218 C1219 1.369 . S
C1218 C1220 1.419 . S
C1218 H1222 0.930 . S
C1219 C1218 1.369 . S
C1219 C1228 1.429 1_556 S
C1220 C1218 1.419 . S
C1220 C1221 1.363 1_556 S
C1220 H1223 0.929 . S
C1221 C1220 1.363 1_554 S
C1221 C1227 1.428 . S
H1222 C1218 0.930 . S
H1223 C1220 0.929 . S
S1224 N1225 1.613 . S
S1224 N1226 1.610 . S
N1225 S1224 1.613 . S
N1225 C1228 1.350 . S
N1226 S1224 1.610 . S
N1226 C1227 1.351 . S
C1227 C1221 1.428 . S
C1227 N1226 1.351 . S
C1227 C1228 1.434 . S
C1228 C1219 1.429 1_554 S
C1228 N1225 1.350 . S
C1228 C1227 1.434 . S
C1229 C1230 1.369 . S
C1229 C1231 1.419 . S
C1229 H1233 0.930 . S
C1230 C1229 1.369 . S
C1230 C1239 1.429 . S
C1231 C1229 1.419 . S
C1231 C1232 1.363 . S
C1231 H1234 0.929 . S
C1232 C1231 1.363 . S
C1232 C1238 1.428 . S
H1233 C1229 0.930 . S
H1234 C1231 0.929 . S
S1235 N1236 1.613 . S
S1235 N1237 1.610 . S
N1236 S1235 1.613 . S
N1236 C1239 1.350 . S
N1237 S1235 1.610 . S
N1237 C1238 1.351 . S
C1238 C1232 1.428 . S
C1238 N1237 1.351 . S
C1238 C1239 1.434 . S
C1239 C1230 1.429 . S
C1239 N1236 1.350 . S
C1239 C1238 1.434 . S
C1240 C1241 1.369 . S
C1240 C1242 1.419 . S
C1240 H1244 0.930 . S
C1241 C1240 1.369 . S
C1241 C1250 1.429 . S
C1242 C1240 1.419 . S
C1242 C1243 1.363 . S
C1242 H1245 0.929 . S
C1243 C1242 1.363 . S
C1243 C1249 1.428 . S
H1244 C1240 0.930 . S
H1245 C1242 0.929 . S
S1246 N1247 1.613 . S
S1246 N1248 1.610 . S
N1247 S1246 1.613 . S
N1247 C1250 1.350 . S
N1248 S1246 1.610 . S
N1248 C1249 1.351 . S
C1249 C1243 1.428 . S
C1249 N1248 1.351 . S
C1249 C1250 1.434 . S
C1250 C1241 1.429 . S
C1250 N1247 1.350 . S
C1250 C1249 1.434 . S
C1251 C1252 1.369 . S
C1251 C1253 1.419 . S
C1251 H1255 0.930 . S
C1252 C1251 1.369 . S
C1252 C1261 1.429 . S
C1253 C1251 1.419 . S
C1253 C1254 1.363 . S
C1253 H1256 0.929 . S
C1254 C1253 1.363 . S
C1254 C1260 1.428 . S
H1255 C1251 0.930 . S
H1256 C1253 0.929 . S
S1257 N1258 1.613 . S
S1257 N1259 1.610 . S
N1258 S1257 1.613 . S
N1258 C1261 1.350 . S
N1259 S1257 1.610 . S
N1259 C1260 1.351 . S
C1260 C1254 1.428 . S
C1260 N1259 1.351 . S
C1260 C1261 1.434 . S
C1261 C1252 1.429 . S
C1261 N1258 1.350 . S
C1261 C1260 1.434 . S
C1262 C1263 1.369 . S
C1262 C1264 1.419 . S
C1262 H1266 0.930 . S
C1263 C1262 1.369 . S
C1263 C1272 1.429 . S
C1264 C1262 1.419 . S
C1264 C1265 1.363 . S
C1264 H1267 0.929 . S
C1265 C1264 1.363 . S
C1265 C1271 1.428 . S
H1266 C1262 0.930 . S
H1267 C1264 0.929 . S
S1268 N1269 1.613 . S
S1268 N1270 1.610 . S
N1269 S1268 1.613 . S
N1269 C1272 1.350 . S
N1270 S1268 1.610 . S
N1270 C1271 1.351 . S
C1271 C1265 1.428 . S
C1271 N1270 1.351 . S
C1271 C1272 1.434 . S
C1272 C1263 1.429 . S
C1272 N1269 1.350 . S
C1272 C1271 1.434 . S
C1273 C1274 1.369 . S
C1273 C1275 1.419 . S
C1273 H1277 0.930 . S
C1274 C1273 1.369 . S
C1274 C1283 1.429 . S
C1275 C1273 1.419 . S
C1275 C1276 1.363 . S
C1275 H1278 0.929 . S
C1276 C1275 1.363 . S
C1276 C1282 1.428 . S
H1277 C1273 0.930 . S
H1278 C1275 0.929 . S
S1279 N1280 1.613 . S
S1279 N1281 1.610 . S
N1280 S1279 1.613 . S
N1280 C1283 1.350 . S
N1281 S1279 1.610 . S
N1281 C1282 1.351 . S
C1282 C1276 1.428 . S
C1282 N1281 1.351 . S
C1282 C1283 1.434 . S
C1283 C1274 1.429 . S
C1283 N1280 1.350 . S
C1283 C1282 1.434 . S
C1284 C1285 1.369 . S
C1284 C1286 1.419 1_565 S
C1284 H1288 0.930 . S
C1285 C1284 1.369 . S
C1285 C1294 1.429 . S
C1286 C1284 1.419 1_545 S
C1286 C1287 1.363 . S
C1286 H1289 0.929 . S
C1287 C1286 1.363 . S
C1287 C1293 1.428 . S
H1288 C1284 0.930 . S
H1289 C1286 0.929 . S
S1290 N1291 1.613 . S
S1290 N1292 1.610 . S
N1291 S1290 1.613 . S
N1291 C1294 1.350 . S
N1292 S1290 1.610 . S
N1292 C1293 1.351 1_565 S
C1293 C1287 1.428 . S
C1293 N1292 1.351 1_545 S
C1293 C1294 1.434 1_545 S
C1294 C1285 1.429 . S
C1294 N1291 1.350 . S
C1294 C1293 1.434 1_565 S
C1295 C1296 1.369 1_545 S
C1295 C1297 1.419 1_455 S
C1295 H1299 0.930 . S
C1296 C1295 1.369 1_565 S
C1296 C1305 1.429 1_556 S
C1297 C1295 1.419 1_655 S
C1297 C1298 1.363 1_556 S
C1297 H1300 0.929 . S
C1298 C1297 1.363 1_554 S
C1298 C1304 1.428 1_545 S
H1299 C1295 0.930 . S
H1300 C1297 0.929 . S
S1301 N1302 1.613 1_655 S
S1301 N1303 1.610 . S
N1302 S1301 1.613 1_455 S
N1302 C1305 1.350 . S
N1303 S1301 1.610 . S
N1303 C1304 1.351 . S
C1304 C1298 1.428 1_565 S
C1304 N1303 1.351 . S
C1304 C1305 1.434 1_655 S
C1305 C1296 1.429 1_554 S
C1305 N1302 1.350 . S
C1305 C1304 1.434 1_455 S
C1306 C1307 1.369 1_565 S
C1306 C1308 1.419 . S
C1306 H1310 0.930 . S
C1307 C1306 1.369 1_545 S
C1307 C1316 1.429 1_556 S
C1308 C1306 1.419 . S
C1308 C1309 1.363 1_556 S
C1308 H1311 0.929 . S
C1309 C1308 1.363 1_554 S
C1309 C1315 1.428 1_565 S
H1310 C1306 0.930 . S
H1311 C1308 0.929 . S
S1312 N1313 1.613 . S
S1312 N1314 1.610 . S
N1313 S1312 1.613 . S
N1313 C1316 1.350 . S
N1314 S1312 1.610 . S
N1314 C1315 1.351 . S
C1315 C1309 1.428 1_545 S
C1315 N1314 1.351 . S
C1315 C1316 1.434 . S
C1316 C1307 1.429 1_554 S
C1316 N1313 1.350 . S
C1316 C1315 1.434 . S
C1317 C1318 1.369 1_565 S
C1317 C1319 1.419 . S
C1317 H1321 0.930 . S
C1318 C1317 1.369 1_545 S
C1318 C1327 1.429 1_455 S
C1319 C1317 1.419 . S
C1319 C1320 1.363 1_455 S
C1319 H1322 0.929 . S
C1320 C1319 1.363 1_655 S
C1320 C1326 1.428 1_565 S
H1321 C1317 0.930 . S
H1322 C1319 0.929 . S
S1323 N1324 1.613 . S
S1323 N1325 1.610 . S
N1324 S1323 1.613 . S
N1324 C1327 1.350 . S
N1325 S1323 1.610 . S
N1325 C1326 1.351 . S
C1326 C1320 1.428 1_545 S
C1326 N1325 1.351 . S
C1326 C1327 1.434 . S
C1327 C1318 1.429 1_655 S
C1327 N1324 1.350 . S
C1327 C1326 1.434 . S
C1328 C1329 1.369 1_455 S
C1328 C1330 1.419 . S
C1328 H1332 0.930 . S
C1329 C1328 1.369 1_655 S
C1329 C1338 1.429 . S
C1330 C1328 1.419 . S
C1330 C1331 1.363 . S
C1330 H1333 0.929 . S
C1331 C1330 1.363 . S
C1331 C1337 1.428 1_455 S
H1332 C1328 0.930 . S
H1333 C1330 0.929 . S
S1334 N1335 1.613 . S
S1334 N1336 1.610 . S
N1335 S1334 1.613 . S
N1335 C1338 1.350 . S
N1336 S1334 1.610 . S
N1336 C1337 1.351 . S
C1337 C1331 1.428 1_655 S
C1337 N1336 1.351 . S
C1337 C1338 1.434 . S
C1338 C1329 1.429 . S
C1338 N1335 1.350 . S
C1338 C1337 1.434 . S
C1339 C1340 1.369 . S
C1339 C1341 1.419 . S
C1339 H1343 0.930 . S
C1340 C1339 1.369 . S
C1340 C1349 1.429 1_455 S
C1341 C1339 1.419 . S
C1341 C1342 1.363 1_455 S
C1341 H1344 0.929 . S
C1342 C1341 1.363 1_655 S
C1342 C1348 1.428 . S
H1343 C1339 0.930 . S
H1344 C1341 0.929 . S
S1345 N1346 1.613 . S
S1345 N1347 1.610 . S
N1346 S1345 1.613 . S
N1346 C1349 1.350 . S
N1347 S1345 1.610 . S
N1347 C1348 1.351 . S
C1348 C1342 1.428 . S
C1348 N1347 1.351 . S
C1348 C1349 1.434 . S
C1349 C1340 1.429 1_655 S
C1349 N1346 1.350 . S
C1349 C1348 1.434 . S
C1350 C1351 1.369 . S
C1350 C1352 1.419 . S
C1350 H1354 0.930 . S
C1351 C1350 1.369 . S
C1351 C1360 1.429 . S
C1352 C1350 1.419 . S
C1352 C1353 1.363 . S
C1352 H1355 0.929 . S
C1353 C1352 1.363 . S
C1353 C1359 1.428 . S
H1354 C1350 0.930 . S
H1355 C1352 0.929 . S
S1356 N1357 1.613 . S
S1356 N1358 1.610 . S
N1357 S1356 1.613 . S
N1357 C1360 1.350 . S
N1358 S1356 1.610 . S
N1358 C1359 1.351 . S
C1359 C1353 1.428 . S
C1359 N1358 1.351 . S
C1359 C1360 1.434 . S
C1360 C1351 1.429 . S
C1360 N1357 1.350 . S
C1360 C1359 1.434 . S
C1361 C1362 1.369 . S
C1361 C1363 1.419 . S
C1361 H1365 0.930 . S
C1362 C1361 1.369 . S
C1362 C1371 1.429 . S
C1363 C1361 1.419 . S
C1363 C1364 1.363 . S
C1363 H1366 0.929 . S
C1364 C1363 1.363 . S
C1364 C1370 1.428 . S
H1365 C1361 0.930 . S
H1366 C1363 0.929 . S
S1367 N1368 1.613 . S
S1367 N1369 1.610 . S
N1368 S1367 1.613 . S
N1368 C1371 1.350 . S
N1369 S1367 1.610 . S
N1369 C1370 1.351 . S
C1370 C1364 1.428 . S
C1370 N1369 1.351 . S
C1370 C1371 1.434 . S
C1371 C1362 1.429 . S
C1371 N1368 1.350 . S
C1371 C1370 1.434 . S
C1372 C1373 1.369 . S
C1372 C1374 1.419 1_655 S
C1372 H1376 0.930 . S
C1373 C1372 1.369 . S
C1373 C1382 1.429 . S
C1374 C1372 1.419 1_455 S
C1374 C1375 1.363 . S
C1374 H1377 0.929 . S
C1375 C1374 1.363 . S
C1375 C1381 1.428 . S
H1376 C1372 0.930 . S
H1377 C1374 0.929 . S
S1378 N1379 1.623 . S
S1378 N1380 1.600 1_655 S
N1379 S1378 1.623 . S
N1379 C1382 1.350 . S
N1380 S1378 1.600 1_455 S
N1380 C1381 1.351 . S
C1381 C1375 1.428 . S
C1381 N1380 1.351 . S
C1381 C1382 1.434 1_455 S
C1382 C1373 1.429 . S
C1382 N1379 1.350 . S
C1382 C1381 1.434 1_655 S
C1383 C1384 1.369 . S
C1383 C1385 1.419 . S
C1383 H1387 0.930 . S
C1384 C1383 1.369 . S
C1384 C1393 1.429 . S
C1385 C1383 1.419 . S
C1385 C1386 1.363 . S
C1385 H1388 0.929 . S
C1386 C1385 1.363 . S
C1386 C1392 1.428 . S
H1387 C1383 0.930 . S
H1388 C1385 0.929 . S
S1389 N1390 1.613 . S
S1389 N1391 1.610 . S
N1390 S1389 1.613 . S
N1390 C1393 1.350 . S
N1391 S1389 1.610 . S
N1391 C1392 1.351 . S
C1392 C1386 1.428 . S
C1392 N1391 1.351 . S
C1392 C1393 1.434 . S
C1393 C1384 1.429 . S
C1393 N1390 1.350 . S
C1393 C1392 1.434 . S
C1394 C1395 1.369 . S
C1394 C1396 1.419 . S
C1394 H1398 0.930 . S
C1395 C1394 1.369 . S
C1395 C1404 1.429 . S
C1396 C1394 1.419 . S
C1396 C1397 1.363 . S
C1396 H1399 0.929 . S
C1397 C1396 1.363 . S
C1397 C1403 1.428 . S
H1398 C1394 0.930 . S
H1399 C1396 0.929 . S
S1400 N1401 1.613 . S
S1400 N1402 1.610 . S
N1401 S1400 1.613 . S
N1401 C1404 1.350 . S
N1402 S1400 1.610 . S
N1402 C1403 1.351 . S
C1403 C1397 1.428 . S
C1403 N1402 1.351 . S
C1403 C1404 1.434 . S
C1404 C1395 1.429 . S
C1404 N1401 1.350 . S
C1404 C1403 1.434 . S
C1405 C1406 1.369 . S
C1405 C1407 1.397 1_455 S
C1405 H1409 0.930 . S
C1406 C1405 1.369 . S
C1406 C1415 1.405 1_455 S
C1407 C1405 1.397 1_655 S
C1407 C1408 1.386 . S
C1407 H1410 0.929 1_655 S
C1408 C1407 1.386 . S
C1408 C1414 1.428 . S
H1409 C1405 0.930 . S
H1410 C1407 0.929 1_455 S
S1411 N1412 1.613 . S
S1411 N1413 1.610 . S
N1412 S1411 1.613 . S
N1412 C1415 1.354 . S
N1413 S1411 1.610 . S
N1413 C1414 1.351 . S
C1414 C1408 1.428 . S
C1414 N1413 1.351 . S
C1414 C1415 1.457 . S
C1415 C1406 1.405 1_655 S
C1415 N1412 1.354 . S
C1415 C1414 1.457 . S
C1416 C1417 1.369 1_455 S
C1416 C1418 1.419 . S
C1416 H1420 0.930 . S
C1417 C1416 1.369 1_655 S
C1417 C1426 1.429 . S
C1418 C1416 1.419 . S
C1418 C1419 1.363 . S
C1418 H1421 0.929 . S
C1419 C1418 1.363 . S
C1419 C1425 1.428 1_455 S
H1420 C1416 0.930 . S
H1421 C1418 0.929 . S
S1422 N1423 1.613 . S
S1422 N1424 1.610 . S
N1423 S1422 1.613 . S
N1423 C1426 1.350 . S
N1424 S1422 1.610 . S
N1424 C1425 1.351 . S
C1425 C1419 1.428 1_655 S
C1425 N1424 1.351 . S
C1425 C1426 1.434 . S
C1426 C1417 1.429 . S
C1426 N1423 1.350 . S
C1426 C1425 1.434 . S
C1427 C1428 1.369 . S
C1427 C1429 1.419 1_655 S
C1427 H1431 0.930 . S
C1428 C1427 1.369 . S
C1428 C1437 1.429 . S
C1429 C1427 1.419 1_455 S
C1429 C1430 1.363 . S
C1429 H1432 0.929 . S
C1430 C1429 1.363 . S
C1430 C1436 1.428 . S
H1431 C1427 0.930 . S
H1432 C1429 0.929 . S
S1433 N1434 1.613 . S
S1433 N1435 1.610 . S
N1434 S1433 1.613 . S
N1434 C1437 1.350 1_455 S
N1435 S1433 1.610 . S
N1435 C1436 1.351 . S
C1436 C1430 1.428 . S
C1436 N1435 1.351 . S
C1436 C1437 1.434 1_455 S
C1437 C1428 1.429 . S
C1437 N1434 1.350 1_655 S
C1437 C1436 1.434 1_655 S
C1438 C1439 1.369 . S
C1438 C1440 1.419 . S
C1438 H1442 0.930 . S
C1439 C1438 1.369 . S
C1439 C1448 1.429 . S
C1440 C1438 1.419 . S
C1440 C1441 1.363 . S
C1440 H1443 0.929 . S
C1441 C1440 1.363 . S
C1441 C1447 1.428 . S
H1442 C1438 0.930 . S
H1443 C1440 0.929 . S
S1444 N1445 1.613 . S
S1444 N1446 1.610 . S
N1445 S1444 1.613 . S
N1445 C1448 1.350 . S
N1446 S1444 1.610 . S
N1446 C1447 1.351 . S
C1447 C1441 1.428 . S
C1447 N1446 1.351 . S
C1447 C1448 1.434 . S
C1448 C1439 1.429 . S
C1448 N1445 1.350 . S
C1448 C1447 1.434 . S
C1449 C1450 1.369 . S
C1449 C1451 1.419 . S
C1449 H1453 0.930 . S
C1450 C1449 1.369 . S
C1450 C1459 1.429 . S
C1451 C1449 1.419 . S
C1451 C1452 1.363 . S
C1451 H1454 0.929 . S
C1452 C1451 1.363 . S
C1452 C1458 1.428 . S
H1453 C1449 0.930 . S
H1454 C1451 0.929 . S
S1455 N1456 1.613 . S
S1455 N1457 1.610 . S
N1456 S1455 1.613 . S
N1456 C1459 1.350 . S
N1457 S1455 1.610 . S
N1457 C1458 1.351 . S
C1458 C1452 1.428 . S
C1458 N1457 1.351 . S
C1458 C1459 1.434 . S
C1459 C1450 1.429 . S
C1459 N1456 1.350 . S
C1459 C1458 1.434 . S
C1460 C1461 1.369 . S
C1460 C1462 1.419 . S
C1460 H1464 0.930 . S
C1461 C1460 1.369 . S
C1461 C1470 1.429 1_655 S
C1462 C1460 1.419 . S
C1462 C1463 1.363 1_655 S
C1462 H1465 0.929 . S
C1463 C1462 1.363 1_455 S
C1463 C1469 1.428 . S
H1464 C1460 0.930 . S
H1465 C1462 0.929 . S
S1466 N1467 1.613 . S
S1466 N1468 1.610 . S
N1467 S1466 1.613 . S
N1467 C1470 1.350 . S
N1468 S1466 1.610 . S
N1468 C1469 1.351 . S
C1469 C1463 1.428 . S
C1469 N1468 1.351 . S
C1469 C1470 1.434 . S
C1470 C1461 1.429 1_455 S
C1470 N1467 1.350 . S
C1470 C1469 1.434 . S
C1471 C1472 1.369 . S
C1471 C1473 1.419 . S
C1471 H1475 0.930 . S
C1472 C1471 1.369 . S
C1472 C1481 1.429 . S
C1473 C1471 1.419 . S
C1473 C1474 1.363 . S
C1473 H1476 0.929 . S
C1474 C1473 1.363 . S
C1474 C1480 1.428 . S
H1475 C1471 0.930 . S
H1476 C1473 0.929 . S
S1477 N1478 1.613 . S
S1477 N1479 1.610 . S
N1478 S1477 1.613 . S
N1478 C1481 1.350 . S
N1479 S1477 1.610 . S
N1479 C1480 1.351 . S
C1480 C1474 1.428 . S
C1480 N1479 1.351 . S
C1480 C1481 1.434 . S
C1481 C1472 1.429 . S
C1481 N1478 1.350 . S
C1481 C1480 1.434 . S
C1482 C1483 1.369 . S
C1482 C1484 1.419 . S
C1482 H1486 0.930 . S
C1483 C1482 1.369 . S
C1483 C1492 1.429 . S
C1484 C1482 1.419 . S
C1484 C1485 1.363 . S
C1484 H1487 0.929 . S
C1485 C1484 1.363 . S
C1485 C1491 1.428 . S
H1486 C1482 0.930 . S
H1487 C1484 0.929 . S
S1488 N1489 1.613 . S
S1488 N1490 1.610 . S
N1489 S1488 1.613 . S
N1489 C1492 1.350 . S
N1490 S1488 1.610 . S
N1490 C1491 1.351 . S
C1491 C1485 1.428 . S
C1491 N1490 1.351 . S
C1491 C1492 1.434 . S
C1492 C1483 1.429 . S
C1492 N1489 1.350 . S
C1492 C1491 1.434 . S
C1493 C1494 1.369 . S
C1493 C1495 1.419 1_655 S
C1493 H1497 0.930 . S
C1494 C1493 1.369 . S
C1494 C1503 1.429 . S
C1495 C1493 1.419 1_455 S
C1495 C1496 1.363 . S
C1495 H1498 0.929 . S
C1496 C1495 1.363 . S
C1496 C1502 1.428 . S
H1497 C1493 0.930 . S
H1498 C1495 0.929 . S
S1499 N1500 1.613 . S
S1499 N1501 1.633 . S
N1500 S1499 1.613 . S
N1500 C1503 1.350 . S
N1501 S1499 1.633 . S
N1501 C1502 1.349 1_655 S
C1502 C1496 1.428 . S
C1502 N1501 1.349 1_455 S
C1502 C1503 1.434 1_455 S
C1503 C1494 1.429 . S
C1503 N1500 1.350 . S
C1503 C1502 1.434 1_655 S
C1504 C1505 1.369 1_554 S
C1504 C1506 1.419 . S
C1504 H1508 0.930 . S
C1505 C1504 1.369 1_556 S
C1505 C1514 1.429 . S
C1506 C1504 1.419 . S
C1506 C1507 1.363 . S
C1506 H1509 0.929 . S
C1507 C1506 1.363 . S
C1507 C1513 1.428 1_554 S
H1508 C1504 0.930 . S
H1509 C1506 0.929 . S
S1510 N1511 1.613 . S
S1510 N1512 1.610 . S
N1511 S1510 1.613 . S
N1511 C1514 1.350 . S
N1512 S1510 1.610 . S
N1512 C1513 1.351 . S
C1513 C1507 1.428 1_556 S
C1513 N1512 1.351 . S
C1513 C1514 1.434 . S
C1514 C1505 1.429 . S
C1514 N1511 1.350 . S
C1514 C1513 1.434 . S
C1515 C1516 1.369 . S
C1515 C1517 1.419 1_545 S
C1515 H1519 0.930 . S
C1516 C1515 1.369 . S
C1516 C1525 1.429 . S
C1517 C1515 1.419 1_565 S
C1517 C1518 1.363 . S
C1517 H1520 0.929 . S
C1518 C1517 1.363 . S
C1518 C1524 1.428 . S
H1519 C1515 0.930 . S
H1520 C1517 0.929 . S
S1521 N1522 1.613 . S
S1521 N1523 1.610 . S
N1522 S1521 1.613 . S
N1522 C1525 1.350 . S
N1523 S1521 1.610 . S
N1523 C1524 1.351 1_545 S
C1524 C1518 1.428 . S
C1524 N1523 1.351 1_565 S
C1524 C1525 1.434 1_565 S
C1525 C1516 1.429 . S
C1525 N1522 1.350 . S
C1525 C1524 1.434 1_545 S
C1526 C1527 1.369 . S
C1526 C1528 1.419 . S
C1526 H1530 0.930 . S
C1527 C1526 1.369 . S
C1527 C1536 1.429 . S
C1528 C1526 1.419 . S
C1528 C1529 1.363 . S
C1528 H1531 0.929 . S
C1529 C1528 1.363 . S
C1529 C1535 1.428 . S
H1530 C1526 0.930 . S
H1531 C1528 0.929 . S
S1532 N1533 1.613 . S
S1532 N1534 1.610 . S
N1533 S1532 1.613 . S
N1533 C1536 1.350 . S
N1534 S1532 1.610 . S
N1534 C1535 1.351 . S
C1535 C1529 1.428 . S
C1535 N1534 1.351 . S
C1535 C1536 1.434 . S
C1536 C1527 1.429 . S
C1536 N1533 1.350 . S
C1536 C1535 1.434 . S
C1537 C1538 1.369 . S
C1537 C1539 1.419 1_545 S
C1537 H1541 0.930 . S
C1538 C1537 1.369 . S
C1538 C1547 1.429 . S
C1539 C1537 1.419 1_565 S
C1539 C1540 1.363 . S
C1539 H1542 0.929 . S
C1540 C1539 1.363 . S
C1540 C1546 1.428 . S
H1541 C1537 0.930 . S
H1542 C1539 0.929 . S
S1543 N1544 1.613 . S
S1543 N1545 1.610 1_545 S
N1544 S1543 1.613 . S
N1544 C1547 1.350 . S
N1545 S1543 1.610 1_565 S
N1545 C1546 1.351 . S
C1546 C1540 1.428 . S
C1546 N1545 1.351 . S
C1546 C1547 1.434 1_565 S
C1547 C1538 1.429 . S
C1547 N1544 1.350 . S
C1547 C1546 1.434 1_545 S
C1548 C1549 1.369 . S
C1548 C1550 1.419 1_554 S
C1548 H1552 0.930 . S
C1549 C1548 1.369 . S
C1549 C1558 1.429 . S
C1550 C1548 1.419 1_556 S
C1550 C1551 1.363 . S
C1550 H1553 0.929 . S
C1551 C1550 1.363 . S
C1551 C1557 1.428 . S
H1552 C1548 0.930 . S
H1553 C1550 0.929 . S
S1554 N1555 1.613 1_556 S
S1554 N1556 1.610 . S
N1555 S1554 1.613 1_554 S
N1555 C1558 1.350 . S
N1556 S1554 1.610 . S
N1556 C1557 1.351 . S
C1557 C1551 1.428 . S
C1557 N1556 1.351 . S
C1557 C1558 1.434 1_556 S
C1558 C1549 1.429 . S
C1558 N1555 1.350 . S
C1558 C1557 1.434 1_554 S
C1559 C1560 1.384 . S
C1559 C1561 1.405 1_565 S
C1559 H1563 0.929 1_565 S
C1560 C1559 1.384 . S
C1560 C1569 1.429 . S
C1561 C1559 1.405 1_545 S
C1561 C1562 1.363 . S
C1561 H1564 0.929 . S
C1562 C1561 1.363 . S
C1562 C1568 1.411 1_545 S
H1563 C1559 0.929 1_545 S
H1564 C1561 0.929 . S
S1565 N1566 1.613 . S
S1565 N1567 1.610 . S
N1566 S1565 1.613 . S
N1566 C1569 1.350 . S
N1567 S1565 1.610 . S
N1567 C1568 1.354 . S
C1568 C1562 1.411 1_565 S
C1568 N1567 1.354 . S
C1568 C1569 1.451 . S
C1569 C1560 1.429 . S
C1569 N1566 1.350 . S
C1569 C1568 1.451 . S
C1570 C1571 1.369 . S
C1570 C1572 1.419 . S
C1570 H1574 0.930 . S
C1571 C1570 1.369 . S
C1571 C1580 1.429 . S
C1572 C1570 1.419 . S
C1572 C1573 1.363 . S
C1572 H1575 0.929 . S
C1573 C1572 1.363 . S
C1573 C1579 1.428 . S
H1574 C1570 0.930 . S
H1575 C1572 0.929 . S
S1576 N1577 1.613 . S
S1576 N1578 1.610 . S
N1577 S1576 1.613 . S
N1577 C1580 1.350 . S
N1578 S1576 1.610 . S
N1578 C1579 1.351 . S
C1579 C1573 1.428 . S
C1579 N1578 1.351 . S
C1579 C1580 1.434 . S
C1580 C1571 1.429 . S
C1580 N1577 1.350 . S
C1580 C1579 1.434 . S
C1581 C1582 1.369 . S
C1581 C1583 1.412 1_545 S
C1581 H1585 0.930 . S
C1582 C1581 1.369 . S
C1582 C1591 1.429 1_545 S
C1583 C1581 1.412 1_565 S
C1583 C1584 1.370 . S
C1583 H1586 0.929 1_565 S
C1584 C1583 1.370 . S
C1584 C1590 1.428 . S
H1585 C1581 0.930 . S
H1586 C1583 0.929 1_545 S
S1587 N1588 1.613 . S
S1587 N1589 1.610 . S
N1588 S1587 1.613 . S
N1588 C1591 1.350 . S
N1589 S1587 1.610 . S
N1589 C1590 1.351 . S
C1590 C1584 1.428 . S
C1590 N1589 1.351 . S
C1590 C1591 1.434 . S
C1591 C1582 1.429 1_565 S
C1591 N1588 1.350 . S
C1591 C1590 1.434 . S
C1592 C1593 1.369 . S
C1592 C1594 1.419 . S
C1592 H1596 0.930 . S
C1593 C1592 1.369 . S
C1593 C1602 1.429 . S
C1594 C1592 1.419 . S
C1594 C1595 1.363 . S
C1594 H1597 0.929 . S
C1595 C1594 1.363 . S
C1595 C1601 1.428 . S
H1596 C1592 0.930 . S
H1597 C1594 0.929 . S
S1598 N1599 1.613 . S
S1598 N1600 1.610 . S
N1599 S1598 1.613 . S
N1599 C1602 1.350 . S
N1600 S1598 1.610 . S
N1600 C1601 1.351 . S
C1601 C1595 1.428 . S
C1601 N1600 1.351 . S
C1601 C1602 1.434 . S
C1602 C1593 1.429 . S
C1602 N1599 1.350 . S
C1602 C1601 1.434 . S
C1603 C1604 1.369 . S
C1603 C1605 1.419 . S
C1603 H1607 0.930 . S
C1604 C1603 1.369 . S
C1604 C1613 1.429 . S
C1605 C1603 1.419 . S
C1605 C1606 1.363 . S
C1605 H1608 0.929 . S
C1606 C1605 1.363 . S
C1606 C1612 1.428 . S
H1607 C1603 0.930 . S
H1608 C1605 0.929 . S
S1609 N1610 1.613 . S
S1609 N1611 1.610 . S
N1610 S1609 1.613 . S
N1610 C1613 1.350 . S
N1611 S1609 1.610 . S
N1611 C1612 1.351 . S
C1612 C1606 1.428 . S
C1612 N1611 1.351 . S
C1612 C1613 1.434 . S
C1613 C1604 1.429 . S
C1613 N1610 1.350 . S
C1613 C1612 1.434 . S
C1614 C1615 1.369 . S
C1614 C1616 1.419 . S
C1614 H1618 0.930 . S
C1615 C1614 1.369 . S
C1615 C1624 1.429 1_554 S
C1616 C1614 1.419 . S
C1616 C1617 1.363 1_554 S
C1616 H1619 0.929 . S
C1617 C1616 1.363 1_556 S
C1617 C1623 1.428 . S
H1618 C1614 0.930 . S
H1619 C1616 0.929 . S
S1620 N1621 1.613 . S
S1620 N1622 1.610 . S
N1621 S1620 1.613 . S
N1621 C1624 1.350 . S
N1622 S1620 1.610 . S
N1622 C1623 1.351 . S
C1623 C1617 1.428 . S
C1623 N1622 1.351 . S
C1623 C1624 1.434 . S
C1624 C1615 1.429 1_556 S
C1624 N1621 1.350 . S
C1624 C1623 1.434 . S
C1625 C1626 1.369 . S
C1625 C1627 1.419 . S
C1625 H1629 0.930 . S
C1626 C1625 1.369 . S
C1626 C1635 1.429 . S
C1627 C1625 1.419 . S
C1627 C1628 1.363 . S
C1627 H1630 0.929 . S
C1628 C1627 1.363 . S
C1628 C1634 1.428 . S
H1629 C1625 0.930 . S
H1630 C1627 0.929 . S
S1631 N1632 1.613 . S
S1631 N1633 1.610 . S
N1632 S1631 1.613 . S
N1632 C1635 1.350 . S
N1633 S1631 1.610 . S
N1633 C1634 1.351 . S
C1634 C1628 1.428 . S
C1634 N1633 1.351 . S
C1634 C1635 1.434 . S
C1635 C1626 1.429 . S
C1635 N1632 1.350 . S
C1635 C1634 1.434 . S
C1636 C1637 1.369 . S
C1636 C1638 1.419 . S
C1636 H1640 0.930 . S
C1637 C1636 1.369 . S
C1637 C1646 1.429 . S
C1638 C1636 1.419 . S
C1638 C1639 1.363 . S
C1638 H1641 0.929 . S
C1639 C1638 1.363 . S
C1639 C1645 1.428 . S
H1640 C1636 0.930 . S
H1641 C1638 0.929 . S
S1642 N1643 1.613 . S
S1642 N1644 1.610 . S
N1643 S1642 1.613 . S
N1643 C1646 1.350 . S
N1644 S1642 1.610 . S
N1644 C1645 1.351 . S
C1645 C1639 1.428 . S
C1645 N1644 1.351 . S
C1645 C1646 1.434 . S
C1646 C1637 1.429 . S
C1646 N1643 1.350 . S
C1646 C1645 1.434 . S
C1647 C1648 1.369 . S
C1647 C1649 1.419 . S
C1647 H1651 0.930 . S
C1648 C1647 1.369 . S
C1648 C1657 1.429 . S
C1649 C1647 1.419 . S
C1649 C1650 1.363 . S
C1649 H1652 0.929 . S
C1650 C1649 1.363 . S
C1650 C1656 1.428 . S
H1651 C1647 0.930 . S
H1652 C1649 0.929 . S
S1653 N1654 1.613 . S
S1653 N1655 1.610 . S
N1654 S1653 1.613 . S
N1654 C1657 1.350 . S
N1655 S1653 1.610 . S
N1655 C1656 1.351 . S
C1656 C1650 1.428 . S
C1656 N1655 1.351 . S
C1656 C1657 1.434 . S
C1657 C1648 1.429 . S
C1657 N1654 1.350 . S
C1657 C1656 1.434 . S
C1658 C1659 1.369 . S
C1658 C1660 1.419 . S
C1658 H1662 0.930 . S
C1659 C1658 1.369 . S
C1659 C1668 1.429 1_556 S
C1660 C1658 1.419 . S
C1660 C1661 1.363 1_556 S
C1660 H1663 0.929 . S
C1661 C1660 1.363 1_554 S
C1661 C1667 1.428 . S
H1662 C1658 0.930 . S
H1663 C1660 0.929 . S
S1664 N1665 1.613 . S
S1664 N1666 1.610 . S
N1665 S1664 1.613 . S
N1665 C1668 1.350 . S
N1666 S1664 1.610 . S
N1666 C1667 1.351 . S
C1667 C1661 1.428 . S
C1667 N1666 1.351 . S
C1667 C1668 1.434 . S
C1668 C1659 1.429 1_554 S
C1668 N1665 1.350 . S
C1668 C1667 1.434 . S
C1669 C1670 1.369 . S
C1669 C1671 1.419 . S
C1669 H1673 0.930 . S
C1670 C1669 1.369 . S
C1670 C1679 1.429 . S
C1671 C1669 1.419 . S
C1671 C1672 1.363 . S
C1671 H1674 0.929 . S
C1672 C1671 1.363 . S
C1672 C1678 1.428 . S
H1673 C1669 0.930 . S
H1674 C1671 0.929 . S
S1675 N1676 1.613 . S
S1675 N1677 1.610 . S
N1676 S1675 1.613 . S
N1676 C1679 1.350 . S
N1677 S1675 1.610 . S
N1677 C1678 1.351 . S
C1678 C1672 1.428 . S
C1678 N1677 1.351 . S
C1678 C1679 1.434 . S
C1679 C1670 1.429 . S
C1679 N1676 1.350 . S
C1679 C1678 1.434 . S
C1680 C1681 1.369 . S
C1680 C1682 1.419 . S
C1680 H1684 0.930 . S
C1681 C1680 1.369 . S
C1681 C1690 1.429 . S
C1682 C1680 1.419 . S
C1682 C1683 1.363 . S
C1682 H1685 0.929 . S
C1683 C1682 1.363 . S
C1683 C1689 1.428 . S
H1684 C1680 0.930 . S
H1685 C1682 0.929 . S
S1686 N1687 1.613 . S
S1686 N1688 1.610 . S
N1687 S1686 1.613 . S
N1687 C1690 1.350 . S
N1688 S1686 1.610 . S
N1688 C1689 1.351 . S
C1689 C1683 1.428 . S
C1689 N1688 1.351 . S
C1689 C1690 1.434 . S
C1690 C1681 1.429 . S
C1690 N1687 1.350 . S
C1690 C1689 1.434 . S
C1691 C1692 1.369 . S
C1691 C1693 1.419 . S
C1691 H1695 0.930 . S
C1692 C1691 1.369 . S
C1692 C1701 1.429 . S
C1693 C1691 1.419 . S
C1693 C1694 1.363 . S
C1693 H1696 0.929 . S
C1694 C1693 1.363 . S
C1694 C1700 1.428 . S
H1695 C1691 0.930 . S
H1696 C1693 0.929 . S
S1697 N1698 1.613 . S
S1697 N1699 1.610 . S
N1698 S1697 1.613 . S
N1698 C1701 1.350 . S
N1699 S1697 1.610 . S
N1699 C1700 1.351 . S
C1700 C1694 1.428 . S
C1700 N1699 1.351 . S
C1700 C1701 1.434 . S
C1701 C1692 1.429 . S
C1701 N1698 1.350 . S
C1701 C1700 1.434 . S
C1702 C1703 1.369 . S
C1702 C1704 1.419 . S
C1702 H1706 0.930 . S
C1703 C1702 1.369 . S
C1703 C1712 1.429 . S
C1704 C1702 1.419 . S
C1704 C1705 1.363 . S
C1704 H1707 0.929 . S
C1705 C1704 1.363 . S
C1705 C1711 1.428 . S
H1706 C1702 0.930 . S
H1707 C1704 0.929 . S
S1708 N1709 1.613 . S
S1708 N1710 1.610 . S
N1709 S1708 1.613 . S
N1709 C1712 1.350 . S
N1710 S1708 1.610 . S
N1710 C1711 1.351 . S
C1711 C1705 1.428 . S
C1711 N1710 1.351 . S
C1711 C1712 1.434 . S
C1712 C1703 1.429 . S
C1712 N1709 1.350 . S
C1712 C1711 1.434 . S
C1713 C1714 1.369 . S
C1713 C1715 1.419 . S
C1713 H1717 0.930 . S
C1714 C1713 1.369 . S
C1714 C1723 1.429 . S
C1715 C1713 1.419 . S
C1715 C1716 1.363 . S
C1715 H1718 0.929 . S
C1716 C1715 1.363 . S
C1716 C1722 1.428 . S
H1717 C1713 0.930 . S
H1718 C1715 0.929 . S
S1719 N1720 1.613 . S
S1719 N1721 1.610 . S
N1720 S1719 1.613 . S
N1720 C1723 1.350 . S
N1721 S1719 1.610 . S
N1721 C1722 1.351 . S
C1722 C1716 1.428 . S
C1722 N1721 1.351 . S
C1722 C1723 1.434 . S
C1723 C1714 1.429 . S
C1723 N1720 1.350 . S
C1723 C1722 1.434 . S
C1724 C1725 1.369 . S
C1724 C1726 1.419 . S
C1724 H1728 0.930 . S
C1725 C1724 1.369 . S
C1725 C1734 1.429 . S
C1726 C1724 1.419 . S
C1726 C1727 1.363 . S
C1726 H1729 0.929 . S
C1727 C1726 1.363 . S
C1727 C1733 1.428 . S
H1728 C1724 0.930 . S
H1729 C1726 0.929 . S
S1730 N1731 1.613 . S
S1730 N1732 1.610 . S
N1731 S1730 1.613 . S
N1731 C1734 1.350 . S
N1732 S1730 1.610 . S
N1732 C1733 1.351 . S
C1733 C1727 1.428 . S
C1733 N1732 1.351 . S
C1733 C1734 1.434 . S
C1734 C1725 1.429 . S
C1734 N1731 1.350 . S
C1734 C1733 1.434 . S
C1735 C1736 1.369 . S
C1735 C1737 1.419 . S
C1735 H1739 0.930 . S
C1736 C1735 1.369 . S
C1736 C1745 1.429 . S
C1737 C1735 1.419 . S
C1737 C1738 1.363 . S
C1737 H1740 0.929 . S
C1738 C1737 1.363 . S
C1738 C1744 1.428 . S
H1739 C1735 0.930 . S
H1740 C1737 0.929 . S
S1741 N1742 1.613 . S
S1741 N1743 1.610 . S
N1742 S1741 1.613 . S
N1742 C1745 1.350 . S
N1743 S1741 1.610 . S
N1743 C1744 1.351 . S
C1744 C1738 1.428 . S
C1744 N1743 1.351 . S
C1744 C1745 1.434 . S
C1745 C1736 1.429 . S
C1745 N1742 1.350 . S
C1745 C1744 1.434 . S
C1746 C1747 1.369 . S
C1746 C1748 1.419 . S
C1746 H1750 0.930 . S
C1747 C1746 1.369 . S
C1747 C1756 1.429 . S
C1748 C1746 1.419 . S
C1748 C1749 1.363 . S
C1748 H1751 0.929 . S
C1749 C1748 1.363 . S
C1749 C1755 1.428 . S
H1750 C1746 0.930 . S
H1751 C1748 0.929 . S
S1752 N1753 1.613 . S
S1752 N1754 1.610 . S
N1753 S1752 1.613 . S
N1753 C1756 1.350 . S
N1754 S1752 1.610 . S
N1754 C1755 1.351 . S
C1755 C1749 1.428 . S
C1755 N1754 1.351 . S
C1755 C1756 1.434 . S
C1756 C1747 1.429 . S
C1756 N1753 1.350 . S
C1756 C1755 1.434 . S
C1757 C1758 1.369 . S
C1757 C1759 1.419 . S
C1757 H1761 0.930 . S
C1758 C1757 1.369 . S
C1758 C1767 1.429 . S
C1759 C1757 1.419 . S
C1759 C1760 1.363 . S
C1759 H1762 0.929 . S
C1760 C1759 1.363 . S
C1760 C1766 1.428 . S
H1761 C1757 0.930 . S
H1762 C1759 0.929 . S
S1763 N1764 1.613 . S
S1763 N1765 1.610 . S
N1764 S1763 1.613 . S
N1764 C1767 1.350 . S
N1765 S1763 1.610 . S
N1765 C1766 1.351 . S
C1766 C1760 1.428 . S
C1766 N1765 1.351 . S
C1766 C1767 1.434 . S
C1767 C1758 1.429 . S
C1767 N1764 1.350 . S
C1767 C1766 1.434 . S
C1768 C1769 1.369 . S
C1768 C1770 1.419 . S
C1768 H1772 0.930 . S
C1769 C1768 1.369 . S
C1769 C1778 1.429 . S
C1770 C1768 1.419 . S
C1770 C1771 1.363 . S
C1770 H1773 0.929 . S
C1771 C1770 1.363 . S
C1771 C1777 1.428 . S
H1772 C1768 0.930 . S
H1773 C1770 0.929 . S
S1774 N1775 1.613 . S
S1774 N1776 1.610 . S
N1775 S1774 1.613 . S
N1775 C1778 1.350 . S
N1776 S1774 1.610 . S
N1776 C1777 1.351 . S
C1777 C1771 1.428 . S
C1777 N1776 1.351 . S
C1777 C1778 1.434 . S
C1778 C1769 1.429 . S
C1778 N1775 1.350 . S
C1778 C1777 1.434 . S
C1779 C1780 1.369 . S
C1779 C1781 1.419 . S
C1779 H1783 0.930 . S
C1780 C1779 1.369 . S
C1780 C1789 1.429 . S
C1781 C1779 1.419 . S
C1781 C1782 1.363 . S
C1781 H1784 0.929 . S
C1782 C1781 1.363 . S
C1782 C1788 1.428 . S
H1783 C1779 0.930 . S
H1784 C1781 0.929 . S
S1785 N1786 1.613 . S
S1785 N1787 1.610 . S
N1786 S1785 1.613 . S
N1786 C1789 1.350 . S
N1787 S1785 1.610 . S
N1787 C1788 1.351 . S
C1788 C1782 1.428 . S
C1788 N1787 1.351 . S
C1788 C1789 1.434 . S
C1789 C1780 1.429 . S
C1789 N1786 1.350 . S
C1789 C1788 1.434 . S
C1790 C1791 1.369 . S
C1790 C1792 1.419 . S
C1790 H1794 0.930 . S
C1791 C1790 1.369 . S
C1791 C1800 1.429 . S
C1792 C1790 1.419 . S
C1792 C1793 1.363 . S
C1792 H1795 0.929 . S
C1793 C1792 1.363 . S
C1793 C1799 1.428 . S
H1794 C1790 0.930 . S
H1795 C1792 0.929 . S
S1796 N1797 1.613 . S
S1796 N1798 1.610 . S
N1797 S1796 1.613 . S
N1797 C1800 1.350 . S
N1798 S1796 1.610 . S
N1798 C1799 1.351 . S
C1799 C1793 1.428 . S
C1799 N1798 1.351 . S
C1799 C1800 1.434 . S
C1800 C1791 1.429 . S
C1800 N1797 1.350 . S
C1800 C1799 1.434 . S
C1801 C1802 1.369 . S
C1801 C1803 1.419 . S
C1801 H1805 0.930 . S
C1802 C1801 1.369 . S
C1802 C1811 1.429 . S
C1803 C1801 1.419 . S
C1803 C1804 1.363 . S
C1803 H1806 0.929 . S
C1804 C1803 1.363 . S
C1804 C1810 1.428 . S
H1805 C1801 0.930 . S
H1806 C1803 0.929 . S
S1807 N1808 1.613 . S
S1807 N1809 1.610 . S
N1808 S1807 1.613 . S
N1808 C1811 1.350 . S
N1809 S1807 1.610 . S
N1809 C1810 1.351 . S
C1810 C1804 1.428 . S
C1810 N1809 1.351 . S
C1810 C1811 1.434 . S
C1811 C1802 1.429 . S
C1811 N1808 1.350 . S
C1811 C1810 1.434 . S
C1812 C1813 1.369 . S
C1812 C1814 1.419 . S
C1812 H1816 0.930 . S
C1813 C1812 1.369 . S
C1813 C1822 1.429 . S
C1814 C1812 1.419 . S
C1814 C1815 1.363 . S
C1814 H1817 0.929 . S
C1815 C1814 1.363 . S
C1815 C1821 1.428 . S
H1816 C1812 0.930 . S
H1817 C1814 0.929 . S
S1818 N1819 1.613 . S
S1818 N1820 1.610 . S
N1819 S1818 1.613 . S
N1819 C1822 1.350 . S
N1820 S1818 1.610 . S
N1820 C1821 1.351 . S
C1821 C1815 1.428 . S
C1821 N1820 1.351 . S
C1821 C1822 1.434 . S
C1822 C1813 1.429 . S
C1822 N1819 1.350 . S
C1822 C1821 1.434 . S
C1823 C1824 1.369 . S
C1823 C1825 1.419 . S
C1823 H1827 0.930 . S
C1824 C1823 1.369 . S
C1824 C1833 1.429 . S
C1825 C1823 1.419 . S
C1825 C1826 1.363 . S
C1825 H1828 0.929 . S
C1826 C1825 1.363 . S
C1826 C1832 1.428 . S
H1827 C1823 0.930 . S
H1828 C1825 0.929 . S
S1829 N1830 1.613 . S
S1829 N1831 1.610 . S
N1830 S1829 1.613 . S
N1830 C1833 1.350 . S
N1831 S1829 1.610 . S
N1831 C1832 1.351 . S
C1832 C1826 1.428 . S
C1832 N1831 1.351 . S
C1832 C1833 1.434 . S
C1833 C1824 1.429 . S
C1833 N1830 1.350 . S
C1833 C1832 1.434 . S
C1834 C1835 1.369 . S
C1834 C1836 1.419 . S
C1834 H1838 0.930 . S
C1835 C1834 1.369 . S
C1835 C1844 1.429 . S
C1836 C1834 1.419 . S
C1836 C1837 1.363 . S
C1836 H1839 0.929 . S
C1837 C1836 1.363 . S
C1837 C1843 1.428 . S
H1838 C1834 0.930 . S
H1839 C1836 0.929 . S
S1840 N1841 1.613 . S
S1840 N1842 1.610 . S
N1841 S1840 1.613 . S
N1841 C1844 1.350 . S
N1842 S1840 1.610 . S
N1842 C1843 1.351 . S
C1843 C1837 1.428 . S
C1843 N1842 1.351 . S
C1843 C1844 1.434 . S
C1844 C1835 1.429 . S
C1844 N1841 1.350 . S
C1844 C1843 1.434 . S
C1845 C1846 1.369 . S
C1845 C1847 1.419 . S
C1845 H1849 0.930 . S
C1846 C1845 1.369 . S
C1846 C1855 1.429 . S
C1847 C1845 1.419 . S
C1847 C1848 1.363 . S
C1847 H1850 0.929 . S
C1848 C1847 1.363 . S
C1848 C1854 1.428 . S
H1849 C1845 0.930 . S
H1850 C1847 0.929 . S
S1851 N1852 1.613 . S
S1851 N1853 1.610 . S
N1852 S1851 1.613 . S
N1852 C1855 1.350 . S
N1853 S1851 1.610 . S
N1853 C1854 1.351 . S
C1854 C1848 1.428 . S
C1854 N1853 1.351 . S
C1854 C1855 1.434 . S
C1855 C1846 1.429 . S
C1855 N1852 1.350 . S
C1855 C1854 1.434 . S
C1153 C292 1.364 . S
C1155 C4 1.367 . S
C1164 C904 1.366 . S
C1166 C40 1.366 . S
C1175 C364 1.368 . S
C1177 C76 1.364 . S
C1186 C976 1.364 . S
C1188 C112 1.366 . S
C1197 C436 1.364 . S
C1199 C148 1.367 . S
C1208 C184 1.367 . S
C1210 C1048 1.365 . S
C1219 C220 1.367 . S
C1221 C508 1.365 . S
C1230 C256 1.368 . S
C1232 C1120 1.364 . S
C1241 C616 1.364 . S
C1243 C328 1.367 . S
C1252 C688 1.368 . S
C1254 C400 1.364 . S
C1263 C472 1.366 . S
C1265 C760 1.365 . S
C1274 C544 1.363 . S
C1276 C832 1.367 . S
C1285 C580 1.363 . S
C1287 C868 1.367 . S
C1296 C940 1.364 . S
C1298 C652 1.367 . S
C1307 C724 1.364 . S
C1309 C1012 1.367 . S
C1318 C1084 1.363 . S
C1320 C796 1.367 . S
C1329 C650 1.508 . S
C1331 C2 1.506 . S
C1340 C686 1.508 . S
C1342 C38 1.506 . S
C1351 C74 1.508 . S
C1353 C578 1.506 . S
C1362 C110 1.508 . S
C1364 C614 1.506 . S
C1373 C794 1.505 . S
C1375 C146 1.505 . S
C1384 C182 1.508 . S
C1386 C830 1.505 . S
C1395 C722 1.508 . S
C1397 C218 1.505 . S
C1406 C758 1.507 . S
C1408 C254 1.505 . S
C1417 C290 1.507 . S
C1419 C938 1.505 . S
C1428 C974 1.505 . S
C1430 C326 1.504 . S
C1439 C362 1.505 . S
C1441 C866 1.508 . S
C1450 C398 1.508 . S
C1452 C902 1.505 . S
C1461 C434 1.504 . S
C1463 C1082 1.507 . S
C1472 C470 1.508 . S
C1474 C1118 1.505 . S
C1483 C1010 1.508 . S
C1485 C506 1.505 . S
C1494 C1046 1.504 . S
C1496 C542 1.507 . S
C1505 C230 1.552 . S
C1507 C14 1.543 . S
C1516 C266 1.542 . S
C1518 C50 1.551 . S
C1527 C158 1.549 . S
C1529 C86 1.545 . S
C1538 C122 1.543 . S
C1540 C194 1.550 . S
C1549 C518 1.544 . S
C1551 C302 1.548 . S
C1560 C554 1.543 . S
C1562 C338 1.550 . S
C1571 C446 1.546 . S
C1573 C374 1.548 . S
C1582 C482 1.551 . S
C1584 C410 1.543 . S
C1593 C806 1.552 . S
C1595 C590 1.543 . S
C1604 C842 1.546 . S
C1606 C626 1.547 . S
C1615 C662 1.545 . S
C1617 C734 1.548 . S
C1626 C698 1.551 . S
C1628 C770 1.543 . S
C1637 C1094 1.545 . S
C1639 C878 1.549 . S
C1648 C1130 1.551 . S
C1650 C914 1.543 . S
C1659 C950 1.543 . S
C1661 C1022 1.550 . S
C1670 C986 1.542 . S
C1672 C1058 1.551 . S
C1681 C3 1.484 . S
C1683 C759 1.482 . S
C1692 C795 1.483 . S
C1694 C39 1.484 . S
C1703 C831 1.484 . S
C1705 C75 1.483 . S
C1714 C111 1.482 . S
C1716 C723 1.483 . S
C1725 C687 1.484 . S
C1727 C147 1.483 . S
C1736 C183 1.484 . S
C1738 C579 1.482 . S
C1747 C615 1.484 . S
C1749 C219 1.483 . S
C1758 C255 1.483 . S
C1760 C651 1.482 . S
C1769 C1047 1.483 . S
C1771 C291 1.484 . S
C1780 C1083 1.482 . S
C1782 C327 1.483 . S
C1791 C363 1.484 . S
C1793 C1119 1.482 . S
C1802 C1011 1.484 . S
C1804 C399 1.482 . S
C1813 C975 1.482 . S
C1815 C435 1.484 . S
C1824 C471 1.483 . S
C1826 C867 1.483 . S
C1835 C903 1.482 . S
C1837 C507 1.484 . S
C1846 C543 1.485 . S
C1848 C939 1.482 . S
