# Generated by pormake.
# Topology uog, (4)-cn, num edge types: 1
# Building blocks:
#     Node 0, Type 0, BuildingBlock: ESEHIV_clean_sbu_0, # of connection points: 4
#     Node 1, Type 0, BuildingBlock: ESEHIV_clean_sbu_0, # of connection points: 4
#     Node 2, Type 0, BuildingBlock: ESEHIV_clean_sbu_0, # of connection points: 4
#     Node 3, Type 0, BuildingBlock: ESEHIV_clean_sbu_0, # of connection points: 4
#     Node 4, Type 0, BuildingBlock: ESEHIV_clean_sbu_0, # of connection points: 4
#     Node 5, Type 0, BuildingBlock: ESEHIV_clean_sbu_0, # of connection points: 4
#     Edge 6, Type (0, 0), BuildingBlock: EZIPEK_clean_linker_0, # of connection points: 2
#     Edge 7, Type (0, 0), BuildingBlock: EZIPEK_clean_linker_0, # of connection points: 2
#     Edge 8, Type (0, 0), BuildingBlock: EZIPEK_clean_linker_0, # of connection points: 2
#     Edge 9, Type (0, 0), BuildingBlock: EZIPEK_clean_linker_0, # of connection points: 2
#     Edge 10, Type (0, 0), BuildingBlock: EZIPEK_clean_linker_0, # of connection points: 2
#     Edge 11, Type (0, 0), BuildingBlock: EZIPEK_clean_linker_0, # of connection points: 2
#     Edge 12, Type (0, 0), BuildingBlock: EZIPEK_clean_linker_0, # of connection points: 2
#     Edge 13, Type (0, 0), BuildingBlock: EZIPEK_clean_linker_0, # of connection points: 2
#     Edge 14, Type (0, 0), BuildingBlock: EZIPEK_clean_linker_0, # of connection points: 2
#     Edge 15, Type (0, 0), BuildingBlock: EZIPEK_clean_linker_0, # of connection points: 2
#     Edge 16, Type (0, 0), BuildingBlock: EZIPEK_clean_linker_0, # of connection points: 2
#     Edge 17, Type (0, 0), BuildingBlock: EZIPEK_clean_linker_0, # of connection points: 2
# Relax obj value: 0.019
# Max RMSD: 0.224
# Mean RMSD: 0.152
data_MOF--net-uog--node1-ESEHIV_clean_sbu_0--edge1-EZIPEK_clean_linker_0
_symmetry_space_group_name_H-M    P1
_symmetry_Int_Tables_number       1
_symmetry_cell_setting            triclinic
loop_
_symmetry_equiv_pos_as_xyz
'x, y, z'
_cell_length_a     21.395349
_cell_length_b     26.089304
_cell_length_c     32.996438
_cell_angle_alpha  89.536795
_cell_angle_beta   89.99295
_cell_angle_gamma 113.9005
loop_
_atom_site_label
_atom_site_type_symbol
_atom_site_fract_x
_atom_site_fract_y
_atom_site_fract_z
_atom_type_partial_charge
Cu0 Cu 0.5665 0.28455 0.17893 0.0
N1 N 0.51166 0.32447 0.18349 0.0
N2 N 0.49 0.40108 0.18452 0.0
C3 C 0.53306 0.37852 0.17217 0.0
C4 C 0.43777 0.35919 0.20313 0.0
C5 C 0.45136 0.31168 0.20247 0.0
O6 O 0.62982 0.30442 0.2248 0.0
C7 C 0.65074 0.28953 0.10836 0.0
O8 O 0.68078 0.26313 0.12949 0.0
H9 H 0.58192 0.40213 0.15772 0.0
H10 H 0.42139 0.27187 0.21684 0.0
N11 N 0.51604 0.20761 0.18478 0.0
N12 N 0.5031 0.11831 0.18793 0.0
C13 C 0.52935 0.16693 0.16668 0.0
C14 C 0.47885 0.18338 0.21795 0.0
C15 C 0.47058 0.1283 0.21989 0.0
C16 C 0.6541 0.35258 0.2411 0.0
O17 O 0.64661 0.39467 0.2231 0.0
H18 H 0.56383 0.17424 0.14123 0.0
H19 H 0.46553 0.20573 0.24153 0.0
O20 O 0.60567 0.30267 0.12479 0.0
H21 H 0.3956 0.36374 0.21845 0.0
H22 H 0.44762 0.09917 0.24463 0.0
Cu23 Cu 0.33717 0.60755 0.52833 0.0
N24 N 0.34415 0.64826 0.48057 0.0
N25 N 0.35067 0.67109 0.41508 0.0
C26 C 0.35302 0.63353 0.44268 0.0
C27 C 0.3399 0.7108 0.43607 0.0
C28 C 0.33558 0.69644 0.47656 0.0
O29 O 0.39413 0.56507 0.52429 0.0
C30 C 0.20055 0.58653 0.54444 0.0
O31 O 0.22739 0.64089 0.5502 0.0
H32 H 0.36075 0.59612 0.43542 0.0
H33 H 0.32617 0.71926 0.50135 0.0
N34 N 0.36948 0.65664 0.57168 0.0
N35 N 0.3789 0.69269 0.6335 0.0
C36 C 0.34871 0.64664 0.61056 0.0
C37 C 0.41515 0.71041 0.57022 0.0
C38 C 0.42082 0.73289 0.60838 0.0
C39 C 0.45784 0.59198 0.51698 0.0
O40 O 0.48219 0.64642 0.51091 0.0
H41 H 0.31001 0.60733 0.62145 0.0
H42 H 0.44099 0.73218 0.54305 0.0
O43 O 0.2396 0.56177 0.53603 0.0
H44 H 0.3357 0.74744 0.42296 0.0
H45 H 0.45152 0.7758 0.61687 0.0
Cu46 Cu 0.73654 0.29382 0.86186 0.0
N47 N 0.71526 0.21787 0.85466 0.0
N48 N 0.64886 0.12671 0.851 0.0
C49 C 0.6508 0.17855 0.85511 0.0
C50 C 0.71448 0.13318 0.84786 0.0
C51 C 0.75567 0.18989 0.85017 0.0
O52 O 0.69051 0.29539 0.91268 0.0
C53 C 0.73781 0.31202 0.78012 0.0
O54 O 0.77872 0.2859 0.78364 0.0
H55 H 0.60615 0.18768 0.85916 0.0
H56 H 0.81093 0.20923 0.84925 0.0
N57 N 0.82977 0.33606 0.86974 0.0
N58 N 0.92523 0.41431 0.87555 0.0
C59 C 0.86482 0.38903 0.85633 0.0
C60 C 0.86993 0.327 0.89772 0.0
C61 C 0.92877 0.37526 0.90146 0.0
C62 C 0.70987 0.33696 0.9366 0.0
O63 O 0.75169 0.3865 0.9233 0.0
H64 H 0.84397 0.4102 0.83548 0.0
H65 H 0.855 0.28965 0.91641 0.0
O66 O 0.71048 0.32129 0.8121 0.0
H67 H 0.73116 0.09938 0.84488 0.0
H68 H 0.96947 0.38219 0.92303 0.0
Cu69 Cu 0.49158 0.75589 0.18279 0.0
N70 N 0.54424 0.71425 0.18461 0.0
N71 N 0.56326 0.63652 0.18439 0.0
C72 C 0.51845 0.65926 0.1763 0.0
C73 C 0.62036 0.67885 0.19769 0.0
C74 C 0.60842 0.72716 0.19777 0.0
O75 O 0.43464 0.73684 0.23108 0.0
C76 C 0.39848 0.75188 0.11838 0.0
O77 O 0.3729 0.77901 0.14189 0.0
H78 H 0.46667 0.63568 0.16609 0.0
H79 H 0.64285 0.76797 0.20834 0.0
N80 N 0.54414 0.83267 0.18627 0.0
N81 N 0.55894 0.92241 0.18824 0.0
C82 C 0.52979 0.87332 0.16845 0.0
C83 C 0.58514 0.85738 0.21766 0.0
C84 C 0.5945 0.91276 0.2189 0.0
C85 C 0.39687 0.68774 0.24354 0.0
O86 O 0.38481 0.64444 0.22007 0.0
H87 H 0.49263 0.86578 0.14456 0.0
H88 H 0.6007 0.83526 0.24069 0.0
O89 O 0.4449 0.73763 0.13144 0.0
H90 H 0.66578 0.67445 0.20838 0.0
H91 H 0.62043 0.9424 0.24247 0.0
Cu92 Cu 0.77187 0.47053 0.51794 0.0
N93 N 0.77583 0.45288 0.46336 0.0
N94 N 0.75485 0.42171 0.39979 0.0
C95 C 0.73338 0.41244 0.43889 0.0
C96 C 0.81249 0.46897 0.39982 0.0
C97 C 0.82506 0.48804 0.43882 0.0
O98 O 0.7159 0.5138 0.52162 0.0
C99 C 0.90418 0.48265 0.53504 0.0
O100 O 0.87475 0.4281 0.53019 0.0
H101 H 0.6864 0.37879 0.44894 0.0
H102 H 0.86627 0.52629 0.44861 0.0
N103 N 0.7346 0.40944 0.55347 0.0
N104 N 0.71329 0.36441 0.61308 0.0
C105 C 0.73673 0.41463 0.59407 0.0
C106 C 0.70816 0.35392 0.54646 0.0
C107 C 0.69508 0.32593 0.58338 0.0
C108 C 0.65213 0.48819 0.51434 0.0
O109 O 0.62719 0.43481 0.50502 0.0
H110 H 0.7588 0.45451 0.60941 0.0
H111 H 0.7018 0.33523 0.51678 0.0
O112 O 0.8678 0.51119 0.53308 0.0
H113 H 0.84194 0.48922 0.37316 0.0
H114 H 0.67677 0.2811 0.5881 0.0
Cu115 Cu 0.3082 0.76192 0.8739 0.0
N116 N 0.33354 0.83833 0.86503 0.0
N117 N 0.40316 0.92836 0.85735 0.0
C118 C 0.39887 0.87608 0.86382 0.0
C119 C 0.33827 0.92378 0.85439 0.0
C120 C 0.29509 0.86779 0.85921 0.0
O121 O 0.34818 0.75701 0.92572 0.0
C122 C 0.32183 0.74555 0.79344 0.0
O123 O 0.28699 0.77701 0.79233 0.0
H124 H 0.44246 0.8655 0.86787 0.0
H125 H 0.2398 0.84988 0.85866 0.0
N126 N 0.21402 0.72146 0.87861 0.0
N127 N 0.11815 0.64302 0.88066 0.0
C128 C 0.17864 0.671 0.8618 0.0
C129 C 0.17382 0.72629 0.90833 0.0
C130 C 0.1147 0.6779 0.90974 0.0
C131 C 0.32523 0.7141 0.94883 0.0
O132 O 0.28027 0.66644 0.935 0.0
H133 H 0.19963 0.65284 0.83899 0.0
H134 H 0.18924 0.76015 0.9299 0.0
O135 O 0.33898 0.73258 0.82773 0.0
H136 H 0.32345 0.95839 0.84949 0.0
H137 H 0.07413 0.6676 0.93199 0.0
C138 C 0.58618 0.07375 0.18432 0.0
C139 C 0.5178 0.06935 0.18321 0.0
C140 C 0.47594 0.96716 0.18712 0.0
C141 C 0.54409 0.97143 0.18378 0.0
N142 N 0.66249 0.02836 0.16987 0.0
N143 N 0.39834 1.01193 0.1741 0.0
C144 C 0.5987 1.02473 0.17923 0.0
C145 C 0.46292 1.01592 0.18139 0.0
N146 N 0.63873 0.12364 0.19317 0.0
N147 N 0.42436 0.91776 0.19871 0.0
H148 H 0.38781 0.04719 0.16911 0.0
H149 H 0.35707 0.97389 0.16895 0.0
H150 H 0.43242 0.88223 0.20667 0.0
H151 H 0.37496 0.91402 0.205 0.0
H152 H 0.68864 0.12762 0.19791 0.0
H153 H 0.63147 0.15962 0.20039 0.0
H154 H 0.70317 0.06614 0.1627 0.0
H155 H 0.67261 0.99291 0.16529 0.0
C156 C 0.54446 0.5666 0.48053 0.0
C157 C 0.50568 0.56341 0.51619 0.0
C158 C 0.56273 0.5102 0.5506 0.0
C159 C 0.60512 0.51728 0.51605 0.0
N160 N 0.64266 0.55741 0.44982 0.0
N161 N 0.48576 0.54062 0.58737 0.0
C162 C 0.59797 0.54724 0.48155 0.0
C163 C 0.51666 0.53722 0.55181 0.0
N164 N 0.52805 0.58592 0.44518 0.0
N165 N 0.56592 0.47698 0.58212 0.0
H166 H 0.45218 0.56034 0.58971 0.0
H167 H 0.4976 0.52804 0.6153 0.0
H168 H 0.6013 0.45883 0.58327 0.0
H169 H 0.53077 0.46446 0.60589 0.0
H170 H 0.54936 0.58408 0.41717 0.0
H171 H 0.48842 0.59939 0.44307 0.0
H172 H 0.64514 0.58405 0.42564 0.0
H173 H 0.68108 0.54245 0.44905 0.0
C174 C 0.95148 0.51688 0.8765 0.0
C175 C 0.97332 0.47241 0.87262 0.0
C176 C 0.09228 0.54077 0.87523 0.0
C177 C 0.07032 0.58547 0.87494 0.0
N178 N 0.97889 0.61492 0.86296 0.0
N179 N 0.06468 0.44475 0.856 0.0
C180 C 0.99977 0.57307 0.87151 0.0
C181 C 0.04389 0.48529 0.86799 0.0
N182 N 0.8861 0.50627 0.8878 0.0
N183 N 0.15786 0.55011 0.88511 0.0
H184 H 1.03014 0.40436 0.84865 0.0
H185 H 0.11542 0.45316 0.84895 0.0
H186 H 0.1937 0.58902 0.89394 0.0
H187 H 0.17416 0.5178 0.88919 0.0
H188 H 0.86977 0.53789 0.89441 0.0
H189 H 0.85076 0.4664 0.89542 0.0
H190 H 0.9281 0.60733 0.85686 0.0
H191 H 1.01338 0.65616 0.85744 0.0
C192 C 0.0926 0.53727 0.5049 0.0
C193 C 0.12483 0.55671 0.54267 0.0
C194 C 1.01239 0.53349 0.57459 0.0
C195 C 0.98012 0.51027 0.53749 0.0
N196 N 0.98881 0.48253 0.46869 0.0
N197 N 0.11661 0.56723 0.61464 0.0
C198 C 1.02007 0.50973 0.50312 0.0
C199 C 0.08498 0.55332 0.57786 0.0
N200 N 0.13103 0.54793 0.47019 0.0
N201 N 0.97356 0.53646 0.60667 0.0
H202 H 0.16938 0.58092 0.61805 0.0
H203 H 0.09071 0.56103 0.64215 0.0
H204 H 0.92028 0.5201 0.60588 0.0
H205 H 0.99389 0.55808 0.6332 0.0
H206 H 0.11012 0.54119 0.44122 0.0
H207 H 0.18423 0.56809 0.46991 0.0
H208 H 1.01508 0.47439 0.44475 0.0
H209 H 0.93599 0.46453 0.46493 0.0
C210 C 0.49614 0.99943 0.81763 0.0
C211 C 0.46497 0.97871 0.85561 0.0
C212 C 0.55948 0.05248 0.89058 0.0
C213 C 0.58849 0.07521 0.85251 0.0
N214 N 0.58326 0.07538 0.7799 0.0
N215 N 0.46155 0.98635 0.9279 0.0
C216 C 0.55653 0.04991 0.81598 0.0
C217 C 0.4953 1.00551 0.89207 0.0
N218 N 0.4684 0.96983 0.78343 0.0
N219 N 0.59442 0.07557 0.92511 0.0
H220 H 0.41488 0.95156 0.92959 0.0
H221 H 0.47718 1.00643 0.9555 0.0
H222 H 0.6413 0.11024 0.92456 0.0
H223 H 0.57968 0.0587 0.95399 0.0
H224 H 0.49155 0.97927 0.75501 0.0
H225 H 0.42348 0.93332 0.78402 0.0
H226 H 0.55943 0.06252 0.75206 0.0
H227 H 0.62809 0.11188 0.77812 0.0
C228 C 0.5374 0.54806 0.22193 0.0
C229 C 0.54747 0.57748 0.18461 0.0
C230 C 0.50985 0.48892 0.14778 0.0
C231 C 0.50572 0.46018 0.18491 0.0
N232 N 0.5292 0.46356 0.2565 0.0
N233 N 0.55185 0.57834 0.11193 0.0
C234 C 0.52315 0.49005 0.22184 0.0
C235 C 0.53604 0.54848 0.14742 0.0
N236 N 0.53865 0.57508 0.25739 0.0
N237 N 0.48715 0.45882 0.11314 0.0
H238 H 0.57168 0.62208 0.11117 0.0
H239 H 0.55054 0.56043 0.08371 0.0
H240 H 0.46716 0.41508 0.11297 0.0
H241 H 0.48299 0.47656 0.08546 0.0
H242 H 0.52436 0.55444 0.28521 0.0
H243 H 0.54807 0.61748 0.25851 0.0
H244 H 0.54898 0.48451 0.28338 0.0
H245 H 0.52034 0.42132 0.25738 0.0
C246 C 0.62604 0.2983 0.99427 0.0
C247 C 0.69458 0.32706 0.98083 0.0
C248 C 0.73368 0.33579 0.05163 0.0
C249 C 0.66621 0.30183 0.06448 0.0
N250 N 0.54997 0.24165 0.04699 0.0
N251 N 0.81536 0.36258 0.99663 0.0
C252 C 0.61277 0.28062 0.03551 0.0
C253 C 0.74895 0.34312 1.00947 0.0
N254 N 0.5734 0.28944 0.96796 0.0
N255 N 0.78295 0.36275 0.07963 0.0
H256 H 0.82964 0.36754 0.96626 0.0
H257 H 0.85607 0.36857 1.01605 0.0
H258 H 0.77381 0.35891 0.11079 0.0
H259 H 0.831 0.39306 0.07188 0.0
H260 H 0.52237 0.27395 0.97702 0.0
H261 H 0.58107 0.3027 0.93776 0.0
H262 H 0.51135 0.22035 0.02646 0.0
H263 H 0.53851 0.22638 0.07659 0.0
C264 C 0.31572 0.66159 0.30299 0.0
C265 C 0.38317 0.67885 0.28761 0.0
C266 C 0.42856 0.6897 0.35676 0.0
C267 C 0.36124 0.67098 0.37208 0.0
N268 N 0.24002 0.6309 0.36161 0.0
N269 N 0.50192 0.69751 0.29912 0.0
C270 C 0.30448 0.65438 0.34563 0.0
C271 C 0.43912 0.68945 0.31432 0.0
N272 N 0.26309 0.654 0.27694 0.0
N273 N 0.48246 0.70963 0.38292 0.0
H274 H 0.51164 0.69714 0.26821 0.0
H275 H 0.54284 0.69951 0.31707 0.0
H276 H 0.47611 0.70969 0.41426 0.0
H277 H 0.53318 0.72985 0.3736 0.0
H278 H 0.2138 0.6469 0.28631 0.0
H279 H 0.26971 0.65807 0.24557 0.0
H280 H 0.19592 0.61309 0.34428 0.0
H281 H 0.23106 0.62564 0.39277 0.0
C282 C 0.6635 0.31431 0.7208 0.0
C283 C 0.72901 0.3327 0.73919 0.0
C284 C 0.78351 0.37005 0.67366 0.0
C285 C 0.71835 0.35454 0.65581 0.0
N286 N 0.59674 0.32185 0.66315 0.0
N287 N 0.85006 0.39039 0.73526 0.0
C288 C 0.65839 0.32974 0.67972 0.0
C289 C 0.7886 0.36447 0.71621 0.0
N290 N 0.6067 0.27966 0.74165 0.0
N291 N 0.84047 0.38751 0.64959 0.0
H292 H 0.85562 0.3882 0.76651 0.0
H293 H 0.89386 0.41864 0.72075 0.0
H294 H 0.83841 0.39029 0.61812 0.0
H295 H 0.88884 0.39396 0.66033 0.0
H296 H 0.55878 0.25992 0.72837 0.0
H297 H 0.60821 0.26732 0.77162 0.0
H298 H 0.5516 0.30907 0.67987 0.0
H299 H 0.59202 0.33272 0.63314 0.0
C300 C 0.41303 0.74553 1.00388 0.0
C301 C 0.3433 0.72042 0.9925 0.0
C302 C 0.3096 0.71112 0.06429 0.0
C303 C 0.37874 0.74216 0.07514 0.0
N304 N 0.4948 0.79932 0.05423 0.0
N305 N 0.22427 0.68978 1.01186 0.0
C306 C 0.43016 0.76223 0.04465 0.0
C307 C 0.29116 0.70582 0.02267 0.0
N308 N 0.463 0.75189 0.97602 0.0
N309 N 0.26176 0.68507 0.09358 0.0
H310 H 0.20797 0.68663 0.98193 0.0
H311 H 0.18557 0.68488 0.03266 0.0
H312 H 0.27328 0.68752 0.1244 0.0
H313 H 0.21215 0.65679 0.08704 0.0
H314 H 0.51434 0.76471 0.98365 0.0
H315 H 0.45239 0.7388 0.94606 0.0
H316 H 0.53219 0.81967 0.0325 0.0
H317 H 0.50919 0.81438 0.08344 0.0
C318 C 0.6594 0.39378 0.35066 0.0
C319 C 0.72182 0.39248 0.36366 0.0
C320 C 0.73653 0.35682 0.29717 0.0
C321 C 0.67401 0.35822 0.28447 0.0
N322 N 0.56529 0.35814 0.30347 0.0
N323 N 0.81127 0.36061 0.35368 0.0
C324 C 0.63196 0.37026 0.31271 0.0
C325 C 0.75747 0.36974 0.33821 0.0
N326 N 0.62871 0.42098 0.37302 0.0
N327 N 0.77697 0.34552 0.26974 0.0
H328 H 0.82643 0.36919 0.38383 0.0
H329 H 0.83657 0.34014 0.33802 0.0
H330 H 0.76207 0.33471 0.2398 0.0
H331 H 0.82651 0.34975 0.27598 0.0
H332 H 0.58721 0.4285 0.36257 0.0
H333 H 0.64824 0.44053 0.40037 0.0
H334 H 0.53054 0.36147 0.3243 0.0
H335 H 0.54311 0.33904 0.27636 0.0
C336 C 0.28184 0.70014 0.72663 0.0
C337 C 0.33606 0.72353 0.75479 0.0
C338 C 0.41541 0.71436 0.70462 0.0
C339 C 0.36346 0.70008 0.67494 0.0
N340 N 0.25035 0.68985 0.65594 0.0
N341 N 0.45724 0.75944 0.76885 0.0
C342 C 0.29728 0.69537 0.68548 0.0
C343 C 0.40369 0.73188 0.74358 0.0
N344 N 0.21542 0.68155 0.73928 0.0
N345 N 0.47556 0.71047 0.69555 0.0
H346 H 0.4514 0.77412 0.79725 0.0
H347 H 0.50816 0.7719 0.76023 0.0
H348 H 0.48479 0.69713 0.66731 0.0
H349 H 0.5132 0.71526 0.717 0.0
H350 H 0.17406 0.65942 0.72065 0.0
H351 H 0.20186 0.68276 0.76949 0.0
H352 H 0.20339 0.69165 0.66169 0.0
H353 H 0.26114 0.68952 0.62519 0.0
loop_
_geom_bond_atom_site_label_1
_geom_bond_atom_site_label_2
_geom_bond_distance
_geom_bond_site_symmetry_2
_ccdc_geom_bond_type
Cu0 N1 1.999 . S
Cu0 O6 1.974 . S
Cu0 N11 1.985 . S
Cu0 O20 1.959 . S
N1 Cu0 1.999 . S
N1 C3 1.263 . S
N1 C5 1.389 . S
N2 C3 1.358 . S
N2 C4 1.400 . S
C3 N1 1.263 . S
C3 N2 1.358 . S
C3 H9 0.930 . S
C4 N2 1.400 . S
C4 C5 1.351 . S
C4 H21 0.930 . S
C5 N1 1.389 . S
C5 C4 1.351 . S
C5 H10 0.930 . S
O6 Cu0 1.974 . S
O6 C16 1.282 . S
C7 O8 1.261 . S
C7 O20 1.251 . S
O8 C7 1.261 . S
H9 C3 0.930 . S
H10 C5 0.930 . S
N11 Cu0 1.985 . S
N11 C13 1.335 . S
N11 C14 1.390 . S
N12 C13 1.345 . S
N12 C15 1.336 . S
C13 N11 1.335 . S
C13 N12 1.345 . S
C13 H18 0.930 . S
C14 N11 1.390 . S
C14 C15 1.346 . S
C14 H19 0.930 . S
C15 N12 1.336 . S
C15 C14 1.346 . S
C15 H22 0.929 . S
C16 O6 1.282 . S
C16 O17 1.216 . S
O17 C16 1.216 . S
H18 C13 0.930 . S
H19 C14 0.930 . S
O20 Cu0 1.959 . S
O20 C7 1.251 . S
H21 C4 0.930 . S
H22 C15 0.929 . S
Cu23 N24 1.999 . S
Cu23 O29 1.974 . S
Cu23 N34 1.985 . S
Cu23 O43 1.959 . S
N24 Cu23 1.999 . S
N24 C26 1.263 . S
N24 C28 1.389 . S
N25 C26 1.358 . S
N25 C27 1.400 . S
C26 N24 1.263 . S
C26 N25 1.358 . S
C26 H32 0.930 . S
C27 N25 1.400 . S
C27 C28 1.351 . S
C27 H44 0.930 . S
C28 N24 1.389 . S
C28 C27 1.351 . S
C28 H33 0.930 . S
O29 Cu23 1.974 . S
O29 C39 1.282 . S
C30 O31 1.261 . S
C30 O43 1.251 . S
O31 C30 1.261 . S
H32 C26 0.930 . S
H33 C28 0.930 . S
N34 Cu23 1.985 . S
N34 C36 1.335 . S
N34 C37 1.390 . S
N35 C36 1.345 . S
N35 C38 1.336 . S
C36 N34 1.335 . S
C36 N35 1.345 . S
C36 H41 0.930 . S
C37 N34 1.390 . S
C37 C38 1.346 . S
C37 H42 0.930 . S
C38 N35 1.336 . S
C38 C37 1.346 . S
C38 H45 0.929 . S
C39 O29 1.282 . S
C39 O40 1.216 . S
O40 C39 1.216 . S
H41 C36 0.930 . S
H42 C37 0.930 . S
O43 Cu23 1.959 . S
O43 C30 1.251 . S
H44 C27 0.930 . S
H45 C38 0.929 . S
Cu46 N47 1.999 . S
Cu46 O52 1.974 . S
Cu46 N57 1.985 . S
Cu46 O66 1.959 . S
N47 Cu46 1.999 . S
N47 C49 1.263 . S
N47 C51 1.389 . S
N48 C49 1.358 . S
N48 C50 1.400 . S
C49 N47 1.263 . S
C49 N48 1.358 . S
C49 H55 0.930 . S
C50 N48 1.400 . S
C50 C51 1.351 . S
C50 H67 0.930 . S
C51 N47 1.389 . S
C51 C50 1.351 . S
C51 H56 0.930 . S
O52 Cu46 1.974 . S
O52 C62 1.282 . S
C53 O54 1.261 . S
C53 O66 1.251 . S
O54 C53 1.261 . S
H55 C49 0.930 . S
H56 C51 0.930 . S
N57 Cu46 1.985 . S
N57 C59 1.335 . S
N57 C60 1.390 . S
N58 C59 1.345 . S
N58 C61 1.336 . S
C59 N57 1.335 . S
C59 N58 1.345 . S
C59 H64 0.930 . S
C60 N57 1.390 . S
C60 C61 1.346 . S
C60 H65 0.930 . S
C61 N58 1.336 . S
C61 C60 1.346 . S
C61 H68 0.929 . S
C62 O52 1.282 . S
C62 O63 1.216 . S
O63 C62 1.216 . S
H64 C59 0.930 . S
H65 C60 0.930 . S
O66 Cu46 1.959 . S
O66 C53 1.251 . S
H67 C50 0.930 . S
H68 C61 0.929 . S
Cu69 N70 1.999 . S
Cu69 O75 1.974 . S
Cu69 N80 1.985 . S
Cu69 O89 1.959 . S
N70 Cu69 1.999 . S
N70 C72 1.263 . S
N70 C74 1.389 . S
N71 C72 1.358 . S
N71 C73 1.400 . S
C72 N70 1.263 . S
C72 N71 1.358 . S
C72 H78 0.930 . S
C73 N71 1.400 . S
C73 C74 1.351 . S
C73 H90 0.930 . S
C74 N70 1.389 . S
C74 C73 1.351 . S
C74 H79 0.930 . S
O75 Cu69 1.974 . S
O75 C85 1.282 . S
C76 O77 1.261 . S
C76 O89 1.251 . S
O77 C76 1.261 . S
H78 C72 0.930 . S
H79 C74 0.930 . S
N80 Cu69 1.985 . S
N80 C82 1.335 . S
N80 C83 1.390 . S
N81 C82 1.345 . S
N81 C84 1.336 . S
C82 N80 1.335 . S
C82 N81 1.345 . S
C82 H87 0.930 . S
C83 N80 1.390 . S
C83 C84 1.346 . S
C83 H88 0.930 . S
C84 N81 1.336 . S
C84 C83 1.346 . S
C84 H91 0.929 . S
C85 O75 1.282 . S
C85 O86 1.216 . S
O86 C85 1.216 . S
H87 C82 0.930 . S
H88 C83 0.930 . S
O89 Cu69 1.959 . S
O89 C76 1.251 . S
H90 C73 0.930 . S
H91 C84 0.929 . S
Cu92 N93 1.999 . S
Cu92 O98 1.974 . S
Cu92 N103 1.985 . S
Cu92 O112 1.959 . S
N93 Cu92 1.999 . S
N93 C95 1.263 . S
N93 C97 1.389 . S
N94 C95 1.358 . S
N94 C96 1.400 . S
C95 N93 1.263 . S
C95 N94 1.358 . S
C95 H101 0.930 . S
C96 N94 1.400 . S
C96 C97 1.351 . S
C96 H113 0.930 . S
C97 N93 1.389 . S
C97 C96 1.351 . S
C97 H102 0.930 . S
O98 Cu92 1.974 . S
O98 C108 1.282 . S
C99 O100 1.261 . S
C99 O112 1.251 . S
O100 C99 1.261 . S
H101 C95 0.930 . S
H102 C97 0.930 . S
N103 Cu92 1.985 . S
N103 C105 1.335 . S
N103 C106 1.390 . S
N104 C105 1.345 . S
N104 C107 1.336 . S
C105 N103 1.335 . S
C105 N104 1.345 . S
C105 H110 0.930 . S
C106 N103 1.390 . S
C106 C107 1.346 . S
C106 H111 0.930 . S
C107 N104 1.336 . S
C107 C106 1.346 . S
C107 H114 0.929 . S
C108 O98 1.282 . S
C108 O109 1.216 . S
O109 C108 1.216 . S
H110 C105 0.930 . S
H111 C106 0.930 . S
O112 Cu92 1.959 . S
O112 C99 1.251 . S
H113 C96 0.930 . S
H114 C107 0.929 . S
Cu115 N116 1.999 . S
Cu115 O121 1.974 . S
Cu115 N126 1.985 . S
Cu115 O135 1.959 . S
N116 Cu115 1.999 . S
N116 C118 1.263 . S
N116 C120 1.389 . S
N117 C118 1.358 . S
N117 C119 1.400 . S
C118 N116 1.263 . S
C118 N117 1.358 . S
C118 H124 0.930 . S
C119 N117 1.400 . S
C119 C120 1.351 . S
C119 H136 0.930 . S
C120 N116 1.389 . S
C120 C119 1.351 . S
C120 H125 0.930 . S
O121 Cu115 1.974 . S
O121 C131 1.282 . S
C122 O123 1.261 . S
C122 O135 1.251 . S
O123 C122 1.261 . S
H124 C118 0.930 . S
H125 C120 0.930 . S
N126 Cu115 1.985 . S
N126 C128 1.335 . S
N126 C129 1.390 . S
N127 C128 1.345 . S
N127 C130 1.336 . S
C128 N126 1.335 . S
C128 N127 1.345 . S
C128 H133 0.930 . S
C129 N126 1.390 . S
C129 C130 1.346 . S
C129 H134 0.930 . S
C130 N127 1.336 . S
C130 C129 1.346 . S
C130 H137 0.929 . S
C131 O121 1.282 . S
C131 O132 1.216 . S
O132 C131 1.216 . S
H133 C128 0.930 . S
H134 C129 0.930 . S
O135 Cu115 1.959 . S
O135 C122 1.251 . S
H136 C119 0.930 . S
H137 C130 0.929 . S
C138 C139 1.363 . S
C138 C144 1.379 1_545 S
C138 N146 1.356 . S
C139 C138 1.363 . S
C139 C145 1.363 . S
C140 C141 1.363 . S
C140 C145 1.379 1_565 S
C140 N147 1.356 . S
C141 C140 1.363 . S
C141 C144 1.363 . S
N142 C144 1.356 . S
N142 H154 0.984 . S
N142 H155 0.985 . S
N143 C145 1.356 . S
N143 H148 0.984 . S
N143 H149 0.985 . S
C144 C138 1.379 1_565 S
C144 C141 1.363 . S
C144 N142 1.356 . S
C145 C139 1.363 . S
C145 C140 1.379 1_545 S
C145 N143 1.356 . S
N146 C138 1.356 . S
N146 H152 0.984 . S
N146 H153 0.984 . S
N147 C140 1.356 . S
N147 H150 0.984 . S
N147 H151 0.985 . S
H148 N143 0.984 . S
H149 N143 0.985 . S
H150 N147 0.984 . S
H151 N147 0.985 . S
H152 N146 0.984 . S
H153 N146 0.984 . S
H154 N142 0.984 . S
H155 N142 0.985 . S
C156 C157 1.363 . S
C156 C162 1.379 . S
C156 N164 1.356 . S
C157 C156 1.363 . S
C157 C163 1.363 . S
C158 C159 1.363 . S
C158 C163 1.379 . S
C158 N165 1.356 . S
C159 C158 1.363 . S
C159 C162 1.363 . S
N160 C162 1.356 . S
N160 H172 0.984 . S
N160 H173 0.985 . S
N161 C163 1.356 . S
N161 H166 0.984 . S
N161 H167 0.985 . S
C162 C156 1.379 . S
C162 C159 1.363 . S
C162 N160 1.356 . S
C163 C157 1.363 . S
C163 C158 1.379 . S
C163 N161 1.356 . S
N164 C156 1.356 . S
N164 H170 0.984 . S
N164 H171 0.984 . S
N165 C158 1.356 . S
N165 H168 0.984 . S
N165 H169 0.985 . S
H166 N161 0.984 . S
H167 N161 0.985 . S
H168 N165 0.984 . S
H169 N165 0.985 . S
H170 N164 0.984 . S
H171 N164 0.984 . S
H172 N160 0.984 . S
H173 N160 0.985 . S
C174 C175 1.363 . S
C174 C180 1.379 1_655 S
C174 N182 1.356 . S
C175 C174 1.363 . S
C175 C181 1.363 . S
C176 C177 1.363 . S
C176 C181 1.379 1_455 S
C176 N183 1.356 . S
C177 C176 1.363 . S
C177 C180 1.363 . S
N178 C180 1.356 . S
N178 H190 0.984 . S
N178 H191 0.985 . S
N179 C181 1.356 . S
N179 H184 0.984 . S
N179 H185 0.985 . S
C180 C174 1.379 1_455 S
C180 C177 1.363 . S
C180 N178 1.356 . S
C181 C175 1.363 . S
C181 C176 1.379 1_655 S
C181 N179 1.356 . S
N182 C174 1.356 . S
N182 H188 0.984 . S
N182 H189 0.984 . S
N183 C176 1.356 . S
N183 H186 0.984 . S
N183 H187 0.985 . S
H184 N179 0.984 . S
H185 N179 0.985 . S
H186 N183 0.984 . S
H187 N183 0.985 . S
H188 N182 0.984 . S
H189 N182 0.984 . S
H190 N178 0.984 . S
H191 N178 0.985 . S
C192 C193 1.363 . S
C192 C198 1.379 1_455 S
C192 N200 1.356 . S
C193 C192 1.363 . S
C193 C199 1.363 . S
C194 C195 1.363 . S
C194 C199 1.379 1_655 S
C194 N201 1.356 . S
C195 C194 1.363 . S
C195 C198 1.363 . S
N196 C198 1.356 . S
N196 H208 0.984 . S
N196 H209 0.985 . S
N197 C199 1.356 . S
N197 H202 0.984 . S
N197 H203 0.985 . S
C198 C192 1.379 1_655 S
C198 C195 1.363 . S
C198 N196 1.356 . S
C199 C193 1.363 . S
C199 C194 1.379 1_455 S
C199 N197 1.356 . S
N200 C192 1.356 . S
N200 H206 0.984 . S
N200 H207 0.984 . S
N201 C194 1.356 . S
N201 H204 0.984 . S
N201 H205 0.985 . S
H202 N197 0.984 . S
H203 N197 0.985 . S
H204 N201 0.984 . S
H205 N201 0.985 . S
H206 N200 0.984 . S
H207 N200 0.984 . S
H208 N196 0.984 . S
H209 N196 0.985 . S
C210 C211 1.363 . S
C210 C216 1.379 1_565 S
C210 N218 1.356 . S
C211 C210 1.363 . S
C211 C217 1.363 . S
C212 C213 1.363 . S
C212 C217 1.379 1_545 S
C212 N219 1.356 . S
C213 C212 1.363 . S
C213 C216 1.363 . S
N214 C216 1.356 . S
N214 H226 0.984 . S
N214 H227 0.985 . S
N215 C217 1.356 . S
N215 H220 0.984 . S
N215 H221 0.985 . S
C216 C210 1.379 1_545 S
C216 C213 1.363 . S
C216 N214 1.356 . S
C217 C211 1.363 . S
C217 C212 1.379 1_565 S
C217 N215 1.356 . S
N218 C210 1.356 . S
N218 H224 0.984 . S
N218 H225 0.984 . S
N219 C212 1.356 . S
N219 H222 0.984 . S
N219 H223 0.985 . S
H220 N215 0.984 . S
H221 N215 0.985 . S
H222 N219 0.984 . S
H223 N219 0.985 . S
H224 N218 0.984 . S
H225 N218 0.984 . S
H226 N214 0.984 . S
H227 N214 0.985 . S
C228 C229 1.363 . S
C228 C234 1.379 . S
C228 N236 1.356 . S
C229 C228 1.363 . S
C229 C235 1.363 . S
C230 C231 1.363 . S
C230 C235 1.379 . S
C230 N237 1.356 . S
C231 C230 1.363 . S
C231 C234 1.363 . S
N232 C234 1.356 . S
N232 H244 0.984 . S
N232 H245 0.985 . S
N233 C235 1.356 . S
N233 H238 0.984 . S
N233 H239 0.985 . S
C234 C228 1.379 . S
C234 C231 1.363 . S
C234 N232 1.356 . S
C235 C229 1.363 . S
C235 C230 1.379 . S
C235 N233 1.356 . S
N236 C228 1.356 . S
N236 H242 0.984 . S
N236 H243 0.984 . S
N237 C230 1.356 . S
N237 H240 0.984 . S
N237 H241 0.985 . S
H238 N233 0.984 . S
H239 N233 0.985 . S
H240 N237 0.984 . S
H241 N237 0.985 . S
H242 N236 0.984 . S
H243 N236 0.984 . S
H244 N232 0.984 . S
H245 N232 0.985 . S
C246 C247 1.363 . S
C246 C252 1.379 1_556 S
C246 N254 1.356 . S
C247 C246 1.363 . S
C247 C253 1.363 1_556 S
C248 C249 1.363 . S
C248 C253 1.379 . S
C248 N255 1.356 . S
C249 C248 1.363 . S
C249 C252 1.363 . S
N250 C252 1.356 . S
N250 H262 1.002 . S
N250 H263 0.985 . S
N251 C253 1.356 1_556 S
N251 H256 0.984 . S
N251 H257 0.985 1_556 S
C252 C246 1.379 1_554 S
C252 C249 1.363 . S
C252 N250 1.356 . S
C253 C247 1.363 1_554 S
C253 C248 1.379 . S
C253 N251 1.356 1_554 S
N254 C246 1.356 . S
N254 H260 0.984 . S
N254 H261 0.984 . S
N255 C248 1.356 . S
N255 H258 0.984 . S
N255 H259 0.985 . S
H256 N251 0.984 . S
H257 N251 0.985 1_554 S
H258 N255 0.984 . S
H259 N255 0.985 . S
H260 N254 0.984 . S
H261 N254 0.984 . S
H262 N250 1.002 . S
H263 N250 0.985 . S
C264 C265 1.363 . S
C264 C270 1.379 . S
C264 N272 1.356 . S
C265 C264 1.363 . S
C265 C271 1.363 . S
C266 C267 1.363 . S
C266 C271 1.379 . S
C266 N273 1.356 . S
C267 C266 1.363 . S
C267 C270 1.363 . S
N268 C270 1.356 . S
N268 H280 0.984 . S
N268 H281 0.985 . S
N269 C271 1.356 . S
N269 H274 0.984 . S
N269 H275 0.985 . S
C270 C264 1.379 . S
C270 C267 1.363 . S
C270 N268 1.356 . S
C271 C265 1.363 . S
C271 C266 1.379 . S
C271 N269 1.356 . S
N272 C264 1.356 . S
N272 H278 0.984 . S
N272 H279 0.984 . S
N273 C266 1.356 . S
N273 H276 0.984 . S
N273 H277 0.985 . S
H274 N269 0.984 . S
H275 N269 0.985 . S
H276 N273 0.984 . S
H277 N273 0.985 . S
H278 N272 0.984 . S
H279 N272 0.984 . S
H280 N268 0.984 . S
H281 N268 0.985 . S
C282 C283 1.363 . S
C282 C288 1.379 . S
C282 N290 1.356 . S
C283 C282 1.363 . S
C283 C289 1.363 . S
C284 C285 1.363 . S
C284 C289 1.379 . S
C284 N291 1.356 . S
C285 C284 1.363 . S
C285 C288 1.363 . S
N286 C288 1.356 . S
N286 H298 0.984 . S
N286 H299 0.985 . S
N287 C289 1.356 . S
N287 H292 0.984 . S
N287 H293 0.985 . S
C288 C282 1.379 . S
C288 C285 1.363 . S
C288 N286 1.356 . S
C289 C283 1.363 . S
C289 C284 1.379 . S
C289 N287 1.356 . S
N290 C282 1.356 . S
N290 H296 0.984 . S
N290 H297 0.984 . S
N291 C284 1.356 . S
N291 H294 0.984 . S
N291 H295 0.985 . S
H292 N287 0.984 . S
H293 N287 0.985 . S
H294 N291 0.984 . S
H295 N291 0.985 . S
H296 N290 0.984 . S
H297 N290 0.984 . S
H298 N286 0.984 . S
H299 N286 0.985 . S
C300 C301 1.363 . S
C300 C306 1.379 1_556 S
C300 N308 1.356 . S
C301 C300 1.363 . S
C301 C307 1.363 . S
C302 C303 1.363 . S
C302 C307 1.379 1_554 S
C302 N309 1.356 . S
C303 C302 1.363 . S
C303 C306 1.363 . S
N304 C306 1.356 . S
N304 H316 0.984 . S
N304 H317 0.985 . S
N305 C307 1.356 . S
N305 H310 0.984 . S
N305 H311 0.985 . S
C306 C300 1.379 1_554 S
C306 C303 1.363 . S
C306 N304 1.356 . S
C307 C301 1.363 . S
C307 C302 1.379 1_556 S
C307 N305 1.356 . S
N308 C300 1.356 . S
N308 H314 0.984 . S
N308 H315 0.984 . S
N309 C302 1.356 . S
N309 H312 0.984 . S
N309 H313 0.985 . S
H310 N305 0.984 . S
H311 N305 0.985 . S
H312 N309 0.984 . S
H313 N309 0.985 . S
H314 N308 0.984 . S
H315 N308 0.984 . S
H316 N304 0.984 . S
H317 N304 0.985 . S
C318 C319 1.363 . S
C318 C324 1.379 . S
C318 N326 1.356 . S
C319 C318 1.363 . S
C319 C325 1.363 . S
C320 C321 1.363 . S
C320 C325 1.379 . S
C320 N327 1.356 . S
C321 C320 1.363 . S
C321 C324 1.363 . S
N322 C324 1.356 . S
N322 H334 0.984 . S
N322 H335 0.985 . S
N323 C325 1.356 . S
N323 H328 0.984 . S
N323 H329 0.985 . S
C324 C318 1.379 . S
C324 C321 1.363 . S
C324 N322 1.356 . S
C325 C319 1.363 . S
C325 C320 1.379 . S
C325 N323 1.356 . S
N326 C318 1.356 . S
N326 H332 0.984 . S
N326 H333 0.984 . S
N327 C320 1.356 . S
N327 H330 0.984 . S
N327 H331 0.985 . S
H328 N323 0.984 . S
H329 N323 0.985 . S
H330 N327 0.984 . S
H331 N327 0.985 . S
H332 N326 0.984 . S
H333 N326 0.984 . S
H334 N322 0.984 . S
H335 N322 0.985 . S
C336 C337 1.363 . S
C336 C342 1.379 . S
C336 N344 1.356 . S
C337 C336 1.363 . S
C337 C343 1.363 . S
C338 C339 1.363 . S
C338 C343 1.379 . S
C338 N345 1.356 . S
C339 C338 1.363 . S
C339 C342 1.363 . S
N340 C342 1.356 . S
N340 H352 0.984 . S
N340 H353 0.985 . S
N341 C343 1.356 . S
N341 H346 0.984 . S
N341 H347 0.985 . S
C342 C336 1.379 . S
C342 C339 1.363 . S
C342 N340 1.356 . S
C343 C337 1.363 . S
C343 C338 1.379 . S
C343 N341 1.356 . S
N344 C336 1.356 . S
N344 H350 0.984 . S
N344 H351 0.984 . S
N345 C338 1.356 . S
N345 H348 0.984 . S
N345 H349 0.985 . S
H346 N341 0.984 . S
H347 N341 0.985 . S
H348 N345 0.984 . S
H349 N345 0.985 . S
H350 N344 0.984 . S
H351 N344 0.984 . S
H352 N340 0.984 . S
H353 N340 0.985 . S
C139 N12 1.464 . S
C141 N81 1.464 . S
C157 C39 1.715 . S
C159 C108 1.715 . S
C175 N58 1.345 . S
C177 N127 1.345 . S
C193 C30 1.812 . S
C195 C99 1.812 . S
C211 N117 1.475 . S
C213 N48 1.475 . S
C229 N71 1.363 . S
C231 N2 1.363 . S
C247 C62 1.793 . S
C249 C7 1.853 . S
C265 C85 1.866 . S
C267 N25 1.762 . S
C283 C53 1.923 . S
C285 N104 1.904 . S
C301 C131 1.793 . S
C303 C76 1.853 . S
C319 N94 1.762 . S
C321 C16 1.866 . S
C337 C122 1.923 . S
C339 N35 1.904 . S
