# Generated by pormake.
# Topology qtz-e, (6)-cn, num edge types: 1
# Building blocks:
#     Node 0, Type 0, BuildingBlock: KUMBOL_clean_sbu_0, # of connection points: 6
#     Node 1, Type 0, BuildingBlock: KUMBOL_clean_sbu_0, # of connection points: 6
#     Node 2, Type 0, BuildingBlock: KUMBOL_clean_sbu_0, # of connection points: 6
#     Node 3, Type 0, BuildingBlock: KUMBOL_clean_sbu_0, # of connection points: 6
#     Node 4, Type 0, BuildingBlock: KUMBOL_clean_sbu_0, # of connection points: 6
#     Node 5, Type 0, BuildingBlock: KUMBOL_clean_sbu_0, # of connection points: 6
#     Edge 6, Type (0, 0), BuildingBlock: TEMPAE_clean_linker_10, # of connection points: 2
#     Edge 7, Type (0, 0), BuildingBlock: TEMPAE_clean_linker_10, # of connection points: 2
#     Edge 8, Type (0, 0), BuildingBlock: TEMPAE_clean_linker_10, # of connection points: 2
#     Edge 9, Type (0, 0), BuildingBlock: TEMPAE_clean_linker_10, # of connection points: 2
#     Edge 10, Type (0, 0), BuildingBlock: TEMPAE_clean_linker_10, # of connection points: 2
#     Edge 11, Type (0, 0), BuildingBlock: TEMPAE_clean_linker_10, # of connection points: 2
#     Edge 12, Type (0, 0), BuildingBlock: TEMPAE_clean_linker_10, # of connection points: 2
#     Edge 13, Type (0, 0), BuildingBlock: TEMPAE_clean_linker_10, # of connection points: 2
#     Edge 14, Type (0, 0), BuildingBlock: TEMPAE_clean_linker_10, # of connection points: 2
#     Edge 15, Type (0, 0), BuildingBlock: TEMPAE_clean_linker_10, # of connection points: 2
#     Edge 16, Type (0, 0), BuildingBlock: TEMPAE_clean_linker_10, # of connection points: 2
#     Edge 17, Type (0, 0), BuildingBlock: TEMPAE_clean_linker_10, # of connection points: 2
#     Edge 18, Type (0, 0), BuildingBlock: TEMPAE_clean_linker_10, # of connection points: 2
#     Edge 19, Type (0, 0), BuildingBlock: TEMPAE_clean_linker_10, # of connection points: 2
#     Edge 20, Type (0, 0), BuildingBlock: TEMPAE_clean_linker_10, # of connection points: 2
#     Edge 21, Type (0, 0), BuildingBlock: TEMPAE_clean_linker_10, # of connection points: 2
#     Edge 22, Type (0, 0), BuildingBlock: TEMPAE_clean_linker_10, # of connection points: 2
#     Edge 23, Type (0, 0), BuildingBlock: TEMPAE_clean_linker_10, # of connection points: 2
# Relax obj value: 0.058
# Max RMSD: 0.144
# Mean RMSD: 0.144
data_MOF--net-qtz-e--node1-KUMBOL_clean_sbu_0--edge1-TEMPAE_clean_linker_10
_symmetry_space_group_name_H-M    P1
_symmetry_Int_Tables_number       1
_symmetry_cell_setting            triclinic
loop_
_symmetry_equiv_pos_as_xyz
'x, y, z'
_cell_length_a     29.904405
_cell_length_b     29.939527
_cell_length_c     47.229487
_cell_angle_alpha  90.111792
_cell_angle_beta   89.687577
_cell_angle_gamma 120.15348
loop_
_atom_site_label
_atom_site_type_symbol
_atom_site_fract_x
_atom_site_fract_y
_atom_site_fract_z
_atom_type_partial_charge
Gd0 Gd 0.20154 0.37204 0.99905 0.0
Gd1 Gd 0.24658 0.48963 0.04313 0.0
C2 C 0.35107 0.65887 0.01804 0.0
C3 C 0.4299 0.68185 0.04372 0.0
C4 C 0.35536 0.59521 0.04761 0.0
C5 C 0.32832 0.60815 0.02888 0.0
C6 C 0.40644 0.63194 0.05531 0.0
C7 C 0.40215 0.69539 0.02528 0.0
C8 C 0.32157 0.67168 1.00062 0.0
C9 C 0.27086 0.63434 0.99422 0.0
N10 N 0.27933 0.57166 0.02186 0.0
C11 C 0.25013 0.58446 1.00519 0.0
H12 H 0.21069 0.55667 1.0001 0.0
C13 C 0.35577 0.53326 0.07844 0.0
N14 N 0.33154 0.54674 0.05854 0.0
C15 C 0.40664 0.56811 0.08641 0.0
C16 C 0.43225 0.61757 0.07465 0.0
H17 H 0.33653 0.49503 0.08755 0.0
H18 H 0.42038 0.73433 0.01689 0.0
H19 H 0.26332 0.33319 0.04314 0.0
H20 H 0.33729 0.71049 0.99241 0.0
H21 H 0.24752 0.64398 0.98094 0.0
H22 H 0.46919 0.71049 0.04926 0.0
H23 H 0.09635 0.33052 0.95832 0.0
H24 H 0.14977 0.19669 0.08581 0.0
H25 H 0.24113 0.26432 0.07832 0.0
H26 H 0.99214 0.1565 0.03894 0.0
H27 H 0.42607 0.5568 0.10162 0.0
H28 H 0.47163 0.64454 0.08091 0.0
H29 H 0.05671 0.15728 0.07135 0.0
H30 H 1.00471 0.26032 0.95855 0.0
N31 N 0.1853 0.30508 0.03084 0.0
C32 C 0.15933 0.22665 0.07018 0.0
C33 C 0.21096 0.26467 0.06595 0.0
C34 C 0.1208 0.22699 0.05365 0.0
C35 C 0.13528 0.26707 0.03374 0.0
C36 C 0.2234 0.30358 0.04589 0.0
N37 N 0.11477 0.30509 0.99621 0.0
C38 C 0.09884 0.2671 0.01587 0.0
C39 C 0.03063 0.26206 0.97497 0.0
C40 C 0.01262 0.22483 0.9964 0.0
C41 C 0.08238 0.30159 0.97487 0.0
C42 C 0.04708 0.22639 0.01687 0.0
H43 H 0.97255 0.19414 0.9964 0.0
O44 O 0.20232 0.35954 0.95376 0.0
O45 O 0.24491 0.45665 1.00106 0.0
O46 O 0.17544 0.47341 0.01899 0.0
O47 O 0.13359 0.38664 1.00489 0.0
O48 O 0.20443 0.4249 0.96399 0.0
O49 O 0.23695 0.32892 0.98172 0.0
O50 O 0.23787 0.5023 0.08767 0.0
O51 O 0.19891 0.4037 0.04166 0.0
O52 O 0.28822 0.40687 0.01164 0.0
O53 O 0.31735 0.49166 0.02652 0.0
O54 O 0.24583 0.43502 0.07609 0.0
O55 O 0.19196 0.51313 0.05581 0.0
C56 C 0.23542 0.46738 0.97687 0.0
C57 C 0.0319 0.18768 0.03754 0.0
C58 C 0.06869 0.18806 0.05596 0.0
C59 C 0.22562 0.3328 0.95551 0.0
C60 C 0.20452 0.28612 0.93717 0.0
C61 C 0.15361 0.24628 0.9413 0.0
C62 C 0.23333 0.28322 0.91389 0.0
C63 C 0.2105 0.24167 0.89399 0.0
C64 C 0.13036 0.20614 0.92189 0.0
C65 C 0.15773 0.20441 0.89831 0.0
C66 C 0.13455 0.43089 0.0099 0.0
C67 C 0.20982 0.39264 0.06549 0.0
C68 C 0.20629 0.51931 0.08223 0.0
C69 C 0.21861 0.5687 0.09534 0.0
C70 C 0.22985 0.61215 0.07879 0.0
C71 C 0.21894 0.5724 0.12492 0.0
C72 C 0.23029 0.61905 0.13793 0.0
C73 C 0.24186 0.65875 0.09163 0.0
C74 C 0.24215 0.66233 0.12104 0.0
C75 C 0.32611 0.45462 0.01816 0.0
H76 H 0.13119 0.24683 0.95915 0.0
H77 H 0.27311 0.31363 0.91152 0.0
H78 H 0.0903 0.17651 0.92484 0.0
H79 H 0.13624 0.17364 0.88342 0.0
H80 H 0.22914 0.6103 0.05599 0.0
H81 H 0.20954 0.53876 0.13775 0.0
H82 H 0.2508 0.69212 0.07876 0.0
H83 H 0.2519 0.69902 0.1306 0.0
Gd84 Gd 0.83342 0.1901 0.33532 0.0
Gd85 Gd 0.75535 0.23699 0.37205 0.0
C86 C 0.70345 0.34589 0.33753 0.0
C87 C 0.75725 0.42462 0.364 0.0
C88 C 0.76386 0.34798 0.37221 0.0
C89 C 0.727 0.3216 0.35164 0.0
C90 C 0.77938 0.39977 0.37864 0.0
C91 C 0.71921 0.39767 0.34358 0.0
C92 C 0.66419 0.3172 0.31809 0.0
C93 C 0.64893 0.26549 0.31332 0.0
N94 N 0.71324 0.27185 0.34591 0.0
C95 C 0.67358 0.24316 0.3277 0.0
H96 H 0.66091 0.20302 0.32394 0.0
C97 C 0.81977 0.34685 0.40713 0.0
N98 N 0.78488 0.32301 0.38582 0.0
C99 C 0.83663 0.39831 0.41407 0.0
C100 C 0.81661 0.42502 0.39965 0.0
H101 H 0.83585 0.32672 0.41823 0.0
H102 H 0.7019 0.41709 0.33274 0.0
H103 H 0.92309 0.25792 0.38515 0.0
H104 H 0.64483 0.33434 0.30705 0.0
H105 H 0.61808 0.24272 0.29862 0.0
H106 H 0.76888 0.46449 0.36853 0.0
H107 H 0.77489 0.08189 0.2974 0.0
H108 H 0.96116 0.15569 0.42761 0.0
H109 H 0.97192 0.24262 0.42169 0.0
H110 H 0.86324 0.99596 0.37769 0.0
H111 H 0.86515 0.4174 0.43049 0.0
H112 H 0.82981 0.46492 0.40505 0.0
H113 H 0.92049 0.06376 0.41102 0.0
H114 H 0.7631 0.99394 0.29805 0.0
N115 N 0.88423 0.18026 0.37015 0.0
C116 C 0.93971 0.16222 0.41131 0.0
C117 C 0.94593 0.21133 0.40801 0.0
C118 C 0.90639 0.12228 0.3933 0.0
C119 C 0.879 0.13271 0.3726 0.0
C120 C 0.9182 0.21988 0.38704 0.0
N121 N 0.82112 0.10615 0.33448 0.0
C122 C 0.84635 0.09444 0.35418 0.0
C123 C 0.78631 0.02169 0.31411 0.0
C124 C 0.80984 0.00813 0.33522 0.0
C125 C 0.79302 0.0714 0.31381 0.0
C126 C 0.84089 0.04487 0.35539 0.0
H127 H 0.80468 0.96962 0.3354 0.0
O128 O 0.84954 0.18281 0.29108 0.0
O129 O 0.79162 0.23277 0.33205 0.0
O130 O 0.70317 0.16366 0.34851 0.0
O131 O 0.75028 0.12142 0.34048 0.0
O132 O 0.78481 0.18598 0.29797 0.0
O133 O 0.91194 0.23455 0.31837 0.0
O134 O 0.72496 0.23125 0.4146 0.0
O135 O 0.79222 0.18836 0.3753 0.0
O136 O 0.88377 0.27716 0.34712 0.0
O137 O 0.82614 0.30678 0.35578 0.0
O138 O 0.80053 0.23397 0.40944 0.0
O139 O 0.67373 0.18692 0.38011 0.0
C140 C 0.77284 0.21894 0.30765 0.0
C141 C 0.86728 0.03393 0.37626 0.0
C142 C 0.89992 0.07255 0.39521 0.0
C143 C 0.8989 0.21549 0.29286 0.0
C144 C 0.93358 0.20138 0.27771 0.0
C145 C 0.94405 0.1646 0.28928 0.0
C146 C 0.95509 0.22355 0.25098 0.0
C147 C 0.9866 0.20863 0.23582 0.0
C148 C 0.97532 0.15 0.27464 0.0
C149 C 0.99637 0.17165 0.24826 0.0
C150 C 0.70604 0.1221 0.34236 0.0
C151 C 0.80907 0.19841 0.40034 0.0
C152 C 0.67716 0.20292 0.40615 0.0
C153 C 0.64103 0.22046 0.41467 0.0
C154 C 0.60868 0.22524 0.39484 0.0
C155 C 0.63831 0.23198 0.44318 0.0
C156 C 0.60341 0.24764 0.45188 0.0
C157 C 0.57487 0.24205 0.40335 0.0
C158 C 0.57201 0.25304 0.43176 0.0
C159 C 0.87321 0.31528 0.35061 0.0
H160 H 0.92792 0.14709 0.30962 0.0
H161 H 0.94656 0.25161 0.24186 0.0
H162 H 0.98337 0.12169 0.28382 0.0
H163 H 0.02106 0.15987 0.23776 0.0
H164 H 0.60892 0.21558 0.37283 0.0
H165 H 0.66215 0.22719 0.45872 0.0
H166 H 0.55027 0.24581 0.38796 0.0
H167 H 0.54489 0.26519 0.43813 0.0
Gd168 Gd 0.63465 0.81304 0.66469 0.0
Gd169 Gd 0.52665 0.77098 0.7142 0.0
C170 C 0.37312 0.74191 0.67695 0.0
C171 C 0.36737 0.81481 0.69475 0.0
C172 C 0.44265 0.80671 0.70561 0.0
C173 C 0.42205 0.76145 0.68986 0.0
C174 C 0.41373 0.83191 0.70949 0.0
C175 C 0.3471 0.76987 0.67851 0.0
C176 C 0.35032 0.69346 0.66405 0.0
C177 C 0.37572 0.66535 0.66427 0.0
N178 N 0.4472 0.73406 0.68933 0.0
C179 C 0.42377 0.68582 0.67736 0.0
H180 H 0.44137 0.6623 0.67731 0.0
C181 C 0.4984 0.85514 0.74291 0.0
N182 N 0.48612 0.82091 0.72091 0.0
C183 C 0.47112 0.88104 0.74739 0.0
C184 C 0.42938 0.87031 0.73015 0.0
H185 H 0.53022 0.86346 0.75684 0.0
H186 H 0.31002 0.75576 0.66831 0.0
H187 H 0.68351 0.91177 0.71037 0.0
H188 H 0.31215 0.67646 0.65487 0.0
H189 H 0.35796 0.62741 0.65468 0.0
H190 H 0.34533 0.83433 0.6971 0.0
H191 H 0.65465 0.73087 0.62637 0.0
H192 H 0.82197 0.92654 0.74553 0.0
H193 H 0.75767 0.95534 0.7429 0.0
H194 H 0.84174 0.79766 0.69577 0.0
H195 H 0.48204 0.9089 0.76436 0.0
H196 H 0.40738 0.88933 0.73433 0.0
H197 H 0.85311 0.86757 0.72776 0.0
H198 H 0.7171 0.69957 0.6241 0.0
N199 N 0.70483 0.85808 0.69542 0.0
C200 C 0.7895 0.90733 0.73123 0.0
C201 C 0.75326 0.92367 0.72983 0.0
C202 C 0.78379 0.86687 0.71387 0.0
C203 C 0.74055 0.84285 0.69584 0.0
C204 C 0.71123 0.89886 0.71144 0.0
N205 N 0.6917 0.78093 0.66116 0.0
C206 C 0.73371 0.80297 0.67821 0.0
C207 C 0.72198 0.72831 0.63961 0.0
C208 C 0.7638 0.74836 0.65821 0.0
C209 C 0.6866 0.74584 0.64105 0.0
C210 C 0.77055 0.78675 0.67754 0.0
H211 H 0.79125 0.73484 0.65703 0.0
O212 O 0.64679 0.82132 0.61916 0.0
O213 O 0.55229 0.79033 0.66937 0.0
O214 O 0.52295 0.70033 0.69517 0.0
O215 O 0.6011 0.72542 0.67125 0.0
O216 O 0.57191 0.758 0.63569 0.0
O217 O 0.6864 0.88869 0.64544 0.0
O218 O 0.52661 0.77872 0.76002 0.0
O219 O 0.61325 0.8051 0.71094 0.0
O220 O 0.60803 0.87205 0.66778 0.0
O221 O 0.57408 0.85857 0.71279 0.0
O222 O 0.5716 0.74007 0.73598 0.0
O223 O 0.46717 0.70922 0.73924 0.0
C224 C 0.53499 0.76189 0.64767 0.0
C225 C 0.81327 0.80993 0.69577 0.0
C226 C 0.8198 0.84981 0.71395 0.0
C227 C 0.6782 0.87097 0.61963 0.0
C228 C 0.72233 0.8916 0.5994 0.0
C229 C 0.75648 0.87254 0.59976 0.0
C230 C 0.72766 0.92715 0.57793 0.0
C231 C 0.76601 0.9424 0.55629 0.0
C232 C 0.79396 0.88677 0.57868 0.0
C233 C 0.79818 0.9204 0.55701 0.0
C234 C 0.5554 0.68946 0.68178 0.0
C235 C 0.61711 0.77345 0.72743 0.0
C236 C 0.48317 0.73506 0.7629 0.0
C237 C 0.4432 0.73575 0.78082 0.0
C238 C 0.40335 0.74161 0.7692 0.0
C239 C 0.4428 0.72666 0.80985 0.0
C240 C 0.4028 0.72325 0.82711 0.0
C241 C 0.36598 0.74245 0.78657 0.0
C242 C 0.36561 0.73333 0.81549 0.0
C243 C 0.58981 0.8863 0.68936 0.0
H244 H 0.75337 0.84561 0.61595 0.0
H245 H 0.70161 0.94236 0.57822 0.0
H246 H 0.81938 0.87079 0.57878 0.0
H247 H 0.82642 0.92809 0.54056 0.0
H248 H 0.39988 0.74383 0.74675 0.0
H249 H 0.47177 0.71914 0.81872 0.0
H250 H 0.33577 0.74758 0.77738 0.0
H251 H 0.33407 0.73033 0.82833 0.0
Gd252 Gd 0.83305 0.63267 0.9977 0.0
Gd253 Gd 0.76383 0.51312 0.04068 0.0
C254 C 0.62813 0.37121 1.00013 0.0
C255 C 0.55475 0.36322 0.02682 0.0
C256 C 0.64198 0.43113 0.03807 0.0
C257 C 0.66151 0.41505 0.01628 0.0
C258 C 0.5886 0.4045 0.04419 0.0
C259 C 0.57448 0.34669 1.00475 0.0
C260 C 0.64986 0.35148 0.98108 0.0
C261 C 0.70349 0.3733 0.97997 0.0
N262 N 0.71364 0.43864 0.0131 0.0
C263 C 0.7349 0.41634 0.99675 0.0
H264 H 0.77629 0.43294 0.99571 0.0
C265 C 0.65967 0.4824 0.07922 0.0
N266 N 0.67597 0.47078 0.0546 0.0
C267 C 0.60702 0.45723 0.08613 0.0
C268 C 0.57122 0.41872 0.06829 0.0
H269 H 0.68721 0.51242 0.09296 0.0
H270 H 0.54816 0.31343 0.99226 0.0
H271 H 0.77408 0.67565 0.04217 0.0
H272 H 0.6256 0.31798 0.96819 0.0
H273 H 0.72072 0.35716 0.96613 0.0
H274 H 0.5135 0.34256 0.03097 0.0
H275 H 0.94141 0.6602 0.96309 0.0
H276 H 0.88979 0.81523 0.08055 0.0
H277 H 0.79798 0.74804 0.07482 0.0
H278 H 0.04697 0.8441 0.03669 0.0
H279 H 0.59408 0.4676 0.10517 0.0
H280 H 0.53052 0.39909 0.07381 0.0
H281 H 0.98242 0.85103 0.06595 0.0
H282 H 0.03464 0.7256 0.96436 0.0
N283 N 0.85158 0.70091 0.02923 0.0
C284 C 0.87951 0.78353 0.06601 0.0
C285 C 0.82766 0.74575 0.06278 0.0
C286 C 0.91742 0.78027 0.05017 0.0
C287 C 0.90204 0.738 0.03169 0.0
C288 C 0.81424 0.70473 0.04404 0.0
N289 N 0.92189 0.69361 0.99728 0.0
C290 C 0.93832 0.73409 0.01528 0.0
C291 C 0.00806 0.72824 0.97897 0.0
C292 C 0.02606 0.76879 0.99839 0.0
C293 C 0.95541 0.69126 0.97837 0.0
C294 C 0.99098 0.7726 0.01656 0.0
H295 H 0.06683 0.79759 0.99872 0.0
O296 O 0.84259 0.64571 0.95233 0.0
O297 O 0.77491 0.54949 0.99824 0.0
O298 O 0.83427 0.51755 0.01982 0.0
O299 O 0.88997 0.60375 1.00624 0.0
O300 O 0.82911 0.57645 0.9653 0.0
O301 O 0.80668 0.68051 0.97654 0.0
O302 O 0.77321 0.49919 0.08475 0.0
O303 O 0.82618 0.59564 0.03958 0.0
O304 O 0.74831 0.6121 1.00549 0.0
O305 O 0.7051 0.5356 0.03185 0.0
O306 O 0.78121 0.5714 0.07554 0.0
O307 O 0.78348 0.45475 0.0517 0.0
C308 C 0.78835 0.53691 0.97556 0.0
C309 C 0.00667 0.81424 0.03531 0.0
C310 C 0.96992 0.81817 0.05199 0.0
C311 C 0.82091 0.67406 0.9514 0.0
C312 C 0.84407 0.71834 0.93136 0.0
C313 C 0.89722 0.75331 0.93207 0.0
C314 C 0.81393 0.72254 0.90949 0.0
C315 C 0.83711 0.76024 0.88753 0.0
C316 C 0.92061 0.79015 0.91082 0.0
C317 C 0.89146 0.79295 0.88862 0.0
C318 C 0.87996 0.55575 0.01144 0.0
C319 C 0.8207 0.61002 0.06387 0.0
C320 C 0.77719 0.45887 0.07872 0.0
C321 C 0.74031 0.41134 0.09362 0.0
C322 C 0.69649 0.37221 0.07987 0.0
C323 C 0.74685 0.4067 0.12254 0.0
C324 C 0.70948 0.36385 0.13777 0.0
C325 C 0.65871 0.33014 0.09508 0.0
C326 C 0.66493 0.32602 0.12401 0.0
C327 C 0.70652 0.5746 0.01841 0.0
H328 H 0.92097 0.75113 0.94859 0.0
H329 H 0.77275 0.69578 0.90976 0.0
H330 H 0.96206 0.81606 0.91116 0.0
H331 H 0.91275 0.82057 0.87214 0.0
H332 H 0.69121 0.37405 0.05745 0.0
H333 H 0.78091 0.43641 0.13323 0.0
H334 H 0.62485 0.30042 0.08436 0.0
H335 H 0.63598 0.29242 0.13542 0.0
Gd336 Gd 0.20157 0.82025 0.32688 0.0
Gd337 Gd 0.2449 0.76556 0.38168 0.0
C338 C 0.26765 0.6334 0.35159 0.0
C339 C 0.19653 0.5597 0.37519 0.0
C340 C 0.21202 0.64642 0.38383 0.0
C341 C 0.25289 0.66642 0.36477 0.0
C342 C 0.18493 0.59319 0.39019 0.0
C343 C 0.23783 0.57979 0.35587 0.0
C344 C 0.31341 0.65541 0.33569 0.0
C345 C 0.34481 0.70903 0.33484 0.0
N346 N 0.28119 0.71853 0.36128 0.0
C347 C 0.32863 0.74016 0.34836 0.0
H348 H 0.35393 0.78128 0.3475 0.0
C349 C 0.17097 0.66379 0.42172 0.0
N350 N 0.2022 0.6798 0.39822 0.0
C351 C 0.14312 0.61135 0.42883 0.0
C352 C 0.14903 0.57568 0.41249 0.0
H353 H 0.16584 0.69132 0.43411 0.0
H354 H 0.24794 0.5538 0.34542 0.0
H355 H 0.07856 0.7462 0.35162 0.0
H356 H 0.32606 0.63143 0.32519 0.0
H357 H 0.38144 0.72649 0.32365 0.0
H358 H 0.17548 0.51855 0.37936 0.0
H359 H 0.28537 0.93985 0.3023 0.0
H360 H 0.03681 0.84361 0.39656 0.0
H361 H 0.01676 0.75661 0.381 0.0
H362 H 0.17706 0.01386 0.37696 0.0
H363 H 0.11682 0.59844 0.44673 0.0
H364 H 0.12742 0.53508 0.41804 0.0
H365 H 0.09738 0.93948 0.39544 0.0
H366 H 0.30799 0.02973 0.31187 0.0
N367 N 0.13525 0.82634 0.35118 0.0
C368 C 0.06446 0.83929 0.38365 0.0
C369 C 0.05309 0.79015 0.37497 0.0
C370 C 0.11078 0.88238 0.37491 0.0
C371 C 0.1455 0.87458 0.35816 0.0
C372 C 0.08879 0.78439 0.35842 0.0
N373 N 0.22216 0.9072 0.33147 0.0
C374 C 0.19055 0.91629 0.34814 0.0
C375 C 0.27521 0.99823 0.32253 0.0
C376 C 0.24541 0.00834 0.34146 0.0
C377 C 0.26241 0.94717 0.31735 0.0
C378 C 0.20181 0.96712 0.35407 0.0
H379 H 0.25538 0.04793 0.34546 0.0
O380 O 0.20587 0.84755 0.28362 0.0
O381 O 0.22861 0.76514 0.33566 0.0
O382 O 0.31598 0.8295 0.36045 0.0
O383 O 0.28832 0.87711 0.33382 0.0
O384 O 0.25958 0.81228 0.30034 0.0
O385 O 0.13693 0.77929 0.29801 0.0
O386 O 0.29083 0.8273 0.41139 0.0
O387 O 0.222 0.82428 0.37261 0.0
O388 O 0.14495 0.73252 0.33197 0.0
O389 O 0.16044 0.70947 0.37623 0.0
O390 O 0.18479 0.77443 0.40586 0.0
O391 O 0.28375 0.75268 0.41686 0.0
C392 C 0.25811 0.77461 0.3145 0.0
C393 C 0.16858 0.97512 0.37176 0.0
C394 C 0.12317 0.93279 0.38221 0.0
C395 C 0.15922 0.81132 0.27709 0.0
C396 C 0.12656 0.82666 0.26113 0.0
C397 C 0.11997 0.86715 0.27098 0.0
C398 C 0.10116 0.80025 0.23604 0.0
C399 C 0.06977 0.81473 0.2207 0.0
C400 C 0.08896 0.88148 0.25612 0.0
C401 C 0.06412 0.85567 0.2313 0.0
C402 C 0.32507 0.87099 0.34593 0.0
C403 C 0.19217 0.81614 0.39354 0.0
C404 C 0.29863 0.79754 0.42807 0.0
C405 C 0.28545 0.79718 0.45812 0.0
C406 C 0.24363 0.80293 0.46666 0.0
C407 C 0.31381 0.78859 0.47855 0.0
C408 C 0.30087 0.78616 0.50736 0.0
C409 C 0.23012 0.79994 0.49514 0.0
C410 C 0.25876 0.79188 0.51552 0.0
C411 C 0.13266 0.69888 0.35312 0.0
H412 H 0.1387 0.88757 0.29023 0.0
H413 H 0.1063 0.76896 0.22839 0.0
H414 H 0.0839 0.91267 0.26397 0.0
H415 H 0.03961 0.86732 0.22066 0.0
H416 H 0.22133 0.8097 0.45151 0.0
H417 H 0.34546 0.783 0.47195 0.0
H418 H 0.19776 0.80447 0.50143 0.0
H419 H 0.24839 0.79078 0.53762 0.0
Gd420 Gd 0.3802 0.18513 0.66447 0.0
Gd421 Gd 0.50525 0.25535 0.70147 0.0
C422 C 0.66236 0.30269 0.66183 0.0
C423 C 0.68604 0.24575 0.68573 0.0
C424 C 0.60533 0.24277 0.69749 0.0
C425 C 0.61585 0.28066 0.67754 0.0
C426 C 0.64038 0.22501 0.7019 0.0
C427 C 0.69702 0.28452 0.66575 0.0
C428 C 0.67311 0.34302 0.64307 0.0
C429 C 0.63878 0.36162 0.64111 0.0
N430 N 0.5814 0.29714 0.67413 0.0
C431 C 0.59331 0.33872 0.65728 0.0
H432 H 0.56719 0.3536 0.6557 0.0
C433 C 0.54911 0.18655 0.73296 0.0
N434 N 0.5603 0.22276 0.71236 0.0
C435 C 0.58271 0.16776 0.73808 0.0
C436 C 0.6284 0.18683 0.72238 0.0
H437 H 0.51369 0.17112 0.74503 0.0
H438 H 0.73274 0.30068 0.6537 0.0
H439 H 0.35172 0.08936 0.71132 0.0
H440 H 0.70831 0.36083 0.63052 0.0
H441 H 0.64725 0.39355 0.62713 0.0
H442 H 0.71328 0.23233 0.68867 0.0
H443 H 0.33527 0.24912 0.62802 0.0
H444 H 0.21275 0.05543 0.75513 0.0
H445 H 0.28583 0.04005 0.74754 0.0
H446 H 0.15939 0.16305 0.70859 0.0
H447 H 0.57324 0.13842 0.75405 0.0
H448 H 0.65419 0.17197 0.72629 0.0
H449 H 0.16599 0.10179 0.74058 0.0
H450 H 0.26161 0.26498 0.62969 0.0
N451 N 0.317 0.13306 0.69834 0.0
C452 C 0.24149 0.07708 0.739 0.0
C453 C 0.28264 0.06826 0.73476 0.0
C454 C 0.23744 0.11311 0.72204 0.0
C455 C 0.27615 0.14058 0.70152 0.0
C456 C 0.31991 0.09628 0.71401 0.0
N457 N 0.31057 0.20064 0.66435 0.0
C458 C 0.27287 0.17555 0.68395 0.0
C459 C 0.26447 0.24 0.64522 0.0
C460 C 0.22672 0.21664 0.6663 0.0
C461 C 0.306 0.23094 0.64431 0.0
C462 C 0.23023 0.18338 0.68579 0.0
H463 H 0.19454 0.22366 0.66697 0.0
O464 O 0.3612 0.17374 0.61964 0.0
O465 O 0.46497 0.22596 0.66078 0.0
O466 O 0.48467 0.31172 0.68315 0.0
O467 O 0.39561 0.26728 0.67347 0.0
O468 O 0.42589 0.24035 0.6293 0.0
O469 O 0.34231 0.1078 0.64594 0.0
O470 O 0.52593 0.2791 0.7451 0.0
O471 O 0.41987 0.22013 0.70527 0.0
O472 O 0.4142 0.13174 0.67437 0.0
O473 O 0.50239 0.18675 0.68176 0.0
O474 O 0.4557 0.20518 0.73753 0.0
O475 O 0.54437 0.33645 0.71192 0.0
C476 C 0.47072 0.25003 0.63796 0.0
C477 C 0.19216 0.15712 0.70662 0.0
C478 C 0.19586 0.12218 0.72478 0.0
C479 C 0.34019 0.12377 0.62054 0.0
C480 C 0.29157 0.09379 0.60441 0.0
C481 C 0.24525 0.08844 0.61494 0.0
C482 C 0.29172 0.0722 0.57768 0.0
C483 C 0.24584 0.04592 0.56145 0.0
C484 C 0.19989 0.06239 0.5992 0.0
C485 C 0.20009 0.04145 0.57276 0.0
C486 C 0.44063 0.31047 0.67805 0.0
C487 C 0.41223 0.19997 0.72957 0.0
C488 C 0.55018 0.32805 0.73838 0.0
C489 C 0.60191 0.3595 0.75026 0.0
C490 C 0.64657 0.38153 0.73315 0.0
C491 C 0.60637 0.36811 0.77944 0.0
C492 C 0.65492 0.39924 0.79159 0.0
C493 C 0.69513 0.41225 0.74525 0.0
C494 C 0.69939 0.4214 0.77436 0.0
C495 C 0.46265 0.14074 0.67642 0.0
H496 H 0.24421 0.10461 0.63528 0.0
H497 H 0.3276 0.07667 0.56936 0.0
H498 H 0.16427 0.05839 0.60755 0.0
H499 H 0.16399 0.0209 0.56132 0.0
H500 H 0.64411 0.37549 0.71053 0.0
H501 H 0.5719 0.35146 0.79265 0.0
H502 H 0.72945 0.42923 0.73204 0.0
H503 H 0.73732 0.44548 0.78347 0.0
C504 C 0.22568 0.68356 0.30002 0.0
C505 C 0.26425 0.73569 0.29896 0.0
C506 C 0.22238 0.64957 0.27862 0.0
C507 C 0.2572 0.66921 0.25549 0.0
C508 C 0.30059 0.71972 0.25677 0.0
C509 C 0.30339 0.7526 0.27855 0.0
C510 C 0.17815 0.59462 0.27899 0.0
C511 C 0.33985 0.74162 0.23305 0.0
C512 C 0.2553 0.60491 0.18624 0.0
C513 C 0.22968 0.62312 0.16908 0.0
C514 C 0.26072 0.61529 0.21541 0.0
C515 C 0.24062 0.64502 0.22728 0.0
C516 C 0.21094 0.65956 0.21036 0.0
C517 C 0.20574 0.6482 0.18148 0.0
C518 C 0.29087 0.5973 0.2328 0.0
C519 C 0.18784 0.69058 0.2222 0.0
H520 H 0.19579 0.67033 0.31612 0.0
H521 H 0.33357 0.79289 0.27811 0.0
H522 H 0.19114 0.56794 0.27123 0.0
H523 H 0.16145 0.58253 0.30059 0.0
H524 H 0.14731 0.591 0.26462 0.0
H525 H 0.37483 0.77834 0.23924 0.0
H526 H 0.35185 0.7136 0.22651 0.0
H527 H 0.32225 0.74934 0.21442 0.0
H528 H 0.27338 0.58491 0.1767 0.0
H529 H 0.18453 0.66076 0.16831 0.0
H530 H 0.28083 0.59415 0.25565 0.0
H531 H 0.33281 0.6252 0.23036 0.0
H532 H 0.28387 0.5592 0.22517 0.0
H533 H 0.16317 0.67075 0.24088 0.0
H534 H 0.16398 0.69661 0.2064 0.0
H535 H 0.21918 0.72901 0.22926 0.0
C536 C 0.53794 0.2368 0.61491 0.0
C537 C 0.51333 0.26583 0.61782 0.0
C538 C 0.56752 0.24204 0.59077 0.0
C539 C 0.57157 0.27658 0.56916 0.0
C540 C 0.55249 0.3107 0.57388 0.0
C541 C 0.52272 0.3043 0.59808 0.0
C542 C 0.5884 0.20584 0.58694 0.0
C543 C 0.55772 0.34941 0.5518 0.0
C544 C 0.63915 0.28735 0.4991 0.0
C545 C 0.59679 0.2545 0.48219 0.0
C546 C 0.63219 0.29432 0.52787 0.0
C547 C 0.58186 0.26735 0.53969 0.0
C548 C 0.53938 0.23276 0.52279 0.0
C549 C 0.54741 0.22709 0.49419 0.0
C550 C 0.6782 0.3317 0.54521 0.0
C551 C 0.4851 0.20233 0.53472 0.0
H552 H 0.53051 0.20689 0.63011 0.0
H553 H 0.50397 0.32707 0.60066 0.0
H554 H 0.55991 0.17135 0.57494 0.0
H555 H 0.62521 0.2244 0.57479 0.0
H556 H 0.59489 0.19259 0.60768 0.0
H557 H 0.55081 0.37965 0.56093 0.0
H558 H 0.59672 0.36827 0.54192 0.0
H559 H 0.52892 0.32916 0.53484 0.0
H560 H 0.6774 0.30841 0.48965 0.0
H561 H 0.51497 0.20095 0.48112 0.0
H562 H 0.67674 0.31628 0.56675 0.0
H563 H 0.67768 0.36829 0.54768 0.0
H564 H 0.71529 0.34069 0.53491 0.0
H565 H 0.48453 0.17989 0.55353 0.0
H566 H 0.45709 0.17507 0.51903 0.0
H567 H 0.47173 0.22913 0.54166 0.0
C568 C 0.31672 0.54995 0.96673 0.0
C569 C 0.26384 0.51696 0.96204 0.0
C570 C 0.34545 0.59396 0.95002 0.0
C571 C 0.32108 0.60331 0.92713 0.0
C572 C 0.26716 0.57118 0.92296 0.0
C573 C 0.23921 0.5282 0.94049 0.0
C574 C 0.4024 0.62839 0.95579 0.0
C575 C 0.23972 0.5799 0.89871 0.0
C576 C 0.3793 0.719 0.87826 0.0
C577 C 0.3935 0.69914 0.85527 0.0
C578 C 0.35908 0.6898 0.90304 0.0
C579 C 0.35257 0.63966 0.90444 0.0
C580 C 0.37035 0.62112 0.88198 0.0
C581 C 0.39096 0.65133 0.85773 0.0
C582 C 0.34338 0.71194 0.92725 0.0
C583 C 0.3635 0.56752 0.88244 0.0
H584 H 0.33621 0.54066 0.98273 0.0
H585 H 0.19843 0.50214 0.93661 0.0
H586 H 0.41407 0.66962 0.95296 0.0
H587 H 0.41253 0.62284 0.97759 0.0
H588 H 0.42518 0.61933 0.94063 0.0
H589 H 0.19709 0.55422 0.89994 0.0
H590 H 0.24861 0.6206 0.89845 0.0
H591 H 0.25361 0.57253 0.87835 0.0
H592 H 0.38205 0.75639 0.87635 0.0
H593 H 0.40138 0.6357 0.83979 0.0
H594 H 0.37046 0.72019 0.94504 0.0
H595 H 0.30388 0.68388 0.93487 0.0
H596 H 0.34455 0.74841 0.92135 0.0
H597 H 0.3802 0.56164 0.90201 0.0
H598 H 0.38204 0.56027 0.86392 0.0
H599 H 0.32164 0.53827 0.88237 0.0
C600 C 0.7213 0.21769 0.267 0.0
C601 C 0.75476 0.24551 0.28904 0.0
C602 C 0.71013 0.24297 0.24578 0.0
C603 C 0.73304 0.29742 0.24681 0.0
C604 C 0.76404 0.3253 0.27012 0.0
C605 C 0.77571 0.29907 0.29064 0.0
C606 C 0.67714 0.2118 0.22112 0.0
C607 C 0.78739 0.38304 0.27258 0.0
C608 C 0.76389 0.35405 0.17353 0.0
C609 C 0.71923 0.3559 0.16726 0.0
C610 C 0.77042 0.33816 0.2002 0.0
C611 C 0.73167 0.32487 0.22116 0.0
C612 C 0.68844 0.3307 0.2156 0.0
C613 C 0.68234 0.3456 0.18843 0.0
C614 C 0.81671 0.3316 0.20512 0.0
C615 C 0.648 0.31955 0.238 0.0
H616 H 0.70571 0.17631 0.26569 0.0
H617 H 0.80253 0.32078 0.30728 0.0
H618 H 0.64589 0.2207 0.21728 0.0
H619 H 0.70129 0.22223 0.20165 0.0
H620 H 0.65927 0.16954 0.22465 0.0
H621 H 0.80023 0.39669 0.29455 0.0
H622 H 0.8215 0.4027 0.25835 0.0
H623 H 0.75922 0.39484 0.2661 0.0
H624 H 0.79219 0.36191 0.15697 0.0
H625 H 0.64823 0.34798 0.18348 0.0
H626 H 0.80359 0.29002 0.20809 0.0
H627 H 0.83723 0.35207 0.22464 0.0
H628 H 0.8446 0.34642 0.18716 0.0
H629 H 0.63165 0.27958 0.24614 0.0
H630 H 0.6159 0.32449 0.22998 0.0
H631 H 0.66628 0.34614 0.25611 0.0
C632 C 0.47746 0.7947 0.63269 0.0
C633 C 0.49263 0.75766 0.63034 0.0
C634 C 0.44063 0.79413 0.61442 0.0
C635 C 0.42092 0.75733 0.59237 0.0
C636 C 0.43567 0.71937 0.59006 0.0
C637 C 0.47139 0.71987 0.60927 0.0
C638 C 0.42407 0.83382 0.61819 0.0
C639 C 0.41564 0.6799 0.56656 0.0
C640 C 0.30647 0.74331 0.55124 0.0
C641 C 0.33135 0.7776 0.5288 0.0
C642 C 0.335 0.73536 0.57192 0.0
C643 C 0.38957 0.76238 0.56997 0.0
C644 C 0.41487 0.79631 0.54704 0.0
C645 C 0.38539 0.80378 0.52678 0.0
C646 C 0.30658 0.69965 0.59627 0.0
C647 C 0.47312 0.82537 0.54413 0.0
H648 H 0.49464 0.82434 0.64874 0.0
H649 H 0.48386 0.69167 0.60735 0.0
H650 H 0.43859 0.86136 0.6002 0.0
H651 H 0.38126 0.81478 0.61819 0.0
H652 H 0.43872 0.85582 0.63824 0.0
H653 H 0.42834 0.65102 0.56886 0.0
H654 H 0.37276 0.6593 0.56612 0.0
H655 H 0.42971 0.69972 0.54586 0.0
H656 H 0.26461 0.72259 0.55263 0.0
H657 H 0.40471 0.83081 0.5096 0.0
H658 H 0.30796 0.72331 0.6147 0.0
H659 H 0.32476 0.67671 0.60242 0.0
H660 H 0.26531 0.67267 0.59118 0.0
H661 H 0.49057 0.85284 0.56198 0.0
H662 H 0.48639 0.84743 0.52398 0.0
H663 H 0.48799 0.79809 0.54507 0.0
C664 C 0.77464 0.47721 0.9368 0.0
C665 C 0.75346 0.49674 0.9562 0.0
C666 C 0.74616 0.44873 0.9135 0.0
C667 C 0.69612 0.44149 0.9092 0.0
C668 C 0.67262 0.45658 0.93035 0.0
C669 C 0.7019 0.48441 0.95379 0.0
C670 C 0.7721 0.4319 0.89187 0.0
C671 C 0.61894 0.44851 0.92695 0.0
C672 C 0.68521 0.46054 0.83175 0.0
C673 C 0.65901 0.40954 0.82217 0.0
C674 C 0.69316 0.47138 0.86064 0.0
C675 C 0.6752 0.43 0.88022 0.0
C676 C 0.64555 0.37839 0.87079 0.0
C677 C 0.63762 0.36869 0.84167 0.0
C678 C 0.72395 0.52712 0.86998 0.0
C679 C 0.62532 0.33355 0.89117 0.0
H680 H 0.81455 0.48668 0.93908 0.0
H681 H 0.68574 0.49961 0.96903 0.0
H682 H 0.74503 0.39225 0.88427 0.0
H683 H 0.7841 0.45821 0.87332 0.0
H684 H 0.80699 0.43279 0.90057 0.0
H685 H 0.62139 0.48176 0.91522 0.0
H686 H 0.59366 0.41285 0.91483 0.0
H687 H 0.60078 0.44633 0.94789 0.0
H688 H 0.70048 0.49194 0.81653 0.0
H689 H 0.6168 0.32919 0.83407 0.0
H690 H 0.76245 0.53554 0.87764 0.0
H691 H 0.70409 0.53443 0.88776 0.0
H692 H 0.7299 0.55442 0.85252 0.0
H693 H 0.65734 0.32701 0.89732 0.0
H694 H 0.59418 0.29741 0.88156 0.0
H695 H 0.61029 0.34185 0.91082 0.0
C696 C 0.418 0.52446 0.01193 0.0
C697 C 0.38189 0.47121 0.01387 0.0
C698 C 0.47123 0.54336 0.00996 0.0
C699 C 0.4899 0.50843 0.00992 0.0
C700 C 0.45391 0.45443 0.0107 0.0
C701 C 0.40022 0.43638 0.01263 0.0
C702 C 0.50763 0.60112 0.00902 0.0
C703 C 0.47208 0.41572 0.01096 0.0
C704 C 0.63167 0.56112 0.98902 0.0
C705 C 0.65533 0.57028 0.01559 0.0
C706 C 0.57781 0.5407 0.98674 0.0
C707 C 0.54704 0.5292 0.01161 0.0
C708 C 0.57133 0.54019 0.03841 0.0
C709 C 0.625 0.56056 0.04002 0.0
C710 C 0.55352 0.5294 0.95778 0.0
C711 C 0.54037 0.52879 0.06549 0.0
H712 H 0.40492 0.55219 0.01238 0.0
H713 H 0.37293 0.3953 0.01406 0.0
H714 H 0.53117 0.61378 0.02859 0.0
H715 H 0.5347 0.61149 0.99084 0.0
H716 H 0.4868 0.623 1.00723 0.0
H717 H 0.4406 0.3764 1.00521 0.0
H718 H 0.50517 0.42726 0.99625 0.0
H719 H 0.48538 0.41404 0.03258 0.0
H720 H 0.65472 0.56686 0.97013 0.0
H721 H 0.64314 0.56669 0.06058 0.0
H722 H 0.53036 0.54868 0.95516 0.0
H723 H 0.52672 0.48723 0.95554 0.0
H724 H 0.58284 0.54238 0.94053 0.0
H725 H 0.51849 0.5497 0.0657 0.0
H726 H 0.56516 0.54 0.08461 0.0
H727 H 0.51172 0.48689 0.06676 0.0
C728 C 0.08011 0.61936 0.3235 0.0
C729 C 0.09048 0.6443 0.34984 0.0
C730 C 0.04684 0.56542 0.32133 0.0
C731 C 0.02334 0.53569 0.34605 0.0
C732 C 0.03256 0.56111 0.37251 0.0
C733 C 0.06574 0.61486 0.37403 0.0
C734 C 0.03784 0.54007 0.29267 0.0
C735 C 0.00773 0.53144 0.39937 0.0
C736 C 0.89792 0.40708 0.34167 0.0
C737 C 0.91377 0.37081 0.34689 0.0
C738 C 0.93317 0.46025 0.34054 0.0
C739 C 0.98646 0.47857 0.3443 0.0
C740 C 1.00341 0.44233 0.34828 0.0
C741 C 0.96684 0.38879 0.34957 0.0
C742 C 0.91285 0.4969 0.33637 0.0
C743 C 0.05997 0.4603 0.3522 0.0
H744 H 0.09961 0.64163 0.30475 0.0
H745 H 0.07305 0.63391 0.3944 0.0
H746 H 0.05522 0.51491 0.29215 0.0
H747 H 0.99583 0.5151 0.2887 0.0
H748 H 0.05499 0.56881 0.27526 0.0
H749 H 0.01857 0.55696 0.41823 0.0
H750 H 0.96499 0.51039 0.39734 0.0
H751 H 0.01951 0.50221 0.403 0.0
H752 H 0.85733 0.39409 0.33882 0.0
H753 H 0.97966 0.36133 0.35347 0.0
H754 H 0.8708 0.47633 0.33164 0.0
H755 H 0.93385 0.52416 0.31881 0.0
H756 H 0.91949 0.52018 0.35584 0.0
H757 H 0.08352 0.4886 0.33551 0.0
H758 H 0.06776 0.42773 0.35169 0.0
H759 H 0.07295 0.48022 0.37288 0.0
C760 C 0.44102 0.04709 0.67687 0.0
C761 C 0.4762 0.09953 0.67225 0.0
C762 C 0.45778 0.01052 0.67691 0.0
C763 C 0.51116 0.02709 0.67301 0.0
C764 C 0.54592 0.0795 0.66658 0.0
C765 C 0.52793 0.11454 0.66583 0.0
C766 C 0.41792 0.95481 0.68211 0.0
C767 C 0.60288 0.09939 0.66172 0.0
C768 C 0.57191 0.95497 0.70748 0.0
C769 C 0.57553 0.92681 0.68473 0.0
C770 C 0.55002 0.98673 0.70405 0.0
C771 C 0.53201 0.99126 0.6771 0.0
C772 C 0.53757 0.96458 0.65379 0.0
C773 C 0.55963 0.93314 0.65782 0.0
C774 C 0.54539 0.0149 0.72941 0.0
C775 C 0.51933 0.9686 0.62468 0.0
H776 H 0.40088 0.03477 0.68142 0.0
H777 H 0.55538 0.15458 0.66107 0.0
H778 H 0.43251 0.92799 0.67777 0.0
H779 H 0.40469 0.95042 0.70444 0.0
H780 H 0.38354 0.94358 0.66864 0.0
H781 H 0.62377 0.14009 0.65424 0.0
H782 H 0.62079 0.09715 0.68178 0.0
H783 H 0.60854 0.07522 0.64591 0.0
H784 H 0.58522 0.95127 0.72816 0.0
H785 H 0.56266 0.91199 0.63998 0.0
H786 H 0.50425 1.00359 0.73274 0.0
H787 H 0.56733 0.05716 0.72552 0.0
H788 H 0.56014 0.00657 0.74906 0.0
H789 H 0.47747 0.95577 0.62549 0.0
H790 H 0.52572 0.94495 0.60878 0.0
H791 H 0.53993 0.00941 0.6175 0.0
C792 C 0.4878 0.59674 0.68914 0.0
C793 C 0.53662 0.63313 0.67808 0.0
C794 C 0.46766 0.54349 0.68617 0.0
C795 C 0.4975 0.52516 0.67263 0.0
C796 C 0.54672 0.56123 0.66121 0.0
C797 C 0.56557 0.61482 0.66387 0.0
C798 C 0.41502 0.50681 0.69863 0.0
C799 C 0.58016 0.54318 0.64703 0.0
C800 C 0.47407 0.39601 0.69986 0.0
C801 C 0.44523 0.36194 0.67806 0.0
C802 C 0.49177 0.44896 0.69803 0.0
C803 C 0.47966 0.46872 0.67391 0.0
C804 C 0.44841 0.43415 0.65229 0.0
C805 C 0.4317 0.38094 0.65454 0.0
C806 C 0.52458 0.48392 0.72172 0.0
C807 C 0.43388 0.45361 0.62652 0.0
H808 H 0.46494 0.60951 0.70072 0.0
H809 H 0.60322 0.64215 0.65531 0.0
H810 H 0.39091 0.47647 0.68306 0.0
H811 H 0.41943 0.48715 0.7174 0.0
H812 H 0.39404 0.52696 0.70529 0.0
H813 H 0.61546 0.57558 0.63729 0.0
H814 H 0.5921 0.52386 0.66284 0.0
H815 H 0.55794 0.51431 0.63041 0.0
H816 H 0.4846 0.3813 0.71807 0.0
H817 H 0.41037 0.35483 0.63741 0.0
H818 H 0.50514 0.50343 0.73151 0.0
H819 H 0.56229 0.51449 0.71319 0.0
H820 H 0.53202 0.46257 0.73852 0.0
H821 H 0.4146 0.47547 0.63301 0.0
H822 H 0.40768 0.4217 0.61221 0.0
H823 H 0.46931 0.48062 0.61455 0.0
C824 C 0.05082 0.42253 0.02483 0.0
C825 C 0.08926 0.43664 1.00411 0.0
C826 C 0.01671 0.44216 0.02423 0.0
C827 C 0.02121 0.47674 1.00237 0.0
C828 C 0.05861 0.48909 0.98071 0.0
C829 C 0.09246 0.46934 0.98204 0.0
C830 C 0.97768 0.42808 0.04785 0.0
C831 C 0.06456 0.52511 0.95681 0.0
C832 C 0.905 0.4946 0.99139 0.0
C833 C 0.91965 0.54098 1.00578 0.0
C834 C 0.93821 0.47427 0.98933 0.0
C835 C 0.98729 0.50041 1.00242 0.0
C836 C 1.00311 0.54835 0.01618 0.0
C837 C 0.96921 0.56833 0.01749 0.0
C838 C 0.92002 0.42389 0.97387 0.0
C839 C 0.05497 0.5774 0.03056 0.0
H840 H 0.0496 0.39882 0.04248 0.0
H841 H 0.12331 0.48164 0.96656 0.0
H842 H 0.98643 0.46327 0.06002 0.0
H843 H 0.93827 0.41219 0.03901 0.0
H844 H 0.97765 0.39924 0.06263 0.0
H845 H 0.09267 0.52762 0.9405 0.0
H846 H 0.02671 0.51205 0.94652 0.0
H847 H 0.07808 0.5644 0.9653 0.0
H848 H 0.86682 0.47355 0.98211 0.0
H849 H 0.9804 0.60388 0.02888 0.0
H850 H 0.91584 0.39374 0.98902 0.0
H851 H 0.94906 0.42823 0.95774 0.0
H852 H 0.88231 0.41022 0.9632 0.0
H853 H 0.05678 0.55361 0.04801 0.0
H854 H 0.06236 0.61491 0.03942 0.0
H855 H 0.08638 0.58478 0.01538 0.0
C856 C 0.40998 0.89257 0.32479 0.0
C857 C 0.38021 0.90859 0.34009 0.0
C858 C 0.46402 0.92411 0.32246 0.0
C859 C 0.48931 0.97263 0.33629 0.0
C860 C 0.45911 0.98942 0.35136 0.0
C861 C 0.40484 0.95729 0.35293 0.0
C862 C 0.49414 0.90495 0.30567 0.0
C863 C 0.48431 0.04063 0.36661 0.0
C864 C 0.6324 0.03587 0.35635 0.0
C865 C 0.65549 0.07574 0.33639 0.0
C866 C 0.57858 1.00082 0.35601 0.0
C867 C 0.54723 0.00573 0.33514 0.0
C868 C 0.57119 0.04414 0.31395 0.0
C869 C 0.62477 0.07886 0.31503 0.0
C870 C 0.55483 0.96073 0.37911 0.0
C871 C 0.53987 0.05065 0.29106 0.0
H872 H 0.39093 0.85476 0.31497 0.0
H873 H 0.38192 0.96928 0.3652 0.0
H874 H 0.51829 0.93385 0.28938 0.0
H875 H 0.52072 0.89995 0.31989 0.0
H876 H 0.46852 0.86753 0.29502 0.0
H877 H 0.45557 0.04836 0.37713 0.0
H878 H 0.51127 0.04125 0.38287 0.0
H879 H 0.5075 0.07245 0.35151 0.0
H880 H 0.65574 0.03444 0.37344 0.0
H881 H 0.64232 0.11056 0.30004 0.0
H882 H 0.5296 0.92194 0.36986 0.0
H883 H 0.53015 0.96966 0.39289 0.0
H884 H 0.58457 0.95928 0.39245 0.0
H885 H 0.51381 0.013 0.28082 0.0
H886 H 0.56478 0.07861 0.27453 0.0
H887 H 0.51521 0.06472 0.30056 0.0
C888 C 0.3796 0.18735 0.77955 0.0
C889 C 0.37726 0.20234 0.75167 0.0
C890 C 0.35377 0.19603 0.80206 0.0
C891 C 0.3224 0.21814 0.79666 0.0
C892 C 0.31838 0.23178 0.76836 0.0
C893 C 0.34722 0.22543 0.74649 0.0
C894 C 0.36128 0.1827 0.83182 0.0
C895 C 0.28333 0.25272 0.76112 0.0
C896 C 0.22086 0.18904 0.85422 0.0
C897 C 0.2399 0.23659 0.86873 0.0
C898 C 0.24551 0.18369 0.82999 0.0
C899 C 0.29313 0.22557 0.82063 0.0
C900 C 0.31397 0.27319 0.83539 0.0
C901 C 0.28674 0.27849 0.85861 0.0
C902 C 0.22046 0.13263 0.81447 0.0
C903 C 0.36576 0.31844 0.82702 0.0
H904 H 0.40341 0.17038 0.78401 0.0
H905 H 0.34656 0.23903 0.72537 0.0
H906 H 0.37434 0.21684 0.8458 0.0
H907 H 0.32408 0.15156 0.84047 0.0
H908 H 0.39009 0.16969 0.83278 0.0
H909 H 0.28334 0.26011 0.73807 0.0
H910 H 0.24316 0.22479 0.76789 0.0
H911 H 0.29545 0.28925 0.77272 0.0
H912 H 0.18666 0.15484 0.86168 0.0
H913 H 0.30276 0.31582 0.86867 0.0
H914 H 0.24321 0.11311 0.81768 0.0
H915 H 0.21975 0.13897 0.79137 0.0
H916 H 0.18022 0.10627 0.82183 0.0
H917 H 0.39577 0.307 0.82769 0.0
H918 H 0.3778 0.3523 0.84111 0.0
H919 H 0.36437 0.33026 0.80496 0.0
C920 C 0.03301 0.28466 0.20218 0.0
C921 C 0.0104 0.23146 0.20744 0.0
C922 C 0.06063 0.30703 0.17684 0.0
C923 C 0.06591 0.27566 0.15601 0.0
C924 C 0.04112 0.22165 0.16062 0.0
C925 C 0.01377 0.20033 0.18609 0.0
C926 C 0.08609 0.36473 0.17288 0.0
C927 C 0.04489 0.1865 0.13897 0.0
C928 C 0.11793 0.33602 0.08278 0.0
C929 C 0.17105 0.35414 0.08562 0.0
C930 C 0.08282 0.30881 0.10501 0.0
C931 C 0.10122 0.29986 0.13084 0.0
C932 C 0.1545 0.31604 0.13313 0.0
C933 C 0.18856 0.34307 0.11067 0.0
C934 C 0.0265 0.29207 0.1013 0.0
C935 C 0.1761 0.30677 0.15987 0.0
H936 H 0.03103 0.30928 0.21839 0.0
H937 H 0.99559 0.15904 0.18949 0.0
H938 H 0.12875 0.38209 0.17301 0.0
H939 H 0.07546 0.3737 0.15205 0.0
H940 H 0.07506 0.3833 0.18978 0.0
H941 H 0.02205 0.14516 0.14517 0.0
H942 H 0.03093 0.19147 0.11815 0.0
H943 H 0.08588 0.19699 0.1361 0.0
H944 H 0.10412 0.3452 0.06373 0.0
H945 H 0.2296 0.35735 0.11309 0.0
H946 H 0.01688 0.31679 0.11453 0.0
H947 H 1.00152 0.25162 0.10849 0.0
H948 H 0.01714 0.2952 0.07891 0.0
H949 H 0.17143 0.32836 0.17767 0.0
H950 H 0.21775 0.31912 0.15775 0.0
H951 H 0.15443 0.26517 0.16553 0.0
C952 C 0.73135 0.98641 0.52369 0.0
C953 C 0.77256 0.97987 0.53272 0.0
C954 C 0.73754 0.02087 0.50151 0.0
C955 C 0.78554 0.04846 0.48695 0.0
C956 C 0.82693 0.04152 0.49549 0.0
C957 C 0.82046 0.00884 0.51852 0.0
C958 C 0.69273 0.02828 0.49391 0.0
C959 C 0.87841 0.06877 0.48025 0.0
C960 C 0.78606 0.10746 0.41452 0.0
C961 C 0.80798 0.16008 0.42108 0.0
C962 C 0.78022 0.07101 0.43536 0.0
C963 C 0.79358 0.08682 0.46395 0.0
C964 C 0.81502 0.13984 0.47068 0.0
C965 C 0.82281 0.17566 0.44919 0.0
C966 C 0.75962 0.01555 0.42675 0.0
C967 C 0.82828 0.15869 0.50082 0.0
H968 H 0.69383 0.96443 0.53372 0.0
H969 H 0.85374 0.00666 0.52538 0.0
H970 H 0.70451 0.06973 0.49574 0.0
H971 H 0.68133 0.01677 0.47161 0.0
H972 H 0.65845 0.00542 0.50773 0.0
H973 H 0.90493 0.05517 0.48732 0.0
H974 H 0.87254 0.06246 0.4571 0.0
H975 H 0.89748 0.11098 0.48394 0.0
H976 H 0.7728 0.09458 0.39317 0.0
H977 H 0.83895 0.21605 0.45466 0.0
H978 H 0.72245 0.99024 0.43776 0.0
H979 H 0.78716 1.00287 0.4332 0.0
H980 H 0.75337 0.0099 0.40355 0.0
H981 H 0.79367 0.13731 0.51458 0.0
H982 H 0.84244 0.20069 0.50277 0.0
H983 H 0.85852 0.1511 0.50898 0.0
C984 C 0.6869 0.75669 0.74352 0.0
C985 C 0.66073 0.78432 0.74654 0.0
C986 C 0.71894 0.75607 0.76518 0.0
C987 C 0.72133 0.77972 0.79166 0.0
C988 C 0.69433 0.80718 0.7949 0.0
C989 C 0.66535 0.80998 0.77218 0.0
C990 C 0.74931 0.72907 0.75989 0.0
C991 C 0.69298 0.83058 0.823 0.0
C992 C 0.75583 0.7254 0.85646 0.0
C993 C 0.80623 0.76523 0.86323 0.0
C994 C 0.72751 0.73009 0.83387 0.0
C995 C 0.75056 0.77446 0.81619 0.0
C996 C 0.80137 0.81429 0.82233 0.0
C997 C 0.82747 0.81012 0.84608 0.0
C998 C 0.67254 0.68741 0.82904 0.0
C999 C 0.82868 0.86139 0.80352 0.0
H1000 H 0.68138 0.73453 0.72437 0.0
H1001 H 0.64307 0.82915 0.77518 0.0
H1002 H 0.79043 0.75484 0.7657 0.0
H1003 H 0.73404 0.69406 0.77333 0.0
H1004 H 0.74751 0.71737 0.7374 0.0
H1005 H 0.67052 0.85091 0.82207 0.0
H1006 H 0.67521 0.79967 0.83926 0.0
H1007 H 0.73271 0.85833 0.83014 0.0
H1008 H 0.7379 0.68998 0.86857 0.0
H1009 H 0.8648 0.84296 0.85091 0.0
H1010 H 0.67002 0.66755 0.80877 0.0
H1011 H 0.64653 0.70373 0.82742 0.0
H1012 H 0.65816 0.65822 0.8463 0.0
H1013 H 0.8272 0.84935 0.78114 0.0
H1014 H 0.8698 0.88679 0.8095 0.0
H1015 H 0.8089 0.88426 0.80463 0.0
C1016 C 0.0162 0.73322 0.19198 0.0
C1017 C 0.04167 0.78731 0.19414 0.0
C1018 C 0.98486 0.70715 0.16842 0.0
C1019 C 0.97852 0.73559 0.14632 0.0
C1020 C 1.00593 0.79024 0.14783 0.0
C1021 C 0.03723 0.81527 0.17147 0.0
C1022 C 0.95668 0.6489 0.16778 0.0
C1023 C 1.00154 0.82246 0.12468 0.0
C1024 C 0.91499 0.66363 0.07735 0.0
C1025 C 0.86299 0.64894 0.08208 0.0
C1026 C 0.95345 0.69325 0.09751 0.0
C1027 C 0.93957 0.70809 0.1232 0.0
C1028 C 0.88737 0.69497 0.1274 0.0
C1029 C 0.84992 0.66542 0.10698 0.0
C1030 C 0.0085 0.7068 0.09178 0.0
C1031 C 0.87066 0.71088 0.15395 0.0
H1032 H 0.01899 0.71101 0.20927 0.0
H1033 H 0.05771 0.85709 0.1724 0.0
H1034 H 0.91444 0.63359 0.16974 0.0
H1035 H 0.96354 0.63521 0.14725 0.0
H1036 H 0.9689 0.63252 0.18518 0.0
H1037 H 0.02114 0.86412 0.13022 0.0
H1038 H 0.01945 0.8181 0.10505 0.0
H1039 H 0.96034 0.80896 0.12005 0.0
H1040 H 0.92535 0.65032 0.05843 0.0
H1041 H 0.80977 0.65396 0.11083 0.0
H1042 H 0.01961 0.68571 0.10686 0.0
H1043 H 0.03521 0.74867 0.09515 0.0
H1044 H 0.0139 0.69674 0.06985 0.0
H1045 H 0.87729 0.69268 0.17268 0.0
H1046 H 0.82916 0.69962 0.15349 0.0
H1047 H 0.89417 0.75336 0.15677 0.0
C1048 C 0.26861 0.99268 0.52906 0.0
C1049 C 0.24424 0.02185 0.53318 0.0
C1050 C 0.26195 0.96463 0.50384 0.0
C1051 C 0.23006 0.9656 0.48187 0.0
C1052 C 0.20813 0.99769 0.48519 0.0
C1053 C 0.21511 0.02496 0.51073 0.0
C1054 C 0.28813 0.93284 0.50188 0.0
C1055 C 0.17635 1.00245 0.46192 0.0
C1056 C 0.23896 0.90845 0.41065 0.0
C1057 C 0.19572 0.85841 0.41198 0.0
C1058 C 0.2493 0.94468 0.43247 0.0
C1059 C 0.21635 0.93035 0.45657 0.0
C1060 C 0.17122 0.88077 0.45718 0.0
C1061 C 0.16102 0.84594 0.43471 0.0
C1062 C 0.29734 0.99715 0.43056 0.0
C1063 C 0.13542 0.86308 0.48252 0.0
H1064 H 0.29127 0.98984 0.54607 0.0
H1065 H 0.19711 0.04838 0.51327 0.0
H1066 H 0.2714 0.90205 0.51823 0.0
H1067 H 0.28464 0.91491 0.48088 0.0
H1068 H 0.32985 0.95747 0.50684 0.0
H1069 H 0.16661 0.03302 0.46643 0.0
H1070 H 0.19759 0.01132 0.44146 0.0
H1071 H 0.13981 0.9652 0.45927 0.0
H1072 H 0.26632 0.91844 0.39334 0.0
H1073 H 0.12773 0.80729 0.43595 0.0
H1074 H 0.326 0.99951 0.44621 0.0
H1075 H 0.28821 0.02784 0.43585 0.0
H1076 H 0.31525 0.00485 0.40914 0.0
H1077 H 0.15722 0.86433 0.50175 0.0
H1078 H 0.10231 0.8232 0.47994 0.0
H1079 H 0.12008 0.88951 0.48616 0.0
loop_
_geom_bond_atom_site_label_1
_geom_bond_atom_site_label_2
_geom_bond_distance
_geom_bond_site_symmetry_2
_ccdc_geom_bond_type
Gd0 N31 2.661 1_556 S
Gd0 N37 2.601 . S
Gd0 O44 2.545 . S
Gd0 O45 2.606 . S
Gd0 O47 2.429 . S
Gd0 O48 2.545 . S
Gd0 O49 2.412 . S
Gd0 O51 2.362 1_556 S
Gd0 O52 2.324 1_556 S
Gd0 C59 2.828 . S
Gd1 N10 2.661 . S
Gd1 N14 2.601 . S
Gd1 O45 2.362 1_554 S
Gd1 O46 2.324 . S
Gd1 O50 2.545 . S
Gd1 O51 2.606 . S
Gd1 O53 2.429 . S
Gd1 O54 2.545 . S
Gd1 O55 2.412 . S
Gd1 C68 2.828 . S
C2 C5 1.417 1_556 S
C2 C7 1.431 . S
C2 C8 1.412 . S
C3 C6 1.437 . S
C3 C7 1.317 1_554 S
C3 H22 0.929 . S
C4 C5 1.426 . S
C4 C6 1.413 . S
C4 N14 1.359 . S
C5 C2 1.417 1_554 S
C5 C4 1.426 . S
C5 N10 1.350 . S
C6 C3 1.437 . S
C6 C4 1.413 . S
C6 C16 1.391 . S
C7 C2 1.431 . S
C7 C3 1.317 1_556 S
C7 H18 0.930 . S
C8 C2 1.412 . S
C8 C9 1.355 . S
C8 H20 0.930 . S
C9 C8 1.355 . S
C9 C11 1.402 . S
C9 H21 0.930 . S
N10 Gd1 2.661 . S
N10 C5 1.350 . S
N10 C11 1.307 1_554 S
C11 C9 1.402 . S
C11 N10 1.307 1_556 S
C11 H12 0.930 . S
H12 C11 0.930 . S
C13 N14 1.334 . S
C13 C15 1.394 . S
C13 H17 0.930 . S
N14 Gd1 2.601 . S
N14 C4 1.359 . S
N14 C13 1.334 . S
C15 C13 1.394 . S
C15 C16 1.359 . S
C15 H27 0.930 . S
C16 C6 1.391 . S
C16 C15 1.359 . S
C16 H28 0.929 . S
H17 C13 0.930 . S
H18 C7 0.930 . S
H19 C36 0.930 . S
H20 C8 0.930 . S
H21 C9 0.930 . S
H22 C3 0.929 . S
H23 C41 0.930 . S
H24 C32 0.930 . S
H25 C33 0.930 . S
H26 C57 0.929 1_655 S
H27 C15 0.930 . S
H28 C16 0.929 . S
H29 C58 0.930 . S
H30 C39 0.919 1_655 S
N31 Gd0 2.661 1_554 S
N31 C35 1.350 . S
N31 C36 1.307 . S
C32 H24 0.930 . S
C32 C33 1.355 . S
C32 C34 1.412 . S
C33 H25 0.930 . S
C33 C32 1.355 . S
C33 C36 1.402 . S
C34 C32 1.412 . S
C34 C35 1.417 . S
C34 C58 1.431 . S
C35 N31 1.350 . S
C35 C34 1.417 . S
C35 C38 1.426 . S
C36 H19 0.930 . S
C36 N31 1.307 . S
C36 C33 1.402 . S
N37 Gd0 2.601 . S
N37 C38 1.359 1_556 S
N37 C41 1.334 . S
C38 C35 1.426 . S
C38 N37 1.359 1_554 S
C38 C42 1.413 . S
C39 H30 0.919 1_455 S
C39 C40 1.362 1_455 S
C39 C41 1.403 . S
C40 C39 1.362 1_655 S
C40 C42 1.391 1_656 S
C40 H43 0.929 . S
C41 H23 0.930 . S
C41 N37 1.334 . S
C41 C39 1.403 . S
C42 C38 1.413 . S
C42 C40 1.391 1_454 S
C42 C57 1.437 . S
H43 C40 0.929 . S
O44 Gd0 2.545 . S
O44 C59 1.258 . S
O45 Gd0 2.606 . S
O45 Gd1 2.362 1_556 S
O45 C56 1.284 . S
O46 Gd1 2.324 . S
O46 C66 1.254 . S
O47 Gd0 2.429 . S
O47 C66 1.268 1_556 S
O48 Gd0 2.545 . S
O48 C56 1.250 . S
O49 Gd0 2.412 . S
O49 C59 1.252 . S
O50 Gd1 2.545 . S
O50 C68 1.258 . S
O51 Gd0 2.362 1_554 S
O51 Gd1 2.606 . S
O51 C67 1.284 . S
O52 Gd0 2.324 1_554 S
O52 C75 1.254 . S
O53 Gd1 2.429 . S
O53 C75 1.268 . S
O54 Gd1 2.545 . S
O54 C67 1.250 . S
O55 Gd1 2.412 . S
O55 C68 1.252 . S
C56 O45 1.284 . S
C56 O48 1.250 . S
C57 H26 0.929 1_455 S
C57 C42 1.437 . S
C57 C58 1.317 . S
C58 H29 0.930 . S
C58 C34 1.431 . S
C58 C57 1.317 . S
C59 Gd0 2.828 . S
C59 O44 1.258 . S
C59 O49 1.252 . S
C59 C60 1.497 . S
C60 C59 1.497 . S
C60 C61 1.395 . S
C60 C62 1.380 . S
C61 C60 1.395 . S
C61 C64 1.398 . S
C61 H76 0.930 . S
C62 C60 1.380 . S
C62 C63 1.391 . S
C62 H77 0.930 . S
C63 C62 1.391 . S
C63 C65 1.387 . S
C64 C61 1.398 . S
C64 C65 1.380 . S
C64 H78 0.930 . S
C65 C63 1.387 . S
C65 C64 1.380 . S
C65 H79 0.930 . S
C66 O46 1.254 . S
C66 O47 1.268 1_554 S
C67 O51 1.284 . S
C67 O54 1.250 . S
C68 Gd1 2.828 . S
C68 O50 1.258 . S
C68 O55 1.252 . S
C68 C69 1.497 . S
C69 C68 1.497 . S
C69 C70 1.395 . S
C69 C71 1.380 . S
C70 C69 1.395 . S
C70 C73 1.398 . S
C70 H80 0.930 . S
C71 C69 1.380 . S
C71 C72 1.391 . S
C71 H81 0.930 . S
C72 C71 1.391 . S
C72 C74 1.387 . S
C73 C70 1.398 . S
C73 C74 1.380 . S
C73 H82 0.930 . S
C74 C72 1.387 . S
C74 C73 1.380 . S
C74 H83 0.930 . S
C75 O52 1.254 . S
C75 O53 1.268 . S
H76 C61 0.930 . S
H77 C62 0.930 . S
H78 C64 0.930 . S
H79 C65 0.930 . S
H80 C70 0.930 . S
H81 C71 0.930 . S
H82 C73 0.930 . S
H83 C74 0.930 . S
Gd84 N115 2.661 . S
Gd84 N121 2.601 . S
Gd84 O128 2.545 . S
Gd84 O129 2.606 . S
Gd84 O131 2.429 . S
Gd84 O132 2.545 . S
Gd84 O133 2.412 . S
Gd84 O135 2.362 . S
Gd84 O136 2.324 . S
Gd84 C143 2.828 . S
Gd85 N94 2.661 . S
Gd85 N98 2.601 . S
Gd85 O129 2.362 . S
Gd85 O130 2.324 . S
Gd85 O134 2.545 . S
Gd85 O135 2.606 . S
Gd85 O137 2.429 . S
Gd85 O138 2.545 . S
Gd85 O139 2.412 . S
Gd85 C152 2.828 . S
C86 C89 1.417 . S
C86 C91 1.431 . S
C86 C92 1.412 . S
C87 C90 1.437 . S
C87 C91 1.317 . S
C87 H106 0.929 . S
C88 C89 1.426 . S
C88 C90 1.413 . S
C88 N98 1.359 . S
C89 C86 1.417 . S
C89 C88 1.426 . S
C89 N94 1.350 . S
C90 C87 1.437 . S
C90 C88 1.413 . S
C90 C100 1.391 . S
C91 C86 1.431 . S
C91 C87 1.317 . S
C91 H102 0.930 . S
C92 C86 1.412 . S
C92 C93 1.355 . S
C92 H104 0.930 . S
C93 C92 1.355 . S
C93 C95 1.402 . S
C93 H105 0.930 . S
N94 Gd85 2.661 . S
N94 C89 1.350 . S
N94 C95 1.307 . S
C95 C93 1.402 . S
C95 N94 1.307 . S
C95 H96 0.930 . S
H96 C95 0.930 . S
C97 N98 1.334 . S
C97 C99 1.394 . S
C97 H101 0.930 . S
N98 Gd85 2.601 . S
N98 C88 1.359 . S
N98 C97 1.334 . S
C99 C97 1.394 . S
C99 C100 1.359 . S
C99 H111 0.930 . S
C100 C90 1.391 . S
C100 C99 1.359 . S
C100 H112 0.929 . S
H101 C97 0.930 . S
H102 C91 0.930 . S
H103 C120 0.930 . S
H104 C92 0.930 . S
H105 C93 0.930 . S
H106 C87 0.929 . S
H107 C125 0.930 . S
H108 C116 0.930 . S
H109 C117 0.930 . S
H110 C141 0.929 1_565 S
H111 C99 0.930 . S
H112 C100 0.929 . S
H113 C142 0.930 . S
H114 C123 0.925 1_565 S
N115 Gd84 2.661 . S
N115 C119 1.350 . S
N115 C120 1.307 . S
C116 H108 0.930 . S
C116 C117 1.355 . S
C116 C118 1.412 . S
C117 H109 0.930 . S
C117 C116 1.355 . S
C117 C120 1.402 . S
C118 C116 1.412 . S
C118 C119 1.417 . S
C118 C142 1.431 . S
C119 N115 1.350 . S
C119 C118 1.417 . S
C119 C122 1.426 . S
C120 H103 0.930 . S
C120 N115 1.307 . S
C120 C117 1.402 . S
N121 Gd84 2.601 . S
N121 C122 1.359 . S
N121 C125 1.334 . S
C122 C119 1.426 . S
C122 N121 1.359 . S
C122 C126 1.413 . S
C123 H114 0.925 1_545 S
C123 C124 1.350 1_545 S
C123 C125 1.408 . S
C124 C123 1.350 1_565 S
C124 C126 1.391 1_565 S
C124 H127 0.929 . S
C125 H107 0.930 . S
C125 N121 1.334 . S
C125 C123 1.408 . S
C126 C122 1.413 . S
C126 C124 1.391 1_545 S
C126 C141 1.437 . S
H127 C124 0.929 . S
O128 Gd84 2.545 . S
O128 C143 1.258 . S
O129 Gd84 2.606 . S
O129 Gd85 2.362 . S
O129 C140 1.284 . S
O130 Gd85 2.324 . S
O130 C150 1.254 . S
O131 Gd84 2.429 . S
O131 C150 1.268 . S
O132 Gd84 2.545 . S
O132 C140 1.250 . S
O133 Gd84 2.412 . S
O133 C143 1.252 . S
O134 Gd85 2.545 . S
O134 C152 1.258 . S
O135 Gd84 2.362 . S
O135 Gd85 2.606 . S
O135 C151 1.284 . S
O136 Gd84 2.324 . S
O136 C159 1.254 . S
O137 Gd85 2.429 . S
O137 C159 1.268 . S
O138 Gd85 2.545 . S
O138 C151 1.250 . S
O139 Gd85 2.412 . S
O139 C152 1.252 . S
C140 O129 1.284 . S
C140 O132 1.250 . S
C141 H110 0.929 1_545 S
C141 C126 1.437 . S
C141 C142 1.317 . S
C142 H113 0.930 . S
C142 C118 1.431 . S
C142 C141 1.317 . S
C143 Gd84 2.828 . S
C143 O128 1.258 . S
C143 O133 1.252 . S
C143 C144 1.497 . S
C144 C143 1.497 . S
C144 C145 1.395 . S
C144 C146 1.380 . S
C145 C144 1.395 . S
C145 C148 1.398 . S
C145 H160 0.930 . S
C146 C144 1.380 . S
C146 C147 1.391 . S
C146 H161 0.930 . S
C147 C146 1.391 . S
C147 C149 1.387 . S
C148 C145 1.398 . S
C148 C149 1.380 . S
C148 H162 0.930 . S
C149 C147 1.387 . S
C149 C148 1.380 . S
C149 H163 0.930 . S
C150 O130 1.254 . S
C150 O131 1.268 . S
C151 O135 1.284 . S
C151 O138 1.250 . S
C152 Gd85 2.828 . S
C152 O134 1.258 . S
C152 O139 1.252 . S
C152 C153 1.497 . S
C153 C152 1.497 . S
C153 C154 1.395 . S
C153 C155 1.380 . S
C154 C153 1.395 . S
C154 C157 1.398 . S
C154 H164 0.930 . S
C155 C153 1.380 . S
C155 C156 1.391 . S
C155 H165 0.930 . S
C156 C155 1.391 . S
C156 C158 1.387 . S
C157 C154 1.398 . S
C157 C158 1.380 . S
C157 H166 0.930 . S
C158 C156 1.387 . S
C158 C157 1.380 . S
C158 H167 0.930 . S
C159 O136 1.254 . S
C159 O137 1.268 . S
H160 C145 0.930 . S
H161 C146 0.930 . S
H162 C148 0.930 . S
H163 C149 0.930 . S
H164 C154 0.930 . S
H165 C155 0.930 . S
H166 C157 0.930 . S
H167 C158 0.930 . S
Gd168 N199 2.661 . S
Gd168 N205 2.601 . S
Gd168 O212 2.545 . S
Gd168 O213 2.606 . S
Gd168 O215 2.429 . S
Gd168 O216 2.545 . S
Gd168 O217 2.412 . S
Gd168 O219 2.362 . S
Gd168 O220 2.324 . S
Gd168 C227 2.828 . S
Gd169 N178 2.661 . S
Gd169 N182 2.601 . S
Gd169 O213 2.362 . S
Gd169 O214 2.324 . S
Gd169 O218 2.545 . S
Gd169 O219 2.606 . S
Gd169 O221 2.429 . S
Gd169 O222 2.545 . S
Gd169 O223 2.412 . S
Gd169 C236 2.828 . S
C170 C173 1.417 . S
C170 C175 1.431 . S
C170 C176 1.412 . S
C171 C174 1.437 . S
C171 C175 1.317 . S
C171 H190 0.929 . S
C172 C173 1.426 . S
C172 C174 1.413 . S
C172 N182 1.359 . S
C173 C170 1.417 . S
C173 C172 1.426 . S
C173 N178 1.350 . S
C174 C171 1.437 . S
C174 C172 1.413 . S
C174 C184 1.391 . S
C175 C170 1.431 . S
C175 C171 1.317 . S
C175 H186 0.930 . S
C176 C170 1.412 . S
C176 C177 1.355 . S
C176 H188 0.930 . S
C177 C176 1.355 . S
C177 C179 1.402 . S
C177 H189 0.930 . S
N178 Gd169 2.661 . S
N178 C173 1.350 . S
N178 C179 1.307 . S
C179 C177 1.402 . S
C179 N178 1.307 . S
C179 H180 0.930 . S
H180 C179 0.930 . S
C181 N182 1.334 . S
C181 C183 1.394 . S
C181 H185 0.930 . S
N182 Gd169 2.601 . S
N182 C172 1.359 . S
N182 C181 1.334 . S
C183 C181 1.394 . S
C183 C184 1.359 . S
C183 H195 0.930 . S
C184 C174 1.391 . S
C184 C183 1.359 . S
C184 H196 0.929 . S
H185 C181 0.930 . S
H186 C175 0.930 . S
H187 C204 0.930 . S
H188 C176 0.930 . S
H189 C177 0.930 . S
H190 C171 0.929 . S
H191 C209 0.930 . S
H192 C200 0.930 . S
H193 C201 0.930 . S
H194 C225 0.929 . S
H195 C183 0.930 . S
H196 C184 0.929 . S
H197 C226 0.930 . S
H198 C207 0.930 . S
N199 Gd168 2.661 . S
N199 C203 1.350 . S
N199 C204 1.307 . S
C200 H192 0.930 . S
C200 C201 1.355 . S
C200 C202 1.412 . S
C201 H193 0.930 . S
C201 C200 1.355 . S
C201 C204 1.402 . S
C202 C200 1.412 . S
C202 C203 1.417 . S
C202 C226 1.431 . S
C203 N199 1.350 . S
C203 C202 1.417 . S
C203 C206 1.426 . S
C204 H187 0.930 . S
C204 N199 1.307 . S
C204 C201 1.402 . S
N205 Gd168 2.601 . S
N205 C206 1.359 . S
N205 C209 1.334 . S
C206 C203 1.426 . S
C206 N205 1.359 . S
C206 C210 1.413 . S
C207 H198 0.930 . S
C207 C208 1.359 . S
C207 C209 1.394 . S
C208 C207 1.359 . S
C208 C210 1.391 . S
C208 H211 0.929 . S
C209 H191 0.930 . S
C209 N205 1.334 . S
C209 C207 1.394 . S
C210 C206 1.413 . S
C210 C208 1.391 . S
C210 C225 1.437 . S
H211 C208 0.929 . S
O212 Gd168 2.545 . S
O212 C227 1.258 . S
O213 Gd168 2.606 . S
O213 Gd169 2.362 . S
O213 C224 1.284 . S
O214 Gd169 2.324 . S
O214 C234 1.254 . S
O215 Gd168 2.429 . S
O215 C234 1.268 . S
O216 Gd168 2.545 . S
O216 C224 1.250 . S
O217 Gd168 2.412 . S
O217 C227 1.252 . S
O218 Gd169 2.545 . S
O218 C236 1.258 . S
O219 Gd168 2.362 . S
O219 Gd169 2.606 . S
O219 C235 1.284 . S
O220 Gd168 2.324 . S
O220 C243 1.254 . S
O221 Gd169 2.429 . S
O221 C243 1.268 . S
O222 Gd169 2.545 . S
O222 C235 1.250 . S
O223 Gd169 2.412 . S
O223 C236 1.252 . S
C224 O213 1.284 . S
C224 O216 1.250 . S
C225 H194 0.929 . S
C225 C210 1.437 . S
C225 C226 1.317 . S
C226 H197 0.930 . S
C226 C202 1.431 . S
C226 C225 1.317 . S
C227 Gd168 2.828 . S
C227 O212 1.258 . S
C227 O217 1.252 . S
C227 C228 1.497 . S
C228 C227 1.497 . S
C228 C229 1.395 . S
C228 C230 1.380 . S
C229 C228 1.395 . S
C229 C232 1.398 . S
C229 H244 0.930 . S
C230 C228 1.380 . S
C230 C231 1.391 . S
C230 H245 0.930 . S
C231 C230 1.391 . S
C231 C233 1.387 . S
C232 C229 1.398 . S
C232 C233 1.380 . S
C232 H246 0.930 . S
C233 C231 1.387 . S
C233 C232 1.380 . S
C233 H247 0.930 . S
C234 O214 1.254 . S
C234 O215 1.268 . S
C235 O219 1.284 . S
C235 O222 1.250 . S
C236 Gd169 2.828 . S
C236 O218 1.258 . S
C236 O223 1.252 . S
C236 C237 1.497 . S
C237 C236 1.497 . S
C237 C238 1.395 . S
C237 C239 1.380 . S
C238 C237 1.395 . S
C238 C241 1.398 . S
C238 H248 0.930 . S
C239 C237 1.380 . S
C239 C240 1.391 . S
C239 H249 0.930 . S
C240 C239 1.391 . S
C240 C242 1.387 . S
C241 C238 1.398 . S
C241 C242 1.380 . S
C241 H250 0.930 . S
C242 C240 1.387 . S
C242 C241 1.380 . S
C242 H251 0.930 . S
C243 O220 1.254 . S
C243 O221 1.268 . S
H244 C229 0.930 . S
H245 C230 0.930 . S
H246 C232 0.930 . S
H247 C233 0.930 . S
H248 C238 0.930 . S
H249 C239 0.930 . S
H250 C241 0.930 . S
H251 C242 0.930 . S
Gd252 N283 2.661 1_556 S
Gd252 N289 2.601 . S
Gd252 O296 2.545 . S
Gd252 O297 2.606 . S
Gd252 O299 2.429 . S
Gd252 O300 2.545 . S
Gd252 O301 2.412 . S
Gd252 O303 2.362 1_556 S
Gd252 O304 2.324 1_556 S
Gd252 C311 2.828 . S
Gd253 N262 2.661 . S
Gd253 N266 2.601 . S
Gd253 O297 2.362 1_554 S
Gd253 O298 2.324 . S
Gd253 O302 2.545 . S
Gd253 O303 2.606 . S
Gd253 O305 2.429 . S
Gd253 O306 2.545 . S
Gd253 O307 2.412 . S
Gd253 C320 2.828 . S
C254 C257 1.417 1_556 S
C254 C259 1.431 . S
C254 C260 1.412 . S
C255 C258 1.437 . S
C255 C259 1.317 1_554 S
C255 H274 0.929 . S
C256 C257 1.426 . S
C256 C258 1.413 . S
C256 N266 1.359 . S
C257 C254 1.417 1_554 S
C257 C256 1.426 . S
C257 N262 1.350 . S
C258 C255 1.437 . S
C258 C256 1.413 . S
C258 C268 1.391 . S
C259 C254 1.431 . S
C259 C255 1.317 1_556 S
C259 H270 0.930 . S
C260 C254 1.412 . S
C260 C261 1.355 . S
C260 H272 0.930 . S
C261 C260 1.355 . S
C261 C263 1.402 . S
C261 H273 0.930 . S
N262 Gd253 2.661 . S
N262 C257 1.350 . S
N262 C263 1.307 1_554 S
C263 C261 1.402 . S
C263 N262 1.307 1_556 S
C263 H264 0.930 . S
H264 C263 0.930 . S
C265 N266 1.334 . S
C265 C267 1.394 . S
C265 H269 0.930 . S
N266 Gd253 2.601 . S
N266 C256 1.359 . S
N266 C265 1.334 . S
C267 C265 1.394 . S
C267 C268 1.359 . S
C267 H279 0.930 . S
C268 C258 1.391 . S
C268 C267 1.359 . S
C268 H280 0.929 . S
H269 C265 0.930 . S
H270 C259 0.930 . S
H271 C288 0.930 . S
H272 C260 0.930 . S
H273 C261 0.930 . S
H274 C255 0.929 . S
H275 C293 0.930 . S
H276 C284 0.930 . S
H277 C285 0.930 . S
H278 C309 0.929 1_455 S
H279 C267 0.930 . S
H280 C268 0.929 . S
H281 C310 0.930 . S
H282 C291 0.919 1_455 S
N283 Gd252 2.661 1_554 S
N283 C287 1.350 . S
N283 C288 1.307 . S
C284 H276 0.930 . S
C284 C285 1.355 . S
C284 C286 1.412 . S
C285 H277 0.930 . S
C285 C284 1.355 . S
C285 C288 1.402 . S
C286 C284 1.412 . S
C286 C287 1.417 . S
C286 C310 1.431 . S
C287 N283 1.350 . S
C287 C286 1.417 . S
C287 C290 1.426 . S
C288 H271 0.930 . S
C288 N283 1.307 . S
C288 C285 1.402 . S
N289 Gd252 2.601 . S
N289 C290 1.359 1_556 S
N289 C293 1.334 . S
C290 C287 1.426 . S
C290 N289 1.359 1_554 S
C290 C294 1.413 . S
C291 H282 0.919 1_655 S
C291 C292 1.362 1_655 S
C291 C293 1.403 . S
C292 C291 1.362 1_455 S
C292 C294 1.391 1_456 S
C292 H295 0.929 . S
C293 H275 0.930 . S
C293 N289 1.334 . S
C293 C291 1.403 . S
C294 C290 1.413 . S
C294 C292 1.391 1_654 S
C294 C309 1.437 . S
H295 C292 0.929 . S
O296 Gd252 2.545 . S
O296 C311 1.258 . S
O297 Gd252 2.606 . S
O297 Gd253 2.362 1_556 S
O297 C308 1.284 . S
O298 Gd253 2.324 . S
O298 C318 1.254 . S
O299 Gd252 2.429 . S
O299 C318 1.268 1_556 S
O300 Gd252 2.545 . S
O300 C308 1.250 . S
O301 Gd252 2.412 . S
O301 C311 1.252 . S
O302 Gd253 2.545 . S
O302 C320 1.258 . S
O303 Gd252 2.362 1_554 S
O303 Gd253 2.606 . S
O303 C319 1.284 . S
O304 Gd252 2.324 1_554 S
O304 C327 1.254 . S
O305 Gd253 2.429 . S
O305 C327 1.268 . S
O306 Gd253 2.545 . S
O306 C319 1.250 . S
O307 Gd253 2.412 . S
O307 C320 1.252 . S
C308 O297 1.284 . S
C308 O300 1.250 . S
C309 H278 0.929 1_655 S
C309 C294 1.437 . S
C309 C310 1.317 . S
C310 H281 0.930 . S
C310 C286 1.431 . S
C310 C309 1.317 . S
C311 Gd252 2.828 . S
C311 O296 1.258 . S
C311 O301 1.252 . S
C311 C312 1.497 . S
C312 C311 1.497 . S
C312 C313 1.395 . S
C312 C314 1.380 . S
C313 C312 1.395 . S
C313 C316 1.398 . S
C313 H328 0.930 . S
C314 C312 1.380 . S
C314 C315 1.391 . S
C314 H329 0.930 . S
C315 C314 1.391 . S
C315 C317 1.387 . S
C316 C313 1.398 . S
C316 C317 1.380 . S
C316 H330 0.930 . S
C317 C315 1.387 . S
C317 C316 1.380 . S
C317 H331 0.930 . S
C318 O298 1.254 . S
C318 O299 1.268 1_554 S
C319 O303 1.284 . S
C319 O306 1.250 . S
C320 Gd253 2.828 . S
C320 O302 1.258 . S
C320 O307 1.252 . S
C320 C321 1.497 . S
C321 C320 1.497 . S
C321 C322 1.395 . S
C321 C323 1.380 . S
C322 C321 1.395 . S
C322 C325 1.398 . S
C322 H332 0.930 . S
C323 C321 1.380 . S
C323 C324 1.391 . S
C323 H333 0.930 . S
C324 C323 1.391 . S
C324 C326 1.387 . S
C325 C322 1.398 . S
C325 C326 1.380 . S
C325 H334 0.930 . S
C326 C324 1.387 . S
C326 C325 1.380 . S
C326 H335 0.930 . S
C327 O304 1.254 . S
C327 O305 1.268 . S
H328 C313 0.930 . S
H329 C314 0.930 . S
H330 C316 0.930 . S
H331 C317 0.930 . S
H332 C322 0.930 . S
H333 C323 0.930 . S
H334 C325 0.930 . S
H335 C326 0.930 . S
Gd336 N367 2.661 . S
Gd336 N373 2.601 . S
Gd336 O380 2.545 . S
Gd336 O381 2.606 . S
Gd336 O383 2.429 . S
Gd336 O384 2.545 . S
Gd336 O385 2.412 . S
Gd336 O387 2.362 . S
Gd336 O388 2.324 . S
Gd336 C395 2.828 . S
Gd337 N346 2.661 . S
Gd337 N350 2.601 . S
Gd337 O381 2.362 . S
Gd337 O382 2.324 . S
Gd337 O386 2.545 . S
Gd337 O387 2.606 . S
Gd337 O389 2.429 . S
Gd337 O390 2.545 . S
Gd337 O391 2.412 . S
Gd337 C404 2.828 . S
C338 C341 1.417 . S
C338 C343 1.431 . S
C338 C344 1.412 . S
C339 C342 1.437 . S
C339 C343 1.317 . S
C339 H358 0.929 . S
C340 C341 1.426 . S
C340 C342 1.413 . S
C340 N350 1.359 . S
C341 C338 1.417 . S
C341 C340 1.426 . S
C341 N346 1.350 . S
C342 C339 1.437 . S
C342 C340 1.413 . S
C342 C352 1.391 . S
C343 C338 1.431 . S
C343 C339 1.317 . S
C343 H354 0.930 . S
C344 C338 1.412 . S
C344 C345 1.355 . S
C344 H356 0.930 . S
C345 C344 1.355 . S
C345 C347 1.402 . S
C345 H357 0.930 . S
N346 Gd337 2.661 . S
N346 C341 1.350 . S
N346 C347 1.307 . S
C347 C345 1.402 . S
C347 N346 1.307 . S
C347 H348 0.930 . S
H348 C347 0.930 . S
C349 N350 1.334 . S
C349 C351 1.394 . S
C349 H353 0.930 . S
N350 Gd337 2.601 . S
N350 C340 1.359 . S
N350 C349 1.334 . S
C351 C349 1.394 . S
C351 C352 1.359 . S
C351 H363 0.930 . S
C352 C342 1.391 . S
C352 C351 1.359 . S
C352 H364 0.929 . S
H353 C349 0.930 . S
H354 C343 0.930 . S
H355 C372 0.930 . S
H356 C344 0.930 . S
H357 C345 0.930 . S
H358 C339 0.929 . S
H359 C377 0.930 . S
H360 C368 0.930 . S
H361 C369 0.930 . S
H362 C393 0.929 1_545 S
H363 C351 0.930 . S
H364 C352 0.929 . S
H365 C394 0.930 . S
H366 C375 0.925 1_545 S
N367 Gd336 2.661 . S
N367 C371 1.350 . S
N367 C372 1.307 . S
C368 H360 0.930 . S
C368 C369 1.355 . S
C368 C370 1.412 . S
C369 H361 0.930 . S
C369 C368 1.355 . S
C369 C372 1.402 . S
C370 C368 1.412 . S
C370 C371 1.417 . S
C370 C394 1.431 . S
C371 N367 1.350 . S
C371 C370 1.417 . S
C371 C374 1.426 . S
C372 H355 0.930 . S
C372 N367 1.307 . S
C372 C369 1.402 . S
N373 Gd336 2.601 . S
N373 C374 1.359 . S
N373 C377 1.334 . S
C374 C371 1.426 . S
C374 N373 1.359 . S
C374 C378 1.413 . S
C375 H366 0.925 1_565 S
C375 C376 1.350 1_565 S
C375 C377 1.408 . S
C376 C375 1.350 1_545 S
C376 C378 1.391 1_545 S
C376 H379 0.929 . S
C377 H359 0.930 . S
C377 N373 1.334 . S
C377 C375 1.408 . S
C378 C374 1.413 . S
C378 C376 1.391 1_565 S
C378 C393 1.437 . S
H379 C376 0.929 . S
O380 Gd336 2.545 . S
O380 C395 1.258 . S
O381 Gd336 2.606 . S
O381 Gd337 2.362 . S
O381 C392 1.284 . S
O382 Gd337 2.324 . S
O382 C402 1.254 . S
O383 Gd336 2.429 . S
O383 C402 1.268 . S
O384 Gd336 2.545 . S
O384 C392 1.250 . S
O385 Gd336 2.412 . S
O385 C395 1.252 . S
O386 Gd337 2.545 . S
O386 C404 1.258 . S
O387 Gd336 2.362 . S
O387 Gd337 2.606 . S
O387 C403 1.284 . S
O388 Gd336 2.324 . S
O388 C411 1.254 . S
O389 Gd337 2.429 . S
O389 C411 1.268 . S
O390 Gd337 2.545 . S
O390 C403 1.250 . S
O391 Gd337 2.412 . S
O391 C404 1.252 . S
C392 O381 1.284 . S
C392 O384 1.250 . S
C393 H362 0.929 1_565 S
C393 C378 1.437 . S
C393 C394 1.317 . S
C394 H365 0.930 . S
C394 C370 1.431 . S
C394 C393 1.317 . S
C395 Gd336 2.828 . S
C395 O380 1.258 . S
C395 O385 1.252 . S
C395 C396 1.497 . S
C396 C395 1.497 . S
C396 C397 1.395 . S
C396 C398 1.380 . S
C397 C396 1.395 . S
C397 C400 1.398 . S
C397 H412 0.930 . S
C398 C396 1.380 . S
C398 C399 1.391 . S
C398 H413 0.930 . S
C399 C398 1.391 . S
C399 C401 1.387 . S
C400 C397 1.398 . S
C400 C401 1.380 . S
C400 H414 0.930 . S
C401 C399 1.387 . S
C401 C400 1.380 . S
C401 H415 0.930 . S
C402 O382 1.254 . S
C402 O383 1.268 . S
C403 O387 1.284 . S
C403 O390 1.250 . S
C404 Gd337 2.828 . S
C404 O386 1.258 . S
C404 O391 1.252 . S
C404 C405 1.497 . S
C405 C404 1.497 . S
C405 C406 1.395 . S
C405 C407 1.380 . S
C406 C405 1.395 . S
C406 C409 1.398 . S
C406 H416 0.930 . S
C407 C405 1.380 . S
C407 C408 1.391 . S
C407 H417 0.930 . S
C408 C407 1.391 . S
C408 C410 1.387 . S
C409 C406 1.398 . S
C409 C410 1.380 . S
C409 H418 0.930 . S
C410 C408 1.387 . S
C410 C409 1.380 . S
C410 H419 0.930 . S
C411 O388 1.254 . S
C411 O389 1.268 . S
H412 C397 0.930 . S
H413 C398 0.930 . S
H414 C400 0.930 . S
H415 C401 0.930 . S
H416 C406 0.930 . S
H417 C407 0.930 . S
H418 C409 0.930 . S
H419 C410 0.930 . S
Gd420 N451 2.661 . S
Gd420 N457 2.601 . S
Gd420 O464 2.545 . S
Gd420 O465 2.606 . S
Gd420 O467 2.429 . S
Gd420 O468 2.545 . S
Gd420 O469 2.412 . S
Gd420 O471 2.362 . S
Gd420 O472 2.324 . S
Gd420 C479 2.828 . S
Gd421 N430 2.661 . S
Gd421 N434 2.601 . S
Gd421 O465 2.362 . S
Gd421 O466 2.324 . S
Gd421 O470 2.545 . S
Gd421 O471 2.606 . S
Gd421 O473 2.429 . S
Gd421 O474 2.545 . S
Gd421 O475 2.412 . S
Gd421 C488 2.828 . S
C422 C425 1.417 . S
C422 C427 1.431 . S
C422 C428 1.412 . S
C423 C426 1.437 . S
C423 C427 1.317 . S
C423 H442 0.929 . S
C424 C425 1.426 . S
C424 C426 1.413 . S
C424 N434 1.359 . S
C425 C422 1.417 . S
C425 C424 1.426 . S
C425 N430 1.350 . S
C426 C423 1.437 . S
C426 C424 1.413 . S
C426 C436 1.391 . S
C427 C422 1.431 . S
C427 C423 1.317 . S
C427 H438 0.930 . S
C428 C422 1.412 . S
C428 C429 1.355 . S
C428 H440 0.930 . S
C429 C428 1.355 . S
C429 C431 1.402 . S
C429 H441 0.930 . S
N430 Gd421 2.661 . S
N430 C425 1.350 . S
N430 C431 1.307 . S
C431 C429 1.402 . S
C431 N430 1.307 . S
C431 H432 0.930 . S
H432 C431 0.930 . S
C433 N434 1.334 . S
C433 C435 1.394 . S
C433 H437 0.930 . S
N434 Gd421 2.601 . S
N434 C424 1.359 . S
N434 C433 1.334 . S
C435 C433 1.394 . S
C435 C436 1.359 . S
C435 H447 0.930 . S
C436 C426 1.391 . S
C436 C435 1.359 . S
C436 H448 0.929 . S
H437 C433 0.930 . S
H438 C427 0.930 . S
H439 C456 0.930 . S
H440 C428 0.930 . S
H441 C429 0.930 . S
H442 C423 0.929 . S
H443 C461 0.930 . S
H444 C452 0.930 . S
H445 C453 0.930 . S
H446 C477 0.929 . S
H447 C435 0.930 . S
H448 C436 0.929 . S
H449 C478 0.930 . S
H450 C459 0.930 . S
N451 Gd420 2.661 . S
N451 C455 1.350 . S
N451 C456 1.307 . S
C452 H444 0.930 . S
C452 C453 1.355 . S
C452 C454 1.412 . S
C453 H445 0.930 . S
C453 C452 1.355 . S
C453 C456 1.402 . S
C454 C452 1.412 . S
C454 C455 1.417 . S
C454 C478 1.431 . S
C455 N451 1.350 . S
C455 C454 1.417 . S
C455 C458 1.426 . S
C456 H439 0.930 . S
C456 N451 1.307 . S
C456 C453 1.402 . S
N457 Gd420 2.601 . S
N457 C458 1.359 . S
N457 C461 1.334 . S
C458 C455 1.426 . S
C458 N457 1.359 . S
C458 C462 1.413 . S
C459 H450 0.930 . S
C459 C460 1.359 . S
C459 C461 1.394 . S
C460 C459 1.359 . S
C460 C462 1.391 . S
C460 H463 0.929 . S
C461 H443 0.930 . S
C461 N457 1.334 . S
C461 C459 1.394 . S
C462 C458 1.413 . S
C462 C460 1.391 . S
C462 C477 1.437 . S
H463 C460 0.929 . S
O464 Gd420 2.545 . S
O464 C479 1.258 . S
O465 Gd420 2.606 . S
O465 Gd421 2.362 . S
O465 C476 1.284 . S
O466 Gd421 2.324 . S
O466 C486 1.254 . S
O467 Gd420 2.429 . S
O467 C486 1.268 . S
O468 Gd420 2.545 . S
O468 C476 1.250 . S
O469 Gd420 2.412 . S
O469 C479 1.252 . S
O470 Gd421 2.545 . S
O470 C488 1.258 . S
O471 Gd420 2.362 . S
O471 Gd421 2.606 . S
O471 C487 1.284 . S
O472 Gd420 2.324 . S
O472 C495 1.254 . S
O473 Gd421 2.429 . S
O473 C495 1.268 . S
O474 Gd421 2.545 . S
O474 C487 1.250 . S
O475 Gd421 2.412 . S
O475 C488 1.252 . S
C476 O465 1.284 . S
C476 O468 1.250 . S
C477 H446 0.929 . S
C477 C462 1.437 . S
C477 C478 1.317 . S
C478 H449 0.930 . S
C478 C454 1.431 . S
C478 C477 1.317 . S
C479 Gd420 2.828 . S
C479 O464 1.258 . S
C479 O469 1.252 . S
C479 C480 1.497 . S
C480 C479 1.497 . S
C480 C481 1.395 . S
C480 C482 1.380 . S
C481 C480 1.395 . S
C481 C484 1.398 . S
C481 H496 0.930 . S
C482 C480 1.380 . S
C482 C483 1.391 . S
C482 H497 0.930 . S
C483 C482 1.391 . S
C483 C485 1.387 . S
C484 C481 1.398 . S
C484 C485 1.380 . S
C484 H498 0.930 . S
C485 C483 1.387 . S
C485 C484 1.380 . S
C485 H499 0.930 . S
C486 O466 1.254 . S
C486 O467 1.268 . S
C487 O471 1.284 . S
C487 O474 1.250 . S
C488 Gd421 2.828 . S
C488 O470 1.258 . S
C488 O475 1.252 . S
C488 C489 1.497 . S
C489 C488 1.497 . S
C489 C490 1.395 . S
C489 C491 1.380 . S
C490 C489 1.395 . S
C490 C493 1.398 . S
C490 H500 0.930 . S
C491 C489 1.380 . S
C491 C492 1.391 . S
C491 H501 0.930 . S
C492 C491 1.391 . S
C492 C494 1.387 . S
C493 C490 1.398 . S
C493 C494 1.380 . S
C493 H502 0.930 . S
C494 C492 1.387 . S
C494 C493 1.380 . S
C494 H503 0.930 . S
C495 O472 1.254 . S
C495 O473 1.268 . S
H496 C481 0.930 . S
H497 C482 0.930 . S
H498 C484 0.930 . S
H499 C485 0.930 . S
H500 C490 0.930 . S
H501 C491 0.930 . S
H502 C493 0.930 . S
H503 C494 0.930 . S
C504 C505 1.391 . S
C504 C506 1.394 . S
C504 H520 0.931 . S
C505 C504 1.391 . S
C505 C509 1.376 . S
C506 C504 1.394 . S
C506 C507 1.369 . S
C506 C510 1.531 . S
C507 C506 1.369 . S
C507 C508 1.410 . S
C507 C515 1.503 . S
C508 C507 1.410 . S
C508 C509 1.392 . S
C508 C511 1.511 . S
C509 C505 1.376 . S
C509 C508 1.392 . S
C509 H521 0.929 . S
C510 C506 1.531 . S
C510 H522 0.960 . S
C510 H523 0.962 . S
C510 H524 0.960 . S
C511 C508 1.511 . S
C511 H525 0.961 . S
C511 H526 0.961 . S
C511 H527 0.961 . S
C512 C513 1.370 . S
C512 C514 1.363 . S
C512 H528 0.931 . S
C513 C512 1.370 . S
C513 C517 1.408 . S
C514 C512 1.363 . S
C514 C515 1.370 . S
C514 C518 1.524 . S
C515 C507 1.503 . S
C515 C514 1.370 . S
C515 C516 1.403 . S
C516 C515 1.403 . S
C516 C517 1.404 . S
C516 C519 1.539 . S
C517 C513 1.408 . S
C517 C516 1.404 . S
C517 H529 0.930 . S
C518 C514 1.524 . S
C518 H530 0.956 . S
C518 H531 0.961 . S
C518 H532 0.961 . S
C519 C516 1.539 . S
C519 H533 0.958 . S
C519 H534 0.961 . S
C519 H535 0.960 . S
H520 C504 0.931 . S
H521 C509 0.929 . S
H522 C510 0.960 . S
H523 C510 0.962 . S
H524 C510 0.960 . S
H525 C511 0.961 . S
H526 C511 0.961 . S
H527 C511 0.961 . S
H528 C512 0.931 . S
H529 C517 0.930 . S
H530 C518 0.956 . S
H531 C518 0.961 . S
H532 C518 0.961 . S
H533 C519 0.958 . S
H534 C519 0.961 . S
H535 C519 0.960 . S
C536 C537 1.391 . S
C536 C538 1.394 . S
C536 H552 0.931 . S
C537 C536 1.391 . S
C537 C541 1.376 . S
C538 C536 1.394 . S
C538 C539 1.369 . S
C538 C542 1.531 . S
C539 C538 1.369 . S
C539 C540 1.410 . S
C539 C547 1.503 . S
C540 C539 1.410 . S
C540 C541 1.392 . S
C540 C543 1.511 . S
C541 C537 1.376 . S
C541 C540 1.392 . S
C541 H553 0.929 . S
C542 C538 1.531 . S
C542 H554 0.960 . S
C542 H555 0.962 . S
C542 H556 0.960 . S
C543 C540 1.511 . S
C543 H557 0.961 . S
C543 H558 0.961 . S
C543 H559 0.961 . S
C544 C545 1.370 . S
C544 C546 1.363 . S
C544 H560 0.931 . S
C545 C544 1.370 . S
C545 C549 1.408 . S
C546 C544 1.363 . S
C546 C547 1.370 . S
C546 C550 1.524 . S
C547 C539 1.503 . S
C547 C546 1.370 . S
C547 C548 1.403 . S
C548 C547 1.403 . S
C548 C549 1.404 . S
C548 C551 1.539 . S
C549 C545 1.408 . S
C549 C548 1.404 . S
C549 H561 0.930 . S
C550 C546 1.524 . S
C550 H562 0.956 . S
C550 H563 0.961 . S
C550 H564 0.961 . S
C551 C548 1.539 . S
C551 H565 0.958 . S
C551 H566 0.961 . S
C551 H567 0.960 . S
H552 C536 0.931 . S
H553 C541 0.929 . S
H554 C542 0.960 . S
H555 C542 0.962 . S
H556 C542 0.960 . S
H557 C543 0.961 . S
H558 C543 0.961 . S
H559 C543 0.961 . S
H560 C544 0.931 . S
H561 C549 0.930 . S
H562 C550 0.956 . S
H563 C550 0.961 . S
H564 C550 0.961 . S
H565 C551 0.958 . S
H566 C551 0.961 . S
H567 C551 0.960 . S
C568 C569 1.391 . S
C568 C570 1.394 . S
C568 H584 0.931 . S
C569 C568 1.391 . S
C569 C573 1.376 . S
C570 C568 1.394 . S
C570 C571 1.369 . S
C570 C574 1.531 . S
C571 C570 1.369 . S
C571 C572 1.410 . S
C571 C579 1.503 . S
C572 C571 1.410 . S
C572 C573 1.392 . S
C572 C575 1.511 . S
C573 C569 1.376 . S
C573 C572 1.392 . S
C573 H585 0.929 . S
C574 C570 1.531 . S
C574 H586 0.960 . S
C574 H587 0.962 . S
C574 H588 0.960 . S
C575 C572 1.511 . S
C575 H589 0.961 . S
C575 H590 0.961 . S
C575 H591 0.961 . S
C576 C577 1.370 . S
C576 C578 1.363 . S
C576 H592 0.931 . S
C577 C576 1.370 . S
C577 C581 1.408 . S
C578 C576 1.363 . S
C578 C579 1.370 . S
C578 C582 1.524 . S
C579 C571 1.503 . S
C579 C578 1.370 . S
C579 C580 1.403 . S
C580 C579 1.403 . S
C580 C581 1.404 . S
C580 C583 1.539 . S
C581 C577 1.408 . S
C581 C580 1.404 . S
C581 H593 0.930 . S
C582 C578 1.524 . S
C582 H594 0.956 . S
C582 H595 0.961 . S
C582 H596 0.961 . S
C583 C580 1.539 . S
C583 H597 0.958 . S
C583 H598 0.961 . S
C583 H599 0.960 . S
H584 C568 0.931 . S
H585 C573 0.929 . S
H586 C574 0.960 . S
H587 C574 0.962 . S
H588 C574 0.960 . S
H589 C575 0.961 . S
H590 C575 0.961 . S
H591 C575 0.961 . S
H592 C576 0.931 . S
H593 C581 0.930 . S
H594 C582 0.956 . S
H595 C582 0.961 . S
H596 C582 0.961 . S
H597 C583 0.958 . S
H598 C583 0.961 . S
H599 C583 0.960 . S
C600 C601 1.391 . S
C600 C602 1.394 . S
C600 H616 0.931 . S
C601 C600 1.391 . S
C601 C605 1.376 . S
C602 C600 1.394 . S
C602 C603 1.369 . S
C602 C606 1.531 . S
C603 C602 1.369 . S
C603 C604 1.410 . S
C603 C611 1.503 . S
C604 C603 1.410 . S
C604 C605 1.392 . S
C604 C607 1.511 . S
C605 C601 1.376 . S
C605 C604 1.392 . S
C605 H617 0.929 . S
C606 C602 1.531 . S
C606 H618 0.960 . S
C606 H619 0.962 . S
C606 H620 0.960 . S
C607 C604 1.511 . S
C607 H621 0.961 . S
C607 H622 0.961 . S
C607 H623 0.961 . S
C608 C609 1.370 . S
C608 C610 1.363 . S
C608 H624 0.931 . S
C609 C608 1.370 . S
C609 C613 1.408 . S
C610 C608 1.363 . S
C610 C611 1.370 . S
C610 C614 1.524 . S
C611 C603 1.503 . S
C611 C610 1.370 . S
C611 C612 1.403 . S
C612 C611 1.403 . S
C612 C613 1.404 . S
C612 C615 1.539 . S
C613 C609 1.408 . S
C613 C612 1.404 . S
C613 H625 0.930 . S
C614 C610 1.524 . S
C614 H626 0.956 . S
C614 H627 0.961 . S
C614 H628 0.961 . S
C615 C612 1.539 . S
C615 H629 0.958 . S
C615 H630 0.961 . S
C615 H631 0.960 . S
H616 C600 0.931 . S
H617 C605 0.929 . S
H618 C606 0.960 . S
H619 C606 0.962 . S
H620 C606 0.960 . S
H621 C607 0.961 . S
H622 C607 0.961 . S
H623 C607 0.961 . S
H624 C608 0.931 . S
H625 C613 0.930 . S
H626 C614 0.956 . S
H627 C614 0.961 . S
H628 C614 0.961 . S
H629 C615 0.958 . S
H630 C615 0.961 . S
H631 C615 0.960 . S
C632 C633 1.391 . S
C632 C634 1.394 . S
C632 H648 0.931 . S
C633 C632 1.391 . S
C633 C637 1.376 . S
C634 C632 1.394 . S
C634 C635 1.369 . S
C634 C638 1.531 . S
C635 C634 1.369 . S
C635 C636 1.410 . S
C635 C643 1.503 . S
C636 C635 1.410 . S
C636 C637 1.392 . S
C636 C639 1.511 . S
C637 C633 1.376 . S
C637 C636 1.392 . S
C637 H649 0.929 . S
C638 C634 1.531 . S
C638 H650 0.960 . S
C638 H651 0.962 . S
C638 H652 0.960 . S
C639 C636 1.511 . S
C639 H653 0.961 . S
C639 H654 0.961 . S
C639 H655 0.961 . S
C640 C641 1.370 . S
C640 C642 1.363 . S
C640 H656 0.931 . S
C641 C640 1.370 . S
C641 C645 1.408 . S
C642 C640 1.363 . S
C642 C643 1.370 . S
C642 C646 1.524 . S
C643 C635 1.503 . S
C643 C642 1.370 . S
C643 C644 1.403 . S
C644 C643 1.403 . S
C644 C645 1.404 . S
C644 C647 1.539 . S
C645 C641 1.408 . S
C645 C644 1.404 . S
C645 H657 0.930 . S
C646 C642 1.524 . S
C646 H658 0.956 . S
C646 H659 0.961 . S
C646 H660 0.961 . S
C647 C644 1.539 . S
C647 H661 0.958 . S
C647 H662 0.961 . S
C647 H663 0.960 . S
H648 C632 0.931 . S
H649 C637 0.929 . S
H650 C638 0.960 . S
H651 C638 0.962 . S
H652 C638 0.960 . S
H653 C639 0.961 . S
H654 C639 0.961 . S
H655 C639 0.961 . S
H656 C640 0.931 . S
H657 C645 0.930 . S
H658 C646 0.956 . S
H659 C646 0.961 . S
H660 C646 0.961 . S
H661 C647 0.958 . S
H662 C647 0.961 . S
H663 C647 0.960 . S
C664 C665 1.391 . S
C664 C666 1.394 . S
C664 H680 0.931 . S
C665 C664 1.391 . S
C665 C669 1.376 . S
C666 C664 1.394 . S
C666 C667 1.369 . S
C666 C670 1.531 . S
C667 C666 1.369 . S
C667 C668 1.410 . S
C667 C675 1.503 . S
C668 C667 1.410 . S
C668 C669 1.392 . S
C668 C671 1.511 . S
C669 C665 1.376 . S
C669 C668 1.392 . S
C669 H681 0.929 . S
C670 C666 1.531 . S
C670 H682 0.960 . S
C670 H683 0.962 . S
C670 H684 0.960 . S
C671 C668 1.511 . S
C671 H685 0.961 . S
C671 H686 0.961 . S
C671 H687 0.961 . S
C672 C673 1.370 . S
C672 C674 1.363 . S
C672 H688 0.931 . S
C673 C672 1.370 . S
C673 C677 1.408 . S
C674 C672 1.363 . S
C674 C675 1.370 . S
C674 C678 1.524 . S
C675 C667 1.503 . S
C675 C674 1.370 . S
C675 C676 1.403 . S
C676 C675 1.403 . S
C676 C677 1.404 . S
C676 C679 1.539 . S
C677 C673 1.408 . S
C677 C676 1.404 . S
C677 H689 0.930 . S
C678 C674 1.524 . S
C678 H690 0.956 . S
C678 H691 0.961 . S
C678 H692 0.961 . S
C679 C676 1.539 . S
C679 H693 0.958 . S
C679 H694 0.961 . S
C679 H695 0.960 . S
H680 C664 0.931 . S
H681 C669 0.929 . S
H682 C670 0.960 . S
H683 C670 0.962 . S
H684 C670 0.960 . S
H685 C671 0.961 . S
H686 C671 0.961 . S
H687 C671 0.961 . S
H688 C672 0.931 . S
H689 C677 0.930 . S
H690 C678 0.956 . S
H691 C678 0.961 . S
H692 C678 0.961 . S
H693 C679 0.958 . S
H694 C679 0.961 . S
H695 C679 0.960 . S
C696 C697 1.391 . S
C696 C698 1.394 . S
C696 H712 0.931 . S
C697 C696 1.391 . S
C697 C701 1.376 . S
C698 C696 1.394 . S
C698 C699 1.369 . S
C698 C702 1.531 . S
C699 C698 1.369 . S
C699 C700 1.410 . S
C699 C707 1.503 . S
C700 C699 1.410 . S
C700 C701 1.392 . S
C700 C703 1.511 . S
C701 C697 1.376 . S
C701 C700 1.392 . S
C701 H713 0.929 . S
C702 C698 1.531 . S
C702 H714 0.960 . S
C702 H715 0.962 . S
C702 H716 0.960 . S
C703 C700 1.511 . S
C703 H717 0.961 . S
C703 H718 0.961 . S
C703 H719 0.961 . S
C704 C705 1.370 1_556 S
C704 C706 1.363 . S
C704 H720 0.931 . S
C705 C704 1.370 1_554 S
C705 C709 1.408 . S
C706 C704 1.363 . S
C706 C707 1.370 1_556 S
C706 C710 1.524 . S
C707 C699 1.503 . S
C707 C706 1.370 1_554 S
C707 C708 1.403 . S
C708 C707 1.403 . S
C708 C709 1.404 . S
C708 C711 1.539 . S
C709 C705 1.408 . S
C709 C708 1.404 . S
C709 H721 0.930 . S
C710 C706 1.524 . S
C710 H722 0.956 . S
C710 H723 0.961 . S
C710 H724 0.961 . S
C711 C708 1.539 . S
C711 H725 0.958 . S
C711 H726 0.961 . S
C711 H727 0.960 . S
H712 C696 0.931 . S
H713 C701 0.929 . S
H714 C702 0.960 . S
H715 C702 0.962 . S
H716 C702 0.960 . S
H717 C703 0.961 . S
H718 C703 0.961 . S
H719 C703 0.961 . S
H720 C704 0.931 . S
H721 C709 0.930 . S
H722 C710 0.956 . S
H723 C710 0.961 . S
H724 C710 0.961 . S
H725 C711 0.958 . S
H726 C711 0.961 . S
H727 C711 0.960 . S
C728 C729 1.391 . S
C728 C730 1.394 . S
C728 H744 0.931 . S
C729 C728 1.391 . S
C729 C733 1.376 . S
C730 C728 1.394 . S
C730 C731 1.369 . S
C730 C734 1.531 1_455 S
C731 C730 1.369 . S
C731 C732 1.410 . S
C731 C739 1.503 1_455 S
C732 C731 1.410 . S
C732 C733 1.392 . S
C732 C735 1.511 . S
C733 C729 1.376 . S
C733 C732 1.392 . S
C733 H745 0.929 . S
C734 C730 1.531 1_655 S
C734 H746 0.960 . S
C734 H747 0.962 . S
C734 H748 0.960 . S
C735 C732 1.511 . S
C735 H749 0.961 . S
C735 H750 0.961 . S
C735 H751 0.961 . S
C736 C737 1.370 . S
C736 C738 1.363 . S
C736 H752 0.931 . S
C737 C736 1.370 . S
C737 C741 1.408 . S
C738 C736 1.363 . S
C738 C739 1.370 . S
C738 C742 1.524 . S
C739 C731 1.503 1_655 S
C739 C738 1.370 . S
C739 C740 1.403 1_655 S
C740 C739 1.403 1_455 S
C740 C741 1.404 1_455 S
C740 C743 1.539 . S
C741 C737 1.408 . S
C741 C740 1.404 1_655 S
C741 H753 0.930 . S
C742 C738 1.524 . S
C742 H754 0.956 . S
C742 H755 0.961 . S
C742 H756 0.961 . S
C743 C740 1.539 . S
C743 H757 0.958 . S
C743 H758 0.961 . S
C743 H759 0.960 . S
H744 C728 0.931 . S
H745 C733 0.929 . S
H746 C734 0.960 . S
H747 C734 0.962 . S
H748 C734 0.960 . S
H749 C735 0.961 . S
H750 C735 0.961 . S
H751 C735 0.961 . S
H752 C736 0.931 . S
H753 C741 0.930 . S
H754 C742 0.956 . S
H755 C742 0.961 . S
H756 C742 0.961 . S
H757 C743 0.958 . S
H758 C743 0.961 . S
H759 C743 0.960 . S
C760 C761 1.391 . S
C760 C762 1.396 1_545 S
C760 H776 0.931 . S
C761 C760 1.391 . S
C761 C765 1.376 . S
C762 C760 1.396 1_565 S
C762 C763 1.368 1_565 S
C762 C766 1.529 . S
C763 C762 1.368 1_545 S
C763 C764 1.410 . S
C763 C771 1.503 1_545 S
C764 C763 1.410 . S
C764 C765 1.392 . S
C764 C767 1.511 . S
C765 C761 1.376 . S
C765 C764 1.392 . S
C765 H777 0.929 . S
C766 C762 1.529 . S
C766 H778 0.960 . S
C766 H779 0.962 . S
C766 H780 0.960 . S
C767 C764 1.511 . S
C767 H781 0.961 . S
C767 H782 0.961 . S
C767 H783 0.961 . S
C768 C769 1.370 . S
C768 C770 1.358 1_565 S
C768 H784 0.931 . S
C769 C768 1.370 . S
C769 C773 1.408 . S
C770 C768 1.358 1_545 S
C770 C771 1.371 1_545 S
C770 C774 1.529 . S
C771 C763 1.503 1_565 S
C771 C770 1.371 1_565 S
C771 C772 1.403 . S
C772 C771 1.403 . S
C772 C773 1.404 . S
C772 C775 1.539 . S
C773 C769 1.408 . S
C773 C772 1.404 . S
C773 H785 0.930 . S
C774 C770 1.529 . S
C774 H786 0.956 . S
C774 H787 0.961 . S
C774 H788 0.961 . S
C775 C772 1.539 . S
C775 H789 0.958 . S
C775 H790 0.961 . S
C775 H791 0.960 . S
H776 C760 0.931 . S
H777 C765 0.929 . S
H778 C766 0.960 . S
H779 C766 0.962 . S
H780 C766 0.960 . S
H781 C767 0.961 . S
H782 C767 0.961 . S
H783 C767 0.961 . S
H784 C768 0.931 . S
H785 C773 0.930 . S
H786 C774 0.956 . S
H787 C774 0.961 . S
H788 C774 0.961 . S
H789 C775 0.958 . S
H790 C775 0.961 . S
H791 C775 0.960 . S
C792 C793 1.391 . S
C792 C794 1.394 . S
C792 H808 0.931 . S
C793 C792 1.391 . S
C793 C797 1.376 . S
C794 C792 1.394 . S
C794 C795 1.369 . S
C794 C798 1.531 . S
C795 C794 1.369 . S
C795 C796 1.410 . S
C795 C803 1.503 . S
C796 C795 1.410 . S
C796 C797 1.392 . S
C796 C799 1.511 . S
C797 C793 1.376 . S
C797 C796 1.392 . S
C797 H809 0.929 . S
C798 C794 1.531 . S
C798 H810 0.960 . S
C798 H811 0.962 . S
C798 H812 0.960 . S
C799 C796 1.511 . S
C799 H813 0.961 . S
C799 H814 0.961 . S
C799 H815 0.961 . S
C800 C801 1.370 . S
C800 C802 1.363 . S
C800 H816 0.931 . S
C801 C800 1.370 . S
C801 C805 1.408 . S
C802 C800 1.363 . S
C802 C803 1.370 . S
C802 C806 1.524 . S
C803 C795 1.503 . S
C803 C802 1.370 . S
C803 C804 1.403 . S
C804 C803 1.403 . S
C804 C805 1.404 . S
C804 C807 1.539 . S
C805 C801 1.408 . S
C805 C804 1.404 . S
C805 H817 0.930 . S
C806 C802 1.524 . S
C806 H818 0.956 . S
C806 H819 0.961 . S
C806 H820 0.961 . S
C807 C804 1.539 . S
C807 H821 0.958 . S
C807 H822 0.961 . S
C807 H823 0.960 . S
H808 C792 0.931 . S
H809 C797 0.929 . S
H810 C798 0.960 . S
H811 C798 0.962 . S
H812 C798 0.960 . S
H813 C799 0.961 . S
H814 C799 0.961 . S
H815 C799 0.961 . S
H816 C800 0.931 . S
H817 C805 0.930 . S
H818 C806 0.956 . S
H819 C806 0.961 . S
H820 C806 0.961 . S
H821 C807 0.958 . S
H822 C807 0.961 . S
H823 C807 0.960 . S
C824 C825 1.391 . S
C824 C826 1.394 . S
C824 H840 0.931 . S
C825 C824 1.391 . S
C825 C829 1.376 1_554 S
C826 C824 1.394 . S
C826 C827 1.369 . S
C826 C830 1.531 1_455 S
C827 C826 1.369 . S
C827 C828 1.410 1_554 S
C827 C835 1.503 1_455 S
C828 C827 1.410 1_556 S
C828 C829 1.392 . S
C828 C831 1.511 . S
C829 C825 1.376 1_556 S
C829 C828 1.392 . S
C829 H841 0.929 . S
C830 C826 1.531 1_655 S
C830 H842 0.960 . S
C830 H843 0.962 . S
C830 H844 0.960 . S
C831 C828 1.511 . S
C831 H845 0.961 . S
C831 H846 0.961 . S
C831 H847 0.961 . S
C832 C833 1.370 1_556 S
C832 C834 1.363 . S
C832 H848 0.931 . S
C833 C832 1.370 1_554 S
C833 C837 1.408 . S
C834 C832 1.363 . S
C834 C835 1.370 1_556 S
C834 C838 1.524 . S
C835 C827 1.503 1_655 S
C835 C834 1.370 1_554 S
C835 C836 1.403 . S
C836 C835 1.403 . S
C836 C837 1.404 . S
C836 C839 1.539 1_655 S
C837 C833 1.408 . S
C837 C836 1.404 . S
C837 H849 0.930 . S
C838 C834 1.524 . S
C838 H850 0.956 . S
C838 H851 0.961 . S
C838 H852 0.961 . S
C839 C836 1.539 1_455 S
C839 H853 0.958 . S
C839 H854 0.961 . S
C839 H855 0.960 . S
H840 C824 0.931 . S
H841 C829 0.929 . S
H842 C830 0.960 . S
H843 C830 0.962 . S
H844 C830 0.960 . S
H845 C831 0.961 . S
H846 C831 0.961 . S
H847 C831 0.961 . S
H848 C832 0.931 . S
H849 C837 0.930 . S
H850 C838 0.956 . S
H851 C838 0.961 . S
H852 C838 0.961 . S
H853 C839 0.958 . S
H854 C839 0.961 . S
H855 C839 0.960 . S
C856 C857 1.391 . S
C856 C858 1.394 . S
C856 H872 0.931 . S
C857 C856 1.391 . S
C857 C861 1.376 . S
C858 C856 1.394 . S
C858 C859 1.369 . S
C858 C862 1.531 . S
C859 C858 1.369 . S
C859 C860 1.410 . S
C859 C867 1.503 1_565 S
C860 C859 1.410 . S
C860 C861 1.392 . S
C860 C863 1.511 1_565 S
C861 C857 1.376 . S
C861 C860 1.392 . S
C861 H873 0.929 . S
C862 C858 1.531 . S
C862 H874 0.960 . S
C862 H875 0.962 . S
C862 H876 0.960 . S
C863 C860 1.511 1_545 S
C863 H877 0.961 . S
C863 H878 0.961 . S
C863 H879 0.961 . S
C864 C865 1.370 . S
C864 C866 1.363 . S
C864 H880 0.931 . S
C865 C864 1.370 . S
C865 C869 1.408 . S
C866 C864 1.363 . S
C866 C867 1.370 . S
C866 C870 1.524 1_545 S
C867 C859 1.503 1_545 S
C867 C866 1.370 . S
C867 C868 1.403 . S
C868 C867 1.403 . S
C868 C869 1.404 . S
C868 C871 1.539 . S
C869 C865 1.408 . S
C869 C868 1.404 . S
C869 H881 0.930 . S
C870 C866 1.524 1_565 S
C870 H882 0.956 . S
C870 H883 0.961 . S
C870 H884 0.961 . S
C871 C868 1.539 . S
C871 H885 0.958 . S
C871 H886 0.961 . S
C871 H887 0.960 . S
H872 C856 0.931 . S
H873 C861 0.929 . S
H874 C862 0.960 . S
H875 C862 0.962 . S
H876 C862 0.960 . S
H877 C863 0.961 . S
H878 C863 0.961 . S
H879 C863 0.961 . S
H880 C864 0.931 . S
H881 C869 0.930 . S
H882 C870 0.956 . S
H883 C870 0.961 . S
H884 C870 0.961 . S
H885 C871 0.958 . S
H886 C871 0.961 . S
H887 C871 0.960 . S
C888 C889 1.391 . S
C888 C890 1.394 . S
C888 H904 0.931 . S
C889 C888 1.391 . S
C889 C893 1.376 . S
C890 C888 1.394 . S
C890 C891 1.369 . S
C890 C894 1.531 . S
C891 C890 1.369 . S
C891 C892 1.410 . S
C891 C899 1.503 . S
C892 C891 1.410 . S
C892 C893 1.392 . S
C892 C895 1.511 . S
C893 C889 1.376 . S
C893 C892 1.392 . S
C893 H905 0.929 . S
C894 C890 1.531 . S
C894 H906 0.960 . S
C894 H907 0.962 . S
C894 H908 0.960 . S
C895 C892 1.511 . S
C895 H909 0.961 . S
C895 H910 0.961 . S
C895 H911 0.961 . S
C896 C897 1.370 . S
C896 C898 1.363 . S
C896 H912 0.931 . S
C897 C896 1.370 . S
C897 C901 1.408 . S
C898 C896 1.363 . S
C898 C899 1.370 . S
C898 C902 1.524 . S
C899 C891 1.503 . S
C899 C898 1.370 . S
C899 C900 1.403 . S
C900 C899 1.403 . S
C900 C901 1.404 . S
C900 C903 1.539 . S
C901 C897 1.408 . S
C901 C900 1.404 . S
C901 H913 0.930 . S
C902 C898 1.524 . S
C902 H914 0.956 . S
C902 H915 0.961 . S
C902 H916 0.961 . S
C903 C900 1.539 . S
C903 H917 0.958 . S
C903 H918 0.961 . S
C903 H919 0.960 . S
H904 C888 0.931 . S
H905 C893 0.929 . S
H906 C894 0.960 . S
H907 C894 0.962 . S
H908 C894 0.960 . S
H909 C895 0.961 . S
H910 C895 0.961 . S
H911 C895 0.961 . S
H912 C896 0.931 . S
H913 C901 0.930 . S
H914 C902 0.956 . S
H915 C902 0.961 . S
H916 C902 0.961 . S
H917 C903 0.958 . S
H918 C903 0.961 . S
H919 C903 0.960 . S
C920 C921 1.385 1_455 S
C920 C922 1.394 . S
C920 H936 0.931 . S
C921 C920 1.385 1_655 S
C921 C925 1.379 . S
C922 C920 1.394 . S
C922 C923 1.369 . S
C922 C926 1.531 . S
C923 C922 1.369 . S
C923 C924 1.416 . S
C923 C931 1.503 . S
C924 C923 1.416 . S
C924 C925 1.390 1_455 S
C924 C927 1.508 1_455 S
C925 C921 1.379 . S
C925 C924 1.390 1_655 S
C925 H937 0.929 . S
C926 C922 1.531 . S
C926 H938 0.960 . S
C926 H939 0.962 . S
C926 H940 0.960 . S
C927 C924 1.508 1_655 S
C927 H941 0.961 . S
C927 H942 0.961 . S
C927 H943 0.961 . S
C928 C929 1.370 . S
C928 C930 1.363 . S
C928 H944 0.931 . S
C929 C928 1.370 . S
C929 C933 1.408 . S
C930 C928 1.363 . S
C930 C931 1.370 . S
C930 C934 1.524 . S
C931 C923 1.503 . S
C931 C930 1.370 . S
C931 C932 1.403 . S
C932 C931 1.403 . S
C932 C933 1.404 . S
C932 C935 1.539 . S
C933 C929 1.408 . S
C933 C932 1.404 . S
C933 H945 0.930 . S
C934 C930 1.524 . S
C934 H946 0.956 . S
C934 H947 0.961 . S
C934 H948 0.961 . S
C935 C932 1.539 . S
C935 H949 0.958 . S
C935 H950 0.961 . S
C935 H951 0.960 . S
H936 C920 0.931 . S
H937 C925 0.929 . S
H938 C926 0.960 . S
H939 C926 0.962 . S
H940 C926 0.960 . S
H941 C927 0.961 . S
H942 C927 0.961 . S
H943 C927 0.961 . S
H944 C928 0.931 . S
H945 C933 0.930 . S
H946 C934 0.956 . S
H947 C934 0.961 . S
H948 C934 0.961 . S
H949 C935 0.958 . S
H950 C935 0.961 . S
H951 C935 0.960 . S
C952 C953 1.391 . S
C952 C954 1.394 . S
C952 H968 0.931 . S
C953 C952 1.391 . S
C953 C957 1.376 . S
C954 C952 1.394 . S
C954 C955 1.369 . S
C954 C958 1.531 . S
C955 C954 1.369 . S
C955 C956 1.410 . S
C955 C963 1.503 . S
C956 C955 1.410 . S
C956 C957 1.392 . S
C956 C959 1.511 . S
C957 C953 1.376 . S
C957 C956 1.392 . S
C957 H969 0.929 1_545 S
C958 C954 1.531 . S
C958 H970 0.960 . S
C958 H971 0.962 . S
C958 H972 0.960 . S
C959 C956 1.511 . S
C959 H973 0.961 . S
C959 H974 0.961 . S
C959 H975 0.961 . S
C960 C961 1.370 . S
C960 C962 1.363 . S
C960 H976 0.931 . S
C961 C960 1.370 . S
C961 C965 1.408 . S
C962 C960 1.363 . S
C962 C963 1.370 . S
C962 C966 1.524 . S
C963 C955 1.503 . S
C963 C962 1.370 . S
C963 C964 1.403 . S
C964 C963 1.403 . S
C964 C965 1.404 . S
C964 C967 1.539 . S
C965 C961 1.408 . S
C965 C964 1.404 . S
C965 H977 0.930 . S
C966 C962 1.524 . S
C966 H978 0.962 1_545 S
C966 H979 0.961 1_545 S
C966 H980 0.961 1_545 S
C967 C964 1.539 . S
C967 H981 0.958 . S
C967 H982 0.961 . S
C967 H983 0.960 . S
H968 C952 0.931 . S
H969 C957 0.929 1_565 S
H970 C958 0.960 . S
H971 C958 0.962 . S
H972 C958 0.960 . S
H973 C959 0.961 . S
H974 C959 0.961 . S
H975 C959 0.961 . S
H976 C960 0.931 . S
H977 C965 0.930 . S
H978 C966 0.962 1_565 S
H979 C966 0.961 1_565 S
H980 C966 0.961 1_565 S
H981 C967 0.958 . S
H982 C967 0.961 . S
H983 C967 0.960 . S
C984 C985 1.391 . S
C984 C986 1.394 . S
C984 H1000 0.931 . S
C985 C984 1.391 . S
C985 C989 1.376 . S
C986 C984 1.394 . S
C986 C987 1.369 . S
C986 C990 1.531 . S
C987 C986 1.369 . S
C987 C988 1.410 . S
C987 C995 1.503 . S
C988 C987 1.410 . S
C988 C989 1.392 . S
C988 C991 1.511 . S
C989 C985 1.376 . S
C989 C988 1.392 . S
C989 H1001 0.929 . S
C990 C986 1.531 . S
C990 H1002 0.960 . S
C990 H1003 0.962 . S
C990 H1004 0.960 . S
C991 C988 1.511 . S
C991 H1005 0.961 . S
C991 H1006 0.961 . S
C991 H1007 0.961 . S
C992 C993 1.370 . S
C992 C994 1.363 . S
C992 H1008 0.931 . S
C993 C992 1.370 . S
C993 C997 1.408 . S
C994 C992 1.363 . S
C994 C995 1.370 . S
C994 C998 1.524 . S
C995 C987 1.503 . S
C995 C994 1.370 . S
C995 C996 1.403 . S
C996 C995 1.403 . S
C996 C997 1.404 . S
C996 C999 1.539 . S
C997 C993 1.408 . S
C997 C996 1.404 . S
C997 H1009 0.930 . S
C998 C994 1.524 . S
C998 H1010 0.956 . S
C998 H1011 0.961 . S
C998 H1012 0.961 . S
C999 C996 1.539 . S
C999 H1013 0.958 . S
C999 H1014 0.961 . S
C999 H1015 0.960 . S
H1000 C984 0.931 . S
H1001 C989 0.929 . S
H1002 C990 0.960 . S
H1003 C990 0.962 . S
H1004 C990 0.960 . S
H1005 C991 0.961 . S
H1006 C991 0.961 . S
H1007 C991 0.961 . S
H1008 C992 0.931 . S
H1009 C997 0.930 . S
H1010 C998 0.956 . S
H1011 C998 0.961 . S
H1012 C998 0.961 . S
H1013 C999 0.958 . S
H1014 C999 0.961 . S
H1015 C999 0.960 . S
C1016 C1017 1.366 1_655 S
C1016 C1018 1.394 . S
C1016 H1032 0.931 . S
C1017 C1016 1.366 1_455 S
C1017 C1021 1.390 . S
C1018 C1016 1.394 . S
C1018 C1019 1.369 . S
C1018 C1022 1.531 . S
C1019 C1018 1.369 . S
C1019 C1020 1.410 . S
C1019 C1027 1.503 . S
C1020 C1019 1.410 . S
C1020 C1021 1.392 1_655 S
C1020 C1023 1.511 1_655 S
C1021 C1017 1.390 . S
C1021 C1020 1.392 1_455 S
C1021 H1033 0.929 . S
C1022 C1018 1.531 . S
C1022 H1034 0.960 . S
C1022 H1035 0.962 . S
C1022 H1036 0.960 . S
C1023 C1020 1.511 1_455 S
C1023 H1037 0.961 . S
C1023 H1038 0.961 . S
C1023 H1039 0.961 . S
C1024 C1025 1.370 . S
C1024 C1026 1.363 . S
C1024 H1040 0.931 . S
C1025 C1024 1.370 . S
C1025 C1029 1.408 . S
C1026 C1024 1.363 . S
C1026 C1027 1.370 . S
C1026 C1030 1.524 . S
C1027 C1019 1.503 . S
C1027 C1026 1.370 . S
C1027 C1028 1.403 . S
C1028 C1027 1.403 . S
C1028 C1029 1.404 . S
C1028 C1031 1.539 . S
C1029 C1025 1.408 . S
C1029 C1028 1.404 . S
C1029 H1041 0.930 . S
C1030 C1026 1.524 . S
C1030 H1042 0.956 . S
C1030 H1043 0.961 . S
C1030 H1044 0.961 . S
C1031 C1028 1.539 . S
C1031 H1045 0.958 . S
C1031 H1046 0.961 . S
C1031 H1047 0.960 . S
H1032 C1016 0.931 . S
H1033 C1021 0.929 . S
H1034 C1022 0.960 . S
H1035 C1022 0.962 . S
H1036 C1022 0.960 . S
H1037 C1023 0.961 . S
H1038 C1023 0.961 . S
H1039 C1023 0.961 . S
H1040 C1024 0.931 . S
H1041 C1029 0.930 . S
H1042 C1030 0.956 . S
H1043 C1030 0.961 . S
H1044 C1030 0.961 . S
H1045 C1031 0.958 . S
H1046 C1031 0.961 . S
H1047 C1031 0.960 . S
C1048 C1049 1.391 . S
C1048 C1050 1.394 . S
C1048 H1064 0.931 . S
C1049 C1048 1.391 . S
C1049 C1053 1.376 . S
C1050 C1048 1.394 . S
C1050 C1051 1.369 . S
C1050 C1054 1.531 . S
C1051 C1050 1.369 . S
C1051 C1052 1.410 . S
C1051 C1059 1.503 . S
C1052 C1051 1.410 . S
C1052 C1053 1.392 . S
C1052 C1055 1.511 . S
C1053 C1049 1.376 . S
C1053 C1052 1.392 . S
C1053 H1065 0.929 1_565 S
C1054 C1050 1.531 . S
C1054 H1066 0.960 . S
C1054 H1067 0.962 . S
C1054 H1068 0.960 . S
C1055 C1052 1.511 . S
C1055 H1069 0.961 . S
C1055 H1070 0.961 . S
C1055 H1071 0.961 . S
C1056 C1057 1.370 . S
C1056 C1058 1.363 . S
C1056 H1072 0.931 . S
C1057 C1056 1.370 . S
C1057 C1061 1.408 . S
C1058 C1056 1.363 . S
C1058 C1059 1.370 . S
C1058 C1062 1.524 . S
C1059 C1051 1.503 . S
C1059 C1058 1.370 . S
C1059 C1060 1.403 . S
C1060 C1059 1.403 . S
C1060 C1061 1.404 . S
C1060 C1063 1.539 . S
C1061 C1057 1.408 . S
C1061 C1060 1.404 . S
C1061 H1073 0.930 . S
C1062 C1058 1.524 . S
C1062 H1074 0.956 . S
C1062 H1075 0.961 1_565 S
C1062 H1076 0.961 1_565 S
C1063 C1060 1.539 . S
C1063 H1077 0.958 . S
C1063 H1078 0.961 . S
C1063 H1079 0.960 . S
H1064 C1048 0.931 . S
H1065 C1053 0.929 1_545 S
H1066 C1054 0.960 . S
H1067 C1054 0.962 . S
H1068 C1054 0.960 . S
H1069 C1055 0.961 . S
H1070 C1055 0.961 . S
H1071 C1055 0.961 . S
H1072 C1056 0.931 . S
H1073 C1061 0.930 . S
H1074 C1062 0.956 . S
H1075 C1062 0.961 1_545 S
H1076 C1062 0.961 1_545 S
H1077 C1063 0.958 . S
H1078 C1063 0.961 . S
H1079 C1063 0.960 . S
C505 C392 1.122 . S
C513 C72 0.991 . S
C537 C476 1.088 . S
C545 C156 1.025 . S
C569 C56 1.113 . S
C577 C240 1.050 . S
C601 C140 1.188 . S
C609 C324 1.025 . S
C633 C224 1.133 . S
C641 C408 1.052 . S
C665 C308 1.185 . S
C673 C492 1.030 . S
C697 C75 1.787 . S
C705 C327 1.799 . S
C729 C411 1.799 . S
C737 C159 1.817 . S
C761 C495 1.827 . S
C769 C243 1.807 . S
C793 C234 1.782 . S
C801 C486 1.794 . S
C825 C66 1.795 . S
C833 C318 1.816 . S
C857 C402 1.809 . S
C865 C150 1.791 . S
C889 C487 1.225 . S
C897 C63 1.205 . S
C921 C147 1.166 . S
C929 C67 1.239 . S
C953 C231 1.232 1_545 S
C961 C151 1.213 . S
C985 C235 1.242 . S
C993 C315 1.202 . S
C1017 C399 1.170 . S
C1025 C319 1.240 . S
C1049 C483 1.222 1_565 S
C1057 C403 1.217 . S
