# Generated by pormake.
# Topology vmh, (6)-cn, num edge types: 1
# Building blocks:
#     Node 0, Type 0, BuildingBlock: OJICUG_clean_sbu_0, # of connection points: 6
#     Node 1, Type 0, BuildingBlock: OJICUG_clean_sbu_0, # of connection points: 6
#     Node 2, Type 0, BuildingBlock: OJICUG_clean_sbu_0, # of connection points: 6
#     Node 3, Type 0, BuildingBlock: OJICUG_clean_sbu_0, # of connection points: 6
#     Node 4, Type 0, BuildingBlock: OJICUG_clean_sbu_0, # of connection points: 6
#     Node 5, Type 0, BuildingBlock: OJICUG_clean_sbu_0, # of connection points: 6
#     Node 6, Type 0, BuildingBlock: OJICUG_clean_sbu_0, # of connection points: 6
#     Node 7, Type 0, BuildingBlock: OJICUG_clean_sbu_0, # of connection points: 6
#     Edge 8, Type (0, 0), BuildingBlock: OJICUG_clean_linker_0, # of connection points: 2
#     Edge 9, Type (0, 0), BuildingBlock: OJICUG_clean_linker_0, # of connection points: 2
#     Edge 10, Type (0, 0), BuildingBlock: OJICUG_clean_linker_0, # of connection points: 2
#     Edge 11, Type (0, 0), BuildingBlock: OJICUG_clean_linker_0, # of connection points: 2
#     Edge 12, Type (0, 0), BuildingBlock: OJICUG_clean_linker_0, # of connection points: 2
#     Edge 13, Type (0, 0), BuildingBlock: OJICUG_clean_linker_0, # of connection points: 2
#     Edge 14, Type (0, 0), BuildingBlock: OJICUG_clean_linker_0, # of connection points: 2
#     Edge 15, Type (0, 0), BuildingBlock: OJICUG_clean_linker_0, # of connection points: 2
#     Edge 16, Type (0, 0), BuildingBlock: OJICUG_clean_linker_0, # of connection points: 2
#     Edge 17, Type (0, 0), BuildingBlock: OJICUG_clean_linker_0, # of connection points: 2
#     Edge 18, Type (0, 0), BuildingBlock: OJICUG_clean_linker_0, # of connection points: 2
#     Edge 19, Type (0, 0), BuildingBlock: OJICUG_clean_linker_0, # of connection points: 2
#     Edge 20, Type (0, 0), BuildingBlock: OJICUG_clean_linker_0, # of connection points: 2
#     Edge 21, Type (0, 0), BuildingBlock: OJICUG_clean_linker_0, # of connection points: 2
#     Edge 22, Type (0, 0), BuildingBlock: OJICUG_clean_linker_0, # of connection points: 2
#     Edge 23, Type (0, 0), BuildingBlock: OJICUG_clean_linker_0, # of connection points: 2
#     Edge 24, Type (0, 0), BuildingBlock: OJICUG_clean_linker_0, # of connection points: 2
#     Edge 25, Type (0, 0), BuildingBlock: OJICUG_clean_linker_0, # of connection points: 2
#     Edge 26, Type (0, 0), BuildingBlock: OJICUG_clean_linker_0, # of connection points: 2
#     Edge 27, Type (0, 0), BuildingBlock: OJICUG_clean_linker_0, # of connection points: 2
#     Edge 28, Type (0, 0), BuildingBlock: OJICUG_clean_linker_0, # of connection points: 2
#     Edge 29, Type (0, 0), BuildingBlock: OJICUG_clean_linker_0, # of connection points: 2
#     Edge 30, Type (0, 0), BuildingBlock: OJICUG_clean_linker_0, # of connection points: 2
#     Edge 31, Type (0, 0), BuildingBlock: OJICUG_clean_linker_0, # of connection points: 2
# Relax obj value: 0.243
# Max RMSD: 0.270
# Mean RMSD: 0.270
data_MOF--net-vmh--node1-OJICUG_clean_sbu_0--edge1-OJICUG_clean_linker_0
_symmetry_space_group_name_H-M    P1
_symmetry_Int_Tables_number       1
_symmetry_cell_setting            triclinic
loop_
_symmetry_equiv_pos_as_xyz
'x, y, z'
_cell_length_a     21.944452
_cell_length_b     32.309487
_cell_length_c     22.783734
_cell_angle_alpha  89.907336
_cell_angle_beta   103.31954
_cell_angle_gamma 90.443317
loop_
_atom_site_label
_atom_site_type_symbol
_atom_site_fract_x
_atom_site_fract_y
_atom_site_fract_z
_atom_type_partial_charge
Sc0 Sc 0.23031 0.09144 0.10557 0.0
Sc1 Sc 0.24528 0.99998 0.02985 0.0
Sc2 Sc 0.32003 0.0871 0.00242 0.0
O3 O 0.26332 0.05946 0.04686 0.0
C4 C 0.25349 0.1656 0.0288 0.0
C5 C 0.11337 0.0348 0.03524 0.0
C6 C 0.22446 0.05097 0.90216 0.0
C7 C 0.25201 0.00353 0.17068 0.0
C8 C 0.38494 0.10191 0.13457 0.0
C9 C 0.36807 1.0006 -0.00056 0.0
O10 O 0.21173 0.14553 0.04743 0.0
O11 O 0.14919 0.00829 0.02064 0.0
O12 O 0.24532 0.08566 0.92538 0.0
O13 O 0.24279 0.04221 0.1691 0.0
O14 O 0.39033 0.08635 0.08434 0.0
O15 O 0.34298 0.98779 0.04047 0.0
O16 O 0.33081 0.11063 0.14577 0.0
O17 O 0.25657 0.98239 0.12458 0.0
O18 O 0.34541 0.03066 0.96762 0.0
O19 O 0.13314 0.06778 0.06613 0.0
O20 O 0.3038 0.14875 0.02515 0.0
O21 O 0.22858 0.0169 0.93279 0.0
Sc22 Sc 0.76027 0.09306 0.37813 0.0
Sc23 Sc 0.72474 0.00263 0.45061 0.0
Sc24 Sc 0.64557 0.09548 0.46188 0.0
O25 O 0.71109 0.06378 0.43097 0.0
C26 C 0.73964 0.169 0.46224 0.0
C27 C 0.86452 0.03715 0.4639 0.0
C28 C 0.70957 0.04284 0.57574 0.0
C29 C 0.75106 0.00236 0.32159 0.0
C30 C 0.61525 0.11742 0.32233 0.0
C31 C 0.57918 0.00787 0.43148 0.0
O32 O 0.76457 0.15317 0.42242 0.0
O33 O 0.82315 0.01099 0.47014 0.0
O34 O 0.68017 0.07474 0.55258 0.0
O35 O 0.76536 0.04031 0.32515 0.0
O36 O 0.60312 0.11829 0.37414 0.0
O37 O 0.62755 0.98663 0.43238 0.0
O38 O 0.67005 0.10865 0.31473 0.0
O39 O 0.72634 0.98403 0.35979 0.0
O40 O 0.58099 0.04615 0.44283 0.0
O41 O 0.85097 0.07205 0.43626 0.0
O42 O 0.70033 0.1496 0.48462 0.0
O43 O 0.7271 0.01445 0.54456 0.0
Sc44 Sc 0.74955 0.90929 0.88512 0.0
Sc45 Sc 0.73938 1.00096 0.962 0.0
Sc46 Sc 0.66025 0.91517 0.98846 0.0
O47 O 0.71807 0.94185 0.9442 0.0
C48 C 0.59433 0.90161 0.85561 0.0
C49 C 0.73379 0.99768 0.82188 0.0
C50 C 0.6166 0.00326 0.99203 0.0
C51 C 0.86929 0.96323 0.95642 0.0
C52 C 0.72417 0.83552 0.96154 0.0
C53 C 0.75792 0.94986 0.08891 0.0
O54 O 0.64811 0.89209 0.84423 0.0
O55 O 0.73002 0.01898 0.86799 0.0
O56 O 0.63686 0.9723 0.02316 0.0
O57 O 0.84787 0.93085 0.9248 0.0
O58 O 0.67452 0.85289 0.96624 0.0
O59 O 0.75486 0.98389 0.05844 0.0
O60 O 0.76599 0.85514 0.94251 0.0
O61 O 0.83484 0.9904 0.97153 0.0
O62 O 0.73501 0.91558 0.06577 0.0
O63 O 0.73969 0.95873 0.82284 0.0
O64 O 0.58974 0.91684 0.90632 0.0
O65 O 0.64258 0.01542 0.95129 0.0
Sc66 Sc 0.21759 0.90972 0.61115 0.0
Sc67 Sc 0.25158 0.99911 0.53874 0.0
Sc68 Sc 0.33609 0.90873 0.53603 0.0
O69 O 0.26482 0.93824 0.55823 0.0
C70 C 0.35944 0.88492 0.67069 0.0
C71 C 0.23025 1.00055 0.66713 0.0
C72 C 0.39433 0.98987 0.55157 0.0
C73 C 0.11277 0.96462 0.53064 0.0
C74 C 0.2449 0.83609 0.52311 0.0
C75 C 0.27244 0.96199 0.41873 0.0
O76 O 0.30747 0.89942 0.67792 0.0
O77 O 0.26257 0.0164 0.63267 0.0
O78 O 0.39002 0.95805 0.58169 0.0
O79 O 0.12724 0.92753 0.55011 0.0
O80 O 0.27937 0.85794 0.49721 0.0
O81 O 0.23788 0.98349 0.44486 0.0
O82 O 0.22281 0.84984 0.5667 0.0
O83 O 0.15357 0.99269 0.531 0.0
O84 O 0.31551 0.93834 0.44753 0.0
O85 O 0.20756 0.96425 0.65972 0.0
O86 O 0.36552 0.87481 0.61873 0.0
O87 O 0.34753 0.01346 0.53724 0.0
Sc88 Sc 0.73211 0.59027 0.10882 0.0
Sc89 Sc 0.74763 0.49818 0.03544 0.0
Sc90 Sc 0.8185 0.58585 0.00363 0.0
O91 O 0.7644 0.55795 0.05037 0.0
C92 C 0.75324 0.66422 0.0314 0.0
C93 C 0.61577 0.53145 0.04521 0.0
C94 C 0.71968 0.54911 0.90712 0.0
C95 C 0.75835 0.50324 0.17576 0.0
C96 C 0.88683 0.60003 0.13493 0.0
C97 C 0.8679 0.50027 -0.00117 0.0
O98 O 0.71205 0.64399 0.05046 0.0
O99 O 0.65196 0.50439 0.03253 0.0
O100 O 0.74062 0.58396 0.92972 0.0
O101 O 0.7455 0.54142 0.17258 0.0
O102 O 0.89089 0.58501 0.08392 0.0
O103 O 0.84499 0.48724 0.04119 0.0
O104 O 0.83332 0.60903 0.14747 0.0
O105 O 0.765 0.48175 0.13075 0.0
O106 O 0.84268 0.52965 0.96704 0.0
O107 O 0.63497 0.5666 0.07005 0.0
O108 O 0.80353 0.64752 0.02746 0.0
O109 O 0.72542 0.51503 0.938 0.0
Sc110 Sc 0.2631 0.59047 0.3769 0.0
Sc111 Sc 0.22856 0.49935 0.4436 0.0
Sc112 Sc 0.14199 0.58833 0.44898 0.0
O113 O 0.2143 0.56007 0.42649 0.0
C114 C 0.23306 0.66098 0.46799 0.0
C115 C 0.36729 0.53523 0.4572 0.0
C116 C 0.2027 0.53321 0.5635 0.0
C117 C 0.25422 0.50116 0.31687 0.0
C118 C 0.1226 0.616 0.317 0.0
C119 C 0.08292 0.50573 0.4231 0.0
O120 O 0.2554 0.6486 0.42388 0.0
O121 O 0.32677 0.50669 0.45459 0.0
O122 O 0.15837 0.55575 0.53456 0.0
O123 O 0.27579 0.53761 0.32627 0.0
O124 O 0.11693 0.62554 0.36923 0.0
O125 O 0.13206 0.48446 0.44021 0.0
O126 O 0.17424 0.60133 0.30928 0.0
O127 O 0.22119 0.484 0.34961 0.0
O128 O 0.08589 0.54062 0.39934 0.0
O129 O 0.3525 0.57253 0.4391 0.0
O130 O 0.19896 0.63799 0.49284 0.0
O131 O 0.23916 0.51325 0.5377 0.0
Sc132 Sc 0.2517 0.4104 0.88102 0.0
Sc133 Sc 0.23856 0.50309 0.95379 0.0
Sc134 Sc 0.16471 0.41667 0.9856 0.0
O135 O 0.21995 0.44351 0.93902 0.0
C136 C 0.0968 0.40258 0.85433 0.0
C137 C 0.22862 0.49754 0.81356 0.0
C138 C 0.11817 0.50327 0.98993 0.0
C139 C 0.36954 0.46787 0.94484 0.0
C140 C 0.22745 0.33706 0.95841 0.0
C141 C 0.26432 0.45241 0.08225 0.0
O142 O 0.15016 0.39283 0.84213 0.0
O143 O 0.22224 0.51929 0.85844 0.0
O144 O 0.14206 0.47351 0.02172 0.0
O145 O 0.34951 0.43286 0.92003 0.0
O146 O 0.17774 0.35452 0.96241 0.0
O147 O 0.25975 0.48642 0.0513 0.0
O148 O 0.26946 0.35668 0.93966 0.0
O149 O 0.33399 0.49543 0.95724 0.0
O150 O 0.24233 0.41777 0.05971 0.0
O151 O 0.24027 0.45916 0.81694 0.0
O152 O 0.0928 0.41808 0.90507 0.0
O153 O 0.1416 0.51558 0.94754 0.0
Sc154 Sc 0.72244 0.41335 0.60987 0.0
Sc155 Sc 0.75819 0.50502 0.54568 0.0
Sc156 Sc 0.84567 0.41632 0.54065 0.0
O157 O 0.77238 0.44424 0.56197 0.0
C158 C 0.86204 0.38734 0.67147 0.0
C159 C 0.73014 0.50202 0.67161 0.0
C160 C 0.90404 0.49872 0.56886 0.0
C161 C 0.61924 0.46891 0.52885 0.0
C162 C 0.75499 0.34377 0.51843 0.0
C163 C 0.78673 0.4717 0.42653 0.0
O164 O 0.81029 0.40215 0.67861 0.0
O165 O 0.76359 0.51963 0.63964 0.0
O166 O 0.90049 0.46377 0.59228 0.0
O167 O 0.6339 0.43154 0.54662 0.0
O168 O 0.78974 0.36693 0.4946 0.0
O169 O 0.74947 0.49145 0.45166 0.0
O170 O 0.73155 0.35589 0.562 0.0
O171 O 0.65973 0.49757 0.5326 0.0
O172 O 0.83142 0.44974 0.45606 0.0
O173 O 0.70853 0.46565 0.66113 0.0
O174 O 0.86844 0.37811 0.61941 0.0
O175 O 0.85508 0.52014 0.55149 0.0
C176 C 0.16987 0.01943 0.80552 0.0
C177 C 0.21412 0.04756 0.8366 0.0
H178 H 0.13847 0.9842 0.72555 0.0
C179 C 0.25684 0.06647 0.80698 0.0
H180 H 0.13636 0.00483 0.82741 0.0
C181 C 0.25971 0.05377 0.74907 0.0
C182 C 0.21933 0.02247 0.72033 0.0
H183 H 0.29177 0.08824 0.83056 0.0
H184 H 0.29632 0.06603 0.72906 0.0
C185 C 0.17174 0.00752 0.74745 0.0
C186 C 0.77594 1.00078 0.73085 0.0
C187 C 0.73526 0.01736 0.76405 0.0
H188 H 0.79969 0.99585 0.64551 0.0
C189 C 0.69106 0.04686 0.73716 0.0
H190 H 0.81107 0.97833 0.751 0.0
C191 C 0.68453 0.057 0.67614 0.0
C192 C 0.72197 0.03753 0.64174 0.0
H193 H 0.65906 0.05982 0.76188 0.0
H194 H 0.64791 0.07818 0.65516 0.0
C195 C 0.76924 0.01059 0.67037 0.0
C196 C 0.80882 0.9973 0.2407 0.0
C197 C 0.76394 0.98038 0.26945 0.0
H198 H 0.84264 1.00022 0.16001 0.0
C199 C 0.72798 0.94624 0.24371 0.0
H200 H 0.83882 0.02283 0.26061 0.0
C201 C 0.73151 0.93265 0.18642 0.0
C202 C 0.7706 0.95343 0.15462 0.0
H203 H 0.69375 0.93237 0.26537 0.0
H204 H 0.69921 0.90873 0.16485 0.0
C205 C 0.81169 0.98419 0.18346 0.0
C206 C 0.30495 0.96233 0.26149 0.0
C207 C 0.25248 0.98365 0.22898 0.0
H208 H 0.35289 0.93886 0.34792 0.0
C209 C 0.20431 0.99378 0.25755 0.0
H210 H 0.34315 0.95493 0.24062 0.0
C211 C 0.20989 0.98518 0.31845 0.0
C212 C 0.26398 0.96626 0.35248 0.0
H213 H 0.16346 0.01041 0.23333 0.0
H214 H 0.17261 0.99475 0.3393 0.0
C215 C 0.31063 0.95359 0.32295 0.0
C216 C 0.67268 0.50316 0.75352 0.0
C217 C 0.71701 0.52185 0.72548 0.0
H218 H 0.63873 0.49732 0.83397 0.0
C219 C 0.7519 0.55585 0.75313 0.0
H220 H 0.64337 0.47763 0.73253 0.0
C221 C 0.74737 0.56791 0.81078 0.0
C222 C 0.70862 0.54566 0.84145 0.0
H223 H 0.78566 0.57113 0.73231 0.0
H224 H 0.77852 0.59211 0.83332 0.0
C225 C 0.66923 0.51455 0.81138 0.0
C226 C 0.16461 0.54183 0.65903 0.0
C227 C 0.21164 0.52964 0.6297 0.0
H228 H 0.13353 0.5419 0.74206 0.0
C229 C 0.26746 0.51315 0.6642 0.0
H230 H 0.12112 0.55484 0.63364 0.0
C231 C 0.27463 0.50652 0.72574 0.0
C232 C 0.22628 0.51618 0.75431 0.0
H233 H 0.30506 0.50416 0.64342 0.0
H234 H 0.31691 0.49168 0.75061 0.0
C235 C 0.17186 0.53502 0.72108 0.0
C236 C 0.23122 0.44702 0.23592 0.0
C237 C 0.26716 0.48062 0.26349 0.0
H238 H 0.20366 0.41075 0.15584 0.0
C239 C 0.31241 0.49835 0.2357 0.0
H240 H 0.19674 0.43248 0.25659 0.0
C241 C 0.31574 0.48657 0.17798 0.0
C242 C 0.2753 0.45599 0.14787 0.0
H243 H 0.34254 0.5235 0.25674 0.0
H244 H 0.34698 0.50314 0.15549 0.0
C245 C 0.23561 0.43454 0.17842 0.0
C246 C 0.81842 0.46915 0.26948 0.0
C247 C 0.76187 0.48458 0.23509 0.0
H248 H 0.87116 0.4534 0.35808 0.0
C249 C 0.7123 0.49225 0.26295 0.0
H250 H 0.85768 0.46405 0.24904 0.0
C251 C 0.72013 0.48719 0.32486 0.0
C252 C 0.77777 0.47417 0.36033 0.0
H253 H 0.66847 0.50465 0.23716 0.0
H254 H 0.68148 0.49462 0.34512 0.0
C255 C 0.82626 0.46377 0.33186 0.0
C256 C 0.47685 0.00472 0.05189 0.0
C257 C 0.43229 0.99349 7e-05 0.0
H258 H 0.57224 0.02146 0.08805 0.0
C259 C 0.44802 0.99164 0.94385 0.0
H260 H 0.46434 0.00809 0.09497 0.0
C261 C 0.50814 0.00145 0.93927 0.0
C262 C 0.55288 0.01225 0.99119 0.0
H263 H 0.41285 0.98454 0.90314 0.0
H264 H 0.52064 0.9979 0.89621 0.0
C265 C 0.537 0.01452 0.04733 0.0
C266 C 0.48609 0.95935 0.5217 0.0
C267 C 0.43621 0.98747 0.51015 0.0
H268 H 0.57062 0.94069 0.49898 0.0
C269 C 0.42425 0.01061 0.45652 0.0
H270 H 0.49477 0.93973 0.56133 0.0
C271 C 0.46632 0.00967 0.41944 0.0
C272 C 0.52199 0.98724 0.43745 0.0
H273 H 0.38422 0.03088 0.44458 0.0
H274 H 0.46031 0.03138 0.38224 0.0
C275 C 0.52829 0.95868 0.48472 0.0
C276 C 0.94767 0.49514 0.94146 0.0
C277 C 0.9322 0.49428 -0.00211 0.0
H278 H 0.0206 0.50221 0.89431 0.0
C279 C 0.97768 0.50147 0.05078 0.0
H280 H 0.91203 0.49083 0.90015 0.0
C281 C 0.03854 0.5099 0.04713 0.0
C282 C 0.05411 0.51046 0.99073 0.0
H283 H 0.96563 0.50264 0.09429 0.0
H284 H 0.0742 0.51412 0.08845 0.0
C285 C 0.00855 0.50352 0.93781 0.0
C286 C 0.98133 0.52609 0.44345 0.0
C287 C 0.03398 0.50042 0.45665 0.0
H288 H 0.90062 0.5476 0.47039 0.0
C289 C 0.04542 0.47608 0.50919 0.0
H290 H 0.97177 0.54549 0.40357 0.0
C291 C 0.00547 0.47798 0.54828 0.0
C292 C 0.9529 0.50373 0.53514 0.0
H293 H 0.08634 0.45659 0.52137 0.0
H294 H 0.01498 0.45857 0.58815 0.0
C295 C 0.94148 0.52804 0.48258 0.0
C296 C 0.0143 0.00792 0.05711 0.0
C297 C 0.04668 0.02289 0.0151 0.0
H298 H 0.9341 0.9744 0.07118 0.0
C299 C 0.02366 0.01262 0.95369 0.0
H300 H 0.03243 0.0134 0.10487 0.0
C301 C 0.969 0.98872 0.93456 0.0
C302 C 0.93644 0.9739 0.97653 0.0
H303 H 0.04921 0.02227 0.92051 0.0
H304 H 0.95078 0.98337 0.88678 0.0
C305 C 0.95972 0.98396 0.038 0.0
C306 C 0.9427 0.98884 0.52688 0.0
C307 C 0.93007 0.02166 0.4844 0.0
H308 H 0.00872 0.94398 0.57338 0.0
C309 C 0.97698 0.03304 0.45491 0.0
H310 H 0.90748 0.97882 0.55034 0.0
C311 C 0.03452 0.01226 0.46745 0.0
C312 C 0.04707 0.97946 0.50983 0.0
H313 H 0.96869 0.05712 0.42094 0.0
H314 H 0.06995 0.02234 0.44427 0.0
C315 C 0.00022 0.96799 0.5393 0.0
C316 C 0.4546 0.51884 0.94549 0.0
C317 C 0.43641 0.47971 0.96375 0.0
H318 H 0.5243 0.5673 0.959 0.0
C319 C 0.47522 0.46061 0.0137 0.0
H320 H 0.42435 0.53507 0.90841 0.0
C321 C 0.53109 0.47996 0.04407 0.0
C322 C 0.54912 0.51916 0.02593 0.0
H323 H 0.46122 0.43157 0.03069 0.0
H324 H 0.56138 0.46375 0.08114 0.0
C325 C 0.51037 0.53822 0.97593 0.0
C326 C 0.50409 0.46591 0.52827 0.0
C327 C 0.55338 0.48312 0.50676 0.0
H328 H 0.40798 0.4702 0.53199 0.0
C329 C 0.54162 0.51943 0.47091 0.0
H330 H 0.5116 0.43884 0.55707 0.0
C331 C 0.48246 0.53809 0.45722 0.0
C332 C 0.43318 0.5209 0.47879 0.0
H333 H 0.57871 0.53384 0.4537 0.0
H334 H 0.47496 0.56519 0.42847 0.0
C335 C 0.44498 0.48459 0.51463 0.0
C336 C 0.44489 0.1283 0.23666 0.0
C337 C 0.44486 0.1103 0.18065 0.0
H338 H 0.49829 0.14617 0.32381 0.0
C339 C 0.50344 0.09952 0.16903 0.0
H340 H 0.40134 0.1375 0.24735 0.0
C341 C 0.55967 0.10446 0.21312 0.0
C342 C 0.55924 0.1206 0.27021 0.0
H343 H 0.50596 0.08603 0.12622 0.0
H344 H 0.60294 0.09375 0.20337 0.0
C345 C 0.50104 0.13349 0.28052 0.0
C346 C 0.53238 0.87641 0.75299 0.0
C347 C 0.53377 0.89449 0.80933 0.0
H348 H 0.47722 0.85829 0.6665 0.0
C349 C 0.47579 0.90631 0.82137 0.0
H350 H 0.57539 0.86663 0.74176 0.0
C351 C 0.41891 0.90157 0.778 0.0
C352 C 0.41774 0.88448 0.72107 0.0
H353 H 0.47418 0.92008 0.86425 0.0
H354 H 0.37611 0.91243 0.78859 0.0
C355 C 0.47547 0.87141 0.70978 0.0
C356 C 0.00523 0.59561 0.16724 0.0
C357 C 0.94768 0.60735 0.18026 0.0
H358 H 0.10494 0.58928 0.19885 0.0
C359 C 0.9497 0.62527 0.23677 0.0
H360 H 0.00625 0.58197 0.12413 0.0
C361 C 0.00692 0.63012 0.27935 0.0
C362 C 0.06419 0.61695 0.26718 0.0
H363 H 0.90696 0.63497 0.24864 0.0
H364 H 0.00576 0.64308 0.32288 0.0
C365 C 0.06243 0.60015 0.21001 0.0
C366 C 0.97693 0.37178 0.7104 0.0
C367 C 0.91989 0.38606 0.72175 0.0
H368 H 0.07663 0.36596 0.74189 0.0
C369 C 0.92161 0.4038 0.77832 0.0
H370 H 0.97806 0.35802 0.66735 0.0
C371 C 0.97867 0.40826 0.82126 0.0
C372 C 0.03605 0.39546 0.80895 0.0
H373 H 0.87924 0.41555 0.78879 0.0
H374 H 0.97773 0.42271 0.86386 0.0
C375 C 0.034 0.37653 0.75313 0.0
C376 C 0.29503 0.23041 0.99246 0.0
C377 C 0.24607 0.20954 0.01133 0.0
H378 H 0.32769 0.2869 0.96082 0.0
C379 C 0.19113 0.23088 0.01223 0.0
H380 H 0.33826 0.21487 0.99115 0.0
C381 C 0.18531 0.27228 -0.00536 0.0
C382 C 0.23433 0.29311 0.97581 0.0
H383 H 0.1527 0.21568 0.02632 0.0
H384 H 0.14214 0.28791 -0.00409 0.0
C385 C 0.28921 0.27175 0.97488 0.0
C386 C 0.72373 0.22907 0.52534 0.0
C387 C 0.74921 0.21333 0.47866 0.0
H388 H 0.70371 0.282 0.57299 0.0
C389 C 0.77598 0.24113 0.44411 0.0
H390 H 0.70262 0.20871 0.55302 0.0
C391 C 0.77637 0.28376 0.45565 0.0
C392 C 0.74975 0.29936 0.50176 0.0
H393 H 0.79527 0.23012 0.40737 0.0
H394 H 0.79763 0.30444 0.42851 0.0
C395 C 0.72365 0.27138 0.53645 0.0
C396 C 0.78651 0.77052 0.97672 0.0
C397 C 0.73162 0.79159 0.97869 0.0
H398 H 0.83632 0.71388 0.99204 0.0
C399 C 0.68339 0.77048 -0.00165 0.0
H400 H 0.8244 0.7859 0.96196 0.0
C401 C 0.69003 0.72909 0.0158 0.0
C402 C 0.74501 0.70807 0.01392 0.0
H403 H 0.64028 0.7859 0.00043 0.0
H404 H 0.65222 0.71366 0.03062 0.0
C405 C 0.79314 0.7292 0.99415 0.0
C406 C 0.21125 0.72101 0.53003 0.0
C407 C 0.23882 0.70542 0.48462 0.0
H408 H 0.19027 0.77444 0.57711 0.0
C409 C 0.26607 0.73342 0.45078 0.0
H410 H 0.18926 0.70039 0.55664 0.0
C411 C 0.26564 0.77585 0.46182 0.0
C412 C 0.23831 0.79152 0.5073 0.0
H413 H 0.28703 0.72272 0.41497 0.0
H414 H 0.28755 0.79631 0.43492 0.0
C415 C 0.21104 0.76357 0.54126 0.0
loop_
_geom_bond_atom_site_label_1
_geom_bond_atom_site_label_2
_geom_bond_distance
_geom_bond_site_symmetry_2
_ccdc_geom_bond_type
Sc0 O3 2.025 . S
Sc0 O10 2.105 . S
Sc0 O13 2.105 . S
Sc0 O16 2.105 . S
Sc0 O19 2.105 . S
Sc1 O3 2.025 . S
Sc1 O11 2.105 . S
Sc1 O15 2.105 1_545 S
Sc1 O17 2.105 1_545 S
Sc1 O21 2.105 1_554 S
Sc2 O3 2.025 . S
Sc2 O12 2.105 1_554 S
Sc2 O14 2.105 . S
Sc2 O18 2.105 . S
Sc2 O20 2.105 1_554 S
O3 Sc0 2.025 . S
O3 Sc1 2.025 . S
O3 Sc2 2.025 . S
C4 O10 1.268 . S
C4 O20 1.268 1_554 S
C5 O11 1.268 . S
C5 O19 1.268 . S
C6 O12 1.268 . S
C6 O21 1.268 . S
C7 O13 1.268 . S
C7 O17 1.268 1_545 S
C8 O14 1.268 . S
C8 O16 1.268 . S
C9 O15 1.268 1_545 S
C9 O18 1.268 . S
O10 Sc0 2.105 . S
O10 C4 1.268 . S
O11 Sc1 2.105 . S
O11 C5 1.268 . S
O12 Sc2 2.105 1_556 S
O12 C6 1.268 . S
O13 Sc0 2.105 . S
O13 C7 1.268 . S
O14 Sc2 2.105 . S
O14 C8 1.268 . S
O15 Sc1 2.105 1_565 S
O15 C9 1.268 1_565 S
O16 Sc0 2.105 . S
O16 C8 1.268 . S
O17 Sc1 2.105 1_565 S
O17 C7 1.268 1_565 S
O18 Sc2 2.105 . S
O18 C9 1.268 . S
O19 Sc0 2.105 . S
O19 C5 1.268 . S
O20 Sc2 2.105 1_556 S
O20 C4 1.268 1_556 S
O21 Sc1 2.105 1_556 S
O21 C6 1.268 . S
Sc22 O25 2.025 . S
Sc22 O32 2.105 . S
Sc22 O35 2.105 . S
Sc22 O38 2.105 . S
Sc22 O41 2.105 . S
Sc23 O25 2.025 . S
Sc23 O33 2.105 . S
Sc23 O37 2.105 1_545 S
Sc23 O39 2.105 1_545 S
Sc23 O43 2.105 . S
Sc24 O25 2.025 . S
Sc24 O34 2.105 . S
Sc24 O36 2.105 . S
Sc24 O40 2.105 . S
Sc24 O42 2.105 . S
O25 Sc22 2.025 . S
O25 Sc23 2.025 . S
O25 Sc24 2.025 . S
C26 O32 1.268 . S
C26 O42 1.268 . S
C27 O33 1.268 . S
C27 O41 1.268 . S
C28 O34 1.268 . S
C28 O43 1.268 . S
C29 O35 1.268 . S
C29 O39 1.268 1_545 S
C30 O36 1.268 . S
C30 O38 1.268 . S
C31 O37 1.268 1_545 S
C31 O40 1.268 . S
O32 Sc22 2.105 . S
O32 C26 1.268 . S
O33 Sc23 2.105 . S
O33 C27 1.268 . S
O34 Sc24 2.105 . S
O34 C28 1.268 . S
O35 Sc22 2.105 . S
O35 C29 1.268 . S
O36 Sc24 2.105 . S
O36 C30 1.268 . S
O37 Sc23 2.105 1_565 S
O37 C31 1.268 1_565 S
O38 Sc22 2.105 . S
O38 C30 1.268 . S
O39 Sc23 2.105 1_565 S
O39 C29 1.268 1_565 S
O40 Sc24 2.105 . S
O40 C31 1.268 . S
O41 Sc22 2.105 . S
O41 C27 1.268 . S
O42 Sc24 2.105 . S
O42 C26 1.268 . S
O43 Sc23 2.105 . S
O43 C28 1.268 . S
Sc44 O47 2.025 . S
Sc44 O54 2.105 . S
Sc44 O57 2.105 . S
Sc44 O60 2.105 . S
Sc44 O63 2.105 . S
Sc45 O47 2.025 . S
Sc45 O55 2.105 1_565 S
Sc45 O59 2.105 1_556 S
Sc45 O61 2.105 . S
Sc45 O65 2.105 1_565 S
Sc46 O47 2.025 . S
Sc46 O56 2.105 . S
Sc46 O58 2.105 1_556 S
Sc46 O62 2.105 1_556 S
Sc46 O64 2.105 . S
O47 Sc44 2.025 . S
O47 Sc45 2.025 . S
O47 Sc46 2.025 . S
C48 O54 1.268 . S
C48 O64 1.268 . S
C49 O55 1.268 1_565 S
C49 O63 1.268 . S
C50 O56 1.268 . S
C50 O65 1.268 1_565 S
C51 O57 1.268 . S
C51 O61 1.268 . S
C52 O58 1.268 1_556 S
C52 O60 1.268 . S
C53 O59 1.268 . S
C53 O62 1.268 . S
O54 Sc44 2.105 . S
O54 C48 1.268 . S
O55 Sc45 2.105 1_545 S
O55 C49 1.268 1_545 S
O56 Sc46 2.105 . S
O56 C50 1.268 . S
O57 Sc44 2.105 . S
O57 C51 1.268 . S
O58 Sc46 2.105 1_554 S
O58 C52 1.268 1_554 S
O59 Sc45 2.105 1_554 S
O59 C53 1.268 . S
O60 Sc44 2.105 . S
O60 C52 1.268 . S
O61 Sc45 2.105 . S
O61 C51 1.268 . S
O62 Sc46 2.105 1_554 S
O62 C53 1.268 . S
O63 Sc44 2.105 . S
O63 C49 1.268 . S
O64 Sc46 2.105 . S
O64 C48 1.268 . S
O65 Sc45 2.105 1_545 S
O65 C50 1.268 1_545 S
Sc66 O69 2.025 . S
Sc66 O76 2.105 . S
Sc66 O79 2.105 . S
Sc66 O82 2.105 . S
Sc66 O85 2.105 . S
Sc67 O69 2.025 . S
Sc67 O77 2.105 1_565 S
Sc67 O81 2.105 . S
Sc67 O83 2.105 . S
Sc67 O87 2.105 1_565 S
Sc68 O69 2.025 . S
Sc68 O78 2.105 . S
Sc68 O80 2.105 . S
Sc68 O84 2.105 . S
Sc68 O86 2.105 . S
O69 Sc66 2.025 . S
O69 Sc67 2.025 . S
O69 Sc68 2.025 . S
C70 O76 1.268 . S
C70 O86 1.268 . S
C71 O77 1.268 1_565 S
C71 O85 1.268 . S
C72 O78 1.268 . S
C72 O87 1.268 1_565 S
C73 O79 1.268 . S
C73 O83 1.268 . S
C74 O80 1.268 . S
C74 O82 1.268 . S
C75 O81 1.268 . S
C75 O84 1.268 . S
O76 Sc66 2.105 . S
O76 C70 1.268 . S
O77 Sc67 2.105 1_545 S
O77 C71 1.268 1_545 S
O78 Sc68 2.105 . S
O78 C72 1.268 . S
O79 Sc66 2.105 . S
O79 C73 1.268 . S
O80 Sc68 2.105 . S
O80 C74 1.268 . S
O81 Sc67 2.105 . S
O81 C75 1.268 . S
O82 Sc66 2.105 . S
O82 C74 1.268 . S
O83 Sc67 2.105 . S
O83 C73 1.268 . S
O84 Sc68 2.105 . S
O84 C75 1.268 . S
O85 Sc66 2.105 . S
O85 C71 1.268 . S
O86 Sc68 2.105 . S
O86 C70 1.268 . S
O87 Sc67 2.105 1_545 S
O87 C72 1.268 1_545 S
Sc88 O91 2.025 . S
Sc88 O98 2.105 . S
Sc88 O101 2.105 . S
Sc88 O104 2.105 . S
Sc88 O107 2.105 . S
Sc89 O91 2.025 . S
Sc89 O99 2.105 . S
Sc89 O103 2.105 . S
Sc89 O105 2.105 . S
Sc89 O109 2.105 1_554 S
Sc90 O91 2.025 . S
Sc90 O100 2.105 1_554 S
Sc90 O102 2.105 . S
Sc90 O106 2.105 . S
Sc90 O108 2.105 1_554 S
O91 Sc88 2.025 . S
O91 Sc89 2.025 . S
O91 Sc90 2.025 . S
C92 O98 1.268 . S
C92 O108 1.268 1_554 S
C93 O99 1.268 . S
C93 O107 1.268 . S
C94 O100 1.268 . S
C94 O109 1.268 . S
C95 O101 1.268 . S
C95 O105 1.268 . S
C96 O102 1.268 . S
C96 O104 1.268 . S
C97 O103 1.268 . S
C97 O106 1.268 . S
O98 Sc88 2.105 . S
O98 C92 1.268 . S
O99 Sc89 2.105 . S
O99 C93 1.268 . S
O100 Sc90 2.105 1_556 S
O100 C94 1.268 . S
O101 Sc88 2.105 . S
O101 C95 1.268 . S
O102 Sc90 2.105 . S
O102 C96 1.268 . S
O103 Sc89 2.105 . S
O103 C97 1.268 . S
O104 Sc88 2.105 . S
O104 C96 1.268 . S
O105 Sc89 2.105 . S
O105 C95 1.268 . S
O106 Sc90 2.105 . S
O106 C97 1.268 . S
O107 Sc88 2.105 . S
O107 C93 1.268 . S
O108 Sc90 2.105 1_556 S
O108 C92 1.268 1_556 S
O109 Sc89 2.105 1_556 S
O109 C94 1.268 . S
Sc110 O113 2.025 . S
Sc110 O120 2.105 . S
Sc110 O123 2.105 . S
Sc110 O126 2.105 . S
Sc110 O129 2.105 . S
Sc111 O113 2.025 . S
Sc111 O121 2.105 . S
Sc111 O125 2.105 . S
Sc111 O127 2.105 . S
Sc111 O131 2.105 . S
Sc112 O113 2.025 . S
Sc112 O122 2.105 . S
Sc112 O124 2.105 . S
Sc112 O128 2.105 . S
Sc112 O130 2.105 . S
O113 Sc110 2.025 . S
O113 Sc111 2.025 . S
O113 Sc112 2.025 . S
C114 O120 1.268 . S
C114 O130 1.268 . S
C115 O121 1.268 . S
C115 O129 1.268 . S
C116 O122 1.268 . S
C116 O131 1.268 . S
C117 O123 1.268 . S
C117 O127 1.268 . S
C118 O124 1.268 . S
C118 O126 1.268 . S
C119 O125 1.268 . S
C119 O128 1.268 . S
O120 Sc110 2.105 . S
O120 C114 1.268 . S
O121 Sc111 2.105 . S
O121 C115 1.268 . S
O122 Sc112 2.105 . S
O122 C116 1.268 . S
O123 Sc110 2.105 . S
O123 C117 1.268 . S
O124 Sc112 2.105 . S
O124 C118 1.268 . S
O125 Sc111 2.105 . S
O125 C119 1.268 . S
O126 Sc110 2.105 . S
O126 C118 1.268 . S
O127 Sc111 2.105 . S
O127 C117 1.268 . S
O128 Sc112 2.105 . S
O128 C119 1.268 . S
O129 Sc110 2.105 . S
O129 C115 1.268 . S
O130 Sc112 2.105 . S
O130 C114 1.268 . S
O131 Sc111 2.105 . S
O131 C116 1.268 . S
Sc132 O135 2.025 . S
Sc132 O142 2.105 . S
Sc132 O145 2.105 . S
Sc132 O148 2.105 . S
Sc132 O151 2.105 . S
Sc133 O135 2.025 . S
Sc133 O143 2.105 . S
Sc133 O147 2.105 1_556 S
Sc133 O149 2.105 . S
Sc133 O153 2.105 . S
Sc134 O135 2.025 . S
Sc134 O144 2.105 . S
Sc134 O146 2.105 1_556 S
Sc134 O150 2.105 1_556 S
Sc134 O152 2.105 . S
O135 Sc132 2.025 . S
O135 Sc133 2.025 . S
O135 Sc134 2.025 . S
C136 O142 1.268 . S
C136 O152 1.268 . S
C137 O143 1.268 . S
C137 O151 1.268 . S
C138 O144 1.268 . S
C138 O153 1.268 . S
C139 O145 1.268 . S
C139 O149 1.268 . S
C140 O146 1.268 1_556 S
C140 O148 1.268 . S
C141 O147 1.268 . S
C141 O150 1.268 . S
O142 Sc132 2.105 . S
O142 C136 1.268 . S
O143 Sc133 2.105 . S
O143 C137 1.268 . S
O144 Sc134 2.105 . S
O144 C138 1.268 . S
O145 Sc132 2.105 . S
O145 C139 1.268 . S
O146 Sc134 2.105 1_554 S
O146 C140 1.268 1_554 S
O147 Sc133 2.105 1_554 S
O147 C141 1.268 . S
O148 Sc132 2.105 . S
O148 C140 1.268 . S
O149 Sc133 2.105 . S
O149 C139 1.268 . S
O150 Sc134 2.105 1_554 S
O150 C141 1.268 . S
O151 Sc132 2.105 . S
O151 C137 1.268 . S
O152 Sc134 2.105 . S
O152 C136 1.268 . S
O153 Sc133 2.105 . S
O153 C138 1.268 . S
Sc154 O157 2.025 . S
Sc154 O164 2.105 . S
Sc154 O167 2.105 . S
Sc154 O170 2.105 . S
Sc154 O173 2.105 . S
Sc155 O157 2.025 . S
Sc155 O165 2.105 . S
Sc155 O169 2.105 . S
Sc155 O171 2.105 . S
Sc155 O175 2.105 . S
Sc156 O157 2.025 . S
Sc156 O166 2.105 . S
Sc156 O168 2.105 . S
Sc156 O172 2.105 . S
Sc156 O174 2.105 . S
O157 Sc154 2.025 . S
O157 Sc155 2.025 . S
O157 Sc156 2.025 . S
C158 O164 1.268 . S
C158 O174 1.268 . S
C159 O165 1.268 . S
C159 O173 1.268 . S
C160 O166 1.268 . S
C160 O175 1.268 . S
C161 O167 1.268 . S
C161 O171 1.268 . S
C162 O168 1.268 . S
C162 O170 1.268 . S
C163 O169 1.268 . S
C163 O172 1.268 . S
O164 Sc154 2.105 . S
O164 C158 1.268 . S
O165 Sc155 2.105 . S
O165 C159 1.268 . S
O166 Sc156 2.105 . S
O166 C160 1.268 . S
O167 Sc154 2.105 . S
O167 C161 1.268 . S
O168 Sc156 2.105 . S
O168 C162 1.268 . S
O169 Sc155 2.105 . S
O169 C163 1.268 . S
O170 Sc154 2.105 . S
O170 C162 1.268 . S
O171 Sc155 2.105 . S
O171 C161 1.268 . S
O172 Sc156 2.105 . S
O172 C163 1.268 . S
O173 Sc154 2.105 . S
O173 C159 1.268 . S
O174 Sc156 2.105 . S
O174 C158 1.268 . S
O175 Sc155 2.105 . S
O175 C160 1.268 . S
C176 C177 1.387 . S
C176 H180 0.950 . S
C176 C185 1.390 . S
C177 C176 1.387 . S
C177 C179 1.387 . S
H178 C185 0.950 . S
C179 C177 1.387 . S
C179 C181 1.390 . S
C179 H183 0.950 . S
H180 C176 0.950 . S
C181 C179 1.390 . S
C181 C182 1.387 . S
C181 H184 0.950 . S
C182 C181 1.387 . S
C182 C185 1.387 . S
H183 C179 0.950 . S
H184 C181 0.950 . S
C185 C176 1.390 . S
C185 H178 0.950 . S
C185 C182 1.387 . S
C186 C187 1.387 . S
C186 H190 0.950 . S
C186 C195 1.390 . S
C187 C186 1.387 . S
C187 C189 1.387 . S
H188 C195 0.950 . S
C189 C187 1.387 . S
C189 C191 1.390 . S
C189 H193 0.950 . S
H190 C186 0.950 . S
C191 C189 1.390 . S
C191 C192 1.387 . S
C191 H194 0.950 . S
C192 C191 1.387 . S
C192 C195 1.387 . S
H193 C189 0.950 . S
H194 C191 0.950 . S
C195 C186 1.390 . S
C195 H188 0.950 . S
C195 C192 1.387 . S
C196 C197 1.387 . S
C196 H200 0.950 . S
C196 C205 1.390 . S
C197 C196 1.387 . S
C197 C199 1.387 . S
H198 C205 0.950 . S
C199 C197 1.387 . S
C199 C201 1.390 . S
C199 H203 0.950 . S
H200 C196 0.950 . S
C201 C199 1.390 . S
C201 C202 1.387 . S
C201 H204 0.950 . S
C202 C201 1.387 . S
C202 C205 1.387 . S
H203 C199 0.950 . S
H204 C201 0.950 . S
C205 C196 1.390 . S
C205 H198 0.950 . S
C205 C202 1.387 . S
C206 C207 1.387 . S
C206 H210 0.950 . S
C206 C215 1.390 . S
C207 C206 1.387 . S
C207 C209 1.387 . S
H208 C215 0.950 . S
C209 C207 1.387 . S
C209 C211 1.390 . S
C209 H213 0.950 . S
H210 C206 0.950 . S
C211 C209 1.390 . S
C211 C212 1.387 . S
C211 H214 0.950 . S
C212 C211 1.387 . S
C212 C215 1.387 . S
H213 C209 0.950 . S
H214 C211 0.950 . S
C215 C206 1.390 . S
C215 H208 0.950 . S
C215 C212 1.387 . S
C216 C217 1.387 . S
C216 H220 0.950 . S
C216 C225 1.390 . S
C217 C216 1.387 . S
C217 C219 1.387 . S
H218 C225 0.950 . S
C219 C217 1.387 . S
C219 C221 1.390 . S
C219 H223 0.950 . S
H220 C216 0.950 . S
C221 C219 1.390 . S
C221 C222 1.387 . S
C221 H224 0.950 . S
C222 C221 1.387 . S
C222 C225 1.387 . S
H223 C219 0.950 . S
H224 C221 0.950 . S
C225 C216 1.390 . S
C225 H218 0.950 . S
C225 C222 1.387 . S
C226 C227 1.387 . S
C226 H230 0.950 . S
C226 C235 1.390 . S
C227 C226 1.387 . S
C227 C229 1.387 . S
H228 C235 0.950 . S
C229 C227 1.387 . S
C229 C231 1.390 . S
C229 H233 0.950 . S
H230 C226 0.950 . S
C231 C229 1.390 . S
C231 C232 1.387 . S
C231 H234 0.950 . S
C232 C231 1.387 . S
C232 C235 1.387 . S
H233 C229 0.950 . S
H234 C231 0.950 . S
C235 C226 1.390 . S
C235 H228 0.950 . S
C235 C232 1.387 . S
C236 C237 1.387 . S
C236 H240 0.950 . S
C236 C245 1.390 . S
C237 C236 1.387 . S
C237 C239 1.387 . S
H238 C245 0.950 . S
C239 C237 1.387 . S
C239 C241 1.390 . S
C239 H243 0.950 . S
H240 C236 0.950 . S
C241 C239 1.390 . S
C241 C242 1.387 . S
C241 H244 0.950 . S
C242 C241 1.387 . S
C242 C245 1.387 . S
H243 C239 0.950 . S
H244 C241 0.950 . S
C245 C236 1.390 . S
C245 H238 0.950 . S
C245 C242 1.387 . S
C246 C247 1.387 . S
C246 H250 0.950 . S
C246 C255 1.390 . S
C247 C246 1.387 . S
C247 C249 1.387 . S
H248 C255 0.950 . S
C249 C247 1.387 . S
C249 C251 1.390 . S
C249 H253 0.950 . S
H250 C246 0.950 . S
C251 C249 1.390 . S
C251 C252 1.387 . S
C251 H254 0.950 . S
C252 C251 1.387 . S
C252 C255 1.387 . S
H253 C249 0.950 . S
H254 C251 0.950 . S
C255 C246 1.390 . S
C255 H248 0.950 . S
C255 C252 1.387 . S
C256 C257 1.387 1_545 S
C256 H260 0.950 . S
C256 C265 1.390 1_554 S
C257 C256 1.387 1_565 S
C257 C259 1.387 . S
H258 C265 0.950 . S
C259 C257 1.387 . S
C259 C261 1.390 1_554 S
C259 H263 0.950 . S
H260 C256 0.950 . S
C261 C259 1.390 1_556 S
C261 C262 1.387 1_565 S
C261 H264 0.950 . S
C262 C261 1.387 1_545 S
C262 C265 1.387 . S
H263 C259 0.950 . S
H264 C261 0.950 . S
C265 C256 1.390 1_556 S
C265 H258 0.950 . S
C265 C262 1.387 . S
C266 C267 1.387 1_565 S
C266 H270 0.950 . S
C266 C275 1.390 . S
C267 C266 1.387 1_545 S
C267 C269 1.387 . S
H268 C275 0.950 . S
C269 C267 1.387 . S
C269 C271 1.390 . S
C269 H273 0.950 . S
H270 C266 0.950 . S
C271 C269 1.390 . S
C271 C272 1.387 1_545 S
C271 H274 0.950 . S
C272 C271 1.387 1_565 S
C272 C275 1.387 . S
H273 C269 0.950 . S
H274 C271 0.950 . S
C275 C266 1.390 . S
C275 H268 0.950 . S
C275 C272 1.387 . S
C276 C277 1.387 . S
C276 H280 0.950 . S
C276 C285 1.390 1_655 S
C277 C276 1.387 . S
C277 C279 1.387 1_554 S
H278 C285 0.950 . S
C279 C277 1.387 1_556 S
C279 C281 1.390 1_655 S
C279 H283 0.950 . S
H280 C276 0.950 . S
C281 C279 1.390 1_455 S
C281 C282 1.387 . S
C281 H284 0.950 . S
C282 C281 1.387 . S
C282 C285 1.387 1_556 S
H283 C279 0.950 . S
H284 C281 0.950 . S
C285 C276 1.390 1_455 S
C285 H278 0.950 . S
C285 C282 1.387 1_554 S
C286 C287 1.396 . S
C286 H290 0.949 . S
C286 C295 1.380 1_455 S
C287 C286 1.396 . S
C287 C289 1.387 . S
H288 C295 0.950 . S
C289 C287 1.387 . S
C289 C291 1.380 1_455 S
C289 H293 0.950 . S
H290 C286 0.949 . S
C291 C289 1.380 1_655 S
C291 C292 1.396 . S
C291 H294 0.949 . S
C292 C291 1.396 . S
C292 C295 1.387 . S
H293 C289 0.950 . S
H294 C291 0.949 . S
C295 C286 1.380 1_655 S
C295 H288 0.950 . S
C295 C292 1.387 . S
C296 C297 1.387 . S
C296 H300 0.950 . S
C296 C305 1.390 1_445 S
C297 C296 1.387 . S
C297 C299 1.387 1_554 S
H298 C305 0.950 . S
C299 C297 1.387 1_556 S
C299 C301 1.390 1_445 S
C299 H303 0.950 . S
H300 C296 0.950 . S
C301 C299 1.390 1_665 S
C301 C302 1.387 . S
C301 H304 0.950 . S
C302 C301 1.387 . S
C302 C305 1.387 1_556 S
H303 C299 0.950 . S
H304 C301 0.950 . S
C305 C296 1.390 1_665 S
C305 H298 0.950 . S
C305 C302 1.387 1_554 S
C306 C307 1.387 . S
C306 H310 0.950 . S
C306 C315 1.390 1_645 S
C307 C306 1.387 . S
C307 C309 1.387 . S
H308 C315 0.950 . S
C309 C307 1.387 . S
C309 C311 1.390 1_645 S
C309 H313 0.950 . S
H310 C306 0.950 . S
C311 C309 1.390 1_465 S
C311 C312 1.387 . S
C311 H314 0.950 . S
C312 C311 1.387 . S
C312 C315 1.387 . S
H313 C309 0.950 . S
H314 C311 0.950 . S
C315 C306 1.390 1_465 S
C315 H308 0.950 . S
C315 C312 1.387 . S
C316 C317 1.387 . S
C316 H320 0.950 . S
C316 C325 1.390 . S
C317 C316 1.387 . S
C317 C319 1.387 1_556 S
H318 C325 0.950 . S
C319 C317 1.387 1_554 S
C319 C321 1.390 . S
C319 H323 0.950 . S
H320 C316 0.950 . S
C321 C319 1.390 . S
C321 C322 1.387 . S
C321 H324 0.950 . S
C322 C321 1.387 . S
C322 C325 1.387 1_554 S
H323 C319 0.950 . S
H324 C321 0.950 . S
C325 C316 1.390 . S
C325 H318 0.950 . S
C325 C322 1.387 1_556 S
C326 C327 1.387 . S
C326 H330 0.950 . S
C326 C335 1.390 . S
C327 C326 1.387 . S
C327 C329 1.387 . S
H328 C335 0.950 . S
C329 C327 1.387 . S
C329 C331 1.390 . S
C329 H333 0.950 . S
H330 C326 0.950 . S
C331 C329 1.390 . S
C331 C332 1.387 . S
C331 H334 0.950 . S
C332 C331 1.387 . S
C332 C335 1.387 . S
H333 C329 0.950 . S
H334 C331 0.950 . S
C335 C326 1.390 . S
C335 H328 0.950 . S
C335 C332 1.387 . S
C336 C337 1.387 . S
C336 H340 0.950 . S
C336 C345 1.390 . S
C337 C336 1.387 . S
C337 C339 1.387 . S
H338 C345 0.950 . S
C339 C337 1.387 . S
C339 C341 1.390 . S
C339 H343 0.950 . S
H340 C336 0.950 . S
C341 C339 1.390 . S
C341 C342 1.387 . S
C341 H344 0.950 . S
C342 C341 1.387 . S
C342 C345 1.387 . S
H343 C339 0.950 . S
H344 C341 0.950 . S
C345 C336 1.390 . S
C345 H338 0.950 . S
C345 C342 1.387 . S
C346 C347 1.387 . S
C346 H350 0.950 . S
C346 C355 1.390 . S
C347 C346 1.387 . S
C347 C349 1.387 . S
H348 C355 0.950 . S
C349 C347 1.387 . S
C349 C351 1.390 . S
C349 H353 0.950 . S
H350 C346 0.950 . S
C351 C349 1.390 . S
C351 C352 1.387 . S
C351 H354 0.950 . S
C352 C351 1.387 . S
C352 C355 1.387 . S
H353 C349 0.950 . S
H354 C351 0.950 . S
C355 C346 1.390 . S
C355 H348 0.950 . S
C355 C352 1.387 . S
C356 C357 1.387 . S
C356 H360 0.950 . S
C356 C365 1.390 1_655 S
C357 C356 1.387 . S
C357 C359 1.387 . S
H358 C365 0.950 . S
C359 C357 1.387 . S
C359 C361 1.390 1_655 S
C359 H363 0.950 . S
H360 C356 0.950 . S
C361 C359 1.390 1_455 S
C361 C362 1.387 . S
C361 H364 0.950 . S
C362 C361 1.387 . S
C362 C365 1.387 . S
H363 C359 0.950 . S
H364 C361 0.950 . S
C365 C356 1.390 1_455 S
C365 H358 0.950 . S
C365 C362 1.387 . S
C366 C367 1.387 . S
C366 H370 0.950 . S
C366 C375 1.390 1_655 S
C367 C366 1.387 . S
C367 C369 1.387 . S
H368 C375 0.950 . S
C369 C367 1.387 . S
C369 C371 1.390 1_655 S
C369 H373 0.950 . S
H370 C366 0.950 . S
C371 C369 1.390 1_455 S
C371 C372 1.387 . S
C371 H374 0.950 . S
C372 C371 1.387 . S
C372 C375 1.387 . S
H373 C369 0.950 . S
H374 C371 0.950 . S
C375 C366 1.390 1_455 S
C375 H368 0.950 . S
C375 C372 1.387 . S
C376 C377 1.387 1_556 S
C376 H380 0.950 . S
C376 C385 1.390 . S
C377 C376 1.387 1_554 S
C377 C379 1.387 . S
H378 C385 0.950 . S
C379 C377 1.387 . S
C379 C381 1.390 . S
C379 H383 0.950 . S
H380 C376 0.950 . S
C381 C379 1.390 . S
C381 C382 1.387 1_554 S
C381 H384 0.950 . S
C382 C381 1.387 1_556 S
C382 C385 1.387 . S
H383 C379 0.950 . S
H384 C381 0.950 . S
C385 C376 1.390 . S
C385 H378 0.950 . S
C385 C382 1.387 . S
C386 C387 1.387 . S
C386 H390 0.950 . S
C386 C395 1.390 . S
C387 C386 1.387 . S
C387 C389 1.387 . S
H388 C395 0.950 . S
C389 C387 1.387 . S
C389 C391 1.390 . S
C389 H393 0.950 . S
H390 C386 0.950 . S
C391 C389 1.390 . S
C391 C392 1.387 . S
C391 H394 0.950 . S
C392 C391 1.387 . S
C392 C395 1.387 . S
H393 C389 0.950 . S
H394 C391 0.950 . S
C395 C386 1.390 . S
C395 H388 0.950 . S
C395 C392 1.387 . S
C396 C397 1.387 . S
C396 H400 0.950 . S
C396 C405 1.390 . S
C397 C396 1.387 . S
C397 C399 1.387 1_556 S
H398 C405 0.950 . S
C399 C397 1.387 1_554 S
C399 C401 1.390 . S
C399 H403 0.950 . S
H400 C396 0.950 . S
C401 C399 1.390 . S
C401 C402 1.387 . S
C401 H404 0.950 . S
C402 C401 1.387 . S
C402 C405 1.387 1_554 S
H403 C399 0.950 . S
H404 C401 0.950 . S
C405 C396 1.390 . S
C405 H398 0.950 . S
C405 C402 1.387 1_556 S
C406 C407 1.387 . S
C406 H410 0.950 . S
C406 C415 1.390 . S
C407 C406 1.387 . S
C407 C409 1.387 . S
H408 C415 0.950 . S
C409 C407 1.387 . S
C409 C411 1.390 . S
C409 H413 0.950 . S
H410 C406 0.950 . S
C411 C409 1.390 . S
C411 C412 1.387 . S
C411 H414 0.950 . S
C412 C411 1.387 . S
C412 C415 1.387 . S
H413 C409 0.950 . S
H414 C411 0.950 . S
C415 C406 1.390 . S
C415 H408 0.950 . S
C415 C412 1.387 . S
C177 C6 1.346 . S
C182 C71 1.394 1_545 S
C187 C49 1.394 1_545 S
C192 C28 1.345 . S
C197 C29 1.392 1_565 S
C202 C53 1.348 . S
C207 C7 1.394 1_565 S
C212 C75 1.346 . S
C217 C159 1.394 . S
C222 C94 1.346 . S
C227 C116 1.348 . S
C232 C137 1.392 . S
C237 C117 1.393 . S
C242 C141 1.345 . S
C247 C95 1.394 . S
C252 C163 1.345 . S
C257 C9 0.968 1_565 S
C262 C50 0.968 1_545 S
C267 C72 0.974 1_545 S
C272 C31 0.974 1_565 S
C277 C97 0.967 . S
C282 C138 0.967 . S
C287 C119 0.971 . S
C292 C160 0.971 . S
C297 C5 2.023 . S
C302 C51 2.023 . S
C307 C27 2.026 . S
C312 C73 2.026 . S
C317 C139 2.026 . S
C322 C93 2.026 . S
C327 C161 2.023 . S
C332 C115 2.023 . S
C337 C8 1.766 . S
C342 C30 1.766 . S
C347 C48 1.766 . S
C352 C70 1.766 . S
C357 C96 1.766 . S
C362 C118 1.766 . S
C367 C158 1.766 . S
C372 C136 1.766 . S
C377 C4 1.446 . S
C382 C140 1.446 . S
C387 C26 1.447 . S
C392 C162 1.447 . S
C397 C52 1.446 . S
C402 C92 1.446 . S
C407 C114 1.446 . S
C412 C74 1.446 . S
