# Generated by pormake.
# Topology snz, (6)-cn, num edge types: 1
# Building blocks:
#     Node 0, Type 0, BuildingBlock: UKALOJ_clean_sbu_0, # of connection points: 6
#     Node 1, Type 0, BuildingBlock: UKALOJ_clean_sbu_0, # of connection points: 6
#     Node 2, Type 0, BuildingBlock: UKALOJ_clean_sbu_0, # of connection points: 6
#     Node 3, Type 0, BuildingBlock: UKALOJ_clean_sbu_0, # of connection points: 6
#     Node 4, Type 0, BuildingBlock: UKALOJ_clean_sbu_0, # of connection points: 6
#     Node 5, Type 0, BuildingBlock: UKALOJ_clean_sbu_0, # of connection points: 6
#     Node 6, Type 0, BuildingBlock: UKALOJ_clean_sbu_0, # of connection points: 6
#     Node 7, Type 0, BuildingBlock: UKALOJ_clean_sbu_0, # of connection points: 6
#     Node 8, Type 0, BuildingBlock: UKALOJ_clean_sbu_0, # of connection points: 6
#     Edge 9, Type (0, 0), BuildingBlock: CIFDUS_clean_linker_0, # of connection points: 2
#     Edge 10, Type (0, 0), BuildingBlock: CIFDUS_clean_linker_0, # of connection points: 2
#     Edge 11, Type (0, 0), BuildingBlock: CIFDUS_clean_linker_0, # of connection points: 2
#     Edge 12, Type (0, 0), BuildingBlock: CIFDUS_clean_linker_0, # of connection points: 2
#     Edge 13, Type (0, 0), BuildingBlock: CIFDUS_clean_linker_0, # of connection points: 2
#     Edge 14, Type (0, 0), BuildingBlock: CIFDUS_clean_linker_0, # of connection points: 2
#     Edge 15, Type (0, 0), BuildingBlock: CIFDUS_clean_linker_0, # of connection points: 2
#     Edge 16, Type (0, 0), BuildingBlock: CIFDUS_clean_linker_0, # of connection points: 2
#     Edge 17, Type (0, 0), BuildingBlock: CIFDUS_clean_linker_0, # of connection points: 2
#     Edge 18, Type (0, 0), BuildingBlock: CIFDUS_clean_linker_0, # of connection points: 2
#     Edge 19, Type (0, 0), BuildingBlock: CIFDUS_clean_linker_0, # of connection points: 2
#     Edge 20, Type (0, 0), BuildingBlock: CIFDUS_clean_linker_0, # of connection points: 2
#     Edge 21, Type (0, 0), BuildingBlock: CIFDUS_clean_linker_0, # of connection points: 2
#     Edge 22, Type (0, 0), BuildingBlock: CIFDUS_clean_linker_0, # of connection points: 2
#     Edge 23, Type (0, 0), BuildingBlock: CIFDUS_clean_linker_0, # of connection points: 2
#     Edge 24, Type (0, 0), BuildingBlock: CIFDUS_clean_linker_0, # of connection points: 2
#     Edge 25, Type (0, 0), BuildingBlock: CIFDUS_clean_linker_0, # of connection points: 2
#     Edge 26, Type (0, 0), BuildingBlock: CIFDUS_clean_linker_0, # of connection points: 2
#     Edge 27, Type (0, 0), BuildingBlock: CIFDUS_clean_linker_0, # of connection points: 2
#     Edge 28, Type (0, 0), BuildingBlock: CIFDUS_clean_linker_0, # of connection points: 2
#     Edge 29, Type (0, 0), BuildingBlock: CIFDUS_clean_linker_0, # of connection points: 2
#     Edge 30, Type (0, 0), BuildingBlock: CIFDUS_clean_linker_0, # of connection points: 2
#     Edge 31, Type (0, 0), BuildingBlock: CIFDUS_clean_linker_0, # of connection points: 2
#     Edge 32, Type (0, 0), BuildingBlock: CIFDUS_clean_linker_0, # of connection points: 2
#     Edge 33, Type (0, 0), BuildingBlock: CIFDUS_clean_linker_0, # of connection points: 2
#     Edge 34, Type (0, 0), BuildingBlock: CIFDUS_clean_linker_0, # of connection points: 2
#     Edge 35, Type (0, 0), BuildingBlock: CIFDUS_clean_linker_0, # of connection points: 2
# Relax obj value: 0.516
# Max RMSD: 0.306
# Mean RMSD: 0.259
data_MOF--net-snz--node1-UKALOJ_clean_sbu_0--edge1-CIFDUS_clean_linker_0
_symmetry_space_group_name_H-M    P1
_symmetry_Int_Tables_number       1
_symmetry_cell_setting            triclinic
loop_
_symmetry_equiv_pos_as_xyz
'x, y, z'
_cell_length_a     44.672308
_cell_length_b     49.417038
_cell_length_c     13.677
_cell_angle_alpha  90.022826
_cell_angle_beta   90.44186
_cell_angle_gamma 120.55978
loop_
_atom_site_label
_atom_site_type_symbol
_atom_site_fract_x
_atom_site_fract_y
_atom_site_fract_z
_atom_type_partial_charge
Zn0 Zn -0.00408 0.46605 0.11106 0.0
O1 O 0.96561 0.42139 0.04979 0.0
C2 C 0.05319 0.45295 0.16307 0.0
Zn3 Zn 0.03593 0.47996 0.99598 0.0
C4 C 0.97456 0.41472 0.96939 0.0
O5 O 0.00334 0.43459 0.93026 0.0
C6 C 0.05668 0.53133 0.13846 0.0
O7 O 0.00759 0.49704 0.9131 0.0
O8 O 0.96791 0.48075 1.02627 0.0
N9 N 0.07198 0.49362 0.88783 0.0
C10 C 0.0835 0.51823 0.82668 0.0
C11 C 0.10572 0.49127 0.78191 0.0
N12 N 0.08658 0.47731 0.86166 0.0
N13 N 0.10413 0.51701 0.75623 0.0
C14 C 0.97589 0.45774 0.30753 0.0
C15 C 0.96668 0.49586 0.30581 0.0
N16 N 0.96107 0.45672 0.22111 0.0
N17 N 0.95306 0.47911 0.22319 0.0
N18 N 0.98221 0.48344 0.35891 0.0
H19 H 0.94516 0.41518 0.3856 0.0
H20 H -0.00965 0.43405 0.41571 0.0
H21 H 0.97391 0.41319 0.29965 0.0
C22 C 0.97167 0.42857 0.3546 0.0
C23 C 0.07576 0.54423 0.84009 0.0
H24 H 0.06603 0.54458 0.91329 0.0
H25 H 0.05539 0.5412 0.78715 0.0
H26 H 0.09973 0.56734 0.82951 0.0
O27 O 0.06752 0.52366 0.06437 0.0
O28 O 0.02689 0.51203 0.1715 0.0
C29 C 0.97896 0.4933 0.94378 0.0
O30 O 0.02554 0.45101 0.19541 0.0
O31 O 0.06303 0.46313 0.07715 0.0
Zn32 Zn 0.53589 0.51953 0.17736 0.0
O33 O 0.49253 0.51139 0.26558 0.0
C34 C 0.49862 0.46168 0.06116 0.0
Zn35 Zn 0.51194 0.52707 0.04673 0.0
C36 C 0.46554 0.50763 0.22143 0.0
O37 O 0.46659 0.51161 0.12966 0.0
C38 C 0.58209 0.53821 1.0031 0.0
O39 O 0.52886 0.57318 0.08794 0.0
O40 O 0.55954 0.56886 0.20762 0.0
N41 N 0.48478 0.52913 0.92812 0.0
C42 C 0.50021 0.52788 0.8462 0.0
C43 C 0.45133 0.48551 0.85218 0.0
N44 N 0.45326 0.5038 0.92778 0.0
N45 N 0.48113 0.49976 0.80148 0.0
C46 C 0.54724 0.48829 0.35673 0.0
C47 C 0.60206 0.51437 0.37767 0.0
N48 N 0.5603 0.51175 0.29098 0.0
N49 N 0.59444 0.52757 0.30271 0.0
N50 N 0.57303 0.48927 0.41312 0.0
H51 H 0.49317 0.46637 0.30643 0.0
H52 H 0.49873 0.4662 0.43448 0.0
H53 H 0.50518 0.44026 0.35423 0.0
C54 C 0.50911 0.46413 0.36338 0.0
C55 C 0.52622 0.5572 0.79408 0.0
H56 H 0.5123 0.56838 0.76188 0.0
H57 H 0.53906 0.55222 0.73347 0.0
H58 H 0.54578 0.5744 0.84624 0.0
O59 O 0.55877 0.54256 0.96573 0.0
O60 O 0.57835 0.52794 0.08976 0.0
C61 C 0.55038 0.5855 0.15858 0.0
O62 O 0.51282 0.47129 0.14391 0.0
O63 O 0.49584 0.48043 1.00426 0.0
Zn64 Zn 0.46271 0.01523 1.0109 0.0
O65 O 0.4445 0.04461 0.96434 0.0
C66 C 0.39526 0.9655 0.09433 0.0
Zn67 Zn 0.43091 0.97758 0.90425 0.0
C68 C 0.42009 0.03341 0.90132 0.0
O69 O 0.40887 0.00585 0.86789 0.0
C70 C 0.4726 0.95876 1.01269 0.0
O71 O 0.47172 0.00287 0.79855 0.0
O72 O 0.50298 0.03703 0.91257 0.0
N73 N 0.39806 0.94533 0.80502 0.0
C74 C 0.40565 0.9396 0.71578 0.0
C75 C 0.35252 0.92629 0.71351 0.0
N76 N 0.36455 0.9358 0.80507 0.0
N77 N 0.37819 0.92972 0.65375 0.0
C78 C 0.48079 0.04832 0.19902 0.0
C79 C 0.52729 0.04874 0.23026 0.0
N80 N 0.4942 0.04704 0.11335 0.0
N81 N 0.52424 0.04895 0.1324 0.0
N82 N 0.49902 0.04621 0.27481 0.0
H83 H 0.4428 0.05853 0.13703 0.0
H84 H 0.457 0.07272 0.25967 0.0
H85 H 0.42756 0.03184 0.23895 0.0
C86 C 0.4502 0.05298 0.20835 0.0
C87 C 0.4411 0.94606 0.68738 0.0
H88 H 0.4569 0.94802 0.75271 0.0
H89 H 0.45468 0.96809 0.64457 0.0
H90 H 0.43869 0.92659 0.64119 0.0
O91 O 0.45229 0.95 0.93933 0.0
O92 O 0.48065 0.98433 0.05655 0.0
C93 C 0.4999 0.02721 0.82553 0.0
O94 O 0.42125 0.99241 0.11301 0.0
O95 O 0.39257 0.95328 1.01082 0.0
Zn96 Zn 0.68524 0.83274 0.18335 0.0
O97 O 0.71719 0.88143 0.19312 0.0
C98 C 0.65646 0.83049 0.37987 0.0
Zn99 Zn 0.63641 0.83361 0.1663 0.0
C100 C 0.70171 0.89694 0.19259 0.0
O101 O 0.66909 0.88275 0.17882 0.0
C102 C 0.61937 0.76887 0.16572 0.0
O103 O 0.64021 0.83656 1.00912 0.0
O104 O 0.6879 0.83462 1.02566 0.0
N105 N 0.59578 0.84132 0.16954 0.0
C106 C 0.57433 0.84269 0.10243 0.0
C107 C 0.56935 0.86297 0.23413 0.0
N108 N 0.59226 0.85362 0.25137 0.0
N109 N 0.55773 0.85685 0.14084 0.0
C110 C 0.75315 0.83515 0.25048 0.0
C111 C 0.75367 0.80196 0.15231 0.0
N112 N 0.72659 0.82629 0.18668 0.0
N113 N 0.72729 0.80604 0.12493 0.0
N114 N 0.77031 0.81971 0.23156 0.0
H115 H 0.75938 0.87923 0.29912 0.0
H116 H 0.79115 0.87085 0.34751 0.0
H117 H 0.74703 0.85018 0.3923 0.0
C118 C 0.76336 0.86029 0.32664 0.0
C119 C 0.56825 0.82806 1.00299 0.0
H120 H 0.57252 0.80782 1.00483 0.0
H121 H 0.58693 0.84561 0.95087 0.0
H122 H 0.54131 0.81976 0.97731 0.0
O123 O 0.60382 0.7843 0.15598 0.0
O124 O 0.65219 0.78348 0.17715 0.0
C125 C 0.66566 0.83595 0.97006 0.0
O126 O 0.68241 0.83094 0.34064 0.0
O127 O 0.63357 0.83062 0.32426 0.0
Zn128 Zn 0.15855 0.83517 0.42136 0.0
O129 O 0.10416 0.81148 0.43581 0.0
C130 C 0.16535 0.81346 0.61992 0.0
Zn131 Zn 0.15893 0.7907 0.40861 0.0
C132 C 0.08801 0.78175 0.44323 0.0
O133 O 0.10457 0.76733 0.43256 0.0
C134 C 0.22974 0.84464 0.38843 0.0
O135 O 0.15271 0.78952 0.25047 0.0
O136 O 0.15361 0.83399 0.26404 0.0
N137 N 0.15732 0.74868 0.40582 0.0
C138 C 0.13245 0.72025 0.37295 0.0
C139 C 0.17367 0.71492 0.43042 0.0
N140 N 0.18292 0.74534 0.44155 0.0
N141 N 0.14192 0.69872 0.38863 0.0
C142 C 0.15003 0.89314 0.47153 0.0
C143 C 0.18075 0.92365 0.3572 0.0
N144 N 0.16207 0.8778 0.418 0.0
N145 N 0.18096 0.89679 0.34699 0.0
N146 N 0.16156 0.92237 0.43468 0.0
H147 H 0.11322 0.85264 0.55398 0.0
H148 H 0.10598 0.88537 0.55659 0.0
H149 H 0.14144 0.88647 0.62545 0.0
C150 C 0.12612 0.87855 0.55639 0.0
C151 C 0.09984 0.71376 0.32046 0.0
H152 H 0.10292 0.73519 0.28546 0.0
H153 H 0.07831 0.705 0.37368 0.0
H154 H 0.09255 0.69532 0.26376 0.0
O155 O 0.21325 0.81478 0.38671 0.0
O156 O 0.21333 0.85881 0.40625 0.0
C157 C 0.1523 0.8125 0.20972 0.0
O158 O 0.16326 0.83572 0.57946 0.0
O159 O 0.16567 0.79264 0.56547 0.0
Zn160 Zn 0.13689 0.3262 0.54491 0.0
O161 O 0.15454 0.29425 0.55852 0.0
C162 C 0.15696 0.34724 0.75669 0.0
Zn163 Zn 0.19028 0.3677 0.55884 0.0
C164 C 0.18661 0.30527 0.57665 0.0
O165 O 0.207 0.3349 0.58034 0.0
C166 C 0.13897 0.38743 0.52646 0.0
O167 O 0.1952 0.36682 0.40177 0.0
O168 O 0.14219 0.32696 0.38699 0.0
N169 N 0.24086 0.40424 0.57076 0.0
C170 C 0.26933 0.41001 0.52035 0.0
C171 C 0.28537 0.4474 0.62315 0.0
N172 N 0.25094 0.42743 0.63507 0.0
N173 N 0.2974 0.43688 0.55151 0.0
C174 C 0.06446 0.2681 0.59085 0.0
C175 C 0.03618 0.26487 0.46109 0.0
N176 N 0.0869 0.29026 0.52916 0.0
N177 N 0.06933 0.28793 0.44806 0.0
N178 N 0.03249 0.25203 0.55015 0.0
H179 H 0.10124 0.26714 0.69149 0.0
H180 H 0.0565 0.23623 0.70816 0.0
H181 H 0.07001 0.27564 0.74486 0.0
C182 C 0.07379 0.26136 0.68947 0.0
C183 C 0.27032 0.389 0.44285 0.0
H184 H 0.24863 0.36454 0.44976 0.0
H185 H 0.29532 0.38932 0.44675 0.0
H186 H 0.26867 0.39803 0.37011 0.0
O187 O 0.1717 0.39946 0.53615 0.0
O188 O 0.11914 0.35787 0.53154 0.0
C189 C 0.17025 0.34754 0.34688 0.0
O190 O 0.13251 0.32688 0.70242 0.0
O191 O 0.18462 0.36837 0.71611 0.0
Zn192 Zn 0.34867 0.20836 0.76428 0.0
O193 O 0.3456 0.20912 0.92195 0.0
C194 C 0.36104 0.15679 0.77491 0.0
Zn195 Zn 0.29773 0.16441 0.74849 0.0
C196 C 0.31871 0.18662 0.96123 0.0
O197 O 0.29526 0.16594 0.90571 0.0
C198 C 0.32738 0.18588 0.55146 0.0
O199 O 0.26823 0.18687 0.73457 0.0
O200 O 0.31889 0.23011 0.75133 0.0
N201 N 0.25452 0.12096 0.75412 0.0
C202 C 0.22924 0.10231 0.6902 0.0
C203 C 0.22359 0.07508 0.8166 0.0
N204 N 0.25061 0.10407 0.83296 0.0
N205 N 0.20954 0.07291 0.72717 0.0
C206 C 0.41414 0.27212 0.8265 0.0
C207 C 0.42339 0.2975 0.69355 0.0
N208 N 0.39184 0.25201 0.75888 0.0
N209 N 0.39799 0.26779 0.67617 0.0
N210 N 0.43394 0.30109 0.78761 0.0
H211 H 0.39843 0.26329 0.97603 0.0
H212 H 0.44432 0.27891 0.95776 0.0
H213 H 0.41326 0.23838 0.92713 0.0
C214 C 0.41793 0.26269 0.9278 0.0
C215 C 0.22278 0.11411 0.59618 0.0
H216 H 0.23096 0.13931 0.6034 0.0
H217 H 0.19482 0.1005 0.57554 0.0
H218 H 0.23847 0.11201 0.53744 0.0
O219 O 0.30053 0.16331 0.5908 0.0
O220 O 0.35083 0.20666 0.60686 0.0
C221 C 0.28624 0.21672 0.73822 0.0
O222 O 0.37819 0.18662 0.77774 0.0
O223 O 0.32823 0.14251 0.76214 0.0
Zn224 Zn 0.77263 0.16313 0.67932 0.0
O225 O 0.71932 0.15006 0.6834 0.0
C226 C 0.76497 0.13202 0.87643 0.0
Zn227 Zn 0.75797 0.11312 0.66335 0.0
C228 C 0.69609 0.12108 0.67695 0.0
O229 O 0.70522 0.10068 0.66812 0.0
C230 C 0.83397 0.15441 0.66346 0.0
O231 O 0.757 0.11816 0.50692 0.0
O232 O 0.77283 0.16779 0.5211 0.0
N233 N 0.74348 0.06718 0.64489 0.0
C234 C 0.75577 0.05397 0.58294 0.0
C235 C 0.71242 0.01671 0.65594 0.0
N236 N 0.71662 0.04401 0.69056 0.0
N237 N 0.73686 0.02249 0.58899 0.0
C238 C 0.81613 0.23265 0.74592 0.0
C239 C 0.78831 0.25336 0.6861 0.0
N240 N 0.7883 0.20975 0.69745 0.0
N241 N 0.77102 0.22267 0.66037 0.0
N242 N 0.81691 0.26018 0.73879 0.0
H243 H 0.85055 0.2437 0.87015 0.0
H244 H 0.86475 0.23448 0.75937 0.0
H245 H 0.83051 0.20355 0.82947 0.0
C246 C 0.84167 0.22807 0.80494 0.0
C247 C 0.78789 0.07155 0.52201 0.0
H248 H 0.81057 0.0754 0.56667 0.0
H249 H 0.79235 0.09466 0.49869 0.0
H250 H 0.78683 0.05796 0.45635 0.0
O251 O 0.81061 0.12569 0.65766 0.0
O252 O 0.8253 0.17502 0.67391 0.0
C253 C 0.76503 0.14412 0.46645 0.0
O254 O 0.77172 0.1577 0.83605 0.0
O255 O 0.75852 0.1087 0.82167 0.0
Zn256 Zn 0.82845 0.61431 0.6952 0.0
O257 O 0.83361 0.62008 0.85278 0.0
C258 C 0.75751 0.60448 0.70796 0.0
Zn259 Zn 0.82937 0.65933 0.68191 0.0
C260 C 0.83346 0.64315 0.89373 0.0
O261 O 0.83222 0.66354 0.83957 0.0
C262 C 0.82382 0.63016 0.48349 0.0
O263 O 0.88359 0.68477 0.67392 0.0
O264 O 0.88349 0.64045 0.67391 0.0
N265 N 0.82741 0.69941 0.67344 0.0
C266 C 0.83936 0.72278 0.60734 0.0
C267 C 0.80816 0.73014 0.7083 0.0
N268 N 0.80837 0.70423 0.73665 0.0
N269 N 0.82718 0.7424 0.62674 0.0
C270 C 0.8542 0.56854 0.74427 0.0
C271 C 0.81424 0.52481 0.68605 0.0
N272 N 0.82974 0.57364 0.70509 0.0
N273 N 0.8049 0.54644 0.66891 0.0
N274 N 0.84531 0.53831 0.73209 0.0
H275 H 0.8828 0.61195 0.82731 0.0
H276 H 0.90858 0.60229 0.75053 0.0
H277 H 0.89131 0.58133 0.86227 0.0
C278 C 0.88584 0.59249 0.79964 0.0
C279 C 0.86404 0.72667 0.52743 0.0
H280 H 0.8788 0.71498 0.54533 0.0
H281 H 0.88275 0.75193 0.51425 0.0
H282 H 0.84912 0.71549 0.45955 0.0
O283 O 0.82636 0.65445 0.52411 0.0
O284 O 0.82264 0.60869 0.53795 0.0
C285 C 0.90001 0.6702 0.66615 0.0
O286 O 0.77337 0.58922 0.71441 0.0
O287 O 0.77472 0.63372 0.69024 0.0
H288 H 0.09509 0.56464 0.67002 0.0
H289 H 0.12605 0.4979 0.59727 0.0
H290 H 0.09337 0.48616 0.44468 0.0
H291 H 0.04045 0.47978 0.36803 0.0
H292 H -0.00638 0.53118 0.47974 0.0
H293 H 0.04373 0.56075 0.58943 0.0
C294 C 0.09272 0.54565 0.62585 0.0
C295 C 0.10739 0.52756 0.65553 0.0
C296 C 0.06883 0.5347 0.5484 0.0
C297 C 0.11197 0.50995 0.58207 0.0
C298 C 0.09251 0.50252 0.49558 0.0
C299 C 0.04046 0.49672 0.41805 0.0
C300 C 0.01205 0.50163 0.42096 0.0
C301 C 0.06785 0.51188 0.48468 0.0
C302 C 0.0144 0.52595 0.47982 0.0
C303 C 0.04316 0.54303 0.54143 0.0
H304 H 0.54764 0.51319 0.80084 0.0
H305 H 0.44511 0.44704 0.69102 0.0
H306 H 0.47001 0.4235 0.58524 0.0
H307 H 0.52188 0.4325 0.49431 0.0
H308 H 0.62036 0.51387 0.56397 0.0
H309 H 0.59867 0.51723 0.72296 0.0
C310 C 0.53062 0.49403 0.7528 0.0
C311 C 0.49486 0.48352 0.74769 0.0
C312 C 0.54523 0.48264 0.68713 0.0
C313 C 0.47295 0.45659 0.69199 0.0
C314 C 0.48715 0.44299 0.63252 0.0
C315 C 0.53816 0.45183 0.54256 0.0
C316 C 0.57032 0.47652 0.51017 0.0
C317 C 0.52341 0.45763 0.62383 0.0
C318 C 0.59391 0.49641 0.58243 0.0
C319 C 0.58127 0.49895 0.67279 0.0
H320 H 0.40781 0.92069 0.49611 0.0
H321 H 0.36118 0.97295 0.59958 0.0
H322 H 0.3994 0.01714 0.4974 0.0
H323 H 0.45393 0.04483 0.40662 0.0
H324 H 0.50135 0.99294 0.30346 0.0
H325 H 0.4584 0.94645 0.38905 0.0
C326 C 0.40543 0.94144 0.49361 0.0
C327 C 0.38339 0.94428 0.55966 0.0
C328 C 0.42972 0.96791 0.4418 0.0
C329 C 0.37883 0.97044 0.55179 0.0
C330 C 0.40148 -0.00378 0.49579 0.0
C331 C 0.45481 0.02335 0.40284 0.0
C332 C 0.4807 0.02258 0.34786 0.0
C333 C 0.42863 -0.00402 0.4465 0.0
C334 C 0.48201 -0.00538 0.34594 0.0
C335 C 0.45683 0.96762 0.39251 0.0
H336 H 0.70173 0.83311 0.52238 0.0
H337 H 0.60357 0.82907 0.48356 0.0
H338 H 0.59793 0.83093 0.66035 0.0
H339 H 0.62058 0.8336 0.82747 0.0
H340 H 0.71876 0.8377 0.86639 0.0
H341 H 0.72454 0.83605 0.68955 0.0
C342 C 0.67906 0.83257 0.55239 0.0
C343 C 0.65311 0.83085 0.48872 0.0
C344 C 0.67594 0.83377 0.65494 0.0
C345 C 0.62399 0.83028 0.52995 0.0
C346 C 0.62072 0.8314 0.63149 0.0
C347 C 0.64334 0.83428 0.79747 0.0
C348 C 0.66919 0.83586 0.86119 0.0
C349 C 0.64652 0.83319 0.69492 0.0
C350 C 0.69838 0.83653 0.81997 0.0
C351 C 0.70173 0.83554 0.7184 0.0
H352 H 0.15577 0.84825 0.76073 0.0
H353 H 0.17361 0.77078 0.72625 0.0
H354 H 0.17 0.76283 0.90278 0.0
H355 H 0.16156 0.77753 0.06891 0.0
H356 H 0.14414 0.85523 0.10349 0.0
H357 H 0.14754 0.86306 0.92687 0.0
C358 C 0.15913 0.82976 0.79173 0.0
C359 C 0.16514 0.81029 0.72915 0.0
C360 C 0.1568 0.82508 0.89425 0.0
C361 C 0.16908 0.78629 0.77166 0.0
C362 C 0.16691 0.78161 0.87311 0.0
C363 C 0.15825 0.79604 0.03789 0.0
C364 C 0.15241 0.81561 0.10049 0.0
C365 C 0.16062 0.80074 0.93538 0.0
C366 C 0.14856 0.83966 0.05802 0.0
C367 C 0.1506 0.84427 0.95654 0.0
H368 H 0.20826 0.37733 0.8965 0.0
H369 H 0.09814 0.31261 0.86469 0.0
H370 H 0.09263 0.30581 0.04139 0.0
H371 H 0.11895 0.31793 0.20697 0.0
H372 H 0.2287 0.38417 0.23945 0.0
H373 H 0.23433 0.39053 0.06254 0.0
C374 C 0.18299 0.36186 0.9281 0.0
C375 C 0.15372 0.34519 0.86601 0.0
C376 C 0.17991 0.35815 0.03091 0.0
C377 C 0.12128 0.3253 0.90938 0.0
C378 C 0.11805 0.32148 1.01108 0.0
C379 C 0.14418 0.33362 0.17549 0.0
C380 C 0.17343 0.35026 0.23763 0.0
C381 C 0.14721 0.33758 0.07279 0.0
C382 C 0.20573 0.37079 0.19449 0.0
C383 C 0.20899 0.37456 0.09276 0.0
H384 H 0.2795 0.15089 0.40779 0.0
H385 H 0.38394 0.22896 0.44898 0.0
H386 H 0.39039 0.23665 0.27262 0.0
H387 H 0.36659 0.22151 0.10496 0.0
H388 H 0.26213 0.14352 0.06364 0.0
H389 H 0.25567 0.13578 0.24001 0.0
C390 C 0.30375 0.16947 0.37832 0.0
C391 C 0.33118 0.18918 0.44262 0.0
C392 C 0.30733 0.17401 0.27593 0.0
C393 C 0.3623 0.21329 0.40213 0.0
C394 C 0.36605 0.21781 0.3008 0.0
C395 C 0.34232 0.20295 0.13438 0.0
C396 C 0.31489 0.18328 0.07006 0.0
C397 C 0.33873 0.19841 0.23675 0.0
C398 C 0.28376 0.15916 0.11052 0.0
C399 C 0.28001 0.15462 0.21185 0.0
H400 H 0.75337 0.09884 0.32995 0.0
H401 H 0.7793 0.19546 0.35514 0.0
H402 H 0.78189 0.20029 0.17711 0.0
H403 H 0.77684 0.17727 1.01312 0.0
H404 H 0.7509 0.08066 0.9877 0.0
H405 H 0.7484 0.07582 0.1658 0.0
C406 C 0.7595 0.12098 0.29672 0.0
C407 C 0.76601 0.14674 0.35698 0.0
C408 C 0.76104 0.12367 0.19357 0.0
C409 C 0.77408 0.17519 0.31156 0.0
C410 C 0.7756 0.17799 0.20932 0.0
C411 C 0.77065 0.15511 0.04628 0.0
C412 C 0.76407 0.12936 0.98593 0.0
C413 C 0.76916 0.15242 0.14941 0.0
C414 C 0.75612 0.10092 0.03133 0.0
C415 C 0.75465 0.09811 0.13361 0.0
H416 H 0.82854 0.67245 0.34468 0.0
H417 H 0.82009 0.58192 0.37453 0.0
H418 H 0.82309 0.57816 0.19717 0.0
H419 H 0.82849 0.6006 0.03206 0.0
H420 H 0.83686 0.69115 1.00279 0.0
H421 H 0.83387 0.69486 0.18009 0.0
C422 C 0.8273 0.65185 0.3127 0.0
C423 C 0.82407 0.62752 0.37412 0.0
C424 C 0.82925 0.64987 0.20992 0.0
C425 C 0.82247 0.60104 0.33007 0.0
C426 C 0.82429 0.59888 0.22818 0.0
C427 C 0.82984 0.62124 0.06432 0.0
C428 C 0.83305 0.64561 1.00307 0.0
C429 C 0.82783 0.62319 0.16716 0.0
C430 C 0.83449 0.67202 0.04717 0.0
C431 C 0.8327 0.67416 0.14901 0.0
H432 H 0.16232 0.42748 0.37551 0.0
H433 H 0.08018 0.38553 0.58681 0.0
H434 H 0.04649 0.4036 0.49425 0.0
H435 H 0.03763 0.42561 0.3431 0.0
H436 H 0.11833 0.46407 0.12591 0.0
H437 H 0.15499 0.45247 0.22951 0.0
C438 C 0.1376 0.42333 0.40286 0.0
C439 C 0.12391 0.40577 0.48843 0.0
C440 C 0.1176 0.43216 0.34634 0.0
C441 C 0.09134 0.3995 0.52175 0.0
C442 C 0.07192 0.40941 0.46815 0.0
C443 C 0.06326 0.43156 0.31857 0.0
C444 C 0.07499 0.44541 0.22639 0.0
C445 C 0.08424 0.42471 0.37843 0.0
C446 C 0.1084 0.45305 0.19598 0.0
C447 C 0.12955 0.44664 0.25551 0.0
H448 H 0.52526 0.62274 0.10169 0.0
H449 H 0.60987 0.62424 0.26121 0.0
H450 H 0.63809 0.68128 0.27996 0.0
H451 H 0.64028 0.73076 0.24245 0.0
H452 H 0.55509 0.7293 0.08663 0.0
H453 H 0.52532 0.67191 0.07518 0.0
C454 C 0.54979 0.63552 0.14112 0.0
C455 C 0.56567 0.61936 0.17918 0.0
C456 C 0.56576 0.66821 0.15173 0.0
C457 C 0.59715 0.63615 0.23125 0.0
C458 C 0.61336 0.66875 0.24157 0.0
C459 C 0.61514 0.71788 0.20616 0.0
C460 C 0.60005 0.7342 0.16428 0.0
C461 C 0.59816 0.68503 0.20066 0.0
C462 C 0.56723 0.71722 0.11912 0.0
C463 C 0.55028 0.68446 0.1124 0.0
H464 H 0.36118 0.90297 0.12377 0.0
H465 H 0.37085 0.9888 0.23403 0.0
H466 H 0.32346 0.95885 0.34839 0.0
H467 H 0.27446 0.90783 0.40068 0.0
H468 H 0.26559 0.82207 0.29097 0.0
H469 H 0.31789 0.85242 0.19431 0.0
C470 C 0.35297 0.91507 0.1733 0.0
C471 C 0.3689 0.94794 0.16938 0.0
C472 C 0.32586 0.8977 0.23883 0.0
C473 C 0.35884 0.9635 0.23556 0.0
C474 C 0.33165 0.94636 0.30062 0.0
C475 C 0.28441 0.89578 0.35732 0.0
C476 C 0.26577 0.86272 0.35175 0.0
C477 C 0.31431 0.91339 0.30079 0.0
C478 C 0.27928 0.84747 0.29632 0.0
C479 C 0.30904 0.86481 0.24021 0.0
H480 H 0.44853 0.09649 0.91681 0.0
H481 H 0.35818 0.01265 0.80645 0.0
H482 H 0.33254 0.04373 0.75339 0.0
H483 H 0.33487 0.09439 0.7443 0.0
H484 H 0.42613 0.17844 0.84993 0.0
H485 H 0.45253 0.14759 0.89779 0.0
C486 C 0.42322 0.08503 0.88117 0.0
C487 C 0.40508 0.0523 0.86668 0.0
C488 C 0.40888 0.10306 0.84968 0.0
C489 C 0.37258 0.03782 0.8189 0.0
C490 C 0.35791 0.05556 0.78855 0.0
C491 C 0.36065 0.106 0.77713 0.0
C492 C 0.37841 0.13862 0.79408 0.0
C493 C 0.3757 0.08815 0.80434 0.0
C494 C 0.41192 0.15336 0.83588 0.0
C495 C 0.42697 0.13572 0.86378 0.0
H496 H 0.88611 0.29132 0.71696 0.0
H497 H 0.80248 0.29516 0.85747 0.0
H498 H 0.84444 0.34333 0.9444 0.0
H499 H 0.90475 0.38315 0.98332 0.0
H500 H 0.98887 0.38122 0.83721 0.0
H501 H 0.94697 0.33309 0.74999 0.0
C502 C 0.87731 0.30288 0.76667 0.0
C503 C 0.8415 0.28983 0.78222 0.0
C504 C 0.90159 0.3305 0.81571 0.0
C505 C 0.83001 0.30504 0.84488 0.0
C506 C 0.85395 0.33234 0.89479 0.0
C507 C 0.91395 0.37206 0.93296 0.0
C508 C 0.94984 0.38535 0.91781 0.0
C509 C 0.88977 0.34504 0.88158 0.0
C510 C 0.96137 0.37123 0.85052 0.0
C511 C 0.93744 0.34381 0.80061 0.0
H512 H 0.72164 0.55618 0.83267 0.0
H513 H 0.71132 0.62182 0.64849 0.0
H514 H 0.65439 0.60539 0.71858 0.0
H515 H 0.61035 0.57628 0.8447 0.0
H516 H 0.62325 0.51345 0.036 0.0
H517 H 0.6762 0.5249 0.95124 0.0
C518 C 0.70654 0.56632 0.80623 0.0
C519 C 0.72058 0.59009 0.73544 0.0
C520 C 0.67454 0.55773 0.84972 0.0
C521 C 0.70099 0.60343 0.703 0.0
C522 C 0.66856 0.59422 0.74352 0.0
C523 C 0.62468 0.56499 0.86727 0.0
C524 C 0.61309 0.54432 0.94713 0.0
C525 C 0.65557 0.57211 0.81918 0.0
C526 C 0.63186 0.52977 0.97547 0.0
C527 C 0.66208 0.53619 0.92678 0.0
H528 H 0.91114 0.55543 0.69173 0.0
H529 H 0.82041 0.48768 0.84745 0.0
H530 H 0.85387 0.46634 0.92394 0.0
H531 H 0.90994 0.47019 0.95614 0.0
H532 H 0.00097 0.53767 0.79933 0.0
H533 H 0.96652 0.55606 0.71291 0.0
C534 C 0.89887 0.53587 0.74201 0.0
C535 C 0.86372 0.52329 0.76574 0.0
C536 C 0.91834 0.52401 0.78567 0.0
C537 C 0.84752 0.49756 0.82889 0.0
C538 C 0.86667 0.4856 0.87282 0.0
C539 C 0.92224 0.48887 0.9028 0.0
C540 C 0.95807 0.50292 0.88514 0.0
C541 C 0.90227 0.49916 0.85347 0.0
C542 C 0.9735 0.52659 0.8144 0.0
C543 C 0.95382 0.53716 0.76526 0.0
H544 H 0.51494 0.44364 0.89474 0.0
H545 H 0.45601 0.40824 0.15931 0.0
H546 H 0.43233 0.35411 0.10103 0.0
H547 H 0.42446 0.31805 0.9679 0.0
H548 H 0.48728 0.35286 0.70924 0.0
H549 H 0.51356 0.40659 0.77192 0.0
C550 C 0.49703 0.42394 0.9394 0.0
C551 C 0.48649 0.42945 0.02981 0.0
C552 C 0.48444 0.39313 0.90668 0.0
C553 C 0.46404 0.40415 0.08896 0.0
C554 C 0.4506 0.37337 0.05571 0.0
C555 C 0.44509 0.33696 0.92713 0.0
C556 C 0.45434 0.33123 0.83461 0.0
C557 C 0.46026 0.36764 0.96403 0.0
C558 C 0.47993 0.35667 0.78094 0.0
C559 C 0.49477 0.38736 0.81638 0.0
H560 H 0.64024 0.06501 0.62206 0.0
H561 H 0.66843 0.1538 0.75809 0.0
H562 H 0.60794 0.13357 0.80296 0.0
H563 H 0.54915 0.08847 0.82429 0.0
H564 H 0.5204 -0.00041 0.68911 0.0
H565 H 0.5788 0.02225 0.62069 0.0
C566 C 0.63301 0.08008 0.66016 0.0
C567 C 0.65888 0.11067 0.68838 0.0
C568 C 0.59814 0.06826 0.68588 0.0
C569 C 0.64909 0.13012 0.73611 0.0
C570 C 0.61451 0.11853 0.7621 0.0
C571 C 0.55546 0.07431 0.77773 0.0
C572 C 0.53077 0.04237 0.76251 0.0
C573 C 0.58912 0.08734 0.74034 0.0
C574 C 0.53897 0.02427 0.7014 0.0
C575 C 0.57248 0.03714 0.66332 0.0
H576 H 0.50009 0.93051 0.90765 0.0
H577 H 0.4723 0.94137 0.19996 0.0
H578 H 0.49133 0.90608 0.26259 0.0
H579 H 0.51796 0.87425 0.23476 0.0
H580 H 0.55585 0.8718 0.94712 0.0
H581 H 0.52929 0.90011 0.88135 0.0
C582 C 0.49827 0.92502 0.98497 0.0
C583 C 0.48514 0.93844 0.04966 0.0
C584 C 0.51034 0.90563 1.02069 0.0
C585 C 0.48291 0.93154 0.14963 0.0
C586 C 0.49347 0.91122 0.18507 0.0
C587 C 0.5202 0.87959 0.15735 0.0
C588 C 0.53814 0.86967 0.09634 0.0
C589 C 0.50752 0.89838 0.12128 0.0
C590 C 0.54096 0.87729 0.99626 0.0
C591 C 0.52639 0.89435 0.95847 0.0
H592 H 0.16475 0.66982 0.27288 0.0
H593 H 0.07769 0.65522 0.44519 0.0
H594 H 0.04375 0.60053 0.38804 0.0
H595 H 0.03782 0.55847 0.27932 0.0
H596 H 0.12435 0.57427 0.10001 0.0
H597 H 0.15962 0.6269 0.16906 0.0
C598 C 0.1385 0.65436 0.29842 0.0
C599 C 0.12343 0.66612 0.36224 0.0
C600 C 0.11905 0.62342 0.26315 0.0
C601 C 0.08941 0.64635 0.39514 0.0
C602 C 0.07013 0.61526 0.36247 0.0
C603 C 0.06448 0.57332 0.25604 0.0
C604 C 0.07835 0.56253 0.18432 0.0
C605 C 0.08446 0.60375 0.29486 0.0
C606 C 0.11294 0.58209 0.15464 0.0
C607 C 0.13317 0.61219 0.19414 0.0
H608 H 0.45206 0.49491 0.41696 0.0
H609 H 0.40448 0.49688 0.1427 0.0
H610 H 0.34873 0.47649 0.22233 0.0
H611 H 0.31249 0.45583 0.36751 0.0
H612 H 0.35823 0.45363 0.64276 0.0
H613 H 0.41579 0.47676 0.56616 0.0
C614 C 0.42955 0.49111 0.37492 0.0
C615 C 0.43254 0.49729 0.27376 0.0
C616 C 0.39723 0.47931 0.42136 0.0
C617 C 0.40306 0.49227 0.22047 0.0
C618 C 0.37105 0.48057 0.26586 0.0
C619 C 0.3352 0.46054 0.41025 0.0
C620 C 0.33147 0.45284 0.50965 0.0
C621 C 0.36774 0.47365 0.36572 0.0
C622 C 0.36086 0.45946 0.5658 0.0
C623 C 0.39356 0.4725 0.5219 0.0
H624 H 0.84008 0.75485 0.42967 0.0
H625 H 0.81105 0.7849 0.69109 0.0
H626 H 0.79388 0.81554 0.59126 0.0
H627 H 0.77699 0.82428 0.43036 0.0
H628 H 0.81409 0.80099 0.17141 0.0
H629 H 0.83943 0.7771 0.27308 0.0
C630 C 0.83204 0.76909 0.4674 0.0
C631 C 0.82663 0.76676 0.56927 0.0
C632 C 0.82321 0.7875 0.40999 0.0
C633 C 0.8149 0.78551 0.61288 0.0
C634 C 0.80506 0.80312 0.55587 0.0
C635 C 0.79242 0.81606 0.39513 0.0
C636 C 0.79351 0.81464 0.29242 0.0
C637 C 0.80767 0.80308 0.45396 0.0
C638 C 0.81255 0.80216 0.25014 0.0
C639 C 0.82696 0.78842 0.3082 0.0
H640 H 0.20205 0.05832 0.53139 0.0
H641 H 0.16541 0.01868 0.81731 0.0
H642 H 0.14308 0.96617 0.75031 0.0
H643 H 0.14577 0.93418 0.61909 0.0
H644 H 0.17423 0.9729 0.32839 0.0
H645 H 0.18761 0.02386 0.39052 0.0
C646 C 0.1877 0.03863 0.57924 0.0
C647 C 0.18641 0.04303 0.68049 0.0
C648 C 0.17416 0.00834 0.54002 0.0
C649 C 0.16764 0.01623 0.73945 0.0
C650 C 0.15493 0.9861 0.70133 0.0
C651 C 0.15315 0.95282 0.56721 0.0
C652 C 0.15971 0.94924 0.46883 0.0
C653 C 0.15979 0.98208 0.60257 0.0
C654 C 0.16986 0.97488 0.40514 0.0
C655 C 0.17748 0.00417 0.44042 0.0
H656 H 0.89025 0.20134 0.755 0.0
H657 H 0.8593 0.12973 0.53353 0.0
H658 H 0.9198 0.15198 0.48449 0.0
H659 H 0.98054 0.19615 0.49093 0.0
H660 H 0.01117 0.26751 0.71245 0.0
H661 H 0.952 0.24116 0.77605 0.0
C662 C 0.89693 0.19047 0.69692 0.0
C663 C 0.87056 0.16429 0.64705 0.0
C664 C 0.93168 0.20347 0.66904 0.0
C665 C 0.87932 0.14985 0.57322 0.0
C666 C 0.91385 0.16271 0.54461 0.0
C667 C 0.97418 0.20527 0.55458 0.0
C668 C -0.00014 0.23337 0.59779 0.0
C669 C 0.94008 0.19009 0.59 0.0
C670 C -0.00824 0.24548 0.67971 0.0
C671 C 0.95792 0.23063 0.71525 0.0
H672 H 0.22148 0.19866 0.66552 0.0
H673 H 0.31652 0.27942 0.77003 0.0
H674 H 0.29436 0.31373 0.72668 0.0
H675 H 0.24911 0.32133 0.65555 0.0
H676 H 0.15331 0.24135 0.55256 0.0
H677 H 0.17481 0.20631 0.59808 0.0
C678 C 0.23711 0.22371 0.6798 0.0
C679 C 0.27061 0.23641 0.72076 0.0
C680 C 0.22432 0.24353 0.65389 0.0
C681 C 0.29067 0.26897 0.73828 0.0
C682 C 0.2781 0.2887 0.71326 0.0
C683 C 0.23295 0.29625 0.64248 0.0
C684 C 0.19981 0.28401 0.60001 0.0
C685 C 0.2452 0.2763 0.66999 0.0
C686 C 0.17904 0.25139 0.58476 0.0
C687 C 0.19126 0.23133 0.61105 0.0
H688 H 0.7351 0.91208 0.36367 0.0
H689 H 0.70069 0.94884 0.13093 0.0
H690 H 0.71172 -0.00641 0.23444 0.0
H691 H 0.72328 0.0177 0.39844 0.0
H692 H 0.75073 0.97723 0.63587 0.0
H693 H 0.74961 0.93767 0.52439 0.0
C694 C 0.73144 0.93063 0.33448 0.0
C695 C 0.71805 0.92788 0.23941 0.0
C696 C 0.73545 0.9548 0.39649 0.0
C697 C 0.71179 0.95111 0.20331 0.0
C698 C 0.71757 0.97631 0.26289 0.0
C699 C 0.72942 0.00035 0.42462 0.0
C700 C 0.73726 6e-05 0.52396 0.0
C701 C 0.72807 0.97765 0.36064 0.0
C702 C 0.74467 0.97751 0.55919 0.0
C703 C 0.7442 0.95518 0.49556 0.0
H704 H 0.93794 0.73119 0.61062 0.0
H705 H 0.94419 0.6474 0.64696 0.0
H706 H 0.00234 0.67418 0.5768 0.0
H707 H 0.05083 0.72102 0.50267 0.0
H708 H 0.04382 0.80433 0.46289 0.0
H709 H 0.98598 0.77768 0.53495 0.0
C710 C 0.95205 0.71878 0.60405 0.0
C711 C 0.93671 0.68733 0.63465 0.0
C712 C 0.98505 0.73403 0.56135 0.0
C713 C 0.95542 0.67166 0.62489 0.0
C714 C 0.98858 0.68689 0.58399 0.0
C715 C 0.0365 0.73325 0.50837 0.0
C716 C 0.05155 0.76456 0.47654 0.0
C717 C 0.00346 0.71795 0.55099 0.0
C718 C 0.03277 0.78016 0.48611 0.0
C719 C -0.00021 0.76502 0.52793 0.0
loop_
_geom_bond_atom_site_label_1
_geom_bond_atom_site_label_2
_geom_bond_distance
_geom_bond_site_symmetry_2
_ccdc_geom_bond_type
Zn0 O1 2.055 1_455 S
Zn0 O8 2.046 1_455 S
Zn0 N16 2.036 . S
Zn0 O28 2.053 . S
Zn0 O30 2.066 . S
O1 Zn0 2.055 1_655 S
O1 C4 1.259 . S
C2 O30 1.256 . S
C2 O31 1.244 . S
Zn3 O5 2.046 . S
Zn3 O7 2.055 . S
Zn3 N9 2.036 . S
Zn3 O27 2.066 . S
Zn3 O31 2.053 1_556 S
C4 O1 1.259 . S
C4 O5 1.254 1_654 S
O5 Zn3 2.046 . S
O5 C4 1.254 1_456 S
C6 O27 1.256 1_554 S
C6 O28 1.244 . S
O7 Zn3 2.055 . S
O7 C29 1.259 1_456 S
O8 Zn0 2.046 1_655 S
O8 C29 1.254 . S
N9 Zn3 2.036 . S
N9 C10 1.298 . S
N9 N12 1.398 . S
C10 N9 1.298 . S
C10 N13 1.367 . S
C10 C23 1.481 . S
C11 N12 1.299 . S
C11 N13 1.379 . S
N12 N9 1.398 . S
N12 C11 1.299 . S
N13 C10 1.367 . S
N13 C11 1.379 . S
C14 N16 1.298 . S
C14 N18 1.367 . S
C14 C22 1.481 1_455 S
C15 N17 1.299 . S
C15 N18 1.379 . S
N16 Zn0 2.036 . S
N16 C14 1.298 . S
N16 N17 1.398 . S
N17 C15 1.299 . S
N17 N16 1.398 . S
N18 C14 1.367 . S
N18 C15 1.379 . S
H19 C22 0.980 . S
H20 C22 0.981 . S
H21 C22 0.981 1_455 S
C22 C14 1.481 1_655 S
C22 H19 0.980 . S
C22 H20 0.981 . S
C22 H21 0.981 1_655 S
C23 C10 1.481 . S
C23 H24 0.980 . S
C23 H25 0.981 . S
C23 H26 0.981 . S
H24 C23 0.980 . S
H25 C23 0.981 . S
H26 C23 0.981 . S
O27 Zn3 2.066 . S
O27 C6 1.256 1_556 S
O28 Zn0 2.053 . S
O28 C6 1.244 . S
C29 O7 1.259 1_654 S
C29 O8 1.254 . S
O30 Zn0 2.066 . S
O30 C2 1.256 . S
O31 C2 1.244 . S
O31 Zn3 2.053 1_554 S
Zn32 O33 2.055 . S
Zn32 O40 2.046 . S
Zn32 N48 2.036 . S
Zn32 O60 2.053 . S
Zn32 O62 2.066 . S
O33 Zn32 2.055 . S
O33 C36 1.259 . S
C34 O62 1.256 . S
C34 O63 1.244 1_554 S
Zn35 O37 2.046 . S
Zn35 O39 2.055 . S
Zn35 N41 2.036 . S
Zn35 O59 2.066 . S
Zn35 O63 2.053 . S
C36 O33 1.259 . S
C36 O37 1.254 1_554 S
O37 Zn35 2.046 . S
O37 C36 1.254 1_556 S
C38 O59 1.256 . S
C38 O60 1.244 1_556 S
O39 Zn35 2.055 . S
O39 C61 1.259 1_556 S
O40 Zn32 2.046 . S
O40 C61 1.254 . S
N41 Zn35 2.036 . S
N41 C42 1.298 . S
N41 N44 1.398 . S
C42 N41 1.298 . S
C42 N45 1.367 . S
C42 C55 1.481 . S
C43 N44 1.299 . S
C43 N45 1.379 . S
N44 N41 1.398 . S
N44 C43 1.299 . S
N45 C42 1.367 . S
N45 C43 1.379 . S
C46 N48 1.298 . S
C46 N50 1.367 . S
C46 C54 1.481 . S
C47 N49 1.299 . S
C47 N50 1.379 . S
N48 Zn32 2.036 . S
N48 C46 1.298 . S
N48 N49 1.398 . S
N49 C47 1.299 . S
N49 N48 1.398 . S
N50 C46 1.367 . S
N50 C47 1.379 . S
H51 C54 0.980 . S
H52 C54 0.981 . S
H53 C54 0.981 . S
C54 C46 1.481 . S
C54 H51 0.980 . S
C54 H52 0.981 . S
C54 H53 0.981 . S
C55 C42 1.481 . S
C55 H56 0.980 . S
C55 H57 0.981 . S
C55 H58 0.981 . S
H56 C55 0.980 . S
H57 C55 0.981 . S
H58 C55 0.981 . S
O59 Zn35 2.066 . S
O59 C38 1.256 . S
O60 Zn32 2.053 . S
O60 C38 1.244 1_554 S
C61 O39 1.259 1_554 S
C61 O40 1.254 . S
O62 Zn32 2.066 . S
O62 C34 1.256 . S
O63 C34 1.244 1_556 S
O63 Zn35 2.053 . S
Zn64 O65 2.055 . S
Zn64 O72 2.046 . S
Zn64 N80 2.036 . S
Zn64 O92 2.053 1_545 S
Zn64 O94 2.066 1_545 S
O65 Zn64 2.055 . S
O65 C68 1.259 1_554 S
C66 O94 1.256 . S
C66 O95 1.244 1_554 S
Zn67 O69 2.046 . S
Zn67 O71 2.055 . S
Zn67 N73 2.036 1_545 S
Zn67 O91 2.066 1_545 S
Zn67 O95 2.053 1_545 S
C68 O65 1.259 1_556 S
C68 O69 1.254 . S
O69 Zn67 2.046 . S
O69 C68 1.254 . S
C70 O91 1.256 1_554 S
C70 O92 1.244 . S
O71 Zn67 2.055 . S
O71 C93 1.259 . S
O72 Zn64 2.046 . S
O72 C93 1.254 1_554 S
N73 Zn67 2.036 1_565 S
N73 C74 1.298 . S
N73 N76 1.398 . S
C74 N73 1.298 . S
C74 N77 1.367 . S
C74 C87 1.481 1_565 S
C75 N76 1.299 . S
C75 N77 1.379 . S
N76 N73 1.398 . S
N76 C75 1.299 . S
N77 C74 1.367 . S
N77 C75 1.379 . S
C78 N80 1.298 . S
C78 N82 1.367 . S
C78 C86 1.481 . S
C79 N81 1.299 . S
C79 N82 1.379 . S
N80 Zn64 2.036 . S
N80 C78 1.298 . S
N80 N81 1.398 . S
N81 C79 1.299 . S
N81 N80 1.398 . S
N82 C78 1.367 . S
N82 C79 1.379 . S
H83 C86 0.980 . S
H84 C86 0.981 . S
H85 C86 0.981 . S
C86 C78 1.481 . S
C86 H83 0.980 . S
C86 H84 0.981 . S
C86 H85 0.981 . S
C87 C74 1.481 1_545 S
C87 H88 0.980 . S
C87 H89 0.981 . S
C87 H90 0.981 1_545 S
H88 C87 0.980 . S
H89 C87 0.981 . S
H90 C87 0.981 1_565 S
O91 Zn67 2.066 1_565 S
O91 C70 1.256 1_556 S
O92 Zn64 2.053 1_565 S
O92 C70 1.244 . S
C93 O71 1.259 . S
C93 O72 1.254 1_556 S
O94 Zn64 2.066 1_565 S
O94 C66 1.256 . S
O95 C66 1.244 1_556 S
O95 Zn67 2.053 1_565 S
Zn96 O97 2.055 . S
Zn96 O104 2.046 . S
Zn96 N112 2.036 . S
Zn96 O124 2.053 . S
Zn96 O126 2.066 . S
O97 Zn96 2.055 . S
O97 C100 1.259 . S
C98 O126 1.256 . S
C98 O127 1.244 . S
Zn99 O101 2.046 . S
Zn99 O103 2.055 . S
Zn99 N105 2.036 . S
Zn99 O123 2.066 . S
Zn99 O127 2.053 . S
C100 O97 1.259 . S
C100 O101 1.254 . S
O101 Zn99 2.046 . S
O101 C100 1.254 . S
C102 O123 1.256 . S
C102 O124 1.244 . S
O103 Zn99 2.055 . S
O103 C125 1.259 . S
O104 Zn96 2.046 . S
O104 C125 1.254 . S
N105 Zn99 2.036 . S
N105 C106 1.298 . S
N105 N108 1.398 . S
C106 N105 1.298 . S
C106 N109 1.367 . S
C106 C119 1.481 . S
C107 N108 1.299 . S
C107 N109 1.379 . S
N108 N105 1.398 . S
N108 C107 1.299 . S
N109 C106 1.367 . S
N109 C107 1.379 . S
C110 N112 1.298 . S
C110 N114 1.367 . S
C110 C118 1.481 . S
C111 N113 1.299 . S
C111 N114 1.379 . S
N112 Zn96 2.036 . S
N112 C110 1.298 . S
N112 N113 1.398 . S
N113 C111 1.299 . S
N113 N112 1.398 . S
N114 C110 1.367 . S
N114 C111 1.379 . S
H115 C118 0.980 . S
H116 C118 0.981 . S
H117 C118 0.981 . S
C118 C110 1.481 . S
C118 H115 0.980 . S
C118 H116 0.981 . S
C118 H117 0.981 . S
C119 C106 1.481 . S
C119 H120 0.980 1_554 S
C119 H121 0.981 1_554 S
C119 H122 0.981 1_554 S
H120 C119 0.980 1_556 S
H121 C119 0.981 1_556 S
H122 C119 0.981 1_556 S
O123 Zn99 2.066 . S
O123 C102 1.256 . S
O124 Zn96 2.053 . S
O124 C102 1.244 . S
C125 O103 1.259 . S
C125 O104 1.254 . S
O126 Zn96 2.066 . S
O126 C98 1.256 . S
O127 C98 1.244 . S
O127 Zn99 2.053 . S
Zn128 O129 2.055 . S
Zn128 O136 2.046 . S
Zn128 N144 2.036 . S
Zn128 O156 2.053 . S
Zn128 O158 2.066 . S
O129 Zn128 2.055 . S
O129 C132 1.259 . S
C130 O158 1.256 . S
C130 O159 1.244 . S
Zn131 O133 2.046 . S
Zn131 O135 2.055 . S
Zn131 N137 2.036 . S
Zn131 O155 2.066 . S
Zn131 O159 2.053 . S
C132 O129 1.259 . S
C132 O133 1.254 . S
O133 Zn131 2.046 . S
O133 C132 1.254 . S
C134 O155 1.256 . S
C134 O156 1.244 . S
O135 Zn131 2.055 . S
O135 C157 1.259 . S
O136 Zn128 2.046 . S
O136 C157 1.254 . S
N137 Zn131 2.036 . S
N137 C138 1.298 . S
N137 N140 1.398 . S
C138 N137 1.298 . S
C138 N141 1.367 . S
C138 C151 1.481 . S
C139 N140 1.299 . S
C139 N141 1.379 . S
N140 N137 1.398 . S
N140 C139 1.299 . S
N141 C138 1.367 . S
N141 C139 1.379 . S
C142 N144 1.298 . S
C142 N146 1.367 . S
C142 C150 1.481 . S
C143 N145 1.299 . S
C143 N146 1.379 . S
N144 Zn128 2.036 . S
N144 C142 1.298 . S
N144 N145 1.398 . S
N145 C143 1.299 . S
N145 N144 1.398 . S
N146 C142 1.367 . S
N146 C143 1.379 . S
H147 C150 0.980 . S
H148 C150 0.981 . S
H149 C150 0.981 . S
C150 C142 1.481 . S
C150 H147 0.980 . S
C150 H148 0.981 . S
C150 H149 0.981 . S
C151 C138 1.481 . S
C151 H152 0.980 . S
C151 H153 0.981 . S
C151 H154 0.981 . S
H152 C151 0.980 . S
H153 C151 0.981 . S
H154 C151 0.981 . S
O155 Zn131 2.066 . S
O155 C134 1.256 . S
O156 Zn128 2.053 . S
O156 C134 1.244 . S
C157 O135 1.259 . S
C157 O136 1.254 . S
O158 Zn128 2.066 . S
O158 C130 1.256 . S
O159 C130 1.244 . S
O159 Zn131 2.053 . S
Zn160 O161 2.055 . S
Zn160 O168 2.046 . S
Zn160 N176 2.036 . S
Zn160 O188 2.053 . S
Zn160 O190 2.066 . S
O161 Zn160 2.055 . S
O161 C164 1.259 . S
C162 O190 1.256 . S
C162 O191 1.244 . S
Zn163 O165 2.046 . S
Zn163 O167 2.055 . S
Zn163 N169 2.036 . S
Zn163 O187 2.066 . S
Zn163 O191 2.053 . S
C164 O161 1.259 . S
C164 O165 1.254 . S
O165 Zn163 2.046 . S
O165 C164 1.254 . S
C166 O187 1.256 . S
C166 O188 1.244 . S
O167 Zn163 2.055 . S
O167 C189 1.259 . S
O168 Zn160 2.046 . S
O168 C189 1.254 . S
N169 Zn163 2.036 . S
N169 C170 1.298 . S
N169 N172 1.398 . S
C170 N169 1.298 . S
C170 N173 1.367 . S
C170 C183 1.481 . S
C171 N172 1.299 . S
C171 N173 1.379 . S
N172 N169 1.398 . S
N172 C171 1.299 . S
N173 C170 1.367 . S
N173 C171 1.379 . S
C174 N176 1.298 . S
C174 N178 1.367 . S
C174 C182 1.481 . S
C175 N177 1.299 . S
C175 N178 1.379 . S
N176 Zn160 2.036 . S
N176 C174 1.298 . S
N176 N177 1.398 . S
N177 C175 1.299 . S
N177 N176 1.398 . S
N178 C174 1.367 . S
N178 C175 1.379 . S
H179 C182 0.980 . S
H180 C182 0.981 . S
H181 C182 0.981 . S
C182 C174 1.481 . S
C182 H179 0.980 . S
C182 H180 0.981 . S
C182 H181 0.981 . S
C183 C170 1.481 . S
C183 H184 0.980 . S
C183 H185 0.981 . S
C183 H186 0.981 . S
H184 C183 0.980 . S
H185 C183 0.981 . S
H186 C183 0.981 . S
O187 Zn163 2.066 . S
O187 C166 1.256 . S
O188 Zn160 2.053 . S
O188 C166 1.244 . S
C189 O167 1.259 . S
C189 O168 1.254 . S
O190 Zn160 2.066 . S
O190 C162 1.256 . S
O191 C162 1.244 . S
O191 Zn163 2.053 . S
Zn192 O193 2.055 . S
Zn192 O200 2.046 . S
Zn192 N208 2.036 . S
Zn192 O220 2.053 . S
Zn192 O222 2.066 . S
O193 Zn192 2.055 . S
O193 C196 1.259 . S
C194 O222 1.256 . S
C194 O223 1.244 . S
Zn195 O197 2.046 . S
Zn195 O199 2.055 . S
Zn195 N201 2.036 . S
Zn195 O219 2.066 . S
Zn195 O223 2.053 . S
C196 O193 1.259 . S
C196 O197 1.254 . S
O197 Zn195 2.046 . S
O197 C196 1.254 . S
C198 O219 1.256 . S
C198 O220 1.244 . S
O199 Zn195 2.055 . S
O199 C221 1.259 . S
O200 Zn192 2.046 . S
O200 C221 1.254 . S
N201 Zn195 2.036 . S
N201 C202 1.298 . S
N201 N204 1.398 . S
C202 N201 1.298 . S
C202 N205 1.367 . S
C202 C215 1.481 . S
C203 N204 1.299 . S
C203 N205 1.379 . S
N204 N201 1.398 . S
N204 C203 1.299 . S
N205 C202 1.367 . S
N205 C203 1.379 . S
C206 N208 1.298 . S
C206 N210 1.367 . S
C206 C214 1.481 . S
C207 N209 1.299 . S
C207 N210 1.379 . S
N208 Zn192 2.036 . S
N208 C206 1.298 . S
N208 N209 1.398 . S
N209 C207 1.299 . S
N209 N208 1.398 . S
N210 C206 1.367 . S
N210 C207 1.379 . S
H211 C214 0.980 1_554 S
H212 C214 0.981 1_554 S
H213 C214 0.981 1_554 S
C214 C206 1.481 . S
C214 H211 0.980 1_556 S
C214 H212 0.981 1_556 S
C214 H213 0.981 1_556 S
C215 C202 1.481 . S
C215 H216 0.980 . S
C215 H217 0.981 . S
C215 H218 0.981 . S
H216 C215 0.980 . S
H217 C215 0.981 . S
H218 C215 0.981 . S
O219 Zn195 2.066 . S
O219 C198 1.256 . S
O220 Zn192 2.053 . S
O220 C198 1.244 . S
C221 O199 1.259 . S
C221 O200 1.254 . S
O222 Zn192 2.066 . S
O222 C194 1.256 . S
O223 C194 1.244 . S
O223 Zn195 2.053 . S
Zn224 O225 2.055 . S
Zn224 O232 2.046 . S
Zn224 N240 2.036 . S
Zn224 O252 2.053 . S
Zn224 O254 2.066 . S
O225 Zn224 2.055 . S
O225 C228 1.259 . S
C226 O254 1.256 . S
C226 O255 1.244 . S
Zn227 O229 2.046 . S
Zn227 O231 2.055 . S
Zn227 N233 2.036 . S
Zn227 O251 2.066 . S
Zn227 O255 2.053 . S
C228 O225 1.259 . S
C228 O229 1.254 . S
O229 Zn227 2.046 . S
O229 C228 1.254 . S
C230 O251 1.256 . S
C230 O252 1.244 . S
O231 Zn227 2.055 . S
O231 C253 1.259 . S
O232 Zn224 2.046 . S
O232 C253 1.254 . S
N233 Zn227 2.036 . S
N233 C234 1.298 . S
N233 N236 1.398 . S
C234 N233 1.298 . S
C234 N237 1.367 . S
C234 C247 1.481 . S
C235 N236 1.299 . S
C235 N237 1.379 . S
N236 N233 1.398 . S
N236 C235 1.299 . S
N237 C234 1.367 . S
N237 C235 1.379 . S
C238 N240 1.298 . S
C238 N242 1.367 . S
C238 C246 1.481 . S
C239 N241 1.299 . S
C239 N242 1.379 . S
N240 Zn224 2.036 . S
N240 C238 1.298 . S
N240 N241 1.398 . S
N241 C239 1.299 . S
N241 N240 1.398 . S
N242 C238 1.367 . S
N242 C239 1.379 . S
H243 C246 0.980 . S
H244 C246 0.981 . S
H245 C246 0.981 . S
C246 C238 1.481 . S
C246 H243 0.980 . S
C246 H244 0.981 . S
C246 H245 0.981 . S
C247 C234 1.481 . S
C247 H248 0.980 . S
C247 H249 0.981 . S
C247 H250 0.981 . S
H248 C247 0.980 . S
H249 C247 0.981 . S
H250 C247 0.981 . S
O251 Zn227 2.066 . S
O251 C230 1.256 . S
O252 Zn224 2.053 . S
O252 C230 1.244 . S
C253 O231 1.259 . S
C253 O232 1.254 . S
O254 Zn224 2.066 . S
O254 C226 1.256 . S
O255 C226 1.244 . S
O255 Zn227 2.053 . S
Zn256 O257 2.055 . S
Zn256 O264 2.046 . S
Zn256 N272 2.036 . S
Zn256 O284 2.053 . S
Zn256 O286 2.066 . S
O257 Zn256 2.055 . S
O257 C260 1.259 . S
C258 O286 1.256 . S
C258 O287 1.244 . S
Zn259 O261 2.046 . S
Zn259 O263 2.055 . S
Zn259 N265 2.036 . S
Zn259 O283 2.066 . S
Zn259 O287 2.053 . S
C260 O257 1.259 . S
C260 O261 1.254 . S
O261 Zn259 2.046 . S
O261 C260 1.254 . S
C262 O283 1.256 . S
C262 O284 1.244 . S
O263 Zn259 2.055 . S
O263 C285 1.259 . S
O264 Zn256 2.046 . S
O264 C285 1.254 . S
N265 Zn259 2.036 . S
N265 C266 1.298 . S
N265 N268 1.398 . S
C266 N265 1.298 . S
C266 N269 1.367 . S
C266 C279 1.481 . S
C267 N268 1.299 . S
C267 N269 1.379 . S
N268 N265 1.398 . S
N268 C267 1.299 . S
N269 C266 1.367 . S
N269 C267 1.379 . S
C270 N272 1.298 . S
C270 N274 1.367 . S
C270 C278 1.481 . S
C271 N273 1.299 . S
C271 N274 1.379 . S
N272 Zn256 2.036 . S
N272 C270 1.298 . S
N272 N273 1.398 . S
N273 C271 1.299 . S
N273 N272 1.398 . S
N274 C270 1.367 . S
N274 C271 1.379 . S
H275 C278 0.980 . S
H276 C278 0.981 . S
H277 C278 0.981 . S
C278 C270 1.481 . S
C278 H275 0.980 . S
C278 H276 0.981 . S
C278 H277 0.981 . S
C279 C266 1.481 . S
C279 H280 0.980 . S
C279 H281 0.981 . S
C279 H282 0.981 . S
H280 C279 0.980 . S
H281 C279 0.981 . S
H282 C279 0.981 . S
O283 Zn259 2.066 . S
O283 C262 1.256 . S
O284 Zn256 2.053 . S
O284 C262 1.244 . S
C285 O263 1.259 . S
C285 O264 1.254 . S
O286 Zn256 2.066 . S
O286 C258 1.256 . S
O287 C258 1.244 . S
O287 Zn259 2.053 . S
H288 C294 0.930 . S
H289 C297 0.930 . S
H290 C298 0.930 . S
H291 C299 0.930 . S
H292 C302 0.930 . S
H293 C303 0.930 . S
C294 H288 0.930 . S
C294 C295 1.355 . S
C294 C296 1.415 . S
C295 C294 1.355 . S
C295 C297 1.419 . S
C296 C294 1.415 . S
C296 C301 1.425 . S
C296 C303 1.409 . S
C297 H289 0.930 . S
C297 C295 1.419 . S
C297 C298 1.362 . S
C298 H290 0.930 . S
C298 C297 1.362 . S
C298 C301 1.409 . S
C299 H291 0.930 . S
C299 C300 1.355 1_455 S
C299 C301 1.415 . S
C300 C299 1.355 1_655 S
C300 C302 1.419 1_655 S
C301 C296 1.425 . S
C301 C298 1.409 . S
C301 C299 1.415 . S
C302 H292 0.930 . S
C302 C300 1.419 1_455 S
C302 C303 1.362 . S
C303 H293 0.930 . S
C303 C296 1.409 . S
C303 C302 1.362 . S
H304 C310 0.930 . S
H305 C313 0.930 . S
H306 C314 0.930 . S
H307 C315 0.930 . S
H308 C318 0.930 . S
H309 C319 0.930 . S
C310 H304 0.930 . S
C310 C311 1.355 . S
C310 C312 1.415 . S
C311 C310 1.355 . S
C311 C313 1.419 . S
C312 C310 1.415 . S
C312 C317 1.425 . S
C312 C319 1.409 . S
C313 H305 0.930 . S
C313 C311 1.419 . S
C313 C314 1.362 . S
C314 H306 0.930 . S
C314 C313 1.362 . S
C314 C317 1.409 . S
C315 H307 0.930 . S
C315 C316 1.355 . S
C315 C317 1.415 . S
C316 C315 1.355 . S
C316 C318 1.419 . S
C317 C312 1.425 . S
C317 C314 1.409 . S
C317 C315 1.415 . S
C318 H308 0.930 . S
C318 C316 1.419 . S
C318 C319 1.362 . S
C319 H309 0.930 . S
C319 C312 1.409 . S
C319 C318 1.362 . S
H320 C326 0.930 . S
H321 C329 0.930 . S
H322 C330 0.930 . S
H323 C331 0.930 . S
H324 C334 0.930 . S
H325 C335 0.930 . S
C326 H320 0.930 . S
C326 C327 1.355 . S
C326 C328 1.415 . S
C327 C326 1.355 . S
C327 C329 1.419 . S
C328 C326 1.415 . S
C328 C333 1.425 1_565 S
C328 C335 1.409 . S
C329 H321 0.930 . S
C329 C327 1.419 . S
C329 C330 1.362 1_565 S
C330 H322 0.930 . S
C330 C329 1.362 1_545 S
C330 C333 1.409 . S
C331 H323 0.930 . S
C331 C332 1.355 . S
C331 C333 1.415 . S
C332 C331 1.355 . S
C332 C334 1.419 . S
C333 C328 1.425 1_545 S
C333 C330 1.409 . S
C333 C331 1.415 . S
C334 H324 0.930 . S
C334 C332 1.419 . S
C334 C335 1.362 1_545 S
C335 H325 0.930 . S
C335 C328 1.409 . S
C335 C334 1.362 1_565 S
H336 C342 0.930 . S
H337 C345 0.930 . S
H338 C346 0.930 . S
H339 C347 0.930 . S
H340 C350 0.930 . S
H341 C351 0.930 . S
C342 H336 0.930 . S
C342 C343 1.355 . S
C342 C344 1.415 . S
C343 C342 1.355 . S
C343 C345 1.419 . S
C344 C342 1.415 . S
C344 C349 1.425 . S
C344 C351 1.409 . S
C345 H337 0.930 . S
C345 C343 1.419 . S
C345 C346 1.362 . S
C346 H338 0.930 . S
C346 C345 1.362 . S
C346 C349 1.409 . S
C347 H339 0.930 . S
C347 C348 1.355 . S
C347 C349 1.415 . S
C348 C347 1.355 . S
C348 C350 1.419 . S
C349 C344 1.425 . S
C349 C346 1.409 . S
C349 C347 1.415 . S
C350 H340 0.930 . S
C350 C348 1.419 . S
C350 C351 1.362 . S
C351 H341 0.930 . S
C351 C344 1.409 . S
C351 C350 1.362 . S
H352 C358 0.930 . S
H353 C361 0.930 . S
H354 C362 0.930 . S
H355 C363 0.930 . S
H356 C366 0.930 . S
H357 C367 0.930 . S
C358 H352 0.930 . S
C358 C359 1.355 . S
C358 C360 1.415 . S
C359 C358 1.355 . S
C359 C361 1.419 . S
C360 C358 1.415 . S
C360 C365 1.425 . S
C360 C367 1.409 . S
C361 H353 0.930 . S
C361 C359 1.419 . S
C361 C362 1.362 . S
C362 H354 0.930 . S
C362 C361 1.362 . S
C362 C365 1.409 . S
C363 H355 0.930 . S
C363 C364 1.355 . S
C363 C365 1.415 . S
C364 C363 1.355 . S
C364 C366 1.419 . S
C365 C360 1.425 . S
C365 C362 1.409 . S
C365 C363 1.415 . S
C366 H356 0.930 . S
C366 C364 1.419 . S
C366 C367 1.362 . S
C367 H357 0.930 . S
C367 C360 1.409 . S
C367 C366 1.362 . S
H368 C374 0.930 . S
H369 C377 0.930 . S
H370 C378 0.930 . S
H371 C379 0.930 . S
H372 C382 0.930 1_554 S
H373 C383 0.930 . S
C374 H368 0.930 . S
C374 C375 1.355 . S
C374 C376 1.415 . S
C375 C374 1.355 . S
C375 C377 1.419 . S
C376 C374 1.415 . S
C376 C381 1.425 . S
C376 C383 1.409 . S
C377 H369 0.930 . S
C377 C375 1.419 . S
C377 C378 1.362 . S
C378 H370 0.930 . S
C378 C377 1.362 . S
C378 C381 1.409 . S
C379 H371 0.930 . S
C379 C380 1.355 1_556 S
C379 C381 1.415 . S
C380 C379 1.355 1_554 S
C380 C382 1.419 1_554 S
C381 C376 1.425 . S
C381 C378 1.409 . S
C381 C379 1.415 . S
C382 H372 0.930 1_556 S
C382 C380 1.419 1_556 S
C382 C383 1.362 . S
C383 H373 0.930 . S
C383 C376 1.409 . S
C383 C382 1.362 . S
H384 C390 0.930 . S
H385 C393 0.930 . S
H386 C394 0.930 . S
H387 C395 0.930 . S
H388 C398 0.930 . S
H389 C399 0.930 . S
C390 H384 0.930 . S
C390 C391 1.355 . S
C390 C392 1.415 . S
C391 C390 1.355 . S
C391 C393 1.419 . S
C392 C390 1.415 . S
C392 C397 1.425 . S
C392 C399 1.409 . S
C393 H385 0.930 . S
C393 C391 1.419 . S
C393 C394 1.362 . S
C394 H386 0.930 . S
C394 C393 1.362 . S
C394 C397 1.409 . S
C395 H387 0.930 . S
C395 C396 1.355 . S
C395 C397 1.415 . S
C396 C395 1.355 . S
C396 C398 1.419 . S
C397 C392 1.425 . S
C397 C394 1.409 . S
C397 C395 1.415 . S
C398 H388 0.930 . S
C398 C396 1.419 . S
C398 C399 1.362 . S
C399 H389 0.930 . S
C399 C392 1.409 . S
C399 C398 1.362 . S
H400 C406 0.930 . S
H401 C409 0.930 . S
H402 C410 0.930 . S
H403 C411 0.930 . S
H404 C414 0.930 . S
H405 C415 0.930 . S
C406 H400 0.930 . S
C406 C407 1.355 . S
C406 C408 1.415 . S
C407 C406 1.355 . S
C407 C409 1.419 . S
C408 C406 1.415 . S
C408 C413 1.425 . S
C408 C415 1.409 . S
C409 H401 0.930 . S
C409 C407 1.419 . S
C409 C410 1.362 . S
C410 H402 0.930 . S
C410 C409 1.362 . S
C410 C413 1.409 . S
C411 H403 0.930 . S
C411 C412 1.355 . S
C411 C413 1.415 . S
C412 C411 1.355 . S
C412 C414 1.419 . S
C413 C408 1.425 . S
C413 C410 1.409 . S
C413 C411 1.415 . S
C414 H404 0.930 . S
C414 C412 1.419 . S
C414 C415 1.362 . S
C415 H405 0.930 . S
C415 C408 1.409 . S
C415 C414 1.362 . S
H416 C422 0.930 . S
H417 C425 0.930 . S
H418 C426 0.930 . S
H419 C427 0.930 . S
H420 C430 0.930 . S
H421 C431 0.930 . S
C422 H416 0.930 . S
C422 C423 1.355 . S
C422 C424 1.415 . S
C423 C422 1.355 . S
C423 C425 1.419 . S
C424 C422 1.415 . S
C424 C429 1.425 . S
C424 C431 1.409 . S
C425 H417 0.930 . S
C425 C423 1.419 . S
C425 C426 1.362 . S
C426 H418 0.930 . S
C426 C425 1.362 . S
C426 C429 1.409 . S
C427 H419 0.930 . S
C427 C428 1.355 . S
C427 C429 1.415 . S
C428 C427 1.355 . S
C428 C430 1.419 . S
C429 C424 1.425 . S
C429 C426 1.409 . S
C429 C427 1.415 . S
C430 H420 0.930 . S
C430 C428 1.419 . S
C430 C431 1.362 . S
C431 H421 0.930 . S
C431 C424 1.409 . S
C431 C430 1.362 . S
H432 C438 0.930 . S
H433 C441 0.930 . S
H434 C442 0.930 . S
H435 C443 0.930 . S
H436 C446 0.930 . S
H437 C447 0.930 . S
C438 H432 0.930 . S
C438 C439 1.355 . S
C438 C440 1.415 . S
C439 C438 1.355 . S
C439 C441 1.419 . S
C440 C438 1.415 . S
C440 C445 1.425 . S
C440 C447 1.409 . S
C441 H433 0.930 . S
C441 C439 1.419 . S
C441 C442 1.362 . S
C442 H434 0.930 . S
C442 C441 1.362 . S
C442 C445 1.409 . S
C443 H435 0.930 . S
C443 C444 1.355 . S
C443 C445 1.415 . S
C444 C443 1.355 . S
C444 C446 1.419 . S
C445 C440 1.425 . S
C445 C442 1.409 . S
C445 C443 1.415 . S
C446 H436 0.930 . S
C446 C444 1.419 . S
C446 C447 1.362 . S
C447 H437 0.930 . S
C447 C440 1.409 . S
C447 C446 1.362 . S
H448 C454 0.930 1_556 S
H449 C457 0.930 . S
H450 C458 0.930 . S
H451 C459 0.930 . S
H452 C462 0.930 1_556 S
H453 C463 0.930 . S
C454 H448 0.930 1_554 S
C454 C455 1.355 . S
C454 C456 1.415 . S
C455 C454 1.355 . S
C455 C457 1.419 . S
C456 C454 1.415 . S
C456 C461 1.425 . S
C456 C463 1.409 1_554 S
C457 H449 0.930 . S
C457 C455 1.419 . S
C457 C458 1.362 . S
C458 H450 0.930 . S
C458 C457 1.362 . S
C458 C461 1.409 . S
C459 H451 0.930 . S
C459 C460 1.355 . S
C459 C461 1.415 . S
C460 C459 1.355 . S
C460 C462 1.419 . S
C461 C456 1.425 . S
C461 C458 1.409 . S
C461 C459 1.415 . S
C462 H452 0.930 1_554 S
C462 C460 1.419 . S
C462 C463 1.362 1_554 S
C463 H453 0.930 . S
C463 C456 1.409 1_556 S
C463 C462 1.362 1_556 S
H464 C470 0.930 . S
H465 C473 0.930 . S
H466 C474 0.930 . S
H467 C475 0.930 . S
H468 C478 0.930 . S
H469 C479 0.930 . S
C470 H464 0.930 . S
C470 C471 1.355 . S
C470 C472 1.415 . S
C471 C470 1.355 . S
C471 C473 1.419 . S
C472 C470 1.415 . S
C472 C477 1.425 . S
C472 C479 1.409 . S
C473 H465 0.930 . S
C473 C471 1.419 . S
C473 C474 1.362 . S
C474 H466 0.930 . S
C474 C473 1.362 . S
C474 C477 1.409 . S
C475 H467 0.930 . S
C475 C476 1.355 . S
C475 C477 1.415 . S
C476 C475 1.355 . S
C476 C478 1.419 . S
C477 C472 1.425 . S
C477 C474 1.409 . S
C477 C475 1.415 . S
C478 H468 0.930 . S
C478 C476 1.419 . S
C478 C479 1.362 . S
C479 H469 0.930 . S
C479 C472 1.409 . S
C479 C478 1.362 . S
H480 C486 0.930 . S
H481 C489 0.930 . S
H482 C490 0.930 . S
H483 C491 0.930 . S
H484 C494 0.930 . S
H485 C495 0.930 . S
C486 H480 0.930 . S
C486 C487 1.355 . S
C486 C488 1.415 . S
C487 C486 1.355 . S
C487 C489 1.419 1_556 S
C488 C486 1.415 . S
C488 C493 1.425 . S
C488 C495 1.409 . S
C489 H481 0.930 . S
C489 C487 1.419 1_554 S
C489 C490 1.362 . S
C490 H482 0.930 . S
C490 C489 1.362 . S
C490 C493 1.409 1_554 S
C491 H483 0.930 . S
C491 C492 1.355 . S
C491 C493 1.415 . S
C492 C491 1.355 . S
C492 C494 1.419 . S
C493 C488 1.425 . S
C493 C490 1.409 1_556 S
C493 C491 1.415 . S
C494 H484 0.930 . S
C494 C492 1.419 . S
C494 C495 1.362 . S
C495 H485 0.930 . S
C495 C488 1.409 . S
C495 C494 1.362 . S
H496 C502 0.930 . S
H497 C505 0.930 . S
H498 C506 0.930 . S
H499 C507 0.930 . S
H500 C510 0.927 . S
H501 C511 0.930 . S
C502 H496 0.930 . S
C502 C503 1.355 . S
C502 C504 1.415 . S
C503 C502 1.355 . S
C503 C505 1.419 . S
C504 C502 1.415 . S
C504 C509 1.425 . S
C504 C511 1.409 . S
C505 H497 0.930 . S
C505 C503 1.419 . S
C505 C506 1.362 . S
C506 H498 0.930 . S
C506 C505 1.362 . S
C506 C509 1.409 . S
C507 H499 0.930 . S
C507 C508 1.355 1_556 S
C507 C509 1.415 . S
C508 C507 1.355 1_554 S
C508 C510 1.419 . S
C509 C504 1.425 . S
C509 C506 1.409 . S
C509 C507 1.415 . S
C510 H500 0.927 . S
C510 C508 1.419 . S
C510 C511 1.362 1_554 S
C511 H501 0.930 . S
C511 C504 1.409 . S
C511 C510 1.362 1_556 S
H512 C518 0.930 . S
H513 C521 0.930 . S
H514 C522 0.930 . S
H515 C523 0.930 . S
H516 C526 0.930 . S
H517 C527 0.930 1_554 S
C518 H512 0.930 . S
C518 C519 1.355 . S
C518 C520 1.415 . S
C519 C518 1.355 . S
C519 C521 1.419 . S
C520 C518 1.415 . S
C520 C525 1.425 . S
C520 C527 1.409 . S
C521 H513 0.930 . S
C521 C519 1.419 . S
C521 C522 1.362 . S
C522 H514 0.930 . S
C522 C521 1.362 . S
C522 C525 1.409 . S
C523 H515 0.930 . S
C523 C524 1.355 . S
C523 C525 1.415 . S
C524 C523 1.355 . S
C524 C526 1.419 1_556 S
C525 C520 1.425 . S
C525 C522 1.409 . S
C525 C523 1.415 . S
C526 H516 0.930 . S
C526 C524 1.419 1_554 S
C526 C527 1.362 1_554 S
C527 H517 0.930 1_556 S
C527 C520 1.409 . S
C527 C526 1.362 1_556 S
H528 C534 0.930 . S
H529 C537 0.930 . S
H530 C538 0.930 . S
H531 C539 0.930 . S
H532 C542 0.923 1_455 S
H533 C543 0.930 1_455 S
C534 H528 0.930 . S
C534 C535 1.355 . S
C534 C536 1.415 . S
C535 C534 1.355 . S
C535 C537 1.419 . S
C536 C534 1.415 . S
C536 C541 1.425 . S
C536 C543 1.409 . S
C537 H529 0.930 . S
C537 C535 1.419 . S
C537 C538 1.362 . S
C538 H530 0.930 . S
C538 C537 1.362 . S
C538 C541 1.409 . S
C539 H531 0.930 . S
C539 C540 1.355 . S
C539 C541 1.415 . S
C540 C539 1.355 . S
C540 C542 1.420 . S
C541 C536 1.425 . S
C541 C538 1.409 . S
C541 C539 1.415 . S
C542 H532 0.923 1_655 S
C542 C540 1.420 . S
C542 C543 1.368 . S
C543 H533 0.930 1_655 S
C543 C536 1.409 . S
C543 C542 1.368 . S
H544 C550 0.930 . S
H545 C553 0.930 . S
H546 C554 0.930 . S
H547 C555 0.930 1_554 S
H548 C558 0.930 . S
H549 C559 0.930 . S
C550 H544 0.930 . S
C550 C551 1.347 1_556 S
C550 C552 1.415 . S
C551 C550 1.347 1_554 S
C551 C553 1.426 . S
C552 C550 1.415 . S
C552 C557 1.425 . S
C552 C559 1.409 . S
C553 H545 0.930 . S
C553 C551 1.426 . S
C553 C554 1.362 . S
C554 H546 0.930 . S
C554 C553 1.362 . S
C554 C557 1.409 1_554 S
C555 H547 0.930 1_556 S
C555 C556 1.355 . S
C555 C557 1.415 . S
C556 C555 1.355 . S
C556 C558 1.419 . S
C557 C552 1.425 . S
C557 C554 1.409 1_556 S
C557 C555 1.415 . S
C558 H548 0.930 . S
C558 C556 1.419 . S
C558 C559 1.362 . S
C559 H549 0.930 . S
C559 C552 1.409 . S
C559 C558 1.362 . S
H560 C566 0.930 . S
H561 C569 0.930 . S
H562 C570 0.930 . S
H563 C571 0.930 . S
H564 C574 0.930 . S
H565 C575 0.930 . S
C566 H560 0.930 . S
C566 C567 1.355 . S
C566 C568 1.415 . S
C567 C566 1.355 . S
C567 C569 1.419 . S
C568 C566 1.415 . S
C568 C573 1.425 . S
C568 C575 1.409 . S
C569 H561 0.930 . S
C569 C567 1.419 . S
C569 C570 1.362 . S
C570 H562 0.930 . S
C570 C569 1.362 . S
C570 C573 1.409 . S
C571 H563 0.930 . S
C571 C572 1.355 . S
C571 C573 1.415 . S
C572 C571 1.355 . S
C572 C574 1.419 . S
C573 C568 1.425 . S
C573 C570 1.409 . S
C573 C571 1.415 . S
C574 H564 0.930 . S
C574 C572 1.419 . S
C574 C575 1.362 . S
C575 H565 0.930 . S
C575 C568 1.409 . S
C575 C574 1.362 . S
H576 C582 0.930 . S
H577 C585 0.930 . S
H578 C586 0.930 . S
H579 C587 0.930 . S
H580 C590 0.930 . S
H581 C591 0.930 . S
C582 H576 0.930 . S
C582 C583 1.355 1_556 S
C582 C584 1.415 1_556 S
C583 C582 1.355 1_554 S
C583 C585 1.419 . S
C584 C582 1.415 1_554 S
C584 C589 1.425 . S
C584 C591 1.409 1_554 S
C585 H577 0.930 . S
C585 C583 1.419 . S
C585 C586 1.362 . S
C586 H578 0.930 . S
C586 C585 1.362 . S
C586 C589 1.409 . S
C587 H579 0.930 . S
C587 C588 1.355 . S
C587 C589 1.415 . S
C588 C587 1.355 . S
C588 C590 1.419 1_554 S
C589 C584 1.425 . S
C589 C586 1.409 . S
C589 C587 1.415 . S
C590 H580 0.930 . S
C590 C588 1.419 1_556 S
C590 C591 1.362 . S
C591 H581 0.930 . S
C591 C584 1.409 1_556 S
C591 C590 1.362 . S
H592 C598 0.930 . S
H593 C601 0.930 . S
H594 C602 0.930 . S
H595 C603 0.930 . S
H596 C606 0.930 1_556 S
H597 C607 0.930 1_556 S
C598 H592 0.930 . S
C598 C599 1.355 . S
C598 C600 1.415 . S
C599 C598 1.355 . S
C599 C601 1.419 . S
C600 C598 1.415 . S
C600 C605 1.425 . S
C600 C607 1.409 . S
C601 H593 0.930 . S
C601 C599 1.419 . S
C601 C602 1.362 . S
C602 H594 0.930 . S
C602 C601 1.362 . S
C602 C605 1.409 . S
C603 H595 0.930 . S
C603 C604 1.355 . S
C603 C605 1.415 . S
C604 C603 1.355 . S
C604 C606 1.419 . S
C605 C600 1.425 . S
C605 C602 1.409 . S
C605 C603 1.415 . S
C606 H596 0.930 1_554 S
C606 C604 1.419 . S
C606 C607 1.362 . S
C607 H597 0.930 1_554 S
C607 C600 1.409 . S
C607 C606 1.362 . S
H608 C614 0.930 . S
H609 C617 0.930 . S
H610 C618 0.930 . S
H611 C619 0.930 . S
H612 C622 0.930 . S
H613 C623 0.930 . S
C614 H608 0.930 . S
C614 C615 1.355 . S
C614 C616 1.415 . S
C615 C614 1.355 . S
C615 C617 1.419 . S
C616 C614 1.415 . S
C616 C621 1.425 . S
C616 C623 1.409 . S
C617 H609 0.930 . S
C617 C615 1.419 . S
C617 C618 1.362 . S
C618 H610 0.930 . S
C618 C617 1.362 . S
C618 C621 1.409 . S
C619 H611 0.930 . S
C619 C620 1.355 . S
C619 C621 1.415 . S
C620 C619 1.355 . S
C620 C622 1.419 . S
C621 C616 1.425 . S
C621 C618 1.409 . S
C621 C619 1.415 . S
C622 H612 0.930 . S
C622 C620 1.419 . S
C622 C623 1.362 . S
C623 H613 0.930 . S
C623 C616 1.409 . S
C623 C622 1.362 . S
H624 C630 0.930 . S
H625 C633 0.930 . S
H626 C634 0.930 . S
H627 C635 0.930 . S
H628 C638 0.930 . S
H629 C639 0.930 . S
C630 H624 0.930 . S
C630 C631 1.355 . S
C630 C632 1.415 . S
C631 C630 1.355 . S
C631 C633 1.419 . S
C632 C630 1.415 . S
C632 C637 1.425 . S
C632 C639 1.409 . S
C633 H625 0.930 . S
C633 C631 1.419 . S
C633 C634 1.362 . S
C634 H626 0.930 . S
C634 C633 1.362 . S
C634 C637 1.409 . S
C635 H627 0.930 . S
C635 C636 1.355 . S
C635 C637 1.415 . S
C636 C635 1.355 . S
C636 C638 1.419 . S
C637 C632 1.425 . S
C637 C634 1.409 . S
C637 C635 1.415 . S
C638 H628 0.930 . S
C638 C636 1.419 . S
C638 C639 1.362 . S
C639 H629 0.930 . S
C639 C632 1.409 . S
C639 C638 1.362 . S
H640 C646 0.930 . S
H641 C649 0.930 . S
H642 C650 0.930 . S
H643 C651 0.930 . S
H644 C654 0.930 . S
H645 C655 0.930 . S
C646 H640 0.930 . S
C646 C647 1.355 . S
C646 C648 1.415 . S
C647 C646 1.355 . S
C647 C649 1.419 . S
C648 C646 1.415 . S
C648 C653 1.425 1_545 S
C648 C655 1.409 . S
C649 H641 0.930 . S
C649 C647 1.419 . S
C649 C650 1.362 1_545 S
C650 H642 0.930 . S
C650 C649 1.362 1_565 S
C650 C653 1.409 . S
C651 H643 0.930 . S
C651 C652 1.355 . S
C651 C653 1.415 . S
C652 C651 1.355 . S
C652 C654 1.419 . S
C653 C648 1.425 1_565 S
C653 C650 1.409 . S
C653 C651 1.415 . S
C654 H644 0.930 . S
C654 C652 1.419 . S
C654 C655 1.362 1_565 S
C655 H645 0.930 . S
C655 C648 1.409 . S
C655 C654 1.362 1_545 S
H656 C662 0.930 . S
H657 C665 0.930 . S
H658 C666 0.930 . S
H659 C667 0.930 . S
H660 C670 0.930 . S
H661 C671 0.930 . S
C662 H656 0.930 . S
C662 C663 1.355 . S
C662 C664 1.415 . S
C663 C662 1.355 . S
C663 C665 1.419 . S
C664 C662 1.415 . S
C664 C669 1.425 . S
C664 C671 1.409 . S
C665 H657 0.930 . S
C665 C663 1.419 . S
C665 C666 1.362 . S
C666 H658 0.930 . S
C666 C665 1.362 . S
C666 C669 1.409 . S
C667 H659 0.930 . S
C667 C668 1.357 1_655 S
C667 C669 1.415 . S
C668 C667 1.357 1_455 S
C668 C670 1.419 . S
C669 C664 1.425 . S
C669 C666 1.409 . S
C669 C667 1.415 . S
C670 H660 0.930 . S
C670 C668 1.419 . S
C670 C671 1.362 1_455 S
C671 H661 0.930 . S
C671 C664 1.409 . S
C671 C670 1.362 1_655 S
H672 C678 0.930 . S
H673 C681 0.930 . S
H674 C682 0.930 . S
H675 C683 0.930 . S
H676 C686 0.930 . S
H677 C687 0.930 . S
C678 H672 0.930 . S
C678 C679 1.355 . S
C678 C680 1.415 . S
C679 C678 1.355 . S
C679 C681 1.419 . S
C680 C678 1.415 . S
C680 C685 1.425 . S
C680 C687 1.409 . S
C681 H673 0.930 . S
C681 C679 1.419 . S
C681 C682 1.362 . S
C682 H674 0.930 . S
C682 C681 1.362 . S
C682 C685 1.409 . S
C683 H675 0.930 . S
C683 C684 1.355 . S
C683 C685 1.415 . S
C684 C683 1.355 . S
C684 C686 1.419 . S
C685 C680 1.425 . S
C685 C682 1.409 . S
C685 C683 1.415 . S
C686 H676 0.930 . S
C686 C684 1.419 . S
C686 C687 1.362 . S
C687 H677 0.930 . S
C687 C680 1.409 . S
C687 C686 1.362 . S
H688 C694 0.930 . S
H689 C697 0.930 . S
H690 C698 0.930 . S
H691 C699 0.930 1_545 S
H692 C702 0.930 . S
H693 C703 0.930 . S
C694 H688 0.930 . S
C694 C695 1.355 . S
C694 C696 1.415 . S
C695 C694 1.355 . S
C695 C697 1.419 . S
C696 C694 1.415 . S
C696 C701 1.425 . S
C696 C703 1.409 . S
C697 H689 0.930 . S
C697 C695 1.419 . S
C697 C698 1.362 . S
C698 H690 0.930 . S
C698 C697 1.362 . S
C698 C701 1.409 . S
C699 H691 0.930 1_565 S
C699 C700 1.355 . S
C699 C701 1.415 . S
C700 C699 1.355 . S
C700 C702 1.419 . S
C701 C696 1.425 . S
C701 C698 1.409 . S
C701 C699 1.415 . S
C702 H692 0.930 . S
C702 C700 1.419 . S
C702 C703 1.362 . S
C703 H693 0.930 . S
C703 C696 1.409 . S
C703 C702 1.362 . S
H704 C710 0.930 . S
H705 C713 0.930 . S
H706 C714 0.930 . S
H707 C715 0.930 . S
H708 C718 0.930 . S
H709 C719 0.930 1_655 S
C710 H704 0.930 . S
C710 C711 1.355 . S
C710 C712 1.415 . S
C711 C710 1.355 . S
C711 C713 1.419 . S
C712 C710 1.415 . S
C712 C717 1.425 1_655 S
C712 C719 1.409 1_655 S
C713 H705 0.930 . S
C713 C711 1.419 . S
C713 C714 1.362 1_655 S
C714 H706 0.930 . S
C714 C713 1.362 1_455 S
C714 C717 1.409 . S
C715 H707 0.930 . S
C715 C716 1.355 . S
C715 C717 1.415 . S
C716 C715 1.355 . S
C716 C718 1.419 . S
C717 C712 1.425 1_455 S
C717 C714 1.409 . S
C717 C715 1.415 . S
C718 H708 0.930 . S
C718 C716 1.419 . S
C718 C719 1.362 . S
C719 H709 0.930 1_455 S
C719 C712 1.409 1_455 S
C719 C718 1.362 . S
C295 N13 0.794 . S
C300 N18 0.691 1_655 S
C311 N45 0.886 . S
C316 N50 1.004 . S
C327 N77 0.927 . S
C332 N82 0.813 . S
C343 C98 2.266 . S
C348 C125 2.276 1_556 S
C359 C130 2.242 . S
C364 C157 2.260 1_556 S
C375 C162 2.233 . S
C380 C189 2.249 . S
C391 C198 2.234 . S
C396 C196 2.242 1_554 S
C407 C253 2.284 . S
C412 C226 2.271 1_554 S
C423 C262 2.288 . S
C428 C260 2.301 1_554 S
C439 C166 1.606 . S
C444 C2 1.606 . S
C455 C61 1.654 . S
C460 C102 1.641 . S
C471 C66 1.708 . S
C476 C134 1.692 . S
C487 C68 1.824 . S
C492 C194 1.790 . S
C503 N242 1.204 . S
C508 C4 1.258 . S
C519 C258 1.716 . S
C524 C38 1.753 . S
C535 N274 1.232 . S
C540 C29 1.254 1_556 S
C551 C34 1.277 . S
C556 N210 1.230 . S
C567 C228 1.640 . S
C572 C93 1.628 . S
C583 C70 1.428 . S
C588 N109 1.271 . S
C599 N141 1.174 . S
C604 C6 1.291 . S
C615 C36 1.490 . S
C620 N173 1.424 . S
C631 N269 0.638 . S
C636 N114 0.659 . S
C647 N205 0.834 . S
C652 N146 0.854 . S
C663 C230 1.084 . S
C668 N178 1.118 . S
C679 C221 1.430 . S
C684 C164 1.441 . S
C695 C100 1.223 . S
C700 N237 1.233 1_565 S
C711 C285 1.076 . S
C716 C132 1.098 . S
