# Generated by pormake.
# Topology mmt, (4)-cn, num edge types: 1
# Building blocks:
#     Node 0, Type 0, BuildingBlock: QUQFOY_clean_sbu_1, # of connection points: 4
#     Node 1, Type 0, BuildingBlock: QUQFOY_clean_sbu_1, # of connection points: 4
#     Node 2, Type 0, BuildingBlock: QUQFOY_clean_sbu_1, # of connection points: 4
#     Node 3, Type 0, BuildingBlock: QUQFOY_clean_sbu_1, # of connection points: 4
#     Node 4, Type 0, BuildingBlock: QUQFOY_clean_sbu_1, # of connection points: 4
#     Node 5, Type 0, BuildingBlock: QUQFOY_clean_sbu_1, # of connection points: 4
#     Node 6, Type 0, BuildingBlock: QUQFOY_clean_sbu_1, # of connection points: 4
#     Node 7, Type 0, BuildingBlock: QUQFOY_clean_sbu_1, # of connection points: 4
#     Edge 8, Type (0, 0), BuildingBlock: EZIPEK_clean_linker_0, # of connection points: 2
#     Edge 9, Type (0, 0), BuildingBlock: EZIPEK_clean_linker_0, # of connection points: 2
#     Edge 10, Type (0, 0), BuildingBlock: EZIPEK_clean_linker_0, # of connection points: 2
#     Edge 11, Type (0, 0), BuildingBlock: EZIPEK_clean_linker_0, # of connection points: 2
#     Edge 12, Type (0, 0), BuildingBlock: EZIPEK_clean_linker_0, # of connection points: 2
#     Edge 13, Type (0, 0), BuildingBlock: EZIPEK_clean_linker_0, # of connection points: 2
#     Edge 14, Type (0, 0), BuildingBlock: EZIPEK_clean_linker_0, # of connection points: 2
#     Edge 15, Type (0, 0), BuildingBlock: EZIPEK_clean_linker_0, # of connection points: 2
#     Edge 16, Type (0, 0), BuildingBlock: EZIPEK_clean_linker_0, # of connection points: 2
#     Edge 17, Type (0, 0), BuildingBlock: EZIPEK_clean_linker_0, # of connection points: 2
#     Edge 18, Type (0, 0), BuildingBlock: EZIPEK_clean_linker_0, # of connection points: 2
#     Edge 19, Type (0, 0), BuildingBlock: EZIPEK_clean_linker_0, # of connection points: 2
#     Edge 20, Type (0, 0), BuildingBlock: EZIPEK_clean_linker_0, # of connection points: 2
#     Edge 21, Type (0, 0), BuildingBlock: EZIPEK_clean_linker_0, # of connection points: 2
#     Edge 22, Type (0, 0), BuildingBlock: EZIPEK_clean_linker_0, # of connection points: 2
#     Edge 23, Type (0, 0), BuildingBlock: EZIPEK_clean_linker_0, # of connection points: 2
# Relax obj value: 0.024
# Max RMSD: 0.102
# Mean RMSD: 0.102
data_MOF--net-mmt--node1-QUQFOY_clean_sbu_1--edge1-EZIPEK_clean_linker_0
_symmetry_space_group_name_H-M    P1
_symmetry_Int_Tables_number       1
_symmetry_cell_setting            triclinic
loop_
_symmetry_equiv_pos_as_xyz
'x, y, z'
_cell_length_a     16.883338
_cell_length_b     30.493361
_cell_length_c     33.470524
_cell_angle_alpha  89.337745
_cell_angle_beta   90.078303
_cell_angle_gamma 90.129265
loop_
_atom_site_label
_atom_site_type_symbol
_atom_site_fract_x
_atom_site_fract_y
_atom_site_fract_z
_atom_type_partial_charge
O0 O 0.19439 0.59063 0.3196 0.0
Cd1 Cd 0.10955 0.62893 0.34705 0.0
Cd2 Cd 0.10124 0.55553 0.38592 0.0
O3 O 0.21486 0.54314 0.36874 0.0
O4 O 0.13392 0.68939 0.32719 0.0
O5 O 0.14505 0.66951 0.39087 0.0
C6 C 0.1538 0.69902 0.36321 0.0
C7 C 0.05307 0.54821 0.45065 0.0
C8 C 0.234 0.55928 0.33497 0.0
C9 C -0.02214 0.57477 0.32506 0.0
O10 O 0.02224 0.54561 0.34037 0.0
O11 O -0.0069 0.61489 0.3316 0.0
O12 O 0.06819 0.51421 0.42942 0.0
O13 O 0.0683 0.58664 0.4358 0.0
O14 O 0.25929 0.97721 0.31597 0.0
Cd15 Cd 0.34106 0.94025 0.34746 0.0
Cd16 Cd 0.33316 1.0095 0.38724 0.0
O17 O 0.21714 1.01254 0.36844 0.0
O18 O 0.32576 0.87913 0.32834 0.0
O19 O 0.30107 0.89926 0.39057 0.0
C20 C 0.29939 0.86938 0.36349 0.0
C21 C 0.37698 1.01467 0.45274 0.0
C22 C 0.20847 1.00202 0.33207 0.0
C23 C 0.46491 0.99973 0.33016 0.0
O24 O 0.41363 1.02628 0.3433 0.0
O25 O 0.45689 0.95901 0.33765 0.0
O26 O 0.3533 0.04899 0.43323 0.0
O27 O 0.37246 0.97689 0.43572 0.0
O28 O 0.68663 0.47882 0.23779 0.0
Cd29 Cd 0.60574 0.43961 0.20931 0.0
Cd30 Cd 0.59567 0.51266 0.16909 0.0
O31 O 0.7117 0.5224 0.18682 0.0
O32 O 0.63303 0.37901 0.22761 0.0
O33 O 0.64168 0.40078 0.16435 0.0
C34 C 0.65202 0.3706 0.19125 0.0
C35 C 0.55047 0.52268 0.10418 0.0
C36 C 0.72909 0.50848 0.22164 0.0
C37 C 0.47188 0.49121 0.23028 0.0
O38 O 0.51138 0.52134 0.21293 0.0
O39 O 0.49169 0.4513 0.22693 0.0
O40 O 0.56744 0.55579 0.12627 0.0
O41 O 0.56269 0.4836 0.11824 0.0
O42 O 0.75916 0.0953 0.24085 0.0
Cd43 Cd 0.84098 0.13166 0.20874 0.0
Cd44 Cd 0.83325 0.06113 0.1701 0.0
O45 O 0.71751 0.05852 0.18898 0.0
O46 O 0.82499 0.19338 0.2259 0.0
O47 O 0.80056 0.17074 0.16431 0.0
C48 C 0.79864 0.20161 0.19043 0.0
C49 C 0.87536 0.05259 0.10475 0.0
C50 C 0.70853 0.06997 0.22505 0.0
C51 C 0.96561 0.07313 0.22705 0.0
O52 O 0.91493 0.046 0.21397 0.0
O53 O 0.95682 0.11375 0.21942 0.0
O54 O 0.85152 1.01932 0.12573 0.0
O55 O 0.87155 0.0912 0.12023 0.0
O56 O 0.76303 0.47854 0.73744 0.0
Cd57 Cd 0.84555 0.43944 0.71066 0.0
Cd58 Cd 0.85543 0.51157 0.66887 0.0
O59 O 0.73863 0.52084 0.68553 0.0
O60 O 0.81694 0.37932 0.72991 0.0
O61 O 0.81278 0.39915 0.66602 0.0
C62 C 0.80027 0.36981 0.69346 0.0
C63 C 0.90256 0.52081 0.60419 0.0
C64 C 0.72051 0.5075 0.72044 0.0
C65 C -0.02276 0.49284 0.73225 0.0
O66 O 0.9384 0.52199 0.7132 0.0
O67 O 0.95816 0.45264 0.72989 0.0
O68 O 0.88355 0.55414 0.6255 0.0
O69 O 0.89105 0.48188 0.61881 0.0
O70 O 0.70402 0.0859 0.72771 0.0
Cd71 Cd 0.61486 0.12896 0.7133 0.0
Cd72 Cd 0.56105 0.05371 0.67359 0.0
O73 O 0.66441 1.02643 0.69592 0.0
O74 O 0.65888 0.1859 0.73233 0.0
O75 O 0.62965 0.17401 0.66891 0.0
C76 C 0.65771 0.1997 0.69588 0.0
C77 C 0.51729 0.04163 0.60847 0.0
C78 C 0.7132 0.04589 0.71868 0.0
C79 C 0.46383 0.08782 0.74232 0.0
O80 O 0.4728 0.05961 0.71512 0.0
O81 O 0.51216 0.11955 0.7462 0.0
O82 O 0.51553 1.01081 0.63509 0.0
O83 O 0.54712 0.07909 0.61817 0.0
O84 O 0.25661 0.59285 0.82001 0.0
Cd85 Cd 0.34477 0.63015 0.84638 0.0
Cd86 Cd 0.35154 0.55709 0.88573 0.0
O87 O 0.2364 0.54638 0.86997 0.0
O88 O 0.32398 0.69095 0.82654 0.0
O89 O 0.31372 0.67144 0.89034 0.0
C90 C 0.30588 0.70102 0.86267 0.0
C91 C 0.40091 0.55007 0.95029 0.0
C92 C 0.21612 0.5624 0.83635 0.0
C93 C 0.47313 0.57422 0.82366 0.0
O94 O 0.42829 0.54558 0.83958 0.0
O95 O 0.45973 0.61451 0.83006 0.0
O96 O 0.38317 0.51597 0.92962 0.0
O97 O 0.3882 0.58848 0.93486 0.0
O98 O 0.19971 0.98757 0.82858 0.0
Cd99 Cd 0.11582 0.94137 0.84381 0.0
Cd100 Cd 0.06144 1.01594 0.88435 0.0
O101 O 0.16715 0.04361 0.86663 0.0
O102 O 0.16364 0.88592 0.82404 0.0
O103 O 0.1384 0.89711 0.88795 0.0
C104 C 0.16613 0.87205 0.86047 0.0
C105 C 0.01453 1.02475 0.94913 0.0
C106 C 0.21204 1.02627 0.84086 0.0
C107 C 0.96476 0.97995 0.81538 0.0
O108 O -0.02283 1.01019 0.84043 0.0
O109 O 0.00945 0.94656 0.8138 0.0
O110 O 0.0137 0.0568 0.92373 0.0
O111 O 0.04389 0.98767 0.93824 0.0
C112 C 0.37549 0.53951 0.32164 0.0
C113 C 0.29465 0.53765 0.31046 0.0
C114 C 0.32943 0.50299 0.24712 0.0
C115 C 0.40991 0.50365 0.25884 0.0
N116 N 0.5093 0.51406 0.30972 0.0
N117 N 0.1923 0.50898 0.26749 0.0
C118 C 0.43284 0.51924 0.29697 0.0
C119 C 0.27086 0.51678 0.27461 0.0
N120 N 0.39769 0.56238 0.35474 0.0
N121 N 0.30933 0.49061 0.20929 0.0
H122 H 0.14764 0.51792 0.28728 0.0
H123 H 0.17174 0.49011 0.2439 0.0
H124 H 0.35068 0.47913 0.18878 0.0
H125 H 0.25279 0.49445 0.19731 0.0
H126 H 0.45638 0.56925 0.36197 0.0
H127 H 0.35709 0.57733 0.37367 0.0
H128 H 0.528 0.52062 0.3387 0.0
H129 H 0.55304 0.49961 0.29227 0.0
C130 C 0.06459 1.01525 0.24602 0.0
C131 C 0.0305 0.05688 0.2534 0.0
C132 C 0.12001 0.06513 0.31042 0.0
C133 C 0.14356 1.02056 0.30702 0.0
N134 N 0.11777 0.94999 0.27712 0.0
N135 N 0.01136 0.11527 0.30123 0.0
C136 C 0.10967 0.99456 0.27649 0.0
C137 C 0.05385 0.08023 0.28806 0.0
N138 N 0.05671 0.99596 0.20959 0.0
N139 N 0.1623 0.09393 0.33306 0.0
H140 H 0.95839 0.12556 0.28826 0.0
H141 H 0.02368 0.13055 0.32826 0.0
H142 H 0.21522 0.08588 0.34733 0.0
H143 H 0.14987 0.12741 0.33334 0.0
H144 H 0.08589 0.96703 0.20232 0.0
H145 H 0.02968 1.01154 0.18526 0.0
H146 H 0.08875 0.92978 0.25685 0.0
H147 H 0.14481 0.933 0.30066 0.0
C148 C 0.81841 0.57181 0.24309 0.0
C149 C 0.79669 0.52666 0.24491 0.0
C150 C 0.87806 0.51822 0.30458 0.0
C151 C 0.91136 0.56063 0.29864 0.0
N152 N 0.92663 0.62233 0.25243 0.0
N153 N 0.83199 0.45442 0.27008 0.0
C154 C 0.88569 0.58609 0.26506 0.0
C155 C 0.8348 0.49901 0.27329 0.0
N156 N 0.77389 0.60173 0.22239 0.0
N157 N 0.88442 0.49662 0.3404 0.0
H158 H 0.80732 0.43879 0.24545 0.0
H159 H 0.86355 0.43361 0.28924 0.0
H160 H 0.90791 0.51117 0.36581 0.0
H161 H 0.85626 0.46668 0.34601 0.0
H162 H 0.78536 0.63532 0.22342 0.0
H163 H 0.72055 0.59415 0.20846 0.0
H164 H 0.91207 0.63927 0.22619 0.0
H165 H -0.01956 0.63212 0.26463 0.0
C166 C 0.62033 1.0071 0.24756 0.0
C167 C 0.64328 0.05188 0.25006 0.0
C168 C 0.56183 0.05877 0.30992 0.0
C169 C 0.52898 1.01647 0.30349 0.0
N170 N 0.51152 0.95689 0.25662 0.0
N171 N 0.61567 0.12328 0.27764 0.0
C172 C 0.55356 0.99234 0.26955 0.0
C173 C 0.60788 0.0787 0.27941 0.0
N174 N 0.66368 0.97786 0.22609 0.0
N175 N 0.55212 0.07946 0.34554 0.0
H176 H 0.6441 0.13961 0.25416 0.0
H177 H 0.58535 0.14406 0.29683 0.0
H178 H 0.52403 0.06486 0.36998 0.0
H179 H 0.5807 0.10883 0.35226 0.0
H180 H 0.65153 0.9443 0.22653 0.0
H181 H 0.71702 0.98577 0.21217 0.0
H182 H 0.52503 0.94091 0.23011 0.0
H183 H 0.45767 0.94706 0.26896 0.0
C184 C 0.56296 0.58469 0.76286 0.0
C185 C 0.53807 0.55948 0.79674 0.0
C186 C 0.61402 0.49786 0.77143 0.0
C187 C 0.65203 0.52549 0.74296 0.0
N188 N 0.67374 0.60042 0.71963 0.0
N189 N 0.56497 0.49557 0.83859 0.0
C190 C 0.6299 0.57051 0.74077 0.0
C191 C 0.57103 0.51707 0.80271 0.0
N192 N 0.52153 0.62064 0.75012 0.0
N193 N 0.6171 0.45327 0.76842 0.0
H194 H 0.54195 0.51014 0.86403 0.0
H195 H 0.59301 0.46567 0.84422 0.0
H196 H 0.64208 0.43767 0.74392 0.0
H197 H 0.58563 0.43241 0.78759 0.0
H198 H 0.53546 0.63744 0.72373 0.0
H199 H 0.46779 0.63019 0.76243 0.0
H200 H 0.66209 0.63398 0.72045 0.0
H201 H 0.72663 0.59296 0.70536 0.0
C202 C 0.84388 1.00668 0.72228 0.0
C203 C 0.77324 1.02039 0.74116 0.0
C204 C 0.82115 0.99088 0.80511 0.0
C205 C 0.89666 0.98497 0.78797 0.0
N206 N -0.01723 0.98841 0.73044 0.0
N207 N 0.69583 1.02851 0.80145 0.0
C208 C 0.90864 0.99226 0.74637 0.0
C209 C 0.76179 1.01288 0.78278 0.0
N210 N 0.84955 1.00838 0.68158 0.0
N211 N 0.8065 0.97531 0.84287 0.0
H212 H 0.65053 0.04481 0.78638 0.0
H213 H 0.68883 1.02847 0.83236 0.0
H214 H 0.84918 0.95856 0.85968 0.0
H215 H 0.75042 0.9749 0.8558 0.0
H216 H 0.89652 0.99492 0.66578 0.0
H217 H 0.80401 1.02021 0.66335 0.0
H218 H -0.00282 0.99843 0.70151 0.0
H219 H 0.03151 0.97759 0.74691 0.0
C220 C 0.07355 0.55302 0.81801 0.0
C221 C 0.15366 0.54096 0.81282 0.0
C222 C 0.1185 0.49595 0.7552 0.0
C223 C 0.03793 0.50685 0.76119 0.0
N224 N 0.93601 0.53725 0.80312 0.0
N225 N 0.25176 0.49475 0.78228 0.0
C226 C 0.01458 0.53292 0.79407 0.0
C227 C 0.17591 0.51038 0.78321 0.0
N228 N 0.05424 0.58461 0.84495 0.0
N229 N 0.14052 0.47367 0.72179 0.0
H230 H 0.29562 0.50491 0.80213 0.0
H231 H 0.26968 0.4691 0.76416 0.0
H232 H 0.09994 0.46238 0.70073 0.0
H233 H 0.19921 0.46912 0.71332 0.0
H234 H -0.00178 0.59864 0.8468 0.0
H235 H 0.09586 0.59901 0.86382 0.0
H236 H 0.91556 0.55219 0.82893 0.0
H237 H 0.89103 0.52232 0.78671 0.0
C238 C 0.26893 0.0875 0.79859 0.0
C239 C 0.28044 0.05044 0.82409 0.0
C240 C 0.41521 0.04172 0.79943 0.0
C241 C 0.40412 0.07858 0.7736 0.0
N242 N 0.32864 0.14255 0.75492 0.0
N243 N 0.36996 1.00133 0.85789 0.0
C244 C 0.33386 0.10378 0.77561 0.0
C245 C 0.35572 1.0307 0.82755 0.0
N246 N 0.19504 0.10513 0.79414 0.0
N247 N 0.48094 1.01596 0.79592 0.0
H248 H 0.32714 0.99312 0.8792 0.0
H249 H 0.42585 0.98872 0.86436 0.0
H250 H 0.52649 1.02279 0.7759 0.0
H251 H 0.48759 0.98591 0.81062 0.0
H252 H 0.1809 0.12856 0.77243 0.0
H253 H 0.1462 0.0945 0.81063 0.0
H254 H 0.28203 0.16451 0.75821 0.0
H255 H 0.37421 0.15444 0.73676 0.0
C256 C 0.05928 0.54763 0.52565 0.0
C257 C 0.01439 0.54296 0.49014 0.0
C258 C 0.89804 0.5202 0.52927 0.0
C259 C 0.94135 0.52745 0.5649 0.0
N260 N 0.06029 0.55193 0.59805 0.0
N261 N 0.88834 0.53271 0.45772 0.0
C262 C 0.02113 0.54247 0.56338 0.0
C263 C 0.933 0.53128 0.49182 0.0
N264 N 0.13896 0.5554 0.52322 0.0
N265 N 0.82363 0.5025 0.53124 0.0
H266 H 0.91168 0.54183 0.43002 0.0
H267 H 0.82707 0.52888 0.45727 0.0
H268 H 0.79483 0.49573 0.55817 0.0
H269 H 0.79242 0.4917 0.50637 0.0
H270 H 0.17712 0.55429 0.54764 0.0
H271 H 0.16832 0.56023 0.4961 0.0
H272 H 0.11479 0.5679 0.59901 0.0
H273 H 0.03639 0.54596 0.62632 0.0
C274 C 0.49549 1.02979 0.49565 0.0
C275 C 0.41367 1.0193 0.4927 0.0
C276 C 0.39919 1.02642 0.56519 0.0
C277 C 0.48192 0.03452 0.56846 0.0
N278 N 0.61121 0.03765 0.53819 0.0
N279 N 0.28989 1.0008 0.52428 0.0
C280 C 0.53078 0.03468 0.53402 0.0
C281 C 0.36621 1.01548 0.52742 0.0
N282 N 0.53921 0.03556 0.46162 0.0
N283 N 0.35157 1.03123 0.59789 0.0
H284 H 0.26351 0.99345 0.49695 0.0
H285 H 0.2547 0.99262 0.54878 0.0
H286 H 0.37318 0.0398 0.62595 0.0
H287 H 0.28999 1.03044 0.59665 0.0
H288 H 0.59625 0.04856 0.46124 0.0
H289 H 0.51672 1.02942 0.43321 0.0
H290 H 0.65098 1.03321 0.51487 0.0
H291 H 0.63904 0.04131 0.5658 0.0
C292 C 0.43189 0.54329 0.06308 0.0
C293 C 0.51238 0.52968 0.06473 0.0
C294 C 0.52047 0.53198 0.99156 0.0
C295 C 0.43966 0.5448 0.98982 0.0
N296 N 0.32007 0.56761 1.02254 0.0
N297 N 0.63156 0.50646 0.0318 0.0
C298 C 0.39579 0.55192 1.02526 0.0
C299 C 0.5562 0.52269 0.02928 0.0
N300 N 0.38912 0.54572 0.09773 0.0
N301 N 0.56399 0.53107 0.95712 0.0
H302 H 0.66072 0.50117 0.05892 0.0
H303 H 0.66404 0.49578 1.0074 0.0
H304 H 0.54014 0.53883 0.92919 0.0
H305 H 0.62488 0.52615 0.95613 0.0
H306 H 0.32851 0.5514 0.09898 0.0
H307 H 0.41336 0.53932 0.12588 0.0
H308 H 0.28666 0.5778 0.04677 0.0
H309 H 0.29117 0.57275 0.99532 0.0
C310 C 0.90192 1.0156 0.9972 0.0
C311 C -0.01982 1.03045 0.9894 0.0
C312 C -0.0087 0.05731 0.05798 0.0
C313 C 0.91068 0.04599 0.0647 0.0
N314 N 0.78542 1.02031 0.03935 0.0
N315 N 0.09654 0.07022 1.00995 0.0
C316 C 0.86497 1.02651 0.03399 0.0
C317 C 0.02395 0.05285 1.01907 0.0
N318 N 0.86307 0.9909 0.96947 0.0
N319 N 0.03791 0.07013 0.08923 0.0
H320 H 0.1241 0.06579 0.98242 0.0
H321 H 0.12715 0.09145 0.02865 0.0
H322 H 0.01693 0.07306 0.11836 0.0
H323 H 0.09904 0.0741 0.08716 0.0
H324 H 0.80958 0.97494 0.97503 0.0
H325 H 0.88703 0.98365 0.94161 0.0
H326 H 0.74704 1.0106 1.01673 0.0
H327 H 0.75615 1.02855 0.06563 0.0
C328 C 0.1467 0.77864 0.38059 0.0
C329 C 0.19305 0.74153 0.37124 0.0
C330 C 0.31226 0.78769 0.36779 0.0
C331 C 0.2641 0.82548 0.37128 0.0
N332 N 0.13447 0.85786 0.3782 0.0
N333 N 0.31926 0.7096 0.35495 0.0
C334 C 0.18112 0.82125 0.37761 0.0
C335 C 0.27589 0.74567 0.36496 0.0
N336 N 0.06977 0.773 0.39226 0.0
N337 N 0.39287 0.7921 0.36794 0.0
H338 H 0.29544 0.678 0.35443 0.0
H339 H 0.37769 0.71109 0.34513 0.0
H340 H 0.42101 0.82247 0.37036 0.0
H341 H 0.43185 0.76573 0.36925 0.0
H342 H 0.03476 0.79814 0.40332 0.0
H343 H 0.04299 0.74216 0.39415 0.0
H344 H 0.07285 0.85684 0.37788 0.0
H345 H 0.15703 0.88965 0.37618 0.0
C346 C 0.67699 0.24783 0.18176 0.0
C347 C 0.76094 0.2445 0.18156 0.0
C348 C 0.77298 0.3247 0.18036 0.0
C349 C 0.68914 0.32798 0.18173 0.0
N350 N 0.56104 0.29446 0.17455 0.0
N351 N 0.88842 0.27814 0.1718 0.0
C352 C 0.64105 0.28999 0.17937 0.0
C353 C 0.80882 0.28255 0.17796 0.0
N354 N 0.63184 0.21082 0.18635 0.0
N355 N 0.81821 0.3618 0.18316 0.0
H356 H 0.91581 0.24758 0.16987 0.0
H357 H 0.92624 0.30424 0.16531 0.0
H358 H 0.79398 0.39323 0.18313 0.0
H359 H 0.8793 0.36159 0.18732 0.0
H360 H 0.57118 0.21119 0.19179 0.0
H361 H 0.65573 0.17931 0.18683 0.0
H362 H 0.52287 0.26842 0.16888 0.0
H363 H 0.53348 0.32503 0.1728 0.0
C364 C 0.64315 0.28135 0.69034 0.0
C365 C 0.69076 0.24351 0.68583 0.0
C366 C 0.80968 0.28944 0.67874 0.0
C367 C 0.76235 0.32717 0.68443 0.0
N368 N 0.63356 0.36079 0.6859 0.0
N369 N 0.81474 0.21092 0.66699 0.0
C370 C 0.6787 0.32362 0.68693 0.0
C371 C 0.77267 0.24744 0.67698 0.0
N372 N 0.5646 0.27672 0.69938 0.0
N373 N 0.89018 0.29375 0.67655 0.0
H374 H 0.78919 0.17977 0.66586 0.0
H375 H 0.87291 0.21173 0.65678 0.0
H376 H 0.91843 0.32423 0.67596 0.0
H377 H 0.92927 0.26742 0.67704 0.0
H378 H 0.52835 0.30254 0.70786 0.0
H379 H 0.53619 0.24629 0.70026 0.0
H380 H 0.57201 0.36068 0.68425 0.0
H381 H 0.65815 0.3921 0.6832 0.0
C382 C 0.32219 0.78239 0.86608 0.0
C383 C 0.27304 0.74503 0.87109 0.0
C384 C 0.15752 0.79262 0.88096 0.0
C385 C 0.20448 0.82942 0.86992 0.0
N386 N 0.33154 0.8608 0.85323 0.0
N387 N 0.14372 0.71333 0.882 0.0
C388 C 0.2871 0.82473 0.8632 0.0
C389 C 0.19083 0.74978 0.87899 0.0
N390 N 0.40258 0.77719 0.86482 0.0
N391 N 0.08086 0.79862 0.89277 0.0
H392 H 0.16589 0.68146 0.88133 0.0
H393 H 0.08214 0.71435 0.88276 0.0
H394 H 0.05389 0.82933 0.89315 0.0
H395 H 0.04578 0.77386 0.90512 0.0
H396 H 0.44284 0.80307 0.86474 0.0
H397 H 0.4296 0.74652 0.86725 0.0
H398 H 0.38966 0.8593 0.84306 0.0
H399 H 0.30912 0.89265 0.85374 0.0
loop_
_geom_bond_atom_site_label_1
_geom_bond_atom_site_label_2
_geom_bond_distance
_geom_bond_site_symmetry_2
_ccdc_geom_bond_type
O0 Cd1 2.223 . S
O0 C8 1.315 . S
Cd1 O0 2.223 . S
Cd1 O4 2.297 . S
Cd1 O5 2.439 . S
Cd1 O11 2.240 . S
Cd2 O3 2.240 . S
Cd2 O10 2.223 . S
Cd2 O12 2.297 . S
Cd2 O13 2.439 . S
O3 Cd2 2.240 . S
O3 C8 1.279 . S
O4 Cd1 2.297 . S
O4 C6 1.247 . S
O5 Cd1 2.439 . S
O5 C6 1.208 . S
C6 O4 1.247 . S
C6 O5 1.208 . S
C7 O12 1.247 . S
C7 O13 1.208 . S
C8 O0 1.315 . S
C8 O3 1.279 . S
C9 O10 1.315 . S
C9 O11 1.279 . S
O10 Cd2 2.223 . S
O10 C9 1.315 . S
O11 Cd1 2.240 . S
O11 C9 1.279 . S
O12 Cd2 2.297 . S
O12 C7 1.247 . S
O13 Cd2 2.439 . S
O13 C7 1.208 . S
O14 Cd15 2.223 . S
O14 C22 1.315 . S
Cd15 O14 2.223 . S
Cd15 O18 2.297 . S
Cd15 O19 2.439 . S
Cd15 O25 2.240 . S
Cd16 O17 2.240 . S
Cd16 O24 2.223 1_565 S
Cd16 O26 2.297 1_565 S
Cd16 O27 2.439 . S
O17 Cd16 2.240 . S
O17 C22 1.279 . S
O18 Cd15 2.297 . S
O18 C20 1.247 . S
O19 Cd15 2.439 . S
O19 C20 1.208 . S
C20 O18 1.247 . S
C20 O19 1.208 . S
C21 O26 1.247 1_565 S
C21 O27 1.208 . S
C22 O14 1.315 . S
C22 O17 1.279 . S
C23 O24 1.315 1_565 S
C23 O25 1.279 . S
O24 Cd16 2.223 1_545 S
O24 C23 1.315 1_545 S
O25 Cd15 2.240 . S
O25 C23 1.279 . S
O26 Cd16 2.297 1_545 S
O26 C21 1.247 1_545 S
O27 Cd16 2.439 . S
O27 C21 1.208 . S
O28 Cd29 2.223 . S
O28 C36 1.315 . S
Cd29 O28 2.223 . S
Cd29 O32 2.297 . S
Cd29 O33 2.439 . S
Cd29 O39 2.240 . S
Cd30 O31 2.240 . S
Cd30 O38 2.223 . S
Cd30 O40 2.297 . S
Cd30 O41 2.439 . S
O31 Cd30 2.240 . S
O31 C36 1.279 . S
O32 Cd29 2.297 . S
O32 C34 1.247 . S
O33 Cd29 2.439 . S
O33 C34 1.208 . S
C34 O32 1.247 . S
C34 O33 1.208 . S
C35 O40 1.247 . S
C35 O41 1.208 . S
C36 O28 1.315 . S
C36 O31 1.279 . S
C37 O38 1.315 . S
C37 O39 1.279 . S
O38 Cd30 2.223 . S
O38 C37 1.315 . S
O39 Cd29 2.240 . S
O39 C37 1.279 . S
O40 Cd30 2.297 . S
O40 C35 1.247 . S
O41 Cd30 2.439 . S
O41 C35 1.208 . S
O42 Cd43 2.223 . S
O42 C50 1.315 . S
Cd43 O42 2.223 . S
Cd43 O46 2.297 . S
Cd43 O47 2.439 . S
Cd43 O53 2.240 . S
Cd44 O45 2.240 . S
Cd44 O52 2.223 1_545 S
Cd44 O54 2.297 1_545 S
Cd44 O55 2.439 . S
O45 Cd44 2.240 . S
O45 C50 1.279 . S
O46 Cd43 2.297 . S
O46 C48 1.247 . S
O47 Cd43 2.439 . S
O47 C48 1.208 . S
C48 O46 1.247 . S
C48 O47 1.208 . S
C49 O54 1.247 1_545 S
C49 O55 1.208 . S
C50 O42 1.315 . S
C50 O45 1.279 . S
C51 O52 1.315 1_545 S
C51 O53 1.279 . S
O52 Cd44 2.223 1_565 S
O52 C51 1.315 1_565 S
O53 Cd43 2.240 . S
O53 C51 1.279 . S
O54 Cd44 2.297 1_565 S
O54 C49 1.247 1_565 S
O55 Cd44 2.439 . S
O55 C49 1.208 . S
O56 Cd57 2.223 . S
O56 C64 1.315 . S
Cd57 O56 2.223 . S
Cd57 O60 2.297 . S
Cd57 O61 2.439 . S
Cd57 O67 2.240 . S
Cd58 O59 2.240 . S
Cd58 O66 2.223 . S
Cd58 O68 2.297 . S
Cd58 O69 2.439 . S
O59 Cd58 2.240 . S
O59 C64 1.279 . S
O60 Cd57 2.297 . S
O60 C62 1.247 . S
O61 Cd57 2.439 . S
O61 C62 1.208 . S
C62 O60 1.247 . S
C62 O61 1.208 . S
C63 O68 1.247 . S
C63 O69 1.208 . S
C64 O56 1.315 . S
C64 O59 1.279 . S
C65 O66 1.315 . S
C65 O67 1.279 . S
O66 Cd58 2.223 . S
O66 C65 1.315 . S
O67 Cd57 2.240 . S
O67 C65 1.279 . S
O68 Cd58 2.297 . S
O68 C63 1.247 . S
O69 Cd58 2.439 . S
O69 C63 1.208 . S
O70 Cd71 2.223 . S
O70 C78 1.315 . S
Cd71 O70 2.223 . S
Cd71 O74 2.297 . S
Cd71 O75 2.439 . S
Cd71 O81 2.240 . S
Cd72 O73 2.240 . S
Cd72 O80 2.223 1_545 S
Cd72 O82 2.297 1_545 S
Cd72 O83 2.439 . S
O73 Cd72 2.240 . S
O73 C78 1.279 . S
O74 Cd71 2.297 . S
O74 C76 1.247 . S
O75 Cd71 2.439 . S
O75 C76 1.208 . S
C76 O74 1.247 . S
C76 O75 1.208 . S
C77 O82 1.247 1_545 S
C77 O83 1.208 . S
C78 O70 1.315 . S
C78 O73 1.279 . S
C79 O80 1.315 1_545 S
C79 O81 1.279 . S
O80 Cd72 2.223 1_565 S
O80 C79 1.315 1_565 S
O81 Cd71 2.240 . S
O81 C79 1.279 . S
O82 Cd72 2.297 1_565 S
O82 C77 1.247 1_565 S
O83 Cd72 2.439 . S
O83 C77 1.208 . S
O84 Cd85 2.223 . S
O84 C92 1.315 . S
Cd85 O84 2.223 . S
Cd85 O88 2.297 . S
Cd85 O89 2.439 . S
Cd85 O95 2.240 . S
Cd86 O87 2.240 . S
Cd86 O94 2.223 . S
Cd86 O96 2.297 . S
Cd86 O97 2.439 . S
O87 Cd86 2.240 . S
O87 C92 1.279 . S
O88 Cd85 2.297 . S
O88 C90 1.247 . S
O89 Cd85 2.439 . S
O89 C90 1.208 . S
C90 O88 1.247 . S
C90 O89 1.208 . S
C91 O96 1.247 . S
C91 O97 1.208 . S
C92 O84 1.315 . S
C92 O87 1.279 . S
C93 O94 1.315 . S
C93 O95 1.279 . S
O94 Cd86 2.223 . S
O94 C93 1.315 . S
O95 Cd85 2.240 . S
O95 C93 1.279 . S
O96 Cd86 2.297 . S
O96 C91 1.247 . S
O97 Cd86 2.439 . S
O97 C91 1.208 . S
O98 Cd99 2.223 . S
O98 C106 1.315 . S
Cd99 O98 2.223 . S
Cd99 O102 2.297 . S
Cd99 O103 2.439 . S
Cd99 O109 2.240 . S
Cd100 O101 2.240 . S
Cd100 O108 2.223 1_565 S
Cd100 O110 2.297 1_565 S
Cd100 O111 2.439 . S
O101 Cd100 2.240 . S
O101 C106 1.279 . S
O102 Cd99 2.297 . S
O102 C104 1.247 . S
O103 Cd99 2.439 . S
O103 C104 1.208 . S
C104 O102 1.247 . S
C104 O103 1.208 . S
C105 O110 1.247 1_565 S
C105 O111 1.208 . S
C106 O98 1.315 . S
C106 O101 1.279 . S
C107 O108 1.315 1_565 S
C107 O109 1.279 . S
O108 Cd100 2.223 1_545 S
O108 C107 1.315 1_545 S
O109 Cd99 2.240 . S
O109 C107 1.279 . S
O110 Cd100 2.297 1_545 S
O110 C105 1.247 1_545 S
O111 Cd100 2.439 . S
O111 C105 1.208 . S
C112 C113 1.363 . S
C112 C118 1.379 . S
C112 N120 1.356 . S
C113 C112 1.363 . S
C113 C119 1.363 . S
C114 C115 1.363 . S
C114 C119 1.379 . S
C114 N121 1.356 . S
C115 C114 1.363 . S
C115 C118 1.363 . S
N116 C118 1.356 . S
N116 H128 0.984 . S
N116 H129 0.985 . S
N117 C119 1.356 . S
N117 H122 0.984 . S
N117 H123 0.985 . S
C118 C112 1.379 . S
C118 C115 1.363 . S
C118 N116 1.356 . S
C119 C113 1.363 . S
C119 C114 1.379 . S
C119 N117 1.356 . S
N120 C112 1.356 . S
N120 H126 0.984 . S
N120 H127 0.984 . S
N121 C114 1.356 . S
N121 H124 0.984 . S
N121 H125 0.985 . S
H122 N117 0.984 . S
H123 N117 0.985 . S
H124 N121 0.984 . S
H125 N121 0.985 . S
H126 N120 0.984 . S
H127 N120 0.984 . S
H128 N116 0.984 . S
H129 N116 0.985 . S
C130 C131 1.363 1_565 S
C130 C136 1.379 . S
C130 N138 1.356 . S
C131 C130 1.363 1_545 S
C131 C137 1.363 . S
C132 C133 1.363 1_545 S
C132 C137 1.379 . S
C132 N139 1.356 . S
C133 C132 1.363 1_565 S
C133 C136 1.363 . S
N134 C136 1.356 . S
N134 H146 0.984 . S
N134 H147 0.985 . S
N135 C137 1.356 . S
N135 H140 0.984 . S
N135 H141 0.985 . S
C136 C130 1.379 . S
C136 C133 1.363 . S
C136 N134 1.356 . S
C137 C131 1.363 . S
C137 C132 1.379 . S
C137 N135 1.356 . S
N138 C130 1.356 . S
N138 H144 0.984 . S
N138 H145 0.984 1_455 S
N139 C132 1.356 . S
N139 H142 0.984 . S
N139 H143 0.985 . S
H140 N135 0.984 . S
H141 N135 0.985 . S
H142 N139 0.984 . S
H143 N139 0.985 . S
H144 N138 0.984 . S
H145 N138 0.984 1_655 S
H146 N134 0.984 . S
H147 N134 0.985 . S
C148 C149 1.363 . S
C148 C154 1.379 . S
C148 N156 1.356 . S
C149 C148 1.363 . S
C149 C155 1.363 . S
C150 C151 1.363 . S
C150 C155 1.379 . S
C150 N157 1.356 . S
C151 C150 1.363 . S
C151 C154 1.363 . S
N152 C154 1.356 . S
N152 H164 0.984 . S
N152 H165 0.985 1_655 S
N153 C155 1.356 . S
N153 H158 0.984 . S
N153 H159 0.985 . S
C154 C148 1.379 . S
C154 C151 1.363 . S
C154 N152 1.356 . S
C155 C149 1.363 . S
C155 C150 1.379 . S
C155 N153 1.356 . S
N156 C148 1.356 . S
N156 H162 0.984 . S
N156 H163 0.984 . S
N157 C150 1.356 . S
N157 H160 0.984 . S
N157 H161 0.985 . S
H158 N153 0.984 . S
H159 N153 0.985 . S
H160 N157 0.984 . S
H161 N157 0.985 . S
H162 N156 0.984 . S
H163 N156 0.984 . S
H164 N152 0.984 . S
H165 N152 0.985 1_455 S
C166 C167 1.363 1_565 S
C166 C172 1.379 . S
C166 N174 1.356 . S
C167 C166 1.363 1_545 S
C167 C173 1.363 . S
C168 C169 1.363 1_545 S
C168 C173 1.379 . S
C168 N175 1.356 . S
C169 C168 1.363 1_565 S
C169 C172 1.363 . S
N170 C172 1.356 . S
N170 H182 0.984 . S
N170 H183 0.985 . S
N171 C173 1.356 . S
N171 H176 0.984 . S
N171 H177 0.985 . S
C172 C166 1.379 . S
C172 C169 1.363 . S
C172 N170 1.356 . S
C173 C167 1.363 . S
C173 C168 1.379 . S
C173 N171 1.356 . S
N174 C166 1.356 . S
N174 H180 0.984 . S
N174 H181 0.984 . S
N175 C168 1.356 . S
N175 H178 0.984 . S
N175 H179 0.985 . S
H176 N171 0.984 . S
H177 N171 0.985 . S
H178 N175 0.984 . S
H179 N175 0.985 . S
H180 N174 0.984 . S
H181 N174 0.984 . S
H182 N170 0.984 . S
H183 N170 0.985 . S
C184 C185 1.363 . S
C184 C190 1.379 . S
C184 N192 1.356 . S
C185 C184 1.363 . S
C185 C191 1.363 . S
C186 C187 1.363 . S
C186 C191 1.379 . S
C186 N193 1.356 . S
C187 C186 1.363 . S
C187 C190 1.363 . S
N188 C190 1.356 . S
N188 H200 0.984 . S
N188 H201 0.985 . S
N189 C191 1.356 . S
N189 H194 0.984 . S
N189 H195 0.985 . S
C190 C184 1.379 . S
C190 C187 1.363 . S
C190 N188 1.356 . S
C191 C185 1.363 . S
C191 C186 1.379 . S
C191 N189 1.356 . S
N192 C184 1.356 . S
N192 H198 0.984 . S
N192 H199 0.984 . S
N193 C186 1.356 . S
N193 H196 0.984 . S
N193 H197 0.985 . S
H194 N189 0.984 . S
H195 N189 0.985 . S
H196 N193 0.984 . S
H197 N193 0.985 . S
H198 N192 0.984 . S
H199 N192 0.984 . S
H200 N188 0.984 . S
H201 N188 0.985 . S
C202 C203 1.374 . S
C202 C208 1.372 1_545 S
C202 N210 1.356 . S
C203 C202 1.374 . S
C203 C209 1.363 . S
C204 C205 1.363 1_545 S
C204 C209 1.379 . S
C204 N211 1.356 . S
C205 C204 1.363 1_565 S
C205 C208 1.363 . S
N206 C208 1.356 1_455 S
N206 H218 0.984 . S
N206 H219 0.985 . S
N207 C209 1.356 . S
N207 H212 0.984 . S
N207 H213 0.985 . S
C208 C202 1.372 1_565 S
C208 C205 1.363 . S
C208 N206 1.356 1_655 S
C209 C203 1.363 . S
C209 C204 1.379 . S
C209 N207 1.356 . S
N210 C202 1.356 . S
N210 H216 0.981 1_545 S
N210 H217 0.988 . S
N211 C204 1.356 . S
N211 H214 0.995 . S
N211 H215 0.985 . S
H212 N207 0.984 . S
H213 N207 0.985 . S
H214 N211 0.995 . S
H215 N211 0.985 . S
H216 N210 0.981 1_565 S
H217 N210 0.988 . S
H218 N206 0.984 . S
H219 N206 0.985 . S
C220 C221 1.363 . S
C220 C226 1.379 . S
C220 N228 1.356 . S
C221 C220 1.363 . S
C221 C227 1.363 . S
C222 C223 1.363 . S
C222 C227 1.379 . S
C222 N229 1.356 . S
C223 C222 1.363 . S
C223 C226 1.363 . S
N224 C226 1.356 . S
N224 H236 0.984 1_455 S
N224 H237 0.985 1_455 S
N225 C227 1.356 . S
N225 H230 0.984 . S
N225 H231 0.985 . S
C226 C220 1.379 . S
C226 C223 1.363 . S
C226 N224 1.356 . S
C227 C221 1.363 . S
C227 C222 1.379 . S
C227 N225 1.356 . S
N228 C220 1.356 . S
N228 H234 0.984 . S
N228 H235 0.984 . S
N229 C222 1.356 . S
N229 H232 0.984 . S
N229 H233 0.985 . S
H230 N225 0.984 . S
H231 N225 0.985 . S
H232 N229 0.984 . S
H233 N229 0.985 . S
H234 N228 0.984 . S
H235 N228 0.984 . S
H236 N224 0.984 1_655 S
H237 N224 0.985 1_655 S
C238 C239 1.363 1_545 S
C238 C244 1.379 . S
C238 N246 1.356 . S
C239 C238 1.363 1_565 S
C239 C245 1.363 . S
C240 C241 1.363 1_565 S
C240 C245 1.379 . S
C240 N247 1.356 . S
C241 C240 1.363 1_545 S
C241 C244 1.363 . S
N242 C244 1.356 . S
N242 H254 0.984 . S
N242 H255 0.985 . S
N243 C245 1.356 . S
N243 H248 0.984 . S
N243 H249 0.985 . S
C244 C238 1.379 . S
C244 C241 1.363 . S
C244 N242 1.356 . S
C245 C239 1.363 . S
C245 C240 1.379 . S
C245 N243 1.356 . S
N246 C238 1.356 . S
N246 H252 0.984 . S
N246 H253 0.984 . S
N247 C240 1.356 . S
N247 H250 0.984 . S
N247 H251 0.985 . S
H248 N243 0.984 . S
H249 N243 0.985 . S
H250 N247 0.984 . S
H251 N247 0.985 . S
H252 N246 0.984 . S
H253 N246 0.984 . S
H254 N242 0.984 . S
H255 N242 0.985 . S
C256 C257 1.363 . S
C256 C262 1.379 . S
C256 N264 1.356 . S
C257 C256 1.363 . S
C257 C263 1.363 1_455 S
C258 C259 1.363 . S
C258 C263 1.379 . S
C258 N265 1.356 . S
C259 C258 1.363 . S
C259 C262 1.363 1_655 S
N260 C262 1.356 . S
N260 H272 0.984 . S
N260 H273 0.985 . S
N261 C263 1.356 . S
N261 H266 0.984 . S
N261 H267 0.985 . S
C262 C256 1.379 . S
C262 C259 1.363 1_455 S
C262 N260 1.356 . S
C263 C257 1.363 1_655 S
C263 C258 1.379 . S
C263 N261 1.356 . S
N264 C256 1.356 . S
N264 H270 0.984 . S
N264 H271 0.984 . S
N265 C258 1.356 . S
N265 H268 0.984 . S
N265 H269 0.985 . S
H266 N261 0.984 . S
H267 N261 0.985 . S
H268 N265 0.984 . S
H269 N265 0.985 . S
H270 N264 0.984 . S
H271 N264 0.984 . S
H272 N260 0.984 . S
H273 N260 0.985 . S
C274 C275 1.363 1_545 S
C274 C280 1.379 . S
C274 N282 1.356 . S
C275 C274 1.363 1_565 S
C275 C281 1.363 . S
C276 C277 1.363 1_565 S
C276 C281 1.379 . S
C276 N283 1.356 . S
C277 C276 1.363 1_545 S
C277 C280 1.363 . S
N278 C280 1.356 . S
N278 H290 0.984 . S
N278 H291 0.985 . S
N279 C281 1.356 . S
N279 H284 0.984 . S
N279 H285 0.985 . S
C280 C274 1.379 . S
C280 C277 1.363 . S
C280 N278 1.356 . S
C281 C275 1.363 . S
C281 C276 1.379 . S
C281 N279 1.356 . S
N282 C274 1.356 . S
N282 H288 0.984 . S
N282 H289 0.988 . S
N283 C276 1.356 . S
N283 H286 0.988 . S
N283 H287 0.985 . S
H284 N279 0.984 . S
H285 N279 0.985 . S
H286 N283 0.988 . S
H287 N283 0.985 . S
H288 N282 0.984 . S
H289 N282 0.988 . S
H290 N278 0.984 . S
H291 N278 0.985 . S
C292 C293 1.363 . S
C292 C298 1.379 1_554 S
C292 N300 1.356 . S
C293 C292 1.363 . S
C293 C299 1.363 . S
C294 C295 1.363 . S
C294 C299 1.379 1_556 S
C294 N301 1.356 . S
C295 C294 1.363 . S
C295 C298 1.363 . S
N296 C298 1.356 . S
N296 H308 0.984 . S
N296 H309 0.985 . S
N297 C299 1.356 . S
N297 H302 0.984 . S
N297 H303 0.985 . S
C298 C292 1.379 1_556 S
C298 C295 1.363 . S
C298 N296 1.356 . S
C299 C293 1.363 . S
C299 C294 1.379 1_554 S
C299 N297 1.356 . S
N300 C292 1.356 . S
N300 H306 0.984 . S
N300 H307 0.984 . S
N301 C294 1.356 . S
N301 H304 0.984 . S
N301 H305 0.985 . S
H302 N297 0.984 . S
H303 N297 0.985 . S
H304 N301 0.984 . S
H305 N301 0.985 . S
H306 N300 0.984 . S
H307 N300 0.984 . S
H308 N296 0.984 . S
H309 N296 0.985 . S
C310 C311 1.363 1_655 S
C310 C316 1.379 1_556 S
C310 N318 1.356 . S
C311 C310 1.363 1_455 S
C311 C317 1.363 1_565 S
C312 C313 1.363 1_455 S
C312 C317 1.379 1_554 S
C312 N319 1.356 . S
C313 C312 1.363 1_655 S
C313 C316 1.363 1_545 S
N314 C316 1.356 . S
N314 H326 0.984 . S
N314 H327 0.985 1_565 S
N315 C317 1.356 . S
N315 H320 0.984 1_545 S
N315 H321 0.985 . S
C316 C310 1.379 1_554 S
C316 C313 1.363 1_565 S
C316 N314 1.356 . S
C317 C311 1.363 1_545 S
C317 C312 1.379 1_556 S
C317 N315 1.356 . S
N318 C310 1.356 . S
N318 H324 0.984 . S
N318 H325 0.984 . S
N319 C312 1.356 . S
N319 H322 0.984 . S
N319 H323 0.985 . S
H320 N315 0.984 1_565 S
H321 N315 0.985 . S
H322 N319 0.984 . S
H323 N319 0.985 . S
H324 N318 0.984 . S
H325 N318 0.984 . S
H326 N314 0.984 . S
H327 N314 0.985 1_545 S
C328 C329 1.363 . S
C328 C334 1.379 . S
C328 N336 1.356 . S
C329 C328 1.363 . S
C329 C335 1.363 . S
C330 C331 1.363 . S
C330 C335 1.379 . S
C330 N337 1.356 . S
C331 C330 1.363 . S
C331 C334 1.363 . S
N332 C334 1.356 . S
N332 H344 0.984 . S
N332 H345 0.985 . S
N333 C335 1.356 . S
N333 H338 0.984 . S
N333 H339 0.985 . S
C334 C328 1.379 . S
C334 C331 1.363 . S
C334 N332 1.356 . S
C335 C329 1.363 . S
C335 C330 1.379 . S
C335 N333 1.356 . S
N336 C328 1.356 . S
N336 H342 0.984 . S
N336 H343 0.984 . S
N337 C330 1.356 . S
N337 H340 0.984 . S
N337 H341 0.985 . S
H338 N333 0.984 . S
H339 N333 0.985 . S
H340 N337 0.984 . S
H341 N337 0.985 . S
H342 N336 0.984 . S
H343 N336 0.984 . S
H344 N332 0.984 . S
H345 N332 0.985 . S
C346 C347 1.363 . S
C346 C352 1.379 . S
C346 N354 1.356 . S
C347 C346 1.363 . S
C347 C353 1.363 . S
C348 C349 1.363 . S
C348 C353 1.379 . S
C348 N355 1.356 . S
C349 C348 1.363 . S
C349 C352 1.363 . S
N350 C352 1.356 . S
N350 H362 0.984 . S
N350 H363 0.985 . S
N351 C353 1.356 . S
N351 H356 0.984 . S
N351 H357 0.985 . S
C352 C346 1.379 . S
C352 C349 1.363 . S
C352 N350 1.356 . S
C353 C347 1.363 . S
C353 C348 1.379 . S
C353 N351 1.356 . S
N354 C346 1.356 . S
N354 H360 0.984 . S
N354 H361 0.984 . S
N355 C348 1.356 . S
N355 H358 0.984 . S
N355 H359 0.985 . S
H356 N351 0.984 . S
H357 N351 0.985 . S
H358 N355 0.984 . S
H359 N355 0.985 . S
H360 N354 0.984 . S
H361 N354 0.984 . S
H362 N350 0.984 . S
H363 N350 0.985 . S
C364 C365 1.363 . S
C364 C370 1.379 . S
C364 N372 1.356 . S
C365 C364 1.363 . S
C365 C371 1.363 . S
C366 C367 1.363 . S
C366 C371 1.379 . S
C366 N373 1.356 . S
C367 C366 1.363 . S
C367 C370 1.363 . S
N368 C370 1.356 . S
N368 H380 0.984 . S
N368 H381 0.985 . S
N369 C371 1.356 . S
N369 H374 0.984 . S
N369 H375 0.985 . S
C370 C364 1.379 . S
C370 C367 1.363 . S
C370 N368 1.356 . S
C371 C365 1.363 . S
C371 C366 1.379 . S
C371 N369 1.356 . S
N372 C364 1.356 . S
N372 H378 0.984 . S
N372 H379 0.984 . S
N373 C366 1.356 . S
N373 H376 0.984 . S
N373 H377 0.985 . S
H374 N369 0.984 . S
H375 N369 0.985 . S
H376 N373 0.984 . S
H377 N373 0.985 . S
H378 N372 0.984 . S
H379 N372 0.984 . S
H380 N368 0.984 . S
H381 N368 0.985 . S
C382 C383 1.363 . S
C382 C388 1.379 . S
C382 N390 1.356 . S
C383 C382 1.363 . S
C383 C389 1.363 . S
C384 C385 1.363 . S
C384 C389 1.379 . S
C384 N391 1.356 . S
C385 C384 1.363 . S
C385 C388 1.363 . S
N386 C388 1.356 . S
N386 H398 0.984 . S
N386 H399 0.985 . S
N387 C389 1.356 . S
N387 H392 0.984 . S
N387 H393 0.985 . S
C388 C382 1.379 . S
C388 C385 1.363 . S
C388 N386 1.356 . S
C389 C383 1.363 . S
C389 C384 1.379 . S
C389 N387 1.356 . S
N390 C382 1.356 . S
N390 H396 0.984 . S
N390 H397 0.984 . S
N391 C384 1.356 . S
N391 H394 0.984 . S
N391 H395 0.985 . S
H392 N387 0.984 . S
H393 N387 0.985 . S
H394 N391 0.984 . S
H395 N391 0.985 . S
H396 N390 0.984 . S
H397 N390 0.984 . S
H398 N386 0.984 . S
H399 N386 0.985 . S
C113 C8 1.652 . S
C115 C37 1.658 . S
C131 C51 1.658 1_455 S
C133 C22 1.652 . S
C149 C36 1.652 . S
C151 C9 1.658 1_655 S
C167 C50 1.652 . S
C169 C23 1.658 . S
C185 C93 1.658 . S
C187 C64 1.652 . S
C203 C78 1.652 . S
C205 C107 1.658 1_655 S
C221 C92 1.652 . S
C223 C65 1.658 1_455 S
C239 C106 1.652 . S
C241 C79 1.658 . S
C257 C7 1.487 . S
C259 C63 1.487 . S
C275 C21 1.487 . S
C277 C77 1.487 . S
C293 C35 1.487 . S
C295 C91 1.487 . S
C311 C105 1.487 . S
C313 C49 1.487 . S
C329 C6 1.492 . S
C331 C20 1.492 . S
C347 C48 1.492 . S
C349 C34 1.492 . S
C365 C76 1.492 . S
C367 C62 1.492 . S
C383 C90 1.492 . S
C385 C104 1.492 . S
