# Generated by pormake.
# Topology uom, (4)-cn, num edge types: 1
# Building blocks:
#     Node 0, Type 0, BuildingBlock: KOZSID_clean_sbu_0, # of connection points: 4
#     Node 1, Type 0, BuildingBlock: KOZSID_clean_sbu_0, # of connection points: 4
#     Node 2, Type 0, BuildingBlock: KOZSID_clean_sbu_0, # of connection points: 4
#     Node 3, Type 0, BuildingBlock: KOZSID_clean_sbu_0, # of connection points: 4
#     Node 4, Type 0, BuildingBlock: KOZSID_clean_sbu_0, # of connection points: 4
#     Node 5, Type 0, BuildingBlock: KOZSID_clean_sbu_0, # of connection points: 4
#     Edge 6, Type (0, 0), BuildingBlock: MIFKUJ_clean_linker_0, # of connection points: 2
#     Edge 7, Type (0, 0), BuildingBlock: MIFKUJ_clean_linker_0, # of connection points: 2
#     Edge 8, Type (0, 0), BuildingBlock: MIFKUJ_clean_linker_0, # of connection points: 2
#     Edge 9, Type (0, 0), BuildingBlock: MIFKUJ_clean_linker_0, # of connection points: 2
#     Edge 10, Type (0, 0), BuildingBlock: MIFKUJ_clean_linker_0, # of connection points: 2
#     Edge 11, Type (0, 0), BuildingBlock: MIFKUJ_clean_linker_0, # of connection points: 2
#     Edge 12, Type (0, 0), BuildingBlock: MIFKUJ_clean_linker_0, # of connection points: 2
#     Edge 13, Type (0, 0), BuildingBlock: MIFKUJ_clean_linker_0, # of connection points: 2
#     Edge 14, Type (0, 0), BuildingBlock: MIFKUJ_clean_linker_0, # of connection points: 2
#     Edge 15, Type (0, 0), BuildingBlock: MIFKUJ_clean_linker_0, # of connection points: 2
#     Edge 16, Type (0, 0), BuildingBlock: MIFKUJ_clean_linker_0, # of connection points: 2
#     Edge 17, Type (0, 0), BuildingBlock: MIFKUJ_clean_linker_0, # of connection points: 2
# Relax obj value: 0.145
# Max RMSD: 0.171
# Mean RMSD: 0.171
data_MOF--net-uom--node1-KOZSID_clean_sbu_0--edge1-MIFKUJ_clean_linker_0
_symmetry_space_group_name_H-M    P1
_symmetry_Int_Tables_number       1
_symmetry_cell_setting            triclinic
loop_
_symmetry_equiv_pos_as_xyz
'x, y, z'
_cell_length_a     46.636541
_cell_length_b     46.623321
_cell_length_c     54.128625
_cell_angle_alpha  90.001337
_cell_angle_beta   90.00408
_cell_angle_gamma 119.93235
loop_
_atom_site_label
_atom_site_type_symbol
_atom_site_fract_x
_atom_site_fract_y
_atom_site_fract_z
_atom_type_partial_charge
C0 C 0.35074 0.13898 0.08563 0.0
C1 C 0.33975 0.12113 0.10748 0.0
C2 C 0.33164 0.08919 0.10207 0.0
C3 C 0.33823 0.08927 0.07733 0.0
N4 N 0.34982 0.11925 0.06689 0.0
Co5 Co 0.36334 0.13027 0.03192 0.0
N6 N 0.33728 0.0832 0.02172 0.0
C7 C 0.32639 0.05688 0.03683 0.0
C8 C 0.30784 0.0274 0.02467 0.0
C9 C 0.30728 0.03576 1.00042 0.0
C10 C 0.32592 0.07005 0.99904 0.0
N11 N 0.37683 0.14118 0.99695 0.0
C12 C 0.3626 0.12329 0.97625 0.0
C13 C 0.38023 0.14022 0.9554 0.0
C14 C 0.40626 0.16971 0.96349 0.0
C15 C 0.4032 0.16914 0.98876 0.0
N16 N 0.38937 0.17731 0.04222 0.0
C17 C 0.4141 0.20171 0.0292 0.0
C18 C 0.42668 0.23201 0.04049 0.0
C19 C 0.40891 0.22617 0.06197 0.0
C20 C 0.38657 0.19241 0.06279 0.0
N21 N 0.40163 0.12478 0.03792 0.0
C22 C 0.45605 0.1164 0.04592 0.0
C23 C 0.44882 0.13492 0.06247 0.0
C24 C 0.42122 0.13856 0.05826 0.0
C25 C 0.43578 0.10223 0.02535 0.0
C26 C 0.4089 0.10696 0.02155 0.0
N27 N 0.32531 0.13561 0.02564 0.0
C28 C 0.30147 0.16469 1.0055 0.0
C29 C 0.26994 0.13915 0.01168 0.0
C30 C 0.26652 0.11253 0.02577 0.0
C31 C 0.2946 0.11141 0.03283 0.0
C32 C 0.32895 0.16231 0.01253 0.0
H33 H 0.29144 0.09057 0.04356 0.0
H34 H 0.35306 0.18164 0.00685 0.0
H35 H 0.41575 0.15254 0.07142 0.0
H36 H 0.39401 0.09619 1.00529 0.0
C37 C 0.32854 0.06119 0.06255 0.0
C38 C 0.36434 0.17497 0.08376 0.0
C39 C 0.33406 0.08942 0.97599 0.0
C40 C 0.4202 0.19624 1.00472 0.0
H41 H 0.33805 0.13028 0.12548 0.0
H42 H 0.32107 0.06821 0.1145 0.0
H43 H 0.29481 0.00285 0.03264 0.0
H44 H 0.29438 0.01846 0.98564 0.0
H45 H 0.37491 0.13207 0.93638 0.0
H46 H 0.42436 0.18972 0.95218 0.0
H47 H 0.44536 0.25578 0.0334 0.0
H48 H 0.41203 0.24479 0.07529 0.0
H49 H 0.46418 0.14621 0.07857 0.0
H50 H 0.44097 0.08796 0.01212 0.0
H51 H 0.30474 0.18579 0.99485 0.0
H52 H 0.24231 0.09274 0.03124 0.0
C53 C 0.31428 0.34818 0.42025 0.0
C54 C 0.32216 0.33608 0.44106 0.0
C55 C 0.34561 0.32816 0.43391 0.0
C56 C 0.35058 0.33551 0.40918 0.0
N57 N 0.33154 0.34736 0.40035 0.0
Co58 Co 0.33003 0.35974 0.36548 0.0
N59 N 0.35019 0.33366 0.35332 0.0
C60 C 0.36724 0.32324 0.36711 0.0
C61 C 0.37784 0.30525 0.35374 0.0
C62 C 0.36696 0.30454 0.33006 0.0
C63 C 0.35042 0.32241 0.33026 0.0
N64 N 0.32858 0.37217 0.33065 0.0
C65 C 0.33055 0.35777 0.30942 0.0
C66 C 0.32881 0.37482 0.28899 0.0
C67 C 0.32572 0.40077 0.29789 0.0
C68 C 0.32582 0.39821 0.32319 0.0
N69 N 0.30993 0.38577 0.37766 0.0
C70 C 0.30908 0.4104 0.36536 0.0
C71 C 0.29355 0.42397 0.37851 0.0
C72 C 0.28421 0.40684 0.40044 0.0
C73 C 0.29453 0.38361 0.39942 0.0
N74 N 0.37408 0.3984 0.36909 0.0
C75 C 0.43706 0.45372 0.37379 0.0
C76 C 0.414 0.44479 0.39292 0.0
C77 C 0.38247 0.41723 0.39009 0.0
C78 C 0.42815 0.43446 0.35236 0.0
C79 C 0.39671 0.40674 0.35048 0.0
N80 N 0.28631 0.32139 0.36175 0.0
C81 C 0.23121 0.29648 0.34535 0.0
C82 C 0.22472 0.26578 0.35436 0.0
C83 C 0.24926 0.26337 0.36744 0.0
C84 C 0.28003 0.29145 0.37074 0.0
C85 C 0.26213 0.32416 0.34955 0.0
H86 H 0.2989 0.28887 0.38027 0.0
H87 H 0.26664 0.34772 0.34263 0.0
H88 H 0.36487 0.41117 0.40488 0.0
H89 H 0.39074 0.39206 0.33391 0.0
C90 C 0.36745 0.32564 0.39293 0.0
C91 C 0.29178 0.36183 0.42008 0.0
C92 C 0.33706 0.32998 0.30811 0.0
C93 C 0.31772 0.4158 0.34022 0.0
H94 H 0.31199 0.33299 0.45945 0.0
H95 H 0.35641 0.31679 0.44516 0.0
H96 H 0.39064 0.29285 0.36056 0.0
H97 H 0.37079 0.29224 0.31452 0.0
H98 H 0.32997 0.36928 0.26973 0.0
H99 H 0.32258 0.4186 0.28717 0.0
H100 H 0.28844 0.44313 0.37253 0.0
H101 H 0.2715 0.41107 0.4155 0.0
H102 H 0.42012 0.45931 0.40972 0.0
H103 H 0.44555 0.44055 0.3373 0.0
H104 H 0.21255 0.29902 0.33523 0.0
H105 H 0.24494 0.23977 0.37446 0.0
C106 C 0.06059 0.31569 0.75207 0.0
C107 C 0.07822 0.32613 0.77405 0.0
C108 C 0.10892 0.35214 0.76827 0.0
C109 C 0.10837 0.35629 0.74319 0.0
N110 N 0.07927 0.33438 0.7329 0.0
Co111 Co 0.06781 0.33278 0.69751 0.0
N112 N 0.11501 0.35796 0.68764 0.0
C113 C 0.14056 0.37704 0.7026 0.0
C114 C 0.17049 0.39085 0.69058 0.0
C115 C 0.16316 0.37983 0.66661 0.0
C116 C 0.12902 0.35994 0.66529 0.0
N117 N 0.0565 0.33154 0.66209 0.0
C118 C 0.0753 0.33581 0.64183 0.0
C119 C 0.05762 0.33261 0.62041 0.0
C120 C 0.02666 0.32601 0.62769 0.0
C121 C 0.02718 0.32565 0.65309 0.0
N122 N 0.0206 0.30738 0.70738 0.0
C123 C 0.99482 0.30319 0.69351 0.0
C124 C 0.96491 0.28319 0.70472 0.0
C125 C 0.97241 0.27457 0.72705 0.0
C126 C 0.00669 0.29016 0.72845 0.0
N127 N 0.06735 0.37421 0.70128 0.0
C128 C 0.07012 0.43503 0.70735 0.0
C129 C 0.08521 0.42942 0.68705 0.0
C130 C 0.08329 0.39883 0.68424 0.0
C131 C 0.05285 0.40934 0.72427 0.0
C132 C 0.05196 0.37915 0.721 0.0
N133 N 0.06858 0.29185 0.69344 0.0
C134 C 0.04867 0.24026 0.67215 0.0
C135 C 0.07602 0.23815 0.68041 0.0
C136 C 0.09847 0.26254 0.69655 0.0
C137 C 0.09438 0.28924 0.70274 0.0
C138 C 0.0452 0.26709 0.67915 0.0
H139 H 0.11276 0.30839 0.71432 0.0
H140 H 0.02437 0.26854 0.67208 0.0
H141 H 0.09513 0.39529 0.66837 0.0
H142 H 0.03924 0.35998 0.7346 0.0
C143 C 0.13588 0.37622 0.72826 0.0
C144 C 0.02548 0.28994 0.75038 0.0
C145 C 0.11034 0.34487 0.64248 0.0
C146 C -0.00054 0.31324 0.66866 0.0
H147 H 0.0697 0.31624 0.79237 0.0
H148 H 0.12951 0.36561 0.78076 0.0
H149 H 0.19485 0.40588 0.69852 0.0
H150 H 0.18091 0.38575 0.65186 0.0
H151 H 0.06616 0.33473 0.60155 0.0
H152 H 0.00583 0.3205 0.61585 0.0
H153 H 0.94049 0.27457 0.6971 0.0
H154 H 0.95455 0.25849 0.74057 0.0
H155 H 0.0984 0.44857 0.6734 0.0
H156 H 0.04092 0.41286 0.74022 0.0
H157 H 0.03065 0.22204 0.65967 0.0
H158 H 0.11938 0.26138 0.70407 0.0
C159 C 0.84323 0.06068 0.08553 0.0
C160 C 0.84848 0.07849 0.10724 0.0
C161 C 0.85225 0.10866 0.10065 0.0
C162 C 0.84901 0.10761 0.07538 0.0
N163 N 0.84356 0.07871 0.06577 0.0
Co164 Co 0.83717 0.06677 0.03029 0.0
N165 N 0.8585 0.1138 0.01998 0.0
C166 C 0.86251 0.13914 0.03431 0.0
C167 C 0.87837 0.169 0.0222 0.0
C168 C 0.88445 0.16187 0.9988 0.0
C169 C 0.87177 0.12789 0.99787 0.0
N170 N 0.83102 0.0549 0.99478 0.0
C171 C 0.84669 0.07375 0.97475 0.0
C172 C 0.83469 0.05552 0.95317 0.0
C173 C 0.81071 0.02425 0.96008 0.0
C174 C 0.80931 0.02509 0.98541 0.0
N175 N 0.81561 0.01976 0.04064 0.0
C176 C 0.79563 0.99355 0.0265 0.0
C177 C 0.78528 0.96395 0.03839 0.0
C178 C 0.79952 0.97215 0.06142 0.0
C179 C 0.81763 0.00648 0.06243 0.0
N180 N 0.79437 0.06485 0.03102 0.0
C181 C 0.73603 0.0678 0.03425 0.0
C182 C 0.75699 0.08092 0.01376 0.0
C183 C 0.78593 0.07916 0.01249 0.0
C184 C 0.74428 0.05198 0.05261 0.0
C185 C 0.77347 0.05069 0.05062 0.0
N186 N 0.87975 0.0689 0.02962 0.0
C187 C 0.9137 0.04605 0.01754 0.0
C188 C 0.94182 0.07409 0.02672 0.0
C189 C 0.93795 0.09908 0.03785 0.0
C190 C 0.90674 0.09583 0.03934 0.0
C191 C 0.88294 0.04406 0.01902 0.0
H192 H 0.90455 0.11548 0.04795 0.0
H193 H 0.86179 0.02262 0.01134 0.0
H194 H 0.80188 0.0901 0.99674 0.0
H195 H 0.77956 0.03902 0.0653 0.0
C196 C 0.85672 0.13466 0.05986 0.0
C197 C 0.83526 0.02593 0.08447 0.0
C198 C 0.87085 0.10942 0.97552 0.0
C199 C 0.79278 0.99758 1.00107 0.0
H200 H 0.84924 0.07042 0.12585 0.0
H201 H 0.85796 0.1293 0.11277 0.0
H202 H 0.88597 0.19325 0.02975 0.0
H203 H 0.8968 0.17967 0.98418 0.0
H204 H 0.84232 0.06399 0.93443 0.0
H205 H 0.79694 0.00312 0.9481 0.0
H206 H 0.77062 0.93931 0.03081 0.0
H207 H 0.797 0.95474 0.07562 0.0
H208 H 0.75127 0.09277 0.99887 0.0
H209 H 0.72893 0.04163 0.06885 0.0
H210 H 0.91538 0.02587 0.00913 0.0
H211 H 0.95893 0.12153 0.0448 0.0
C212 C 0.8832 0.83862 0.41677 0.0
C213 C 0.87167 0.84466 0.43868 0.0
C214 C 0.84558 0.84915 0.43252 0.0
C215 C 0.84256 0.84554 0.40729 0.0
N216 N 0.86524 0.83923 0.39729 0.0
Co217 Co 0.86976 0.8324 0.36167 0.0
N218 N 0.84463 0.85455 0.35182 0.0
C219 C 0.82425 0.85953 0.36654 0.0
C220 C 0.81082 0.87618 0.35476 0.0
C221 C 0.82338 0.88176 0.33119 0.0
C222 C 0.84369 0.86791 0.32979 0.0
N223 N 0.87441 0.82571 0.32606 0.0
C224 C 0.87114 0.84148 0.30612 0.0
C225 C 0.87636 0.82889 0.28442 0.0
C226 C 0.88313 0.80446 0.29117 0.0
C227 C 0.88158 0.80338 0.31653 0.0
N228 N 0.89466 0.81007 0.37154 0.0
C229 C 0.89982 0.7894 0.35732 0.0
C230 C 0.91828 0.77798 0.36908 0.0
C231 C 0.92494 0.79226 0.39212 0.0
C232 C 0.90998 0.81157 0.39319 0.0
N233 N 0.82846 0.7901 0.36285 0.0
C234 C 0.7666 0.73239 0.36633 0.0
C235 C 0.77522 0.75279 0.3454 0.0
C236 C 0.80596 0.78157 0.34416 0.0
C237 C 0.79036 0.74099 0.38504 0.0
C238 C 0.8212 0.76964 0.3828 0.0
N239 N 0.91059 0.87453 0.36048 0.0
C240 C 0.96598 0.90839 0.34542 0.0
C241 C 0.96704 0.93633 0.35589 0.0
C242 C 0.9397 0.93261 0.36921 0.0
C243 C 0.91174 0.90156 0.37123 0.0
C244 C 0.93752 0.87757 0.34812 0.0
H245 H 0.89072 0.89957 0.38101 0.0
H246 H 0.93701 0.85631 0.3398 0.0
H247 H 0.81123 0.79725 0.32821 0.0
H248 H 0.83884 0.77571 0.39756 0.0
C249 C 0.82343 0.85389 0.39209 0.0
C250 C 0.90927 0.82971 0.41523 0.0
C251 C 0.8603 0.86618 0.30712 0.0
C252 C 0.89233 0.78642 0.33199 0.0
H253 H 0.88101 0.84555 0.45714 0.0
H254 H 0.83144 0.85563 0.44487 0.0
H255 H 0.79506 0.88468 0.36266 0.0
H256 H 0.81821 0.89466 0.31682 0.0
H257 H 0.87515 0.83639 0.26571 0.0
H258 H 0.88965 0.79013 0.27905 0.0
H259 H 0.92717 0.76238 0.36146 0.0
H260 H 0.93923 0.78889 0.40638 0.0
H261 H 0.75829 0.74687 0.33006 0.0
H262 H 0.78502 0.72635 0.4017 0.0
H263 H 0.98682 0.91039 0.33513 0.0
H264 H 0.93945 0.95374 0.3773 0.0
C265 C 0.13385 0.8907 0.75362 0.0
C266 C 0.11559 0.88769 0.77471 0.0
C267 C 0.08304 0.86896 0.76837 0.0
C268 C 0.08321 0.8615 0.7439 0.0
N269 N 0.11393 0.87391 0.73427 0.0
Co270 Co 0.1253 0.86976 0.69914 0.0
N271 N 0.07749 0.84637 0.68895 0.0
C272 C 0.05101 0.83635 0.70399 0.0
C273 C 0.02148 0.823 0.69163 0.0
C274 C 0.02954 0.82508 0.66721 0.0
C275 C 0.06373 0.83947 0.66602 0.0
N276 N 0.13662 0.86647 0.66384 0.0
C277 C 0.11738 0.85793 0.64326 0.0
C278 C 0.13547 0.86086 0.62212 0.0
C279 C 0.16742 0.87258 0.62949 0.0
C280 C 0.16704 0.87601 0.65463 0.0
N281 N 0.17308 0.89317 0.70933 0.0
C282 C 0.19922 0.8993 0.6949 0.0
C283 C 0.22913 0.91693 0.70662 0.0
C284 C 0.22173 0.92268 0.72985 0.0
C285 C 0.18753 0.90802 0.73108 0.0
N286 N 0.12171 0.82614 0.70673 0.0
C287 C 0.11331 0.76229 0.7138 0.0
C288 C 0.13986 0.78626 0.70013 0.0
C289 C 0.14368 0.81771 0.69704 0.0
C290 C 0.0918 0.77125 0.72468 0.0
C291 C 0.09644 0.80294 0.72099 0.0
N292 N 0.12857 0.91247 0.69125 0.0
C293 C 0.15385 0.96337 0.66795 0.0
C294 C 0.12703 0.96783 0.67309 0.0
C295 C 0.10221 0.94543 0.68882 0.0
C296 C 0.10356 0.91821 0.69776 0.0
C297 C 0.15419 0.93565 0.67729 0.0
H298 H 0.08368 0.9016 0.70934 0.0
H299 H 0.17486 0.93288 0.67243 0.0
H300 H 0.16439 0.83445 0.68641 0.0
H301 H 0.07896 0.8077 0.72975 0.0
C302 C 0.05503 0.84427 0.72914 0.0
C303 C 0.17001 0.90996 0.75294 0.0
C304 C 0.08225 0.84802 0.64276 0.0
C305 C 0.19511 0.89108 0.66977 0.0
H306 H 0.12483 0.89822 0.79277 0.0
H307 H 0.06177 0.86216 0.78007 0.0
H308 H 0.99714 0.81454 0.69935 0.0
H309 H 0.0122 0.81798 0.65206 0.0
H310 H 0.12661 0.85588 0.60325 0.0
H311 H 0.18864 0.87911 0.61779 0.0
H312 H 0.25351 0.92566 0.69889 0.0
H313 H 0.23961 0.93679 0.74404 0.0
H314 H 0.15727 0.78065 0.6912 0.0
H315 H 0.0713 0.75389 0.73602 0.0
H316 H 0.1739 0.98055 0.65619 0.0
H317 H 0.0816 0.94871 0.69407 0.0
H318 H 0.308 0.17046 0.10264 0.0
H319 H 0.30179 0.19681 0.13989 0.0
H320 H 0.40743 0.24656 0.15132 0.0
H321 H 0.41321 0.21857 0.11497 0.0
H322 H 0.38013 0.22648 0.19312 0.0
H323 H 0.36236 0.28611 0.12819 0.0
H324 H 0.33624 0.29245 0.09054 0.0
H325 H 0.24175 0.24587 0.12682 0.0
H326 H 0.26726 0.23889 0.1646 0.0
H327 H 0.39208 0.34455 0.28109 0.0
H328 H 0.39532 0.31941 0.24211 0.0
H329 H 0.28891 0.25937 0.2407 0.0
H330 H 0.28578 0.28467 0.27984 0.0
H331 H 0.31493 0.28408 0.19423 0.0
H332 H 0.33458 0.22664 0.25979 0.0
H333 H 0.36226 0.223 0.29749 0.0
H334 H 0.45543 0.26815 0.25939 0.0
H335 H 0.4284 0.27264 0.22157 0.0
C336 C 0.32988 0.18733 0.11301 0.0
C337 C 0.3612 0.19329 0.10542 0.0
C338 C 0.32638 0.20256 0.13428 0.0
C339 C 0.35421 0.22451 0.14834 0.0
C340 C 0.3855 0.23009 0.14084 0.0
C341 C 0.3889 0.21445 0.11981 0.0
C342 C 0.35077 0.24087 0.1712 0.0
C343 C 0.36624 0.23946 0.19313 0.0
C344 C 0.33201 0.25727 0.17175 0.0
C345 C 0.31667 0.2617 0.14914 0.0
C346 C 0.33598 0.27704 0.12808 0.0
C347 C 0.32129 0.28077 0.10673 0.0
C348 C 0.28734 0.26949 0.10627 0.0
C349 C 0.26804 0.25456 0.12719 0.0
C350 C 0.2826 0.25074 0.14859 0.0
C351 C 0.36943 0.32604 0.27237 0.0
C352 C 0.33871 0.3161 0.28359 0.0
C353 C 0.37126 0.31164 0.25013 0.0
C354 C 0.34239 0.28704 0.23855 0.0
C355 C 0.31155 0.27814 0.24926 0.0
C356 C 0.30974 0.2925 0.27162 0.0
C357 C 0.34461 0.26994 0.21582 0.0
C358 C 0.32884 0.27112 0.19405 0.0
C359 C 0.36332 0.25358 0.21533 0.0
C360 C 0.3795 0.25022 0.2379 0.0
C361 C 0.36101 0.23597 0.25949 0.0
C362 C 0.37658 0.23375 0.28088 0.0
C363 C 0.41059 0.24539 0.28085 0.0
C364 C 0.42909 0.25917 0.25939 0.0
C365 C 0.41365 0.26155 0.23797 0.0
H366 H 0.42261 0.24366 0.29743 0.0
H367 H 0.27601 0.27239 0.08971 0.0
H368 H 0.2246 0.33111 0.4252 0.0
H369 H 0.1926 0.32774 0.46234 0.0
H370 H 0.28344 0.38588 0.50267 0.0
H371 H 0.31529 0.3896 0.4655 0.0
H372 H 0.23873 0.33229 0.52978 0.0
H373 H 0.23984 0.42035 0.48286 0.0
H374 H 0.23066 0.44566 0.44591 0.0
H375 H 0.12677 0.37475 0.44835 0.0
H376 H 0.13542 0.34864 0.48509 0.0
H377 H 0.14841 0.39868 0.6135 0.0
H378 H 0.17792 0.40087 0.57531 0.0
H379 H 0.14002 0.29562 0.58014 0.0
H380 H 0.1109 0.29366 0.61856 0.0
H381 H 0.15874 0.37309 0.53054 0.0
H382 H 0.19804 0.27816 0.55739 0.0
H383 H 0.20877 0.25511 0.59502 0.0
H384 H 0.23617 0.34538 0.63404 0.0
H385 H 0.22603 0.3691 0.59657 0.0
C386 C 0.23762 0.34311 0.44204 0.0
C387 C 0.27237 0.36006 0.44264 0.0
C388 C 0.21937 0.34123 0.46324 0.0
C389 C 0.23554 0.35643 0.48545 0.0
C390 C 0.27032 0.37364 0.48592 0.0
C391 C 0.28852 0.37575 0.46469 0.0
C392 C 0.21639 0.35473 0.50815 0.0
C393 C 0.22115 0.3411 0.52987 0.0
C394 C 0.19363 0.3665 0.50852 0.0
C395 C 0.18834 0.38234 0.48658 0.0
C396 C 0.21508 0.40999 0.4754 0.0
C397 C 0.20996 0.4245 0.45451 0.0
C398 C 0.17816 0.41178 0.44476 0.0
C399 C 0.15139 0.38455 0.45591 0.0
C400 C 0.15639 0.36989 0.47677 0.0
C401 C 0.14656 0.3761 0.60637 0.0
C402 C 0.12788 0.3461 0.61908 0.0
C403 C 0.16323 0.37729 0.58449 0.0
C404 C 0.16162 0.3485 0.57485 0.0
C405 C 0.14218 0.3183 0.58731 0.0
C406 C 0.12549 0.31714 0.60921 0.0
C407 C 0.18079 0.35031 0.55211 0.0
C408 C 0.1761 0.36401 0.53039 0.0
C409 C 0.20384 0.33887 0.55179 0.0
C410 C 0.21097 0.32526 0.57423 0.0
C411 C 0.20653 0.29314 0.57396 0.0
C412 C 0.21247 0.27995 0.59527 0.0
C413 C 0.22304 0.29873 0.61693 0.0
C414 C 0.22788 0.33082 0.61728 0.0
C415 C 0.22202 0.34414 0.59602 0.0
H416 H 0.22755 0.28844 0.63342 0.0
H417 H 0.17425 0.42306 0.42859 0.0
H418 H 0.92466 0.11303 0.95237 0.0
H419 H 0.95129 0.14235 0.9139 0.0
H420 H 0.87988 0.17515 0.90768 0.0
H421 H 0.85309 0.14536 0.94584 0.0
H422 H 0.88857 0.1568 0.86417 0.0
H423 H 0.96039 0.22558 0.92766 0.0
H424 H 0.99711 0.24168 0.96394 0.0
H425 H 0.06382 0.22002 0.92433 0.0
H426 H 0.02694 0.2027 0.88805 0.0
H427 H 0.97727 0.29081 0.77912 0.0
H428 H 0.95092 0.2582 0.81637 0.0
H429 H 0.01164 0.21276 0.81104 0.0
H430 H 0.03719 0.24453 0.77315 0.0
H431 H 0.00901 0.23658 0.85957 0.0
H432 H 0.93492 0.16814 0.79561 0.0
H433 H 0.89883 0.15662 0.75932 0.0
H434 H 0.83708 0.18334 0.80068 0.0
H435 H 0.87315 0.19556 0.83712 0.0
C436 C 0.91481 0.12661 0.94274 0.0
C437 C 0.88718 0.12739 0.9522 0.0
C438 C 0.93007 0.14347 0.92081 0.0
C439 C 0.91798 0.1615 0.90787 0.0
C440 C 0.88987 0.16162 0.9172 0.0
C441 C 0.87465 0.14477 0.93908 0.0
C442 C 0.93433 0.18003 0.88462 0.0
C443 C 0.91487 0.17447 0.86335 0.0
C444 C 0.96881 0.20288 0.88315 0.0
C445 C 0.99061 0.21239 0.90521 0.0
C446 C 0.98262 0.22375 0.92678 0.0
C447 C 0.0035 0.23314 0.94735 0.0
C448 C 0.03273 0.23177 0.94647 0.0
C449 C 0.04112 0.22098 0.92501 0.0
C450 C 0.02017 0.21125 0.90447 0.0
C451 C 0.98438 0.27324 0.78554 0.0
C452 C 0.0085 0.26938 0.77273 0.0
C453 C 0.96953 0.25483 0.80697 0.0
C454 C 0.97901 0.23271 0.81645 0.0
C455 C 0.00375 0.22949 0.80405 0.0
C456 C 0.01822 0.24751 0.78237 0.0
C457 C 0.96323 0.21322 0.83937 0.0
C458 C 0.98278 0.21869 0.8605 0.0
C459 C 0.92881 0.19067 0.84085 0.0
C460 C 0.90694 0.18309 0.81902 0.0
C461 C 0.91382 0.17185 0.79691 0.0
C462 C 0.89334 0.16514 0.77632 0.0
C463 C 0.86573 0.16933 0.77767 0.0
C464 C 0.8585 0.18015 0.79964 0.0
C465 C 0.87894 0.18695 0.82028 0.0
H466 H 0.84989 0.16411 0.76171 0.0
H467 H 0.04891 0.23912 0.96239 0.0
H468 H 0.89215 0.03677 0.107 0.0
H469 H 0.8981 0.011 0.14478 0.0
H470 H 0.79182 0.95293 0.15113 0.0
H471 H 0.78606 0.97974 0.11398 0.0
H472 H 0.81618 0.9736 0.19467 0.0
H473 H 0.84206 0.92053 0.1295 0.0
H474 H 0.87149 0.91786 0.09249 0.0
H475 H 0.96366 0.96666 0.13188 0.0
H476 H 0.93484 0.97003 0.16904 0.0
H477 H 0.80576 0.85267 0.27964 0.0
H478 H 0.80315 0.88041 0.24189 0.0
H479 H 0.90915 0.94384 0.24381 0.0
H480 H 0.91165 0.91599 0.28175 0.0
H481 H 0.88675 0.9218 0.19669 0.0
H482 H 0.85915 0.97255 0.26255 0.0
H483 H 0.82834 0.97274 0.29949 0.0
H484 H 0.73758 0.92593 0.25827 0.0
H485 H 0.76779 0.92491 0.22116 0.0
C486 C 0.87013 0.01838 0.11648 0.0
C487 C 0.83866 0.00958 0.10722 0.0
C488 C 0.8735 0.0035 0.13801 0.0
C489 C 0.84541 0.97932 0.15071 0.0
C490 C 0.81394 0.97121 0.14171 0.0
C491 C 0.81061 0.98629 0.12032 0.0
C492 C 0.84868 0.96271 0.17345 0.0
C493 C 0.83132 0.96195 0.19492 0.0
C494 C 0.86897 0.94799 0.17423 0.0
C495 C 0.88634 0.94583 0.15197 0.0
C496 C 0.86864 0.9309 0.13021 0.0
C497 C 0.88521 0.92923 0.10922 0.0
C498 C 0.91944 0.94216 0.10981 0.0
C499 C 0.93716 0.9567 0.13143 0.0
C500 C 0.92072 0.95848 0.15247 0.0
C501 C 0.82843 0.87271 0.27206 0.0
C502 C 0.85882 0.88277 0.28388 0.0
C503 C 0.82696 0.88853 0.25048 0.0
C504 C 0.85589 0.91467 0.24011 0.0
C505 C 0.88645 0.92393 0.25146 0.0
C506 C 0.88789 0.90814 0.27316 0.0
C507 C 0.85406 0.93253 0.2177 0.0
C508 C 0.8717 0.93355 0.19636 0.0
C509 C 0.83385 0.94727 0.21696 0.0
C510 C 0.81571 0.94841 0.23912 0.0
C511 C 0.83259 0.9621 0.2614 0.0
C512 C 0.81524 0.96237 0.28237 0.0
C513 C 0.78101 0.9493 0.28124 0.0
C514 C 0.76409 0.93602 0.25912 0.0
C515 C 0.78132 0.9356 0.2381 0.0
H516 H 0.76762 0.94952 0.2975 0.0
H517 H 0.93222 0.94085 0.09354 0.0
H518 H 0.0341 0.79318 0.61893 0.0
H519 H 0.00594 0.79088 0.5801 0.0
H520 H 0.06616 0.89693 0.57288 0.0
H521 H 0.09328 0.89921 0.61235 0.0
H522 H 0.00576 0.87968 0.56065 0.0
H523 H 0.079 0.84006 0.53778 0.0
H524 H 0.10434 0.80472 0.54072 0.0
H525 H 0.00983 0.71841 0.52739 0.0
H526 H 0.98382 0.7532 0.52472 0.0
H527 H 0.96172 0.8847 0.43493 0.0
H528 H 0.99288 0.88876 0.47267 0.0
H529 H 0.93063 0.78376 0.4845 0.0
H530 H 0.89991 0.77979 0.44658 0.0
H531 H 0.99363 0.80176 0.49369 0.0
H532 H 0.92072 0.84234 0.51705 0.0
H533 H 0.89629 0.87843 0.51348 0.0
H534 H 0.99177 0.96409 0.52528 0.0
H535 H 0.01688 0.92853 0.5285 0.0
C536 C 0.04113 0.81596 0.60905 0.0
C537 C 0.0656 0.8464 0.61871 0.0
C538 C 0.02526 0.81465 0.58673 0.0
C539 C 0.03408 0.84369 0.57318 0.0
C540 C 0.05876 0.87414 0.58284 0.0
C541 C 0.07438 0.87546 0.60533 0.0
C542 C 0.01733 0.84236 0.54918 0.0
C543 C 0.0036 0.86296 0.54589 0.0
C544 C 0.01378 0.82017 0.52991 0.0
C545 C 0.02941 0.79922 0.53126 0.0
C546 C 0.06358 0.81352 0.53563 0.0
C547 C 0.07807 0.79359 0.53723 0.0
C548 C 0.0587 0.75933 0.53429 0.0
C549 C 0.0248 0.74494 0.52968 0.0
C550 C 0.01018 0.76476 0.5281 0.0
C551 C 0.95493 0.86254 0.44559 0.0
C552 C 0.92874 0.8319 0.43778 0.0
C553 C 0.97258 0.86485 0.46721 0.0
C554 C 0.96403 0.8366 0.4817 0.0
C555 C 0.93788 0.80592 0.47371 0.0
C556 C 0.92032 0.80362 0.45207 0.0
C557 C 0.982 0.83896 0.50525 0.0
C558 C 0.99593 0.81853 0.50844 0.0
C559 C 0.98588 0.86143 0.52436 0.0
C560 C 0.97073 0.88279 0.52279 0.0
C561 C 0.93654 0.86889 0.51873 0.0
C562 C 0.92257 0.88925 0.51678 0.0
C563 C 0.94247 0.92354 0.5191 0.0
C564 C 0.97639 0.93753 0.52345 0.0
C565 C 0.9905 0.91729 0.52535 0.0
H566 H 0.93161 0.93926 0.51759 0.0
H567 H 0.06996 0.74394 0.53555 0.0
H568 H 0.29653 0.10345 0.94499 0.0
H569 H 0.27069 0.07635 0.90578 0.0
H570 H 0.3115 0.01167 0.91379 0.0
H571 H 0.33871 0.04004 0.95219 0.0
H572 H 0.31532 0.02771 0.86799 0.0
H573 H 0.22707 0.98821 0.92781 0.0
H574 H 0.19327 0.99509 0.95977 0.0
H575 H 0.16388 0.04485 0.9075 0.0
H576 H 0.19788 0.03865 0.8753 0.0
H577 H 0.20889 0.89938 0.78535 0.0
H578 H 0.23772 0.9319 0.82212 0.0
H579 H 0.20097 0.99865 0.80701 0.0
H580 H 0.17202 0.96592 0.77029 0.0
H581 H 0.19514 0.98354 0.85537 0.0
H582 H 0.28156 0.02041 0.79505 0.0
H583 H 0.31586 0.01381 0.76341 0.0
H584 H 0.34876 0.96858 0.81697 0.0
H585 H 0.3142 0.97439 0.84886 0.0
C586 C 0.29994 0.08347 0.93826 0.0
C587 C 0.31878 0.07317 0.95194 0.0
C588 C 0.28501 0.0678 0.91593 0.0
C589 C 0.28825 0.04118 0.90696 0.0
C590 C 0.30819 0.03181 0.92027 0.0
C591 C 0.32348 0.04779 0.94237 0.0
C592 C 0.27078 0.02284 0.88393 0.0
C593 C 0.28896 0.01773 0.86544 0.0
C594 C 0.23645 0.01033 0.88008 0.0
C595 C 0.21525 0.01322 0.89921 0.0
C596 C 0.21348 0.00071 0.92316 0.0
C597 C 0.19431 0.00451 0.94132 0.0
C598 C 0.17652 0.02048 0.93569 0.0
C599 C 0.17772 0.03252 0.91184 0.0
C600 C 0.1969 0.02885 0.89363 0.0
C601 C 0.2073 0.92119 0.78981 0.0
C602 C 0.18864 0.93044 0.77484 0.0
C603 C 0.22375 0.93979 0.81081 0.0
C604 C 0.22194 0.96809 0.8173 0.0
C605 C 0.20291 0.97706 0.80245 0.0
C606 C 0.18651 0.95848 0.78142 0.0
C607 C 0.23965 0.98812 0.83963 0.0
C608 C 0.22151 0.99356 0.85795 0.0
C609 C 0.27398 0.0008 0.84338 0.0
C610 C 0.29504 0.99757 0.8243 0.0
C611 C 0.29591 0.00883 0.80005 0.0
C612 C 0.31542 0.00526 0.78207 0.0
C613 C 0.33442 0.99072 0.78816 0.0
C614 C 0.334 0.9798 0.81227 0.0
C615 C 0.31447 0.98324 0.83031 0.0
H616 H 0.34951 0.98798 0.77422 0.0
H617 H 0.16177 0.02349 0.94979 0.0
H618 H 0.25099 0.18232 0.02712 0.0
H619 H 0.19542 0.17523 0.02293 0.0
H620 H 0.16689 0.09072 0.97566 0.0
H621 H 0.22218 0.09728 0.98031 0.0
H622 H 0.13752 0.14076 0.96764 0.0
H623 H 0.15029 0.06364 0.02427 0.0
H624 H 0.18242 0.05522 0.05682 0.0
H625 H 0.17464 0.12584 0.10312 0.0
H626 H 0.14289 0.13501 0.07062 0.0
H627 H 0.9656 0.05461 0.98768 0.0
H628 H 0.02201 0.06596 0.98134 0.0
H629 H 0.05082 0.11689 0.0514 0.0
H630 H 0.99392 0.10299 0.05895 0.0
H631 H 0.0814 0.08514 0.04578 0.0
H632 H 0.0617 0.1568 0.99406 0.0
H633 H 0.03108 0.16895 0.96261 0.0
H634 H 0.05456 0.11702 0.90802 0.0
H635 H 0.08443 0.10357 0.9394 0.0
C636 C 0.23315 0.16307 0.01512 0.0
C637 C 0.24031 0.14015 1.00416 0.0
C638 C 0.20165 0.15914 0.01265 0.0
C639 C 0.17737 0.13251 0.99899 0.0
C640 C 0.18556 0.11158 0.98603 0.0
C641 C 0.21689 0.11517 0.98884 0.0
C642 C 0.14241 0.12221 1.00282 0.0
C643 C 0.12495 0.12833 0.98453 0.0
C644 C 0.12665 0.10669 0.02513 0.0
C645 C 0.14449 0.10017 0.04501 0.0
C646 C 0.15558 0.07745 0.04136 0.0
C647 C 0.17371 0.07255 0.05978 0.0
C648 C 0.18063 0.09003 0.082 0.0
C649 C 0.16928 0.11233 0.08589 0.0
C650 C 0.1512 0.11737 0.06749 0.0
C651 C 0.98368 0.06743 1.00207 0.0
C652 C 0.97527 0.07829 0.0237 0.0
C653 C 0.01607 0.07437 0.99822 0.0
C654 C 0.0408 0.09313 0.01555 0.0
C655 C 0.0322 0.1027 0.03762 0.0
C656 C -0.0003 0.09509 0.04177 0.0
C657 C 0.07583 0.10358 0.01057 0.0
C658 C 0.09355 0.09749 0.02874 0.0
C659 C 0.09183 0.11971 0.98829 0.0
C660 C 0.07502 0.12888 0.96916 0.0
C661 C 0.06021 0.14783 0.97538 0.0
C662 C 0.04295 0.15492 0.95756 0.0
C663 C 0.04085 0.14376 0.93332 0.0
C664 C 0.05615 0.12559 0.92682 0.0
C665 C 0.0732 0.11817 0.94463 0.0
H666 H 0.02739 0.14918 0.91956 0.0
H667 H 0.19473 0.08626 0.09623 0.0
H668 H -0.00118 0.96372 0.31258 0.0
H669 H 0.04087 0.02173 0.30547 0.0
H670 H 0.04066 0.04186 0.38329 0.0
H671 H -0.00116 0.98411 0.39046 0.0
H672 H 0.03202 0.08485 0.35447 0.0
H673 H 0.10406 0.03791 0.35798 0.0
H674 H 0.12444 0.0005 0.34517 0.0
H675 H 0.14165 0.04074 0.27179 0.0
H676 H 0.12094 0.07812 0.28411 0.0
H677 H 0.18129 0.22441 0.38828 0.0
H678 H 0.13234 0.17041 0.38057 0.0
H679 H 0.14891 0.18528 0.302 0.0
H680 H 0.19781 0.23981 0.30974 0.0
H681 H 0.14498 0.12638 0.32102 0.0
H682 H 0.08243 0.18122 0.32136 0.0
H683 H 0.0642 0.21957 0.33611 0.0
H684 H 0.03067 0.16524 0.40405 0.0
H685 H 0.04915 0.12683 0.38989 0.0
C686 C 0.00835 0.98044 0.32819 0.0
C687 C 0.99559 0.96968 0.35204 0.0
C688 C 0.03215 0.01349 0.3241 0.0
C689 C 0.04353 0.03596 0.34385 0.0
C690 C 0.03182 0.02487 0.3678 0.0
C691 C 0.00807 0.99197 0.37188 0.0
C692 C 0.06663 0.07143 0.33971 0.0
C693 C 0.05677 0.09401 0.34722 0.0
C694 C 0.09834 0.0831 0.32932 0.0
C695 C 0.1105 0.06045 0.32186 0.0
C696 C 0.11185 0.03852 0.33904 0.0
C697 C 0.12354 0.01739 0.33189 0.0
C698 C 0.13421 0.01814 0.30765 0.0
C699 C 0.13329 0.04011 0.29054 0.0
C700 C 0.12158 0.06128 0.29759 0.0
C701 C 0.17394 0.21636 0.3694 0.0
C702 C 0.19294 0.23587 0.34956 0.0
C703 C 0.14605 0.18574 0.365 0.0
C704 C 0.13711 0.17414 0.34072 0.0
C705 C 0.15546 0.19408 0.32081 0.0
C706 C 0.18314 0.22506 0.32522 0.0
C707 C 0.1108 0.13974 0.33674 0.0
C708 C 0.11995 0.11727 0.32765 0.0
C709 C 0.07853 0.12815 0.34589 0.0
C710 C 0.06735 0.1512 0.35457 0.0
C711 C 0.07141 0.17758 0.33953 0.0
C712 C 0.06098 0.19931 0.34777 0.0
C713 C 0.04632 0.19486 0.37102 0.0
C714 C 0.04202 0.16865 0.38605 0.0
C715 C 0.05242 0.14685 0.3779 0.0
H716 H 0.03825 0.21171 0.37736 0.0
H717 H 0.14328 0.00179 0.30216 0.0
H718 H 0.02929 0.17337 0.67204 0.0
H719 H 0.03856 0.12824 0.66033 0.0
H720 H 0.144 0.19549 0.65962 0.0
H721 H 0.13486 0.24138 0.6694 0.0
H722 H 0.12844 0.15071 0.62476 0.0
H723 H 0.10517 0.14945 0.71099 0.0
H724 H 0.07385 0.14942 0.74771 0.0
H725 H 0.99048 0.05752 0.72441 0.0
H726 H 0.02116 0.05726 0.68734 0.0
H727 H 0.17549 0.03284 0.67011 0.0
H728 H 0.1678 0.07978 0.65984 0.0
H729 H 0.06532 0.01237 0.64258 0.0
H730 H 0.07292 0.96545 0.6523 0.0
H731 H 0.07882 0.05658 0.68357 0.0
H732 H 0.10924 0.0571 0.59864 0.0
H733 H 0.14537 0.05909 0.56467 0.0
H734 H 0.22172 0.15452 0.58926 0.0
H735 H 0.18624 0.1529 0.62364 0.0
C736 C 0.05442 0.17881 0.6688 0.0
C737 C 0.08138 0.21091 0.67212 0.0
C738 C 0.05969 0.15291 0.66231 0.0
C739 C 0.09199 0.15844 0.65971 0.0
C740 C 0.11888 0.19068 0.66175 0.0
C741 C 0.11361 0.21675 0.66777 0.0
C742 C 0.09779 0.13023 0.65707 0.0
C743 C 0.11778 0.13018 0.63766 0.0
C744 C 0.08382 0.10351 0.67394 0.0
C745 C 0.06532 0.10353 0.69626 0.0
C746 C 0.08006 0.12937 0.7136 0.0
C747 C 0.06244 0.12939 0.73449 0.0
C748 C 0.03016 0.10353 0.73835 0.0
C749 C 0.01546 0.07756 0.72136 0.0
C750 C 0.03296 0.07746 0.70042 0.0
C751 C 0.15166 0.02807 0.66332 0.0
C752 C 0.12458 0.99568 0.66252 0.0
C753 C 0.14734 0.05482 0.6574 0.0
C754 C 0.11598 0.04933 0.65058 0.0
C755 C 0.08966 0.01693 0.64783 0.0
C756 C 0.09397 0.99027 0.65362 0.0
C757 C 0.10902 0.07679 0.65109 0.0
C758 C 0.08908 0.07685 0.6704 0.0
C759 C 0.12376 0.10373 0.63453 0.0
C760 C 0.14517 0.10471 0.61389 0.0
C761 C 0.13386 0.07836 0.59698 0.0
C762 C 0.1542 0.07946 0.5776 0.0
C763 C 0.18585 0.10687 0.57484 0.0
C764 C 0.19721 0.13328 0.59143 0.0
C765 C 0.17698 0.1323 0.61086 0.0
H766 H 0.20156 0.10768 0.55982 0.0
H767 H 0.01656 0.10358 0.75454 0.0
H768 H 0.73103 0.12236 0.02331 0.0
H769 H 0.6829 0.12944 0.02806 0.0
H770 H 0.62647 0.03017 0.05677 0.0
H771 H 0.67431 0.02245 0.05126 0.0
H772 H 0.5914 0.04349 0.02333 0.0
H773 H 0.65683 0.09655 0.0954 0.0
H774 H 0.70774 0.1352 0.11778 0.0
H775 H 0.71041 0.21735 0.07978 0.0
H776 H 0.65976 0.17915 0.05692 0.0
H777 H 0.45593 0.06074 0.06048 0.0
H778 H 0.50342 0.05177 0.06241 0.0
H779 H 0.56795 0.15291 0.03959 0.0
H780 H 0.52056 0.16215 0.03887 0.0
H781 H 0.59835 0.13681 0.07222 0.0
H782 H 0.53636 0.08539 0.99834 0.0
H783 H 0.48649 0.04798 0.97439 0.0
H784 H 0.4786 0.96433 0.0137 0.0
H785 H 0.52819 0.00132 0.03813 0.0
C786 C 0.70828 0.10186 0.03036 0.0
C787 C 0.70651 0.07181 0.03688 0.0
C788 C 0.68091 0.1061 0.03334 0.0
C789 C 0.65126 0.08051 0.04311 0.0
C790 C 0.6492 0.05031 0.04934 0.0
C791 C 0.6766 0.04602 0.04634 0.0
C792 C 0.62233 0.08521 0.0465 0.0
C793 C 0.59272 0.06356 0.03436 0.0
C794 C 0.62437 0.11191 0.06037 0.0
C795 C 0.65463 0.13495 0.07431 0.0
C796 C 0.66839 0.12284 0.0917 0.0
C797 C 0.69719 0.14467 0.10449 0.0
C798 C 0.71234 0.1787 0.10017 0.0
C799 C 0.69866 0.19098 0.0831 0.0
C800 C 0.66989 0.16925 0.07025 0.0
C801 C 0.48042 0.08108 0.05631 0.0
C802 C 0.48491 0.11208 0.04956 0.0
C803 C 0.50744 0.07593 0.0572 0.0
C804 C 0.53918 0.10145 0.05061 0.0
C805 C 0.54373 0.13282 0.0447 0.0
C806 C 0.51677 0.13812 0.04427 0.0
C807 C 0.5674 0.09521 0.04891 0.0
C808 C 0.59691 0.11659 0.06133 0.0
C809 C 0.56539 0.06845 0.03508 0.0
C810 C 0.53579 0.04615 0.02022 0.0
C811 C 0.52387 0.05904 1.00197 0.0
C812 C 0.49567 0.03791 0.98831 0.0
C813 C 0.47934 0.00381 0.99257 0.0
C814 C 0.49124 0.99076 0.01045 0.0
C815 C 0.51941 0.01179 0.0242 0.0
H816 H 0.4575 0.98749 0.98198 0.0
H817 H 0.73464 0.19556 0.11008 0.0
H818 H 0.74804 0.67293 0.38952 0.0
H819 H 0.69237 0.62607 0.39458 0.0
H820 H 0.65298 0.67718 0.35243 0.0
H821 H 0.70792 0.72528 0.34935 0.0
H822 H 0.6139 0.64875 0.38756 0.0
H823 H 0.66518 0.61215 0.32843 0.0
H824 H 0.7075 0.60027 0.31201 0.0
H825 H 0.68822 0.53162 0.37117 0.0
H826 H 0.64606 0.54341 0.38813 0.0
H827 H 0.46613 0.50627 0.34268 0.0
H828 H 0.52243 0.55389 0.34524 0.0
H829 H 0.53962 0.51383 0.41178 0.0
H830 H 0.48287 0.46652 0.40966 0.0
H831 H 0.58924 0.5348 0.36764 0.0
H832 H 0.53314 0.57177 0.42374 0.0
H833 H 0.48861 0.58319 0.43511 0.0
H834 H 0.51525 0.65131 0.37455 0.0
H835 H 0.55963 0.63989 0.36259 0.0
C836 C 0.72755 0.67453 0.38164 0.0
C837 C 0.73279 0.70305 0.36885 0.0
C838 C 0.69567 0.64738 0.38423 0.0
C839 C 0.66842 0.64772 0.37348 0.0
C840 C 0.67354 0.67616 0.36083 0.0
C841 C 0.70523 0.70356 0.35873 0.0
C842 C 0.63449 0.61868 0.37547 0.0
C843 C 0.60862 0.62393 0.38298 0.0
C844 C 0.6274 0.58607 0.36984 0.0
C845 C 0.65274 0.57895 0.3597 0.0
C846 C 0.67015 0.59471 0.33804 0.0
C847 C 0.69407 0.58796 0.32862 0.0
C848 C 0.70061 0.56528 0.34058 0.0
C849 C 0.68317 0.54923 0.36195 0.0
C850 C 0.65925 0.55592 0.37147 0.0
C851 C 0.48191 0.50784 0.35792 0.0
C852 C 0.47039 0.48296 0.376 0.0
C853 C 0.5139 0.53493 0.35937 0.0
C854 C 0.53495 0.53719 0.37869 0.0
C855 C 0.52356 0.51237 0.39678 0.0
C856 C 0.49127 0.48559 0.39562 0.0
C857 C 0.56917 0.56522 0.37948 0.0
C858 C 0.5949 0.55969 0.37242 0.0
C859 C 0.57601 0.59765 0.38484 0.0
C860 C 0.5495 0.60472 0.39213 0.0
C861 C 0.5293 0.58894 0.41271 0.0
C862 C 0.50413 0.59547 0.41929 0.0
C863 C 0.49905 0.6179 0.40552 0.0
C864 C 0.51919 0.63392 0.38518 0.0
C865 C 0.54438 0.62745 0.37851 0.0
H866 H 0.47955 0.62293 0.41065 0.0
H867 H 0.71914 0.56008 0.33325 0.0
H868 H 0.15956 0.74277 0.7194 0.0
H869 H 0.15017 0.68632 0.72005 0.0
H870 H 0.04497 0.64772 0.7145 0.0
H871 H 0.05408 0.70407 0.71315 0.0
H872 H 0.06246 0.61399 0.74922 0.0
H873 H 0.08434 0.64959 0.66453 0.0
H874 H 0.116 0.68737 0.6305 0.0
H875 H 0.19958 0.67591 0.64784 0.0
H876 H 0.16856 0.63843 0.68223 0.0
H877 H 0.02074 0.4493 0.7154 0.0
H878 H 0.02614 0.50428 0.7184 0.0
H879 H 0.13214 0.54943 0.71094 0.0
H880 H 0.12658 0.49467 0.707 0.0
H881 H 0.11186 0.57962 0.68248 0.0
H882 H 0.09144 0.54511 0.76756 0.0
H883 H 0.06079 0.50807 0.80222 0.0
H884 H 0.97615 0.5179 0.78527 0.0
H885 H 0.00616 0.55467 0.7503 0.0
C886 C 0.13442 0.72233 0.71818 0.0
C887 C 0.10761 0.72803 0.71603 0.0
C888 C 0.1291 0.69009 0.7187 0.0
C889 C 0.0969 0.66293 0.71712 0.0
C890 C 0.07 0.6684 0.71581 0.0
C891 C 0.07529 0.70065 0.71513 0.0
C892 C 0.09147 0.62886 0.71588 0.0
C893 C 0.07291 0.60625 0.73451 0.0
C894 C 0.10561 0.6191 0.69689 0.0
C895 C 0.12423 0.64146 0.67611 0.0
C896 C 0.10956 0.65534 0.66122 0.0
C897 C 0.12737 0.67666 0.64184 0.0
C898 C 0.15981 0.6841 0.63705 0.0
C899 C 0.17447 0.67016 0.65159 0.0
C900 C 0.15677 0.64885 0.67101 0.0
C901 C 0.04514 0.47105 0.71464 0.0
C902 C 0.07324 0.4679 0.71091 0.0
C903 C 0.04826 0.50242 0.71643 0.0
C904 C 0.07961 0.53108 0.71513 0.0
C905 C 0.10769 0.52776 0.71189 0.0
C906 C 0.10453 0.49651 0.70967 0.0
C907 C 0.08332 0.56461 0.71614 0.0
C908 C 0.10143 0.58719 0.69731 0.0
C909 C 0.06895 0.57434 0.73507 0.0
C910 C 0.05094 0.55238 0.75617 0.0
C911 C 0.06621 0.53919 0.77112 0.0
C912 C 0.04897 0.51827 0.79084 0.0
C913 C 0.01651 0.51057 0.7959 0.0
C914 C 0.00127 0.52385 0.7813 0.0
C915 C 0.01839 0.54475 0.76155 0.0
H916 H 0.0032 0.49437 0.81117 0.0
H917 H 0.17356 0.70061 0.62204 0.0
loop_
_geom_bond_atom_site_label_1
_geom_bond_atom_site_label_2
_geom_bond_distance
_geom_bond_site_symmetry_2
_ccdc_geom_bond_type
C0 C1 1.443 . S
C0 N4 1.376 . S
C0 C38 1.389 . S
C1 C0 1.443 . S
C1 C2 1.340 . S
C1 H41 0.951 . S
C2 C1 1.340 . S
C2 C3 1.439 . S
C2 H42 0.950 . S
C3 C2 1.439 . S
C3 N4 1.374 . S
C3 C37 1.395 . S
N4 C0 1.376 . S
N4 C3 1.374 . S
N4 Co5 2.008 . S
Co5 N4 2.008 . S
Co5 N6 1.995 . S
Co5 N11 2.008 1_554 S
Co5 N16 1.995 . S
Co5 N21 2.282 . S
Co5 N27 2.282 . S
N6 Co5 1.995 . S
N6 C7 1.376 . S
N6 C10 1.383 1_554 S
C7 N6 1.376 . S
C7 C8 1.446 . S
C7 C37 1.391 . S
C8 C7 1.446 . S
C8 C9 1.339 1_554 S
C8 H43 0.949 . S
C9 C8 1.339 1_556 S
C9 C10 1.439 . S
C9 H44 0.950 . S
C10 N6 1.383 1_556 S
C10 C9 1.439 . S
C10 C39 1.392 . S
N11 Co5 2.008 1_556 S
N11 C12 1.376 . S
N11 C15 1.374 . S
C12 N11 1.376 . S
C12 C13 1.443 . S
C12 C39 1.389 . S
C13 C12 1.443 . S
C13 C14 1.340 . S
C13 H45 0.951 . S
C14 C13 1.340 . S
C14 C15 1.439 . S
C14 H46 0.950 . S
C15 N11 1.374 . S
C15 C14 1.439 . S
C15 C40 1.395 . S
N16 Co5 1.995 . S
N16 C17 1.376 . S
N16 C20 1.383 . S
C17 N16 1.376 . S
C17 C18 1.446 . S
C17 C40 1.391 1_554 S
C18 C17 1.446 . S
C18 C19 1.339 . S
C18 H47 0.949 . S
C19 C18 1.339 . S
C19 C20 1.439 . S
C19 H48 0.950 . S
C20 N16 1.383 . S
C20 C19 1.439 . S
C20 C38 1.392 . S
N21 Co5 2.282 . S
N21 C24 1.332 . S
N21 C26 1.332 . S
C22 C23 1.386 . S
C22 C25 1.388 . S
C23 C22 1.386 . S
C23 C24 1.382 . S
C23 H49 0.950 . S
C24 N21 1.332 . S
C24 C23 1.382 . S
C24 H35 0.952 . S
C25 C22 1.388 . S
C25 C26 1.382 . S
C25 H50 0.950 . S
C26 N21 1.332 . S
C26 C25 1.382 . S
C26 H36 0.948 . S
N27 Co5 2.282 . S
N27 C31 1.332 . S
N27 C32 1.332 . S
C28 C29 1.388 . S
C28 C32 1.382 . S
C28 H51 0.950 . S
C29 C28 1.388 . S
C29 C30 1.386 . S
C30 C29 1.386 . S
C30 C31 1.382 . S
C30 H52 0.950 . S
C31 N27 1.332 . S
C31 C30 1.382 . S
C31 H33 0.952 . S
C32 N27 1.332 . S
C32 C28 1.382 . S
C32 H34 0.948 . S
H33 C31 0.952 . S
H34 C32 0.948 . S
H35 C24 0.952 . S
H36 C26 0.948 . S
C37 C3 1.395 . S
C37 C7 1.391 . S
C38 C0 1.389 . S
C38 C20 1.392 . S
C39 C10 1.392 . S
C39 C12 1.389 . S
C40 C15 1.395 . S
C40 C17 1.391 1_556 S
H41 C1 0.951 . S
H42 C2 0.950 . S
H43 C8 0.949 . S
H44 C9 0.950 . S
H45 C13 0.951 . S
H46 C14 0.950 . S
H47 C18 0.949 . S
H48 C19 0.950 . S
H49 C23 0.950 . S
H50 C25 0.950 . S
H51 C28 0.950 . S
H52 C30 0.950 . S
C53 C54 1.443 . S
C53 N57 1.376 . S
C53 C91 1.389 . S
C54 C53 1.443 . S
C54 C55 1.340 . S
C54 H94 0.951 . S
C55 C54 1.340 . S
C55 C56 1.439 . S
C55 H95 0.950 . S
C56 C55 1.439 . S
C56 N57 1.374 . S
C56 C90 1.395 . S
N57 C53 1.376 . S
N57 C56 1.374 . S
N57 Co58 2.008 . S
Co58 N57 2.008 . S
Co58 N59 1.995 . S
Co58 N64 2.008 . S
Co58 N69 1.995 . S
Co58 N74 2.282 . S
Co58 N80 2.282 . S
N59 Co58 1.995 . S
N59 C60 1.376 . S
N59 C63 1.383 . S
C60 N59 1.376 . S
C60 C61 1.446 . S
C60 C90 1.391 . S
C61 C60 1.446 . S
C61 C62 1.339 . S
C61 H96 0.949 . S
C62 C61 1.339 . S
C62 C63 1.439 . S
C62 H97 0.950 . S
C63 N59 1.383 . S
C63 C62 1.439 . S
C63 C92 1.392 . S
N64 Co58 2.008 . S
N64 C65 1.376 . S
N64 C68 1.374 . S
C65 N64 1.376 . S
C65 C66 1.443 . S
C65 C92 1.389 . S
C66 C65 1.443 . S
C66 C67 1.340 . S
C66 H98 0.951 . S
C67 C66 1.340 . S
C67 C68 1.439 . S
C67 H99 0.950 . S
C68 N64 1.374 . S
C68 C67 1.439 . S
C68 C93 1.395 . S
N69 Co58 1.995 . S
N69 C70 1.376 . S
N69 C73 1.383 . S
C70 N69 1.376 . S
C70 C71 1.446 . S
C70 C93 1.391 . S
C71 C70 1.446 . S
C71 C72 1.339 . S
C71 H100 0.949 . S
C72 C71 1.339 . S
C72 C73 1.439 . S
C72 H101 0.950 . S
C73 N69 1.383 . S
C73 C72 1.439 . S
C73 C91 1.392 . S
N74 Co58 2.282 . S
N74 C77 1.332 . S
N74 C79 1.332 . S
C75 C76 1.386 . S
C75 C78 1.388 . S
C76 C75 1.386 . S
C76 C77 1.382 . S
C76 H102 0.950 . S
C77 N74 1.332 . S
C77 C76 1.382 . S
C77 H88 0.952 . S
C78 C75 1.388 . S
C78 C79 1.382 . S
C78 H103 0.950 . S
C79 N74 1.332 . S
C79 C78 1.382 . S
C79 H89 0.948 . S
N80 Co58 2.282 . S
N80 C84 1.332 . S
N80 C85 1.332 . S
C81 C82 1.388 . S
C81 C85 1.382 . S
C81 H104 0.950 . S
C82 C81 1.388 . S
C82 C83 1.386 . S
C83 C82 1.386 . S
C83 C84 1.382 . S
C83 H105 0.950 . S
C84 N80 1.332 . S
C84 C83 1.382 . S
C84 H86 0.952 . S
C85 N80 1.332 . S
C85 C81 1.382 . S
C85 H87 0.948 . S
H86 C84 0.952 . S
H87 C85 0.948 . S
H88 C77 0.952 . S
H89 C79 0.948 . S
C90 C56 1.395 . S
C90 C60 1.391 . S
C91 C53 1.389 . S
C91 C73 1.392 . S
C92 C63 1.392 . S
C92 C65 1.389 . S
C93 C68 1.395 . S
C93 C70 1.391 . S
H94 C54 0.951 . S
H95 C55 0.950 . S
H96 C61 0.949 . S
H97 C62 0.950 . S
H98 C66 0.951 . S
H99 C67 0.950 . S
H100 C71 0.949 . S
H101 C72 0.950 . S
H102 C76 0.950 . S
H103 C78 0.950 . S
H104 C81 0.950 . S
H105 C83 0.950 . S
C106 C107 1.443 . S
C106 N110 1.376 . S
C106 C144 1.389 1_455 S
C107 C106 1.443 . S
C107 C108 1.340 . S
C107 H147 0.951 . S
C108 C107 1.340 . S
C108 C109 1.439 . S
C108 H148 0.950 . S
C109 C108 1.439 . S
C109 N110 1.374 . S
C109 C143 1.395 . S
N110 C106 1.376 . S
N110 C109 1.374 . S
N110 Co111 2.008 . S
Co111 N110 2.008 . S
Co111 N112 1.995 . S
Co111 N117 2.008 . S
Co111 N122 1.995 1_455 S
Co111 N127 2.282 . S
Co111 N133 2.282 . S
N112 Co111 1.995 . S
N112 C113 1.376 . S
N112 C116 1.383 . S
C113 N112 1.376 . S
C113 C114 1.446 . S
C113 C143 1.391 . S
C114 C113 1.446 . S
C114 C115 1.339 . S
C114 H149 0.949 . S
C115 C114 1.339 . S
C115 C116 1.439 . S
C115 H150 0.950 . S
C116 N112 1.383 . S
C116 C115 1.439 . S
C116 C145 1.392 . S
N117 Co111 2.008 . S
N117 C118 1.376 . S
N117 C121 1.374 1_455 S
C118 N117 1.376 . S
C118 C119 1.443 . S
C118 C145 1.389 . S
C119 C118 1.443 . S
C119 C120 1.340 1_455 S
C119 H151 0.951 . S
C120 C119 1.340 1_655 S
C120 C121 1.439 . S
C120 H152 0.950 . S
C121 N117 1.374 1_655 S
C121 C120 1.439 . S
C121 C146 1.395 . S
N122 Co111 1.995 1_655 S
N122 C123 1.376 . S
N122 C126 1.383 . S
C123 N122 1.376 . S
C123 C124 1.446 . S
C123 C146 1.391 . S
C124 C123 1.446 . S
C124 C125 1.339 . S
C124 H153 0.949 . S
C125 C124 1.339 . S
C125 C126 1.439 . S
C125 H154 0.950 . S
C126 N122 1.383 . S
C126 C125 1.439 . S
C126 C144 1.392 . S
N127 Co111 2.282 . S
N127 C130 1.332 1_455 S
N127 C132 1.332 . S
C128 C129 1.386 1_455 S
C128 C131 1.388 . S
C129 C128 1.386 1_655 S
C129 C130 1.382 . S
C129 H155 0.950 . S
C130 N127 1.332 1_655 S
C130 C129 1.382 . S
C130 H141 0.952 . S
C131 C128 1.388 . S
C131 C132 1.382 . S
C131 H156 0.950 . S
C132 N127 1.332 . S
C132 C131 1.382 . S
C132 H142 0.948 . S
N133 Co111 2.282 . S
N133 C137 1.332 . S
N133 C138 1.332 1_455 S
C134 C135 1.388 1_655 S
C134 C138 1.382 . S
C134 H157 0.950 . S
C135 C134 1.388 1_455 S
C135 C136 1.386 . S
C136 C135 1.386 . S
C136 C137 1.382 . S
C136 H158 0.950 . S
C137 N133 1.332 . S
C137 C136 1.382 . S
C137 H139 0.952 . S
C138 N133 1.332 1_655 S
C138 C134 1.382 . S
C138 H140 0.948 . S
H139 C137 0.952 . S
H140 C138 0.948 . S
H141 C130 0.952 . S
H142 C132 0.948 . S
C143 C109 1.395 . S
C143 C113 1.391 . S
C144 C106 1.389 1_655 S
C144 C126 1.392 . S
C145 C116 1.392 . S
C145 C118 1.389 . S
C146 C121 1.395 . S
C146 C123 1.391 . S
H147 C107 0.951 . S
H148 C108 0.950 . S
H149 C114 0.949 . S
H150 C115 0.950 . S
H151 C119 0.951 . S
H152 C120 0.950 . S
H153 C124 0.949 . S
H154 C125 0.950 . S
H155 C129 0.950 . S
H156 C131 0.950 . S
H157 C134 0.950 . S
H158 C136 0.950 . S
C159 C160 1.443 . S
C159 N163 1.376 . S
C159 C197 1.389 1_545 S
C160 C159 1.443 . S
C160 C161 1.340 . S
C160 H200 0.951 . S
C161 C160 1.340 . S
C161 C162 1.439 . S
C161 H201 0.950 . S
C162 C161 1.439 . S
C162 N163 1.374 . S
C162 C196 1.395 . S
N163 C159 1.376 . S
N163 C162 1.374 . S
N163 Co164 2.008 . S
Co164 N163 2.008 . S
Co164 N165 1.995 . S
Co164 N170 2.008 1_554 S
Co164 N175 1.995 1_545 S
Co164 N180 2.282 . S
Co164 N186 2.282 . S
N165 Co164 1.995 . S
N165 C166 1.376 . S
N165 C169 1.383 1_554 S
C166 N165 1.376 . S
C166 C167 1.446 . S
C166 C196 1.391 . S
C167 C166 1.446 . S
C167 C168 1.339 1_554 S
C167 H202 0.949 . S
C168 C167 1.339 1_556 S
C168 C169 1.439 . S
C168 H203 0.950 . S
C169 N165 1.383 1_556 S
C169 C168 1.439 . S
C169 C198 1.392 . S
N170 Co164 2.008 1_556 S
N170 C171 1.376 . S
N170 C174 1.374 1_545 S
C171 N170 1.376 . S
C171 C172 1.443 . S
C171 C198 1.389 . S
C172 C171 1.443 . S
C172 C173 1.340 1_545 S
C172 H204 0.951 . S
C173 C172 1.340 1_565 S
C173 C174 1.439 . S
C173 H205 0.950 . S
C174 N170 1.374 1_565 S
C174 C173 1.439 . S
C174 C199 1.395 . S
N175 Co164 1.995 1_565 S
N175 C176 1.376 . S
N175 C179 1.383 . S
C176 N175 1.376 . S
C176 C177 1.446 . S
C176 C199 1.391 1_554 S
C177 C176 1.446 . S
C177 C178 1.339 . S
C177 H206 0.949 . S
C178 C177 1.339 . S
C178 C179 1.439 . S
C178 H207 0.950 . S
C179 N175 1.383 . S
C179 C178 1.439 . S
C179 C197 1.392 . S
N180 Co164 2.282 . S
N180 C183 1.332 1_545 S
N180 C185 1.332 . S
C181 C182 1.386 1_545 S
C181 C184 1.388 . S
C182 C181 1.386 1_565 S
C182 C183 1.382 . S
C182 H208 0.950 . S
C183 N180 1.332 1_565 S
C183 C182 1.382 . S
C183 H194 0.952 . S
C184 C181 1.388 . S
C184 C185 1.382 . S
C184 H209 0.950 . S
C185 N180 1.332 . S
C185 C184 1.382 . S
C185 H195 0.948 . S
N186 Co164 2.282 . S
N186 C190 1.332 . S
N186 C191 1.332 1_545 S
C187 C188 1.388 1_565 S
C187 C191 1.382 . S
C187 H210 0.950 . S
C188 C187 1.388 1_545 S
C188 C189 1.386 . S
C189 C188 1.386 . S
C189 C190 1.382 . S
C189 H211 0.950 . S
C190 N186 1.332 . S
C190 C189 1.382 . S
C190 H192 0.952 . S
C191 N186 1.332 1_565 S
C191 C187 1.382 . S
C191 H193 0.948 . S
H192 C190 0.952 . S
H193 C191 0.948 . S
H194 C183 0.952 . S
H195 C185 0.948 . S
C196 C162 1.395 . S
C196 C166 1.391 . S
C197 C159 1.389 1_565 S
C197 C179 1.392 . S
C198 C169 1.392 . S
C198 C171 1.389 . S
C199 C174 1.395 . S
C199 C176 1.391 1_556 S
H200 C160 0.951 . S
H201 C161 0.950 . S
H202 C167 0.949 . S
H203 C168 0.950 . S
H204 C172 0.951 . S
H205 C173 0.950 . S
H206 C177 0.949 . S
H207 C178 0.950 . S
H208 C182 0.950 . S
H209 C184 0.950 . S
H210 C187 0.950 . S
H211 C189 0.950 . S
C212 C213 1.443 . S
C212 N216 1.376 . S
C212 C250 1.389 . S
C213 C212 1.443 . S
C213 C214 1.340 . S
C213 H253 0.951 . S
C214 C213 1.340 . S
C214 C215 1.439 . S
C214 H254 0.950 . S
C215 C214 1.439 . S
C215 N216 1.374 . S
C215 C249 1.395 . S
N216 C212 1.376 . S
N216 C215 1.374 . S
N216 Co217 2.008 . S
Co217 N216 2.008 . S
Co217 N218 1.995 . S
Co217 N223 2.008 . S
Co217 N228 1.995 . S
Co217 N233 2.282 . S
Co217 N239 2.282 . S
N218 Co217 1.995 . S
N218 C219 1.376 . S
N218 C222 1.383 . S
C219 N218 1.376 . S
C219 C220 1.446 . S
C219 C249 1.391 . S
C220 C219 1.446 . S
C220 C221 1.339 . S
C220 H255 0.949 . S
C221 C220 1.339 . S
C221 C222 1.439 . S
C221 H256 0.950 . S
C222 N218 1.383 . S
C222 C221 1.439 . S
C222 C251 1.392 . S
N223 Co217 2.008 . S
N223 C224 1.376 . S
N223 C227 1.374 . S
C224 N223 1.376 . S
C224 C225 1.443 . S
C224 C251 1.389 . S
C225 C224 1.443 . S
C225 C226 1.340 . S
C225 H257 0.951 . S
C226 C225 1.340 . S
C226 C227 1.439 . S
C226 H258 0.950 . S
C227 N223 1.374 . S
C227 C226 1.439 . S
C227 C252 1.395 . S
N228 Co217 1.995 . S
N228 C229 1.376 . S
N228 C232 1.383 . S
C229 N228 1.376 . S
C229 C230 1.446 . S
C229 C252 1.391 . S
C230 C229 1.446 . S
C230 C231 1.339 . S
C230 H259 0.949 . S
C231 C230 1.339 . S
C231 C232 1.439 . S
C231 H260 0.950 . S
C232 N228 1.383 . S
C232 C231 1.439 . S
C232 C250 1.392 . S
N233 Co217 2.282 . S
N233 C236 1.332 . S
N233 C238 1.332 . S
C234 C235 1.386 . S
C234 C237 1.388 . S
C235 C234 1.386 . S
C235 C236 1.382 . S
C235 H261 0.950 . S
C236 N233 1.332 . S
C236 C235 1.382 . S
C236 H247 0.952 . S
C237 C234 1.388 . S
C237 C238 1.382 . S
C237 H262 0.950 . S
C238 N233 1.332 . S
C238 C237 1.382 . S
C238 H248 0.948 . S
N239 Co217 2.282 . S
N239 C243 1.332 . S
N239 C244 1.332 . S
C240 C241 1.388 . S
C240 C244 1.382 1_455 S
C240 H263 0.950 . S
C241 C240 1.388 . S
C241 C242 1.386 1_455 S
C242 C241 1.386 1_655 S
C242 C243 1.382 . S
C242 H264 0.950 . S
C243 N239 1.332 . S
C243 C242 1.382 . S
C243 H245 0.952 . S
C244 N239 1.332 . S
C244 C240 1.382 1_655 S
C244 H246 0.948 . S
H245 C243 0.952 . S
H246 C244 0.948 . S
H247 C236 0.952 . S
H248 C238 0.948 . S
C249 C215 1.395 . S
C249 C219 1.391 . S
C250 C212 1.389 . S
C250 C232 1.392 . S
C251 C222 1.392 . S
C251 C224 1.389 . S
C252 C227 1.395 . S
C252 C229 1.391 . S
H253 C213 0.951 . S
H254 C214 0.950 . S
H255 C220 0.949 . S
H256 C221 0.950 . S
H257 C225 0.951 . S
H258 C226 0.950 . S
H259 C230 0.949 . S
H260 C231 0.950 . S
H261 C235 0.950 . S
H262 C237 0.950 . S
H263 C240 0.950 . S
H264 C242 0.950 . S
C265 C266 1.443 . S
C265 N269 1.376 . S
C265 C303 1.389 . S
C266 C265 1.443 . S
C266 C267 1.340 . S
C266 H306 0.951 . S
C267 C266 1.340 . S
C267 C268 1.439 . S
C267 H307 0.950 . S
C268 C267 1.439 . S
C268 N269 1.374 . S
C268 C302 1.395 . S
N269 C265 1.376 . S
N269 C268 1.374 . S
N269 Co270 2.008 . S
Co270 N269 2.008 . S
Co270 N271 1.995 . S
Co270 N276 2.008 . S
Co270 N281 1.995 . S
Co270 N286 2.282 . S
Co270 N292 2.282 . S
N271 Co270 1.995 . S
N271 C272 1.376 . S
N271 C275 1.383 . S
C272 N271 1.376 . S
C272 C273 1.446 . S
C272 C302 1.391 . S
C273 C272 1.446 . S
C273 C274 1.339 . S
C273 H308 0.949 . S
C274 C273 1.339 . S
C274 C275 1.439 . S
C274 H309 0.950 . S
C275 N271 1.383 . S
C275 C274 1.439 . S
C275 C304 1.392 . S
N276 Co270 2.008 . S
N276 C277 1.376 . S
N276 C280 1.374 . S
C277 N276 1.376 . S
C277 C278 1.443 . S
C277 C304 1.389 . S
C278 C277 1.443 . S
C278 C279 1.340 . S
C278 H310 0.951 . S
C279 C278 1.340 . S
C279 C280 1.439 . S
C279 H311 0.950 . S
C280 N276 1.374 . S
C280 C279 1.439 . S
C280 C305 1.395 . S
N281 Co270 1.995 . S
N281 C282 1.376 . S
N281 C285 1.383 . S
C282 N281 1.376 . S
C282 C283 1.446 . S
C282 C305 1.391 . S
C283 C282 1.446 . S
C283 C284 1.339 . S
C283 H312 0.949 . S
C284 C283 1.339 . S
C284 C285 1.439 . S
C284 H313 0.950 . S
C285 N281 1.383 . S
C285 C284 1.439 . S
C285 C303 1.392 . S
N286 Co270 2.282 . S
N286 C289 1.332 . S
N286 C291 1.332 . S
C287 C288 1.386 . S
C287 C290 1.388 . S
C288 C287 1.386 . S
C288 C289 1.382 . S
C288 H314 0.950 . S
C289 N286 1.332 . S
C289 C288 1.382 . S
C289 H300 0.952 . S
C290 C287 1.388 . S
C290 C291 1.382 . S
C290 H315 0.950 . S
C291 N286 1.332 . S
C291 C290 1.382 . S
C291 H301 0.948 . S
N292 Co270 2.282 . S
N292 C296 1.332 . S
N292 C297 1.332 . S
C293 C294 1.388 . S
C293 C297 1.382 1_545 S
C293 H316 0.950 . S
C294 C293 1.388 . S
C294 C295 1.386 1_545 S
C295 C294 1.386 1_565 S
C295 C296 1.382 . S
C295 H317 0.950 . S
C296 N292 1.332 . S
C296 C295 1.382 . S
C296 H298 0.952 . S
C297 N292 1.332 . S
C297 C293 1.382 1_565 S
C297 H299 0.948 . S
H298 C296 0.952 . S
H299 C297 0.948 . S
H300 C289 0.952 . S
H301 C291 0.948 . S
C302 C268 1.395 . S
C302 C272 1.391 . S
C303 C265 1.389 . S
C303 C285 1.392 . S
C304 C275 1.392 . S
C304 C277 1.389 . S
C305 C280 1.395 . S
C305 C282 1.391 . S
H306 C266 0.951 . S
H307 C267 0.950 . S
H308 C273 0.949 . S
H309 C274 0.950 . S
H310 C278 0.951 . S
H311 C279 0.950 . S
H312 C283 0.949 . S
H313 C284 0.950 . S
H314 C288 0.950 . S
H315 C290 0.950 . S
H316 C293 0.950 . S
H317 C295 0.950 . S
H318 C336 0.951 . S
H319 C338 0.951 . S
H320 C340 0.950 . S
H321 C341 0.950 . S
H322 C343 0.950 . S
H323 C346 0.950 . S
H324 C347 0.950 . S
H325 C349 0.950 . S
H326 C350 0.950 . S
H327 C351 0.951 . S
H328 C353 0.951 . S
H329 C355 0.950 . S
H330 C356 0.950 . S
H331 C358 0.950 . S
H332 C361 0.950 . S
H333 C362 0.950 . S
H334 C364 0.950 . S
H335 C365 0.950 . S
C336 H318 0.951 . S
C336 C337 1.366 . S
C336 C338 1.388 . S
C337 C336 1.366 . S
C337 C341 1.385 . S
C338 H319 0.951 . S
C338 C336 1.388 . S
C338 C339 1.366 . S
C339 C338 1.366 . S
C339 C340 1.414 . S
C339 C342 1.499 . S
C340 H320 0.950 . S
C340 C339 1.414 . S
C340 C341 1.374 . S
C341 H321 0.950 . S
C341 C337 1.385 . S
C341 C340 1.374 . S
C342 C339 1.499 . S
C342 C343 1.373 . S
C342 C344 1.389 . S
C343 H322 0.950 . S
C343 C342 1.373 . S
C343 C359 1.377 . S
C344 C342 1.389 . S
C344 C345 1.524 . S
C344 C358 1.377 . S
C345 C344 1.524 . S
C345 C346 1.397 . S
C345 C350 1.363 . S
C346 H323 0.950 . S
C346 C345 1.397 . S
C346 C347 1.334 . S
C347 H324 0.950 . S
C347 C346 1.334 . S
C347 C348 1.287 . S
C348 C347 1.287 . S
C348 C349 1.524 . S
C348 H367 0.913 . S
C349 H325 0.950 . S
C349 C348 1.524 . S
C349 C350 1.415 . S
C350 H326 0.950 . S
C350 C345 1.363 . S
C350 C349 1.415 . S
C351 H327 0.951 . S
C351 C352 1.366 . S
C351 C353 1.388 . S
C352 C351 1.366 . S
C352 C356 1.385 . S
C353 H328 0.951 . S
C353 C351 1.388 . S
C353 C354 1.366 . S
C354 C353 1.366 . S
C354 C355 1.414 . S
C354 C357 1.499 . S
C355 H329 0.950 . S
C355 C354 1.414 . S
C355 C356 1.374 . S
C356 H330 0.950 . S
C356 C352 1.385 . S
C356 C355 1.374 . S
C357 C354 1.499 . S
C357 C358 1.373 . S
C357 C359 1.389 . S
C358 H331 0.950 . S
C358 C344 1.377 . S
C358 C357 1.373 . S
C359 C343 1.377 . S
C359 C357 1.389 . S
C359 C360 1.524 . S
C360 C359 1.524 . S
C360 C361 1.397 . S
C360 C365 1.363 . S
C361 H332 0.950 . S
C361 C360 1.397 . S
C361 C362 1.334 . S
C362 H333 0.950 . S
C362 C361 1.334 . S
C362 C363 1.287 . S
C363 C362 1.287 . S
C363 C364 1.524 . S
C363 H366 0.999 . S
C364 H334 0.950 . S
C364 C363 1.524 . S
C364 C365 1.415 . S
C365 H335 0.950 . S
C365 C360 1.363 . S
C365 C364 1.415 . S
H366 C363 0.999 . S
H367 C348 0.913 . S
H368 C386 0.951 . S
H369 C388 0.951 . S
H370 C390 0.950 . S
H371 C391 0.950 . S
H372 C393 0.950 . S
H373 C396 0.950 . S
H374 C397 0.950 . S
H375 C399 0.950 . S
H376 C400 0.950 . S
H377 C401 0.951 . S
H378 C403 0.951 . S
H379 C405 0.950 . S
H380 C406 0.950 . S
H381 C408 0.950 . S
H382 C411 0.950 . S
H383 C412 0.950 . S
H384 C414 0.950 . S
H385 C415 0.950 . S
C386 H368 0.951 . S
C386 C387 1.366 . S
C386 C388 1.388 . S
C387 C386 1.366 . S
C387 C391 1.385 . S
C388 H369 0.951 . S
C388 C386 1.388 . S
C388 C389 1.366 . S
C389 C388 1.366 . S
C389 C390 1.414 . S
C389 C392 1.499 . S
C390 H370 0.950 . S
C390 C389 1.414 . S
C390 C391 1.374 . S
C391 H371 0.950 . S
C391 C387 1.385 . S
C391 C390 1.374 . S
C392 C389 1.499 . S
C392 C393 1.373 . S
C392 C394 1.389 . S
C393 H372 0.950 . S
C393 C392 1.373 . S
C393 C409 1.377 . S
C394 C392 1.389 . S
C394 C395 1.524 . S
C394 C408 1.377 . S
C395 C394 1.524 . S
C395 C396 1.397 . S
C395 C400 1.363 . S
C396 H373 0.950 . S
C396 C395 1.397 . S
C396 C397 1.334 . S
C397 H374 0.950 . S
C397 C396 1.334 . S
C397 C398 1.287 . S
C398 C397 1.287 . S
C398 C399 1.524 . S
C398 H417 0.913 . S
C399 H375 0.950 . S
C399 C398 1.524 . S
C399 C400 1.415 . S
C400 H376 0.950 . S
C400 C395 1.363 . S
C400 C399 1.415 . S
C401 H377 0.951 . S
C401 C402 1.366 . S
C401 C403 1.388 . S
C402 C401 1.366 . S
C402 C406 1.385 . S
C403 H378 0.951 . S
C403 C401 1.388 . S
C403 C404 1.366 . S
C404 C403 1.366 . S
C404 C405 1.414 . S
C404 C407 1.499 . S
C405 H379 0.950 . S
C405 C404 1.414 . S
C405 C406 1.374 . S
C406 H380 0.950 . S
C406 C402 1.385 . S
C406 C405 1.374 . S
C407 C404 1.499 . S
C407 C408 1.373 . S
C407 C409 1.389 . S
C408 H381 0.950 . S
C408 C394 1.377 . S
C408 C407 1.373 . S
C409 C393 1.377 . S
C409 C407 1.389 . S
C409 C410 1.524 . S
C410 C409 1.524 . S
C410 C411 1.397 . S
C410 C415 1.363 . S
C411 H382 0.950 . S
C411 C410 1.397 . S
C411 C412 1.334 . S
C412 H383 0.950 . S
C412 C411 1.334 . S
C412 C413 1.287 . S
C413 C412 1.287 . S
C413 C414 1.524 . S
C413 H416 0.999 . S
C414 H384 0.950 . S
C414 C413 1.524 . S
C414 C415 1.415 . S
C415 H385 0.950 . S
C415 C410 1.363 . S
C415 C414 1.415 . S
H416 C413 0.999 . S
H417 C398 0.913 . S
H418 C436 0.951 . S
H419 C438 0.951 . S
H420 C440 0.950 . S
H421 C441 0.950 . S
H422 C443 0.950 . S
H423 C446 0.950 . S
H424 C447 0.950 . S
H425 C449 0.950 . S
H426 C450 0.950 . S
H427 C451 0.951 . S
H428 C453 0.951 . S
H429 C455 0.950 . S
H430 C456 0.950 1_455 S
H431 C458 0.950 . S
H432 C461 0.950 . S
H433 C462 0.950 . S
H434 C464 0.950 . S
H435 C465 0.950 . S
C436 H418 0.951 . S
C436 C437 1.366 . S
C436 C438 1.388 . S
C437 C436 1.366 . S
C437 C441 1.385 . S
C438 H419 0.951 . S
C438 C436 1.388 . S
C438 C439 1.366 . S
C439 C438 1.366 . S
C439 C440 1.414 . S
C439 C442 1.499 . S
C440 H420 0.950 . S
C440 C439 1.414 . S
C440 C441 1.374 . S
C441 H421 0.950 . S
C441 C437 1.385 . S
C441 C440 1.374 . S
C442 C439 1.499 . S
C442 C443 1.373 . S
C442 C444 1.389 . S
C443 H422 0.950 . S
C443 C442 1.373 . S
C443 C459 1.377 . S
C444 C442 1.389 . S
C444 C445 1.524 . S
C444 C458 1.377 . S
C445 C444 1.524 . S
C445 C446 1.397 . S
C445 C450 1.363 . S
C446 H423 0.950 . S
C446 C445 1.397 . S
C446 C447 1.334 . S
C447 H424 0.950 . S
C447 C446 1.334 . S
C447 C448 1.287 . S
C448 C447 1.287 . S
C448 C449 1.524 . S
C448 H467 0.913 . S
C449 H425 0.950 . S
C449 C448 1.524 . S
C449 C450 1.415 . S
C450 H426 0.950 . S
C450 C445 1.363 . S
C450 C449 1.415 . S
C451 H427 0.951 . S
C451 C452 1.366 . S
C451 C453 1.388 . S
C452 C451 1.366 . S
C452 C456 1.385 . S
C453 H428 0.951 . S
C453 C451 1.388 . S
C453 C454 1.366 . S
C454 C453 1.366 . S
C454 C455 1.414 . S
C454 C457 1.499 . S
C455 H429 0.950 . S
C455 C454 1.414 . S
C455 C456 1.374 . S
C456 H430 0.950 1_655 S
C456 C452 1.385 . S
C456 C455 1.374 . S
C457 C454 1.499 . S
C457 C458 1.373 . S
C457 C459 1.389 . S
C458 H431 0.950 . S
C458 C444 1.377 . S
C458 C457 1.373 . S
C459 C443 1.377 . S
C459 C457 1.389 . S
C459 C460 1.524 . S
C460 C459 1.524 . S
C460 C461 1.397 . S
C460 C465 1.363 . S
C461 H432 0.950 . S
C461 C460 1.397 . S
C461 C462 1.334 . S
C462 H433 0.950 . S
C462 C461 1.334 . S
C462 C463 1.287 . S
C463 C462 1.287 . S
C463 C464 1.524 . S
C463 H466 0.999 . S
C464 H434 0.950 . S
C464 C463 1.524 . S
C464 C465 1.415 . S
C465 H435 0.950 . S
C465 C460 1.363 . S
C465 C464 1.415 . S
H466 C463 0.999 . S
H467 C448 0.913 . S
H468 C486 0.951 . S
H469 C488 0.951 . S
H470 C490 0.950 . S
H471 C491 0.950 . S
H472 C493 0.950 . S
H473 C496 0.950 . S
H474 C497 0.950 . S
H475 C499 0.950 . S
H476 C500 0.950 . S
H477 C501 0.951 . S
H478 C503 0.951 . S
H479 C505 0.950 . S
H480 C506 0.950 . S
H481 C508 0.950 . S
H482 C511 0.950 . S
H483 C512 0.950 . S
H484 C514 0.950 . S
H485 C515 0.950 . S
C486 H468 0.951 . S
C486 C487 1.366 . S
C486 C488 1.388 . S
C487 C486 1.366 . S
C487 C491 1.385 . S
C488 H469 0.951 . S
C488 C486 1.388 . S
C488 C489 1.366 . S
C489 C488 1.366 . S
C489 C490 1.414 . S
C489 C492 1.499 . S
C490 H470 0.950 . S
C490 C489 1.414 . S
C490 C491 1.374 . S
C491 H471 0.950 . S
C491 C487 1.385 . S
C491 C490 1.374 . S
C492 C489 1.499 . S
C492 C493 1.373 . S
C492 C494 1.389 . S
C493 H472 0.950 . S
C493 C492 1.373 . S
C493 C509 1.377 . S
C494 C492 1.389 . S
C494 C495 1.524 . S
C494 C508 1.377 . S
C495 C494 1.524 . S
C495 C496 1.397 . S
C495 C500 1.363 . S
C496 H473 0.950 . S
C496 C495 1.397 . S
C496 C497 1.334 . S
C497 H474 0.950 . S
C497 C496 1.334 . S
C497 C498 1.287 . S
C498 C497 1.287 . S
C498 C499 1.524 . S
C498 H517 0.913 . S
C499 H475 0.950 . S
C499 C498 1.524 . S
C499 C500 1.415 . S
C500 H476 0.950 . S
C500 C495 1.363 . S
C500 C499 1.415 . S
C501 H477 0.951 . S
C501 C502 1.366 . S
C501 C503 1.388 . S
C502 C501 1.366 . S
C502 C506 1.385 . S
C503 H478 0.951 . S
C503 C501 1.388 . S
C503 C504 1.366 . S
C504 C503 1.366 . S
C504 C505 1.414 . S
C504 C507 1.499 . S
C505 H479 0.950 . S
C505 C504 1.414 . S
C505 C506 1.374 . S
C506 H480 0.950 . S
C506 C502 1.385 . S
C506 C505 1.374 . S
C507 C504 1.499 . S
C507 C508 1.373 . S
C507 C509 1.389 . S
C508 H481 0.950 . S
C508 C494 1.377 . S
C508 C507 1.373 . S
C509 C493 1.377 . S
C509 C507 1.389 . S
C509 C510 1.524 . S
C510 C509 1.524 . S
C510 C511 1.397 . S
C510 C515 1.363 . S
C511 H482 0.950 . S
C511 C510 1.397 . S
C511 C512 1.334 . S
C512 H483 0.950 . S
C512 C511 1.334 . S
C512 C513 1.287 . S
C513 C512 1.287 . S
C513 C514 1.524 . S
C513 H516 0.999 . S
C514 H484 0.950 . S
C514 C513 1.524 . S
C514 C515 1.415 . S
C515 H485 0.950 . S
C515 C510 1.363 . S
C515 C514 1.415 . S
H516 C513 0.999 . S
H517 C498 0.913 . S
H518 C536 0.951 . S
H519 C538 0.951 . S
H520 C540 0.950 . S
H521 C541 0.950 . S
H522 C543 0.950 . S
H523 C546 0.950 . S
H524 C547 0.950 . S
H525 C549 0.950 . S
H526 C550 0.950 . S
H527 C551 0.951 1_455 S
H528 C553 0.951 . S
H529 C555 0.950 . S
H530 C556 0.950 . S
H531 C558 0.950 1_655 S
H532 C561 0.950 . S
H533 C562 0.950 . S
H534 C564 0.950 . S
H535 C565 0.950 . S
C536 H518 0.951 . S
C536 C537 1.366 . S
C536 C538 1.388 . S
C537 C536 1.366 . S
C537 C541 1.385 . S
C538 H519 0.951 . S
C538 C536 1.388 . S
C538 C539 1.366 . S
C539 C538 1.366 . S
C539 C540 1.414 . S
C539 C542 1.499 . S
C540 H520 0.950 . S
C540 C539 1.414 . S
C540 C541 1.374 . S
C541 H521 0.950 . S
C541 C537 1.385 . S
C541 C540 1.374 . S
C542 C539 1.499 . S
C542 C543 1.373 . S
C542 C544 1.389 . S
C543 H522 0.950 . S
C543 C542 1.373 . S
C543 C559 1.377 . S
C544 C542 1.389 . S
C544 C545 1.524 . S
C544 C558 1.377 . S
C545 C544 1.524 . S
C545 C546 1.397 . S
C545 C550 1.363 1_455 S
C546 H523 0.950 . S
C546 C545 1.397 . S
C546 C547 1.334 . S
C547 H524 0.950 . S
C547 C546 1.334 . S
C547 C548 1.287 . S
C548 C547 1.287 . S
C548 C549 1.524 1_455 S
C548 H567 0.913 . S
C549 H525 0.950 . S
C549 C548 1.524 1_655 S
C549 C550 1.415 . S
C550 H526 0.950 . S
C550 C545 1.363 1_655 S
C550 C549 1.415 . S
C551 H527 0.951 1_655 S
C551 C552 1.366 . S
C551 C553 1.388 1_655 S
C552 C551 1.366 . S
C552 C556 1.385 . S
C553 H528 0.951 . S
C553 C551 1.388 1_455 S
C553 C554 1.366 1_455 S
C554 C553 1.366 1_655 S
C554 C555 1.414 . S
C554 C557 1.499 1_655 S
C555 H529 0.950 . S
C555 C554 1.414 . S
C555 C556 1.374 . S
C556 H530 0.950 . S
C556 C552 1.385 . S
C556 C555 1.374 . S
C557 C554 1.499 1_455 S
C557 C558 1.373 . S
C557 C559 1.389 . S
C558 H531 0.950 1_455 S
C558 C544 1.377 . S
C558 C557 1.373 . S
C559 C543 1.377 . S
C559 C557 1.389 . S
C559 C560 1.524 . S
C560 C559 1.524 . S
C560 C561 1.397 . S
C560 C565 1.363 . S
C561 H532 0.950 . S
C561 C560 1.397 . S
C561 C562 1.334 . S
C562 H533 0.950 . S
C562 C561 1.334 . S
C562 C563 1.287 . S
C563 C562 1.287 . S
C563 C564 1.524 . S
C563 H566 0.999 . S
C564 H534 0.950 . S
C564 C563 1.524 . S
C564 C565 1.415 . S
C565 H535 0.950 . S
C565 C560 1.363 . S
C565 C564 1.415 . S
H566 C563 0.999 . S
H567 C548 0.913 . S
H568 C586 0.951 . S
H569 C588 0.951 . S
H570 C590 0.950 . S
H571 C591 0.950 . S
H572 C593 0.950 . S
H573 C596 0.950 . S
H574 C597 0.950 . S
H575 C599 0.950 . S
H576 C600 0.950 . S
H577 C601 0.951 . S
H578 C603 0.951 . S
H579 C605 0.950 . S
H580 C606 0.950 1_545 S
H581 C608 0.950 . S
H582 C611 0.967 . S
H583 C612 0.950 . S
H584 C614 0.950 . S
H585 C615 0.950 . S
C586 H568 0.951 . S
C586 C587 1.366 . S
C586 C588 1.388 . S
C587 C586 1.366 . S
C587 C591 1.385 . S
C588 H569 0.951 . S
C588 C586 1.388 . S
C588 C589 1.366 . S
C589 C588 1.366 . S
C589 C590 1.414 . S
C589 C592 1.499 . S
C590 H570 0.950 . S
C590 C589 1.414 . S
C590 C591 1.374 . S
C591 H571 0.950 . S
C591 C587 1.385 . S
C591 C590 1.374 . S
C592 C589 1.499 . S
C592 C593 1.373 . S
C592 C594 1.389 . S
C593 H572 0.950 . S
C593 C592 1.373 . S
C593 C609 1.377 . S
C594 C592 1.389 . S
C594 C595 1.524 . S
C594 C608 1.377 . S
C595 C594 1.524 . S
C595 C596 1.397 . S
C595 C600 1.363 . S
C596 H573 0.950 . S
C596 C595 1.397 . S
C596 C597 1.334 . S
C597 H574 0.950 . S
C597 C596 1.334 . S
C597 C598 1.287 . S
C598 C597 1.287 . S
C598 C599 1.524 . S
C598 H617 0.913 . S
C599 H575 0.950 . S
C599 C598 1.524 . S
C599 C600 1.415 . S
C600 H576 0.950 . S
C600 C595 1.363 . S
C600 C599 1.415 . S
C601 H577 0.951 . S
C601 C602 1.366 . S
C601 C603 1.388 . S
C602 C601 1.366 . S
C602 C606 1.385 . S
C603 H578 0.951 . S
C603 C601 1.388 . S
C603 C604 1.366 . S
C604 C603 1.366 . S
C604 C605 1.414 1_565 S
C604 C607 1.499 1_565 S
C605 H579 0.950 . S
C605 C604 1.414 1_545 S
C605 C606 1.374 1_545 S
C606 H580 0.950 1_565 S
C606 C602 1.385 . S
C606 C605 1.374 1_565 S
C607 C604 1.499 1_545 S
C607 C608 1.373 . S
C607 C609 1.389 . S
C608 H581 0.950 . S
C608 C594 1.377 . S
C608 C607 1.373 . S
C609 C593 1.377 . S
C609 C607 1.389 . S
C609 C610 1.524 1_545 S
C610 C609 1.524 1_565 S
C610 C611 1.397 1_565 S
C610 C615 1.363 . S
C611 H582 0.967 . S
C611 C610 1.397 1_545 S
C611 C612 1.317 1_545 S
C612 H583 0.950 . S
C612 C611 1.317 1_565 S
C612 C613 1.287 . S
C613 C612 1.287 . S
C613 C614 1.524 . S
C613 H616 0.999 . S
C614 H584 0.950 . S
C614 C613 1.524 . S
C614 C615 1.415 . S
C615 H585 0.950 . S
C615 C610 1.363 . S
C615 C614 1.415 . S
H616 C613 0.999 . S
H617 C598 0.913 . S
H618 C636 0.951 . S
H619 C638 0.951 . S
H620 C640 0.950 . S
H621 C641 0.950 . S
H622 C643 0.950 1_556 S
H623 C646 0.950 . S
H624 C647 0.950 . S
H625 C649 0.950 . S
H626 C650 0.950 . S
H627 C651 0.951 1_565 S
H628 C653 0.951 . S
H629 C655 0.950 . S
H630 C656 0.950 . S
H631 C658 0.950 . S
H632 C661 0.950 . S
H633 C662 0.950 . S
H634 C664 0.950 . S
H635 C665 0.950 . S
C636 H618 0.951 . S
C636 C637 1.366 . S
C636 C638 1.388 . S
C637 C636 1.366 . S
C637 C641 1.385 . S
C638 H619 0.951 . S
C638 C636 1.388 . S
C638 C639 1.366 . S
C639 C638 1.366 . S
C639 C640 1.414 . S
C639 C642 1.499 . S
C640 H620 0.950 . S
C640 C639 1.414 . S
C640 C641 1.374 . S
C641 H621 0.950 . S
C641 C637 1.385 . S
C641 C640 1.374 . S
C642 C639 1.499 . S
C642 C643 1.373 . S
C642 C644 1.389 . S
C643 H622 0.950 1_554 S
C643 C642 1.373 . S
C643 C659 1.377 . S
C644 C642 1.389 . S
C644 C645 1.524 . S
C644 C658 1.377 . S
C645 C644 1.524 . S
C645 C646 1.397 . S
C645 C650 1.363 . S
C646 H623 0.950 . S
C646 C645 1.397 . S
C646 C647 1.334 . S
C647 H624 0.950 . S
C647 C646 1.334 . S
C647 C648 1.287 . S
C648 C647 1.287 . S
C648 C649 1.524 . S
C648 H667 0.913 . S
C649 H625 0.950 . S
C649 C648 1.524 . S
C649 C650 1.415 . S
C650 H626 0.950 . S
C650 C645 1.363 . S
C650 C649 1.415 . S
C651 H627 0.951 1_545 S
C651 C652 1.366 . S
C651 C653 1.388 1_655 S
C652 C651 1.366 . S
C652 C656 1.385 . S
C653 H628 0.951 . S
C653 C651 1.388 1_455 S
C653 C654 1.366 . S
C654 C653 1.366 . S
C654 C655 1.414 . S
C654 C657 1.499 . S
C655 H629 0.950 . S
C655 C654 1.414 . S
C655 C656 1.374 1_455 S
C656 H630 0.950 . S
C656 C652 1.385 . S
C656 C655 1.374 1_655 S
C657 C654 1.499 . S
C657 C658 1.373 . S
C657 C659 1.389 . S
C658 H631 0.950 . S
C658 C644 1.377 . S
C658 C657 1.373 . S
C659 C643 1.377 . S
C659 C657 1.389 . S
C659 C660 1.524 1_554 S
C660 C659 1.524 1_556 S
C660 C661 1.397 . S
C660 C665 1.363 . S
C661 H632 0.950 . S
C661 C660 1.397 . S
C661 C662 1.334 . S
C662 H633 0.950 . S
C662 C661 1.334 . S
C662 C663 1.287 . S
C663 C662 1.287 . S
C663 C664 1.524 . S
C663 H666 0.999 . S
C664 H634 0.950 . S
C664 C663 1.524 . S
C664 C665 1.415 . S
C665 H635 0.950 . S
C665 C660 1.363 . S
C665 C664 1.415 . S
H666 C663 0.999 . S
H667 C648 0.913 . S
H668 C686 0.951 . S
H669 C688 0.951 . S
H670 C690 0.950 . S
H671 C691 0.950 . S
H672 C693 0.950 . S
H673 C696 0.950 . S
H674 C697 0.950 . S
H675 C699 0.950 . S
H676 C700 0.950 . S
H677 C701 0.951 . S
H678 C703 0.951 . S
H679 C705 0.950 . S
H680 C706 0.950 . S
H681 C708 0.950 . S
H682 C711 0.950 . S
H683 C712 0.950 . S
H684 C714 0.950 1_655 S
H685 C715 0.950 . S
C686 H668 0.951 . S
C686 C687 1.366 . S
C686 C688 1.388 1_565 S
C687 C686 1.366 . S
C687 C691 1.385 . S
C688 H669 0.951 . S
C688 C686 1.388 1_545 S
C688 C689 1.366 . S
C689 C688 1.366 . S
C689 C690 1.414 . S
C689 C692 1.499 . S
C690 H670 0.950 . S
C690 C689 1.414 . S
C690 C691 1.374 1_545 S
C691 H671 0.950 . S
C691 C687 1.385 . S
C691 C690 1.374 1_565 S
C692 C689 1.499 . S
C692 C693 1.373 . S
C692 C694 1.389 . S
C693 H672 0.950 . S
C693 C692 1.373 . S
C693 C709 1.377 . S
C694 C692 1.389 . S
C694 C695 1.524 . S
C694 C708 1.377 . S
C695 C694 1.524 . S
C695 C696 1.397 . S
C695 C700 1.363 . S
C696 H673 0.950 . S
C696 C695 1.397 . S
C696 C697 1.334 . S
C697 H674 0.950 . S
C697 C696 1.334 . S
C697 C698 1.287 . S
C698 C697 1.287 . S
C698 C699 1.524 . S
C698 H717 0.913 . S
C699 H675 0.950 . S
C699 C698 1.524 . S
C699 C700 1.415 . S
C700 H676 0.950 . S
C700 C695 1.363 . S
C700 C699 1.415 . S
C701 H677 0.951 . S
C701 C702 1.366 . S
C701 C703 1.388 . S
C702 C701 1.366 . S
C702 C706 1.385 . S
C703 H678 0.951 . S
C703 C701 1.388 . S
C703 C704 1.366 . S
C704 C703 1.366 . S
C704 C705 1.414 . S
C704 C707 1.499 . S
C705 H679 0.950 . S
C705 C704 1.414 . S
C705 C706 1.374 . S
C706 H680 0.950 . S
C706 C702 1.385 . S
C706 C705 1.374 . S
C707 C704 1.499 . S
C707 C708 1.373 . S
C707 C709 1.389 . S
C708 H681 0.950 . S
C708 C694 1.377 . S
C708 C707 1.373 . S
C709 C693 1.377 . S
C709 C707 1.389 . S
C709 C710 1.524 . S
C710 C709 1.524 . S
C710 C711 1.397 . S
C710 C715 1.363 . S
C711 H682 0.950 . S
C711 C710 1.397 . S
C711 C712 1.334 . S
C712 H683 0.950 . S
C712 C711 1.334 . S
C712 C713 1.287 . S
C713 C712 1.287 . S
C713 C714 1.524 . S
C713 H716 0.999 . S
C714 H684 0.950 1_455 S
C714 C713 1.524 . S
C714 C715 1.415 . S
C715 H685 0.950 . S
C715 C710 1.363 . S
C715 C714 1.415 . S
H716 C713 0.999 . S
H717 C698 0.913 . S
H718 C736 0.951 1_655 S
H719 C738 0.951 . S
H720 C740 0.950 . S
H721 C741 0.950 . S
H722 C743 0.950 . S
H723 C746 0.950 . S
H724 C747 0.950 . S
H725 C749 0.951 . S
H726 C750 0.950 . S
H727 C751 0.951 . S
H728 C753 0.951 . S
H729 C755 0.950 . S
H730 C756 0.950 1_565 S
H731 C758 0.950 . S
H732 C761 0.950 . S
H733 C762 0.950 . S
H734 C764 0.950 . S
H735 C765 0.950 . S
C736 H718 0.951 1_455 S
C736 C737 1.366 . S
C736 C738 1.388 . S
C737 C736 1.366 . S
C737 C741 1.385 . S
C738 H719 0.951 . S
C738 C736 1.388 . S
C738 C739 1.366 . S
C739 C738 1.366 . S
C739 C740 1.414 . S
C739 C742 1.499 . S
C740 H720 0.950 . S
C740 C739 1.414 . S
C740 C741 1.374 . S
C741 H721 0.950 . S
C741 C737 1.385 . S
C741 C740 1.374 . S
C742 C739 1.499 . S
C742 C743 1.373 . S
C742 C744 1.389 . S
C743 H722 0.950 . S
C743 C742 1.373 . S
C743 C759 1.377 . S
C744 C742 1.389 . S
C744 C745 1.524 . S
C744 C758 1.377 . S
C745 C744 1.524 . S
C745 C746 1.397 . S
C745 C750 1.363 . S
C746 H723 0.950 . S
C746 C745 1.397 . S
C746 C747 1.334 . S
C747 H724 0.950 . S
C747 C746 1.334 . S
C747 C748 1.287 . S
C748 C747 1.287 . S
C748 C749 1.524 . S
C748 H767 0.913 . S
C749 H725 0.951 . S
C749 C748 1.524 . S
C749 C750 1.415 . S
C750 H726 0.950 . S
C750 C745 1.363 . S
C750 C749 1.415 . S
C751 H727 0.951 . S
C751 C752 1.366 . S
C751 C753 1.388 . S
C752 C751 1.366 . S
C752 C756 1.385 . S
C753 H728 0.951 . S
C753 C751 1.388 . S
C753 C754 1.366 . S
C754 C753 1.366 . S
C754 C755 1.414 . S
C754 C757 1.499 . S
C755 H729 0.950 . S
C755 C754 1.414 . S
C755 C756 1.374 . S
C756 H730 0.950 1_545 S
C756 C752 1.385 . S
C756 C755 1.374 . S
C757 C754 1.499 . S
C757 C758 1.373 . S
C757 C759 1.389 . S
C758 H731 0.950 . S
C758 C744 1.377 . S
C758 C757 1.373 . S
C759 C743 1.377 . S
C759 C757 1.389 . S
C759 C760 1.524 . S
C760 C759 1.524 . S
C760 C761 1.397 . S
C760 C765 1.363 . S
C761 H732 0.950 . S
C761 C760 1.397 . S
C761 C762 1.334 . S
C762 H733 0.950 . S
C762 C761 1.334 . S
C762 C763 1.287 . S
C763 C762 1.287 . S
C763 C764 1.524 . S
C763 H766 0.999 . S
C764 H734 0.950 . S
C764 C763 1.524 . S
C764 C765 1.415 . S
C765 H735 0.950 . S
C765 C760 1.363 . S
C765 C764 1.415 . S
H766 C763 0.999 . S
H767 C748 0.913 . S
H768 C786 0.951 1_556 S
H769 C788 0.951 1_556 S
H770 C790 0.950 . S
H771 C791 0.950 . S
H772 C793 0.950 . S
H773 C796 0.950 . S
H774 C797 0.950 . S
H775 C799 0.950 . S
H776 C800 0.950 . S
H777 C801 0.951 . S
H778 C803 0.951 . S
H779 C805 0.950 1_556 S
H780 C806 0.950 1_556 S
H781 C808 0.950 . S
H782 C811 0.950 . S
H783 C812 0.950 . S
H784 C814 0.945 1_564 S
H785 C815 0.950 . S
C786 H768 0.951 1_554 S
C786 C787 1.366 . S
C786 C788 1.388 . S
C787 C786 1.366 . S
C787 C791 1.385 . S
C788 H769 0.951 1_554 S
C788 C786 1.388 . S
C788 C789 1.366 . S
C789 C788 1.366 . S
C789 C790 1.414 . S
C789 C792 1.499 . S
C790 H770 0.950 . S
C790 C789 1.414 . S
C790 C791 1.374 . S
C791 H771 0.950 . S
C791 C787 1.385 . S
C791 C790 1.374 . S
C792 C789 1.499 . S
C792 C793 1.373 . S
C792 C794 1.389 . S
C793 H772 0.950 . S
C793 C792 1.373 . S
C793 C809 1.377 . S
C794 C792 1.389 . S
C794 C795 1.524 . S
C794 C808 1.377 . S
C795 C794 1.524 . S
C795 C796 1.397 . S
C795 C800 1.363 . S
C796 H773 0.950 . S
C796 C795 1.397 . S
C796 C797 1.334 . S
C797 H774 0.950 . S
C797 C796 1.334 . S
C797 C798 1.287 . S
C798 C797 1.287 . S
C798 C799 1.524 . S
C798 H817 0.913 . S
C799 H775 0.950 . S
C799 C798 1.524 . S
C799 C800 1.415 . S
C800 H776 0.950 . S
C800 C795 1.363 . S
C800 C799 1.415 . S
C801 H777 0.951 . S
C801 C802 1.366 . S
C801 C803 1.388 . S
C802 C801 1.366 . S
C802 C806 1.385 . S
C803 H778 0.951 . S
C803 C801 1.388 . S
C803 C804 1.366 . S
C804 C803 1.366 . S
C804 C805 1.414 . S
C804 C807 1.499 . S
C805 H779 0.950 1_554 S
C805 C804 1.414 . S
C805 C806 1.374 . S
C806 H780 0.950 1_554 S
C806 C802 1.385 . S
C806 C805 1.374 . S
C807 C804 1.499 . S
C807 C808 1.373 . S
C807 C809 1.389 . S
C808 H781 0.950 . S
C808 C794 1.377 . S
C808 C807 1.373 . S
C809 C793 1.377 . S
C809 C807 1.389 . S
C809 C810 1.524 1_554 S
C810 C809 1.524 1_556 S
C810 C811 1.397 . S
C810 C815 1.363 1_556 S
C811 H782 0.950 . S
C811 C810 1.397 . S
C811 C812 1.334 . S
C812 H783 0.950 . S
C812 C811 1.334 . S
C812 C813 1.287 . S
C813 C812 1.287 . S
C813 C814 1.524 . S
C813 H816 0.999 . S
C814 H784 0.945 1_546 S
C814 C813 1.524 . S
C814 C815 1.415 1_556 S
C815 H785 0.950 . S
C815 C810 1.363 1_554 S
C815 C814 1.415 1_554 S
H816 C813 0.999 . S
H817 C798 0.913 . S
H818 C836 0.951 . S
H819 C838 0.951 . S
H820 C840 0.950 . S
H821 C841 0.950 . S
H822 C843 0.950 . S
H823 C846 0.950 . S
H824 C847 0.950 . S
H825 C849 0.950 . S
H826 C850 0.950 . S
H827 C851 0.951 . S
H828 C853 0.951 . S
H829 C855 0.950 . S
H830 C856 0.950 . S
H831 C858 0.950 . S
H832 C861 0.950 . S
H833 C862 0.950 . S
H834 C864 0.950 . S
H835 C865 0.950 . S
C836 H818 0.951 . S
C836 C837 1.366 . S
C836 C838 1.388 . S
C837 C836 1.366 . S
C837 C841 1.385 . S
C838 H819 0.951 . S
C838 C836 1.388 . S
C838 C839 1.366 . S
C839 C838 1.366 . S
C839 C840 1.414 . S
C839 C842 1.499 . S
C840 H820 0.950 . S
C840 C839 1.414 . S
C840 C841 1.374 . S
C841 H821 0.950 . S
C841 C837 1.385 . S
C841 C840 1.374 . S
C842 C839 1.499 . S
C842 C843 1.373 . S
C842 C844 1.389 . S
C843 H822 0.950 . S
C843 C842 1.373 . S
C843 C859 1.377 . S
C844 C842 1.389 . S
C844 C845 1.524 . S
C844 C858 1.377 . S
C845 C844 1.524 . S
C845 C846 1.397 . S
C845 C850 1.363 . S
C846 H823 0.950 . S
C846 C845 1.397 . S
C846 C847 1.334 . S
C847 H824 0.950 . S
C847 C846 1.334 . S
C847 C848 1.287 . S
C848 C847 1.287 . S
C848 C849 1.524 . S
C848 H867 0.913 . S
C849 H825 0.950 . S
C849 C848 1.524 . S
C849 C850 1.415 . S
C850 H826 0.950 . S
C850 C845 1.363 . S
C850 C849 1.415 . S
C851 H827 0.951 . S
C851 C852 1.366 . S
C851 C853 1.388 . S
C852 C851 1.366 . S
C852 C856 1.385 . S
C853 H828 0.951 . S
C853 C851 1.388 . S
C853 C854 1.366 . S
C854 C853 1.366 . S
C854 C855 1.414 . S
C854 C857 1.499 . S
C855 H829 0.950 . S
C855 C854 1.414 . S
C855 C856 1.374 . S
C856 H830 0.950 . S
C856 C852 1.385 . S
C856 C855 1.374 . S
C857 C854 1.499 . S
C857 C858 1.373 . S
C857 C859 1.389 . S
C858 H831 0.950 . S
C858 C844 1.377 . S
C858 C857 1.373 . S
C859 C843 1.377 . S
C859 C857 1.389 . S
C859 C860 1.524 . S
C860 C859 1.524 . S
C860 C861 1.397 . S
C860 C865 1.363 . S
C861 H832 0.950 . S
C861 C860 1.397 . S
C861 C862 1.334 . S
C862 H833 0.950 . S
C862 C861 1.334 . S
C862 C863 1.287 . S
C863 C862 1.287 . S
C863 C864 1.524 . S
C863 H866 0.999 . S
C864 H834 0.950 . S
C864 C863 1.524 . S
C864 C865 1.415 . S
C865 H835 0.950 . S
C865 C860 1.363 . S
C865 C864 1.415 . S
H866 C863 0.999 . S
H867 C848 0.913 . S
H868 C886 0.951 . S
H869 C888 0.951 . S
H870 C890 0.950 . S
H871 C891 0.950 . S
H872 C893 0.950 . S
H873 C896 0.950 . S
H874 C897 0.950 . S
H875 C899 0.950 . S
H876 C900 0.950 . S
H877 C901 0.951 1_655 S
H878 C903 0.951 . S
H879 C905 0.950 . S
H880 C906 0.950 . S
H881 C908 0.950 . S
H882 C911 0.950 . S
H883 C912 0.950 . S
H884 C914 0.950 1_655 S
H885 C915 0.950 . S
C886 H868 0.951 . S
C886 C887 1.366 . S
C886 C888 1.388 . S
C887 C886 1.366 . S
C887 C891 1.385 . S
C888 H869 0.951 . S
C888 C886 1.388 . S
C888 C889 1.366 . S
C889 C888 1.366 . S
C889 C890 1.414 . S
C889 C892 1.499 . S
C890 H870 0.950 . S
C890 C889 1.414 . S
C890 C891 1.374 . S
C891 H871 0.950 . S
C891 C887 1.385 . S
C891 C890 1.374 . S
C892 C889 1.499 . S
C892 C893 1.373 . S
C892 C894 1.389 . S
C893 H872 0.950 . S
C893 C892 1.373 . S
C893 C909 1.377 . S
C894 C892 1.389 . S
C894 C895 1.524 . S
C894 C908 1.377 . S
C895 C894 1.524 . S
C895 C896 1.397 . S
C895 C900 1.363 . S
C896 H873 0.950 . S
C896 C895 1.397 . S
C896 C897 1.334 . S
C897 H874 0.950 . S
C897 C896 1.334 . S
C897 C898 1.287 . S
C898 C897 1.287 . S
C898 C899 1.524 . S
C898 H917 0.913 . S
C899 H875 0.950 . S
C899 C898 1.524 . S
C899 C900 1.415 . S
C900 H876 0.950 . S
C900 C895 1.363 . S
C900 C899 1.415 . S
C901 H877 0.951 1_455 S
C901 C902 1.366 . S
C901 C903 1.388 . S
C902 C901 1.366 . S
C902 C906 1.385 . S
C903 H878 0.951 . S
C903 C901 1.388 . S
C903 C904 1.366 . S
C904 C903 1.366 . S
C904 C905 1.414 . S
C904 C907 1.499 . S
C905 H879 0.950 . S
C905 C904 1.414 . S
C905 C906 1.374 . S
C906 H880 0.950 . S
C906 C902 1.385 . S
C906 C905 1.374 . S
C907 C904 1.499 . S
C907 C908 1.373 . S
C907 C909 1.389 . S
C908 H881 0.950 . S
C908 C894 1.377 . S
C908 C907 1.373 . S
C909 C893 1.377 . S
C909 C907 1.389 . S
C909 C910 1.524 . S
C910 C909 1.524 . S
C910 C911 1.397 . S
C910 C915 1.363 . S
C911 H882 0.950 . S
C911 C910 1.397 . S
C911 C912 1.334 . S
C912 H883 0.950 . S
C912 C911 1.334 . S
C912 C913 1.287 . S
C913 C912 1.287 . S
C913 C914 1.524 . S
C913 H916 0.999 . S
C914 H884 0.950 1_455 S
C914 C913 1.524 . S
C914 C915 1.415 . S
C915 H885 0.950 . S
C915 C910 1.363 . S
C915 C914 1.415 . S
H916 C913 0.999 . S
H917 C898 0.913 . S
C337 C38 1.950 . S
C352 C92 1.903 . S
C387 C91 1.950 . S
C402 C145 1.903 . S
C437 C198 1.903 . S
C452 C144 1.950 . S
C487 C197 1.950 . S
C502 C251 1.903 . S
C537 C304 1.903 . S
C552 C250 1.950 . S
C587 C39 1.903 . S
C602 C303 1.950 . S
C637 C29 1.419 . S
C652 C188 1.419 . S
C687 C241 1.418 . S
C702 C82 1.418 . S
C737 C135 1.418 . S
C752 C294 1.419 . S
C787 C181 1.955 . S
C802 C22 1.955 . S
C837 C234 1.954 . S
C852 C75 1.954 . S
C887 C287 1.954 . S
C902 C128 1.954 . S
