# Generated by pormake.
# Topology tfs, (6)-cn, num edge types: 1
# Building blocks:
#     Node 0, Type 0, BuildingBlock: MIDCAF_clean_sbu_0, # of connection points: 6
#     Node 1, Type 0, BuildingBlock: MIDCAF_clean_sbu_0, # of connection points: 6
#     Node 2, Type 0, BuildingBlock: MIDCAF_clean_sbu_0, # of connection points: 6
#     Node 3, Type 0, BuildingBlock: MIDCAF_clean_sbu_0, # of connection points: 6
#     Node 4, Type 0, BuildingBlock: MIDCAF_clean_sbu_0, # of connection points: 6
#     Node 5, Type 0, BuildingBlock: MIDCAF_clean_sbu_0, # of connection points: 6
#     Edge 6, Type (0, 0), BuildingBlock: EZIPEK_clean_linker_0, # of connection points: 2
#     Edge 7, Type (0, 0), BuildingBlock: EZIPEK_clean_linker_0, # of connection points: 2
#     Edge 8, Type (0, 0), BuildingBlock: EZIPEK_clean_linker_0, # of connection points: 2
#     Edge 9, Type (0, 0), BuildingBlock: EZIPEK_clean_linker_0, # of connection points: 2
#     Edge 10, Type (0, 0), BuildingBlock: EZIPEK_clean_linker_0, # of connection points: 2
#     Edge 11, Type (0, 0), BuildingBlock: EZIPEK_clean_linker_0, # of connection points: 2
#     Edge 12, Type (0, 0), BuildingBlock: EZIPEK_clean_linker_0, # of connection points: 2
#     Edge 13, Type (0, 0), BuildingBlock: EZIPEK_clean_linker_0, # of connection points: 2
#     Edge 14, Type (0, 0), BuildingBlock: EZIPEK_clean_linker_0, # of connection points: 2
#     Edge 15, Type (0, 0), BuildingBlock: EZIPEK_clean_linker_0, # of connection points: 2
#     Edge 16, Type (0, 0), BuildingBlock: EZIPEK_clean_linker_0, # of connection points: 2
#     Edge 17, Type (0, 0), BuildingBlock: EZIPEK_clean_linker_0, # of connection points: 2
#     Edge 18, Type (0, 0), BuildingBlock: EZIPEK_clean_linker_0, # of connection points: 2
#     Edge 19, Type (0, 0), BuildingBlock: EZIPEK_clean_linker_0, # of connection points: 2
#     Edge 20, Type (0, 0), BuildingBlock: EZIPEK_clean_linker_0, # of connection points: 2
#     Edge 21, Type (0, 0), BuildingBlock: EZIPEK_clean_linker_0, # of connection points: 2
#     Edge 22, Type (0, 0), BuildingBlock: EZIPEK_clean_linker_0, # of connection points: 2
#     Edge 23, Type (0, 0), BuildingBlock: EZIPEK_clean_linker_0, # of connection points: 2
# Relax obj value: 0.134
# Max RMSD: 0.124
# Mean RMSD: 0.124
data_MOF--net-tfs--node1-MIDCAF_clean_sbu_0--edge1-EZIPEK_clean_linker_0
_symmetry_space_group_name_H-M    P1
_symmetry_Int_Tables_number       1
_symmetry_cell_setting            triclinic
loop_
_symmetry_equiv_pos_as_xyz
'x, y, z'
_cell_length_a     31.718624
_cell_length_b     31.467774
_cell_length_c     11.34368
_cell_angle_alpha  89.585062
_cell_angle_beta   90.318846
_cell_angle_gamma 120.16286
loop_
_atom_site_label
_atom_site_type_symbol
_atom_site_fract_x
_atom_site_fract_y
_atom_site_fract_z
_atom_type_partial_charge
Zn0 Zn 0.09149 0.40938 0.81005 0.0
Zn1 Zn 0.25594 0.42769 0.16412 0.0
Zn2 Zn 0.18847 0.40382 0.04198 0.0
C3 C 0.2489 0.35123 0.03179 0.0
C4 C 0.17943 0.38468 0.31374 0.0
O5 O 0.18512 0.47382 0.99474 0.0
O6 O 0.12937 0.47858 0.87473 0.0
C7 C 0.16491 0.3727 0.80789 0.0
O8 O 0.22114 0.36157 0.96931 0.0
O9 O 0.26777 0.37439 0.12544 0.0
O10 O 0.22395 0.41712 0.31553 0.0
O11 O 0.15635 0.37033 0.21511 0.0
O12 O 0.13721 0.38498 0.85724 0.0
O13 O 0.19477 0.36892 0.87698 0.0
O14 O 0.1164 0.3582 0.12714 0.0
O15 O 0.1105 0.38515 0.9571 0.0
C16 C 0.08894 0.35994 0.04717 0.0
O17 O 0.23485 0.48505 0.03175 0.0
O18 O 0.30237 0.49485 0.11308 0.0
C19 C 0.16575 0.49786 0.94606 0.0
C20 C 0.28032 0.51265 0.05728 0.0
Zn21 Zn 0.72179 0.1493 0.81753 0.0
Zn22 Zn 0.87292 0.30731 0.17181 0.0
Zn23 Zn 0.78796 0.19759 0.94094 0.0
C24 C 0.88625 0.26431 0.93653 0.0
C25 C 0.81489 0.19525 0.17321 0.0
O26 O 0.73134 0.21923 0.95514 0.0
O27 O 0.66819 0.15933 0.86319 0.0
C28 C 0.79982 0.19337 0.66795 0.0
O29 O 0.86082 0.23308 0.85776 0.0
O30 O 0.86232 0.26844 0.01986 0.0
O31 O 0.83681 0.23643 0.12281 0.0
O32 O 0.78912 0.15892 0.10552 0.0
O33 O 0.75411 0.17471 0.6666 0.0
O34 O 0.82304 0.2045 0.76674 0.0
O35 O 0.76753 0.12307 0.00817 0.0
O36 O 0.71851 0.08766 0.85713 0.0
C37 C 0.74214 0.08489 0.94359 0.0
O38 O 0.77727 0.26382 0.99044 0.0
O39 O 0.8255 0.32764 0.11225 0.0
C40 C 0.68587 0.19729 0.92605 0.0
C41 C 0.78944 0.30586 0.04062 0.0
Zn42 Zn 0.55293 0.85251 0.02214 0.0
Zn43 Zn 0.53908 0.70878 0.85729 0.0
Zn44 Zn 0.55909 0.78128 0.97442 0.0
C45 C 0.61397 0.72747 0.02003 0.0
C46 C 0.58549 0.78913 0.71076 0.0
O47 O 0.48264 0.76859 0.97758 0.0
O48 O 0.48824 0.84139 0.99143 0.0
C49 C 0.5822 0.81435 0.22276 0.0
O50 O 0.60001 0.75416 0.07357 0.0
O51 O 0.59315 0.70558 0.92628 0.0
O52 O 0.55494 0.74373 0.70654 0.0
O53 O 0.59668 0.81197 0.80941 0.0
O54 O 0.56875 0.84383 0.18683 0.0
O55 O 0.58556 0.7851 0.15022 0.0
O56 O 0.6206 0.85254 0.89947 0.0
O57 O 0.60482 0.91037 0.95331 0.0
C58 C 0.63418 0.89845 0.91272 0.0
O59 O 0.47827 0.72391 0.96145 0.0
O60 O 0.4723 0.65607 0.88897 0.0
C61 C 0.46261 0.79561 0.97991 0.0
C62 C 0.45237 0.67764 0.93599 0.0
Zn63 Zn 0.70591 0.54997 0.16083 0.0
Zn64 Zn 0.86564 0.56616 0.80201 0.0
Zn65 Zn 0.77699 0.57739 0.04479 0.0
C66 C 0.87557 0.62034 0.0372 0.0
C67 C 0.79702 0.60813 0.8096 0.0
O68 O 0.73099 0.49657 0.04235 0.0
O69 O 0.6662 0.4794 0.14835 0.0
C70 C 0.78679 0.60367 0.31111 0.0
O71 O 0.85039 0.62299 0.12099 0.0
O72 O 0.85157 0.59104 0.95521 0.0
O73 O 0.82265 0.59234 0.85578 0.0
O74 O 0.76957 0.61404 0.88152 0.0
O75 O 0.74099 0.57705 0.30954 0.0
O76 O 0.81151 0.61015 0.21627 0.0
O77 O 0.74467 0.62324 0.98944 0.0
O78 O 0.6781 0.58752 0.09792 0.0
C79 C 0.70698 0.62281 0.03323 0.0
O80 O 0.7763 0.50487 0.98599 0.0
O81 O 0.82572 0.49562 0.85578 0.0
C82 C 0.6888 0.46522 0.08384 0.0
C83 C 0.79086 0.47793 0.93098 0.0
Zn84 Zn 0.12376 0.72024 0.13434 0.0
Zn85 Zn 0.24036 0.8233 0.90781 0.0
Zn86 Zn 0.17848 0.77547 0.01127 0.0
C87 C 0.25681 0.8846 0.0547 0.0
C88 C 0.17534 0.81741 0.76407 0.0
O89 O 0.19289 0.716 0.05011 0.0
O90 O 0.11749 0.6571 0.08304 0.0
C91 C 0.16731 0.79387 0.27295 0.0
O92 O 0.21087 0.85348 0.06153 0.0
O93 O 0.28505 0.86807 0.03508 0.0
O94 O 0.20954 0.85479 0.81161 0.0
O95 O 0.15463 0.77715 0.82453 0.0
O96 O 0.1554 0.74926 0.28247 0.0
O97 O 0.17414 0.8139 0.17006 0.0
O98 O 0.11028 0.74346 0.91301 0.0
O99 O 0.07628 0.73907 0.08357 0.0
C100 C 0.07338 0.73727 0.973 0.0
O101 O 0.2413 0.75925 0.0162 0.0
O102 O 0.25815 0.77601 0.83099 0.0
C103 C 0.16108 0.67008 0.059 0.0
C104 C 0.26915 0.76453 0.9281 0.0
Zn105 Zn 0.43874 0.28192 0.955 0.0
Zn106 Zn 0.43049 0.15319 0.17895 0.0
Zn107 Zn 0.41318 0.19943 0.03991 0.0
C108 C 0.35314 0.09056 0.0298 0.0
C109 C 0.39199 0.19266 0.31451 0.0
O110 O 0.49432 0.25657 0.02494 0.0
O111 O 0.50791 0.32405 0.9307 0.0
C112 C 0.37491 0.19992 0.79227 0.0
O113 O 0.37045 0.12824 0.96132 0.0
O114 O 0.36977 0.09423 0.13265 0.0
O115 O 0.427 0.18458 0.32367 0.0
O116 O 0.37714 0.19667 0.21126 0.0
O117 O 0.39892 0.24569 0.81158 0.0
O118 O 0.3754 0.17046 0.87096 0.0
O119 O 0.36487 0.2306 0.06668 0.0
O120 O 0.412 0.31024 0.06938 0.0
C121 C 0.36972 0.27348 0.07278 0.0
O122 O 0.49028 0.21217 0.04343 0.0
O123 O 0.49071 0.15207 0.14386 0.0
C124 C 0.52416 0.3004 0.98546 0.0
C125 C 0.5124 0.18894 0.07709 0.0
C126 C 0.33283 0.3116 0.94022 0.0
C127 C 0.32826 0.28122 0.04033 0.0
C128 C 0.25105 0.27677 0.09058 0.0
C129 C 0.26019 0.31243 0.00219 0.0
N130 N 0.29511 0.34663 0.81547 0.0
N131 N 0.27709 0.22558 0.19302 0.0
C132 C 0.29611 0.32374 0.91728 0.0
C133 C 0.28488 0.25997 0.10863 0.0
N134 N 0.37302 0.33072 0.8693 0.0
N135 N 0.21123 0.26179 0.16114 0.0
H136 H 0.30206 0.21423 0.212 0.0
H137 H 0.24512 0.20652 0.2415 0.0
H138 H 0.18548 0.27246 0.14362 0.0
H139 H 0.20354 0.23956 0.23541 0.0
H140 H 0.38161 0.35873 0.80819 0.0
H141 H 0.39901 0.32002 0.87225 0.0
H142 H 0.31751 0.35217 0.74336 0.0
H143 H 0.26781 0.35514 0.79876 0.0
C144 C 0.00986 0.28155 0.02209 0.0
C145 C 0.03515 0.33269 0.04578 0.0
C146 C 0.96624 0.3391 0.96849 0.0
C147 C 0.93961 0.28754 0.95143 0.0
N148 N 0.93221 0.20809 0.98573 0.0
N149 N 0.03455 0.40833 0.06461 0.0
C150 C 0.96032 0.25822 0.9845 0.0
C151 C 0.01215 0.36077 0.02649 0.0
N152 N 0.03372 0.2556 0.03032 0.0
N153 N 0.94775 0.36734 0.92704 0.0
H154 H 0.06788 0.4245 0.1093 0.0
H155 H 0.0183 0.42999 0.06233 0.0
H156 H 0.91451 0.35239 0.88223 0.0
H157 H 0.96709 0.4056 0.92714 0.0
H158 H 0.01924 0.21988 0.99907 0.0
H159 H 0.0692 0.27075 0.06264 0.0
H160 H 0.94366 0.18527 0.02325 0.0
H161 H 0.89613 0.18918 0.95682 0.0
C162 C 0.72557 0.00799 0.05454 0.0
C163 C 0.74273 0.038 0.95308 0.0
C164 C 0.71102 0.96562 0.82609 0.0
C165 C 0.68605 0.93665 0.92415 0.0
N166 N 0.68794 0.92459 0.13244 0.0
N167 N 0.77376 0.04578 0.75657 0.0
C168 C 0.7009 0.95616 0.0392 0.0
C169 C 0.74378 0.01646 0.84395 0.0
N170 N 0.72945 0.02845 0.16241 0.0
N171 N 0.70039 0.94533 0.71651 0.0
H172 H 0.79757 0.08312 0.77128 0.0
H173 H 0.77795 0.03249 0.67627 0.0
H174 H 0.67696 0.90766 0.70486 0.0
H175 H 0.71362 0.96573 0.63908 0.0
H176 H 0.71271 0.00799 0.23796 0.0
H177 H 0.74908 0.06632 0.17516 0.0
H178 H 0.69896 0.93576 0.21888 0.0
H179 H 0.66981 0.88668 0.11901 0.0
C180 C 0.70411 0.69542 0.93987 0.0
C181 C 0.7021 0.66742 0.03976 0.0
C182 C 0.66092 0.70218 0.15334 0.0
C183 C 0.65843 0.72564 0.04995 0.0
N184 N 0.69798 0.76506 0.86881 0.0
N185 N 0.70225 0.66535 0.25333 0.0
C186 C 0.68834 0.73009 0.95255 0.0
C187 C 0.68865 0.67823 0.15099 0.0
N188 N 0.71656 0.68631 0.83207 0.0
N189 N 0.6345 0.69981 0.25011 0.0
H190 H 0.72471 0.64999 0.25361 0.0
H191 H 0.69607 0.67515 0.33631 0.0
H192 H 0.61479 0.7181 0.25396 0.0
H193 H 0.63079 0.67817 0.32369 0.0
H194 H 0.71402 0.70298 0.75474 0.0
H195 H 0.72573 0.6593 0.81872 0.0
H196 H 0.72171 0.77198 0.79867 0.0
H197 H 0.68565 0.79005 0.87806 0.0
C198 C -0.00463 0.7348 0.95869 0.0
C199 C 0.02323 0.71282 0.92827 0.0
C200 C 0.9559 0.63208 0.98124 0.0
C201 C 0.92806 0.65378 0.01659 0.0
N202 N 0.91607 0.72392 0.00493 0.0
N203 N 0.02415 0.64082 0.86606 0.0
C204 C 0.94612 0.70469 0.99513 0.0
C205 C 0.00092 0.66132 0.92274 0.0
N206 N 0.01751 0.78485 0.95948 0.0
N207 N 0.93989 0.58381 0.00699 0.0
H208 H 0.05707 0.6624 0.82201 0.0
H209 H 0.00849 0.60319 0.85213 0.0
H210 H 0.90777 0.5617 0.05361 0.0
H211 H 0.96056 0.56709 0.99211 0.0
H212 H 0.00172 0.80401 0.99486 0.0
H213 H 0.05305 0.80693 0.92826 0.0
H214 H 0.92606 0.75946 0.97806 0.0
H215 H 0.87986 0.70343 0.03184 0.0
C216 C 0.25741 0.96464 0.0933 0.0
C217 C 0.27476 0.93785 0.02889 0.0
C218 C 0.33366 0.01413 0.92612 0.0
C219 C 0.31726 0.04037 0.99325 0.0
N220 N 0.25449 0.04018 0.10954 0.0
N221 N 0.31668 0.93637 0.84969 0.0
C222 C 0.27542 0.01499 0.06491 0.0
C223 C 0.30881 0.96221 0.9345 0.0
N224 N 0.22661 0.94351 0.18658 0.0
N225 N 0.3751 0.0389 0.86008 0.0
H226 H 0.29945 0.89847 0.84686 0.0
H227 H 0.33655 0.95261 0.77325 0.0
H228 H 0.39288 0.07681 0.84661 0.0
H229 H 0.39319 0.02211 0.82394 0.0
H230 H 0.2172 0.96305 0.24403 0.0
H231 H 0.21356 0.90742 0.21349 0.0
H232 H 0.22157 0.02347 0.15516 0.0
H233 H 0.2681 0.07732 0.08985 0.0
C234 C 0.18474 0.62435 0.91906 0.0
C235 C 0.17421 0.63206 0.03563 0.0
C236 C 0.17213 0.55698 0.10266 0.0
C237 C 0.18122 0.54844 0.98494 0.0
N238 N 0.21135 0.58081 0.79167 0.0
N239 N 0.17295 0.61518 0.24316 0.0
C240 C 0.19302 0.58482 0.89695 0.0
C241 C 0.17303 0.60148 0.12915 0.0
N242 N 0.1834 0.65247 0.82827 0.0
N243 N 0.15892 0.52136 0.18721 0.0
H244 H 0.17355 0.64767 0.26485 0.0
H245 H 0.17712 0.59703 0.31549 0.0
H246 H 0.15845 0.48846 0.17382 0.0
H247 H 0.14553 0.52312 0.26954 0.0
H248 H 0.18564 0.64511 0.73991 0.0
H249 H 0.17618 0.68101 0.84039 0.0
H250 H 0.22486 0.6083 0.72743 0.0
H251 H 0.21744 0.55186 0.77412 0.0
C252 C 0.59756 0.20957 0.127 0.0
C253 C 0.56336 0.2057 0.04047 0.0
C254 C 0.62376 0.22158 0.88737 0.0
C255 C 0.65198 0.21291 0.97067 0.0
N256 N 0.66319 0.19408 0.17118 0.0
N257 N 0.54293 0.20435 0.83381 0.0
C258 C 0.63901 0.20691 0.09161 0.0
C259 C 0.5765 0.21194 0.9193 0.0
N260 N 0.59009 0.21511 0.24295 0.0
N261 N 0.64172 0.23763 0.77677 0.0
H262 H 0.5072 0.1953 0.85155 0.0
H263 H 0.54944 0.20312 0.74433 0.0
H264 H 0.67616 0.24433 0.75161 0.0
H265 H 0.62475 0.24891 0.71529 0.0
H266 H 0.61616 0.22259 0.30818 0.0
H267 H 0.56009 0.21738 0.27153 0.0
H268 H 0.65183 0.18423 0.25811 0.0
H269 H 0.69197 0.18892 0.14774 0.0
C270 C 0.38399 0.63824 0.08361 0.0
C271 C 0.39966 0.64832 0.96454 0.0
C272 C 0.32358 0.57654 0.89997 0.0
C273 C 0.30949 0.5648 0.01958 0.0
N274 N 0.31584 0.5937 0.21737 0.0
N275 N 0.37751 0.63857 0.75956 0.0
C276 C 0.336 0.59951 0.10831 0.0
C277 C 0.36667 0.62154 0.8727 0.0
N278 N 0.41601 0.66205 0.1734 0.0
N279 N 0.29867 0.54298 0.8139 0.0
H280 H 0.409 0.67167 0.73882 0.0
H281 H 0.35321 0.62269 0.68958 0.0
H282 H 0.26717 0.50965 0.83115 0.0
H283 H 0.31063 0.54714 0.72701 0.0
H284 H 0.40782 0.65197 0.26164 0.0
H285 H 0.45179 0.69013 0.15956 0.0
H286 H 0.3318 0.61978 0.28388 0.0
H287 H 0.28064 0.56501 0.23578 0.0
C288 C 0.75998 0.39111 0.86844 0.0
C289 C 0.77003 0.4249 0.96143 0.0
C290 C 0.75803 0.36008 0.10004 0.0
C291 C 0.76486 0.33412 0.00798 0.0
N292 N 0.77082 0.32517 0.79737 0.0
N293 N 0.78307 0.44119 0.17151 0.0
C294 C 0.76391 0.34865 0.88955 0.0
C295 C 0.769 0.40907 0.0796 0.0
N296 N 0.74765 0.40017 0.75969 0.0
N297 N 0.7437 0.3386 0.20822 0.0
H298 H 0.79442 0.47831 0.1621 0.0
H299 H 0.78737 0.43152 0.25698 0.0
H300 H 0.73434 0.30206 0.22186 0.0
H301 H 0.7358 0.35493 0.2778 0.0
H302 H 0.73602 0.37486 0.69109 0.0
H303 H 0.74367 0.43058 0.74357 0.0
H304 H 0.77688 0.33889 0.71143 0.0
H305 H 0.77278 0.29334 0.80622 0.0
C306 C 0.35439 0.7926 0.85561 0.0
C307 C 0.31692 0.76545 0.9406 0.0
C308 C 0.37679 0.75347 0.0532 0.0
C309 C 0.41016 0.77452 0.95948 0.0
N310 N 0.42439 0.79903 0.75602 0.0
N311 N 0.29309 0.71106 0.1127 0.0
C312 C 0.39603 0.78761 0.85431 0.0
C313 C 0.32799 0.74275 0.03678 0.0
N314 N 0.35446 0.8286 0.78726 0.0
N315 N 0.3922 0.74632 0.16026 0.0
H316 H 0.2574 0.70283 0.10962 0.0
H317 H 0.29911 0.6896 0.17337 0.0
H318 H 0.42774 0.75379 0.17488 0.0
H319 H 0.37076 0.73646 0.23596 0.0
H320 H 0.38265 0.85017 0.72896 0.0
H321 H 0.33241 0.84357 0.80433 0.0
H322 H 0.41372 0.80636 0.67476 0.0
H323 H 0.45557 0.79581 0.75399 0.0
C324 C 0.64771 0.39884 0.93294 0.0
C325 C 0.66333 0.41288 0.05094 0.0
C326 C 0.5956 0.33585 0.1243 0.0
C327 C 0.57721 0.32483 0.00731 0.0
N328 N 0.59573 0.33254 0.80096 0.0
N329 N 0.66423 0.38768 0.25081 0.0
C330 C 0.60769 0.35133 0.91196 0.0
C331 C 0.64185 0.37816 0.14334 0.0
N332 N 0.66646 0.43225 0.84308 0.0
N333 N 0.56724 0.30971 0.21777 0.0
H334 H 0.69719 0.41991 0.26687 0.0
H335 H 0.6526 0.36201 0.31922 0.0
H336 H 0.53332 0.2782 0.2088 0.0
H337 H 0.57656 0.32045 0.30511 0.0
H338 H 0.65212 0.42504 0.75794 0.0
H339 H 0.69426 0.46829 0.85492 0.0
H340 H 0.61861 0.34858 0.72865 0.0
H341 H 0.56495 0.29831 0.78496 0.0
C342 C 0.16243 0.40863 0.61348 0.0
C343 C 0.16556 0.37113 0.67705 0.0
C344 C 0.16154 0.33084 0.48973 0.0
C345 C 0.15607 0.36743 0.42932 0.0
N346 N 0.13528 0.43065 0.4355 0.0
N347 N 0.15839 0.29103 0.67658 0.0
C348 C 0.15 0.40204 0.49285 0.0
C349 C 0.16209 0.33032 0.61561 0.0
N350 N 0.17559 0.45253 0.66561 0.0
N351 N 0.16826 0.29809 0.42615 0.0
H352 H 0.15886 0.28964 0.7684 0.0
H353 H 0.15139 0.25847 0.63632 0.0
H354 H 0.1653 0.29654 0.33439 0.0
H355 H 0.17833 0.27416 0.4636 0.0
H356 H 0.17771 0.48244 0.62016 0.0
H357 H 0.19038 0.46096 0.75004 0.0
H358 H 0.12707 0.45464 0.47914 0.0
H359 H 0.12649 0.42611 0.34582 0.0
C360 C 0.81607 0.23796 0.48346 0.0
C361 C 0.82386 0.20519 0.55165 0.0
C362 C 0.83143 0.16708 0.37004 0.0
C363 C 0.81411 0.19387 0.30437 0.0
N364 N 0.78028 0.24763 0.30602 0.0
N365 N 0.84376 0.14133 0.56432 0.0
C366 C 0.80433 0.22779 0.36306 0.0
C367 C 0.83352 0.17078 0.49594 0.0
N368 N 0.81765 0.27761 0.5362 0.0
N369 N 0.84682 0.13938 0.31245 0.0
H370 H 0.8501 0.14748 0.65463 0.0
H371 H 0.84563 0.11138 0.53247 0.0
H372 H 0.84508 0.13571 0.22096 0.0
H373 H 0.8637 0.12231 0.35432 0.0
H374 H 0.8159 0.3053 0.4893 0.0
H375 H 0.8259 0.28494 0.62571 0.0
H376 H 0.76784 0.26842 0.3487 0.0
H377 H 0.76767 0.23829 0.22004 0.0
C378 C 0.63297 0.80891 0.52527 0.0
C379 C 0.60018 0.81505 0.59757 0.0
C380 C 0.5551 0.81626 0.42674 0.0
C381 C 0.58889 0.8125 0.35146 0.0
N382 N 0.66716 0.81753 0.33002 0.0
N383 N 0.54241 0.84243 0.61642 0.0
C384 C 0.63027 0.81267 0.40067 0.0
C385 C 0.56625 0.82597 0.54724 0.0
N386 N 0.66529 0.79773 0.57604 0.0
N387 N 0.51045 0.80634 0.38575 0.0
H388 H 0.5501 0.84924 0.70619 0.0
H389 H 0.5193 0.85406 0.58203 0.0
H390 H 0.49799 0.79318 0.30113 0.0
H391 H 0.48342 0.80489 0.44035 0.0
H392 H 0.68624 0.78692 0.52823 0.0
H393 H 0.6693 0.79759 0.66737 0.0
H394 H 0.6999 0.82208 0.36292 0.0
H395 H 0.66672 0.82092 0.2387 0.0
C396 C 0.80577 0.6551 0.61767 0.0
C397 C 0.79644 0.61153 0.67811 0.0
C398 C 0.80934 0.57952 0.49336 0.0
C399 C 0.80881 0.61768 0.42978 0.0
N400 N 0.80573 0.69235 0.42867 0.0
N401 N 0.77683 0.52701 0.66269 0.0
C402 C 0.8072 0.656 0.49141 0.0
C403 C 0.79525 0.57245 0.61298 0.0
N404 N 0.81463 0.69572 0.67994 0.0
N405 N 0.82043 0.54817 0.43712 0.0
H406 H 0.76172 0.51898 0.7467 0.0
H407 H 0.77091 0.49634 0.61489 0.0
H408 H 0.83031 0.55268 0.34827 0.0
H409 H 0.82474 0.52145 0.48151 0.0
H410 H 0.8257 0.72974 0.64069 0.0
H411 H 0.81443 0.69619 0.77185 0.0
H412 H 0.79886 0.71831 0.46671 0.0
H413 H 0.80973 0.69495 0.33711 0.0
C414 C 0.21487 0.84215 0.44184 0.0
C415 C 0.16972 0.81903 0.38395 0.0
C416 C 0.12757 0.80433 0.57467 0.0
C417 C 0.17232 0.81851 0.6329 0.0
N418 N 0.25871 0.845 0.61658 0.0
N419 N 0.08255 0.78112 0.38949 0.0
C420 C 0.21623 0.83687 0.56532 0.0
C421 C 0.12587 0.80187 0.44895 0.0
N422 N 0.25672 0.86684 0.37764 0.0
N423 N 0.08718 0.79381 0.63912 0.0
H424 H 0.08112 0.78182 0.29755 0.0
H425 H 0.0486 0.76238 0.43016 0.0
H426 H 0.08762 0.79523 0.73097 0.0
H427 H 0.05435 0.78713 0.60195 0.0
H428 H 0.29087 0.88941 0.4152 0.0
H429 H 0.25633 0.86842 0.28608 0.0
H430 H 0.2898 0.85258 0.5693 0.0
H431 H 0.26195 0.83891 0.70483 0.0
C432 C 0.35021 0.22111 0.6 0.0
C433 C 0.35265 0.18484 0.67082 0.0
C434 C 0.34857 0.14124 0.48967 0.0
C435 C 0.36381 0.18552 0.42469 0.0
N436 N 0.37384 0.26645 0.41544 0.0
N437 N 0.33461 0.10103 0.68127 0.0
C438 C 0.36179 0.22476 0.47815 0.0
C439 C 0.34514 0.14148 0.61516 0.0
N440 N 0.33642 0.25147 0.6501 0.0
N441 N 0.33734 0.09931 0.42995 0.0
H442 H 0.32278 0.09746 0.76807 0.0
H443 H 0.33523 0.07045 0.64928 0.0
H444 H 0.33765 0.09856 0.33807 0.0
H445 H 0.32382 0.06493 0.46925 0.0
H446 H 0.33119 0.27683 0.60213 0.0
H447 H 0.32455 0.24647 0.73745 0.0
H448 H 0.37801 0.29832 0.45393 0.0
H449 H 0.38194 0.26963 0.32575 0.0
loop_
_geom_bond_atom_site_label_1
_geom_bond_atom_site_label_2
_geom_bond_distance
_geom_bond_site_symmetry_2
_ccdc_geom_bond_type
Zn0 O6 1.920 . S
Zn0 O12 1.898 . S
Zn0 O15 1.905 . S
Zn1 O9 1.905 . S
Zn1 O10 1.898 . S
Zn1 O18 1.920 . S
Zn2 O5 2.080 . S
Zn2 O8 2.114 . S
Zn2 O11 2.120 . S
Zn2 O13 2.120 1_554 S
Zn2 O14 2.114 1_554 S
Zn2 O17 2.080 1_554 S
C3 O8 1.166 . S
C3 O9 1.182 . S
C4 O10 1.167 . S
C4 O11 1.299 . S
O5 Zn2 2.080 . S
O5 C19 1.305 1_554 S
O6 Zn0 1.920 . S
O6 C19 1.234 . S
C7 O12 1.167 . S
C7 O13 1.299 . S
O8 Zn2 2.114 . S
O8 C3 1.166 . S
O9 Zn1 1.905 . S
O9 C3 1.182 . S
O10 Zn1 1.898 . S
O10 C4 1.167 . S
O11 Zn2 2.120 . S
O11 C4 1.299 . S
O12 Zn0 1.898 . S
O12 C7 1.167 . S
O13 Zn2 2.120 1_556 S
O13 C7 1.299 . S
O14 Zn2 2.114 1_556 S
O14 C16 1.166 . S
O15 Zn0 1.905 . S
O15 C16 1.182 . S
C16 O14 1.166 . S
C16 O15 1.182 . S
O17 Zn2 2.080 1_556 S
O17 C20 1.305 1_556 S
O18 Zn1 1.920 . S
O18 C20 1.234 . S
C19 O5 1.305 1_556 S
C19 O6 1.234 . S
C20 O17 1.305 1_554 S
C20 O18 1.234 . S
Zn21 O27 1.920 . S
Zn21 O33 1.898 . S
Zn21 O36 1.905 . S
Zn22 O30 1.905 . S
Zn22 O31 1.898 . S
Zn22 O39 1.920 . S
Zn23 O26 2.080 . S
Zn23 O29 2.114 . S
Zn23 O32 2.120 . S
Zn23 O34 2.120 1_554 S
Zn23 O35 2.114 1_554 S
Zn23 O38 2.080 1_554 S
C24 O29 1.166 . S
C24 O30 1.182 . S
C25 O31 1.167 . S
C25 O32 1.299 . S
O26 Zn23 2.080 . S
O26 C40 1.305 1_554 S
O27 Zn21 1.920 . S
O27 C40 1.234 . S
C28 O33 1.167 . S
C28 O34 1.299 . S
O29 Zn23 2.114 . S
O29 C24 1.166 . S
O30 Zn22 1.905 . S
O30 C24 1.182 . S
O31 Zn22 1.898 . S
O31 C25 1.167 . S
O32 Zn23 2.120 . S
O32 C25 1.299 . S
O33 Zn21 1.898 . S
O33 C28 1.167 . S
O34 Zn23 2.120 1_556 S
O34 C28 1.299 . S
O35 Zn23 2.114 1_556 S
O35 C37 1.166 . S
O36 Zn21 1.905 . S
O36 C37 1.182 . S
C37 O35 1.166 . S
C37 O36 1.182 . S
O38 Zn23 2.080 1_556 S
O38 C41 1.305 1_556 S
O39 Zn22 1.920 . S
O39 C41 1.234 . S
C40 O26 1.305 1_556 S
C40 O27 1.234 . S
C41 O38 1.305 1_554 S
C41 O39 1.234 . S
Zn42 O48 1.920 . S
Zn42 O54 1.898 . S
Zn42 O57 1.905 . S
Zn43 O51 1.905 . S
Zn43 O52 1.898 . S
Zn43 O60 1.920 . S
Zn44 O47 2.080 1_554 S
Zn44 O50 2.114 1_554 S
Zn44 O53 2.120 1_554 S
Zn44 O55 2.120 . S
Zn44 O56 2.114 . S
Zn44 O59 2.080 . S
C45 O50 1.166 . S
C45 O51 1.182 . S
C46 O52 1.167 . S
C46 O53 1.299 . S
O47 Zn44 2.080 1_556 S
O47 C61 1.305 1_556 S
O48 Zn42 1.920 . S
O48 C61 1.234 . S
C49 O54 1.167 . S
C49 O55 1.299 . S
O50 Zn44 2.114 1_556 S
O50 C45 1.166 . S
O51 Zn43 1.905 . S
O51 C45 1.182 . S
O52 Zn43 1.898 . S
O52 C46 1.167 . S
O53 Zn44 2.120 1_556 S
O53 C46 1.299 . S
O54 Zn42 1.898 . S
O54 C49 1.167 . S
O55 Zn44 2.120 . S
O55 C49 1.299 . S
O56 Zn44 2.114 . S
O56 C58 1.166 . S
O57 Zn42 1.905 . S
O57 C58 1.182 . S
C58 O56 1.166 . S
C58 O57 1.182 . S
O59 Zn44 2.080 . S
O59 C62 1.305 1_554 S
O60 Zn43 1.920 . S
O60 C62 1.234 . S
C61 O47 1.305 1_554 S
C61 O48 1.234 . S
C62 O59 1.305 1_556 S
C62 O60 1.234 . S
Zn63 O69 1.920 . S
Zn63 O75 1.898 . S
Zn63 O78 1.905 . S
Zn64 O72 1.905 . S
Zn64 O73 1.898 . S
Zn64 O81 1.920 . S
Zn65 O68 2.080 1_554 S
Zn65 O71 2.114 1_554 S
Zn65 O74 2.120 1_554 S
Zn65 O76 2.120 . S
Zn65 O77 2.114 . S
Zn65 O80 2.080 . S
C66 O71 1.166 . S
C66 O72 1.182 . S
C67 O73 1.167 . S
C67 O74 1.299 . S
O68 Zn65 2.080 1_556 S
O68 C82 1.305 1_556 S
O69 Zn63 1.920 . S
O69 C82 1.234 . S
C70 O75 1.167 . S
C70 O76 1.299 . S
O71 Zn65 2.114 1_556 S
O71 C66 1.166 . S
O72 Zn64 1.905 . S
O72 C66 1.182 . S
O73 Zn64 1.898 . S
O73 C67 1.167 . S
O74 Zn65 2.120 1_556 S
O74 C67 1.299 . S
O75 Zn63 1.898 . S
O75 C70 1.167 . S
O76 Zn65 2.120 . S
O76 C70 1.299 . S
O77 Zn65 2.114 . S
O77 C79 1.166 . S
O78 Zn63 1.905 . S
O78 C79 1.182 . S
C79 O77 1.166 . S
C79 O78 1.182 . S
O80 Zn65 2.080 . S
O80 C83 1.305 1_554 S
O81 Zn64 1.920 . S
O81 C83 1.234 . S
C82 O68 1.305 1_554 S
C82 O69 1.234 . S
C83 O80 1.305 1_556 S
C83 O81 1.234 . S
Zn84 O90 1.920 . S
Zn84 O96 1.898 . S
Zn84 O99 1.905 . S
Zn85 O93 1.905 . S
Zn85 O94 1.898 . S
Zn85 O102 1.920 . S
Zn86 O89 2.080 1_554 S
Zn86 O92 2.114 1_554 S
Zn86 O95 2.120 1_554 S
Zn86 O97 2.120 . S
Zn86 O98 2.114 . S
Zn86 O101 2.080 . S
C87 O92 1.166 . S
C87 O93 1.182 . S
C88 O94 1.167 . S
C88 O95 1.299 . S
O89 Zn86 2.080 1_556 S
O89 C103 1.305 1_556 S
O90 Zn84 1.920 . S
O90 C103 1.234 . S
C91 O96 1.167 . S
C91 O97 1.299 . S
O92 Zn86 2.114 1_556 S
O92 C87 1.166 . S
O93 Zn85 1.905 . S
O93 C87 1.182 . S
O94 Zn85 1.898 . S
O94 C88 1.167 . S
O95 Zn86 2.120 1_556 S
O95 C88 1.299 . S
O96 Zn84 1.898 . S
O96 C91 1.167 . S
O97 Zn86 2.120 . S
O97 C91 1.299 . S
O98 Zn86 2.114 . S
O98 C100 1.166 . S
O99 Zn84 1.905 . S
O99 C100 1.182 . S
C100 O98 1.166 . S
C100 O99 1.182 . S
O101 Zn86 2.080 . S
O101 C104 1.305 1_554 S
O102 Zn85 1.920 . S
O102 C104 1.234 . S
C103 O89 1.305 1_554 S
C103 O90 1.234 . S
C104 O101 1.305 1_556 S
C104 O102 1.234 . S
Zn105 O111 1.920 . S
Zn105 O117 1.898 . S
Zn105 O120 1.905 . S
Zn106 O114 1.905 . S
Zn106 O115 1.898 . S
Zn106 O123 1.920 . S
Zn107 O110 2.080 . S
Zn107 O113 2.114 . S
Zn107 O116 2.120 . S
Zn107 O118 2.120 1_554 S
Zn107 O119 2.114 1_554 S
Zn107 O122 2.080 1_554 S
C108 O113 1.166 . S
C108 O114 1.182 . S
C109 O115 1.167 . S
C109 O116 1.299 . S
O110 Zn107 2.080 . S
O110 C124 1.305 1_554 S
O111 Zn105 1.920 . S
O111 C124 1.234 . S
C112 O117 1.167 . S
C112 O118 1.299 . S
O113 Zn107 2.114 . S
O113 C108 1.166 . S
O114 Zn106 1.905 . S
O114 C108 1.182 . S
O115 Zn106 1.898 . S
O115 C109 1.167 . S
O116 Zn107 2.120 . S
O116 C109 1.299 . S
O117 Zn105 1.898 . S
O117 C112 1.167 . S
O118 Zn107 2.120 1_556 S
O118 C112 1.299 . S
O119 Zn107 2.114 1_556 S
O119 C121 1.166 . S
O120 Zn105 1.905 . S
O120 C121 1.182 . S
C121 O119 1.166 . S
C121 O120 1.182 . S
O122 Zn107 2.080 1_556 S
O122 C125 1.305 1_556 S
O123 Zn106 1.920 . S
O123 C125 1.234 . S
C124 O110 1.305 1_556 S
C124 O111 1.234 . S
C125 O122 1.305 1_554 S
C125 O123 1.234 . S
C126 C127 1.363 1_556 S
C126 C132 1.379 . S
C126 N134 1.356 . S
C127 C126 1.363 1_554 S
C127 C133 1.363 . S
C128 C129 1.363 1_554 S
C128 C133 1.379 . S
C128 N135 1.356 . S
C129 C128 1.363 1_556 S
C129 C132 1.363 . S
N130 C132 1.356 . S
N130 H142 0.984 . S
N130 H143 0.985 . S
N131 C133 1.356 . S
N131 H136 0.984 . S
N131 H137 0.985 . S
C132 C126 1.379 . S
C132 C129 1.363 . S
C132 N130 1.356 . S
C133 C127 1.363 . S
C133 C128 1.379 . S
C133 N131 1.356 . S
N134 C126 1.356 . S
N134 H140 0.984 . S
N134 H141 0.984 . S
N135 C128 1.356 . S
N135 H138 0.984 . S
N135 H139 0.985 . S
H136 N131 0.984 . S
H137 N131 0.985 . S
H138 N135 0.984 . S
H139 N135 0.985 . S
H140 N134 0.984 . S
H141 N134 0.984 . S
H142 N130 0.984 . S
H143 N130 0.985 . S
C144 C145 1.363 . S
C144 C150 1.379 1_455 S
C144 N152 1.356 . S
C145 C144 1.363 . S
C145 C151 1.363 1_554 S
C146 C147 1.363 . S
C146 C151 1.379 1_655 S
C146 N153 1.356 . S
C147 C146 1.363 . S
C147 C150 1.363 1_556 S
N148 C150 1.356 . S
N148 H160 0.984 . S
N148 H161 0.985 . S
N149 C151 1.356 . S
N149 H154 0.984 . S
N149 H155 0.985 . S
C150 C144 1.379 1_655 S
C150 C147 1.363 1_554 S
C150 N148 1.356 . S
C151 C145 1.363 1_556 S
C151 C146 1.379 1_455 S
C151 N149 1.356 . S
N152 C144 1.356 . S
N152 H158 0.984 . S
N152 H159 0.984 . S
N153 C146 1.356 . S
N153 H156 0.984 . S
N153 H157 0.985 . S
H154 N149 0.984 . S
H155 N149 0.985 . S
H156 N153 0.984 . S
H157 N153 0.985 . S
H158 N152 0.984 . S
H159 N152 0.984 . S
H160 N148 0.984 . S
H161 N148 0.985 . S
C162 C163 1.363 . S
C162 C168 1.379 1_545 S
C162 N170 1.356 . S
C163 C162 1.363 . S
C163 C169 1.363 1_554 S
C164 C165 1.363 . S
C164 C169 1.379 1_565 S
C164 N171 1.356 . S
C165 C164 1.363 . S
C165 C168 1.363 1_556 S
N166 C168 1.356 . S
N166 H178 0.984 . S
N166 H179 0.985 . S
N167 C169 1.356 . S
N167 H172 0.984 . S
N167 H173 0.985 . S
C168 C162 1.379 1_565 S
C168 C165 1.363 1_554 S
C168 N166 1.356 . S
C169 C163 1.363 1_556 S
C169 C164 1.379 1_545 S
C169 N167 1.356 . S
N170 C162 1.356 . S
N170 H176 0.984 . S
N170 H177 0.984 . S
N171 C164 1.356 . S
N171 H174 0.984 . S
N171 H175 0.985 . S
H172 N167 0.984 . S
H173 N167 0.985 . S
H174 N171 0.984 . S
H175 N171 0.985 . S
H176 N170 0.984 . S
H177 N170 0.984 . S
H178 N166 0.984 . S
H179 N166 0.985 . S
C180 C181 1.363 . S
C180 C186 1.379 . S
C180 N188 1.356 . S
C181 C180 1.363 . S
C181 C187 1.363 1_556 S
C182 C183 1.363 . S
C182 C187 1.379 . S
C182 N189 1.356 . S
C183 C182 1.363 . S
C183 C186 1.363 1_554 S
N184 C186 1.356 . S
N184 H196 0.984 . S
N184 H197 0.985 . S
N185 C187 1.356 . S
N185 H190 0.984 . S
N185 H191 0.985 . S
C186 C180 1.379 . S
C186 C183 1.363 1_556 S
C186 N184 1.356 . S
C187 C181 1.363 1_554 S
C187 C182 1.379 . S
C187 N185 1.356 . S
N188 C180 1.356 . S
N188 H194 0.984 . S
N188 H195 0.984 . S
N189 C182 1.356 . S
N189 H192 0.984 . S
N189 H193 0.985 . S
H190 N185 0.984 . S
H191 N185 0.985 . S
H192 N189 0.984 . S
H193 N189 0.985 . S
H194 N188 0.984 . S
H195 N188 0.984 . S
H196 N184 0.984 . S
H197 N184 0.985 . S
C198 C199 1.363 . S
C198 C204 1.379 1_455 S
C198 N206 1.356 . S
C199 C198 1.363 . S
C199 C205 1.363 1_556 S
C200 C201 1.363 . S
C200 C205 1.379 1_655 S
C200 N207 1.356 . S
C201 C200 1.363 . S
C201 C204 1.363 1_554 S
N202 C204 1.356 . S
N202 H214 0.984 . S
N202 H215 0.985 . S
N203 C205 1.356 . S
N203 H208 0.984 . S
N203 H209 0.985 . S
C204 C198 1.379 1_655 S
C204 C201 1.363 1_556 S
C204 N202 1.356 . S
C205 C199 1.363 1_554 S
C205 C200 1.379 1_455 S
C205 N203 1.356 . S
N206 C198 1.356 . S
N206 H212 0.984 . S
N206 H213 0.984 . S
N207 C200 1.356 . S
N207 H210 0.984 . S
N207 H211 0.985 . S
H208 N203 0.984 . S
H209 N203 0.985 . S
H210 N207 0.984 . S
H211 N207 0.985 . S
H212 N206 0.984 . S
H213 N206 0.984 . S
H214 N202 0.984 . S
H215 N202 0.985 . S
C216 C217 1.363 . S
C216 C222 1.379 1_565 S
C216 N224 1.356 . S
C217 C216 1.363 . S
C217 C223 1.363 1_554 S
C218 C219 1.363 . S
C218 C223 1.379 1_545 S
C218 N225 1.356 . S
C219 C218 1.363 . S
C219 C222 1.363 1_556 S
N220 C222 1.356 . S
N220 H232 0.984 . S
N220 H233 0.985 . S
N221 C223 1.356 . S
N221 H226 0.984 . S
N221 H227 0.985 . S
C222 C216 1.379 1_545 S
C222 C219 1.363 1_554 S
C222 N220 1.356 . S
C223 C217 1.363 1_556 S
C223 C218 1.379 1_565 S
C223 N221 1.356 . S
N224 C216 1.356 . S
N224 H230 0.984 . S
N224 H231 0.984 . S
N225 C218 1.356 . S
N225 H228 0.984 . S
N225 H229 0.985 . S
H226 N221 0.984 . S
H227 N221 0.985 . S
H228 N225 0.984 . S
H229 N225 0.985 . S
H230 N224 0.984 . S
H231 N224 0.984 . S
H232 N220 0.984 . S
H233 N220 0.985 . S
C234 C235 1.363 1_556 S
C234 C240 1.379 . S
C234 N242 1.356 . S
C235 C234 1.363 1_554 S
C235 C241 1.363 . S
C236 C237 1.363 1_554 S
C236 C241 1.379 . S
C236 N243 1.356 . S
C237 C236 1.363 1_556 S
C237 C240 1.363 . S
N238 C240 1.356 . S
N238 H250 0.984 . S
N238 H251 0.985 . S
N239 C241 1.356 . S
N239 H244 0.984 . S
N239 H245 0.985 . S
C240 C234 1.379 . S
C240 C237 1.363 . S
C240 N238 1.356 . S
C241 C235 1.363 . S
C241 C236 1.379 . S
C241 N239 1.356 . S
N242 C234 1.356 . S
N242 H248 0.984 . S
N242 H249 0.984 . S
N243 C236 1.356 . S
N243 H246 0.984 . S
N243 H247 0.985 . S
H244 N239 0.984 . S
H245 N239 0.985 . S
H246 N243 0.984 . S
H247 N243 0.985 . S
H248 N242 0.984 . S
H249 N242 0.984 . S
H250 N238 0.984 . S
H251 N238 0.985 . S
C252 C253 1.363 . S
C252 C258 1.379 . S
C252 N260 1.356 . S
C253 C252 1.363 . S
C253 C259 1.363 1_554 S
C254 C255 1.363 . S
C254 C259 1.379 . S
C254 N261 1.356 . S
C255 C254 1.363 . S
C255 C258 1.363 1_556 S
N256 C258 1.356 . S
N256 H268 0.984 . S
N256 H269 0.985 . S
N257 C259 1.356 . S
N257 H262 0.984 . S
N257 H263 0.985 . S
C258 C252 1.379 . S
C258 C255 1.363 1_554 S
C258 N256 1.356 . S
C259 C253 1.363 1_556 S
C259 C254 1.379 . S
C259 N257 1.356 . S
N260 C252 1.356 . S
N260 H266 0.984 . S
N260 H267 0.984 . S
N261 C254 1.356 . S
N261 H264 0.984 . S
N261 H265 0.985 . S
H262 N257 0.984 . S
H263 N257 0.985 . S
H264 N261 0.984 . S
H265 N261 0.985 . S
H266 N260 0.984 . S
H267 N260 0.984 . S
H268 N256 0.984 . S
H269 N256 0.985 . S
C270 C271 1.363 1_554 S
C270 C276 1.379 . S
C270 N278 1.356 . S
C271 C270 1.363 1_556 S
C271 C277 1.363 . S
C272 C273 1.363 1_556 S
C272 C277 1.379 . S
C272 N279 1.356 . S
C273 C272 1.363 1_554 S
C273 C276 1.363 . S
N274 C276 1.356 . S
N274 H286 0.984 . S
N274 H287 0.985 . S
N275 C277 1.356 . S
N275 H280 0.984 . S
N275 H281 0.985 . S
C276 C270 1.379 . S
C276 C273 1.363 . S
C276 N274 1.356 . S
C277 C271 1.363 . S
C277 C272 1.379 . S
C277 N275 1.356 . S
N278 C270 1.356 . S
N278 H284 0.984 . S
N278 H285 0.984 . S
N279 C272 1.356 . S
N279 H282 0.984 . S
N279 H283 0.985 . S
H280 N275 0.984 . S
H281 N275 0.985 . S
H282 N279 0.984 . S
H283 N279 0.985 . S
H284 N278 0.984 . S
H285 N278 0.984 . S
H286 N274 0.984 . S
H287 N274 0.985 . S
C288 C289 1.363 . S
C288 C294 1.379 . S
C288 N296 1.356 . S
C289 C288 1.363 . S
C289 C295 1.363 1_556 S
C290 C291 1.363 . S
C290 C295 1.379 . S
C290 N297 1.356 . S
C291 C290 1.363 . S
C291 C294 1.363 1_554 S
N292 C294 1.356 . S
N292 H304 0.984 . S
N292 H305 0.985 . S
N293 C295 1.356 . S
N293 H298 0.984 . S
N293 H299 0.985 . S
C294 C288 1.379 . S
C294 C291 1.363 1_556 S
C294 N292 1.356 . S
C295 C289 1.363 1_554 S
C295 C290 1.379 . S
C295 N293 1.356 . S
N296 C288 1.356 . S
N296 H302 0.984 . S
N296 H303 0.984 . S
N297 C290 1.356 . S
N297 H300 0.984 . S
N297 H301 0.985 . S
H298 N293 0.984 . S
H299 N293 0.985 . S
H300 N297 0.984 . S
H301 N297 0.985 . S
H302 N296 0.984 . S
H303 N296 0.984 . S
H304 N292 0.984 . S
H305 N292 0.985 . S
C306 C307 1.363 . S
C306 C312 1.379 . S
C306 N314 1.356 . S
C307 C306 1.363 . S
C307 C313 1.363 1_556 S
C308 C309 1.363 . S
C308 C313 1.379 . S
C308 N315 1.356 . S
C309 C308 1.363 . S
C309 C312 1.363 1_554 S
N310 C312 1.356 . S
N310 H322 0.984 . S
N310 H323 0.985 . S
N311 C313 1.356 . S
N311 H316 0.984 . S
N311 H317 0.985 . S
C312 C306 1.379 . S
C312 C309 1.363 1_556 S
C312 N310 1.356 . S
C313 C307 1.363 1_554 S
C313 C308 1.379 . S
C313 N311 1.356 . S
N314 C306 1.356 . S
N314 H320 0.984 . S
N314 H321 0.984 . S
N315 C308 1.356 . S
N315 H318 0.984 . S
N315 H319 0.985 . S
H316 N311 0.984 . S
H317 N311 0.985 . S
H318 N315 0.984 . S
H319 N315 0.985 . S
H320 N314 0.984 . S
H321 N314 0.984 . S
H322 N310 0.984 . S
H323 N310 0.985 . S
C324 C325 1.363 1_556 S
C324 C330 1.379 . S
C324 N332 1.356 . S
C325 C324 1.363 1_554 S
C325 C331 1.363 . S
C326 C327 1.363 1_554 S
C326 C331 1.379 . S
C326 N333 1.356 . S
C327 C326 1.363 1_556 S
C327 C330 1.363 . S
N328 C330 1.356 . S
N328 H340 0.984 . S
N328 H341 0.985 . S
N329 C331 1.356 . S
N329 H334 0.984 . S
N329 H335 0.985 . S
C330 C324 1.379 . S
C330 C327 1.363 . S
C330 N328 1.356 . S
C331 C325 1.363 . S
C331 C326 1.379 . S
C331 N329 1.356 . S
N332 C324 1.356 . S
N332 H338 0.984 . S
N332 H339 0.984 . S
N333 C326 1.356 . S
N333 H336 0.984 . S
N333 H337 0.985 . S
H334 N329 0.984 . S
H335 N329 0.985 . S
H336 N333 0.984 . S
H337 N333 0.985 . S
H338 N332 0.984 . S
H339 N332 0.984 . S
H340 N328 0.984 . S
H341 N328 0.985 . S
C342 C343 1.363 . S
C342 C348 1.379 . S
C342 N350 1.356 . S
C343 C342 1.363 . S
C343 C349 1.363 . S
C344 C345 1.363 . S
C344 C349 1.379 . S
C344 N351 1.356 . S
C345 C344 1.363 . S
C345 C348 1.363 . S
N346 C348 1.356 . S
N346 H358 0.984 . S
N346 H359 0.985 . S
N347 C349 1.356 . S
N347 H352 0.984 . S
N347 H353 0.985 . S
C348 C342 1.379 . S
C348 C345 1.363 . S
C348 N346 1.356 . S
C349 C343 1.363 . S
C349 C344 1.379 . S
C349 N347 1.356 . S
N350 C342 1.356 . S
N350 H356 0.984 . S
N350 H357 0.984 . S
N351 C344 1.356 . S
N351 H354 0.984 . S
N351 H355 0.985 . S
H352 N347 0.984 . S
H353 N347 0.985 . S
H354 N351 0.984 . S
H355 N351 0.985 . S
H356 N350 0.984 . S
H357 N350 0.984 . S
H358 N346 0.984 . S
H359 N346 0.985 . S
C360 C361 1.363 . S
C360 C366 1.379 . S
C360 N368 1.356 . S
C361 C360 1.363 . S
C361 C367 1.363 . S
C362 C363 1.363 . S
C362 C367 1.379 . S
C362 N369 1.356 . S
C363 C362 1.363 . S
C363 C366 1.363 . S
N364 C366 1.356 . S
N364 H376 0.984 . S
N364 H377 0.985 . S
N365 C367 1.356 . S
N365 H370 0.984 . S
N365 H371 0.985 . S
C366 C360 1.379 . S
C366 C363 1.363 . S
C366 N364 1.356 . S
C367 C361 1.363 . S
C367 C362 1.379 . S
C367 N365 1.356 . S
N368 C360 1.356 . S
N368 H374 0.984 . S
N368 H375 0.984 . S
N369 C362 1.356 . S
N369 H372 0.984 . S
N369 H373 0.985 . S
H370 N365 0.984 . S
H371 N365 0.985 . S
H372 N369 0.984 . S
H373 N369 0.985 . S
H374 N368 0.984 . S
H375 N368 0.984 . S
H376 N364 0.984 . S
H377 N364 0.985 . S
C378 C379 1.363 . S
C378 C384 1.379 . S
C378 N386 1.356 . S
C379 C378 1.363 . S
C379 C385 1.363 . S
C380 C381 1.363 . S
C380 C385 1.379 . S
C380 N387 1.356 . S
C381 C380 1.363 . S
C381 C384 1.363 . S
N382 C384 1.356 . S
N382 H394 0.984 . S
N382 H395 0.985 . S
N383 C385 1.356 . S
N383 H388 0.984 . S
N383 H389 0.985 . S
C384 C378 1.379 . S
C384 C381 1.363 . S
C384 N382 1.356 . S
C385 C379 1.363 . S
C385 C380 1.379 . S
C385 N383 1.356 . S
N386 C378 1.356 . S
N386 H392 0.984 . S
N386 H393 0.984 . S
N387 C380 1.356 . S
N387 H390 0.984 . S
N387 H391 0.985 . S
H388 N383 0.984 . S
H389 N383 0.985 . S
H390 N387 0.984 . S
H391 N387 0.985 . S
H392 N386 0.984 . S
H393 N386 0.984 . S
H394 N382 0.984 . S
H395 N382 0.985 . S
C396 C397 1.363 . S
C396 C402 1.379 . S
C396 N404 1.356 . S
C397 C396 1.363 . S
C397 C403 1.363 . S
C398 C399 1.363 . S
C398 C403 1.379 . S
C398 N405 1.356 . S
C399 C398 1.363 . S
C399 C402 1.363 . S
N400 C402 1.356 . S
N400 H412 0.984 . S
N400 H413 0.985 . S
N401 C403 1.356 . S
N401 H406 0.984 . S
N401 H407 0.985 . S
C402 C396 1.379 . S
C402 C399 1.363 . S
C402 N400 1.356 . S
C403 C397 1.363 . S
C403 C398 1.379 . S
C403 N401 1.356 . S
N404 C396 1.356 . S
N404 H410 0.984 . S
N404 H411 0.984 . S
N405 C398 1.356 . S
N405 H408 0.984 . S
N405 H409 0.985 . S
H406 N401 0.984 . S
H407 N401 0.985 . S
H408 N405 0.984 . S
H409 N405 0.985 . S
H410 N404 0.984 . S
H411 N404 0.984 . S
H412 N400 0.984 . S
H413 N400 0.985 . S
C414 C415 1.363 . S
C414 C420 1.379 . S
C414 N422 1.356 . S
C415 C414 1.363 . S
C415 C421 1.363 . S
C416 C417 1.363 . S
C416 C421 1.379 . S
C416 N423 1.356 . S
C417 C416 1.363 . S
C417 C420 1.363 . S
N418 C420 1.356 . S
N418 H430 0.984 . S
N418 H431 0.985 . S
N419 C421 1.356 . S
N419 H424 0.984 . S
N419 H425 0.985 . S
C420 C414 1.379 . S
C420 C417 1.363 . S
C420 N418 1.356 . S
C421 C415 1.363 . S
C421 C416 1.379 . S
C421 N419 1.356 . S
N422 C414 1.356 . S
N422 H428 0.984 . S
N422 H429 0.984 . S
N423 C416 1.356 . S
N423 H426 0.984 . S
N423 H427 0.985 . S
H424 N419 0.984 . S
H425 N419 0.985 . S
H426 N423 0.984 . S
H427 N423 0.985 . S
H428 N422 0.984 . S
H429 N422 0.984 . S
H430 N418 0.984 . S
H431 N418 0.985 . S
C432 C433 1.363 . S
C432 C438 1.379 . S
C432 N440 1.356 . S
C433 C432 1.363 . S
C433 C439 1.363 . S
C434 C435 1.363 . S
C434 C439 1.379 . S
C434 N441 1.356 . S
C435 C434 1.363 . S
C435 C438 1.363 . S
N436 C438 1.356 . S
N436 H448 0.984 . S
N436 H449 0.985 . S
N437 C439 1.356 . S
N437 H442 0.984 . S
N437 H443 0.985 . S
C438 C432 1.379 . S
C438 C435 1.363 . S
C438 N436 1.356 . S
C439 C433 1.363 . S
C439 C434 1.379 . S
C439 N437 1.356 . S
N440 C432 1.356 . S
N440 H446 0.984 . S
N440 H447 0.984 . S
N441 C434 1.356 . S
N441 H444 0.984 . S
N441 H445 0.985 . S
H442 N437 0.984 . S
H443 N437 0.985 . S
H444 N441 0.984 . S
H445 N441 0.985 . S
H446 N440 0.984 . S
H447 N440 0.984 . S
H448 N436 0.984 . S
H449 N436 0.985 . S
C127 C121 1.284 1_554 S
C129 C3 1.284 1_556 S
C145 C16 1.284 1_554 S
C147 C24 1.284 1_556 S
C163 C37 1.284 1_554 S
C165 C58 1.284 1_556 S
C181 C79 1.284 1_556 S
C183 C45 1.284 1_554 S
C199 C100 1.284 1_556 S
C201 C66 1.284 1_554 S
C217 C87 1.284 1_554 S
C219 C108 1.284 1_556 S
C235 C103 1.487 . S
C237 C19 1.487 . S
C253 C125 1.487 . S
C255 C40 1.487 . S
C271 C62 1.487 . S
C273 C20 1.487 . S
C289 C83 1.487 . S
C291 C41 1.487 . S
C307 C104 1.487 . S
C309 C61 1.487 . S
C325 C82 1.487 . S
C327 C124 1.487 . S
C343 C7 1.318 . S
C345 C4 1.318 . S
C361 C28 1.318 . S
C363 C25 1.318 . S
C379 C46 1.318 . S
C381 C49 1.318 . S
C397 C67 1.318 . S
C399 C70 1.318 . S
C415 C91 1.318 . S
C417 C88 1.318 . S
C433 C112 1.318 . S
C435 C109 1.318 . S
