# Generated by pormake.
# Topology ulj, (4)-cn, num edge types: 1
# Building blocks:
#     Node 0, Type 0, BuildingBlock: MUDLON_clean_sbu_0, # of connection points: 4
#     Node 1, Type 0, BuildingBlock: MUDLON_clean_sbu_0, # of connection points: 4
#     Node 2, Type 0, BuildingBlock: MUDLON_clean_sbu_0, # of connection points: 4
#     Node 3, Type 0, BuildingBlock: MUDLON_clean_sbu_0, # of connection points: 4
#     Node 4, Type 0, BuildingBlock: MUDLON_clean_sbu_0, # of connection points: 4
#     Node 5, Type 0, BuildingBlock: MUDLON_clean_sbu_0, # of connection points: 4
#     Node 6, Type 0, BuildingBlock: MUDLON_clean_sbu_0, # of connection points: 4
#     Node 7, Type 0, BuildingBlock: MUDLON_clean_sbu_0, # of connection points: 4
#     Node 8, Type 0, BuildingBlock: MUDLON_clean_sbu_0, # of connection points: 4
#     Node 9, Type 0, BuildingBlock: MUDLON_clean_sbu_0, # of connection points: 4
#     Node 10, Type 0, BuildingBlock: MUDLON_clean_sbu_0, # of connection points: 4
#     Node 11, Type 0, BuildingBlock: MUDLON_clean_sbu_0, # of connection points: 4
#     Node 12, Type 0, BuildingBlock: MUDLON_clean_sbu_0, # of connection points: 4
#     Node 13, Type 0, BuildingBlock: MUDLON_clean_sbu_0, # of connection points: 4
#     Node 14, Type 0, BuildingBlock: MUDLON_clean_sbu_0, # of connection points: 4
#     Node 15, Type 0, BuildingBlock: MUDLON_clean_sbu_0, # of connection points: 4
#     Node 16, Type 0, BuildingBlock: MUDLON_clean_sbu_0, # of connection points: 4
#     Node 17, Type 0, BuildingBlock: MUDLON_clean_sbu_0, # of connection points: 4
#     Node 18, Type 0, BuildingBlock: MUDLON_clean_sbu_0, # of connection points: 4
#     Node 19, Type 0, BuildingBlock: MUDLON_clean_sbu_0, # of connection points: 4
#     Node 20, Type 0, BuildingBlock: MUDLON_clean_sbu_0, # of connection points: 4
#     Node 21, Type 0, BuildingBlock: MUDLON_clean_sbu_0, # of connection points: 4
#     Node 22, Type 0, BuildingBlock: MUDLON_clean_sbu_0, # of connection points: 4
#     Node 23, Type 0, BuildingBlock: MUDLON_clean_sbu_0, # of connection points: 4
#     Node 24, Type 0, BuildingBlock: MUDLON_clean_sbu_0, # of connection points: 4
#     Node 25, Type 0, BuildingBlock: MUDLON_clean_sbu_0, # of connection points: 4
#     Node 26, Type 0, BuildingBlock: MUDLON_clean_sbu_0, # of connection points: 4
#     Node 27, Type 0, BuildingBlock: MUDLON_clean_sbu_0, # of connection points: 4
#     Node 28, Type 0, BuildingBlock: MUDLON_clean_sbu_0, # of connection points: 4
#     Node 29, Type 0, BuildingBlock: MUDLON_clean_sbu_0, # of connection points: 4
#     Node 30, Type 0, BuildingBlock: MUDLON_clean_sbu_0, # of connection points: 4
#     Node 31, Type 0, BuildingBlock: MUDLON_clean_sbu_0, # of connection points: 4
#     Node 32, Type 0, BuildingBlock: MUDLON_clean_sbu_0, # of connection points: 4
#     Node 33, Type 0, BuildingBlock: MUDLON_clean_sbu_0, # of connection points: 4
#     Node 34, Type 0, BuildingBlock: MUDLON_clean_sbu_0, # of connection points: 4
#     Node 35, Type 0, BuildingBlock: MUDLON_clean_sbu_0, # of connection points: 4
#     Node 36, Type 0, BuildingBlock: MUDLON_clean_sbu_0, # of connection points: 4
#     Node 37, Type 0, BuildingBlock: MUDLON_clean_sbu_0, # of connection points: 4
#     Node 38, Type 0, BuildingBlock: MUDLON_clean_sbu_0, # of connection points: 4
#     Node 39, Type 0, BuildingBlock: MUDLON_clean_sbu_0, # of connection points: 4
#     Node 40, Type 0, BuildingBlock: MUDLON_clean_sbu_0, # of connection points: 4
#     Node 41, Type 0, BuildingBlock: MUDLON_clean_sbu_0, # of connection points: 4
#     Node 42, Type 0, BuildingBlock: MUDLON_clean_sbu_0, # of connection points: 4
#     Node 43, Type 0, BuildingBlock: MUDLON_clean_sbu_0, # of connection points: 4
#     Node 44, Type 0, BuildingBlock: MUDLON_clean_sbu_0, # of connection points: 4
#     Node 45, Type 0, BuildingBlock: MUDLON_clean_sbu_0, # of connection points: 4
#     Node 46, Type 0, BuildingBlock: MUDLON_clean_sbu_0, # of connection points: 4
#     Node 47, Type 0, BuildingBlock: MUDLON_clean_sbu_0, # of connection points: 4
#     Edge 48, Type (0, 0), BuildingBlock: OJICUG_clean_linker_0, # of connection points: 2
#     Edge 49, Type (0, 0), BuildingBlock: OJICUG_clean_linker_0, # of connection points: 2
#     Edge 50, Type (0, 0), BuildingBlock: OJICUG_clean_linker_0, # of connection points: 2
#     Edge 51, Type (0, 0), BuildingBlock: OJICUG_clean_linker_0, # of connection points: 2
#     Edge 52, Type (0, 0), BuildingBlock: OJICUG_clean_linker_0, # of connection points: 2
#     Edge 53, Type (0, 0), BuildingBlock: OJICUG_clean_linker_0, # of connection points: 2
#     Edge 54, Type (0, 0), BuildingBlock: OJICUG_clean_linker_0, # of connection points: 2
#     Edge 55, Type (0, 0), BuildingBlock: OJICUG_clean_linker_0, # of connection points: 2
#     Edge 56, Type (0, 0), BuildingBlock: OJICUG_clean_linker_0, # of connection points: 2
#     Edge 57, Type (0, 0), BuildingBlock: OJICUG_clean_linker_0, # of connection points: 2
#     Edge 58, Type (0, 0), BuildingBlock: OJICUG_clean_linker_0, # of connection points: 2
#     Edge 59, Type (0, 0), BuildingBlock: OJICUG_clean_linker_0, # of connection points: 2
#     Edge 60, Type (0, 0), BuildingBlock: OJICUG_clean_linker_0, # of connection points: 2
#     Edge 61, Type (0, 0), BuildingBlock: OJICUG_clean_linker_0, # of connection points: 2
#     Edge 62, Type (0, 0), BuildingBlock: OJICUG_clean_linker_0, # of connection points: 2
#     Edge 63, Type (0, 0), BuildingBlock: OJICUG_clean_linker_0, # of connection points: 2
#     Edge 64, Type (0, 0), BuildingBlock: OJICUG_clean_linker_0, # of connection points: 2
#     Edge 65, Type (0, 0), BuildingBlock: OJICUG_clean_linker_0, # of connection points: 2
#     Edge 66, Type (0, 0), BuildingBlock: OJICUG_clean_linker_0, # of connection points: 2
#     Edge 67, Type (0, 0), BuildingBlock: OJICUG_clean_linker_0, # of connection points: 2
#     Edge 68, Type (0, 0), BuildingBlock: OJICUG_clean_linker_0, # of connection points: 2
#     Edge 69, Type (0, 0), BuildingBlock: OJICUG_clean_linker_0, # of connection points: 2
#     Edge 70, Type (0, 0), BuildingBlock: OJICUG_clean_linker_0, # of connection points: 2
#     Edge 71, Type (0, 0), BuildingBlock: OJICUG_clean_linker_0, # of connection points: 2
#     Edge 72, Type (0, 0), BuildingBlock: OJICUG_clean_linker_0, # of connection points: 2
#     Edge 73, Type (0, 0), BuildingBlock: OJICUG_clean_linker_0, # of connection points: 2
#     Edge 74, Type (0, 0), BuildingBlock: OJICUG_clean_linker_0, # of connection points: 2
#     Edge 75, Type (0, 0), BuildingBlock: OJICUG_clean_linker_0, # of connection points: 2
#     Edge 76, Type (0, 0), BuildingBlock: OJICUG_clean_linker_0, # of connection points: 2
#     Edge 77, Type (0, 0), BuildingBlock: OJICUG_clean_linker_0, # of connection points: 2
#     Edge 78, Type (0, 0), BuildingBlock: OJICUG_clean_linker_0, # of connection points: 2
#     Edge 79, Type (0, 0), BuildingBlock: OJICUG_clean_linker_0, # of connection points: 2
#     Edge 80, Type (0, 0), BuildingBlock: OJICUG_clean_linker_0, # of connection points: 2
#     Edge 81, Type (0, 0), BuildingBlock: OJICUG_clean_linker_0, # of connection points: 2
#     Edge 82, Type (0, 0), BuildingBlock: OJICUG_clean_linker_0, # of connection points: 2
#     Edge 83, Type (0, 0), BuildingBlock: OJICUG_clean_linker_0, # of connection points: 2
#     Edge 84, Type (0, 0), BuildingBlock: OJICUG_clean_linker_0, # of connection points: 2
#     Edge 85, Type (0, 0), BuildingBlock: OJICUG_clean_linker_0, # of connection points: 2
#     Edge 86, Type (0, 0), BuildingBlock: OJICUG_clean_linker_0, # of connection points: 2
#     Edge 87, Type (0, 0), BuildingBlock: OJICUG_clean_linker_0, # of connection points: 2
#     Edge 88, Type (0, 0), BuildingBlock: OJICUG_clean_linker_0, # of connection points: 2
#     Edge 89, Type (0, 0), BuildingBlock: OJICUG_clean_linker_0, # of connection points: 2
#     Edge 90, Type (0, 0), BuildingBlock: OJICUG_clean_linker_0, # of connection points: 2
#     Edge 91, Type (0, 0), BuildingBlock: OJICUG_clean_linker_0, # of connection points: 2
#     Edge 92, Type (0, 0), BuildingBlock: OJICUG_clean_linker_0, # of connection points: 2
#     Edge 93, Type (0, 0), BuildingBlock: OJICUG_clean_linker_0, # of connection points: 2
#     Edge 94, Type (0, 0), BuildingBlock: OJICUG_clean_linker_0, # of connection points: 2
#     Edge 95, Type (0, 0), BuildingBlock: OJICUG_clean_linker_0, # of connection points: 2
#     Edge 96, Type (0, 0), BuildingBlock: OJICUG_clean_linker_0, # of connection points: 2
#     Edge 97, Type (0, 0), BuildingBlock: OJICUG_clean_linker_0, # of connection points: 2
#     Edge 98, Type (0, 0), BuildingBlock: OJICUG_clean_linker_0, # of connection points: 2
#     Edge 99, Type (0, 0), BuildingBlock: OJICUG_clean_linker_0, # of connection points: 2
#     Edge 100, Type (0, 0), BuildingBlock: OJICUG_clean_linker_0, # of connection points: 2
#     Edge 101, Type (0, 0), BuildingBlock: OJICUG_clean_linker_0, # of connection points: 2
#     Edge 102, Type (0, 0), BuildingBlock: OJICUG_clean_linker_0, # of connection points: 2
#     Edge 103, Type (0, 0), BuildingBlock: OJICUG_clean_linker_0, # of connection points: 2
#     Edge 104, Type (0, 0), BuildingBlock: OJICUG_clean_linker_0, # of connection points: 2
#     Edge 105, Type (0, 0), BuildingBlock: OJICUG_clean_linker_0, # of connection points: 2
#     Edge 106, Type (0, 0), BuildingBlock: OJICUG_clean_linker_0, # of connection points: 2
#     Edge 107, Type (0, 0), BuildingBlock: OJICUG_clean_linker_0, # of connection points: 2
#     Edge 108, Type (0, 0), BuildingBlock: OJICUG_clean_linker_0, # of connection points: 2
#     Edge 109, Type (0, 0), BuildingBlock: OJICUG_clean_linker_0, # of connection points: 2
#     Edge 110, Type (0, 0), BuildingBlock: OJICUG_clean_linker_0, # of connection points: 2
#     Edge 111, Type (0, 0), BuildingBlock: OJICUG_clean_linker_0, # of connection points: 2
#     Edge 112, Type (0, 0), BuildingBlock: OJICUG_clean_linker_0, # of connection points: 2
#     Edge 113, Type (0, 0), BuildingBlock: OJICUG_clean_linker_0, # of connection points: 2
#     Edge 114, Type (0, 0), BuildingBlock: OJICUG_clean_linker_0, # of connection points: 2
#     Edge 115, Type (0, 0), BuildingBlock: OJICUG_clean_linker_0, # of connection points: 2
#     Edge 116, Type (0, 0), BuildingBlock: OJICUG_clean_linker_0, # of connection points: 2
#     Edge 117, Type (0, 0), BuildingBlock: OJICUG_clean_linker_0, # of connection points: 2
#     Edge 118, Type (0, 0), BuildingBlock: OJICUG_clean_linker_0, # of connection points: 2
#     Edge 119, Type (0, 0), BuildingBlock: OJICUG_clean_linker_0, # of connection points: 2
#     Edge 120, Type (0, 0), BuildingBlock: OJICUG_clean_linker_0, # of connection points: 2
#     Edge 121, Type (0, 0), BuildingBlock: OJICUG_clean_linker_0, # of connection points: 2
#     Edge 122, Type (0, 0), BuildingBlock: OJICUG_clean_linker_0, # of connection points: 2
#     Edge 123, Type (0, 0), BuildingBlock: OJICUG_clean_linker_0, # of connection points: 2
#     Edge 124, Type (0, 0), BuildingBlock: OJICUG_clean_linker_0, # of connection points: 2
#     Edge 125, Type (0, 0), BuildingBlock: OJICUG_clean_linker_0, # of connection points: 2
#     Edge 126, Type (0, 0), BuildingBlock: OJICUG_clean_linker_0, # of connection points: 2
#     Edge 127, Type (0, 0), BuildingBlock: OJICUG_clean_linker_0, # of connection points: 2
#     Edge 128, Type (0, 0), BuildingBlock: OJICUG_clean_linker_0, # of connection points: 2
#     Edge 129, Type (0, 0), BuildingBlock: OJICUG_clean_linker_0, # of connection points: 2
#     Edge 130, Type (0, 0), BuildingBlock: OJICUG_clean_linker_0, # of connection points: 2
#     Edge 131, Type (0, 0), BuildingBlock: OJICUG_clean_linker_0, # of connection points: 2
#     Edge 132, Type (0, 0), BuildingBlock: OJICUG_clean_linker_0, # of connection points: 2
#     Edge 133, Type (0, 0), BuildingBlock: OJICUG_clean_linker_0, # of connection points: 2
#     Edge 134, Type (0, 0), BuildingBlock: OJICUG_clean_linker_0, # of connection points: 2
#     Edge 135, Type (0, 0), BuildingBlock: OJICUG_clean_linker_0, # of connection points: 2
#     Edge 136, Type (0, 0), BuildingBlock: OJICUG_clean_linker_0, # of connection points: 2
#     Edge 137, Type (0, 0), BuildingBlock: OJICUG_clean_linker_0, # of connection points: 2
#     Edge 138, Type (0, 0), BuildingBlock: OJICUG_clean_linker_0, # of connection points: 2
#     Edge 139, Type (0, 0), BuildingBlock: OJICUG_clean_linker_0, # of connection points: 2
#     Edge 140, Type (0, 0), BuildingBlock: OJICUG_clean_linker_0, # of connection points: 2
#     Edge 141, Type (0, 0), BuildingBlock: OJICUG_clean_linker_0, # of connection points: 2
#     Edge 142, Type (0, 0), BuildingBlock: OJICUG_clean_linker_0, # of connection points: 2
#     Edge 143, Type (0, 0), BuildingBlock: OJICUG_clean_linker_0, # of connection points: 2
# Relax obj value: 0.200
# Max RMSD: 0.250
# Mean RMSD: 0.237
data_MOF--net-ulj--node1-MUDLON_clean_sbu_0--edge1-OJICUG_clean_linker_0
_symmetry_space_group_name_H-M    P1
_symmetry_Int_Tables_number       1
_symmetry_cell_setting            triclinic
loop_
_symmetry_equiv_pos_as_xyz
'x, y, z'
_cell_length_a     49.061933
_cell_length_b     49.065653
_cell_length_c     49.012569
_cell_angle_alpha  90.025641
_cell_angle_beta   90.02705
_cell_angle_gamma 90.030224
loop_
_atom_site_label
_atom_site_type_symbol
_atom_site_fract_x
_atom_site_fract_y
_atom_site_fract_z
_atom_type_partial_charge
Mg0 Mg 0.12192 0.20699 0.32697 0.0
C1 C 0.08777 0.15714 0.33947 0.0
O2 O 0.11203 0.14734 0.34512 0.0
C3 C 0.1412 0.25277 0.29353 0.0
O4 O 0.15236 0.25695 0.31755 0.0
C5 C 0.10318 0.22949 0.3815 0.0
O6 O 0.09128 0.20553 0.38259 0.0
O7 O 0.11891 0.23479 0.36156 0.0
O8 O 0.08593 0.18096 0.32933 0.0
O9 O 0.15911 0.183 0.32552 0.0
C10 C 0.16117 0.16675 0.30538 0.0
O11 O 0.14026 0.16408 0.28883 0.0
O12 O 0.12502 0.23264 0.29076 0.0
Mg13 Mg 0.45745 0.6177 0.93519 0.0
C14 C 0.43532 0.6748 0.936 0.0
O15 O 0.45939 0.67915 0.94694 0.0
C16 C 0.49772 0.59978 0.97629 0.0
O17 O 0.50291 0.58383 0.9554 0.0
C18 C 0.50259 0.60996 0.89005 0.0
O19 O 0.50314 0.58399 0.89652 0.0
O20 O 0.48609 0.62583 0.90218 0.0
O21 O 0.42808 0.65043 0.93103 0.0
O22 O 0.43623 0.57877 0.93565 0.0
C23 C 0.41698 0.57742 0.95303 0.0
O24 O 0.41042 0.59961 0.96654 0.0
O25 O 0.47943 0.61799 0.97374 0.0
Mg26 Mg 0.86988 0.28702 0.3207 0.0
C27 C 0.9005 0.33514 0.34143 0.0
O28 O 0.87517 0.34131 0.34756 0.0
C29 C 0.85154 0.24273 0.28564 0.0
O30 O 0.83765 0.24024 0.30843 0.0
C31 C 0.88077 0.26555 0.37811 0.0
O32 O 0.88793 0.29099 0.38226 0.0
O33 O 0.87079 0.25882 0.35509 0.0
O34 O 0.90485 0.314 0.32701 0.0
O35 O 0.83199 0.30974 0.31734 0.0
C36 C 0.82969 0.32538 0.29675 0.0
O37 O 0.85086 0.3286 0.28065 0.0
O38 O 0.86945 0.2615 0.28418 0.0
Mg39 Mg 0.54374 0.87571 0.93758 0.0
C40 C 0.5671 0.81908 0.9379 0.0
O41 O 0.54371 0.81445 0.95012 0.0
C42 C 0.50059 0.88685 0.9789 0.0
O43 O 0.49022 0.89831 0.95703 0.0
C44 C 0.49815 0.88415 0.89282 0.0
O45 O 0.49831 0.91017 0.89912 0.0
O46 O 0.51434 0.86795 0.90496 0.0
O47 O 0.57354 0.8435 0.93215 0.0
O48 O 0.56417 0.91517 0.93872 0.0
C49 C 0.58274 0.91722 0.95681 0.0
O50 O 0.58926 0.89541 0.97093 0.0
O51 O 0.52294 0.87387 0.97673 0.0
Mg52 Mg 0.13047 0.78889 0.17533 0.0
C53 C 0.09895 0.83562 0.15382 0.0
O54 O 0.1241 0.84162 0.14684 0.0
C55 C 0.12217 0.77012 0.2352 0.0
O56 O 0.10929 0.79338 0.23838 0.0
C57 C 0.12062 0.76497 0.11879 0.0
O58 O 0.11142 0.78959 0.11379 0.0
O59 O 0.13137 0.75996 0.14186 0.0
O60 O 0.09492 0.81473 0.16867 0.0
O61 O 0.16737 0.81297 0.17844 0.0
C62 C 0.16819 0.83107 0.197 0.0
O63 O 0.14614 0.83571 0.21147 0.0
O64 O 0.13091 0.7636 0.21171 0.0
Mg65 Mg 0.04651 0.6183 0.07015 0.0
C66 C 0.0731 0.67368 0.0639 0.0
O67 O 0.05216 0.67763 0.04765 0.0
C68 C 0.00259 0.61004 0.02821 0.0
O69 O 0.99031 0.60025 0.04989 0.0
C70 C 0.00029 0.60968 0.11377 0.0
O71 O 0.99985 0.58396 0.10632 0.0
O72 O 0.01718 0.62592 0.1027 0.0
O73 O 0.07636 0.65042 0.07477 0.0
O74 O 0.06713 0.57906 0.06948 0.0
C75 C 0.09107 0.57869 0.05945 0.0
O76 O 0.10279 0.60196 0.05328 0.0
O77 O 0.02616 0.62052 0.03085 0.0
Mg78 Mg 0.8777 0.71097 0.1831 0.0
C79 C 0.91116 0.66041 0.17104 0.0
O80 O 0.8867 0.6504 0.16669 0.0
C81 C 0.85997 0.75696 0.21736 0.0
O82 O 0.84832 0.76163 0.19367 0.0
C83 C 0.89486 0.7332 0.12793 0.0
O84 O 0.90652 0.70915 0.12651 0.0
O85 O 0.88008 0.73879 0.14851 0.0
O86 O 0.91339 0.68465 0.18006 0.0
O87 O 0.84016 0.68748 0.18446 0.0
C88 C 0.83646 0.6727 0.20547 0.0
O89 O 0.85611 0.67098 0.22362 0.0
O90 O 0.8757 0.73643 0.21954 0.0
Mg91 Mg 0.956 0.88069 0.06043 0.0
C92 C 0.93838 0.82199 0.06474 0.0
O93 O 0.96246 0.81857 0.05352 0.0
C94 C 0.992 0.90047 0.01717 0.0
O95 O 0.99535 0.91797 0.03721 0.0
C96 C 0.01091 0.87073 0.08536 0.0
O97 O 0.01552 0.8642 0.05981 0.0
O98 O 0.98737 0.87916 0.09222 0.0
O99 O 0.92958 0.84608 0.06832 0.0
O100 O 0.93247 0.91826 0.05897 0.0
C101 C 0.91614 0.92025 0.03886 0.0
O102 O 0.91315 0.89911 0.02265 0.0
O103 O 0.97592 0.88042 0.02076 0.0
Mg104 Mg 0.30686 0.11783 0.22384 0.0
C105 C 0.32906 0.08478 0.17742 0.0
O106 O 0.33599 0.10944 0.16962 0.0
C107 C 0.26606 0.13017 0.26723 0.0
O108 O 0.28791 0.14225 0.27696 0.0
C109 C 0.36273 0.11136 0.24967 0.0
O110 O 0.36846 0.10172 0.22533 0.0
O111 O 0.33902 0.12075 0.25421 0.0
O112 O 0.31513 0.08199 0.19913 0.0
O113 O 0.30356 0.15361 0.19832 0.0
C114 C 0.30994 0.17696 0.20748 0.0
O115 O 0.32126 0.17878 0.23172 0.0
O116 O 0.26807 0.11648 0.24525 0.0
Mg117 Mg 0.36169 0.43497 0.03852 0.0
C118 C 0.32904 0.41676 0.08697 0.0
O119 O 0.35301 0.40643 0.09297 0.0
C120 C 0.37991 0.47411 0.99551 0.0
O121 O 0.39345 0.45202 0.98881 0.0
C122 C 0.37528 0.38836 0.99742 0.0
O123 O 0.40099 0.39495 0.00102 0.0
O124 O 0.35681 0.40118 0.01029 0.0
O125 O 0.32684 0.43164 0.06582 0.0
O126 O 0.39964 0.43419 0.06115 0.0
C127 C 0.40257 0.45253 0.07927 0.0
O128 O 0.38199 0.46886 0.08446 0.0
O129 O 0.36336 0.47301 0.0155 0.0
Mg130 Mg 0.68144 0.36454 0.21334 0.0
C131 C 0.66091 0.39539 0.16354 0.0
O132 O 0.65789 0.37052 0.15409 0.0
C133 C 0.72349 0.35548 0.25621 0.0
O134 O 0.70211 0.34326 0.26675 0.0
C135 C 0.62757 0.37549 0.24148 0.0
O136 O 0.62163 0.38547 0.21734 0.0
O137 O 0.6505 0.36392 0.24501 0.0
O138 O 0.67175 0.39882 0.18689 0.0
O139 O 0.68452 0.32664 0.19086 0.0
C140 C 0.70376 0.32545 0.17352 0.0
O141 O 0.71827 0.34751 0.16894 0.0
O142 O 0.72079 0.36801 0.23363 0.0
Mg143 Mg 0.63303 0.06357 0.03904 0.0
C144 C 0.68968 0.06612 0.06407 0.0
O145 O 0.69607 0.05464 0.0407 0.0
C146 C 0.61757 0.02227 0.99743 0.0
O147 O 0.60374 0.04385 0.98977 0.0
C148 C 0.6204 0.10857 0.99616 0.0
O149 O 0.59468 0.10176 0.99914 0.0
O150 O 0.63864 0.09627 0.00984 0.0
O151 O 0.6647 0.07028 0.06951 0.0
O152 O 0.59355 0.06402 0.05862 0.0
C153 C 0.5907 0.04734 0.07825 0.0
O154 O 0.61206 0.0334 0.08645 0.0
O155 O 0.6337 0.02442 0.01772 0.0
Mg156 Mg 0.31282 0.87706 0.28178 0.0
C157 C 0.33525 0.91035 0.32788 0.0
O158 O 0.34341 0.88594 0.33524 0.0
C159 C 0.27228 0.86656 0.2379 0.0
O160 O 0.2944 0.85566 0.22747 0.0
C161 C 0.36733 0.88652 0.25385 0.0
O162 O 0.37304 0.89826 0.27725 0.0
O163 O 0.34436 0.87493 0.25081 0.0
O164 O 0.32055 0.91275 0.30665 0.0
O165 O 0.3107 0.84061 0.30643 0.0
C166 C 0.2915 0.83934 0.32379 0.0
O167 O 0.27574 0.86074 0.32715 0.0
O168 O 0.27393 0.8787 0.26079 0.0
Mg169 Mg 0.12329 0.42675 0.97815 0.0
C170 C 0.16156 0.41376 0.93229 0.0
O171 O 0.13824 0.40552 0.92198 0.0
C172 C 0.13398 0.48173 0.00856 0.0
O173 O 0.1582 0.48149 0.99715 0.0
C174 C 0.13882 0.37281 0.00405 0.0
O175 O 0.15587 0.37232 0.9834 0.0
O176 O 0.12172 0.39221 0.00576 0.0
O177 O 0.16157 0.42512 0.95564 0.0
O178 O 0.08905 0.42888 0.95036 0.0
C179 C 0.08883 0.44931 0.9344 0.0
O180 O 0.11 0.46573 0.93429 0.0
O181 O 0.11754 0.46226 0.00397 0.0
Mg182 Mg 0.68228 0.6363 0.27557 0.0
C183 C 0.66962 0.58234 0.30449 0.0
O184 O 0.68168 0.57159 0.28311 0.0
C185 C 0.72788 0.64051 0.23654 0.0
O186 O 0.7075 0.65157 0.22314 0.0
C187 C 0.6301 0.62366 0.245 0.0
O188 O 0.62183 0.6176 0.26975 0.0
O189 O 0.65391 0.63337 0.24172 0.0
O190 O 0.6687 0.60811 0.30684 0.0
O191 O 0.68472 0.6764 0.29368 0.0
C192 C 0.69818 0.67731 0.31584 0.0
O193 O 0.70691 0.65432 0.32646 0.0
O194 O 0.72318 0.62993 0.25978 0.0
Mg195 Mg 0.87149 0.06807 0.95769 0.0
C196 C 0.81527 0.07047 0.93166 0.0
O197 O 0.80885 0.05646 0.95358 0.0
C198 C 0.88061 0.02569 0.00066 0.0
O199 O 0.89094 0.04744 0.01238 0.0
C200 C 0.88498 0.11063 0.00289 0.0
O201 O 0.91041 0.10262 1.00042 0.0
O202 O 0.86664 0.09995 0.988 0.0
O203 O 0.84014 0.07637 0.92743 0.0
O204 O 0.91103 0.06793 0.93815 0.0
C205 C 0.9135 0.05191 0.9179 0.0
O206 O 0.89183 0.03877 0.90917 0.0
O207 O 0.86906 0.02826 0.97752 0.0
Mg208 Mg 0.21226 0.30547 0.14346 0.0
C209 C 0.16793 0.31755 0.10291 0.0
O210 O 0.15551 0.32455 0.1256 0.0
C211 C 0.25904 0.27288 0.16325 0.0
O212 O 0.26316 0.29647 0.17525 0.0
C213 C 0.23505 0.36137 0.12934 0.0
O214 O 0.21242 0.36262 0.11506 0.0
O215 O 0.23888 0.34106 0.14501 0.0
O216 O 0.19156 0.30704 0.10439 0.0
O217 O 0.18349 0.30029 0.17685 0.0
C218 C 0.18989 0.30686 0.20109 0.0
O219 O 0.21291 0.3199 0.2053 0.0
O220 O 0.23901 0.27047 0.14693 0.0
Mg221 Mg 0.2099 0.69251 0.36384 0.0
C222 C 0.16512 0.66488 0.3935 0.0
O223 O 0.16051 0.65738 0.36817 0.0
C224 C 0.25343 0.73409 0.3581 0.0
O225 O 0.26491 0.71259 0.34702 0.0
C226 C 0.24041 0.63907 0.37362 0.0
O227 O 0.2172 0.63217 0.38502 0.0
O228 O 0.24215 0.66191 0.36143 0.0
O229 O 0.18424 0.68172 0.39818 0.0
O230 O 0.18536 0.69833 0.32732 0.0
C231 C 0.16619 0.71565 0.32975 0.0
O232 O 0.16159 0.7263 0.35392 0.0
O233 O 0.22999 0.73156 0.36888 0.0
Mg234 Mg 0.94665 0.53372 0.88291 0.0
C235 C 0.96674 0.575 0.92204 0.0
O236 O 0.98285 0.57882 0.90097 0.0
C237 C 0.89346 0.50491 0.86932 0.0
O238 O 0.88874 0.52786 0.85637 0.0
C239 C 0.98703 0.48918 0.89232 0.0
O240 O 0.96445 0.47737 0.90053 0.0
O241 O 0.98572 0.51303 0.88223 0.0
O242 O 0.94763 0.55758 0.92008 0.0
O243 O 0.94041 0.55929 0.84738 0.0
C244 C 0.92671 0.58117 0.84959 0.0
O245 O 0.91834 0.5888 0.87388 0.0
O246 O 0.91524 0.50251 0.88317 0.0
Mg247 Mg 0.79541 0.81102 0.36975 0.0
C248 C 0.84032 0.82213 0.41047 0.0
O249 O 0.85302 0.82958 0.38807 0.0
C250 C 0.74833 0.77747 0.35082 0.0
O251 O 0.74425 0.80003 0.33698 0.0
C252 C 0.77744 0.86855 0.38253 0.0
O253 O 0.80229 0.86946 0.39247 0.0
O254 O 0.76996 0.84743 0.36943 0.0
O255 O 0.81665 0.81177 0.40854 0.0
O256 O 0.82314 0.80528 0.33559 0.0
C257 C 0.81615 0.81218 0.31161 0.0
O258 O 0.79342 0.82593 0.30825 0.0
O259 O 0.76815 0.7764 0.36751 0.0
Mg260 Mg 0.55606 0.46627 0.36811 0.0
C261 C 0.56389 0.45198 0.42808 0.0
O262 O 0.57905 0.47407 0.42769 0.0
C263 C 0.59185 0.51716 0.36305 0.0
O264 O 0.5689 0.52959 0.3689 0.0
C265 C 0.51542 0.50597 0.38924 0.0
O266 O 0.53413 0.50626 0.4084 0.0
O267 O 0.51917 0.49111 0.36828 0.0
O268 O 0.55389 0.44321 0.40584 0.0
O269 O 0.55813 0.43836 0.33389 0.0
C270 C 0.57427 0.41825 0.33643 0.0
O271 O 0.58595 0.41412 0.3602 0.0
O272 O 0.59254 0.49126 0.36304 0.0
Mg273 Mg 0.29382 0.6909 0.62612 0.0
C274 C 0.3437 0.67759 0.5917 0.0
O275 O 0.35481 0.67379 0.61579 0.0
C276 C 0.24824 0.73021 0.63735 0.0
O277 O 0.23788 0.70788 0.6479 0.0
C278 C 0.27097 0.63646 0.60874 0.0
O279 O 0.29599 0.63442 0.59946 0.0
O280 O 0.26466 0.65715 0.62314 0.0
O281 O 0.31949 0.68674 0.59031 0.0
O282 O 0.31836 0.69404 0.66316 0.0
C283 C 0.30704 0.6924 0.68642 0.0
O284 O 0.28122 0.68539 0.6877 0.0
O285 O 0.27117 0.72891 0.62531 0.0
Mg286 Mg 0.94294 0.47316 0.62999 0.0
C287 C 0.96093 0.43057 0.59072 0.0
O288 O 0.97589 0.42473 0.61219 0.0
C289 C 0.89031 0.50165 0.64589 0.0
O290 O 0.88641 0.47866 0.65903 0.0
C291 C 0.9834 0.51628 0.61681 0.0
O292 O 0.96131 0.52587 0.60509 0.0
O293 O 0.98178 0.49421 0.63033 0.0
O294 O 0.94347 0.44965 0.59253 0.0
O295 O 0.93774 0.44722 0.66542 0.0
C296 C 0.92337 0.42574 0.66357 0.0
O297 O 0.91368 0.41866 0.63959 0.0
O298 O 0.91138 0.50426 0.63101 0.0
Mg299 Mg 0.05848 0.03715 0.62734 0.0
C300 C 0.03712 0.07891 0.58915 0.0
O301 O 0.02177 0.08265 0.6108 0.0
C302 C 0.11129 0.00692 0.63973 0.0
O303 O 0.11666 0.02959 0.65293 0.0
C304 C 0.01696 0.99323 0.61959 0.0
O305 O 0.03905 0.98103 0.61064 0.0
O306 O 0.01902 0.01711 0.62951 0.0
O307 O 0.05621 0.06139 0.59034 0.0
O308 O 0.06673 0.06237 0.66281 0.0
C309 C 0.08223 0.08303 0.6605 0.0
O310 O 0.09101 0.0899 0.63613 0.0
O311 O 0.08932 0.00519 0.62604 0.0
Mg312 Mg 0.62438 0.71108 0.81791 0.0
C313 C 0.58983 0.66188 0.83091 0.0
O314 O 0.61427 0.65155 0.83444 0.0
C315 C 0.64507 0.75615 0.78481 0.0
O316 O 0.65843 0.75781 0.808 0.0
C317 C 0.61229 0.73139 0.87509 0.0
O318 O 0.60104 0.70716 0.87688 0.0
O319 O 0.62533 0.73759 0.85354 0.0
O320 O 0.58767 0.68621 0.82209 0.0
O321 O 0.65987 0.68524 0.81271 0.0
C322 C 0.65904 0.67001 0.7917 0.0
O323 O 0.63672 0.6698 0.77686 0.0
O324 O 0.62667 0.73795 0.78248 0.0
Mg325 Mg 0.95353 0.12343 0.4437 0.0
C326 C 0.92919 0.18026 0.44207 0.0
O327 O 0.95162 0.1861 0.45552 0.0
C328 C 0.99822 0.11557 0.48449 0.0
O329 O 0.0092 0.10483 0.46256 0.0
C330 C 0.99815 0.11067 0.39917 0.0
O331 O 0.99781 0.08525 0.40754 0.0
O332 O 0.98234 0.12801 0.41016 0.0
O333 O 0.92409 0.15553 0.4363 0.0
O334 O 0.93175 0.08504 0.44763 0.0
C335 C 0.91185 0.08616 0.46426 0.0
O336 O 0.90536 0.10992 0.47481 0.0
O337 O 0.97503 0.12702 0.48245 0.0
Mg338 Mg 0.3757 0.78501 0.81835 0.0
C339 C 0.41023 0.83444 0.83224 0.0
O340 O 0.38588 0.84499 0.83574 0.0
C341 C 0.35279 0.74325 0.78257 0.0
O342 O 0.33875 0.74168 0.80534 0.0
C343 C 0.38917 0.76285 0.87435 0.0
O344 O 0.39919 0.78754 0.87705 0.0
O345 O 0.37653 0.75674 0.85252 0.0
O346 O 0.41218 0.81026 0.82295 0.0
O347 O 0.33905 0.80966 0.81678 0.0
C348 C 0.33677 0.82497 0.79596 0.0
O349 O 0.35731 0.82649 0.77882 0.0
O350 O 0.37247 0.76018 0.78144 0.0
Mg351 Mg 0.03841 0.3784 0.44349 0.0
C352 C 0.05608 0.31914 0.4408 0.0
O353 O 0.03224 0.31556 0.45247 0.0
C354 C 0.99741 0.3946 0.4851 0.0
O355 O 0.99044 0.40966 0.46408 0.0
C356 C 0.98625 0.36672 0.41439 0.0
O357 O 0.98179 0.35588 0.43846 0.0
O358 O 0.00882 0.37871 0.40991 0.0
O359 O 0.0643 0.34327 0.4362 0.0
O360 O 0.06387 0.41454 0.44832 0.0
C361 C 0.05424 0.43827 0.44456 0.0
O362 O 0.02988 0.44071 0.43369 0.0
O363 O 0.01671 0.37747 0.48229 0.0
Mg364 Mg 0.63074 0.28781 0.68392 0.0
C365 C 0.60356 0.33962 0.667 0.0
O366 O 0.62906 0.34455 0.6605 0.0
C367 C 0.62256 0.2711 0.74391 0.0
O368 O 0.61257 0.29581 0.74644 0.0
C369 C 0.6152 0.26585 0.62818 0.0
O370 O 0.6048 0.2904 0.62585 0.0
O371 O 0.62852 0.25981 0.64961 0.0
O372 O 0.59787 0.31734 0.67902 0.0
O373 O 0.66972 0.30845 0.68717 0.0
C374 C 0.67178 0.32691 0.70528 0.0
O375 O 0.64995 0.3339 0.71913 0.0
O376 O 0.62945 0.26263 0.72041 0.0
Mg377 Mg 0.54998 0.11999 0.56251 0.0
C378 C 0.57057 0.17788 0.56488 0.0
O379 O 0.54756 0.18213 0.55183 0.0
C380 C 0.51322 0.10221 0.51906 0.0
O381 O 0.50751 0.086 0.53962 0.0
C382 C 0.4959 0.13513 0.58559 0.0
O383 O 0.49376 0.14351 0.56025 0.0
O384 O 0.51776 0.12342 0.5932 0.0
O385 O 0.57755 0.15356 0.57036 0.0
O386 O 0.57233 0.08175 0.56186 0.0
C387 C 0.59028 0.08006 0.54316 0.0
O388 O 0.59521 0.10171 0.52817 0.0
O389 O 0.53115 0.12066 0.52241 0.0
Mg390 Mg 0.38106 0.22021 0.68207 0.0
C391 C 0.40877 0.17538 0.65276 0.0
O392 O 0.38355 0.17379 0.64385 0.0
C393 C 0.36982 0.2603 0.72573 0.0
O394 O 0.35877 0.27167 0.70413 0.0
C395 C 0.39435 0.25329 0.63081 0.0
O396 O 0.40671 0.23067 0.62362 0.0
O397 O 0.38117 0.25395 0.65315 0.0
O398 O 0.41431 0.19279 0.67119 0.0
O399 O 0.3428 0.19809 0.68287 0.0
C400 C 0.34146 0.17835 0.69964 0.0
O401 O 0.36352 0.17153 0.71324 0.0
O402 O 0.38292 0.23809 0.72272 0.0
Mg403 Mg 0.47317 0.39204 0.56652 0.0
C404 C 0.42893 0.35491 0.58389 0.0
O405 O 0.42315 0.37734 0.59735 0.0
C406 C 0.50894 0.41924 0.52645 0.0
O407 O 0.503 0.43891 0.54365 0.0
C408 C 0.52263 0.39713 0.60497 0.0
O409 O 0.53152 0.41413 0.58632 0.0
O410 O 0.49883 0.38714 0.60259 0.0
O411 O 0.44857 0.35532 0.56696 0.0
O412 O 0.4469 0.42772 0.5653 0.0
C413 C 0.42931 0.42784 0.54619 0.0
O414 O 0.42694 0.40603 0.5308 0.0
O415 O 0.49893 0.39565 0.53051 0.0
Mg416 Mg 0.81695 0.63453 0.72846 0.0
C417 C 0.83573 0.59873 0.68246 0.0
O418 O 0.84476 0.62248 0.67399 0.0
C419 C 0.7569 0.62659 0.74361 0.0
O420 O 0.75576 0.61407 0.71993 0.0
C421 C 0.87142 0.62162 0.75462 0.0
O422 O 0.8753 0.60945 0.73108 0.0
O423 O 0.84969 0.63526 0.75827 0.0
O424 O 0.82175 0.59774 0.70428 0.0
O425 O 0.81481 0.67068 0.70308 0.0
C426 C 0.79757 0.67068 0.68368 0.0
O427 O 0.7841 0.64814 0.67838 0.0
O428 O 0.77967 0.63546 0.75214 0.0
Mg429 Mg 0.87805 0.93079 0.53795 0.0
C430 C 0.83917 0.9139 0.58246 0.0
O431 O 0.86229 0.90521 0.59282 0.0
C432 C 0.86992 0.98963 0.51696 0.0
O433 O 0.85324 0.99201 0.53779 0.0
C434 C 0.86576 0.87642 0.51084 0.0
O435 O 0.84879 0.8743 0.53146 0.0
O436 O 0.8815 0.89697 0.50957 0.0
O437 O 0.83964 0.92684 0.55996 0.0
O438 O 0.91259 0.93372 0.56536 0.0
C439 C 0.91317 0.95374 0.58184 0.0
O440 O 0.89183 0.96986 0.58325 0.0
O441 O 0.88131 0.96685 0.51243 0.0
Mg442 Mg 0.18918 0.87247 0.71644 0.0
C443 C 0.16632 0.90827 0.67164 0.0
O444 O 0.15676 0.88462 0.66342 0.0
C445 C 0.23132 0.861 0.75897 0.0
O446 O 0.20953 0.85049 0.77045 0.0
C447 C 0.13554 0.88287 0.74543 0.0
O448 O 0.12914 0.89299 0.72147 0.0
O449 O 0.15865 0.87157 0.74854 0.0
O450 O 0.18181 0.90899 0.69245 0.0
O451 O 0.18996 0.83578 0.69176 0.0
C452 C 0.20849 0.83453 0.67366 0.0
O453 O 0.22377 0.85613 0.66944 0.0
O454 O 0.22884 0.87312 0.73616 0.0
Mg455 Mg 0.12605 0.57024 0.53685 0.0
C456 C 0.18535 0.57593 0.55521 0.0
O457 O 0.19003 0.5683 0.52994 0.0
C458 C 0.09842 0.53138 0.50204 0.0
O459 O 0.08322 0.55342 0.50284 0.0
C460 C 0.13409 0.59472 0.48167 0.0
O461 O 0.13874 0.56886 0.47664 0.0
O462 O 0.12802 0.60203 0.50581 0.0
O463 O 0.16091 0.57649 0.5638 0.0
O464 O 0.08941 0.57225 0.56131 0.0
C465 C 0.08798 0.5546 0.58026 0.0
O466 O 0.10939 0.53925 0.58508 0.0
O467 O 0.12063 0.5313 0.51559 0.0
Mg468 Mg 0.818 0.37205 0.78887 0.0
C469 C 0.83862 0.40717 0.83504 0.0
O470 O 0.84794 0.38343 0.8432 0.0
C471 C 0.77722 0.35823 0.74648 0.0
O472 O 0.7989 0.34517 0.73774 0.0
C473 C 0.87115 0.38542 0.76032 0.0
O474 O 0.87622 0.39722 0.78384 0.0
O475 O 0.84918 0.37198 0.75746 0.0
O476 O 0.82403 0.40819 0.81362 0.0
O477 O 0.81657 0.33499 0.81283 0.0
C478 C 0.79803 0.3337 0.83091 0.0
O479 O 0.78322 0.3555 0.83566 0.0
O480 O 0.77918 0.37281 0.76785 0.0
Mg481 Mg 0.63783 0.93409 0.46027 0.0
C482 C 0.6944 0.93217 0.4351 0.0
O483 O 0.70079 0.9442 0.4582 0.0
C484 C 0.62583 0.97525 0.50333 0.0
O485 O 0.61377 0.95338 0.51297 0.0
C486 C 0.6244 0.88984 0.50373 0.0
O487 O 0.59883 0.89712 0.50056 0.0
O488 O 0.64288 0.90148 0.48978 0.0
O489 O 0.66947 0.92732 0.42999 0.0
O490 O 0.59854 0.93445 0.44018 0.0
C491 C 0.59627 0.95109 0.42042 0.0
O492 O 0.61795 0.9647 0.41253 0.0
O493 O 0.63951 0.97324 0.48134 0.0
Mg494 Mg 0.19725 0.12619 0.78182 0.0
C495 C 0.17562 0.09062 0.82657 0.0
O496 O 0.16837 0.11476 0.83564 0.0
C497 C 0.23714 0.14135 0.73892 0.0
O498 O 0.21517 0.1544 0.73094 0.0
C499 C 0.14195 0.11799 0.75518 0.0
O500 O 0.13665 0.10679 0.77892 0.0
O501 O 0.165 0.12928 0.75149 0.0
O502 O 0.18971 0.08915 0.80485 0.0
O503 O 0.20073 0.16106 0.80875 0.0
C504 C 0.19425 0.18471 0.80051 0.0
O505 O 0.18262 0.18734 0.7765 0.0
O506 O 0.23564 0.12598 0.75978 0.0
Mg507 Mg 0.37146 0.5679 0.46081 0.0
C508 C 0.33853 0.58983 0.41459 0.0
O509 O 0.36146 0.60338 0.41167 0.0
C510 C 0.3851 0.52907 0.50616 0.0
O511 O 0.39499 0.55191 0.51602 0.0
C512 C 0.38522 0.61416 0.50243 0.0
O513 O 0.4108 0.60662 0.50005 0.0
O514 O 0.36687 0.60195 0.48876 0.0
O515 O 0.33712 0.57163 0.43301 0.0
O516 O 0.40979 0.56757 0.43892 0.0
C517 C 0.41167 0.55205 0.41821 0.0
O518 O 0.38965 0.53963 0.40933 0.0
O519 O 0.3722 0.52972 0.48362 0.0
Mg520 Mg 0.70965 0.81143 0.63251 0.0
C521 C 0.66267 0.82738 0.59541 0.0
O522 O 0.65019 0.83059 0.6189 0.0
C523 C 0.75473 0.77288 0.64528 0.0
O524 O 0.76372 0.79548 0.65649 0.0
C525 C 0.73893 0.86384 0.61763 0.0
O526 O 0.71732 0.86646 0.60203 0.0
O527 O 0.74001 0.84398 0.63431 0.0
O528 O 0.68675 0.81782 0.59517 0.0
O529 O 0.68285 0.80708 0.66767 0.0
C530 C 0.69223 0.81037 0.69161 0.0
O531 O 0.71721 0.81961 0.69452 0.0
O532 O 0.7324 0.77348 0.63207 0.0
Mg533 Mg 0.7086 0.19098 0.87246 0.0
C534 C 0.66046 0.17416 0.90762 0.0
O535 O 0.64877 0.17118 0.88369 0.0
C536 C 0.75483 0.22944 0.86269 0.0
O537 O 0.76368 0.20756 0.85003 0.0
C538 C 0.73052 0.13433 0.88182 0.0
O539 O 0.70536 0.13097 0.89034 0.0
O540 O 0.73706 0.15687 0.87076 0.0
O541 O 0.68447 0.18388 0.90883 0.0
O542 O 0.68279 0.19767 0.83696 0.0
C543 C 0.66674 0.21794 0.83909 0.0
O544 O 0.66578 0.23107 0.86245 0.0
O545 O 0.73234 0.22819 0.87554 0.0
Mg546 Mg 0.4493 0.03163 0.37447 0.0
C547 C 0.47038 0.0725 0.41383 0.0
O548 O 0.48488 0.07822 0.39204 0.0
C549 C 0.39462 0.00452 0.36427 0.0
O550 O 0.38895 0.02863 0.35415 0.0
C551 C 0.49034 0.98994 0.38806 0.0
O552 O 0.46901 0.98212 0.40226 0.0
O553 O 0.48804 0.01053 0.37245 0.0
O554 O 0.45184 0.05446 0.4121 0.0
O555 O 0.44141 0.05758 0.33954 0.0
C556 C 0.42615 0.07831 0.34241 0.0
O557 O 0.41792 0.08496 0.36704 0.0
O558 O 0.41774 0.0006 0.37531 0.0
Mg559 Mg 0.2876 0.31484 0.8692 0.0
C560 C 0.33569 0.3269 0.90596 0.0
O561 O 0.34719 0.33216 0.88234 0.0
C562 C 0.24404 0.28002 0.84789 0.0
O563 O 0.24004 0.30362 0.83589 0.0
C564 C 0.26013 0.36621 0.89013 0.0
O565 O 0.28215 0.36689 0.90535 0.0
O566 O 0.25814 0.34806 0.87165 0.0
O567 O 0.31168 0.31711 0.90633 0.0
O568 O 0.31319 0.31423 0.83298 0.0
C569 C 0.32906 0.29381 0.83081 0.0
O570 O 0.33034 0.27636 0.8511 0.0
O571 O 0.26326 0.27805 0.86523 0.0
Mg572 Mg 0.0599 0.96985 0.8735 0.0
C573 C 0.03809 0.92932 0.91301 0.0
O574 O 0.02444 0.92284 0.89087 0.0
C575 C 0.11416 0.99638 0.85976 0.0
O576 O 0.11777 0.9731 0.84705 0.0
C577 C 0.01957 0.01243 0.887 0.0
O578 O 0.04077 0.01972 0.9017 0.0
O579 O 0.02179 0.99198 0.8712 0.0
O580 O 0.05641 0.94762 0.9115 0.0
O581 O 0.06587 0.94304 0.83882 0.0
C582 C 0.08066 0.92191 0.84128 0.0
O583 O 0.09016 0.91554 0.86553 0.0
O584 O 0.09249 0.99997 0.87356 0.0
Mg585 Mg 0.79556 0.1843 0.13079 0.0
C586 C 0.84448 0.17041 0.09526 0.0
O587 O 0.85609 0.16636 0.11907 0.0
C588 C 0.74869 0.22198 0.14129 0.0
O589 O 0.73955 0.19962 0.15285 0.0
C590 C 0.77394 0.12827 0.1173 0.0
O591 O 0.79907 0.12584 0.1084 0.0
O592 O 0.76729 0.14986 0.13008 0.0
O593 O 0.82029 0.17965 0.09445 0.0
O594 O 0.82057 0.18971 0.16714 0.0
C595 C 0.80997 0.18681 0.19061 0.0
O596 O 0.78501 0.17726 0.19235 0.0
O597 O 0.7715 0.22131 0.12898 0.0
Mg598 Mg 0.44305 0.96632 0.12237 0.0
C599 C 0.46339 0.92449 0.08382 0.0
O600 O 0.479 0.92058 0.10526 0.0
C601 C 0.38901 0.99246 0.13674 0.0
O602 O 0.38507 0.96836 0.14769 0.0
C603 C 0.48396 0.0087 0.10806 0.0
O604 O 0.46264 0.01704 0.09414 0.0
O605 O 0.4816 0.98779 0.1232 0.0
O606 O 0.44449 0.94219 0.08529 0.0
O607 O 0.438 0.94101 0.15822 0.0
C608 C 0.42391 0.91931 0.15686 0.0
O609 O 0.41479 0.91126 0.13297 0.0
O610 O 0.4108 0.99678 0.12333 0.0
Mg611 Mg 0.55304 0.52687 0.12427 0.0
C612 C 0.53714 0.56674 0.08207 0.0
O613 O 0.52426 0.57563 0.10382 0.0
C614 C 0.59646 0.48087 0.115 0.0
O615 O 0.5888 0.48059 0.08931 0.0
C616 C 0.51011 0.48511 0.11324 0.0
O617 O 0.53115 0.47432 0.1007 0.0
O618 O 0.51349 0.50706 0.12665 0.0
O619 O 0.55298 0.54634 0.08451 0.0
O620 O 0.55878 0.55715 0.15594 0.0
C621 C 0.57767 0.57452 0.15232 0.0
O622 O 0.59066 0.57467 0.12888 0.0
O623 O 0.58537 0.49742 0.13157 0.0
C624 C 0.18123 0.30343 0.25128 0.0
C625 C 0.17416 0.29597 0.22454 0.0
H626 H 0.17611 0.29597 0.29389 0.0
C627 C 0.15386 0.27602 0.22068 0.0
H628 H 0.19662 0.31883 0.25502 0.0
C629 C 0.14212 0.2627 0.24309 0.0
C630 C 0.15037 0.26917 0.2698 0.0
H631 H 0.14789 0.2698 0.20033 0.0
H632 H 0.1274 0.24665 0.23944 0.0
C633 C 0.16944 0.29026 0.27361 0.0
C634 C 0.54004 0.56542 0.031 0.0
C635 C 0.53011 0.57781 0.05483 0.0
H636 H 0.53774 0.5628 0.98751 0.0
C637 C 0.51143 0.59944 0.0524 0.0
H638 H 0.55451 0.54879 0.03212 0.0
C639 C 0.50179 0.60751 0.02678 0.0
C640 C 0.51058 0.59408 0.00306 0.0
H641 H 0.50349 0.60956 0.07035 0.0
H642 H 0.48667 0.62355 0.02569 0.0
C643 C 0.53036 0.57345 0.0054 0.0
C644 C 0.85574 0.23005 0.23589 0.0
C645 C 0.84382 0.22591 0.26164 0.0
H646 H 0.85464 0.22062 0.19315 0.0
C647 C 0.82269 0.20666 0.26407 0.0
H648 H 0.8721 0.24465 0.23333 0.0
C649 C 0.81264 0.19304 0.24115 0.0
C650 C 0.82356 0.19813 0.21519 0.0
H651 H 0.81315 0.20273 0.2836 0.0
H652 H 0.79568 0.17913 0.24371 0.0
C653 C 0.84576 0.21621 0.21289 0.0
C654 C 0.50209 0.88477 0.03005 0.0
C655 C 0.48867 0.8928 0.00604 0.0
H656 H 0.50447 0.88829 0.0735 0.0
C657 C 0.46503 0.90889 0.00816 0.0
H658 H 0.52028 0.87229 0.02917 0.0
C659 C 0.45597 0.91811 0.03358 0.0
C660 C 0.47035 0.91144 0.05745 0.0
H661 H 0.45407 0.91529 0.99008 0.0
H662 H 0.43834 0.93136 0.03437 0.0
C663 C 0.49302 0.89399 0.05549 0.0
C664 C 0.13277 0.74786 0.30846 0.0
C665 C 0.15193 0.72673 0.30548 0.0
H666 H 0.10819 0.77803 0.28868 0.0
C667 C 0.15891 0.7181 0.27906 0.0
H668 H 0.12675 0.7549 0.32852 0.0
C669 C 0.14814 0.73133 0.25618 0.0
C670 C 0.13022 0.75356 0.25921 0.0
H671 H 0.17349 0.70182 0.27602 0.0
H672 H 0.15476 0.72481 0.23614 0.0
C673 C 0.12208 0.76116 0.2856 0.0
C674 C 0.96677 0.58998 0.9978 0.0
C675 C 0.99108 0.60491 0.00074 0.0
H676 H 0.93985 0.56895 0.9706 0.0
C677 C 0.00552 0.61256 0.97721 0.0
H678 H 0.95504 0.5839 0.0155 0.0
C679 C 0.99676 0.60403 0.95145 0.0
C680 C 0.97341 0.58761 0.94868 0.0
H681 H 0.02422 0.62421 0.97873 0.0
H682 H 0.00897 0.60937 0.93384 0.0
C683 C 0.95804 0.58139 0.97204 0.0
C684 C 0.83342 0.79508 0.23836 0.0
C685 C 0.85201 0.77348 0.24145 0.0
H686 H 0.80778 0.82438 0.25798 0.0
C687 C 0.86102 0.76675 0.26783 0.0
H688 H 0.82619 0.80102 0.21834 0.0
C689 C 0.8505 0.78035 0.29067 0.0
C690 C 0.83068 0.80088 0.28759 0.0
H691 H 0.87541 0.7503 0.27092 0.0
H692 H 0.85703 0.77394 0.31078 0.0
C693 C 0.82285 0.80856 0.26113 0.0
C694 C 0.03875 0.93097 0.96404 0.0
C695 C 0.02904 0.91895 0.93991 0.0
H696 H 0.03461 0.93453 0.0073 0.0
C697 C 0.00865 0.89884 0.94168 0.0
H698 H 0.05446 0.94648 0.96344 0.0
C699 C 0.99731 0.89186 0.96695 0.0
C700 C 0.00599 0.90507 0.99085 0.0
H701 H 0.00079 0.8891 0.92346 0.0
H702 H 0.98103 0.87696 0.96759 0.0
C703 C 0.02725 0.92421 0.9892 0.0
C704 C 0.21499 0.12754 0.26633 0.0
C705 C 0.23903 0.13597 0.27944 0.0
H706 H 0.17153 0.13048 0.26439 0.0
C707 C 0.23697 0.15219 0.30303 0.0
H708 H 0.21581 0.11494 0.24819 0.0
C709 C 0.21154 0.16109 0.31238 0.0
C710 C 0.18763 0.15402 0.29827 0.0
H711 H 0.25508 0.15891 0.31375 0.0
H712 H 0.21077 0.17445 0.32996 0.0
C713 C 0.18958 0.1365 0.27562 0.0
C714 C 0.41495 0.52631 0.95048 0.0
C715 C 0.40479 0.55092 0.96101 0.0
H716 H 0.41489 0.48278 0.95297 0.0
C717 C 0.38439 0.54992 0.98118 0.0
H718 H 0.4306 0.52632 0.9349 0.0
C719 C 0.37538 0.52495 0.99159 0.0
C720 C 0.38658 0.50039 0.98209 0.0
H721 H 0.37598 0.56849 0.98965 0.0
H722 H 0.36036 0.52498 0.00778 0.0
C723 C 0.40595 0.50133 0.96091 0.0
C724 C 0.77909 0.32945 0.30312 0.0
C725 C 0.80278 0.33651 0.28865 0.0
H726 H 0.73552 0.3301 0.30434 0.0
C727 C 0.80022 0.35238 0.26487 0.0
H728 H 0.78031 0.31735 0.32155 0.0
C729 C 0.7745 0.35973 0.25497 0.0
C730 C 0.75076 0.35132 0.2686 0.0
H731 H 0.81806 0.35833 0.25329 0.0
H732 H 0.77322 0.37106 0.23605 0.0
C733 C 0.75338 0.33675 0.29319 0.0
C734 C 0.61393 0.9459 0.98555 0.0
C735 C 0.59434 0.94409 0.9646 0.0
H736 H 0.63683 0.9719 0.01225 0.0
C737 C 0.58451 0.96828 0.95289 0.0
H738 H 0.62208 0.92767 0.99496 0.0
C739 C 0.59301 0.99365 0.96283 0.0
C740 C 0.61157 0.99545 0.9847 0.0
H741 H 0.5695 0.96767 0.93669 0.0
H742 H 0.58431 0.01187 0.9539 0.0
C743 C 0.62246 0.97128 0.99548 0.0
C744 C 0.19597 0.86052 0.22817 0.0
C745 C 0.19443 0.8437 0.20497 0.0
H746 H 0.22179 0.88113 0.25674 0.0
C747 C 0.21855 0.83712 0.19102 0.0
H748 H 0.17776 0.86611 0.23932 0.0
C749 C 0.24379 0.84579 0.20099 0.0
C750 C 0.24546 0.86117 0.22515 0.0
H751 H 0.21806 0.82438 0.17297 0.0
H752 H 0.26205 0.83948 0.19031 0.0
C753 C 0.22123 0.86915 0.23817 0.0
C754 C 0.09881 0.50515 0.03734 0.0
C755 C 0.1246 0.5055 0.02475 0.0
H756 H 0.06812 0.52781 0.05855 0.0
C757 C 0.14041 0.52931 0.02641 0.0
H758 H 0.08615 0.48706 0.03669 0.0
C759 C 0.13002 0.55271 0.03899 0.0
C760 C 0.10364 0.55278 0.05028 0.0
H761 H 0.16042 0.53022 0.01713 0.0
H762 H 0.14233 0.57104 0.039 0.0
C763 C 0.08848 0.5285 0.05002 0.0
C764 C 0.78716 0.66547 0.19392 0.0
C765 C 0.80936 0.6607 0.21139 0.0
H766 H 0.74408 0.66251 0.18803 0.0
C767 C 0.80489 0.6463 0.23581 0.0
H768 H 0.78989 0.67634 0.17488 0.0
C769 C 0.77857 0.63832 0.24338 0.0
C770 C 0.75615 0.64461 0.22669 0.0
H771 H 0.82157 0.6421 0.24966 0.0
H772 H 0.77568 0.62832 0.26286 0.0
C773 C 0.76086 0.65753 0.20149 0.0
C774 C 0.87903 0.97455 0.99825 0.0
C775 C 0.88613 0.99839 0.01245 0.0
H776 H 0.8827 0.93119 0.99559 0.0
C777 C 0.90084 0.99597 0.03701 0.0
H778 H 0.86765 0.97564 0.97934 0.0
C779 C 0.90955 0.97047 0.04634 0.0
C780 C 0.90372 0.94678 0.03134 0.0
H781 H 0.90654 0.0139 0.04859 0.0
H782 H 0.92171 0.96947 0.06476 0.0
C783 C 0.88771 0.94904 0.00759 0.0
C784 C 0.29423 0.25096 0.19294 0.0
C785 C 0.27513 0.24878 0.17165 0.0
H786 H 0.32039 0.22998 0.22085 0.0
C787 C 0.27005 0.22304 0.16015 0.0
H788 H 0.29879 0.27051 0.20215 0.0
C789 C 0.28261 0.19978 0.1708 0.0
C790 C 0.30037 0.20179 0.19327 0.0
H791 H 0.2556 0.2207 0.1436 0.0
H792 H 0.27742 0.18012 0.16219 0.0
C793 C 0.30665 0.22771 0.20369 0.0
C794 C 0.29963 0.78953 0.33121 0.0
C795 C 0.28424 0.81304 0.33665 0.0
H796 H 0.30214 0.74615 0.3341 0.0
C797 C 0.26036 0.81066 0.35233 0.0
H798 H 0.31826 0.79068 0.3194 0.0
C799 C 0.25106 0.78508 0.36075 0.0
C800 C 0.2655 0.76138 0.35368 0.0
H801 H 0.24812 0.82841 0.35704 0.0
H802 H 0.23191 0.7838 0.37167 0.0
C803 C 0.29037 0.76397 0.33966 0.0
C804 C 0.01493 0.45153 0.91248 0.0
C805 C 0.01372 0.47675 0.89891 0.0
H806 H 0.03968 0.42288 0.93415 0.0
C807 C 0.03805 0.4911 0.89418 0.0
H808 H 0.99659 0.43983 0.91625 0.0
C809 C 0.06278 0.48134 0.90443 0.0
C810 C 0.06368 0.45705 0.91963 0.0
H811 H 0.03787 0.5105 0.88364 0.0
H812 H 0.08097 0.4935 0.90145 0.0
C813 C 0.03966 0.44177 0.92274 0.0
C814 C 0.71374 0.75259 0.32259 0.0
C815 C 0.73243 0.75266 0.34436 0.0
H816 H 0.68805 0.72873 0.29653 0.0
C817 C 0.73734 0.72823 0.35847 0.0
H818 H 0.70938 0.77111 0.31138 0.0
C819 C 0.72503 0.70399 0.35001 0.0
C820 C 0.70762 0.70361 0.32721 0.0
H821 H 0.75144 0.72762 0.37547 0.0
H822 H 0.73005 0.68536 0.36074 0.0
C823 C 0.70149 0.7283 0.31407 0.0
C824 C 0.44098 0.52604 0.38534 0.0
C825 C 0.43877 0.54394 0.40768 0.0
H826 H 0.46708 0.50011 0.36172 0.0
C827 C 0.46255 0.55156 0.42172 0.0
H828 H 0.42306 0.51988 0.37399 0.0
C829 C 0.48765 0.54008 0.41483 0.0
C830 C 0.4896 0.52092 0.39358 0.0
H831 H 0.46163 0.56538 0.43894 0.0
H832 H 0.50539 0.54554 0.42682 0.0
C833 C 0.4662 0.51471 0.37828 0.0
C834 C 0.21206 0.7587 0.65954 0.0
C835 C 0.23548 0.75699 0.64307 0.0
H836 H 0.18496 0.78454 0.68197 0.0
C837 C 0.24792 0.78123 0.63422 0.0
H838 H 0.20186 0.74043 0.66658 0.0
C839 C 0.23819 0.80652 0.64302 0.0
C840 C 0.21582 0.80815 0.66087 0.0
H841 H 0.26587 0.78067 0.62138 0.0
H842 H 0.24895 0.82473 0.63668 0.0
C843 C 0.20234 0.78401 0.66836 0.0
C844 C 0.03748 0.56098 0.58472 0.0
C845 C 0.06153 0.54793 0.59316 0.0
H846 H 0.9939 0.56135 0.58578 0.0
C847 C 0.05972 0.52639 0.61199 0.0
H848 H 0.03816 0.57772 0.57033 0.0
C849 C 0.03433 0.51693 0.62081 0.0
C850 C 0.01022 0.52885 0.61099 0.0
H851 H 0.07787 0.516 0.61907 0.0
H852 H 0.03363 0.49956 0.63442 0.0
C853 C 0.01209 0.55154 0.59356 0.0
C854 C 0.96267 0.94599 0.5918 0.0
C855 C 0.93892 0.96153 0.59557 0.0
H856 H 0.0059 0.94367 0.59673 0.0
C857 C 0.94066 0.98607 0.61032 0.0
H858 H 0.96203 0.92689 0.58072 0.0
C859 C 0.96588 0.99575 0.61949 0.0
C860 C 0.98986 0.98106 0.61411 0.0
H861 H 0.92273 0.99848 0.61375 0.0
H862 H 0.96668 0.01532 0.6297 0.0
C863 C 0.98786 0.95564 0.60099 0.0
C864 C 0.65458 0.7823 0.7124 0.0
C865 C 0.67718 0.79974 0.71563 0.0
H866 H 0.62659 0.75474 0.73173 0.0
C867 C 0.68704 0.80475 0.74205 0.0
H868 H 0.64647 0.77799 0.6923 0.0
C869 C 0.6756 0.79157 0.76455 0.0
C870 C 0.6541 0.77286 0.76123 0.0
H871 H 0.70425 0.8182 0.74531 0.0
H872 H 0.68437 0.79534 0.78448 0.0
C873 C 0.6432 0.76892 0.73499 0.0
C874 C 0.99684 0.11749 0.53568 0.0
C875 C 0.01051 0.11013 0.51159 0.0
H876 H 0.99468 0.11362 0.5791 0.0
C877 C 0.03479 0.095 0.5136 0.0
H878 H 0.97817 0.12923 0.53488 0.0
C879 C 0.04424 0.08595 0.53895 0.0
C880 C 0.02965 0.09189 0.56288 0.0
H881 H 0.04596 0.08912 0.49548 0.0
H882 H 0.06238 0.0734 0.53964 0.0
C883 C 0.00632 0.10848 0.56105 0.0
C884 C 0.32041 0.71079 0.7602 0.0
C885 C 0.34356 0.72763 0.75826 0.0
H886 H 0.29096 0.68638 0.73924 0.0
C887 C 0.35626 0.73058 0.73272 0.0
H888 H 0.31016 0.70784 0.77955 0.0
C889 C 0.34526 0.71796 0.70947 0.0
C890 C 0.32124 0.70232 0.71129 0.0
H891 H 0.37416 0.74332 0.73051 0.0
H892 H 0.35493 0.72143 0.68991 0.0
C893 C 0.30935 0.69841 0.73704 0.0
C894 C 0.99685 0.38946 0.53605 0.0
C895 C 0.9853 0.40028 0.51217 0.0
H896 H 0.99806 0.39044 0.5797 0.0
C897 C 0.96353 0.41878 0.51449 0.0
H898 H 0.01358 0.37511 0.53497 0.0
C899 C 0.95459 0.42753 0.54009 0.0
C900 C 0.9673 0.41806 0.56396 0.0
H901 H 0.954 0.42732 0.49648 0.0
H902 H 0.93851 0.44261 0.54108 0.0
C903 C 0.98796 0.39831 0.5617 0.0
C904 C 0.64498 0.23064 0.7659 0.0
C905 C 0.63017 0.25509 0.76844 0.0
H906 H 0.66809 0.19959 0.78618 0.0
C907 C 0.6251 0.26543 0.79468 0.0
H908 H 0.64919 0.22202 0.74599 0.0
C909 C 0.6359 0.25252 0.81769 0.0
C910 C 0.65209 0.229 0.81503 0.0
H911 H 0.61365 0.2841 0.79743 0.0
H912 H 0.63239 0.26164 0.83751 0.0
C913 C 0.65585 0.21775 0.78895 0.0
C914 C 0.49998 0.1024 0.44292 0.0
C915 C 0.47865 0.08334 0.44078 0.0
H916 H 0.52759 0.12356 0.46944 0.0
C917 C 0.46716 0.0727 0.46476 0.0
H918 H 0.5092 0.11108 0.42482 0.0
C919 C 0.47782 0.0797 0.49023 0.0
C920 C 0.50006 0.09765 0.49231 0.0
H921 H 0.45065 0.05805 0.46387 0.0
H922 H 0.46908 0.07039 0.50826 0.0
C923 C 0.51053 0.10958 0.46847 0.0
C924 C 0.34826 0.29536 0.75596 0.0
C925 C 0.36323 0.27104 0.75324 0.0
H926 H 0.32593 0.32181 0.78257 0.0
C927 C 0.36936 0.25594 0.77679 0.0
H928 H 0.34334 0.30761 0.73825 0.0
C929 C 0.35932 0.26411 0.80224 0.0
C930 C 0.34299 0.28757 0.80469 0.0
H931 H 0.38089 0.23717 0.77544 0.0
H932 H 0.36352 0.25141 0.81981 0.0
C933 C 0.33828 0.30355 0.78139 0.0
C934 C 0.53841 0.4167 0.45503 0.0
C935 C 0.55359 0.44104 0.45428 0.0
H936 H 0.51256 0.39044 0.47863 0.0
C937 C 0.55607 0.45654 0.47825 0.0
H938 H 0.53618 0.40426 0.4369 0.0
C939 C 0.54224 0.44884 0.50192 0.0
C940 C 0.52596 0.42526 0.5023 0.0
H941 H 0.56757 0.47538 0.47842 0.0
H942 H 0.54374 0.4618 0.51976 0.0
C943 C 0.52488 0.40877 0.4789 0.0
C944 C 0.68227 0.63913 0.75841 0.0
C945 C 0.68364 0.65553 0.78192 0.0
H946 H 0.70426 0.61685 0.72803 0.0
C947 C 0.70907 0.65976 0.7944 0.0
H948 H 0.66296 0.63527 0.74841 0.0
C949 C 0.7328 0.64918 0.78267 0.0
C950 C 0.73157 0.63411 0.75825 0.0
H951 H 0.71082 0.67219 0.81258 0.0
H952 H 0.75219 0.65372 0.79221 0.0
C953 C 0.70597 0.6285 0.74672 0.0
C954 C 0.89817 0.0118 0.48042 0.0
C955 C 0.87811 0.0139 0.50087 0.0
H956 H 0.92447 0.03292 0.45262 0.0
C957 C 0.86745 0.03972 0.50708 0.0
H958 H 0.90674 0.9922 0.475 0.0
C959 C 0.87758 0.06302 0.49419 0.0
C960 C 0.89864 0.06108 0.47478 0.0
H961 H 0.85189 0.04208 0.52257 0.0
H962 H 0.8695 0.08267 0.50016 0.0
C963 C 0.90833 0.03515 0.46752 0.0
C964 C 0.26123 0.84073 0.79511 0.0
C965 C 0.25864 0.85536 0.77057 0.0
H966 H 0.28797 0.81986 0.8226 0.0
C967 C 0.28234 0.86242 0.75612 0.0
H968 H 0.24339 0.83512 0.80685 0.0
C969 C 0.3079 0.85365 0.76516 0.0
C970 C 0.31032 0.83768 0.78887 0.0
H971 H 0.28109 0.87378 0.73722 0.0
H972 H 0.32564 0.85856 0.75297 0.0
C973 C 0.2868 0.83201 0.80419 0.0
C974 C 0.06654 0.51062 0.4682 0.0
C975 C 0.08929 0.50775 0.48545 0.0
H976 H 0.03806 0.49125 0.44151 0.0
C977 C 0.10208 0.48219 0.48718 0.0
H978 H 0.05633 0.53007 0.46607 0.0
C979 C 0.0915 0.45973 0.47291 0.0
C980 C 0.06799 0.46245 0.45658 0.0
H981 H 0.1197 0.47935 0.50019 0.0
H982 H 0.10119 0.44006 0.47541 0.0
C983 C 0.05607 0.48832 0.45395 0.0
C984 C 0.74823 0.33555 0.71108 0.0
C985 C 0.75039 0.35319 0.7336 0.0
H986 H 0.7217 0.31356 0.68426 0.0
C987 C 0.72651 0.36422 0.74489 0.0
H988 H 0.76624 0.32683 0.70176 0.0
C989 C 0.70096 0.35661 0.73482 0.0
C990 C 0.69876 0.33782 0.71325 0.0
H991 H 0.72747 0.37797 0.76216 0.0
H992 H 0.68294 0.36475 0.74462 0.0
C993 C 0.72268 0.32795 0.701 0.0
C994 C 0.62923 0.02634 0.50352 0.0
C995 C 0.62009 0.00218 0.51585 0.0
H996 H 0.6272 0.06988 0.50266 0.0
C997 C 0.6033 0.00402 0.53907 0.0
H998 H 0.64224 0.02568 0.48569 0.0
C999 C 0.59461 0.02937 0.54881 0.0
C1000 C 0.60252 0.05347 0.53555 0.0
H1001 H 0.59601 0.98581 0.54921 0.0
H1002 H 0.58085 0.02998 0.56608 0.0
C1003 C 0.62055 0.0517 0.51327 0.0
C1004 C 0.31334 0.14593 0.72733 0.0
C1005 C 0.31489 0.1659 0.7068 0.0
H1006 H 0.28758 0.1223 0.75349 0.0
C1007 C 0.29064 0.17548 0.69497 0.0
H1008 H 0.33164 0.13797 0.73677 0.0
C1009 C 0.26536 0.16645 0.70456 0.0
C1010 C 0.26379 0.14766 0.72618 0.0
H1011 H 0.2911 0.19074 0.67902 0.0
H1012 H 0.24706 0.17502 0.69567 0.0
C1013 C 0.28806 0.13691 0.73693 0.0
C1014 C 0.39688 0.4534 0.5161 0.0
C1015 C 0.41466 0.45318 0.53864 0.0
H1016 H 0.37335 0.47745 0.48826 0.0
C1017 C 0.42009 0.47783 0.55218 0.0
H1018 H 0.39209 0.43475 0.50528 0.0
C1019 C 0.40927 0.50234 0.54242 0.0
C1020 C 0.3928 0.50275 0.51889 0.0
H1021 H 0.43359 0.47838 0.56966 0.0
H1022 H 0.41475 0.52109 0.55273 0.0
C1023 C 0.38607 0.47791 0.50633 0.0
C1024 C 0.76752 0.69706 0.65192 0.0
C1025 C 0.7895 0.69653 0.67036 0.0
H1026 H 0.73934 0.72159 0.62935 0.0
C1027 C 0.80184 0.72126 0.6779 0.0
H1028 H 0.75763 0.67837 0.64555 0.0
C1029 C 0.79136 0.74604 0.66855 0.0
C1030 C 0.76829 0.74664 0.65151 0.0
H1031 H 0.81891 0.72158 0.69191 0.0
H1032 H 0.80071 0.76476 0.67562 0.0
C1033 C 0.757 0.72186 0.64261 0.0
C1034 C 0.80269 0.28292 0.83434 0.0
C1035 C 0.78999 0.30714 0.84282 0.0
H1036 H 0.80169 0.23933 0.83419 0.0
C1037 C 0.76758 0.3055 0.86064 0.0
H1038 H 0.82008 0.28344 0.82074 0.0
C1039 C 0.757 0.28019 0.86834 0.0
C1040 C 0.7686 0.25597 0.85838 0.0
H1041 H 0.75743 0.32378 0.86773 0.0
H1042 H 0.739 0.27968 0.88112 0.0
C1043 C 0.7921 0.2576 0.84204 0.0
C1044 C 0.54539 0.94636 0.41998 0.0
C1045 C 0.56915 0.95813 0.40918 0.0
H1046 H 0.50185 0.94701 0.42156 0.0
C1047 C 0.56665 0.97851 0.38915 0.0
H1048 H 0.54659 0.93052 0.43533 0.0
C1049 C 0.54097 0.98801 0.38126 0.0
C1050 C 0.51726 0.97733 0.39323 0.0
H1051 H 0.58455 0.9879 0.38028 0.0
H1052 H 0.53978 0.00446 0.36658 0.0
C1053 C 0.51972 0.95585 0.41209 0.0
C1054 C 0.23441 0.2297 0.84896 0.0
C1055 C 0.22857 0.25577 0.83866 0.0
H1056 H 0.22784 0.18671 0.84521 0.0
C1057 C 0.20908 0.25834 0.81776 0.0
H1058 H 0.24921 0.22703 0.86514 0.0
C1059 C 0.19692 0.23529 0.80629 0.0
C1060 C 0.20384 0.20912 0.81553 0.0
H1061 H 0.2039 0.27814 0.80949 0.0
H1062 H 0.18279 0.23798 0.78951 0.0
C1063 C 0.22211 0.20659 0.83755 0.0
C1064 C 0.99015 0.04639 0.91119 0.0
C1065 C 0.99275 0.02537 0.89184 0.0
H1066 H 0.96309 0.07146 0.93449 0.0
C1067 C 0.96918 0.01536 0.87899 0.0
H1068 H 0.00791 0.05471 0.92134 0.0
C1069 C 0.94346 0.02502 0.88652 0.0
C1070 C 0.94077 0.04488 0.90705 0.0
H1071 H 0.97048 0.99929 0.86389 0.0
H1072 H 0.92564 0.01612 0.87696 0.0
C1073 C 0.96443 0.05603 0.91873 0.0
C1074 C 0.71112 0.24944 0.16236 0.0
C1075 C 0.73467 0.24828 0.14604 0.0
H1076 H 0.68266 0.27475 0.18368 0.0
C1077 C 0.746 0.27274 0.13637 0.0
H1078 H 0.70175 0.23097 0.17002 0.0
C1079 C 0.73503 0.29783 0.14419 0.0
C1080 C 0.71248 0.29901 0.16186 0.0
H1081 H 0.76402 0.27259 0.12361 0.0
H1082 H 0.74492 0.31629 0.13722 0.0
C1083 C 0.70013 0.27455 0.17018 0.0
C1084 C 0.53983 0.05214 0.07726 0.0
C1085 C 0.56329 0.04045 0.08881 0.0
H1086 H 0.49632 0.0514 0.07444 0.0
C1087 C 0.56024 0.02019 0.10886 0.0
H1088 H 0.54146 0.06787 0.06184 0.0
C1089 C 0.53437 0.0107 0.11605 0.0
C1090 C 0.51098 0.02128 0.10336 0.0
H1091 H 0.57789 0.01087 0.1183 0.0
H1092 H 0.5328 0.99436 0.13083 0.0
C1093 C 0.51394 0.04265 0.08447 0.0
C1094 C 0.47877 0.45122 0.09136 0.0
C1095 C 0.48241 0.4742 0.10815 0.0
H1096 H 0.4507 0.42616 0.06922 0.0
C1097 C 0.45928 0.48804 0.11782 0.0
H1098 H 0.49615 0.43997 0.08371 0.0
C1099 C 0.43319 0.48009 0.1095 0.0
C1100 C 0.42968 0.45814 0.09136 0.0
H1101 H 0.46133 0.50572 0.13089 0.0
H1102 H 0.41587 0.49186 0.11647 0.0
C1103 C 0.45269 0.44327 0.08305 0.0
C1104 C 0.10527 0.27795 0.39779 0.0
C1105 C 0.09439 0.25155 0.40022 0.0
H1106 H 0.10194 0.31998 0.40896 0.0
C1107 C 0.07292 0.24713 0.4187 0.0
H1108 H 0.12192 0.28205 0.38388 0.0
C1109 C 0.06135 0.26891 0.433 0.0
C1110 C 0.07109 0.29559 0.42925 0.0
H1111 H 0.06412 0.22703 0.4212 0.0
H1112 H 0.04405 0.26496 0.44614 0.0
C1113 C 0.09379 0.29972 0.4122 0.0
C1114 C 0.54138 0.66126 0.84721 0.0
C1115 C 0.56577 0.64723 0.84191 0.0
H1116 H 0.5023 0.66046 0.86657 0.0
C1117 C 0.56796 0.61981 0.85002 0.0
H1118 H 0.53901 0.68238 0.84128 0.0
C1119 C 0.54681 0.60714 0.86441 0.0
C1120 C 0.52316 0.62174 0.87126 0.0
H1121 H 0.58644 0.60839 0.84613 0.0
H1122 H 0.54958 0.58635 0.87127 0.0
C1123 C 0.52038 0.6487 0.86185 0.0
C1124 C 0.90697 0.2505 0.41931 0.0
C1125 C 0.88906 0.24418 0.39779 0.0
H1126 H 0.93365 0.23523 0.45031 0.0
C1127 C 0.88169 0.21684 0.39352 0.0
H1128 H 0.91299 0.27138 0.42326 0.0
C1129 C 0.8934 0.19611 0.40919 0.0
C1130 C 0.91293 0.20229 0.4293 0.0
H1131 H 0.86777 0.2113 0.37727 0.0
H1132 H 0.8882 0.17517 0.40451 0.0
C1133 C 0.91888 0.22976 0.43482 0.0
C1134 C 0.47958 0.84591 0.86431 0.0
C1135 C 0.47729 0.87283 0.87397 0.0
H1136 H 0.46051 0.81284 0.8431 0.0
C1137 C 0.45394 0.88793 0.86712 0.0
H1138 H 0.4974 0.83376 0.86903 0.0
C1139 C 0.43265 0.87583 0.85238 0.0
C1140 C 0.43441 0.84849 0.84386 0.0
H1141 H 0.45153 0.90871 0.87419 0.0
H1142 H 0.41443 0.88765 0.84844 0.0
C1143 C 0.45847 0.83394 0.84929 0.0
C1144 C 0.12149 0.7154 0.10689 0.0
C1145 C 0.11317 0.74207 0.10059 0.0
H1146 H 0.11563 0.6728 0.0999 0.0
C1147 C 0.09473 0.74608 0.07899 0.0
H1148 H 0.13591 0.71161 0.12319 0.0
C1149 C 0.08299 0.72377 0.06566 0.0
C1150 C 0.08954 0.69705 0.07364 0.0
H1151 H 0.08806 0.76638 0.07346 0.0
H1152 H 0.06766 0.7275 0.0502 0.0
C1153 C 0.10982 0.69312 0.09352 0.0
C1154 C 0.93324 0.61874 0.15117 0.0
C1155 C 0.93544 0.64576 0.16055 0.0
H1156 H 0.95215 0.58593 0.12934 0.0
C1157 C 0.96029 0.65959 0.15703 0.0
H1158 H 0.91442 0.60746 0.15367 0.0
C1159 C 0.98178 0.64735 0.14287 0.0
C1160 C 0.97906 0.62087 0.13217 0.0
H1161 H 0.96272 0.6804 0.164 0.0
H1162 H 0.00022 0.65902 0.13952 0.0
C1163 C 0.95489 0.60636 0.13725 0.0
C1164 C 0.92342 0.75036 0.0892 0.0
C1165 C 0.90265 0.75495 0.10843 0.0
H1166 H 0.95088 0.7679 0.06017 0.0
C1167 C 0.89146 0.78124 0.11061 0.0
H1168 H 0.93241 0.73034 0.08685 0.0
C1169 C 0.90198 0.80278 0.09516 0.0
C1170 C 0.92404 0.79854 0.07733 0.0
H1171 H 0.87532 0.78545 0.12509 0.0
H1172 H 0.89368 0.823 0.09822 0.0
C1173 C 0.93405 0.77193 0.07389 0.0
C1174 C 0.05976 0.8716 0.0983 0.0
C1175 C 0.03267 0.86624 0.10562 0.0
H1176 H 0.10182 0.86696 0.10825 0.0
C1177 C 0.02721 0.85351 0.1307 0.0
H1178 H 0.06444 0.88143 0.07907 0.0
C1179 C 0.04875 0.84452 0.14727 0.0
C1180 C 0.07597 0.84877 0.13926 0.0
H1181 H 0.00644 0.84897 0.13663 0.0
H1182 H 0.04413 0.83339 0.16578 0.0
C1183 C 0.08115 0.86332 0.1151 0.0
C1184 C 0.40515 0.09071 0.26919 0.0
C1185 C 0.38188 0.10706 0.27263 0.0
H1186 H 0.43761 0.06893 0.28857 0.0
C1187 C 0.37562 0.11687 0.29884 0.0
H1188 H 0.41066 0.08295 0.24925 0.0
C1189 C 0.3912 0.10897 0.32137 0.0
C1190 C 0.41323 0.09093 0.3182 0.0
H1191 H 0.35798 0.12972 0.30216 0.0
H1192 H 0.38504 0.11587 0.34143 0.0
C1193 C 0.42062 0.08266 0.29175 0.0
C1194 C 0.341 0.35695 0.97668 0.0
C1195 C 0.36717 0.36858 0.97613 0.0
H1196 H 0.31077 0.33402 0.95524 0.0
C1197 C 0.38428 0.36319 0.9538 0.0
H1198 H 0.32745 0.36052 0.99376 0.0
C1199 C 0.37459 0.34818 0.9315 0.0
C1200 C 0.34779 0.33797 0.93134 0.0
H1201 H 0.40457 0.37185 0.95284 0.0
H1202 H 0.3877 0.34559 0.91391 0.0
C1203 C 0.33149 0.34162 0.95463 0.0
C1204 C 0.61772 0.3732 0.29156 0.0
C1205 C 0.61033 0.38219 0.26536 0.0
H1206 H 0.61178 0.37722 0.33458 0.0
C1207 C 0.58818 0.40018 0.26267 0.0
H1208 H 0.6345 0.35913 0.29436 0.0
C1209 C 0.57516 0.41064 0.2858 0.0
C1210 C 0.58399 0.40326 0.31206 0.0
H1211 H 0.58182 0.40736 0.24277 0.0
H1212 H 0.55915 0.42558 0.28307 0.0
C1213 C 0.60466 0.38359 0.31465 0.0
C1214 C 0.65489 0.14042 0.9766 0.0
C1215 C 0.62882 0.12864 0.9753 0.0
H1216 H 0.68508 0.16455 0.95658 0.0
C1217 C 0.61195 0.13462 0.95292 0.0
H1218 H 0.66826 0.13641 0.99374 0.0
C1219 C 0.62172 0.15063 0.93138 0.0
C1220 C 0.64836 0.16122 0.93207 0.0
H1221 H 0.59174 0.12587 0.9514 0.0
H1222 H 0.60876 0.15386 0.91379 0.0
C1223 C 0.66449 0.15668 0.95533 0.0
C1224 C 0.40737 0.90893 0.23147 0.0
C1225 C 0.38518 0.89087 0.22989 0.0
H1226 H 0.43727 0.93194 0.20959 0.0
C1227 C 0.37848 0.87932 0.2045 0.0
H1228 H 0.4132 0.91804 0.25074 0.0
C1229 C 0.39237 0.8872 0.1809 0.0
C1230 C 0.41315 0.90689 0.18219 0.0
H1231 H 0.36165 0.86514 0.20261 0.0
H1232 H 0.3858 0.87892 0.16149 0.0
C1233 C 0.42117 0.91691 0.20785 0.0
C1234 C 0.1725 0.32301 0.05227 0.0
C1235 C 0.15733 0.32708 0.07627 0.0
H1236 H 0.17832 0.33401 0.01045 0.0
C1237 C 0.13367 0.34318 0.07507 0.0
H1238 H 0.19071 0.31055 0.05241 0.0
C1239 C 0.12659 0.3567 0.05099 0.0
C1240 C 0.14299 0.35435 0.0276 0.0
H1241 H 0.12138 0.34656 0.09311 0.0
H1242 H 0.10903 0.37008 0.05118 0.0
C1243 C 0.16537 0.33649 0.02817 0.0
C1244 C 0.62369 0.61982 0.19445 0.0
C1245 C 0.6139 0.61508 0.22097 0.0
H1246 H 0.61968 0.61101 0.15192 0.0
C1247 C 0.58995 0.59969 0.22432 0.0
H1248 H 0.64195 0.63177 0.19112 0.0
C1249 C 0.57716 0.58772 0.20179 0.0
C1250 C 0.58807 0.59093 0.17546 0.0
H1251 H 0.58176 0.59579 0.24446 0.0
H1252 H 0.55949 0.57493 0.20519 0.0
C1253 C 0.61089 0.60789 0.17194 0.0
C1254 C 0.88329 0.14787 0.07059 0.0
C1255 C 0.85695 0.15919 0.07013 0.0
H1256 H 0.91307 0.12384 0.04943 0.0
C1257 C 0.84137 0.15699 0.04615 0.0
H1258 H 0.89585 0.14931 0.08871 0.0
C1259 C 0.85109 0.1422 0.02387 0.0
C1260 C 0.87676 0.12955 0.02489 0.0
H1261 H 0.82105 0.16553 0.045 0.0
H1262 H 0.83808 0.13993 0.00615 0.0
C1263 C 0.89318 0.13331 0.04808 0.0
C1264 C 0.27819 0.41308 0.09165 0.0
C1265 C 0.30439 0.40696 0.10151 0.0
H1266 H 0.23559 0.40373 0.09298 0.0
C1267 C 0.30692 0.38876 0.12354 0.0
H1268 H 0.27546 0.42715 0.07485 0.0
C1269 C 0.28403 0.37534 0.13398 0.0
C1270 C 0.2581 0.37978 0.1226 0.0
H1271 H 0.32676 0.38379 0.13184 0.0
H1272 H 0.28694 0.36037 0.14996 0.0
C1273 C 0.25529 0.39962 0.10208 0.0
C1274 C 0.26414 0.60002 0.39653 0.0
C1275 C 0.26543 0.62322 0.37971 0.0
H1276 H 0.28623 0.57104 0.42057 0.0
C1277 C 0.29113 0.63291 0.37156 0.0
H1278 H 0.24469 0.59187 0.40306 0.0
C1279 C 0.31497 0.62095 0.38163 0.0
C1280 C 0.31365 0.59903 0.40007 0.0
H1281 H 0.2929 0.65062 0.35848 0.0
H1282 H 0.3344 0.62977 0.37595 0.0
C1283 C 0.288 0.58805 0.4066 0.0
C1284 C 0.88256 0.45546 0.87613 0.0
C1285 C 0.87616 0.48069 0.86415 0.0
H1286 H 0.87545 0.41244 0.87659 0.0
C1287 C 0.85481 0.48192 0.84506 0.0
H1288 H 0.89876 0.45382 0.89107 0.0
C1289 C 0.84146 0.45815 0.83672 0.0
C1290 C 0.84915 0.43267 0.84734 0.0
H1291 H 0.84922 0.50105 0.83557 0.0
H1292 H 0.82596 0.45966 0.82105 0.0
C1293 C 0.86917 0.4317 0.86784 0.0
C1294 C 0.70922 0.90172 0.3967 0.0
C1295 C 0.71601 0.91992 0.41784 0.0
H1296 H 0.72335 0.87133 0.36869 0.0
C1297 C 0.74364 0.92388 0.42427 0.0
H1298 H 0.68815 0.8983 0.39106 0.0
C1299 C 0.76386 0.90851 0.41131 0.0
C1300 C 0.75687 0.88872 0.39174 0.0
H1301 H 0.74962 0.93792 0.44026 0.0
H1302 H 0.78481 0.91113 0.41778 0.0
C1303 C 0.72943 0.88623 0.38383 0.0
C1304 C 0.61571 0.56149 0.35549 0.0
C1305 C 0.61494 0.5331 0.35197 0.0
H1306 H 0.63392 0.59925 0.34372 0.0
C1307 C 0.63462 0.52068 0.33522 0.0
H1308 H 0.60096 0.57164 0.36843 0.0
C1309 C 0.6534 0.53657 0.32073 0.0
C1310 C 0.65307 0.56513 0.32301 0.0
H1311 H 0.63456 0.49883 0.33208 0.0
H1312 H 0.66742 0.52654 0.30694 0.0
C1313 C 0.63467 0.57731 0.34133 0.0
C1314 C 0.23491 0.585 0.56372 0.0
C1315 C 0.20763 0.58799 0.57183 0.0
H1316 H 0.27629 0.59744 0.56936 0.0
C1317 C 0.20172 0.60482 0.59435 0.0
H1318 H 0.2402 0.5721 0.54659 0.0
C1319 C 0.22245 0.61967 0.6073 0.0
C1320 C 0.24956 0.61774 0.59823 0.0
H1321 H 0.18091 0.60759 0.60115 0.0
H1322 H 0.21706 0.6334 0.62375 0.0
C1323 C 0.25564 0.59955 0.57687 0.0
C1324 C 0.86506 0.57449 0.64841 0.0
C1325 C 0.84606 0.5733 0.66985 0.0
H1326 H 0.89381 0.55277 0.62384 0.0
C1327 C 0.83932 0.54775 0.68094 0.0
H1328 H 0.87059 0.59381 0.63927 0.0
C1329 C 0.85262 0.52417 0.67203 0.0
C1330 C 0.87298 0.52565 0.6519 0.0
H1331 H 0.82465 0.54608 0.69736 0.0
H1332 H 0.8478 0.50499 0.68184 0.0
C1333 C 0.8784 0.55093 0.63955 0.0
C1334 C 0.13446 0.93325 0.64041 0.0
C1335 C 0.15534 0.93394 0.66006 0.0
H1336 H 0.10426 0.95577 0.61837 0.0
C1337 C 0.16368 0.95931 0.67048 0.0
H1338 H 0.12762 0.91408 0.63184 0.0
C1339 C 0.15032 0.98325 0.6627 0.0
C1340 C 0.12826 0.98235 0.64439 0.0
H1341 H 0.17982 0.96061 0.68552 0.0
H1342 H 0.15655 0.00229 0.67199 0.0
C1343 C 0.12104 0.95719 0.63268 0.0
C1344 C 0.6148 0.77967 0.89184 0.0
C1345 C 0.60502 0.75292 0.89505 0.0
H1346 H 0.6108 0.82159 0.90319 0.0
C1347 C 0.58559 0.7477 0.91548 0.0
H1348 H 0.62994 0.78437 0.87646 0.0
C1349 C 0.57452 0.76907 0.93074 0.0
C1350 C 0.58273 0.79611 0.92601 0.0
H1351 H 0.57775 0.72731 0.91867 0.0
H1352 H 0.55852 0.76452 0.94527 0.0
C1353 C 0.60382 0.80103 0.90721 0.0
C1354 C 0.04316 0.10526 0.37537 0.0
C1355 C 0.01929 0.12041 0.37987 0.0
H1356 H 0.08361 0.10499 0.35888 0.0
C1357 C 0.01691 0.14633 0.36784 0.0
H1358 H 0.04562 0.08523 0.38431 0.0
C1359 C 0.03853 0.15753 0.35304 0.0
C1360 C 0.06317 0.14321 0.35021 0.0
H1361 H 0.99868 0.15843 0.3707 0.0
H1362 H 0.03642 0.17803 0.34512 0.0
C1363 C 0.06495 0.11662 0.36082 0.0
C1364 C 0.39824 0.69304 0.90589 0.0
C1365 C 0.41965 0.69786 0.92438 0.0
H1366 H 0.37166 0.70986 0.87559 0.0
C1367 C 0.42811 0.72484 0.92898 0.0
H1368 H 0.3911 0.67252 0.90194 0.0
C1369 C 0.41683 0.74629 0.91398 0.0
C1370 C 0.397 0.74117 0.89389 0.0
H1371 H 0.44439 0.7293 0.94325 0.0
H1372 H 0.42478 0.76665 0.9171 0.0
C1373 C 0.38711 0.71446 0.89072 0.0
C1374 C 0.97154 0.35183 0.3677 0.0
C1375 C 0.96529 0.36366 0.39304 0.0
H1376 H 0.95575 0.33312 0.33129 0.0
C1377 C 0.938 0.36895 0.39957 0.0
H1378 H 0.99249 0.34728 0.36241 0.0
C1379 C 0.91715 0.36155 0.38165 0.0
C1380 C 0.92307 0.34784 0.35714 0.0
H1381 H 0.93272 0.37795 0.41906 0.0
H1382 H 0.89628 0.36506 0.38792 0.0
C1383 C 0.95054 0.34365 0.35 0.0
C1384 C 0.58767 0.24932 0.58841 0.0
C1385 C 0.60743 0.24421 0.60856 0.0
H1386 H 0.56063 0.23237 0.55861 0.0
C1387 C 0.61748 0.21757 0.61158 0.0
H1388 H 0.5796 0.26965 0.58541 0.0
C1389 C 0.60668 0.1962 0.5961 0.0
C1390 C 0.58548 0.201 0.57738 0.0
H1391 H 0.63288 0.21297 0.62674 0.0
H1392 H 0.61404 0.17573 0.59982 0.0
C1393 C 0.57676 0.22793 0.57303 0.0
C1394 C 0.45764 0.16021 0.64781 0.0
C1395 C 0.4308 0.16122 0.6377 0.0
H1396 H 0.49951 0.15034 0.63934 0.0
C1397 C 0.42545 0.15067 0.61156 0.0
H1398 H 0.46238 0.16813 0.66789 0.0
C1399 C 0.44662 0.14109 0.5952 0.0
C1400 C 0.47355 0.14114 0.6048 0.0
H1401 H 0.40506 0.15109 0.60309 0.0
H1402 H 0.44201 0.13433 0.57465 0.0
C1403 C 0.47884 0.14993 0.63157 0.0
C1404 C 0.42604 0.30387 0.58184 0.0
C1405 C 0.41636 0.32875 0.59225 0.0
H1406 H 0.42647 0.26042 0.5857 0.0
C1407 C 0.39666 0.32829 0.61307 0.0
H1408 H 0.4411 0.30348 0.56569 0.0
C1409 C 0.38831 0.30361 0.62459 0.0
C1410 C 0.39945 0.27883 0.61551 0.0
H1411 H 0.38859 0.34707 0.62141 0.0
H1412 H 0.37404 0.3041 0.64144 0.0
C1413 C 0.41765 0.27916 0.59335 0.0
C1414 C 0.56889 0.39516 0.62643 0.0
C1415 C 0.54191 0.38561 0.62524 0.0
H1416 H 0.60941 0.38833 0.6409 0.0
C1417 C 0.53459 0.36291 0.64119 0.0
H1418 H 0.57518 0.41273 0.61463 0.0
C1419 C 0.55431 0.34883 0.65629 0.0
C1420 C 0.58171 0.3572 0.65574 0.0
H1421 H 0.51394 0.35509 0.64087 0.0
H1422 H 0.54832 0.33057 0.66716 0.0
C1423 C 0.58855 0.38112 0.64151 0.0
C1424 C 0.89715 0.61621 0.82717 0.0
C1425 C 0.9163 0.59504 0.82486 0.0
H1426 H 0.86809 0.64149 0.80671 0.0
C1427 C 0.92322 0.58543 0.79875 0.0
H1428 H 0.89151 0.62425 0.84696 0.0
C1429 C 0.90985 0.59541 0.77563 0.0
C1430 C 0.88921 0.61511 0.77816 0.0
H1431 H 0.93807 0.5693 0.79622 0.0
H1432 H 0.91475 0.58662 0.75595 0.0
C1433 C 0.88371 0.62612 0.80406 0.0
C1434 C 0.87931 0.862 0.46369 0.0
C1435 C 0.86286 0.85824 0.48687 0.0
H1436 H 0.88537 0.85315 0.42138 0.0
C1437 C 0.8415 0.83916 0.48568 0.0
H1438 H 0.89611 0.87633 0.46398 0.0
C1439 C 0.83531 0.8259 0.4612 0.0
C1440 C 0.85039 0.83136 0.43744 0.0
H1441 H 0.82857 0.83558 0.50322 0.0
H1442 H 0.81778 0.81247 0.4606 0.0
C1443 C 0.87317 0.84865 0.43923 0.0
C1444 C 0.12593 0.87946 0.79554 0.0
C1445 C 0.11835 0.88887 0.76953 0.0
H1446 H 0.11967 0.88222 0.83865 0.0
C1447 C 0.09585 0.90645 0.76721 0.0
H1448 H 0.14303 0.86573 0.79804 0.0
C1449 C 0.08252 0.91601 0.79052 0.0
C1450 C 0.09132 0.90807 0.81664 0.0
H1451 H 0.08935 0.91395 0.74748 0.0
H1452 H 0.06611 0.93056 0.78809 0.0
C1453 C 0.1125 0.88891 0.81885 0.0
C1454 C 0.14808 0.64093 0.46499 0.0
C1455 C 0.13783 0.61475 0.4596 0.0
H1456 H 0.16503 0.67754 0.44807 0.0
C1457 C 0.13359 0.6067 0.43246 0.0
H1458 H 0.15158 0.64757 0.48579 0.0
C1459 C 0.14072 0.62392 0.411 0.0
C1460 C 0.15285 0.64933 0.41623 0.0
H1461 H 0.12549 0.58668 0.42778 0.0
H1462 H 0.13812 0.61659 0.39031 0.0
C1463 C 0.15582 0.65801 0.44344 0.0
C1464 C 0.88124 0.38129 0.71038 0.0
C1465 C 0.88802 0.39194 0.73614 0.0
H1466 H 0.88735 0.38338 0.66723 0.0
C1467 C 0.90914 0.41123 0.73802 0.0
H1468 H 0.86521 0.36625 0.70823 0.0
C1469 C 0.92179 0.42113 0.71447 0.0
C1470 C 0.91364 0.41188 0.68857 0.0
H1471 H 0.91501 0.41973 0.75756 0.0
H1472 H 0.93707 0.43694 0.71654 0.0
C1473 C 0.89395 0.39113 0.68684 0.0
C1474 C 0.61512 0.86524 0.54766 0.0
C1475 C 0.63242 0.87047 0.52542 0.0
H1476 H 0.61112 0.8474 0.58738 0.0
C1477 C 0.65854 0.85875 0.52514 0.0
H1478 H 0.59486 0.87397 0.54844 0.0
C1479 C 0.66772 0.84331 0.54722 0.0
C1480 C 0.65112 0.83954 0.57027 0.0
H1481 H 0.67226 0.86218 0.50817 0.0
H1482 H 0.68835 0.83547 0.54671 0.0
C1483 C 0.62445 0.85005 0.56997 0.0
C1484 C 0.08651 0.08705 0.71133 0.0
C1485 C 0.09423 0.09579 0.68514 0.0
H1486 H 0.09527 0.08753 0.75408 0.0
C1487 C 0.11557 0.11478 0.68267 0.0
H1488 H 0.07002 0.0726 0.71398 0.0
C1489 C 0.13014 0.12328 0.70568 0.0
C1490 C 0.1236 0.11307 0.73166 0.0
H1491 H 0.12194 0.12209 0.66283 0.0
H1492 H 0.1473 0.13691 0.70291 0.0
C1493 C 0.10099 0.09565 0.73435 0.0
C1494 C 0.3511 0.64665 0.52156 0.0
C1495 C 0.37686 0.63428 0.52329 0.0
H1496 H 0.32071 0.67058 0.54148 0.0
C1497 C 0.39316 0.63931 0.54633 0.0
H1498 H 0.33818 0.64338 0.50392 0.0
C1499 C 0.38301 0.65478 0.56811 0.0
C1500 C 0.35654 0.66575 0.56703 0.0
H1501 H 0.41312 0.63008 0.54821 0.0
H1502 H 0.39544 0.65713 0.58622 0.0
C1503 C 0.34113 0.66236 0.54308 0.0
C1504 C 0.81256 0.88722 0.61706 0.0
C1505 C 0.81289 0.90479 0.59439 0.0
H1506 H 0.78893 0.86068 0.64243 0.0
C1507 C 0.78804 0.91142 0.58175 0.0
H1508 H 0.8313 0.88181 0.62742 0.0
C1509 C 0.7637 0.89936 0.59045 0.0
C1510 C 0.76365 0.88034 0.61194 0.0
H1511 H 0.7875 0.92502 0.56436 0.0
H1512 H 0.74512 0.90402 0.57945 0.0
C1513 C 0.78823 0.8751 0.62572 0.0
C1514 C 0.80006 0.1038 0.89587 0.0
C1515 C 0.79359 0.08336 0.91495 0.0
H1516 H 0.7852 0.13588 0.87023 0.0
C1517 C 0.76602 0.07747 0.91998 0.0
H1518 H 0.82109 0.10878 0.89138 0.0
C1519 C 0.74543 0.0929 0.9077 0.0
C1520 C 0.75195 0.11471 0.89024 0.0
H1521 H 0.7603 0.06172 0.93436 0.0
H1522 H 0.72445 0.0886 0.91307 0.0
C1523 C 0.77946 0.11936 0.88372 0.0
C1524 C 0.33966 0.96106 0.33207 0.0
C1525 C 0.34715 0.93486 0.34088 0.0
H1526 H 0.34856 0.00374 0.33287 0.0
C1527 C 0.36818 0.93222 0.36019 0.0
H1528 H 0.3234 0.96382 0.31737 0.0
C1529 C 0.38271 0.9551 0.36898 0.0
C1530 C 0.3764 0.9811 0.35877 0.0
H1531 H 0.37435 0.91234 0.36754 0.0
H1532 H 0.39963 0.95222 0.38289 0.0
C1533 C 0.35408 0.98397 0.34099 0.0
C1534 C 0.21107 0.37934 0.88411 0.0
C1535 C 0.23593 0.38255 0.89801 0.0
H1536 H 0.16816 0.38695 0.88386 0.0
C1537 C 0.23661 0.39909 0.92147 0.0
H1538 H 0.20982 0.36689 0.86589 0.0
C1539 C 0.21265 0.41055 0.93186 0.0
C1540 C 0.1875 0.40576 0.91898 0.0
H1541 H 0.25544 0.40213 0.93262 0.0
H1542 H 0.2137 0.4221 0.95067 0.0
C1543 C 0.18714 0.39083 0.89447 0.0
C1544 C 0.12836 0.04496 0.86697 0.0
C1545 C 0.13288 0.01951 0.8546 0.0
H1546 H 0.13861 0.08732 0.86812 0.0
C1547 C 0.15394 0.01707 0.83529 0.0
H1548 H 0.11245 0.04751 0.88207 0.0
C1549 C 0.1689 0.03994 0.82721 0.0
C1550 C 0.16322 0.06572 0.83835 0.0
H1551 H 0.15809 0.99774 0.82547 0.0
H1552 H 0.18414 0.03759 0.8114 0.0
C1553 C 0.14341 0.0678 0.85898 0.0
C1554 C 0.7047 0.09742 0.10184 0.0
C1555 C 0.71131 0.07842 0.08136 0.0
H1556 H 0.71929 0.12806 0.12943 0.0
C1557 C 0.73892 0.07352 0.07559 0.0
H1558 H 0.68363 0.10165 0.10688 0.0
C1559 C 0.75937 0.08852 0.08866 0.0
C1560 C 0.75269 0.10895 0.10767 0.0
H1561 H 0.74476 0.05888 0.06011 0.0
H1562 H 0.78035 0.085 0.08278 0.0
C1563 C 0.72516 0.1126 0.11478 0.0
C1564 C 0.34978 0.01181 0.16309 0.0
C1565 C 0.37068 0.0154 0.14379 0.0
H1566 H 0.3201 0.03088 0.1888 0.0
C1567 C 0.37551 0.04165 0.13339 0.0
H1568 H 0.34541 0.99185 0.17145 0.0
C1569 C 0.36089 0.06403 0.14327 0.0
C1570 C 0.34122 0.06067 0.16387 0.0
H1571 H 0.39134 0.04511 0.11838 0.0
H1572 H 0.36589 0.08411 0.13558 0.0
C1573 C 0.33526 0.03421 0.17308 0.0
C1574 C 0.64377 0.44345 0.1631 0.0
C1575 C 0.64776 0.41862 0.14937 0.0
H1576 H 0.62445 0.48251 0.163 0.0
C1577 C 0.63682 0.41544 0.12302 0.0
H1578 H 0.6519 0.44661 0.18341 0.0
C1579 C 0.6212 0.43621 0.11117 0.0
C1580 C 0.61594 0.46038 0.12562 0.0
H1581 H 0.63961 0.3966 0.11186 0.0
H1582 H 0.61229 0.43281 0.09124 0.0
C1583 C 0.62792 0.46401 0.15143 0.0
loop_
_geom_bond_atom_site_label_1
_geom_bond_atom_site_label_2
_geom_bond_distance
_geom_bond_site_symmetry_2
_ccdc_geom_bond_type
Mg0 O7 2.141 . S
Mg0 O8 2.048 . S
Mg0 O9 2.048 . S
Mg0 O12 2.141 . S
C1 O2 1.313 . S
C1 O8 1.195 . S
O2 C1 1.313 . S
C3 O4 1.245 . S
C3 O12 1.289 . S
O4 C3 1.245 . S
C5 O6 1.245 . S
C5 O7 1.289 . S
O6 C5 1.245 . S
O7 Mg0 2.141 . S
O7 C5 1.289 . S
O8 Mg0 2.048 . S
O8 C1 1.195 . S
O9 Mg0 2.048 . S
O9 C10 1.195 . S
C10 O9 1.195 . S
C10 O11 1.313 . S
O11 C10 1.313 . S
O12 Mg0 2.141 . S
O12 C3 1.289 . S
Mg13 O20 2.141 . S
Mg13 O21 2.048 . S
Mg13 O22 2.048 . S
Mg13 O25 2.141 . S
C14 O15 1.313 . S
C14 O21 1.195 . S
O15 C14 1.313 . S
C16 O17 1.245 . S
C16 O25 1.289 . S
O17 C16 1.245 . S
C18 O19 1.245 . S
C18 O20 1.289 . S
O19 C18 1.245 . S
O20 Mg13 2.141 . S
O20 C18 1.289 . S
O21 Mg13 2.048 . S
O21 C14 1.195 . S
O22 Mg13 2.048 . S
O22 C23 1.195 . S
C23 O22 1.195 . S
C23 O24 1.313 . S
O24 C23 1.313 . S
O25 Mg13 2.141 . S
O25 C16 1.289 . S
Mg26 O33 2.141 . S
Mg26 O34 2.048 . S
Mg26 O35 2.048 . S
Mg26 O38 2.141 . S
C27 O28 1.313 . S
C27 O34 1.195 . S
O28 C27 1.313 . S
C29 O30 1.245 . S
C29 O38 1.289 . S
O30 C29 1.245 . S
C31 O32 1.245 . S
C31 O33 1.289 . S
O32 C31 1.245 . S
O33 Mg26 2.141 . S
O33 C31 1.289 . S
O34 Mg26 2.048 . S
O34 C27 1.195 . S
O35 Mg26 2.048 . S
O35 C36 1.195 . S
C36 O35 1.195 . S
C36 O37 1.313 . S
O37 C36 1.313 . S
O38 Mg26 2.141 . S
O38 C29 1.289 . S
Mg39 O46 2.141 . S
Mg39 O47 2.048 . S
Mg39 O48 2.048 . S
Mg39 O51 2.141 . S
C40 O41 1.313 . S
C40 O47 1.195 . S
O41 C40 1.313 . S
C42 O43 1.245 . S
C42 O51 1.289 . S
O43 C42 1.245 . S
C44 O45 1.245 . S
C44 O46 1.289 . S
O45 C44 1.245 . S
O46 Mg39 2.141 . S
O46 C44 1.289 . S
O47 Mg39 2.048 . S
O47 C40 1.195 . S
O48 Mg39 2.048 . S
O48 C49 1.195 . S
C49 O48 1.195 . S
C49 O50 1.313 . S
O50 C49 1.313 . S
O51 Mg39 2.141 . S
O51 C42 1.289 . S
Mg52 O59 2.141 . S
Mg52 O60 2.048 . S
Mg52 O61 2.048 . S
Mg52 O64 2.141 . S
C53 O54 1.313 . S
C53 O60 1.195 . S
O54 C53 1.313 . S
C55 O56 1.245 . S
C55 O64 1.289 . S
O56 C55 1.245 . S
C57 O58 1.245 . S
C57 O59 1.289 . S
O58 C57 1.245 . S
O59 Mg52 2.141 . S
O59 C57 1.289 . S
O60 Mg52 2.048 . S
O60 C53 1.195 . S
O61 Mg52 2.048 . S
O61 C62 1.195 . S
C62 O61 1.195 . S
C62 O63 1.313 . S
O63 C62 1.313 . S
O64 Mg52 2.141 . S
O64 C55 1.289 . S
Mg65 O72 2.141 . S
Mg65 O73 2.048 1_655 S
Mg65 O74 2.048 1_655 S
Mg65 O77 2.141 . S
C66 O67 1.313 . S
C66 O73 1.195 . S
O67 C66 1.313 . S
C68 O69 1.245 . S
C68 O77 1.289 . S
O69 C68 1.245 . S
C70 O71 1.245 . S
C70 O72 1.289 . S
O71 C70 1.245 . S
O72 Mg65 2.141 . S
O72 C70 1.289 . S
O73 Mg65 2.048 1_455 S
O73 C66 1.195 . S
O74 Mg65 2.048 1_455 S
O74 C75 1.195 . S
C75 O74 1.195 . S
C75 O76 1.313 . S
O76 C75 1.313 . S
O77 Mg65 2.141 . S
O77 C68 1.289 . S
Mg78 O85 2.141 . S
Mg78 O86 2.048 . S
Mg78 O87 2.048 . S
Mg78 O90 2.141 . S
C79 O80 1.313 . S
C79 O86 1.195 . S
O80 C79 1.313 . S
C81 O82 1.245 . S
C81 O90 1.289 . S
O82 C81 1.245 . S
C83 O84 1.245 . S
C83 O85 1.289 . S
O84 C83 1.245 . S
O85 Mg78 2.141 . S
O85 C83 1.289 . S
O86 Mg78 2.048 . S
O86 C79 1.195 . S
O87 Mg78 2.048 . S
O87 C88 1.195 . S
C88 O87 1.195 . S
C88 O89 1.313 . S
O89 C88 1.313 . S
O90 Mg78 2.141 . S
O90 C81 1.289 . S
Mg91 O98 2.141 . S
Mg91 O99 2.048 1_455 S
Mg91 O100 2.048 1_455 S
Mg91 O103 2.141 . S
C92 O93 1.313 . S
C92 O99 1.195 . S
O93 C92 1.313 . S
C94 O95 1.245 . S
C94 O103 1.289 . S
O95 C94 1.245 . S
C96 O97 1.245 . S
C96 O98 1.289 . S
O97 C96 1.245 . S
O98 Mg91 2.141 . S
O98 C96 1.289 . S
O99 Mg91 2.048 1_655 S
O99 C92 1.195 . S
O100 Mg91 2.048 1_655 S
O100 C101 1.195 . S
C101 O100 1.195 . S
C101 O102 1.313 . S
O102 C101 1.313 . S
O103 Mg91 2.141 . S
O103 C94 1.289 . S
Mg104 O111 2.141 . S
Mg104 O112 2.048 . S
Mg104 O113 2.048 . S
Mg104 O116 2.141 . S
C105 O106 1.313 . S
C105 O112 1.195 . S
O106 C105 1.313 . S
C107 O108 1.245 . S
C107 O116 1.289 . S
O108 C107 1.245 . S
C109 O110 1.245 . S
C109 O111 1.289 . S
O110 C109 1.245 . S
O111 Mg104 2.141 . S
O111 C109 1.289 . S
O112 Mg104 2.048 . S
O112 C105 1.195 . S
O113 Mg104 2.048 . S
O113 C114 1.195 . S
C114 O113 1.195 . S
C114 O115 1.313 . S
O115 C114 1.313 . S
O116 Mg104 2.141 . S
O116 C107 1.289 . S
Mg117 O124 2.141 . S
Mg117 O125 2.048 1_556 S
Mg117 O126 2.048 1_556 S
Mg117 O129 2.141 . S
C118 O119 1.313 . S
C118 O125 1.195 . S
O119 C118 1.313 . S
C120 O121 1.245 . S
C120 O129 1.289 . S
O121 C120 1.245 . S
C122 O123 1.245 . S
C122 O124 1.289 . S
O123 C122 1.245 . S
O124 Mg117 2.141 . S
O124 C122 1.289 . S
O125 Mg117 2.048 1_554 S
O125 C118 1.195 . S
O126 Mg117 2.048 1_554 S
O126 C127 1.195 . S
C127 O126 1.195 . S
C127 O128 1.313 . S
O128 C127 1.313 . S
O129 Mg117 2.141 . S
O129 C120 1.289 . S
Mg130 O137 2.141 . S
Mg130 O138 2.048 . S
Mg130 O139 2.048 . S
Mg130 O142 2.141 . S
C131 O132 1.313 . S
C131 O138 1.195 . S
O132 C131 1.313 . S
C133 O134 1.245 . S
C133 O142 1.289 . S
O134 C133 1.245 . S
C135 O136 1.245 . S
C135 O137 1.289 . S
O136 C135 1.245 . S
O137 Mg130 2.141 . S
O137 C135 1.289 . S
O138 Mg130 2.048 . S
O138 C131 1.195 . S
O139 Mg130 2.048 . S
O139 C140 1.195 . S
C140 O139 1.195 . S
C140 O141 1.313 . S
O141 C140 1.313 . S
O142 Mg130 2.141 . S
O142 C133 1.289 . S
Mg143 O150 2.141 . S
Mg143 O151 2.048 1_556 S
Mg143 O152 2.048 1_556 S
Mg143 O155 2.141 . S
C144 O145 1.313 . S
C144 O151 1.195 . S
O145 C144 1.313 . S
C146 O147 1.245 . S
C146 O155 1.289 . S
O147 C146 1.245 . S
C148 O149 1.245 . S
C148 O150 1.289 . S
O149 C148 1.245 . S
O150 Mg143 2.141 . S
O150 C148 1.289 . S
O151 Mg143 2.048 1_554 S
O151 C144 1.195 . S
O152 Mg143 2.048 1_554 S
O152 C153 1.195 . S
C153 O152 1.195 . S
C153 O154 1.313 . S
O154 C153 1.313 . S
O155 Mg143 2.141 . S
O155 C146 1.289 . S
Mg156 O163 2.141 . S
Mg156 O164 2.048 . S
Mg156 O165 2.048 . S
Mg156 O168 2.141 . S
C157 O158 1.313 . S
C157 O164 1.195 . S
O158 C157 1.313 . S
C159 O160 1.245 . S
C159 O168 1.289 . S
O160 C159 1.245 . S
C161 O162 1.245 . S
C161 O163 1.289 . S
O162 C161 1.245 . S
O163 Mg156 2.141 . S
O163 C161 1.289 . S
O164 Mg156 2.048 . S
O164 C157 1.195 . S
O165 Mg156 2.048 . S
O165 C166 1.195 . S
C166 O165 1.195 . S
C166 O167 1.313 . S
O167 C166 1.313 . S
O168 Mg156 2.141 . S
O168 C159 1.289 . S
Mg169 O176 2.141 . S
Mg169 O177 2.048 1_554 S
Mg169 O178 2.048 1_554 S
Mg169 O181 2.141 . S
C170 O171 1.313 . S
C170 O177 1.195 . S
O171 C170 1.313 . S
C172 O173 1.245 . S
C172 O181 1.289 . S
O173 C172 1.245 . S
C174 O175 1.245 . S
C174 O176 1.289 . S
O175 C174 1.245 . S
O176 Mg169 2.141 . S
O176 C174 1.289 . S
O177 Mg169 2.048 1_556 S
O177 C170 1.195 . S
O178 Mg169 2.048 1_556 S
O178 C179 1.195 . S
C179 O178 1.195 . S
C179 O180 1.313 . S
O180 C179 1.313 . S
O181 Mg169 2.141 . S
O181 C172 1.289 . S
Mg182 O189 2.141 . S
Mg182 O190 2.048 . S
Mg182 O191 2.048 . S
Mg182 O194 2.141 . S
C183 O184 1.313 . S
C183 O190 1.195 . S
O184 C183 1.313 . S
C185 O186 1.245 . S
C185 O194 1.289 . S
O186 C185 1.245 . S
C187 O188 1.245 . S
C187 O189 1.289 . S
O188 C187 1.245 . S
O189 Mg182 2.141 . S
O189 C187 1.289 . S
O190 Mg182 2.048 . S
O190 C183 1.195 . S
O191 Mg182 2.048 . S
O191 C192 1.195 . S
C192 O191 1.195 . S
C192 O193 1.313 . S
O193 C192 1.313 . S
O194 Mg182 2.141 . S
O194 C185 1.289 . S
Mg195 O202 2.141 . S
Mg195 O203 2.048 1_554 S
Mg195 O204 2.048 1_554 S
Mg195 O207 2.141 . S
C196 O197 1.313 . S
C196 O203 1.195 . S
O197 C196 1.313 . S
C198 O199 1.245 . S
C198 O207 1.289 . S
O199 C198 1.245 . S
C200 O201 1.245 . S
C200 O202 1.289 . S
O201 C200 1.245 . S
O202 Mg195 2.141 . S
O202 C200 1.289 . S
O203 Mg195 2.048 1_556 S
O203 C196 1.195 . S
O204 Mg195 2.048 1_556 S
O204 C205 1.195 . S
C205 O204 1.195 . S
C205 O206 1.313 . S
O206 C205 1.313 . S
O207 Mg195 2.141 . S
O207 C198 1.289 . S
Mg208 O215 2.141 . S
Mg208 O216 2.048 . S
Mg208 O217 2.048 . S
Mg208 O220 2.141 . S
C209 O210 1.313 . S
C209 O216 1.195 . S
O210 C209 1.313 . S
C211 O212 1.245 . S
C211 O220 1.289 . S
O212 C211 1.245 . S
C213 O214 1.245 . S
C213 O215 1.289 . S
O214 C213 1.245 . S
O215 Mg208 2.141 . S
O215 C213 1.289 . S
O216 Mg208 2.048 . S
O216 C209 1.195 . S
O217 Mg208 2.048 . S
O217 C218 1.195 . S
C218 O217 1.195 . S
C218 O219 1.313 . S
O219 C218 1.313 . S
O220 Mg208 2.141 . S
O220 C211 1.289 . S
Mg221 O228 2.141 . S
Mg221 O229 2.048 . S
Mg221 O230 2.048 . S
Mg221 O233 2.141 . S
C222 O223 1.313 . S
C222 O229 1.195 . S
O223 C222 1.313 . S
C224 O225 1.245 . S
C224 O233 1.289 . S
O225 C224 1.245 . S
C226 O227 1.245 . S
C226 O228 1.289 . S
O227 C226 1.245 . S
O228 Mg221 2.141 . S
O228 C226 1.289 . S
O229 Mg221 2.048 . S
O229 C222 1.195 . S
O230 Mg221 2.048 . S
O230 C231 1.195 . S
C231 O230 1.195 . S
C231 O232 1.313 . S
O232 C231 1.313 . S
O233 Mg221 2.141 . S
O233 C224 1.289 . S
Mg234 O241 2.141 . S
Mg234 O242 2.048 . S
Mg234 O243 2.048 . S
Mg234 O246 2.141 . S
C235 O236 1.313 . S
C235 O242 1.195 . S
O236 C235 1.313 . S
C237 O238 1.245 . S
C237 O246 1.289 . S
O238 C237 1.245 . S
C239 O240 1.245 . S
C239 O241 1.289 . S
O240 C239 1.245 . S
O241 Mg234 2.141 . S
O241 C239 1.289 . S
O242 Mg234 2.048 . S
O242 C235 1.195 . S
O243 Mg234 2.048 . S
O243 C244 1.195 . S
C244 O243 1.195 . S
C244 O245 1.313 . S
O245 C244 1.313 . S
O246 Mg234 2.141 . S
O246 C237 1.289 . S
Mg247 O254 2.141 . S
Mg247 O255 2.048 . S
Mg247 O256 2.048 . S
Mg247 O259 2.141 . S
C248 O249 1.313 . S
C248 O255 1.195 . S
O249 C248 1.313 . S
C250 O251 1.245 . S
C250 O259 1.289 . S
O251 C250 1.245 . S
C252 O253 1.245 . S
C252 O254 1.289 . S
O253 C252 1.245 . S
O254 Mg247 2.141 . S
O254 C252 1.289 . S
O255 Mg247 2.048 . S
O255 C248 1.195 . S
O256 Mg247 2.048 . S
O256 C257 1.195 . S
C257 O256 1.195 . S
C257 O258 1.313 . S
O258 C257 1.313 . S
O259 Mg247 2.141 . S
O259 C250 1.289 . S
Mg260 O267 2.141 . S
Mg260 O268 2.048 . S
Mg260 O269 2.048 . S
Mg260 O272 2.141 . S
C261 O262 1.313 . S
C261 O268 1.195 . S
O262 C261 1.313 . S
C263 O264 1.245 . S
C263 O272 1.289 . S
O264 C263 1.245 . S
C265 O266 1.245 . S
C265 O267 1.289 . S
O266 C265 1.245 . S
O267 Mg260 2.141 . S
O267 C265 1.289 . S
O268 Mg260 2.048 . S
O268 C261 1.195 . S
O269 Mg260 2.048 . S
O269 C270 1.195 . S
C270 O269 1.195 . S
C270 O271 1.313 . S
O271 C270 1.313 . S
O272 Mg260 2.141 . S
O272 C263 1.289 . S
Mg273 O280 2.141 . S
Mg273 O281 2.048 . S
Mg273 O282 2.048 . S
Mg273 O285 2.141 . S
C274 O275 1.313 . S
C274 O281 1.195 . S
O275 C274 1.313 . S
C276 O277 1.245 . S
C276 O285 1.289 . S
O277 C276 1.245 . S
C278 O279 1.245 . S
C278 O280 1.289 . S
O279 C278 1.245 . S
O280 Mg273 2.141 . S
O280 C278 1.289 . S
O281 Mg273 2.048 . S
O281 C274 1.195 . S
O282 Mg273 2.048 . S
O282 C283 1.195 . S
C283 O282 1.195 . S
C283 O284 1.313 . S
O284 C283 1.313 . S
O285 Mg273 2.141 . S
O285 C276 1.289 . S
Mg286 O293 2.141 . S
Mg286 O294 2.048 . S
Mg286 O295 2.048 . S
Mg286 O298 2.141 . S
C287 O288 1.313 . S
C287 O294 1.195 . S
O288 C287 1.313 . S
C289 O290 1.245 . S
C289 O298 1.289 . S
O290 C289 1.245 . S
C291 O292 1.245 . S
C291 O293 1.289 . S
O292 C291 1.245 . S
O293 Mg286 2.141 . S
O293 C291 1.289 . S
O294 Mg286 2.048 . S
O294 C287 1.195 . S
O295 Mg286 2.048 . S
O295 C296 1.195 . S
C296 O295 1.195 . S
C296 O297 1.313 . S
O297 C296 1.313 . S
O298 Mg286 2.141 . S
O298 C289 1.289 . S
Mg299 O306 2.141 1_545 S
Mg299 O307 2.048 . S
Mg299 O308 2.048 . S
Mg299 O311 2.141 1_545 S
C300 O301 1.313 . S
C300 O307 1.195 . S
O301 C300 1.313 . S
C302 O303 1.245 . S
C302 O311 1.289 . S
O303 C302 1.245 . S
C304 O305 1.245 . S
C304 O306 1.289 . S
O305 C304 1.245 . S
O306 Mg299 2.141 1_565 S
O306 C304 1.289 . S
O307 Mg299 2.048 . S
O307 C300 1.195 . S
O308 Mg299 2.048 . S
O308 C309 1.195 . S
C309 O308 1.195 . S
C309 O310 1.313 . S
O310 C309 1.313 . S
O311 Mg299 2.141 1_565 S
O311 C302 1.289 . S
Mg312 O319 2.141 . S
Mg312 O320 2.048 . S
Mg312 O321 2.048 . S
Mg312 O324 2.141 . S
C313 O314 1.313 . S
C313 O320 1.195 . S
O314 C313 1.313 . S
C315 O316 1.245 . S
C315 O324 1.289 . S
O316 C315 1.245 . S
C317 O318 1.245 . S
C317 O319 1.289 . S
O318 C317 1.245 . S
O319 Mg312 2.141 . S
O319 C317 1.289 . S
O320 Mg312 2.048 . S
O320 C313 1.195 . S
O321 Mg312 2.048 . S
O321 C322 1.195 . S
C322 O321 1.195 . S
C322 O323 1.313 . S
O323 C322 1.313 . S
O324 Mg312 2.141 . S
O324 C315 1.289 . S
Mg325 O332 2.141 . S
Mg325 O333 2.048 1_455 S
Mg325 O334 2.048 1_455 S
Mg325 O337 2.141 . S
C326 O327 1.313 . S
C326 O333 1.195 . S
O327 C326 1.313 . S
C328 O329 1.245 . S
C328 O337 1.289 . S
O329 C328 1.245 . S
C330 O331 1.245 . S
C330 O332 1.289 . S
O331 C330 1.245 . S
O332 Mg325 2.141 . S
O332 C330 1.289 . S
O333 Mg325 2.048 1_655 S
O333 C326 1.195 . S
O334 Mg325 2.048 1_655 S
O334 C335 1.195 . S
C335 O334 1.195 . S
C335 O336 1.313 . S
O336 C335 1.313 . S
O337 Mg325 2.141 . S
O337 C328 1.289 . S
Mg338 O345 2.141 . S
Mg338 O346 2.048 . S
Mg338 O347 2.048 . S
Mg338 O350 2.141 . S
C339 O340 1.313 . S
C339 O346 1.195 . S
O340 C339 1.313 . S
C341 O342 1.245 . S
C341 O350 1.289 . S
O342 C341 1.245 . S
C343 O344 1.245 . S
C343 O345 1.289 . S
O344 C343 1.245 . S
O345 Mg338 2.141 . S
O345 C343 1.289 . S
O346 Mg338 2.048 . S
O346 C339 1.195 . S
O347 Mg338 2.048 . S
O347 C348 1.195 . S
C348 O347 1.195 . S
C348 O349 1.313 . S
O349 C348 1.313 . S
O350 Mg338 2.141 . S
O350 C341 1.289 . S
Mg351 O358 2.141 . S
Mg351 O359 2.048 1_655 S
Mg351 O360 2.048 1_655 S
Mg351 O363 2.141 . S
C352 O353 1.313 . S
C352 O359 1.195 . S
O353 C352 1.313 . S
C354 O355 1.245 . S
C354 O363 1.289 . S
O355 C354 1.245 . S
C356 O357 1.245 . S
C356 O358 1.289 . S
O357 C356 1.245 . S
O358 Mg351 2.141 . S
O358 C356 1.289 . S
O359 Mg351 2.048 1_455 S
O359 C352 1.195 . S
O360 Mg351 2.048 1_455 S
O360 C361 1.195 . S
C361 O360 1.195 . S
C361 O362 1.313 . S
O362 C361 1.313 . S
O363 Mg351 2.141 . S
O363 C354 1.289 . S
Mg364 O371 2.141 . S
Mg364 O372 2.048 . S
Mg364 O373 2.048 . S
Mg364 O376 2.141 . S
C365 O366 1.313 . S
C365 O372 1.195 . S
O366 C365 1.313 . S
C367 O368 1.245 . S
C367 O376 1.289 . S
O368 C367 1.245 . S
C369 O370 1.245 . S
C369 O371 1.289 . S
O370 C369 1.245 . S
O371 Mg364 2.141 . S
O371 C369 1.289 . S
O372 Mg364 2.048 . S
O372 C365 1.195 . S
O373 Mg364 2.048 . S
O373 C374 1.195 . S
C374 O373 1.195 . S
C374 O375 1.313 . S
O375 C374 1.313 . S
O376 Mg364 2.141 . S
O376 C367 1.289 . S
Mg377 O384 2.141 . S
Mg377 O385 2.048 . S
Mg377 O386 2.048 . S
Mg377 O389 2.141 . S
C378 O379 1.313 . S
C378 O385 1.195 . S
O379 C378 1.313 . S
C380 O381 1.245 . S
C380 O389 1.289 . S
O381 C380 1.245 . S
C382 O383 1.245 . S
C382 O384 1.289 . S
O383 C382 1.245 . S
O384 Mg377 2.141 . S
O384 C382 1.289 . S
O385 Mg377 2.048 . S
O385 C378 1.195 . S
O386 Mg377 2.048 . S
O386 C387 1.195 . S
C387 O386 1.195 . S
C387 O388 1.313 . S
O388 C387 1.313 . S
O389 Mg377 2.141 . S
O389 C380 1.289 . S
Mg390 O397 2.141 . S
Mg390 O398 2.048 . S
Mg390 O399 2.048 . S
Mg390 O402 2.141 . S
C391 O392 1.313 . S
C391 O398 1.195 . S
O392 C391 1.313 . S
C393 O394 1.245 . S
C393 O402 1.289 . S
O394 C393 1.245 . S
C395 O396 1.245 . S
C395 O397 1.289 . S
O396 C395 1.245 . S
O397 Mg390 2.141 . S
O397 C395 1.289 . S
O398 Mg390 2.048 . S
O398 C391 1.195 . S
O399 Mg390 2.048 . S
O399 C400 1.195 . S
C400 O399 1.195 . S
C400 O401 1.313 . S
O401 C400 1.313 . S
O402 Mg390 2.141 . S
O402 C393 1.289 . S
Mg403 O410 2.141 . S
Mg403 O411 2.048 . S
Mg403 O412 2.048 . S
Mg403 O415 2.141 . S
C404 O405 1.313 . S
C404 O411 1.195 . S
O405 C404 1.313 . S
C406 O407 1.245 . S
C406 O415 1.289 . S
O407 C406 1.245 . S
C408 O409 1.245 . S
C408 O410 1.289 . S
O409 C408 1.245 . S
O410 Mg403 2.141 . S
O410 C408 1.289 . S
O411 Mg403 2.048 . S
O411 C404 1.195 . S
O412 Mg403 2.048 . S
O412 C413 1.195 . S
C413 O412 1.195 . S
C413 O414 1.313 . S
O414 C413 1.313 . S
O415 Mg403 2.141 . S
O415 C406 1.289 . S
Mg416 O423 2.141 . S
Mg416 O424 2.048 . S
Mg416 O425 2.048 . S
Mg416 O428 2.141 . S
C417 O418 1.313 . S
C417 O424 1.195 . S
O418 C417 1.313 . S
C419 O420 1.245 . S
C419 O428 1.289 . S
O420 C419 1.245 . S
C421 O422 1.245 . S
C421 O423 1.289 . S
O422 C421 1.245 . S
O423 Mg416 2.141 . S
O423 C421 1.289 . S
O424 Mg416 2.048 . S
O424 C417 1.195 . S
O425 Mg416 2.048 . S
O425 C426 1.195 . S
C426 O425 1.195 . S
C426 O427 1.313 . S
O427 C426 1.313 . S
O428 Mg416 2.141 . S
O428 C419 1.289 . S
Mg429 O436 2.141 . S
Mg429 O437 2.048 . S
Mg429 O438 2.048 . S
Mg429 O441 2.141 . S
C430 O431 1.313 . S
C430 O437 1.195 . S
O431 C430 1.313 . S
C432 O433 1.245 . S
C432 O441 1.289 . S
O433 C432 1.245 . S
C434 O435 1.245 . S
C434 O436 1.289 . S
O435 C434 1.245 . S
O436 Mg429 2.141 . S
O436 C434 1.289 . S
O437 Mg429 2.048 . S
O437 C430 1.195 . S
O438 Mg429 2.048 . S
O438 C439 1.195 . S
C439 O438 1.195 . S
C439 O440 1.313 . S
O440 C439 1.313 . S
O441 Mg429 2.141 . S
O441 C432 1.289 . S
Mg442 O449 2.141 . S
Mg442 O450 2.048 . S
Mg442 O451 2.048 . S
Mg442 O454 2.141 . S
C443 O444 1.313 . S
C443 O450 1.195 . S
O444 C443 1.313 . S
C445 O446 1.245 . S
C445 O454 1.289 . S
O446 C445 1.245 . S
C447 O448 1.245 . S
C447 O449 1.289 . S
O448 C447 1.245 . S
O449 Mg442 2.141 . S
O449 C447 1.289 . S
O450 Mg442 2.048 . S
O450 C443 1.195 . S
O451 Mg442 2.048 . S
O451 C452 1.195 . S
C452 O451 1.195 . S
C452 O453 1.313 . S
O453 C452 1.313 . S
O454 Mg442 2.141 . S
O454 C445 1.289 . S
Mg455 O462 2.141 . S
Mg455 O463 2.048 . S
Mg455 O464 2.048 . S
Mg455 O467 2.141 . S
C456 O457 1.313 . S
C456 O463 1.195 . S
O457 C456 1.313 . S
C458 O459 1.245 . S
C458 O467 1.289 . S
O459 C458 1.245 . S
C460 O461 1.245 . S
C460 O462 1.289 . S
O461 C460 1.245 . S
O462 Mg455 2.141 . S
O462 C460 1.289 . S
O463 Mg455 2.048 . S
O463 C456 1.195 . S
O464 Mg455 2.048 . S
O464 C465 1.195 . S
C465 O464 1.195 . S
C465 O466 1.313 . S
O466 C465 1.313 . S
O467 Mg455 2.141 . S
O467 C458 1.289 . S
Mg468 O475 2.141 . S
Mg468 O476 2.048 . S
Mg468 O477 2.048 . S
Mg468 O480 2.141 . S
C469 O470 1.313 . S
C469 O476 1.195 . S
O470 C469 1.313 . S
C471 O472 1.245 . S
C471 O480 1.289 . S
O472 C471 1.245 . S
C473 O474 1.245 . S
C473 O475 1.289 . S
O474 C473 1.245 . S
O475 Mg468 2.141 . S
O475 C473 1.289 . S
O476 Mg468 2.048 . S
O476 C469 1.195 . S
O477 Mg468 2.048 . S
O477 C478 1.195 . S
C478 O477 1.195 . S
C478 O479 1.313 . S
O479 C478 1.313 . S
O480 Mg468 2.141 . S
O480 C471 1.289 . S
Mg481 O488 2.141 . S
Mg481 O489 2.048 . S
Mg481 O490 2.048 . S
Mg481 O493 2.141 . S
C482 O483 1.313 . S
C482 O489 1.195 . S
O483 C482 1.313 . S
C484 O485 1.245 . S
C484 O493 1.289 . S
O485 C484 1.245 . S
C486 O487 1.245 . S
C486 O488 1.289 . S
O487 C486 1.245 . S
O488 Mg481 2.141 . S
O488 C486 1.289 . S
O489 Mg481 2.048 . S
O489 C482 1.195 . S
O490 Mg481 2.048 . S
O490 C491 1.195 . S
C491 O490 1.195 . S
C491 O492 1.313 . S
O492 C491 1.313 . S
O493 Mg481 2.141 . S
O493 C484 1.289 . S
Mg494 O501 2.141 . S
Mg494 O502 2.048 . S
Mg494 O503 2.048 . S
Mg494 O506 2.141 . S
C495 O496 1.313 . S
C495 O502 1.195 . S
O496 C495 1.313 . S
C497 O498 1.245 . S
C497 O506 1.289 . S
O498 C497 1.245 . S
C499 O500 1.245 . S
C499 O501 1.289 . S
O500 C499 1.245 . S
O501 Mg494 2.141 . S
O501 C499 1.289 . S
O502 Mg494 2.048 . S
O502 C495 1.195 . S
O503 Mg494 2.048 . S
O503 C504 1.195 . S
C504 O503 1.195 . S
C504 O505 1.313 . S
O505 C504 1.313 . S
O506 Mg494 2.141 . S
O506 C497 1.289 . S
Mg507 O514 2.141 . S
Mg507 O515 2.048 . S
Mg507 O516 2.048 . S
Mg507 O519 2.141 . S
C508 O509 1.313 . S
C508 O515 1.195 . S
O509 C508 1.313 . S
C510 O511 1.245 . S
C510 O519 1.289 . S
O511 C510 1.245 . S
C512 O513 1.245 . S
C512 O514 1.289 . S
O513 C512 1.245 . S
O514 Mg507 2.141 . S
O514 C512 1.289 . S
O515 Mg507 2.048 . S
O515 C508 1.195 . S
O516 Mg507 2.048 . S
O516 C517 1.195 . S
C517 O516 1.195 . S
C517 O518 1.313 . S
O518 C517 1.313 . S
O519 Mg507 2.141 . S
O519 C510 1.289 . S
Mg520 O527 2.141 . S
Mg520 O528 2.048 . S
Mg520 O529 2.048 . S
Mg520 O532 2.141 . S
C521 O522 1.313 . S
C521 O528 1.195 . S
O522 C521 1.313 . S
C523 O524 1.245 . S
C523 O532 1.289 . S
O524 C523 1.245 . S
C525 O526 1.245 . S
C525 O527 1.289 . S
O526 C525 1.245 . S
O527 Mg520 2.141 . S
O527 C525 1.289 . S
O528 Mg520 2.048 . S
O528 C521 1.195 . S
O529 Mg520 2.048 . S
O529 C530 1.195 . S
C530 O529 1.195 . S
C530 O531 1.313 . S
O531 C530 1.313 . S
O532 Mg520 2.141 . S
O532 C523 1.289 . S
Mg533 O540 2.141 . S
Mg533 O541 2.048 . S
Mg533 O542 2.048 . S
Mg533 O545 2.141 . S
C534 O535 1.313 . S
C534 O541 1.195 . S
O535 C534 1.313 . S
C536 O537 1.245 . S
C536 O545 1.289 . S
O537 C536 1.245 . S
C538 O539 1.245 . S
C538 O540 1.289 . S
O539 C538 1.245 . S
O540 Mg533 2.141 . S
O540 C538 1.289 . S
O541 Mg533 2.048 . S
O541 C534 1.195 . S
O542 Mg533 2.048 . S
O542 C543 1.195 . S
C543 O542 1.195 . S
C543 O544 1.313 . S
O544 C543 1.313 . S
O545 Mg533 2.141 . S
O545 C536 1.289 . S
Mg546 O553 2.141 1_545 S
Mg546 O554 2.048 . S
Mg546 O555 2.048 . S
Mg546 O558 2.141 1_545 S
C547 O548 1.313 . S
C547 O554 1.195 . S
O548 C547 1.313 . S
C549 O550 1.245 . S
C549 O558 1.289 . S
O550 C549 1.245 . S
C551 O552 1.245 . S
C551 O553 1.289 . S
O552 C551 1.245 . S
O553 Mg546 2.141 1_565 S
O553 C551 1.289 . S
O554 Mg546 2.048 . S
O554 C547 1.195 . S
O555 Mg546 2.048 . S
O555 C556 1.195 . S
C556 O555 1.195 . S
C556 O557 1.313 . S
O557 C556 1.313 . S
O558 Mg546 2.141 1_565 S
O558 C549 1.289 . S
Mg559 O566 2.141 . S
Mg559 O567 2.048 . S
Mg559 O568 2.048 . S
Mg559 O571 2.141 . S
C560 O561 1.313 . S
C560 O567 1.195 . S
O561 C560 1.313 . S
C562 O563 1.245 . S
C562 O571 1.289 . S
O563 C562 1.245 . S
C564 O565 1.245 . S
C564 O566 1.289 . S
O565 C564 1.245 . S
O566 Mg559 2.141 . S
O566 C564 1.289 . S
O567 Mg559 2.048 . S
O567 C560 1.195 . S
O568 Mg559 2.048 . S
O568 C569 1.195 . S
C569 O568 1.195 . S
C569 O570 1.313 . S
O570 C569 1.313 . S
O571 Mg559 2.141 . S
O571 C562 1.289 . S
Mg572 O579 2.141 1_565 S
Mg572 O580 2.048 . S
Mg572 O581 2.048 . S
Mg572 O584 2.141 1_565 S
C573 O574 1.313 . S
C573 O580 1.195 . S
O574 C573 1.313 . S
C575 O576 1.245 . S
C575 O584 1.289 . S
O576 C575 1.245 . S
C577 O578 1.245 . S
C577 O579 1.289 . S
O578 C577 1.245 . S
O579 Mg572 2.141 1_545 S
O579 C577 1.289 . S
O580 Mg572 2.048 . S
O580 C573 1.195 . S
O581 Mg572 2.048 . S
O581 C582 1.195 . S
C582 O581 1.195 . S
C582 O583 1.313 . S
O583 C582 1.313 . S
O584 Mg572 2.141 1_545 S
O584 C575 1.289 . S
Mg585 O592 2.141 . S
Mg585 O593 2.048 . S
Mg585 O594 2.048 . S
Mg585 O597 2.141 . S
C586 O587 1.313 . S
C586 O593 1.195 . S
O587 C586 1.313 . S
C588 O589 1.245 . S
C588 O597 1.289 . S
O589 C588 1.245 . S
C590 O591 1.245 . S
C590 O592 1.289 . S
O591 C590 1.245 . S
O592 Mg585 2.141 . S
O592 C590 1.289 . S
O593 Mg585 2.048 . S
O593 C586 1.195 . S
O594 Mg585 2.048 . S
O594 C595 1.195 . S
C595 O594 1.195 . S
C595 O596 1.313 . S
O596 C595 1.313 . S
O597 Mg585 2.141 . S
O597 C588 1.289 . S
Mg598 O605 2.141 1_565 S
Mg598 O606 2.048 . S
Mg598 O607 2.048 . S
Mg598 O610 2.141 1_565 S
C599 O600 1.313 . S
C599 O606 1.195 . S
O600 C599 1.313 . S
C601 O602 1.245 . S
C601 O610 1.289 . S
O602 C601 1.245 . S
C603 O604 1.245 . S
C603 O605 1.289 . S
O604 C603 1.245 . S
O605 Mg598 2.141 1_545 S
O605 C603 1.289 . S
O606 Mg598 2.048 . S
O606 C599 1.195 . S
O607 Mg598 2.048 . S
O607 C608 1.195 . S
C608 O607 1.195 . S
C608 O609 1.313 . S
O609 C608 1.313 . S
O610 Mg598 2.141 1_545 S
O610 C601 1.289 . S
Mg611 O618 2.141 . S
Mg611 O619 2.048 . S
Mg611 O620 2.048 . S
Mg611 O623 2.141 . S
C612 O613 1.313 . S
C612 O619 1.195 . S
O613 C612 1.313 . S
C614 O615 1.245 . S
C614 O623 1.289 . S
O615 C614 1.245 . S
C616 O617 1.245 . S
C616 O618 1.289 . S
O617 C616 1.245 . S
O618 Mg611 2.141 . S
O618 C616 1.289 . S
O619 Mg611 2.048 . S
O619 C612 1.195 . S
O620 Mg611 2.048 . S
O620 C621 1.195 . S
C621 O620 1.195 . S
C621 O622 1.313 . S
O622 C621 1.313 . S
O623 Mg611 2.141 . S
O623 C614 1.289 . S
C624 C625 1.387 . S
C624 H628 0.950 . S
C624 C633 1.390 . S
C625 C624 1.387 . S
C625 C627 1.387 . S
H626 C633 0.950 . S
C627 C625 1.387 . S
C627 C629 1.390 . S
C627 H631 0.950 . S
H628 C624 0.950 . S
C629 C627 1.390 . S
C629 C630 1.387 . S
C629 H632 0.950 . S
C630 C629 1.387 . S
C630 C633 1.387 . S
H631 C627 0.950 . S
H632 C629 0.950 . S
C633 C624 1.390 . S
C633 H626 0.950 . S
C633 C630 1.387 . S
C634 C635 1.387 . S
C634 H638 0.950 . S
C634 C643 1.390 1_554 S
C635 C634 1.387 . S
C635 C637 1.387 1_554 S
H636 C643 0.950 . S
C637 C635 1.387 1_556 S
C637 C639 1.390 . S
C637 H641 0.950 1_556 S
H638 C634 0.950 . S
C639 C637 1.390 . S
C639 C640 1.387 . S
C639 H642 0.950 . S
C640 C639 1.387 . S
C640 C643 1.387 . S
H641 C637 0.950 1_554 S
H642 C639 0.950 . S
C643 C634 1.390 1_556 S
C643 H636 0.950 . S
C643 C640 1.387 . S
C644 C645 1.387 . S
C644 H648 0.950 . S
C644 C653 1.390 . S
C645 C644 1.387 . S
C645 C647 1.387 . S
H646 C653 0.950 . S
C647 C645 1.387 . S
C647 C649 1.390 . S
C647 H651 0.950 . S
H648 C644 0.950 . S
C649 C647 1.390 . S
C649 C650 1.387 . S
C649 H652 0.950 . S
C650 C649 1.387 . S
C650 C653 1.387 . S
H651 C647 0.950 . S
H652 C649 0.950 . S
C653 C644 1.390 . S
C653 H646 0.950 . S
C653 C650 1.387 . S
C654 C655 1.387 . S
C654 H658 0.950 . S
C654 C663 1.390 1_556 S
C655 C654 1.387 . S
C655 C657 1.387 . S
H656 C663 0.950 . S
C657 C655 1.387 . S
C657 C659 1.390 1_556 S
C657 H661 0.950 . S
H658 C654 0.950 . S
C659 C657 1.390 1_554 S
C659 C660 1.387 . S
C659 H662 0.950 . S
C660 C659 1.387 . S
C660 C663 1.387 . S
H661 C657 0.950 . S
H662 C659 0.950 . S
C663 C654 1.390 1_554 S
C663 H656 0.950 . S
C663 C660 1.387 . S
C664 C665 1.387 . S
C664 H668 0.950 . S
C664 C673 1.390 . S
C665 C664 1.387 . S
C665 C667 1.387 . S
H666 C673 0.950 . S
C667 C665 1.387 . S
C667 C669 1.390 . S
C667 H671 0.950 . S
H668 C664 0.950 . S
C669 C667 1.390 . S
C669 C670 1.387 . S
C669 H672 0.950 . S
C670 C669 1.387 . S
C670 C673 1.387 . S
H671 C667 0.950 . S
H672 C669 0.950 . S
C673 C664 1.390 . S
C673 H666 0.950 . S
C673 C670 1.387 . S
C674 C675 1.387 . S
C674 H678 0.950 . S
C674 C683 1.390 . S
C675 C674 1.387 . S
C675 C677 1.387 . S
H676 C683 0.950 1_556 S
C677 C675 1.387 . S
C677 C679 1.390 1_554 S
C677 H681 0.950 . S
H678 C674 0.950 . S
C679 C677 1.390 1_556 S
C679 C680 1.387 . S
C679 H682 0.950 . S
C680 C679 1.387 . S
C680 C683 1.387 1_556 S
H681 C677 0.950 . S
H682 C679 0.950 . S
C683 C674 1.390 . S
C683 H676 0.950 1_554 S
C683 C680 1.387 1_554 S
C684 C685 1.387 . S
C684 H688 0.950 . S
C684 C693 1.390 . S
C685 C684 1.387 . S
C685 C687 1.387 . S
H686 C693 0.950 . S
C687 C685 1.387 . S
C687 C689 1.390 . S
C687 H691 0.950 . S
H688 C684 0.950 . S
C689 C687 1.390 . S
C689 C690 1.387 . S
C689 H692 0.950 . S
C690 C689 1.387 . S
C690 C693 1.387 . S
H691 C687 0.950 . S
H692 C689 0.950 . S
C693 C684 1.390 . S
C693 H686 0.950 . S
C693 C690 1.387 . S
C694 C695 1.387 . S
C694 H698 0.950 . S
C694 C703 1.390 1_556 S
C695 C694 1.387 . S
C695 C697 1.387 . S
H696 C703 0.950 . S
C697 C695 1.387 . S
C697 C699 1.390 1_556 S
C697 H701 0.950 . S
H698 C694 0.950 . S
C699 C697 1.390 1_554 S
C699 C700 1.387 . S
C699 H702 0.950 . S
C700 C699 1.387 . S
C700 C703 1.387 . S
H701 C697 0.950 . S
H702 C699 0.950 . S
C703 C694 1.390 1_554 S
C703 H696 0.950 . S
C703 C700 1.387 . S
C704 C705 1.387 . S
C704 H708 0.950 . S
C704 C713 1.390 . S
C705 C704 1.387 . S
C705 C707 1.387 . S
H706 C713 0.950 . S
C707 C705 1.387 . S
C707 C709 1.390 . S
C707 H711 0.950 . S
H708 C704 0.950 . S
C709 C707 1.390 . S
C709 C710 1.387 . S
C709 H712 0.950 . S
C710 C709 1.387 . S
C710 C713 1.387 . S
H711 C707 0.950 . S
H712 C709 0.950 . S
C713 C704 1.390 . S
C713 H706 0.950 . S
C713 C710 1.387 . S
C714 C715 1.387 . S
C714 H718 0.950 . S
C714 C723 1.390 . S
C715 C714 1.387 . S
C715 C717 1.387 . S
H716 C723 0.950 . S
C717 C715 1.387 . S
C717 C719 1.390 . S
C717 H721 0.950 . S
H718 C714 0.950 . S
C719 C717 1.390 . S
C719 C720 1.387 . S
C719 H722 0.950 . S
C720 C719 1.387 . S
C720 C723 1.387 . S
H721 C717 0.950 . S
H722 C719 0.950 . S
C723 C714 1.390 . S
C723 H716 0.950 . S
C723 C720 1.387 . S
C724 C725 1.387 . S
C724 H728 0.950 . S
C724 C733 1.390 . S
C725 C724 1.387 . S
C725 C727 1.387 . S
H726 C733 0.950 . S
C727 C725 1.387 . S
C727 C729 1.390 . S
C727 H731 0.950 . S
H728 C724 0.950 . S
C729 C727 1.390 . S
C729 C730 1.387 . S
C729 H732 0.950 . S
C730 C729 1.387 . S
C730 C733 1.387 . S
H731 C727 0.950 . S
H732 C729 0.950 . S
C733 C724 1.390 . S
C733 H726 0.950 . S
C733 C730 1.387 . S
C734 C735 1.387 . S
C734 H738 0.950 . S
C734 C743 1.390 1_565 S
C735 C734 1.387 . S
C735 C737 1.387 1_565 S
H736 C743 0.950 . S
C737 C735 1.387 1_545 S
C737 C739 1.390 . S
C737 H741 0.950 1_545 S
H738 C734 0.950 . S
C739 C737 1.390 . S
C739 C740 1.387 . S
C739 H742 0.950 . S
C740 C739 1.387 . S
C740 C743 1.387 . S
H741 C737 0.950 1_565 S
H742 C739 0.950 . S
C743 C734 1.390 1_545 S
C743 H736 0.950 . S
C743 C740 1.387 . S
C744 C745 1.387 . S
C744 H748 0.950 . S
C744 C753 1.390 . S
C745 C744 1.387 . S
C745 C747 1.387 . S
H746 C753 0.950 . S
C747 C745 1.387 . S
C747 C749 1.390 . S
C747 H751 0.950 . S
H748 C744 0.950 . S
C749 C747 1.390 . S
C749 C750 1.387 . S
C749 H752 0.950 . S
C750 C749 1.387 . S
C750 C753 1.387 . S
H751 C747 0.950 . S
H752 C749 0.950 . S
C753 C744 1.390 . S
C753 H746 0.950 . S
C753 C750 1.387 . S
C754 C755 1.387 . S
C754 H758 0.950 . S
C754 C763 1.390 . S
C755 C754 1.387 . S
C755 C757 1.387 . S
H756 C763 0.950 . S
C757 C755 1.387 . S
C757 C759 1.390 . S
C757 H761 0.950 . S
H758 C754 0.950 . S
C759 C757 1.390 . S
C759 C760 1.387 . S
C759 H762 0.950 . S
C760 C759 1.387 . S
C760 C763 1.387 . S
H761 C757 0.950 . S
H762 C759 0.950 . S
C763 C754 1.390 . S
C763 H756 0.950 . S
C763 C760 1.387 . S
C764 C765 1.387 . S
C764 H768 0.950 . S
C764 C773 1.390 . S
C765 C764 1.387 . S
C765 C767 1.387 . S
H766 C773 0.950 . S
C767 C765 1.387 . S
C767 C769 1.390 . S
C767 H771 0.950 . S
H768 C764 0.950 . S
C769 C767 1.390 . S
C769 C770 1.387 . S
C769 H772 0.950 . S
C770 C769 1.387 . S
C770 C773 1.387 . S
H771 C767 0.950 . S
H772 C769 0.950 . S
C773 C764 1.390 . S
C773 H766 0.950 . S
C773 C770 1.387 . S
C774 C775 1.387 . S
C774 H778 0.950 . S
C774 C783 1.392 . S
C775 C774 1.387 . S
C775 C777 1.387 . S
H776 C783 0.949 1_565 S
C777 C775 1.387 . S
C777 C779 1.390 1_545 S
C777 H781 0.950 . S
H778 C774 0.950 . S
C779 C777 1.390 1_565 S
C779 C780 1.387 . S
C779 H782 0.950 . S
C780 C779 1.387 . S
C780 C783 1.386 1_565 S
H781 C777 0.950 . S
H782 C779 0.950 . S
C783 C774 1.392 . S
C783 H776 0.949 1_545 S
C783 C780 1.386 1_545 S
C784 C785 1.387 . S
C784 H788 0.950 . S
C784 C793 1.390 . S
C785 C784 1.387 . S
C785 C787 1.387 . S
H786 C793 0.950 . S
C787 C785 1.387 . S
C787 C789 1.390 . S
C787 H791 0.950 . S
H788 C784 0.950 . S
C789 C787 1.390 . S
C789 C790 1.387 . S
C789 H792 0.950 . S
C790 C789 1.387 . S
C790 C793 1.387 . S
H791 C787 0.950 . S
H792 C789 0.950 . S
C793 C784 1.390 . S
C793 H786 0.950 . S
C793 C790 1.387 . S
C794 C795 1.387 . S
C794 H798 0.950 . S
C794 C803 1.390 . S
C795 C794 1.387 . S
C795 C797 1.387 . S
H796 C803 0.950 . S
C797 C795 1.387 . S
C797 C799 1.390 . S
C797 H801 0.950 . S
H798 C794 0.950 . S
C799 C797 1.390 . S
C799 C800 1.387 . S
C799 H802 0.950 . S
C800 C799 1.387 . S
C800 C803 1.387 . S
H801 C797 0.950 . S
H802 C799 0.950 . S
C803 C794 1.390 . S
C803 H796 0.950 . S
C803 C800 1.387 . S
C804 C805 1.387 . S
C804 H808 0.950 . S
C804 C813 1.390 1_655 S
C805 C804 1.387 . S
C805 C807 1.387 . S
H806 C813 0.950 . S
C807 C805 1.387 . S
C807 C809 1.390 1_655 S
C807 H811 0.950 . S
H808 C804 0.950 . S
C809 C807 1.390 1_455 S
C809 C810 1.387 . S
C809 H812 0.950 . S
C810 C809 1.387 . S
C810 C813 1.387 . S
H811 C807 0.950 . S
H812 C809 0.950 . S
C813 C804 1.390 1_455 S
C813 H806 0.950 . S
C813 C810 1.387 . S
C814 C815 1.387 . S
C814 H818 0.950 . S
C814 C823 1.390 . S
C815 C814 1.387 . S
C815 C817 1.387 . S
H816 C823 0.950 . S
C817 C815 1.387 . S
C817 C819 1.390 . S
C817 H821 0.950 . S
H818 C814 0.950 . S
C819 C817 1.390 . S
C819 C820 1.387 . S
C819 H822 0.950 . S
C820 C819 1.387 . S
C820 C823 1.387 . S
H821 C817 0.950 . S
H822 C819 0.950 . S
C823 C814 1.390 . S
C823 H816 0.950 . S
C823 C820 1.387 . S
C824 C825 1.387 . S
C824 H828 0.950 . S
C824 C833 1.390 . S
C825 C824 1.387 . S
C825 C827 1.387 . S
H826 C833 0.950 . S
C827 C825 1.387 . S
C827 C829 1.390 . S
C827 H831 0.950 . S
H828 C824 0.950 . S
C829 C827 1.390 . S
C829 C830 1.387 . S
C829 H832 0.950 . S
C830 C829 1.387 . S
C830 C833 1.387 . S
H831 C827 0.950 . S
H832 C829 0.950 . S
C833 C824 1.390 . S
C833 H826 0.950 . S
C833 C830 1.387 . S
C834 C835 1.387 . S
C834 H838 0.950 . S
C834 C843 1.390 . S
C835 C834 1.387 . S
C835 C837 1.387 . S
H836 C843 0.950 . S
C837 C835 1.387 . S
C837 C839 1.390 . S
C837 H841 0.950 . S
H838 C834 0.950 . S
C839 C837 1.390 . S
C839 C840 1.387 . S
C839 H842 0.950 . S
C840 C839 1.387 . S
C840 C843 1.387 . S
H841 C837 0.950 . S
H842 C839 0.950 . S
C843 C834 1.390 . S
C843 H836 0.950 . S
C843 C840 1.387 . S
C844 C845 1.390 . S
C844 H848 0.952 . S
C844 C853 1.385 1_455 S
C845 C844 1.390 . S
C845 C847 1.387 . S
H846 C853 0.950 . S
C847 C845 1.387 . S
C847 C849 1.390 1_455 S
C847 H851 0.950 . S
H848 C844 0.952 . S
C849 C847 1.390 1_655 S
C849 C850 1.387 . S
C849 H852 0.950 . S
C850 C849 1.387 . S
C850 C853 1.387 . S
H851 C847 0.950 . S
H852 C849 0.950 . S
C853 C844 1.385 1_655 S
C853 H846 0.950 . S
C853 C850 1.387 . S
C854 C855 1.393 . S
C854 H858 0.955 . S
C854 C863 1.380 1_655 S
C855 C854 1.393 . S
C855 C857 1.387 . S
H856 C863 0.950 . S
C857 C855 1.387 . S
C857 C859 1.390 1_655 S
C857 H861 0.950 . S
H858 C854 0.955 . S
C859 C857 1.390 1_455 S
C859 C860 1.387 . S
C859 H862 0.950 . S
C860 C859 1.387 . S
C860 C863 1.387 . S
H861 C857 0.950 . S
H862 C859 0.950 . S
C863 C854 1.380 1_455 S
C863 H856 0.950 . S
C863 C860 1.387 . S
C864 C865 1.387 . S
C864 H868 0.950 . S
C864 C873 1.390 . S
C865 C864 1.387 . S
C865 C867 1.387 . S
H866 C873 0.950 . S
C867 C865 1.387 . S
C867 C869 1.390 . S
C867 H871 0.950 . S
H868 C864 0.950 . S
C869 C867 1.390 . S
C869 C870 1.387 . S
C869 H872 0.950 . S
C870 C869 1.387 . S
C870 C873 1.387 . S
H871 C867 0.950 . S
H872 C869 0.950 . S
C873 C864 1.390 . S
C873 H866 0.950 . S
C873 C870 1.387 . S
C874 C875 1.387 . S
C874 H878 0.950 . S
C874 C883 1.390 . S
C875 C874 1.387 . S
C875 C877 1.387 . S
H876 C883 0.950 . S
C877 C875 1.387 . S
C877 C879 1.390 . S
C877 H881 0.950 . S
H878 C874 0.950 . S
C879 C877 1.390 . S
C879 C880 1.387 . S
C879 H882 0.950 . S
C880 C879 1.387 . S
C880 C883 1.387 . S
H881 C877 0.950 . S
H882 C879 0.950 . S
C883 C874 1.390 . S
C883 H876 0.950 . S
C883 C880 1.387 . S
C884 C885 1.387 . S
C884 H888 0.950 . S
C884 C893 1.390 . S
C885 C884 1.387 . S
C885 C887 1.387 . S
H886 C893 0.950 . S
C887 C885 1.387 . S
C887 C889 1.390 . S
C887 H891 0.950 . S
H888 C884 0.950 . S
C889 C887 1.390 . S
C889 C890 1.387 . S
C889 H892 0.950 . S
C890 C889 1.387 . S
C890 C893 1.387 . S
H891 C887 0.950 . S
H892 C889 0.950 . S
C893 C884 1.390 . S
C893 H886 0.950 . S
C893 C890 1.387 . S
C894 C895 1.387 . S
C894 H898 0.950 . S
C894 C903 1.390 . S
C895 C894 1.387 . S
C895 C897 1.387 . S
H896 C903 0.950 . S
C897 C895 1.387 . S
C897 C899 1.390 . S
C897 H901 0.950 . S
H898 C894 0.950 . S
C899 C897 1.390 . S
C899 C900 1.387 . S
C899 H902 0.950 . S
C900 C899 1.387 . S
C900 C903 1.387 . S
H901 C897 0.950 . S
H902 C899 0.950 . S
C903 C894 1.390 . S
C903 H896 0.950 . S
C903 C900 1.387 . S
C904 C905 1.387 . S
C904 H908 0.950 . S
C904 C913 1.390 . S
C905 C904 1.387 . S
C905 C907 1.387 . S
H906 C913 0.950 . S
C907 C905 1.387 . S
C907 C909 1.390 . S
C907 H911 0.950 . S
H908 C904 0.950 . S
C909 C907 1.390 . S
C909 C910 1.387 . S
C909 H912 0.950 . S
C910 C909 1.387 . S
C910 C913 1.387 . S
H911 C907 0.950 . S
H912 C909 0.950 . S
C913 C904 1.390 . S
C913 H906 0.950 . S
C913 C910 1.387 . S
C914 C915 1.387 . S
C914 H918 0.950 . S
C914 C923 1.390 . S
C915 C914 1.387 . S
C915 C917 1.387 . S
H916 C923 0.950 . S
C917 C915 1.387 . S
C917 C919 1.390 . S
C917 H921 0.950 . S
H918 C914 0.950 . S
C919 C917 1.390 . S
C919 C920 1.387 . S
C919 H922 0.950 . S
C920 C919 1.387 . S
C920 C923 1.387 . S
H921 C917 0.950 . S
H922 C919 0.950 . S
C923 C914 1.390 . S
C923 H916 0.950 . S
C923 C920 1.387 . S
C924 C925 1.387 . S
C924 H928 0.950 . S
C924 C933 1.390 . S
C925 C924 1.387 . S
C925 C927 1.387 . S
H926 C933 0.950 . S
C927 C925 1.387 . S
C927 C929 1.390 . S
C927 H931 0.950 . S
H928 C924 0.950 . S
C929 C927 1.390 . S
C929 C930 1.387 . S
C929 H932 0.950 . S
C930 C929 1.387 . S
C930 C933 1.387 . S
H931 C927 0.950 . S
H932 C929 0.950 . S
C933 C924 1.390 . S
C933 H926 0.950 . S
C933 C930 1.387 . S
C934 C935 1.387 . S
C934 H938 0.950 . S
C934 C943 1.390 . S
C935 C934 1.387 . S
C935 C937 1.387 . S
H936 C943 0.950 . S
C937 C935 1.387 . S
C937 C939 1.390 . S
C937 H941 0.950 . S
H938 C934 0.950 . S
C939 C937 1.390 . S
C939 C940 1.387 . S
C939 H942 0.950 . S
C940 C939 1.387 . S
C940 C943 1.387 . S
H941 C937 0.950 . S
H942 C939 0.950 . S
C943 C934 1.390 . S
C943 H936 0.950 . S
C943 C940 1.387 . S
C944 C945 1.387 . S
C944 H948 0.950 . S
C944 C953 1.390 . S
C945 C944 1.387 . S
C945 C947 1.387 . S
H946 C953 0.950 . S
C947 C945 1.387 . S
C947 C949 1.390 . S
C947 H951 0.950 . S
H948 C944 0.950 . S
C949 C947 1.390 . S
C949 C950 1.387 . S
C949 H952 0.950 . S
C950 C949 1.387 . S
C950 C953 1.387 . S
H951 C947 0.950 . S
H952 C949 0.950 . S
C953 C944 1.390 . S
C953 H946 0.950 . S
C953 C950 1.387 . S
C954 C955 1.387 . S
C954 H958 0.950 . S
C954 C963 1.390 1_565 S
C955 C954 1.387 . S
C955 C957 1.387 . S
H956 C963 0.950 . S
C957 C955 1.387 . S
C957 C959 1.390 1_565 S
C957 H961 0.950 . S
H958 C954 0.950 . S
C959 C957 1.390 1_545 S
C959 C960 1.387 . S
C959 H962 0.950 . S
C960 C959 1.387 . S
C960 C963 1.387 . S
H961 C957 0.950 . S
H962 C959 0.950 . S
C963 C954 1.390 1_545 S
C963 H956 0.950 . S
C963 C960 1.387 . S
C964 C965 1.387 . S
C964 H968 0.950 . S
C964 C973 1.390 . S
C965 C964 1.387 . S
C965 C967 1.387 . S
H966 C973 0.950 . S
C967 C965 1.387 . S
C967 C969 1.390 . S
C967 H971 0.950 . S
H968 C964 0.950 . S
C969 C967 1.390 . S
C969 C970 1.387 . S
C969 H972 0.950 . S
C970 C969 1.387 . S
C970 C973 1.387 . S
H971 C967 0.950 . S
H972 C969 0.950 . S
C973 C964 1.390 . S
C973 H966 0.950 . S
C973 C970 1.387 . S
C974 C975 1.387 . S
C974 H978 0.950 . S
C974 C983 1.390 . S
C975 C974 1.387 . S
C975 C977 1.387 . S
H976 C983 0.950 . S
C977 C975 1.387 . S
C977 C979 1.390 . S
C977 H981 0.950 . S
H978 C974 0.950 . S
C979 C977 1.390 . S
C979 C980 1.387 . S
C979 H982 0.950 . S
C980 C979 1.387 . S
C980 C983 1.387 . S
H981 C977 0.950 . S
H982 C979 0.950 . S
C983 C974 1.390 . S
C983 H976 0.950 . S
C983 C980 1.387 . S
C984 C985 1.387 . S
C984 H988 0.950 . S
C984 C993 1.390 . S
C985 C984 1.387 . S
C985 C987 1.387 . S
H986 C993 0.950 . S
C987 C985 1.387 . S
C987 C989 1.390 . S
C987 H991 0.950 . S
H988 C984 0.950 . S
C989 C987 1.390 . S
C989 C990 1.387 . S
C989 H992 0.950 . S
C990 C989 1.387 . S
C990 C993 1.387 . S
H991 C987 0.950 . S
H992 C989 0.950 . S
C993 C984 1.390 . S
C993 H986 0.950 . S
C993 C990 1.387 . S
C994 C995 1.387 . S
C994 H998 0.950 . S
C994 C1003 1.390 1_565 S
C995 C994 1.387 . S
C995 C997 1.387 . S
H996 C1003 0.950 . S
C997 C995 1.387 . S
C997 C999 1.390 . S
C997 H1001 0.950 . S
H998 C994 0.950 . S
C999 C997 1.390 . S
C999 C1000 1.387 1_565 S
C999 H1002 0.950 1_565 S
C1000 C999 1.387 1_545 S
C1000 C1003 1.387 . S
H1001 C997 0.950 . S
H1002 C999 0.950 1_545 S
C1003 C994 1.390 1_545 S
C1003 H996 0.950 . S
C1003 C1000 1.387 . S
C1004 C1005 1.387 . S
C1004 H1008 0.950 . S
C1004 C1013 1.390 . S
C1005 C1004 1.387 . S
C1005 C1007 1.387 . S
H1006 C1013 0.950 . S
C1007 C1005 1.387 . S
C1007 C1009 1.390 . S
C1007 H1011 0.950 . S
H1008 C1004 0.950 . S
C1009 C1007 1.390 . S
C1009 C1010 1.387 . S
C1009 H1012 0.950 . S
C1010 C1009 1.387 . S
C1010 C1013 1.387 . S
H1011 C1007 0.950 . S
H1012 C1009 0.950 . S
C1013 C1004 1.390 . S
C1013 H1006 0.950 . S
C1013 C1010 1.387 . S
C1014 C1015 1.387 . S
C1014 H1018 0.950 . S
C1014 C1023 1.390 . S
C1015 C1014 1.387 . S
C1015 C1017 1.387 . S
H1016 C1023 0.950 . S
C1017 C1015 1.387 . S
C1017 C1019 1.390 . S
C1017 H1021 0.950 . S
H1018 C1014 0.950 . S
C1019 C1017 1.390 . S
C1019 C1020 1.387 . S
C1019 H1022 0.950 . S
C1020 C1019 1.387 . S
C1020 C1023 1.387 . S
H1021 C1017 0.950 . S
H1022 C1019 0.950 . S
C1023 C1014 1.390 . S
C1023 H1016 0.950 . S
C1023 C1020 1.387 . S
C1024 C1025 1.387 . S
C1024 H1028 0.950 . S
C1024 C1033 1.390 . S
C1025 C1024 1.387 . S
C1025 C1027 1.387 . S
H1026 C1033 0.950 . S
C1027 C1025 1.387 . S
C1027 C1029 1.390 . S
C1027 H1031 0.950 . S
H1028 C1024 0.950 . S
C1029 C1027 1.390 . S
C1029 C1030 1.387 . S
C1029 H1032 0.950 . S
C1030 C1029 1.387 . S
C1030 C1033 1.387 . S
H1031 C1027 0.950 . S
H1032 C1029 0.950 . S
C1033 C1024 1.390 . S
C1033 H1026 0.950 . S
C1033 C1030 1.387 . S
C1034 C1035 1.387 . S
C1034 H1038 0.950 . S
C1034 C1043 1.390 . S
C1035 C1034 1.387 . S
C1035 C1037 1.387 . S
H1036 C1043 0.950 . S
C1037 C1035 1.387 . S
C1037 C1039 1.390 . S
C1037 H1041 0.950 . S
H1038 C1034 0.950 . S
C1039 C1037 1.390 . S
C1039 C1040 1.387 . S
C1039 H1042 0.950 . S
C1040 C1039 1.387 . S
C1040 C1043 1.387 . S
H1041 C1037 0.950 . S
H1042 C1039 0.950 . S
C1043 C1034 1.390 . S
C1043 H1036 0.950 . S
C1043 C1040 1.387 . S
C1044 C1045 1.387 . S
C1044 H1048 0.950 . S
C1044 C1053 1.390 . S
C1045 C1044 1.387 . S
C1045 C1047 1.387 . S
H1046 C1053 0.950 . S
C1047 C1045 1.387 . S
C1047 C1049 1.390 . S
C1047 H1051 0.950 . S
H1048 C1044 0.950 . S
C1049 C1047 1.390 . S
C1049 C1050 1.387 . S
C1049 H1052 0.950 . S
C1050 C1049 1.387 . S
C1050 C1053 1.387 . S
H1051 C1047 0.950 . S
H1052 C1049 0.950 . S
C1053 C1044 1.390 . S
C1053 H1046 0.950 . S
C1053 C1050 1.387 . S
C1054 C1055 1.387 . S
C1054 H1058 0.950 . S
C1054 C1063 1.390 . S
C1055 C1054 1.387 . S
C1055 C1057 1.387 . S
H1056 C1063 0.950 . S
C1057 C1055 1.387 . S
C1057 C1059 1.390 . S
C1057 H1061 0.950 . S
H1058 C1054 0.950 . S
C1059 C1057 1.390 . S
C1059 C1060 1.387 . S
C1059 H1062 0.950 . S
C1060 C1059 1.387 . S
C1060 C1063 1.387 . S
H1061 C1057 0.950 . S
H1062 C1059 0.950 . S
C1063 C1054 1.390 . S
C1063 H1056 0.950 . S
C1063 C1060 1.387 . S
C1064 C1065 1.387 . S
C1064 H1068 0.950 . S
C1064 C1073 1.390 1_455 S
C1065 C1064 1.387 . S
C1065 C1067 1.387 . S
H1066 C1073 0.950 . S
C1067 C1065 1.387 . S
C1067 C1069 1.390 1_455 S
C1067 H1071 0.950 . S
H1068 C1064 0.950 . S
C1069 C1067 1.390 1_655 S
C1069 C1070 1.387 . S
C1069 H1072 0.950 . S
C1070 C1069 1.387 . S
C1070 C1073 1.387 . S
H1071 C1067 0.950 . S
H1072 C1069 0.950 . S
C1073 C1064 1.390 1_655 S
C1073 H1066 0.950 . S
C1073 C1070 1.387 . S
C1074 C1075 1.387 . S
C1074 H1078 0.950 . S
C1074 C1083 1.390 . S
C1075 C1074 1.387 . S
C1075 C1077 1.387 . S
H1076 C1083 0.950 . S
C1077 C1075 1.387 . S
C1077 C1079 1.390 . S
C1077 H1081 0.950 . S
H1078 C1074 0.950 . S
C1079 C1077 1.390 . S
C1079 C1080 1.387 . S
C1079 H1082 0.950 . S
C1080 C1079 1.387 . S
C1080 C1083 1.387 . S
H1081 C1077 0.950 . S
H1082 C1079 0.950 . S
C1083 C1074 1.390 . S
C1083 H1076 0.950 . S
C1083 C1080 1.387 . S
C1084 C1085 1.387 . S
C1084 H1088 0.950 . S
C1084 C1093 1.390 . S
C1085 C1084 1.387 . S
C1085 C1087 1.387 . S
H1086 C1093 0.950 . S
C1087 C1085 1.387 . S
C1087 C1089 1.390 . S
C1087 H1091 0.950 . S
H1088 C1084 0.950 . S
C1089 C1087 1.390 . S
C1089 C1090 1.387 . S
C1089 H1092 0.950 . S
C1090 C1089 1.387 . S
C1090 C1093 1.387 . S
H1091 C1087 0.950 . S
H1092 C1089 0.950 . S
C1093 C1084 1.390 . S
C1093 H1086 0.950 . S
C1093 C1090 1.387 . S
C1094 C1095 1.387 . S
C1094 H1098 0.950 . S
C1094 C1103 1.390 . S
C1095 C1094 1.387 . S
C1095 C1097 1.387 . S
H1096 C1103 0.950 . S
C1097 C1095 1.387 . S
C1097 C1099 1.390 . S
C1097 H1101 0.950 . S
H1098 C1094 0.950 . S
C1099 C1097 1.390 . S
C1099 C1100 1.387 . S
C1099 H1102 0.950 . S
C1100 C1099 1.387 . S
C1100 C1103 1.387 . S
H1101 C1097 0.950 . S
H1102 C1099 0.950 . S
C1103 C1094 1.390 . S
C1103 H1096 0.950 . S
C1103 C1100 1.387 . S
C1104 C1105 1.387 . S
C1104 H1108 0.950 . S
C1104 C1113 1.390 . S
C1105 C1104 1.387 . S
C1105 C1107 1.387 . S
H1106 C1113 0.950 . S
C1107 C1105 1.387 . S
C1107 C1109 1.390 . S
C1107 H1111 0.950 . S
H1108 C1104 0.950 . S
C1109 C1107 1.390 . S
C1109 C1110 1.387 . S
C1109 H1112 0.950 . S
C1110 C1109 1.387 . S
C1110 C1113 1.387 . S
H1111 C1107 0.950 . S
H1112 C1109 0.950 . S
C1113 C1104 1.390 . S
C1113 H1106 0.950 . S
C1113 C1110 1.387 . S
C1114 C1115 1.387 . S
C1114 H1118 0.950 . S
C1114 C1123 1.390 . S
C1115 C1114 1.387 . S
C1115 C1117 1.387 . S
H1116 C1123 0.950 . S
C1117 C1115 1.387 . S
C1117 C1119 1.390 . S
C1117 H1121 0.950 . S
H1118 C1114 0.950 . S
C1119 C1117 1.390 . S
C1119 C1120 1.387 . S
C1119 H1122 0.950 . S
C1120 C1119 1.387 . S
C1120 C1123 1.387 . S
H1121 C1117 0.950 . S
H1122 C1119 0.950 . S
C1123 C1114 1.390 . S
C1123 H1116 0.950 . S
C1123 C1120 1.387 . S
C1124 C1125 1.387 . S
C1124 H1128 0.950 . S
C1124 C1133 1.390 . S
C1125 C1124 1.387 . S
C1125 C1127 1.387 . S
H1126 C1133 0.950 . S
C1127 C1125 1.387 . S
C1127 C1129 1.390 . S
C1127 H1131 0.950 . S
H1128 C1124 0.950 . S
C1129 C1127 1.390 . S
C1129 C1130 1.387 . S
C1129 H1132 0.950 . S
C1130 C1129 1.387 . S
C1130 C1133 1.387 . S
H1131 C1127 0.950 . S
H1132 C1129 0.950 . S
C1133 C1124 1.390 . S
C1133 H1126 0.950 . S
C1133 C1130 1.387 . S
C1134 C1135 1.387 . S
C1134 H1138 0.950 . S
C1134 C1143 1.390 . S
C1135 C1134 1.387 . S
C1135 C1137 1.387 . S
H1136 C1143 0.950 . S
C1137 C1135 1.387 . S
C1137 C1139 1.390 . S
C1137 H1141 0.950 . S
H1138 C1134 0.950 . S
C1139 C1137 1.390 . S
C1139 C1140 1.387 . S
C1139 H1142 0.950 . S
C1140 C1139 1.387 . S
C1140 C1143 1.387 . S
H1141 C1137 0.950 . S
H1142 C1139 0.950 . S
C1143 C1134 1.390 . S
C1143 H1136 0.950 . S
C1143 C1140 1.387 . S
C1144 C1145 1.387 . S
C1144 H1148 0.950 . S
C1144 C1153 1.390 . S
C1145 C1144 1.387 . S
C1145 C1147 1.387 . S
H1146 C1153 0.950 . S
C1147 C1145 1.387 . S
C1147 C1149 1.390 . S
C1147 H1151 0.950 . S
H1148 C1144 0.950 . S
C1149 C1147 1.390 . S
C1149 C1150 1.387 . S
C1149 H1152 0.950 . S
C1150 C1149 1.387 . S
C1150 C1153 1.387 . S
H1151 C1147 0.950 . S
H1152 C1149 0.950 . S
C1153 C1144 1.390 . S
C1153 H1146 0.950 . S
C1153 C1150 1.387 . S
C1154 C1155 1.387 . S
C1154 H1158 0.950 . S
C1154 C1163 1.390 . S
C1155 C1154 1.387 . S
C1155 C1157 1.387 . S
H1156 C1163 0.950 . S
C1157 C1155 1.387 . S
C1157 C1159 1.390 . S
C1157 H1161 0.950 . S
H1158 C1154 0.950 . S
C1159 C1157 1.390 . S
C1159 C1160 1.387 . S
C1159 H1162 0.950 . S
C1160 C1159 1.387 . S
C1160 C1163 1.387 . S
H1161 C1157 0.950 . S
H1162 C1159 0.950 . S
C1163 C1154 1.390 . S
C1163 H1156 0.950 . S
C1163 C1160 1.387 . S
C1164 C1165 1.387 . S
C1164 H1168 0.950 . S
C1164 C1173 1.390 . S
C1165 C1164 1.387 . S
C1165 C1167 1.387 . S
H1166 C1173 0.950 . S
C1167 C1165 1.387 . S
C1167 C1169 1.390 . S
C1167 H1171 0.950 . S
H1168 C1164 0.950 . S
C1169 C1167 1.390 . S
C1169 C1170 1.387 . S
C1169 H1172 0.950 . S
C1170 C1169 1.387 . S
C1170 C1173 1.387 . S
H1171 C1167 0.950 . S
H1172 C1169 0.950 . S
C1173 C1164 1.390 . S
C1173 H1166 0.950 . S
C1173 C1170 1.387 . S
C1174 C1175 1.387 . S
C1174 H1178 0.950 . S
C1174 C1183 1.390 . S
C1175 C1174 1.387 . S
C1175 C1177 1.387 . S
H1176 C1183 0.950 . S
C1177 C1175 1.387 . S
C1177 C1179 1.390 . S
C1177 H1181 0.950 . S
H1178 C1174 0.950 . S
C1179 C1177 1.390 . S
C1179 C1180 1.387 . S
C1179 H1182 0.950 . S
C1180 C1179 1.387 . S
C1180 C1183 1.387 . S
H1181 C1177 0.950 . S
H1182 C1179 0.950 . S
C1183 C1174 1.390 . S
C1183 H1176 0.950 . S
C1183 C1180 1.387 . S
C1184 C1185 1.387 . S
C1184 H1188 0.950 . S
C1184 C1193 1.390 . S
C1185 C1184 1.387 . S
C1185 C1187 1.387 . S
H1186 C1193 0.950 . S
C1187 C1185 1.387 . S
C1187 C1189 1.390 . S
C1187 H1191 0.950 . S
H1188 C1184 0.950 . S
C1189 C1187 1.390 . S
C1189 C1190 1.387 . S
C1189 H1192 0.950 . S
C1190 C1189 1.387 . S
C1190 C1193 1.387 . S
H1191 C1187 0.950 . S
H1192 C1189 0.950 . S
C1193 C1184 1.390 . S
C1193 H1186 0.950 . S
C1193 C1190 1.387 . S
C1194 C1195 1.387 . S
C1194 H1198 0.950 . S
C1194 C1203 1.390 . S
C1195 C1194 1.387 . S
C1195 C1197 1.387 . S
H1196 C1203 0.950 . S
C1197 C1195 1.387 . S
C1197 C1199 1.390 . S
C1197 H1201 0.950 . S
H1198 C1194 0.950 . S
C1199 C1197 1.390 . S
C1199 C1200 1.387 . S
C1199 H1202 0.950 . S
C1200 C1199 1.387 . S
C1200 C1203 1.387 . S
H1201 C1197 0.950 . S
H1202 C1199 0.950 . S
C1203 C1194 1.390 . S
C1203 H1196 0.950 . S
C1203 C1200 1.387 . S
C1204 C1205 1.387 . S
C1204 H1208 0.950 . S
C1204 C1213 1.390 . S
C1205 C1204 1.387 . S
C1205 C1207 1.387 . S
H1206 C1213 0.950 . S
C1207 C1205 1.387 . S
C1207 C1209 1.390 . S
C1207 H1211 0.950 . S
H1208 C1204 0.950 . S
C1209 C1207 1.390 . S
C1209 C1210 1.387 . S
C1209 H1212 0.950 . S
C1210 C1209 1.387 . S
C1210 C1213 1.387 . S
H1211 C1207 0.950 . S
H1212 C1209 0.950 . S
C1213 C1204 1.390 . S
C1213 H1206 0.950 . S
C1213 C1210 1.387 . S
C1214 C1215 1.387 . S
C1214 H1218 0.950 . S
C1214 C1223 1.390 . S
C1215 C1214 1.387 . S
C1215 C1217 1.387 . S
H1216 C1223 0.950 . S
C1217 C1215 1.387 . S
C1217 C1219 1.390 . S
C1217 H1221 0.950 . S
H1218 C1214 0.950 . S
C1219 C1217 1.390 . S
C1219 C1220 1.387 . S
C1219 H1222 0.950 . S
C1220 C1219 1.387 . S
C1220 C1223 1.387 . S
H1221 C1217 0.950 . S
H1222 C1219 0.950 . S
C1223 C1214 1.390 . S
C1223 H1216 0.950 . S
C1223 C1220 1.387 . S
C1224 C1225 1.387 . S
C1224 H1228 0.950 . S
C1224 C1233 1.390 . S
C1225 C1224 1.387 . S
C1225 C1227 1.387 . S
H1226 C1233 0.950 . S
C1227 C1225 1.387 . S
C1227 C1229 1.390 . S
C1227 H1231 0.950 . S
H1228 C1224 0.950 . S
C1229 C1227 1.390 . S
C1229 C1230 1.387 . S
C1229 H1232 0.950 . S
C1230 C1229 1.387 . S
C1230 C1233 1.387 . S
H1231 C1227 0.950 . S
H1232 C1229 0.950 . S
C1233 C1224 1.390 . S
C1233 H1226 0.950 . S
C1233 C1230 1.387 . S
C1234 C1235 1.387 . S
C1234 H1238 0.950 . S
C1234 C1243 1.390 . S
C1235 C1234 1.387 . S
C1235 C1237 1.387 . S
H1236 C1243 0.950 . S
C1237 C1235 1.387 . S
C1237 C1239 1.390 . S
C1237 H1241 0.950 . S
H1238 C1234 0.950 . S
C1239 C1237 1.390 . S
C1239 C1240 1.387 . S
C1239 H1242 0.950 . S
C1240 C1239 1.387 . S
C1240 C1243 1.387 . S
H1241 C1237 0.950 . S
H1242 C1239 0.950 . S
C1243 C1234 1.390 . S
C1243 H1236 0.950 . S
C1243 C1240 1.387 . S
C1244 C1245 1.387 . S
C1244 H1248 0.950 . S
C1244 C1253 1.390 . S
C1245 C1244 1.387 . S
C1245 C1247 1.387 . S
H1246 C1253 0.950 . S
C1247 C1245 1.387 . S
C1247 C1249 1.390 . S
C1247 H1251 0.950 . S
H1248 C1244 0.950 . S
C1249 C1247 1.390 . S
C1249 C1250 1.387 . S
C1249 H1252 0.950 . S
C1250 C1249 1.387 . S
C1250 C1253 1.387 . S
H1251 C1247 0.950 . S
H1252 C1249 0.950 . S
C1253 C1244 1.390 . S
C1253 H1246 0.950 . S
C1253 C1250 1.387 . S
C1254 C1255 1.387 . S
C1254 H1258 0.950 . S
C1254 C1263 1.390 . S
C1255 C1254 1.387 . S
C1255 C1257 1.387 . S
H1256 C1263 0.950 . S
C1257 C1255 1.387 . S
C1257 C1259 1.390 . S
C1257 H1261 0.950 . S
H1258 C1254 0.950 . S
C1259 C1257 1.390 . S
C1259 C1260 1.387 . S
C1259 H1262 0.950 . S
C1260 C1259 1.387 . S
C1260 C1263 1.387 . S
H1261 C1257 0.950 . S
H1262 C1259 0.950 . S
C1263 C1254 1.390 . S
C1263 H1256 0.950 . S
C1263 C1260 1.387 . S
C1264 C1265 1.387 . S
C1264 H1268 0.950 . S
C1264 C1273 1.390 . S
C1265 C1264 1.387 . S
C1265 C1267 1.387 . S
H1266 C1273 0.950 . S
C1267 C1265 1.387 . S
C1267 C1269 1.390 . S
C1267 H1271 0.950 . S
H1268 C1264 0.950 . S
C1269 C1267 1.390 . S
C1269 C1270 1.387 . S
C1269 H1272 0.950 . S
C1270 C1269 1.387 . S
C1270 C1273 1.387 . S
H1271 C1267 0.950 . S
H1272 C1269 0.950 . S
C1273 C1264 1.390 . S
C1273 H1266 0.950 . S
C1273 C1270 1.387 . S
C1274 C1275 1.387 . S
C1274 H1278 0.950 . S
C1274 C1283 1.390 . S
C1275 C1274 1.387 . S
C1275 C1277 1.387 . S
H1276 C1283 0.950 . S
C1277 C1275 1.387 . S
C1277 C1279 1.390 . S
C1277 H1281 0.950 . S
H1278 C1274 0.950 . S
C1279 C1277 1.390 . S
C1279 C1280 1.387 . S
C1279 H1282 0.950 . S
C1280 C1279 1.387 . S
C1280 C1283 1.387 . S
H1281 C1277 0.950 . S
H1282 C1279 0.950 . S
C1283 C1274 1.390 . S
C1283 H1276 0.950 . S
C1283 C1280 1.387 . S
C1284 C1285 1.387 . S
C1284 H1288 0.950 . S
C1284 C1293 1.390 . S
C1285 C1284 1.387 . S
C1285 C1287 1.387 . S
H1286 C1293 0.950 . S
C1287 C1285 1.387 . S
C1287 C1289 1.390 . S
C1287 H1291 0.950 . S
H1288 C1284 0.950 . S
C1289 C1287 1.390 . S
C1289 C1290 1.387 . S
C1289 H1292 0.950 . S
C1290 C1289 1.387 . S
C1290 C1293 1.387 . S
H1291 C1287 0.950 . S
H1292 C1289 0.950 . S
C1293 C1284 1.390 . S
C1293 H1286 0.950 . S
C1293 C1290 1.387 . S
C1294 C1295 1.387 . S
C1294 H1298 0.950 . S
C1294 C1303 1.390 . S
C1295 C1294 1.387 . S
C1295 C1297 1.387 . S
H1296 C1303 0.950 . S
C1297 C1295 1.387 . S
C1297 C1299 1.390 . S
C1297 H1301 0.950 . S
H1298 C1294 0.950 . S
C1299 C1297 1.390 . S
C1299 C1300 1.387 . S
C1299 H1302 0.950 . S
C1300 C1299 1.387 . S
C1300 C1303 1.387 . S
H1301 C1297 0.950 . S
H1302 C1299 0.950 . S
C1303 C1294 1.390 . S
C1303 H1296 0.950 . S
C1303 C1300 1.387 . S
C1304 C1305 1.387 . S
C1304 H1308 0.950 . S
C1304 C1313 1.390 . S
C1305 C1304 1.387 . S
C1305 C1307 1.387 . S
H1306 C1313 0.950 . S
C1307 C1305 1.387 . S
C1307 C1309 1.390 . S
C1307 H1311 0.950 . S
H1308 C1304 0.950 . S
C1309 C1307 1.390 . S
C1309 C1310 1.387 . S
C1309 H1312 0.950 . S
C1310 C1309 1.387 . S
C1310 C1313 1.387 . S
H1311 C1307 0.950 . S
H1312 C1309 0.950 . S
C1313 C1304 1.390 . S
C1313 H1306 0.950 . S
C1313 C1310 1.387 . S
C1314 C1315 1.387 . S
C1314 H1318 0.950 . S
C1314 C1323 1.390 . S
C1315 C1314 1.387 . S
C1315 C1317 1.387 . S
H1316 C1323 0.950 . S
C1317 C1315 1.387 . S
C1317 C1319 1.390 . S
C1317 H1321 0.950 . S
H1318 C1314 0.950 . S
C1319 C1317 1.390 . S
C1319 C1320 1.387 . S
C1319 H1322 0.950 . S
C1320 C1319 1.387 . S
C1320 C1323 1.387 . S
H1321 C1317 0.950 . S
H1322 C1319 0.950 . S
C1323 C1314 1.390 . S
C1323 H1316 0.950 . S
C1323 C1320 1.387 . S
C1324 C1325 1.387 . S
C1324 H1328 0.950 . S
C1324 C1333 1.390 . S
C1325 C1324 1.387 . S
C1325 C1327 1.387 . S
H1326 C1333 0.950 . S
C1327 C1325 1.387 . S
C1327 C1329 1.390 . S
C1327 H1331 0.950 . S
H1328 C1324 0.950 . S
C1329 C1327 1.390 . S
C1329 C1330 1.387 . S
C1329 H1332 0.950 . S
C1330 C1329 1.387 . S
C1330 C1333 1.387 . S
H1331 C1327 0.950 . S
H1332 C1329 0.950 . S
C1333 C1324 1.390 . S
C1333 H1326 0.950 . S
C1333 C1330 1.387 . S
C1334 C1335 1.387 . S
C1334 H1338 0.950 . S
C1334 C1343 1.390 . S
C1335 C1334 1.387 . S
C1335 C1337 1.387 . S
H1336 C1343 0.950 . S
C1337 C1335 1.387 . S
C1337 C1339 1.390 . S
C1337 H1341 0.950 . S
H1338 C1334 0.950 . S
C1339 C1337 1.390 . S
C1339 C1340 1.387 . S
C1339 H1342 0.950 . S
C1340 C1339 1.387 . S
C1340 C1343 1.387 . S
H1341 C1337 0.950 . S
H1342 C1339 0.950 . S
C1343 C1334 1.390 . S
C1343 H1336 0.950 . S
C1343 C1340 1.387 . S
C1344 C1345 1.387 . S
C1344 H1348 0.950 . S
C1344 C1353 1.390 . S
C1345 C1344 1.387 . S
C1345 C1347 1.387 . S
H1346 C1353 0.950 . S
C1347 C1345 1.387 . S
C1347 C1349 1.390 . S
C1347 H1351 0.950 . S
H1348 C1344 0.950 . S
C1349 C1347 1.390 . S
C1349 C1350 1.387 . S
C1349 H1352 0.950 . S
C1350 C1349 1.387 . S
C1350 C1353 1.387 . S
H1351 C1347 0.950 . S
H1352 C1349 0.950 . S
C1353 C1344 1.390 . S
C1353 H1346 0.950 . S
C1353 C1350 1.387 . S
C1354 C1355 1.387 . S
C1354 H1358 0.950 . S
C1354 C1363 1.390 . S
C1355 C1354 1.387 . S
C1355 C1357 1.387 . S
H1356 C1363 0.950 . S
C1357 C1355 1.387 . S
C1357 C1359 1.390 . S
C1357 H1361 0.950 . S
H1358 C1354 0.950 . S
C1359 C1357 1.390 . S
C1359 C1360 1.387 . S
C1359 H1362 0.950 . S
C1360 C1359 1.387 . S
C1360 C1363 1.387 . S
H1361 C1357 0.950 . S
H1362 C1359 0.950 . S
C1363 C1354 1.390 . S
C1363 H1356 0.950 . S
C1363 C1360 1.387 . S
C1364 C1365 1.387 . S
C1364 H1368 0.950 . S
C1364 C1373 1.390 . S
C1365 C1364 1.387 . S
C1365 C1367 1.387 . S
H1366 C1373 0.950 . S
C1367 C1365 1.387 . S
C1367 C1369 1.390 . S
C1367 H1371 0.950 . S
H1368 C1364 0.950 . S
C1369 C1367 1.390 . S
C1369 C1370 1.387 . S
C1369 H1372 0.950 . S
C1370 C1369 1.387 . S
C1370 C1373 1.387 . S
H1371 C1367 0.950 . S
H1372 C1369 0.950 . S
C1373 C1364 1.390 . S
C1373 H1366 0.950 . S
C1373 C1370 1.387 . S
C1374 C1375 1.387 . S
C1374 H1378 0.950 . S
C1374 C1383 1.390 . S
C1375 C1374 1.387 . S
C1375 C1377 1.387 . S
H1376 C1383 0.950 . S
C1377 C1375 1.387 . S
C1377 C1379 1.390 . S
C1377 H1381 0.950 . S
H1378 C1374 0.950 . S
C1379 C1377 1.390 . S
C1379 C1380 1.387 . S
C1379 H1382 0.950 . S
C1380 C1379 1.387 . S
C1380 C1383 1.387 . S
H1381 C1377 0.950 . S
H1382 C1379 0.950 . S
C1383 C1374 1.390 . S
C1383 H1376 0.950 . S
C1383 C1380 1.387 . S
C1384 C1385 1.387 . S
C1384 H1388 0.950 . S
C1384 C1393 1.390 . S
C1385 C1384 1.387 . S
C1385 C1387 1.387 . S
H1386 C1393 0.950 . S
C1387 C1385 1.387 . S
C1387 C1389 1.390 . S
C1387 H1391 0.950 . S
H1388 C1384 0.950 . S
C1389 C1387 1.390 . S
C1389 C1390 1.387 . S
C1389 H1392 0.950 . S
C1390 C1389 1.387 . S
C1390 C1393 1.387 . S
H1391 C1387 0.950 . S
H1392 C1389 0.950 . S
C1393 C1384 1.390 . S
C1393 H1386 0.950 . S
C1393 C1390 1.387 . S
C1394 C1395 1.387 . S
C1394 H1398 0.950 . S
C1394 C1403 1.390 . S
C1395 C1394 1.387 . S
C1395 C1397 1.387 . S
H1396 C1403 0.950 . S
C1397 C1395 1.387 . S
C1397 C1399 1.390 . S
C1397 H1401 0.950 . S
H1398 C1394 0.950 . S
C1399 C1397 1.390 . S
C1399 C1400 1.387 . S
C1399 H1402 0.950 . S
C1400 C1399 1.387 . S
C1400 C1403 1.387 . S
H1401 C1397 0.950 . S
H1402 C1399 0.950 . S
C1403 C1394 1.390 . S
C1403 H1396 0.950 . S
C1403 C1400 1.387 . S
C1404 C1405 1.387 . S
C1404 H1408 0.950 . S
C1404 C1413 1.390 . S
C1405 C1404 1.387 . S
C1405 C1407 1.387 . S
H1406 C1413 0.950 . S
C1407 C1405 1.387 . S
C1407 C1409 1.390 . S
C1407 H1411 0.950 . S
H1408 C1404 0.950 . S
C1409 C1407 1.390 . S
C1409 C1410 1.387 . S
C1409 H1412 0.950 . S
C1410 C1409 1.387 . S
C1410 C1413 1.387 . S
H1411 C1407 0.950 . S
H1412 C1409 0.950 . S
C1413 C1404 1.390 . S
C1413 H1406 0.950 . S
C1413 C1410 1.387 . S
C1414 C1415 1.387 . S
C1414 H1418 0.950 . S
C1414 C1423 1.390 . S
C1415 C1414 1.387 . S
C1415 C1417 1.387 . S
H1416 C1423 0.950 . S
C1417 C1415 1.387 . S
C1417 C1419 1.390 . S
C1417 H1421 0.950 . S
H1418 C1414 0.950 . S
C1419 C1417 1.390 . S
C1419 C1420 1.387 . S
C1419 H1422 0.950 . S
C1420 C1419 1.387 . S
C1420 C1423 1.387 . S
H1421 C1417 0.950 . S
H1422 C1419 0.950 . S
C1423 C1414 1.390 . S
C1423 H1416 0.950 . S
C1423 C1420 1.387 . S
C1424 C1425 1.387 . S
C1424 H1428 0.950 . S
C1424 C1433 1.390 . S
C1425 C1424 1.387 . S
C1425 C1427 1.387 . S
H1426 C1433 0.950 . S
C1427 C1425 1.387 . S
C1427 C1429 1.390 . S
C1427 H1431 0.950 . S
H1428 C1424 0.950 . S
C1429 C1427 1.390 . S
C1429 C1430 1.387 . S
C1429 H1432 0.950 . S
C1430 C1429 1.387 . S
C1430 C1433 1.387 . S
H1431 C1427 0.950 . S
H1432 C1429 0.950 . S
C1433 C1424 1.390 . S
C1433 H1426 0.950 . S
C1433 C1430 1.387 . S
C1434 C1435 1.387 . S
C1434 H1438 0.950 . S
C1434 C1443 1.390 . S
C1435 C1434 1.387 . S
C1435 C1437 1.387 . S
H1436 C1443 0.950 . S
C1437 C1435 1.387 . S
C1437 C1439 1.390 . S
C1437 H1441 0.950 . S
H1438 C1434 0.950 . S
C1439 C1437 1.390 . S
C1439 C1440 1.387 . S
C1439 H1442 0.950 . S
C1440 C1439 1.387 . S
C1440 C1443 1.387 . S
H1441 C1437 0.950 . S
H1442 C1439 0.950 . S
C1443 C1434 1.390 . S
C1443 H1436 0.950 . S
C1443 C1440 1.387 . S
C1444 C1445 1.387 . S
C1444 H1448 0.950 . S
C1444 C1453 1.390 . S
C1445 C1444 1.387 . S
C1445 C1447 1.387 . S
H1446 C1453 0.950 . S
C1447 C1445 1.387 . S
C1447 C1449 1.390 . S
C1447 H1451 0.950 . S
H1448 C1444 0.950 . S
C1449 C1447 1.390 . S
C1449 C1450 1.387 . S
C1449 H1452 0.950 . S
C1450 C1449 1.387 . S
C1450 C1453 1.387 . S
H1451 C1447 0.950 . S
H1452 C1449 0.950 . S
C1453 C1444 1.390 . S
C1453 H1446 0.950 . S
C1453 C1450 1.387 . S
C1454 C1455 1.387 . S
C1454 H1458 0.950 . S
C1454 C1463 1.390 . S
C1455 C1454 1.387 . S
C1455 C1457 1.387 . S
H1456 C1463 0.950 . S
C1457 C1455 1.387 . S
C1457 C1459 1.390 . S
C1457 H1461 0.950 . S
H1458 C1454 0.950 . S
C1459 C1457 1.390 . S
C1459 C1460 1.387 . S
C1459 H1462 0.950 . S
C1460 C1459 1.387 . S
C1460 C1463 1.387 . S
H1461 C1457 0.950 . S
H1462 C1459 0.950 . S
C1463 C1454 1.390 . S
C1463 H1456 0.950 . S
C1463 C1460 1.387 . S
C1464 C1465 1.387 . S
C1464 H1468 0.950 . S
C1464 C1473 1.390 . S
C1465 C1464 1.387 . S
C1465 C1467 1.387 . S
H1466 C1473 0.950 . S
C1467 C1465 1.387 . S
C1467 C1469 1.390 . S
C1467 H1471 0.950 . S
H1468 C1464 0.950 . S
C1469 C1467 1.390 . S
C1469 C1470 1.387 . S
C1469 H1472 0.950 . S
C1470 C1469 1.387 . S
C1470 C1473 1.387 . S
H1471 C1467 0.950 . S
H1472 C1469 0.950 . S
C1473 C1464 1.390 . S
C1473 H1466 0.950 . S
C1473 C1470 1.387 . S
C1474 C1475 1.387 . S
C1474 H1478 0.950 . S
C1474 C1483 1.390 . S
C1475 C1474 1.387 . S
C1475 C1477 1.387 . S
H1476 C1483 0.950 . S
C1477 C1475 1.387 . S
C1477 C1479 1.390 . S
C1477 H1481 0.950 . S
H1478 C1474 0.950 . S
C1479 C1477 1.390 . S
C1479 C1480 1.387 . S
C1479 H1482 0.950 . S
C1480 C1479 1.387 . S
C1480 C1483 1.387 . S
H1481 C1477 0.950 . S
H1482 C1479 0.950 . S
C1483 C1474 1.390 . S
C1483 H1476 0.950 . S
C1483 C1480 1.387 . S
C1484 C1485 1.387 . S
C1484 H1488 0.950 . S
C1484 C1493 1.390 . S
C1485 C1484 1.387 . S
C1485 C1487 1.387 . S
H1486 C1493 0.950 . S
C1487 C1485 1.387 . S
C1487 C1489 1.390 . S
C1487 H1491 0.950 . S
H1488 C1484 0.950 . S
C1489 C1487 1.390 . S
C1489 C1490 1.387 . S
C1489 H1492 0.950 . S
C1490 C1489 1.387 . S
C1490 C1493 1.387 . S
H1491 C1487 0.950 . S
H1492 C1489 0.950 . S
C1493 C1484 1.390 . S
C1493 H1486 0.950 . S
C1493 C1490 1.387 . S
C1494 C1495 1.387 . S
C1494 H1498 0.950 . S
C1494 C1503 1.390 . S
C1495 C1494 1.387 . S
C1495 C1497 1.387 . S
H1496 C1503 0.950 . S
C1497 C1495 1.387 . S
C1497 C1499 1.390 . S
C1497 H1501 0.950 . S
H1498 C1494 0.950 . S
C1499 C1497 1.390 . S
C1499 C1500 1.387 . S
C1499 H1502 0.950 . S
C1500 C1499 1.387 . S
C1500 C1503 1.387 . S
H1501 C1497 0.950 . S
H1502 C1499 0.950 . S
C1503 C1494 1.390 . S
C1503 H1496 0.950 . S
C1503 C1500 1.387 . S
C1504 C1505 1.387 . S
C1504 H1508 0.950 . S
C1504 C1513 1.390 . S
C1505 C1504 1.387 . S
C1505 C1507 1.387 . S
H1506 C1513 0.950 . S
C1507 C1505 1.387 . S
C1507 C1509 1.390 . S
C1507 H1511 0.950 . S
H1508 C1504 0.950 . S
C1509 C1507 1.390 . S
C1509 C1510 1.387 . S
C1509 H1512 0.950 . S
C1510 C1509 1.387 . S
C1510 C1513 1.387 . S
H1511 C1507 0.950 . S
H1512 C1509 0.950 . S
C1513 C1504 1.390 . S
C1513 H1506 0.950 . S
C1513 C1510 1.387 . S
C1514 C1515 1.387 . S
C1514 H1518 0.950 . S
C1514 C1523 1.390 . S
C1515 C1514 1.387 . S
C1515 C1517 1.387 . S
H1516 C1523 0.950 . S
C1517 C1515 1.387 . S
C1517 C1519 1.390 . S
C1517 H1521 0.950 . S
H1518 C1514 0.950 . S
C1519 C1517 1.390 . S
C1519 C1520 1.387 . S
C1519 H1522 0.950 . S
C1520 C1519 1.387 . S
C1520 C1523 1.387 . S
H1521 C1517 0.950 . S
H1522 C1519 0.950 . S
C1523 C1514 1.390 . S
C1523 H1516 0.950 . S
C1523 C1520 1.387 . S
C1524 C1525 1.387 . S
C1524 H1528 0.950 . S
C1524 C1533 1.390 . S
C1525 C1524 1.387 . S
C1525 C1527 1.387 . S
H1526 C1533 0.950 . S
C1527 C1525 1.387 . S
C1527 C1529 1.390 . S
C1527 H1531 0.950 . S
H1528 C1524 0.950 . S
C1529 C1527 1.390 . S
C1529 C1530 1.387 . S
C1529 H1532 0.950 . S
C1530 C1529 1.387 . S
C1530 C1533 1.387 . S
H1531 C1527 0.950 . S
H1532 C1529 0.950 . S
C1533 C1524 1.390 . S
C1533 H1526 0.950 . S
C1533 C1530 1.387 . S
C1534 C1535 1.387 . S
C1534 H1538 0.950 . S
C1534 C1543 1.390 . S
C1535 C1534 1.387 . S
C1535 C1537 1.387 . S
H1536 C1543 0.950 . S
C1537 C1535 1.387 . S
C1537 C1539 1.390 . S
C1537 H1541 0.950 . S
H1538 C1534 0.950 . S
C1539 C1537 1.390 . S
C1539 C1540 1.387 . S
C1539 H1542 0.950 . S
C1540 C1539 1.387 . S
C1540 C1543 1.387 . S
H1541 C1537 0.950 . S
H1542 C1539 0.950 . S
C1543 C1534 1.390 . S
C1543 H1536 0.950 . S
C1543 C1540 1.387 . S
C1544 C1545 1.387 . S
C1544 H1548 0.950 . S
C1544 C1553 1.390 . S
C1545 C1544 1.387 . S
C1545 C1547 1.387 . S
H1546 C1553 0.950 . S
C1547 C1545 1.387 . S
C1547 C1549 1.390 . S
C1547 H1551 0.950 . S
H1548 C1544 0.950 . S
C1549 C1547 1.390 . S
C1549 C1550 1.387 . S
C1549 H1552 0.950 . S
C1550 C1549 1.387 . S
C1550 C1553 1.387 . S
H1551 C1547 0.950 . S
H1552 C1549 0.950 . S
C1553 C1544 1.390 . S
C1553 H1546 0.950 . S
C1553 C1550 1.387 . S
C1554 C1555 1.387 . S
C1554 H1558 0.950 . S
C1554 C1563 1.390 . S
C1555 C1554 1.387 . S
C1555 C1557 1.387 . S
H1556 C1563 0.950 . S
C1557 C1555 1.387 . S
C1557 C1559 1.390 . S
C1557 H1561 0.950 . S
H1558 C1554 0.950 . S
C1559 C1557 1.390 . S
C1559 C1560 1.387 . S
C1559 H1562 0.950 . S
C1560 C1559 1.387 . S
C1560 C1563 1.387 . S
H1561 C1557 0.950 . S
H1562 C1559 0.950 . S
C1563 C1554 1.390 . S
C1563 H1556 0.950 . S
C1563 C1560 1.387 . S
C1564 C1565 1.387 . S
C1564 H1568 0.950 . S
C1564 C1573 1.390 . S
C1565 C1564 1.387 . S
C1565 C1567 1.387 . S
H1566 C1573 0.950 . S
C1567 C1565 1.387 . S
C1567 C1569 1.390 . S
C1567 H1571 0.950 . S
H1568 C1564 0.950 . S
C1569 C1567 1.390 . S
C1569 C1570 1.387 . S
C1569 H1572 0.950 . S
C1570 C1569 1.387 . S
C1570 C1573 1.387 . S
H1571 C1567 0.950 . S
H1572 C1569 0.950 . S
C1573 C1564 1.390 . S
C1573 H1566 0.950 . S
C1573 C1570 1.387 . S
C1574 C1575 1.387 . S
C1574 H1578 0.950 . S
C1574 C1583 1.390 . S
C1575 C1574 1.387 . S
C1575 C1577 1.387 . S
H1576 C1583 0.950 . S
C1577 C1575 1.387 . S
C1577 C1579 1.390 . S
C1577 H1581 0.950 . S
H1578 C1574 0.950 . S
C1579 C1577 1.390 . S
C1579 C1580 1.387 . S
C1579 H1582 0.950 . S
C1580 C1579 1.387 . S
C1580 C1583 1.387 . S
H1581 C1577 0.950 . S
H1582 C1579 0.950 . S
C1583 C1574 1.390 . S
C1583 H1576 0.950 . S
C1583 C1580 1.387 . S
C625 C218 1.603 . S
C630 C3 1.633 . S
C635 C612 1.652 . S
C640 C16 1.521 . S
C645 C29 1.664 . S
C650 C595 1.632 . S
C655 C42 1.475 . S
C660 C599 1.594 . S
C665 C231 1.661 . S
C670 C55 1.676 . S
C675 C68 1.558 . S
C680 C235 1.665 . S
C685 C81 1.707 . S
C690 C257 1.687 . S
C695 C573 1.605 . S
C700 C94 1.513 . S
C705 C107 1.632 . S
C710 C10 1.603 . S
C715 C23 1.671 . S
C720 C120 1.545 . S
C725 C36 1.583 . S
C730 C133 1.608 . S
C735 C49 1.694 . S
C740 C146 1.564 . S
C745 C62 1.630 . S
C750 C159 1.662 . S
C755 C172 1.494 . S
C760 C75 1.617 . S
C765 C88 1.610 . S
C770 C185 1.638 . S
C775 C198 1.516 . S
C780 C101 1.647 . S
C785 C211 1.634 . S
C790 C114 1.603 . S
C795 C166 1.582 . S
C800 C224 1.607 . S
C805 C239 1.632 . S
C810 C179 1.647 . S
C815 C250 1.642 . S
C820 C192 1.632 . S
C825 C517 1.671 . S
C830 C265 1.648 . S
C835 C276 1.638 . S
C840 C452 1.609 . S
C845 C465 1.691 . S
C850 C291 1.662 . S
C855 C439 1.694 . S
C860 C304 1.692 . S
C865 C530 1.657 . S
C870 C315 1.671 . S
C875 C328 1.496 . S
C880 C300 1.585 . S
C885 C341 1.640 . S
C890 C283 1.629 . S
C895 C354 1.546 . S
C900 C287 1.649 . S
C905 C367 1.638 . S
C910 C543 1.610 . S
C915 C547 1.574 . S
C920 C380 1.452 . S
C925 C393 1.605 . S
C930 C569 1.580 . S
C935 C261 1.635 . S
C940 C406 1.502 . S
C945 C322 1.655 . S
C950 C419 1.670 . S
C955 C432 1.471 . S
C960 C335 1.645 . S
C965 C445 1.709 . S
C970 C348 1.690 . S
C975 C458 1.453 . S
C980 C361 1.617 . S
C985 C471 1.642 . S
C990 C374 1.631 . S
C995 C484 1.521 . S
C1000 C387 1.691 . S
C1005 C400 1.661 . S
C1010 C497 1.676 . S
C1015 C413 1.670 . S
C1020 C510 1.503 . S
C1025 C426 1.656 . S
C1030 C523 1.670 . S
C1035 C478 1.689 . S
C1040 C536 1.709 . S
C1045 C491 1.670 . S
C1050 C551 1.674 . S
C1055 C562 1.665 . S
C1060 C504 1.633 . S
C1065 C577 1.654 . S
C1070 C205 1.646 . S
C1075 C588 1.678 . S
C1080 C140 1.664 . S
C1085 C153 1.617 . S
C1090 C603 1.630 . S
C1095 C616 1.604 . S
C1100 C127 1.617 . S
C1105 C5 1.550 . S
C1110 C352 1.422 . S
C1115 C313 1.856 . S
C1120 C18 1.838 . S
C1125 C31 1.481 . S
C1130 C326 1.354 . S
C1135 C44 1.815 . S
C1140 C339 1.828 . S
C1145 C57 1.632 . S
C1150 C66 1.503 . S
C1155 C79 2.020 . S
C1160 C70 2.006 . S
C1165 C83 1.567 . S
C1170 C92 1.436 . S
C1175 C96 1.984 . S
C1180 C53 2.001 . S
C1185 C109 1.551 . S
C1190 C556 1.517 . S
C1195 C122 1.923 . S
C1200 C560 1.938 . S
C1205 C135 1.854 . S
C1210 C270 1.812 . S
C1215 C148 2.002 . S
C1220 C534 2.023 . S
C1225 C161 1.480 . S
C1230 C608 1.444 . S
C1235 C209 1.912 . S
C1240 C174 1.908 . S
C1245 C187 1.789 . S
C1250 C621 1.744 . S
C1255 C586 1.998 . S
C1260 C200 1.988 . S
C1265 C118 1.426 . S
C1270 C213 1.548 . S
C1275 C226 1.855 . S
C1280 C508 1.702 . S
C1285 C237 1.868 . S
C1290 C469 1.827 . S
C1295 C482 1.767 . S
C1300 C252 1.914 . S
C1305 C263 1.822 . S
C1310 C183 1.772 . S
C1315 C456 1.635 . S
C1320 C278 1.790 . S
C1325 C417 1.856 . S
C1330 C289 1.899 . S
C1335 C443 2.019 . S
C1340 C302 2.048 . S
C1345 C317 1.856 . S
C1350 C40 1.702 . S
C1355 C330 1.904 . S
C1360 C1 1.916 . S
C1365 C14 1.767 . S
C1370 C343 1.914 . S
C1375 C356 1.923 . S
C1380 C27 1.938 . S
C1385 C369 1.790 . S
C1390 C378 1.635 . S
C1395 C391 1.743 . S
C1400 C382 1.736 . S
C1405 C404 1.703 . S
C1410 C395 1.855 . S
C1415 C408 1.761 . S
C1420 C365 1.773 . S
C1425 C244 1.811 . S
C1430 C421 1.856 . S
C1435 C434 1.814 . S
C1440 C248 1.828 . S
C1445 C447 1.566 . S
C1450 C582 1.529 . S
C1455 C460 1.735 . S
C1460 C222 1.742 . S
C1465 C473 1.914 . S
C1470 C296 1.872 . S
C1475 C486 1.838 . S
C1480 C521 1.856 . S
C1485 C309 1.602 . S
C1490 C499 1.630 . S
C1495 C512 1.761 . S
C1500 C274 1.773 . S
C1505 C430 1.703 . S
C1510 C525 1.856 . S
C1515 C196 1.438 . S
C1520 C538 1.562 . S
C1525 C157 1.934 . S
C1530 C549 1.965 . S
C1535 C564 1.479 . S
C1540 C170 1.353 . S
C1545 C575 2.018 . S
C1550 C495 2.001 . S
C1555 C144 1.507 . S
C1560 C590 1.629 . S
C1565 C601 1.936 . S
C1570 C105 1.916 . S
C1575 C131 1.744 . S
C1580 C614 1.790 . S
