# Generated by pormake.
# Topology uom, (4)-cn, num edge types: 1
# Building blocks:
#     Node 0, Type 0, BuildingBlock: NAWXER_clean_sbu_0, # of connection points: 4
#     Node 1, Type 0, BuildingBlock: NAWXER_clean_sbu_0, # of connection points: 4
#     Node 2, Type 0, BuildingBlock: NAWXER_clean_sbu_0, # of connection points: 4
#     Node 3, Type 0, BuildingBlock: NAWXER_clean_sbu_0, # of connection points: 4
#     Node 4, Type 0, BuildingBlock: NAWXER_clean_sbu_0, # of connection points: 4
#     Node 5, Type 0, BuildingBlock: NAWXER_clean_sbu_0, # of connection points: 4
#     Edge 6, Type (0, 0), BuildingBlock: XUDNAN_clean_linker_2, # of connection points: 2
#     Edge 7, Type (0, 0), BuildingBlock: XUDNAN_clean_linker_2, # of connection points: 2
#     Edge 8, Type (0, 0), BuildingBlock: XUDNAN_clean_linker_2, # of connection points: 2
#     Edge 9, Type (0, 0), BuildingBlock: XUDNAN_clean_linker_2, # of connection points: 2
#     Edge 10, Type (0, 0), BuildingBlock: XUDNAN_clean_linker_2, # of connection points: 2
#     Edge 11, Type (0, 0), BuildingBlock: XUDNAN_clean_linker_2, # of connection points: 2
#     Edge 12, Type (0, 0), BuildingBlock: XUDNAN_clean_linker_2, # of connection points: 2
#     Edge 13, Type (0, 0), BuildingBlock: XUDNAN_clean_linker_2, # of connection points: 2
#     Edge 14, Type (0, 0), BuildingBlock: XUDNAN_clean_linker_2, # of connection points: 2
#     Edge 15, Type (0, 0), BuildingBlock: XUDNAN_clean_linker_2, # of connection points: 2
#     Edge 16, Type (0, 0), BuildingBlock: XUDNAN_clean_linker_2, # of connection points: 2
#     Edge 17, Type (0, 0), BuildingBlock: XUDNAN_clean_linker_2, # of connection points: 2
# Relax obj value: 0.104
# Max RMSD: 0.115
# Mean RMSD: 0.115
data_MOF--net-uom--node1-NAWXER_clean_sbu_0--edge1-XUDNAN_clean_linker_2
_symmetry_space_group_name_H-M    P1
_symmetry_Int_Tables_number       1
_symmetry_cell_setting            triclinic
loop_
_symmetry_equiv_pos_as_xyz
'x, y, z'
_cell_length_a     28.378421
_cell_length_b     28.76652
_cell_length_c     38.317323
_cell_angle_alpha  89.88531
_cell_angle_beta   90.741234
_cell_angle_gamma 118.85798
loop_
_atom_site_label
_atom_site_type_symbol
_atom_site_fract_x
_atom_site_fract_y
_atom_site_fract_z
_atom_type_partial_charge
C0 C 0.22838 0.96278 1.00736 0.0
C1 C 0.31805 0.0737 0.11076 0.0
O2 O 0.25918 0.0116 0.99971 0.0
Zn3 Zn 0.313 0.08351 1.02652 0.0
O4 O 0.22651 0.94797 0.03883 0.0
Zn5 Zn 0.27644 0.01626 0.06012 0.0
O6 O 0.23478 0.0608 0.05389 0.0
O7 O 0.27963 0.12825 1.01853 0.0
O8 O 0.2869 0.02366 0.11066 0.0
O9 O 0.33092 0.0988 0.08169 0.0
O10 O 0.38247 0.10297 1.00686 0.0
O11 O 0.35563 0.0355 0.04329 0.0
C12 C 0.23983 0.10248 0.03848 0.0
C13 C 0.39137 0.06933 1.02302 0.0
C14 C 0.35331 0.39468 0.36577 0.0
C15 C 0.18666 0.23063 0.37519 0.0
O16 O 0.36188 0.35767 0.37784 0.0
Zn17 Zn 0.31314 0.27382 0.38942 0.0
O18 O 0.30618 0.38389 0.35616 0.0
Zn19 Zn 0.27134 0.31074 0.368 0.0
O20 O 0.2794 0.31402 0.42431 0.0
O21 O 0.32636 0.27405 0.43907 0.0
O22 O 0.19515 0.27437 0.36193 0.0
O23 O 0.22652 0.22482 0.38601 0.0
O24 O 0.33918 0.23727 0.35961 0.0
O25 O 0.29978 0.27521 0.32996 0.0
C26 C 0.30144 0.29882 0.44789 0.0
C27 C 0.3244 0.24775 0.33065 0.0
C28 C 0.17413 0.3205 0.67859 0.0
C29 C 0.07213 0.25753 0.78621 0.0
O30 O 0.1231 0.29426 0.67339 0.0
Zn31 Zn 0.05114 0.25383 0.70351 0.0
O32 O 0.19289 0.3299 0.70964 0.0
Zn33 Zn 0.12417 0.29296 0.73281 0.0
O34 O 0.10004 0.21306 0.71696 0.0
O35 O 0.02479 0.18307 0.68566 0.0
O36 O 0.12225 0.28876 0.7831 0.0
O37 O 0.04184 0.24155 0.75889 0.0
O38 O 0.01124 0.29043 0.69269 0.0
O39 O 0.08695 0.34059 0.72153 0.0
C40 C 0.06244 0.17626 0.69869 0.0
C41 C 0.0439 0.33479 0.70638 0.0
C42 C 0.73696 0.07368 0.05578 0.0
C43 C 0.92047 0.11821 0.08872 0.0
O44 O 0.76727 0.10721 0.07848 0.0
Zn45 Zn 0.82795 0.09383 0.07602 0.0
O46 O 0.7519 0.04295 0.04124 0.0
Zn47 Zn 0.81954 0.02956 0.04429 0.0
O48 O 0.79545 0.96083 0.06604 0.0
O49 O 0.80506 0.02168 0.10449 0.0
O50 O 0.89647 0.07659 0.06951 0.0
O51 O 0.89555 0.14235 0.09909 0.0
O52 O 0.85664 0.11349 1.0232 0.0
O53 O 0.84322 0.04028 0.99606 0.0
C54 C 0.79448 0.97398 0.09756 0.0
C55 C 0.86165 0.09036 0.996 0.0
C56 C 0.84799 0.90209 0.40511 0.0
C57 C 0.68188 0.73563 0.39613 0.0
O58 O 0.80128 0.89217 0.41446 0.0
Zn59 Zn 0.76588 0.81847 0.40223 0.0
O60 O 0.85551 0.86478 0.39273 0.0
Zn61 Zn 0.80711 0.78132 0.38075 0.0
O62 O 0.81616 0.77999 0.33069 0.0
O63 O 0.77366 0.82367 0.34595 0.0
O64 O 0.72214 0.73098 0.3857 0.0
O65 O 0.68928 0.77985 0.40795 0.0
O66 O 0.79784 0.78499 0.44067 0.0
O67 O 0.83738 0.74848 0.41077 0.0
C68 C 0.79356 0.8073 0.32211 0.0
C69 C 0.82437 0.75931 0.44003 0.0
C70 C 0.04193 0.67384 0.72076 0.0
C71 C 0.08983 0.85736 0.70095 0.0
O72 O 0.004 0.6837 0.72903 0.0
Zn73 Zn 0.99248 0.75173 0.73277 0.0
O74 O 0.08732 0.71157 0.71191 0.0
Zn75 Zn 0.06918 0.76783 0.71359 0.0
O76 O 0.07004 0.78504 0.76807 0.0
O77 O 0.98666 0.76105 0.78285 0.0
O78 O 0.11934 0.8363 0.69501 0.0
O79 O 0.04367 0.83063 0.71495 0.0
O80 O 0.93161 0.73295 0.7006 0.0
O81 O 0.00542 0.74324 0.675 0.0
C82 C 0.03607 0.78045 0.79136 0.0
C83 C 0.95594 0.73222 0.67305 0.0
H84 H 0.27895 0.04214 0.17744 0.0
H85 H 0.39463 0.17712 0.11819 0.0
H86 H 0.41324 0.23466 0.16958 0.0
H87 H 0.22351 0.10872 0.22193 0.0
H88 H 0.21529 0.07543 0.26311 0.0
H89 H 0.21519 0.04252 0.2232 0.0
H90 H 0.29297 0.02813 0.24706 0.0
H91 H 0.29291 0.06045 0.28731 0.0
H92 H 0.35403 0.08425 0.26284 0.0
H93 H 0.40981 0.28033 0.22366 0.0
H94 H 0.39132 0.3094 0.28024 0.0
H95 H 0.28259 0.14571 0.30678 0.0
C96 C 0.30935 0.08343 0.17563 0.0
C97 C 0.3353 0.10498 0.14369 0.0
C98 C 0.37411 0.15954 0.14226 0.0
C99 C 0.38505 0.19269 0.17136 0.0
C100 C 0.35743 0.17076 0.202 0.0
C101 C 0.32108 0.11726 0.20465 0.0
C102 C 0.29501 0.10467 0.24027 0.0
C103 C 0.23362 0.08148 0.23691 0.0
C104 C 0.30962 0.06715 0.26057 0.0
C105 C 0.32127 0.15963 0.25669 0.0
C106 C 0.35708 0.19715 0.23405 0.0
C107 C 0.3829 0.25124 0.24198 0.0
C108 C 0.37208 0.26744 0.27399 0.0
C109 C 0.33645 0.22965 0.29777 0.0
C110 C 0.311 0.1751 0.28918 0.0
H111 H 0.22322 0.3149 0.47654 0.0
H112 H 0.36715 0.30505 0.50306 0.0
H113 H 0.35671 0.32161 0.56523 0.0
H114 H 0.23954 0.41614 0.54033 0.0
H115 H 0.16863 0.38437 0.54948 0.0
H116 H 0.19102 0.37776 0.50688 0.0
H117 H 0.13785 0.27521 0.512 0.0
H118 H 0.11493 0.28155 0.55435 0.0
H119 H 0.14969 0.2436 0.54922 0.0
H120 H 0.32761 0.33565 0.62509 0.0
H121 H 0.27687 0.33447 0.67748 0.0
H122 H 0.15035 0.3309 0.61096 0.0
C123 C 0.2531 0.31712 0.49533 0.0
C124 C 0.29636 0.30934 0.48501 0.0
C125 C 0.3338 0.31109 0.51048 0.0
C126 C 0.32839 0.32086 0.54575 0.0
C127 C 0.2851 0.32831 0.55506 0.0
C128 C 0.2478 0.3259 0.53054 0.0
C129 C 0.20203 0.32994 0.54743 0.0
C130 C 0.20023 0.38005 0.53531 0.0
C131 C 0.14796 0.27958 0.54034 0.0
C132 C 0.21887 0.33424 0.5854 0.0
C133 C 0.2674 0.33434 0.58934 0.0
C134 C 0.28978 0.33598 0.62226 0.0
C135 C 0.26088 0.33567 0.65188 0.0
C136 C 0.20981 0.33278 0.64825 0.0
C137 C 0.18946 0.33347 0.61454 0.0
H138 H 0.86005 0.06442 0.92616 0.0
H139 H 0.94252 0.19147 1.00184 0.0
H140 H 0.006 0.24673 0.95687 0.0
H141 H 0.97632 0.0838 0.8789 0.0
H142 H 0.94414 0.0714 0.83651 0.0
H143 H 0.90474 0.04077 0.87463 0.0
H144 H 0.84282 0.08128 0.85988 0.0
H145 H 0.88179 0.11168 0.82157 0.0
H146 H 0.87213 0.15193 0.85367 0.0
H147 H 0.06421 0.28647 0.9052 0.0
H148 H 0.10687 0.31265 0.84744 0.0
H149 H 0.98342 0.16395 0.80342 0.0
C150 C 0.89126 0.10399 0.93309 0.0
C151 C 0.8962 0.12366 0.96748 0.0
C152 C 0.93751 0.17572 0.97558 0.0
C153 C 0.97409 0.20737 0.95029 0.0
C154 C 0.96847 0.18686 0.91674 0.0
C155 C 0.92762 0.13682 0.90782 0.0
C156 C 0.92987 0.12541 0.86941 0.0
C157 C 0.93934 0.0775 0.8646 0.0
C158 C 0.87861 0.1171 0.84999 0.0
C159 C 0.97855 0.17662 0.8584 0.0
C160 C 1.00063 0.21114 0.88628 0.0
C161 C 0.04701 0.26007 0.88303 0.0
C162 C 0.0711 0.27449 0.85022 0.0
C163 C 0.0482 0.24054 0.82103 0.0
C164 C 1.00139 0.19093 0.82527 0.0
H165 H 0.77907 0.98578 0.16691 0.0
H166 H 0.79474 0.87871 0.0942 0.0
H167 H 0.79339 0.82251 0.14349 0.0
H168 H 0.86359 0.98091 0.23302 0.0
H169 H 0.82368 0.98252 0.26873 0.0
H170 H 0.8223 0.01237 0.22767 0.0
H171 H 0.71861 0.95424 0.22408 0.0
H172 H 0.7196 0.92451 0.26532 0.0
H173 H 0.68894 0.88312 0.2275 0.0
H174 H 0.79894 0.78255 0.20164 0.0
H175 H 0.80281 0.75812 0.26322 0.0
H176 H 0.77953 0.88923 0.29735 0.0
C177 C 0.78134 0.95006 0.16123 0.0
C178 C 0.7869 0.93667 0.12657 0.0
C179 C 0.79004 0.88967 0.12043 0.0
C180 C 0.78954 0.85757 0.1483 0.0
C181 C 0.78521 0.87259 0.1822 0.0
C182 C 0.78036 0.91734 0.18869 0.0
C183 C 0.7772 0.92537 0.2275 0.0
C184 C 0.82451 0.97843 0.23995 0.0
C185 C 0.72285 0.92156 0.23663 0.0
C186 C 0.78184 0.87864 0.24191 0.0
C187 C 0.78672 0.84876 0.21542 0.0
C188 C 0.79437 0.80525 0.22254 0.0
C189 C 0.79675 0.79178 0.25759 0.0
C190 C 0.79095 0.82139 0.2851 0.0
C191 C 0.78324 0.86525 0.27694 0.0
H192 H 0.88818 0.76702 0.64545 0.0
H193 H 0.96743 0.67466 0.62146 0.0
H194 H 0.93581 0.66563 0.5603 0.0
H195 H 0.77121 0.69784 0.58411 0.0
H196 H 0.77166 0.75866 0.57208 0.0
H197 H 0.79388 0.75169 0.61511 0.0
H198 H 0.88474 0.83684 0.60558 0.0
H199 H 0.86307 0.84383 0.56246 0.0
H200 H 0.9247 0.84089 0.56832 0.0
H201 H 0.9035 0.67327 0.50106 0.0
H202 H 0.872 0.69676 0.44705 0.0
H203 H 0.81501 0.78655 0.50782 0.0
C204 C 0.89722 0.74345 0.6275 0.0
C205 C 0.9294 0.72066 0.63824 0.0
C206 C 0.94232 0.69188 0.61378 0.0
C207 C 0.92454 0.68654 0.579 0.0
C208 C 0.89415 0.71061 0.56889 0.0
C209 C 0.88039 0.73842 0.59234 0.0
C210 C 0.85137 0.76428 0.57379 0.0
C211 C 0.79359 0.74176 0.58707 0.0
C212 C 0.88286 0.82506 0.57778 0.0
C213 C 0.85181 0.74731 0.5363 0.0
C214 C 0.87631 0.71599 0.53422 0.0
C215 C 0.88371 0.6973 0.50237 0.0
C216 C 0.86579 0.71103 0.47177 0.0
C217 C 0.84081 0.74338 0.47303 0.0
C218 C 0.83345 0.76134 0.50591 0.0
H219 H 0.24485 0.96965 0.93674 0.0
H220 H 0.13201 0.87181 1.01553 0.0
H221 H 0.06978 0.81423 0.96907 0.0
H222 H 0.1497 0.96397 0.87341 0.0
H223 H 0.1862 0.95983 0.83647 0.0
H224 H 0.22191 0.9928 0.87585 0.0
H225 H 0.26476 0.93117 0.87927 0.0
H226 H 0.22953 0.8983 0.83971 0.0
H227 H 0.2219 0.8602 0.87868 0.0
H228 H 0.01652 0.77159 0.91294 0.0
H229 H 0.98228 0.74119 0.85274 0.0
H230 H 0.13331 0.86276 0.81143 0.0
C231 C 0.20721 0.93587 0.94425 0.0
C232 C 0.19321 0.92532 0.97981 0.0
C233 C 0.14373 0.88051 0.98851 0.0
C234 C 0.108 0.84776 0.96226 0.0
C235 C 0.1227 0.85975 0.92742 0.0
C236 C 0.17164 0.90221 0.91845 0.0
C237 C 0.17853 0.90596 0.87919 0.0
C238 C 0.18442 0.95877 0.86544 0.0
C239 C 0.22652 0.89844 0.8686 0.0
C240 C 0.1256 0.85942 0.86738 0.0
C241 C 0.09354 0.8336 0.8955 0.0
C242 C 0.04166 0.79109 0.8908 0.0
C243 C 0.02241 0.77422 0.85655 0.0
C244 C 0.05533 0.79916 0.82748 0.0
C245 C 0.10754 0.84231 0.83317 0.0
H246 H 0.15352 0.05397 0.08063 0.0
H247 H 0.23792 0.19304 1.01549 0.0
H248 H 0.17227 0.22276 0.03191 0.0
H249 H 0.02488 0.02702 0.05811 0.0
H250 H 0.99793 0.0041 0.10091 0.0
H251 H 0.05536 -0.00095 0.08684 0.0
H252 H 0.10842 0.05236 0.14175 0.0
H253 H 0.05121 0.05864 0.15544 0.0
H254 H 0.11549 0.11713 0.14989 0.0
H255 H 0.09139 0.23179 0.05155 0.0
H256 H 0.99895 0.21317 0.06561 0.0
H257 H 0.97051 0.06864 0.11768 0.0
C258 C 0.15887 0.09107 0.06996 0.0
C259 C 0.20094 0.12121 0.04674 0.0
C260 C 0.20592 0.16924 0.03328 0.0
C261 C 0.16917 0.18665 0.04278 0.0
C262 C 0.12829 0.15586 0.06601 0.0
C263 C 0.12303 0.10889 0.07918 0.0
C264 C 0.07319 0.07997 0.10092 0.0
C265 C 0.03564 0.0243 0.08577 0.0
C266 C 0.08799 0.07687 0.13927 0.0
C267 C 0.04947 0.11669 0.09677 0.0
C268 C 0.08237 0.16109 0.07737 0.0
C269 C 0.06601 0.19789 0.06743 0.0
C270 C 0.01374 0.18744 0.0759 0.0
C271 C 0.97863 0.14028 0.09356 0.0
C272 C 0.99755 0.10588 0.10533 0.0
H273 H 0.95539 0.93371 0.40436 0.0
H274 H 0.84161 -0.00607 0.40609 0.0
H275 H 0.9165 0.08535 0.39959 0.0
H276 H 0.06291 0.04499 0.45337 0.0
H277 H 0.11524 0.04312 0.42824 0.0
H278 H 0.05283 0.98309 0.43511 0.0
H279 H 0.04037 0.96806 0.36819 0.0
H280 H 0.1023 0.02835 0.36107 0.0
H281 H 0.04074 0.01925 0.34078 0.0
H282 H 0.00252 0.16858 0.38704 0.0
H283 H 0.09516 0.23958 0.37611 0.0
H284 H 0.15292 0.12512 0.38542 0.0
C285 C 0.94632 0.96622 0.40387 0.0
C286 C 0.89283 0.95691 0.40566 0.0
C287 C 0.88243 0.00035 0.405 0.0
C288 C 0.92462 0.05231 0.40115 0.0
C289 C 0.97683 0.05998 0.39859 0.0
C290 C 0.98793 0.01826 0.40056 0.0
C291 C 0.04744 0.03709 0.39685 0.0
C292 C 0.07099 0.02645 0.43039 0.0
C293 C 0.05832 0.01168 0.36481 0.0
C294 C 0.06797 0.09582 0.39163 0.0
C295 C 0.0266 0.10819 0.39255 0.0
C296 C 0.03537 0.15953 0.38674 0.0
C297 C 0.088 0.19946 0.38031 0.0
C298 C 0.13111 0.18778 0.38007 0.0
C299 C 0.12079 0.13525 0.38578 0.0
H300 H 0.10452 0.12951 0.74092 0.0
H301 H 0.02949 0.11555 0.63936 0.0
H302 H 0.04461 0.03988 0.62493 0.0
H303 H 0.20519 0.09263 0.71532 0.0
H304 H 0.19763 0.05475 0.75438 0.0
H305 H 0.18568 0.11084 0.75544 0.0
H306 H 0.08972 0.0514 0.77931 0.0
H307 H 0.1022 -0.00419 0.77923 0.0
H308 H 0.04451 0.9915 0.75607 0.0
H309 H 0.06501 0.9644 0.62264 0.0
H310 H 0.07306 0.88451 0.63664 0.0
H311 H 0.13123 0.94611 0.74042 0.0
C312 C 0.09153 0.1106 0.71558 0.0
C313 C 0.06616 0.12819 0.69111 0.0
C314 C 0.04875 0.10219 0.65846 0.0
C315 C 0.05787 0.05983 0.6499 0.0
C316 C 0.08403 0.04405 0.67443 0.0
C317 C 0.09951 0.06793 0.70689 0.0
C318 C 0.12148 0.04003 0.73003 0.0
C319 C 0.18104 0.07677 0.73933 0.0
C320 C 0.08743 0.01838 0.76308 0.0
C321 C 0.11488 -0.00413 0.70578 0.0
C322 C 0.09465 -0.00024 0.67347 0.0
C323 C 0.0817 0.9614 0.64757 0.0
C324 C 0.08696 0.91657 0.65553 0.0
C325 C 0.10443 0.91065 0.68911 0.0
C326 C 0.12 0.95126 0.71414 0.0
H327 H 0.66201 0.08193 0.09605 0.0
H328 H 0.69815 0.06143 0.98943 0.0
H329 H 0.61492 0.061 0.96889 0.0
H330 H 0.51936 0.99223 0.08761 0.0
H331 H 0.50069 0.03035 0.11602 0.0
H332 H 0.56465 0.03225 0.12203 0.0
H333 H 0.61331 0.13475 0.11679 0.0
H334 H 0.54949 0.13313 0.11066 0.0
H335 H 0.60148 0.1648 0.07872 0.0
H336 H 0.53005 0.06772 0.95977 0.0
H337 H 0.44321 0.06861 0.96368 0.0
H338 H 0.45725 0.0741 0.07651 0.0
C339 C 0.65234 0.0776 0.0684 0.0
C340 C 0.68648 0.0722 0.04421 0.0
C341 C 0.67231 0.0656 1.0083 0.0
C342 C 0.62535 0.06558 0.9964 0.0
C343 C 0.59242 0.07102 1.02086 0.0
C344 C 0.60474 0.07588 0.05618 0.0
C345 C 0.56082 0.07777 0.07719 0.0
C346 C 0.53484 0.03032 0.10218 0.0
C347 C 0.58259 0.13077 0.097 0.0
C348 C 0.52215 0.07356 0.04817 0.0
C349 C 0.54159 0.07076 1.01581 0.0
C350 C 0.51406 0.06919 0.98499 0.0
C351 C 0.46504 0.06987 0.98738 0.0
C352 C 0.44369 0.07073 1.02033 0.0
C353 C 0.47259 0.0726 0.05103 0.0
H354 H 0.65325 0.6305 0.39193 0.0
H355 H 0.58724 0.73876 0.39177 0.0
H356 H 0.4962 0.66325 0.38125 0.0
H357 H 0.56796 0.54223 0.32526 0.0
H358 H 0.56073 0.48314 0.34638 0.0
H359 H 0.62082 0.54562 0.35353 0.0
H360 H 0.60606 0.53584 0.42035 0.0
H361 H 0.54629 0.47306 0.41343 0.0
H362 H 0.54277 0.52489 0.43768 0.0
H363 H 0.41346 0.57673 0.36825 0.0
H364 H 0.34244 0.48373 0.36097 0.0
H365 H 0.46197 0.43142 0.37273 0.0
C366 C 0.61959 0.63827 0.38976 0.0
C367 C 0.62714 0.69038 0.39248 0.0
C368 C 0.58217 0.69903 0.38988 0.0
C369 C 0.53046 0.65651 0.38369 0.0
C370 C 0.52452 0.60568 0.38064 0.0
C371 C 0.56769 0.59626 0.38416 0.0
C372 C 0.55013 0.53767 0.38109 0.0
C373 C 0.57648 0.52654 0.34969 0.0
C374 C 0.562 0.51664 0.41517 0.0
C375 C 0.4903 0.51559 0.37511 0.0
C376 C 0.47649 0.55556 0.37449 0.0
C377 C 0.4237 0.54505 0.36888 0.0
C378 C 0.38372 0.49211 0.36457 0.0
C379 C 0.3967 0.45036 0.36635 0.0
C380 C 0.45083 0.46248 0.37133 0.0
H381 H 0.11557 0.63793 0.72175 0.0
H382 H 0.94413 0.58466 0.71588 0.0
H383 H 0.92584 0.492 0.70979 0.0
H384 H 0.11757 0.54556 0.66015 0.0
H385 H 0.16664 0.5352 0.68429 0.0
H386 H 0.16645 0.59754 0.68783 0.0
H387 H 0.15836 0.58719 0.75505 0.0
H388 H 0.15894 0.52503 0.75174 0.0
H389 H 0.10429 0.52787 0.7733 0.0
H390 H 0.92649 0.40554 0.70184 0.0
H391 H 0.94575 0.3304 0.69879 0.0
H392 H 0.11611 0.44001 0.71301 0.0
C393 C 0.07421 0.60673 0.71926 0.0
C394 C 0.03129 0.61839 0.7192 0.0
C395 C 0.97763 0.57652 0.71617 0.0
C396 C 0.96683 0.52382 0.7125 0.0
C397 C 0.01008 0.51369 0.71233 0.0
C398 C 0.06264 0.55385 0.71611 0.0
C399 C 0.10169 0.53212 0.71618 0.0
C400 C 0.14036 0.5539 0.68527 0.0
C401 C 0.13263 0.54374 0.75115 0.0
C402 C 0.06288 0.47353 0.71171 0.0
C403 C 0.01028 0.46372 0.70911 0.0
C404 C 0.96749 0.41264 0.70409 0.0
C405 C 0.97879 0.37031 0.70222 0.0
C406 C 0.0323 0.37948 0.70588 0.0
C407 C 0.07474 0.43181 0.71045 0.0
loop_
_geom_bond_atom_site_label_1
_geom_bond_atom_site_label_2
_geom_bond_distance
_geom_bond_site_symmetry_2
_ccdc_geom_bond_type
C0 O2 1.247 . S
C0 O4 1.258 . S
C1 O8 1.247 . S
C1 O9 1.258 . S
O2 C0 1.247 . S
O2 Zn3 2.028 1_556 S
Zn3 O2 2.028 1_554 S
Zn3 O7 2.035 . S
Zn3 O9 2.035 . S
Zn3 O10 2.028 . S
O4 C0 1.258 . S
O4 Zn5 2.035 1_556 S
Zn5 O4 2.035 1_554 S
Zn5 O6 2.028 . S
Zn5 O8 2.028 . S
Zn5 O11 2.035 . S
O6 Zn5 2.028 . S
O6 C12 1.247 . S
O7 Zn3 2.035 . S
O7 C12 1.258 . S
O8 C1 1.247 . S
O8 Zn5 2.028 . S
O9 C1 1.258 . S
O9 Zn3 2.035 . S
O10 Zn3 2.028 . S
O10 C13 1.247 . S
O11 Zn5 2.035 . S
O11 C13 1.258 . S
C12 O6 1.247 . S
C12 O7 1.258 . S
C13 O10 1.247 . S
C13 O11 1.258 . S
C14 O16 1.247 . S
C14 O18 1.258 . S
C15 O22 1.247 . S
C15 O23 1.258 . S
O16 C14 1.247 . S
O16 Zn17 2.028 . S
Zn17 O16 2.028 . S
Zn17 O21 2.035 . S
Zn17 O23 2.035 . S
Zn17 O24 2.028 . S
O18 C14 1.258 . S
O18 Zn19 2.035 . S
Zn19 O18 2.035 . S
Zn19 O20 2.028 . S
Zn19 O22 2.028 . S
Zn19 O25 2.035 . S
O20 Zn19 2.028 . S
O20 C26 1.247 . S
O21 Zn17 2.035 . S
O21 C26 1.258 . S
O22 C15 1.247 . S
O22 Zn19 2.028 . S
O23 C15 1.258 . S
O23 Zn17 2.035 . S
O24 Zn17 2.028 . S
O24 C27 1.247 . S
O25 Zn19 2.035 . S
O25 C27 1.258 . S
C26 O20 1.247 . S
C26 O21 1.258 . S
C27 O24 1.247 . S
C27 O25 1.258 . S
C28 O30 1.247 1_455 S
C28 O32 1.258 . S
C29 O36 1.247 1_655 S
C29 O37 1.258 . S
O30 C28 1.247 1_655 S
O30 Zn31 2.028 . S
Zn31 O30 2.028 . S
Zn31 O35 2.035 . S
Zn31 O37 2.035 . S
Zn31 O38 2.028 . S
O32 C28 1.258 . S
O32 Zn33 2.035 . S
Zn33 O32 2.035 . S
Zn33 O34 2.028 . S
Zn33 O36 2.028 . S
Zn33 O39 2.035 . S
O34 Zn33 2.028 . S
O34 C40 1.247 . S
O35 Zn31 2.035 . S
O35 C40 1.258 1_655 S
O36 C29 1.247 1_455 S
O36 Zn33 2.028 . S
O37 C29 1.258 . S
O37 Zn31 2.035 . S
O38 Zn31 2.028 . S
O38 C41 1.247 1_655 S
O39 Zn33 2.035 . S
O39 C41 1.258 . S
C40 O34 1.247 . S
C40 O35 1.258 1_455 S
C41 O38 1.247 1_455 S
C41 O39 1.258 . S
C42 O44 1.247 . S
C42 O46 1.258 1_545 S
C43 O50 1.247 1_545 S
C43 O51 1.258 . S
O44 C42 1.247 . S
O44 Zn45 2.028 . S
Zn45 O44 2.028 . S
Zn45 O49 2.035 . S
Zn45 O51 2.035 . S
Zn45 O52 2.028 1_554 S
O46 C42 1.258 1_565 S
O46 Zn47 2.035 . S
Zn47 O46 2.035 . S
Zn47 O48 2.028 . S
Zn47 O50 2.028 . S
Zn47 O53 2.035 1_554 S
O48 Zn47 2.028 . S
O48 C54 1.247 . S
O49 Zn45 2.035 . S
O49 C54 1.258 1_545 S
O50 C43 1.247 1_565 S
O50 Zn47 2.028 . S
O51 C43 1.258 . S
O51 Zn45 2.035 . S
O52 Zn45 2.028 1_556 S
O52 C55 1.247 . S
O53 Zn47 2.035 1_556 S
O53 C55 1.258 1_565 S
C54 O48 1.247 . S
C54 O49 1.258 1_565 S
C55 O52 1.247 . S
C55 O53 1.258 1_545 S
C56 O58 1.247 . S
C56 O60 1.258 . S
C57 O64 1.247 . S
C57 O65 1.258 . S
O58 C56 1.247 . S
O58 Zn59 2.028 . S
Zn59 O58 2.028 . S
Zn59 O63 2.035 . S
Zn59 O65 2.035 . S
Zn59 O66 2.028 . S
O60 C56 1.258 . S
O60 Zn61 2.035 . S
Zn61 O60 2.035 . S
Zn61 O62 2.028 . S
Zn61 O64 2.028 . S
Zn61 O67 2.035 . S
O62 Zn61 2.028 . S
O62 C68 1.247 . S
O63 Zn59 2.035 . S
O63 C68 1.258 . S
O64 C57 1.247 . S
O64 Zn61 2.028 . S
O65 C57 1.258 . S
O65 Zn59 2.035 . S
O66 Zn59 2.028 . S
O66 C69 1.247 . S
O67 Zn61 2.035 . S
O67 C69 1.258 . S
C68 O62 1.247 . S
C68 O63 1.258 . S
C69 O66 1.247 . S
C69 O67 1.258 . S
C70 O72 1.247 . S
C70 O74 1.258 . S
C71 O78 1.247 . S
C71 O79 1.258 . S
O72 C70 1.247 . S
O72 Zn73 2.028 . S
Zn73 O72 2.028 . S
Zn73 O77 2.035 . S
Zn73 O79 2.035 . S
Zn73 O80 2.028 . S
O74 C70 1.258 . S
O74 Zn75 2.035 . S
Zn75 O74 2.035 . S
Zn75 O76 2.028 . S
Zn75 O78 2.028 . S
Zn75 O81 2.035 . S
O76 Zn75 2.028 . S
O76 C82 1.247 . S
O77 Zn73 2.035 . S
O77 C82 1.258 . S
O78 C71 1.247 . S
O78 Zn75 2.028 . S
O79 C71 1.258 . S
O79 Zn73 2.035 . S
O80 Zn73 2.028 . S
O80 C83 1.247 . S
O81 Zn75 2.035 . S
O81 C83 1.258 . S
C82 O76 1.247 . S
C82 O77 1.258 . S
C83 O80 1.247 . S
C83 O81 1.258 . S
H84 C96 0.930 . S
H85 C98 0.930 . S
H86 C99 0.930 . S
H87 C103 0.959 . S
H88 C103 0.959 . S
H89 C103 0.961 . S
H90 C104 0.960 . S
H91 C104 0.961 . S
H92 C104 0.959 . S
H93 C107 0.929 . S
H94 C108 0.931 . S
H95 C110 0.930 . S
C96 H84 0.930 . S
C96 C97 1.399 . S
C96 C101 1.399 . S
C97 C96 1.399 . S
C97 C98 1.376 . S
C98 H85 0.930 . S
C98 C97 1.376 . S
C98 C99 1.388 . S
C99 H86 0.930 . S
C99 C98 1.388 . S
C99 C100 1.390 . S
C100 C99 1.390 . S
C100 C101 1.394 . S
C100 C106 1.465 . S
C101 C96 1.399 . S
C101 C100 1.394 . S
C101 C102 1.516 . S
C102 C101 1.516 . S
C102 C103 1.502 . S
C102 C104 1.561 . S
C102 C105 1.526 . S
C103 H87 0.959 . S
C103 H88 0.959 . S
C103 H89 0.961 . S
C103 C102 1.502 . S
C104 H90 0.960 . S
C104 H91 0.961 . S
C104 H92 0.959 . S
C104 C102 1.561 . S
C105 C102 1.526 . S
C105 C106 1.396 . S
C105 C110 1.390 . S
C106 C100 1.465 . S
C106 C105 1.396 . S
C106 C107 1.399 . S
C107 H93 0.929 . S
C107 C106 1.399 . S
C107 C108 1.385 . S
C108 H94 0.931 . S
C108 C107 1.385 . S
C108 C109 1.389 . S
C109 C108 1.389 . S
C109 C110 1.387 . S
C110 H95 0.930 . S
C110 C105 1.390 . S
C110 C109 1.387 . S
H111 C123 0.930 . S
H112 C125 0.930 . S
H113 C126 0.930 . S
H114 C130 0.959 . S
H115 C130 0.959 . S
H116 C130 0.961 . S
H117 C131 0.960 . S
H118 C131 0.961 . S
H119 C131 0.959 . S
H120 C134 0.929 . S
H121 C135 0.931 . S
H122 C137 0.930 . S
C123 H111 0.930 . S
C123 C124 1.399 . S
C123 C128 1.399 . S
C124 C123 1.399 . S
C124 C125 1.376 . S
C125 H112 0.930 . S
C125 C124 1.376 . S
C125 C126 1.388 . S
C126 H113 0.930 . S
C126 C125 1.388 . S
C126 C127 1.390 . S
C127 C126 1.390 . S
C127 C128 1.394 . S
C127 C133 1.465 . S
C128 C123 1.399 . S
C128 C127 1.394 . S
C128 C129 1.516 . S
C129 C128 1.516 . S
C129 C130 1.502 . S
C129 C131 1.561 . S
C129 C132 1.526 . S
C130 H114 0.959 . S
C130 H115 0.959 . S
C130 H116 0.961 . S
C130 C129 1.502 . S
C131 H117 0.960 . S
C131 H118 0.961 . S
C131 H119 0.959 . S
C131 C129 1.561 . S
C132 C129 1.526 . S
C132 C133 1.396 . S
C132 C137 1.390 . S
C133 C127 1.465 . S
C133 C132 1.396 . S
C133 C134 1.399 . S
C134 H120 0.929 . S
C134 C133 1.399 . S
C134 C135 1.385 . S
C135 H121 0.931 . S
C135 C134 1.385 . S
C135 C136 1.389 . S
C136 C135 1.389 . S
C136 C137 1.387 . S
C137 H122 0.930 . S
C137 C132 1.390 . S
C137 C136 1.387 . S
H138 C150 0.930 . S
H139 C152 0.930 . S
H140 C153 0.930 . S
H141 C157 0.959 . S
H142 C157 0.959 . S
H143 C157 0.961 . S
H144 C158 0.960 . S
H145 C158 0.961 . S
H146 C158 0.959 . S
H147 C161 0.929 . S
H148 C162 0.931 . S
H149 C164 0.930 . S
C150 H138 0.930 . S
C150 C151 1.399 . S
C150 C155 1.399 . S
C151 C150 1.399 . S
C151 C152 1.376 . S
C152 H139 0.930 . S
C152 C151 1.376 . S
C152 C153 1.388 . S
C153 H140 0.930 . S
C153 C152 1.388 . S
C153 C154 1.390 . S
C154 C153 1.390 . S
C154 C155 1.394 . S
C154 C160 1.465 . S
C155 C150 1.399 . S
C155 C154 1.394 . S
C155 C156 1.516 . S
C156 C155 1.516 . S
C156 C157 1.502 . S
C156 C158 1.561 . S
C156 C159 1.526 . S
C157 H141 0.959 . S
C157 H142 0.959 . S
C157 H143 0.961 . S
C157 C156 1.502 . S
C158 H144 0.960 . S
C158 H145 0.961 . S
C158 H146 0.959 . S
C158 C156 1.561 . S
C159 C156 1.526 . S
C159 C160 1.396 . S
C159 C164 1.390 . S
C160 C154 1.465 . S
C160 C159 1.396 . S
C160 C161 1.399 . S
C161 H147 0.929 . S
C161 C160 1.399 . S
C161 C162 1.385 . S
C162 H148 0.931 . S
C162 C161 1.385 . S
C162 C163 1.389 . S
C163 C162 1.389 . S
C163 C164 1.387 . S
C164 H149 0.930 . S
C164 C159 1.390 . S
C164 C163 1.387 . S
H165 C177 0.930 . S
H166 C179 0.930 . S
H167 C180 0.930 . S
H168 C184 0.959 . S
H169 C184 0.959 . S
H170 C184 0.961 . S
H171 C185 0.960 . S
H172 C185 0.961 . S
H173 C185 0.959 . S
H174 C188 0.929 . S
H175 C189 0.931 . S
H176 C191 0.930 . S
C177 H165 0.930 . S
C177 C178 1.399 . S
C177 C182 1.399 . S
C178 C177 1.399 . S
C178 C179 1.376 . S
C179 H166 0.930 . S
C179 C178 1.376 . S
C179 C180 1.388 . S
C180 H167 0.930 . S
C180 C179 1.388 . S
C180 C181 1.390 . S
C181 C180 1.390 . S
C181 C182 1.394 . S
C181 C187 1.465 . S
C182 C177 1.399 . S
C182 C181 1.394 . S
C182 C183 1.516 . S
C183 C182 1.516 . S
C183 C184 1.502 . S
C183 C185 1.561 . S
C183 C186 1.526 . S
C184 H168 0.959 . S
C184 H169 0.959 . S
C184 H170 0.961 . S
C184 C183 1.502 . S
C185 H171 0.960 . S
C185 H172 0.961 . S
C185 H173 0.959 . S
C185 C183 1.561 . S
C186 C183 1.526 . S
C186 C187 1.396 . S
C186 C191 1.390 . S
C187 C181 1.465 . S
C187 C186 1.396 . S
C187 C188 1.399 . S
C188 H174 0.929 . S
C188 C187 1.399 . S
C188 C189 1.385 . S
C189 H175 0.931 . S
C189 C188 1.385 . S
C189 C190 1.389 . S
C190 C189 1.389 . S
C190 C191 1.387 . S
C191 H176 0.930 . S
C191 C186 1.390 . S
C191 C190 1.387 . S
H192 C204 0.930 . S
H193 C206 0.930 . S
H194 C207 0.930 . S
H195 C211 0.959 . S
H196 C211 0.959 . S
H197 C211 0.961 . S
H198 C212 0.960 . S
H199 C212 0.961 . S
H200 C212 0.959 . S
H201 C215 0.929 . S
H202 C216 0.931 . S
H203 C218 0.930 . S
C204 H192 0.930 . S
C204 C205 1.399 . S
C204 C209 1.399 1_455 S
C205 C204 1.399 . S
C205 C206 1.376 . S
C206 H193 0.930 . S
C206 C205 1.376 . S
C206 C207 1.388 1_455 S
C207 H194 0.930 . S
C207 C206 1.388 1_655 S
C207 C208 1.390 . S
C208 C207 1.390 . S
C208 C209 1.394 . S
C208 C214 1.465 . S
C209 C204 1.399 1_655 S
C209 C208 1.394 . S
C209 C210 1.516 . S
C210 C209 1.516 . S
C210 C211 1.502 . S
C210 C212 1.561 1_655 S
C210 C213 1.526 . S
C211 H195 0.959 . S
C211 H196 0.959 . S
C211 H197 0.961 . S
C211 C210 1.502 . S
C212 H198 0.960 . S
C212 H199 0.961 . S
C212 H200 0.959 . S
C212 C210 1.561 1_455 S
C213 C210 1.526 . S
C213 C214 1.396 . S
C213 C218 1.390 . S
C214 C208 1.465 . S
C214 C213 1.396 . S
C214 C215 1.399 . S
C215 H201 0.929 . S
C215 C214 1.399 . S
C215 C216 1.385 . S
C216 H202 0.931 . S
C216 C215 1.385 . S
C216 C217 1.389 . S
C217 C216 1.389 . S
C217 C218 1.387 . S
C218 H203 0.930 . S
C218 C213 1.390 . S
C218 C217 1.387 . S
H219 C231 0.930 . S
H220 C233 0.930 . S
H221 C234 0.930 . S
H222 C238 0.959 . S
H223 C238 0.959 . S
H224 C238 0.961 . S
H225 C239 0.960 . S
H226 C239 0.961 . S
H227 C239 0.959 . S
H228 C242 0.929 1_545 S
H229 C243 0.931 . S
H230 C245 0.930 . S
C231 H219 0.930 . S
C231 C232 1.399 1_565 S
C231 C236 1.399 . S
C232 C231 1.399 1_545 S
C232 C233 1.376 . S
C233 H220 0.930 . S
C233 C232 1.376 . S
C233 C234 1.388 . S
C234 H221 0.930 . S
C234 C233 1.388 . S
C234 C235 1.390 1_545 S
C235 C234 1.390 1_565 S
C235 C236 1.394 . S
C235 C241 1.465 . S
C236 C231 1.399 . S
C236 C235 1.394 . S
C236 C237 1.516 . S
C237 C236 1.516 . S
C237 C238 1.502 . S
C237 C239 1.561 . S
C237 C240 1.526 . S
C238 H222 0.959 . S
C238 H223 0.959 . S
C238 H224 0.961 . S
C238 C237 1.502 . S
C239 H225 0.960 . S
C239 H226 0.961 . S
C239 H227 0.959 . S
C239 C237 1.561 . S
C240 C237 1.526 . S
C240 C241 1.396 . S
C240 C245 1.390 . S
C241 C235 1.465 . S
C241 C240 1.396 . S
C241 C242 1.399 . S
C242 H228 0.929 1_565 S
C242 C241 1.399 . S
C242 C243 1.385 . S
C243 H229 0.931 . S
C243 C242 1.385 . S
C243 C244 1.389 . S
C244 C243 1.389 . S
C244 C245 1.387 . S
C245 H230 0.930 . S
C245 C240 1.390 . S
C245 C244 1.387 . S
H246 C258 0.930 . S
H247 C260 0.930 . S
H248 C261 0.930 . S
H249 C265 0.959 . S
H250 C265 0.959 . S
H251 C265 0.961 . S
H252 C266 0.960 . S
H253 C266 0.961 . S
H254 C266 0.959 . S
H255 C269 0.929 1_455 S
H256 C270 0.931 . S
H257 C272 0.932 . S
C258 H246 0.930 . S
C258 C259 1.399 . S
C258 C263 1.399 . S
C259 C258 1.399 . S
C259 C260 1.376 1_554 S
C260 H247 0.930 . S
C260 C259 1.376 1_556 S
C260 C261 1.388 . S
C261 H248 0.930 . S
C261 C260 1.388 . S
C261 C262 1.390 1_556 S
C262 C261 1.390 1_554 S
C262 C263 1.394 . S
C262 C268 1.465 . S
C263 C258 1.399 . S
C263 C262 1.394 . S
C263 C264 1.516 . S
C264 C263 1.516 . S
C264 C265 1.502 1_545 S
C264 C266 1.561 . S
C264 C267 1.526 . S
C265 H249 0.959 . S
C265 H250 0.959 . S
C265 H251 0.961 . S
C265 C264 1.502 1_565 S
C266 H252 0.960 . S
C266 H253 0.961 . S
C266 H254 0.959 . S
C266 C264 1.561 . S
C267 C264 1.526 . S
C267 C268 1.396 . S
C267 C272 1.390 1_445 S
C268 C262 1.465 . S
C268 C267 1.396 . S
C268 C269 1.399 1_454 S
C269 H255 0.929 1_655 S
C269 C268 1.399 1_656 S
C269 C270 1.385 . S
C270 H256 0.931 . S
C270 C269 1.385 . S
C270 C271 1.389 1_556 S
C271 C270 1.389 1_554 S
C271 C272 1.385 1_545 S
C272 H257 0.932 . S
C272 C267 1.390 1_665 S
C272 C271 1.385 1_565 S
H273 C285 0.930 . S
H274 C287 0.930 . S
H275 C288 0.930 . S
H276 C292 0.959 1_655 S
H277 C292 0.959 . S
H278 C292 0.961 1_655 S
H279 C293 0.960 . S
H280 C293 0.961 . S
H281 C293 0.959 . S
H282 C296 0.929 . S
H283 C297 0.931 . S
H284 C299 0.930 . S
C285 H273 0.930 . S
C285 C286 1.399 . S
C285 C290 1.399 1_665 S
C286 C285 1.399 . S
C286 C287 1.376 . S
C287 H274 0.930 . S
C287 C286 1.376 . S
C287 C288 1.388 1_655 S
C288 H275 0.930 . S
C288 C287 1.388 1_455 S
C288 C289 1.390 1_565 S
C289 C288 1.390 1_545 S
C289 C290 1.394 . S
C289 C295 1.465 . S
C290 C285 1.399 1_445 S
C290 C289 1.394 . S
C290 C291 1.516 . S
C291 C290 1.516 . S
C291 C292 1.502 . S
C291 C293 1.561 . S
C291 C294 1.526 . S
C292 H276 0.959 1_455 S
C292 H277 0.959 . S
C292 H278 0.961 1_455 S
C292 C291 1.502 . S
C293 H279 0.960 . S
C293 H280 0.961 . S
C293 H281 0.959 . S
C293 C291 1.561 . S
C294 C291 1.526 . S
C294 C295 1.396 . S
C294 C299 1.390 . S
C295 C289 1.465 . S
C295 C294 1.396 . S
C295 C296 1.399 . S
C296 H282 0.929 . S
C296 C295 1.399 . S
C296 C297 1.385 . S
C297 H283 0.931 . S
C297 C296 1.385 . S
C297 C298 1.389 . S
C298 C297 1.389 . S
C298 C299 1.387 . S
C299 H284 0.930 . S
C299 C294 1.390 . S
C299 C298 1.387 . S
H300 C312 0.930 . S
H301 C314 0.930 . S
H302 C315 0.930 . S
H303 C319 0.959 . S
H304 C319 0.959 . S
H305 C319 0.961 . S
H306 C320 0.960 . S
H307 C320 0.961 . S
H308 C320 0.959 . S
H309 C323 0.929 . S
H310 C324 0.931 . S
H311 C326 0.930 1_545 S
C312 H300 0.930 . S
C312 C313 1.399 . S
C312 C317 1.399 . S
C313 C312 1.399 . S
C313 C314 1.376 1_455 S
C314 H301 0.930 . S
C314 C313 1.376 1_655 S
C314 C315 1.388 . S
C315 H302 0.930 . S
C315 C314 1.388 . S
C315 C316 1.390 1_655 S
C316 C315 1.390 1_455 S
C316 C317 1.394 . S
C316 C322 1.465 . S
C317 C312 1.399 . S
C317 C316 1.394 . S
C317 C318 1.516 . S
C318 C317 1.516 . S
C318 C319 1.502 . S
C318 C320 1.561 . S
C318 C321 1.526 . S
C319 H303 0.959 . S
C319 H304 0.959 . S
C319 H305 0.961 . S
C319 C318 1.502 . S
C320 H306 0.960 . S
C320 H307 0.961 . S
C320 H308 0.959 . S
C320 C318 1.561 . S
C321 C318 1.526 . S
C321 C322 1.396 . S
C321 C326 1.390 1_545 S
C322 C316 1.465 . S
C322 C321 1.396 . S
C322 C323 1.399 1_545 S
C323 H309 0.929 . S
C323 C322 1.399 1_565 S
C323 C324 1.385 . S
C324 H310 0.931 . S
C324 C323 1.385 . S
C324 C325 1.389 . S
C325 C324 1.389 . S
C325 C326 1.387 . S
C326 H311 0.930 1_565 S
C326 C321 1.390 1_565 S
C326 C325 1.387 . S
H327 C339 0.930 1_565 S
H328 C341 0.930 . S
H329 C342 0.930 . S
H330 C346 0.959 . S
H331 C346 0.959 . S
H332 C346 0.961 . S
H333 C347 0.960 . S
H334 C347 0.961 . S
H335 C347 0.959 . S
H336 C350 0.929 . S
H337 C351 0.931 . S
H338 C353 0.930 . S
C339 H327 0.930 1_545 S
C339 C340 1.399 . S
C339 C344 1.399 . S
C340 C339 1.399 . S
C340 C341 1.376 1_554 S
C341 H328 0.930 . S
C341 C340 1.376 1_556 S
C341 C342 1.388 . S
C342 H329 0.930 . S
C342 C341 1.388 . S
C342 C343 1.390 1_556 S
C343 C342 1.390 1_554 S
C343 C344 1.394 . S
C343 C349 1.465 . S
C344 C339 1.399 . S
C344 C343 1.394 . S
C344 C345 1.516 . S
C345 C344 1.516 . S
C345 C346 1.502 1_545 S
C345 C347 1.561 . S
C345 C348 1.526 . S
C346 H330 0.959 . S
C346 H331 0.959 . S
C346 H332 0.961 . S
C346 C345 1.502 1_565 S
C347 H333 0.960 . S
C347 H334 0.961 . S
C347 H335 0.959 . S
C347 C345 1.561 . S
C348 C345 1.526 . S
C348 C349 1.396 . S
C348 C353 1.390 . S
C349 C343 1.465 . S
C349 C348 1.396 . S
C349 C350 1.399 1_554 S
C350 H336 0.929 . S
C350 C349 1.399 1_556 S
C350 C351 1.385 . S
C351 H337 0.931 . S
C351 C350 1.385 . S
C351 C352 1.389 1_556 S
C352 C351 1.389 1_554 S
C352 C353 1.387 . S
C353 H338 0.930 . S
C353 C348 1.390 . S
C353 C352 1.387 . S
H354 C366 0.930 . S
H355 C368 0.930 . S
H356 C369 0.930 . S
H357 C373 0.959 . S
H358 C373 0.959 . S
H359 C373 0.961 . S
H360 C374 0.960 . S
H361 C374 0.961 . S
H362 C374 0.959 . S
H363 C377 0.929 . S
H364 C378 0.931 . S
H365 C380 0.930 . S
C366 H354 0.930 . S
C366 C367 1.399 . S
C366 C371 1.399 . S
C367 C366 1.399 . S
C367 C368 1.376 . S
C368 H355 0.930 . S
C368 C367 1.376 . S
C368 C369 1.388 . S
C369 H356 0.930 . S
C369 C368 1.388 . S
C369 C370 1.390 . S
C370 C369 1.390 . S
C370 C371 1.394 . S
C370 C376 1.465 . S
C371 C366 1.399 . S
C371 C370 1.394 . S
C371 C372 1.516 . S
C372 C371 1.516 . S
C372 C373 1.502 . S
C372 C374 1.561 . S
C372 C375 1.526 . S
C373 H357 0.959 . S
C373 H358 0.959 . S
C373 H359 0.961 . S
C373 C372 1.502 . S
C374 H360 0.960 . S
C374 H361 0.961 . S
C374 H362 0.959 . S
C374 C372 1.561 . S
C375 C372 1.526 . S
C375 C376 1.396 . S
C375 C380 1.390 . S
C376 C370 1.465 . S
C376 C375 1.396 . S
C376 C377 1.399 . S
C377 H363 0.929 . S
C377 C376 1.399 . S
C377 C378 1.385 . S
C378 H364 0.931 . S
C378 C377 1.385 . S
C378 C379 1.389 . S
C379 C378 1.389 . S
C379 C380 1.387 . S
C380 H365 0.930 . S
C380 C375 1.390 . S
C380 C379 1.387 . S
H381 C393 0.930 . S
H382 C395 0.930 . S
H383 C396 0.930 . S
H384 C400 0.959 . S
H385 C400 0.959 . S
H386 C400 0.961 . S
H387 C401 0.960 . S
H388 C401 0.961 . S
H389 C401 0.959 . S
H390 C404 0.934 . S
H391 C405 0.931 . S
H392 C407 0.930 . S
C393 H381 0.930 . S
C393 C394 1.399 . S
C393 C398 1.399 . S
C394 C393 1.399 . S
C394 C395 1.376 . S
C395 H382 0.930 . S
C395 C394 1.376 . S
C395 C396 1.388 . S
C396 H383 0.930 . S
C396 C395 1.388 . S
C396 C397 1.390 . S
C397 C396 1.390 . S
C397 C398 1.394 . S
C397 C403 1.465 . S
C398 C393 1.399 . S
C398 C397 1.394 . S
C398 C399 1.516 . S
C399 C398 1.516 . S
C399 C400 1.502 . S
C399 C401 1.561 . S
C399 C402 1.526 . S
C400 H384 0.959 . S
C400 H385 0.959 . S
C400 H386 0.961 . S
C400 C399 1.502 . S
C401 H387 0.960 . S
C401 H388 0.961 . S
C401 H389 0.959 . S
C401 C399 1.561 . S
C402 C399 1.526 . S
C402 C403 1.396 . S
C402 C407 1.390 . S
C403 C397 1.465 . S
C403 C402 1.396 . S
C403 C404 1.397 1_455 S
C404 H390 0.934 . S
C404 C403 1.397 1_655 S
C404 C405 1.382 . S
C405 H391 0.931 . S
C405 C404 1.382 . S
C405 C406 1.389 1_655 S
C406 C405 1.389 1_455 S
C406 C407 1.387 . S
C407 H392 0.930 . S
C407 C402 1.390 . S
C407 C406 1.387 . S
C97 C1 1.724 . S
C109 C27 1.711 . S
C124 C26 1.737 . S
C136 C28 1.710 . S
C151 C55 1.710 . S
C163 C29 1.738 . S
C178 C54 1.721 . S
C190 C68 1.676 . S
C205 C83 1.722 . S
C217 C69 1.731 . S
C232 C0 1.681 . S
C244 C82 1.720 . S
C259 C12 1.142 . S
C271 C43 1.085 . S
C286 C56 1.126 . S
C298 C15 1.097 . S
C313 C40 1.140 . S
C325 C71 1.086 . S
C340 C42 1.546 . S
C352 C13 1.569 . S
C367 C57 1.548 . S
C379 C14 1.569 . S
C394 C70 1.544 . S
C406 C41 1.570 . S
