# Generated by pormake.
# Topology fng, (5)-cn, num edge types: 1
# Building blocks:
#     Node 0, Type 0, BuildingBlock: BEQFEK_clean_sbu_0, # of connection points: 5
#     Node 1, Type 0, BuildingBlock: BEQFEK_clean_sbu_0, # of connection points: 5
#     Node 2, Type 0, BuildingBlock: BEQFEK_clean_sbu_0, # of connection points: 5
#     Node 3, Type 0, BuildingBlock: BEQFEK_clean_sbu_0, # of connection points: 5
#     Node 4, Type 0, BuildingBlock: BEQFEK_clean_sbu_0, # of connection points: 5
#     Node 5, Type 0, BuildingBlock: BEQFEK_clean_sbu_0, # of connection points: 5
#     Node 6, Type 0, BuildingBlock: BEQFEK_clean_sbu_0, # of connection points: 5
#     Node 7, Type 0, BuildingBlock: BEQFEK_clean_sbu_0, # of connection points: 5
#     Node 8, Type 0, BuildingBlock: BEQFEK_clean_sbu_0, # of connection points: 5
#     Node 9, Type 0, BuildingBlock: BEQFEK_clean_sbu_0, # of connection points: 5
#     Node 10, Type 0, BuildingBlock: BEQFEK_clean_sbu_0, # of connection points: 5
#     Node 11, Type 0, BuildingBlock: BEQFEK_clean_sbu_0, # of connection points: 5
#     Node 12, Type 0, BuildingBlock: BEQFEK_clean_sbu_0, # of connection points: 5
#     Node 13, Type 0, BuildingBlock: BEQFEK_clean_sbu_0, # of connection points: 5
#     Node 14, Type 0, BuildingBlock: BEQFEK_clean_sbu_0, # of connection points: 5
#     Node 15, Type 0, BuildingBlock: BEQFEK_clean_sbu_0, # of connection points: 5
#     Node 16, Type 0, BuildingBlock: BEQFEK_clean_sbu_0, # of connection points: 5
#     Node 17, Type 0, BuildingBlock: BEQFEK_clean_sbu_0, # of connection points: 5
#     Edge 18, Type (0, 0), BuildingBlock: TEMPAE_clean_linker_10, # of connection points: 2
#     Edge 19, Type (0, 0), BuildingBlock: TEMPAE_clean_linker_10, # of connection points: 2
#     Edge 20, Type (0, 0), BuildingBlock: TEMPAE_clean_linker_10, # of connection points: 2
#     Edge 21, Type (0, 0), BuildingBlock: TEMPAE_clean_linker_10, # of connection points: 2
#     Edge 22, Type (0, 0), BuildingBlock: TEMPAE_clean_linker_10, # of connection points: 2
#     Edge 23, Type (0, 0), BuildingBlock: TEMPAE_clean_linker_10, # of connection points: 2
#     Edge 24, Type (0, 0), BuildingBlock: TEMPAE_clean_linker_10, # of connection points: 2
#     Edge 25, Type (0, 0), BuildingBlock: TEMPAE_clean_linker_10, # of connection points: 2
#     Edge 26, Type (0, 0), BuildingBlock: TEMPAE_clean_linker_10, # of connection points: 2
#     Edge 27, Type (0, 0), BuildingBlock: TEMPAE_clean_linker_10, # of connection points: 2
#     Edge 28, Type (0, 0), BuildingBlock: TEMPAE_clean_linker_10, # of connection points: 2
#     Edge 29, Type (0, 0), BuildingBlock: TEMPAE_clean_linker_10, # of connection points: 2
#     Edge 30, Type (0, 0), BuildingBlock: TEMPAE_clean_linker_10, # of connection points: 2
#     Edge 31, Type (0, 0), BuildingBlock: TEMPAE_clean_linker_10, # of connection points: 2
#     Edge 32, Type (0, 0), BuildingBlock: TEMPAE_clean_linker_10, # of connection points: 2
#     Edge 33, Type (0, 0), BuildingBlock: TEMPAE_clean_linker_10, # of connection points: 2
#     Edge 34, Type (0, 0), BuildingBlock: TEMPAE_clean_linker_10, # of connection points: 2
#     Edge 35, Type (0, 0), BuildingBlock: TEMPAE_clean_linker_10, # of connection points: 2
#     Edge 36, Type (0, 0), BuildingBlock: TEMPAE_clean_linker_10, # of connection points: 2
#     Edge 37, Type (0, 0), BuildingBlock: TEMPAE_clean_linker_10, # of connection points: 2
#     Edge 38, Type (0, 0), BuildingBlock: TEMPAE_clean_linker_10, # of connection points: 2
#     Edge 39, Type (0, 0), BuildingBlock: TEMPAE_clean_linker_10, # of connection points: 2
#     Edge 40, Type (0, 0), BuildingBlock: TEMPAE_clean_linker_10, # of connection points: 2
#     Edge 41, Type (0, 0), BuildingBlock: TEMPAE_clean_linker_10, # of connection points: 2
#     Edge 42, Type (0, 0), BuildingBlock: TEMPAE_clean_linker_10, # of connection points: 2
#     Edge 43, Type (0, 0), BuildingBlock: TEMPAE_clean_linker_10, # of connection points: 2
#     Edge 44, Type (0, 0), BuildingBlock: TEMPAE_clean_linker_10, # of connection points: 2
#     Edge 45, Type (0, 0), BuildingBlock: TEMPAE_clean_linker_10, # of connection points: 2
#     Edge 46, Type (0, 0), BuildingBlock: TEMPAE_clean_linker_10, # of connection points: 2
#     Edge 47, Type (0, 0), BuildingBlock: TEMPAE_clean_linker_10, # of connection points: 2
#     Edge 48, Type (0, 0), BuildingBlock: TEMPAE_clean_linker_10, # of connection points: 2
#     Edge 49, Type (0, 0), BuildingBlock: TEMPAE_clean_linker_10, # of connection points: 2
#     Edge 50, Type (0, 0), BuildingBlock: TEMPAE_clean_linker_10, # of connection points: 2
#     Edge 51, Type (0, 0), BuildingBlock: TEMPAE_clean_linker_10, # of connection points: 2
#     Edge 52, Type (0, 0), BuildingBlock: TEMPAE_clean_linker_10, # of connection points: 2
#     Edge 53, Type (0, 0), BuildingBlock: TEMPAE_clean_linker_10, # of connection points: 2
#     Edge 54, Type (0, 0), BuildingBlock: TEMPAE_clean_linker_10, # of connection points: 2
#     Edge 55, Type (0, 0), BuildingBlock: TEMPAE_clean_linker_10, # of connection points: 2
#     Edge 56, Type (0, 0), BuildingBlock: TEMPAE_clean_linker_10, # of connection points: 2
#     Edge 57, Type (0, 0), BuildingBlock: TEMPAE_clean_linker_10, # of connection points: 2
#     Edge 58, Type (0, 0), BuildingBlock: TEMPAE_clean_linker_10, # of connection points: 2
#     Edge 59, Type (0, 0), BuildingBlock: TEMPAE_clean_linker_10, # of connection points: 2
#     Edge 60, Type (0, 0), BuildingBlock: TEMPAE_clean_linker_10, # of connection points: 2
#     Edge 61, Type (0, 0), BuildingBlock: TEMPAE_clean_linker_10, # of connection points: 2
#     Edge 62, Type (0, 0), BuildingBlock: TEMPAE_clean_linker_10, # of connection points: 2
# Relax obj value: 0.329
# Max RMSD: 0.245
# Mean RMSD: 0.245
data_MOF--net-fng--node1-BEQFEK_clean_sbu_0--edge1-TEMPAE_clean_linker_10
_symmetry_space_group_name_H-M    P1
_symmetry_Int_Tables_number       1
_symmetry_cell_setting            triclinic
loop_
_symmetry_equiv_pos_as_xyz
'x, y, z'
_cell_length_a     77.082509
_cell_length_b     77.083644
_cell_length_c     18.317111
_cell_angle_alpha  89.984584
_cell_angle_beta   90.00369
_cell_angle_gamma 119.99625
loop_
_atom_site_label
_atom_site_type_symbol
_atom_site_fract_x
_atom_site_fract_y
_atom_site_fract_z
_atom_type_partial_charge
Co0 Co 0.11184 0.22565 0.02841 0.0
Co1 Co 0.10295 0.20341 0.17703 0.0
C2 C 0.07 0.19864 0.07761 0.0
O3 O 0.08249 0.21072 0.03145 0.0
O4 O 0.0758 0.19435 0.1365 0.0
C5 C 0.10741 0.24356 0.90095 0.0
O6 O 0.0914 0.24188 0.93305 0.0
C7 C 0.09029 0.19833 0.32814 0.0
C8 C 0.10625 0.18407 0.37653 0.0
C9 C 0.09436 0.19226 0.39388 0.0
N10 N 0.09939 0.19403 0.27457 0.0
N11 N 0.10842 0.18493 0.30346 0.0
C12 C 0.07961 0.20987 0.31716 0.0
H13 H 0.08382 0.2179 0.2641 0.0
H14 H 0.08286 0.22063 0.36248 0.0
H15 H 0.06323 0.19923 0.31699 0.0
C16 C 0.13335 0.26131 0.12164 0.0
N17 N 0.12247 0.24136 0.11165 0.0
N18 N 0.11979 0.23212 0.17455 0.0
C19 C 0.12962 0.24609 0.2263 0.0
C20 C 0.13812 0.26494 0.195 0.0
C21 C 0.13801 0.27639 0.06244 0.0
H22 H 0.1496 0.27658 0.02596 0.0
H23 H 0.12439 0.27195 0.02922 0.0
H24 H 0.14353 0.29163 0.08487 0.0
O25 O 0.12221 0.20694 0.01748 0.0
O26 O 0.11548 0.19054 0.1225 0.0
H27 H 0.14621 0.25392 0.32696 0.0
H28 H 0.1195 0.24127 0.33565 0.0
C29 C 0.13196 0.24181 0.30383 0.0
H30 H 0.13179 0.22741 0.30844 0.0
H31 H 0.11724 0.18062 0.27402 0.0
O32 O 0.11997 0.24129 0.93849 0.0
C33 C 0.12261 0.19377 0.05815 0.0
Co34 Co 0.76755 0.88172 0.03672 0.0
Co35 Co 0.78889 0.89272 0.18851 0.0
C36 C 0.79562 0.86757 0.08074 0.0
O37 O 0.78369 0.86863 0.03579 0.0
O38 O 0.79918 0.87623 0.14245 0.0
C39 C 0.74834 0.85692 0.91651 0.0
O40 O 0.74961 0.84368 0.95795 0.0
C41 C 0.79016 0.88044 0.33663 0.0
C42 C 0.80498 0.90915 0.39632 0.0
C43 C 0.79489 0.88854 0.40633 0.0
N44 N 0.79647 0.89551 0.28833 0.0
N45 N 0.80579 0.91267 0.32406 0.0
C46 C 0.77952 0.85876 0.31551 0.0
H47 H 0.7862 0.8567 0.26499 0.0
H48 H 0.76356 0.85362 0.30382 0.0
H49 H 0.78044 0.8494 0.35972 0.0
C50 C 0.73131 0.86579 0.12958 0.0
N51 N 0.75126 0.87452 0.12002 0.0
N52 N 0.76033 0.8807 0.18344 0.0
C53 C 0.7464 0.87702 0.23488 0.0
C54 C 0.72762 0.86697 0.20301 0.0
C55 C 0.71631 0.85647 0.06942 0.0
H56 H 0.7201 0.84692 0.03553 0.0
H57 H 0.70087 0.84728 0.09087 0.0
H58 H 0.71705 0.86848 0.03388 0.0
O59 O 0.7854 0.91126 0.03438 0.0
O60 O 0.80141 0.91919 0.14095 0.0
H61 H 0.73887 0.8888 0.32877 0.0
H62 H 0.751 0.87478 0.34883 0.0
C63 C 0.75077 0.88568 0.31028 0.0
H64 H 0.76534 0.89981 0.31174 0.0
H65 H 0.81162 0.92672 0.29956 0.0
O66 O 0.7526 0.87375 0.94391 0.0
C67 C 0.79811 0.92419 0.07838 0.0
Co68 Co 0.11536 0.88768 0.02921 0.0
Co69 Co 0.10408 0.89821 0.18069 0.0
C70 C 0.13275 0.92998 0.07945 0.0
O71 O 0.13089 0.91693 0.03328 0.0
O72 O 0.12328 0.92493 0.1396 0.0
C73 C 0.14043 0.8931 0.90987 0.0
O74 O 0.15401 0.90647 0.95365 0.0
C75 C 0.11429 0.91036 0.33186 0.0
C76 C 0.08475 0.90033 0.38212 0.0
C77 C 0.10494 0.90845 0.39911 0.0
N78 N 0.10018 0.90311 0.2795 0.0
N79 N 0.08263 0.8976 0.30949 0.0
C80 C 0.13588 0.91734 0.31622 0.0
H81 H 0.13782 0.91376 0.25921 0.0
H82 H 0.14177 0.91029 0.35411 0.0
H83 H 0.14478 0.93382 0.32333 0.0
C84 C 0.12541 0.86248 0.12111 0.0
N85 N 0.11933 0.87595 0.1128 0.0
N86 N 0.11335 0.87915 0.17619 0.0
C87 C 0.11467 0.86704 0.22652 0.0
C88 C 0.12272 0.85636 0.19353 0.0
C89 C 0.13252 0.85485 0.05962 0.0
H90 H 0.12192 0.85058 0.01318 0.0
H91 H 0.14731 0.86702 0.04061 0.0
H92 H 0.13385 0.84172 0.07632 0.0
O93 O 0.08658 0.879 0.0211 0.0
O94 O 0.0784 0.88712 0.12705 0.0
H95 H 0.09603 0.86917 0.30942 0.0
H96 H 0.10236 0.85035 0.32709 0.0
C97 C 0.10813 0.86552 0.30453 0.0
H98 H 0.12109 0.87581 0.33859 0.0
H99 H 0.0691 0.89108 0.28093 0.0
O100 O 0.12336 0.88068 0.93592 0.0
C101 C 0.07377 0.87975 0.06296 0.0
Co102 Co 0.22994 0.11563 0.95018 0.0
Co103 Co 0.20985 0.10355 0.7961 0.0
C104 C 0.2042 0.07261 0.90399 0.0
O105 O 0.21497 0.08624 0.94923 0.0
O106 O 0.20078 0.07691 0.84058 0.0
C107 C 0.24941 0.11043 0.07014 0.0
O108 O 0.24977 0.09711 0.0264 0.0
C109 C 0.20497 0.08811 0.6476 0.0
C110 C 0.1954 0.10691 0.58877 0.0
C111 C 0.20136 0.09284 0.57818 0.0
N112 N 0.20205 0.09945 0.69625 0.0
N113 N 0.19573 0.1102 0.66101 0.0
C114 C 0.21127 0.07325 0.6682 0.0
H115 H 0.19959 0.06165 0.70385 0.0
H116 H 0.22529 0.08069 0.70064 0.0
H117 H 0.2132 0.06578 0.61969 0.0
C118 C 0.26633 0.13927 0.86192 0.0
N119 N 0.24667 0.12595 0.86846 0.0
N120 N 0.23841 0.12111 0.80323 0.0
C121 C 0.25274 0.13134 0.75283 0.0
C122 C 0.27086 0.1432 0.78836 0.0
C123 C 0.28006 0.14893 0.92539 0.0
H124 H 0.27231 0.1528 0.96792 0.0
H125 H 0.28396 0.13812 0.94954 0.0
H126 H 0.29401 0.16265 0.90867 0.0
O127 O 0.21118 0.12586 0.95148 0.0
O128 O 0.19588 0.11634 0.84396 0.0
H129 H 0.23743 0.13256 0.65706 0.0
H130 H 0.26293 0.13868 0.63984 0.0
C131 C 0.2493 0.12911 0.67209 0.0
H132 H 0.24441 0.1135 0.65701 0.0
H133 H 0.19286 0.1207 0.68579 0.0
O134 O 0.24419 0.12246 0.04449 0.0
C135 C 0.1983 0.12489 0.90569 0.0
Co136 Co 0.88271 0.11198 0.97232 0.0
Co137 Co 0.89299 0.10102 0.82037 0.0
C138 C 0.92492 0.12606 0.928 0.0
O139 O 0.91193 0.12485 0.97323 0.0
O140 O 0.9198 0.11757 0.86599 0.0
C141 C 0.8886 0.13693 0.09228 0.0
O142 O 0.90312 0.15005 0.05064 0.0
C143 C 0.90662 0.11305 0.67208 0.0
C144 C 0.89216 0.08429 0.61271 0.0
C145 C 0.90304 0.10488 0.60246 0.0
N146 N 0.89763 0.09805 0.72056 0.0
N147 N 0.88946 0.08085 0.68502 0.0
C148 C 0.91807 0.13475 0.69297 0.0
H149 H 0.92699 0.13667 0.74288 0.0
H150 H 0.90751 0.14015 0.70564 0.0
H151 H 0.92825 0.14398 0.64833 0.0
C152 C 0.86274 0.12832 0.87955 0.0
N153 N 0.87373 0.11934 0.88905 0.0
N154 N 0.87658 0.11317 0.82553 0.0
C155 C 0.86653 0.11713 0.77408 0.0
C156 C 0.85798 0.12734 0.80606 0.0
C157 C 0.85724 0.13778 0.9398 0.0
H158 H 0.84606 0.12585 0.97584 0.0
H159 H 0.87069 0.14737 0.97316 0.0
H160 H 0.85098 0.14697 0.91851 0.0
O161 O 0.87083 0.08244 0.97473 0.0
O162 O 0.87902 0.07458 0.86826 0.0
H163 H 0.84749 0.10593 0.6793 0.0
H164 H 0.87372 0.1196 0.66041 0.0
C165 C 0.86235 0.1087 0.69832 0.0
H166 H 0.86249 0.09442 0.69651 0.0
H167 H 0.88102 0.06686 0.70968 0.0
O168 O 0.8759 0.12011 0.06511 0.0
C169 C 0.87066 0.06954 0.9307 0.0
Co170 Co 0.8878 0.77361 0.95952 0.0
Co171 Co 0.89624 0.79355 0.80517 0.0
C172 C 0.87039 0.79902 0.91115 0.0
O173 O 0.87307 0.78828 0.95712 0.0
O174 O 0.87843 0.80248 0.84829 0.0
C175 C 0.86303 0.75401 0.07931 0.0
O176 O 0.84935 0.7537 0.0357 0.0
C177 C 0.8858 0.79825 0.65648 0.0
C178 C 0.91415 0.80767 0.59777 0.0
C179 C 0.89413 0.80173 0.58709 0.0
N180 N 0.90005 0.80123 0.70523 0.0
N181 N 0.91711 0.80745 0.67007 0.0
C182 C 0.86464 0.79198 0.67694 0.0
H183 H 0.85804 0.77797 0.70943 0.0
H184 H 0.85525 0.79004 0.62836 0.0
H185 H 0.86471 0.80368 0.71243 0.0
C186 C 0.87551 0.73716 0.8721 0.0
N187 N 0.88185 0.75683 0.87816 0.0
N188 N 0.8854 0.76502 0.81278 0.0
C189 C 0.88138 0.75063 0.76274 0.0
C190 C 0.87504 0.73253 0.79868 0.0
C191 C 0.87123 0.72349 0.93592 0.0
H192 H 0.88274 0.73124 0.97877 0.0
H193 H 0.85647 0.71965 0.95938 0.0
H194 H 0.871 0.70949 0.91978 0.0
O195 O 0.91673 0.79272 0.96211 0.0
O196 O 0.92282 0.80781 0.85408 0.0
H197 H 0.89797 0.7658 0.6669 0.0
H198 H 0.87858 0.74029 0.64999 0.0
C199 C 0.88263 0.75396 0.68194 0.0
H200 H 0.87194 0.75886 0.66648 0.0
H201 H 0.93047 0.81032 0.69496 0.0
O202 O 0.88032 0.75936 0.05374 0.0
C203 C 0.92874 0.80562 0.91661 0.0
Co204 Co 0.77893 0.56223 0.36822 0.0
Co205 Co 0.76806 0.54204 0.5222 0.0
C206 C 0.73644 0.53807 0.41984 0.0
O207 O 0.74958 0.54874 0.37291 0.0
O208 O 0.74134 0.53407 0.48111 0.0
C209 C 0.77436 0.58225 0.24797 0.0
O210 O 0.76089 0.58269 0.29065 0.0
C211 C 0.75343 0.53775 0.67115 0.0
C212 C 0.77184 0.52758 0.72924 0.0
C213 C 0.75826 0.53414 0.74036 0.0
N214 N 0.76428 0.53428 0.62204 0.0
N215 N 0.77479 0.5276 0.65682 0.0
C216 C 0.73907 0.54474 0.65123 0.0
H217 H 0.74693 0.55891 0.61974 0.0
H218 H 0.73171 0.54674 0.69998 0.0
H219 H 0.7273 0.53343 0.61507 0.0
C220 C 0.80445 0.59831 0.45561 0.0
N221 N 0.7908 0.57873 0.44952 0.0
N222 N 0.78646 0.57043 0.51472 0.0
C223 C 0.79739 0.58463 0.56467 0.0
C224 C 0.80915 0.60274 0.52886 0.0
C225 C 0.81349 0.6121 0.39185 0.0
H226 H 0.81702 0.60442 0.34802 0.0
H227 H 0.80241 0.61594 0.36985 0.0
H228 H 0.82732 0.62607 0.40751 0.0
O229 O 0.78748 0.54212 0.36293 0.0
O230 O 0.77925 0.52705 0.4711 0.0
H231 H 0.79869 0.56885 0.65887 0.0
H232 H 0.80593 0.59459 0.67733 0.0
C233 C 0.79572 0.58114 0.64539 0.0
H234 H 0.78037 0.57679 0.6624 0.0
H235 H 0.78493 0.5243 0.63158 0.0
O236 O 0.78598 0.57661 0.27432 0.0
C237 C 0.78659 0.52899 0.40728 0.0
Co238 Co 0.44088 0.21907 0.35433 0.0
Co239 Co 0.46104 0.22821 0.50843 0.0
C240 C 0.46646 0.20203 0.40358 0.0
O241 O 0.45553 0.20433 0.35737 0.0
O242 O 0.47007 0.21045 0.46574 0.0
C243 C 0.42134 0.19424 0.23441 0.0
O244 O 0.42125 0.18059 0.27761 0.0
C245 C 0.46568 0.21786 0.65721 0.0
C246 C 0.47525 0.24626 0.71569 0.0
C247 C 0.46915 0.22621 0.72654 0.0
N248 N 0.46878 0.23212 0.60831 0.0
N249 N 0.47511 0.24922 0.64334 0.0
C250 C 0.45919 0.19663 0.63695 0.0
H251 H 0.4706 0.19656 0.60025 0.0
H252 H 0.44494 0.19001 0.60587 0.0
H253 H 0.45754 0.18734 0.68553 0.0
C254 C 0.40455 0.20707 0.44209 0.0
N255 N 0.42421 0.21336 0.43586 0.0
N256 N 0.4325 0.21726 0.50108 0.0
C257 C 0.41821 0.21357 0.55117 0.0
C258 C 0.40006 0.20704 0.51543 0.0
C259 C 0.39078 0.20249 0.37838 0.0
H260 H 0.39838 0.21395 0.33526 0.0
H261 H 0.38715 0.18775 0.35525 0.0
H262 H 0.37669 0.20206 0.39448 0.0
O263 O 0.45997 0.24803 0.35075 0.0
O264 O 0.47508 0.25467 0.45884 0.0
H265 H 0.43368 0.23083 0.64544 0.0
H266 H 0.40813 0.21177 0.66387 0.0
C267 C 0.4217 0.21543 0.63189 0.0
H268 H 0.42648 0.20475 0.64883 0.0
H269 H 0.47809 0.2626 0.61832 0.0
O270 O 0.42654 0.21146 0.26033 0.0
C271 C 0.47281 0.26029 0.39585 0.0
Co272 Co 0.784 0.22183 0.36387 0.0
Co273 Co 0.77036 0.23113 0.51127 0.0
C274 C 0.80058 0.26372 0.41494 0.0
O275 O 0.79984 0.25112 0.36861 0.0
O276 O 0.78988 0.25811 0.4725 0.0
C277 C 0.80551 0.2252 0.23478 0.0
O278 O 0.82019 0.24137 0.26474 0.0
C279 C 0.7772 0.243 0.66333 0.0
C280 C 0.74659 0.22763 0.70853 0.0
C281 C 0.76659 0.2388 0.72803 0.0
N282 N 0.76413 0.23465 0.60827 0.0
N283 N 0.74579 0.22599 0.63528 0.0
C284 C 0.79946 0.25288 0.6547 0.0
H285 H 0.80338 0.24866 0.60188 0.0
H286 H 0.80623 0.2489 0.70057 0.0
H287 H 0.80586 0.26936 0.65555 0.0
C288 C 0.79583 0.19866 0.4587 0.0
N289 N 0.78763 0.21029 0.44769 0.0
N290 N 0.78085 0.21312 0.50987 0.0
C291 C 0.78392 0.20261 0.56207 0.0
C292 C 0.79383 0.1935 0.5319 0.0
C293 C 0.80632 0.19368 0.40078 0.0
H294 H 0.81529 0.207 0.36587 0.0
H295 H 0.81625 0.1886 0.42468 0.0
H296 H 0.79497 0.18161 0.36569 0.0
O297 O 0.7553 0.21304 0.35033 0.0
O298 O 0.74542 0.21996 0.45441 0.0
H299 H 0.77365 0.18558 0.66159 0.0
H300 H 0.78834 0.2122 0.67234 0.0
C301 C 0.77656 0.20013 0.63873 0.0
H302 H 0.76258 0.20084 0.64129 0.0
H303 H 0.73282 0.21771 0.60439 0.0
O304 O 0.79099 0.21298 0.27429 0.0
C305 C 0.74177 0.21319 0.38958 0.0
Co306 Co 0.89359 0.45034 0.30417 0.0
Co307 Co 0.87267 0.43816 0.15148 0.0
C308 C 0.87049 0.40763 0.25715 0.0
O309 O 0.88111 0.42113 0.30293 0.0
O310 O 0.866 0.41205 0.19585 0.0
C311 C 0.91457 0.44765 0.42498 0.0
O312 O 0.91587 0.43455 0.38289 0.0
C313 C 0.87092 0.42378 0.00368 0.0
C314 C 0.85577 0.43729 0.94375 0.0
C315 C 0.86587 0.42678 0.93392 0.0
N316 N 0.86482 0.43279 0.05176 0.0
N317 N 0.85523 0.44032 0.01589 0.0
C318 C 0.88155 0.41274 0.02518 0.0
H319 H 0.89602 0.42316 0.05171 0.0
H320 H 0.88407 0.40534 0.97773 0.0
H321 H 0.87238 0.40113 0.06609 0.0
C322 C 0.929 0.47612 0.21363 0.0
N323 N 0.9096 0.46209 0.22149 0.0
N324 N 0.90074 0.45783 0.15726 0.0
C325 C 0.91424 0.46957 0.10654 0.0
C326 C 0.93264 0.48138 0.14045 0.0
C327 C 0.9434 0.48494 0.27583 0.0
H328 H 0.9364 0.48907 0.32042 0.0
H329 H 0.94676 0.4735 0.29755 0.0
H330 H 0.95755 0.49838 0.25872 0.0
O331 O 0.87263 0.45785 0.30797 0.0
O332 O 0.85698 0.44877 0.2009 0.0
H333 H 0.89504 0.46823 0.01939 0.0
H334 H 0.92111 0.48216 0.99639 0.0
C335 C 0.90968 0.46906 0.02684 0.0
H336 H 0.90914 0.45574 0.00245 0.0
H337 H 0.84944 0.44861 0.04013 0.0
O338 O 0.90815 0.45856 0.39775 0.0
C339 C 0.85909 0.4564 0.26433 0.0
Co340 Co 0.55044 0.44698 0.30404 0.0
Co341 Co 0.56197 0.43841 0.14996 0.0
C342 C 0.59316 0.46567 0.25407 0.0
O343 O 0.5798 0.46284 0.30056 0.0
O344 O 0.58854 0.45712 0.19213 0.0
C345 C 0.55474 0.47147 0.42407 0.0
O346 O 0.56801 0.48542 0.38099 0.0
C347 C 0.5768 0.44902 0.00115 0.0
C348 C 0.55868 0.42043 0.94287 0.0
C349 C 0.57213 0.44062 0.93188 0.0
N350 N 0.56598 0.43464 0.05014 0.0
N351 N 0.55565 0.41745 0.01524 0.0
C352 C 0.59101 0.4704 0.02125 0.0
H353 H 0.58302 0.4766 0.05255 0.0
H354 H 0.59837 0.4798 0.97258 0.0
H355 H 0.60276 0.47094 0.05768 0.0
C356 C 0.52495 0.45752 0.21622 0.0
N357 N 0.53882 0.45189 0.22251 0.0
N358 N 0.54345 0.44823 0.15731 0.0
C359 C 0.5325 0.45141 0.10718 0.0
C360 C 0.5204 0.45736 0.14286 0.0
C361 C 0.51548 0.46178 0.27987 0.0
H362 H 0.51204 0.45047 0.32326 0.0
H363 H 0.52626 0.4767 0.30262 0.0
H364 H 0.50153 0.46164 0.26381 0.0
O365 O 0.54181 0.41829 0.30814 0.0
O366 O 0.55066 0.41209 0.20004 0.0
H367 H 0.53147 0.43456 0.0127 0.0
H368 H 0.52415 0.45301 0.99439 0.0
C369 C 0.53434 0.44976 0.02646 0.0
H370 H 0.5497 0.46086 0.00986 0.0
H371 H 0.54557 0.40396 0.04036 0.0
O372 O 0.54322 0.45413 0.39802 0.0
C373 C 0.54297 0.40631 0.26321 0.0
Co374 Co 0.5567 0.1065 0.28003 0.0
Co375 Co 0.56467 0.12601 0.12512 0.0
C376 C 0.53916 0.13178 0.23159 0.0
O377 O 0.54201 0.1212 0.27774 0.0
O378 O 0.54702 0.13511 0.16846 0.0
C379 C 0.53188 0.08684 0.39949 0.0
O380 O 0.51821 0.08637 0.35537 0.0
C381 C 0.55392 0.13048 0.97669 0.0
C382 C 0.58216 0.13986 0.91729 0.0
C383 C 0.56214 0.13396 0.90714 0.0
N384 N 0.56825 0.13346 0.02506 0.0
N385 N 0.58525 0.13964 0.98949 0.0
C386 C 0.53282 0.12433 -0.00229 0.0
H387 H 0.52637 0.11058 0.03169 0.0
H388 H 0.52325 0.12201 0.94935 0.0
H389 H 0.53301 0.13629 0.03196 0.0
C390 C 0.54371 0.06976 0.19388 0.0
N391 N 0.55036 0.0895 0.19926 0.0
N392 N 0.5537 0.09749 0.13358 0.0
C393 C 0.54926 0.08289 0.08398 0.0
C394 C 0.5428 0.06487 0.1206 0.0
C395 C 0.53945 0.05623 0.25813 0.0
H396 H 0.55113 0.06397 0.30043 0.0
H397 H 0.52482 0.05266 0.28214 0.0
H398 H 0.53894 0.04209 0.24228 0.0
O399 O 0.58568 0.12544 0.28124 0.0
O400 O 0.5914 0.14026 0.17278 0.0
H401 H 0.5654 0.09783 0.98711 0.0
H402 H 0.54607 0.07222 0.9716 0.0
C403 C 0.55016 0.08597 0.00307 0.0
H404 H 0.53933 0.09074 0.98798 0.0
H405 H 0.59865 0.14252 0.01406 0.0
O406 O 0.54928 0.09242 0.37453 0.0
C407 C 0.59755 0.13816 0.23496 0.0
Co408 Co 0.44483 0.89199 0.70253 0.0
Co409 Co 0.43409 0.8723 0.85721 0.0
C410 C 0.40228 0.86658 0.7529 0.0
O411 O 0.41544 0.87736 0.70621 0.0
O412 O 0.40719 0.86311 0.81512 0.0
C413 C 0.43946 0.91158 0.58294 0.0
O414 O 0.426 0.91174 0.62647 0.0
C415 C 0.4192 0.8678 0.00595 0.0
C416 C 0.43827 0.85857 0.06478 0.0
C417 C 0.42413 0.86444 0.07535 0.0
N418 N 0.43047 0.86481 0.95724 0.0
N419 N 0.4414 0.8587 0.99247 0.0
C420 C 0.40428 0.87403 0.98545 0.0
H421 H 0.41172 0.88812 0.95339 0.0
H422 H 0.39673 0.87584 0.03398 0.0
H423 H 0.39273 0.86238 0.94961 0.0
C424 C 0.46923 0.92857 0.78865 0.0
N425 N 0.45588 0.90889 0.78333 0.0
N426 N 0.45154 0.90083 0.84892 0.0
C427 C 0.46212 0.91531 0.89841 0.0
C428 C 0.47369 0.93333 0.86182 0.0
C429 C 0.47845 0.94208 0.7243 0.0
H430 H 0.48215 0.93424 0.68163 0.0
H431 H 0.46743 0.94581 0.70088 0.0
H432 H 0.49222 0.95614 0.73977 0.0
O433 O 0.45486 0.87303 0.69952 0.0
O434 O 0.44658 0.85824 0.8082 0.0
H435 H 0.46418 0.90037 0.9938 0.0
H436 H 0.47024 0.92588 0.01062 0.0
C437 C 0.4605 0.91211 0.9793 0.0
H438 H 0.44498 0.90713 0.99602 0.0
H439 H 0.45189 0.85584 0.96759 0.0
O440 O 0.45138 0.90619 0.60834 0.0
C441 C 0.45444 0.86038 0.74523 0.0
Co442 Co 0.09893 0.55205 0.68829 0.0
Co443 Co 0.11912 0.56107 0.84235 0.0
C444 C 0.12416 0.53455 0.73851 0.0
O445 O 0.11338 0.53702 0.69202 0.0
O446 O 0.12775 0.54297 0.80065 0.0
C447 C 0.07946 0.52724 0.56811 0.0
O448 O 0.07939 0.51357 0.61114 0.0
C449 C 0.12446 0.55133 0.9914 0.0
C450 C 0.13308 0.57963 0.04917 0.0
C451 C 0.12769 0.55977 0.06053 0.0
N452 N 0.12699 0.56533 0.94214 0.0
N453 N 0.13278 0.58239 0.97674 0.0
C454 C 0.11857 0.53021 0.9718 0.0
H455 H 0.13029 0.53043 0.93606 0.0
H456 H 0.10444 0.52325 0.93992 0.0
H457 H 0.11696 0.52106 0.02076 0.0
C458 C 0.06282 0.54123 0.77654 0.0
N459 N 0.08232 0.54682 0.76997 0.0
N460 N 0.09063 0.55035 0.83512 0.0
C461 C 0.07647 0.54688 0.88549 0.0
C462 C 0.05845 0.54118 0.85009 0.0
C463 C 0.04918 0.53748 0.71304 0.0
H464 H 0.05735 0.54855 0.66926 0.0
H465 H 0.04429 0.52233 0.69079 0.0
H466 H 0.03578 0.53839 0.7292 0.0
O467 O 0.11829 0.58089 0.68368 0.0
O468 O 0.13341 0.58741 0.79169 0.0
H469 H 0.09111 0.56345 0.98198 0.0
H470 H 0.06607 0.54291 -0.00155 0.0
C471 C 0.0799 0.54793 0.96621 0.0
H472 H 0.08566 0.53786 0.98044 0.0
H473 H 0.13524 0.59556 0.95139 0.0
O474 O 0.08455 0.54441 0.59429 0.0
C475 C 0.13126 0.59307 0.72859 0.0
Co476 Co 0.43939 0.54637 0.70735 0.0
Co477 Co 0.43067 0.5577 0.86161 0.0
C478 C 0.45613 0.58913 0.75529 0.0
O479 O 0.45365 0.57577 0.70939 0.0
O480 O 0.44814 0.58448 0.8182 0.0
C481 C 0.46429 0.55199 0.58751 0.0
O482 O 0.47784 0.56548 0.63114 0.0
C483 C 0.44105 0.57301 0.01015 0.0
C484 C 0.4128 0.55389 0.0691 0.0
C485 C 0.43277 0.56814 0.07961 0.0
N486 N 0.42683 0.56158 0.96153 0.0
N487 N 0.40982 0.55062 0.99684 0.0
C488 C 0.46215 0.58806 0.9895 0.0
H489 H 0.46888 0.58074 0.95716 0.0
H490 H 0.47152 0.59563 0.03797 0.0
H491 H 0.46191 0.59956 0.95379 0.0
C492 C 0.45233 0.52279 0.79522 0.0
N493 N 0.44568 0.53587 0.78891 0.0
N494 N 0.44197 0.54041 0.85419 0.0
C495 C 0.44616 0.53021 0.9044 0.0
C496 C 0.45281 0.51869 0.86869 0.0
C497 C 0.45689 0.51356 0.73159 0.0
H498 H 0.44533 0.50955 0.68871 0.0
H499 H 0.47156 0.5247 0.70805 0.0
H500 H 0.45746 0.5 0.74795 0.0
O501 O 0.41034 0.53598 0.70503 0.0
O502 O 0.40404 0.54487 0.8129 0.0
H503 H 0.42935 0.52856 -0.00013 0.0
H504 H 0.44889 0.52268 0.01728 0.0
C505 C 0.44476 0.53221 0.98517 0.0
H506 H 0.45532 0.54782 0.00078 0.0
H507 H 0.3965 0.54002 0.97209 0.0
O508 O 0.44707 0.53981 0.61312 0.0
C509 C 0.3982 0.53662 0.75056 0.0
Co510 Co 0.557 0.77511 0.6393 0.0
Co511 Co 0.53561 0.7653 0.4877 0.0
C512 C 0.52989 0.73305 0.59255 0.0
O513 O 0.54172 0.74584 0.63825 0.0
O514 O 0.52602 0.73843 0.53197 0.0
C515 C 0.57665 0.77006 0.75974 0.0
O516 O 0.57547 0.75546 0.71913 0.0
C517 C 0.53478 0.75239 0.33918 0.0
C518 C 0.51973 0.76612 0.27989 0.0
C519 C 0.53013 0.75591 0.2696 0.0
N520 N 0.52815 0.76078 0.38777 0.0
N521 N 0.51869 0.76852 0.35227 0.0
C522 C 0.54574 0.74163 0.35993 0.0
H523 H 0.539 0.73256 0.40972 0.0
H524 H 0.56158 0.75265 0.37267 0.0
H525 H 0.54525 0.7317 0.31515 0.0
C526 C 0.59314 0.79653 0.54653 0.0
N527 N 0.57322 0.78509 0.55616 0.0
N528 N 0.56408 0.78243 0.493 0.0
C529 C 0.57794 0.79305 0.44177 0.0
C530 C 0.59675 0.80179 0.47338 0.0
C531 C 0.60822 0.80184 0.60621 0.0
H532 H 0.60753 0.8129 0.6431 0.0
H533 H 0.60446 0.7883 0.63883 0.0
H534 H 0.62363 0.80822 0.58436 0.0
O535 O 0.53831 0.78581 0.64376 0.0
O536 O 0.52237 0.77827 0.53707 0.0
H537 H 0.55877 0.79682 0.36575 0.0
H538 H 0.5852 0.81257 0.34865 0.0
C539 C 0.57344 0.79746 0.36674 0.0
H540 H 0.57333 0.7865 0.32766 0.0
H541 H 0.51262 0.77648 0.37704 0.0
O542 O 0.57205 0.78233 0.73182 0.0
C543 C 0.52538 0.78595 0.60065 0.0
Co544 Co 0.2159 0.78038 0.63694 0.0
Co545 Co 0.22704 0.77149 0.48263 0.0
C546 C 0.25867 0.79679 0.58762 0.0
O547 O 0.24538 0.79451 0.63361 0.0
O548 O 0.25392 0.7887 0.52489 0.0
C549 C 0.22209 0.80543 0.757 0.0
O550 O 0.23575 0.81886 0.71348 0.0
C551 C 0.24239 0.7806 0.33349 0.0
C552 C 0.22134 0.75278 0.27575 0.0
C553 C 0.23677 0.77223 0.26439 0.0
N554 N 0.2303 0.76699 0.38276 0.0
N555 N 0.21817 0.75018 0.34816 0.0
C556 C 0.25867 0.80129 0.35305 0.0
H557 H 0.25254 0.80889 0.38696 0.0
H558 H 0.26623 0.81038 0.30398 0.0
H559 H 0.26999 0.80012 0.38689 0.0
C560 C 0.19169 0.79262 0.54893 0.0
N561 N 0.20515 0.78644 0.55542 0.0
N562 N 0.21018 0.78328 0.49014 0.0
C563 C 0.20027 0.78779 0.43974 0.0
C564 C 0.18805 0.79363 0.47523 0.0
C565 C 0.18155 0.79601 0.61246 0.0
H566 H 0.17884 0.78497 0.65613 0.0
H567 H 0.19152 0.81121 0.63483 0.0
H568 H 0.16711 0.79477 0.59611 0.0
O569 O 0.20541 0.75139 0.64056 0.0
O570 O 0.21404 0.74496 0.53246 0.0
H571 H 0.19809 0.77227 0.34014 0.0
H572 H 0.19601 0.79444 0.3275 0.0
C573 C 0.20347 0.78779 0.35914 0.0
H574 H 0.21961 0.79698 0.34782 0.0
H575 H 0.20688 0.73737 0.3735 0.0
O576 O 0.20962 0.78834 0.7312 0.0
C577 C 0.20592 0.73918 0.59505 0.0
Co578 Co 0.2107 0.4344 0.63625 0.0
Co579 Co 0.22303 0.45602 0.48524 0.0
C580 C 0.19546 0.46105 0.58742 0.0
O581 O 0.19616 0.44917 0.6336 0.0
O582 O 0.20528 0.4652 0.52804 0.0
C583 C 0.18611 0.41463 0.75725 0.0
O584 O 0.17259 0.41588 0.71749 0.0
C585 C 0.21121 0.45661 0.33639 0.0
C586 C 0.24005 0.47192 0.27762 0.0
C587 C 0.21947 0.46127 0.26696 0.0
N588 N 0.22618 0.46349 0.38529 0.0
N589 N 0.24341 0.4731 0.3501 0.0
C590 C 0.18946 0.44536 0.35668 0.0
H591 H 0.1849 0.4296 0.36969 0.0
H592 H 0.17999 0.44563 0.31157 0.0
H593 H 0.18689 0.45203 0.40616 0.0
C594 C 0.19691 0.39843 0.54306 0.0
N595 N 0.20518 0.41832 0.55307 0.0
N596 N 0.21202 0.4276 0.49038 0.0
C597 C 0.20928 0.4139 0.43919 0.0
C598 C 0.19913 0.39501 0.47019 0.0
C599 C 0.18686 0.38319 0.60205 0.0
H600 H 0.17735 0.38716 0.63541 0.0
H601 H 0.17751 0.36792 0.57934 0.0
H602 H 0.19846 0.38336 0.6384 0.0
O603 O 0.23999 0.4535 0.64252 0.0
O604 O 0.24902 0.46949 0.53602 0.0
H605 H 0.22234 0.40704 0.34756 0.0
H606 H 0.20809 0.41875 0.32481 0.0
C607 C 0.21872 0.41866 0.36503 0.0
H608 H 0.23266 0.43341 0.36521 0.0
H609 H 0.25741 0.47936 0.37517 0.0
O610 O 0.2029 0.41925 0.72857 0.0
C611 C 0.2533 0.4665 0.6003 0.0
C612 C 0.1105 0.22022 0.48096 0.0
C613 C 0.09466 0.20107 0.465 0.0
C614 C 0.11147 0.2294 0.54757 0.0
C615 C 0.09692 0.21852 0.60142 0.0
C616 C 0.08079 0.19907 0.5857 0.0
C617 C 0.07969 0.19063 0.5167 0.0
C618 C 0.12864 0.25033 0.56138 0.0
C619 C 0.0654 0.18679 0.64289 0.0
C620 C 0.11643 0.23001 0.79416 0.0
C621 C 0.10692 0.24011 0.82174 0.0
C622 C 0.11301 0.22272 0.72285 0.0
C623 C 0.1004 0.22631 0.6769 0.0
C624 C 0.09166 0.2375 0.70276 0.0
C625 C 0.09474 0.24399 0.77567 0.0
C626 C 0.12235 0.21054 0.69764 0.0
C627 C 0.07886 0.24229 0.65387 0.0
H628 H 0.12246 0.22788 0.44202 0.0
H629 H 0.06756 0.17572 0.50394 0.0
H630 H 0.12327 0.25957 0.58912 0.0
H631 H 0.13979 0.24965 0.59773 0.0
H632 H 0.13632 0.25796 0.50995 0.0
H633 H 0.05298 0.17264 0.62024 0.0
H634 H 0.0727 0.18302 0.68749 0.0
H635 H 0.05902 0.19554 0.66745 0.0
H636 H 0.1257 0.22674 0.82955 0.0
H637 H 0.08737 0.25177 0.79698 0.0
H638 H 0.13261 0.21812 0.65117 0.0
H639 H 0.11053 0.19563 0.67816 0.0
H640 H 0.13096 0.20829 0.74163 0.0
H641 H 0.0871 0.24956 0.60293 0.0
H642 H 0.07435 0.25234 0.68085 0.0
H643 H 0.06514 0.22826 0.63791 0.0
C644 C 0.76697 0.86277 0.48312 0.0
C645 C 0.78684 0.8785 0.47719 0.0
C646 C 0.75808 0.85561 0.55151 0.0
C647 C 0.76936 0.86441 0.61541 0.0
C648 C 0.78974 0.87956 0.60977 0.0
C649 C 0.79818 0.88652 0.54066 0.0
C650 C 0.73627 0.83956 0.55512 0.0
C651 C 0.80236 0.88915 0.67681 0.0
C652 C 0.74655 0.86884 0.79184 0.0
C653 C 0.74858 0.85517 0.8363 0.0
C654 C 0.7519 0.87095 0.71791 0.0
C655 C 0.75961 0.85922 0.68818 0.0
C656 C 0.76003 0.84419 0.73114 0.0
C657 C 0.75437 0.84224 0.80477 0.0
C658 C 0.75078 0.88684 0.67326 0.0
C659 C 0.76802 0.83131 0.70118 0.0
H660 H 0.75785 0.85673 0.4348 0.0
H661 H 0.81352 0.89872 0.53626 0.0
H662 H 0.73383 0.82818 0.59707 0.0
H663 H 0.72717 0.84645 0.5709 0.0
H664 H 0.73068 0.83191 0.50176 0.0
H665 H 0.81834 0.89947 0.66307 0.0
H666 H 0.79655 0.89776 0.70633 0.0
H667 H 0.80145 0.87748 0.71466 0.0
H668 H 0.74187 0.87871 0.81582 0.0
H669 H 0.75596 0.8316 0.83875 0.0
H670 H 0.74363 0.8807 0.61969 0.0
H671 H 0.76615 0.89937 0.66247 0.0
H672 H 0.74223 0.89294 0.7016 0.0
H673 H 0.76157 0.82537 0.64656 0.0
H674 H 0.76473 0.81854 0.73787 0.0
H675 H 0.78451 0.84054 0.69455 0.0
C676 C 0.13865 0.88486 0.77742 0.0
C677 C 0.141 0.89836 0.83264 0.0
C678 C 0.13575 0.88866 0.70469 0.0
C679 C 0.13417 0.9058 0.68817 0.0
C680 C 0.1372 0.91977 0.74384 0.0
C681 C 0.14092 0.91601 0.81528 0.0
C682 C 0.13338 0.87383 0.64623 0.0
C683 C 0.13482 0.93778 0.72962 0.0
C684 C 0.13337 0.92087 0.49095 0.0
C685 C 0.11283 0.90979 0.47455 0.0
C686 C 0.14065 0.91953 0.55984 0.0
C687 C 0.12697 0.90781 0.61511 0.0
C688 C 0.10616 0.89786 0.60085 0.0
C689 C 0.09939 0.89875 0.53074 0.0
C690 C 0.16297 0.9302 0.57287 0.0
C691 C 0.09098 0.88591 0.65929 0.0
H692 H 0.13861 0.87117 0.79138 0.0
H693 H 0.14236 0.92623 0.85869 0.0
H694 H 0.11746 0.86516 0.62912 0.0
H695 H 0.14235 0.88178 0.59732 0.0
H696 H 0.13807 0.86313 0.6656 0.0
H697 H 0.14027 0.94848 0.77608 0.0
H698 H 0.14298 0.9458 0.67961 0.0
H699 H 0.11873 0.93269 0.72073 0.0
H700 H 0.14392 0.93058 0.4505 0.0
H701 H 0.08345 0.89035 0.51979 0.0
H702 H 0.16754 0.91918 0.58901 0.0
H703 H 0.16705 0.941 0.6185 0.0
H704 H 0.17165 0.9384 0.52374 0.0
H705 H 0.09241 0.87277 0.67486 0.0
H706 H 0.07535 0.88045 0.64103 0.0
H707 H 0.09383 0.89518 0.70901 0.0
C708 C 0.19732 0.08739 0.44415 0.0
C709 C 0.20847 0.08967 0.50728 0.0
C710 C 0.20558 0.08876 0.37475 0.0
C711 C 0.22565 0.09296 0.36859 0.0
C712 C 0.23662 0.09421 0.43216 0.0
C713 C 0.22787 0.09251 0.50084 0.0
C714 C 0.19326 0.08698 0.3081 0.0
C715 C 0.25808 0.09884 0.42795 0.0
C716 C 0.24131 0.0878 0.17745 0.0
C717 C 0.24813 0.10714 0.1498 0.0
C718 C 0.23488 0.0831 0.25011 0.0
C719 C 0.23564 0.09819 0.29616 0.0
C720 C 0.24421 0.11813 0.27026 0.0
C721 C 0.25021 0.12233 0.19711 0.0
C722 C 0.22579 0.06167 0.27554 0.0
C723 C 0.24574 0.13476 0.3183 0.0
H724 H 0.18239 0.08534 0.44913 0.0
H725 H 0.23679 0.09477 0.54925 0.0
H726 H 0.1995 0.10184 0.28137 0.0
H727 H 0.19393 0.07658 0.26786 0.0
H728 H 0.17732 0.08154 0.32189 0.0
H729 H 0.26347 0.09636 0.48105 0.0
H730 H 0.2598 0.0895 0.38571 0.0
H731 H 0.26782 0.11475 0.41205 0.0
H732 H 0.23955 0.07594 0.14105 0.0
H733 H 0.25559 0.1373 0.17596 0.0
H734 H 0.20928 0.05486 0.27888 0.0
H735 H 0.23125 0.06095 0.33087 0.0
H736 H 0.22921 0.05252 0.23765 0.0
H737 H 0.23052 0.1323 0.32927 0.0
H738 H 0.2548 0.14973 0.29263 0.0
H739 H 0.25255 0.13476 0.37166 0.0
C740 C 0.90148 0.13097 0.52551 0.0
C741 C 0.90516 0.11492 0.5315 0.0
C742 C 0.89991 0.13821 0.4571 0.0
C743 C 0.90202 0.12915 0.39323 0.0
C744 C 0.90674 0.11364 0.3989 0.0
C745 C 0.90811 0.10662 0.46804 0.0
C746 C 0.89471 0.15466 0.45342 0.0
C747 C 0.90934 0.10375 0.33189 0.0
C748 C 0.87487 0.12533 0.21713 0.0
C749 C 0.89069 0.1387 0.17245 0.0
C750 C 0.87807 0.12315 0.29104 0.0
C751 C 0.8976 0.1345 0.32048 0.0
C752 C 0.91322 0.14924 0.27726 0.0
C753 C 0.90954 0.15127 0.20367 0.0
C754 C 0.8609 0.10758 0.33596 0.0
C755 C 0.93421 0.16169 0.30687 0.0
H756 H 0.89867 0.13721 0.57383 0.0
H757 H 0.91087 0.09418 0.47248 0.0
H758 H 0.90392 0.16598 0.41168 0.0
H759 H 0.87878 0.14817 0.43725 0.0
H760 H 0.89687 0.16232 0.50683 0.0
H761 H 0.9146 0.0931 0.34562 0.0
H762 H 0.89484 0.09543 0.30261 0.0
H763 H 0.92024 0.11522 0.29382 0.0
H764 H 0.86023 0.11573 0.19335 0.0
H765 H 0.92187 0.16167 0.16948 0.0
H766 H 0.86016 0.11388 0.38955 0.0
H767 H 0.86332 0.09478 0.34673 0.0
H768 H 0.84626 0.10183 0.30785 0.0
H769 H 0.93396 0.16778 0.36148 0.0
H770 H 0.94388 0.17433 0.26999 0.0
H771 H 0.94107 0.1521 0.3134 0.0
C772 C 0.87401 0.75274 0.20598 0.0
C773 C 0.86096 0.75504 0.15901 0.0
C774 C 0.87588 0.75864 0.27925 0.0
C775 C 0.86466 0.76732 0.3056 0.0
C776 C 0.85035 0.76824 0.25992 0.0
C777 C 0.84854 0.76191 0.18712 0.0
C778 C 0.89096 0.75694 0.32687 0.0
C779 C 0.83814 0.77742 0.28596 0.0
C780 C 0.86719 0.77519 0.51023 0.0
C781 C 0.8838 0.79456 0.51632 0.0
C782 C 0.85999 0.76642 0.4417 0.0
C783 C 0.86963 0.77733 0.37795 0.0
C784 C 0.8856 0.79735 0.38377 0.0
C785 C 0.89263 0.80565 0.45303 0.0
C786 C 0.84307 0.74499 0.43786 0.0
C787 C 0.89607 0.8096 0.31691 0.0
H788 H 0.88353 0.74732 0.18443 0.0
H789 H 0.83849 0.76383 0.15096 0.0
H790 H 0.90385 0.77211 0.33764 0.0
H791 H 0.88421 0.75017 0.38034 0.0
H792 H 0.89669 0.74776 0.30094 0.0
H793 H 0.82572 0.77436 0.24781 0.0
H794 H 0.83178 0.77168 0.34086 0.0
H795 H 0.84799 0.79389 0.29058 0.0
H796 H 0.86059 0.76631 0.55877 0.0
H797 H 0.90557 0.82055 0.45775 0.0
H798 H 0.84914 0.73516 0.42224 0.0
H799 H 0.83201 0.74327 0.3956 0.0
H800 H 0.83521 0.73971 0.49104 0.0
H801 H 0.90453 0.80323 0.28987 0.0
H802 H 0.90671 0.82552 0.3305 0.0
H803 H 0.88497 0.80902 0.27699 0.0
C804 C 0.75252 0.57474 0.13877 0.0
C805 C 0.77165 0.58138 0.16811 0.0
C806 C 0.74827 0.56842 0.06588 0.0
C807 C 0.76361 0.56913 0.02141 0.0
C808 C 0.78337 0.5776 0.04893 0.0
C809 C 0.78712 0.58349 0.12225 0.0
C810 C 0.72703 0.55948 0.0385 0.0
C811 C 0.80026 0.57907 0.00258 0.0
C812 C 0.75307 0.53057 0.87463 0.0
C813 C 0.75554 0.54165 0.81113 0.0
C814 C 0.75441 0.53898 0.9437 0.0
C815 C 0.75876 0.55911 0.9491 0.0
C816 C 0.76036 0.57007 0.88512 0.0
C817 C 0.75872 0.56118 0.81682 0.0
C818 C 0.75231 0.52671 0.01085 0.0
C819 C 0.76522 0.59161 0.88854 0.0
H820 H 0.74045 0.57296 0.17408 0.0
H821 H 0.80194 0.58874 0.14476 0.0
H822 H 0.72673 0.5654 0.98358 0.0
H823 H 0.7203 0.54301 0.03336 0.0
H824 H 0.71756 0.56255 0.07604 0.0
H825 H 0.81508 0.58814 0.02923 0.0
H826 H 0.79785 0.56383 0.99239 0.0
H827 H 0.80057 0.58582 0.94876 0.0
H828 H 0.75079 0.51554 0.87022 0.0
H829 H 0.76117 0.57006 0.76814 0.0
H830 H 0.74171 0.52741 0.05008 0.0
H831 H 0.76703 0.53297 0.03861 0.0
H832 H 0.74693 0.51076 0.99748 0.0
H833 H 0.75582 0.59352 0.92999 0.0
H834 H 0.76303 0.59702 0.835 0.0
H835 H 0.78109 0.60124 0.90511 0.0
C836 C 0.41988 0.20535 0.10814 0.0
C837 C 0.42233 0.19231 0.15462 0.0
C838 C 0.42576 0.20741 0.03481 0.0
C839 C 0.43459 0.19639 0.00791 0.0
C840 C 0.43567 0.18207 0.05307 0.0
C841 C 0.42934 0.18007 0.12594 0.0
C842 C 0.4239 0.22249 0.98774 0.0
C843 C 0.44499 0.17005 0.0264 0.0
C844 C 0.44255 0.19924 0.80327 0.0
C845 C 0.46189 0.21591 0.79734 0.0
C846 C 0.43375 0.19196 0.8717 0.0
C847 C 0.44461 0.20157 0.93556 0.0
C848 C 0.46459 0.21763 0.92992 0.0
C849 C 0.47292 0.22474 0.86074 0.0
C850 C 0.41237 0.17495 0.87535 0.0
C851 C 0.47677 0.22808 0.99691 0.0
H852 H 0.41434 0.21473 0.13012 0.0
H853 H 0.43138 0.17002 0.16172 0.0
H854 H 0.43901 0.2355 0.9772 0.0
H855 H 0.41719 0.21582 0.93413 0.0
H856 H 0.4146 0.22803 0.01401 0.0
H857 H 0.44217 0.15767 0.06442 0.0
H858 H 0.43916 0.16365 0.97163 0.0
H859 H 0.46143 0.18004 0.02118 0.0
H860 H 0.43372 0.19262 0.75466 0.0
H861 H 0.4878 0.23772 0.85617 0.0
H862 H 0.40245 0.18091 0.89123 0.0
H863 H 0.4107 0.16385 0.91736 0.0
H864 H 0.40712 0.16716 0.82204 0.0
H865 H 0.47026 0.23637 0.02425 0.0
H866 H 0.49266 0.23887 0.98342 0.0
H867 H 0.47632 0.21697 0.03654 0.0
C868 C 0.77587 0.22084 0.81681 0.0
C869 C 0.77437 0.23771 0.79976 0.0
C870 C 0.78375 0.21933 0.88351 0.0
C871 C 0.78903 0.23454 0.93618 0.0
C872 C 0.78742 0.25165 0.91942 0.0
C873 C 0.78037 0.2532 0.85039 0.0
C874 C 0.78572 0.20111 0.8984 0.0
C875 C 0.79225 0.26782 0.97538 0.0
C876 C 0.78195 0.21689 0.13148 0.0
C877 C 0.80179 0.22531 0.15601 0.0
C878 C 0.7777 0.22003 0.06027 0.0
C879 C 0.79367 0.2312 0.01142 0.0
C880 C 0.81373 0.23882 0.0344 0.0
C881 C 0.81759 0.2361 0.1072 0.0
C882 C 0.75609 0.212 0.03828 0.0
C883 C 0.83103 0.25005 0.98251 0.0
H884 H 0.7706 0.20862 0.77829 0.0
H885 H 0.77906 0.26618 0.83666 0.0
H886 H 0.80042 0.20553 0.92392 0.0
H887 H 0.77389 0.19104 0.93716 0.0
H888 H 0.78424 0.19253 0.84776 0.0
H889 H 0.79126 0.28064 0.95239 0.0
H890 H 0.78163 0.26147 0.02181 0.0
H891 H 0.80753 0.27345 0.99756 0.0
H892 H 0.76963 0.20877 0.16914 0.0
H893 H 0.83291 0.24265 0.12625 0.0
H894 H 0.75209 0.20119 0.99273 0.0
H895 H 0.75397 0.22443 0.01855 0.0
H896 H 0.74551 0.20436 0.08406 0.0
H897 H 0.82876 0.24103 0.93251 0.0
H898 H 0.84561 0.25372 0.0075 0.0
H899 H 0.83177 0.2642 0.96529 0.0
C900 C 0.86266 0.42087 0.79987 0.0
C901 C 0.87427 0.42525 0.86319 0.0
C902 C 0.87132 0.42315 0.73063 0.0
C903 C 0.89218 0.43044 0.72476 0.0
C904 C 0.90379 0.43398 0.78856 0.0
C905 C 0.89466 0.43126 0.85705 0.0
C906 C 0.85834 0.41885 0.66373 0.0
C907 C 0.9261 0.44199 0.78467 0.0
C908 C 0.90979 0.42676 0.53528 0.0
C909 C 0.91383 0.44515 0.50507 0.0
C910 C 0.90373 0.42207 0.60831 0.0
C911 C 0.90197 0.43623 0.65207 0.0
C912 C 0.90779 0.45547 0.62365 0.0
C913 C 0.91356 0.45967 0.55029 0.0
C914 C 0.89772 0.40143 0.63669 0.0
C915 C 0.90654 0.47115 0.66914 0.0
H916 H 0.84693 0.41631 0.80449 0.0
H917 H 0.90388 0.43506 0.90541 0.0
H918 H 0.86249 0.4331 0.63511 0.0
H919 H 0.86082 0.40922 0.62508 0.0
H920 H 0.84215 0.41133 0.67756 0.0
H921 H 0.93241 0.44123 0.83834 0.0
H922 H 0.92962 0.43355 0.74395 0.0
H923 H 0.93372 0.45787 0.76682 0.0
H924 H 0.9099 0.41542 0.50064 0.0
H925 H 0.91682 0.47395 0.5273 0.0
H926 H 0.88117 0.39257 0.64182 0.0
H927 H 0.9041 0.40233 0.69175 0.0
H928 H 0.90262 0.39327 0.59975 0.0
H929 H 0.89059 0.46637 0.67967 0.0
H930 H 0.91366 0.48599 0.64166 0.0
H931 H 0.91387 0.47283 0.72283 0.0
C932 C 0.57738 0.44224 0.79767 0.0
C933 C 0.5748 0.45081 0.86106 0.0
C934 C 0.57587 0.44916 0.72849 0.0
C935 C 0.57124 0.46474 0.72285 0.0
C936 C 0.56958 0.4741 0.7867 0.0
C937 C 0.5714 0.46702 0.85513 0.0
C938 C 0.57805 0.43899 0.6615 0.0
C939 C 0.56444 0.49059 0.78304 0.0
C940 C 0.57678 0.48615 0.53261 0.0
C941 C 0.55764 0.47341 0.50387 0.0
C942 C 0.58126 0.4843 0.60544 0.0
C943 C 0.56612 0.46964 0.6505 0.0
C944 C 0.54633 0.45807 0.62354 0.0
C945 C 0.54236 0.46 0.55025 0.0
C946 C 0.60253 0.49689 0.63218 0.0
C947 C 0.52965 0.44261 0.67051 0.0
H948 H 0.57984 0.4296 0.80226 0.0
H949 H 0.56887 0.47341 0.90373 0.0
H950 H 0.5633 0.43029 0.63414 0.0
H951 H 0.58847 0.4503 0.6219 0.0
H952 H 0.58368 0.42862 0.675 0.0
H953 H 0.56669 0.49829 0.83638 0.0
H954 H 0.57364 0.50186 0.74114 0.0
H955 H 0.54851 0.48413 0.767 0.0
H956 H 0.58871 0.49649 0.4969 0.0
H957 H 0.52753 0.45023 0.52821 0.0
H958 H 0.60947 0.48734 0.63742 0.0
H959 H 0.60285 0.50318 0.68695 0.0
H960 H 0.6118 0.50939 0.5942 0.0
H961 H 0.53232 0.42995 0.681 0.0
H962 H 0.51475 0.4366 0.6442 0.0
H963 H 0.52933 0.44912 0.72415 0.0
C964 C 0.54257 0.08547 0.52647 0.0
C965 C 0.52956 0.08769 0.47909 0.0
C966 C 0.5442 0.09124 0.5998 0.0
C967 C 0.53275 0.09971 0.6258 0.0
C968 C 0.51845 0.10051 0.5797 0.0
C969 C 0.5169 0.09432 0.50682 0.0
C970 C 0.55928 0.08968 0.64787 0.0
C971 C 0.50599 0.10945 0.60537 0.0
C972 C 0.53517 0.10745 0.8304 0.0
C973 C 0.55171 0.12685 0.83655 0.0
C974 C 0.52796 0.09872 0.76183 0.0
C975 C 0.53754 0.10971 0.69815 0.0
C976 C 0.55339 0.12978 0.70407 0.0
C977 C 0.56043 0.13804 0.77335 0.0
C978 C 0.51113 0.07726 0.75788 0.0
C979 C 0.56381 0.14211 0.63728 0.0
H980 H 0.55227 0.08023 0.50521 0.0
H981 H 0.50686 0.09617 0.47032 0.0
H982 H 0.57204 0.1049 0.65898 0.0
H983 H 0.55246 0.08282 0.70116 0.0
H984 H 0.56521 0.08064 0.62213 0.0
H985 H 0.49357 0.10622 0.56702 0.0
H986 H 0.49962 0.10368 0.66024 0.0
H987 H 0.51566 0.12594 0.60993 0.0
H988 H 0.52866 0.09851 0.8789 0.0
H989 H 0.57331 0.15298 0.77815 0.0
H990 H 0.51733 0.06749 0.74275 0.0
H991 H 0.50012 0.07543 0.71525 0.0
H992 H 0.5032 0.07196 0.8109 0.0
H993 H 0.57242 0.13591 0.6103 0.0
H994 H 0.57429 0.15806 0.65097 0.0
H995 H 0.55266 0.1414 0.59729 0.0
C996 C 0.45206 0.91341 0.45661 0.0
C997 C 0.43656 0.91083 0.50322 0.0
C998 C 0.44825 0.90764 0.38319 0.0
C999 C 0.42839 0.89882 0.35635 0.0
C1000 C 0.41298 0.89767 0.40162 0.0
C1001 C 0.4173 0.90387 0.47461 0.0
C1002 C 0.4652 0.90958 0.336 0.0
C1003 C 0.39164 0.88836 0.37498 0.0
C1004 C 0.42349 0.89092 0.15177 0.0
C1005 C 0.42091 0.87162 0.14596 0.0
C1006 C 0.42484 0.89967 0.22016 0.0
C1007 C 0.42356 0.8888 0.28404 0.0
C1008 C 0.41971 0.86884 0.27848 0.0
C1009 C 0.41865 0.86057 0.20936 0.0
C1010 C 0.42911 0.92102 0.22375 0.0
C1011 C 0.41796 0.85666 0.34552 0.0
H1012 H 0.46698 0.91891 0.47856 0.0
H1013 H 0.40521 0.90174 0.51052 0.0
H1014 H 0.46313 0.89449 0.32536 0.0
H1015 H 0.4652 0.9163 0.28245 0.0
H1016 H 0.48004 0.9189 0.36224 0.0
H1017 H 0.38212 0.89124 0.41292 0.0
H1018 H 0.39108 0.89415 0.32011 0.0
H1019 H 0.38517 0.87192 0.37001 0.0
H1020 H 0.42578 0.89977 0.10313 0.0
H1021 H 0.41682 0.84571 0.20483 0.0
H1022 H 0.445 0.93099 0.23944 0.0
H1023 H 0.41969 0.92265 0.26584 0.0
H1024 H 0.42649 0.92621 0.17045 0.0
H1025 H 0.43275 0.86318 0.37298 0.0
H1026 H 0.41288 0.84077 0.33204 0.0
H1027 H 0.40728 0.85709 0.38503 0.0
C1028 C 0.0879 0.51341 0.45969 0.0
C1029 C 0.08064 0.52545 0.48831 0.0
C1030 C 0.09435 0.51555 0.38695 0.0
C1031 C 0.09314 0.5298 0.3418 0.0
C1032 C 0.08408 0.54062 0.36861 0.0
C1033 C 0.07808 0.53843 0.44185 0.0
C1034 C 0.10394 0.50377 0.36041 0.0
C1035 C 0.08205 0.55559 0.32153 0.0
C1036 C 0.13143 0.55846 0.19481 0.0
C1037 C 0.1205 0.54949 0.13137 0.0
C1038 C 0.12309 0.55131 0.26396 0.0
C1039 C 0.10319 0.53508 0.26951 0.0
C1040 C 0.09244 0.52537 0.20561 0.0
C1041 C 0.10125 0.53268 0.13721 0.0
C1042 C 0.13517 0.56188 0.331 0.0
C1043 C 0.07113 0.5082 0.20914 0.0
H1044 H 0.09003 0.50341 0.49546 0.0
H1045 H 0.07236 0.54766 0.46378 0.0
H1046 H 0.0982 0.49735 0.30559 0.0
H1047 H 0.12035 0.51393 0.35534 0.0
H1048 H 0.10126 0.49143 0.39842 0.0
H1049 H 0.0726 0.56097 0.34769 0.0
H1050 H 0.0971 0.56871 0.31114 0.0
H1051 H 0.07543 0.5489 0.26784 0.0
H1052 H 0.14623 0.57155 0.19026 0.0
H1053 H 0.09249 0.52597 0.08852 0.0
H1054 H 0.13483 0.55085 0.37075 0.0
H1055 H 0.1285 0.57003 0.35814 0.0
H1056 H 0.15104 0.57279 0.31761 0.0
H1057 H 0.06958 0.49713 0.25111 0.0
H1058 H 0.06596 0.50041 0.1558 0.0
H1059 H 0.06107 0.51399 0.22503 0.0
C1060 C 0.45338 0.53975 0.46076 0.0
C1061 C 0.4663 0.55513 0.5078 0.0
C1062 C 0.45146 0.54375 0.38749 0.0
C1063 C 0.4625 0.56367 0.3612 0.0
C1064 C 0.4767 0.57897 0.40695 0.0
C1065 C 0.47856 0.57447 0.47974 0.0
C1066 C 0.43651 0.5269 0.3398 0.0
C1067 C 0.48872 0.60038 0.38099 0.0
C1068 C 0.45991 0.56896 0.15653 0.0
C1069 C 0.44315 0.57146 0.15037 0.0
C1070 C 0.46719 0.56751 0.22508 0.0
C1071 C 0.45746 0.56864 0.28881 0.0
C1072 C 0.44134 0.57246 0.28292 0.0
C1073 C 0.43424 0.57361 0.21364 0.0
C1074 C 0.48429 0.56327 0.22899 0.0
C1075 C 0.43076 0.57409 0.34975 0.0
H1076 H 0.44399 0.52477 0.48224 0.0
H1077 H 0.48852 0.58648 0.51594 0.0
H1078 H 0.42353 0.52902 0.32892 0.0
H1079 H 0.44333 0.52698 0.28638 0.0
H1080 H 0.43092 0.512 0.36571 0.0
H1081 H 0.50113 0.60981 0.41906 0.0
H1082 H 0.49506 0.60111 0.32599 0.0
H1083 H 0.47874 0.60686 0.37664 0.0
H1084 H 0.4666 0.56679 0.10801 0.0
H1085 H 0.42118 0.57538 0.20888 0.0
H1086 H 0.47839 0.54738 0.24459 0.0
H1087 H 0.49528 0.57268 0.27129 0.0
H1088 H 0.49217 0.56595 0.17584 0.0
H1089 H 0.42243 0.55925 0.37679 0.0
H1090 H 0.42 0.57921 0.33611 0.0
H1091 H 0.4418 0.58468 0.38967 0.0
C1092 C 0.55841 0.7587 0.19335 0.0
C1093 C 0.53843 0.75427 0.19883 0.0
C1094 C 0.56741 0.76046 0.1252 0.0
C1095 C 0.55615 0.75776 0.06106 0.0
C1096 C 0.53572 0.75236 0.06623 0.0
C1097 C 0.52715 0.75084 0.13513 0.0
C1098 C 0.58928 0.76643 0.12216 0.0
C1099 C 0.52313 0.74912 -0.0011 0.0
C1100 C 0.57874 0.78435 0.88347 0.0
C1101 C 0.57672 0.76849 0.84003 0.0
C1102 C 0.57351 0.78142 0.95753 0.0
C1103 C 0.56593 0.76212 0.98838 0.0
C1104 C 0.56561 0.74654 0.94652 0.0
C1105 C 0.57115 0.74996 0.87274 0.0
C1106 C 0.57457 0.79855 0.00108 0.0
C1107 C 0.55782 0.72584 0.97784 0.0
H1108 H 0.56749 0.76192 0.24184 0.0
H1109 H 0.51175 0.7475 0.13919 0.0
H1110 H 0.59204 0.75793 0.07932 0.0
H1111 H 0.59832 0.78257 0.10824 0.0
H1112 H 0.59469 0.764 0.17531 0.0
H1113 H 0.50713 0.74347 0.01235 0.0
H1114 H 0.52894 0.76345 0.96872 0.0
H1115 H 0.5241 0.73826 0.96176 0.0
H1116 H 0.58326 0.79876 0.85858 0.0
H1117 H 0.5696 0.73762 0.83955 0.0
H1118 H 0.58176 0.7998 0.05477 0.0
H1119 H 0.55918 0.79569 0.01165 0.0
H1120 H 0.58306 0.81309 0.972 0.0
H1121 H 0.56446 0.72667 0.03238 0.0
H1122 H 0.5611 0.71624 0.94175 0.0
H1123 H 0.54135 0.71852 0.98505 0.0
C1124 C 0.23892 0.79994 0.18747 0.0
C1125 C 0.24046 0.78261 0.19354 0.0
C1126 C 0.23775 0.80741 0.11896 0.0
C1127 C 0.23819 0.79731 0.0552 0.0
C1128 C 0.24104 0.78056 0.06099 0.0
C1129 C 0.2419 0.77327 0.13024 0.0
C1130 C 0.2345 0.82515 0.11519 0.0
C1131 C 0.24193 0.76958 0.99412 0.0
C1132 C 0.20972 0.79472 0.88375 0.0
C1133 C 0.22531 0.80723 0.83666 0.0
C1134 C 0.21357 0.79248 0.95689 0.0
C1135 C 0.23355 0.80274 0.98293 0.0
C1136 C 0.24914 0.81652 0.93709 0.0
C1137 C 0.2448 0.81875 0.86448 0.0
C1138 C 0.19644 0.77802 0.00472 0.0
C1139 C 0.27063 0.82767 0.96274 0.0
H1140 H 0.23728 0.80696 0.23611 0.0
H1141 H 0.2429 0.75977 0.13499 0.0
H1142 H 0.24419 0.83592 0.07279 0.0
H1143 H 0.21872 0.81992 0.0998 0.0
H1144 H 0.23756 0.83311 0.16832 0.0
H1145 H 0.24638 0.75829 0.00762 0.0
H1146 H 0.227 0.76179 0.9675 0.0
H1147 H 0.25273 0.7803 0.95389 0.0
H1148 H 0.19464 0.78589 0.86241 0.0
H1149 H 0.25696 0.82837 0.82819 0.0
H1150 H 0.19694 0.78498 0.05827 0.0
H1151 H 0.19781 0.76458 0.01531 0.0
H1152 H 0.18164 0.7731 0.97908 0.0
H1153 H 0.27175 0.8343 0.01749 0.0
H1154 H 0.28048 0.83978 0.92429 0.0
H1155 H 0.27632 0.81704 0.96761 0.0
C1156 C 0.19877 0.41252 0.8801 0.0
C1157 C 0.18472 0.41448 0.83763 0.0
C1158 C 0.20131 0.41773 0.95417 0.0
C1159 C 0.18964 0.42523 0.98602 0.0
C1160 C 0.17418 0.42546 0.94522 0.0
C1161 C 0.1718 0.41993 0.87138 0.0
C1162 C 0.21757 0.41672 0.99669 0.0
C1163 C 0.16126 0.43308 0.97778 0.0
C1164 C 0.19425 0.43275 0.19094 0.0
C1165 C 0.20963 0.45281 0.19619 0.0
C1166 C 0.18693 0.42371 0.12294 0.0
C1167 C 0.19527 0.43499 0.05867 0.0
C1168 C 0.21022 0.45546 0.06361 0.0
C1169 C 0.21732 0.46408 0.13239 0.0
C1170 C 0.17116 0.40179 0.12028 0.0
C1171 C 0.21933 0.46806 0.99613 0.0
H1172 H 0.20861 0.40806 0.85441 0.0
H1173 H 0.16084 0.42141 0.83899 0.0
H1174 H 0.23005 0.43212 0.00734 0.0
H1175 H 0.21178 0.40941 0.05034 0.0
H1176 H 0.22363 0.40836 0.96682 0.0
H1177 H 0.14834 0.42991 0.94214 0.0
H1178 H 0.15553 0.4262 0.03209 0.0
H1179 H 0.17039 0.44952 0.98584 0.0
H1180 H 0.18855 0.42366 0.2395 0.0
H1181 H 0.22926 0.47954 0.13628 0.0
H1182 H 0.17847 0.39281 0.10882 0.0
H1183 H 0.16012 0.39873 0.07621 0.0
H1184 H 0.16302 0.39659 0.17297 0.0
H1185 H 0.22777 0.46228 0.96529 0.0
H1186 H 0.2297 0.48407 0.00944 0.0
H1187 H 0.20737 0.46708 0.95965 0.0
C1188 C 0.19458 0.36073 0.45475 0.0
C1189 C 0.19089 0.37582 0.43087 0.0
C1190 C 0.18698 0.34267 0.41586 0.0
C1191 C 0.17536 0.33976 0.35226 0.0
C1192 C 0.1717 0.35507 0.32803 0.0
C1193 C 0.17958 0.37295 0.3676 0.0
C1194 C 0.19129 0.3267 0.44285 0.0
C1195 C 0.15922 0.35247 0.26093 0.0
C1196 C 0.16687 0.29958 0.21385 0.0
C1197 C 0.14782 0.28424 0.23404 0.0
C1198 C 0.17627 0.31769 0.2528 0.0
C1199 C 0.16621 0.3204 0.31264 0.0
C1200 C 0.14693 0.30487 0.33298 0.0
C1201 C 0.13798 0.28695 0.29336 0.0
C1202 C 0.1969 0.33391 0.23002 0.0
C1203 C 0.13562 0.30726 0.3959 0.0
H1204 H 0.20357 0.36315 0.50326 0.0
H1205 H 0.17666 0.38465 0.34959 0.0
H1206 H 0.17706 0.31297 0.45713 0.0
H1207 H 0.19851 0.3226 0.399 0.0
H1208 H 0.20119 0.33161 0.49158 0.0
H1209 H 0.1578 0.36586 0.24962 0.0
H1210 H 0.16602 0.34952 0.21257 0.0
H1211 H 0.14399 0.33933 0.26792 0.0
H1212 H 0.17447 0.2973 0.16826 0.0
H1213 H 0.12312 0.27508 0.30829 0.0
H1214 H 0.20738 0.33816 0.27684 0.0
H1215 H 0.19644 0.34751 0.21338 0.0
H1216 H 0.20294 0.32917 0.18392 0.0
H1217 H 0.14465 0.31093 0.44662 0.0
H1218 H 0.12096 0.29352 0.40566 0.0
H1219 H 0.13296 0.31989 0.38477 0.0
C1220 C 0.69329 0.86226 0.21911 0.0
C1221 C 0.70828 0.85826 0.24161 0.0
C1222 C 0.67509 0.85418 0.25729 0.0
C1223 C 0.67194 0.8418 0.31881 0.0
C1224 C 0.68718 0.83789 0.34184 0.0
C1225 C 0.7052 0.84623 0.30297 0.0
C1226 C 0.65922 0.85881 0.23174 0.0
C1227 C 0.68433 0.82461 0.40673 0.0
C1228 C 0.63117 0.83126 0.45734 0.0
C1229 C 0.61605 0.81239 0.43449 0.0
C1230 C 0.64938 0.8413 0.41914 0.0
C1231 C 0.6524 0.83208 0.35729 0.0
C1232 C 0.63702 0.81305 0.33393 0.0
C1233 C 0.619 0.80347 0.37278 0.0
C1234 C 0.6654 0.86168 0.44507 0.0
C1235 C 0.63973 0.80265 0.26869 0.0
H1236 H 0.69591 0.87184 0.17222 0.0
H1237 H 0.71685 0.84312 0.31999 0.0
H1238 H 0.64558 0.84478 0.21516 0.0
H1239 H 0.65488 0.86541 0.27709 0.0
H1240 H 0.66435 0.86936 0.18484 0.0
H1241 H 0.69787 0.82347 0.41838 0.0
H1242 H 0.68065 0.83049 0.45603 0.0
H1243 H 0.67156 0.80934 0.39658 0.0
H1244 H 0.62867 0.8382 0.50457 0.0
H1245 H 0.60725 0.78878 0.35554 0.0
H1246 H 0.66989 0.87271 0.39995 0.0
H1247 H 0.67894 0.86107 0.46156 0.0
H1248 H 0.66036 0.86713 0.49212 0.0
H1249 H 0.64329 0.81222 0.21947 0.0
H1250 H 0.62616 0.78797 0.25726 0.0
H1251 H 0.65253 0.80014 0.2782 0.0
C1252 C 0.16232 0.78861 0.38209 0.0
C1253 C 0.17441 0.79959 0.44108 0.0
C1254 C 0.15216 0.79596 0.34036 0.0
C1255 C 0.15313 0.81409 0.36116 0.0
C1256 C 0.1637 0.82419 0.4251 0.0
C1257 C 0.17458 0.81702 0.46355 0.0
C1258 C 0.14167 0.78509 0.27124 0.0
C1259 C 0.16429 0.84308 0.45097 0.0
C1260 C 0.14957 0.84849 0.22191 0.0
C1261 C 0.12962 0.84375 0.22976 0.0
C1262 C 0.15713 0.83821 0.26187 0.0
C1263 C 0.1446 0.82343 0.31298 0.0
C1264 C 0.12425 0.81814 0.31933 0.0
C1265 C 0.11685 0.82795 0.27567 0.0
C1266 C 0.17867 0.84359 0.2509 0.0
C1267 C 0.11057 0.80284 0.37449 0.0
H1268 H 0.16167 0.77475 0.36618 0.0
H1269 H 0.18382 0.82549 0.50941 0.0
H1270 H 0.12629 0.78278 0.26874 0.0
H1271 H 0.14996 0.79437 0.22333 0.0
H1272 H 0.14081 0.77032 0.26631 0.0
H1273 H 0.1706 0.84738 0.50688 0.0
H1274 H 0.17366 0.85559 0.41333 0.0
H1275 H 0.14901 0.84112 0.45066 0.0
H1276 H 0.15943 0.8606 0.18586 0.0
H1277 H 0.10114 0.82351 0.27867 0.0
H1278 H 0.17965 0.82985 0.24242 0.0
H1279 H 0.18751 0.85116 0.30042 0.0
H1280 H 0.18566 0.85372 0.20343 0.0
H1281 H 0.11022 0.78842 0.36642 0.0
H1282 H 0.095 0.80011 0.37129 0.0
H1283 H 0.1164 0.80814 0.43035 0.0
C1284 C 0.37833 0.21274 0.60156 0.0
C1285 C 0.38036 0.20069 0.54894 0.0
C1286 C 0.36071 0.20551 0.64257 0.0
C1287 C 0.34447 0.18614 0.62793 0.0
C1288 C 0.34588 0.1746 0.57049 0.0
C1289 C 0.36396 0.18192 0.53225 0.0
C1290 C 0.35993 0.2181 0.70424 0.0
C1291 C 0.32859 0.15415 0.5515 0.0
C1292 C 0.30703 0.15429 0.77291 0.0
C1293 C 0.29057 0.1564 0.75458 0.0
C1294 C 0.32513 0.16484 0.73458 0.0
C1295 C 0.32648 0.1773 0.67542 0.0
C1296 C 0.31018 0.18021 0.65908 0.0
C1297 C 0.29254 0.17004 0.70018 0.0
C1298 C 0.34248 0.16195 0.75533 0.0
C1299 C 0.31089 0.19305 0.5956 0.0
H1300 H 0.39092 0.22751 0.6129 0.0
H1301 H 0.36551 0.17266 0.49117 0.0
H1302 H 0.34623 0.21932 0.70041 0.0
H1303 H 0.35928 0.21076 0.75711 0.0
H1304 H 0.37322 0.23343 0.70475 0.0
H1305 H 0.33132 0.14815 0.50034 0.0
H1306 H 0.32612 0.14351 0.59647 0.0
H1307 H 0.3146 0.1548 0.54516 0.0
H1308 H 0.30553 0.14382 0.81537 0.0
H1309 H 0.27991 0.17205 0.68755 0.0
H1310 H 0.35642 0.17667 0.76052 0.0
H1311 H 0.345 0.15345 0.71181 0.0
H1312 H 0.33979 0.15366 0.80757 0.0
H1313 H 0.32456 0.20803 0.59827 0.0
H1314 H 0.29757 0.19501 0.59384 0.0
H1315 H 0.31158 0.18596 0.54376 0.0
C1316 C 0.82878 0.13269 0.78948 0.0
C1317 C 0.84771 0.13642 0.76744 0.0
C1318 C 0.81893 0.14102 0.751 0.0
C1319 C 0.82839 0.15336 0.68957 0.0
C1320 C 0.84749 0.15704 0.66711 0.0
C1321 C 0.8569 0.14847 0.70634 0.0
C1322 C 0.79849 0.13669 0.77605 0.0
C1323 C 0.85813 0.17023 0.60227 0.0
C1324 C 0.79856 0.16398 0.54958 0.0
C1325 C 0.80241 0.18294 0.57179 0.0
C1326 C 0.80656 0.1539 0.58843 0.0
C1327 C 0.81876 0.16316 0.65031 0.0
C1328 C 0.82259 0.18231 0.67291 0.0
C1329 C 0.81435 0.19197 0.63326 0.0
C1330 C 0.80209 0.13343 0.56314 0.0
C1331 C 0.83568 0.19276 0.73815 0.0
H1332 H 0.82161 0.12309 0.83618 0.0
H1333 H 0.87162 0.15138 0.68971 0.0
H1334 H 0.79902 0.15085 0.79172 0.0
H1335 H 0.78757 0.13002 0.73068 0.0
H1336 H 0.79295 0.12629 0.8234 0.0
H1337 H 0.87277 0.17121 0.59118 0.0
H1338 H 0.84866 0.16438 0.55275 0.0
H1339 H 0.86076 0.18557 0.61204 0.0
H1340 H 0.78916 0.15701 0.50227 0.0
H1341 H 0.8175 0.20677 0.64971 0.0
H1342 H 0.7954 0.12248 0.60842 0.0
H1343 H 0.8162 0.13389 0.54725 0.0
H1344 H 0.79168 0.12798 0.51585 0.0
H1345 H 0.82982 0.18311 0.78728 0.0
H1346 H 0.83657 0.20732 0.74993 0.0
H1347 H 0.85105 0.19549 0.72831 0.0
C1348 C 0.87998 0.71056 0.71117 0.0
C1349 C 0.86839 0.71273 0.76538 0.0
C1350 C 0.87241 0.69281 0.67071 0.0
C1351 C 0.85319 0.67659 0.68751 0.0
C1352 C 0.84215 0.67816 0.74646 0.0
C1353 C 0.84979 0.69636 0.7841 0.0
C1354 C 0.88446 0.69187 0.60738 0.0
C1355 C 0.8219 0.66091 0.76772 0.0
C1356 C 0.82016 0.63887 0.54528 0.0
C1357 C 0.82251 0.62247 0.5623 0.0
C1358 C 0.83096 0.65701 0.5831 0.0
C1359 C 0.84393 0.65848 0.64059 0.0
C1360 C 0.84701 0.64222 0.65574 0.0
C1361 C 0.83658 0.62454 0.61506 0.0
C1362 C 0.82786 0.6743 0.56356 0.0
C1363 C 0.86037 0.64306 0.71753 0.0
H1364 H 0.89464 0.72311 0.69822 0.0
H1365 H 0.84088 0.69802 0.82637 0.0
H1366 H 0.88574 0.6782 0.61072 0.0
H1367 H 0.87663 0.69104 0.55551 0.0
H1368 H 0.89975 0.70517 0.60515 0.0
H1369 H 0.81638 0.66376 0.81984 0.0
H1370 H 0.81085 0.65833 0.72424 0.0
H1371 H 0.82261 0.64694 0.77341 0.0
H1372 H 0.80934 0.63729 0.50419 0.0
H1373 H 0.83875 0.61196 0.62669 0.0
H1374 H 0.84251 0.68824 0.55688 0.0
H1375 H 0.81974 0.67689 0.60839 0.0
H1376 H 0.8191 0.6715 0.51243 0.0
H1377 H 0.87534 0.65669 0.71329 0.0
H1378 H 0.86231 0.62971 0.71862 0.0
H1379 H 0.85376 0.64391 0.77029 0.0
C1380 C 0.95423 0.50921 0.05506 0.0
C1381 C 0.95209 0.49444 0.10468 0.0
C1382 C 0.9712 0.51888 0.01022 0.0
C1383 C 0.98682 0.51446 0.01859 0.0
C1384 C 0.98552 0.50095 0.07366 0.0
C1385 C 0.96798 0.49082 0.11529 0.0
C1386 C 0.9718 0.53282 0.95107 0.0
C1387 C 0.00228 0.49653 0.08652 0.0
C1388 C 0.02172 0.51814 0.86651 0.0
C1389 C 0.03909 0.53605 0.88435 0.0
C1390 C 0.00405 0.51163 0.90678 0.0
C1391 C 0.00409 0.52302 0.9676 0.0
C1392 C 0.02128 0.54168 0.98305 0.0
C1393 C 0.03841 0.54822 0.93976 0.0
C1394 C 0.98568 0.49207 0.88663 0.0
C1395 C 0.02213 0.55401 0.04844 0.0
H1396 H 0.94219 0.51251 0.04899 0.0
H1397 H 0.96638 0.47951 0.15421 0.0
H1398 H 0.98612 0.54725 0.95281 0.0
H1399 H 0.97094 0.52598 0.8969 0.0
H1400 H 0.95921 0.53589 0.95562 0.0
H1401 H -8e-05 0.48758 0.13688 0.0
H1402 H 0.00335 0.48805 0.03949 0.0
H1403 H 0.01683 0.51069 0.09097 0.0
H1404 H 0.02219 0.50879 0.82324 0.0
H1405 H 0.05174 0.56238 0.95203 0.0
H1406 H 0.97221 0.49376 0.88616 0.0
H1407 H 0.98316 0.48052 0.92799 0.0
H1408 H 0.9872 0.48657 0.83227 0.0
H1409 H 0.00878 0.55587 0.05046 0.0
H1410 H 0.0358 0.56907 0.04836 0.0
H1411 H 0.0221 0.54609 0.09908 0.0
C1412 C 0.47849 0.50838 0.88454 0.0
C1413 C 0.45967 0.50575 0.90232 0.0
C1414 C 0.48634 0.49814 0.92301 0.0
C1415 C 0.4753 0.48545 0.98178 0.0
C1416 C 0.45586 0.482 0.9975 0.0
C1417 C 0.44809 0.49187 0.95624 0.0
C1418 C 0.50683 0.50159 0.90288 0.0
C1419 C 0.44379 0.46891 0.06058 0.0
C1420 C 0.49284 0.45096 0.05623 0.0
C1421 C 0.50666 0.4632 0.1092 0.0
C1422 C 0.48216 0.4578 0.01491 0.0
C1423 C 0.48473 0.47696 0.0296 0.0
C1424 C 0.4974 0.48866 0.08741 0.0
C1425 C 0.50846 0.48173 0.12594 0.0
C1426 C 0.46912 0.44507 0.95284 0.0
C1427 C 0.49994 0.50886 0.10645 0.0
H1428 H 0.48738 0.51904 0.84245 0.0
H1429 H 0.43328 0.48947 0.96846 0.0
H1430 H 0.51767 0.51026 0.9467 0.0
H1431 H 0.5065 0.48708 0.89774 0.0
H1432 H 0.51238 0.50997 0.85078 0.0
H1433 H 0.42832 0.46651 0.06178 0.0
H1434 H 0.44293 0.45413 0.05792 0.0
H1435 H 0.45132 0.47607 0.11267 0.0
H1436 H 0.49111 0.43637 0.04482 0.0
H1437 H 0.51907 0.49114 0.16726 0.0
H1438 H 0.47584 0.45253 0.90017 0.0
H1439 H 0.45402 0.44346 0.95606 0.0
H1440 H 0.46747 0.42991 0.95242 0.0
H1441 H 0.50805 0.51964 0.06177 0.0
H1442 H 0.50849 0.51496 0.15793 0.0
H1443 H 0.48511 0.50779 0.11223 0.0
C1444 C 0.54653 0.04203 0.03364 0.0
C1445 C 0.53546 0.04486 0.0882 0.0
C1446 C 0.53839 0.02398 0.99477 0.0
C1447 C 0.51911 0.00817 0.01347 0.0
C1448 C 0.50855 0.01045 0.07251 0.0
C1449 C 0.51676 0.02892 0.10859 0.0
C1450 C 0.54993 0.02226 0.93128 0.0
C1451 C 0.48823 0.99366 0.09566 0.0
C1452 C 0.48506 0.96961 0.87543 0.0
C1453 C 0.48717 0.95316 0.89417 0.0
C1454 C 0.49622 0.98799 0.91141 0.0
C1455 C 0.50934 0.98969 0.96868 0.0
C1456 C 0.5121 0.97333 0.9857 0.0
C1457 C 0.50128 0.95537 0.94693 0.0
C1458 C 0.4934 0.00535 0.89006 0.0
C1459 C 0.52564 0.97444 0.04731 0.0
H1460 H 0.56126 0.05426 0.01941 0.0
H1461 H 0.50825 0.0311 0.1511 0.0
H1462 H 0.55105 0.00852 0.93626 0.0
H1463 H 0.54182 0.021 0.87972 0.0
H1464 H 0.56529 0.03541 0.9271 0.0
H1465 H 0.48305 0.99711 0.1474 0.0
H1466 H 0.47706 0.99093 0.05245 0.0
H1467 H 0.48864 0.97958 0.10296 0.0
H1468 H 0.4742 0.9679 0.8343 0.0
H1469 H 0.50326 0.94273 0.95986 0.0
H1470 H 0.50815 0.01905 0.88153 0.0
H1471 H 0.4857 0.00855 0.93476 0.0
H1472 H 0.48437 0.00224 0.83945 0.0
H1473 H 0.54076 0.98775 0.04102 0.0
H1474 H 0.52714 0.96085 0.05033 0.0
H1475 H 0.51947 0.97609 0.09993 0.0
C1476 C 0.12852 0.16475 0.06572 0.0
C1477 C 0.13197 0.18237 0.03059 0.0
C1478 C 0.13801 0.15429 0.04194 0.0
C1479 C 0.15153 0.16185 0.98253 0.0
C1480 C 0.15475 0.17937 0.94585 0.0
C1481 C 0.1448 0.18934 0.96998 0.0
C1482 C 0.13395 0.13544 0.08153 0.0
C1483 C 0.1693 0.18803 0.88294 0.0
C1484 C 0.19287 0.14893 0.97922 0.0
C1485 C 0.18621 0.13424 0.92463 0.0
C1486 C 0.18178 0.15814 -0.00202 0.0
C1487 C 0.1634 0.15225 0.96218 0.0
C1488 C 0.15648 0.13732 0.90736 0.0
C1489 C 0.16809 0.12861 0.88868 0.0
C1490 C 0.18982 0.17427 0.05586 0.0
C1491 C 0.13676 0.13047 0.86899 0.0
H1492 H 0.11845 0.15917 0.11211 0.0
H1493 H 0.14755 0.20296 0.94261 0.0
H1494 H 0.12979 0.12307 0.042 0.0
H1495 H 0.14772 0.13796 0.11002 0.0
H1496 H 0.12175 0.13063 0.12245 0.0
H1497 H 0.16924 0.20111 0.85768 0.0
H1498 H 0.18468 0.19286 0.90247 0.0
H1499 H 0.16564 0.17649 0.84032 0.0
H1500 H 0.20695 0.15347 0.00678 0.0
H1501 H 0.16284 0.11718 0.8467 0.0
H1502 H 0.17914 0.1697 0.10214 0.0
H1503 H 0.19141 0.18834 0.03318 0.0
H1504 H 0.2046 0.17741 0.07725 0.0
H1505 H 0.12443 0.1247 0.90956 0.0
H1506 H 0.13341 0.11852 0.82822 0.0
H1507 H 0.13695 0.14329 0.84078 0.0
C1508 C 0.82688 0.95907 0.09228 0.0
C1509 C 0.80915 0.94548 0.05636 0.0
C1510 C 0.83747 0.97931 0.07178 0.0
C1511 C 0.82993 0.98613 0.01495 0.0
C1512 C 0.81201 0.97251 0.9787 0.0
C1513 C 0.80192 0.9523 -0.00056 0.0
C1514 C 0.85672 0.99337 0.11083 0.0
C1515 C 0.80336 0.97932 0.91861 0.0
C1516 C 0.84634 0.04139 0.00946 0.0
C1517 C 0.86042 0.04824 0.9526 0.0
C1518 C 0.83627 0.02118 0.03018 0.0
C1519 C 0.84064 0.00759 0.99398 0.0
C1520 C 0.85501 0.01445 0.93721 0.0
C1521 C 0.86461 0.03469 0.91673 0.0
C1522 C 0.82079 0.01432 0.09021 0.0
C1523 C 0.86026 0.00043 0.89822 0.0
H1524 H 0.83261 0.95386 0.13599 0.0
H1525 H 0.78815 0.94189 0.97177 0.0
H1526 H 0.86914 0.00071 0.07085 0.0
H1527 H 0.85525 0.0054 0.1383 0.0
H1528 H 0.86085 0.98556 0.15238 0.0
H1529 H 0.78921 0.96684 0.89622 0.0
H1530 H 0.80034 0.99106 0.93964 0.0
H1531 H 0.81432 0.98609 0.87342 0.0
H1532 H 0.84295 0.05177 0.0371 0.0
H1533 H 0.87557 0.03993 0.87308 0.0
H1534 H 0.825 0.00758 0.13545 0.0
H1535 H 0.80606 0.00255 0.06916 0.0
H1536 H 0.81907 0.02678 0.11255 0.0
H1537 H 0.86538 0.99313 0.93823 0.0
H1538 H 0.87219 0.00826 0.85668 0.0
H1539 H 0.84679 0.98837 0.87074 0.0
C1540 C 0.95797 0.81168 0.99312 0.0
C1541 C 0.95007 0.81798 0.93681 0.0
C1542 C 0.97824 0.82285 0.01223 0.0
C1543 C 0.99084 0.84096 0.975 0.0
C1544 C 0.98292 0.84765 0.91906 0.0
C1545 C 0.96262 0.83595 0.90006 0.0
C1546 C 0.98623 0.81505 0.07133 0.0
C1547 C 0.99589 0.86707 0.87913 0.0
C1548 C 0.03945 0.87549 0.07302 0.0
C1549 C 0.05287 0.87107 0.03732 0.0
C1550 C 0.01934 0.86645 0.05116 0.0
C1551 C 0.01248 0.85242 0.99325 0.0
C1552 C 0.02605 0.84824 0.956 0.0
C1553 C 0.04612 0.85774 0.9781 0.0
C1554 C 0.00534 0.87153 0.0912 0.0
C1555 C 0.01921 0.83312 0.89472 0.0
H1556 H 0.94838 0.79774 0.02144 0.0
H1557 H 0.95654 0.84096 0.85685 0.0
H1558 H -0.00179 0.81263 0.04873 0.0
H1559 H 0.993 0.82624 0.1158 0.0
H1560 H 0.9744 0.80072 0.09514 0.0
H1561 H 0.9872 0.87064 0.83954 0.0
H1562 H 0.00324 0.87958 0.91877 0.0
H1563 H 0.00795 0.86623 0.84919 0.0
H1564 H 0.04463 0.88592 0.11837 0.0
H1565 H 0.05639 0.85421 0.95034 0.0
H1566 H 0.99406 0.85822 0.12181 0.0
H1567 H 0.99707 0.87566 0.05178 0.0
H1568 H 0.01339 0.88407 0.13034 0.0
H1569 H 0.00828 0.81806 0.91601 0.0
H1570 H 0.03185 0.83229 0.86911 0.0
H1571 H 0.01148 0.83692 0.85194 0.0
C1572 C 0.86056 0.82526 0.89785 0.0
C1573 C 0.8583 0.80813 0.93326 0.0
C1574 C 0.85026 0.83485 0.92251 0.0
C1575 C 0.83711 0.82685 0.98293 0.0
C1576 C 0.83438 0.80926 0.01762 0.0
C1577 C 0.84515 0.80022 0.99276 0.0
C1578 C 0.85376 0.85378 0.88497 0.0
C1579 C 0.82018 0.80005 0.08123 0.0
C1580 C 0.82407 0.86081 0.09091 0.0
C1581 C 0.80581 0.85647 0.05902 0.0
C1582 C 0.83449 0.85132 0.06643 0.0
C1583 C 0.8262 0.83688 0.00994 0.0
C1584 C 0.80752 0.83207 0.97896 0.0
C1585 C 0.79764 0.84207 0.00342 0.0
C1586 C 0.85457 0.85705 0.09983 0.0
C1587 C 0.79799 0.81644 0.91977 0.0
H1588 H 0.87082 0.8315 0.8522 0.0
H1589 H 0.84326 0.78692 0.02011 0.0
H1590 H 0.83943 0.85178 0.86339 0.0
H1591 H 0.85955 0.86627 0.92488 0.0
H1592 H 0.86459 0.85814 0.83915 0.0
H1593 H 0.81931 0.78597 0.10056 0.0
H1594 H 0.82507 0.81077 0.12742 0.0
H1595 H 0.80494 0.79676 0.06538 0.0
H1596 H 0.83049 0.87204 0.13351 0.0
H1597 H 0.78345 0.83856 0.97891 0.0
H1598 H 0.86628 0.86286 0.05682 0.0
H1599 H 0.8542 0.84368 0.12404 0.0
H1600 H 0.85898 0.86865 0.14292 0.0
H1601 H 0.80788 0.82097 0.87114 0.0
H1602 H 0.78313 0.8141 0.90281 0.0
H1603 H 0.79611 0.80195 0.93911 0.0
C1604 C 0.17807 0.03645 0.89237 0.0
C1605 C 0.19507 0.05152 0.92763 0.0
C1606 C 0.16843 0.01669 0.91856 0.0
C1607 C 0.17626 0.01191 0.98047 0.0
C1608 C 0.19377 0.02695 0.01488 0.0
C1609 C 0.20285 0.04661 0.98844 0.0
C1610 C 0.1496 0.00104 0.88113 0.0
C1611 C 0.20281 0.02235 0.08004 0.0
C1612 C 0.14119 0.96567 0.09001 0.0
C1613 C 0.14513 0.95131 0.0597 0.0
C1614 C 0.15133 0.98554 0.06501 0.0
C1615 C 0.16601 0.99118 0.00961 0.0
C1616 C 0.1706 0.97691 0.98097 0.0
C1617 C 0.15997 0.9571 0.00589 0.0
C1618 C 0.14584 0.00032 0.09599 0.0
C1619 C 0.18648 0.98247 0.92307 0.0
H1620 H 0.17194 0.0402 0.84566 0.0
H1621 H 0.21608 0.05818 0.01568 0.0
H1622 H 0.15162 0.98853 0.86167 0.0
H1623 H 0.13698 0.99465 0.92056 0.0
H1624 H 0.14543 0.00722 0.83384 0.0
H1625 H 0.21711 0.03553 0.09781 0.0
H1626 H 0.19217 0.01735 0.12651 0.0
H1627 H 0.20563 0.00992 0.06687 0.0
H1628 H 0.12962 0.96121 0.13117 0.0
H1629 H 0.16316 0.94606 0.98266 0.0
H1630 H 0.14004 0.00589 0.05179 0.0
H1631 H 0.15931 0.01348 0.11892 0.0
H1632 H 0.1343 0.99361 0.13951 0.0
H1633 H 0.18194 0.987 0.87233 0.0
H1634 H 0.18909 0.96989 0.90993 0.0
H1635 H 0.20081 0.99548 0.94139 0.0
C1636 C 0.96063 0.13482 0.91123 0.0
C1637 C 0.94626 0.13732 0.94928 0.0
C1638 C 0.98075 0.14484 0.93348 0.0
C1639 C 0.98662 0.1579 0.99436 0.0
C1640 C 0.97224 0.16073 0.03223 0.0
C1641 C 0.95222 0.1503 0.00954 0.0
C1642 C 0.99568 0.14129 0.89242 0.0
C1643 C 0.97799 0.17479 0.09662 0.0
C1644 C 0.03484 0.17051 0.09277 0.0
C1645 C 0.04844 0.18879 0.06017 0.0
C1646 C 0.01462 0.16026 0.07186 0.0
C1647 C 0.00785 0.16872 0.01819 0.0
C1648 C 0.02139 0.18747 0.98675 0.0
C1649 C 0.04157 0.19719 0.00767 0.0
C1650 C 0.00062 0.14016 0.10587 0.0
C1651 C 0.01462 0.19716 0.93049 0.0
H1652 H 0.9561 0.12473 0.86491 0.0
H1653 H 0.94122 0.1524 0.03904 0.0
H1654 H 0.00772 0.15561 0.86954 0.0
H1655 H 0.00289 0.13555 0.93031 0.0
H1656 H 0.98863 0.13041 0.84706 0.0
H1657 H 0.96497 0.17538 0.11981 0.0
H1658 H 0.98469 0.17002 0.14025 0.0
H1659 H 0.9895 0.19013 0.0798 0.0
H1660 H 0.04012 0.1639 0.13301 0.0
H1661 H 0.05199 0.21141 0.9827 0.0
H1662 H 0.99429 0.12848 0.06281 0.0
H1663 H 0.98787 0.14051 0.13247 0.0
H1664 H 0.00823 0.13572 0.14716 0.0
H1665 H 0.00889 0.18748 0.8814 0.0
H1666 H 0.02689 0.21215 0.91348 0.0
H1667 H 0.00212 0.1988 0.9526 0.0
C1668 C 0.85226 0.47822 0.3455 0.0
C1669 C 0.84624 0.4646 0.28728 0.0
C1670 C 0.84108 0.48722 0.36558 0.0
C1671 C 0.82324 0.48223 0.32735 0.0
C1672 C 0.81664 0.46793 0.27033 0.0
C1673 C 0.82835 0.45941 0.2504 0.0
C1674 C 0.84879 0.50266 0.42591 0.0
C1675 C 0.79746 0.46197 0.22941 0.0
C1676 C 0.78958 0.49825 0.4209 0.0
C1677 C 0.79491 0.51624 0.38447 0.0
C1678 C 0.79801 0.48648 0.40072 0.0
C1679 C 0.81239 0.49313 0.34398 0.0
C1680 C 0.81756 0.5111 0.30628 0.0
C1681 C 0.80862 0.52233 0.32654 0.0
C1682 C 0.79185 0.46717 0.44105 0.0
C1683 C 0.83312 0.51888 0.24633 0.0
H1684 H 0.8661 0.48236 0.37415 0.0
H1685 H 0.82354 0.44876 0.20579 0.0
H1686 H 0.85218 0.51742 0.40361 0.0
H1687 H 0.83718 0.49851 0.46865 0.0
H1688 H 0.86257 0.50432 0.45186 0.0
H1689 H 0.79347 0.4493 0.19135 0.0
H1690 H 0.78492 0.45764 0.26834 0.0
H1691 H 0.79904 0.47492 0.19749 0.0
H1692 H 0.77883 0.49337 0.46522 0.0
H1693 H 0.81286 0.53625 0.2983 0.0
H1694 H 0.8047 0.46857 0.47308 0.0
H1695 H 0.78749 0.45471 0.40173 0.0
H1696 H 0.77914 0.46317 0.47894 0.0
H1697 H 0.84781 0.52213 0.26889 0.0
H1698 H 0.83491 0.53275 0.22074 0.0
H1699 H 0.82899 0.50736 0.20327 0.0
C1700 C 0.54 0.37269 0.24693 0.0
C1701 C 0.53457 0.38511 0.28442 0.0
C1702 C 0.53157 0.35239 0.26558 0.0
C1703 C 0.51709 0.34432 0.32196 0.0
C1704 C 0.51175 0.35686 0.36053 0.0
C1705 C 0.52068 0.37714 0.34172 0.0
C1706 C 0.53788 0.33951 0.22425 0.0
C1707 C 0.49611 0.34872 0.42015 0.0
C1708 C 0.47832 0.28914 0.31806 0.0
C1709 C 0.48482 0.28162 0.37504 0.0
C1710 C 0.48889 0.30948 0.29952 0.0
C1711 C 0.5066 0.32255 0.33803 0.0
C1712 C 0.51361 0.31497 0.39414 0.0
C1713 C 0.5025 0.29459 0.41254 0.0
C1714 C 0.48077 0.31708 0.24019 0.0
C1715 C 0.53265 0.32845 0.43539 0.0
H1716 H 0.55086 0.37882 0.20301 0.0
H1717 H 0.51635 0.38664 0.37073 0.0
H1718 H 0.54258 0.33156 0.26296 0.0
H1719 H 0.52501 0.32793 0.19266 0.0
H1720 H 0.55041 0.34839 0.18586 0.0
H1721 H 0.49405 0.36059 0.44616 0.0
H1722 H 0.48152 0.33719 0.39719 0.0
H1723 H 0.50034 0.34134 0.46296 0.0
H1724 H 0.46461 0.27922 0.28907 0.0
H1725 H 0.50767 0.28881 0.45622 0.0
H1726 H 0.49223 0.32481 0.19718 0.0
H1727 H 0.47715 0.32821 0.26334 0.0
H1728 H 0.46704 0.30485 0.21438 0.0
H1729 H 0.54519 0.33679 0.3966 0.0
H1730 H 0.53681 0.31996 0.47374 0.0
H1731 H 0.5308 0.33969 0.46699 0.0
C1732 C 0.71543 0.19195 0.29897 0.0
C1733 C 0.72124 0.20454 0.36025 0.0
C1734 C 0.69557 0.18227 0.27417 0.0
C1735 C 0.68129 0.18553 0.31085 0.0
C1736 C 0.68727 0.19897 0.37049 0.0
C1737 C 0.70716 0.20819 0.39494 0.0
C1738 C 0.68969 0.16783 0.21096 0.0
C1739 C 0.67252 0.2031 0.41 0.0
C1740 C 0.63132 0.16857 0.21763 0.0
C1741 C 0.61898 0.15044 0.25381 0.0
C1742 C 0.65165 0.18034 0.23613 0.0
C1743 C 0.65981 0.17357 0.29091 0.0
C1744 C 0.64745 0.15518 0.32698 0.0
C1745 C 0.62715 0.14394 0.30847 0.0
C1746 C 0.66434 0.20006 0.19755 0.0
C1747 C 0.6557 0.14729 0.38483 0.0
H1748 H 0.72623 0.18907 0.27185 0.0
H1749 H 0.71161 0.21809 0.4418 0.0
H1750 H 0.67937 0.15238 0.2305 0.0
H1751 H 0.68156 0.17136 0.16893 0.0
H1752 H 0.70286 0.16812 0.18496 0.0
H1753 H 0.67997 0.21546 0.45026 0.0
H1754 H 0.66414 0.20704 0.37041 0.0
H1755 H 0.66141 0.18942 0.43932 0.0
H1756 H 0.62503 0.1737 0.17563 0.0
H1757 H 0.61771 0.12986 0.33619 0.0
H1758 H 0.67698 0.19995 0.16905 0.0
H1759 H 0.67091 0.21242 0.23802 0.0
H1760 H 0.65563 0.20332 0.157 0.0
H1761 H 0.66821 0.14577 0.362 0.0
H1762 H 0.64415 0.13249 0.40647 0.0
H1763 H 0.66181 0.15802 0.43095 0.0
C1764 C 0.51347 0.1325 0.31195 0.0
C1765 C 0.527 0.1408 0.25371 0.0
C1766 C 0.50266 0.14147 0.3371 0.0
C1767 C 0.50578 0.15939 0.30412 0.0
C1768 C 0.51927 0.16776 0.24479 0.0
C1769 C 0.52957 0.15821 0.21967 0.0
C1770 C 0.48806 0.13185 0.39938 0.0
C1771 C 0.52322 0.18707 0.20919 0.0
C1772 C 0.46743 0.17605 0.32562 0.0
C1773 C 0.47578 0.19009 0.38234 0.0
C1774 C 0.47679 0.16559 0.30075 0.0
C1775 C 0.49516 0.16958 0.33241 0.0
C1776 C 0.50355 0.18354 0.39034 0.0
C1777 C 0.49361 0.19348 0.41524 0.0
C1778 C 0.46714 0.15046 0.24007 0.0
C1779 C 0.52331 0.18841 0.42451 0.0
H1780 H 0.51132 0.11895 0.33812 0.0
H1781 H 0.54012 0.16473 0.17498 0.0
H1782 H 0.49294 0.14209 0.44705 0.0
H1783 H 0.47302 0.12912 0.38316 0.0
H1784 H 0.48671 0.11741 0.41669 0.0
H1785 H 0.53418 0.19159 0.1637 0.0
H1786 H 0.50907 0.18551 0.1876 0.0
H1787 H 0.52909 0.19927 0.25034 0.0
H1788 H 0.45355 0.17328 0.30035 0.0
H1789 H 0.50018 0.20442 0.45873 0.0
H1790 H 0.46503 0.13574 0.25751 0.0
H1791 H 0.47706 0.15528 0.19151 0.0
H1792 H 0.45238 0.14848 0.22367 0.0
H1793 H 0.52245 0.17463 0.44685 0.0
H1794 H 0.52776 0.19959 0.46917 0.0
H1795 H 0.53524 0.19441 0.3823 0.0
C1796 C 0.82889 0.29171 0.34793 0.0
C1797 C 0.81321 0.28526 0.39859 0.0
C1798 C 0.83979 0.31181 0.32614 0.0
C1799 C 0.83464 0.32567 0.35476 0.0
C1800 C 0.81922 0.31938 0.40754 0.0
C1801 C 0.8088 0.29925 0.42939 0.0
C1802 C 0.85645 0.31807 0.27101 0.0
C1803 C 0.81318 0.33373 0.43868 0.0
C1804 C 0.87021 0.38156 0.33878 0.0
C1805 C 0.86235 0.38645 0.27812 0.0
C1806 C 0.86165 0.36175 0.36333 0.0
C1807 C 0.84468 0.34652 0.32691 0.0
C1808 C 0.83692 0.35127 0.26475 0.0
C1809 C 0.84597 0.37119 0.2407 0.0
C1810 C 0.87057 0.35718 0.42895 0.0
C1811 C 0.8187 0.33542 0.225 0.0
H1812 H 0.83249 0.28098 0.32452 0.0
H1813 H 0.79664 0.29431 0.46833 0.0
H1814 H 0.85232 0.32265 0.21944 0.0
H1815 H 0.87037 0.33121 0.29144 0.0
H1816 H 0.85964 0.30583 0.25863 0.0
H1817 H 0.80141 0.32664 0.48125 0.0
H1818 H 0.82636 0.34693 0.46284 0.0
H1819 H 0.80744 0.33931 0.39429 0.0
H1820 H 0.88297 0.39328 0.3677 0.0
H1821 H 0.83979 0.37488 0.194 0.0
H1822 H 0.87425 0.34537 0.41517 0.0
H1823 H 0.85948 0.35132 0.47404 0.0
H1824 H 0.88435 0.3706 0.44894 0.0
H1825 H 0.82135 0.32327 0.20607 0.0
H1826 H 0.8147 0.34155 0.17705 0.0
H1827 H 0.8057 0.32857 0.26277 0.0
C1828 C 0.7095 0.53788 0.34397 0.0
C1829 C 0.71512 0.52933 0.40023 0.0
C1830 C 0.68961 0.52885 0.32007 0.0
C1831 C 0.67509 0.51064 0.35226 0.0
C1832 C 0.68057 0.50214 0.41011 0.0
C1833 C 0.70052 0.51174 0.43401 0.0
C1834 C 0.68422 0.5386 0.25944 0.0
C1835 C 0.66552 0.48255 0.44491 0.0
C1836 C 0.61964 0.49216 0.33207 0.0
C1837 C 0.61438 0.47835 0.27477 0.0
C1838 C 0.63947 0.50322 0.35653 0.0
C1839 C 0.65429 0.50008 0.32381 0.0
C1840 C 0.64915 0.48641 0.26511 0.0
C1841 C 0.62926 0.47585 0.2407 0.0
C1842 C 0.64449 0.51801 0.41812 0.0
C1843 C 0.66453 0.48244 0.22974 0.0
H1844 H 0.72073 0.55158 0.31807 0.0
H1845 H 0.70483 0.50503 0.4772 0.0
H1846 H 0.67922 0.52876 0.21068 0.0
H1847 H 0.67157 0.54068 0.2766 0.0
H1848 H 0.69703 0.55339 0.24344 0.0
H1849 H 0.67213 0.47814 0.49014 0.0
H1850 H 0.65265 0.4836 0.46661 0.0
H1851 H 0.65955 0.47049 0.4032 0.0
H1852 H 0.60821 0.49425 0.35824 0.0
H1853 H 0.62522 0.4651 0.19671 0.0
H1854 H 0.65686 0.53297 0.40154 0.0
H1855 H 0.64975 0.51321 0.46628 0.0
H1856 H 0.63142 0.51948 0.43482 0.0
H1857 H 0.67716 0.49658 0.20826 0.0
H1858 H 0.65813 0.47149 0.18423 0.0
H1859 H 0.67079 0.47653 0.27103 0.0
C1860 C 0.52098 0.80939 0.68226 0.0
C1861 C 0.51388 0.79553 0.62474 0.0
C1862 C 0.5107 0.81924 0.70385 0.0
C1863 C 0.4927 0.81485 0.66789 0.0
C1864 C 0.48514 0.80045 0.61122 0.0
C1865 C 0.49594 0.79109 0.5898 0.0
C1866 C 0.51939 0.83477 0.76369 0.0
C1867 C 0.46581 0.79516 0.57253 0.0
C1868 C 0.45905 0.83072 0.76273 0.0
C1869 C 0.4638 0.84838 0.72498 0.0
C1870 C 0.46807 0.81939 0.74386 0.0
C1871 C 0.48241 0.82614 0.68696 0.0
C1872 C 0.48728 0.84397 0.64884 0.0
C1873 C 0.47779 0.85478 0.66789 0.0
C1874 C 0.46227 0.80025 0.78477 0.0
C1875 C 0.50276 0.85182 0.58865 0.0
H1876 H 0.53488 0.81294 0.70929 0.0
H1877 H 0.49028 0.78025 0.54576 0.0
H1878 H 0.52302 0.84962 0.74166 0.0
H1879 H 0.50826 0.83103 0.80796 0.0
H1880 H 0.53322 0.83601 0.78755 0.0
H1881 H 0.46129 0.78267 0.53312 0.0
H1882 H 0.45358 0.79084 0.61286 0.0
H1883 H 0.46749 0.80841 0.5425 0.0
H1884 H 0.44817 0.82566 0.8066 0.0
H1885 H 0.48163 0.86849 0.63883 0.0
H1886 H 0.47554 0.80147 0.8132 0.0
H1887 H 0.45693 0.78756 0.74588 0.0
H1888 H 0.45033 0.7967 0.82578 0.0
H1889 H 0.51736 0.85452 0.61019 0.0
H1890 H 0.50489 0.866 0.56466 0.0
H1891 H 0.49825 0.84053 0.54451 0.0
C1892 C 0.2012 0.70486 0.5778 0.0
C1893 C 0.1964 0.71779 0.61512 0.0
C1894 C 0.19196 0.68447 0.59619 0.0
C1895 C 0.17733 0.67685 0.65211 0.0
C1896 C 0.17251 0.68986 0.69015 0.0
C1897 C 0.18224 0.7102 0.67162 0.0
C1898 C 0.1977 0.67106 0.55539 0.0
C1899 C 0.15671 0.6822 0.74923 0.0
C1900 C 0.13748 0.62199 0.64979 0.0
C1901 C 0.14365 0.61432 0.7073 0.0
C1902 C 0.1485 0.64227 0.63055 0.0
C1903 C 0.16631 0.65511 0.66893 0.0
C1904 C 0.17296 0.64737 0.72567 0.0
C1905 C 0.16142 0.62707 0.74472 0.0
C1906 C 0.14075 0.65006 0.57056 0.0
C1907 C 0.19209 0.66059 0.76687 0.0
H1908 H 0.21226 0.71069 0.53446 0.0
H1909 H 0.17838 0.72009 0.70043 0.0
H1910 H 0.2022 0.66303 0.59448 0.0
H1911 H 0.1846 0.65956 0.5245 0.0
H1912 H 0.2102 0.67955 0.51648 0.0
H1913 H 0.15495 0.69436 0.77426 0.0
H1914 H 0.14207 0.67084 0.72614 0.0
H1915 H 0.1606 0.67474 0.79284 0.0
H1916 H 0.12371 0.61225 0.62084 0.0
H1917 H 0.16635 0.62117 0.78881 0.0
H1918 H 0.1523 0.65747 0.5276 0.0
H1919 H 0.13748 0.66149 0.59305 0.0
H1920 H 0.12689 0.63799 0.54486 0.0
H1921 H 0.20472 0.66854 0.72809 0.0
H1922 H 0.19589 0.65197 0.80594 0.0
H1923 H 0.19059 0.67216 0.79767 0.0
C1924 C 0.28805 0.49579 0.59103 0.0
C1925 C 0.27423 0.47801 0.62614 0.0
C1926 C 0.3081 0.50646 0.61369 0.0
C1927 C 0.31452 0.49893 0.67186 0.0
C1928 C 0.30058 0.48116 0.70821 0.0
C1929 C 0.28056 0.471 0.6853 0.0
C1930 C 0.3225 0.52556 0.57451 0.0
C1931 C 0.30696 0.47251 0.7697 0.0
C1932 C 0.3691 0.51291 0.67457 0.0
C1933 C 0.37681 0.52722 0.73057 0.0
C1934 C 0.34884 0.50358 0.65518 0.0
C1935 C 0.33604 0.50894 0.6918 0.0
C1936 C 0.34375 0.52355 0.74777 0.0
C1937 C 0.36405 0.5324 0.76704 0.0
C1938 C 0.34108 0.4878 0.59603 0.0
C1939 C 0.33057 0.52985 0.78707 0.0
H1940 H 0.28319 0.50139 0.54573 0.0
H1941 H 0.26997 0.45723 0.71253 0.0
H1942 H 0.33051 0.53788 0.61441 0.0
H1943 H 0.33396 0.52349 0.54542 0.0
H1944 H 0.31482 0.53019 0.5342 0.0
H1945 H 0.29412 0.45898 0.7941 0.0
H1946 H 0.31796 0.46839 0.7491 0.0
H1947 H 0.31448 0.48384 0.81327 0.0
H1948 H 0.37886 0.50874 0.64653 0.0
H1949 H 0.36997 0.54354 0.81005 0.0
H1950 H 0.33465 0.49234 0.55072 0.0
H1951 H 0.32889 0.47343 0.61803 0.0
H1952 H 0.35298 0.48522 0.5735 0.0
H1953 H 0.3236 0.53535 0.74712 0.0
H1954 H 0.33901 0.54182 0.82789 0.0
H1955 H 0.31822 0.51679 0.81542 0.0
C1956 C 0.14993 0.52429 0.7562 0.0
C1957 C 0.13331 0.52238 0.71796 0.0
C1958 C 0.15961 0.51391 0.73362 0.0
C1959 C 0.15224 0.50104 0.67228 0.0
C1960 C 0.13516 0.49864 0.63466 0.0
C1961 C 0.12599 0.50948 0.6576 0.0
C1962 C 0.178 0.51705 0.7744 0.0
C1963 C 0.12664 0.48476 0.56988 0.0
C1964 C 0.18805 0.48893 0.57275 0.0
C1965 C 0.18354 0.47066 0.605 0.0
C1966 C 0.17787 0.49895 0.59383 0.0
C1967 C 0.16256 0.49024 0.64719 0.0
C1968 C 0.15748 0.47147 0.67802 0.0
C1969 C 0.16817 0.46199 0.65707 0.0
C1970 C 0.1839 0.51913 0.56065 0.0
C1971 C 0.14095 0.46151 0.73388 0.0
H1972 H 0.15571 0.53433 0.80259 0.0
H1973 H 0.11308 0.50785 0.62802 0.0
H1974 H 0.17561 0.50255 0.79583 0.0
H1975 H 0.19098 0.52298 0.73664 0.0
H1976 H 0.18185 0.52764 0.82078 0.0
H1977 H 0.11288 0.48414 0.54808 0.0
H1978 H 0.13792 0.48977 0.52553 0.0
H1979 H 0.12301 0.4694 0.58557 0.0
H1980 H 0.2 0.49573 0.53281 0.0
H1981 H 0.16452 0.44777 0.68171 0.0
H1982 H 0.18929 0.53069 0.60415 0.0
H1983 H 0.17077 0.51885 0.53462 0.0
H1984 H 0.1959 0.52369 0.5191 0.0
H1985 H 0.14486 0.47092 0.78366 0.0
H1986 H 0.13819 0.44642 0.74973 0.0
H1987 H 0.12684 0.46001 0.71201 0.0
C1988 C 0.48095 0.61573 0.67294 0.0
C1989 C 0.46804 0.61036 0.73326 0.0
C1990 C 0.49166 0.63559 0.64863 0.0
C1991 C 0.48913 0.65039 0.68476 0.0
C1992 C 0.47621 0.64512 0.74593 0.0
C1993 C 0.46596 0.62517 0.76996 0.0
C1994 C 0.50559 0.64071 0.58411 0.0
C1995 C 0.47294 0.66049 0.78508 0.0
C1996 C 0.52846 0.70517 0.66602 0.0
C1997 C 0.52001 0.71163 0.61225 0.0
C1998 C 0.51877 0.68517 0.68903 0.0
C1999 C 0.49998 0.6714 0.6585 0.0
C2000 C 0.49144 0.67777 0.60361 0.0
C2001 C 0.50169 0.69781 0.58051 0.0
C2002 C 0.52855 0.67883 0.74647 0.0
C2003 C 0.47126 0.66354 0.57069 0.0
H2004 H 0.48271 0.60437 0.64455 0.0
H2005 H 0.45591 0.62107 0.81629 0.0
H2006 H 0.50055 0.6467 0.53887 0.0
H2007 H 0.52092 0.65258 0.59949 0.0
H2008 H 0.50633 0.62753 0.56361 0.0
H2009 H 0.46225 0.65391 0.83126 0.0
H2010 H 0.48737 0.67269 0.80648 0.0
H2011 H 0.46708 0.66738 0.74624 0.0
H2012 H 0.54271 0.71578 0.69033 0.0
H2013 H 0.49505 0.70279 0.53931 0.0
H2014 H 0.53018 0.66618 0.72588 0.0
H2015 H 0.51895 0.67346 0.79584 0.0
H2016 H 0.54356 0.69124 0.76262 0.0
H2017 H 0.47152 0.65056 0.54565 0.0
H2018 H 0.46676 0.67084 0.52837 0.0
H2019 H 0.45968 0.65757 0.61415 0.0
C2020 C 0.29433 0.80526 0.57479 0.0
C2021 C 0.27992 0.80838 0.60948 0.0
C2022 C 0.31425 0.81505 0.59922 0.0
C2023 C 0.3199 0.82859 0.65857 0.0
C2024 C 0.30553 0.83221 0.69243 0.0
C2025 C 0.28566 0.8219 0.66793 0.0
C2026 C 0.32913 0.81055 0.56268 0.0
C2027 C 0.31109 0.84688 0.75479 0.0
C2028 C 0.36644 0.83986 0.76633 0.0
C2029 C 0.38097 0.8575 0.7326 0.0
C2030 C 0.34644 0.83028 0.74283 0.0
C2031 C 0.34085 0.83884 0.68553 0.0
C2032 C 0.35535 0.85701 0.65299 0.0
C2033 C 0.37528 0.86601 0.67642 0.0
C2034 C 0.33142 0.8107 0.77782 0.0
C2035 C 0.34987 0.86684 0.59294 0.0
H2036 H 0.28993 0.79471 0.52996 0.0
H2037 H 0.27459 0.82445 0.69468 0.0
H2038 H 0.3418 0.8245 0.54021 0.0
H2039 H 0.33543 0.80455 0.60344 0.0
H2040 H 0.32227 0.79951 0.51766 0.0
H2041 H 0.29826 0.84853 0.77326 0.0
H2042 H 0.31651 0.84184 0.80184 0.0
H2043 H 0.3235 0.86179 0.73803 0.0
H2044 H 0.37082 0.83319 0.80943 0.0
H2045 H 0.38645 0.87974 0.65055 0.0
H2046 H 0.32506 0.79871 0.73589 0.0
H2047 H 0.31879 0.81193 0.80109 0.0
H2048 H 0.33817 0.8061 0.82192 0.0
H2049 H 0.34429 0.85685 0.54464 0.0
H2050 H 0.36278 0.88142 0.57574 0.0
H2051 H 0.33759 0.86935 0.61146 0.0
loop_
_geom_bond_atom_site_label_1
_geom_bond_atom_site_label_2
_geom_bond_distance
_geom_bond_site_symmetry_2
_ccdc_geom_bond_type
Co0 O3 1.970 . S
Co0 N17 1.989 . S
Co0 O25 1.967 . S
Co0 O32 1.920 1_554 S
Co1 O4 1.966 . S
Co1 N10 2.022 . S
Co1 N18 1.993 . S
Co1 O26 1.941 . S
C2 O3 1.258 . S
C2 O4 1.263 . S
O3 Co0 1.970 . S
O3 C2 1.258 . S
O4 Co1 1.966 . S
O4 C2 1.263 . S
C5 O6 1.235 . S
C5 O32 1.289 . S
O6 C5 1.235 . S
C7 C9 1.400 . S
C7 N10 1.351 . S
C7 C12 1.501 . S
C8 C9 1.387 . S
C8 N11 1.341 . S
C9 C7 1.400 . S
C9 C8 1.387 . S
N10 Co1 2.022 . S
N10 C7 1.351 . S
N10 N11 1.365 . S
N11 C8 1.341 . S
N11 N10 1.365 . S
N11 H31 0.862 . S
C12 C7 1.501 . S
C12 H13 0.961 . S
C12 H14 0.961 . S
C12 H15 0.960 . S
H13 C12 0.961 . S
H14 C12 0.961 . S
H15 C12 0.960 . S
C16 N17 1.342 . S
C16 C20 1.401 . S
C16 C21 1.499 . S
N17 Co0 1.989 . S
N17 C16 1.342 . S
N17 N18 1.388 . S
N18 Co1 1.993 . S
N18 N17 1.388 . S
N18 C19 1.346 . S
C19 N18 1.346 . S
C19 C20 1.396 . S
C19 C29 1.510 . S
C20 C16 1.401 . S
C20 C19 1.396 . S
C21 C16 1.499 . S
C21 H22 0.959 . S
C21 H23 0.960 . S
C21 H24 0.961 . S
H22 C21 0.959 . S
H23 C21 0.960 . S
H24 C21 0.961 . S
O25 Co0 1.967 . S
O25 C33 1.258 . S
O26 Co1 1.941 . S
O26 C33 1.266 . S
H27 C29 0.959 . S
H28 C29 0.961 . S
C29 C19 1.510 . S
C29 H27 0.959 . S
C29 H28 0.961 . S
C29 H30 0.960 . S
H30 C29 0.960 . S
H31 N11 0.862 . S
O32 Co0 1.920 1_556 S
O32 C5 1.289 . S
C33 O25 1.258 . S
C33 O26 1.266 . S
Co34 O37 1.970 . S
Co34 N51 1.989 . S
Co34 O59 1.967 . S
Co34 O66 1.920 1_554 S
Co35 O38 1.966 . S
Co35 N44 2.022 . S
Co35 N52 1.993 . S
Co35 O60 1.941 . S
C36 O37 1.258 . S
C36 O38 1.263 . S
O37 Co34 1.970 . S
O37 C36 1.258 . S
O38 Co35 1.966 . S
O38 C36 1.263 . S
C39 O40 1.235 . S
C39 O66 1.289 . S
O40 C39 1.235 . S
C41 C43 1.400 . S
C41 N44 1.351 . S
C41 C46 1.501 . S
C42 C43 1.387 . S
C42 N45 1.341 . S
C43 C41 1.400 . S
C43 C42 1.387 . S
N44 Co35 2.022 . S
N44 C41 1.351 . S
N44 N45 1.365 . S
N45 C42 1.341 . S
N45 N44 1.365 . S
N45 H65 0.862 . S
C46 C41 1.501 . S
C46 H47 0.961 . S
C46 H48 0.961 . S
C46 H49 0.960 . S
H47 C46 0.961 . S
H48 C46 0.961 . S
H49 C46 0.960 . S
C50 N51 1.342 . S
C50 C54 1.401 . S
C50 C55 1.499 . S
N51 Co34 1.989 . S
N51 C50 1.342 . S
N51 N52 1.388 . S
N52 Co35 1.993 . S
N52 N51 1.388 . S
N52 C53 1.346 . S
C53 N52 1.346 . S
C53 C54 1.396 . S
C53 C63 1.510 . S
C54 C50 1.401 . S
C54 C53 1.396 . S
C55 C50 1.499 . S
C55 H56 0.959 . S
C55 H57 0.960 . S
C55 H58 0.961 . S
H56 C55 0.959 . S
H57 C55 0.960 . S
H58 C55 0.961 . S
O59 Co34 1.967 . S
O59 C67 1.258 . S
O60 Co35 1.941 . S
O60 C67 1.266 . S
H61 C63 0.959 . S
H62 C63 0.961 . S
C63 C53 1.510 . S
C63 H61 0.959 . S
C63 H62 0.961 . S
C63 H64 0.960 . S
H64 C63 0.960 . S
H65 N45 0.862 . S
O66 Co34 1.920 1_556 S
O66 C39 1.289 . S
C67 O59 1.258 . S
C67 O60 1.266 . S
Co68 O71 1.970 . S
Co68 N85 1.989 . S
Co68 O93 1.967 . S
Co68 O100 1.920 1_554 S
Co69 O72 1.966 . S
Co69 N78 2.022 . S
Co69 N86 1.993 . S
Co69 O94 1.941 . S
C70 O71 1.258 . S
C70 O72 1.263 . S
O71 Co68 1.970 . S
O71 C70 1.258 . S
O72 Co69 1.966 . S
O72 C70 1.263 . S
C73 O74 1.235 . S
C73 O100 1.289 . S
O74 C73 1.235 . S
C75 C77 1.400 . S
C75 N78 1.351 . S
C75 C80 1.501 . S
C76 C77 1.387 . S
C76 N79 1.341 . S
C77 C75 1.400 . S
C77 C76 1.387 . S
N78 Co69 2.022 . S
N78 C75 1.351 . S
N78 N79 1.365 . S
N79 C76 1.341 . S
N79 N78 1.365 . S
N79 H99 0.862 . S
C80 C75 1.501 . S
C80 H81 0.961 . S
C80 H82 0.961 . S
C80 H83 0.960 . S
H81 C80 0.961 . S
H82 C80 0.961 . S
H83 C80 0.960 . S
C84 N85 1.342 . S
C84 C88 1.401 . S
C84 C89 1.499 . S
N85 Co68 1.989 . S
N85 C84 1.342 . S
N85 N86 1.388 . S
N86 Co69 1.993 . S
N86 N85 1.388 . S
N86 C87 1.346 . S
C87 N86 1.346 . S
C87 C88 1.396 . S
C87 C97 1.510 . S
C88 C84 1.401 . S
C88 C87 1.396 . S
C89 C84 1.499 . S
C89 H90 0.959 . S
C89 H91 0.960 . S
C89 H92 0.961 . S
H90 C89 0.959 . S
H91 C89 0.960 . S
H92 C89 0.961 . S
O93 Co68 1.967 . S
O93 C101 1.258 . S
O94 Co69 1.941 . S
O94 C101 1.266 . S
H95 C97 0.959 . S
H96 C97 0.961 . S
C97 C87 1.510 . S
C97 H95 0.959 . S
C97 H96 0.961 . S
C97 H98 0.960 . S
H98 C97 0.960 . S
H99 N79 0.862 . S
O100 Co68 1.920 1_556 S
O100 C73 1.289 . S
C101 O93 1.258 . S
C101 O94 1.266 . S
Co102 O105 1.970 . S
Co102 N119 1.989 . S
Co102 O127 1.967 . S
Co102 O134 1.920 1_556 S
Co103 O106 1.966 . S
Co103 N112 2.022 . S
Co103 N120 1.993 . S
Co103 O128 1.941 . S
C104 O105 1.258 . S
C104 O106 1.263 . S
O105 Co102 1.970 . S
O105 C104 1.258 . S
O106 Co103 1.966 . S
O106 C104 1.263 . S
C107 O108 1.235 . S
C107 O134 1.289 . S
O108 C107 1.235 . S
C109 C111 1.400 . S
C109 N112 1.351 . S
C109 C114 1.501 . S
C110 C111 1.387 . S
C110 N113 1.341 . S
C111 C109 1.400 . S
C111 C110 1.387 . S
N112 Co103 2.022 . S
N112 C109 1.351 . S
N112 N113 1.365 . S
N113 C110 1.341 . S
N113 N112 1.365 . S
N113 H133 0.862 . S
C114 C109 1.501 . S
C114 H115 0.961 . S
C114 H116 0.961 . S
C114 H117 0.960 . S
H115 C114 0.961 . S
H116 C114 0.961 . S
H117 C114 0.960 . S
C118 N119 1.342 . S
C118 C122 1.401 . S
C118 C123 1.499 . S
N119 Co102 1.989 . S
N119 C118 1.342 . S
N119 N120 1.388 . S
N120 Co103 1.993 . S
N120 N119 1.388 . S
N120 C121 1.346 . S
C121 N120 1.346 . S
C121 C122 1.396 . S
C121 C131 1.510 . S
C122 C118 1.401 . S
C122 C121 1.396 . S
C123 C118 1.499 . S
C123 H124 0.959 . S
C123 H125 0.960 . S
C123 H126 0.961 . S
H124 C123 0.959 . S
H125 C123 0.960 . S
H126 C123 0.961 . S
O127 Co102 1.967 . S
O127 C135 1.258 . S
O128 Co103 1.941 . S
O128 C135 1.266 . S
H129 C131 0.959 . S
H130 C131 0.961 . S
C131 C121 1.510 . S
C131 H129 0.959 . S
C131 H130 0.961 . S
C131 H132 0.960 . S
H132 C131 0.960 . S
H133 N113 0.862 . S
O134 Co102 1.920 1_554 S
O134 C107 1.289 . S
C135 O127 1.258 . S
C135 O128 1.266 . S
Co136 O139 1.970 . S
Co136 N153 1.989 . S
Co136 O161 1.967 . S
Co136 O168 1.920 1_556 S
Co137 O140 1.966 . S
Co137 N146 2.022 . S
Co137 N154 1.993 . S
Co137 O162 1.941 . S
C138 O139 1.258 . S
C138 O140 1.263 . S
O139 Co136 1.970 . S
O139 C138 1.258 . S
O140 Co137 1.966 . S
O140 C138 1.263 . S
C141 O142 1.235 . S
C141 O168 1.289 . S
O142 C141 1.235 . S
C143 C145 1.400 . S
C143 N146 1.351 . S
C143 C148 1.501 . S
C144 C145 1.387 . S
C144 N147 1.341 . S
C145 C143 1.400 . S
C145 C144 1.387 . S
N146 Co137 2.022 . S
N146 C143 1.351 . S
N146 N147 1.365 . S
N147 C144 1.341 . S
N147 N146 1.365 . S
N147 H167 0.862 . S
C148 C143 1.501 . S
C148 H149 0.961 . S
C148 H150 0.961 . S
C148 H151 0.960 . S
H149 C148 0.961 . S
H150 C148 0.961 . S
H151 C148 0.960 . S
C152 N153 1.342 . S
C152 C156 1.401 . S
C152 C157 1.499 . S
N153 Co136 1.989 . S
N153 C152 1.342 . S
N153 N154 1.388 . S
N154 Co137 1.993 . S
N154 N153 1.388 . S
N154 C155 1.346 . S
C155 N154 1.346 . S
C155 C156 1.396 . S
C155 C165 1.510 . S
C156 C152 1.401 . S
C156 C155 1.396 . S
C157 C152 1.499 . S
C157 H158 0.959 . S
C157 H159 0.960 . S
C157 H160 0.961 . S
H158 C157 0.959 . S
H159 C157 0.960 . S
H160 C157 0.961 . S
O161 Co136 1.967 . S
O161 C169 1.258 . S
O162 Co137 1.941 . S
O162 C169 1.266 . S
H163 C165 0.959 . S
H164 C165 0.961 . S
C165 C155 1.510 . S
C165 H163 0.959 . S
C165 H164 0.961 . S
C165 H166 0.960 . S
H166 C165 0.960 . S
H167 N147 0.862 . S
O168 Co136 1.920 1_554 S
O168 C141 1.289 . S
C169 O161 1.258 . S
C169 O162 1.266 . S
Co170 O173 1.970 . S
Co170 N187 1.989 . S
Co170 O195 1.967 . S
Co170 O202 1.920 1_556 S
Co171 O174 1.966 . S
Co171 N180 2.022 . S
Co171 N188 1.993 . S
Co171 O196 1.941 . S
C172 O173 1.258 . S
C172 O174 1.263 . S
O173 Co170 1.970 . S
O173 C172 1.258 . S
O174 Co171 1.966 . S
O174 C172 1.263 . S
C175 O176 1.235 . S
C175 O202 1.289 . S
O176 C175 1.235 . S
C177 C179 1.400 . S
C177 N180 1.351 . S
C177 C182 1.501 . S
C178 C179 1.387 . S
C178 N181 1.341 . S
C179 C177 1.400 . S
C179 C178 1.387 . S
N180 Co171 2.022 . S
N180 C177 1.351 . S
N180 N181 1.365 . S
N181 C178 1.341 . S
N181 N180 1.365 . S
N181 H201 0.862 . S
C182 C177 1.501 . S
C182 H183 0.961 . S
C182 H184 0.961 . S
C182 H185 0.960 . S
H183 C182 0.961 . S
H184 C182 0.961 . S
H185 C182 0.960 . S
C186 N187 1.342 . S
C186 C190 1.401 . S
C186 C191 1.499 . S
N187 Co170 1.989 . S
N187 C186 1.342 . S
N187 N188 1.388 . S
N188 Co171 1.993 . S
N188 N187 1.388 . S
N188 C189 1.346 . S
C189 N188 1.346 . S
C189 C190 1.396 . S
C189 C199 1.510 . S
C190 C186 1.401 . S
C190 C189 1.396 . S
C191 C186 1.499 . S
C191 H192 0.959 . S
C191 H193 0.960 . S
C191 H194 0.961 . S
H192 C191 0.959 . S
H193 C191 0.960 . S
H194 C191 0.961 . S
O195 Co170 1.967 . S
O195 C203 1.258 . S
O196 Co171 1.941 . S
O196 C203 1.266 . S
H197 C199 0.959 . S
H198 C199 0.961 . S
C199 C189 1.510 . S
C199 H197 0.959 . S
C199 H198 0.961 . S
C199 H200 0.960 . S
H200 C199 0.960 . S
H201 N181 0.862 . S
O202 Co170 1.920 1_554 S
O202 C175 1.289 . S
C203 O195 1.258 . S
C203 O196 1.266 . S
Co204 O207 1.970 . S
Co204 N221 1.989 . S
Co204 O229 1.967 . S
Co204 O236 1.920 . S
Co205 O208 1.966 . S
Co205 N214 2.022 . S
Co205 N222 1.993 . S
Co205 O230 1.941 . S
C206 O207 1.258 . S
C206 O208 1.263 . S
O207 Co204 1.970 . S
O207 C206 1.258 . S
O208 Co205 1.966 . S
O208 C206 1.263 . S
C209 O210 1.235 . S
C209 O236 1.289 . S
O210 C209 1.235 . S
C211 C213 1.400 . S
C211 N214 1.351 . S
C211 C216 1.501 . S
C212 C213 1.387 . S
C212 N215 1.341 . S
C213 C211 1.400 . S
C213 C212 1.387 . S
N214 Co205 2.022 . S
N214 C211 1.351 . S
N214 N215 1.365 . S
N215 C212 1.341 . S
N215 N214 1.365 . S
N215 H235 0.862 . S
C216 C211 1.501 . S
C216 H217 0.961 . S
C216 H218 0.961 . S
C216 H219 0.960 . S
H217 C216 0.961 . S
H218 C216 0.961 . S
H219 C216 0.960 . S
C220 N221 1.342 . S
C220 C224 1.401 . S
C220 C225 1.499 . S
N221 Co204 1.989 . S
N221 C220 1.342 . S
N221 N222 1.388 . S
N222 Co205 1.993 . S
N222 N221 1.388 . S
N222 C223 1.346 . S
C223 N222 1.346 . S
C223 C224 1.396 . S
C223 C233 1.510 . S
C224 C220 1.401 . S
C224 C223 1.396 . S
C225 C220 1.499 . S
C225 H226 0.959 . S
C225 H227 0.960 . S
C225 H228 0.961 . S
H226 C225 0.959 . S
H227 C225 0.960 . S
H228 C225 0.961 . S
O229 Co204 1.967 . S
O229 C237 1.258 . S
O230 Co205 1.941 . S
O230 C237 1.266 . S
H231 C233 0.959 . S
H232 C233 0.961 . S
C233 C223 1.510 . S
C233 H231 0.959 . S
C233 H232 0.961 . S
C233 H234 0.960 . S
H234 C233 0.960 . S
H235 N215 0.862 . S
O236 Co204 1.920 . S
O236 C209 1.289 . S
C237 O229 1.258 . S
C237 O230 1.266 . S
Co238 O241 1.970 . S
Co238 N255 1.989 . S
Co238 O263 1.967 . S
Co238 O270 1.920 . S
Co239 O242 1.966 . S
Co239 N248 2.022 . S
Co239 N256 1.993 . S
Co239 O264 1.941 . S
C240 O241 1.258 . S
C240 O242 1.263 . S
O241 Co238 1.970 . S
O241 C240 1.258 . S
O242 Co239 1.966 . S
O242 C240 1.263 . S
C243 O244 1.235 . S
C243 O270 1.289 . S
O244 C243 1.235 . S
C245 C247 1.400 . S
C245 N248 1.351 . S
C245 C250 1.501 . S
C246 C247 1.387 . S
C246 N249 1.341 . S
C247 C245 1.400 . S
C247 C246 1.387 . S
N248 Co239 2.022 . S
N248 C245 1.351 . S
N248 N249 1.365 . S
N249 C246 1.341 . S
N249 N248 1.365 . S
N249 H269 0.862 . S
C250 C245 1.501 . S
C250 H251 0.961 . S
C250 H252 0.961 . S
C250 H253 0.960 . S
H251 C250 0.961 . S
H252 C250 0.961 . S
H253 C250 0.960 . S
C254 N255 1.342 . S
C254 C258 1.401 . S
C254 C259 1.499 . S
N255 Co238 1.989 . S
N255 C254 1.342 . S
N255 N256 1.388 . S
N256 Co239 1.993 . S
N256 N255 1.388 . S
N256 C257 1.346 . S
C257 N256 1.346 . S
C257 C258 1.396 . S
C257 C267 1.510 . S
C258 C254 1.401 . S
C258 C257 1.396 . S
C259 C254 1.499 . S
C259 H260 0.959 . S
C259 H261 0.960 . S
C259 H262 0.961 . S
H260 C259 0.959 . S
H261 C259 0.960 . S
H262 C259 0.961 . S
O263 Co238 1.967 . S
O263 C271 1.258 . S
O264 Co239 1.941 . S
O264 C271 1.266 . S
H265 C267 0.959 . S
H266 C267 0.961 . S
C267 C257 1.510 . S
C267 H265 0.959 . S
C267 H266 0.961 . S
C267 H268 0.960 . S
H268 C267 0.960 . S
H269 N249 0.862 . S
O270 Co238 1.920 . S
O270 C243 1.289 . S
C271 O263 1.258 . S
C271 O264 1.266 . S
Co272 O275 1.970 . S
Co272 N289 1.989 . S
Co272 O297 1.967 . S
Co272 O304 1.920 . S
Co273 O276 1.966 . S
Co273 N282 2.022 . S
Co273 N290 1.993 . S
Co273 O298 1.941 . S
C274 O275 1.258 . S
C274 O276 1.263 . S
O275 Co272 1.970 . S
O275 C274 1.258 . S
O276 Co273 1.966 . S
O276 C274 1.263 . S
C277 O278 1.235 . S
C277 O304 1.289 . S
O278 C277 1.235 . S
C279 C281 1.400 . S
C279 N282 1.351 . S
C279 C284 1.501 . S
C280 C281 1.387 . S
C280 N283 1.341 . S
C281 C279 1.400 . S
C281 C280 1.387 . S
N282 Co273 2.022 . S
N282 C279 1.351 . S
N282 N283 1.365 . S
N283 C280 1.341 . S
N283 N282 1.365 . S
N283 H303 0.862 . S
C284 C279 1.501 . S
C284 H285 0.961 . S
C284 H286 0.961 . S
C284 H287 0.960 . S
H285 C284 0.961 . S
H286 C284 0.961 . S
H287 C284 0.960 . S
C288 N289 1.342 . S
C288 C292 1.401 . S
C288 C293 1.499 . S
N289 Co272 1.989 . S
N289 C288 1.342 . S
N289 N290 1.388 . S
N290 Co273 1.993 . S
N290 N289 1.388 . S
N290 C291 1.346 . S
C291 N290 1.346 . S
C291 C292 1.396 . S
C291 C301 1.510 . S
C292 C288 1.401 . S
C292 C291 1.396 . S
C293 C288 1.499 . S
C293 H294 0.959 . S
C293 H295 0.960 . S
C293 H296 0.961 . S
H294 C293 0.959 . S
H295 C293 0.960 . S
H296 C293 0.961 . S
O297 Co272 1.967 . S
O297 C305 1.258 . S
O298 Co273 1.941 . S
O298 C305 1.266 . S
H299 C301 0.959 . S
H300 C301 0.961 . S
C301 C291 1.510 . S
C301 H299 0.959 . S
C301 H300 0.961 . S
C301 H302 0.960 . S
H302 C301 0.960 . S
H303 N283 0.862 . S
O304 Co272 1.920 . S
O304 C277 1.289 . S
C305 O297 1.258 . S
C305 O298 1.266 . S
Co306 O309 1.970 . S
Co306 N323 1.989 . S
Co306 O331 1.967 . S
Co306 O338 1.920 . S
Co307 O310 1.966 . S
Co307 N316 2.029 . S
Co307 N324 1.993 . S
Co307 O332 1.941 . S
C308 O309 1.258 . S
C308 O310 1.263 . S
O309 Co306 1.970 . S
O309 C308 1.258 . S
O310 Co307 1.966 . S
O310 C308 1.263 . S
C311 O312 1.235 . S
C311 O338 1.289 . S
O312 C311 1.235 . S
C313 C315 1.400 . S
C313 N316 1.347 1_556 S
C313 C318 1.501 . S
C314 C315 1.387 . S
C314 N317 1.341 . S
C315 C313 1.400 . S
C315 C314 1.387 . S
N316 Co307 2.029 . S
N316 C313 1.347 1_554 S
N316 N317 1.361 1_554 S
N317 C314 1.341 . S
N317 N316 1.361 1_556 S
N317 H337 0.862 . S
C318 C313 1.501 . S
C318 H319 0.961 1_556 S
C318 H320 0.961 . S
C318 H321 0.960 . S
H319 C318 0.961 1_554 S
H320 C318 0.961 . S
H321 C318 0.960 . S
C322 N323 1.342 . S
C322 C326 1.401 . S
C322 C327 1.499 . S
N323 Co306 1.989 . S
N323 C322 1.342 . S
N323 N324 1.388 . S
N324 Co307 1.993 . S
N324 N323 1.388 . S
N324 C325 1.346 . S
C325 N324 1.346 . S
C325 C326 1.396 . S
C325 C335 1.510 . S
C326 C322 1.401 . S
C326 C325 1.396 . S
C327 C322 1.499 . S
C327 H328 0.959 . S
C327 H329 0.960 . S
C327 H330 0.961 . S
H328 C327 0.959 . S
H329 C327 0.960 . S
H330 C327 0.961 . S
O331 Co306 1.967 . S
O331 C339 1.258 . S
O332 Co307 1.941 . S
O332 C339 1.266 . S
H333 C335 0.959 1_556 S
H334 C335 0.961 1_556 S
C335 C325 1.510 . S
C335 H333 0.959 1_554 S
C335 H334 0.961 1_554 S
C335 H336 0.960 1_554 S
H336 C335 0.960 1_556 S
H337 N317 0.862 . S
O338 Co306 1.920 . S
O338 C311 1.289 . S
C339 O331 1.258 . S
C339 O332 1.266 . S
Co340 O343 1.970 . S
Co340 N357 1.989 . S
Co340 O365 1.967 . S
Co340 O372 1.920 . S
Co341 O344 1.966 . S
Co341 N350 2.029 . S
Co341 N358 1.993 . S
Co341 O366 1.941 . S
C342 O343 1.258 . S
C342 O344 1.263 . S
O343 Co340 1.970 . S
O343 C342 1.258 . S
O344 Co341 1.966 . S
O344 C342 1.263 . S
C345 O346 1.235 . S
C345 O372 1.289 . S
O346 C345 1.235 . S
C347 C349 1.400 . S
C347 N350 1.347 1_556 S
C347 C352 1.501 . S
C348 C349 1.387 . S
C348 N351 1.341 . S
C349 C347 1.400 . S
C349 C348 1.387 . S
N350 Co341 2.029 . S
N350 C347 1.347 1_554 S
N350 N351 1.361 1_554 S
N351 C348 1.341 . S
N351 N350 1.361 1_556 S
N351 H371 0.862 . S
C352 C347 1.501 . S
C352 H353 0.961 1_556 S
C352 H354 0.961 . S
C352 H355 0.960 . S
H353 C352 0.961 1_554 S
H354 C352 0.961 . S
H355 C352 0.960 . S
C356 N357 1.342 . S
C356 C360 1.401 . S
C356 C361 1.499 . S
N357 Co340 1.989 . S
N357 C356 1.342 . S
N357 N358 1.388 . S
N358 Co341 1.993 . S
N358 N357 1.388 . S
N358 C359 1.346 . S
C359 N358 1.346 . S
C359 C360 1.396 . S
C359 C369 1.510 . S
C360 C356 1.401 . S
C360 C359 1.396 . S
C361 C356 1.499 . S
C361 H362 0.959 . S
C361 H363 0.960 . S
C361 H364 0.961 . S
H362 C361 0.959 . S
H363 C361 0.960 . S
H364 C361 0.961 . S
O365 Co340 1.967 . S
O365 C373 1.258 . S
O366 Co341 1.941 . S
O366 C373 1.266 . S
H367 C369 0.959 1_556 S
H368 C369 0.961 1_556 S
C369 C359 1.510 . S
C369 H367 0.959 1_554 S
C369 H368 0.961 1_554 S
C369 H370 0.960 1_554 S
H370 C369 0.960 1_556 S
H371 N351 0.862 . S
O372 Co340 1.920 . S
O372 C345 1.289 . S
C373 O365 1.258 . S
C373 O366 1.266 . S
Co374 O377 1.970 . S
Co374 N391 1.989 . S
Co374 O399 1.967 . S
Co374 O406 1.920 . S
Co375 O378 1.966 . S
Co375 N384 2.030 . S
Co375 N392 1.993 . S
Co375 O400 1.941 . S
C376 O377 1.258 . S
C376 O378 1.263 . S
O377 Co374 1.970 . S
O377 C376 1.258 . S
O378 Co375 1.966 . S
O378 C376 1.263 . S
C379 O380 1.235 . S
C379 O406 1.289 . S
O380 C379 1.235 . S
C381 C383 1.400 . S
C381 N384 1.346 1_556 S
C381 C386 1.501 . S
C382 C383 1.387 . S
C382 N385 1.341 . S
C383 C381 1.400 . S
C383 C382 1.387 . S
N384 Co375 2.030 . S
N384 C381 1.346 1_554 S
N384 N385 1.361 1_554 S
N385 C382 1.341 . S
N385 N384 1.361 1_556 S
N385 H405 0.862 . S
C386 C381 1.501 . S
C386 H387 0.961 1_556 S
C386 H388 0.961 . S
C386 H389 0.960 . S
H387 C386 0.961 1_554 S
H388 C386 0.961 . S
H389 C386 0.960 . S
C390 N391 1.342 . S
C390 C394 1.401 . S
C390 C395 1.499 . S
N391 Co374 1.989 . S
N391 C390 1.342 . S
N391 N392 1.388 . S
N392 Co375 1.993 . S
N392 N391 1.388 . S
N392 C393 1.346 . S
C393 N392 1.346 . S
C393 C394 1.396 . S
C393 C403 1.510 . S
C394 C390 1.401 . S
C394 C393 1.396 . S
C395 C390 1.499 . S
C395 H396 0.959 . S
C395 H397 0.960 . S
C395 H398 0.961 . S
H396 C395 0.959 . S
H397 C395 0.960 . S
H398 C395 0.961 . S
O399 Co374 1.967 . S
O399 C407 1.258 . S
O400 Co375 1.941 . S
O400 C407 1.266 . S
H401 C403 0.959 1_556 S
H402 C403 0.961 1_556 S
C403 C393 1.510 . S
C403 H401 0.959 1_554 S
C403 H402 0.961 1_554 S
C403 H404 0.960 1_554 S
H404 C403 0.960 1_556 S
H405 N385 0.862 . S
O406 Co374 1.920 . S
O406 C379 1.289 . S
C407 O399 1.258 . S
C407 O400 1.266 . S
Co408 O411 1.970 . S
Co408 N425 1.989 . S
Co408 O433 1.967 . S
Co408 O440 1.920 . S
Co409 O412 1.966 . S
Co409 N418 2.029 . S
Co409 N426 1.993 . S
Co409 O434 1.941 . S
C410 O411 1.258 . S
C410 O412 1.263 . S
O411 Co408 1.970 . S
O411 C410 1.258 . S
O412 Co409 1.966 . S
O412 C410 1.263 . S
C413 O414 1.235 . S
C413 O440 1.289 . S
O414 C413 1.235 . S
C415 C417 1.400 . S
C415 N418 1.347 1_554 S
C415 C420 1.501 . S
C416 C417 1.387 . S
C416 N419 1.341 . S
C417 C415 1.400 . S
C417 C416 1.387 . S
N418 Co409 2.029 . S
N418 C415 1.347 1_556 S
N418 N419 1.361 1_556 S
N419 C416 1.341 . S
N419 N418 1.361 1_554 S
N419 H439 0.862 . S
C420 C415 1.501 . S
C420 H421 0.961 1_554 S
C420 H422 0.961 . S
C420 H423 0.960 . S
H421 C420 0.961 1_556 S
H422 C420 0.961 . S
H423 C420 0.960 . S
C424 N425 1.342 . S
C424 C428 1.401 . S
C424 C429 1.499 . S
N425 Co408 1.989 . S
N425 C424 1.342 . S
N425 N426 1.388 . S
N426 Co409 1.993 . S
N426 N425 1.388 . S
N426 C427 1.346 . S
C427 N426 1.346 . S
C427 C428 1.396 . S
C427 C437 1.510 . S
C428 C424 1.401 . S
C428 C427 1.396 . S
C429 C424 1.499 . S
C429 H430 0.959 . S
C429 H431 0.960 . S
C429 H432 0.961 . S
H430 C429 0.959 . S
H431 C429 0.960 . S
H432 C429 0.961 . S
O433 Co408 1.967 . S
O433 C441 1.258 . S
O434 Co409 1.941 . S
O434 C441 1.266 . S
H435 C437 0.959 1_554 S
H436 C437 0.961 1_554 S
C437 C427 1.510 . S
C437 H435 0.959 1_556 S
C437 H436 0.961 1_556 S
C437 H438 0.960 1_556 S
H438 C437 0.960 1_554 S
H439 N419 0.862 . S
O440 Co408 1.920 . S
O440 C413 1.289 . S
C441 O433 1.258 . S
C441 O434 1.266 . S
Co442 O445 1.970 . S
Co442 N459 1.989 . S
Co442 O467 1.967 . S
Co442 O474 1.920 . S
Co443 O446 1.966 . S
Co443 N452 2.030 . S
Co443 N460 1.993 . S
Co443 O468 1.941 . S
C444 O445 1.258 . S
C444 O446 1.263 . S
O445 Co442 1.970 . S
O445 C444 1.258 . S
O446 Co443 1.966 . S
O446 C444 1.263 . S
C447 O448 1.235 . S
C447 O474 1.289 . S
O448 C447 1.235 . S
C449 C451 1.400 . S
C449 N452 1.346 1_554 S
C449 C454 1.501 . S
C450 C451 1.387 . S
C450 N453 1.341 . S
C451 C449 1.400 . S
C451 C450 1.387 . S
N452 Co443 2.030 . S
N452 C449 1.346 1_556 S
N452 N453 1.361 1_556 S
N453 C450 1.341 . S
N453 N452 1.361 1_554 S
N453 H473 0.862 . S
C454 C449 1.501 . S
C454 H455 0.961 1_554 S
C454 H456 0.961 . S
C454 H457 0.960 . S
H455 C454 0.961 1_556 S
H456 C454 0.961 . S
H457 C454 0.960 . S
C458 N459 1.342 . S
C458 C462 1.401 . S
C458 C463 1.499 . S
N459 Co442 1.989 . S
N459 C458 1.342 . S
N459 N460 1.388 . S
N460 Co443 1.993 . S
N460 N459 1.388 . S
N460 C461 1.346 . S
C461 N460 1.346 . S
C461 C462 1.396 . S
C461 C471 1.510 . S
C462 C458 1.401 . S
C462 C461 1.396 . S
C463 C458 1.499 . S
C463 H464 0.959 . S
C463 H465 0.960 . S
C463 H466 0.961 . S
H464 C463 0.959 . S
H465 C463 0.960 . S
H466 C463 0.961 . S
O467 Co442 1.967 . S
O467 C475 1.258 . S
O468 Co443 1.941 . S
O468 C475 1.266 . S
H469 C471 0.959 1_554 S
H470 C471 0.961 1_554 S
C471 C461 1.510 . S
C471 H469 0.959 1_556 S
C471 H470 0.961 1_556 S
C471 H472 0.960 1_556 S
H472 C471 0.960 1_554 S
H473 N453 0.862 . S
O474 Co442 1.920 . S
O474 C447 1.289 . S
C475 O467 1.258 . S
C475 O468 1.266 . S
Co476 O479 1.970 . S
Co476 N493 1.989 . S
Co476 O501 1.967 . S
Co476 O508 1.920 . S
Co477 O480 1.966 . S
Co477 N486 2.029 . S
Co477 N494 1.993 . S
Co477 O502 1.941 . S
C478 O479 1.258 . S
C478 O480 1.263 . S
O479 Co476 1.970 . S
O479 C478 1.258 . S
O480 Co477 1.966 . S
O480 C478 1.263 . S
C481 O482 1.235 . S
C481 O508 1.289 . S
O482 C481 1.235 . S
C483 C485 1.400 . S
C483 N486 1.347 1_554 S
C483 C488 1.501 . S
C484 C485 1.387 . S
C484 N487 1.341 . S
C485 C483 1.400 . S
C485 C484 1.387 . S
N486 Co477 2.029 . S
N486 C483 1.347 1_556 S
N486 N487 1.361 1_556 S
N487 C484 1.341 . S
N487 N486 1.361 1_554 S
N487 H507 0.862 . S
C488 C483 1.501 . S
C488 H489 0.961 1_554 S
C488 H490 0.961 . S
C488 H491 0.960 . S
H489 C488 0.961 1_556 S
H490 C488 0.961 . S
H491 C488 0.960 . S
C492 N493 1.342 . S
C492 C496 1.401 . S
C492 C497 1.499 . S
N493 Co476 1.989 . S
N493 C492 1.342 . S
N493 N494 1.388 . S
N494 Co477 1.993 . S
N494 N493 1.388 . S
N494 C495 1.346 . S
C495 N494 1.346 . S
C495 C496 1.396 . S
C495 C505 1.510 . S
C496 C492 1.401 . S
C496 C495 1.396 . S
C497 C492 1.499 . S
C497 H498 0.959 . S
C497 H499 0.960 . S
C497 H500 0.961 . S
H498 C497 0.959 . S
H499 C497 0.960 . S
H500 C497 0.961 . S
O501 Co476 1.967 . S
O501 C509 1.258 . S
O502 Co477 1.941 . S
O502 C509 1.266 . S
H503 C505 0.959 1_554 S
H504 C505 0.961 1_554 S
C505 C495 1.510 . S
C505 H503 0.959 1_556 S
C505 H504 0.961 1_556 S
C505 H506 0.960 1_556 S
H506 C505 0.960 1_554 S
H507 N487 0.862 . S
O508 Co476 1.920 . S
O508 C481 1.289 . S
C509 O501 1.258 . S
C509 O502 1.266 . S
Co510 O513 1.970 . S
Co510 N527 1.989 . S
Co510 O535 1.967 . S
Co510 O542 1.920 . S
Co511 O514 1.966 . S
Co511 N520 2.022 . S
Co511 N528 1.993 . S
Co511 O536 1.941 . S
C512 O513 1.258 . S
C512 O514 1.263 . S
O513 Co510 1.970 . S
O513 C512 1.258 . S
O514 Co511 1.966 . S
O514 C512 1.263 . S
C515 O516 1.235 . S
C515 O542 1.289 . S
O516 C515 1.235 . S
C517 C519 1.400 . S
C517 N520 1.351 . S
C517 C522 1.501 . S
C518 C519 1.387 . S
C518 N521 1.341 . S
C519 C517 1.400 . S
C519 C518 1.387 . S
N520 Co511 2.022 . S
N520 C517 1.351 . S
N520 N521 1.365 . S
N521 C518 1.341 . S
N521 N520 1.365 . S
N521 H541 0.862 . S
C522 C517 1.501 . S
C522 H523 0.961 . S
C522 H524 0.961 . S
C522 H525 0.960 . S
H523 C522 0.961 . S
H524 C522 0.961 . S
H525 C522 0.960 . S
C526 N527 1.342 . S
C526 C530 1.401 . S
C526 C531 1.499 . S
N527 Co510 1.989 . S
N527 C526 1.342 . S
N527 N528 1.388 . S
N528 Co511 1.993 . S
N528 N527 1.388 . S
N528 C529 1.346 . S
C529 N528 1.346 . S
C529 C530 1.396 . S
C529 C539 1.510 . S
C530 C526 1.401 . S
C530 C529 1.396 . S
C531 C526 1.499 . S
C531 H532 0.959 . S
C531 H533 0.960 . S
C531 H534 0.961 . S
H532 C531 0.959 . S
H533 C531 0.960 . S
H534 C531 0.961 . S
O535 Co510 1.967 . S
O535 C543 1.258 . S
O536 Co511 1.941 . S
O536 C543 1.266 . S
H537 C539 0.959 . S
H538 C539 0.961 . S
C539 C529 1.510 . S
C539 H537 0.959 . S
C539 H538 0.961 . S
C539 H540 0.960 . S
H540 C539 0.960 . S
H541 N521 0.862 . S
O542 Co510 1.920 . S
O542 C515 1.289 . S
C543 O535 1.258 . S
C543 O536 1.266 . S
Co544 O547 1.970 . S
Co544 N561 1.989 . S
Co544 O569 1.967 . S
Co544 O576 1.920 . S
Co545 O548 1.966 . S
Co545 N554 2.022 . S
Co545 N562 1.993 . S
Co545 O570 1.941 . S
C546 O547 1.258 . S
C546 O548 1.263 . S
O547 Co544 1.970 . S
O547 C546 1.258 . S
O548 Co545 1.966 . S
O548 C546 1.263 . S
C549 O550 1.235 . S
C549 O576 1.289 . S
O550 C549 1.235 . S
C551 C553 1.400 . S
C551 N554 1.351 . S
C551 C556 1.501 . S
C552 C553 1.387 . S
C552 N555 1.341 . S
C553 C551 1.400 . S
C553 C552 1.387 . S
N554 Co545 2.022 . S
N554 C551 1.351 . S
N554 N555 1.365 . S
N555 C552 1.341 . S
N555 N554 1.365 . S
N555 H575 0.862 . S
C556 C551 1.501 . S
C556 H557 0.961 . S
C556 H558 0.961 . S
C556 H559 0.960 . S
H557 C556 0.961 . S
H558 C556 0.961 . S
H559 C556 0.960 . S
C560 N561 1.342 . S
C560 C564 1.401 . S
C560 C565 1.499 . S
N561 Co544 1.989 . S
N561 C560 1.342 . S
N561 N562 1.388 . S
N562 Co545 1.993 . S
N562 N561 1.388 . S
N562 C563 1.346 . S
C563 N562 1.346 . S
C563 C564 1.396 . S
C563 C573 1.510 . S
C564 C560 1.401 . S
C564 C563 1.396 . S
C565 C560 1.499 . S
C565 H566 0.959 . S
C565 H567 0.960 . S
C565 H568 0.961 . S
H566 C565 0.959 . S
H567 C565 0.960 . S
H568 C565 0.961 . S
O569 Co544 1.967 . S
O569 C577 1.258 . S
O570 Co545 1.941 . S
O570 C577 1.266 . S
H571 C573 0.959 . S
H572 C573 0.961 . S
C573 C563 1.510 . S
C573 H571 0.959 . S
C573 H572 0.961 . S
C573 H574 0.960 . S
H574 C573 0.960 . S
H575 N555 0.862 . S
O576 Co544 1.920 . S
O576 C549 1.289 . S
C577 O569 1.258 . S
C577 O570 1.266 . S
Co578 O581 1.970 . S
Co578 N595 1.989 . S
Co578 O603 1.967 . S
Co578 O610 1.920 . S
Co579 O582 1.966 . S
Co579 N588 2.022 . S
Co579 N596 1.993 . S
Co579 O604 1.941 . S
C580 O581 1.258 . S
C580 O582 1.263 . S
O581 Co578 1.970 . S
O581 C580 1.258 . S
O582 Co579 1.966 . S
O582 C580 1.263 . S
C583 O584 1.235 . S
C583 O610 1.289 . S
O584 C583 1.235 . S
C585 C587 1.400 . S
C585 N588 1.351 . S
C585 C590 1.501 . S
C586 C587 1.387 . S
C586 N589 1.341 . S
C587 C585 1.400 . S
C587 C586 1.387 . S
N588 Co579 2.022 . S
N588 C585 1.351 . S
N588 N589 1.365 . S
N589 C586 1.341 . S
N589 N588 1.365 . S
N589 H609 0.862 . S
C590 C585 1.501 . S
C590 H591 0.961 . S
C590 H592 0.961 . S
C590 H593 0.960 . S
H591 C590 0.961 . S
H592 C590 0.961 . S
H593 C590 0.960 . S
C594 N595 1.342 . S
C594 C598 1.401 . S
C594 C599 1.499 . S
N595 Co578 1.989 . S
N595 C594 1.342 . S
N595 N596 1.388 . S
N596 Co579 1.993 . S
N596 N595 1.388 . S
N596 C597 1.346 . S
C597 N596 1.346 . S
C597 C598 1.396 . S
C597 C607 1.510 . S
C598 C594 1.401 . S
C598 C597 1.396 . S
C599 C594 1.499 . S
C599 H600 0.959 . S
C599 H601 0.960 . S
C599 H602 0.961 . S
H600 C599 0.959 . S
H601 C599 0.960 . S
H602 C599 0.961 . S
O603 Co578 1.967 . S
O603 C611 1.258 . S
O604 Co579 1.941 . S
O604 C611 1.266 . S
H605 C607 0.959 . S
H606 C607 0.961 . S
C607 C597 1.510 . S
C607 H605 0.959 . S
C607 H606 0.961 . S
C607 H608 0.960 . S
H608 C607 0.960 . S
H609 N589 0.862 . S
O610 Co578 1.920 . S
O610 C583 1.289 . S
C611 O603 1.258 . S
C611 O604 1.266 . S
C612 C613 1.391 . S
C612 C614 1.394 . S
C612 H628 0.931 . S
C613 C612 1.391 . S
C613 C617 1.376 . S
C614 C612 1.394 . S
C614 C615 1.369 . S
C614 C618 1.531 . S
C615 C614 1.369 . S
C615 C616 1.410 . S
C615 C623 1.503 . S
C616 C615 1.410 . S
C616 C617 1.392 . S
C616 C619 1.511 . S
C617 C613 1.376 . S
C617 C616 1.392 . S
C617 H629 0.929 . S
C618 C614 1.531 . S
C618 H630 0.960 . S
C618 H631 0.962 . S
C618 H632 0.960 . S
C619 C616 1.511 . S
C619 H633 0.961 . S
C619 H634 0.961 . S
C619 H635 0.961 . S
C620 C621 1.370 . S
C620 C622 1.363 . S
C620 H636 0.931 . S
C621 C620 1.370 . S
C621 C625 1.408 . S
C622 C620 1.363 . S
C622 C623 1.370 . S
C622 C626 1.524 . S
C623 C615 1.503 . S
C623 C622 1.370 . S
C623 C624 1.403 . S
C624 C623 1.403 . S
C624 C625 1.404 . S
C624 C627 1.539 . S
C625 C621 1.408 . S
C625 C624 1.404 . S
C625 H637 0.930 . S
C626 C622 1.524 . S
C626 H638 0.956 . S
C626 H639 0.961 . S
C626 H640 0.961 . S
C627 C624 1.539 . S
C627 H641 0.958 . S
C627 H642 0.961 . S
C627 H643 0.960 . S
H628 C612 0.931 . S
H629 C617 0.929 . S
H630 C618 0.960 . S
H631 C618 0.962 . S
H632 C618 0.960 . S
H633 C619 0.961 . S
H634 C619 0.961 . S
H635 C619 0.961 . S
H636 C620 0.931 . S
H637 C625 0.930 . S
H638 C626 0.956 . S
H639 C626 0.961 . S
H640 C626 0.961 . S
H641 C627 0.958 . S
H642 C627 0.961 . S
H643 C627 0.960 . S
C644 C645 1.391 . S
C644 C646 1.394 . S
C644 H660 0.931 . S
C645 C644 1.391 . S
C645 C649 1.376 . S
C646 C644 1.394 . S
C646 C647 1.369 . S
C646 C650 1.531 . S
C647 C646 1.369 . S
C647 C648 1.410 . S
C647 C655 1.503 . S
C648 C647 1.410 . S
C648 C649 1.392 . S
C648 C651 1.511 . S
C649 C645 1.376 . S
C649 C648 1.392 . S
C649 H661 0.929 . S
C650 C646 1.531 . S
C650 H662 0.960 . S
C650 H663 0.962 . S
C650 H664 0.960 . S
C651 C648 1.511 . S
C651 H665 0.961 . S
C651 H666 0.961 . S
C651 H667 0.961 . S
C652 C653 1.370 . S
C652 C654 1.363 . S
C652 H668 0.931 . S
C653 C652 1.370 . S
C653 C657 1.408 . S
C654 C652 1.363 . S
C654 C655 1.370 . S
C654 C658 1.524 . S
C655 C647 1.503 . S
C655 C654 1.370 . S
C655 C656 1.403 . S
C656 C655 1.403 . S
C656 C657 1.404 . S
C656 C659 1.539 . S
C657 C653 1.408 . S
C657 C656 1.404 . S
C657 H669 0.930 . S
C658 C654 1.524 . S
C658 H670 0.956 . S
C658 H671 0.961 . S
C658 H672 0.961 . S
C659 C656 1.539 . S
C659 H673 0.958 . S
C659 H674 0.961 . S
C659 H675 0.960 . S
H660 C644 0.931 . S
H661 C649 0.929 . S
H662 C650 0.960 . S
H663 C650 0.962 . S
H664 C650 0.960 . S
H665 C651 0.961 . S
H666 C651 0.961 . S
H667 C651 0.961 . S
H668 C652 0.931 . S
H669 C657 0.930 . S
H670 C658 0.956 . S
H671 C658 0.961 . S
H672 C658 0.961 . S
H673 C659 0.958 . S
H674 C659 0.961 . S
H675 C659 0.960 . S
C676 C677 1.391 . S
C676 C678 1.394 . S
C676 H692 0.931 . S
C677 C676 1.391 . S
C677 C681 1.376 . S
C678 C676 1.394 . S
C678 C679 1.369 . S
C678 C682 1.531 . S
C679 C678 1.369 . S
C679 C680 1.410 . S
C679 C687 1.503 . S
C680 C679 1.410 . S
C680 C681 1.392 . S
C680 C683 1.511 . S
C681 C677 1.376 . S
C681 C680 1.392 . S
C681 H693 0.929 . S
C682 C678 1.531 . S
C682 H694 0.960 . S
C682 H695 0.962 . S
C682 H696 0.960 . S
C683 C680 1.511 . S
C683 H697 0.961 . S
C683 H698 0.961 . S
C683 H699 0.961 . S
C684 C685 1.370 . S
C684 C686 1.363 . S
C684 H700 0.931 . S
C685 C684 1.370 . S
C685 C689 1.408 . S
C686 C684 1.363 . S
C686 C687 1.370 . S
C686 C690 1.524 . S
C687 C679 1.503 . S
C687 C686 1.370 . S
C687 C688 1.403 . S
C688 C687 1.403 . S
C688 C689 1.404 . S
C688 C691 1.539 . S
C689 C685 1.408 . S
C689 C688 1.404 . S
C689 H701 0.930 . S
C690 C686 1.524 . S
C690 H702 0.956 . S
C690 H703 0.961 . S
C690 H704 0.961 . S
C691 C688 1.539 . S
C691 H705 0.958 . S
C691 H706 0.961 . S
C691 H707 0.960 . S
H692 C676 0.931 . S
H693 C681 0.929 . S
H694 C682 0.960 . S
H695 C682 0.962 . S
H696 C682 0.960 . S
H697 C683 0.961 . S
H698 C683 0.961 . S
H699 C683 0.961 . S
H700 C684 0.931 . S
H701 C689 0.930 . S
H702 C690 0.956 . S
H703 C690 0.961 . S
H704 C690 0.961 . S
H705 C691 0.958 . S
H706 C691 0.961 . S
H707 C691 0.960 . S
C708 C709 1.391 . S
C708 C710 1.394 . S
C708 H724 0.931 . S
C709 C708 1.391 . S
C709 C713 1.376 . S
C710 C708 1.394 . S
C710 C711 1.369 . S
C710 C714 1.531 . S
C711 C710 1.369 . S
C711 C712 1.410 . S
C711 C719 1.503 . S
C712 C711 1.410 . S
C712 C713 1.392 . S
C712 C715 1.511 . S
C713 C709 1.376 . S
C713 C712 1.392 . S
C713 H725 0.929 . S
C714 C710 1.531 . S
C714 H726 0.960 . S
C714 H727 0.962 . S
C714 H728 0.960 . S
C715 C712 1.511 . S
C715 H729 0.961 . S
C715 H730 0.961 . S
C715 H731 0.961 . S
C716 C717 1.370 . S
C716 C718 1.363 . S
C716 H732 0.931 . S
C717 C716 1.370 . S
C717 C721 1.408 . S
C718 C716 1.363 . S
C718 C719 1.370 . S
C718 C722 1.524 . S
C719 C711 1.503 . S
C719 C718 1.370 . S
C719 C720 1.403 . S
C720 C719 1.403 . S
C720 C721 1.404 . S
C720 C723 1.539 . S
C721 C717 1.408 . S
C721 C720 1.404 . S
C721 H733 0.930 . S
C722 C718 1.524 . S
C722 H734 0.956 . S
C722 H735 0.961 . S
C722 H736 0.961 . S
C723 C720 1.539 . S
C723 H737 0.958 . S
C723 H738 0.961 . S
C723 H739 0.960 . S
H724 C708 0.931 . S
H725 C713 0.929 . S
H726 C714 0.960 . S
H727 C714 0.962 . S
H728 C714 0.960 . S
H729 C715 0.961 . S
H730 C715 0.961 . S
H731 C715 0.961 . S
H732 C716 0.931 . S
H733 C721 0.930 . S
H734 C722 0.956 . S
H735 C722 0.961 . S
H736 C722 0.961 . S
H737 C723 0.958 . S
H738 C723 0.961 . S
H739 C723 0.960 . S
C740 C741 1.391 . S
C740 C742 1.394 . S
C740 H756 0.931 . S
C741 C740 1.391 . S
C741 C745 1.376 . S
C742 C740 1.394 . S
C742 C743 1.369 . S
C742 C746 1.531 . S
C743 C742 1.369 . S
C743 C744 1.410 . S
C743 C751 1.503 . S
C744 C743 1.410 . S
C744 C745 1.392 . S
C744 C747 1.511 . S
C745 C741 1.376 . S
C745 C744 1.392 . S
C745 H757 0.929 . S
C746 C742 1.531 . S
C746 H758 0.960 . S
C746 H759 0.962 . S
C746 H760 0.960 . S
C747 C744 1.511 . S
C747 H761 0.961 . S
C747 H762 0.961 . S
C747 H763 0.961 . S
C748 C749 1.370 . S
C748 C750 1.363 . S
C748 H764 0.931 . S
C749 C748 1.370 . S
C749 C753 1.408 . S
C750 C748 1.363 . S
C750 C751 1.370 . S
C750 C754 1.524 . S
C751 C743 1.503 . S
C751 C750 1.370 . S
C751 C752 1.403 . S
C752 C751 1.403 . S
C752 C753 1.404 . S
C752 C755 1.539 . S
C753 C749 1.408 . S
C753 C752 1.404 . S
C753 H765 0.930 . S
C754 C750 1.524 . S
C754 H766 0.956 . S
C754 H767 0.961 . S
C754 H768 0.961 . S
C755 C752 1.539 . S
C755 H769 0.958 . S
C755 H770 0.961 . S
C755 H771 0.960 . S
H756 C740 0.931 . S
H757 C745 0.929 . S
H758 C746 0.960 . S
H759 C746 0.962 . S
H760 C746 0.960 . S
H761 C747 0.961 . S
H762 C747 0.961 . S
H763 C747 0.961 . S
H764 C748 0.931 . S
H765 C753 0.930 . S
H766 C754 0.956 . S
H767 C754 0.961 . S
H768 C754 0.961 . S
H769 C755 0.958 . S
H770 C755 0.961 . S
H771 C755 0.960 . S
C772 C773 1.391 . S
C772 C774 1.394 . S
C772 H788 0.931 . S
C773 C772 1.391 . S
C773 C777 1.376 . S
C774 C772 1.394 . S
C774 C775 1.369 . S
C774 C778 1.531 . S
C775 C774 1.369 . S
C775 C776 1.410 . S
C775 C783 1.503 . S
C776 C775 1.410 . S
C776 C777 1.392 . S
C776 C779 1.511 . S
C777 C773 1.376 . S
C777 C776 1.392 . S
C777 H789 0.929 . S
C778 C774 1.531 . S
C778 H790 0.960 . S
C778 H791 0.962 . S
C778 H792 0.960 . S
C779 C776 1.511 . S
C779 H793 0.961 . S
C779 H794 0.961 . S
C779 H795 0.961 . S
C780 C781 1.370 . S
C780 C782 1.363 . S
C780 H796 0.931 . S
C781 C780 1.370 . S
C781 C785 1.408 . S
C782 C780 1.363 . S
C782 C783 1.370 . S
C782 C786 1.524 . S
C783 C775 1.503 . S
C783 C782 1.370 . S
C783 C784 1.403 . S
C784 C783 1.403 . S
C784 C785 1.404 . S
C784 C787 1.539 . S
C785 C781 1.408 . S
C785 C784 1.404 . S
C785 H797 0.930 . S
C786 C782 1.524 . S
C786 H798 0.956 . S
C786 H799 0.961 . S
C786 H800 0.961 . S
C787 C784 1.539 . S
C787 H801 0.958 . S
C787 H802 0.961 . S
C787 H803 0.960 . S
H788 C772 0.931 . S
H789 C777 0.929 . S
H790 C778 0.960 . S
H791 C778 0.962 . S
H792 C778 0.960 . S
H793 C779 0.961 . S
H794 C779 0.961 . S
H795 C779 0.961 . S
H796 C780 0.931 . S
H797 C785 0.930 . S
H798 C786 0.956 . S
H799 C786 0.961 . S
H800 C786 0.961 . S
H801 C787 0.958 . S
H802 C787 0.961 . S
H803 C787 0.960 . S
C804 C805 1.391 . S
C804 C806 1.394 . S
C804 H820 0.931 . S
C805 C804 1.391 . S
C805 C809 1.376 . S
C806 C804 1.394 . S
C806 C807 1.369 . S
C806 C810 1.531 . S
C807 C806 1.369 . S
C807 C808 1.410 . S
C807 C815 1.503 1_554 S
C808 C807 1.410 . S
C808 C809 1.392 . S
C808 C811 1.511 . S
C809 C805 1.376 . S
C809 C808 1.392 . S
C809 H821 0.929 . S
C810 C806 1.531 . S
C810 H822 0.960 . S
C810 H823 0.962 . S
C810 H824 0.960 . S
C811 C808 1.511 . S
C811 H825 0.961 . S
C811 H826 0.961 1_554 S
C811 H827 0.961 . S
C812 C813 1.370 . S
C812 C814 1.363 . S
C812 H828 0.931 . S
C813 C812 1.370 . S
C813 C817 1.408 . S
C814 C812 1.363 . S
C814 C815 1.370 . S
C814 C818 1.524 1_556 S
C815 C807 1.503 1_556 S
C815 C814 1.370 . S
C815 C816 1.403 . S
C816 C815 1.403 . S
C816 C817 1.404 . S
C816 C819 1.539 . S
C817 C813 1.408 . S
C817 C816 1.404 . S
C817 H829 0.930 . S
C818 C814 1.524 1_554 S
C818 H830 0.956 . S
C818 H831 0.961 . S
C818 H832 0.961 . S
C819 C816 1.539 . S
C819 H833 0.958 . S
C819 H834 0.961 . S
C819 H835 0.960 . S
H820 C804 0.931 . S
H821 C809 0.929 . S
H822 C810 0.960 . S
H823 C810 0.962 . S
H824 C810 0.960 . S
H825 C811 0.961 . S
H826 C811 0.961 1_556 S
H827 C811 0.961 . S
H828 C812 0.931 . S
H829 C817 0.930 . S
H830 C818 0.956 . S
H831 C818 0.961 . S
H832 C818 0.961 . S
H833 C819 0.958 . S
H834 C819 0.961 . S
H835 C819 0.960 . S
C836 C837 1.391 . S
C836 C838 1.394 . S
C836 H852 0.931 . S
C837 C836 1.391 . S
C837 C841 1.376 . S
C838 C836 1.394 . S
C838 C839 1.369 . S
C838 C842 1.531 . S
C839 C838 1.369 . S
C839 C840 1.410 . S
C839 C847 1.503 1_554 S
C840 C839 1.410 . S
C840 C841 1.392 . S
C840 C843 1.511 . S
C841 C837 1.376 . S
C841 C840 1.392 . S
C841 H853 0.929 . S
C842 C838 1.531 . S
C842 H854 0.960 1_554 S
C842 H855 0.962 1_554 S
C842 H856 0.960 . S
C843 C840 1.511 . S
C843 H857 0.961 . S
C843 H858 0.961 . S
C843 H859 0.961 . S
C844 C845 1.370 . S
C844 C846 1.363 . S
C844 H860 0.931 . S
C845 C844 1.370 . S
C845 C849 1.408 . S
C846 C844 1.363 . S
C846 C847 1.370 . S
C846 C850 1.524 . S
C847 C839 1.503 1_556 S
C847 C846 1.370 . S
C847 C848 1.403 . S
C848 C847 1.403 . S
C848 C849 1.404 . S
C848 C851 1.539 . S
C849 C845 1.408 . S
C849 C848 1.404 . S
C849 H861 0.930 . S
C850 C846 1.524 . S
C850 H862 0.956 . S
C850 H863 0.961 1_556 S
C850 H864 0.961 . S
C851 C848 1.539 . S
C851 H865 0.958 . S
C851 H866 0.961 . S
C851 H867 0.960 1_556 S
H852 C836 0.931 . S
H853 C841 0.929 . S
H854 C842 0.960 1_556 S
H855 C842 0.962 1_556 S
H856 C842 0.960 . S
H857 C843 0.961 . S
H858 C843 0.961 . S
H859 C843 0.961 . S
H860 C844 0.931 . S
H861 C849 0.930 . S
H862 C850 0.956 . S
H863 C850 0.961 1_554 S
H864 C850 0.961 . S
H865 C851 0.958 . S
H866 C851 0.961 . S
H867 C851 0.960 1_554 S
C868 C869 1.391 . S
C868 C870 1.394 . S
C868 H884 0.931 . S
C869 C868 1.391 . S
C869 C873 1.376 . S
C870 C868 1.394 . S
C870 C871 1.369 . S
C870 C874 1.531 . S
C871 C870 1.369 . S
C871 C872 1.410 . S
C871 C879 1.503 1_556 S
C872 C871 1.410 . S
C872 C873 1.392 . S
C872 C875 1.511 1_556 S
C873 C869 1.376 . S
C873 C872 1.392 . S
C873 H885 0.929 . S
C874 C870 1.531 . S
C874 H886 0.960 . S
C874 H887 0.962 . S
C874 H888 0.960 . S
C875 C872 1.511 1_554 S
C875 H889 0.961 1_554 S
C875 H890 0.961 . S
C875 H891 0.961 . S
C876 C877 1.370 . S
C876 C878 1.363 . S
C876 H892 0.931 . S
C877 C876 1.370 . S
C877 C881 1.408 . S
C878 C876 1.363 . S
C878 C879 1.370 . S
C878 C882 1.524 . S
C879 C871 1.503 1_554 S
C879 C878 1.370 . S
C879 C880 1.403 . S
C880 C879 1.403 . S
C880 C881 1.404 . S
C880 C883 1.539 . S
C881 C877 1.408 . S
C881 C880 1.404 . S
C881 H893 0.930 . S
C882 C878 1.524 . S
C882 H894 0.956 . S
C882 H895 0.961 . S
C882 H896 0.961 . S
C883 C880 1.539 . S
C883 H897 0.958 . S
C883 H898 0.961 . S
C883 H899 0.960 1_554 S
H884 C868 0.931 . S
H885 C873 0.929 . S
H886 C874 0.960 . S
H887 C874 0.962 . S
H888 C874 0.960 . S
H889 C875 0.961 1_556 S
H890 C875 0.961 . S
H891 C875 0.961 . S
H892 C876 0.931 . S
H893 C881 0.930 . S
H894 C882 0.956 . S
H895 C882 0.961 . S
H896 C882 0.961 . S
H897 C883 0.958 . S
H898 C883 0.961 . S
H899 C883 0.960 1_556 S
C900 C901 1.391 . S
C900 C902 1.394 . S
C900 H916 0.931 . S
C901 C900 1.391 . S
C901 C905 1.376 . S
C902 C900 1.394 . S
C902 C903 1.369 . S
C902 C906 1.531 . S
C903 C902 1.369 . S
C903 C904 1.410 . S
C903 C911 1.503 . S
C904 C903 1.410 . S
C904 C905 1.392 . S
C904 C907 1.511 . S
C905 C901 1.376 . S
C905 C904 1.392 . S
C905 H917 0.929 . S
C906 C902 1.531 . S
C906 H918 0.960 . S
C906 H919 0.962 . S
C906 H920 0.960 . S
C907 C904 1.511 . S
C907 H921 0.961 . S
C907 H922 0.961 . S
C907 H923 0.961 . S
C908 C909 1.370 . S
C908 C910 1.363 . S
C908 H924 0.931 . S
C909 C908 1.370 . S
C909 C913 1.408 . S
C910 C908 1.363 . S
C910 C911 1.370 . S
C910 C914 1.524 . S
C911 C903 1.503 . S
C911 C910 1.370 . S
C911 C912 1.403 . S
C912 C911 1.403 . S
C912 C913 1.404 . S
C912 C915 1.539 . S
C913 C909 1.408 . S
C913 C912 1.404 . S
C913 H925 0.930 . S
C914 C910 1.524 . S
C914 H926 0.956 . S
C914 H927 0.961 . S
C914 H928 0.961 . S
C915 C912 1.539 . S
C915 H929 0.958 . S
C915 H930 0.961 . S
C915 H931 0.960 . S
H916 C900 0.931 . S
H917 C905 0.929 . S
H918 C906 0.960 . S
H919 C906 0.962 . S
H920 C906 0.960 . S
H921 C907 0.961 . S
H922 C907 0.961 . S
H923 C907 0.961 . S
H924 C908 0.931 . S
H925 C913 0.930 . S
H926 C914 0.956 . S
H927 C914 0.961 . S
H928 C914 0.961 . S
H929 C915 0.958 . S
H930 C915 0.961 . S
H931 C915 0.960 . S
C932 C933 1.391 . S
C932 C934 1.394 . S
C932 H948 0.931 . S
C933 C932 1.391 . S
C933 C937 1.376 . S
C934 C932 1.394 . S
C934 C935 1.369 . S
C934 C938 1.531 . S
C935 C934 1.369 . S
C935 C936 1.410 . S
C935 C943 1.503 . S
C936 C935 1.410 . S
C936 C937 1.392 . S
C936 C939 1.511 . S
C937 C933 1.376 . S
C937 C936 1.392 . S
C937 H949 0.929 . S
C938 C934 1.531 . S
C938 H950 0.960 . S
C938 H951 0.962 . S
C938 H952 0.960 . S
C939 C936 1.511 . S
C939 H953 0.961 . S
C939 H954 0.961 . S
C939 H955 0.961 . S
C940 C941 1.370 . S
C940 C942 1.363 . S
C940 H956 0.931 . S
C941 C940 1.370 . S
C941 C945 1.408 . S
C942 C940 1.363 . S
C942 C943 1.370 . S
C942 C946 1.524 . S
C943 C935 1.503 . S
C943 C942 1.370 . S
C943 C944 1.403 . S
C944 C943 1.403 . S
C944 C945 1.404 . S
C944 C947 1.539 . S
C945 C941 1.408 . S
C945 C944 1.404 . S
C945 H957 0.930 . S
C946 C942 1.524 . S
C946 H958 0.956 . S
C946 H959 0.961 . S
C946 H960 0.961 . S
C947 C944 1.539 . S
C947 H961 0.958 . S
C947 H962 0.961 . S
C947 H963 0.960 . S
H948 C932 0.931 . S
H949 C937 0.929 . S
H950 C938 0.960 . S
H951 C938 0.962 . S
H952 C938 0.960 . S
H953 C939 0.961 . S
H954 C939 0.961 . S
H955 C939 0.961 . S
H956 C940 0.931 . S
H957 C945 0.930 . S
H958 C946 0.956 . S
H959 C946 0.961 . S
H960 C946 0.961 . S
H961 C947 0.958 . S
H962 C947 0.961 . S
H963 C947 0.960 . S
C964 C965 1.391 . S
C964 C966 1.394 . S
C964 H980 0.931 . S
C965 C964 1.391 . S
C965 C969 1.376 . S
C966 C964 1.394 . S
C966 C967 1.369 . S
C966 C970 1.531 . S
C967 C966 1.369 . S
C967 C968 1.410 . S
C967 C975 1.503 . S
C968 C967 1.410 . S
C968 C969 1.392 . S
C968 C971 1.511 . S
C969 C965 1.376 . S
C969 C968 1.392 . S
C969 H981 0.929 . S
C970 C966 1.531 . S
C970 H982 0.960 . S
C970 H983 0.962 . S
C970 H984 0.960 . S
C971 C968 1.511 . S
C971 H985 0.961 . S
C971 H986 0.961 . S
C971 H987 0.961 . S
C972 C973 1.370 . S
C972 C974 1.363 . S
C972 H988 0.931 . S
C973 C972 1.370 . S
C973 C977 1.408 . S
C974 C972 1.363 . S
C974 C975 1.370 . S
C974 C978 1.524 . S
C975 C967 1.503 . S
C975 C974 1.370 . S
C975 C976 1.403 . S
C976 C975 1.403 . S
C976 C977 1.404 . S
C976 C979 1.539 . S
C977 C973 1.408 . S
C977 C976 1.404 . S
C977 H989 0.930 . S
C978 C974 1.524 . S
C978 H990 0.956 . S
C978 H991 0.961 . S
C978 H992 0.961 . S
C979 C976 1.539 . S
C979 H993 0.958 . S
C979 H994 0.961 . S
C979 H995 0.960 . S
H980 C964 0.931 . S
H981 C969 0.929 . S
H982 C970 0.960 . S
H983 C970 0.962 . S
H984 C970 0.960 . S
H985 C971 0.961 . S
H986 C971 0.961 . S
H987 C971 0.961 . S
H988 C972 0.931 . S
H989 C977 0.930 . S
H990 C978 0.956 . S
H991 C978 0.961 . S
H992 C978 0.961 . S
H993 C979 0.958 . S
H994 C979 0.961 . S
H995 C979 0.960 . S
C996 C997 1.391 . S
C996 C998 1.394 . S
C996 H1012 0.931 . S
C997 C996 1.391 . S
C997 C1001 1.376 . S
C998 C996 1.394 . S
C998 C999 1.369 . S
C998 C1002 1.531 . S
C999 C998 1.369 . S
C999 C1000 1.410 . S
C999 C1007 1.503 . S
C1000 C999 1.410 . S
C1000 C1001 1.392 . S
C1000 C1003 1.511 . S
C1001 C997 1.376 . S
C1001 C1000 1.392 . S
C1001 H1013 0.929 . S
C1002 C998 1.531 . S
C1002 H1014 0.960 . S
C1002 H1015 0.962 . S
C1002 H1016 0.960 . S
C1003 C1000 1.511 . S
C1003 H1017 0.961 . S
C1003 H1018 0.961 . S
C1003 H1019 0.961 . S
C1004 C1005 1.370 . S
C1004 C1006 1.363 . S
C1004 H1020 0.931 . S
C1005 C1004 1.370 . S
C1005 C1009 1.408 . S
C1006 C1004 1.363 . S
C1006 C1007 1.370 . S
C1006 C1010 1.524 . S
C1007 C999 1.503 . S
C1007 C1006 1.370 . S
C1007 C1008 1.403 . S
C1008 C1007 1.403 . S
C1008 C1009 1.404 . S
C1008 C1011 1.539 . S
C1009 C1005 1.408 . S
C1009 C1008 1.404 . S
C1009 H1021 0.930 . S
C1010 C1006 1.524 . S
C1010 H1022 0.956 . S
C1010 H1023 0.961 . S
C1010 H1024 0.961 . S
C1011 C1008 1.539 . S
C1011 H1025 0.958 . S
C1011 H1026 0.961 . S
C1011 H1027 0.960 . S
H1012 C996 0.931 . S
H1013 C1001 0.929 . S
H1014 C1002 0.960 . S
H1015 C1002 0.962 . S
H1016 C1002 0.960 . S
H1017 C1003 0.961 . S
H1018 C1003 0.961 . S
H1019 C1003 0.961 . S
H1020 C1004 0.931 . S
H1021 C1009 0.930 . S
H1022 C1010 0.956 . S
H1023 C1010 0.961 . S
H1024 C1010 0.961 . S
H1025 C1011 0.958 . S
H1026 C1011 0.961 . S
H1027 C1011 0.960 . S
C1028 C1029 1.391 . S
C1028 C1030 1.394 . S
C1028 H1044 0.931 . S
C1029 C1028 1.391 . S
C1029 C1033 1.376 . S
C1030 C1028 1.394 . S
C1030 C1031 1.369 . S
C1030 C1034 1.531 . S
C1031 C1030 1.369 . S
C1031 C1032 1.410 . S
C1031 C1039 1.503 . S
C1032 C1031 1.410 . S
C1032 C1033 1.392 . S
C1032 C1035 1.511 . S
C1033 C1029 1.376 . S
C1033 C1032 1.392 . S
C1033 H1045 0.929 . S
C1034 C1030 1.531 . S
C1034 H1046 0.960 . S
C1034 H1047 0.962 . S
C1034 H1048 0.960 . S
C1035 C1032 1.511 . S
C1035 H1049 0.961 . S
C1035 H1050 0.961 . S
C1035 H1051 0.961 . S
C1036 C1037 1.370 . S
C1036 C1038 1.363 . S
C1036 H1052 0.931 . S
C1037 C1036 1.370 . S
C1037 C1041 1.408 . S
C1038 C1036 1.363 . S
C1038 C1039 1.370 . S
C1038 C1042 1.524 . S
C1039 C1031 1.503 . S
C1039 C1038 1.370 . S
C1039 C1040 1.403 . S
C1040 C1039 1.403 . S
C1040 C1041 1.404 . S
C1040 C1043 1.539 . S
C1041 C1037 1.408 . S
C1041 C1040 1.404 . S
C1041 H1053 0.930 . S
C1042 C1038 1.524 . S
C1042 H1054 0.956 . S
C1042 H1055 0.961 . S
C1042 H1056 0.961 . S
C1043 C1040 1.539 . S
C1043 H1057 0.958 . S
C1043 H1058 0.961 . S
C1043 H1059 0.960 . S
H1044 C1028 0.931 . S
H1045 C1033 0.929 . S
H1046 C1034 0.960 . S
H1047 C1034 0.962 . S
H1048 C1034 0.960 . S
H1049 C1035 0.961 . S
H1050 C1035 0.961 . S
H1051 C1035 0.961 . S
H1052 C1036 0.931 . S
H1053 C1041 0.930 . S
H1054 C1042 0.956 . S
H1055 C1042 0.961 . S
H1056 C1042 0.961 . S
H1057 C1043 0.958 . S
H1058 C1043 0.961 . S
H1059 C1043 0.960 . S
C1060 C1061 1.391 . S
C1060 C1062 1.394 . S
C1060 H1076 0.931 . S
C1061 C1060 1.391 . S
C1061 C1065 1.376 . S
C1062 C1060 1.394 . S
C1062 C1063 1.369 . S
C1062 C1066 1.531 . S
C1063 C1062 1.369 . S
C1063 C1064 1.410 . S
C1063 C1071 1.503 . S
C1064 C1063 1.410 . S
C1064 C1065 1.392 . S
C1064 C1067 1.511 . S
C1065 C1061 1.376 . S
C1065 C1064 1.392 . S
C1065 H1077 0.929 . S
C1066 C1062 1.531 . S
C1066 H1078 0.960 . S
C1066 H1079 0.962 . S
C1066 H1080 0.960 . S
C1067 C1064 1.511 . S
C1067 H1081 0.961 . S
C1067 H1082 0.961 . S
C1067 H1083 0.961 . S
C1068 C1069 1.370 . S
C1068 C1070 1.363 . S
C1068 H1084 0.931 . S
C1069 C1068 1.370 . S
C1069 C1073 1.408 . S
C1070 C1068 1.363 . S
C1070 C1071 1.370 . S
C1070 C1074 1.524 . S
C1071 C1063 1.503 . S
C1071 C1070 1.370 . S
C1071 C1072 1.403 . S
C1072 C1071 1.403 . S
C1072 C1073 1.404 . S
C1072 C1075 1.539 . S
C1073 C1069 1.408 . S
C1073 C1072 1.404 . S
C1073 H1085 0.930 . S
C1074 C1070 1.524 . S
C1074 H1086 0.956 . S
C1074 H1087 0.961 . S
C1074 H1088 0.961 . S
C1075 C1072 1.539 . S
C1075 H1089 0.958 . S
C1075 H1090 0.961 . S
C1075 H1091 0.960 . S
H1076 C1060 0.931 . S
H1077 C1065 0.929 . S
H1078 C1066 0.960 . S
H1079 C1066 0.962 . S
H1080 C1066 0.960 . S
H1081 C1067 0.961 . S
H1082 C1067 0.961 . S
H1083 C1067 0.961 . S
H1084 C1068 0.931 . S
H1085 C1073 0.930 . S
H1086 C1074 0.956 . S
H1087 C1074 0.961 . S
H1088 C1074 0.961 . S
H1089 C1075 0.958 . S
H1090 C1075 0.961 . S
H1091 C1075 0.960 . S
C1092 C1093 1.391 . S
C1092 C1094 1.394 . S
C1092 H1108 0.931 . S
C1093 C1092 1.391 . S
C1093 C1097 1.376 . S
C1094 C1092 1.394 . S
C1094 C1095 1.369 . S
C1094 C1098 1.534 . S
C1095 C1094 1.369 . S
C1095 C1096 1.410 . S
C1095 C1103 1.503 1_554 S
C1096 C1095 1.410 . S
C1096 C1097 1.392 . S
C1096 C1099 1.511 . S
C1097 C1093 1.376 . S
C1097 C1096 1.392 . S
C1097 H1109 0.929 . S
C1098 C1094 1.534 . S
C1098 H1110 0.955 1_554 S
C1098 H1111 0.962 . S
C1098 H1112 0.962 . S
C1099 C1096 1.511 . S
C1099 H1113 0.961 . S
C1099 H1114 0.961 1_554 S
C1099 H1115 0.961 . S
C1100 C1101 1.370 . S
C1100 C1102 1.363 . S
C1100 H1116 0.931 . S
C1101 C1100 1.370 . S
C1101 C1105 1.408 . S
C1102 C1100 1.363 . S
C1102 C1103 1.370 . S
C1102 C1106 1.524 . S
C1103 C1095 1.503 1_556 S
C1103 C1102 1.370 . S
C1103 C1104 1.403 . S
C1104 C1103 1.403 . S
C1104 C1105 1.404 . S
C1104 C1107 1.539 . S
C1105 C1101 1.408 . S
C1105 C1104 1.404 . S
C1105 H1117 0.930 . S
C1106 C1102 1.524 . S
C1106 H1118 0.956 1_556 S
C1106 H1119 0.961 1_556 S
C1106 H1120 0.961 . S
C1107 C1104 1.539 . S
C1107 H1121 0.958 . S
C1107 H1122 0.961 . S
C1107 H1123 0.960 . S
H1108 C1092 0.931 . S
H1109 C1097 0.929 . S
H1110 C1098 0.955 1_556 S
H1111 C1098 0.962 . S
H1112 C1098 0.962 . S
H1113 C1099 0.961 . S
H1114 C1099 0.961 1_556 S
H1115 C1099 0.961 . S
H1116 C1100 0.931 . S
H1117 C1105 0.930 . S
H1118 C1106 0.956 1_554 S
H1119 C1106 0.961 1_554 S
H1120 C1106 0.961 . S
H1121 C1107 0.958 . S
H1122 C1107 0.961 . S
H1123 C1107 0.960 . S
C1124 C1125 1.391 . S
C1124 C1126 1.394 . S
C1124 H1140 0.931 . S
C1125 C1124 1.391 . S
C1125 C1129 1.376 . S
C1126 C1124 1.394 . S
C1126 C1127 1.369 . S
C1126 C1130 1.531 . S
C1127 C1126 1.369 . S
C1127 C1128 1.410 . S
C1127 C1135 1.503 1_554 S
C1128 C1127 1.410 . S
C1128 C1129 1.392 . S
C1128 C1131 1.511 1_554 S
C1129 C1125 1.376 . S
C1129 C1128 1.392 . S
C1129 H1141 0.929 . S
C1130 C1126 1.531 . S
C1130 H1142 0.960 . S
C1130 H1143 0.962 . S
C1130 H1144 0.960 . S
C1131 C1128 1.511 1_556 S
C1131 H1145 0.961 . S
C1131 H1146 0.961 . S
C1131 H1147 0.961 . S
C1132 C1133 1.370 . S
C1132 C1134 1.363 . S
C1132 H1148 0.931 . S
C1133 C1132 1.370 . S
C1133 C1137 1.408 . S
C1134 C1132 1.363 . S
C1134 C1135 1.370 . S
C1134 C1138 1.524 . S
C1135 C1127 1.503 1_556 S
C1135 C1134 1.370 . S
C1135 C1136 1.403 . S
C1136 C1135 1.403 . S
C1136 C1137 1.404 . S
C1136 C1139 1.539 . S
C1137 C1133 1.408 . S
C1137 C1136 1.404 . S
C1137 H1149 0.930 . S
C1138 C1134 1.524 . S
C1138 H1150 0.956 . S
C1138 H1151 0.961 . S
C1138 H1152 0.961 . S
C1139 C1136 1.539 . S
C1139 H1153 0.958 . S
C1139 H1154 0.961 . S
C1139 H1155 0.960 . S
H1140 C1124 0.931 . S
H1141 C1129 0.929 . S
H1142 C1130 0.960 . S
H1143 C1130 0.962 . S
H1144 C1130 0.960 . S
H1145 C1131 0.961 . S
H1146 C1131 0.961 . S
H1147 C1131 0.961 . S
H1148 C1132 0.931 . S
H1149 C1137 0.930 . S
H1150 C1138 0.956 . S
H1151 C1138 0.961 . S
H1152 C1138 0.961 . S
H1153 C1139 0.958 . S
H1154 C1139 0.961 . S
H1155 C1139 0.960 . S
C1156 C1157 1.391 . S
C1156 C1158 1.394 . S
C1156 H1172 0.931 . S
C1157 C1156 1.391 . S
C1157 C1161 1.376 . S
C1158 C1156 1.394 . S
C1158 C1159 1.369 . S
C1158 C1162 1.531 . S
C1159 C1158 1.369 . S
C1159 C1160 1.410 . S
C1159 C1167 1.503 1_556 S
C1160 C1159 1.410 . S
C1160 C1161 1.392 . S
C1160 C1163 1.511 . S
C1161 C1157 1.376 . S
C1161 C1160 1.392 . S
C1161 H1173 0.929 . S
C1162 C1158 1.531 . S
C1162 H1174 0.960 . S
C1162 H1175 0.962 . S
C1162 H1176 0.960 . S
C1163 C1160 1.511 . S
C1163 H1177 0.961 . S
C1163 H1178 0.961 1_556 S
C1163 H1179 0.961 . S
C1164 C1165 1.370 . S
C1164 C1166 1.363 . S
C1164 H1180 0.931 . S
C1165 C1164 1.370 . S
C1165 C1169 1.408 . S
C1166 C1164 1.363 . S
C1166 C1167 1.370 . S
C1166 C1170 1.524 . S
C1167 C1159 1.503 1_554 S
C1167 C1166 1.370 . S
C1167 C1168 1.403 . S
C1168 C1167 1.403 . S
C1168 C1169 1.404 . S
C1168 C1171 1.539 1_554 S
C1169 C1165 1.408 . S
C1169 C1168 1.404 . S
C1169 H1181 0.930 . S
C1170 C1166 1.524 . S
C1170 H1182 0.956 . S
C1170 H1183 0.961 . S
C1170 H1184 0.961 . S
C1171 C1168 1.539 1_556 S
C1171 H1185 0.958 . S
C1171 H1186 0.961 1_556 S
C1171 H1187 0.960 . S
H1172 C1156 0.931 . S
H1173 C1161 0.929 . S
H1174 C1162 0.960 . S
H1175 C1162 0.962 . S
H1176 C1162 0.960 . S
H1177 C1163 0.961 . S
H1178 C1163 0.961 1_554 S
H1179 C1163 0.961 . S
H1180 C1164 0.931 . S
H1181 C1169 0.930 . S
H1182 C1170 0.956 . S
H1183 C1170 0.961 . S
H1184 C1170 0.961 . S
H1185 C1171 0.958 . S
H1186 C1171 0.961 1_554 S
H1187 C1171 0.960 . S
C1188 C1189 1.391 . S
C1188 C1190 1.394 . S
C1188 H1204 0.931 . S
C1189 C1188 1.391 . S
C1189 C1193 1.376 . S
C1190 C1188 1.394 . S
C1190 C1191 1.369 . S
C1190 C1194 1.531 . S
C1191 C1190 1.369 . S
C1191 C1192 1.410 . S
C1191 C1199 1.503 . S
C1192 C1191 1.410 . S
C1192 C1193 1.392 . S
C1192 C1195 1.511 . S
C1193 C1189 1.376 . S
C1193 C1192 1.392 . S
C1193 H1205 0.929 . S
C1194 C1190 1.531 . S
C1194 H1206 0.960 . S
C1194 H1207 0.962 . S
C1194 H1208 0.960 . S
C1195 C1192 1.511 . S
C1195 H1209 0.961 . S
C1195 H1210 0.961 . S
C1195 H1211 0.961 . S
C1196 C1197 1.370 . S
C1196 C1198 1.363 . S
C1196 H1212 0.931 . S
C1197 C1196 1.370 . S
C1197 C1201 1.408 . S
C1198 C1196 1.363 . S
C1198 C1199 1.370 . S
C1198 C1202 1.524 . S
C1199 C1191 1.503 . S
C1199 C1198 1.370 . S
C1199 C1200 1.403 . S
C1200 C1199 1.403 . S
C1200 C1201 1.404 . S
C1200 C1203 1.539 . S
C1201 C1197 1.408 . S
C1201 C1200 1.404 . S
C1201 H1213 0.930 . S
C1202 C1198 1.524 . S
C1202 H1214 0.956 . S
C1202 H1215 0.961 . S
C1202 H1216 0.961 . S
C1203 C1200 1.539 . S
C1203 H1217 0.958 . S
C1203 H1218 0.961 . S
C1203 H1219 0.960 . S
H1204 C1188 0.931 . S
H1205 C1193 0.929 . S
H1206 C1194 0.960 . S
H1207 C1194 0.962 . S
H1208 C1194 0.960 . S
H1209 C1195 0.961 . S
H1210 C1195 0.961 . S
H1211 C1195 0.961 . S
H1212 C1196 0.931 . S
H1213 C1201 0.930 . S
H1214 C1202 0.956 . S
H1215 C1202 0.961 . S
H1216 C1202 0.961 . S
H1217 C1203 0.958 . S
H1218 C1203 0.961 . S
H1219 C1203 0.960 . S
C1220 C1221 1.391 . S
C1220 C1222 1.394 . S
C1220 H1236 0.931 . S
C1221 C1220 1.391 . S
C1221 C1225 1.376 . S
C1222 C1220 1.394 . S
C1222 C1223 1.369 . S
C1222 C1226 1.531 . S
C1223 C1222 1.369 . S
C1223 C1224 1.410 . S
C1223 C1231 1.503 . S
C1224 C1223 1.410 . S
C1224 C1225 1.392 . S
C1224 C1227 1.511 . S
C1225 C1221 1.376 . S
C1225 C1224 1.392 . S
C1225 H1237 0.929 . S
C1226 C1222 1.531 . S
C1226 H1238 0.960 . S
C1226 H1239 0.962 . S
C1226 H1240 0.960 . S
C1227 C1224 1.511 . S
C1227 H1241 0.961 . S
C1227 H1242 0.961 . S
C1227 H1243 0.961 . S
C1228 C1229 1.370 . S
C1228 C1230 1.363 . S
C1228 H1244 0.931 . S
C1229 C1228 1.370 . S
C1229 C1233 1.408 . S
C1230 C1228 1.363 . S
C1230 C1231 1.370 . S
C1230 C1234 1.524 . S
C1231 C1223 1.503 . S
C1231 C1230 1.370 . S
C1231 C1232 1.403 . S
C1232 C1231 1.403 . S
C1232 C1233 1.404 . S
C1232 C1235 1.539 . S
C1233 C1229 1.408 . S
C1233 C1232 1.404 . S
C1233 H1245 0.930 . S
C1234 C1230 1.524 . S
C1234 H1246 0.956 . S
C1234 H1247 0.961 . S
C1234 H1248 0.961 . S
C1235 C1232 1.539 . S
C1235 H1249 0.958 . S
C1235 H1250 0.961 . S
C1235 H1251 0.960 . S
H1236 C1220 0.931 . S
H1237 C1225 0.929 . S
H1238 C1226 0.960 . S
H1239 C1226 0.962 . S
H1240 C1226 0.960 . S
H1241 C1227 0.961 . S
H1242 C1227 0.961 . S
H1243 C1227 0.961 . S
H1244 C1228 0.931 . S
H1245 C1233 0.930 . S
H1246 C1234 0.956 . S
H1247 C1234 0.961 . S
H1248 C1234 0.961 . S
H1249 C1235 0.958 . S
H1250 C1235 0.961 . S
H1251 C1235 0.960 . S
C1252 C1253 1.391 . S
C1252 C1254 1.394 . S
C1252 H1268 0.931 . S
C1253 C1252 1.391 . S
C1253 C1257 1.376 . S
C1254 C1252 1.394 . S
C1254 C1255 1.369 . S
C1254 C1258 1.531 . S
C1255 C1254 1.369 . S
C1255 C1256 1.410 . S
C1255 C1263 1.503 . S
C1256 C1255 1.410 . S
C1256 C1257 1.392 . S
C1256 C1259 1.511 . S
C1257 C1253 1.376 . S
C1257 C1256 1.392 . S
C1257 H1269 0.929 . S
C1258 C1254 1.531 . S
C1258 H1270 0.960 . S
C1258 H1271 0.962 . S
C1258 H1272 0.960 . S
C1259 C1256 1.511 . S
C1259 H1273 0.961 . S
C1259 H1274 0.961 . S
C1259 H1275 0.961 . S
C1260 C1261 1.370 . S
C1260 C1262 1.363 . S
C1260 H1276 0.931 . S
C1261 C1260 1.370 . S
C1261 C1265 1.408 . S
C1262 C1260 1.363 . S
C1262 C1263 1.370 . S
C1262 C1266 1.524 . S
C1263 C1255 1.503 . S
C1263 C1262 1.370 . S
C1263 C1264 1.403 . S
C1264 C1263 1.403 . S
C1264 C1265 1.404 . S
C1264 C1267 1.539 . S
C1265 C1261 1.408 . S
C1265 C1264 1.404 . S
C1265 H1277 0.930 . S
C1266 C1262 1.524 . S
C1266 H1278 0.956 . S
C1266 H1279 0.961 . S
C1266 H1280 0.961 . S
C1267 C1264 1.539 . S
C1267 H1281 0.958 . S
C1267 H1282 0.961 . S
C1267 H1283 0.960 . S
H1268 C1252 0.931 . S
H1269 C1257 0.929 . S
H1270 C1258 0.960 . S
H1271 C1258 0.962 . S
H1272 C1258 0.960 . S
H1273 C1259 0.961 . S
H1274 C1259 0.961 . S
H1275 C1259 0.961 . S
H1276 C1260 0.931 . S
H1277 C1265 0.930 . S
H1278 C1266 0.956 . S
H1279 C1266 0.961 . S
H1280 C1266 0.961 . S
H1281 C1267 0.958 . S
H1282 C1267 0.961 . S
H1283 C1267 0.960 . S
C1284 C1285 1.391 . S
C1284 C1286 1.394 . S
C1284 H1300 0.931 . S
C1285 C1284 1.391 . S
C1285 C1289 1.376 . S
C1286 C1284 1.394 . S
C1286 C1287 1.369 . S
C1286 C1290 1.531 . S
C1287 C1286 1.369 . S
C1287 C1288 1.410 . S
C1287 C1295 1.503 . S
C1288 C1287 1.410 . S
C1288 C1289 1.392 . S
C1288 C1291 1.511 . S
C1289 C1285 1.376 . S
C1289 C1288 1.392 . S
C1289 H1301 0.929 . S
C1290 C1286 1.531 . S
C1290 H1302 0.960 . S
C1290 H1303 0.962 . S
C1290 H1304 0.960 . S
C1291 C1288 1.511 . S
C1291 H1305 0.961 . S
C1291 H1306 0.961 . S
C1291 H1307 0.961 . S
C1292 C1293 1.370 . S
C1292 C1294 1.363 . S
C1292 H1308 0.931 . S
C1293 C1292 1.370 . S
C1293 C1297 1.408 . S
C1294 C1292 1.363 . S
C1294 C1295 1.370 . S
C1294 C1298 1.524 . S
C1295 C1287 1.503 . S
C1295 C1294 1.370 . S
C1295 C1296 1.403 . S
C1296 C1295 1.403 . S
C1296 C1297 1.404 . S
C1296 C1299 1.539 . S
C1297 C1293 1.408 . S
C1297 C1296 1.404 . S
C1297 H1309 0.930 . S
C1298 C1294 1.524 . S
C1298 H1310 0.956 . S
C1298 H1311 0.961 . S
C1298 H1312 0.961 . S
C1299 C1296 1.539 . S
C1299 H1313 0.958 . S
C1299 H1314 0.961 . S
C1299 H1315 0.960 . S
H1300 C1284 0.931 . S
H1301 C1289 0.929 . S
H1302 C1290 0.960 . S
H1303 C1290 0.962 . S
H1304 C1290 0.960 . S
H1305 C1291 0.961 . S
H1306 C1291 0.961 . S
H1307 C1291 0.961 . S
H1308 C1292 0.931 . S
H1309 C1297 0.930 . S
H1310 C1298 0.956 . S
H1311 C1298 0.961 . S
H1312 C1298 0.961 . S
H1313 C1299 0.958 . S
H1314 C1299 0.961 . S
H1315 C1299 0.960 . S
C1316 C1317 1.391 . S
C1316 C1318 1.394 . S
C1316 H1332 0.931 . S
C1317 C1316 1.391 . S
C1317 C1321 1.376 . S
C1318 C1316 1.394 . S
C1318 C1319 1.369 . S
C1318 C1322 1.531 . S
C1319 C1318 1.369 . S
C1319 C1320 1.410 . S
C1319 C1327 1.503 . S
C1320 C1319 1.410 . S
C1320 C1321 1.392 . S
C1320 C1323 1.511 . S
C1321 C1317 1.376 . S
C1321 C1320 1.392 . S
C1321 H1333 0.929 . S
C1322 C1318 1.531 . S
C1322 H1334 0.960 . S
C1322 H1335 0.962 . S
C1322 H1336 0.960 . S
C1323 C1320 1.511 . S
C1323 H1337 0.961 . S
C1323 H1338 0.961 . S
C1323 H1339 0.961 . S
C1324 C1325 1.370 . S
C1324 C1326 1.363 . S
C1324 H1340 0.931 . S
C1325 C1324 1.370 . S
C1325 C1329 1.408 . S
C1326 C1324 1.363 . S
C1326 C1327 1.370 . S
C1326 C1330 1.524 . S
C1327 C1319 1.503 . S
C1327 C1326 1.370 . S
C1327 C1328 1.403 . S
C1328 C1327 1.403 . S
C1328 C1329 1.404 . S
C1328 C1331 1.539 . S
C1329 C1325 1.408 . S
C1329 C1328 1.404 . S
C1329 H1341 0.930 . S
C1330 C1326 1.524 . S
C1330 H1342 0.956 . S
C1330 H1343 0.961 . S
C1330 H1344 0.961 . S
C1331 C1328 1.539 . S
C1331 H1345 0.958 . S
C1331 H1346 0.961 . S
C1331 H1347 0.960 . S
H1332 C1316 0.931 . S
H1333 C1321 0.929 . S
H1334 C1322 0.960 . S
H1335 C1322 0.962 . S
H1336 C1322 0.960 . S
H1337 C1323 0.961 . S
H1338 C1323 0.961 . S
H1339 C1323 0.961 . S
H1340 C1324 0.931 . S
H1341 C1329 0.930 . S
H1342 C1330 0.956 . S
H1343 C1330 0.961 . S
H1344 C1330 0.961 . S
H1345 C1331 0.958 . S
H1346 C1331 0.961 . S
H1347 C1331 0.960 . S
C1348 C1349 1.391 . S
C1348 C1350 1.394 . S
C1348 H1364 0.931 . S
C1349 C1348 1.391 . S
C1349 C1353 1.376 . S
C1350 C1348 1.394 . S
C1350 C1351 1.369 . S
C1350 C1354 1.531 . S
C1351 C1350 1.369 . S
C1351 C1352 1.410 . S
C1351 C1359 1.503 . S
C1352 C1351 1.410 . S
C1352 C1353 1.392 . S
C1352 C1355 1.511 . S
C1353 C1349 1.376 . S
C1353 C1352 1.392 . S
C1353 H1365 0.929 . S
C1354 C1350 1.531 . S
C1354 H1366 0.960 . S
C1354 H1367 0.962 . S
C1354 H1368 0.960 . S
C1355 C1352 1.511 . S
C1355 H1369 0.961 . S
C1355 H1370 0.961 . S
C1355 H1371 0.961 . S
C1356 C1357 1.370 . S
C1356 C1358 1.363 . S
C1356 H1372 0.931 . S
C1357 C1356 1.370 . S
C1357 C1361 1.408 . S
C1358 C1356 1.363 . S
C1358 C1359 1.370 . S
C1358 C1362 1.524 . S
C1359 C1351 1.503 . S
C1359 C1358 1.370 . S
C1359 C1360 1.403 . S
C1360 C1359 1.403 . S
C1360 C1361 1.404 . S
C1360 C1363 1.539 . S
C1361 C1357 1.408 . S
C1361 C1360 1.404 . S
C1361 H1373 0.930 . S
C1362 C1358 1.524 . S
C1362 H1374 0.956 . S
C1362 H1375 0.961 . S
C1362 H1376 0.961 . S
C1363 C1360 1.539 . S
C1363 H1377 0.958 . S
C1363 H1378 0.961 . S
C1363 H1379 0.960 . S
H1364 C1348 0.931 . S
H1365 C1353 0.929 . S
H1366 C1354 0.960 . S
H1367 C1354 0.962 . S
H1368 C1354 0.960 . S
H1369 C1355 0.961 . S
H1370 C1355 0.961 . S
H1371 C1355 0.961 . S
H1372 C1356 0.931 . S
H1373 C1361 0.930 . S
H1374 C1362 0.956 . S
H1375 C1362 0.961 . S
H1376 C1362 0.961 . S
H1377 C1363 0.958 . S
H1378 C1363 0.961 . S
H1379 C1363 0.960 . S
C1380 C1381 1.391 . S
C1380 C1382 1.394 1_554 S
C1380 H1396 0.931 1_554 S
C1381 C1380 1.391 . S
C1381 C1385 1.376 . S
C1382 C1380 1.394 1_556 S
C1382 C1383 1.369 1_556 S
C1382 C1386 1.531 . S
C1383 C1382 1.369 1_554 S
C1383 C1384 1.410 . S
C1383 C1391 1.503 1_654 S
C1384 C1383 1.410 . S
C1384 C1385 1.392 . S
C1384 C1387 1.511 1_655 S
C1385 C1381 1.376 . S
C1385 C1384 1.392 . S
C1385 H1397 0.929 . S
C1386 C1382 1.531 . S
C1386 H1398 0.960 . S
C1386 H1399 0.962 . S
C1386 H1400 0.960 . S
C1387 C1384 1.511 1_455 S
C1387 H1401 0.961 . S
C1387 H1402 0.961 . S
C1387 H1403 0.961 . S
C1388 C1389 1.370 . S
C1388 C1390 1.363 . S
C1388 H1404 0.931 . S
C1389 C1388 1.370 . S
C1389 C1393 1.408 . S
C1390 C1388 1.363 . S
C1390 C1391 1.370 . S
C1390 C1394 1.524 1_556 S
C1391 C1383 1.503 1_456 S
C1391 C1390 1.370 . S
C1391 C1392 1.403 . S
C1392 C1391 1.403 . S
C1392 C1393 1.404 . S
C1392 C1395 1.539 . S
C1393 C1389 1.408 . S
C1393 C1392 1.404 . S
C1393 H1405 0.930 . S
C1394 C1390 1.524 1_554 S
C1394 H1406 0.956 1_454 S
C1394 H1407 0.961 . S
C1394 H1408 0.962 . S
C1395 C1392 1.539 . S
C1395 H1409 0.958 1_455 S
C1395 H1410 0.961 . S
C1395 H1411 0.958 1_455 S
H1396 C1380 0.931 1_556 S
H1397 C1385 0.929 . S
H1398 C1386 0.960 . S
H1399 C1386 0.962 . S
H1400 C1386 0.960 . S
H1401 C1387 0.961 . S
H1402 C1387 0.961 . S
H1403 C1387 0.961 . S
H1404 C1388 0.931 . S
H1405 C1393 0.930 . S
H1406 C1394 0.956 1_656 S
H1407 C1394 0.961 . S
H1408 C1394 0.962 . S
H1409 C1395 0.958 1_655 S
H1410 C1395 0.961 . S
H1411 C1395 0.958 1_655 S
C1412 C1413 1.391 . S
C1412 C1414 1.394 . S
C1412 H1428 0.931 . S
C1413 C1412 1.391 . S
C1413 C1417 1.376 . S
C1414 C1412 1.394 . S
C1414 C1415 1.369 . S
C1414 C1418 1.527 1_556 S
C1415 C1414 1.369 . S
C1415 C1416 1.410 . S
C1415 C1423 1.503 1_556 S
C1416 C1415 1.410 . S
C1416 C1417 1.392 . S
C1416 C1419 1.511 . S
C1417 C1413 1.376 . S
C1417 C1416 1.392 . S
C1417 H1429 0.929 . S
C1418 C1414 1.527 1_554 S
C1418 H1430 0.970 . S
C1418 H1431 0.954 1_554 S
C1418 H1432 0.962 . S
C1419 C1416 1.511 . S
C1419 H1433 0.961 . S
C1419 H1434 0.961 . S
C1419 H1435 0.961 1_556 S
C1420 C1421 1.370 . S
C1420 C1422 1.363 1_554 S
C1420 H1436 0.931 1_554 S
C1421 C1420 1.370 . S
C1421 C1425 1.408 . S
C1422 C1420 1.363 1_556 S
C1422 C1423 1.370 1_556 S
C1422 C1426 1.524 . S
C1423 C1415 1.503 1_554 S
C1423 C1422 1.370 1_554 S
C1423 C1424 1.403 . S
C1424 C1423 1.403 . S
C1424 C1425 1.404 . S
C1424 C1427 1.539 . S
C1425 C1421 1.408 . S
C1425 C1424 1.404 . S
C1425 H1437 0.930 . S
C1426 C1422 1.524 . S
C1426 H1438 0.956 . S
C1426 H1439 0.961 . S
C1426 H1440 0.961 . S
C1427 C1424 1.539 . S
C1427 H1441 0.958 . S
C1427 H1442 0.961 . S
C1427 H1443 0.960 . S
H1428 C1412 0.931 . S
H1429 C1417 0.929 . S
H1430 C1418 0.970 . S
H1431 C1418 0.954 1_556 S
H1432 C1418 0.962 . S
H1433 C1419 0.961 . S
H1434 C1419 0.961 . S
H1435 C1419 0.961 1_554 S
H1436 C1420 0.931 1_556 S
H1437 C1425 0.930 . S
H1438 C1426 0.956 . S
H1439 C1426 0.961 . S
H1440 C1426 0.961 . S
H1441 C1427 0.958 . S
H1442 C1427 0.961 . S
H1443 C1427 0.960 . S
C1444 C1445 1.391 . S
C1444 C1446 1.394 . S
C1444 H1460 0.931 . S
C1445 C1444 1.391 . S
C1445 C1449 1.376 . S
C1446 C1444 1.394 . S
C1446 C1447 1.369 . S
C1446 C1450 1.531 1_554 S
C1447 C1446 1.369 . S
C1447 C1448 1.410 . S
C1447 C1455 1.503 1_544 S
C1448 C1447 1.410 . S
C1448 C1449 1.392 . S
C1448 C1451 1.511 1_545 S
C1449 C1445 1.376 . S
C1449 C1448 1.392 . S
C1449 H1461 0.929 . S
C1450 C1446 1.531 1_556 S
C1450 H1462 0.960 . S
C1450 H1463 0.962 . S
C1450 H1464 0.960 . S
C1451 C1448 1.511 1_565 S
C1451 H1465 0.961 1_565 S
C1451 H1466 0.961 . S
C1451 H1467 0.961 . S
C1452 C1453 1.370 . S
C1452 C1454 1.363 . S
C1452 H1468 0.931 . S
C1453 C1452 1.370 . S
C1453 C1457 1.408 . S
C1454 C1452 1.363 . S
C1454 C1455 1.370 . S
C1454 C1458 1.524 1_565 S
C1455 C1447 1.503 1_566 S
C1455 C1454 1.370 . S
C1455 C1456 1.403 1_556 S
C1456 C1455 1.403 1_554 S
C1456 C1457 1.404 1_554 S
C1456 C1459 1.539 . S
C1457 C1453 1.408 . S
C1457 C1456 1.404 1_556 S
C1457 H1469 0.930 . S
C1458 C1454 1.524 1_545 S
C1458 H1470 0.956 . S
C1458 H1471 0.961 . S
C1458 H1472 0.961 . S
C1459 C1456 1.539 . S
C1459 H1473 0.958 . S
C1459 H1474 0.961 . S
C1459 H1475 0.960 . S
H1460 C1444 0.931 . S
H1461 C1449 0.929 . S
H1462 C1450 0.960 . S
H1463 C1450 0.962 . S
H1464 C1450 0.960 . S
H1465 C1451 0.961 1_545 S
H1466 C1451 0.961 . S
H1467 C1451 0.961 . S
H1468 C1452 0.931 . S
H1469 C1457 0.930 . S
H1470 C1458 0.956 . S
H1471 C1458 0.961 . S
H1472 C1458 0.961 . S
H1473 C1459 0.958 . S
H1474 C1459 0.961 . S
H1475 C1459 0.960 . S
C1476 C1477 1.391 . S
C1476 C1478 1.394 . S
C1476 H1492 0.931 . S
C1477 C1476 1.391 . S
C1477 C1481 1.376 . S
C1478 C1476 1.394 . S
C1478 C1479 1.369 . S
C1478 C1482 1.531 . S
C1479 C1478 1.369 . S
C1479 C1480 1.410 . S
C1479 C1487 1.503 1_554 S
C1480 C1479 1.410 . S
C1480 C1481 1.392 . S
C1480 C1483 1.511 . S
C1481 C1477 1.376 . S
C1481 C1480 1.392 . S
C1481 H1493 0.929 . S
C1482 C1478 1.531 . S
C1482 H1494 0.959 1_554 S
C1482 H1495 0.963 . S
C1482 H1496 0.960 1_554 S
C1483 C1480 1.511 . S
C1483 H1497 0.961 . S
C1483 H1498 0.962 . S
C1483 H1499 0.961 1_554 S
C1484 C1485 1.370 . S
C1484 C1486 1.363 1_556 S
C1484 H1500 0.931 1_556 S
C1485 C1484 1.370 . S
C1485 C1489 1.408 . S
C1486 C1484 1.363 1_554 S
C1486 C1487 1.370 1_554 S
C1486 C1490 1.524 . S
C1487 C1479 1.503 1_556 S
C1487 C1486 1.370 1_556 S
C1487 C1488 1.403 . S
C1488 C1487 1.403 . S
C1488 C1489 1.404 . S
C1488 C1491 1.539 . S
C1489 C1485 1.408 . S
C1489 C1488 1.404 . S
C1489 H1501 0.930 . S
C1490 C1486 1.524 . S
C1490 H1502 0.956 . S
C1490 H1503 0.961 . S
C1490 H1504 0.961 . S
C1491 C1488 1.539 . S
C1491 H1505 0.958 . S
C1491 H1506 0.961 . S
C1491 H1507 0.960 . S
H1492 C1476 0.931 . S
H1493 C1481 0.929 . S
H1494 C1482 0.959 1_556 S
H1495 C1482 0.963 . S
H1496 C1482 0.960 1_556 S
H1497 C1483 0.961 . S
H1498 C1483 0.962 . S
H1499 C1483 0.961 1_556 S
H1500 C1484 0.931 1_554 S
H1501 C1489 0.930 . S
H1502 C1490 0.956 . S
H1503 C1490 0.961 . S
H1504 C1490 0.961 . S
H1505 C1491 0.958 . S
H1506 C1491 0.961 . S
H1507 C1491 0.960 . S
C1508 C1509 1.391 . S
C1508 C1510 1.394 . S
C1508 H1524 0.931 . S
C1509 C1508 1.391 . S
C1509 C1513 1.376 . S
C1510 C1508 1.394 . S
C1510 C1511 1.369 . S
C1510 C1514 1.531 1_554 S
C1511 C1510 1.369 . S
C1511 C1512 1.410 . S
C1511 C1519 1.503 1_564 S
C1512 C1511 1.410 . S
C1512 C1513 1.392 . S
C1512 C1515 1.511 . S
C1513 C1509 1.376 . S
C1513 C1512 1.392 . S
C1513 H1525 0.929 . S
C1514 C1510 1.531 1_556 S
C1514 H1526 0.960 . S
C1514 H1527 0.962 . S
C1514 H1528 0.960 . S
C1515 C1512 1.511 . S
C1515 H1529 0.961 . S
C1515 H1530 0.961 1_565 S
C1515 H1531 0.961 . S
C1516 C1517 1.370 . S
C1516 C1518 1.363 1_556 S
C1516 H1532 0.931 . S
C1517 C1516 1.370 . S
C1517 C1521 1.408 . S
C1518 C1516 1.363 1_554 S
C1518 C1519 1.370 1_554 S
C1518 C1522 1.524 . S
C1519 C1511 1.503 1_546 S
C1519 C1518 1.370 1_556 S
C1519 C1520 1.403 . S
C1520 C1519 1.403 . S
C1520 C1521 1.404 . S
C1520 C1523 1.539 1_545 S
C1521 C1517 1.408 . S
C1521 C1520 1.404 . S
C1521 H1533 0.930 . S
C1522 C1518 1.524 . S
C1522 H1534 0.956 . S
C1522 H1535 0.961 . S
C1522 H1536 0.961 . S
C1523 C1520 1.539 1_565 S
C1523 H1537 0.958 . S
C1523 H1538 0.961 . S
C1523 H1539 0.960 . S
H1524 C1508 0.931 . S
H1525 C1513 0.929 . S
H1526 C1514 0.960 . S
H1527 C1514 0.962 . S
H1528 C1514 0.960 . S
H1529 C1515 0.961 . S
H1530 C1515 0.961 1_545 S
H1531 C1515 0.961 . S
H1532 C1516 0.931 . S
H1533 C1521 0.930 . S
H1534 C1522 0.956 . S
H1535 C1522 0.961 . S
H1536 C1522 0.961 . S
H1537 C1523 0.958 . S
H1538 C1523 0.961 . S
H1539 C1523 0.960 . S
C1540 C1541 1.391 . S
C1540 C1542 1.394 1_556 S
C1540 H1556 0.931 . S
C1541 C1540 1.391 . S
C1541 C1545 1.376 . S
C1542 C1540 1.394 1_554 S
C1542 C1543 1.369 1_554 S
C1542 C1546 1.531 . S
C1543 C1542 1.369 1_556 S
C1543 C1544 1.410 . S
C1543 C1551 1.503 1_656 S
C1544 C1543 1.410 . S
C1544 C1545 1.392 . S
C1544 C1547 1.511 1_655 S
C1545 C1541 1.376 . S
C1545 C1544 1.392 . S
C1545 H1557 0.929 . S
C1546 C1542 1.531 . S
C1546 H1558 0.960 . S
C1546 H1559 0.962 . S
C1546 H1560 0.960 . S
C1547 C1544 1.511 1_455 S
C1547 H1561 0.961 . S
C1547 H1562 0.961 . S
C1547 H1563 0.961 . S
C1548 C1549 1.370 . S
C1548 C1550 1.363 . S
C1548 H1564 0.931 . S
C1549 C1548 1.370 . S
C1549 C1553 1.408 . S
C1550 C1548 1.363 . S
C1550 C1551 1.370 . S
C1550 C1554 1.524 1_554 S
C1551 C1543 1.503 1_454 S
C1551 C1550 1.370 . S
C1551 C1552 1.403 . S
C1552 C1551 1.403 . S
C1552 C1553 1.404 . S
C1552 C1555 1.546 . S
C1553 C1549 1.408 . S
C1553 C1552 1.404 . S
C1553 H1565 0.930 . S
C1554 C1550 1.524 1_556 S
C1554 H1566 0.956 . S
C1554 H1567 0.961 . S
C1554 H1568 0.961 . S
C1555 C1552 1.546 . S
C1555 H1569 0.926 1_455 S
C1555 H1570 1.012 . S
C1555 H1571 0.939 1_455 S
H1556 C1540 0.931 . S
H1557 C1545 0.929 . S
H1558 C1546 0.960 . S
H1559 C1546 0.962 . S
H1560 C1546 0.960 . S
H1561 C1547 0.961 . S
H1562 C1547 0.961 . S
H1563 C1547 0.961 . S
H1564 C1548 0.931 . S
H1565 C1553 0.930 . S
H1566 C1554 0.956 . S
H1567 C1554 0.961 . S
H1568 C1554 0.961 . S
H1569 C1555 0.926 1_655 S
H1570 C1555 1.012 . S
H1571 C1555 0.939 1_655 S
C1572 C1573 1.391 . S
C1572 C1574 1.394 . S
C1572 H1588 0.931 . S
C1573 C1572 1.391 . S
C1573 C1577 1.376 . S
C1574 C1572 1.394 . S
C1574 C1575 1.369 . S
C1574 C1578 1.531 . S
C1575 C1574 1.369 . S
C1575 C1576 1.410 1_556 S
C1575 C1583 1.503 1_556 S
C1576 C1575 1.410 1_554 S
C1576 C1577 1.392 1_554 S
C1576 C1579 1.511 . S
C1577 C1573 1.376 . S
C1577 C1576 1.392 1_556 S
C1577 H1589 0.929 1_556 S
C1578 C1574 1.531 . S
C1578 H1590 0.960 . S
C1578 H1591 0.962 . S
C1578 H1592 0.960 . S
C1579 C1576 1.511 . S
C1579 H1593 0.961 . S
C1579 H1594 0.961 . S
C1579 H1595 0.961 . S
C1580 C1581 1.370 . S
C1580 C1582 1.363 . S
C1580 H1596 0.931 . S
C1581 C1580 1.370 . S
C1581 C1585 1.408 . S
C1582 C1580 1.363 . S
C1582 C1583 1.370 . S
C1582 C1586 1.524 . S
C1583 C1575 1.503 1_554 S
C1583 C1582 1.370 . S
C1583 C1584 1.403 . S
C1584 C1583 1.403 . S
C1584 C1585 1.404 . S
C1584 C1587 1.539 . S
C1585 C1581 1.408 . S
C1585 C1584 1.404 . S
C1585 H1597 0.930 . S
C1586 C1582 1.524 . S
C1586 H1598 0.956 1_554 S
C1586 H1599 0.961 . S
C1586 H1600 0.961 . S
C1587 C1584 1.539 . S
C1587 H1601 0.958 1_554 S
C1587 H1602 0.961 . S
C1587 H1603 0.960 . S
H1588 C1572 0.931 . S
H1589 C1577 0.929 1_554 S
H1590 C1578 0.960 . S
H1591 C1578 0.962 . S
H1592 C1578 0.960 . S
H1593 C1579 0.961 . S
H1594 C1579 0.961 . S
H1595 C1579 0.961 . S
H1596 C1580 0.931 . S
H1597 C1585 0.930 . S
H1598 C1586 0.956 1_556 S
H1599 C1586 0.961 . S
H1600 C1586 0.961 . S
H1601 C1587 0.958 1_556 S
H1602 C1587 0.961 . S
H1603 C1587 0.960 . S
C1604 C1605 1.391 . S
C1604 C1606 1.394 . S
C1604 H1620 0.931 . S
C1605 C1604 1.391 . S
C1605 C1609 1.376 . S
C1606 C1604 1.394 . S
C1606 C1607 1.369 . S
C1606 C1610 1.533 . S
C1607 C1606 1.369 . S
C1607 C1608 1.410 . S
C1607 C1615 1.503 1_546 S
C1608 C1607 1.410 . S
C1608 C1609 1.392 . S
C1608 C1611 1.511 1_556 S
C1609 C1605 1.376 . S
C1609 C1608 1.392 . S
C1609 H1621 0.929 . S
C1610 C1606 1.533 . S
C1610 H1622 0.943 1_545 S
C1610 H1623 0.970 . S
C1610 H1624 0.968 . S
C1611 C1608 1.511 1_554 S
C1611 H1625 0.961 . S
C1611 H1626 0.961 . S
C1611 H1627 0.961 1_554 S
C1612 C1613 1.370 . S
C1612 C1614 1.363 . S
C1612 H1628 0.931 . S
C1613 C1612 1.370 . S
C1613 C1617 1.408 . S
C1614 C1612 1.363 . S
C1614 C1615 1.370 . S
C1614 C1618 1.524 1_565 S
C1615 C1607 1.503 1_564 S
C1615 C1614 1.370 . S
C1615 C1616 1.403 1_554 S
C1616 C1615 1.403 1_556 S
C1616 C1617 1.404 1_556 S
C1616 C1619 1.539 . S
C1617 C1613 1.408 . S
C1617 C1616 1.404 1_554 S
C1617 H1629 0.930 1_554 S
C1618 C1614 1.524 1_545 S
C1618 H1630 0.956 . S
C1618 H1631 0.961 . S
C1618 H1632 0.961 . S
C1619 C1616 1.539 . S
C1619 H1633 0.958 . S
C1619 H1634 0.961 . S
C1619 H1635 0.960 . S
H1620 C1604 0.931 . S
H1621 C1609 0.929 . S
H1622 C1610 0.943 1_565 S
H1623 C1610 0.970 . S
H1624 C1610 0.968 . S
H1625 C1611 0.961 . S
H1626 C1611 0.961 . S
H1627 C1611 0.961 1_556 S
H1628 C1612 0.931 . S
H1629 C1617 0.930 1_556 S
H1630 C1618 0.956 . S
H1631 C1618 0.961 . S
H1632 C1618 0.961 . S
H1633 C1619 0.958 . S
H1634 C1619 0.961 . S
H1635 C1619 0.960 . S
C1636 C1637 1.391 . S
C1636 C1638 1.394 . S
C1636 H1652 0.931 . S
C1637 C1636 1.391 . S
C1637 C1641 1.376 . S
C1638 C1636 1.394 . S
C1638 C1639 1.369 . S
C1638 C1642 1.531 1_655 S
C1639 C1638 1.369 . S
C1639 C1640 1.410 1_556 S
C1639 C1647 1.503 1_656 S
C1640 C1639 1.410 1_554 S
C1640 C1641 1.392 1_554 S
C1640 C1643 1.511 . S
C1641 C1637 1.376 . S
C1641 C1640 1.392 1_556 S
C1641 H1653 0.929 1_556 S
C1642 C1638 1.531 1_455 S
C1642 H1654 0.960 . S
C1642 H1655 0.962 . S
C1642 H1656 0.981 . S
C1643 C1640 1.511 . S
C1643 H1657 0.961 . S
C1643 H1658 0.961 . S
C1643 H1659 0.961 . S
C1644 C1645 1.370 . S
C1644 C1646 1.363 . S
C1644 H1660 0.931 . S
C1645 C1644 1.370 . S
C1645 C1649 1.408 . S
C1646 C1644 1.363 . S
C1646 C1647 1.370 . S
C1646 C1650 1.524 1_554 S
C1647 C1639 1.503 1_454 S
C1647 C1646 1.370 . S
C1647 C1648 1.403 . S
C1648 C1647 1.403 . S
C1648 C1649 1.404 . S
C1648 C1651 1.539 . S
C1649 C1645 1.408 . S
C1649 C1648 1.404 . S
C1649 H1661 0.930 . S
C1650 C1646 1.524 1_556 S
C1650 H1662 0.956 . S
C1650 H1663 0.961 . S
C1650 H1664 0.961 . S
C1651 C1648 1.539 . S
C1651 H1665 0.958 . S
C1651 H1666 0.961 . S
C1651 H1667 0.960 1_455 S
H1652 C1636 0.931 . S
H1653 C1641 0.929 1_554 S
H1654 C1642 0.960 . S
H1655 C1642 0.962 . S
H1656 C1642 0.981 . S
H1657 C1643 0.961 . S
H1658 C1643 0.961 . S
H1659 C1643 0.961 . S
H1660 C1644 0.931 . S
H1661 C1649 0.930 . S
H1662 C1650 0.956 . S
H1663 C1650 0.961 . S
H1664 C1650 0.961 . S
H1665 C1651 0.958 . S
H1666 C1651 0.961 . S
H1667 C1651 0.960 1_655 S
C1668 C1669 1.391 . S
C1668 C1670 1.394 . S
C1668 H1684 0.931 . S
C1669 C1668 1.391 . S
C1669 C1673 1.376 . S
C1670 C1668 1.394 . S
C1670 C1671 1.369 . S
C1670 C1674 1.531 . S
C1671 C1670 1.369 . S
C1671 C1672 1.410 . S
C1671 C1679 1.503 . S
C1672 C1671 1.410 . S
C1672 C1673 1.392 . S
C1672 C1675 1.511 . S
C1673 C1669 1.376 . S
C1673 C1672 1.392 . S
C1673 H1685 0.929 . S
C1674 C1670 1.531 . S
C1674 H1686 0.960 . S
C1674 H1687 0.962 . S
C1674 H1688 0.960 . S
C1675 C1672 1.511 . S
C1675 H1689 0.961 . S
C1675 H1690 0.961 . S
C1675 H1691 0.961 . S
C1676 C1677 1.370 . S
C1676 C1678 1.363 . S
C1676 H1692 0.931 . S
C1677 C1676 1.370 . S
C1677 C1681 1.408 . S
C1678 C1676 1.363 . S
C1678 C1679 1.370 . S
C1678 C1682 1.524 . S
C1679 C1671 1.503 . S
C1679 C1678 1.370 . S
C1679 C1680 1.403 . S
C1680 C1679 1.403 . S
C1680 C1681 1.404 . S
C1680 C1683 1.539 . S
C1681 C1677 1.408 . S
C1681 C1680 1.404 . S
C1681 H1693 0.930 . S
C1682 C1678 1.524 . S
C1682 H1694 0.956 . S
C1682 H1695 0.961 . S
C1682 H1696 0.961 . S
C1683 C1680 1.539 . S
C1683 H1697 0.958 . S
C1683 H1698 0.961 . S
C1683 H1699 0.960 . S
H1684 C1668 0.931 . S
H1685 C1673 0.929 . S
H1686 C1674 0.960 . S
H1687 C1674 0.962 . S
H1688 C1674 0.960 . S
H1689 C1675 0.961 . S
H1690 C1675 0.961 . S
H1691 C1675 0.961 . S
H1692 C1676 0.931 . S
H1693 C1681 0.930 . S
H1694 C1682 0.956 . S
H1695 C1682 0.961 . S
H1696 C1682 0.961 . S
H1697 C1683 0.958 . S
H1698 C1683 0.961 . S
H1699 C1683 0.960 . S
C1700 C1701 1.391 . S
C1700 C1702 1.394 . S
C1700 H1716 0.931 . S
C1701 C1700 1.391 . S
C1701 C1705 1.376 . S
C1702 C1700 1.394 . S
C1702 C1703 1.369 . S
C1702 C1706 1.531 . S
C1703 C1702 1.369 . S
C1703 C1704 1.410 . S
C1703 C1711 1.503 . S
C1704 C1703 1.410 . S
C1704 C1705 1.392 . S
C1704 C1707 1.511 . S
C1705 C1701 1.376 . S
C1705 C1704 1.392 . S
C1705 H1717 0.929 . S
C1706 C1702 1.531 . S
C1706 H1718 0.960 . S
C1706 H1719 0.962 . S
C1706 H1720 0.960 . S
C1707 C1704 1.511 . S
C1707 H1721 0.961 . S
C1707 H1722 0.961 . S
C1707 H1723 0.961 . S
C1708 C1709 1.370 . S
C1708 C1710 1.363 . S
C1708 H1724 0.931 . S
C1709 C1708 1.370 . S
C1709 C1713 1.408 . S
C1710 C1708 1.363 . S
C1710 C1711 1.370 . S
C1710 C1714 1.524 . S
C1711 C1703 1.503 . S
C1711 C1710 1.370 . S
C1711 C1712 1.403 . S
C1712 C1711 1.403 . S
C1712 C1713 1.404 . S
C1712 C1715 1.539 . S
C1713 C1709 1.408 . S
C1713 C1712 1.404 . S
C1713 H1725 0.930 . S
C1714 C1710 1.524 . S
C1714 H1726 0.956 . S
C1714 H1727 0.961 . S
C1714 H1728 0.961 . S
C1715 C1712 1.539 . S
C1715 H1729 0.958 . S
C1715 H1730 0.961 . S
C1715 H1731 0.960 . S
H1716 C1700 0.931 . S
H1717 C1705 0.929 . S
H1718 C1706 0.960 . S
H1719 C1706 0.962 . S
H1720 C1706 0.960 . S
H1721 C1707 0.961 . S
H1722 C1707 0.961 . S
H1723 C1707 0.961 . S
H1724 C1708 0.931 . S
H1725 C1713 0.930 . S
H1726 C1714 0.956 . S
H1727 C1714 0.961 . S
H1728 C1714 0.961 . S
H1729 C1715 0.958 . S
H1730 C1715 0.961 . S
H1731 C1715 0.960 . S
C1732 C1733 1.391 . S
C1732 C1734 1.394 . S
C1732 H1748 0.931 . S
C1733 C1732 1.391 . S
C1733 C1737 1.376 . S
C1734 C1732 1.394 . S
C1734 C1735 1.369 . S
C1734 C1738 1.531 . S
C1735 C1734 1.369 . S
C1735 C1736 1.410 . S
C1735 C1743 1.503 . S
C1736 C1735 1.410 . S
C1736 C1737 1.392 . S
C1736 C1739 1.511 . S
C1737 C1733 1.376 . S
C1737 C1736 1.392 . S
C1737 H1749 0.929 . S
C1738 C1734 1.531 . S
C1738 H1750 0.960 . S
C1738 H1751 0.962 . S
C1738 H1752 0.960 . S
C1739 C1736 1.511 . S
C1739 H1753 0.961 . S
C1739 H1754 0.961 . S
C1739 H1755 0.961 . S
C1740 C1741 1.370 . S
C1740 C1742 1.363 . S
C1740 H1756 0.931 . S
C1741 C1740 1.370 . S
C1741 C1745 1.408 . S
C1742 C1740 1.363 . S
C1742 C1743 1.370 . S
C1742 C1746 1.524 . S
C1743 C1735 1.503 . S
C1743 C1742 1.370 . S
C1743 C1744 1.403 . S
C1744 C1743 1.403 . S
C1744 C1745 1.404 . S
C1744 C1747 1.539 . S
C1745 C1741 1.408 . S
C1745 C1744 1.404 . S
C1745 H1757 0.930 . S
C1746 C1742 1.524 . S
C1746 H1758 0.956 . S
C1746 H1759 0.961 . S
C1746 H1760 0.961 . S
C1747 C1744 1.539 . S
C1747 H1761 0.958 . S
C1747 H1762 0.961 . S
C1747 H1763 0.960 . S
H1748 C1732 0.931 . S
H1749 C1737 0.929 . S
H1750 C1738 0.960 . S
H1751 C1738 0.962 . S
H1752 C1738 0.960 . S
H1753 C1739 0.961 . S
H1754 C1739 0.961 . S
H1755 C1739 0.961 . S
H1756 C1740 0.931 . S
H1757 C1745 0.930 . S
H1758 C1746 0.956 . S
H1759 C1746 0.961 . S
H1760 C1746 0.961 . S
H1761 C1747 0.958 . S
H1762 C1747 0.961 . S
H1763 C1747 0.960 . S
C1764 C1765 1.391 . S
C1764 C1766 1.394 . S
C1764 H1780 0.931 . S
C1765 C1764 1.391 . S
C1765 C1769 1.376 . S
C1766 C1764 1.394 . S
C1766 C1767 1.369 . S
C1766 C1770 1.531 . S
C1767 C1766 1.369 . S
C1767 C1768 1.410 . S
C1767 C1775 1.503 . S
C1768 C1767 1.410 . S
C1768 C1769 1.392 . S
C1768 C1771 1.511 . S
C1769 C1765 1.376 . S
C1769 C1768 1.392 . S
C1769 H1781 0.929 . S
C1770 C1766 1.531 . S
C1770 H1782 0.960 . S
C1770 H1783 0.962 . S
C1770 H1784 0.960 . S
C1771 C1768 1.511 . S
C1771 H1785 0.961 . S
C1771 H1786 0.961 . S
C1771 H1787 0.961 . S
C1772 C1773 1.370 . S
C1772 C1774 1.363 . S
C1772 H1788 0.931 . S
C1773 C1772 1.370 . S
C1773 C1777 1.408 . S
C1774 C1772 1.363 . S
C1774 C1775 1.370 . S
C1774 C1778 1.524 . S
C1775 C1767 1.503 . S
C1775 C1774 1.370 . S
C1775 C1776 1.403 . S
C1776 C1775 1.403 . S
C1776 C1777 1.404 . S
C1776 C1779 1.539 . S
C1777 C1773 1.408 . S
C1777 C1776 1.404 . S
C1777 H1789 0.930 . S
C1778 C1774 1.524 . S
C1778 H1790 0.956 . S
C1778 H1791 0.961 . S
C1778 H1792 0.961 . S
C1779 C1776 1.539 . S
C1779 H1793 0.958 . S
C1779 H1794 0.961 . S
C1779 H1795 0.960 . S
H1780 C1764 0.931 . S
H1781 C1769 0.929 . S
H1782 C1770 0.960 . S
H1783 C1770 0.962 . S
H1784 C1770 0.960 . S
H1785 C1771 0.961 . S
H1786 C1771 0.961 . S
H1787 C1771 0.961 . S
H1788 C1772 0.931 . S
H1789 C1777 0.930 . S
H1790 C1778 0.956 . S
H1791 C1778 0.961 . S
H1792 C1778 0.961 . S
H1793 C1779 0.958 . S
H1794 C1779 0.961 . S
H1795 C1779 0.960 . S
C1796 C1797 1.391 . S
C1796 C1798 1.394 . S
C1796 H1812 0.931 . S
C1797 C1796 1.391 . S
C1797 C1801 1.376 . S
C1798 C1796 1.394 . S
C1798 C1799 1.369 . S
C1798 C1802 1.531 . S
C1799 C1798 1.369 . S
C1799 C1800 1.410 . S
C1799 C1807 1.503 . S
C1800 C1799 1.410 . S
C1800 C1801 1.392 . S
C1800 C1803 1.511 . S
C1801 C1797 1.376 . S
C1801 C1800 1.392 . S
C1801 H1813 0.929 . S
C1802 C1798 1.531 . S
C1802 H1814 0.960 . S
C1802 H1815 0.962 . S
C1802 H1816 0.960 . S
C1803 C1800 1.511 . S
C1803 H1817 0.961 . S
C1803 H1818 0.961 . S
C1803 H1819 0.961 . S
C1804 C1805 1.370 . S
C1804 C1806 1.363 . S
C1804 H1820 0.931 . S
C1805 C1804 1.370 . S
C1805 C1809 1.408 . S
C1806 C1804 1.363 . S
C1806 C1807 1.370 . S
C1806 C1810 1.524 . S
C1807 C1799 1.503 . S
C1807 C1806 1.370 . S
C1807 C1808 1.403 . S
C1808 C1807 1.403 . S
C1808 C1809 1.404 . S
C1808 C1811 1.539 . S
C1809 C1805 1.408 . S
C1809 C1808 1.404 . S
C1809 H1821 0.930 . S
C1810 C1806 1.524 . S
C1810 H1822 0.956 . S
C1810 H1823 0.961 . S
C1810 H1824 0.961 . S
C1811 C1808 1.539 . S
C1811 H1825 0.958 . S
C1811 H1826 0.961 . S
C1811 H1827 0.960 . S
H1812 C1796 0.931 . S
H1813 C1801 0.929 . S
H1814 C1802 0.960 . S
H1815 C1802 0.962 . S
H1816 C1802 0.960 . S
H1817 C1803 0.961 . S
H1818 C1803 0.961 . S
H1819 C1803 0.961 . S
H1820 C1804 0.931 . S
H1821 C1809 0.930 . S
H1822 C1810 0.956 . S
H1823 C1810 0.961 . S
H1824 C1810 0.961 . S
H1825 C1811 0.958 . S
H1826 C1811 0.961 . S
H1827 C1811 0.960 . S
C1828 C1829 1.391 . S
C1828 C1830 1.394 . S
C1828 H1844 0.931 . S
C1829 C1828 1.391 . S
C1829 C1833 1.376 . S
C1830 C1828 1.394 . S
C1830 C1831 1.369 . S
C1830 C1834 1.531 . S
C1831 C1830 1.369 . S
C1831 C1832 1.410 . S
C1831 C1839 1.503 . S
C1832 C1831 1.410 . S
C1832 C1833 1.392 . S
C1832 C1835 1.511 . S
C1833 C1829 1.376 . S
C1833 C1832 1.392 . S
C1833 H1845 0.929 . S
C1834 C1830 1.531 . S
C1834 H1846 0.960 . S
C1834 H1847 0.962 . S
C1834 H1848 0.960 . S
C1835 C1832 1.511 . S
C1835 H1849 0.961 . S
C1835 H1850 0.961 . S
C1835 H1851 0.961 . S
C1836 C1837 1.370 . S
C1836 C1838 1.363 . S
C1836 H1852 0.931 . S
C1837 C1836 1.370 . S
C1837 C1841 1.408 . S
C1838 C1836 1.363 . S
C1838 C1839 1.370 . S
C1838 C1842 1.524 . S
C1839 C1831 1.503 . S
C1839 C1838 1.370 . S
C1839 C1840 1.403 . S
C1840 C1839 1.403 . S
C1840 C1841 1.404 . S
C1840 C1843 1.539 . S
C1841 C1837 1.408 . S
C1841 C1840 1.404 . S
C1841 H1853 0.930 . S
C1842 C1838 1.524 . S
C1842 H1854 0.956 . S
C1842 H1855 0.961 . S
C1842 H1856 0.961 . S
C1843 C1840 1.539 . S
C1843 H1857 0.958 . S
C1843 H1858 0.961 . S
C1843 H1859 0.960 . S
H1844 C1828 0.931 . S
H1845 C1833 0.929 . S
H1846 C1834 0.960 . S
H1847 C1834 0.962 . S
H1848 C1834 0.960 . S
H1849 C1835 0.961 . S
H1850 C1835 0.961 . S
H1851 C1835 0.961 . S
H1852 C1836 0.931 . S
H1853 C1841 0.930 . S
H1854 C1842 0.956 . S
H1855 C1842 0.961 . S
H1856 C1842 0.961 . S
H1857 C1843 0.958 . S
H1858 C1843 0.961 . S
H1859 C1843 0.960 . S
C1860 C1861 1.391 . S
C1860 C1862 1.394 . S
C1860 H1876 0.931 . S
C1861 C1860 1.391 . S
C1861 C1865 1.376 . S
C1862 C1860 1.394 . S
C1862 C1863 1.369 . S
C1862 C1866 1.531 . S
C1863 C1862 1.369 . S
C1863 C1864 1.410 . S
C1863 C1871 1.503 . S
C1864 C1863 1.410 . S
C1864 C1865 1.392 . S
C1864 C1867 1.511 . S
C1865 C1861 1.376 . S
C1865 C1864 1.392 . S
C1865 H1877 0.929 . S
C1866 C1862 1.531 . S
C1866 H1878 0.960 . S
C1866 H1879 0.962 . S
C1866 H1880 0.960 . S
C1867 C1864 1.511 . S
C1867 H1881 0.961 . S
C1867 H1882 0.961 . S
C1867 H1883 0.961 . S
C1868 C1869 1.370 . S
C1868 C1870 1.363 . S
C1868 H1884 0.931 . S
C1869 C1868 1.370 . S
C1869 C1873 1.408 . S
C1870 C1868 1.363 . S
C1870 C1871 1.370 . S
C1870 C1874 1.524 . S
C1871 C1863 1.503 . S
C1871 C1870 1.370 . S
C1871 C1872 1.403 . S
C1872 C1871 1.403 . S
C1872 C1873 1.404 . S
C1872 C1875 1.539 . S
C1873 C1869 1.408 . S
C1873 C1872 1.404 . S
C1873 H1885 0.930 . S
C1874 C1870 1.524 . S
C1874 H1886 0.956 . S
C1874 H1887 0.961 . S
C1874 H1888 0.961 . S
C1875 C1872 1.539 . S
C1875 H1889 0.958 . S
C1875 H1890 0.961 . S
C1875 H1891 0.960 . S
H1876 C1860 0.931 . S
H1877 C1865 0.929 . S
H1878 C1866 0.960 . S
H1879 C1866 0.962 . S
H1880 C1866 0.960 . S
H1881 C1867 0.961 . S
H1882 C1867 0.961 . S
H1883 C1867 0.961 . S
H1884 C1868 0.931 . S
H1885 C1873 0.930 . S
H1886 C1874 0.956 . S
H1887 C1874 0.961 . S
H1888 C1874 0.961 . S
H1889 C1875 0.958 . S
H1890 C1875 0.961 . S
H1891 C1875 0.960 . S
C1892 C1893 1.391 . S
C1892 C1894 1.394 . S
C1892 H1908 0.931 . S
C1893 C1892 1.391 . S
C1893 C1897 1.376 . S
C1894 C1892 1.394 . S
C1894 C1895 1.369 . S
C1894 C1898 1.531 . S
C1895 C1894 1.369 . S
C1895 C1896 1.410 . S
C1895 C1903 1.503 . S
C1896 C1895 1.410 . S
C1896 C1897 1.392 . S
C1896 C1899 1.511 . S
C1897 C1893 1.376 . S
C1897 C1896 1.392 . S
C1897 H1909 0.929 . S
C1898 C1894 1.531 . S
C1898 H1910 0.960 . S
C1898 H1911 0.962 . S
C1898 H1912 0.960 . S
C1899 C1896 1.511 . S
C1899 H1913 0.961 . S
C1899 H1914 0.961 . S
C1899 H1915 0.961 . S
C1900 C1901 1.370 . S
C1900 C1902 1.363 . S
C1900 H1916 0.931 . S
C1901 C1900 1.370 . S
C1901 C1905 1.408 . S
C1902 C1900 1.363 . S
C1902 C1903 1.370 . S
C1902 C1906 1.524 . S
C1903 C1895 1.503 . S
C1903 C1902 1.370 . S
C1903 C1904 1.403 . S
C1904 C1903 1.403 . S
C1904 C1905 1.404 . S
C1904 C1907 1.539 . S
C1905 C1901 1.408 . S
C1905 C1904 1.404 . S
C1905 H1917 0.930 . S
C1906 C1902 1.524 . S
C1906 H1918 0.956 . S
C1906 H1919 0.961 . S
C1906 H1920 0.961 . S
C1907 C1904 1.539 . S
C1907 H1921 0.958 . S
C1907 H1922 0.961 . S
C1907 H1923 0.960 . S
H1908 C1892 0.931 . S
H1909 C1897 0.929 . S
H1910 C1898 0.960 . S
H1911 C1898 0.962 . S
H1912 C1898 0.960 . S
H1913 C1899 0.961 . S
H1914 C1899 0.961 . S
H1915 C1899 0.961 . S
H1916 C1900 0.931 . S
H1917 C1905 0.930 . S
H1918 C1906 0.956 . S
H1919 C1906 0.961 . S
H1920 C1906 0.961 . S
H1921 C1907 0.958 . S
H1922 C1907 0.961 . S
H1923 C1907 0.960 . S
C1924 C1925 1.391 . S
C1924 C1926 1.394 . S
C1924 H1940 0.931 . S
C1925 C1924 1.391 . S
C1925 C1929 1.376 . S
C1926 C1924 1.394 . S
C1926 C1927 1.369 . S
C1926 C1930 1.531 . S
C1927 C1926 1.369 . S
C1927 C1928 1.410 . S
C1927 C1935 1.503 . S
C1928 C1927 1.410 . S
C1928 C1929 1.392 . S
C1928 C1931 1.511 . S
C1929 C1925 1.376 . S
C1929 C1928 1.392 . S
C1929 H1941 0.929 . S
C1930 C1926 1.531 . S
C1930 H1942 0.960 . S
C1930 H1943 0.962 . S
C1930 H1944 0.960 . S
C1931 C1928 1.511 . S
C1931 H1945 0.961 . S
C1931 H1946 0.961 . S
C1931 H1947 0.961 . S
C1932 C1933 1.370 . S
C1932 C1934 1.363 . S
C1932 H1948 0.931 . S
C1933 C1932 1.370 . S
C1933 C1937 1.408 . S
C1934 C1932 1.363 . S
C1934 C1935 1.370 . S
C1934 C1938 1.524 . S
C1935 C1927 1.503 . S
C1935 C1934 1.370 . S
C1935 C1936 1.403 . S
C1936 C1935 1.403 . S
C1936 C1937 1.404 . S
C1936 C1939 1.539 . S
C1937 C1933 1.408 . S
C1937 C1936 1.404 . S
C1937 H1949 0.930 . S
C1938 C1934 1.524 . S
C1938 H1950 0.956 . S
C1938 H1951 0.961 . S
C1938 H1952 0.961 . S
C1939 C1936 1.539 . S
C1939 H1953 0.958 . S
C1939 H1954 0.961 . S
C1939 H1955 0.960 . S
H1940 C1924 0.931 . S
H1941 C1929 0.929 . S
H1942 C1930 0.960 . S
H1943 C1930 0.962 . S
H1944 C1930 0.960 . S
H1945 C1931 0.961 . S
H1946 C1931 0.961 . S
H1947 C1931 0.961 . S
H1948 C1932 0.931 . S
H1949 C1937 0.930 . S
H1950 C1938 0.956 . S
H1951 C1938 0.961 . S
H1952 C1938 0.961 . S
H1953 C1939 0.958 . S
H1954 C1939 0.961 . S
H1955 C1939 0.960 . S
C1956 C1957 1.391 . S
C1956 C1958 1.394 . S
C1956 H1972 0.931 . S
C1957 C1956 1.391 . S
C1957 C1961 1.376 . S
C1958 C1956 1.394 . S
C1958 C1959 1.369 . S
C1958 C1962 1.531 . S
C1959 C1958 1.369 . S
C1959 C1960 1.410 . S
C1959 C1967 1.503 . S
C1960 C1959 1.410 . S
C1960 C1961 1.392 . S
C1960 C1963 1.511 . S
C1961 C1957 1.376 . S
C1961 C1960 1.392 . S
C1961 H1973 0.929 . S
C1962 C1958 1.531 . S
C1962 H1974 0.960 . S
C1962 H1975 0.962 . S
C1962 H1976 0.960 . S
C1963 C1960 1.511 . S
C1963 H1977 0.961 . S
C1963 H1978 0.961 . S
C1963 H1979 0.961 . S
C1964 C1965 1.370 . S
C1964 C1966 1.363 . S
C1964 H1980 0.931 . S
C1965 C1964 1.370 . S
C1965 C1969 1.408 . S
C1966 C1964 1.363 . S
C1966 C1967 1.370 . S
C1966 C1970 1.524 . S
C1967 C1959 1.503 . S
C1967 C1966 1.370 . S
C1967 C1968 1.403 . S
C1968 C1967 1.403 . S
C1968 C1969 1.404 . S
C1968 C1971 1.539 . S
C1969 C1965 1.408 . S
C1969 C1968 1.404 . S
C1969 H1981 0.930 . S
C1970 C1966 1.524 . S
C1970 H1982 0.956 . S
C1970 H1983 0.961 . S
C1970 H1984 0.961 . S
C1971 C1968 1.539 . S
C1971 H1985 0.958 . S
C1971 H1986 0.961 . S
C1971 H1987 0.960 . S
H1972 C1956 0.931 . S
H1973 C1961 0.929 . S
H1974 C1962 0.960 . S
H1975 C1962 0.962 . S
H1976 C1962 0.960 . S
H1977 C1963 0.961 . S
H1978 C1963 0.961 . S
H1979 C1963 0.961 . S
H1980 C1964 0.931 . S
H1981 C1969 0.930 . S
H1982 C1970 0.956 . S
H1983 C1970 0.961 . S
H1984 C1970 0.961 . S
H1985 C1971 0.958 . S
H1986 C1971 0.961 . S
H1987 C1971 0.960 . S
C1988 C1989 1.391 . S
C1988 C1990 1.394 . S
C1988 H2004 0.931 . S
C1989 C1988 1.391 . S
C1989 C1993 1.376 . S
C1990 C1988 1.394 . S
C1990 C1991 1.369 . S
C1990 C1994 1.531 . S
C1991 C1990 1.369 . S
C1991 C1992 1.410 . S
C1991 C1999 1.503 . S
C1992 C1991 1.410 . S
C1992 C1993 1.392 . S
C1992 C1995 1.511 . S
C1993 C1989 1.376 . S
C1993 C1992 1.392 . S
C1993 H2005 0.929 . S
C1994 C1990 1.531 . S
C1994 H2006 0.960 . S
C1994 H2007 0.962 . S
C1994 H2008 0.960 . S
C1995 C1992 1.511 . S
C1995 H2009 0.961 . S
C1995 H2010 0.961 . S
C1995 H2011 0.961 . S
C1996 C1997 1.370 . S
C1996 C1998 1.363 . S
C1996 H2012 0.931 . S
C1997 C1996 1.370 . S
C1997 C2001 1.408 . S
C1998 C1996 1.363 . S
C1998 C1999 1.370 . S
C1998 C2002 1.524 . S
C1999 C1991 1.503 . S
C1999 C1998 1.370 . S
C1999 C2000 1.403 . S
C2000 C1999 1.403 . S
C2000 C2001 1.404 . S
C2000 C2003 1.539 . S
C2001 C1997 1.408 . S
C2001 C2000 1.404 . S
C2001 H2013 0.930 . S
C2002 C1998 1.524 . S
C2002 H2014 0.956 . S
C2002 H2015 0.961 . S
C2002 H2016 0.961 . S
C2003 C2000 1.539 . S
C2003 H2017 0.958 . S
C2003 H2018 0.961 . S
C2003 H2019 0.960 . S
H2004 C1988 0.931 . S
H2005 C1993 0.929 . S
H2006 C1994 0.960 . S
H2007 C1994 0.962 . S
H2008 C1994 0.960 . S
H2009 C1995 0.961 . S
H2010 C1995 0.961 . S
H2011 C1995 0.961 . S
H2012 C1996 0.931 . S
H2013 C2001 0.930 . S
H2014 C2002 0.956 . S
H2015 C2002 0.961 . S
H2016 C2002 0.961 . S
H2017 C2003 0.958 . S
H2018 C2003 0.961 . S
H2019 C2003 0.960 . S
C2020 C2021 1.391 . S
C2020 C2022 1.394 . S
C2020 H2036 0.931 . S
C2021 C2020 1.391 . S
C2021 C2025 1.376 . S
C2022 C2020 1.394 . S
C2022 C2023 1.369 . S
C2022 C2026 1.531 . S
C2023 C2022 1.369 . S
C2023 C2024 1.410 . S
C2023 C2031 1.503 . S
C2024 C2023 1.410 . S
C2024 C2025 1.392 . S
C2024 C2027 1.511 . S
C2025 C2021 1.376 . S
C2025 C2024 1.392 . S
C2025 H2037 0.929 . S
C2026 C2022 1.531 . S
C2026 H2038 0.960 . S
C2026 H2039 0.962 . S
C2026 H2040 0.960 . S
C2027 C2024 1.511 . S
C2027 H2041 0.961 . S
C2027 H2042 0.961 . S
C2027 H2043 0.961 . S
C2028 C2029 1.370 . S
C2028 C2030 1.363 . S
C2028 H2044 0.931 . S
C2029 C2028 1.370 . S
C2029 C2033 1.408 . S
C2030 C2028 1.363 . S
C2030 C2031 1.370 . S
C2030 C2034 1.524 . S
C2031 C2023 1.503 . S
C2031 C2030 1.370 . S
C2031 C2032 1.403 . S
C2032 C2031 1.403 . S
C2032 C2033 1.404 . S
C2032 C2035 1.539 . S
C2033 C2029 1.408 . S
C2033 C2032 1.404 . S
C2033 H2045 0.930 . S
C2034 C2030 1.524 . S
C2034 H2046 0.956 . S
C2034 H2047 0.961 . S
C2034 H2048 0.961 . S
C2035 C2032 1.539 . S
C2035 H2049 0.958 . S
C2035 H2050 0.961 . S
C2035 H2051 0.960 . S
H2036 C2020 0.931 . S
H2037 C2025 0.929 . S
H2038 C2026 0.960 . S
H2039 C2026 0.962 . S
H2040 C2026 0.960 . S
H2041 C2027 0.961 . S
H2042 C2027 0.961 . S
H2043 C2027 0.961 . S
H2044 C2028 0.931 . S
H2045 C2033 0.930 . S
H2046 C2034 0.956 . S
H2047 C2034 0.961 . S
H2048 C2034 0.961 . S
H2049 C2035 0.958 . S
H2050 C2035 0.961 . S
H2051 C2035 0.960 . S
C613 C9 0.992 . S
C621 C5 1.031 . S
C645 C43 1.031 . S
C653 C39 1.004 . S
C677 C73 1.050 . S
C685 C77 0.960 . S
C709 C111 0.929 . S
C717 C107 1.041 . S
C741 C145 0.981 . S
C749 C141 1.013 . S
C773 C175 0.978 . S
C781 C179 1.012 . S
C805 C209 1.060 . S
C813 C213 0.974 . S
C837 C243 1.004 . S
C845 C247 0.980 . S
C869 C281 1.003 . S
C877 C277 1.028 . S
C901 C315 0.995 . S
C909 C311 1.010 . S
C933 C349 0.923 . S
C941 C345 1.033 . S
C965 C379 0.979 . S
C973 C383 1.012 . S
C997 C413 0.976 . S
C1005 C417 1.010 . S
C1029 C447 1.040 . S
C1037 C451 0.991 . S
C1061 C481 0.978 . S
C1069 C485 1.012 . S
C1093 C519 0.993 . S
C1101 C515 1.010 . S
C1125 C553 1.039 . S
C1133 C549 1.015 . S
C1157 C583 0.976 . S
C1165 C587 1.010 . S
C1189 C598 1.806 . S
C1197 C20 1.806 . S
C1221 C54 1.803 . S
C1229 C530 1.806 . S
C1253 C564 1.823 . S
C1261 C88 1.808 . S
C1285 C258 1.816 . S
C1293 C122 1.817 . S
C1317 C156 1.813 . S
C1325 C292 1.805 . S
C1349 C190 1.824 . S
C1357 C224 1.811 . S
C1381 C326 1.816 . S
C1389 C462 1.817 . S
C1413 C496 1.796 . S
C1421 C360 1.818 . S
C1445 C394 1.824 . S
C1453 C428 1.809 . S
C1477 C33 1.239 . S
C1485 C135 1.266 . S
C1509 C67 1.239 . S
C1517 C169 1.264 . S
C1541 C203 1.244 . S
C1549 C101 1.261 . S
C1573 C172 1.707 . S
C1581 C36 1.720 . S
C1605 C104 1.732 . S
C1613 C70 1.715 . S
C1637 C138 1.699 . S
C1645 C2 1.725 . S
C1669 C339 1.273 . S
C1677 C237 1.252 . S
C1701 C373 1.241 . S
C1709 C271 1.263 . S
C1733 C305 1.242 . S
C1741 C407 1.262 . S
C1765 C376 1.699 . S
C1773 C240 1.732 . S
C1797 C274 1.698 . S
C1805 C308 1.731 . S
C1829 C206 1.705 . S
C1837 C342 1.733 . S
C1861 C543 1.273 . S
C1869 C441 1.252 . S
C1893 C577 1.239 . S
C1901 C475 1.265 . S
C1925 C611 1.265 . S
C1933 C509 1.260 . S
C1957 C444 1.723 . S
C1965 C580 1.715 . S
C1989 C478 1.709 . S
C1997 C512 1.734 . S
C2021 C546 1.698 . S
C2029 C410 1.726 . S
