# Generated by pormake.
# Topology unb, (4)-cn, num edge types: 1
# Building blocks:
#     Node 0, Type 0, BuildingBlock: KUFVIS_clean_sbu_0, # of connection points: 4
#     Node 1, Type 0, BuildingBlock: KUFVIS_clean_sbu_0, # of connection points: 4
#     Node 2, Type 0, BuildingBlock: KUFVIS_clean_sbu_0, # of connection points: 4
#     Node 3, Type 0, BuildingBlock: KUFVIS_clean_sbu_0, # of connection points: 4
#     Node 4, Type 0, BuildingBlock: KUFVIS_clean_sbu_0, # of connection points: 4
#     Node 5, Type 0, BuildingBlock: KUFVIS_clean_sbu_0, # of connection points: 4
#     Node 6, Type 0, BuildingBlock: KUFVIS_clean_sbu_0, # of connection points: 4
#     Node 7, Type 0, BuildingBlock: KUFVIS_clean_sbu_0, # of connection points: 4
#     Node 8, Type 0, BuildingBlock: KUFVIS_clean_sbu_0, # of connection points: 4
#     Node 9, Type 0, BuildingBlock: KUFVIS_clean_sbu_0, # of connection points: 4
#     Node 10, Type 0, BuildingBlock: KUFVIS_clean_sbu_0, # of connection points: 4
#     Node 11, Type 0, BuildingBlock: KUFVIS_clean_sbu_0, # of connection points: 4
#     Node 12, Type 0, BuildingBlock: KUFVIS_clean_sbu_0, # of connection points: 4
#     Node 13, Type 0, BuildingBlock: KUFVIS_clean_sbu_0, # of connection points: 4
#     Node 14, Type 0, BuildingBlock: KUFVIS_clean_sbu_0, # of connection points: 4
#     Node 15, Type 0, BuildingBlock: KUFVIS_clean_sbu_0, # of connection points: 4
#     Node 16, Type 0, BuildingBlock: KUFVIS_clean_sbu_0, # of connection points: 4
#     Node 17, Type 0, BuildingBlock: KUFVIS_clean_sbu_0, # of connection points: 4
#     Edge 18, Type (0, 0), BuildingBlock: KIFKEQ_clean_linker_1, # of connection points: 2
#     Edge 19, Type (0, 0), BuildingBlock: KIFKEQ_clean_linker_1, # of connection points: 2
#     Edge 20, Type (0, 0), BuildingBlock: KIFKEQ_clean_linker_1, # of connection points: 2
#     Edge 21, Type (0, 0), BuildingBlock: KIFKEQ_clean_linker_1, # of connection points: 2
#     Edge 22, Type (0, 0), BuildingBlock: KIFKEQ_clean_linker_1, # of connection points: 2
#     Edge 23, Type (0, 0), BuildingBlock: KIFKEQ_clean_linker_1, # of connection points: 2
#     Edge 24, Type (0, 0), BuildingBlock: KIFKEQ_clean_linker_1, # of connection points: 2
#     Edge 25, Type (0, 0), BuildingBlock: KIFKEQ_clean_linker_1, # of connection points: 2
#     Edge 26, Type (0, 0), BuildingBlock: KIFKEQ_clean_linker_1, # of connection points: 2
#     Edge 27, Type (0, 0), BuildingBlock: KIFKEQ_clean_linker_1, # of connection points: 2
#     Edge 28, Type (0, 0), BuildingBlock: KIFKEQ_clean_linker_1, # of connection points: 2
#     Edge 29, Type (0, 0), BuildingBlock: KIFKEQ_clean_linker_1, # of connection points: 2
#     Edge 30, Type (0, 0), BuildingBlock: KIFKEQ_clean_linker_1, # of connection points: 2
#     Edge 31, Type (0, 0), BuildingBlock: KIFKEQ_clean_linker_1, # of connection points: 2
#     Edge 32, Type (0, 0), BuildingBlock: KIFKEQ_clean_linker_1, # of connection points: 2
#     Edge 33, Type (0, 0), BuildingBlock: KIFKEQ_clean_linker_1, # of connection points: 2
#     Edge 34, Type (0, 0), BuildingBlock: KIFKEQ_clean_linker_1, # of connection points: 2
#     Edge 35, Type (0, 0), BuildingBlock: KIFKEQ_clean_linker_1, # of connection points: 2
#     Edge 36, Type (0, 0), BuildingBlock: KIFKEQ_clean_linker_1, # of connection points: 2
#     Edge 37, Type (0, 0), BuildingBlock: KIFKEQ_clean_linker_1, # of connection points: 2
#     Edge 38, Type (0, 0), BuildingBlock: KIFKEQ_clean_linker_1, # of connection points: 2
#     Edge 39, Type (0, 0), BuildingBlock: KIFKEQ_clean_linker_1, # of connection points: 2
#     Edge 40, Type (0, 0), BuildingBlock: KIFKEQ_clean_linker_1, # of connection points: 2
#     Edge 41, Type (0, 0), BuildingBlock: KIFKEQ_clean_linker_1, # of connection points: 2
#     Edge 42, Type (0, 0), BuildingBlock: KIFKEQ_clean_linker_1, # of connection points: 2
#     Edge 43, Type (0, 0), BuildingBlock: KIFKEQ_clean_linker_1, # of connection points: 2
#     Edge 44, Type (0, 0), BuildingBlock: KIFKEQ_clean_linker_1, # of connection points: 2
#     Edge 45, Type (0, 0), BuildingBlock: KIFKEQ_clean_linker_1, # of connection points: 2
#     Edge 46, Type (0, 0), BuildingBlock: KIFKEQ_clean_linker_1, # of connection points: 2
#     Edge 47, Type (0, 0), BuildingBlock: KIFKEQ_clean_linker_1, # of connection points: 2
#     Edge 48, Type (0, 0), BuildingBlock: KIFKEQ_clean_linker_1, # of connection points: 2
#     Edge 49, Type (0, 0), BuildingBlock: KIFKEQ_clean_linker_1, # of connection points: 2
#     Edge 50, Type (0, 0), BuildingBlock: KIFKEQ_clean_linker_1, # of connection points: 2
#     Edge 51, Type (0, 0), BuildingBlock: KIFKEQ_clean_linker_1, # of connection points: 2
#     Edge 52, Type (0, 0), BuildingBlock: KIFKEQ_clean_linker_1, # of connection points: 2
#     Edge 53, Type (0, 0), BuildingBlock: KIFKEQ_clean_linker_1, # of connection points: 2
# Relax obj value: 0.080
# Max RMSD: 0.075
# Mean RMSD: 0.075
data_MOF--net-unb--node1-KUFVIS_clean_sbu_0--edge1-KIFKEQ_clean_linker_1
_symmetry_space_group_name_H-M    P1
_symmetry_Int_Tables_number       1
_symmetry_cell_setting            triclinic
loop_
_symmetry_equiv_pos_as_xyz
'x, y, z'
_cell_length_a     64.778896
_cell_length_b     64.770669
_cell_length_c     25.325849
_cell_angle_alpha  90.077261
_cell_angle_beta   89.95729
_cell_angle_gamma 120.02628
loop_
_atom_site_label
_atom_site_type_symbol
_atom_site_fract_x
_atom_site_fract_y
_atom_site_fract_z
_atom_type_partial_charge
Mn0 Mn 0.16111 0.27697 0.07103 0.0
Mn1 Mn 0.14941 0.32244 0.07283 0.0
C2 C 0.16455 0.29817 0.99549 0.0
C3 C 0.18535 0.25972 0.07221 0.0
C4 C 0.11075 0.27068 0.06934 0.0
O5 O 0.16464 0.28575 0.14978 0.0
O6 O 0.15485 0.3147 0.14527 0.0
C7 C 0.19636 0.36089 0.11075 0.0
N8 N 0.17855 0.35234 0.0742 0.0
C9 C 0.19775 0.3894 0.02641 0.0
C10 C 0.21623 0.39863 0.06369 0.0
C11 C 0.21559 0.38426 0.10588 0.0
C12 C 0.17913 0.36593 0.03313 0.0
H13 H 0.19587 0.35002 0.14348 0.0
C14 C 0.16116 0.30175 0.17096 0.0
O15 O 0.1627 0.24748 0.08211 0.0
O16 O 0.19452 0.28263 0.06708 0.0
N17 N 0.14427 0.33231 0.00525 0.0
C18 C 0.12598 0.32018 0.97063 0.0
C19 C 0.12465 0.33168 0.92485 0.0
C20 C 0.1418 0.35565 0.91573 0.0
C21 C 0.16028 0.36784 0.95227 0.0
C22 C 0.16089 0.35536 0.99678 0.0
H23 H 0.11258 0.30182 0.97773 0.0
O24 O 0.16022 0.27636 0.99253 0.0
O25 O 0.16625 0.30695 0.04244 0.0
O26 O 0.12465 0.26213 0.0724 0.0
O27 O 0.11816 0.29297 0.06993 0.0
C28 C 0.17828 0.39182 0.946 0.0
C29 C 0.19713 0.40252 0.98272 0.0
H30 H 0.23106 0.41668 0.06016 0.0
H31 H 0.22981 0.39123 0.13474 0.0
H32 H 0.11035 0.32213 0.8968 0.0
H33 H 0.14071 0.36446 0.8804 0.0
H34 H 0.178 0.40209 0.91257 0.0
H35 H 0.21114 0.4208 0.9768 0.0
Mn36 Mn 0.76531 0.89126 0.07183 0.0
Mn37 Mn 0.72081 0.83365 0.07377 0.0
C38 C 0.74469 0.87285 0.99606 0.0
C39 C 0.78053 0.93252 0.07319 0.0
C40 C 0.77298 0.84805 0.07234 0.0
O41 O 0.75625 0.88599 0.15037 0.0
O42 O 0.72765 0.84711 0.14606 0.0
C43 C 0.68127 0.84101 0.10862 0.0
N44 N 0.69054 0.83206 0.07303 0.0
C45 C 0.65413 0.81373 0.02278 0.0
C46 C 0.64415 0.82265 0.05904 0.0
C47 C 0.65783 0.83645 0.10199 0.0
C48 C 0.67761 0.81894 0.03129 0.0
H49 H 0.69163 0.85149 0.14188 0.0
C50 C 0.74029 0.86654 0.17156 0.0
O51 O 0.79385 0.92332 0.08348 0.0
O52 O 0.75791 0.91769 0.06701 0.0
N53 N 0.71191 0.81844 0.00613 0.0
C54 C 0.72473 0.81267 0.97261 0.0
C55 C 0.71397 0.79982 0.92628 0.0
C56 C 0.69005 0.79263 0.91543 0.0
C57 C 0.67715 0.79855 0.9508 0.0
C58 C 0.68889 0.81163 0.996 0.0
H59 H 0.74307 0.81797 0.98098 0.0
O60 O 0.76624 0.89082 0.99329 0.0
O61 O 0.73591 0.86575 0.04294 0.0
O62 O 0.7812 0.87052 0.07425 0.0
O63 O 0.75077 0.83284 0.07304 0.0
C64 C 0.6532 0.79225 0.94265 0.0
C65 C 0.64175 0.80001 0.97833 0.0
H66 H 0.62607 0.81914 0.05412 0.0
H67 H 0.65029 0.84347 0.13006 0.0
H68 H 0.72407 0.79537 0.89912 0.0
H69 H 0.6818 0.78271 0.87969 0.0
H70 H 0.64352 0.78176 0.90855 0.0
H71 H 0.62349 0.79549 0.97098 0.0
Mn72 Mn 0.15359 0.88353 0.07321 0.0
Mn73 Mn 0.21005 0.89321 0.07453 0.0
C74 C 0.17078 0.87927 0.9975 0.0
C75 C 0.11201 0.86002 0.07474 0.0
C76 C 0.19875 0.93316 0.07076 0.0
O77 O 0.15871 0.87994 0.15194 0.0
O78 O 0.19701 0.88834 0.14706 0.0
C79 C 0.19989 0.84578 0.11271 0.0
N80 N 0.20967 0.86351 0.07607 0.0
C81 C 0.22645 0.84322 0.02843 0.0
C82 C 0.21667 0.8248 0.06581 0.0
C83 C 0.20321 0.82604 0.10796 0.0
C84 C 0.2224 0.86236 0.035 0.0
H85 H 0.18972 0.84672 0.14541 0.0
C86 C 0.17795 0.88276 0.17294 0.0
O87 O 0.12283 0.88274 0.0843 0.0
O88 O 0.12536 0.85043 0.06971 0.0
N89 N 0.22493 0.89775 0.00688 0.0
C90 C 0.23171 0.91611 0.97218 0.0
C91 C 0.24436 0.91692 0.92643 0.0
C92 C 0.2504 0.89918 0.91744 0.0
C93 C 0.24352 0.88066 0.95409 0.0
C94 C 0.23062 0.88058 0.99854 0.0
H95 H 0.22737 0.92995 0.97918 0.0
O96 O 0.15377 0.88427 0.99473 0.0
O97 O 0.17773 0.87733 0.04439 0.0
O98 O 0.17618 0.91994 0.07428 0.0
O99 O 0.21294 0.9249 0.0713 0.0
C100 C 0.24872 0.86211 0.94798 0.0
C101 C 0.23998 0.84328 0.98479 0.0
H102 H 0.21926 0.80958 0.06239 0.0
H103 H 0.19554 0.81187 0.1369 0.0
H104 H 0.24958 0.93125 0.89831 0.0
H105 H 0.26017 0.89987 0.88213 0.0
H106 H 0.25912 0.86196 0.91463 0.0
H107 H 0.24366 0.82885 0.979 0.0
Mn108 Mn 0.2884 0.1518 0.93234 0.0
Mn109 Mn 0.33506 0.14194 0.93055 0.0
C110 C 0.30986 0.15591 0.0079 0.0
C111 C 0.27045 0.17541 0.93101 0.0
C112 C 0.28372 0.1021 0.93422 0.0
O113 O 0.29707 0.15538 0.85355 0.0
O114 O 0.32703 0.14707 0.85812 0.0
C115 C 0.37251 0.18946 0.89309 0.0
N116 N 0.36443 0.17162 0.92948 0.0
C117 C 0.40132 0.19186 0.97781 0.0
C118 C 0.41007 0.21039 0.9407 0.0
C119 C 0.39555 0.20923 0.89832 0.0
C120 C 0.37816 0.17269 0.97075 0.0
H121 H 0.36152 0.1886 0.86026 0.0
C122 C 0.31351 0.15263 0.8324 0.0
O123 O 0.25849 0.1527 0.92143 0.0
O124 O 0.29339 0.18495 0.93599 0.0
N125 N 0.34523 0.13716 0.99813 0.0
C126 C 0.33356 0.11865 0.03243 0.0
C127 C 0.34527 0.11769 0.07823 0.0
C128 C 0.36898 0.13547 0.08772 0.0
C129 C 0.38071 0.15417 0.0515 0.0
C130 C 0.36804 0.15435 0.00691 0.0
H131 H 0.31542 0.10478 0.02507 0.0
O132 O 0.28788 0.15103 0.01088 0.0
O133 O 0.31869 0.15785 0.96094 0.0
O134 O 0.27445 0.1154 0.93115 0.0
O135 O 0.30615 0.11028 0.93336 0.0
C136 C 0.4044 0.17276 0.05816 0.0
C137 C 0.41461 0.19172 0.02166 0.0
H138 H 0.42786 0.22563 0.9445 0.0
H139 H 0.40214 0.22349 0.86959 0.0
H140 H 0.33608 0.10322 0.10602 0.0
H141 H 0.37796 0.13467 0.12305 0.0
H142 H 0.4148 0.17285 0.09171 0.0
H143 H 0.43267 0.20618 0.02786 0.0
Mn144 Mn 0.89047 0.14219 0.93554 0.0
Mn145 Mn 0.904 0.19986 0.93574 0.0
C146 C 0.88735 0.15989 0.01151 0.0
C147 C 0.86459 0.1009 0.93268 0.0
C148 C 0.94131 0.1852 0.94303 0.0
O149 O 0.88755 0.14795 0.85727 0.0
O150 O 0.90095 0.18747 0.86263 0.0
C151 C 0.85864 0.19222 0.88923 0.0
N152 N 0.87517 0.20103 0.92865 0.0
C153 C 0.85421 0.21809 0.97254 0.0
C154 C 0.83709 0.20932 0.93223 0.0
C155 C 0.83926 0.19623 0.89054 0.0
C156 C 0.87307 0.21341 0.96929 0.0
H157 H 0.86019 0.18226 0.85692 0.0
C158 C 0.89334 0.16809 0.83632 0.0
O159 O 0.88722 0.11029 0.92331 0.0
O160 O 0.85664 0.11561 0.93868 0.0
N161 N 0.90701 0.21455 1.00324 0.0
C162 C 0.92455 0.22115 0.04008 0.0
C163 C 0.92446 0.2337 0.08525 0.0
C164 C 0.90674 0.23995 0.09144 0.0
C165 C 0.88923 0.23353 0.0524 0.0
C166 C 0.89006 0.22077 0.00852 0.0
H167 H 0.9385 0.21688 0.03507 0.0
O168 O 0.89109 0.14202 0.01392 0.0
O169 O 0.88602 0.16742 0.9648 0.0
O170 O 0.9272 0.16304 0.93464 0.0
O171 O 0.93449 0.20052 0.94548 0.0
C172 C 0.87086 0.23912 0.05553 0.0
C173 C 0.85325 0.23123 0.01589 0.0
H174 H 0.82214 0.21243 0.93302 0.0
H175 H 0.82608 0.18932 0.85934 0.0
H176 H 0.93814 0.23871 0.115 0.0
H177 H 0.90673 0.24964 0.12632 0.0
H178 H 0.86995 0.24928 0.08856 0.0
H179 H 0.83899 0.23531 0.0192 0.0
Mn180 Mn 0.90128 0.75719 0.93497 0.0
Mn181 Mn 0.84446 0.71129 0.93563 0.0
C182 C 0.88445 0.73583 0.01084 0.0
C183 C 0.94284 0.77516 0.93253 0.0
C184 C 0.8569 0.76259 0.94444 0.0
O185 O 0.89569 0.7485 0.85658 0.0
O186 O 0.85641 0.72151 0.86249 0.0
C187 C 0.85405 0.67525 0.88653 0.0
N188 N 0.84474 0.68205 0.92673 0.0
C189 C 0.82925 0.64382 0.96889 0.0
C190 C 0.83855 0.63642 0.92776 0.0
C191 C 0.85111 0.65226 0.88655 0.0
C192 C 0.8329 0.66703 0.96696 0.0
H193 H 0.8636 0.68719 0.85459 0.0
C194 C 0.87559 0.73378 0.83585 0.0
O195 O 0.93204 0.78707 0.92331 0.0
O196 O 0.92946 0.75222 0.9376 0.0
N197 N 0.83013 0.69864 1.00291 0.0
C198 C 0.8226 0.70856 0.04029 0.0
C199 C 0.81025 0.6952 0.08485 0.0
C200 C 0.80514 0.67153 0.08989 0.0
C201 C 0.81245 0.66144 0.05026 0.0
C202 C 0.82492 0.67572 0.00698 0.0
H203 H 0.82588 0.72648 0.03608 0.0
O204 O 0.9015 0.75785 0.01334 0.0
O205 O 0.87711 0.72681 0.96411 0.0
O206 O 0.87902 0.77143 0.93446 0.0
O207 O 0.84233 0.74026 0.94745 0.0
C208 C 0.80795 0.6378 0.05215 0.0
C209 C 0.81653 0.62907 0.01175 0.0
H210 H 0.83623 0.61865 0.92753 0.0
H211 H 0.85841 0.64672 0.85471 0.0
H212 H 0.80447 0.70307 0.11495 0.0
H213 H 0.79557 0.66126 0.1243 0.0
H214 H 0.79808 0.62623 0.08473 0.0
H215 H 0.81325 0.61097 0.01406 0.0
Mn216 Mn 0.82608 0.61144 0.40781 0.0
Mn217 Mn 0.81605 0.65798 0.40837 0.0
C218 C 0.8303 0.63272 0.33188 0.0
C219 C 0.84969 0.59351 0.40967 0.0
C220 C 0.77632 0.60656 0.40508 0.0
O221 O 0.82965 0.62042 0.48647 0.0
O222 O 0.82112 0.65023 0.48113 0.0
C223 C 0.8634 0.69574 0.44609 0.0
N224 N 0.84564 0.68745 0.40946 0.0
C225 C 0.86576 0.72425 0.36084 0.0
C226 C 0.88421 0.73321 0.3982 0.0
C227 C 0.88308 0.71883 0.44084 0.0
C228 C 0.84668 0.70104 0.36794 0.0
H229 H 0.86255 0.68486 0.47913 0.0
C230 C 0.8268 0.63689 0.50722 0.0
O231 O 0.827 0.58158 0.4193 0.0
O232 O 0.85923 0.61645 0.40447 0.0
N233 N 0.81135 0.66789 0.34041 0.0
C234 C 0.79299 0.656 0.30581 0.0
C235 C 0.79207 0.66753 0.25967 0.0
C236 C 0.80972 0.69128 0.25017 0.0
C237 C 0.82827 0.70323 0.28665 0.0
C238 C 0.82845 0.69073 0.33154 0.0
H239 H 0.77922 0.63783 0.31318 0.0
O240 O 0.82537 0.61072 0.32925 0.0
O241 O 0.83212 0.64164 0.37872 0.0
O242 O 0.78967 0.59738 0.40878 0.0
O243 O 0.78444 0.629 0.40549 0.0
C244 C 0.84675 0.72697 0.27996 0.0
C245 C 0.86561 0.73739 0.31672 0.0
H246 H 0.89937 0.75104 0.39438 0.0
H247 H 0.89727 0.72558 0.46977 0.0
H248 H 0.77772 0.65817 0.23165 0.0
H249 H 0.80893 0.70013 0.21463 0.0
H250 H 0.84683 0.73725 0.2462 0.0
H251 H 0.87998 0.75549 0.31049 0.0
Mn252 Mn 0.43375 0.22713 0.40507 0.0
Mn253 Mn 0.39041 0.1691 0.40424 0.0
C254 C 0.41331 0.20926 0.32883 0.0
C255 C 0.4485 0.26831 0.40793 0.0
C256 C 0.44271 0.18483 0.39868 0.0
O257 O 0.42471 0.22108 0.48327 0.0
O258 O 0.3988 0.18149 0.47755 0.0
C259 C 0.35146 0.17539 0.44848 0.0
N260 N 0.35996 0.16707 0.40962 0.0
C261 C 0.32235 0.14921 0.3639 0.0
C262 C 0.31319 0.15747 0.40359 0.0
C263 C 0.32785 0.17072 0.44592 0.0
C264 C 0.34607 0.15453 0.36839 0.0
H265 H 0.36252 0.18546 0.48128 0.0
C266 C 0.41026 0.20088 0.50397 0.0
O267 O 0.46201 0.25926 0.41769 0.0
O268 O 0.42592 0.25331 0.40168 0.0
N269 N 0.37976 0.15455 0.33627 0.0
C270 C 0.39156 0.14881 0.29982 0.0
C271 C 0.37963 0.13633 0.25398 0.0
C272 C 0.35552 0.12935 0.24666 0.0
C273 C 0.34359 0.135 0.2852 0.0
C274 C 0.35649 0.14773 0.32978 0.0
H275 H 0.40996 0.15377 0.30556 0.0
O276 O 0.43478 0.22741 0.32665 0.0
O277 O 0.40444 0.20156 0.37546 0.0
O278 O 0.45029 0.20696 0.40613 0.0
O279 O 0.42068 0.16914 0.39637 0.0
C280 C 0.31945 0.1287 0.28089 0.0
C281 C 0.30891 0.13599 0.31994 0.0
H282 H 0.29497 0.15385 0.40183 0.0
H283 H 0.32095 0.17723 0.47666 0.0
H284 H 0.38896 0.13197 0.22452 0.0
H285 H 0.34637 0.11972 0.21126 0.0
H286 H 0.3089 0.1185 0.24734 0.0
H287 H 0.29045 0.1314 0.31566 0.0
Mn288 Mn 0.82002 0.21666 0.4086 0.0
Mn289 Mn 0.8774 0.22909 0.40953 0.0
C290 C 0.83803 0.21408 0.33246 0.0
C291 C 0.77871 0.19076 0.41047 0.0
C292 C 0.86359 0.26734 0.40878 0.0
O293 O 0.82553 0.21299 0.48705 0.0
O294 O 0.86417 0.22248 0.482 0.0
C295 C 0.86963 0.18192 0.44328 0.0
N296 N 0.87861 0.20021 0.40794 0.0
C297 C 0.89631 0.18182 0.35647 0.0
C298 C 0.88734 0.16285 0.39247 0.0
C299 C 0.87385 0.16285 0.43591 0.0
C300 C 0.89143 0.20027 0.36572 0.0
H301 H 0.85939 0.18189 0.4769 0.0
C302 C 0.84492 0.21609 0.50783 0.0
O303 O 0.78806 0.21334 0.42065 0.0
O304 O 0.79343 0.18287 0.40416 0.0
N305 N 0.89234 0.23537 0.34162 0.0
C306 C 0.89825 0.25412 0.30855 0.0
C307 C 0.91088 0.25616 0.26192 0.0
C308 C 0.9177 0.23921 0.25027 0.0
C309 C 0.91164 0.22023 0.28517 0.0
C310 C 0.8988 0.21896 0.33074 0.0
H311 H 0.89325 0.26733 0.31751 0.0
O312 O 0.82018 0.21785 0.32999 0.0
O313 O 0.84521 0.21241 0.37922 0.0
O314 O 0.84107 0.25332 0.41076 0.0
O315 O 0.87853 0.26 0.40949 0.0
C316 C 0.9176 0.20238 0.27626 0.0
C317 C 0.90975 0.18307 0.31159 0.0
H318 H 0.8906 0.14813 0.38697 0.0
H319 H 0.8668 0.14824 0.46378 0.0
H320 H 0.91545 0.27084 0.23512 0.0
H321 H 0.92747 0.24086 0.21432 0.0
H322 H 0.92787 0.20312 0.24181 0.0
H323 H 0.91401 0.16918 0.30365 0.0
Mn324 Mn 0.95231 0.48551 0.26821 0.0
Mn325 Mn 0.99896 0.47564 0.26683 0.0
C326 C 0.9738 0.48984 0.34384 0.0
C327 C 0.93424 0.509 0.26665 0.0
C328 C 0.94765 0.43582 0.27136 0.0
O329 O 0.96096 0.48897 0.18944 0.0
O330 O 0.9906 0.48023 0.19429 0.0
C331 C 0.0362 0.52288 0.2275 0.0
N332 N 0.02833 0.5053 0.26449 0.0
C333 C 0.06562 0.5257 0.31125 0.0
C334 C 0.07416 0.54396 0.27351 0.0
C335 C 0.05933 0.5426 0.23163 0.0
C336 C 0.04235 0.50657 0.30531 0.0
H337 H 1.02498 0.52186 0.195 0.0
C338 C 0.97722 0.4859 0.16839 0.0
O339 O 0.92234 0.48628 0.25718 0.0
O340 O 0.95719 0.51861 0.27157 0.0
N341 N 1.00952 0.47136 0.3344 0.0
C342 C 0.99804 0.45313 0.36946 0.0
C343 C 1.01006 0.45245 0.41498 0.0
C344 C 0.0339 0.47017 0.42336 0.0
C345 C 0.04544 0.48855 0.38634 0.0
C346 C 0.03245 0.48851 0.34214 0.0
H347 H 0.97981 0.43929 0.36291 0.0
O348 O 0.95179 0.48486 0.34668 0.0
O349 O 0.98267 0.49171 0.29692 0.0
O350 O 0.93838 0.44908 0.26733 0.0
O351 O 0.97009 0.44402 0.27093 0.0
C352 C 0.06925 0.50707 0.39182 0.0
C353 C 0.07925 0.52576 0.35464 0.0
H354 H 0.09203 0.55915 0.27645 0.0
H355 H 0.06576 0.55665 0.20241 0.0
H356 H 1.00102 0.43821 0.44339 0.0
H357 H 0.04312 0.46958 0.4585 0.0
H358 H 0.07992 0.50731 0.42496 0.0
H359 H 0.0974 0.54016 0.35994 0.0
Mn360 Mn 0.55725 0.47767 0.26674 0.0
Mn361 Mn 0.56923 0.5349 0.26562 0.0
C362 C 0.55435 0.49556 0.34275 0.0
C363 C 0.53168 0.4363 0.26499 0.0
C364 C 0.60777 0.52153 0.26752 0.0
O365 O 0.55358 0.48302 0.18821 0.0
O366 O 0.56316 0.52169 0.19312 0.0
C367 C 0.52211 0.52665 0.22997 0.0
N368 N 0.5402 0.53583 0.26587 0.0
C369 C 0.5214 0.55359 0.31564 0.0
C370 C 0.50264 0.54443 0.27906 0.0
C371 C 0.50294 0.53079 0.2362 0.0
C372 C 0.53995 0.54876 0.30756 0.0
H373 H 0.52232 0.51631 0.19677 0.0
C374 C 0.55682 0.50243 0.16729 0.0
O375 O 0.55428 0.44582 0.25493 0.0
O376 O 0.52358 0.45086 0.27101 0.0
N377 N 0.57497 0.54989 0.33343 0.0
C378 C 0.59349 0.55593 0.36728 0.0
C379 C 0.59518 0.56864 0.41359 0.0
C380 C 0.57812 0.57545 0.42405 0.0
C381 C 0.55939 0.56928 0.38831 0.0
C382 C 0.55844 0.55632 0.3432 0.0
H383 H 0.6068 0.55095 0.35919 0.0
O384 O 0.55836 0.47788 0.3453 0.0
O385 O 0.55264 0.5027 0.29595 0.0
O386 O 0.5939 0.49899 0.26488 0.0
O387 O 0.60026 0.53633 0.26698 0.0
C388 C 0.54147 0.57525 0.39596 0.0
C389 C 0.52236 0.56721 0.35997 0.0
H390 H 0.48785 0.54764 0.28365 0.0
H391 H 0.48849 0.5236 0.20788 0.0
H392 H 0.60966 0.57329 0.44103 0.0
H393 H 0.57948 0.58526 0.45978 0.0
H394 H 0.54199 0.58569 0.42993 0.0
H395 H 0.5084 0.57147 0.36696 0.0
Mn396 Mn 0.56918 0.09144 0.27005 0.0
Mn397 Mn 0.51126 0.04763 0.26775 0.0
C398 C 0.55053 0.07089 0.34568 0.0
C399 C 0.61041 0.10636 0.2689 0.0
C400 C 0.52652 0.09999 0.26981 0.0
O401 O 0.56385 0.08242 0.19144 0.0
O402 O 0.52474 0.05449 0.19549 0.0
C403 C 0.51791 1.00772 0.23209 0.0
N404 N 0.50916 1.01712 0.26789 0.0
C405 C 0.49032 0.98054 0.31748 0.0
C406 C 0.49903 0.97044 0.28099 0.0
C407 C 0.51298 0.98414 0.23827 0.0
C408 C 0.49591 1.00416 0.30942 0.0
H409 H 0.5285 0.01809 0.199 0.0
C410 C 0.54425 0.06681 0.17009 0.0
O411 O 0.60134 0.11979 0.25852 0.0
O412 O 0.59545 0.08376 0.27502 0.0
N413 N 0.49599 0.0387 0.33529 0.0
C414 C 0.49044 0.05161 0.36906 0.0
C415 C 0.47744 0.04081 0.41517 0.0
C416 C 0.46989 1.01677 0.42556 0.0
C417 C 0.47559 1.00378 0.38995 0.0
C418 C 0.48882 1.01555 0.34496 0.0
H419 H 0.49601 0.07004 0.36103 0.0
O420 O 0.5687 0.09232 0.34859 0.0
O421 O 0.54336 0.06218 0.29874 0.0
O422 O 0.5489 0.10778 0.26767 0.0
O423 O 0.51097 0.07788 0.26909 0.0
C424 C 0.46893 0.9797 0.39764 0.0
C425 C 0.47647 0.96815 0.36172 0.0
H426 H 0.49523 0.95224 0.28557 0.0
H427 H 0.51983 0.9765 0.21003 0.0
H428 H 0.47316 0.05097 0.44254 0.0
H429 H 0.45985 1.00849 0.46112 0.0
H430 H 0.45833 0.97001 0.43157 0.0
H431 H 0.47167 0.94978 0.36872 0.0
Mn432 Mn 0.49492 0.94578 0.74112 0.0
Mn433 Mn 0.48307 0.99111 0.74378 0.0
C434 C 0.49766 0.96673 0.66556 0.0
C435 C 0.52035 0.92982 0.74195 0.0
C436 C 0.44444 0.93921 0.74114 0.0
O437 O 0.49879 0.95465 0.81981 0.0
O438 O 0.4891 0.98365 0.81594 0.0
C439 C 0.53029 0.02973 0.77984 0.0
N440 N 0.51217 0.02104 0.74403 0.0
C441 C 0.53111 0.05781 0.69516 0.0
C442 C 0.5499 0.06719 0.73167 0.0
C443 C 0.54954 0.05304 0.77404 0.0
C444 C 0.51247 0.03442 0.70281 0.0
H445 H 0.53004 0.01901 0.81266 0.0
C446 C 0.49552 0.97071 0.84128 0.0
O447 O 0.49776 0.9168 0.75218 0.0
O448 O 0.52853 0.95252 0.73619 0.0
N449 N 0.47734 1.00071 0.67645 0.0
C450 C 0.45874 0.98845 0.64261 0.0
C451 C 0.45707 0.99974 0.59682 0.0
C452 C 0.47422 0.02363 0.58686 0.0
C453 C 0.49302 0.03596 0.62257 0.0
C454 C 0.49394 0.0237 0.66719 0.0
H455 H 0.44537 0.97015 0.65033 0.0
O456 O 0.4936 0.94502 0.66257 0.0
O457 O 0.49954 0.97553 0.71255 0.0
O458 O 0.45829 0.93053 0.74351 0.0
O459 O 0.45198 0.96154 0.74194 0.0
C460 C 0.51106 0.05984 0.61533 0.0
C461 C 0.53021 0.07069 0.65129 0.0
H462 H 0.56475 0.08518 0.7274 0.0
H463 H 0.56401 0.06012 0.8023 0.0
H464 H 0.44252 0.99008 0.5694 0.0
H465 H 0.47286 0.0323 0.55155 0.0
H466 H 0.51059 0.06992 0.58172 0.0
H467 H 0.54424 0.0889 0.64462 0.0
Mn468 Mn 0.09854 0.5578 0.74061 0.0
Mn469 Mn 0.05145 0.50149 0.74199 0.0
C470 C 0.07696 0.54072 0.66499 0.0
C471 C 0.117 0.59941 0.74217 0.0
C472 C 0.10256 0.5124 0.73766 0.0
O473 O 0.08988 0.55276 0.81939 0.0
O474 O 0.05986 0.5145 0.81454 0.0
C475 C 1.01455 0.51206 0.78105 0.0
N476 N 1.02228 0.50216 0.74413 0.0
C477 C 0.9851 0.48564 0.69706 0.0
C478 C 0.9767 0.49556 0.73474 0.0
C479 C 0.99155 0.50894 0.77674 0.0
C480 C 1.00824 0.48949 0.70321 0.0
H481 H 1.02579 0.52219 0.81363 0.0
C482 C 0.07344 0.53354 0.84043 0.0
O483 O 0.1287 0.58841 0.75162 0.0
O484 O 0.09403 0.58624 0.73727 0.0
N485 N 0.04084 0.48663 0.67438 0.0
C486 C 0.0522 0.47969 0.63938 0.0
C487 C 0.04017 0.46707 0.59374 0.0
C488 C 1.01643 0.46124 0.58516 0.0
C489 C 1.00501 0.46827 0.62212 0.0
C490 C 1.01801 0.48113 0.66645 0.0
H491 H 0.07036 0.48388 0.64607 0.0
O492 O 0.09905 0.55759 0.66213 0.0
O493 O 0.06807 0.53382 0.71192 0.0
O494 O 0.11206 0.53498 0.74148 0.0
O495 O 0.08008 0.49833 0.73814 0.0
C496 C 0.98131 0.46328 0.61643 0.0
C497 C 0.97145 0.47217 0.65355 0.0
H498 H 0.95893 0.49312 0.73165 0.0
H499 H 0.98524 0.51672 0.8059 0.0
H500 H 0.04912 0.46173 0.56538 0.0
H501 H 1.0072 0.45149 0.54993 0.0
H502 H 0.97062 0.45292 0.58319 0.0
H503 H 0.95338 0.46864 0.64809 0.0
Mn504 Mn 0.48424 0.5505 0.73925 0.0
Mn505 Mn 0.54083 0.56058 0.74117 0.0
C506 C 0.50163 0.54634 0.66378 0.0
C507 C 0.44268 0.52686 0.74052 0.0
C508 C 0.5292 0.60027 0.73648 0.0
O509 O 0.48923 0.54701 0.81804 0.0
O510 O 0.5277 0.55594 0.81359 0.0
C511 C 0.53082 0.51337 0.78059 0.0
N512 N 0.54061 0.53097 0.74365 0.0
C513 C 0.55763 0.51063 0.6971 0.0
C514 C 0.54784 0.49235 0.7348 0.0
C515 C 0.53426 0.49367 0.77656 0.0
C516 C 0.55347 0.52973 0.70297 0.0
H517 H 0.52054 0.51436 0.81299 0.0
C518 C 0.50855 0.55018 0.8393 0.0
O519 O 0.45341 0.54958 0.75003 0.0
O520 O 0.4561 0.51735 0.73567 0.0
N521 N 0.55588 0.56493 0.67377 0.0
C522 C 0.56271 0.58318 0.63874 0.0
C523 C 0.57553 0.5839 0.59335 0.0
C524 C 0.58167 0.56619 0.58507 0.0
C525 C 0.57475 0.5478 0.62207 0.0
C526 C 0.56171 0.54781 0.66616 0.0
H527 H 0.55828 0.59699 0.6452 0.0
O528 O 0.48454 0.55122 0.6608 0.0
O529 O 0.50854 0.54445 0.71075 0.0
O530 O 0.50665 0.58693 0.74036 0.0
O531 O 0.5435 0.59216 0.73697 0.0
C532 C 0.58003 0.52928 0.61663 0.0
C533 C 0.57128 0.51058 0.6538 0.0
H534 H 0.55052 0.47717 0.73192 0.0
H535 H 0.52658 0.47961 0.80574 0.0
H536 H 0.58078 0.59814 0.56496 0.0
H537 H 0.59157 0.56681 0.55002 0.0
H538 H 0.59051 0.52904 0.58354 0.0
H539 H 0.57503 0.49618 0.64854 0.0
Mn540 Mn 0.61978 0.8195 0.60038 0.0
Mn541 Mn 0.66501 0.80748 0.59737 0.0
C542 C 0.64076 0.82215 0.67583 0.0
C543 C 0.60399 0.84508 0.59971 0.0
C544 C 0.61308 0.76896 0.6002 0.0
O545 O 0.6285 0.82329 0.52165 0.0
O546 O 0.65743 0.8135 0.52533 0.0
C547 C 0.70362 0.85465 0.56115 0.0
N548 N 0.69497 0.83654 0.59694 0.0
C549 C 0.73191 0.85533 0.64528 0.0
C550 C 0.74125 0.87411 0.60878 0.0
C551 C 0.72699 0.87383 0.5667 0.0
C552 C 0.70846 0.83678 0.6379 0.0
H553 H 0.69282 0.85445 0.52853 0.0
C554 C 0.64446 0.81991 0.50009 0.0
O555 O 0.59088 0.82248 0.58952 0.0
O556 O 0.62668 0.85317 0.60536 0.0
N557 N 0.67473 0.80175 0.66455 0.0
C558 C 0.66251 0.78317 0.69841 0.0
C559 C 0.67391 0.78144 0.74398 0.0
C560 C 0.69787 0.79851 0.75365 0.0
C561 C 0.71015 0.81728 0.71788 0.0
C562 C 0.69778 0.81826 0.67353 0.0
H563 H 0.64417 0.76985 0.69088 0.0
O564 O 0.61909 0.8182 0.67889 0.0
O565 O 0.64953 0.82403 0.62882 0.0
O566 O 0.60444 0.78286 0.59793 0.0
O567 O 0.6354 0.77645 0.59935 0.0
C568 C 0.7341 0.83522 0.72481 0.0
C569 C 0.7449 0.85436 0.68885 0.0
H570 H 0.75928 0.88891 0.61284 0.0
H571 H 0.73403 0.88829 0.53845 0.0
H572 H 0.66429 0.76692 0.77144 0.0
H573 H 0.70661 0.79711 0.78879 0.0
H574 H 0.74428 0.83468 0.75816 0.0
H575 H 0.76317 0.86832 0.69528 0.0
Mn576 Mn 0.22609 0.80991 0.60043 0.0
Mn577 Mn 0.23603 0.86646 0.59914 0.0
C578 C 0.22179 0.82713 0.67607 0.0
C579 C 0.2025 0.76833 0.59881 0.0
C580 C 0.27581 0.85494 0.60378 0.0
O581 O 0.22264 0.81504 0.52167 0.0
O582 O 0.23147 0.85348 0.52656 0.0
C583 C 0.18882 0.85644 0.55957 0.0
N584 N 0.20638 0.86617 0.59665 0.0
C585 C 0.18594 0.88303 0.64341 0.0
C586 C 0.1677 0.87329 0.60556 0.0
C587 C 0.1691 0.85982 0.56363 0.0
C588 C 0.20508 0.87892 0.6375 0.0
H589 H 0.18987 0.84624 0.52704 0.0
C590 C 0.22577 0.83439 0.50063 0.0
O591 O 0.22522 0.7791 0.58941 0.0
O592 O 0.19296 0.78173 0.60369 0.0
N593 N 0.24028 0.88135 0.66673 0.0
C594 C 0.2585 0.88814 0.70187 0.0
C595 C 0.25914 0.90083 0.74744 0.0
C596 C 0.24139 0.90691 0.75579 0.0
C597 C 0.22303 0.90004 0.71868 0.0
C598 C 0.22312 0.88711 0.67443 0.0
H599 H 0.27234 0.88376 0.69535 0.0
O600 O 0.22673 0.81008 0.6789 0.0
O601 O 0.21993 0.83411 0.62916 0.0
O602 O 0.26252 0.83239 0.59965 0.0
O603 O 0.26764 0.86921 0.60338 0.0
C604 C 0.20449 0.90527 0.72415 0.0
C605 C 0.18583 0.89657 0.68686 0.0
H606 H 0.1525 0.87593 0.60846 0.0
H607 H 0.15507 0.85218 0.53434 0.0
H608 H 0.27335 0.90605 0.77591 0.0
H609 H 0.24195 0.91671 0.79097 0.0
H610 H 0.20421 0.91569 0.75735 0.0
H611 H 0.17141 0.90029 0.69214 0.0
Mn612 Mn 0.23205 0.42315 0.59922 0.0
Mn613 Mn 0.17566 0.37622 0.59771 0.0
C614 C 0.21488 0.40166 0.67484 0.0
C615 C 0.27364 0.44145 0.59774 0.0
C616 C 0.1868 0.42741 0.6018 0.0
O617 O 0.22701 0.41441 0.52047 0.0
O618 O 0.1887 0.38448 0.52518 0.0
C619 C 0.18602 0.33911 0.55906 0.0
N620 N 0.17618 0.34697 0.59583 0.0
C621 C 0.15957 0.30987 0.64322 0.0
C622 C 0.16943 0.30134 0.6057 0.0
C623 C 0.18283 0.31609 0.56361 0.0
C624 C 0.16349 0.33303 0.63683 0.0
H625 H 0.19616 0.35027 0.52642 0.0
C626 C 0.20778 0.39798 0.49936 0.0
O627 O 0.26271 0.45322 0.5882 0.0
O628 O 0.2604 0.41849 0.60273 0.0
N629 N 0.16079 0.36577 0.66532 0.0
C630 C 0.15393 0.37726 0.70018 0.0
C631 C 0.14132 0.36535 0.74589 0.0
C632 C 0.13541 0.3416 0.75467 0.0
C633 C 0.14236 0.33005 0.71787 0.0
C634 C 0.1552 0.34293 0.67345 0.0
H635 H 0.15819 0.39543 0.69334 0.0
O636 O 0.23182 0.42372 0.67772 0.0
O637 O 0.20798 0.39275 0.62791 0.0
O638 O 0.20937 0.43682 0.59815 0.0
O639 O 0.17265 0.40495 0.60129 0.0
C640 C 0.1373 0.30634 0.7238 0.0
C641 C 0.14611 0.29634 0.68683 0.0
H642 H 0.16694 0.28356 0.60898 0.0
H643 H 0.19056 0.30967 0.53457 0.0
H644 H 0.13605 0.3744 0.77413 0.0
H645 H 0.12567 0.33247 0.78995 0.0
H646 H 0.12696 0.29575 0.75714 0.0
H647 H 0.14254 0.27827 0.69248 0.0
H648 H 0.23515 0.3814 0.45687 0.0
H649 H 0.17802 0.39495 0.42099 0.0
H650 H 0.22429 0.35481 0.3806 0.0
H651 H 0.1679 0.36967 0.34304 0.0
H652 H 0.13377 0.30341 0.24968 0.0
H653 H 0.1482 0.32882 0.32756 0.0
H654 H 0.22035 0.34677 0.28919 0.0
H655 H 0.20541 0.32006 0.21297 0.0
C656 C 0.22108 0.37968 0.43091 0.0
C657 C 0.20763 0.39049 0.4443 0.0
C658 C 0.21461 0.36416 0.38749 0.0
C659 C 0.19469 0.35937 0.35626 0.0
C660 C 0.18274 0.37207 0.36715 0.0
C661 C 0.18891 0.38713 0.41103 0.0
C662 C 0.15256 0.31195 0.25944 0.0
C663 C 0.1684 0.30941 0.22597 0.0
C664 C 0.161 0.32707 0.30328 0.0
C665 C 0.18564 0.34066 0.31393 0.0
C666 C 0.2013 0.33672 0.28249 0.0
C667 C 0.19273 0.32114 0.2391 0.0
H668 H 0.64571 0.79256 0.42084 0.0
H669 H 0.66269 0.86423 0.45855 0.0
H670 H 0.67083 0.80701 0.34258 0.0
H671 H 0.68905 0.87918 0.38174 0.0
H672 H 0.72295 0.89351 0.2129 0.0
H673 H 0.69639 0.88274 0.28928 0.0
H674 H 0.712 0.82698 0.32819 0.0
H675 H 0.73733 0.83707 0.2504 0.0
C676 C 0.65424 0.81135 0.41121 0.0
C677 C 0.65192 0.82721 0.44508 0.0
C678 C 0.66918 0.8198 0.36713 0.0
C679 C 0.68275 0.84444 0.35662 0.0
C680 C 0.67899 0.86013 0.38842 0.0
C681 C 0.66363 0.85155 0.43212 0.0
C682 C 0.72137 0.8796 0.23915 0.0
C683 C 0.73242 0.86631 0.22628 0.0
C684 C 0.7059 0.87318 0.28261 0.0
C685 C 0.70137 0.85346 0.31423 0.0
C686 C 0.71424 0.84167 0.30375 0.0
C687 C 0.72929 0.8478 0.25993 0.0
H688 H 0.18182 0.80757 0.45783 0.0
H689 H 0.25297 0.86402 0.42252 0.0
H690 H 0.16653 0.81897 0.38184 0.0
H691 H 0.23824 0.87465 0.34477 0.0
H692 H 0.20725 0.90982 0.2517 0.0
H693 H 0.21777 0.89496 0.32941 0.0
H694 H 0.16254 0.82322 0.29078 0.0
H695 H 0.15123 0.83863 0.21484 0.0
C696 C 0.19436 0.82159 0.43202 0.0
C697 C 0.21863 0.8347 0.44552 0.0
C698 C 0.18557 0.82838 0.38875 0.0
C699 C 0.20097 0.84828 0.35777 0.0
C700 C 0.22561 0.85986 0.36871 0.0
C701 C 0.23425 0.85338 0.41247 0.0
C702 C 0.19668 0.89105 0.2614 0.0
C703 C 0.17815 0.87546 0.22795 0.0
C704 C 0.20309 0.88235 0.30513 0.0
C705 C 0.19162 0.85768 0.31564 0.0
C706 C 0.17187 0.84229 0.28421 0.0
C707 C 0.16513 0.85114 0.24098 0.0
H708 H 0.3942 0.22822 0.54943 0.0
H709 H 0.40514 0.16891 0.57927 0.0
H710 H 0.36732 0.21683 0.62507 0.0
H711 H 0.37962 0.15826 0.65679 0.0
H712 H 0.31416 0.12518 0.75244 0.0
H713 H 0.33925 0.13956 0.67411 0.0
H714 H 0.35888 0.21195 0.71532 0.0
H715 H 0.33236 0.19705 0.79164 0.0
C716 C 0.3918 0.21346 0.57388 0.0
C717 C 0.40194 0.19958 0.55884 0.0
C718 C 0.37612 0.2067 0.617 0.0
C719 C 0.37055 0.18611 0.6465 0.0
C720 C 0.38256 0.17362 0.63399 0.0
C721 C 0.39774 0.18006 0.59032 0.0
C722 C 0.32298 0.14403 0.74315 0.0
C723 C 0.32095 0.15994 0.77738 0.0
C724 C 0.33794 0.15244 0.69905 0.0
C725 C 0.35193 0.17711 0.68901 0.0
C726 C 0.34851 0.19288 0.72138 0.0
C727 C 0.33305 0.18434 0.7649 0.0
H728 H 0.87245 0.24331 0.58861 0.0
H729 H 0.82025 0.17124 0.54674 0.0
H730 H 0.88329 0.22888 0.66659 0.0
H731 H 0.83201 0.15634 0.62279 0.0
H732 H 0.85042 0.1401 0.78946 0.0
H733 H 0.83502 0.15121 0.7133 0.0
H734 H 0.90561 0.21079 0.68365 0.0
H735 H 0.92036 0.20039 0.76166 0.0
C736 C 0.86278 0.22439 0.59722 0.0
C737 C 0.84519 0.20844 0.56242 0.0
C738 C 0.86941 0.21597 0.64112 0.0
C739 C 0.85916 0.19129 0.65037 0.0
C740 C 0.84036 0.17543 0.61732 0.0
C741 C 0.83336 0.18396 0.57397 0.0
C742 C 0.86276 0.15503 0.76536 0.0
C743 C 0.88663 0.16928 0.78116 0.0
C744 C 0.85389 0.16162 0.72194 0.0
C745 C 0.86883 0.18241 0.69292 0.0
C746 C 0.89325 0.19526 0.70609 0.0
C747 C 0.90193 0.18897 0.75005 0.0
H748 H 0.8431 0.72853 0.76168 0.0
H749 H 0.90351 0.71901 0.78805 0.0
H750 H 0.83239 0.70326 0.6837 0.0
H751 H 0.89202 0.69225 0.71221 0.0
H752 H 0.87138 0.65625 0.54729 0.0
H753 H 0.88645 0.68314 0.62295 0.0
H754 H 0.81411 0.66321 0.6653 0.0
H755 H 0.79956 0.63782 0.58739 0.0
C756 C 0.85448 0.72152 0.74975 0.0
C757 C 0.87431 0.72601 0.78047 0.0
C758 C 0.848 0.70644 0.70583 0.0
C759 C 0.86074 0.69479 0.69235 0.0
C760 C 0.88166 0.70074 0.72098 0.0
C761 C 0.88849 0.71637 0.76424 0.0
C762 C 0.85872 0.65698 0.57412 0.0
C763 C 0.83428 0.64468 0.56206 0.0
C764 C 0.86736 0.67266 0.6173 0.0
C765 C 0.85165 0.67609 0.64986 0.0
C766 C 0.82696 0.66194 0.64021 0.0
C767 C 0.81845 0.64678 0.59637 0.0
H768 H 0.97951 0.45866 0.09008 0.0
H769 H 0.99456 0.5299 0.12583 0.0
H770 H 1.00492 0.47335 0.0123 0.0
H771 H 1.02131 0.54514 0.04984 0.0
H772 H 0.05632 0.56044 0.88281 0.0
H773 H 0.02962 0.5492 0.95885 0.0
H774 H 0.04568 0.49365 0.99675 0.0
H775 H 0.07105 0.50411 0.91893 0.0
C776 C 0.98769 0.4774 0.08012 0.0
C777 C 0.98471 0.49306 0.1133 0.0
C778 C 1.00283 0.48601 0.03635 0.0
C779 C 1.016 0.51065 0.02553 0.0
C780 C 1.01159 0.5261 0.05665 0.0
C781 C 0.99599 0.51734 0.09992 0.0
C782 C 0.05484 0.54648 0.90881 0.0
C783 C 0.06601 0.53336 0.89553 0.0
C784 C 0.03926 0.53978 0.95211 0.0
C785 C 0.03477 0.51996 0.98335 0.0
C786 C 0.04784 0.50838 0.97261 0.0
C787 C 0.06295 0.51476 0.92882 0.0
H788 H 0.51242 0.47613 0.12626 0.0
H789 H 0.58372 0.53149 0.08818 0.0
H790 H 0.497 0.4874 0.05024 0.0
H791 H 0.56882 0.542 0.01052 0.0
H792 H 0.53817 0.57743 0.91741 0.0
H793 H 0.54866 0.56274 0.99545 0.0
H794 H 0.49279 0.49106 0.95867 0.0
H795 H 0.48155 0.5063 0.88227 0.0
C796 C 0.52492 0.48988 0.0999 0.0
C797 C 0.5493 0.50272 0.11254 0.0
C798 C 0.51607 0.4966 0.05662 0.0
C799 C 0.53151 0.51616 0.02485 0.0
C800 C 0.55619 0.52747 0.03506 0.0
C801 C 0.56491 0.52107 0.07878 0.0
C802 C 0.52747 0.55872 0.92756 0.0
C803 C 0.50879 0.54309 0.89446 0.0
C804 C 0.53385 0.55012 0.97149 0.0
C805 C 0.52217 0.5255 0.98259 0.0
C806 C 0.50227 0.51009 0.95159 0.0
C807 C 0.49558 0.51885 0.9081 0.0
H808 H 0.51508 0.06464 0.09128 0.0
H809 H 0.5704 0.04857 0.12847 0.0
H810 H 0.50444 0.0393 0.01333 0.0
H811 H 0.55904 0.022 0.05194 0.0
H812 H 0.53977 0.98817 0.88286 0.0
H813 H 0.55527 1.01458 0.95958 0.0
H814 H 0.48364 0.9982 0.99853 0.0
H815 H 0.46867 0.97303 0.92037 0.0
C816 C 0.52546 0.05623 0.08165 0.0
C817 C 0.54382 0.0589 0.11528 0.0
C818 C 0.519 0.04117 0.03773 0.0
C819 C 0.53028 0.02782 0.0271 0.0
C820 C 0.54987 0.03188 0.05871 0.0
C821 C 0.55663 0.04736 0.10226 0.0
C822 C 0.52732 0.98953 0.9092 0.0
C823 C 0.50299 0.97832 0.89621 0.0
C824 C 0.53621 1.00492 0.95286 0.0
C825 C 0.52086 1.00921 0.98461 0.0
C826 C 0.4962 0.99614 0.97402 0.0
C827 C 0.48745 0.98118 0.92999 0.0
H828 H 0.20247 0.34271 0.98792 0.0
H829 H 0.14579 0.28667 0.89703 0.0
H830 H 0.21567 0.36848 0.90998 0.0
H831 H 0.15976 0.31198 0.81848 0.0
H832 H 0.20987 0.35776 0.68254 0.0
H833 H 0.19803 0.33206 0.76055 0.0
H834 H 0.19655 0.38755 0.85196 0.0
H835 H 0.20713 0.41273 0.77331 0.0
C836 C 0.19269 0.33611 0.9513 0.0
C837 C 0.17249 0.31329 0.94855 0.0
C838 C 0.20035 0.3507 0.90682 0.0
C839 C 0.18841 0.34224 0.85861 0.0
C840 C 0.16899 0.31891 0.85536 0.0
C841 C 0.16105 0.3045 0.90009 0.0
C842 C 0.20638 0.36413 0.71915 0.0
C843 C 0.20818 0.3866 0.72183 0.0
C844 C 0.19988 0.3496 0.76367 0.0
C845 C 0.196 0.35778 0.81187 0.0
C846 C 0.19913 0.38081 0.81508 0.0
C847 C 0.20517 0.39515 0.7703 0.0
H848 H 0.68528 0.85995 0.68408 0.0
H849 H 0.62925 0.80274 0.77369 0.0
H850 H 0.71106 0.87267 0.76196 0.0
H851 H 0.65455 0.81624 0.85238 0.0
H852 H 0.75597 0.86533 0.89748 0.0
H853 H 0.73055 0.85408 0.81903 0.0
H854 H 0.67434 0.85375 0.91122 0.0
H855 H 0.7002 0.86617 0.98894 0.0
C856 C 0.6787 0.84993 0.7204 0.0
C857 C 0.65588 0.82973 0.72277 0.0
C858 C 0.6933 0.8573 0.76485 0.0
C859 C 0.68488 0.84507 0.81272 0.0
C860 C 0.66153 0.82565 0.81568 0.0
C861 C 0.6471 0.81798 0.77091 0.0
C862 C 0.73816 0.86277 0.9007 0.0
C863 C 0.72949 0.86551 0.94925 0.0
C864 C 0.72367 0.85634 0.85606 0.0
C865 C 0.7004 0.85257 0.85953 0.0
C866 C 0.69205 0.85606 0.90789 0.0
C867 C 0.7067 0.86292 0.95224 0.0
H868 H 0.1786 0.89821 0.89926 0.0
H869 H 0.17592 0.84047 0.98945 0.0
H870 H 0.18931 0.88374 0.82046 0.0
H871 H 0.18782 0.82671 0.91121 0.0
H872 H 0.24067 0.83469 0.77434 0.0
H873 H 0.22645 0.84564 0.85316 0.0
H874 H 0.16982 0.84499 0.76238 0.0
H875 H 0.18328 0.83276 0.68414 0.0
C876 C 0.18057 0.88259 0.90209 0.0
C877 C 0.17754 0.87098 0.95044 0.0
C878 C 0.18666 0.87435 0.85722 0.0
C879 C 0.18978 0.85446 0.86021 0.0
C880 C 0.18592 0.84236 0.90828 0.0
C881 C 0.17939 0.85034 0.95291 0.0
C882 C 0.2252 0.83689 0.7715 0.0
C883 C 0.21362 0.83401 0.72314 0.0
C884 C 0.21711 0.84313 0.81638 0.0
C885 C 0.19743 0.8466 0.81338 0.0
C886 C 0.18533 0.84285 0.76531 0.0
C887 C 0.19314 0.83613 0.72068 0.0
H888 H 0.4256 0.20367 0.22972 0.0
H889 H 0.36817 0.2009 0.32163 0.0
H890 H 0.40041 0.19224 0.1509 0.0
H891 H 0.34258 0.18827 0.24345 0.0
H892 H 0.29919 0.1365 0.1058 0.0
H893 H 0.32455 0.15093 0.18431 0.0
H894 H 0.37931 0.20893 0.09382 0.0
H895 H 0.35356 0.19502 0.01588 0.0
C896 C 0.4075 0.20032 0.23292 0.0
C897 C 0.39832 0.20206 0.2817 0.0
C898 C 0.39314 0.19378 0.18806 0.0
C899 C 0.36947 0.18885 0.19153 0.0
C900 C 0.36063 0.19148 0.24008 0.0
C901 C 0.37513 0.19846 0.28469 0.0
C902 C 0.31666 0.1523 0.10298 0.0
C903 C 0.32499 0.16417 0.0548 0.0
C904 C 0.33109 0.16054 0.14767 0.0
C905 C 0.35395 0.18074 0.14471 0.0
C906 C 0.36192 0.19304 0.09677 0.0
C907 C 0.34734 0.18501 0.0523 0.0
H908 H 0.85028 0.16776 0.01955 0.0
H909 H 0.90579 0.16607 0.11006 0.0
H910 H 0.83769 0.18075 0.09784 0.0
H911 H 0.89237 0.17774 0.18907 0.0
H912 H 0.84338 0.17549 0.32515 0.0
H913 H 0.85508 0.16139 0.24733 0.0
H914 H 0.85727 0.21859 0.15571 0.0
H915 H 0.84636 0.23317 0.23413 0.0
C916 C 0.85993 0.1705 0.05621 0.0
C917 C 0.87968 0.16716 0.05873 0.0
C918 C 0.85263 0.1777 0.10087 0.0
C919 C 0.86449 0.18078 0.14903 0.0
C920 C 0.88332 0.17598 0.15215 0.0
C921 C 0.89093 0.16926 0.10719 0.0
C922 C 0.8469 0.18529 0.28849 0.0
C923 C 0.84504 0.20592 0.28561 0.0
C924 C 0.85339 0.17716 0.2441 0.0
C925 C 0.85733 0.18914 0.19586 0.0
C926 C 0.85445 0.2092 0.19257 0.0
C927 C 0.84827 0.21753 0.2372 0.0
H928 H 0.87826 0.69146 0.01917 0.0
H929 H 0.87758 0.74769 0.10926 0.0
H930 H 0.86578 0.66592 0.09753 0.0
H931 H 0.86634 0.72263 0.18818 0.0
H932 H 0.86933 0.67653 0.32491 0.0
H933 H 0.88385 0.70224 0.24702 0.0
H934 H 0.827 0.64717 0.15456 0.0
H935 H 0.81187 0.62188 0.23301 0.0
C936 C 0.87518 0.69818 0.05575 0.0
C937 C 0.87768 0.72095 0.05813 0.0
C938 C 0.86829 0.68372 0.10044 0.0
C939 C 0.86467 0.69225 0.14844 0.0
C940 C 0.86865 0.71561 0.15142 0.0
C941 C 0.87509 0.72989 0.10649 0.0
C942 C 0.85968 0.67023 0.28806 0.0
C943 C 0.83894 0.64782 0.28498 0.0
C944 C 0.86809 0.68478 0.24362 0.0
C945 C 0.8563 0.6767 0.19514 0.0
C946 C 0.83623 0.65378 0.1916 0.0
C947 C 0.82758 0.63939 0.23628 0.0
H948 H 0.96245 0.47095 0.44209 0.0
H949 H 1.01795 0.52839 0.35192 0.0
H950 H 0.98763 0.48517 0.52085 0.0
H951 H 0.04362 0.54186 0.43011 0.0
H952 H 0.08801 0.53285 0.56664 0.0
H953 H 0.06282 0.52223 0.48794 0.0
H954 H 1.00742 0.52395 0.57902 0.0
H955 H 0.0331 0.53579 0.65717 0.0
C956 C 0.98013 0.48644 0.43925 0.0
C957 C 0.98883 0.49803 0.39091 0.0
C958 C 0.99446 0.49453 0.4841 0.0
C959 C 1.01761 0.51424 0.48109 0.0
C960 C 1.02596 0.52634 0.43305 0.0
C961 C 1.01145 0.51853 0.38844 0.0
C962 C 0.07045 0.53096 0.56957 0.0
C963 C 0.06191 0.53403 0.61798 0.0
C964 C 0.05612 0.52492 0.52475 0.0
C965 C 0.03313 0.52187 0.52786 0.0
C966 C 1.02495 0.52579 0.576 0.0
C967 C 0.03946 0.53228 0.62058 0.0
H968 H 0.50756 0.50801 0.6555 0.0
H969 H 0.50921 0.56535 0.56565 0.0
H970 H 0.52014 0.49487 0.57735 0.0
H971 H 0.52043 0.55138 0.48683 0.0
H972 H 0.5161 0.50155 0.35016 0.0
H973 H 0.50233 0.51352 0.42816 0.0
H974 H 0.55862 0.51395 0.51995 0.0
H975 H 0.57307 0.50308 0.44133 0.0
C976 C 0.51096 0.51794 0.61906 0.0
C977 C 0.50868 0.53833 0.61671 0.0
C978 C 0.51789 0.51031 0.57447 0.0
C979 C 0.52169 0.52249 0.52651 0.0
C980 C 0.518 0.54203 0.52357 0.0
C981 C 0.51157 0.54996 0.56844 0.0
C982 C 0.52583 0.50482 0.38687 0.0
C983 C 0.54624 0.50257 0.38971 0.0
C984 C 0.51785 0.51141 0.43137 0.0
C985 C 0.52971 0.51497 0.4797 0.0
C986 C 0.54941 0.51153 0.483 0.0
C987 C 0.55765 0.50535 0.43824 0.0
H988 H 0.53578 1.01106 0.65784 0.0
H989 H 0.47847 0.9555 0.56736 0.0
H990 H 0.54902 0.03689 0.58012 0.0
H991 H 0.49245 0.98086 0.48885 0.0
H992 H 0.54328 0.08247 0.44423 0.0
H993 H 0.53146 0.057 0.52262 0.0
H994 H 0.52989 1.00014 0.43047 0.0
H995 H 0.54288 0.02602 0.35284 0.0
C996 C 0.52585 1.0046 0.62136 0.0
C997 C 0.50549 0.98189 0.61869 0.0
C998 C 0.53351 0.01923 0.57699 0.0
C999 C 0.5214 1.01096 0.5289 0.0
C1000 C 0.50178 0.98772 0.52568 0.0
C1001 C 0.49384 0.97326 0.57036 0.0
C1002 C 0.54033 0.0645 0.44101 0.0
C1003 C 0.54288 0.05568 0.39248 0.0
C1004 C 0.53356 0.04998 0.48562 0.0
C1005 C 0.52926 0.02651 0.48214 0.0
C1006 C 0.53259 0.01801 0.43382 0.0
C1007 C 0.53979 0.03268 0.38951 0.0
H1008 H 0.16649 0.21476 0.03505 0.0
H1009 H 0.23395 0.27731 0.07057 0.0
H1010 H 0.18677 0.19581 0.9965 0.0
H1011 H 0.25482 0.25743 0.03606 0.0
H1012 H 0.2874 0.22387 0.93097 0.0
H1013 H 0.26737 0.24459 0.96539 0.0
H1014 H 0.20655 0.17646 0.00783 0.0
H1015 H 0.22564 0.15628 0.96933 0.0
C1016 C 0.1858 0.2242 0.03623 0.0
C1017 C 0.19858 0.24746 0.05655 0.0
C1018 C 0.1976 0.21321 0.01413 0.0
C1019 C 0.22271 0.22474 0.01318 0.0
C1020 C 0.23554 0.24793 0.0349 0.0
C1021 C 0.22361 0.25928 0.05558 0.0
C1022 C 0.2695 0.21346 0.94655 0.0
C1023 C 0.25794 0.18843 0.94643 0.0
C1024 C 0.25807 0.22532 0.9672 0.0
C1025 C 0.23507 0.21243 0.98973 0.0
C1026 C 0.22379 0.18732 0.98958 0.0
C1027 C 0.23485 0.17557 0.96751 0.0
H1028 H 0.81931 0.07773 0.97338 0.0
H1029 H 0.87652 0.0661 0.92401 0.0
H1030 H 0.79816 0.03763 0.01067 0.0
H1031 H 0.85516 0.02587 0.96002 0.0
H1032 H 0.82718 0.96755 0.08206 0.0
H1033 H 0.84596 1.00772 0.04571 0.0
H1034 H 0.77719 0.99537 0.99359 0.0
H1035 H 0.75834 0.95533 0.0312 0.0
C1036 C 0.82713 0.06642 0.96933 0.0
C1037 C 0.84967 0.07519 0.9458 0.0
C1038 C 0.815 0.04341 0.99087 0.0
C1039 C 0.82511 0.02858 0.98933 0.0
C1040 C 0.84709 0.03697 0.96328 0.0
C1041 C 0.85923 0.05997 0.94193 0.0
C1042 C 0.816 0.97354 0.0637 0.0
C1043 C 0.79125 0.95817 0.05955 0.0
C1044 C 0.82681 0.9965 0.04217 0.0
C1045 C 0.8132 1.00471 0.01565 0.0
C1046 C 0.78828 0.98973 0.01375 0.0
C1047 C 0.77744 0.96675 0.03547 0.0
H1048 H 0.96869 0.82028 0.9693 0.0
H1049 H 0.97425 0.75812 0.93357 0.0
H1050 H 1.0079 0.83948 0.00803 0.0
H1051 H 1.01494 0.77823 0.96827 0.0
H1052 H 0.08052 0.81159 0.07439 0.0
H1053 H 0.03988 0.79089 0.03948 0.0
H1054 H 0.04716 0.85905 0.99778 0.0
H1055 H 0.08634 0.87922 0.03674 0.0
C1056 C 0.9787 0.81099 0.9681 0.0
C1057 C 0.9684 0.78775 0.94774 0.0
C1058 C 1.00148 0.82212 0.99032 0.0
C1059 C 1.01518 0.81073 0.99141 0.0
C1060 C 1.00504 0.78761 0.96944 0.0
C1061 C 0.9818 0.77613 0.94861 0.0
C1062 C 0.07304 0.82201 0.05886 0.0
C1063 C 0.08649 0.84704 0.05928 0.0
C1064 C 0.04982 0.81017 0.03792 0.0
C1065 C 0.03976 0.82307 0.01536 0.0
C1066 C 0.05352 0.84818 0.01595 0.0
C1067 C 0.07628 0.85991 0.03831 0.0
H1068 H 0.84833 0.79414 0.88901 0.0
H1069 H 0.84751 0.76754 0.04535 0.0
H1070 H 0.83109 0.81772 0.92434 0.0
H1071 H 0.83008 0.79048 0.08044 0.0
H1072 H 0.76674 0.80455 0.09886 0.0
H1073 H 0.78983 0.78649 0.06875 0.0
H1074 H 0.83884 0.8518 0.98896 0.0
H1075 H 0.8157 0.87007 0.0196 0.0
C1076 C 0.8446 0.7935 0.93086 0.0
C1077 C 0.84861 0.77863 0.96435 0.0
C1078 C 0.83485 0.807 0.95115 0.0
C1079 C 0.82894 0.8057 0.00512 0.0
C1080 C 0.83398 0.79152 0.0386 0.0
C1081 C 0.84381 0.77827 0.01848 0.0
C1082 C 0.78271 0.81526 0.07583 0.0
C1083 C 0.78946 0.83881 0.06201 0.0
C1084 C 0.79595 0.80489 0.05851 0.0
C1085 C 0.81611 0.81767 0.02622 0.0
C1086 C 0.82329 0.84146 0.01345 0.0
C1087 C 0.81022 0.852 0.0316 0.0
H1088 H 0.17614 0.95606 0.03044 0.0
H1089 H 0.24517 0.96849 0.08056 0.0
H1090 H 0.19486 0.99636 0.99392 0.0
H1091 H 0.2637 1.00874 0.04551 0.0
H1092 H 0.23805 0.07929 0.97394 0.0
H1093 H 0.21623 0.039 0.01038 0.0
H1094 H 0.27271 0.02641 0.95992 0.0
H1095 H 0.29468 0.06667 0.92494 0.0
C1096 C 0.19521 0.96756 0.03491 0.0
C1097 C 0.20914 0.95892 0.05822 0.0
C1098 C 0.20597 0.99068 0.01375 0.0
C1099 C 0.23089 1.0057 0.0156 0.0
C1100 C 0.24456 0.99748 0.0418 0.0
C1101 C 0.23387 0.97442 0.06255 0.0
C1102 C 0.24559 0.06776 0.9697 0.0
C1103 C 0.26824 0.07634 0.94672 0.0
C1104 C 0.23309 0.04464 0.99081 0.0
C1105 C 0.24291 0.02956 0.98926 0.0
C1106 C 0.26488 0.03772 0.9634 0.0
C1107 C 0.2774 0.06078 0.94268 0.0
H1108 H 0.98152 0.19571 0.88561 0.0
H1109 H 0.95557 0.19226 0.044 0.0
H1110 H 1.02256 0.2136 0.92002 0.0
H1111 H 0.99625 0.21061 0.07811 0.0
H1112 H 0.07329 0.27712 0.09364 0.0
H1113 H 0.03203 0.25332 0.06381 0.0
H1114 H 0.04909 0.20445 0.98592 0.0
H1115 H 0.09043 0.22803 0.0167 0.0
C1116 C 0.98462 0.1985 0.92772 0.0
C1117 C 0.96559 0.19293 0.96222 0.0
C1118 C 1.00799 0.20869 0.94742 0.0
C1119 C 1.01258 0.21371 1.00172 0.0
C1120 C 0.9933 0.20724 0.0361 0.0
C1121 C 0.97007 0.19682 0.01658 0.0
C1122 C 0.06816 0.26105 0.07104 0.0
C1123 C 0.0851 0.25437 0.05799 0.0
C1124 C 0.04455 0.24744 0.05389 0.0
C1125 C 0.03739 0.22709 0.02233 0.0
C1126 C 0.05417 0.22012 0.00995 0.0
C1127 C 0.07773 0.23347 0.02811 0.0
H1128 H 0.89815 0.6106 0.40853 0.0
H1129 H 0.83046 0.54846 0.37248 0.0
H1130 H 0.91878 0.59059 0.37356 0.0
H1131 H 0.85053 0.52936 0.33347 0.0
H1132 H 0.88932 0.48973 0.3045 0.0
H1133 H 0.87023 0.50981 0.34355 0.0
H1134 H 0.93116 0.57805 0.30227 0.0
H1135 H 0.95118 0.55744 0.26726 0.0
C1136 C 0.8877 0.59262 0.39336 0.0
C1137 C 0.86268 0.58097 0.39422 0.0
C1138 C 0.8995 0.5812 0.37237 0.0
C1139 C 0.88655 0.55811 0.35024 0.0
C1140 C 0.86145 0.54669 0.3513 0.0
C1141 C 0.84976 0.55776 0.37369 0.0
C1142 C 0.89855 0.50904 0.30304 0.0
C1143 C 0.92168 0.52196 0.28216 0.0
C1144 C 0.88749 0.52072 0.32545 0.0
C1145 C 0.89883 0.54583 0.32618 0.0
C1146 C 0.92183 0.55878 0.30371 0.0
C1147 C 0.93325 0.54698 0.28271 0.0
H1148 H 0.48637 0.41293 0.3054 0.0
H1149 H 0.54411 0.40178 0.25809 0.0
H1150 H 0.46544 0.373 0.3435 0.0
H1151 H 0.52297 0.36168 0.2949 0.0
H1152 H 0.49498 0.30364 0.41755 0.0
H1153 H 0.51361 0.34371 0.38075 0.0
H1154 H 0.4448 0.33072 0.32723 0.0
H1155 H 0.4261 0.29079 0.3653 0.0
C1156 C 0.49436 0.40176 0.302 0.0
C1157 C 0.51698 0.41063 0.27877 0.0
C1158 C 0.48236 0.37883 0.324 0.0
C1159 C 0.49266 0.36417 0.32324 0.0
C1160 C 0.51474 0.37265 0.29755 0.0
C1161 C 0.52675 0.39557 0.27574 0.0
C1162 C 0.48375 0.30947 0.39882 0.0
C1163 C 0.45904 0.29395 0.3944 0.0
C1164 C 0.49448 0.33238 0.37701 0.0
C1165 C 0.48082 0.34038 0.34993 0.0
C1166 C 0.45592 0.32526 0.34781 0.0
C1167 C 0.44516 0.30233 0.36982 0.0
H1168 H 0.64558 0.15286 0.25905 0.0
H1169 H 0.63305 0.08421 0.31221 0.0
H1170 H 0.6857 0.17172 0.29566 0.0
H1171 H 0.67308 0.10317 0.35004 0.0
H1172 H 0.75553 0.14535 0.37037 0.0
H1173 H 0.71545 0.12404 0.33294 0.0
H1174 H 0.70372 0.18131 0.38166 0.0
H1175 H 0.74393 0.20281 0.41788 0.0
C1176 C 0.65149 0.14173 0.27797 0.0
C1177 C 0.63604 0.11701 0.28269 0.0
C1178 C 0.67443 0.1526 0.29965 0.0
C1179 C 0.68256 0.13908 0.32688 0.0
C1180 C 0.66751 0.11417 0.32934 0.0
C1181 C 0.64453 0.10327 0.30749 0.0
C1182 C 0.74424 0.1532 0.37394 0.0
C1183 C 0.75301 0.17585 0.39703 0.0
C1184 C 0.72123 0.14098 0.35234 0.0
C1185 C 0.70641 0.1511 0.35331 0.0
C1186 C 0.71481 0.17321 0.37887 0.0
C1187 C 0.7378 0.18543 0.40032 0.0
H1188 H 0.48436 0.09621 0.23966 0.0
H1189 H 0.5486 0.14115 0.32771 0.0
H1190 H 0.46721 0.12021 0.27019 0.0
H1191 H 0.53112 0.16488 0.35931 0.0
H1192 H 0.46968 0.17098 0.45645 0.0
H1193 H 0.49328 0.15375 0.42113 0.0
H1194 H 0.4759 0.16406 0.26243 0.0
H1195 H 0.45304 0.1817 0.29765 0.0
C1196 C 0.49498 0.11148 0.26475 0.0
C1197 C 0.51792 0.11692 0.28079 0.0
C1198 C 0.48515 0.12519 0.28233 0.0
C1199 C 0.4978 0.14433 0.31734 0.0
C1200 C 0.52095 0.15016 0.33254 0.0
C1201 C 0.53104 0.13675 0.31393 0.0
C1202 C 0.47146 0.17001 0.41412 0.0
C1203 C 0.45964 0.17758 0.37964 0.0
C1204 C 0.48489 0.16019 0.39389 0.0
C1205 C 0.48628 0.15746 0.339 0.0
C1206 C 0.47501 0.16579 0.30481 0.0
C1207 C 0.46198 0.17588 0.32494 0.0
H1208 H 0.90893 0.30386 0.42468 0.0
H1209 H 0.84043 0.28902 0.36475 0.0
H1210 H 0.9271 0.34408 0.38954 0.0
H1211 H 0.85884 0.3294 0.32841 0.0
H1212 H 0.9591 0.40063 0.26597 0.0
H1213 H 0.93703 0.36059 0.30196 0.0
H1214 H 0.8794 0.37262 0.34536 0.0
H1215 H 0.90142 0.41282 0.30817 0.0
C1216 C 0.89765 0.30928 0.40464 0.0
C1217 C 0.87322 0.29309 0.39736 0.0
C1218 C 0.90814 0.33231 0.38387 0.0
C1219 C 0.89459 0.33984 0.35484 0.0
C1220 C 0.86984 0.3242 0.3504 0.0
C1221 C 0.85926 0.30107 0.37149 0.0
C1222 C 0.94157 0.3947 0.2824 0.0
C1223 C 0.93216 0.4101 0.28434 0.0
C1224 C 0.92899 0.37176 0.30366 0.0
C1225 C 0.90666 0.36353 0.32785 0.0
C1226 C 0.89657 0.37837 0.32718 0.0
C1227 C 0.90918 0.40142 0.30564 0.0
H1228 H 0.64407 0.567 0.25206 0.0
H1229 H 0.62965 0.49863 0.3119 0.0
H1230 H 0.68426 0.58541 0.28745 0.0
H1231 H 0.67001 0.51728 0.34852 0.0
H1232 H 0.7534 0.56025 0.36874 0.0
H1233 H 0.71317 0.53801 0.33178 0.0
H1234 H 0.7009 0.59553 0.37481 0.0
H1235 H 0.74099 0.61783 0.41055 0.0
C1236 C 0.64958 0.55579 0.27217 0.0
C1237 C 0.63351 0.53133 0.2793 0.0
C1238 C 0.6726 0.56643 0.29309 0.0
C1239 C 0.68024 0.55298 0.32215 0.0
C1240 C 0.66473 0.52821 0.32651 0.0
C1241 C 0.6416 0.51748 0.30525 0.0
C1242 C 0.74195 0.56794 0.37126 0.0
C1243 C 0.75058 0.59096 0.39236 0.0
C1244 C 0.71888 0.5552 0.34985 0.0
C1245 C 0.70395 0.56519 0.34912 0.0
C1246 C 0.71213 0.58755 0.37316 0.0
C1247 C 0.7351 0.60027 0.39428 0.0
H1248 H 0.55711 0.83288 0.59233 0.0
H1249 H 0.626 0.89021 0.64108 0.0
H1250 H 0.53824 0.8542 0.62875 0.0
H1251 H 0.60709 0.91129 0.6789 0.0
H1252 H 0.56538 0.95153 0.70019 0.0
H1253 H 0.58619 0.93234 0.66241 0.0
H1254 H 0.52901 0.86375 0.71345 0.0
H1255 H 0.50795 0.88289 0.74984 0.0
C1256 C 0.56828 0.85018 0.61027 0.0
C1257 C 0.59308 0.8598 0.61372 0.0
C1258 C 0.55742 0.8623 0.63186 0.0
C1259 C 0.57104 0.88433 0.65779 0.0
C1260 C 0.59598 0.89444 0.65914 0.0
C1261 C 0.60686 0.88234 0.63732 0.0
C1262 C 0.55744 0.93239 0.70416 0.0
C1263 C 0.53495 0.91876 0.728 0.0
C1264 C 0.56938 0.92135 0.68236 0.0
C1265 C 0.55916 0.89639 0.68396 0.0
C1266 C 0.53718 0.88292 0.71014 0.0
C1267 C 0.52522 0.89395 0.73171 0.0
H1268 H 0.15404 0.73703 0.5995 0.0
H1269 H 0.22157 0.74247 0.63641 0.0
H1270 H 0.13324 0.69644 0.63461 0.0
H1271 H 0.20131 0.70332 0.67552 0.0
H1272 H 0.16206 0.62484 0.7048 0.0
H1273 H 0.18144 0.664 0.66571 0.0
H1274 H 0.1207 0.67176 0.70616 0.0
H1275 H 0.10041 0.63117 0.74125 0.0
C1276 C 0.16442 0.72947 0.6149 0.0
C1277 C 0.18944 0.74281 0.61426 0.0
C1278 C 0.15252 0.70629 0.63596 0.0
C1279 C 0.16536 0.69614 0.6584 0.0
C1280 C 0.19047 0.70977 0.6575 0.0
C1281 C 0.20226 0.73249 0.63505 0.0
C1282 C 0.15293 0.63501 0.70607 0.0
C1283 C 0.12977 0.62494 0.72672 0.0
C1284 C 0.16416 0.65775 0.68363 0.0
C1285 C 0.15295 0.67162 0.68261 0.0
C1286 C 0.12993 0.66171 0.70491 0.0
C1287 C 0.11835 0.63853 0.72596 0.0
H1288 H 0.41137 0.47839 0.73989 0.0
H1289 H 0.41685 0.54592 0.70274 0.0
H1290 H 0.37074 0.45758 0.70492 0.0
H1291 H 0.37766 0.52564 0.66376 0.0
H1292 H 0.29918 0.48651 0.63511 0.0
H1293 H 0.33838 0.50585 0.67402 0.0
H1294 H 0.34592 0.44498 0.63347 0.0
H1295 H 0.30528 0.42473 0.59858 0.0
C1296 C 0.40382 0.48877 0.72446 0.0
C1297 C 0.41716 0.51379 0.72501 0.0
C1298 C 0.38061 0.47686 0.70349 0.0
C1299 C 0.37045 0.4897 0.68106 0.0
C1300 C 0.38411 0.51481 0.68181 0.0
C1301 C 0.40686 0.52661 0.70418 0.0
C1302 C 0.30931 0.47734 0.63378 0.0
C1303 C 0.29917 0.45416 0.61315 0.0
C1304 C 0.33207 0.48855 0.65611 0.0
C1305 C 0.3459 0.47729 0.65703 0.0
C1306 C 0.33592 0.45424 0.63478 0.0
C1307 C 0.3127 0.44269 0.61385 0.0
H1308 H 0.14033 0.41621 0.59254 0.0
H1309 H 0.20947 0.47307 0.64163 0.0
H1310 H 0.1219 0.43812 0.62721 0.0
H1311 H 0.19086 0.49481 0.67787 0.0
H1312 H 0.14817 0.53489 0.69777 0.0
H1313 H 0.16973 0.5161 0.66145 0.0
H1314 H 0.11286 0.44726 0.71204 0.0
H1315 H 0.09114 0.46586 0.74679 0.0
C1316 C 0.15167 0.43353 0.61027 0.0
C1317 C 0.17641 0.44279 0.61437 0.0
C1318 C 0.14104 0.446 0.63082 0.0
C1319 C 0.15477 0.46803 0.65661 0.0
C1320 C 0.17969 0.47792 0.65832 0.0
C1321 C 0.19039 0.46546 0.63734 0.0
C1322 C 0.14049 0.51579 0.70203 0.0
C1323 C 0.11782 0.5019 0.725 0.0
C1324 C 0.15284 0.50499 0.681 0.0
C1325 C 0.14285 0.48006 0.68267 0.0
C1326 C 0.12083 0.46641 0.70846 0.0
C1327 C 0.10846 0.47714 0.72905 0.0
H1328 H 0.5758 0.63557 0.74203 0.0
H1329 H 0.50587 0.62319 0.70002 0.0
H1330 H 0.59368 0.67569 0.70653 0.0
H1331 H 0.52395 0.66346 0.66331 0.0
H1332 H 0.62221 0.73267 0.58429 0.0
H1333 H 0.60031 0.6924 0.61922 0.0
H1334 H 0.54644 0.70662 0.68068 0.0
H1335 H 0.56827 0.74706 0.64454 0.0
C1336 C 0.56417 0.64147 0.72575 0.0
C1337 C 0.53936 0.626 0.72371 0.0
C1338 C 0.57447 0.66446 0.70477 0.0
C1339 C 0.56033 0.67266 0.68078 0.0
C1340 C 0.5354 0.65773 0.68135 0.0
C1341 C 0.52502 0.63464 0.70261 0.0
C1342 C 0.60547 0.72714 0.60439 0.0
C1343 C 0.59711 0.74321 0.61178 0.0
C1344 C 0.59303 0.70408 0.62503 0.0
C1345 C 0.5719 0.69641 0.65406 0.0
C1346 C 0.56268 0.71193 0.65868 0.0
C1347 C 0.57514 0.7351 0.63771 0.0
H1348 H 0.31105 0.90157 0.59811 0.0
H1349 H 0.29875 0.83174 0.64083 0.0
H1350 H 0.35114 0.91957 0.63388 0.0
H1351 H 0.33899 0.84995 0.67785 0.0
H1352 H 0.42249 0.89426 0.69734 0.0
H1353 H 0.3821 0.87237 0.66098 0.0
H1354 H 0.36793 0.9265 0.72103 0.0
H1355 H 0.40817 0.94848 0.75614 0.0
C1356 C 0.31697 0.88998 0.61462 0.0
C1357 C 0.30152 0.86517 0.61674 0.0
C1358 C 0.33994 0.90036 0.63576 0.0
C1359 C 0.34816 0.88629 0.66004 0.0
C1360 C 0.33325 0.86135 0.65959 0.0
C1361 C 0.31019 0.8509 0.63815 0.0
C1362 C 0.41056 0.90119 0.7038 0.0
C1363 C 0.41869 0.92324 0.7294 0.0
C1364 C 0.38741 0.88868 0.68271 0.0
C1365 C 0.3719 0.89795 0.68687 0.0
C1366 C 0.37959 0.91918 0.71556 0.0
C1367 C 0.40264 0.93167 0.73631 0.0
loop_
_geom_bond_atom_site_label_1
_geom_bond_atom_site_label_2
_geom_bond_distance
_geom_bond_site_symmetry_2
_ccdc_geom_bond_type
Mn0 O5 2.095 . S
Mn0 O15 2.162 . S
Mn0 O16 2.297 . S
Mn0 O24 2.385 1_554 S
Mn0 O25 2.209 . S
Mn0 O26 2.094 . S
Mn1 O6 2.121 . S
Mn1 N8 2.257 . S
Mn1 N17 2.282 1_554 S
Mn1 O25 2.215 . S
Mn1 O27 2.117 . S
C2 O24 1.234 . S
C2 O25 1.283 1_556 S
C3 O15 1.281 . S
C3 O16 1.236 . S
C4 O26 1.240 . S
C4 O27 1.264 . S
O5 Mn0 2.095 . S
O5 C14 1.250 . S
O6 Mn1 2.121 . S
O6 C14 1.258 . S
C7 N8 1.326 . S
C7 C11 1.460 . S
C7 H13 0.929 . S
N8 Mn1 2.257 . S
N8 C7 1.326 . S
N8 C12 1.362 1_554 S
C9 C10 1.258 1_556 S
C9 C12 1.431 . S
C9 C29 1.449 . S
C10 C9 1.258 1_554 S
C10 C11 1.477 . S
C10 H30 0.931 . S
C11 C7 1.460 . S
C11 C10 1.477 . S
C11 H31 0.930 . S
C12 N8 1.362 1_556 S
C12 C9 1.431 . S
C12 C22 1.476 . S
H13 C7 0.929 . S
C14 O5 1.250 . S
C14 O6 1.258 . S
O15 Mn0 2.162 . S
O15 C3 1.281 . S
O16 Mn0 2.297 . S
O16 C3 1.236 . S
N17 Mn1 2.282 1_556 S
N17 C18 1.328 . S
N17 C22 1.318 . S
C18 N17 1.328 . S
C18 C19 1.457 . S
C18 H23 0.929 . S
C19 C18 1.457 . S
C19 C20 1.291 . S
C19 H32 0.931 . S
C20 C19 1.291 . S
C20 C21 1.373 . S
C20 H33 0.929 . S
C21 C20 1.373 . S
C21 C22 1.396 . S
C21 C28 1.403 . S
C22 C12 1.476 . S
C22 N17 1.318 . S
C22 C21 1.396 . S
H23 C18 0.929 . S
O24 Mn0 2.385 1_556 S
O24 C2 1.234 . S
O25 Mn0 2.209 . S
O25 Mn1 2.215 . S
O25 C2 1.283 1_554 S
O26 Mn0 2.094 . S
O26 C4 1.240 . S
O27 Mn1 2.117 . S
O27 C4 1.264 . S
C28 C21 1.403 . S
C28 C29 1.399 . S
C28 H34 0.929 . S
C29 C9 1.449 . S
C29 C28 1.399 . S
C29 H35 0.930 . S
H30 C10 0.931 . S
H31 C11 0.930 . S
H32 C19 0.931 . S
H33 C20 0.929 . S
H34 C28 0.929 . S
H35 C29 0.930 . S
Mn36 O41 2.095 . S
Mn36 O51 2.162 . S
Mn36 O52 2.297 . S
Mn36 O60 2.385 1_554 S
Mn36 O61 2.209 . S
Mn36 O62 2.094 . S
Mn37 O42 2.121 . S
Mn37 N44 2.257 . S
Mn37 N53 2.282 1_554 S
Mn37 O61 2.215 . S
Mn37 O63 2.117 . S
C38 O60 1.234 . S
C38 O61 1.283 1_556 S
C39 O51 1.281 . S
C39 O52 1.236 . S
C40 O62 1.240 . S
C40 O63 1.264 . S
O41 Mn36 2.095 . S
O41 C50 1.250 . S
O42 Mn37 2.121 . S
O42 C50 1.258 . S
C43 N44 1.326 . S
C43 C47 1.460 . S
C43 H49 0.929 . S
N44 Mn37 2.257 . S
N44 C43 1.326 . S
N44 C48 1.362 1_554 S
C45 C46 1.258 1_556 S
C45 C48 1.431 . S
C45 C65 1.449 . S
C46 C45 1.258 1_554 S
C46 C47 1.477 . S
C46 H66 0.931 . S
C47 C43 1.460 . S
C47 C46 1.477 . S
C47 H67 0.930 . S
C48 N44 1.362 1_556 S
C48 C45 1.431 . S
C48 C58 1.476 . S
H49 C43 0.929 . S
C50 O41 1.250 . S
C50 O42 1.258 . S
O51 Mn36 2.162 . S
O51 C39 1.281 . S
O52 Mn36 2.297 . S
O52 C39 1.236 . S
N53 Mn37 2.282 1_556 S
N53 C54 1.328 . S
N53 C58 1.318 . S
C54 N53 1.328 . S
C54 C55 1.457 . S
C54 H59 0.929 . S
C55 C54 1.457 . S
C55 C56 1.291 . S
C55 H68 0.931 . S
C56 C55 1.291 . S
C56 C57 1.373 . S
C56 H69 0.929 . S
C57 C56 1.373 . S
C57 C58 1.396 . S
C57 C64 1.403 . S
C58 C48 1.476 . S
C58 N53 1.318 . S
C58 C57 1.396 . S
H59 C54 0.929 . S
O60 Mn36 2.385 1_556 S
O60 C38 1.234 . S
O61 Mn36 2.209 . S
O61 Mn37 2.215 . S
O61 C38 1.283 1_554 S
O62 Mn36 2.094 . S
O62 C40 1.240 . S
O63 Mn37 2.117 . S
O63 C40 1.264 . S
C64 C57 1.403 . S
C64 C65 1.399 . S
C64 H70 0.929 . S
C65 C45 1.449 . S
C65 C64 1.399 . S
C65 H71 0.930 . S
H66 C46 0.931 . S
H67 C47 0.930 . S
H68 C55 0.931 . S
H69 C56 0.929 . S
H70 C64 0.929 . S
H71 C65 0.930 . S
Mn72 O77 2.095 . S
Mn72 O87 2.162 . S
Mn72 O88 2.297 . S
Mn72 O96 2.385 1_554 S
Mn72 O97 2.209 . S
Mn72 O98 2.094 . S
Mn73 O78 2.121 . S
Mn73 N80 2.257 . S
Mn73 N89 2.282 1_554 S
Mn73 O97 2.215 . S
Mn73 O99 2.117 . S
C74 O96 1.234 . S
C74 O97 1.283 1_556 S
C75 O87 1.281 . S
C75 O88 1.236 . S
C76 O98 1.240 . S
C76 O99 1.264 . S
O77 Mn72 2.095 . S
O77 C86 1.250 . S
O78 Mn73 2.121 . S
O78 C86 1.258 . S
C79 N80 1.326 . S
C79 C83 1.460 . S
C79 H85 0.929 . S
N80 Mn73 2.257 . S
N80 C79 1.326 . S
N80 C84 1.362 1_554 S
C81 C82 1.258 1_556 S
C81 C84 1.431 . S
C81 C101 1.449 . S
C82 C81 1.258 1_554 S
C82 C83 1.477 . S
C82 H102 0.931 . S
C83 C79 1.460 . S
C83 C82 1.477 . S
C83 H103 0.930 . S
C84 N80 1.362 1_556 S
C84 C81 1.431 . S
C84 C94 1.476 . S
H85 C79 0.929 . S
C86 O77 1.250 . S
C86 O78 1.258 . S
O87 Mn72 2.162 . S
O87 C75 1.281 . S
O88 Mn72 2.297 . S
O88 C75 1.236 . S
N89 Mn73 2.282 1_556 S
N89 C90 1.328 . S
N89 C94 1.318 . S
C90 N89 1.328 . S
C90 C91 1.457 . S
C90 H95 0.929 . S
C91 C90 1.457 . S
C91 C92 1.291 . S
C91 H104 0.931 . S
C92 C91 1.291 . S
C92 C93 1.373 . S
C92 H105 0.929 . S
C93 C92 1.373 . S
C93 C94 1.396 . S
C93 C100 1.403 . S
C94 C84 1.476 . S
C94 N89 1.318 . S
C94 C93 1.396 . S
H95 C90 0.929 . S
O96 Mn72 2.385 1_556 S
O96 C74 1.234 . S
O97 Mn72 2.209 . S
O97 Mn73 2.215 . S
O97 C74 1.283 1_554 S
O98 Mn72 2.094 . S
O98 C76 1.240 . S
O99 Mn73 2.117 . S
O99 C76 1.264 . S
C100 C93 1.403 . S
C100 C101 1.399 . S
C100 H106 0.929 . S
C101 C81 1.449 . S
C101 C100 1.399 . S
C101 H107 0.930 . S
H102 C82 0.931 . S
H103 C83 0.930 . S
H104 C91 0.931 . S
H105 C92 0.929 . S
H106 C100 0.929 . S
H107 C101 0.930 . S
Mn108 O113 2.095 . S
Mn108 O123 2.162 . S
Mn108 O124 2.297 . S
Mn108 O132 2.385 1_556 S
Mn108 O133 2.209 . S
Mn108 O134 2.094 . S
Mn109 O114 2.121 . S
Mn109 N116 2.257 . S
Mn109 N125 2.282 1_556 S
Mn109 O133 2.215 . S
Mn109 O135 2.117 . S
C110 O132 1.234 . S
C110 O133 1.283 1_554 S
C111 O123 1.281 . S
C111 O124 1.236 . S
C112 O134 1.240 . S
C112 O135 1.264 . S
O113 Mn108 2.095 . S
O113 C122 1.250 . S
O114 Mn109 2.121 . S
O114 C122 1.258 . S
C115 N116 1.326 . S
C115 C119 1.460 . S
C115 H121 0.929 . S
N116 Mn109 2.257 . S
N116 C115 1.326 . S
N116 C120 1.362 1_556 S
C117 C118 1.258 1_554 S
C117 C120 1.431 . S
C117 C137 1.449 . S
C118 C117 1.258 1_556 S
C118 C119 1.477 . S
C118 H138 0.931 . S
C119 C115 1.460 . S
C119 C118 1.477 . S
C119 H139 0.930 . S
C120 N116 1.362 1_554 S
C120 C117 1.431 . S
C120 C130 1.476 . S
H121 C115 0.929 . S
C122 O113 1.250 . S
C122 O114 1.258 . S
O123 Mn108 2.162 . S
O123 C111 1.281 . S
O124 Mn108 2.297 . S
O124 C111 1.236 . S
N125 Mn109 2.282 1_554 S
N125 C126 1.328 . S
N125 C130 1.318 . S
C126 N125 1.328 . S
C126 C127 1.457 . S
C126 H131 0.929 . S
C127 C126 1.457 . S
C127 C128 1.291 . S
C127 H140 0.931 . S
C128 C127 1.291 . S
C128 C129 1.373 . S
C128 H141 0.929 . S
C129 C128 1.373 . S
C129 C130 1.396 . S
C129 C136 1.403 . S
C130 C120 1.476 . S
C130 N125 1.318 . S
C130 C129 1.396 . S
H131 C126 0.929 . S
O132 Mn108 2.385 1_554 S
O132 C110 1.234 . S
O133 Mn108 2.209 . S
O133 Mn109 2.215 . S
O133 C110 1.283 1_556 S
O134 Mn108 2.094 . S
O134 C112 1.240 . S
O135 Mn109 2.117 . S
O135 C112 1.264 . S
C136 C129 1.403 . S
C136 C137 1.399 . S
C136 H142 0.929 . S
C137 C117 1.449 . S
C137 C136 1.399 . S
C137 H143 0.930 . S
H138 C118 0.931 . S
H139 C119 0.930 . S
H140 C127 0.931 . S
H141 C128 0.929 . S
H142 C136 0.929 . S
H143 C137 0.930 . S
Mn144 O149 2.095 . S
Mn144 O159 2.162 . S
Mn144 O160 2.297 . S
Mn144 O168 2.385 1_556 S
Mn144 O169 2.209 . S
Mn144 O170 2.094 . S
Mn145 O150 2.121 . S
Mn145 N152 2.257 . S
Mn145 N161 2.282 1_556 S
Mn145 O169 2.215 . S
Mn145 O171 2.117 . S
C146 O168 1.234 . S
C146 O169 1.283 1_554 S
C147 O159 1.281 . S
C147 O160 1.236 . S
C148 O170 1.240 . S
C148 O171 1.264 . S
O149 Mn144 2.095 . S
O149 C158 1.250 . S
O150 Mn145 2.121 . S
O150 C158 1.258 . S
C151 N152 1.326 . S
C151 C155 1.460 . S
C151 H157 0.929 . S
N152 Mn145 2.257 . S
N152 C151 1.326 . S
N152 C156 1.362 1_556 S
C153 C154 1.258 1_554 S
C153 C156 1.431 . S
C153 C173 1.449 . S
C154 C153 1.258 1_556 S
C154 C155 1.477 . S
C154 H174 0.931 . S
C155 C151 1.460 . S
C155 C154 1.477 . S
C155 H175 0.930 . S
C156 N152 1.362 1_554 S
C156 C153 1.431 . S
C156 C166 1.476 . S
H157 C151 0.929 . S
C158 O149 1.250 . S
C158 O150 1.258 . S
O159 Mn144 2.162 . S
O159 C147 1.281 . S
O160 Mn144 2.297 . S
O160 C147 1.236 . S
N161 Mn145 2.282 1_554 S
N161 C162 1.328 . S
N161 C166 1.318 . S
C162 N161 1.328 . S
C162 C163 1.457 . S
C162 H167 0.929 . S
C163 C162 1.457 . S
C163 C164 1.291 . S
C163 H176 0.931 . S
C164 C163 1.291 . S
C164 C165 1.373 . S
C164 H177 0.929 . S
C165 C164 1.373 . S
C165 C166 1.396 . S
C165 C172 1.403 . S
C166 C156 1.476 . S
C166 N161 1.318 . S
C166 C165 1.396 . S
H167 C162 0.929 . S
O168 Mn144 2.385 1_554 S
O168 C146 1.234 . S
O169 Mn144 2.209 . S
O169 Mn145 2.215 . S
O169 C146 1.283 1_556 S
O170 Mn144 2.094 . S
O170 C148 1.240 . S
O171 Mn145 2.117 . S
O171 C148 1.264 . S
C172 C165 1.403 . S
C172 C173 1.399 . S
C172 H178 0.929 . S
C173 C153 1.449 . S
C173 C172 1.399 . S
C173 H179 0.930 . S
H174 C154 0.931 . S
H175 C155 0.930 . S
H176 C163 0.931 . S
H177 C164 0.929 . S
H178 C172 0.929 . S
H179 C173 0.930 . S
Mn180 O185 2.095 . S
Mn180 O195 2.162 . S
Mn180 O196 2.297 . S
Mn180 O204 2.385 1_556 S
Mn180 O205 2.209 . S
Mn180 O206 2.094 . S
Mn181 O186 2.121 . S
Mn181 N188 2.257 . S
Mn181 N197 2.282 1_556 S
Mn181 O205 2.215 . S
Mn181 O207 2.117 . S
C182 O204 1.234 . S
C182 O205 1.283 1_554 S
C183 O195 1.281 . S
C183 O196 1.236 . S
C184 O206 1.240 . S
C184 O207 1.264 . S
O185 Mn180 2.095 . S
O185 C194 1.250 . S
O186 Mn181 2.121 . S
O186 C194 1.258 . S
C187 N188 1.326 . S
C187 C191 1.460 . S
C187 H193 0.929 . S
N188 Mn181 2.257 . S
N188 C187 1.326 . S
N188 C192 1.362 1_556 S
C189 C190 1.258 1_554 S
C189 C192 1.431 . S
C189 C209 1.449 . S
C190 C189 1.258 1_556 S
C190 C191 1.477 . S
C190 H210 0.931 . S
C191 C187 1.460 . S
C191 C190 1.477 . S
C191 H211 0.930 . S
C192 N188 1.362 1_554 S
C192 C189 1.431 . S
C192 C202 1.476 . S
H193 C187 0.929 . S
C194 O185 1.250 . S
C194 O186 1.258 . S
O195 Mn180 2.162 . S
O195 C183 1.281 . S
O196 Mn180 2.297 . S
O196 C183 1.236 . S
N197 Mn181 2.282 1_554 S
N197 C198 1.328 . S
N197 C202 1.318 . S
C198 N197 1.328 . S
C198 C199 1.457 . S
C198 H203 0.929 . S
C199 C198 1.457 . S
C199 C200 1.291 . S
C199 H212 0.931 . S
C200 C199 1.291 . S
C200 C201 1.373 . S
C200 H213 0.929 . S
C201 C200 1.373 . S
C201 C202 1.396 . S
C201 C208 1.403 . S
C202 C192 1.476 . S
C202 N197 1.318 . S
C202 C201 1.396 . S
H203 C198 0.929 . S
O204 Mn180 2.385 1_554 S
O204 C182 1.234 . S
O205 Mn180 2.209 . S
O205 Mn181 2.215 . S
O205 C182 1.283 1_556 S
O206 Mn180 2.094 . S
O206 C184 1.240 . S
O207 Mn181 2.117 . S
O207 C184 1.264 . S
C208 C201 1.403 . S
C208 C209 1.399 . S
C208 H214 0.929 . S
C209 C189 1.449 . S
C209 C208 1.399 . S
C209 H215 0.930 . S
H210 C190 0.931 . S
H211 C191 0.930 . S
H212 C199 0.931 . S
H213 C200 0.929 . S
H214 C208 0.929 . S
H215 C209 0.930 . S
Mn216 O221 2.095 . S
Mn216 O231 2.162 . S
Mn216 O232 2.297 . S
Mn216 O240 2.385 . S
Mn216 O241 2.209 . S
Mn216 O242 2.094 . S
Mn217 O222 2.121 . S
Mn217 N224 2.257 . S
Mn217 N233 2.282 . S
Mn217 O241 2.215 . S
Mn217 O243 2.117 . S
C218 O240 1.234 . S
C218 O241 1.283 . S
C219 O231 1.281 . S
C219 O232 1.236 . S
C220 O242 1.240 . S
C220 O243 1.264 . S
O221 Mn216 2.095 . S
O221 C230 1.250 . S
O222 Mn217 2.121 . S
O222 C230 1.258 . S
C223 N224 1.326 . S
C223 C227 1.460 . S
C223 H229 0.929 . S
N224 Mn217 2.257 . S
N224 C223 1.326 . S
N224 C228 1.362 . S
C225 C226 1.258 . S
C225 C228 1.431 . S
C225 C245 1.449 . S
C226 C225 1.258 . S
C226 C227 1.477 . S
C226 H246 0.931 . S
C227 C223 1.460 . S
C227 C226 1.477 . S
C227 H247 0.930 . S
C228 N224 1.362 . S
C228 C225 1.431 . S
C228 C238 1.476 . S
H229 C223 0.929 . S
C230 O221 1.250 . S
C230 O222 1.258 . S
O231 Mn216 2.162 . S
O231 C219 1.281 . S
O232 Mn216 2.297 . S
O232 C219 1.236 . S
N233 Mn217 2.282 . S
N233 C234 1.328 . S
N233 C238 1.318 . S
C234 N233 1.328 . S
C234 C235 1.457 . S
C234 H239 0.929 . S
C235 C234 1.457 . S
C235 C236 1.291 . S
C235 H248 0.931 . S
C236 C235 1.291 . S
C236 C237 1.373 . S
C236 H249 0.929 . S
C237 C236 1.373 . S
C237 C238 1.396 . S
C237 C244 1.403 . S
C238 C228 1.476 . S
C238 N233 1.318 . S
C238 C237 1.396 . S
H239 C234 0.929 . S
O240 Mn216 2.385 . S
O240 C218 1.234 . S
O241 Mn216 2.209 . S
O241 Mn217 2.215 . S
O241 C218 1.283 . S
O242 Mn216 2.094 . S
O242 C220 1.240 . S
O243 Mn217 2.117 . S
O243 C220 1.264 . S
C244 C237 1.403 . S
C244 C245 1.399 . S
C244 H250 0.929 . S
C245 C225 1.449 . S
C245 C244 1.399 . S
C245 H251 0.930 . S
H246 C226 0.931 . S
H247 C227 0.930 . S
H248 C235 0.931 . S
H249 C236 0.929 . S
H250 C244 0.929 . S
H251 C245 0.930 . S
Mn252 O257 2.095 . S
Mn252 O267 2.162 . S
Mn252 O268 2.297 . S
Mn252 O276 2.385 . S
Mn252 O277 2.209 . S
Mn252 O278 2.094 . S
Mn253 O258 2.121 . S
Mn253 N260 2.257 . S
Mn253 N269 2.282 . S
Mn253 O277 2.215 . S
Mn253 O279 2.117 . S
C254 O276 1.234 . S
C254 O277 1.283 . S
C255 O267 1.281 . S
C255 O268 1.236 . S
C256 O278 1.240 . S
C256 O279 1.264 . S
O257 Mn252 2.095 . S
O257 C266 1.250 . S
O258 Mn253 2.121 . S
O258 C266 1.258 . S
C259 N260 1.326 . S
C259 C263 1.460 . S
C259 H265 0.929 . S
N260 Mn253 2.257 . S
N260 C259 1.326 . S
N260 C264 1.362 . S
C261 C262 1.258 . S
C261 C264 1.431 . S
C261 C281 1.449 . S
C262 C261 1.258 . S
C262 C263 1.477 . S
C262 H282 0.931 . S
C263 C259 1.460 . S
C263 C262 1.477 . S
C263 H283 0.930 . S
C264 N260 1.362 . S
C264 C261 1.431 . S
C264 C274 1.476 . S
H265 C259 0.929 . S
C266 O257 1.250 . S
C266 O258 1.258 . S
O267 Mn252 2.162 . S
O267 C255 1.281 . S
O268 Mn252 2.297 . S
O268 C255 1.236 . S
N269 Mn253 2.282 . S
N269 C270 1.328 . S
N269 C274 1.318 . S
C270 N269 1.328 . S
C270 C271 1.457 . S
C270 H275 0.929 . S
C271 C270 1.457 . S
C271 C272 1.291 . S
C271 H284 0.931 . S
C272 C271 1.291 . S
C272 C273 1.373 . S
C272 H285 0.929 . S
C273 C272 1.373 . S
C273 C274 1.396 . S
C273 C280 1.403 . S
C274 C264 1.476 . S
C274 N269 1.318 . S
C274 C273 1.396 . S
H275 C270 0.929 . S
O276 Mn252 2.385 . S
O276 C254 1.234 . S
O277 Mn252 2.209 . S
O277 Mn253 2.215 . S
O277 C254 1.283 . S
O278 Mn252 2.094 . S
O278 C256 1.240 . S
O279 Mn253 2.117 . S
O279 C256 1.264 . S
C280 C273 1.403 . S
C280 C281 1.399 . S
C280 H286 0.929 . S
C281 C261 1.449 . S
C281 C280 1.399 . S
C281 H287 0.930 . S
H282 C262 0.931 . S
H283 C263 0.930 . S
H284 C271 0.931 . S
H285 C272 0.929 . S
H286 C280 0.929 . S
H287 C281 0.930 . S
Mn288 O293 2.095 . S
Mn288 O303 2.162 . S
Mn288 O304 2.297 . S
Mn288 O312 2.385 . S
Mn288 O313 2.209 . S
Mn288 O314 2.094 . S
Mn289 O294 2.121 . S
Mn289 N296 2.257 . S
Mn289 N305 2.282 . S
Mn289 O313 2.215 . S
Mn289 O315 2.117 . S
C290 O312 1.234 . S
C290 O313 1.283 . S
C291 O303 1.281 . S
C291 O304 1.236 . S
C292 O314 1.240 . S
C292 O315 1.264 . S
O293 Mn288 2.095 . S
O293 C302 1.250 . S
O294 Mn289 2.121 . S
O294 C302 1.258 . S
C295 N296 1.326 . S
C295 C299 1.460 . S
C295 H301 0.929 . S
N296 Mn289 2.257 . S
N296 C295 1.326 . S
N296 C300 1.362 . S
C297 C298 1.258 . S
C297 C300 1.431 . S
C297 C317 1.449 . S
C298 C297 1.258 . S
C298 C299 1.477 . S
C298 H318 0.931 . S
C299 C295 1.460 . S
C299 C298 1.477 . S
C299 H319 0.930 . S
C300 N296 1.362 . S
C300 C297 1.431 . S
C300 C310 1.476 . S
H301 C295 0.929 . S
C302 O293 1.250 . S
C302 O294 1.258 . S
O303 Mn288 2.162 . S
O303 C291 1.281 . S
O304 Mn288 2.297 . S
O304 C291 1.236 . S
N305 Mn289 2.282 . S
N305 C306 1.328 . S
N305 C310 1.318 . S
C306 N305 1.328 . S
C306 C307 1.457 . S
C306 H311 0.929 . S
C307 C306 1.457 . S
C307 C308 1.291 . S
C307 H320 0.931 . S
C308 C307 1.291 . S
C308 C309 1.373 . S
C308 H321 0.929 . S
C309 C308 1.373 . S
C309 C310 1.396 . S
C309 C316 1.403 . S
C310 C300 1.476 . S
C310 N305 1.318 . S
C310 C309 1.396 . S
H311 C306 0.929 . S
O312 Mn288 2.385 . S
O312 C290 1.234 . S
O313 Mn288 2.209 . S
O313 Mn289 2.215 . S
O313 C290 1.283 . S
O314 Mn288 2.094 . S
O314 C292 1.240 . S
O315 Mn289 2.117 . S
O315 C292 1.264 . S
C316 C309 1.403 . S
C316 C317 1.399 . S
C316 H322 0.929 . S
C317 C297 1.449 . S
C317 C316 1.399 . S
C317 H323 0.930 . S
H318 C298 0.931 . S
H319 C299 0.930 . S
H320 C307 0.931 . S
H321 C308 0.929 . S
H322 C316 0.929 . S
H323 C317 0.930 . S
Mn324 O329 2.095 . S
Mn324 O339 2.162 . S
Mn324 O340 2.297 . S
Mn324 O348 2.385 . S
Mn324 O349 2.209 . S
Mn324 O350 2.094 . S
Mn325 O330 2.121 . S
Mn325 N332 2.257 1_655 S
Mn325 N341 2.282 . S
Mn325 O349 2.215 . S
Mn325 O351 2.117 . S
C326 O348 1.234 . S
C326 O349 1.283 . S
C327 O339 1.281 . S
C327 O340 1.236 . S
C328 O350 1.240 . S
C328 O351 1.264 . S
O329 Mn324 2.095 . S
O329 C338 1.250 . S
O330 Mn325 2.121 . S
O330 C338 1.258 . S
C331 N332 1.326 . S
C331 C335 1.460 . S
C331 H337 0.929 . S
N332 Mn325 2.257 1_455 S
N332 C331 1.326 . S
N332 C336 1.362 . S
C333 C334 1.258 . S
C333 C336 1.431 . S
C333 C353 1.449 . S
C334 C333 1.258 . S
C334 C335 1.477 . S
C334 H354 0.931 . S
C335 C331 1.460 . S
C335 C334 1.477 . S
C335 H355 0.930 . S
C336 N332 1.362 . S
C336 C333 1.431 . S
C336 C346 1.476 . S
H337 C331 0.929 . S
C338 O329 1.250 . S
C338 O330 1.258 . S
O339 Mn324 2.162 . S
O339 C327 1.281 . S
O340 Mn324 2.297 . S
O340 C327 1.236 . S
N341 Mn325 2.282 . S
N341 C342 1.328 . S
N341 C346 1.318 1_655 S
C342 N341 1.328 . S
C342 C343 1.457 . S
C342 H347 0.929 . S
C343 C342 1.457 . S
C343 C344 1.250 1_655 S
C343 H356 0.931 . S
C344 C343 1.250 1_455 S
C344 C345 1.393 . S
C344 H357 0.952 . S
C345 C344 1.393 . S
C345 C346 1.396 . S
C345 C352 1.403 . S
C346 C336 1.476 . S
C346 N341 1.318 1_455 S
C346 C345 1.396 . S
H347 C342 0.929 . S
O348 Mn324 2.385 . S
O348 C326 1.234 . S
O349 Mn324 2.209 . S
O349 Mn325 2.215 . S
O349 C326 1.283 . S
O350 Mn324 2.094 . S
O350 C328 1.240 . S
O351 Mn325 2.117 . S
O351 C328 1.264 . S
C352 C345 1.403 . S
C352 C353 1.399 . S
C352 H358 0.929 . S
C353 C333 1.449 . S
C353 C352 1.399 . S
C353 H359 0.930 . S
H354 C334 0.931 . S
H355 C335 0.930 . S
H356 C343 0.931 . S
H357 C344 0.952 . S
H358 C352 0.929 . S
H359 C353 0.930 . S
Mn360 O365 2.095 . S
Mn360 O375 2.162 . S
Mn360 O376 2.297 . S
Mn360 O384 2.385 . S
Mn360 O385 2.209 . S
Mn360 O386 2.094 . S
Mn361 O366 2.121 . S
Mn361 N368 2.257 . S
Mn361 N377 2.282 . S
Mn361 O385 2.215 . S
Mn361 O387 2.117 . S
C362 O384 1.234 . S
C362 O385 1.283 . S
C363 O375 1.281 . S
C363 O376 1.236 . S
C364 O386 1.240 . S
C364 O387 1.264 . S
O365 Mn360 2.095 . S
O365 C374 1.250 . S
O366 Mn361 2.121 . S
O366 C374 1.258 . S
C367 N368 1.326 . S
C367 C371 1.460 . S
C367 H373 0.929 . S
N368 Mn361 2.257 . S
N368 C367 1.326 . S
N368 C372 1.362 . S
C369 C370 1.258 . S
C369 C372 1.431 . S
C369 C389 1.449 . S
C370 C369 1.258 . S
C370 C371 1.477 . S
C370 H390 0.931 . S
C371 C367 1.460 . S
C371 C370 1.477 . S
C371 H391 0.930 . S
C372 N368 1.362 . S
C372 C369 1.431 . S
C372 C382 1.476 . S
H373 C367 0.929 . S
C374 O365 1.250 . S
C374 O366 1.258 . S
O375 Mn360 2.162 . S
O375 C363 1.281 . S
O376 Mn360 2.297 . S
O376 C363 1.236 . S
N377 Mn361 2.282 . S
N377 C378 1.328 . S
N377 C382 1.318 . S
C378 N377 1.328 . S
C378 C379 1.457 . S
C378 H383 0.929 . S
C379 C378 1.457 . S
C379 C380 1.291 . S
C379 H392 0.931 . S
C380 C379 1.291 . S
C380 C381 1.373 . S
C380 H393 0.929 . S
C381 C380 1.373 . S
C381 C382 1.396 . S
C381 C388 1.403 . S
C382 C372 1.476 . S
C382 N377 1.318 . S
C382 C381 1.396 . S
H383 C378 0.929 . S
O384 Mn360 2.385 . S
O384 C362 1.234 . S
O385 Mn360 2.209 . S
O385 Mn361 2.215 . S
O385 C362 1.283 . S
O386 Mn360 2.094 . S
O386 C364 1.240 . S
O387 Mn361 2.117 . S
O387 C364 1.264 . S
C388 C381 1.403 . S
C388 C389 1.399 . S
C388 H394 0.929 . S
C389 C369 1.449 . S
C389 C388 1.399 . S
C389 H395 0.930 . S
H390 C370 0.931 . S
H391 C371 0.930 . S
H392 C379 0.931 . S
H393 C380 0.929 . S
H394 C388 0.929 . S
H395 C389 0.930 . S
Mn396 O401 2.095 . S
Mn396 O411 2.162 . S
Mn396 O412 2.297 . S
Mn396 O420 2.385 . S
Mn396 O421 2.209 . S
Mn396 O422 2.094 . S
Mn397 O402 2.121 . S
Mn397 N404 2.257 1_545 S
Mn397 N413 2.282 . S
Mn397 O421 2.215 . S
Mn397 O423 2.117 . S
C398 O420 1.234 . S
C398 O421 1.283 . S
C399 O411 1.281 . S
C399 O412 1.236 . S
C400 O422 1.240 . S
C400 O423 1.264 . S
O401 Mn396 2.095 . S
O401 C410 1.250 . S
O402 Mn397 2.121 . S
O402 C410 1.258 . S
C403 N404 1.326 . S
C403 C407 1.460 . S
C403 H409 0.929 . S
N404 Mn397 2.257 1_565 S
N404 C403 1.326 . S
N404 C408 1.362 . S
C405 C406 1.258 . S
C405 C408 1.431 . S
C405 C425 1.449 . S
C406 C405 1.258 . S
C406 C407 1.477 . S
C406 H426 0.931 . S
C407 C403 1.460 . S
C407 C406 1.477 . S
C407 H427 0.930 . S
C408 N404 1.362 . S
C408 C405 1.431 . S
C408 C418 1.476 . S
H409 C403 0.929 . S
C410 O401 1.250 . S
C410 O402 1.258 . S
O411 Mn396 2.162 . S
O411 C399 1.281 . S
O412 Mn396 2.297 . S
O412 C399 1.236 . S
N413 Mn397 2.282 . S
N413 C414 1.328 . S
N413 C418 1.318 1_545 S
C414 N413 1.328 . S
C414 C415 1.457 . S
C414 H419 0.929 . S
C415 C414 1.457 . S
C415 C416 1.248 1_545 S
C415 H428 0.931 . S
C416 C415 1.248 1_565 S
C416 C417 1.412 . S
C416 H429 0.935 . S
C417 C416 1.412 . S
C417 C418 1.396 . S
C417 C424 1.403 . S
C418 C408 1.476 . S
C418 N413 1.318 1_565 S
C418 C417 1.396 . S
H419 C414 0.929 . S
O420 Mn396 2.385 . S
O420 C398 1.234 . S
O421 Mn396 2.209 . S
O421 Mn397 2.215 . S
O421 C398 1.283 . S
O422 Mn396 2.094 . S
O422 C400 1.240 . S
O423 Mn397 2.117 . S
O423 C400 1.264 . S
C424 C417 1.403 . S
C424 C425 1.399 . S
C424 H430 0.929 . S
C425 C405 1.449 . S
C425 C424 1.399 . S
C425 H431 0.930 . S
H426 C406 0.931 . S
H427 C407 0.930 . S
H428 C415 0.931 . S
H429 C416 0.935 . S
H430 C424 0.929 . S
H431 C425 0.930 . S
Mn432 O437 2.095 . S
Mn432 O447 2.162 . S
Mn432 O448 2.297 . S
Mn432 O456 2.385 . S
Mn432 O457 2.209 . S
Mn432 O458 2.094 . S
Mn433 O438 2.121 . S
Mn433 N440 2.257 1_565 S
Mn433 N449 2.282 . S
Mn433 O457 2.215 . S
Mn433 O459 2.117 . S
C434 O456 1.234 . S
C434 O457 1.283 . S
C435 O447 1.281 . S
C435 O448 1.236 . S
C436 O458 1.240 . S
C436 O459 1.264 . S
O437 Mn432 2.095 . S
O437 C446 1.250 . S
O438 Mn433 2.121 . S
O438 C446 1.258 . S
C439 N440 1.326 . S
C439 C443 1.460 . S
C439 H445 0.929 . S
N440 Mn433 2.257 1_545 S
N440 C439 1.326 . S
N440 C444 1.362 . S
C441 C442 1.258 . S
C441 C444 1.431 . S
C441 C461 1.449 . S
C442 C441 1.258 . S
C442 C443 1.477 . S
C442 H462 0.931 . S
C443 C439 1.460 . S
C443 C442 1.477 . S
C443 H463 0.930 . S
C444 N440 1.362 . S
C444 C441 1.431 . S
C444 C454 1.476 . S
H445 C439 0.929 . S
C446 O437 1.250 . S
C446 O438 1.258 . S
O447 Mn432 2.162 . S
O447 C435 1.281 . S
O448 Mn432 2.297 . S
O448 C435 1.236 . S
N449 Mn433 2.282 . S
N449 C450 1.328 . S
N449 C454 1.318 1_565 S
C450 N449 1.328 . S
C450 C451 1.457 . S
C450 H455 0.929 . S
C451 C450 1.457 . S
C451 C452 1.250 1_565 S
C451 H464 0.931 . S
C452 C451 1.250 1_545 S
C452 C453 1.393 . S
C452 H465 0.952 . S
C453 C452 1.393 . S
C453 C454 1.396 . S
C453 C460 1.403 . S
C454 C444 1.476 . S
C454 N449 1.318 1_545 S
C454 C453 1.396 . S
H455 C450 0.929 . S
O456 Mn432 2.385 . S
O456 C434 1.234 . S
O457 Mn432 2.209 . S
O457 Mn433 2.215 . S
O457 C434 1.283 . S
O458 Mn432 2.094 . S
O458 C436 1.240 . S
O459 Mn433 2.117 . S
O459 C436 1.264 . S
C460 C453 1.403 . S
C460 C461 1.399 . S
C460 H466 0.929 . S
C461 C441 1.449 . S
C461 C460 1.399 . S
C461 H467 0.930 . S
H462 C442 0.931 . S
H463 C443 0.930 . S
H464 C451 0.931 . S
H465 C452 0.952 . S
H466 C460 0.929 . S
H467 C461 0.930 . S
Mn468 O473 2.095 . S
Mn468 O483 2.162 . S
Mn468 O484 2.297 . S
Mn468 O492 2.385 . S
Mn468 O493 2.209 . S
Mn468 O494 2.094 . S
Mn469 O474 2.121 . S
Mn469 N476 2.257 1_455 S
Mn469 N485 2.282 . S
Mn469 O493 2.215 . S
Mn469 O495 2.117 . S
C470 O492 1.234 . S
C470 O493 1.283 . S
C471 O483 1.281 . S
C471 O484 1.236 . S
C472 O494 1.240 . S
C472 O495 1.264 . S
O473 Mn468 2.095 . S
O473 C482 1.250 . S
O474 Mn469 2.121 . S
O474 C482 1.258 . S
C475 N476 1.326 . S
C475 C479 1.460 . S
C475 H481 0.929 . S
N476 Mn469 2.257 1_655 S
N476 C475 1.326 . S
N476 C480 1.362 . S
C477 C478 1.258 . S
C477 C480 1.431 . S
C477 C497 1.449 . S
C478 C477 1.258 . S
C478 C479 1.477 . S
C478 H498 0.931 . S
C479 C475 1.460 . S
C479 C478 1.477 . S
C479 H499 0.930 . S
C480 N476 1.362 . S
C480 C477 1.431 . S
C480 C490 1.476 . S
H481 C475 0.929 . S
C482 O473 1.250 . S
C482 O474 1.258 . S
O483 Mn468 2.162 . S
O483 C471 1.281 . S
O484 Mn468 2.297 . S
O484 C471 1.236 . S
N485 Mn469 2.282 . S
N485 C486 1.328 . S
N485 C490 1.318 1_455 S
C486 N485 1.328 . S
C486 C487 1.457 . S
C486 H491 0.929 . S
C487 C486 1.457 . S
C487 C488 1.248 1_455 S
C487 H500 0.931 . S
C488 C487 1.248 1_655 S
C488 C489 1.412 . S
C488 H501 0.935 . S
C489 C488 1.412 . S
C489 C490 1.396 . S
C489 C496 1.403 . S
C490 C480 1.476 . S
C490 N485 1.318 1_655 S
C490 C489 1.396 . S
H491 C486 0.929 . S
O492 Mn468 2.385 . S
O492 C470 1.234 . S
O493 Mn468 2.209 . S
O493 Mn469 2.215 . S
O493 C470 1.283 . S
O494 Mn468 2.094 . S
O494 C472 1.240 . S
O495 Mn469 2.117 . S
O495 C472 1.264 . S
C496 C489 1.403 . S
C496 C497 1.399 . S
C496 H502 0.929 . S
C497 C477 1.449 . S
C497 C496 1.399 . S
C497 H503 0.930 . S
H498 C478 0.931 . S
H499 C479 0.930 . S
H500 C487 0.931 . S
H501 C488 0.935 . S
H502 C496 0.929 . S
H503 C497 0.930 . S
Mn504 O509 2.095 . S
Mn504 O519 2.162 . S
Mn504 O520 2.297 . S
Mn504 O528 2.385 . S
Mn504 O529 2.209 . S
Mn504 O530 2.094 . S
Mn505 O510 2.121 . S
Mn505 N512 2.257 . S
Mn505 N521 2.282 . S
Mn505 O529 2.215 . S
Mn505 O531 2.117 . S
C506 O528 1.234 . S
C506 O529 1.283 . S
C507 O519 1.281 . S
C507 O520 1.236 . S
C508 O530 1.240 . S
C508 O531 1.264 . S
O509 Mn504 2.095 . S
O509 C518 1.250 . S
O510 Mn505 2.121 . S
O510 C518 1.258 . S
C511 N512 1.326 . S
C511 C515 1.460 . S
C511 H517 0.929 . S
N512 Mn505 2.257 . S
N512 C511 1.326 . S
N512 C516 1.362 . S
C513 C514 1.258 . S
C513 C516 1.431 . S
C513 C533 1.449 . S
C514 C513 1.258 . S
C514 C515 1.477 . S
C514 H534 0.931 . S
C515 C511 1.460 . S
C515 C514 1.477 . S
C515 H535 0.930 . S
C516 N512 1.362 . S
C516 C513 1.431 . S
C516 C526 1.476 . S
H517 C511 0.929 . S
C518 O509 1.250 . S
C518 O510 1.258 . S
O519 Mn504 2.162 . S
O519 C507 1.281 . S
O520 Mn504 2.297 . S
O520 C507 1.236 . S
N521 Mn505 2.282 . S
N521 C522 1.328 . S
N521 C526 1.318 . S
C522 N521 1.328 . S
C522 C523 1.457 . S
C522 H527 0.929 . S
C523 C522 1.457 . S
C523 C524 1.291 . S
C523 H536 0.931 . S
C524 C523 1.291 . S
C524 C525 1.373 . S
C524 H537 0.929 . S
C525 C524 1.373 . S
C525 C526 1.396 . S
C525 C532 1.403 . S
C526 C516 1.476 . S
C526 N521 1.318 . S
C526 C525 1.396 . S
H527 C522 0.929 . S
O528 Mn504 2.385 . S
O528 C506 1.234 . S
O529 Mn504 2.209 . S
O529 Mn505 2.215 . S
O529 C506 1.283 . S
O530 Mn504 2.094 . S
O530 C508 1.240 . S
O531 Mn505 2.117 . S
O531 C508 1.264 . S
C532 C525 1.403 . S
C532 C533 1.399 . S
C532 H538 0.929 . S
C533 C513 1.449 . S
C533 C532 1.399 . S
C533 H539 0.930 . S
H534 C514 0.931 . S
H535 C515 0.930 . S
H536 C523 0.931 . S
H537 C524 0.929 . S
H538 C532 0.929 . S
H539 C533 0.930 . S
Mn540 O545 2.095 . S
Mn540 O555 2.162 . S
Mn540 O556 2.297 . S
Mn540 O564 2.385 . S
Mn540 O565 2.209 . S
Mn540 O566 2.094 . S
Mn541 O546 2.121 . S
Mn541 N548 2.257 . S
Mn541 N557 2.282 . S
Mn541 O565 2.215 . S
Mn541 O567 2.117 . S
C542 O564 1.234 . S
C542 O565 1.283 . S
C543 O555 1.281 . S
C543 O556 1.236 . S
C544 O566 1.240 . S
C544 O567 1.264 . S
O545 Mn540 2.095 . S
O545 C554 1.250 . S
O546 Mn541 2.121 . S
O546 C554 1.258 . S
C547 N548 1.326 . S
C547 C551 1.460 . S
C547 H553 0.929 . S
N548 Mn541 2.257 . S
N548 C547 1.326 . S
N548 C552 1.362 . S
C549 C550 1.258 . S
C549 C552 1.431 . S
C549 C569 1.449 . S
C550 C549 1.258 . S
C550 C551 1.477 . S
C550 H570 0.931 . S
C551 C547 1.460 . S
C551 C550 1.477 . S
C551 H571 0.930 . S
C552 N548 1.362 . S
C552 C549 1.431 . S
C552 C562 1.476 . S
H553 C547 0.929 . S
C554 O545 1.250 . S
C554 O546 1.258 . S
O555 Mn540 2.162 . S
O555 C543 1.281 . S
O556 Mn540 2.297 . S
O556 C543 1.236 . S
N557 Mn541 2.282 . S
N557 C558 1.328 . S
N557 C562 1.318 . S
C558 N557 1.328 . S
C558 C559 1.457 . S
C558 H563 0.929 . S
C559 C558 1.457 . S
C559 C560 1.291 . S
C559 H572 0.931 . S
C560 C559 1.291 . S
C560 C561 1.373 . S
C560 H573 0.929 . S
C561 C560 1.373 . S
C561 C562 1.396 . S
C561 C568 1.403 . S
C562 C552 1.476 . S
C562 N557 1.318 . S
C562 C561 1.396 . S
H563 C558 0.929 . S
O564 Mn540 2.385 . S
O564 C542 1.234 . S
O565 Mn540 2.209 . S
O565 Mn541 2.215 . S
O565 C542 1.283 . S
O566 Mn540 2.094 . S
O566 C544 1.240 . S
O567 Mn541 2.117 . S
O567 C544 1.264 . S
C568 C561 1.403 . S
C568 C569 1.399 . S
C568 H574 0.929 . S
C569 C549 1.449 . S
C569 C568 1.399 . S
C569 H575 0.930 . S
H570 C550 0.931 . S
H571 C551 0.930 . S
H572 C559 0.931 . S
H573 C560 0.929 . S
H574 C568 0.929 . S
H575 C569 0.930 . S
Mn576 O581 2.095 . S
Mn576 O591 2.162 . S
Mn576 O592 2.297 . S
Mn576 O600 2.385 . S
Mn576 O601 2.209 . S
Mn576 O602 2.094 . S
Mn577 O582 2.121 . S
Mn577 N584 2.257 . S
Mn577 N593 2.282 . S
Mn577 O601 2.215 . S
Mn577 O603 2.117 . S
C578 O600 1.234 . S
C578 O601 1.283 . S
C579 O591 1.281 . S
C579 O592 1.236 . S
C580 O602 1.240 . S
C580 O603 1.264 . S
O581 Mn576 2.095 . S
O581 C590 1.250 . S
O582 Mn577 2.121 . S
O582 C590 1.258 . S
C583 N584 1.326 . S
C583 C587 1.460 . S
C583 H589 0.929 . S
N584 Mn577 2.257 . S
N584 C583 1.326 . S
N584 C588 1.362 . S
C585 C586 1.258 . S
C585 C588 1.431 . S
C585 C605 1.449 . S
C586 C585 1.258 . S
C586 C587 1.477 . S
C586 H606 0.931 . S
C587 C583 1.460 . S
C587 C586 1.477 . S
C587 H607 0.930 . S
C588 N584 1.362 . S
C588 C585 1.431 . S
C588 C598 1.476 . S
H589 C583 0.929 . S
C590 O581 1.250 . S
C590 O582 1.258 . S
O591 Mn576 2.162 . S
O591 C579 1.281 . S
O592 Mn576 2.297 . S
O592 C579 1.236 . S
N593 Mn577 2.282 . S
N593 C594 1.328 . S
N593 C598 1.318 . S
C594 N593 1.328 . S
C594 C595 1.457 . S
C594 H599 0.929 . S
C595 C594 1.457 . S
C595 C596 1.291 . S
C595 H608 0.931 . S
C596 C595 1.291 . S
C596 C597 1.373 . S
C596 H609 0.929 . S
C597 C596 1.373 . S
C597 C598 1.396 . S
C597 C604 1.403 . S
C598 C588 1.476 . S
C598 N593 1.318 . S
C598 C597 1.396 . S
H599 C594 0.929 . S
O600 Mn576 2.385 . S
O600 C578 1.234 . S
O601 Mn576 2.209 . S
O601 Mn577 2.215 . S
O601 C578 1.283 . S
O602 Mn576 2.094 . S
O602 C580 1.240 . S
O603 Mn577 2.117 . S
O603 C580 1.264 . S
C604 C597 1.403 . S
C604 C605 1.399 . S
C604 H610 0.929 . S
C605 C585 1.449 . S
C605 C604 1.399 . S
C605 H611 0.930 . S
H606 C586 0.931 . S
H607 C587 0.930 . S
H608 C595 0.931 . S
H609 C596 0.929 . S
H610 C604 0.929 . S
H611 C605 0.930 . S
Mn612 O617 2.095 . S
Mn612 O627 2.162 . S
Mn612 O628 2.297 . S
Mn612 O636 2.385 . S
Mn612 O637 2.209 . S
Mn612 O638 2.094 . S
Mn613 O618 2.121 . S
Mn613 N620 2.257 . S
Mn613 N629 2.282 . S
Mn613 O637 2.215 . S
Mn613 O639 2.117 . S
C614 O636 1.234 . S
C614 O637 1.283 . S
C615 O627 1.281 . S
C615 O628 1.236 . S
C616 O638 1.240 . S
C616 O639 1.264 . S
O617 Mn612 2.095 . S
O617 C626 1.250 . S
O618 Mn613 2.121 . S
O618 C626 1.258 . S
C619 N620 1.326 . S
C619 C623 1.460 . S
C619 H625 0.929 . S
N620 Mn613 2.257 . S
N620 C619 1.326 . S
N620 C624 1.362 . S
C621 C622 1.258 . S
C621 C624 1.431 . S
C621 C641 1.449 . S
C622 C621 1.258 . S
C622 C623 1.477 . S
C622 H642 0.931 . S
C623 C619 1.460 . S
C623 C622 1.477 . S
C623 H643 0.930 . S
C624 N620 1.362 . S
C624 C621 1.431 . S
C624 C634 1.476 . S
H625 C619 0.929 . S
C626 O617 1.250 . S
C626 O618 1.258 . S
O627 Mn612 2.162 . S
O627 C615 1.281 . S
O628 Mn612 2.297 . S
O628 C615 1.236 . S
N629 Mn613 2.282 . S
N629 C630 1.328 . S
N629 C634 1.318 . S
C630 N629 1.328 . S
C630 C631 1.457 . S
C630 H635 0.929 . S
C631 C630 1.457 . S
C631 C632 1.291 . S
C631 H644 0.931 . S
C632 C631 1.291 . S
C632 C633 1.373 . S
C632 H645 0.929 . S
C633 C632 1.373 . S
C633 C634 1.396 . S
C633 C640 1.403 . S
C634 C624 1.476 . S
C634 N629 1.318 . S
C634 C633 1.396 . S
H635 C630 0.929 . S
O636 Mn612 2.385 . S
O636 C614 1.234 . S
O637 Mn612 2.209 . S
O637 Mn613 2.215 . S
O637 C614 1.283 . S
O638 Mn612 2.094 . S
O638 C616 1.240 . S
O639 Mn613 2.117 . S
O639 C616 1.264 . S
C640 C633 1.403 . S
C640 C641 1.399 . S
C640 H646 0.929 . S
C641 C621 1.449 . S
C641 C640 1.399 . S
C641 H647 0.930 . S
H642 C622 0.931 . S
H643 C623 0.930 . S
H644 C631 0.931 . S
H645 C632 0.929 . S
H646 C640 0.929 . S
H647 C641 0.930 . S
H648 C656 0.950 . S
H649 C661 0.950 . S
H650 C658 0.950 . S
H651 C660 0.950 . S
H652 C662 0.950 . S
H653 C664 0.950 . S
H654 C666 0.950 . S
H655 C667 0.950 . S
C656 H648 0.950 . S
C656 C657 1.386 . S
C656 C658 1.391 . S
C657 C656 1.386 . S
C657 C661 1.393 . S
C658 H650 0.950 . S
C658 C656 1.391 . S
C658 C659 1.400 . S
C659 C658 1.400 . S
C659 C660 1.398 . S
C659 C665 1.491 . S
C660 H651 0.950 . S
C660 C659 1.398 . S
C660 C661 1.391 . S
C661 H649 0.950 . S
C661 C657 1.393 . S
C661 C660 1.391 . S
C662 H652 0.950 . S
C662 C663 1.386 . S
C662 C664 1.391 . S
C663 C662 1.386 . S
C663 C667 1.393 . S
C664 H653 0.950 . S
C664 C662 1.391 . S
C664 C665 1.400 . S
C665 C659 1.491 . S
C665 C664 1.400 . S
C665 C666 1.398 . S
C666 H654 0.950 . S
C666 C665 1.398 . S
C666 C667 1.391 . S
C667 H655 0.950 . S
C667 C663 1.393 . S
C667 C666 1.391 . S
H668 C676 0.950 . S
H669 C681 0.950 . S
H670 C678 0.950 . S
H671 C680 0.950 . S
H672 C682 0.950 . S
H673 C684 0.950 . S
H674 C686 0.950 . S
H675 C687 0.950 . S
C676 H668 0.950 . S
C676 C677 1.386 . S
C676 C678 1.391 . S
C677 C676 1.386 . S
C677 C681 1.393 . S
C678 H670 0.950 . S
C678 C676 1.391 . S
C678 C679 1.400 . S
C679 C678 1.400 . S
C679 C680 1.398 . S
C679 C685 1.491 . S
C680 H671 0.950 . S
C680 C679 1.398 . S
C680 C681 1.391 . S
C681 H669 0.950 . S
C681 C677 1.393 . S
C681 C680 1.391 . S
C682 H672 0.950 . S
C682 C683 1.386 . S
C682 C684 1.391 . S
C683 C682 1.386 . S
C683 C687 1.393 . S
C684 H673 0.950 . S
C684 C682 1.391 . S
C684 C685 1.400 . S
C685 C679 1.491 . S
C685 C684 1.400 . S
C685 C686 1.398 . S
C686 H674 0.950 . S
C686 C685 1.398 . S
C686 C687 1.391 . S
C687 H675 0.950 . S
C687 C683 1.393 . S
C687 C686 1.391 . S
H688 C696 0.950 . S
H689 C701 0.950 . S
H690 C698 0.950 . S
H691 C700 0.950 . S
H692 C702 0.950 . S
H693 C704 0.950 . S
H694 C706 0.950 . S
H695 C707 0.950 . S
C696 H688 0.950 . S
C696 C697 1.386 . S
C696 C698 1.391 . S
C697 C696 1.386 . S
C697 C701 1.393 . S
C698 H690 0.950 . S
C698 C696 1.391 . S
C698 C699 1.400 . S
C699 C698 1.400 . S
C699 C700 1.398 . S
C699 C705 1.491 . S
C700 H691 0.950 . S
C700 C699 1.398 . S
C700 C701 1.391 . S
C701 H689 0.950 . S
C701 C697 1.393 . S
C701 C700 1.391 . S
C702 H692 0.950 . S
C702 C703 1.386 . S
C702 C704 1.391 . S
C703 C702 1.386 . S
C703 C707 1.393 . S
C704 H693 0.950 . S
C704 C702 1.391 . S
C704 C705 1.400 . S
C705 C699 1.491 . S
C705 C704 1.400 . S
C705 C706 1.398 . S
C706 H694 0.950 . S
C706 C705 1.398 . S
C706 C707 1.391 . S
C707 H695 0.950 . S
C707 C703 1.393 . S
C707 C706 1.391 . S
H708 C716 0.950 . S
H709 C721 0.950 . S
H710 C718 0.950 . S
H711 C720 0.950 . S
H712 C722 0.950 . S
H713 C724 0.950 . S
H714 C726 0.950 . S
H715 C727 0.950 . S
C716 H708 0.950 . S
C716 C717 1.386 . S
C716 C718 1.391 . S
C717 C716 1.386 . S
C717 C721 1.393 . S
C718 H710 0.950 . S
C718 C716 1.391 . S
C718 C719 1.400 . S
C719 C718 1.400 . S
C719 C720 1.398 . S
C719 C725 1.491 . S
C720 H711 0.950 . S
C720 C719 1.398 . S
C720 C721 1.391 . S
C721 H709 0.950 . S
C721 C717 1.393 . S
C721 C720 1.391 . S
C722 H712 0.950 . S
C722 C723 1.386 . S
C722 C724 1.391 . S
C723 C722 1.386 . S
C723 C727 1.393 . S
C724 H713 0.950 . S
C724 C722 1.391 . S
C724 C725 1.400 . S
C725 C719 1.491 . S
C725 C724 1.400 . S
C725 C726 1.398 . S
C726 H714 0.950 . S
C726 C725 1.398 . S
C726 C727 1.391 . S
C727 H715 0.950 . S
C727 C723 1.393 . S
C727 C726 1.391 . S
H728 C736 0.950 . S
H729 C741 0.950 . S
H730 C738 0.950 . S
H731 C740 0.950 . S
H732 C742 0.950 . S
H733 C744 0.950 . S
H734 C746 0.950 . S
H735 C747 0.950 . S
C736 H728 0.950 . S
C736 C737 1.386 . S
C736 C738 1.391 . S
C737 C736 1.386 . S
C737 C741 1.393 . S
C738 H730 0.950 . S
C738 C736 1.391 . S
C738 C739 1.400 . S
C739 C738 1.400 . S
C739 C740 1.398 . S
C739 C745 1.491 . S
C740 H731 0.950 . S
C740 C739 1.398 . S
C740 C741 1.391 . S
C741 H729 0.950 . S
C741 C737 1.393 . S
C741 C740 1.391 . S
C742 H732 0.950 . S
C742 C743 1.386 . S
C742 C744 1.391 . S
C743 C742 1.386 . S
C743 C747 1.393 . S
C744 H733 0.950 . S
C744 C742 1.391 . S
C744 C745 1.400 . S
C745 C739 1.491 . S
C745 C744 1.400 . S
C745 C746 1.398 . S
C746 H734 0.950 . S
C746 C745 1.398 . S
C746 C747 1.391 . S
C747 H735 0.950 . S
C747 C743 1.393 . S
C747 C746 1.391 . S
H748 C756 0.950 . S
H749 C761 0.950 . S
H750 C758 0.950 . S
H751 C760 0.950 . S
H752 C762 0.950 . S
H753 C764 0.950 . S
H754 C766 0.950 . S
H755 C767 0.950 . S
C756 H748 0.950 . S
C756 C757 1.386 . S
C756 C758 1.391 . S
C757 C756 1.386 . S
C757 C761 1.393 . S
C758 H750 0.950 . S
C758 C756 1.391 . S
C758 C759 1.400 . S
C759 C758 1.400 . S
C759 C760 1.398 . S
C759 C765 1.491 . S
C760 H751 0.950 . S
C760 C759 1.398 . S
C760 C761 1.391 . S
C761 H749 0.950 . S
C761 C757 1.393 . S
C761 C760 1.391 . S
C762 H752 0.950 . S
C762 C763 1.386 . S
C762 C764 1.391 . S
C763 C762 1.386 . S
C763 C767 1.393 . S
C764 H753 0.950 . S
C764 C762 1.391 . S
C764 C765 1.400 . S
C765 C759 1.491 . S
C765 C764 1.400 . S
C765 C766 1.398 . S
C766 H754 0.950 . S
C766 C765 1.398 . S
C766 C767 1.391 . S
C767 H755 0.950 . S
C767 C763 1.393 . S
C767 C766 1.391 . S
H768 C776 0.950 . S
H769 C781 0.950 . S
H770 C778 0.950 . S
H771 C780 0.950 . S
H772 C782 0.950 . S
H773 C784 0.950 . S
H774 C786 0.950 . S
H775 C787 0.950 . S
C776 H768 0.950 . S
C776 C777 1.386 . S
C776 C778 1.391 . S
C777 C776 1.386 . S
C777 C781 1.393 . S
C778 H770 0.950 . S
C778 C776 1.391 . S
C778 C779 1.400 . S
C779 C778 1.400 . S
C779 C780 1.398 . S
C779 C785 1.491 1_654 S
C780 H771 0.950 . S
C780 C779 1.398 . S
C780 C781 1.391 . S
C781 H769 0.950 . S
C781 C777 1.393 . S
C781 C780 1.391 . S
C782 H772 0.950 . S
C782 C783 1.386 . S
C782 C784 1.391 . S
C783 C782 1.386 . S
C783 C787 1.393 . S
C784 H773 0.950 . S
C784 C782 1.391 . S
C784 C785 1.400 . S
C785 C779 1.491 1_456 S
C785 C784 1.400 . S
C785 C786 1.398 . S
C786 H774 0.950 . S
C786 C785 1.398 . S
C786 C787 1.391 . S
C787 H775 0.950 . S
C787 C783 1.393 . S
C787 C786 1.391 . S
H788 C796 0.950 . S
H789 C801 0.950 . S
H790 C798 0.950 . S
H791 C800 0.950 . S
H792 C802 0.950 . S
H793 C804 0.950 . S
H794 C806 0.950 . S
H795 C807 0.950 . S
C796 H788 0.950 . S
C796 C797 1.386 . S
C796 C798 1.391 . S
C797 C796 1.386 . S
C797 C801 1.393 . S
C798 H790 0.950 . S
C798 C796 1.391 . S
C798 C799 1.400 . S
C799 C798 1.400 . S
C799 C800 1.398 . S
C799 C805 1.491 1_554 S
C800 H791 0.950 . S
C800 C799 1.398 . S
C800 C801 1.391 . S
C801 H789 0.950 . S
C801 C797 1.393 . S
C801 C800 1.391 . S
C802 H792 0.950 . S
C802 C803 1.386 . S
C802 C804 1.391 . S
C803 C802 1.386 . S
C803 C807 1.393 . S
C804 H793 0.950 . S
C804 C802 1.391 . S
C804 C805 1.400 . S
C805 C799 1.491 1_556 S
C805 C804 1.400 . S
C805 C806 1.398 . S
C806 H794 0.950 . S
C806 C805 1.398 . S
C806 C807 1.391 . S
C807 H795 0.950 . S
C807 C803 1.393 . S
C807 C806 1.391 . S
H808 C816 0.950 . S
H809 C821 0.944 1_565 S
H810 C818 0.950 . S
H811 C820 0.950 . S
H812 C822 0.950 . S
H813 C824 0.950 . S
H814 C826 0.950 . S
H815 C827 0.944 1_545 S
C816 H808 0.950 . S
C816 C817 1.386 . S
C816 C818 1.391 . S
C817 C816 1.386 . S
C817 C821 1.393 . S
C818 H810 0.950 . S
C818 C816 1.391 . S
C818 C819 1.400 . S
C819 C818 1.400 . S
C819 C820 1.398 1_545 S
C819 C825 1.491 1_544 S
C820 H811 0.950 . S
C820 C819 1.398 1_565 S
C820 C821 1.391 1_565 S
C821 H809 0.944 1_545 S
C821 C817 1.393 . S
C821 C820 1.391 1_545 S
C822 H812 0.950 . S
C822 C823 1.386 . S
C822 C824 1.391 . S
C823 C822 1.386 . S
C823 C827 1.393 . S
C824 H813 0.950 . S
C824 C822 1.391 . S
C824 C825 1.400 . S
C825 C819 1.491 1_566 S
C825 C824 1.400 . S
C825 C826 1.398 1_565 S
C826 H814 0.950 . S
C826 C825 1.398 1_545 S
C826 C827 1.391 1_545 S
C827 H815 0.944 1_565 S
C827 C823 1.393 . S
C827 C826 1.391 1_565 S
H828 C836 0.950 . S
H829 C841 0.950 . S
H830 C838 0.950 . S
H831 C840 0.950 . S
H832 C842 0.950 . S
H833 C844 0.950 . S
H834 C846 0.950 . S
H835 C847 0.950 . S
C836 H828 0.950 . S
C836 C837 1.386 . S
C836 C838 1.391 . S
C837 C836 1.386 . S
C837 C841 1.393 . S
C838 H830 0.950 . S
C838 C836 1.391 . S
C838 C839 1.400 . S
C839 C838 1.400 . S
C839 C840 1.398 . S
C839 C845 1.491 . S
C840 H831 0.950 . S
C840 C839 1.398 . S
C840 C841 1.391 . S
C841 H829 0.950 . S
C841 C837 1.393 . S
C841 C840 1.391 . S
C842 H832 0.950 . S
C842 C843 1.386 . S
C842 C844 1.391 . S
C843 C842 1.386 . S
C843 C847 1.393 . S
C844 H833 0.950 . S
C844 C842 1.391 . S
C844 C845 1.400 . S
C845 C839 1.491 . S
C845 C844 1.400 . S
C845 C846 1.398 . S
C846 H834 0.950 . S
C846 C845 1.398 . S
C846 C847 1.391 . S
C847 H835 0.950 . S
C847 C843 1.393 . S
C847 C846 1.391 . S
H848 C856 0.950 . S
H849 C861 0.950 . S
H850 C858 0.950 . S
H851 C860 0.950 . S
H852 C862 0.950 . S
H853 C864 0.950 . S
H854 C866 0.950 . S
H855 C867 0.950 . S
C856 H848 0.950 . S
C856 C857 1.386 . S
C856 C858 1.391 . S
C857 C856 1.386 . S
C857 C861 1.393 . S
C858 H850 0.950 . S
C858 C856 1.391 . S
C858 C859 1.400 . S
C859 C858 1.400 . S
C859 C860 1.398 . S
C859 C865 1.491 . S
C860 H851 0.950 . S
C860 C859 1.398 . S
C860 C861 1.391 . S
C861 H849 0.950 . S
C861 C857 1.393 . S
C861 C860 1.391 . S
C862 H852 0.950 . S
C862 C863 1.386 . S
C862 C864 1.391 . S
C863 C862 1.386 . S
C863 C867 1.393 . S
C864 H853 0.950 . S
C864 C862 1.391 . S
C864 C865 1.400 . S
C865 C859 1.491 . S
C865 C864 1.400 . S
C865 C866 1.398 . S
C866 H854 0.950 . S
C866 C865 1.398 . S
C866 C867 1.391 . S
C867 H855 0.950 . S
C867 C863 1.393 . S
C867 C866 1.391 . S
H868 C876 0.950 . S
H869 C881 0.950 . S
H870 C878 0.950 . S
H871 C880 0.950 . S
H872 C882 0.950 . S
H873 C884 0.950 . S
H874 C886 0.950 . S
H875 C887 0.950 . S
C876 H868 0.950 . S
C876 C877 1.386 . S
C876 C878 1.391 . S
C877 C876 1.386 . S
C877 C881 1.393 . S
C878 H870 0.950 . S
C878 C876 1.391 . S
C878 C879 1.400 . S
C879 C878 1.400 . S
C879 C880 1.398 . S
C879 C885 1.491 . S
C880 H871 0.950 . S
C880 C879 1.398 . S
C880 C881 1.391 . S
C881 H869 0.950 . S
C881 C877 1.393 . S
C881 C880 1.391 . S
C882 H872 0.950 . S
C882 C883 1.386 . S
C882 C884 1.391 . S
C883 C882 1.386 . S
C883 C887 1.393 . S
C884 H873 0.950 . S
C884 C882 1.391 . S
C884 C885 1.400 . S
C885 C879 1.491 . S
C885 C884 1.400 . S
C885 C886 1.398 . S
C886 H874 0.950 . S
C886 C885 1.398 . S
C886 C887 1.391 . S
C887 H875 0.950 . S
C887 C883 1.393 . S
C887 C886 1.391 . S
H888 C896 0.950 . S
H889 C901 0.950 . S
H890 C898 0.950 . S
H891 C900 0.950 . S
H892 C902 0.950 . S
H893 C904 0.950 . S
H894 C906 0.950 . S
H895 C907 0.950 . S
C896 H888 0.950 . S
C896 C897 1.386 . S
C896 C898 1.391 . S
C897 C896 1.386 . S
C897 C901 1.393 . S
C898 H890 0.950 . S
C898 C896 1.391 . S
C898 C899 1.400 . S
C899 C898 1.400 . S
C899 C900 1.398 . S
C899 C905 1.491 . S
C900 H891 0.950 . S
C900 C899 1.398 . S
C900 C901 1.391 . S
C901 H889 0.950 . S
C901 C897 1.393 . S
C901 C900 1.391 . S
C902 H892 0.950 . S
C902 C903 1.386 . S
C902 C904 1.391 . S
C903 C902 1.386 . S
C903 C907 1.393 . S
C904 H893 0.950 . S
C904 C902 1.391 . S
C904 C905 1.400 . S
C905 C899 1.491 . S
C905 C904 1.400 . S
C905 C906 1.398 . S
C906 H894 0.950 . S
C906 C905 1.398 . S
C906 C907 1.391 . S
C907 H895 0.950 . S
C907 C903 1.393 . S
C907 C906 1.391 . S
H908 C916 0.950 . S
H909 C921 0.950 . S
H910 C918 0.950 . S
H911 C920 0.950 . S
H912 C922 0.950 . S
H913 C924 0.950 . S
H914 C926 0.950 . S
H915 C927 0.950 . S
C916 H908 0.950 . S
C916 C917 1.386 . S
C916 C918 1.391 . S
C917 C916 1.386 . S
C917 C921 1.393 . S
C918 H910 0.950 . S
C918 C916 1.391 . S
C918 C919 1.400 . S
C919 C918 1.400 . S
C919 C920 1.398 . S
C919 C925 1.491 . S
C920 H911 0.950 . S
C920 C919 1.398 . S
C920 C921 1.391 . S
C921 H909 0.950 . S
C921 C917 1.393 . S
C921 C920 1.391 . S
C922 H912 0.950 . S
C922 C923 1.386 . S
C922 C924 1.391 . S
C923 C922 1.386 . S
C923 C927 1.393 . S
C924 H913 0.950 . S
C924 C922 1.391 . S
C924 C925 1.400 . S
C925 C919 1.491 . S
C925 C924 1.400 . S
C925 C926 1.398 . S
C926 H914 0.950 . S
C926 C925 1.398 . S
C926 C927 1.391 . S
C927 H915 0.950 . S
C927 C923 1.393 . S
C927 C926 1.391 . S
H928 C936 0.950 . S
H929 C941 0.950 . S
H930 C938 0.950 . S
H931 C940 0.950 . S
H932 C942 0.950 . S
H933 C944 0.950 . S
H934 C946 0.950 . S
H935 C947 0.950 . S
C936 H928 0.950 . S
C936 C937 1.386 . S
C936 C938 1.391 . S
C937 C936 1.386 . S
C937 C941 1.393 . S
C938 H930 0.950 . S
C938 C936 1.391 . S
C938 C939 1.400 . S
C939 C938 1.400 . S
C939 C940 1.398 . S
C939 C945 1.491 . S
C940 H931 0.950 . S
C940 C939 1.398 . S
C940 C941 1.391 . S
C941 H929 0.950 . S
C941 C937 1.393 . S
C941 C940 1.391 . S
C942 H932 0.950 . S
C942 C943 1.386 . S
C942 C944 1.391 . S
C943 C942 1.386 . S
C943 C947 1.393 . S
C944 H933 0.950 . S
C944 C942 1.391 . S
C944 C945 1.400 . S
C945 C939 1.491 . S
C945 C944 1.400 . S
C945 C946 1.398 . S
C946 H934 0.950 . S
C946 C945 1.398 . S
C946 C947 1.391 . S
C947 H935 0.950 . S
C947 C943 1.393 . S
C947 C946 1.391 . S
H948 C956 0.950 . S
H949 C961 0.950 . S
H950 C958 0.950 . S
H951 C960 0.950 1_455 S
H952 C962 0.950 . S
H953 C964 0.950 . S
H954 C966 0.950 1_655 S
H955 C967 0.950 . S
C956 H948 0.950 . S
C956 C957 1.386 . S
C956 C958 1.391 . S
C957 C956 1.386 . S
C957 C961 1.393 . S
C958 H950 0.950 . S
C958 C956 1.391 . S
C958 C959 1.400 . S
C959 C958 1.400 . S
C959 C960 1.398 . S
C959 C965 1.491 1_655 S
C960 H951 0.950 1_655 S
C960 C959 1.398 . S
C960 C961 1.391 . S
C961 H949 0.950 . S
C961 C957 1.393 . S
C961 C960 1.391 . S
C962 H952 0.950 . S
C962 C963 1.386 . S
C962 C964 1.391 . S
C963 C962 1.386 . S
C963 C967 1.393 . S
C964 H953 0.950 . S
C964 C962 1.391 . S
C964 C965 1.400 . S
C965 C959 1.491 1_455 S
C965 C964 1.400 . S
C965 C966 1.398 . S
C966 H954 0.950 1_455 S
C966 C965 1.398 . S
C966 C967 1.391 . S
C967 H955 0.950 . S
C967 C963 1.393 . S
C967 C966 1.391 . S
H968 C976 0.950 . S
H969 C981 0.950 . S
H970 C978 0.950 . S
H971 C980 0.950 . S
H972 C982 0.950 . S
H973 C984 0.950 . S
H974 C986 0.950 . S
H975 C987 0.950 . S
C976 H968 0.950 . S
C976 C977 1.386 . S
C976 C978 1.391 . S
C977 C976 1.386 . S
C977 C981 1.393 . S
C978 H970 0.950 . S
C978 C976 1.391 . S
C978 C979 1.400 . S
C979 C978 1.400 . S
C979 C980 1.398 . S
C979 C985 1.491 . S
C980 H971 0.950 . S
C980 C979 1.398 . S
C980 C981 1.391 . S
C981 H969 0.950 . S
C981 C977 1.393 . S
C981 C980 1.391 . S
C982 H972 0.950 . S
C982 C983 1.386 . S
C982 C984 1.391 . S
C983 C982 1.386 . S
C983 C987 1.393 . S
C984 H973 0.950 . S
C984 C982 1.391 . S
C984 C985 1.400 . S
C985 C979 1.491 . S
C985 C984 1.400 . S
C985 C986 1.398 . S
C986 H974 0.950 . S
C986 C985 1.398 . S
C986 C987 1.391 . S
C987 H975 0.950 . S
C987 C983 1.393 . S
C987 C986 1.391 . S
H988 C996 0.950 . S
H989 C1001 0.950 . S
H990 C998 0.950 . S
H991 C1000 0.950 . S
H992 C1002 0.950 . S
H993 C1004 0.950 . S
H994 C1006 0.950 . S
H995 C1007 0.950 . S
C996 H988 0.950 . S
C996 C997 1.386 . S
C996 C998 1.391 . S
C997 C996 1.386 . S
C997 C1001 1.393 . S
C998 H990 0.950 . S
C998 C996 1.391 . S
C998 C999 1.400 . S
C999 C998 1.400 . S
C999 C1000 1.398 . S
C999 C1005 1.491 1_565 S
C1000 H991 0.950 . S
C1000 C999 1.398 . S
C1000 C1001 1.391 . S
C1001 H989 0.950 . S
C1001 C997 1.393 . S
C1001 C1000 1.391 . S
C1002 H992 0.950 . S
C1002 C1003 1.386 . S
C1002 C1004 1.391 . S
C1003 C1002 1.386 . S
C1003 C1007 1.393 . S
C1004 H993 0.950 . S
C1004 C1002 1.391 . S
C1004 C1005 1.400 . S
C1005 C999 1.491 1_545 S
C1005 C1004 1.400 . S
C1005 C1006 1.398 . S
C1006 H994 0.950 . S
C1006 C1005 1.398 . S
C1006 C1007 1.391 . S
C1007 H995 0.950 . S
C1007 C1003 1.393 . S
C1007 C1006 1.391 . S
H1008 C1016 0.950 . S
H1009 C1021 0.950 . S
H1010 C1018 0.950 . S
H1011 C1020 0.950 . S
H1012 C1022 0.950 . S
H1013 C1024 0.950 . S
H1014 C1026 0.950 . S
H1015 C1027 0.950 . S
C1016 H1008 0.950 . S
C1016 C1017 1.386 . S
C1016 C1018 1.391 . S
C1017 C1016 1.386 . S
C1017 C1021 1.393 1_554 S
C1018 H1010 0.950 . S
C1018 C1016 1.391 . S
C1018 C1019 1.400 . S
C1019 C1018 1.400 . S
C1019 C1020 1.398 1_554 S
C1019 C1025 1.491 1_554 S
C1020 H1011 0.950 . S
C1020 C1019 1.398 1_556 S
C1020 C1021 1.391 . S
C1021 H1009 0.950 . S
C1021 C1017 1.393 1_556 S
C1021 C1020 1.391 . S
C1022 H1012 0.950 . S
C1022 C1023 1.386 . S
C1022 C1024 1.391 . S
C1023 C1022 1.386 . S
C1023 C1027 1.393 1_556 S
C1024 H1013 0.950 . S
C1024 C1022 1.391 . S
C1024 C1025 1.400 . S
C1025 C1019 1.491 1_556 S
C1025 C1024 1.400 . S
C1025 C1026 1.398 1_556 S
C1026 H1014 0.950 . S
C1026 C1025 1.398 1_554 S
C1026 C1027 1.391 . S
C1027 H1015 0.950 . S
C1027 C1023 1.393 1_554 S
C1027 C1026 1.391 . S
H1028 C1036 0.950 1_554 S
H1029 C1041 0.950 . S
H1030 C1038 0.950 . S
H1031 C1040 0.950 . S
H1032 C1042 0.950 1_556 S
H1033 C1044 0.950 . S
H1034 C1046 0.950 . S
H1035 C1047 0.950 . S
C1036 H1028 0.950 1_556 S
C1036 C1037 1.386 . S
C1036 C1038 1.391 1_556 S
C1037 C1036 1.386 . S
C1037 C1041 1.393 . S
C1038 H1030 0.950 . S
C1038 C1036 1.391 1_554 S
C1038 C1039 1.400 1_554 S
C1039 C1038 1.400 1_556 S
C1039 C1040 1.398 . S
C1039 C1045 1.491 1_546 S
C1040 H1031 0.950 . S
C1040 C1039 1.398 . S
C1040 C1041 1.391 . S
C1041 H1029 0.950 . S
C1041 C1037 1.393 . S
C1041 C1040 1.391 . S
C1042 H1032 0.950 1_554 S
C1042 C1043 1.386 . S
C1042 C1044 1.391 1_554 S
C1043 C1042 1.386 . S
C1043 C1047 1.393 . S
C1044 H1033 0.950 . S
C1044 C1042 1.391 1_556 S
C1044 C1045 1.400 1_556 S
C1045 C1039 1.491 1_564 S
C1045 C1044 1.400 1_554 S
C1045 C1046 1.398 . S
C1046 H1034 0.950 . S
C1046 C1045 1.398 . S
C1046 C1047 1.391 . S
C1047 H1035 0.950 . S
C1047 C1043 1.393 . S
C1047 C1046 1.391 . S
H1048 C1056 0.950 . S
H1049 C1061 0.950 . S
H1050 C1058 0.950 . S
H1051 C1060 0.950 . S
H1052 C1062 0.950 . S
H1053 C1064 0.950 . S
H1054 C1066 0.950 . S
H1055 C1067 0.950 . S
C1056 H1048 0.950 . S
C1056 C1057 1.386 1_554 S
C1056 C1058 1.391 . S
C1057 C1056 1.386 1_556 S
C1057 C1061 1.393 . S
C1058 H1050 0.950 . S
C1058 C1056 1.391 . S
C1058 C1059 1.400 1_554 S
C1059 C1058 1.400 1_556 S
C1059 C1060 1.398 . S
C1059 C1065 1.491 1_656 S
C1060 H1051 0.950 . S
C1060 C1059 1.398 . S
C1060 C1061 1.391 . S
C1061 H1049 0.950 . S
C1061 C1057 1.393 . S
C1061 C1060 1.391 . S
C1062 H1052 0.950 . S
C1062 C1063 1.386 1_556 S
C1062 C1064 1.391 . S
C1063 C1062 1.386 1_554 S
C1063 C1067 1.393 . S
C1064 H1053 0.950 . S
C1064 C1062 1.391 . S
C1064 C1065 1.400 1_556 S
C1065 C1059 1.491 1_454 S
C1065 C1064 1.400 1_554 S
C1065 C1066 1.398 . S
C1066 H1054 0.950 . S
C1066 C1065 1.398 . S
C1066 C1067 1.391 . S
C1067 H1055 0.950 . S
C1067 C1063 1.393 . S
C1067 C1066 1.391 . S
H1068 C1076 0.950 . S
H1069 C1081 0.950 . S
H1070 C1078 0.950 . S
H1071 C1080 0.950 . S
H1072 C1082 0.950 . S
H1073 C1084 0.950 . S
H1074 C1086 0.950 . S
H1075 C1087 0.950 . S
C1076 H1068 0.950 . S
C1076 C1077 1.386 . S
C1076 C1078 1.391 . S
C1077 C1076 1.386 . S
C1077 C1081 1.393 1_556 S
C1078 H1070 0.950 . S
C1078 C1076 1.391 . S
C1078 C1079 1.400 . S
C1079 C1078 1.400 . S
C1079 C1080 1.398 1_556 S
C1079 C1085 1.491 1_556 S
C1080 H1071 0.950 . S
C1080 C1079 1.398 1_554 S
C1080 C1081 1.391 . S
C1081 H1069 0.950 . S
C1081 C1077 1.393 1_554 S
C1081 C1080 1.391 . S
C1082 H1072 0.950 . S
C1082 C1083 1.386 . S
C1082 C1084 1.391 . S
C1083 C1082 1.386 . S
C1083 C1087 1.393 1_554 S
C1084 H1073 0.950 . S
C1084 C1082 1.391 . S
C1084 C1085 1.400 . S
C1085 C1079 1.491 1_554 S
C1085 C1084 1.400 . S
C1085 C1086 1.398 1_554 S
C1086 H1074 0.950 . S
C1086 C1085 1.398 1_556 S
C1086 C1087 1.391 . S
C1087 H1075 0.950 . S
C1087 C1083 1.393 1_556 S
C1087 C1086 1.391 . S
H1088 C1096 0.950 . S
H1089 C1101 0.950 . S
H1090 C1098 0.950 . S
H1091 C1100 0.950 . S
H1092 C1102 0.950 . S
H1093 C1104 0.950 . S
H1094 C1106 0.950 . S
H1095 C1107 0.950 . S
C1096 H1088 0.950 . S
C1096 C1097 1.386 1_556 S
C1096 C1098 1.391 . S
C1097 C1096 1.386 1_554 S
C1097 C1101 1.393 . S
C1098 H1090 0.950 . S
C1098 C1096 1.391 . S
C1098 C1099 1.400 1_556 S
C1099 C1098 1.400 1_554 S
C1099 C1100 1.398 . S
C1099 C1105 1.491 1_564 S
C1100 H1091 0.950 . S
C1100 C1099 1.398 . S
C1100 C1101 1.391 . S
C1101 H1089 0.950 . S
C1101 C1097 1.393 . S
C1101 C1100 1.391 . S
C1102 H1092 0.950 . S
C1102 C1103 1.386 1_554 S
C1102 C1104 1.391 . S
C1103 C1102 1.386 1_556 S
C1103 C1107 1.393 . S
C1104 H1093 0.950 . S
C1104 C1102 1.391 . S
C1104 C1105 1.400 1_554 S
C1105 C1099 1.491 1_546 S
C1105 C1104 1.400 1_556 S
C1105 C1106 1.398 . S
C1106 H1094 0.950 . S
C1106 C1105 1.398 . S
C1106 C1107 1.391 . S
C1107 H1095 0.950 . S
C1107 C1103 1.393 . S
C1107 C1106 1.391 . S
H1108 C1116 0.950 . S
H1109 C1121 0.950 . S
H1110 C1118 0.950 . S
H1111 C1120 0.950 . S
H1112 C1122 0.950 . S
H1113 C1124 0.950 . S
H1114 C1126 0.950 . S
H1115 C1127 0.950 . S
C1116 H1108 0.950 . S
C1116 C1117 1.386 . S
C1116 C1118 1.391 . S
C1117 C1116 1.386 . S
C1117 C1121 1.393 1_556 S
C1118 H1110 0.950 . S
C1118 C1116 1.391 . S
C1118 C1119 1.400 . S
C1119 C1118 1.400 . S
C1119 C1120 1.398 1_556 S
C1119 C1125 1.491 1_656 S
C1120 H1111 0.950 . S
C1120 C1119 1.398 1_554 S
C1120 C1121 1.391 . S
C1121 H1109 0.950 . S
C1121 C1117 1.393 1_554 S
C1121 C1120 1.391 . S
C1122 H1112 0.950 . S
C1122 C1123 1.386 . S
C1122 C1124 1.391 . S
C1123 C1122 1.386 . S
C1123 C1127 1.393 1_554 S
C1124 H1113 0.950 . S
C1124 C1122 1.391 . S
C1124 C1125 1.400 . S
C1125 C1119 1.491 1_454 S
C1125 C1124 1.400 . S
C1125 C1126 1.398 1_554 S
C1126 H1114 0.950 . S
C1126 C1125 1.398 1_556 S
C1126 C1127 1.391 . S
C1127 H1115 0.950 . S
C1127 C1123 1.393 1_556 S
C1127 C1126 1.391 . S
H1128 C1136 0.950 . S
H1129 C1141 0.950 . S
H1130 C1138 0.950 . S
H1131 C1140 0.950 . S
H1132 C1142 0.950 . S
H1133 C1144 0.950 . S
H1134 C1146 0.950 . S
H1135 C1147 0.950 . S
C1136 H1128 0.950 . S
C1136 C1137 1.386 . S
C1136 C1138 1.391 . S
C1137 C1136 1.386 . S
C1137 C1141 1.393 . S
C1138 H1130 0.950 . S
C1138 C1136 1.391 . S
C1138 C1139 1.400 . S
C1139 C1138 1.400 . S
C1139 C1140 1.398 . S
C1139 C1145 1.491 . S
C1140 H1131 0.950 . S
C1140 C1139 1.398 . S
C1140 C1141 1.391 . S
C1141 H1129 0.950 . S
C1141 C1137 1.393 . S
C1141 C1140 1.391 . S
C1142 H1132 0.950 . S
C1142 C1143 1.386 . S
C1142 C1144 1.391 . S
C1143 C1142 1.386 . S
C1143 C1147 1.393 . S
C1144 H1133 0.950 . S
C1144 C1142 1.391 . S
C1144 C1145 1.400 . S
C1145 C1139 1.491 . S
C1145 C1144 1.400 . S
C1145 C1146 1.398 . S
C1146 H1134 0.950 . S
C1146 C1145 1.398 . S
C1146 C1147 1.391 . S
C1147 H1135 0.950 . S
C1147 C1143 1.393 . S
C1147 C1146 1.391 . S
H1148 C1156 0.950 . S
H1149 C1161 0.950 . S
H1150 C1158 0.950 . S
H1151 C1160 0.950 . S
H1152 C1162 0.950 . S
H1153 C1164 0.950 . S
H1154 C1166 0.950 . S
H1155 C1167 0.950 . S
C1156 H1148 0.950 . S
C1156 C1157 1.386 . S
C1156 C1158 1.391 . S
C1157 C1156 1.386 . S
C1157 C1161 1.393 . S
C1158 H1150 0.950 . S
C1158 C1156 1.391 . S
C1158 C1159 1.400 . S
C1159 C1158 1.400 . S
C1159 C1160 1.398 . S
C1159 C1165 1.491 . S
C1160 H1151 0.950 . S
C1160 C1159 1.398 . S
C1160 C1161 1.391 . S
C1161 H1149 0.950 . S
C1161 C1157 1.393 . S
C1161 C1160 1.391 . S
C1162 H1152 0.950 . S
C1162 C1163 1.386 . S
C1162 C1164 1.391 . S
C1163 C1162 1.386 . S
C1163 C1167 1.393 . S
C1164 H1153 0.950 . S
C1164 C1162 1.391 . S
C1164 C1165 1.400 . S
C1165 C1159 1.491 . S
C1165 C1164 1.400 . S
C1165 C1166 1.398 . S
C1166 H1154 0.950 . S
C1166 C1165 1.398 . S
C1166 C1167 1.391 . S
C1167 H1155 0.950 . S
C1167 C1163 1.393 . S
C1167 C1166 1.391 . S
H1168 C1176 0.950 . S
H1169 C1181 0.950 . S
H1170 C1178 0.950 . S
H1171 C1180 0.950 . S
H1172 C1182 0.950 . S
H1173 C1184 0.950 . S
H1174 C1186 0.950 . S
H1175 C1187 0.950 . S
C1176 H1168 0.950 . S
C1176 C1177 1.386 . S
C1176 C1178 1.391 . S
C1177 C1176 1.386 . S
C1177 C1181 1.393 . S
C1178 H1170 0.950 . S
C1178 C1176 1.391 . S
C1178 C1179 1.400 . S
C1179 C1178 1.400 . S
C1179 C1180 1.398 . S
C1179 C1185 1.491 . S
C1180 H1171 0.950 . S
C1180 C1179 1.398 . S
C1180 C1181 1.391 . S
C1181 H1169 0.950 . S
C1181 C1177 1.393 . S
C1181 C1180 1.391 . S
C1182 H1172 0.950 . S
C1182 C1183 1.386 . S
C1182 C1184 1.391 . S
C1183 C1182 1.386 . S
C1183 C1187 1.393 . S
C1184 H1173 0.950 . S
C1184 C1182 1.391 . S
C1184 C1185 1.400 . S
C1185 C1179 1.491 . S
C1185 C1184 1.400 . S
C1185 C1186 1.398 . S
C1186 H1174 0.950 . S
C1186 C1185 1.398 . S
C1186 C1187 1.391 . S
C1187 H1175 0.950 . S
C1187 C1183 1.393 . S
C1187 C1186 1.391 . S
H1188 C1196 0.950 . S
H1189 C1201 0.950 . S
H1190 C1198 0.950 . S
H1191 C1200 0.950 . S
H1192 C1202 0.950 . S
H1193 C1204 0.950 . S
H1194 C1206 0.950 . S
H1195 C1207 0.950 . S
C1196 H1188 0.950 . S
C1196 C1197 1.386 . S
C1196 C1198 1.391 . S
C1197 C1196 1.386 . S
C1197 C1201 1.393 . S
C1198 H1190 0.950 . S
C1198 C1196 1.391 . S
C1198 C1199 1.400 . S
C1199 C1198 1.400 . S
C1199 C1200 1.398 . S
C1199 C1205 1.491 . S
C1200 H1191 0.950 . S
C1200 C1199 1.398 . S
C1200 C1201 1.391 . S
C1201 H1189 0.950 . S
C1201 C1197 1.393 . S
C1201 C1200 1.391 . S
C1202 H1192 0.950 . S
C1202 C1203 1.386 . S
C1202 C1204 1.391 . S
C1203 C1202 1.386 . S
C1203 C1207 1.393 . S
C1204 H1193 0.950 . S
C1204 C1202 1.391 . S
C1204 C1205 1.400 . S
C1205 C1199 1.491 . S
C1205 C1204 1.400 . S
C1205 C1206 1.398 . S
C1206 H1194 0.950 . S
C1206 C1205 1.398 . S
C1206 C1207 1.391 . S
C1207 H1195 0.950 . S
C1207 C1203 1.393 . S
C1207 C1206 1.391 . S
H1208 C1216 0.950 . S
H1209 C1221 0.950 . S
H1210 C1218 0.950 . S
H1211 C1220 0.950 . S
H1212 C1222 0.950 . S
H1213 C1224 0.950 . S
H1214 C1226 0.950 . S
H1215 C1227 0.950 . S
C1216 H1208 0.950 . S
C1216 C1217 1.386 . S
C1216 C1218 1.391 . S
C1217 C1216 1.386 . S
C1217 C1221 1.393 . S
C1218 H1210 0.950 . S
C1218 C1216 1.391 . S
C1218 C1219 1.400 . S
C1219 C1218 1.400 . S
C1219 C1220 1.398 . S
C1219 C1225 1.491 . S
C1220 H1211 0.950 . S
C1220 C1219 1.398 . S
C1220 C1221 1.391 . S
C1221 H1209 0.950 . S
C1221 C1217 1.393 . S
C1221 C1220 1.391 . S
C1222 H1212 0.950 . S
C1222 C1223 1.386 . S
C1222 C1224 1.391 . S
C1223 C1222 1.386 . S
C1223 C1227 1.393 . S
C1224 H1213 0.950 . S
C1224 C1222 1.391 . S
C1224 C1225 1.400 . S
C1225 C1219 1.491 . S
C1225 C1224 1.400 . S
C1225 C1226 1.398 . S
C1226 H1214 0.950 . S
C1226 C1225 1.398 . S
C1226 C1227 1.391 . S
C1227 H1215 0.950 . S
C1227 C1223 1.393 . S
C1227 C1226 1.391 . S
H1228 C1236 0.950 . S
H1229 C1241 0.950 . S
H1230 C1238 0.950 . S
H1231 C1240 0.950 . S
H1232 C1242 0.950 . S
H1233 C1244 0.950 . S
H1234 C1246 0.950 . S
H1235 C1247 0.950 . S
C1236 H1228 0.950 . S
C1236 C1237 1.386 . S
C1236 C1238 1.391 . S
C1237 C1236 1.386 . S
C1237 C1241 1.393 . S
C1238 H1230 0.950 . S
C1238 C1236 1.391 . S
C1238 C1239 1.400 . S
C1239 C1238 1.400 . S
C1239 C1240 1.398 . S
C1239 C1245 1.491 . S
C1240 H1231 0.950 . S
C1240 C1239 1.398 . S
C1240 C1241 1.391 . S
C1241 H1229 0.950 . S
C1241 C1237 1.393 . S
C1241 C1240 1.391 . S
C1242 H1232 0.950 . S
C1242 C1243 1.386 . S
C1242 C1244 1.391 . S
C1243 C1242 1.386 . S
C1243 C1247 1.393 . S
C1244 H1233 0.950 . S
C1244 C1242 1.391 . S
C1244 C1245 1.400 . S
C1245 C1239 1.491 . S
C1245 C1244 1.400 . S
C1245 C1246 1.398 . S
C1246 H1234 0.950 . S
C1246 C1245 1.398 . S
C1246 C1247 1.391 . S
C1247 H1235 0.950 . S
C1247 C1243 1.393 . S
C1247 C1246 1.391 . S
H1248 C1256 0.950 . S
H1249 C1261 0.950 . S
H1250 C1258 0.950 . S
H1251 C1260 0.950 . S
H1252 C1262 0.950 . S
H1253 C1264 0.950 . S
H1254 C1266 0.950 . S
H1255 C1267 0.950 . S
C1256 H1248 0.950 . S
C1256 C1257 1.386 . S
C1256 C1258 1.391 . S
C1257 C1256 1.386 . S
C1257 C1261 1.393 . S
C1258 H1250 0.950 . S
C1258 C1256 1.391 . S
C1258 C1259 1.400 . S
C1259 C1258 1.400 . S
C1259 C1260 1.398 . S
C1259 C1265 1.491 . S
C1260 H1251 0.950 . S
C1260 C1259 1.398 . S
C1260 C1261 1.391 . S
C1261 H1249 0.950 . S
C1261 C1257 1.393 . S
C1261 C1260 1.391 . S
C1262 H1252 0.950 . S
C1262 C1263 1.386 . S
C1262 C1264 1.391 . S
C1263 C1262 1.386 . S
C1263 C1267 1.393 . S
C1264 H1253 0.950 . S
C1264 C1262 1.391 . S
C1264 C1265 1.400 . S
C1265 C1259 1.491 . S
C1265 C1264 1.400 . S
C1265 C1266 1.398 . S
C1266 H1254 0.950 . S
C1266 C1265 1.398 . S
C1266 C1267 1.391 . S
C1267 H1255 0.950 . S
C1267 C1263 1.393 . S
C1267 C1266 1.391 . S
H1268 C1276 0.950 . S
H1269 C1281 0.950 . S
H1270 C1278 0.950 . S
H1271 C1280 0.950 . S
H1272 C1282 0.950 . S
H1273 C1284 0.950 . S
H1274 C1286 0.950 . S
H1275 C1287 0.950 . S
C1276 H1268 0.950 . S
C1276 C1277 1.386 . S
C1276 C1278 1.391 . S
C1277 C1276 1.386 . S
C1277 C1281 1.393 . S
C1278 H1270 0.950 . S
C1278 C1276 1.391 . S
C1278 C1279 1.400 . S
C1279 C1278 1.400 . S
C1279 C1280 1.398 . S
C1279 C1285 1.491 . S
C1280 H1271 0.950 . S
C1280 C1279 1.398 . S
C1280 C1281 1.391 . S
C1281 H1269 0.950 . S
C1281 C1277 1.393 . S
C1281 C1280 1.391 . S
C1282 H1272 0.950 . S
C1282 C1283 1.386 . S
C1282 C1284 1.391 . S
C1283 C1282 1.386 . S
C1283 C1287 1.393 . S
C1284 H1273 0.950 . S
C1284 C1282 1.391 . S
C1284 C1285 1.400 . S
C1285 C1279 1.491 . S
C1285 C1284 1.400 . S
C1285 C1286 1.398 . S
C1286 H1274 0.950 . S
C1286 C1285 1.398 . S
C1286 C1287 1.391 . S
C1287 H1275 0.950 . S
C1287 C1283 1.393 . S
C1287 C1286 1.391 . S
H1288 C1296 0.950 . S
H1289 C1301 0.950 . S
H1290 C1298 0.950 . S
H1291 C1300 0.950 . S
H1292 C1302 0.950 . S
H1293 C1304 0.950 . S
H1294 C1306 0.950 . S
H1295 C1307 0.950 . S
C1296 H1288 0.950 . S
C1296 C1297 1.386 . S
C1296 C1298 1.391 . S
C1297 C1296 1.386 . S
C1297 C1301 1.393 . S
C1298 H1290 0.950 . S
C1298 C1296 1.391 . S
C1298 C1299 1.400 . S
C1299 C1298 1.400 . S
C1299 C1300 1.398 . S
C1299 C1305 1.491 . S
C1300 H1291 0.950 . S
C1300 C1299 1.398 . S
C1300 C1301 1.391 . S
C1301 H1289 0.950 . S
C1301 C1297 1.393 . S
C1301 C1300 1.391 . S
C1302 H1292 0.950 . S
C1302 C1303 1.386 . S
C1302 C1304 1.391 . S
C1303 C1302 1.386 . S
C1303 C1307 1.393 . S
C1304 H1293 0.950 . S
C1304 C1302 1.391 . S
C1304 C1305 1.400 . S
C1305 C1299 1.491 . S
C1305 C1304 1.400 . S
C1305 C1306 1.398 . S
C1306 H1294 0.950 . S
C1306 C1305 1.398 . S
C1306 C1307 1.391 . S
C1307 H1295 0.950 . S
C1307 C1303 1.393 . S
C1307 C1306 1.391 . S
H1308 C1316 0.950 . S
H1309 C1321 0.950 . S
H1310 C1318 0.950 . S
H1311 C1320 0.950 . S
H1312 C1322 0.950 . S
H1313 C1324 0.950 . S
H1314 C1326 0.950 . S
H1315 C1327 0.950 . S
C1316 H1308 0.950 . S
C1316 C1317 1.386 . S
C1316 C1318 1.391 . S
C1317 C1316 1.386 . S
C1317 C1321 1.393 . S
C1318 H1310 0.950 . S
C1318 C1316 1.391 . S
C1318 C1319 1.400 . S
C1319 C1318 1.400 . S
C1319 C1320 1.398 . S
C1319 C1325 1.491 . S
C1320 H1311 0.950 . S
C1320 C1319 1.398 . S
C1320 C1321 1.391 . S
C1321 H1309 0.950 . S
C1321 C1317 1.393 . S
C1321 C1320 1.391 . S
C1322 H1312 0.950 . S
C1322 C1323 1.386 . S
C1322 C1324 1.391 . S
C1323 C1322 1.386 . S
C1323 C1327 1.393 . S
C1324 H1313 0.950 . S
C1324 C1322 1.391 . S
C1324 C1325 1.400 . S
C1325 C1319 1.491 . S
C1325 C1324 1.400 . S
C1325 C1326 1.398 . S
C1326 H1314 0.950 . S
C1326 C1325 1.398 . S
C1326 C1327 1.391 . S
C1327 H1315 0.950 . S
C1327 C1323 1.393 . S
C1327 C1326 1.391 . S
H1328 C1336 0.950 . S
H1329 C1341 0.950 . S
H1330 C1338 0.950 . S
H1331 C1340 0.950 . S
H1332 C1342 0.950 . S
H1333 C1344 0.950 . S
H1334 C1346 0.950 . S
H1335 C1347 0.950 . S
C1336 H1328 0.950 . S
C1336 C1337 1.386 . S
C1336 C1338 1.391 . S
C1337 C1336 1.386 . S
C1337 C1341 1.393 . S
C1338 H1330 0.950 . S
C1338 C1336 1.391 . S
C1338 C1339 1.400 . S
C1339 C1338 1.400 . S
C1339 C1340 1.398 . S
C1339 C1345 1.491 . S
C1340 H1331 0.950 . S
C1340 C1339 1.398 . S
C1340 C1341 1.391 . S
C1341 H1329 0.950 . S
C1341 C1337 1.393 . S
C1341 C1340 1.391 . S
C1342 H1332 0.950 . S
C1342 C1343 1.386 . S
C1342 C1344 1.391 . S
C1343 C1342 1.386 . S
C1343 C1347 1.393 . S
C1344 H1333 0.950 . S
C1344 C1342 1.391 . S
C1344 C1345 1.400 . S
C1345 C1339 1.491 . S
C1345 C1344 1.400 . S
C1345 C1346 1.398 . S
C1346 H1334 0.950 . S
C1346 C1345 1.398 . S
C1346 C1347 1.391 . S
C1347 H1335 0.950 . S
C1347 C1343 1.393 . S
C1347 C1346 1.391 . S
H1348 C1356 0.950 . S
H1349 C1361 0.950 . S
H1350 C1358 0.950 . S
H1351 C1360 0.950 . S
H1352 C1362 0.950 . S
H1353 C1364 0.950 . S
H1354 C1366 0.950 . S
H1355 C1367 0.950 . S
C1356 H1348 0.950 . S
C1356 C1357 1.386 . S
C1356 C1358 1.391 . S
C1357 C1356 1.386 . S
C1357 C1361 1.393 . S
C1358 H1350 0.950 . S
C1358 C1356 1.391 . S
C1358 C1359 1.400 . S
C1359 C1358 1.400 . S
C1359 C1360 1.398 . S
C1359 C1365 1.491 . S
C1360 H1351 0.950 . S
C1360 C1359 1.398 . S
C1360 C1361 1.391 . S
C1361 H1349 0.950 . S
C1361 C1357 1.393 . S
C1361 C1360 1.391 . S
C1362 H1352 0.950 . S
C1362 C1363 1.386 . S
C1362 C1364 1.391 . S
C1363 C1362 1.386 . S
C1363 C1367 1.393 . S
C1364 H1353 0.950 . S
C1364 C1362 1.391 . S
C1364 C1365 1.400 . S
C1365 C1359 1.491 . S
C1365 C1364 1.400 . S
C1365 C1366 1.398 . S
C1366 H1354 0.950 . S
C1366 C1365 1.398 . S
C1366 C1367 1.391 . S
C1367 H1355 0.950 . S
C1367 C1363 1.393 . S
C1367 C1366 1.391 . S
C657 C626 1.745 . S
C663 C14 1.737 . S
C677 C554 1.757 . S
C683 C50 1.745 . S
C697 C590 1.740 . S
C703 C86 1.741 . S
C717 C266 1.748 . S
C723 C122 1.736 . S
C737 C302 1.745 . S
C743 C158 1.757 . S
C757 C194 1.757 . S
C763 C230 1.742 . S
C777 C338 1.753 . S
C783 C482 1.751 . S
C797 C374 1.736 . S
C803 C518 1.747 . S
C817 C410 1.757 . S
C823 C446 1.740 . S
C837 C2 0.573 . S
C843 C614 0.570 . S
C857 C542 0.545 . S
C863 C38 0.545 . S
C877 C74 0.562 . S
C883 C578 0.566 . S
C897 C254 0.551 . S
C903 C110 0.553 . S
C917 C146 0.547 . S
C923 C290 0.546 . S
C937 C182 0.549 . S
C943 C218 0.547 . S
C957 C326 0.548 . S
C963 C470 0.549 . S
C977 C506 0.564 . S
C983 C362 0.561 . S
C997 C434 0.545 . S
C1003 C398 0.546 . S
C1017 C3 1.661 . S
C1023 C111 1.666 . S
C1037 C147 1.668 . S
C1043 C39 1.666 . S
C1057 C183 1.667 . S
C1063 C75 1.661 . S
C1077 C184 1.673 . S
C1083 C40 1.677 . S
C1097 C76 1.675 . S
C1103 C112 1.670 . S
C1117 C148 1.672 . S
C1123 C4 1.677 . S
C1137 C219 1.663 . S
C1143 C327 1.669 . S
C1157 C363 1.666 . S
C1163 C255 1.668 . S
C1177 C399 1.666 . S
C1183 C291 1.661 . S
C1197 C400 1.669 . S
C1203 C256 1.673 . S
C1217 C292 1.669 . S
C1223 C328 1.673 . S
C1237 C364 1.667 . S
C1243 C220 1.667 . S
C1257 C543 1.661 . S
C1263 C435 1.665 . S
C1277 C579 1.663 . S
C1283 C471 1.669 . S
C1297 C507 1.663 . S
C1303 C615 1.669 . S
C1317 C616 1.667 . S
C1323 C472 1.670 . S
C1337 C508 1.669 . S
C1343 C544 1.674 . S
C1357 C580 1.671 . S
C1363 C436 1.667 . S
