# Generated by pormake.
# Topology lcs, (4)-cn, num edge types: 1
# Building blocks:
#     Node 0, Type 0, BuildingBlock: AZAVOO_clean_sbu_0, # of connection points: 4
#     Node 1, Type 0, BuildingBlock: AZAVOO_clean_sbu_0, # of connection points: 4
#     Node 2, Type 0, BuildingBlock: AZAVOO_clean_sbu_0, # of connection points: 4
#     Node 3, Type 0, BuildingBlock: AZAVOO_clean_sbu_0, # of connection points: 4
#     Node 4, Type 0, BuildingBlock: AZAVOO_clean_sbu_0, # of connection points: 4
#     Node 5, Type 0, BuildingBlock: AZAVOO_clean_sbu_0, # of connection points: 4
#     Node 6, Type 0, BuildingBlock: AZAVOO_clean_sbu_0, # of connection points: 4
#     Node 7, Type 0, BuildingBlock: AZAVOO_clean_sbu_0, # of connection points: 4
#     Node 8, Type 0, BuildingBlock: AZAVOO_clean_sbu_0, # of connection points: 4
#     Node 9, Type 0, BuildingBlock: AZAVOO_clean_sbu_0, # of connection points: 4
#     Node 10, Type 0, BuildingBlock: AZAVOO_clean_sbu_0, # of connection points: 4
#     Node 11, Type 0, BuildingBlock: AZAVOO_clean_sbu_0, # of connection points: 4
#     Node 12, Type 0, BuildingBlock: AZAVOO_clean_sbu_0, # of connection points: 4
#     Node 13, Type 0, BuildingBlock: AZAVOO_clean_sbu_0, # of connection points: 4
#     Node 14, Type 0, BuildingBlock: AZAVOO_clean_sbu_0, # of connection points: 4
#     Node 15, Type 0, BuildingBlock: AZAVOO_clean_sbu_0, # of connection points: 4
#     Node 16, Type 0, BuildingBlock: AZAVOO_clean_sbu_0, # of connection points: 4
#     Node 17, Type 0, BuildingBlock: AZAVOO_clean_sbu_0, # of connection points: 4
#     Node 18, Type 0, BuildingBlock: AZAVOO_clean_sbu_0, # of connection points: 4
#     Node 19, Type 0, BuildingBlock: AZAVOO_clean_sbu_0, # of connection points: 4
#     Node 20, Type 0, BuildingBlock: AZAVOO_clean_sbu_0, # of connection points: 4
#     Node 21, Type 0, BuildingBlock: AZAVOO_clean_sbu_0, # of connection points: 4
#     Node 22, Type 0, BuildingBlock: AZAVOO_clean_sbu_0, # of connection points: 4
#     Node 23, Type 0, BuildingBlock: AZAVOO_clean_sbu_0, # of connection points: 4
#     Edge 24, Type (0, 0), BuildingBlock: KIFKEQ_clean_linker_1, # of connection points: 2
#     Edge 25, Type (0, 0), BuildingBlock: KIFKEQ_clean_linker_1, # of connection points: 2
#     Edge 26, Type (0, 0), BuildingBlock: KIFKEQ_clean_linker_1, # of connection points: 2
#     Edge 27, Type (0, 0), BuildingBlock: KIFKEQ_clean_linker_1, # of connection points: 2
#     Edge 28, Type (0, 0), BuildingBlock: KIFKEQ_clean_linker_1, # of connection points: 2
#     Edge 29, Type (0, 0), BuildingBlock: KIFKEQ_clean_linker_1, # of connection points: 2
#     Edge 30, Type (0, 0), BuildingBlock: KIFKEQ_clean_linker_1, # of connection points: 2
#     Edge 31, Type (0, 0), BuildingBlock: KIFKEQ_clean_linker_1, # of connection points: 2
#     Edge 32, Type (0, 0), BuildingBlock: KIFKEQ_clean_linker_1, # of connection points: 2
#     Edge 33, Type (0, 0), BuildingBlock: KIFKEQ_clean_linker_1, # of connection points: 2
#     Edge 34, Type (0, 0), BuildingBlock: KIFKEQ_clean_linker_1, # of connection points: 2
#     Edge 35, Type (0, 0), BuildingBlock: KIFKEQ_clean_linker_1, # of connection points: 2
#     Edge 36, Type (0, 0), BuildingBlock: KIFKEQ_clean_linker_1, # of connection points: 2
#     Edge 37, Type (0, 0), BuildingBlock: KIFKEQ_clean_linker_1, # of connection points: 2
#     Edge 38, Type (0, 0), BuildingBlock: KIFKEQ_clean_linker_1, # of connection points: 2
#     Edge 39, Type (0, 0), BuildingBlock: KIFKEQ_clean_linker_1, # of connection points: 2
#     Edge 40, Type (0, 0), BuildingBlock: KIFKEQ_clean_linker_1, # of connection points: 2
#     Edge 41, Type (0, 0), BuildingBlock: KIFKEQ_clean_linker_1, # of connection points: 2
#     Edge 42, Type (0, 0), BuildingBlock: KIFKEQ_clean_linker_1, # of connection points: 2
#     Edge 43, Type (0, 0), BuildingBlock: KIFKEQ_clean_linker_1, # of connection points: 2
#     Edge 44, Type (0, 0), BuildingBlock: KIFKEQ_clean_linker_1, # of connection points: 2
#     Edge 45, Type (0, 0), BuildingBlock: KIFKEQ_clean_linker_1, # of connection points: 2
#     Edge 46, Type (0, 0), BuildingBlock: KIFKEQ_clean_linker_1, # of connection points: 2
#     Edge 47, Type (0, 0), BuildingBlock: KIFKEQ_clean_linker_1, # of connection points: 2
#     Edge 48, Type (0, 0), BuildingBlock: KIFKEQ_clean_linker_1, # of connection points: 2
#     Edge 49, Type (0, 0), BuildingBlock: KIFKEQ_clean_linker_1, # of connection points: 2
#     Edge 50, Type (0, 0), BuildingBlock: KIFKEQ_clean_linker_1, # of connection points: 2
#     Edge 51, Type (0, 0), BuildingBlock: KIFKEQ_clean_linker_1, # of connection points: 2
#     Edge 52, Type (0, 0), BuildingBlock: KIFKEQ_clean_linker_1, # of connection points: 2
#     Edge 53, Type (0, 0), BuildingBlock: KIFKEQ_clean_linker_1, # of connection points: 2
#     Edge 54, Type (0, 0), BuildingBlock: KIFKEQ_clean_linker_1, # of connection points: 2
#     Edge 55, Type (0, 0), BuildingBlock: KIFKEQ_clean_linker_1, # of connection points: 2
#     Edge 56, Type (0, 0), BuildingBlock: KIFKEQ_clean_linker_1, # of connection points: 2
#     Edge 57, Type (0, 0), BuildingBlock: KIFKEQ_clean_linker_1, # of connection points: 2
#     Edge 58, Type (0, 0), BuildingBlock: KIFKEQ_clean_linker_1, # of connection points: 2
#     Edge 59, Type (0, 0), BuildingBlock: KIFKEQ_clean_linker_1, # of connection points: 2
#     Edge 60, Type (0, 0), BuildingBlock: KIFKEQ_clean_linker_1, # of connection points: 2
#     Edge 61, Type (0, 0), BuildingBlock: KIFKEQ_clean_linker_1, # of connection points: 2
#     Edge 62, Type (0, 0), BuildingBlock: KIFKEQ_clean_linker_1, # of connection points: 2
#     Edge 63, Type (0, 0), BuildingBlock: KIFKEQ_clean_linker_1, # of connection points: 2
#     Edge 64, Type (0, 0), BuildingBlock: KIFKEQ_clean_linker_1, # of connection points: 2
#     Edge 65, Type (0, 0), BuildingBlock: KIFKEQ_clean_linker_1, # of connection points: 2
#     Edge 66, Type (0, 0), BuildingBlock: KIFKEQ_clean_linker_1, # of connection points: 2
#     Edge 67, Type (0, 0), BuildingBlock: KIFKEQ_clean_linker_1, # of connection points: 2
#     Edge 68, Type (0, 0), BuildingBlock: KIFKEQ_clean_linker_1, # of connection points: 2
#     Edge 69, Type (0, 0), BuildingBlock: KIFKEQ_clean_linker_1, # of connection points: 2
#     Edge 70, Type (0, 0), BuildingBlock: KIFKEQ_clean_linker_1, # of connection points: 2
#     Edge 71, Type (0, 0), BuildingBlock: KIFKEQ_clean_linker_1, # of connection points: 2
# Relax obj value: 0.139
# Max RMSD: 0.190
# Mean RMSD: 0.183
data_MOF--net-lcs--node1-AZAVOO_clean_sbu_0--edge1-KIFKEQ_clean_linker_1
_symmetry_space_group_name_H-M    P1
_symmetry_Int_Tables_number       1
_symmetry_cell_setting            triclinic
loop_
_symmetry_equiv_pos_as_xyz
'x, y, z'
_cell_length_a     49.830777
_cell_length_b     48.996815
_cell_length_c     48.987268
_cell_angle_alpha  93.93511
_cell_angle_beta   94.093583
_cell_angle_gamma 94.151372
loop_
_atom_site_label
_atom_site_type_symbol
_atom_site_fract_x
_atom_site_fract_y
_atom_site_fract_z
_atom_type_partial_charge
Mg0 Mg 0.01704 0.27083 0.46153 0.0
O1 O 0.99289 0.24205 0.42785 0.0
O2 O 0.95236 0.25794 0.42027 0.0
Mg3 Mg 0.95125 0.29746 0.44794 0.0
C4 C 0.96932 0.24022 0.41542 0.0
C5 C 0.06992 0.24607 0.4745 0.0
O6 O 0.06226 0.25416 0.49867 0.0
O7 O 0.02513 0.30304 0.43092 0.0
O8 O 0.98438 0.31901 0.42493 0.0
O9 O -0.00142 0.24613 0.49303 0.0
O10 O 0.98185 0.28304 0.47694 0.0
C11 C 0.0093 0.31943 0.42018 0.0
C12 C 0.97951 0.26271 0.4921 0.0
O13 O 0.05517 0.25022 0.45317 0.0
Mg14 Mg 0.98255 0.75872 0.57026 0.0
O15 O 0.0005 0.78785 0.60648 0.0
O16 O 0.96772 0.79861 0.63307 0.0
Mg17 Mg 0.92835 0.77599 0.6138 0.0
C18 C 0.9924 0.80066 0.62752 0.0
C19 C 0.03095 0.73673 0.53899 0.0
O20 O 0.01107 0.72801 0.52069 0.0
O21 O 0.97883 0.72278 0.5979 0.0
O22 O 0.94427 0.73429 0.62181 0.0
O23 O 0.97262 0.79521 0.54678 0.0
O24 O 0.94492 0.7745 0.5733 0.0
C25 C 0.96183 0.71763 0.6156 0.0
C26 C 0.94984 0.79427 0.558 0.0
O27 O 0.0256 0.74963 0.56111 0.0
Mg28 Mg 0.51729 0.77731 0.96874 0.0
O29 O 0.49461 0.7489 0.93386 0.0
O30 O 0.4536 0.7636 0.92591 0.0
Mg31 Mg 0.45087 0.80234 0.95427 0.0
C32 C 0.47123 0.74661 0.92099 0.0
C33 C 0.57186 0.7552 0.98163 0.0
O34 O 0.56463 0.76366 0.00588 0.0
O35 O 0.52517 0.81068 0.93928 0.0
O36 O 0.48399 0.82543 0.9325 0.0
O37 O 0.49848 0.75075 -0.00142 0.0
O38 O 0.48122 0.78784 0.98348 0.0
C39 C 0.50909 0.82677 0.92844 0.0
C40 C 0.47883 0.76663 0.99746 0.0
O41 O 0.55629 0.75818 0.96053 0.0
Mg42 Mg 0.47823 0.2523 0.08672 0.0
O43 O 0.49682 0.2841 0.12024 0.0
O44 O 0.4663 0.29397 0.1498 0.0
Mg45 Mg 0.42748 0.26761 0.13511 0.0
C46 C 0.49001 0.29728 0.14167 0.0
C47 C 0.53036 0.22378 0.06926 0.0
O48 O 0.51447 0.20126 0.06985 0.0
O49 O 0.48039 0.21816 0.11637 0.0
O50 O 0.44819 0.22853 0.14407 0.0
O51 O 0.46255 0.286 0.06237 0.0
O52 O 0.43981 0.26471 0.0927 0.0
C53 C 0.46635 0.21311 0.13655 0.0
C54 C 0.44108 0.28354 0.07571 0.0
O55 O 0.52105 0.24691 0.07439 0.0
Mg56 Mg -0.00113 0.78675 0.16085 0.0
O57 O 0.96352 0.76798 0.13088 0.0
O58 O 0.9517 0.80113 0.10436 0.0
Mg59 Mg 0.97761 0.84091 0.11801 0.0
C60 C 0.9489 0.77643 0.11116 0.0
C61 C 0.99449 0.7299 0.18687 0.0
O62 O 0.97175 0.73926 0.194 0.0
O63 O 0.02673 0.78581 0.12612 0.0
O64 O 0.01487 0.82115 0.10258 0.0
O65 O 0.97089 0.80116 0.19157 0.0
O66 O 0.98526 0.82581 0.15878 0.0
C67 C 0.02995 0.80157 0.10671 0.0
C68 C 0.9707 0.82373 0.17928 0.0
O69 O 0.00949 0.7442 0.17245 0.0
Mg70 Mg 0.5322 0.73261 0.35324 0.0
O71 O 0.52229 0.76067 0.31901 0.0
O72 O 0.56078 0.77478 0.30164 0.0
Mg73 Mg 0.59526 0.75529 0.32419 0.0
C74 C 0.53519 0.77441 0.30222 0.0
C75 C 0.47134 0.73795 0.36002 0.0
O76 O 0.48035 0.76381 0.35983 0.0
O77 O 0.53808 0.69803 0.32125 0.0
O78 O 0.57773 0.71257 0.30658 0.0
O79 O 0.53928 0.76836 0.3841 0.0
O80 O 0.57105 0.75219 0.35979 0.0
C81 C 0.55778 0.69461 0.30636 0.0
C82 C 0.56401 0.77041 0.37756 0.0
O83 O 0.48754 0.71944 0.35582 0.0
Mg84 Mg 0.49297 0.28691 0.66406 0.0
O85 O 0.45917 0.26793 0.63225 0.0
O86 O 0.45104 0.30041 0.60346 0.0
Mg87 Mg 0.47555 0.34057 0.61879 0.0
C88 C 0.44695 0.27602 0.61078 0.0
C89 C 0.49805 0.23788 0.7012 0.0
O90 O 0.48665 0.25522 0.71752 0.0
O91 O 0.52333 0.28524 0.63148 0.0
O92 O 0.51387 0.32069 0.60697 0.0
O93 O 0.46321 0.30247 0.69247 0.0
O94 O 0.48004 0.32605 0.66015 0.0
C95 C 0.52833 0.30095 0.61239 0.0
C96 C 0.46433 0.32482 0.6798 0.0
O97 O 0.50259 0.24441 0.67716 0.0
Mg98 Mg 0.02023 0.23925 0.84515 0.0
O99 O 0.00991 0.26629 0.81004 0.0
O100 O 0.04825 0.27814 0.79121 0.0
Mg101 Mg 0.08296 0.25972 0.81448 0.0
C102 C 0.02279 0.27875 0.79232 0.0
C103 C 0.95935 0.24431 0.85309 0.0
O104 O 0.96778 0.27023 0.85207 0.0
O105 O 0.02574 0.20311 0.81464 0.0
O106 O 0.0654 0.21637 0.79925 0.0
O107 O 0.02748 0.27614 0.87453 0.0
O108 O 0.05901 0.25906 0.85047 0.0
C109 C 0.0454 0.19866 0.79999 0.0
C110 C 0.05204 0.27804 0.86748 0.0
O111 O 0.9758 0.22605 0.8489 0.0
Mg112 Mg 0.4214 0.97482 0.23021 0.0
O113 O 0.38961 0.95628 0.19602 0.0
O114 O 0.36759 0.92069 0.21301 0.0
Mg115 Mg 0.38523 0.91554 0.25653 0.0
C116 C 0.37157 0.93613 0.1935 0.0
C117 C 0.44352 0.033 0.22116 0.0
O118 O 0.45268 0.02956 0.24642 0.0
O119 O 0.38969 0.99392 0.25578 0.0
O120 O 0.37133 0.95655 0.2731 0.0
O121 O 0.45121 0.94607 0.21512 0.0
O122 O 0.42297 0.93706 0.24657 0.0
C123 C 0.37368 0.98253 0.27165 0.0
C124 C 0.44149 0.92905 0.23167 0.0
O125 O 0.42873 0.01362 0.20782 0.0
Mg126 Mg 0.27287 0.09333 0.47356 0.0
O127 O 0.30668 0.12532 0.49225 0.0
O128 O 0.31504 0.15339 0.45919 0.0
Mg129 Mg 0.2908 0.1374 0.41911 0.0
C130 C 0.31898 0.14658 0.48378 0.0
C131 C 0.25231 0.05636 0.51689 0.0
O132 O 0.24876 0.04045 0.49401 0.0
O133 O 0.24266 0.12602 0.47448 0.0
O134 O 0.25243 0.14974 0.43856 0.0
O135 O 0.30252 0.06443 0.45884 0.0
O136 O 0.28615 0.09647 0.43452 0.0
C137 C 0.23784 0.14479 0.45835 0.0
C138 C 0.30171 0.07676 0.43625 0.0
O139 O 0.26286 0.0807 0.51605 0.0
Mg140 Mg 0.16791 0.98838 0.75171 0.0
O141 O 0.13799 0.95155 0.73589 0.0
O142 O 0.11578 0.93961 0.77195 0.0
Mg143 Mg 0.13145 0.96693 0.81016 0.0
C144 C 0.12017 0.93639 0.74659 0.0
C145 C 0.18989 0.98568 0.69295 0.0
O146 O 0.19914 0.96319 0.70181 0.0
O147 O 0.13282 0.01556 0.75306 0.0
O148 O 0.11333 0.00355 0.79061 0.0
O149 O 0.20007 0.96073 0.76333 0.0
O150 O 0.16932 0.97381 0.79067 0.0
C151 C 0.11497 0.01843 0.77027 0.0
C152 C 0.18921 0.95914 0.78645 0.0
O153 O 0.17554 -0.00028 0.70817 0.0
Mg154 Mg 0.25026 0.79858 0.9803 0.0
O155 O 0.27395 0.83198 0.0096 0.0
O156 O 0.31478 0.83972 0.99433 0.0
Mg157 Mg 0.31668 0.812 0.95485 0.0
C158 C 0.29753 0.84443 0.01182 0.0
C159 C 0.1956 0.78593 0.00184 0.0
O160 O 0.20247 0.76191 0.99227 0.0
O161 O 0.24321 0.8296 0.94834 0.0
O162 O 0.284 0.83471 0.93214 0.0
O163 O 0.26801 0.76709 0.00545 0.0
O164 O 0.28581 0.78312 0.96903 0.0
C165 C 0.25917 0.83977 0.93174 0.0
C166 C 0.28772 0.76823 0.98961 0.0
O167 O 0.21155 0.80703 -0.00011 0.0
Mg168 Mg 0.22784 0.41421 0.02054 0.0
O169 O 0.24159 0.44911 0.99462 0.0
O170 O 0.20519 0.47069 0.98191 0.0
Mg171 Mg 0.16874 0.45062 0.00044 0.0
C172 C 0.23044 0.46776 0.98192 0.0
C173 C 0.27283 0.38062 0.03585 0.0
O174 O 0.25054 0.36436 0.03157 0.0
O175 O 0.22453 0.44449 0.057 0.0
O176 O 0.18734 0.46476 0.04403 0.0
O177 O 0.2188 0.38618 0.98316 0.0
O178 O 0.18906 0.41222 0.00091 0.0
C179 C 0.20687 0.46151 0.0616 0.0
C180 C 0.19483 0.3948 0.98167 0.0
O181 O 0.27128 0.40617 0.03361 0.0
Mg182 Mg 0.77934 0.19248 0.01145 0.0
O183 O 0.7633 0.15591 0.98209 0.0
O184 O 0.79711 0.13106 0.97072 0.0
Mg185 Mg 0.83558 0.15201 0.99389 0.0
C186 C 0.77215 0.13553 0.96891 0.0
C187 C 0.72839 0.21302 0.04025 0.0
O188 O 0.74696 0.22605 0.05777 0.0
O189 O 0.78429 0.16476 0.04708 0.0
O190 O 0.81991 0.1426 0.03545 0.0
O191 O 0.78788 0.21662 0.97515 0.0
O192 O 0.81722 0.19168 0.99573 0.0
C193 C 0.80202 0.1478 0.0521 0.0
C194 C 0.81128 0.20668 0.97595 0.0
O195 O 0.73558 0.1985 0.01995 0.0
Mg196 Mg 0.09117 0.51015 0.27943 0.0
O197 O 0.12371 0.52715 0.31351 0.0
O198 O 0.14972 0.49271 0.32162 0.0
Mg199 Mg 0.13343 0.45424 0.29523 0.0
C200 C 0.14391 0.5175 0.32608 0.0
C201 C 0.05645 0.55445 0.25878 0.0
O202 O 0.04058 0.53174 0.25424 0.0
O203 O 0.12238 0.51119 0.24787 0.0
O204 O 0.14664 0.47592 0.25763 0.0
O205 O 0.06385 0.49634 0.31073 0.0
O206 O 0.09356 0.47081 0.29232 0.0
C207 C 0.14149 0.49594 0.2432 0.0
C208 C 0.07554 0.47355 0.30966 0.0
O209 O 0.07998 0.55318 0.2703 0.0
Mg210 Mg 0.7359 0.91792 0.53059 0.0
O211 O 0.74489 0.95103 0.50098 0.0
O212 O 0.70607 0.96775 0.48708 0.0
Mg213 Mg 0.67224 0.94589 0.50825 0.0
C214 C 0.73161 0.96718 0.48682 0.0
C215 C 0.7968 0.91168 0.52418 0.0
O216 O 0.78747 0.91173 0.49841 0.0
O217 O 0.73045 0.95073 0.56456 0.0
O218 O 0.69034 0.96457 0.55045 0.0
O219 O 0.72833 0.88601 0.49585 0.0
O220 O 0.69669 0.91053 0.51198 0.0
C221 C 0.71061 0.96538 0.5681 0.0
C222 C 0.70351 0.89229 0.49411 0.0
O223 O 0.78082 0.91586 0.54292 0.0
Mg224 Mg 0.84307 0.02588 0.27882 0.0
O225 O 0.87495 0.05947 0.2987 0.0
O226 O 0.89483 0.0418 0.3351 0.0
Mg227 Mg 0.87594 -0.00137 0.33945 0.0
C228 C 0.89213 0.06147 0.31958 0.0
C229 C 0.82701 0.07013 0.23744 0.0
O230 O 0.81847 0.08241 0.25952 0.0
O231 O 0.87523 -0.00023 0.26143 0.0
O232 O 0.89179 0.98212 0.29939 0.0
O233 O 0.81234 0.04169 0.30633 0.0
O234 O 0.83946 0.00962 0.3164 0.0
C235 C 0.89064 0.98378 0.27343 0.0
C236 C 0.82108 0.02502 0.32374 0.0
O237 O 0.83846 0.0479 0.23938 0.0
Mg238 Mg 0.28317 0.68807 0.50961 0.0
O239 O 0.2639 0.65393 0.47849 0.0
O240 O 0.29546 0.62586 0.46737 0.0
Mg241 Mg 0.33536 0.64272 0.49041 0.0
C242 C 0.27123 0.63276 0.46523 0.0
C243 C 0.22366 0.70443 0.50075 0.0
O244 O 0.23093 0.70467 0.4755 0.0
O245 O 0.28525 0.65829 0.54382 0.0
O246 O 0.3182 0.63266 0.531 0.0
O247 O 0.29452 0.71311 0.4747 0.0
O248 O 0.32057 0.68405 0.49374 0.0
C249 C 0.30077 0.63902 0.54776 0.0
C250 C 0.31662 0.70071 0.47496 0.0
O251 O 0.24076 0.6988 0.51968 0.0
Mg252 Mg 0.34855 0.53396 0.78121 0.0
O253 O 0.38115 0.56668 0.8011 0.0
O254 O 0.40158 0.5482 0.83668 0.0
Mg255 Mg 0.38245 0.50492 0.84022 0.0
C256 C 0.39868 0.56823 0.82165 0.0
C257 C 0.32817 0.54553 0.72307 0.0
O258 O 0.31852 0.52016 0.72525 0.0
O259 O 0.37964 0.50765 0.7619 0.0
O260 O 0.39668 0.48905 0.79912 0.0
O261 O 0.31898 0.54959 0.80995 0.0
O262 O 0.3456 0.51664 0.81842 0.0
C263 C 0.39494 0.49109 0.7732 0.0
C264 C 0.32772 0.53225 0.82663 0.0
O265 O 0.34276 0.55789 0.74316 0.0
Mg266 Mg 0.59365 0.01317 0.78333 0.0
O267 O 0.62583 0.02822 0.81838 0.0
O268 O 0.64859 0.99199 0.82837 0.0
Mg269 Mg 0.63173 0.95454 0.8006 0.0
C270 C 0.64437 0.0173 0.83234 0.0
C271 C 0.56011 0.06214 0.77236 0.0
O272 O 0.54178 0.04279 0.77721 0.0
O273 O 0.62645 0.01288 0.75332 0.0
O274 O 0.64741 0.97569 0.76369 0.0
O275 O 0.56453 0.0006 0.81375 0.0
O276 O 0.59332 0.97349 0.79611 0.0
C277 C 0.64451 0.99617 0.74921 0.0
C278 C 0.57508 0.97719 0.813 0.0
O279 O 0.58482 0.05702 0.77421 0.0
Mg280 Mg 0.76936 0.59681 0.97778 0.0
O281 O 0.80445 0.62767 0.99571 0.0
O282 O 0.81514 0.65388 0.96189 0.0
Mg283 Mg 0.78874 0.6395 0.92268 0.0
C284 C 0.81853 0.6475 0.98669 0.0
C285 C 0.77177 0.56749 0.03303 0.0
O286 O 0.79176 0.55639 0.02146 0.0
O287 O 0.74083 0.63096 0.9789 0.0
O288 O 0.75174 0.65447 0.9432 0.0
O289 O 0.79783 0.56662 0.96295 0.0
O290 O 0.78229 0.59888 0.93839 0.0
C291 C 0.73707 0.65024 0.9631 0.0
C292 C 0.79736 0.57879 0.94029 0.0
O293 O 0.75938 0.58544 0.02072 0.0
Mg294 Mg 0.92298 0.48714 0.73201 0.0
O295 O 0.88979 0.46809 0.69924 0.0
O296 O 0.87155 0.43057 0.71658 0.0
Mg297 Mg 0.89281 0.42448 0.7583 0.0
C298 C 0.87294 0.44691 0.6974 0.0
C299 C 0.93621 0.53039 0.68906 0.0
O300 O 0.94339 0.50847 0.67531 0.0
O301 O 0.89196 0.50257 0.76077 0.0
O302 O 0.87735 0.46352 0.77777 0.0
O303 O 0.95334 0.46158 0.71273 0.0
O304 O 0.92763 0.44841 0.74509 0.0
C305 C 0.87784 0.48956 0.77721 0.0
C306 C 0.94495 0.44255 0.72784 0.0
O307 O 0.92625 0.5279 0.71203 0.0
Mg308 Mg 0.75255 0.29658 0.49222 0.0
O309 O 0.77556 0.3317 0.52007 0.0
O310 O 0.81646 0.33922 0.50491 0.0
Mg311 Mg 0.81893 0.31004 0.46668 0.0
C312 C 0.79895 0.34455 0.52193 0.0
C313 C 0.69871 0.28378 0.51526 0.0
O314 O 0.70662 0.25957 0.50771 0.0
O315 O 0.74486 0.32574 0.45856 0.0
O316 O 0.78599 0.33175 0.44338 0.0
O317 O 0.77109 0.26663 0.51886 0.0
O318 O 0.7883 0.28139 0.48157 0.0
C319 C 0.76096 0.33611 0.44217 0.0
C320 C 0.7905 0.26723 0.50266 0.0
O321 O 0.71366 0.30508 0.51141 0.0
Mg322 Mg 0.67596 0.48098 0.25608 0.0
O323 O 0.64364 0.44586 0.24143 0.0
O324 O 0.62177 0.43585 0.27827 0.0
Mg325 Mg 0.63902 0.46362 0.3155 0.0
C326 C 0.62543 0.43188 0.25281 0.0
C327 C 0.70891 0.49858 0.20961 0.0
O328 O 0.72623 0.50007 0.2313 0.0
O329 O 0.64299 0.51074 0.25681 0.0
O330 O 0.62275 0.50021 0.29442 0.0
O331 O 0.70543 0.45076 0.26827 0.0
O332 O 0.67689 0.46831 0.29574 0.0
C333 C 0.62516 0.51465 0.27384 0.0
C334 C 0.69516 0.45154 0.29184 0.0
O335 O 0.68453 0.49015 0.21221 0.0
H336 H 0.04028 0.47448 0.34981 0.0
H337 H 0.09395 0.42225 0.30939 0.0
H338 H 0.02565 0.43684 0.37666 0.0
H339 H 0.07906 0.38451 0.33605 0.0
H340 H 0.98113 0.35619 0.39276 0.0
H341 H -0.00133 0.39321 0.36701 0.0
H342 H 0.07954 0.36879 0.38291 0.0
H343 H 0.06193 0.33122 0.40855 0.0
C344 C 0.04908 0.45503 0.34676 0.0
C345 C 0.06825 0.45137 0.32744 0.0
C346 C 0.04057 0.4334 0.36202 0.0
C347 C 0.05101 0.4076 0.35829 0.0
C348 C 0.07079 0.40418 0.33955 0.0
C349 C 0.07928 0.42582 0.32424 0.0
C350 C 0.00267 0.35854 0.39074 0.0
C351 C 0.02012 0.34074 0.4029 0.0
C352 C 0.01274 0.37995 0.37612 0.0
C353 C 0.04053 0.38419 0.37323 0.0
C354 C 0.058 0.36601 0.38472 0.0
C355 C 0.0479 0.34451 0.39944 0.0
H356 H 0.9547 0.84072 0.52951 0.0
H357 H 0.90035 0.79552 0.57806 0.0
H358 H 0.9212 0.87452 0.52305 0.0
H359 H 0.86752 0.82906 0.57197 0.0
H360 H 0.81958 0.90162 0.57469 0.0
H361 H 0.85992 0.87752 0.58441 0.0
H362 H 0.87509 0.87452 0.49862 0.0
H363 H 0.83493 0.89891 0.48886 0.0
C364 C 0.93581 0.83812 0.53902 0.0
C365 C 0.93038 0.81553 0.55455 0.0
C366 C 0.91665 0.85744 0.53531 0.0
C367 C 0.89185 0.85465 0.5473 0.0
C368 C 0.88666 0.83222 0.56301 0.0
C369 C 0.90556 0.81288 0.56646 0.0
C370 C 0.83179 0.89635 0.55797 0.0
C371 C 0.82376 0.90182 0.53093 0.0
C372 C 0.85485 0.88241 0.56353 0.0
C373 C 0.87045 0.87373 0.54221 0.0
C374 C 0.86355 0.88098 0.5155 0.0
C375 C 0.84042 0.89485 0.50991 0.0
H376 H 0.43972 0.57841 0.86198 0.0
H377 H 0.39214 0.61869 0.80181 0.0
H378 H 0.45961 0.62267 0.88177 0.0
H379 H 0.41263 0.66318 0.82139 0.0
H380 H 0.42255 0.73295 0.89184 0.0
H381 H 0.40845 0.69091 0.86362 0.0
H382 H 0.48846 0.66335 0.87656 0.0
H383 H 0.50251 0.70523 0.90536 0.0
C384 C 0.43386 0.59668 0.85259 0.0
C385 C 0.41405 0.59491 0.83045 0.0
C386 C 0.44545 0.62214 0.86388 0.0
C387 C 0.43758 0.64657 0.85336 0.0
C388 C 0.41884 0.64478 0.83028 0.0
C389 C 0.40725 0.61924 0.81891 0.0
C390 C 0.43729 0.71813 0.88845 0.0
C391 C 0.46362 0.72245 0.90118 0.0
C392 C 0.42922 0.69403 0.87204 0.0
C393 C 0.44726 0.67362 0.8679 0.0
C394 C 0.47392 0.67845 0.87965 0.0
C395 C 0.48201 0.70256 0.89609 0.0
H396 H 0.55657 0.1781 0.05572 0.0
H397 H 0.56951 0.26615 0.07111 0.0
H398 H 0.60435 0.17564 0.04867 0.0
H399 H 0.61716 0.26367 0.06375 0.0
H400 H 0.70565 0.24417 0.07969 0.0
H401 H 0.65777 0.24671 0.08626 0.0
H402 H 0.63743 0.18877 0.01608 0.0
H403 H 0.68523 0.18596 0.00966 0.0
C404 C 0.56955 0.19695 0.05745 0.0
C405 C 0.55918 0.22231 0.06398 0.0
C406 C 0.59692 0.19555 0.05329 0.0
C407 C 0.61459 0.21946 0.0557 0.0
C408 C 0.60417 0.24484 0.06208 0.0
C409 C 0.5768 0.24626 0.06611 0.0
C410 C 0.69098 0.23198 0.06565 0.0
C411 C 0.69931 0.21487 0.04416 0.0
C412 C 0.66352 0.23355 0.06933 0.0
C413 C 0.64378 0.21794 0.05169 0.0
C414 C 0.65213 0.20082 0.03021 0.0
C415 C 0.67955 0.19934 0.02645 0.0
H416 H 0.00662 0.5637 0.23616 0.0
H417 H 0.0856 0.60429 0.25965 0.0
H418 H 0.99179 0.60585 0.21863 0.0
H419 H 0.07056 0.64671 0.24234 0.0
H420 H 0.04239 0.7071 0.18003 0.0
H421 H 0.05739 0.66505 0.19801 0.0
H422 H 0.98182 0.65207 0.23501 0.0
H423 H 0.96667 0.69389 0.2168 0.0
C424 C 0.0208 0.58167 0.23775 0.0
C425 C 0.04732 0.58059 0.24931 0.0
C426 C 0.01223 0.60589 0.2278 0.0
C427 C 0.02998 0.62965 0.22906 0.0
C428 C 0.05648 0.62866 0.24078 0.0
C429 C 0.06504 0.60442 0.25088 0.0
C430 C 0.02892 0.69522 0.19191 0.0
C431 C 0.0033 0.70386 0.19693 0.0
C432 C 0.03762 0.67124 0.2024 0.0
C433 C 0.02084 0.65525 0.21802 0.0
C434 C 0.99514 0.66377 0.22284 0.0
C435 C 0.98649 0.68781 0.21246 0.0
H436 H 0.55736 0.80554 0.42166 0.0
H437 H 0.61515 0.7846 0.36352 0.0
H438 H 0.59117 0.83772 0.44684 0.0
H439 H 0.64857 0.81787 0.38775 0.0
H440 H 0.71018 0.8477 0.45968 0.0
H441 H 0.67615 0.82123 0.42882 0.0
H442 H 0.61795 0.87934 0.44895 0.0
H443 H 0.65169 0.90493 0.48096 0.0
C444 C 0.57711 0.80826 0.41387 0.0
C445 C 0.58359 0.79235 0.39066 0.0
C446 C 0.59651 0.8269 0.42823 0.0
C447 C 0.62275 0.83035 0.41947 0.0
C448 C 0.62877 0.81536 0.39545 0.0
C449 C 0.60949 0.79641 0.38136 0.0
C450 C 0.6902 0.855 0.45731 0.0
C451 C 0.68363 0.87835 0.47292 0.0
C452 C 0.67066 0.8399 0.43941 0.0
C453 C 0.64416 0.84802 0.43641 0.0
C454 C 0.63797 0.87214 0.45112 0.0
C455 C 0.65743 0.887 0.46934 0.0
H456 H 0.43564 0.33064 0.72493 0.0
H457 H 0.46228 0.37418 0.65672 0.0
H458 H 0.41945 0.37275 0.74493 0.0
H459 H 0.44584 0.4163 0.67679 0.0
H460 H 0.43207 0.45665 0.79049 0.0
H461 H 0.4466 0.41675 0.76515 0.0
H462 H 0.40211 0.43796 0.6918 0.0
H463 H 0.38707 0.47821 0.71733 0.0
C464 C 0.4376 0.34903 0.71392 0.0
C465 C 0.45042 0.34904 0.68931 0.0
C466 C 0.42851 0.37319 0.72549 0.0
C467 C 0.4318 0.39786 0.7126 0.0
C468 C 0.44308 0.39758 0.68715 0.0
C469 C 0.45247 0.37342 0.67569 0.0
C470 C 0.42557 0.45316 0.76888 0.0
C471 C 0.40807 0.47053 0.75607 0.0
C472 C 0.43377 0.43012 0.75443 0.0
C473 C 0.42493 0.42391 0.72672 0.0
C474 C 0.40903 0.44221 0.71324 0.0
C475 C 0.40056 0.46531 0.72783 0.0
H476 H 0.9206 0.27856 0.86679 0.0
H477 H 0.93865 0.19351 0.86476 0.0
H478 H 0.88171 0.26798 0.89287 0.0
H479 H 0.89963 0.18299 0.89059 0.0
H480 H 0.86179 0.1892 0.97403 0.0
H481 H 0.89348 0.19622 0.93947 0.0
H482 H 0.83638 0.2418 0.89448 0.0
H483 H 0.80406 0.23438 0.92928 0.0
C484 C 0.91596 0.2575 0.87137 0.0
C485 C 0.93302 0.23697 0.86407 0.0
C486 C 0.89357 0.25144 0.88622 0.0
C487 C 0.88786 0.22475 0.89414 0.0
C488 C 0.90382 0.20386 0.88518 0.0
C489 C 0.92611 0.20988 0.87026 0.0
C490 C 0.85563 0.20028 0.95659 0.0
C491 C 0.83019 0.21093 0.95432 0.0
C492 C 0.87387 0.20426 0.93668 0.0
C493 C 0.86733 0.21928 0.91405 0.0
C494 C 0.84194 0.2301 0.9117 0.0
C495 C 0.82347 0.22584 0.9316 0.0
H496 H 0.30472 0.09931 0.38673 0.0
H497 H 0.33013 0.03137 0.43135 0.0
H498 H 0.32187 0.07888 0.34517 0.0
H499 H 0.34705 0.01098 0.38976 0.0
H500 H 0.38138 0.03838 0.2846 0.0
H501 H 0.36574 0.0639 0.32451 0.0
H502 H 0.32112 0.99044 0.34542 0.0
H503 H 0.33627 0.96508 0.30583 0.0
C504 C 0.3144 0.08032 0.38785 0.0
C505 C 0.31593 0.0669 0.41237 0.0
C506 C 0.3242 0.06864 0.36401 0.0
C507 C 0.33538 0.04317 0.36416 0.0
C508 C 0.33809 0.03044 0.38897 0.0
C509 C 0.32859 0.04223 0.41284 0.0
C510 C 0.36776 0.02783 0.29737 0.0
C511 C 0.36036 -0.00043 0.29213 0.0
C512 C 0.35894 0.04242 0.32028 0.0
C513 C 0.34279 0.02893 0.33839 0.0
C514 C 0.33413 0.00118 0.3322 0.0
C515 C 0.34268 0.98672 0.30932 0.0
H516 H 0.17927 0.03422 0.67123 0.0
H517 H 0.21884 0.95984 0.65494 0.0
H518 H 0.19431 0.05139 0.6288 0.0
H519 H 0.23408 0.97715 0.61276 0.0
H520 H 0.23185 0.00469 0.52523 0.0
H521 H 0.21601 0.98773 0.56726 0.0
H522 H 0.23661 0.0676 0.60949 0.0
H523 H 0.25223 0.08477 0.5672 0.0
C524 C 0.19108 0.02148 0.65858 0.0
C525 C 0.19782 0.99562 0.66651 0.0
C526 C 0.19989 0.03143 0.63436 0.0
C527 C 0.21548 0.0157 0.61743 0.0
C528 C 0.22188 0.98969 0.62519 0.0
C529 C 0.21321 0.9798 0.64945 0.0
C530 C 0.23307 0.01868 0.54346 0.0
C531 C 0.24335 0.04611 0.54283 0.0
C532 C 0.22408 0.00889 0.56761 0.0
C533 C 0.22504 0.02628 0.59175 0.0
C534 C 0.23532 0.05374 0.59116 0.0
C535 C 0.24445 0.06354 0.56698 0.0
H536 H 0.24078 0.94664 0.79781 0.0
H537 H 0.15975 0.93028 0.82131 0.0
H538 H 0.25775 0.91872 0.83348 0.0
H539 H 0.17621 0.90107 0.85598 0.0
H540 H 0.21608 0.87134 0.93354 0.0
H541 H 0.19939 0.90041 0.89863 0.0
H542 H 0.26088 0.87477 0.84647 0.0
H543 H 0.27838 0.84728 0.88203 0.0
C544 C 0.22657 0.93671 0.81042 0.0
C545 C 0.19902 0.94082 0.807 0.0
C546 C 0.23622 0.92054 0.83082 0.0
C547 C 0.21842 0.90751 0.84785 0.0
C548 C 0.1907 0.91124 0.84387 0.0
C549 C 0.18117 0.92792 0.82386 0.0
C550 C 0.22602 0.87208 0.91462 0.0
C551 C 0.24862 0.8572 0.9106 0.0
C552 C 0.21636 0.88858 0.89445 0.0
C553 C 0.22873 0.89009 0.86954 0.0
C554 C 0.25115 0.87479 0.86552 0.0
C555 C 0.26112 0.85882 0.88589 0.0
H556 H 0.34723 0.87128 0.02638 0.0
H557 H 0.26674 0.86033 0.0535 0.0
H558 H 0.36221 0.8977 0.06932 0.0
H559 H 0.28166 0.88732 0.09622 0.0
H560 H 0.32945 0.89727 0.18151 0.0
H561 H 0.30965 0.87943 0.13657 0.0
H562 H 0.35978 0.93933 0.09862 0.0
H563 H 0.38017 0.95695 0.14383 0.0
C564 C 0.33258 0.87489 0.04127 0.0
C565 C 0.30582 0.86336 0.03651 0.0
C566 C 0.34116 0.89024 0.06588 0.0
C567 C 0.3232 0.89452 0.08637 0.0
C568 C 0.29614 0.88405 0.08109 0.0
C569 C 0.28756 0.86866 0.0565 0.0
C570 C 0.33605 0.90697 0.16367 0.0
C571 C 0.35664 0.92841 0.16637 0.0
C572 C 0.32452 0.8968 0.13781 0.0
C573 C 0.33322 0.90779 0.11388 0.0
C574 C 0.35289 0.93012 0.1166 0.0
C575 C 0.36443 0.94037 0.14255 0.0
H576 H 0.32401 0.40689 0.04343 0.0
H577 H 0.28048 0.32723 0.04274 0.0
H578 H 0.36649 0.38597 0.05419 0.0
H579 H 0.3224 0.30664 0.05294 0.0
H580 H 0.39389 0.28096 0.10038 0.0
H581 H 0.35524 0.30723 0.09228 0.0
H582 H 0.39718 0.35216 0.03326 0.0
H583 H 0.43681 0.32615 0.04211 0.0
C584 C 0.32349 0.38501 0.04558 0.0
C585 C 0.29883 0.36878 0.04244 0.0
C586 C 0.34779 0.37304 0.05156 0.0
C587 C 0.34775 0.34471 0.0547 0.0
C588 C 0.3231 0.3286 0.05122 0.0
C589 C 0.29901 0.34045 0.04522 0.0
C590 C 0.39528 0.29675 0.08605 0.0
C591 C 0.41855 0.3014 0.07191 0.0
C592 C 0.37291 0.31167 0.08121 0.0
C593 C 0.37298 0.33151 0.06185 0.0
C594 C 0.39657 0.33705 0.04837 0.0
C595 C 0.41918 0.32207 0.05333 0.0
H596 H 0.96711 0.87377 0.15802 0.0
H597 H 0.94163 0.82673 0.22436 0.0
H598 H 0.9482 0.91414 0.17879 0.0
H599 H 0.92283 0.86709 0.24503 0.0
H600 H 0.88596 0.97172 0.21741 0.0
H601 H 0.90392 0.93297 0.19225 0.0
H602 H 0.94524 0.91152 0.26732 0.0
H603 H 0.92761 0.94989 0.29236 0.0
C604 C 0.95707 0.87187 0.17675 0.0
C605 C 0.95599 0.84703 0.18961 0.0
C606 C 0.94626 0.89503 0.18862 0.0
C607 C 0.93442 0.89385 0.2137 0.0
C608 C 0.93229 0.86871 0.22591 0.0
C609 C 0.94289 0.84554 0.21396 0.0
C610 C 0.89929 0.95905 0.22843 0.0
C611 C 0.90506 0.96378 0.25698 0.0
C612 C 0.90947 0.93682 0.21403 0.0
C613 C 0.92544 0.91889 0.22798 0.0
C614 C 0.9324 0.92457 0.25616 0.0
C615 C 0.92243 0.94675 0.27046 0.0
H616 H 0.18291 0.71807 0.46509 0.0
H617 H 0.20096 0.70294 0.55006 0.0
H618 H 0.13675 0.7262 0.47463 0.0
H619 H 0.15454 0.71048 0.55947 0.0
H620 H 0.07687 0.75329 0.57183 0.0
H621 H 0.12343 0.74607 0.5628 0.0
H622 H 0.09569 0.7016 0.48554 0.0
H623 H 0.04922 0.70932 0.49428 0.0
C624 C 0.17703 0.71641 0.48582 0.0
C625 C 0.19568 0.70984 0.5068 0.0
C626 C 0.15047 0.7209 0.49124 0.0
C627 C 0.14183 0.71889 0.5178 0.0
C628 C 0.16055 0.71252 0.53885 0.0
C629 C 0.18716 0.70805 0.53342 0.0
C630 C 0.08069 0.74196 0.55291 0.0
C631 C 0.05927 0.73193 0.53376 0.0
C632 C 0.10741 0.73769 0.5478 0.0
C633 C 0.11337 0.72328 0.52341 0.0
C634 C 0.09191 0.71314 0.50434 0.0
C635 C 0.06521 0.71743 0.50944 0.0
H636 H 0.92667 0.69944 0.65175 0.0
H637 H 0.99417 0.67484 0.60767 0.0
H638 H 0.92166 0.6546 0.66935 0.0
H639 H 0.98965 0.6298 0.62626 0.0
H640 H 0.95182 0.54295 0.6386 0.0
H641 H 0.96002 0.58839 0.62193 0.0
H642 H 0.94129 0.62548 0.70022 0.0
H643 H 0.9322 0.58019 0.71644 0.0
C644 C 0.94076 0.6846 0.64608 0.0
C645 C 0.96081 0.69085 0.62816 0.0
C646 C 0.93795 0.65881 0.65638 0.0
C647 C 0.95524 0.63848 0.6493 0.0
C648 C 0.97573 0.64484 0.63185 0.0
C649 C 0.97848 0.67074 0.62137 0.0
C650 C 0.94939 0.56083 0.6522 0.0
C651 C 0.94111 0.55792 0.67876 0.0
C652 C 0.95434 0.58691 0.64274 0.0
C653 C 0.95128 0.61068 0.65968 0.0
C654 C 0.94338 0.60768 0.68639 0.0
C655 C 0.93822 0.58166 0.69575 0.0
H656 H 0.20032 0.13945 0.49635 0.0
H657 H 0.22141 0.18639 0.4283 0.0
H658 H 0.15996 0.1643 0.50036 0.0
H659 H 0.18137 0.21142 0.43268 0.0
H660 H 0.09142 0.22633 0.42792 0.0
H661 H 0.1324 0.2023 0.42475 0.0
H662 H 0.14623 0.21022 0.51311 0.0
H663 H 0.10507 0.23381 0.51636 0.0
C664 C 0.19651 0.15519 0.4824 0.0
C665 C 0.21409 0.16082 0.46194 0.0
C666 C 0.17342 0.16951 0.48478 0.0
C667 C 0.16743 0.18973 0.46674 0.0
C668 C 0.18522 0.19566 0.4466 0.0
C669 C 0.20828 0.1814 0.44423 0.0
C670 C 0.10322 0.22298 0.44667 0.0
C671 C 0.09499 0.23196 0.47238 0.0
C672 C 0.12677 0.20934 0.44484 0.0
C673 C 0.14255 0.20439 0.46869 0.0
C674 C 0.13433 0.21344 0.49439 0.0
C675 C 0.11082 0.2271 0.49622 0.0
H676 H 0.62092 0.42136 0.19675 0.0
H677 H 0.58825 0.39505 0.27093 0.0
H678 H 0.58844 0.38885 0.16948 0.0
H679 H 0.55638 0.3624 0.24379 0.0
H680 H 0.48294 0.3311 0.18703 0.0
H681 H 0.51633 0.36326 0.21307 0.0
H682 H 0.57664 0.33988 0.15869 0.0
H683 H 0.54313 0.30809 0.13221 0.0
C684 C 0.60704 0.4085 0.20726 0.0
C685 C 0.60711 0.41099 0.23603 0.0
C686 C 0.58848 0.38981 0.19163 0.0
C687 C 0.56965 0.37321 0.20446 0.0
C688 C 0.57022 0.37527 0.23323 0.0
C689 C 0.58866 0.39392 0.2488 0.0
C690 C 0.5033 0.33279 0.18058 0.0
C691 C 0.51031 0.31693 0.15754 0.0
C692 C 0.5225 0.35114 0.19561 0.0
C693 C 0.5492 0.35404 0.18804 0.0
C694 C 0.55619 0.33834 0.1649 0.0
C695 C 0.53697 0.32 0.14982 0.0
H696 H 0.3207 0.7452 0.95484 0.0
H697 H 0.313 0.76685 0.04066 0.0
H698 H 0.36758 0.73578 0.96524 0.0
H699 H 0.36045 0.75821 0.05104 0.0
H700 H 0.44741 0.7993 0.02542 0.0
H701 H 0.3994 0.79017 0.031 0.0
H702 H 0.4022 0.70771 0.9947 0.0
H703 H 0.45072 0.71667 0.98995 0.0
C704 C 0.32889 0.74711 0.97604 0.0
C705 C 0.31346 0.7568 0.99695 0.0
C706 C 0.35561 0.74154 0.98202 0.0
C707 C 0.36751 0.74623 0.00894 0.0
C708 C 0.35157 0.75424 0.03018 0.0
C709 C 0.32453 0.75915 0.02425 0.0
C710 C 0.43797 0.77887 0.01977 0.0
C711 C 0.45253 0.75865 0.00733 0.0
C712 C 0.41059 0.77359 0.02308 0.0
C713 C 0.39722 0.74824 0.01328 0.0
C714 C 0.41221 0.72732 0.00259 0.0
C715 C 0.43986 0.73241 -5e-05 0.0
H716 H 0.99681 0.42959 0.72574 0.0
H717 H 0.91525 0.39376 0.72614 0.0
H718 H 0.01395 0.38533 0.7343 0.0
H719 H 0.93205 0.34916 0.73352 0.0
H720 H 0.97234 0.29608 0.79681 0.0
H721 H 0.95224 0.33225 0.77313 0.0
H722 H 0.02006 0.33852 0.72292 0.0
H723 H 0.04075 0.30286 0.7475 0.0
C724 C 0.98258 0.41195 0.72673 0.0
C725 C 0.95483 0.41504 0.72598 0.0
C726 C 0.99233 0.38652 0.73155 0.0
C727 C 0.97437 0.36372 0.73523 0.0
C728 C 0.94646 0.36644 0.73169 0.0
C729 C 0.93681 0.39194 0.7274 0.0
C730 C 0.98276 0.30476 0.78037 0.0
C731 C 0.00836 0.2969 0.77439 0.0
C732 C 0.97112 0.32547 0.76658 0.0
C733 C 0.98464 0.33859 0.74622 0.0
C734 C 0.00936 0.32929 0.73887 0.0
C735 C 0.02115 0.30874 0.75288 0.0
H736 H 0.34864 0.13317 0.52972 0.0
H737 H 0.33088 0.20132 0.48192 0.0
H738 H 0.38001 0.16357 0.56067 0.0
H739 H 0.36058 0.23195 0.51347 0.0
H740 H 0.43476 0.27691 0.55596 0.0
H741 H 0.40499 0.24481 0.52598 0.0
H742 H 0.38593 0.19894 0.59541 0.0
H743 H 0.41736 0.23043 0.62516 0.0
C744 C 0.35127 0.1547 0.52601 0.0
C745 C 0.33756 0.16478 0.5032 0.0
C746 C 0.36911 0.17224 0.54386 0.0
C747 C 0.37321 0.20036 0.53961 0.0
C748 C 0.35879 0.21038 0.51711 0.0
C749 C 0.34152 0.1928 0.49902 0.0
C750 C 0.42418 0.25999 0.56485 0.0
C751 C 0.42827 0.25634 0.59297 0.0
C752 C 0.40687 0.24158 0.54764 0.0
C753 C 0.39254 0.21928 0.55814 0.0
C754 C 0.39676 0.21557 0.58638 0.0
C755 C 0.41463 0.23375 0.60354 0.0
H756 H 0.59668 0.68008 0.27291 0.0
H757 H 0.52341 0.64802 0.30552 0.0
H758 H 0.60642 0.63409 0.25787 0.0
H759 H 0.5327 0.60171 0.28936 0.0
H760 H 0.58823 0.53176 0.30849 0.0
H761 H 0.5652 0.57351 0.308 0.0
H762 H 0.59858 0.59142 0.23155 0.0
H763 H 0.62261 0.54981 0.23255 0.0
C764 C 0.58219 0.66328 0.27618 0.0
C765 C 0.55966 0.6677 0.29117 0.0
C766 C 0.58767 0.63678 0.26726 0.0
C767 C 0.57064 0.61406 0.2729 0.0
C768 C 0.5466 0.61873 0.28532 0.0
C769 C 0.54119 0.64531 0.29444 0.0
C770 C 0.59041 0.54432 0.29131 0.0
C771 C 0.60781 0.53773 0.2709 0.0
C772 C 0.57687 0.56821 0.29086 0.0
C773 C 0.5802 0.58605 0.26986 0.0
C774 C 0.59597 0.57839 0.2483 0.0
C775 C 0.60972 0.55452 0.24886 0.0
H776 H 0.04549 0.83308 0.06569 0.0
H777 H 0.06609 0.76202 0.10817 0.0
H778 H 0.08447 0.82885 0.03886 0.0
H779 H 0.10525 0.75812 0.08153 0.0
H780 H 0.15867 0.74429 0.01088 0.0
H781 H 0.11744 0.74737 0.03443 0.0
H782 H 0.13397 0.83526 0.04745 0.0
H783 H 0.17508 0.83227 0.02354 0.0
C784 C 0.05822 0.81648 0.06925 0.0
C785 C 0.05267 0.79794 0.08919 0.0
C786 C 0.08067 0.81419 0.05397 0.0
C787 C 0.098 0.79325 0.05818 0.0
C788 C 0.09213 0.77433 0.07764 0.0
C789 C 0.06973 0.77666 0.093 0.0
C790 C 0.15348 0.7643 0.01865 0.0
C791 C 0.17019 0.78804 0.0154 0.0
C792 C 0.12991 0.76603 0.03226 0.0
C793 C 0.1225 0.79153 0.04285 0.0
C794 C 0.139 0.81534 0.03924 0.0
C795 C 0.16263 0.81361 0.02569 0.0
H796 H 0.6714 -0.00171 0.58302 0.0
H797 H 0.74541 0.96674 0.6144 0.0
H798 H 0.66169 0.01279 0.62921 0.0
H799 H 0.73611 0.98233 0.66088 0.0
H800 H 0.68158 0.96203 0.73138 0.0
H801 H 0.70406 0.96296 0.68925 0.0
H802 H 0.66943 0.03891 0.67203 0.0
H803 H 0.646 0.03747 0.71402 0.0
C804 C 0.68606 0.99517 0.59971 0.0
C805 C 0.70881 0.98061 0.59503 0.0
C806 C 0.68058 0.00376 0.62632 0.0
C807 C 0.69782 -0.00179 0.6489 0.0
C808 C 0.72205 0.98628 0.64398 0.0
C809 C 0.72747 0.9775 0.61729 0.0
C810 C 0.67901 0.97919 0.71889 0.0
C811 C 0.66148 -0.00065 0.72582 0.0
C812 C 0.69222 0.9799 0.69476 0.0
C813 C 0.6884 0.0009 0.67703 0.0
C814 C 0.67242 0.02217 0.68497 0.0
C815 C 0.65902 0.02136 0.70908 0.0
H816 H 0.83356 0.98872 0.36116 0.0
H817 H 0.78392 0.05603 0.34765 0.0
H818 H 0.81382 0.98177 0.40386 0.0
H819 H 0.76398 0.04911 0.39125 0.0
H820 H 0.70969 0.99367 0.44422 0.0
H821 H 0.73336 0.01394 0.40789 0.0
H822 H 0.80972 -0.00033 0.44994 0.0
H823 H 0.78603 0.9785 0.48582 0.0
C824 C 0.81889 0.00256 0.36762 0.0
C825 C 0.81044 0.02305 0.35099 0.0
C826 C 0.80759 -0.00138 0.39232 0.0
C827 C 0.78744 0.01501 0.40115 0.0
C828 C 0.7794 0.03606 0.38493 0.0
C829 C 0.79084 0.04007 0.36004 0.0
C830 C 0.73155 0.9953 0.446 0.0
C831 C 0.74597 0.98393 0.46761 0.0
C832 C 0.74513 0.00713 0.42522 0.0
C833 C 0.77341 0.00801 0.42578 0.0
C834 C 0.78787 -0.00129 0.4486 0.0
C835 C 0.77431 0.98663 0.4692 0.0
H836 H 0.76813 0.15252 0.094 0.0
H837 H 0.8394 0.11414 0.07076 0.0
H838 H 0.77262 0.13306 0.13861 0.0
H839 H 0.84432 0.09568 0.11522 0.0
H840 H 0.83397 0.04513 0.18723 0.0
H841 H 0.82534 0.0625 0.14244 0.0
H842 H 0.80083 0.13773 0.18106 0.0
H843 H 0.8086 0.11983 0.22603 0.0
C844 C 0.78467 0.1399 0.09832 0.0
C845 C 0.80334 0.13489 0.07869 0.0
C846 C 0.78738 0.12893 0.12398 0.0
C847 C 0.80885 0.11277 0.13058 0.0
C848 C 0.82726 0.10758 0.11078 0.0
C849 C 0.82449 0.11836 0.08521 0.0
C850 C 0.82677 0.0654 0.18622 0.0
C851 C 0.82216 0.08116 0.21025 0.0
C852 C 0.82188 0.07542 0.16048 0.0
C853 C 0.81253 0.10163 0.15805 0.0
C854 C 0.8077 0.11734 0.1821 0.0
C855 C 0.81238 0.10718 0.20791 0.0
H856 H 0.64484 0.07279 0.84536 0.0
H857 H 0.68417 0.00067 0.8673 0.0
H858 H 0.67542 0.10089 0.87895 0.0
H859 H 0.71422 0.02865 0.9011 0.0
H860 H 0.78311 0.09171 0.93474 0.0
H861 H 0.7517 0.06331 0.90233 0.0
H862 H 0.68614 0.10942 0.9283 0.0
H863 H 0.71754 0.13818 0.96034 0.0
C864 C 0.65984 0.06288 0.85744 0.0
C865 C 0.66207 0.03446 0.85349 0.0
C866 C 0.67729 0.07898 0.8768 0.0
C867 C 0.69734 0.06702 0.89263 0.0
C868 C 0.6993 0.03858 0.88893 0.0
C869 C 0.68191 0.02251 0.86962 0.0
C870 C 0.76199 0.09574 0.93366 0.0
C871 C 0.75291 0.11729 0.95015 0.0
C872 C 0.74395 0.07938 0.91514 0.0
C873 C 0.7164 0.08414 0.91269 0.0
C874 C 0.70728 0.10546 0.92939 0.0
C875 C 0.7253 0.12183 0.94791 0.0
H876 H 0.60845 0.74468 0.023 0.0
H877 H 0.59253 0.73484 0.93483 0.0
H878 H 0.64953 0.72099 0.01928 0.0
H879 H 0.63343 0.71077 0.9312 0.0
H880 H 0.72156 0.692 0.93266 0.0
H881 H 0.68272 0.71882 0.93771 0.0
H882 H 0.66179 0.67432 0.0073 0.0
H883 H 0.70087 0.64771 0.0026 0.0
C884 C 0.61372 0.73749 0.00281 0.0
C885 C 0.59719 0.74159 0.9792 0.0
C886 C 0.63719 0.72379 0.00072 0.0
C887 C 0.64468 0.71395 0.97497 0.0
C888 C 0.62836 0.71839 0.95132 0.0
C889 C 0.60485 0.73204 0.95341 0.0
C890 C 0.70881 0.68801 0.94918 0.0
C891 C 0.71432 0.66759 0.96717 0.0
C892 C 0.68645 0.70329 0.95194 0.0
C893 C 0.66911 0.69858 0.97279 0.0
C894 C 0.67492 0.67861 0.99117 0.0
C895 C 0.69726 0.66327 0.98838 0.0
H896 H 0.10862 0.05191 0.72798 0.0
H897 H 0.0804 0.03624 0.80727 0.0
H898 H 0.08391 0.09306 0.72745 0.0
H899 H 0.05668 0.07766 0.80721 0.0
H900 H 0.0128 0.15162 0.80419 0.0
H901 H 0.02248 0.10486 0.78995 0.0
H902 H 0.09265 0.13659 0.75176 0.0
H903 H 0.08249 0.18292 0.76497 0.0
C904 C 0.09693 0.05705 0.74516 0.0
C905 C 0.09693 0.04104 0.7679 0.0
C906 C 0.0828 0.08069 0.74489 0.0
C907 C 0.06859 0.08896 0.76745 0.0
C908 C 0.06713 0.07188 0.78932 0.0
C909 C 0.08102 0.04816 0.78948 0.0
C910 C 0.02984 0.1486 0.79206 0.0
C911 C 0.04722 0.17101 0.78628 0.0
C912 C 0.0355 0.12178 0.78407 0.0
C913 C 0.05867 0.11687 0.7702 0.0
C914 C 0.07457 0.13944 0.76229 0.0
C915 C 0.06886 0.16615 0.77014 0.0
H916 H 0.94989 0.29968 0.51673 0.0
H917 H 0.9517 0.21305 0.49482 0.0
H918 H 0.90343 0.29222 0.52874 0.0
H919 H 0.90459 0.20561 0.50608 0.0
H920 H 0.8185 0.23659 0.46885 0.0
H921 H 0.86592 0.22766 0.47599 0.0
H922 H 0.86864 0.26545 0.55851 0.0
H923 H 0.82064 0.27359 0.55154 0.0
C924 C 0.94051 0.27892 0.51529 0.0
C925 C 0.95411 0.25694 0.50477 0.0
C926 C 0.91404 0.27461 0.52237 0.0
C927 C 0.90054 0.24833 0.51838 0.0
C928 C 0.91474 0.226 0.50954 0.0
C929 C 0.94156 0.23024 0.5031 0.0
C930 C 0.82898 0.24188 0.48888 0.0
C931 C 0.81619 0.25572 0.50966 0.0
C932 C 0.85601 0.23663 0.49304 0.0
C933 C 0.87083 0.24587 0.5178 0.0
C934 C 0.85749 0.25796 0.53934 0.0
C935 C 0.83015 0.26257 0.53538 0.0
H936 H 0.59101 0.92498 0.81308 0.0
H937 H 0.54053 0.9805 0.85381 0.0
H938 H 0.57609 0.88878 0.84146 0.0
H939 H 0.52577 0.94427 0.88242 0.0
H940 H 0.48075 0.8646 0.90274 0.0
H941 H 0.4978 0.901 0.87592 0.0
H942 H 0.57847 0.8751 0.88886 0.0
H943 H 0.56135 0.83816 0.91553 0.0
C944 C 0.57701 0.9296 0.82835 0.0
C945 C 0.567 0.95567 0.83122 0.0
C946 C 0.5685 0.90883 0.84466 0.0
C947 C 0.54969 0.91361 0.86415 0.0
C948 C 0.54 0.93982 0.86732 0.0
C949 C 0.54856 0.96062 0.85103 0.0
C950 C 0.50215 0.86653 0.8999 0.0
C951 C 0.51968 0.84838 0.91137 0.0
C952 C 0.51194 0.8876 0.88466 0.0
C953 C 0.53951 0.89111 0.88045 0.0
C954 C 0.55707 0.87282 0.89161 0.0
C955 C 0.54726 0.8517 0.90695 0.0
H956 H -0.00079 0.1978 0.39953 0.0
H957 H 0.91981 0.22723 0.38765 0.0
H958 H 0.9837 0.15581 0.37154 0.0
H959 H 0.90422 0.18505 0.36024 0.0
H960 H 0.88537 0.11184 0.2995 0.0
H961 H 0.9067 0.15634 0.31821 0.0
H962 H 0.95441 0.11597 0.37813 0.0
H963 H 0.9337 0.07175 0.35921 0.0
C964 C 0.97851 0.19546 0.3908 0.0
C965 C 0.96073 0.21587 0.39613 0.0
C966 C 0.96958 0.1713 0.37483 0.0
C967 C 0.94263 0.16689 0.36379 0.0
C968 C 0.92518 0.18781 0.36813 0.0
C969 C 0.93411 0.21199 0.38407 0.0
C970 C 0.9008 0.11243 0.31631 0.0
C971 C 0.90762 0.08817 0.32797 0.0
C972 C 0.91287 0.13798 0.32719 0.0
C973 C 0.93213 0.13981 0.34985 0.0
C974 C 0.93989 0.11541 0.36053 0.0
C975 C 0.92782 0.08997 0.34975 0.0
H976 H 0.59097 0.10306 0.75108 0.0
H977 H 0.50999 0.08106 0.77244 0.0
H978 H 0.57601 0.14556 0.73375 0.0
H979 H 0.49513 0.12333 0.75508 0.0
H980 H 0.48607 0.2154 0.74875 0.0
H981 H 0.50173 0.17359 0.76654 0.0
H982 H 0.54572 0.15963 0.69472 0.0
H983 H 0.53012 0.2016 0.67685 0.0
C984 C 0.57005 0.10734 0.75223 0.0
C985 C 0.55169 0.08867 0.76317 0.0
C986 C 0.56144 0.13157 0.74211 0.0
C987 C 0.53437 0.13776 0.74298 0.0
C988 C 0.51616 0.11928 0.75432 0.0
C989 C 0.52468 0.09499 0.76418 0.0
C990 C 0.49902 0.2034 0.73668 0.0
C991 C 0.5068 0.21184 0.71135 0.0
C992 C 0.50792 0.17939 0.74685 0.0
C993 C 0.52501 0.16333 0.73207 0.0
C994 C 0.5328 0.17173 0.70673 0.0
C995 C 0.52368 0.19565 0.6964 0.0
H996 H 0.19986 0.35338 0.94301 0.0
H997 H 0.14352 0.41022 0.9709 0.0
H998 H 0.16464 0.32957 0.91178 0.0
H999 H 0.10833 0.38717 0.93849 0.0
H1000 H 0.04704 0.31274 0.91229 0.0
H1001 H 0.08139 0.34545 0.93585 0.0
H1002 H 0.13509 0.32813 0.87237 0.0
H1003 H 0.10118 0.29436 0.84969 0.0
C1004 C 0.18008 0.36125 0.94196 0.0
C1005 C 0.17443 0.38352 0.95966 0.0
C1006 C 0.15984 0.34769 0.92382 0.0
C1007 C 0.13347 0.35627 0.92266 0.0
C1008 C 0.12825 0.37963 0.93921 0.0
C1009 C 0.14849 0.39302 0.95765 0.0
C1010 C 0.06607 0.31618 0.90318 0.0
C1011 C 0.07152 0.30065 0.87932 0.0
C1012 C 0.08575 0.33514 0.91659 0.0
C1013 C 0.11123 0.3393 0.90622 0.0
C1014 C 0.11597 0.32499 0.88134 0.0
C1015 C 0.09644 0.30569 0.8682 0.0
H1016 H 0.44848 0.68703 0.3687 0.0
H1017 H 0.43335 0.77291 0.37402 0.0
H1018 H 0.40789 0.6765 0.3922 0.0
H1019 H 0.39305 0.76238 0.39791 0.0
H1020 H 0.3132 0.73156 0.43014 0.0
H1021 H 0.34724 0.73887 0.39709 0.0
H1022 H 0.39887 0.68625 0.44018 0.0
H1023 H 0.36532 0.6791 0.47289 0.0
C1024 C 0.4363 0.70361 0.37447 0.0
C1025 C 0.44441 0.73087 0.36983 0.0
C1026 C 0.4131 0.69759 0.38808 0.0
C1027 C 0.39747 0.71866 0.39732 0.0
C1028 C 0.40456 0.74565 0.391 0.0
C1029 C 0.42778 0.7517 0.37741 0.0
C1030 C 0.33174 0.72141 0.43237 0.0
C1031 C 0.3364 0.70456 0.45406 0.0
C1032 C 0.35124 0.72562 0.41347 0.0
C1033 C 0.37567 0.71292 0.41584 0.0
C1034 C 0.38005 0.69584 0.43734 0.0
C1035 C 0.36075 0.6918 0.45622 0.0
H1036 H 0.84456 0.46823 0.81351 0.0
H1037 H 0.8801 0.54544 0.78992 0.0
H1038 H 0.82707 0.49186 0.85279 0.0
H1039 H 0.86237 0.56916 0.82965 0.0
H1040 H 0.79913 0.59974 0.88996 0.0
H1041 H 0.81854 0.57996 0.84948 0.0
H1042 H 0.84786 0.51549 0.89664 0.0
H1043 H 0.82845 0.53518 0.93714 0.0
C1044 C 0.84848 0.49031 0.81651 0.0
C1045 C 0.86399 0.50487 0.79858 0.0
C1046 C 0.83861 0.50381 0.83923 0.0
C1047 C 0.84381 0.53227 0.84462 0.0
C1048 C 0.85814 0.54717 0.82604 0.0
C1049 C 0.86821 0.53358 0.80326 0.0
C1050 C 0.81012 0.58162 0.89187 0.0
C1051 C 0.81215 0.56898 0.9168 0.0
C1052 C 0.82124 0.57031 0.86863 0.0
C1053 C 0.8344 0.54599 0.86979 0.0
C1054 C 0.8374 0.534 0.89501 0.0
C1055 C 0.82645 0.54539 0.91826 0.0
H1056 H 0.67783 0.50431 0.16198 0.0
H1057 H 0.76013 0.51397 0.19762 0.0
H1058 H 0.69291 0.52101 0.11923 0.0
H1059 H 0.77502 0.53084 0.15523 0.0
H1060 H 0.79543 0.53154 0.06568 0.0
H1061 H 0.77972 0.51419 0.10765 0.0
H1062 H 0.7119 0.56414 0.10171 0.0
H1063 H 0.72745 0.58135 0.05948 0.0
C1064 C 0.69911 0.50991 0.16069 0.0
C1065 C 0.71776 0.50776 0.18322 0.0
C1066 C 0.70772 0.51966 0.13627 0.0
C1067 C 0.73518 0.52727 0.13382 0.0
C1068 C 0.75379 0.52486 0.1563 0.0
C1069 C 0.74519 0.51529 0.18068 0.0
C1070 C 0.77721 0.53891 0.07333 0.0
C1071 C 0.76274 0.55788 0.0592 0.0
C1072 C 0.76825 0.52902 0.09746 0.0
C1073 C 0.74452 0.53774 0.10802 0.0
C1074 C 0.73006 0.55676 0.09394 0.0
C1075 C 0.73912 0.56679 0.06986 0.0
H1076 H 0.7089 0.34962 0.43108 0.0
H1077 H 0.78933 0.3609 0.40376 0.0
H1078 H 0.69194 0.37625 0.39408 0.0
H1079 H 0.77245 0.3877 0.36729 0.0
H1080 H 0.72925 0.41033 0.28811 0.0
H1081 H 0.74404 0.38163 0.32425 0.0
H1082 H 0.69509 0.42358 0.38045 0.0
H1083 H 0.68018 0.45205 0.34439 0.0
C1084 C 0.72299 0.35785 0.41732 0.0
C1085 C 0.75048 0.35304 0.42043 0.0
C1086 C 0.71328 0.37317 0.39617 0.0
C1087 C 0.73083 0.38394 0.37765 0.0
C1088 C 0.75831 0.37929 0.3809 0.0
C1089 C 0.76801 0.36406 0.402 0.0
C1090 C 0.72155 0.41332 0.30813 0.0
C1091 C 0.70345 0.43339 0.31332 0.0
C1092 C 0.7301 0.39697 0.32887 0.0
C1093 C 0.72076 0.40037 0.35524 0.0
C1094 C 0.70237 0.42018 0.36027 0.0
C1095 C 0.69386 0.43654 0.33957 0.0
H1096 H 0.83055 0.4081 0.68827 0.0
H1097 H 0.87921 0.46636 0.64671 0.0
H1098 H 0.81009 0.38794 0.64442 0.0
H1099 H 0.85813 0.44642 0.60254 0.0
H1100 H 0.84778 0.37368 0.53485 0.0
H1101 H 0.86186 0.40337 0.57595 0.0
H1102 H 0.7816 0.39228 0.60345 0.0
H1103 H 0.7676 0.362 0.56256 0.0
C1104 C 0.83647 0.41705 0.66979 0.0
C1105 C 0.8568 0.43868 0.67107 0.0
C1106 C 0.82456 0.40555 0.64455 0.0
C1107 C 0.83263 0.41534 0.61986 0.0
C1108 C 0.85176 0.43809 0.62116 0.0
C1109 C 0.86366 0.4497 0.6465 0.0
C1110 C 0.83299 0.37778 0.54946 0.0
C1111 C 0.80661 0.36511 0.54547 0.0
C1112 C 0.84104 0.39504 0.57299 0.0
C1113 C 0.82293 0.40014 0.59315 0.0
C1114 C 0.7962 0.38847 0.58856 0.0
C1115 C 0.78814 0.37116 0.56503 0.0
H1116 H 0.43368 0.04486 0.16765 0.0
H1117 H 0.46903 0.0801 0.24651 0.0
H1118 H 0.44395 0.08848 0.14777 0.0
H1119 H 0.47927 0.12355 0.22659 0.0
H1120 H 0.45255 0.20275 0.18778 0.0
H1121 H 0.45037 0.15884 0.20821 0.0
H1122 H 0.48339 0.12109 0.13708 0.0
H1123 H 0.48566 0.16531 0.11647 0.0
C1124 C 0.44375 0.06184 0.1807 0.0
C1125 C 0.45035 0.05907 0.20871 0.0
C1126 C 0.44984 0.08672 0.16926 0.0
C1127 C 0.46243 0.1094 0.18564 0.0
C1128 C 0.46941 0.10647 0.21352 0.0
C1129 C 0.46356 0.08156 0.22489 0.0
C1130 C 0.45976 0.18521 0.17664 0.0
C1131 C 0.46915 0.18747 0.15044 0.0
C1132 C 0.45861 0.16006 0.18842 0.0
C1133 C 0.46654 0.1365 0.17416 0.0
C1134 C 0.47691 0.1389 0.1484 0.0
C1135 C 0.47842 0.16423 0.13673 0.0
H1136 H 0.04652 0.8111 0.62217 0.0
H1137 H 0.98295 0.8325 0.67346 0.0
H1138 H 0.07853 0.84264 0.65096 0.0
H1139 H 0.01484 0.86432 0.70182 0.0
H1140 H 0.08324 0.89816 0.76297 0.0
H1141 H 0.05367 0.86435 0.73453 0.0
H1142 H 0.08854 0.89203 0.66206 0.0
H1143 H 0.11868 0.92572 0.69064 0.0
C1144 C 0.03933 0.82248 0.63957 0.0
C1145 C 0.01211 0.8192 0.64549 0.0
C1146 C 0.05768 0.8407 0.65596 0.0
C1147 C 0.04925 0.856 0.67868 0.0
C1148 C 0.02209 0.85256 0.6847 0.0
C1149 C 0.00375 0.83439 0.66833 0.0
C1150 C 0.08477 0.89705 0.74098 0.0
C1151 C 0.10328 0.91485 0.72911 0.0
C1152 C 0.06766 0.87771 0.72466 0.0
C1153 C 0.06855 0.87565 0.69601 0.0
C1154 C 0.08749 0.89295 0.68411 0.0
C1155 C 0.10469 0.91235 0.70048 0.0
H1156 H 0.48077 0.772 0.28924 0.0
H1157 H 0.55573 0.81658 0.27433 0.0
H1158 H 0.45575 0.80472 0.26453 0.0
H1159 H 0.53074 0.84987 0.25066 0.0
H1160 H 0.48036 0.90494 0.20339 0.0
H1161 H 0.50121 0.86263 0.21341 0.0
H1162 H 0.44746 0.8506 0.27776 0.0
H1163 H 0.42661 0.89193 0.26751 0.0
C1164 C 0.49191 0.78865 0.2805 0.0
C1165 C 0.5202 0.79198 0.28416 0.0
C1166 C 0.47758 0.80744 0.26638 0.0
C1167 C 0.4912 0.8302 0.25601 0.0
C1168 C 0.51957 0.83249 0.25815 0.0
C1169 C 0.53392 0.81349 0.27196 0.0
C1170 C 0.47271 0.89287 0.21926 0.0
C1171 C 0.45187 0.90184 0.23467 0.0
C1172 C 0.48471 0.86873 0.22509 0.0
C1173 C 0.47606 0.85322 0.24644 0.0
C1174 C 0.45435 0.86163 0.26084 0.0
C1175 C 0.44241 0.88557 0.25501 0.0
H1176 H 0.82899 0.64461 0.04235 0.0
H1177 H 0.85381 0.68925 0.9741 0.0
H1178 H 0.86003 0.67512 0.07359 0.0
H1179 H 0.88492 0.71917 0.0051 0.0
H1180 H 0.91294 0.7875 0.06936 0.0
H1181 H 0.88183 0.75544 0.04055 0.0
H1182 H 0.90823 0.68864 0.0862 0.0
H1183 H 0.93925 0.72093 0.11558 0.0
C1184 C 0.8412 0.66072 0.03395 0.0
C1185 C 0.83869 0.66456 0.00568 0.0
C1186 C 0.85906 0.67815 0.05186 0.0
C1187 C 0.87473 0.69981 0.04191 0.0
C1188 C 0.87273 0.7031 0.01357 0.0
C1189 C 0.85496 0.68576 0.99573 0.0
C1190 C 0.91212 0.76602 0.07343 0.0
C1191 C 0.9288 0.75684 0.09475 0.0
C1192 C 0.89435 0.74757 0.05674 0.0
C1193 C 0.89276 0.71939 0.06081 0.0
C1194 C 0.90887 0.71022 0.08258 0.0
C1195 C 0.92672 0.72874 0.09936 0.0
H1196 H 0.54541 0.3303 0.57052 0.0
H1197 H 0.56557 0.26283 0.61866 0.0
H1198 H 0.5859 0.32558 0.54623 0.0
H1199 H 0.60635 0.25848 0.59455 0.0
H1200 H 0.66307 0.24199 0.52684 0.0
H1201 H 0.62115 0.24534 0.54914 0.0
H1202 H 0.63476 0.33372 0.55639 0.0
H1203 H 0.67651 0.33043 0.53366 0.0
C1204 C 0.55841 0.31442 0.57592 0.0
C1205 C 0.55223 0.297 0.59665 0.0
C1206 C 0.58173 0.31185 0.56208 0.0
C1207 C 0.59941 0.29179 0.56859 0.0
C1208 C 0.593 0.274 0.58891 0.0
C1209 C 0.56966 0.27657 0.6028 0.0
C1210 C 0.65711 0.26215 0.53312 0.0
C1211 C 0.67312 0.28596 0.52848 0.0
C1212 C 0.63316 0.26404 0.54604 0.0
C1213 C 0.62467 0.28977 0.55454 0.0
C1214 C 0.6406 0.3136 0.54976 0.0
C1215 C 0.66459 0.31171 0.53687 0.0
H1216 H 0.22595 0.44274 0.10959 0.0
H1217 H 0.18617 0.50998 0.0765 0.0
H1218 H 0.21517 0.45795 0.15525 0.0
H1219 H 0.17689 0.52663 0.12264 0.0
H1220 H 0.12361 0.51487 0.19484 0.0
H1221 H 0.14567 0.51329 0.15231 0.0
H1222 H 0.217 0.48605 0.19475 0.0
H1223 H 0.19385 0.4858 0.2369 0.0
C1224 C 0.21579 0.46146 0.11226 0.0
C1225 C 0.20646 0.47489 0.08946 0.0
C1226 C 0.20967 0.47037 0.1386 0.0
C1227 C 0.19457 0.49332 0.14282 0.0
C1228 C 0.1877 0.50834 0.12018 0.0
C1229 C 0.19324 0.499 0.09373 0.0
C1230 C 0.14417 0.50899 0.19512 0.0
C1231 C 0.15685 0.49997 0.21897 0.0
C1232 C 0.15702 0.50827 0.17071 0.0
C1233 C 0.18314 0.49911 0.16976 0.0
C1234 C 0.19662 0.49237 0.19436 0.0
C1235 C 0.18346 0.4924 0.2186 0.0
H1236 H 0.29198 0.56364 0.85217 0.0
H1237 H 0.33924 0.49397 0.8623 0.0
H1238 H 0.27111 0.55493 0.89481 0.0
H1239 H 0.31824 0.48496 0.90395 0.0
H1240 H 0.28547 0.47534 0.98323 0.0
H1241 H 0.31204 0.4981 0.9503 0.0
H1242 H 0.23875 0.52068 0.90792 0.0
H1243 H 0.21237 0.49901 0.9414 0.0
C1244 C 0.29818 0.54675 0.86365 0.0
C1245 C 0.31722 0.52949 0.85383 0.0
C1246 C 0.28617 0.54168 0.88799 0.0
C1247 C 0.29295 0.51921 0.90283 0.0
C1248 C 0.31286 0.50277 0.89348 0.0
C1249 C 0.32485 0.50788 0.86936 0.0
C1250 C 0.27509 0.48561 0.96717 0.0
C1251 C 0.2468 0.48495 0.96464 0.0
C1252 C 0.2903 0.49859 0.94824 0.0
C1253 C 0.27752 0.5108 0.92614 0.0
C1254 C 0.24933 0.51171 0.92475 0.0
C1255 C 0.23415 0.49905 0.94388 0.0
H1256 H 0.28325 0.65664 0.5974 0.0
H1257 H 0.31735 0.58831 0.55559 0.0
H1258 H 0.28758 0.63405 0.6405 0.0
H1259 H 0.32156 0.56593 0.59835 0.0
H1260 H 0.30333 0.5225 0.67468 0.0
H1261 H 0.29303 0.54484 0.63264 0.0
H1262 H 0.32774 0.62221 0.67191 0.0
H1263 H 0.33811 0.59987 0.71416 0.0
C1264 C 0.29124 0.63665 0.59731 0.0
C1265 C 0.30005 0.6243 0.57313 0.0
C1266 C 0.29393 0.62386 0.62199 0.0
C1267 C 0.30501 0.5983 0.62278 0.0
C1268 C 0.31277 0.58553 0.59836 0.0
C1269 C 0.31046 0.59843 0.57388 0.0
C1270 C 0.30872 0.54429 0.67444 0.0
C1271 C 0.32171 0.55937 0.69773 0.0
C1272 C 0.30283 0.55706 0.65033 0.0
C1273 C 0.30956 0.58525 0.64901 0.0
C1274 C 0.32206 0.6005 0.67244 0.0
C1275 C 0.32821 0.58766 0.69653 0.0
H1276 H 0.19751 0.5146 0.33791 0.0
H1277 H 0.13067 0.56091 0.35947 0.0
H1278 H 0.22737 0.543 0.37135 0.0
H1279 H 0.16021 0.58853 0.39449 0.0
H1280 H 0.22652 0.6495 0.43756 0.0
H1281 H 0.19539 0.62255 0.40367 0.0
H1282 H 0.23885 0.55081 0.41761 0.0
H1283 H 0.27078 0.57827 0.45 0.0
C1284 C 0.18915 0.53074 0.35012 0.0
C1285 C 0.16176 0.53548 0.3462 0.0
C1286 C 0.20624 0.54693 0.36954 0.0
C1287 C 0.19627 0.56792 0.38612 0.0
C1288 C 0.16879 0.57281 0.38198 0.0
C1289 C 0.15177 0.55692 0.36201 0.0
C1290 C 0.2293 0.62793 0.43334 0.0
C1291 C 0.25121 0.61602 0.4462 0.0
C1292 C 0.21136 0.61239 0.414 0.0
C1293 C 0.21461 0.58443 0.40752 0.0
C1294 C 0.23605 0.57241 0.42129 0.0
C1295 C 0.2543 0.58809 0.4401 0.0
loop_
_geom_bond_atom_site_label_1
_geom_bond_atom_site_label_2
_geom_bond_distance
_geom_bond_site_symmetry_2
_ccdc_geom_bond_type
Mg0 O1 2.028 . S
Mg0 O7 1.986 . S
Mg0 O9 2.114 1_455 S
Mg0 O10 2.251 1_455 S
Mg0 O13 2.010 . S
O1 Mg0 2.028 . S
O1 C4 1.250 1_455 S
O2 Mg3 2.028 . S
O2 C4 1.248 . S
Mg3 O2 2.028 . S
Mg3 O8 2.069 . S
Mg3 O10 2.079 . S
C4 O1 1.250 1_655 S
C4 O2 1.248 . S
C5 O6 1.264 . S
C5 O13 1.249 . S
O6 C5 1.264 . S
O7 Mg0 1.986 . S
O7 C11 1.246 . S
O8 Mg3 2.069 . S
O8 C11 1.220 1_655 S
O9 Mg0 2.114 1_655 S
O9 C12 1.252 . S
O10 Mg0 2.251 1_655 S
O10 Mg3 2.079 . S
O10 C12 1.273 . S
C11 O7 1.246 . S
C11 O8 1.220 1_455 S
C12 O9 1.252 . S
C12 O10 1.273 . S
O13 Mg0 2.010 . S
O13 C5 1.249 . S
Mg14 O15 2.028 . S
Mg14 O21 1.986 . S
Mg14 O23 2.114 1_455 S
Mg14 O24 2.251 1_455 S
Mg14 O27 2.010 . S
O15 Mg14 2.028 . S
O15 C18 1.250 . S
O16 Mg17 2.028 1_455 S
O16 C18 1.248 . S
Mg17 O16 2.028 1_655 S
Mg17 O22 2.032 . S
Mg17 O24 2.079 . S
C18 O15 1.250 . S
C18 O16 1.248 . S
C19 O20 1.264 . S
C19 O27 1.249 . S
O20 C19 1.264 . S
O21 Mg14 1.986 . S
O21 C25 1.246 1_455 S
O22 Mg17 2.032 . S
O22 C25 1.259 . S
O23 Mg14 2.114 1_655 S
O23 C26 1.252 . S
O24 Mg14 2.251 1_655 S
O24 Mg17 2.079 . S
O24 C26 1.273 . S
C25 O21 1.246 1_655 S
C25 O22 1.259 . S
C26 O23 1.252 . S
C26 O24 1.273 . S
O27 Mg14 2.010 . S
O27 C19 1.249 . S
Mg28 O29 2.028 . S
Mg28 O35 1.986 . S
Mg28 O37 2.114 . S
Mg28 O38 2.251 . S
Mg28 O41 2.010 . S
O29 Mg28 2.028 . S
O29 C32 1.250 . S
O30 Mg31 2.028 . S
O30 C32 1.248 . S
Mg31 O30 2.028 . S
Mg31 O36 2.032 . S
Mg31 O38 2.079 . S
C32 O29 1.250 . S
C32 O30 1.248 . S
C33 O34 1.264 . S
C33 O41 1.249 . S
O34 C33 1.264 . S
O35 Mg28 1.986 . S
O35 C39 1.246 . S
O36 Mg31 2.032 . S
O36 C39 1.259 . S
O37 Mg28 2.114 . S
O37 C40 1.252 . S
O38 Mg28 2.251 . S
O38 Mg31 2.079 . S
O38 C40 1.273 . S
C39 O35 1.246 . S
C39 O36 1.259 . S
C40 O37 1.252 . S
C40 O38 1.273 . S
O41 Mg28 2.010 . S
O41 C33 1.249 . S
Mg42 O43 2.028 . S
Mg42 O49 1.986 . S
Mg42 O51 2.114 . S
Mg42 O52 2.251 . S
Mg42 O55 2.010 . S
O43 Mg42 2.028 . S
O43 C46 1.250 . S
O44 Mg45 2.028 . S
O44 C46 1.248 . S
Mg45 O44 2.028 . S
Mg45 O50 2.032 . S
Mg45 O52 2.079 . S
C46 O43 1.250 . S
C46 O44 1.248 . S
C47 O48 1.264 . S
C47 O55 1.249 . S
O48 C47 1.264 . S
O49 Mg42 1.986 . S
O49 C53 1.246 . S
O50 Mg45 2.032 . S
O50 C53 1.259 . S
O51 Mg42 2.114 . S
O51 C54 1.252 . S
O52 Mg42 2.251 . S
O52 Mg45 2.079 . S
O52 C54 1.273 . S
C53 O49 1.246 . S
C53 O50 1.259 . S
C54 O51 1.252 . S
C54 O52 1.273 . S
O55 Mg42 2.010 . S
O55 C47 1.249 . S
Mg56 O57 2.028 1_455 S
Mg56 O63 1.986 . S
Mg56 O65 2.114 1_455 S
Mg56 O66 2.251 1_455 S
Mg56 O69 2.010 . S
O57 Mg56 2.028 1_655 S
O57 C60 1.250 . S
O58 Mg59 2.028 . S
O58 C60 1.248 . S
Mg59 O58 2.028 . S
Mg59 O64 2.032 1_655 S
Mg59 O66 2.079 . S
C60 O57 1.250 . S
C60 O58 1.248 . S
C61 O62 1.264 . S
C61 O69 1.249 . S
O62 C61 1.264 . S
O63 Mg56 1.986 . S
O63 C67 1.246 . S
O64 Mg59 2.032 1_455 S
O64 C67 1.259 . S
O65 Mg56 2.114 1_655 S
O65 C68 1.252 . S
O66 Mg56 2.251 1_655 S
O66 Mg59 2.079 . S
O66 C68 1.273 . S
C67 O63 1.246 . S
C67 O64 1.259 . S
C68 O65 1.252 . S
C68 O66 1.273 . S
O69 Mg56 2.010 . S
O69 C61 1.249 . S
Mg70 O71 2.028 . S
Mg70 O77 1.986 . S
Mg70 O79 2.114 . S
Mg70 O80 2.251 . S
Mg70 O83 2.010 . S
O71 Mg70 2.028 . S
O71 C74 1.250 . S
O72 Mg73 2.028 . S
O72 C74 1.248 . S
Mg73 O72 2.028 . S
Mg73 O78 2.032 . S
Mg73 O80 2.079 . S
C74 O71 1.250 . S
C74 O72 1.248 . S
C75 O76 1.264 . S
C75 O83 1.249 . S
O76 C75 1.264 . S
O77 Mg70 1.986 . S
O77 C81 1.246 . S
O78 Mg73 2.032 . S
O78 C81 1.259 . S
O79 Mg70 2.114 . S
O79 C82 1.252 . S
O80 Mg70 2.251 . S
O80 Mg73 2.079 . S
O80 C82 1.273 . S
C81 O77 1.246 . S
C81 O78 1.259 . S
C82 O79 1.252 . S
C82 O80 1.273 . S
O83 Mg70 2.010 . S
O83 C75 1.249 . S
Mg84 O85 2.028 . S
Mg84 O91 1.986 . S
Mg84 O93 2.114 . S
Mg84 O94 2.251 . S
Mg84 O97 2.010 . S
O85 Mg84 2.028 . S
O85 C88 1.250 . S
O86 Mg87 2.028 . S
O86 C88 1.248 . S
Mg87 O86 2.028 . S
Mg87 O92 2.032 . S
Mg87 O94 2.079 . S
C88 O85 1.250 . S
C88 O86 1.248 . S
C89 O90 1.264 . S
C89 O97 1.249 . S
O90 C89 1.264 . S
O91 Mg84 1.986 . S
O91 C95 1.246 . S
O92 Mg87 2.032 . S
O92 C95 1.259 . S
O93 Mg84 2.114 . S
O93 C96 1.252 . S
O94 Mg84 2.251 . S
O94 Mg87 2.079 . S
O94 C96 1.273 . S
C95 O91 1.246 . S
C95 O92 1.259 . S
C96 O93 1.252 . S
C96 O94 1.273 . S
O97 Mg84 2.010 . S
O97 C89 1.249 . S
Mg98 O99 2.028 1_455 S
Mg98 O105 1.986 . S
Mg98 O107 2.114 . S
Mg98 O108 2.251 . S
Mg98 O111 2.010 1_455 S
O99 Mg98 2.028 1_655 S
O99 C102 1.250 . S
O100 Mg101 2.028 . S
O100 C102 1.248 1_455 S
Mg101 O100 2.028 . S
Mg101 O106 2.032 . S
Mg101 O108 2.079 . S
C102 O99 1.250 . S
C102 O100 1.248 1_655 S
C103 O104 1.264 . S
C103 O111 1.249 . S
O104 C103 1.264 . S
O105 Mg98 1.986 . S
O105 C109 1.246 . S
O106 Mg101 2.032 . S
O106 C109 1.259 . S
O107 Mg98 2.114 . S
O107 C110 1.252 . S
O108 Mg98 2.251 . S
O108 Mg101 2.079 . S
O108 C110 1.273 . S
C109 O105 1.246 . S
C109 O106 1.259 . S
C110 O107 1.252 . S
C110 O108 1.273 . S
O111 Mg98 2.010 1_655 S
O111 C103 1.249 . S
Mg112 O113 2.028 1_545 S
Mg112 O119 1.986 . S
Mg112 O121 2.114 1_545 S
Mg112 O122 2.251 1_545 S
Mg112 O125 2.010 . S
O113 Mg112 2.028 1_565 S
O113 C116 1.250 . S
O114 Mg115 2.028 . S
O114 C116 1.248 . S
Mg115 O114 2.028 . S
Mg115 O120 2.032 . S
Mg115 O122 2.079 . S
C116 O113 1.250 . S
C116 O114 1.248 . S
C117 O118 1.264 . S
C117 O125 1.249 . S
O118 C117 1.264 . S
O119 Mg112 1.986 . S
O119 C123 1.246 . S
O120 Mg115 2.032 . S
O120 C123 1.259 1_565 S
O121 Mg112 2.114 1_565 S
O121 C124 1.252 . S
O122 Mg112 2.251 1_565 S
O122 Mg115 2.079 . S
O122 C124 1.273 . S
C123 O119 1.246 . S
C123 O120 1.259 1_545 S
C124 O121 1.252 . S
C124 O122 1.273 . S
O125 Mg112 2.010 . S
O125 C117 1.249 . S
Mg126 O127 2.028 . S
Mg126 O133 1.986 . S
Mg126 O135 2.114 . S
Mg126 O136 2.251 . S
Mg126 O139 2.010 . S
O127 Mg126 2.028 . S
O127 C130 1.250 . S
O128 Mg129 2.028 . S
O128 C130 1.248 . S
Mg129 O128 2.028 . S
Mg129 O134 2.032 . S
Mg129 O136 2.079 . S
C130 O127 1.250 . S
C130 O128 1.248 . S
C131 O132 1.264 . S
C131 O139 1.249 . S
O132 C131 1.264 . S
O133 Mg126 1.986 . S
O133 C137 1.246 . S
O134 Mg129 2.032 . S
O134 C137 1.259 . S
O135 Mg126 2.114 . S
O135 C138 1.252 . S
O136 Mg126 2.251 . S
O136 Mg129 2.079 . S
O136 C138 1.273 . S
C137 O133 1.246 . S
C137 O134 1.259 . S
C138 O135 1.252 . S
C138 O136 1.273 . S
O139 Mg126 2.010 . S
O139 C131 1.249 . S
Mg140 O141 2.028 1_545 S
Mg140 O147 1.986 . S
Mg140 O149 2.114 1_545 S
Mg140 O150 2.251 1_545 S
Mg140 O153 2.010 . S
O141 Mg140 2.028 1_565 S
O141 C144 1.250 . S
O142 Mg143 2.028 . S
O142 C144 1.248 . S
Mg143 O142 2.028 . S
Mg143 O148 2.032 1_565 S
Mg143 O150 2.079 . S
C144 O141 1.250 . S
C144 O142 1.248 . S
C145 O146 1.264 . S
C145 O153 1.249 . S
O146 C145 1.264 . S
O147 Mg140 1.986 . S
O147 C151 1.246 . S
O148 Mg143 2.032 1_545 S
O148 C151 1.259 . S
O149 Mg140 2.114 1_565 S
O149 C152 1.252 . S
O150 Mg140 2.251 1_565 S
O150 Mg143 2.079 . S
O150 C152 1.273 . S
C151 O147 1.246 . S
C151 O148 1.259 . S
C152 O149 1.252 . S
C152 O150 1.273 . S
O153 Mg140 2.010 . S
O153 C145 1.249 . S
Mg154 O155 2.028 1_556 S
Mg154 O161 1.986 . S
Mg154 O163 2.114 1_556 S
Mg154 O164 2.251 . S
Mg154 O167 2.010 1_556 S
O155 Mg154 2.028 1_554 S
O155 C158 1.250 . S
O156 Mg157 2.028 1_554 S
O156 C158 1.248 . S
Mg157 O156 2.028 1_556 S
Mg157 O162 2.032 . S
Mg157 O164 2.079 . S
C158 O155 1.250 . S
C158 O156 1.248 . S
C159 O160 1.264 . S
C159 O167 1.249 . S
O160 C159 1.264 . S
O161 Mg154 1.986 . S
O161 C165 1.246 . S
O162 Mg157 2.032 . S
O162 C165 1.259 . S
O163 Mg154 2.114 1_554 S
O163 C166 1.252 1_554 S
O164 Mg154 2.251 . S
O164 Mg157 2.079 . S
O164 C166 1.273 . S
C165 O161 1.246 . S
C165 O162 1.259 . S
C166 O163 1.252 1_556 S
C166 O164 1.273 . S
O167 Mg154 2.010 1_554 S
O167 C159 1.249 . S
Mg168 O169 2.028 1_554 S
Mg168 O175 1.986 . S
Mg168 O177 2.114 1_554 S
Mg168 O178 2.251 1_554 S
Mg168 O181 2.010 . S
O169 Mg168 2.028 1_556 S
O169 C172 1.250 . S
O170 Mg171 2.028 . S
O170 C172 1.248 . S
Mg171 O170 2.028 . S
Mg171 O176 2.032 1_556 S
Mg171 O178 2.079 . S
C172 O169 1.250 . S
C172 O170 1.248 . S
C173 O174 1.264 . S
C173 O181 1.249 . S
O174 C173 1.264 . S
O175 Mg168 1.986 . S
O175 C179 1.246 . S
O176 Mg171 2.032 1_554 S
O176 C179 1.259 . S
O177 Mg168 2.114 1_556 S
O177 C180 1.252 . S
O178 Mg168 2.251 1_556 S
O178 Mg171 2.079 . S
O178 C180 1.273 . S
C179 O175 1.246 . S
C179 O176 1.259 . S
C180 O177 1.252 . S
C180 O178 1.273 . S
O181 Mg168 2.010 . S
O181 C173 1.249 . S
Mg182 O183 2.028 1_554 S
Mg182 O189 1.986 . S
Mg182 O191 2.114 1_554 S
Mg182 O192 2.251 1_554 S
Mg182 O195 2.010 . S
O183 Mg182 2.028 1_556 S
O183 C186 1.250 . S
O184 Mg185 2.028 . S
O184 C186 1.248 . S
Mg185 O184 2.028 . S
Mg185 O190 2.032 1_556 S
Mg185 O192 2.079 . S
C186 O183 1.250 . S
C186 O184 1.248 . S
C187 O188 1.264 . S
C187 O195 1.249 . S
O188 C187 1.264 . S
O189 Mg182 1.986 . S
O189 C193 1.246 . S
O190 Mg185 2.032 1_554 S
O190 C193 1.259 . S
O191 Mg182 2.114 1_556 S
O191 C194 1.252 . S
O192 Mg182 2.251 1_556 S
O192 Mg185 2.079 . S
O192 C194 1.273 . S
C193 O189 1.246 . S
C193 O190 1.259 . S
C194 O191 1.252 . S
C194 O192 1.273 . S
O195 Mg182 2.010 . S
O195 C187 1.249 . S
Mg196 O197 2.028 . S
Mg196 O203 1.986 . S
Mg196 O205 2.114 . S
Mg196 O206 2.251 . S
Mg196 O209 2.010 . S
O197 Mg196 2.028 . S
O197 C200 1.250 . S
O198 Mg199 2.028 . S
O198 C200 1.248 . S
Mg199 O198 2.028 . S
Mg199 O204 2.032 . S
Mg199 O206 2.079 . S
C200 O197 1.250 . S
C200 O198 1.248 . S
C201 O202 1.264 . S
C201 O209 1.249 . S
O202 C201 1.264 . S
O203 Mg196 1.986 . S
O203 C207 1.246 . S
O204 Mg199 2.032 . S
O204 C207 1.259 . S
O205 Mg196 2.114 . S
O205 C208 1.252 . S
O206 Mg196 2.251 . S
O206 Mg199 2.079 . S
O206 C208 1.273 . S
C207 O203 1.246 . S
C207 O204 1.259 . S
C208 O205 1.252 . S
C208 O206 1.273 . S
O209 Mg196 2.010 . S
O209 C201 1.249 . S
Mg210 O211 2.028 . S
Mg210 O217 1.986 . S
Mg210 O219 2.114 . S
Mg210 O220 2.251 . S
Mg210 O223 2.010 . S
O211 Mg210 2.028 . S
O211 C214 1.250 . S
O212 Mg213 2.028 . S
O212 C214 1.248 . S
Mg213 O212 2.028 . S
Mg213 O218 2.032 . S
Mg213 O220 2.079 . S
C214 O211 1.250 . S
C214 O212 1.248 . S
C215 O216 1.264 . S
C215 O223 1.249 . S
O216 C215 1.264 . S
O217 Mg210 1.986 . S
O217 C221 1.246 . S
O218 Mg213 2.032 . S
O218 C221 1.259 . S
O219 Mg210 2.114 . S
O219 C222 1.252 . S
O220 Mg210 2.251 . S
O220 Mg213 2.079 . S
O220 C222 1.273 . S
C221 O217 1.246 . S
C221 O218 1.259 . S
C222 O219 1.252 . S
C222 O220 1.273 . S
O223 Mg210 2.010 . S
O223 C215 1.249 . S
Mg224 O225 2.028 . S
Mg224 O231 1.986 1_545 S
Mg224 O233 2.114 . S
Mg224 O234 2.251 1_545 S
Mg224 O237 2.010 . S
O225 Mg224 2.028 . S
O225 C228 1.250 . S
O226 Mg227 2.028 1_545 S
O226 C228 1.248 . S
Mg227 O226 2.028 1_565 S
Mg227 O232 2.032 . S
Mg227 O234 2.079 . S
C228 O225 1.250 . S
C228 O226 1.248 . S
C229 O230 1.264 . S
C229 O237 1.249 . S
O230 C229 1.264 . S
O231 Mg224 1.986 1_565 S
O231 C235 1.246 . S
O232 Mg227 2.032 . S
O232 C235 1.259 . S
O233 Mg224 2.114 . S
O233 C236 1.252 1_545 S
O234 Mg224 2.251 1_565 S
O234 Mg227 2.079 . S
O234 C236 1.273 . S
C235 O231 1.246 . S
C235 O232 1.259 . S
C236 O233 1.252 1_565 S
C236 O234 1.273 . S
O237 Mg224 2.010 . S
O237 C229 1.249 . S
Mg238 O239 2.028 . S
Mg238 O245 1.986 . S
Mg238 O247 2.114 . S
Mg238 O248 2.251 . S
Mg238 O251 2.010 . S
O239 Mg238 2.028 . S
O239 C242 1.250 . S
O240 Mg241 2.028 . S
O240 C242 1.248 . S
Mg241 O240 2.028 . S
Mg241 O246 2.032 . S
Mg241 O248 2.079 . S
C242 O239 1.250 . S
C242 O240 1.248 . S
C243 O244 1.264 . S
C243 O251 1.249 . S
O244 C243 1.264 . S
O245 Mg238 1.986 . S
O245 C249 1.246 . S
O246 Mg241 2.032 . S
O246 C249 1.259 . S
O247 Mg238 2.114 . S
O247 C250 1.252 . S
O248 Mg238 2.251 . S
O248 Mg241 2.079 . S
O248 C250 1.273 . S
C249 O245 1.246 . S
C249 O246 1.259 . S
C250 O247 1.252 . S
C250 O248 1.273 . S
O251 Mg238 2.010 . S
O251 C243 1.249 . S
Mg252 O253 2.028 . S
Mg252 O259 1.986 . S
Mg252 O261 2.114 . S
Mg252 O262 2.251 . S
Mg252 O265 2.010 . S
O253 Mg252 2.028 . S
O253 C256 1.250 . S
O254 Mg255 2.028 . S
O254 C256 1.248 . S
Mg255 O254 2.028 . S
Mg255 O260 2.032 . S
Mg255 O262 2.079 . S
C256 O253 1.250 . S
C256 O254 1.248 . S
C257 O258 1.264 . S
C257 O265 1.249 . S
O258 C257 1.264 . S
O259 Mg252 1.986 . S
O259 C263 1.246 . S
O260 Mg255 2.032 . S
O260 C263 1.259 . S
O261 Mg252 2.114 . S
O261 C264 1.252 . S
O262 Mg252 2.251 . S
O262 Mg255 2.079 . S
O262 C264 1.273 . S
C263 O259 1.246 . S
C263 O260 1.259 . S
C264 O261 1.252 . S
C264 O262 1.273 . S
O265 Mg252 2.010 . S
O265 C257 1.249 . S
Mg266 O267 2.028 . S
Mg266 O273 1.986 . S
Mg266 O275 2.114 1_545 S
Mg266 O276 2.251 1_545 S
Mg266 O279 2.010 . S
O267 Mg266 2.028 . S
O267 C270 1.250 . S
O268 Mg269 2.028 1_545 S
O268 C270 1.248 . S
Mg269 O268 2.028 1_565 S
Mg269 O274 2.032 . S
Mg269 O276 2.079 . S
C270 O267 1.250 . S
C270 O268 1.248 . S
C271 O272 1.264 . S
C271 O279 1.249 . S
O272 C271 1.264 . S
O273 Mg266 1.986 . S
O273 C277 1.246 1_545 S
O274 Mg269 2.032 . S
O274 C277 1.259 . S
O275 Mg266 2.114 1_565 S
O275 C278 1.252 . S
O276 Mg266 2.251 1_565 S
O276 Mg269 2.079 . S
O276 C278 1.273 . S
C277 O273 1.246 1_565 S
C277 O274 1.259 . S
C278 O275 1.252 . S
C278 O276 1.273 . S
O279 Mg266 2.010 . S
O279 C271 1.249 . S
Mg280 O281 2.028 . S
Mg280 O287 1.986 1_554 S
Mg280 O289 2.114 1_554 S
Mg280 O290 2.253 1_554 S
Mg280 O293 2.009 . S
O281 Mg280 2.028 . S
O281 C284 1.250 . S
O282 Mg283 2.028 . S
O282 C284 1.248 1_556 S
Mg283 O282 2.028 . S
Mg283 O288 2.032 . S
Mg283 O290 2.079 . S
C284 O281 1.250 . S
C284 O282 1.248 1_554 S
C285 O286 1.264 . S
C285 O293 1.249 . S
O286 C285 1.264 . S
O287 Mg280 1.986 1_556 S
O287 C291 1.246 . S
O288 Mg283 2.032 . S
O288 C291 1.259 . S
O289 Mg280 2.114 1_556 S
O289 C292 1.252 . S
O290 Mg280 2.253 1_556 S
O290 Mg283 2.079 . S
O290 C292 1.273 . S
C291 O287 1.246 . S
C291 O288 1.259 . S
C292 O289 1.252 . S
C292 O290 1.273 . S
O293 Mg280 2.009 . S
O293 C285 1.249 . S
Mg294 O295 2.028 . S
Mg294 O301 1.986 . S
Mg294 O303 2.114 . S
Mg294 O304 2.251 . S
Mg294 O307 2.010 . S
O295 Mg294 2.028 . S
O295 C298 1.250 . S
O296 Mg297 2.028 . S
O296 C298 1.248 . S
Mg297 O296 2.028 . S
Mg297 O302 2.032 . S
Mg297 O304 2.079 . S
C298 O295 1.250 . S
C298 O296 1.248 . S
C299 O300 1.264 . S
C299 O307 1.249 . S
O300 C299 1.264 . S
O301 Mg294 1.986 . S
O301 C305 1.246 . S
O302 Mg297 2.032 . S
O302 C305 1.259 . S
O303 Mg294 2.114 . S
O303 C306 1.252 . S
O304 Mg294 2.251 . S
O304 Mg297 2.079 . S
O304 C306 1.273 . S
C305 O301 1.246 . S
C305 O302 1.259 . S
C306 O303 1.252 . S
C306 O304 1.273 . S
O307 Mg294 2.010 . S
O307 C299 1.249 . S
Mg308 O309 2.028 . S
Mg308 O315 1.986 . S
Mg308 O317 2.114 . S
Mg308 O318 2.251 . S
Mg308 O321 2.010 . S
O309 Mg308 2.028 . S
O309 C312 1.250 . S
O310 Mg311 2.028 . S
O310 C312 1.248 . S
Mg311 O310 2.028 . S
Mg311 O316 2.032 . S
Mg311 O318 2.079 . S
C312 O309 1.250 . S
C312 O310 1.248 . S
C313 O314 1.264 . S
C313 O321 1.249 . S
O314 C313 1.264 . S
O315 Mg308 1.986 . S
O315 C319 1.246 . S
O316 Mg311 2.032 . S
O316 C319 1.259 . S
O317 Mg308 2.114 . S
O317 C320 1.252 . S
O318 Mg308 2.251 . S
O318 Mg311 2.079 . S
O318 C320 1.273 . S
C319 O315 1.246 . S
C319 O316 1.259 . S
C320 O317 1.252 . S
C320 O318 1.273 . S
O321 Mg308 2.010 . S
O321 C313 1.249 . S
Mg322 O323 2.028 . S
Mg322 O329 1.986 . S
Mg322 O331 2.114 . S
Mg322 O332 2.251 . S
Mg322 O335 2.010 . S
O323 Mg322 2.028 . S
O323 C326 1.250 . S
O324 Mg325 2.028 . S
O324 C326 1.248 . S
Mg325 O324 2.028 . S
Mg325 O330 2.032 . S
Mg325 O332 2.079 . S
C326 O323 1.250 . S
C326 O324 1.248 . S
C327 O328 1.264 . S
C327 O335 1.249 . S
O328 C327 1.264 . S
O329 Mg322 1.986 . S
O329 C333 1.246 . S
O330 Mg325 2.032 . S
O330 C333 1.259 . S
O331 Mg322 2.114 . S
O331 C334 1.252 . S
O332 Mg322 2.251 . S
O332 Mg325 2.079 . S
O332 C334 1.273 . S
C333 O329 1.246 . S
C333 O330 1.259 . S
C334 O331 1.252 . S
C334 O332 1.273 . S
O335 Mg322 2.010 . S
O335 C327 1.249 . S
H336 C344 0.950 . S
H337 C349 0.950 . S
H338 C346 0.950 . S
H339 C348 0.950 . S
H340 C350 0.950 . S
H341 C352 0.950 . S
H342 C354 0.950 . S
H343 C355 0.950 . S
C344 H336 0.950 . S
C344 C345 1.386 . S
C344 C346 1.391 . S
C345 C344 1.386 . S
C345 C349 1.393 . S
C346 H338 0.950 . S
C346 C344 1.391 . S
C346 C347 1.400 . S
C347 C346 1.400 . S
C347 C348 1.398 . S
C347 C353 1.491 . S
C348 H339 0.950 . S
C348 C347 1.398 . S
C348 C349 1.391 . S
C349 H337 0.950 . S
C349 C345 1.393 . S
C349 C348 1.391 . S
C350 H340 0.950 . S
C350 C351 1.386 . S
C350 C352 1.391 . S
C351 C350 1.386 . S
C351 C355 1.393 . S
C352 H341 0.950 . S
C352 C350 1.391 . S
C352 C353 1.400 . S
C353 C347 1.491 . S
C353 C352 1.400 . S
C353 C354 1.398 . S
C354 H342 0.950 . S
C354 C353 1.398 . S
C354 C355 1.391 . S
C355 H343 0.950 . S
C355 C351 1.393 . S
C355 C354 1.391 . S
H356 C364 0.950 . S
H357 C369 0.950 . S
H358 C366 0.950 . S
H359 C368 0.950 . S
H360 C370 0.950 . S
H361 C372 0.950 . S
H362 C374 0.950 . S
H363 C375 0.950 . S
C364 H356 0.950 . S
C364 C365 1.386 . S
C364 C366 1.391 . S
C365 C364 1.386 . S
C365 C369 1.393 . S
C366 H358 0.950 . S
C366 C364 1.391 . S
C366 C367 1.400 . S
C367 C366 1.400 . S
C367 C368 1.398 . S
C367 C373 1.491 . S
C368 H359 0.950 . S
C368 C367 1.398 . S
C368 C369 1.391 . S
C369 H357 0.950 . S
C369 C365 1.393 . S
C369 C368 1.391 . S
C370 H360 0.950 . S
C370 C371 1.386 . S
C370 C372 1.391 . S
C371 C370 1.386 . S
C371 C375 1.393 . S
C372 H361 0.950 . S
C372 C370 1.391 . S
C372 C373 1.400 . S
C373 C367 1.491 . S
C373 C372 1.400 . S
C373 C374 1.398 . S
C374 H362 0.950 . S
C374 C373 1.398 . S
C374 C375 1.391 . S
C375 H363 0.950 . S
C375 C371 1.393 . S
C375 C374 1.391 . S
H376 C384 0.950 . S
H377 C389 0.950 . S
H378 C386 0.950 . S
H379 C388 0.950 . S
H380 C390 0.950 . S
H381 C392 0.950 . S
H382 C394 0.950 . S
H383 C395 0.950 . S
C384 H376 0.950 . S
C384 C385 1.386 . S
C384 C386 1.391 . S
C385 C384 1.386 . S
C385 C389 1.393 . S
C386 H378 0.950 . S
C386 C384 1.391 . S
C386 C387 1.400 . S
C387 C386 1.400 . S
C387 C388 1.398 . S
C387 C393 1.491 . S
C388 H379 0.950 . S
C388 C387 1.398 . S
C388 C389 1.391 . S
C389 H377 0.950 . S
C389 C385 1.393 . S
C389 C388 1.391 . S
C390 H380 0.950 . S
C390 C391 1.386 . S
C390 C392 1.391 . S
C391 C390 1.386 . S
C391 C395 1.393 . S
C392 H381 0.950 . S
C392 C390 1.391 . S
C392 C393 1.400 . S
C393 C387 1.491 . S
C393 C392 1.400 . S
C393 C394 1.398 . S
C394 H382 0.950 . S
C394 C393 1.398 . S
C394 C395 1.391 . S
C395 H383 0.950 . S
C395 C391 1.393 . S
C395 C394 1.391 . S
H396 C404 0.950 . S
H397 C409 0.950 . S
H398 C406 0.950 . S
H399 C408 0.950 . S
H400 C410 0.950 . S
H401 C412 0.950 . S
H402 C414 0.950 . S
H403 C415 0.950 . S
C404 H396 0.950 . S
C404 C405 1.386 . S
C404 C406 1.391 . S
C405 C404 1.386 . S
C405 C409 1.393 . S
C406 H398 0.950 . S
C406 C404 1.391 . S
C406 C407 1.400 . S
C407 C406 1.400 . S
C407 C408 1.398 . S
C407 C413 1.491 . S
C408 H399 0.950 . S
C408 C407 1.398 . S
C408 C409 1.391 . S
C409 H397 0.950 . S
C409 C405 1.393 . S
C409 C408 1.391 . S
C410 H400 0.950 . S
C410 C411 1.386 . S
C410 C412 1.391 . S
C411 C410 1.386 . S
C411 C415 1.393 . S
C412 H401 0.950 . S
C412 C410 1.391 . S
C412 C413 1.400 . S
C413 C407 1.491 . S
C413 C412 1.400 . S
C413 C414 1.398 . S
C414 H402 0.950 . S
C414 C413 1.398 . S
C414 C415 1.391 . S
C415 H403 0.950 . S
C415 C411 1.393 . S
C415 C414 1.391 . S
H416 C424 0.950 . S
H417 C429 0.950 . S
H418 C426 0.950 . S
H419 C428 0.950 . S
H420 C430 0.950 . S
H421 C432 0.950 . S
H422 C434 0.950 . S
H423 C435 0.950 . S
C424 H416 0.950 . S
C424 C425 1.386 . S
C424 C426 1.391 . S
C425 C424 1.386 . S
C425 C429 1.393 . S
C426 H418 0.950 . S
C426 C424 1.391 . S
C426 C427 1.400 . S
C427 C426 1.400 . S
C427 C428 1.398 . S
C427 C433 1.491 . S
C428 H419 0.950 . S
C428 C427 1.398 . S
C428 C429 1.391 . S
C429 H417 0.950 . S
C429 C425 1.393 . S
C429 C428 1.391 . S
C430 H420 0.950 . S
C430 C431 1.386 . S
C430 C432 1.391 . S
C431 C430 1.386 . S
C431 C435 1.393 . S
C432 H421 0.950 . S
C432 C430 1.391 . S
C432 C433 1.400 . S
C433 C427 1.491 . S
C433 C432 1.400 . S
C433 C434 1.398 . S
C434 H422 0.950 . S
C434 C433 1.398 . S
C434 C435 1.391 . S
C435 H423 0.950 . S
C435 C431 1.393 . S
C435 C434 1.391 . S
H436 C444 0.950 . S
H437 C449 0.950 . S
H438 C446 0.950 . S
H439 C448 0.950 . S
H440 C450 0.950 . S
H441 C452 0.950 . S
H442 C454 0.950 . S
H443 C455 0.950 . S
C444 H436 0.950 . S
C444 C445 1.386 . S
C444 C446 1.391 . S
C445 C444 1.386 . S
C445 C449 1.393 . S
C446 H438 0.950 . S
C446 C444 1.391 . S
C446 C447 1.400 . S
C447 C446 1.400 . S
C447 C448 1.398 . S
C447 C453 1.491 . S
C448 H439 0.950 . S
C448 C447 1.398 . S
C448 C449 1.391 . S
C449 H437 0.950 . S
C449 C445 1.393 . S
C449 C448 1.391 . S
C450 H440 0.950 . S
C450 C451 1.386 . S
C450 C452 1.391 . S
C451 C450 1.386 . S
C451 C455 1.393 . S
C452 H441 0.950 . S
C452 C450 1.391 . S
C452 C453 1.400 . S
C453 C447 1.491 . S
C453 C452 1.400 . S
C453 C454 1.398 . S
C454 H442 0.950 . S
C454 C453 1.398 . S
C454 C455 1.391 . S
C455 H443 0.950 . S
C455 C451 1.393 . S
C455 C454 1.391 . S
H456 C464 0.950 . S
H457 C469 0.950 . S
H458 C466 0.950 . S
H459 C468 0.950 . S
H460 C470 0.950 . S
H461 C472 0.950 . S
H462 C474 0.950 . S
H463 C475 0.950 . S
C464 H456 0.950 . S
C464 C465 1.386 . S
C464 C466 1.391 . S
C465 C464 1.386 . S
C465 C469 1.393 . S
C466 H458 0.950 . S
C466 C464 1.391 . S
C466 C467 1.400 . S
C467 C466 1.400 . S
C467 C468 1.398 . S
C467 C473 1.491 . S
C468 H459 0.950 . S
C468 C467 1.398 . S
C468 C469 1.391 . S
C469 H457 0.950 . S
C469 C465 1.393 . S
C469 C468 1.391 . S
C470 H460 0.950 . S
C470 C471 1.386 . S
C470 C472 1.391 . S
C471 C470 1.386 . S
C471 C475 1.393 . S
C472 H461 0.950 . S
C472 C470 1.391 . S
C472 C473 1.400 . S
C473 C467 1.491 . S
C473 C472 1.400 . S
C473 C474 1.398 . S
C474 H462 0.950 . S
C474 C473 1.398 . S
C474 C475 1.391 . S
C475 H463 0.950 . S
C475 C471 1.393 . S
C475 C474 1.391 . S
H476 C484 0.950 . S
H477 C489 0.950 . S
H478 C486 0.950 . S
H479 C488 0.950 . S
H480 C490 0.950 . S
H481 C492 0.950 . S
H482 C494 0.950 . S
H483 C495 0.950 . S
C484 H476 0.950 . S
C484 C485 1.386 . S
C484 C486 1.391 . S
C485 C484 1.386 . S
C485 C489 1.393 . S
C486 H478 0.950 . S
C486 C484 1.391 . S
C486 C487 1.400 . S
C487 C486 1.400 . S
C487 C488 1.398 . S
C487 C493 1.491 . S
C488 H479 0.950 . S
C488 C487 1.398 . S
C488 C489 1.391 . S
C489 H477 0.950 . S
C489 C485 1.393 . S
C489 C488 1.391 . S
C490 H480 0.950 . S
C490 C491 1.386 . S
C490 C492 1.391 . S
C491 C490 1.386 . S
C491 C495 1.393 . S
C492 H481 0.950 . S
C492 C490 1.391 . S
C492 C493 1.400 . S
C493 C487 1.491 . S
C493 C492 1.400 . S
C493 C494 1.398 . S
C494 H482 0.950 . S
C494 C493 1.398 . S
C494 C495 1.391 . S
C495 H483 0.950 . S
C495 C491 1.393 . S
C495 C494 1.391 . S
H496 C504 0.950 . S
H497 C509 0.950 . S
H498 C506 0.950 . S
H499 C508 0.950 . S
H500 C510 0.950 . S
H501 C512 0.950 . S
H502 C514 0.950 . S
H503 C515 0.950 . S
C504 H496 0.950 . S
C504 C505 1.386 . S
C504 C506 1.391 . S
C505 C504 1.386 . S
C505 C509 1.393 . S
C506 H498 0.950 . S
C506 C504 1.391 . S
C506 C507 1.400 . S
C507 C506 1.400 . S
C507 C508 1.398 . S
C507 C513 1.491 . S
C508 H499 0.950 . S
C508 C507 1.398 . S
C508 C509 1.391 . S
C509 H497 0.950 . S
C509 C505 1.393 . S
C509 C508 1.391 . S
C510 H500 0.950 . S
C510 C511 1.386 . S
C510 C512 1.391 . S
C511 C510 1.386 . S
C511 C515 1.393 . S
C512 H501 0.950 . S
C512 C510 1.391 . S
C512 C513 1.400 . S
C513 C507 1.491 . S
C513 C512 1.400 . S
C513 C514 1.398 . S
C514 H502 0.950 . S
C514 C513 1.398 . S
C514 C515 1.391 . S
C515 H503 0.950 . S
C515 C511 1.393 . S
C515 C514 1.391 . S
H516 C524 0.950 . S
H517 C529 0.950 1_565 S
H518 C526 0.950 . S
H519 C528 0.950 . S
H520 C530 0.950 . S
H521 C532 0.950 . S
H522 C534 0.950 . S
H523 C535 0.950 . S
C524 H516 0.950 . S
C524 C525 1.386 . S
C524 C526 1.391 . S
C525 C524 1.386 . S
C525 C529 1.393 . S
C526 H518 0.950 . S
C526 C524 1.391 . S
C526 C527 1.400 . S
C527 C526 1.400 . S
C527 C528 1.398 . S
C527 C533 1.491 . S
C528 H519 0.950 . S
C528 C527 1.398 . S
C528 C529 1.391 . S
C529 H517 0.950 1_545 S
C529 C525 1.393 . S
C529 C528 1.391 . S
C530 H520 0.950 . S
C530 C531 1.386 . S
C530 C532 1.391 . S
C531 C530 1.386 . S
C531 C535 1.393 . S
C532 H521 0.950 . S
C532 C530 1.391 . S
C532 C533 1.400 . S
C533 C527 1.491 . S
C533 C532 1.400 . S
C533 C534 1.398 . S
C534 H522 0.950 . S
C534 C533 1.398 . S
C534 C535 1.391 . S
C535 H523 0.950 . S
C535 C531 1.393 . S
C535 C534 1.391 . S
H536 C544 0.950 . S
H537 C549 0.950 . S
H538 C546 0.950 . S
H539 C548 0.950 . S
H540 C550 0.950 . S
H541 C552 0.950 . S
H542 C554 0.950 . S
H543 C555 0.950 . S
C544 H536 0.950 . S
C544 C545 1.386 . S
C544 C546 1.391 . S
C545 C544 1.386 . S
C545 C549 1.393 . S
C546 H538 0.950 . S
C546 C544 1.391 . S
C546 C547 1.400 . S
C547 C546 1.400 . S
C547 C548 1.398 . S
C547 C553 1.491 . S
C548 H539 0.950 . S
C548 C547 1.398 . S
C548 C549 1.391 . S
C549 H537 0.950 . S
C549 C545 1.393 . S
C549 C548 1.391 . S
C550 H540 0.950 . S
C550 C551 1.386 . S
C550 C552 1.391 . S
C551 C550 1.386 . S
C551 C555 1.393 . S
C552 H541 0.950 . S
C552 C550 1.391 . S
C552 C553 1.400 . S
C553 C547 1.491 . S
C553 C552 1.400 . S
C553 C554 1.398 . S
C554 H542 0.950 . S
C554 C553 1.398 . S
C554 C555 1.391 . S
C555 H543 0.950 . S
C555 C551 1.393 . S
C555 C554 1.391 . S
H556 C564 0.950 . S
H557 C569 0.950 . S
H558 C566 0.950 . S
H559 C568 0.950 . S
H560 C570 0.950 . S
H561 C572 0.950 . S
H562 C574 0.950 . S
H563 C575 0.950 . S
C564 H556 0.950 . S
C564 C565 1.386 . S
C564 C566 1.391 . S
C565 C564 1.386 . S
C565 C569 1.393 . S
C566 H558 0.950 . S
C566 C564 1.391 . S
C566 C567 1.400 . S
C567 C566 1.400 . S
C567 C568 1.398 . S
C567 C573 1.491 . S
C568 H559 0.950 . S
C568 C567 1.398 . S
C568 C569 1.391 . S
C569 H557 0.950 . S
C569 C565 1.393 . S
C569 C568 1.391 . S
C570 H560 0.950 . S
C570 C571 1.386 . S
C570 C572 1.391 . S
C571 C570 1.386 . S
C571 C575 1.393 . S
C572 H561 0.950 . S
C572 C570 1.391 . S
C572 C573 1.400 . S
C573 C567 1.491 . S
C573 C572 1.400 . S
C573 C574 1.398 . S
C574 H562 0.950 . S
C574 C573 1.398 . S
C574 C575 1.391 . S
C575 H563 0.950 . S
C575 C571 1.393 . S
C575 C574 1.391 . S
H576 C584 0.950 . S
H577 C589 0.950 . S
H578 C586 0.950 . S
H579 C588 0.950 . S
H580 C590 0.950 . S
H581 C592 0.950 . S
H582 C594 0.950 . S
H583 C595 0.950 . S
C584 H576 0.950 . S
C584 C585 1.386 . S
C584 C586 1.391 . S
C585 C584 1.386 . S
C585 C589 1.393 . S
C586 H578 0.950 . S
C586 C584 1.391 . S
C586 C587 1.400 . S
C587 C586 1.400 . S
C587 C588 1.398 . S
C587 C593 1.491 . S
C588 H579 0.950 . S
C588 C587 1.398 . S
C588 C589 1.391 . S
C589 H577 0.950 . S
C589 C585 1.393 . S
C589 C588 1.391 . S
C590 H580 0.950 . S
C590 C591 1.386 . S
C590 C592 1.391 . S
C591 C590 1.386 . S
C591 C595 1.393 . S
C592 H581 0.950 . S
C592 C590 1.391 . S
C592 C593 1.400 . S
C593 C587 1.491 . S
C593 C592 1.400 . S
C593 C594 1.398 . S
C594 H582 0.950 . S
C594 C593 1.398 . S
C594 C595 1.391 . S
C595 H583 0.950 . S
C595 C591 1.393 . S
C595 C594 1.391 . S
H596 C604 0.940 1_455 S
H597 C609 0.950 . S
H598 C606 0.950 . S
H599 C608 0.950 . S
H600 C610 0.950 . S
H601 C612 0.950 . S
H602 C614 0.950 . S
H603 C615 0.950 . S
C604 H596 0.940 1_655 S
C604 C605 1.386 . S
C604 C606 1.391 . S
C605 C604 1.386 . S
C605 C609 1.393 . S
C606 H598 0.950 . S
C606 C604 1.391 . S
C606 C607 1.400 . S
C607 C606 1.400 . S
C607 C608 1.398 . S
C607 C613 1.491 . S
C608 H599 0.950 . S
C608 C607 1.398 . S
C608 C609 1.391 . S
C609 H597 0.950 . S
C609 C605 1.393 . S
C609 C608 1.391 . S
C610 H600 0.950 . S
C610 C611 1.386 . S
C610 C612 1.391 . S
C611 C610 1.386 . S
C611 C615 1.393 . S
C612 H601 0.950 . S
C612 C610 1.391 . S
C612 C613 1.400 . S
C613 C607 1.491 . S
C613 C612 1.400 . S
C613 C614 1.398 . S
C614 H602 0.950 . S
C614 C613 1.398 . S
C614 C615 1.391 . S
C615 H603 0.950 . S
C615 C611 1.393 . S
C615 C614 1.391 . S
H616 C624 0.950 . S
H617 C629 0.950 . S
H618 C626 0.950 . S
H619 C628 0.950 . S
H620 C630 0.950 . S
H621 C632 0.950 . S
H622 C634 0.950 . S
H623 C635 0.950 . S
C624 H616 0.950 . S
C624 C625 1.386 . S
C624 C626 1.391 . S
C625 C624 1.386 . S
C625 C629 1.393 . S
C626 H618 0.950 . S
C626 C624 1.391 . S
C626 C627 1.400 . S
C627 C626 1.400 . S
C627 C628 1.398 . S
C627 C633 1.491 . S
C628 H619 0.950 . S
C628 C627 1.398 . S
C628 C629 1.391 . S
C629 H617 0.950 . S
C629 C625 1.393 . S
C629 C628 1.391 . S
C630 H620 0.950 . S
C630 C631 1.386 . S
C630 C632 1.391 . S
C631 C630 1.386 . S
C631 C635 1.393 . S
C632 H621 0.950 . S
C632 C630 1.391 . S
C632 C633 1.400 . S
C633 C627 1.491 . S
C633 C632 1.400 . S
C633 C634 1.398 . S
C634 H622 0.950 . S
C634 C633 1.398 . S
C634 C635 1.391 . S
C635 H623 0.950 . S
C635 C631 1.393 . S
C635 C634 1.391 . S
H636 C644 0.950 . S
H637 C649 0.920 1_455 S
H638 C646 0.950 . S
H639 C648 0.950 1_455 S
H640 C650 0.950 . S
H641 C652 0.950 . S
H642 C654 0.950 . S
H643 C655 0.950 . S
C644 H636 0.950 . S
C644 C645 1.386 . S
C644 C646 1.391 . S
C645 C644 1.386 . S
C645 C649 1.415 . S
C646 H638 0.950 . S
C646 C644 1.391 . S
C646 C647 1.400 . S
C647 C646 1.400 . S
C647 C648 1.398 . S
C647 C653 1.491 . S
C648 H639 0.950 1_655 S
C648 C647 1.398 . S
C648 C649 1.399 . S
C649 H637 0.920 1_655 S
C649 C645 1.415 . S
C649 C648 1.399 . S
C650 H640 0.950 . S
C650 C651 1.386 . S
C650 C652 1.391 . S
C651 C650 1.386 . S
C651 C655 1.393 . S
C652 H641 0.950 . S
C652 C650 1.391 . S
C652 C653 1.400 . S
C653 C647 1.491 . S
C653 C652 1.400 . S
C653 C654 1.398 . S
C654 H642 0.950 . S
C654 C653 1.398 . S
C654 C655 1.391 . S
C655 H643 0.950 . S
C655 C651 1.393 . S
C655 C654 1.391 . S
H656 C664 0.950 . S
H657 C669 0.950 . S
H658 C666 0.950 . S
H659 C668 0.950 . S
H660 C670 0.950 . S
H661 C672 0.950 . S
H662 C674 0.950 . S
H663 C675 0.950 . S
C664 H656 0.950 . S
C664 C665 1.386 . S
C664 C666 1.391 . S
C665 C664 1.386 . S
C665 C669 1.393 . S
C666 H658 0.950 . S
C666 C664 1.391 . S
C666 C667 1.400 . S
C667 C666 1.400 . S
C667 C668 1.398 . S
C667 C673 1.491 . S
C668 H659 0.950 . S
C668 C667 1.398 . S
C668 C669 1.391 . S
C669 H657 0.950 . S
C669 C665 1.393 . S
C669 C668 1.391 . S
C670 H660 0.950 . S
C670 C671 1.386 . S
C670 C672 1.391 . S
C671 C670 1.386 . S
C671 C675 1.393 . S
C672 H661 0.950 . S
C672 C670 1.391 . S
C672 C673 1.400 . S
C673 C667 1.491 . S
C673 C672 1.400 . S
C673 C674 1.398 . S
C674 H662 0.950 . S
C674 C673 1.398 . S
C674 C675 1.391 . S
C675 H663 0.950 . S
C675 C671 1.393 . S
C675 C674 1.391 . S
H676 C684 0.950 . S
H677 C689 0.950 . S
H678 C686 0.950 . S
H679 C688 0.950 . S
H680 C690 0.950 . S
H681 C692 0.950 . S
H682 C694 0.950 . S
H683 C695 0.950 . S
C684 H676 0.950 . S
C684 C685 1.386 . S
C684 C686 1.391 . S
C685 C684 1.386 . S
C685 C689 1.393 . S
C686 H678 0.950 . S
C686 C684 1.391 . S
C686 C687 1.400 . S
C687 C686 1.400 . S
C687 C688 1.398 . S
C687 C693 1.491 . S
C688 H679 0.950 . S
C688 C687 1.398 . S
C688 C689 1.391 . S
C689 H677 0.950 . S
C689 C685 1.393 . S
C689 C688 1.391 . S
C690 H680 0.950 . S
C690 C691 1.386 . S
C690 C692 1.391 . S
C691 C690 1.386 . S
C691 C695 1.393 . S
C692 H681 0.950 . S
C692 C690 1.391 . S
C692 C693 1.400 . S
C693 C687 1.491 . S
C693 C692 1.400 . S
C693 C694 1.398 . S
C694 H682 0.950 . S
C694 C693 1.398 . S
C694 C695 1.391 . S
C695 H683 0.950 . S
C695 C691 1.393 . S
C695 C694 1.391 . S
H696 C704 0.950 . S
H697 C709 0.950 1_554 S
H698 C706 0.950 . S
H699 C708 0.950 1_554 S
H700 C710 0.950 . S
H701 C712 0.950 . S
H702 C714 0.950 . S
H703 C715 0.950 . S
C704 H696 0.950 . S
C704 C705 1.386 . S
C704 C706 1.391 . S
C705 C704 1.386 . S
C705 C709 1.393 . S
C706 H698 0.950 . S
C706 C704 1.391 . S
C706 C707 1.400 . S
C707 C706 1.400 . S
C707 C708 1.398 . S
C707 C713 1.491 . S
C708 H699 0.950 1_556 S
C708 C707 1.398 . S
C708 C709 1.391 . S
C709 H697 0.950 1_556 S
C709 C705 1.393 . S
C709 C708 1.391 . S
C710 H700 0.950 . S
C710 C711 1.386 . S
C710 C712 1.391 . S
C711 C710 1.386 . S
C711 C715 1.393 . S
C712 H701 0.950 . S
C712 C710 1.391 . S
C712 C713 1.400 . S
C713 C707 1.491 . S
C713 C712 1.400 . S
C713 C714 1.398 . S
C714 H702 0.950 . S
C714 C713 1.398 . S
C714 C715 1.391 . S
C715 H703 0.950 . S
C715 C711 1.393 . S
C715 C714 1.391 . S
H716 C724 0.950 . S
H717 C729 0.950 . S
H718 C726 0.950 . S
H719 C728 0.950 . S
H720 C730 0.950 . S
H721 C732 0.950 . S
H722 C734 0.950 . S
H723 C735 0.950 1_455 S
C724 H716 0.950 . S
C724 C725 1.386 . S
C724 C726 1.391 . S
C725 C724 1.386 . S
C725 C729 1.393 . S
C726 H718 0.950 . S
C726 C724 1.391 . S
C726 C727 1.400 . S
C727 C726 1.400 . S
C727 C728 1.398 . S
C727 C733 1.491 . S
C728 H719 0.950 . S
C728 C727 1.398 . S
C728 C729 1.391 . S
C729 H717 0.950 . S
C729 C725 1.393 . S
C729 C728 1.391 . S
C730 H720 0.950 . S
C730 C731 1.386 . S
C730 C732 1.391 . S
C731 C730 1.386 . S
C731 C735 1.393 . S
C732 H721 0.950 . S
C732 C730 1.391 . S
C732 C733 1.400 . S
C733 C727 1.491 . S
C733 C732 1.400 . S
C733 C734 1.398 . S
C734 H722 0.950 . S
C734 C733 1.398 . S
C734 C735 1.391 . S
C735 H723 0.950 1_655 S
C735 C731 1.393 . S
C735 C734 1.391 . S
H736 C744 0.950 . S
H737 C749 0.950 . S
H738 C746 0.950 . S
H739 C748 0.950 . S
H740 C750 0.950 . S
H741 C752 0.950 . S
H742 C754 0.950 . S
H743 C755 0.950 . S
C744 H736 0.950 . S
C744 C745 1.386 . S
C744 C746 1.391 . S
C745 C744 1.386 . S
C745 C749 1.393 . S
C746 H738 0.950 . S
C746 C744 1.391 . S
C746 C747 1.400 . S
C747 C746 1.400 . S
C747 C748 1.398 . S
C747 C753 1.491 . S
C748 H739 0.950 . S
C748 C747 1.398 . S
C748 C749 1.391 . S
C749 H737 0.950 . S
C749 C745 1.393 . S
C749 C748 1.391 . S
C750 H740 0.950 . S
C750 C751 1.386 . S
C750 C752 1.391 . S
C751 C750 1.386 . S
C751 C755 1.393 . S
C752 H741 0.950 . S
C752 C750 1.391 . S
C752 C753 1.400 . S
C753 C747 1.491 . S
C753 C752 1.400 . S
C753 C754 1.398 . S
C754 H742 0.950 . S
C754 C753 1.398 . S
C754 C755 1.391 . S
C755 H743 0.950 . S
C755 C751 1.393 . S
C755 C754 1.391 . S
H756 C764 0.950 . S
H757 C769 0.950 . S
H758 C766 0.950 . S
H759 C768 0.950 . S
H760 C770 0.950 . S
H761 C772 0.950 . S
H762 C774 0.950 . S
H763 C775 0.950 . S
C764 H756 0.950 . S
C764 C765 1.386 . S
C764 C766 1.391 . S
C765 C764 1.386 . S
C765 C769 1.393 . S
C766 H758 0.950 . S
C766 C764 1.391 . S
C766 C767 1.400 . S
C767 C766 1.400 . S
C767 C768 1.398 . S
C767 C773 1.491 . S
C768 H759 0.950 . S
C768 C767 1.398 . S
C768 C769 1.391 . S
C769 H757 0.950 . S
C769 C765 1.393 . S
C769 C768 1.391 . S
C770 H760 0.950 . S
C770 C771 1.386 . S
C770 C772 1.391 . S
C771 C770 1.386 . S
C771 C775 1.393 . S
C772 H761 0.950 . S
C772 C770 1.391 . S
C772 C773 1.400 . S
C773 C767 1.491 . S
C773 C772 1.400 . S
C773 C774 1.398 . S
C774 H762 0.950 . S
C774 C773 1.398 . S
C774 C775 1.391 . S
C775 H763 0.950 . S
C775 C771 1.393 . S
C775 C774 1.391 . S
H776 C784 0.950 . S
H777 C789 0.950 . S
H778 C786 0.950 . S
H779 C788 0.950 . S
H780 C790 0.950 . S
H781 C792 0.950 . S
H782 C794 0.950 . S
H783 C795 0.950 . S
C784 H776 0.950 . S
C784 C785 1.386 . S
C784 C786 1.391 . S
C785 C784 1.386 . S
C785 C789 1.393 . S
C786 H778 0.950 . S
C786 C784 1.391 . S
C786 C787 1.400 . S
C787 C786 1.400 . S
C787 C788 1.398 . S
C787 C793 1.491 . S
C788 H779 0.950 . S
C788 C787 1.398 . S
C788 C789 1.391 . S
C789 H777 0.950 . S
C789 C785 1.393 . S
C789 C788 1.391 . S
C790 H780 0.950 . S
C790 C791 1.386 . S
C790 C792 1.391 . S
C791 C790 1.386 . S
C791 C795 1.393 . S
C792 H781 0.950 . S
C792 C790 1.391 . S
C792 C793 1.400 . S
C793 C787 1.491 . S
C793 C792 1.400 . S
C793 C794 1.398 . S
C794 H782 0.950 . S
C794 C793 1.398 . S
C794 C795 1.391 . S
C795 H783 0.950 . S
C795 C791 1.393 . S
C795 C794 1.391 . S
H796 C804 0.950 . S
H797 C809 0.950 . S
H798 C806 0.950 . S
H799 C808 0.950 . S
H800 C810 0.950 . S
H801 C812 0.950 . S
H802 C814 0.950 . S
H803 C815 0.950 . S
C804 H796 0.950 . S
C804 C805 1.386 . S
C804 C806 1.391 . S
C805 C804 1.386 . S
C805 C809 1.393 . S
C806 H798 0.950 . S
C806 C804 1.391 . S
C806 C807 1.400 . S
C807 C806 1.400 . S
C807 C808 1.398 . S
C807 C813 1.491 . S
C808 H799 0.950 . S
C808 C807 1.398 . S
C808 C809 1.391 . S
C809 H797 0.950 . S
C809 C805 1.393 . S
C809 C808 1.391 . S
C810 H800 0.950 . S
C810 C811 1.386 . S
C810 C812 1.391 . S
C811 C810 1.386 . S
C811 C815 1.393 . S
C812 H801 0.950 . S
C812 C810 1.391 . S
C812 C813 1.400 . S
C813 C807 1.491 . S
C813 C812 1.400 . S
C813 C814 1.398 . S
C814 H802 0.950 . S
C814 C813 1.398 . S
C814 C815 1.391 . S
C815 H803 0.950 . S
C815 C811 1.393 . S
C815 C814 1.391 . S
H816 C824 0.950 . S
H817 C829 0.950 . S
H818 C826 0.950 . S
H819 C828 0.950 . S
H820 C830 0.950 . S
H821 C832 0.950 . S
H822 C834 0.950 . S
H823 C835 0.950 . S
C824 H816 0.950 . S
C824 C825 1.386 . S
C824 C826 1.391 . S
C825 C824 1.386 . S
C825 C829 1.393 . S
C826 H818 0.950 . S
C826 C824 1.391 . S
C826 C827 1.400 . S
C827 C826 1.400 . S
C827 C828 1.398 . S
C827 C833 1.491 . S
C828 H819 0.950 . S
C828 C827 1.398 . S
C828 C829 1.391 . S
C829 H817 0.950 . S
C829 C825 1.393 . S
C829 C828 1.391 . S
C830 H820 0.950 . S
C830 C831 1.386 . S
C830 C832 1.391 . S
C831 C830 1.386 . S
C831 C835 1.393 . S
C832 H821 0.950 . S
C832 C830 1.391 . S
C832 C833 1.400 . S
C833 C827 1.491 . S
C833 C832 1.400 . S
C833 C834 1.398 . S
C834 H822 0.950 . S
C834 C833 1.398 . S
C834 C835 1.391 . S
C835 H823 0.950 . S
C835 C831 1.393 . S
C835 C834 1.391 . S
H836 C844 0.950 . S
H837 C849 0.950 . S
H838 C846 0.950 . S
H839 C848 0.950 . S
H840 C850 0.950 . S
H841 C852 0.950 . S
H842 C854 0.950 . S
H843 C855 0.950 . S
C844 H836 0.950 . S
C844 C845 1.386 . S
C844 C846 1.391 . S
C845 C844 1.386 . S
C845 C849 1.393 . S
C846 H838 0.950 . S
C846 C844 1.391 . S
C846 C847 1.400 . S
C847 C846 1.400 . S
C847 C848 1.398 . S
C847 C853 1.491 . S
C848 H839 0.950 . S
C848 C847 1.398 . S
C848 C849 1.391 . S
C849 H837 0.950 . S
C849 C845 1.393 . S
C849 C848 1.391 . S
C850 H840 0.950 . S
C850 C851 1.386 . S
C850 C852 1.391 . S
C851 C850 1.386 . S
C851 C855 1.393 . S
C852 H841 0.950 . S
C852 C850 1.391 . S
C852 C853 1.400 . S
C853 C847 1.491 . S
C853 C852 1.400 . S
C853 C854 1.398 . S
C854 H842 0.950 . S
C854 C853 1.398 . S
C854 C855 1.391 . S
C855 H843 0.950 . S
C855 C851 1.393 . S
C855 C854 1.391 . S
H856 C864 0.950 . S
H857 C869 0.950 . S
H858 C866 0.950 . S
H859 C868 0.950 . S
H860 C870 0.950 . S
H861 C872 0.950 . S
H862 C874 0.950 . S
H863 C875 0.950 . S
C864 H856 0.950 . S
C864 C865 1.386 . S
C864 C866 1.391 . S
C865 C864 1.386 . S
C865 C869 1.393 . S
C866 H858 0.950 . S
C866 C864 1.391 . S
C866 C867 1.400 . S
C867 C866 1.400 . S
C867 C868 1.398 . S
C867 C873 1.491 . S
C868 H859 0.950 . S
C868 C867 1.398 . S
C868 C869 1.391 . S
C869 H857 0.950 . S
C869 C865 1.393 . S
C869 C868 1.391 . S
C870 H860 0.950 . S
C870 C871 1.386 . S
C870 C872 1.391 . S
C871 C870 1.386 . S
C871 C875 1.393 . S
C872 H861 0.950 . S
C872 C870 1.391 . S
C872 C873 1.400 . S
C873 C867 1.491 . S
C873 C872 1.400 . S
C873 C874 1.398 . S
C874 H862 0.950 . S
C874 C873 1.398 . S
C874 C875 1.391 . S
C875 H863 0.950 . S
C875 C871 1.393 . S
C875 C874 1.391 . S
H876 C884 0.950 . S
H877 C889 0.950 . S
H878 C886 0.950 . S
H879 C888 0.950 . S
H880 C890 0.950 . S
H881 C892 0.950 . S
H882 C894 0.981 . S
H883 C895 0.950 1_554 S
C884 H876 0.950 . S
C884 C885 1.386 . S
C884 C886 1.391 . S
C885 C884 1.386 . S
C885 C889 1.393 . S
C886 H878 0.950 . S
C886 C884 1.391 . S
C886 C887 1.400 . S
C887 C886 1.400 . S
C887 C888 1.398 . S
C887 C893 1.491 . S
C888 H879 0.950 . S
C888 C887 1.398 . S
C888 C889 1.391 . S
C889 H877 0.950 . S
C889 C885 1.393 . S
C889 C888 1.391 . S
C890 H880 0.950 . S
C890 C891 1.386 . S
C890 C892 1.391 . S
C891 C890 1.386 . S
C891 C895 1.393 . S
C892 H881 0.950 . S
C892 C890 1.391 . S
C892 C893 1.400 . S
C893 C887 1.491 . S
C893 C892 1.400 . S
C893 C894 1.398 . S
C894 H882 0.981 . S
C894 C893 1.398 . S
C894 C895 1.391 . S
C895 H883 0.950 1_556 S
C895 C891 1.393 . S
C895 C894 1.391 . S
H896 C904 0.950 . S
H897 C909 0.950 . S
H898 C906 0.950 . S
H899 C908 0.950 . S
H900 C910 0.950 . S
H901 C912 0.950 . S
H902 C914 0.950 . S
H903 C915 0.950 . S
C904 H896 0.950 . S
C904 C905 1.386 . S
C904 C906 1.391 . S
C905 C904 1.386 . S
C905 C909 1.393 . S
C906 H898 0.950 . S
C906 C904 1.391 . S
C906 C907 1.400 . S
C907 C906 1.400 . S
C907 C908 1.398 . S
C907 C913 1.491 . S
C908 H899 0.950 . S
C908 C907 1.398 . S
C908 C909 1.391 . S
C909 H897 0.950 . S
C909 C905 1.393 . S
C909 C908 1.391 . S
C910 H900 0.950 . S
C910 C911 1.386 . S
C910 C912 1.391 . S
C911 C910 1.386 . S
C911 C915 1.393 . S
C912 H901 0.950 . S
C912 C910 1.391 . S
C912 C913 1.400 . S
C913 C907 1.491 . S
C913 C912 1.400 . S
C913 C914 1.398 . S
C914 H902 0.950 . S
C914 C913 1.398 . S
C914 C915 1.391 . S
C915 H903 0.950 . S
C915 C911 1.393 . S
C915 C914 1.391 . S
H916 C924 0.950 . S
H917 C929 0.950 . S
H918 C926 0.950 . S
H919 C928 0.950 . S
H920 C930 0.950 . S
H921 C932 0.950 . S
H922 C934 0.950 . S
H923 C935 0.950 . S
C924 H916 0.950 . S
C924 C925 1.386 . S
C924 C926 1.391 . S
C925 C924 1.386 . S
C925 C929 1.393 . S
C926 H918 0.950 . S
C926 C924 1.391 . S
C926 C927 1.400 . S
C927 C926 1.400 . S
C927 C928 1.398 . S
C927 C933 1.491 . S
C928 H919 0.950 . S
C928 C927 1.398 . S
C928 C929 1.391 . S
C929 H917 0.950 . S
C929 C925 1.393 . S
C929 C928 1.391 . S
C930 H920 0.950 . S
C930 C931 1.386 . S
C930 C932 1.391 . S
C931 C930 1.386 . S
C931 C935 1.393 . S
C932 H921 0.950 . S
C932 C930 1.391 . S
C932 C933 1.400 . S
C933 C927 1.491 . S
C933 C932 1.400 . S
C933 C934 1.398 . S
C934 H922 0.950 . S
C934 C933 1.398 . S
C934 C935 1.391 . S
C935 H923 0.950 . S
C935 C931 1.393 . S
C935 C934 1.391 . S
H936 C944 0.950 . S
H937 C949 0.950 . S
H938 C946 0.950 . S
H939 C948 0.950 . S
H940 C950 0.950 . S
H941 C952 0.950 . S
H942 C954 0.950 . S
H943 C955 0.950 . S
C944 H936 0.950 . S
C944 C945 1.386 . S
C944 C946 1.391 . S
C945 C944 1.386 . S
C945 C949 1.393 . S
C946 H938 0.950 . S
C946 C944 1.391 . S
C946 C947 1.400 . S
C947 C946 1.400 . S
C947 C948 1.398 . S
C947 C953 1.491 . S
C948 H939 0.950 . S
C948 C947 1.398 . S
C948 C949 1.391 . S
C949 H937 0.950 . S
C949 C945 1.393 . S
C949 C948 1.391 . S
C950 H940 0.950 . S
C950 C951 1.386 . S
C950 C952 1.391 . S
C951 C950 1.386 . S
C951 C955 1.393 . S
C952 H941 0.950 . S
C952 C950 1.391 . S
C952 C953 1.400 . S
C953 C947 1.491 . S
C953 C952 1.400 . S
C953 C954 1.398 . S
C954 H942 0.950 . S
C954 C953 1.398 . S
C954 C955 1.391 . S
C955 H943 0.950 . S
C955 C951 1.393 . S
C955 C954 1.391 . S
H956 C964 0.950 . S
H957 C969 0.950 . S
H958 C966 0.950 . S
H959 C968 0.950 . S
H960 C970 0.950 . S
H961 C972 0.950 . S
H962 C974 0.950 . S
H963 C975 0.950 . S
C964 H956 0.950 . S
C964 C965 1.386 . S
C964 C966 1.391 . S
C965 C964 1.386 . S
C965 C969 1.393 . S
C966 H958 0.950 . S
C966 C964 1.391 . S
C966 C967 1.400 . S
C967 C966 1.400 . S
C967 C968 1.398 . S
C967 C973 1.491 . S
C968 H959 0.950 . S
C968 C967 1.398 . S
C968 C969 1.391 . S
C969 H957 0.950 . S
C969 C965 1.393 . S
C969 C968 1.391 . S
C970 H960 0.950 . S
C970 C971 1.386 . S
C970 C972 1.391 . S
C971 C970 1.386 . S
C971 C975 1.393 . S
C972 H961 0.950 . S
C972 C970 1.391 . S
C972 C973 1.400 . S
C973 C967 1.491 . S
C973 C972 1.400 . S
C973 C974 1.398 . S
C974 H962 0.950 . S
C974 C973 1.398 . S
C974 C975 1.391 . S
C975 H963 0.950 . S
C975 C971 1.393 . S
C975 C974 1.391 . S
H976 C984 0.950 . S
H977 C989 0.950 . S
H978 C986 0.950 . S
H979 C988 0.950 . S
H980 C990 0.950 . S
H981 C992 0.950 . S
H982 C994 0.950 . S
H983 C995 0.950 . S
C984 H976 0.950 . S
C984 C985 1.386 . S
C984 C986 1.391 . S
C985 C984 1.386 . S
C985 C989 1.393 . S
C986 H978 0.950 . S
C986 C984 1.391 . S
C986 C987 1.400 . S
C987 C986 1.400 . S
C987 C988 1.398 . S
C987 C993 1.491 . S
C988 H979 0.950 . S
C988 C987 1.398 . S
C988 C989 1.391 . S
C989 H977 0.950 . S
C989 C985 1.393 . S
C989 C988 1.391 . S
C990 H980 0.950 . S
C990 C991 1.386 . S
C990 C992 1.391 . S
C991 C990 1.386 . S
C991 C995 1.393 . S
C992 H981 0.950 . S
C992 C990 1.391 . S
C992 C993 1.400 . S
C993 C987 1.491 . S
C993 C992 1.400 . S
C993 C994 1.398 . S
C994 H982 0.950 . S
C994 C993 1.398 . S
C994 C995 1.391 . S
C995 H983 0.950 . S
C995 C991 1.393 . S
C995 C994 1.391 . S
H996 C1004 0.950 . S
H997 C1009 0.950 . S
H998 C1006 0.950 . S
H999 C1008 0.950 . S
H1000 C1010 0.950 . S
H1001 C1012 0.950 . S
H1002 C1014 0.950 . S
H1003 C1015 0.950 . S
C1004 H996 0.950 . S
C1004 C1005 1.386 . S
C1004 C1006 1.391 . S
C1005 C1004 1.386 . S
C1005 C1009 1.393 . S
C1006 H998 0.950 . S
C1006 C1004 1.391 . S
C1006 C1007 1.400 . S
C1007 C1006 1.400 . S
C1007 C1008 1.398 . S
C1007 C1013 1.491 . S
C1008 H999 0.950 . S
C1008 C1007 1.398 . S
C1008 C1009 1.391 . S
C1009 H997 0.950 . S
C1009 C1005 1.393 . S
C1009 C1008 1.391 . S
C1010 H1000 0.950 . S
C1010 C1011 1.386 . S
C1010 C1012 1.391 . S
C1011 C1010 1.386 . S
C1011 C1015 1.393 . S
C1012 H1001 0.950 . S
C1012 C1010 1.391 . S
C1012 C1013 1.400 . S
C1013 C1007 1.491 . S
C1013 C1012 1.400 . S
C1013 C1014 1.398 . S
C1014 H1002 0.950 . S
C1014 C1013 1.398 . S
C1014 C1015 1.391 . S
C1015 H1003 0.950 . S
C1015 C1011 1.393 . S
C1015 C1014 1.391 . S
H1016 C1024 0.950 . S
H1017 C1029 0.950 . S
H1018 C1026 0.950 . S
H1019 C1028 0.950 . S
H1020 C1030 0.950 . S
H1021 C1032 0.950 . S
H1022 C1034 0.950 . S
H1023 C1035 0.950 . S
C1024 H1016 0.950 . S
C1024 C1025 1.386 . S
C1024 C1026 1.391 . S
C1025 C1024 1.386 . S
C1025 C1029 1.393 . S
C1026 H1018 0.950 . S
C1026 C1024 1.391 . S
C1026 C1027 1.400 . S
C1027 C1026 1.400 . S
C1027 C1028 1.398 . S
C1027 C1033 1.491 . S
C1028 H1019 0.950 . S
C1028 C1027 1.398 . S
C1028 C1029 1.391 . S
C1029 H1017 0.950 . S
C1029 C1025 1.393 . S
C1029 C1028 1.391 . S
C1030 H1020 0.950 . S
C1030 C1031 1.386 . S
C1030 C1032 1.391 . S
C1031 C1030 1.386 . S
C1031 C1035 1.393 . S
C1032 H1021 0.950 . S
C1032 C1030 1.391 . S
C1032 C1033 1.400 . S
C1033 C1027 1.491 . S
C1033 C1032 1.400 . S
C1033 C1034 1.398 . S
C1034 H1022 0.950 . S
C1034 C1033 1.398 . S
C1034 C1035 1.391 . S
C1035 H1023 0.950 . S
C1035 C1031 1.393 . S
C1035 C1034 1.391 . S
H1036 C1044 0.950 . S
H1037 C1049 0.950 . S
H1038 C1046 0.950 . S
H1039 C1048 0.950 . S
H1040 C1050 0.950 . S
H1041 C1052 0.950 . S
H1042 C1054 0.950 . S
H1043 C1055 0.950 . S
C1044 H1036 0.950 . S
C1044 C1045 1.386 . S
C1044 C1046 1.391 . S
C1045 C1044 1.386 . S
C1045 C1049 1.393 . S
C1046 H1038 0.950 . S
C1046 C1044 1.391 . S
C1046 C1047 1.400 . S
C1047 C1046 1.400 . S
C1047 C1048 1.398 . S
C1047 C1053 1.491 . S
C1048 H1039 0.950 . S
C1048 C1047 1.398 . S
C1048 C1049 1.391 . S
C1049 H1037 0.950 . S
C1049 C1045 1.393 . S
C1049 C1048 1.391 . S
C1050 H1040 0.950 . S
C1050 C1051 1.386 . S
C1050 C1052 1.391 . S
C1051 C1050 1.386 . S
C1051 C1055 1.393 . S
C1052 H1041 0.950 . S
C1052 C1050 1.391 . S
C1052 C1053 1.400 . S
C1053 C1047 1.491 . S
C1053 C1052 1.400 . S
C1053 C1054 1.398 . S
C1054 H1042 0.950 . S
C1054 C1053 1.398 . S
C1054 C1055 1.391 . S
C1055 H1043 0.950 . S
C1055 C1051 1.393 . S
C1055 C1054 1.391 . S
H1056 C1064 0.950 . S
H1057 C1069 0.950 . S
H1058 C1066 0.950 . S
H1059 C1068 0.950 . S
H1060 C1070 0.950 . S
H1061 C1072 0.950 . S
H1062 C1074 0.950 . S
H1063 C1075 0.950 . S
C1064 H1056 0.950 . S
C1064 C1065 1.386 . S
C1064 C1066 1.391 . S
C1065 C1064 1.386 . S
C1065 C1069 1.393 . S
C1066 H1058 0.950 . S
C1066 C1064 1.391 . S
C1066 C1067 1.400 . S
C1067 C1066 1.400 . S
C1067 C1068 1.398 . S
C1067 C1073 1.491 . S
C1068 H1059 0.950 . S
C1068 C1067 1.398 . S
C1068 C1069 1.391 . S
C1069 H1057 0.950 . S
C1069 C1065 1.393 . S
C1069 C1068 1.391 . S
C1070 H1060 0.950 . S
C1070 C1071 1.386 . S
C1070 C1072 1.391 . S
C1071 C1070 1.386 . S
C1071 C1075 1.393 . S
C1072 H1061 0.950 . S
C1072 C1070 1.391 . S
C1072 C1073 1.400 . S
C1073 C1067 1.491 . S
C1073 C1072 1.400 . S
C1073 C1074 1.398 . S
C1074 H1062 0.950 . S
C1074 C1073 1.398 . S
C1074 C1075 1.391 . S
C1075 H1063 0.950 . S
C1075 C1071 1.393 . S
C1075 C1074 1.391 . S
H1076 C1084 0.950 . S
H1077 C1089 0.950 . S
H1078 C1086 0.950 . S
H1079 C1088 0.950 . S
H1080 C1090 0.950 . S
H1081 C1092 0.950 . S
H1082 C1094 0.950 . S
H1083 C1095 0.950 . S
C1084 H1076 0.950 . S
C1084 C1085 1.386 . S
C1084 C1086 1.391 . S
C1085 C1084 1.386 . S
C1085 C1089 1.393 . S
C1086 H1078 0.950 . S
C1086 C1084 1.391 . S
C1086 C1087 1.400 . S
C1087 C1086 1.400 . S
C1087 C1088 1.398 . S
C1087 C1093 1.491 . S
C1088 H1079 0.950 . S
C1088 C1087 1.398 . S
C1088 C1089 1.391 . S
C1089 H1077 0.950 . S
C1089 C1085 1.393 . S
C1089 C1088 1.391 . S
C1090 H1080 0.950 . S
C1090 C1091 1.386 . S
C1090 C1092 1.391 . S
C1091 C1090 1.386 . S
C1091 C1095 1.393 . S
C1092 H1081 0.950 . S
C1092 C1090 1.391 . S
C1092 C1093 1.400 . S
C1093 C1087 1.491 . S
C1093 C1092 1.400 . S
C1093 C1094 1.398 . S
C1094 H1082 0.950 . S
C1094 C1093 1.398 . S
C1094 C1095 1.391 . S
C1095 H1083 0.950 . S
C1095 C1091 1.393 . S
C1095 C1094 1.391 . S
H1096 C1104 0.950 . S
H1097 C1109 0.950 . S
H1098 C1106 0.950 . S
H1099 C1108 0.950 . S
H1100 C1110 0.950 . S
H1101 C1112 0.950 . S
H1102 C1114 0.950 . S
H1103 C1115 0.950 . S
C1104 H1096 0.950 . S
C1104 C1105 1.386 . S
C1104 C1106 1.391 . S
C1105 C1104 1.386 . S
C1105 C1109 1.393 . S
C1106 H1098 0.950 . S
C1106 C1104 1.391 . S
C1106 C1107 1.400 . S
C1107 C1106 1.400 . S
C1107 C1108 1.398 . S
C1107 C1113 1.491 . S
C1108 H1099 0.950 . S
C1108 C1107 1.398 . S
C1108 C1109 1.391 . S
C1109 H1097 0.950 . S
C1109 C1105 1.393 . S
C1109 C1108 1.391 . S
C1110 H1100 0.950 . S
C1110 C1111 1.386 . S
C1110 C1112 1.391 . S
C1111 C1110 1.386 . S
C1111 C1115 1.393 . S
C1112 H1101 0.950 . S
C1112 C1110 1.391 . S
C1112 C1113 1.400 . S
C1113 C1107 1.491 . S
C1113 C1112 1.400 . S
C1113 C1114 1.398 . S
C1114 H1102 0.950 . S
C1114 C1113 1.398 . S
C1114 C1115 1.391 . S
C1115 H1103 0.950 . S
C1115 C1111 1.393 . S
C1115 C1114 1.391 . S
H1116 C1124 0.950 . S
H1117 C1129 0.950 . S
H1118 C1126 0.950 . S
H1119 C1128 0.950 . S
H1120 C1130 0.950 . S
H1121 C1132 0.950 . S
H1122 C1134 0.950 . S
H1123 C1135 0.950 . S
C1124 H1116 0.950 . S
C1124 C1125 1.386 . S
C1124 C1126 1.391 . S
C1125 C1124 1.386 . S
C1125 C1129 1.393 . S
C1126 H1118 0.950 . S
C1126 C1124 1.391 . S
C1126 C1127 1.400 . S
C1127 C1126 1.400 . S
C1127 C1128 1.398 . S
C1127 C1133 1.491 . S
C1128 H1119 0.950 . S
C1128 C1127 1.398 . S
C1128 C1129 1.391 . S
C1129 H1117 0.950 . S
C1129 C1125 1.393 . S
C1129 C1128 1.391 . S
C1130 H1120 0.950 . S
C1130 C1131 1.386 . S
C1130 C1132 1.391 . S
C1131 C1130 1.386 . S
C1131 C1135 1.393 . S
C1132 H1121 0.950 . S
C1132 C1130 1.391 . S
C1132 C1133 1.400 . S
C1133 C1127 1.491 . S
C1133 C1132 1.400 . S
C1133 C1134 1.398 . S
C1134 H1122 0.950 . S
C1134 C1133 1.398 . S
C1134 C1135 1.391 . S
C1135 H1123 0.950 . S
C1135 C1131 1.393 . S
C1135 C1134 1.391 . S
H1136 C1144 0.950 . S
H1137 C1149 0.950 . S
H1138 C1146 0.950 . S
H1139 C1148 0.950 . S
H1140 C1150 0.950 . S
H1141 C1152 0.950 . S
H1142 C1154 0.950 . S
H1143 C1155 0.950 . S
C1144 H1136 0.950 . S
C1144 C1145 1.386 . S
C1144 C1146 1.391 . S
C1145 C1144 1.386 . S
C1145 C1149 1.393 . S
C1146 H1138 0.950 . S
C1146 C1144 1.391 . S
C1146 C1147 1.400 . S
C1147 C1146 1.400 . S
C1147 C1148 1.398 . S
C1147 C1153 1.491 . S
C1148 H1139 0.950 . S
C1148 C1147 1.398 . S
C1148 C1149 1.391 . S
C1149 H1137 0.950 . S
C1149 C1145 1.393 . S
C1149 C1148 1.391 . S
C1150 H1140 0.950 . S
C1150 C1151 1.386 . S
C1150 C1152 1.391 . S
C1151 C1150 1.386 . S
C1151 C1155 1.393 . S
C1152 H1141 0.950 . S
C1152 C1150 1.391 . S
C1152 C1153 1.400 . S
C1153 C1147 1.491 . S
C1153 C1152 1.400 . S
C1153 C1154 1.398 . S
C1154 H1142 0.950 . S
C1154 C1153 1.398 . S
C1154 C1155 1.391 . S
C1155 H1143 0.950 . S
C1155 C1151 1.393 . S
C1155 C1154 1.391 . S
H1156 C1164 0.950 . S
H1157 C1169 0.950 . S
H1158 C1166 0.950 . S
H1159 C1168 0.950 . S
H1160 C1170 0.950 . S
H1161 C1172 0.950 . S
H1162 C1174 0.950 . S
H1163 C1175 0.950 . S
C1164 H1156 0.950 . S
C1164 C1165 1.386 . S
C1164 C1166 1.391 . S
C1165 C1164 1.386 . S
C1165 C1169 1.393 . S
C1166 H1158 0.950 . S
C1166 C1164 1.391 . S
C1166 C1167 1.400 . S
C1167 C1166 1.400 . S
C1167 C1168 1.398 . S
C1167 C1173 1.491 . S
C1168 H1159 0.950 . S
C1168 C1167 1.398 . S
C1168 C1169 1.391 . S
C1169 H1157 0.950 . S
C1169 C1165 1.393 . S
C1169 C1168 1.391 . S
C1170 H1160 0.950 . S
C1170 C1171 1.386 . S
C1170 C1172 1.391 . S
C1171 C1170 1.386 . S
C1171 C1175 1.393 . S
C1172 H1161 0.950 . S
C1172 C1170 1.391 . S
C1172 C1173 1.400 . S
C1173 C1167 1.491 . S
C1173 C1172 1.400 . S
C1173 C1174 1.398 . S
C1174 H1162 0.950 . S
C1174 C1173 1.398 . S
C1174 C1175 1.391 . S
C1175 H1163 0.950 . S
C1175 C1171 1.393 . S
C1175 C1174 1.391 . S
H1176 C1184 0.950 . S
H1177 C1189 0.950 . S
H1178 C1186 0.950 . S
H1179 C1188 0.950 . S
H1180 C1190 0.950 . S
H1181 C1192 0.950 . S
H1182 C1194 0.950 . S
H1183 C1195 0.950 . S
C1184 H1176 0.950 . S
C1184 C1185 1.386 . S
C1184 C1186 1.391 . S
C1185 C1184 1.386 . S
C1185 C1189 1.393 . S
C1186 H1178 0.950 . S
C1186 C1184 1.391 . S
C1186 C1187 1.400 . S
C1187 C1186 1.400 . S
C1187 C1188 1.398 . S
C1187 C1193 1.491 . S
C1188 H1179 0.950 . S
C1188 C1187 1.398 . S
C1188 C1189 1.391 . S
C1189 H1177 0.950 . S
C1189 C1185 1.393 . S
C1189 C1188 1.391 . S
C1190 H1180 0.950 . S
C1190 C1191 1.386 . S
C1190 C1192 1.391 . S
C1191 C1190 1.386 . S
C1191 C1195 1.393 . S
C1192 H1181 0.950 . S
C1192 C1190 1.391 . S
C1192 C1193 1.400 . S
C1193 C1187 1.491 . S
C1193 C1192 1.400 . S
C1193 C1194 1.398 . S
C1194 H1182 0.950 . S
C1194 C1193 1.398 . S
C1194 C1195 1.391 . S
C1195 H1183 0.950 . S
C1195 C1191 1.393 . S
C1195 C1194 1.391 . S
H1196 C1204 0.950 . S
H1197 C1209 0.950 . S
H1198 C1206 0.950 . S
H1199 C1208 0.950 . S
H1200 C1210 0.950 . S
H1201 C1212 0.950 . S
H1202 C1214 0.950 . S
H1203 C1215 0.950 . S
C1204 H1196 0.950 . S
C1204 C1205 1.386 . S
C1204 C1206 1.391 . S
C1205 C1204 1.386 . S
C1205 C1209 1.393 . S
C1206 H1198 0.950 . S
C1206 C1204 1.391 . S
C1206 C1207 1.400 . S
C1207 C1206 1.400 . S
C1207 C1208 1.398 . S
C1207 C1213 1.491 . S
C1208 H1199 0.950 . S
C1208 C1207 1.398 . S
C1208 C1209 1.391 . S
C1209 H1197 0.950 . S
C1209 C1205 1.393 . S
C1209 C1208 1.391 . S
C1210 H1200 0.950 . S
C1210 C1211 1.386 . S
C1210 C1212 1.391 . S
C1211 C1210 1.386 . S
C1211 C1215 1.393 . S
C1212 H1201 0.950 . S
C1212 C1210 1.391 . S
C1212 C1213 1.400 . S
C1213 C1207 1.491 . S
C1213 C1212 1.400 . S
C1213 C1214 1.398 . S
C1214 H1202 0.950 . S
C1214 C1213 1.398 . S
C1214 C1215 1.391 . S
C1215 H1203 0.950 . S
C1215 C1211 1.393 . S
C1215 C1214 1.391 . S
H1216 C1224 0.950 . S
H1217 C1229 0.950 . S
H1218 C1226 0.950 . S
H1219 C1228 0.950 . S
H1220 C1230 0.950 . S
H1221 C1232 0.950 . S
H1222 C1234 0.950 . S
H1223 C1235 0.950 . S
C1224 H1216 0.950 . S
C1224 C1225 1.386 . S
C1224 C1226 1.391 . S
C1225 C1224 1.386 . S
C1225 C1229 1.393 . S
C1226 H1218 0.950 . S
C1226 C1224 1.391 . S
C1226 C1227 1.400 . S
C1227 C1226 1.400 . S
C1227 C1228 1.398 . S
C1227 C1233 1.491 . S
C1228 H1219 0.950 . S
C1228 C1227 1.398 . S
C1228 C1229 1.391 . S
C1229 H1217 0.950 . S
C1229 C1225 1.393 . S
C1229 C1228 1.391 . S
C1230 H1220 0.950 . S
C1230 C1231 1.386 . S
C1230 C1232 1.391 . S
C1231 C1230 1.386 . S
C1231 C1235 1.393 . S
C1232 H1221 0.950 . S
C1232 C1230 1.391 . S
C1232 C1233 1.400 . S
C1233 C1227 1.491 . S
C1233 C1232 1.400 . S
C1233 C1234 1.398 . S
C1234 H1222 0.950 . S
C1234 C1233 1.398 . S
C1234 C1235 1.391 . S
C1235 H1223 0.950 . S
C1235 C1231 1.393 . S
C1235 C1234 1.391 . S
H1236 C1244 0.950 . S
H1237 C1249 0.950 . S
H1238 C1246 0.950 . S
H1239 C1248 0.950 . S
H1240 C1250 0.950 . S
H1241 C1252 0.950 . S
H1242 C1254 0.950 . S
H1243 C1255 0.950 . S
C1244 H1236 0.950 . S
C1244 C1245 1.386 . S
C1244 C1246 1.391 . S
C1245 C1244 1.386 . S
C1245 C1249 1.393 . S
C1246 H1238 0.950 . S
C1246 C1244 1.391 . S
C1246 C1247 1.400 . S
C1247 C1246 1.400 . S
C1247 C1248 1.398 . S
C1247 C1253 1.491 . S
C1248 H1239 0.950 . S
C1248 C1247 1.398 . S
C1248 C1249 1.391 . S
C1249 H1237 0.950 . S
C1249 C1245 1.393 . S
C1249 C1248 1.391 . S
C1250 H1240 0.950 . S
C1250 C1251 1.386 . S
C1250 C1252 1.391 . S
C1251 C1250 1.386 . S
C1251 C1255 1.393 . S
C1252 H1241 0.950 . S
C1252 C1250 1.391 . S
C1252 C1253 1.400 . S
C1253 C1247 1.491 . S
C1253 C1252 1.400 . S
C1253 C1254 1.398 . S
C1254 H1242 0.950 . S
C1254 C1253 1.398 . S
C1254 C1255 1.391 . S
C1255 H1243 0.950 . S
C1255 C1251 1.393 . S
C1255 C1254 1.391 . S
H1256 C1264 0.950 . S
H1257 C1269 0.950 . S
H1258 C1266 0.950 . S
H1259 C1268 0.950 . S
H1260 C1270 0.950 . S
H1261 C1272 0.950 . S
H1262 C1274 0.950 . S
H1263 C1275 0.950 . S
C1264 H1256 0.950 . S
C1264 C1265 1.386 . S
C1264 C1266 1.391 . S
C1265 C1264 1.386 . S
C1265 C1269 1.393 . S
C1266 H1258 0.950 . S
C1266 C1264 1.391 . S
C1266 C1267 1.400 . S
C1267 C1266 1.400 . S
C1267 C1268 1.398 . S
C1267 C1273 1.491 . S
C1268 H1259 0.950 . S
C1268 C1267 1.398 . S
C1268 C1269 1.391 . S
C1269 H1257 0.950 . S
C1269 C1265 1.393 . S
C1269 C1268 1.391 . S
C1270 H1260 0.950 . S
C1270 C1271 1.386 . S
C1270 C1272 1.391 . S
C1271 C1270 1.386 . S
C1271 C1275 1.393 . S
C1272 H1261 0.950 . S
C1272 C1270 1.391 . S
C1272 C1273 1.400 . S
C1273 C1267 1.491 . S
C1273 C1272 1.400 . S
C1273 C1274 1.398 . S
C1274 H1262 0.950 . S
C1274 C1273 1.398 . S
C1274 C1275 1.391 . S
C1275 H1263 0.950 . S
C1275 C1271 1.393 . S
C1275 C1274 1.391 . S
H1276 C1284 0.950 . S
H1277 C1289 0.950 . S
H1278 C1286 0.950 . S
H1279 C1288 0.950 . S
H1280 C1290 0.950 . S
H1281 C1292 0.950 . S
H1282 C1294 0.950 . S
H1283 C1295 0.950 . S
C1284 H1276 0.950 . S
C1284 C1285 1.386 . S
C1284 C1286 1.391 . S
C1285 C1284 1.386 . S
C1285 C1289 1.393 . S
C1286 H1278 0.950 . S
C1286 C1284 1.391 . S
C1286 C1287 1.400 . S
C1287 C1286 1.400 . S
C1287 C1288 1.398 . S
C1287 C1293 1.491 . S
C1288 H1279 0.950 . S
C1288 C1287 1.398 . S
C1288 C1289 1.391 . S
C1289 H1277 0.950 . S
C1289 C1285 1.393 . S
C1289 C1288 1.391 . S
C1290 H1280 0.950 . S
C1290 C1291 1.386 . S
C1290 C1292 1.391 . S
C1291 C1290 1.386 . S
C1291 C1295 1.393 . S
C1292 H1281 0.950 . S
C1292 C1290 1.391 . S
C1292 C1293 1.400 . S
C1293 C1287 1.491 . S
C1293 C1292 1.400 . S
C1293 C1294 1.398 . S
C1294 H1282 0.950 . S
C1294 C1293 1.398 . S
C1294 C1295 1.391 . S
C1295 H1283 0.950 . S
C1295 C1291 1.393 . S
C1295 C1294 1.391 . S
C345 C208 1.330 . S
C351 C11 1.317 . S
C365 C26 1.242 . S
C371 C215 1.121 . S
C385 C256 1.368 . S
C391 C32 1.356 . S
C405 C47 0.943 . S
C411 C187 0.930 . S
C425 C201 1.008 . S
C431 C61 1.010 . S
C445 C82 1.261 . S
C451 C222 1.259 . S
C465 C96 1.331 . S
C471 C263 1.317 . S
C485 C103 1.116 . S
C491 C194 1.245 . S
C505 C138 1.325 . S
C511 C123 1.305 . S
C525 C145 0.954 . S
C531 C131 0.946 . S
C545 C152 1.328 . S
C551 C165 1.312 . S
C565 C158 1.358 . S
C571 C116 1.352 . S
C585 C173 1.078 . S
C591 C54 1.253 . S
C605 C68 1.327 . S
C611 C235 1.309 . S
C625 C243 0.978 . S
C631 C19 0.977 . S
C645 C25 1.419 . S
C651 C299 1.197 . S
C665 C137 1.395 . S
C671 C5 1.215 . S
C685 C326 1.319 . S
C691 C46 1.302 . S
C705 C166 1.502 . S
C711 C40 1.505 . S
C725 C306 1.526 . S
C731 C102 1.496 . S
C745 C130 1.425 . S
C751 C88 1.430 . S
C765 C81 1.354 . S
C771 C333 1.376 . S
C785 C67 1.389 . S
C791 C159 1.175 . S
C805 C221 1.355 . S
C811 C277 1.381 . S
C825 C236 1.522 . S
C831 C214 1.485 . S
C845 C193 1.416 . S
C851 C229 1.226 . S
C865 C270 1.313 . S
C871 C186 1.301 . S
C885 C33 1.223 . S
C891 C291 1.394 . S
C905 C151 1.376 . S
C911 C109 1.355 . S
C925 C12 1.502 . S
C931 C320 1.505 . S
C945 C278 1.329 . S
C951 C39 1.314 . S
C965 C4 1.348 . S
C971 C228 1.357 . S
C985 C271 0.950 . S
C991 C89 0.947 . S
C1005 C180 1.255 . S
C1011 C110 1.253 . S
C1025 C75 1.083 . S
C1031 C250 1.246 . S
C1045 C305 1.310 . S
C1051 C292 1.327 . S
C1065 C327 0.952 . S
C1071 C285 0.958 . S
C1085 C319 1.309 . S
C1091 C334 1.327 . S
C1105 C298 1.358 . S
C1111 C312 1.347 . S
C1125 C117 1.200 . S
C1131 C53 1.420 . S
C1145 C18 1.304 . S
C1151 C144 1.322 . S
C1165 C74 1.489 . S
C1171 C124 1.524 . S
C1185 C284 1.432 . S
C1191 C60 1.424 . S
C1205 C95 1.391 . S
C1211 C313 1.171 . S
C1225 C179 1.365 . S
C1231 C207 1.375 . S
C1245 C264 1.527 . S
C1251 C172 1.497 . S
C1265 C249 1.421 . S
C1271 C257 1.206 . S
C1285 C200 1.325 . S
C1291 C242 1.318 . S
