# Generated by pormake.
# Topology wir, (6)-cn, num edge types: 1
# Building blocks:
#     Node 0, Type 0, BuildingBlock: BETDEL_clean_sbu_0, # of connection points: 6
#     Node 1, Type 0, BuildingBlock: BETDEL_clean_sbu_0, # of connection points: 6
#     Node 2, Type 0, BuildingBlock: BETDEL_clean_sbu_0, # of connection points: 6
#     Node 3, Type 0, BuildingBlock: BETDEL_clean_sbu_0, # of connection points: 6
#     Node 4, Type 0, BuildingBlock: BETDEL_clean_sbu_0, # of connection points: 6
#     Node 5, Type 0, BuildingBlock: BETDEL_clean_sbu_0, # of connection points: 6
#     Node 6, Type 0, BuildingBlock: BETDEL_clean_sbu_0, # of connection points: 6
#     Node 7, Type 0, BuildingBlock: BETDEL_clean_sbu_0, # of connection points: 6
#     Node 8, Type 0, BuildingBlock: BETDEL_clean_sbu_0, # of connection points: 6
#     Node 9, Type 0, BuildingBlock: BETDEL_clean_sbu_0, # of connection points: 6
#     Node 10, Type 0, BuildingBlock: BETDEL_clean_sbu_0, # of connection points: 6
#     Node 11, Type 0, BuildingBlock: BETDEL_clean_sbu_0, # of connection points: 6
#     Node 12, Type 0, BuildingBlock: BETDEL_clean_sbu_0, # of connection points: 6
#     Node 13, Type 0, BuildingBlock: BETDEL_clean_sbu_0, # of connection points: 6
#     Node 14, Type 0, BuildingBlock: BETDEL_clean_sbu_0, # of connection points: 6
#     Node 15, Type 0, BuildingBlock: BETDEL_clean_sbu_0, # of connection points: 6
#     Node 16, Type 0, BuildingBlock: BETDEL_clean_sbu_0, # of connection points: 6
#     Node 17, Type 0, BuildingBlock: BETDEL_clean_sbu_0, # of connection points: 6
#     Node 18, Type 0, BuildingBlock: BETDEL_clean_sbu_0, # of connection points: 6
#     Node 19, Type 0, BuildingBlock: BETDEL_clean_sbu_0, # of connection points: 6
#     Node 20, Type 0, BuildingBlock: BETDEL_clean_sbu_0, # of connection points: 6
#     Node 21, Type 0, BuildingBlock: BETDEL_clean_sbu_0, # of connection points: 6
#     Node 22, Type 0, BuildingBlock: BETDEL_clean_sbu_0, # of connection points: 6
#     Node 23, Type 0, BuildingBlock: BETDEL_clean_sbu_0, # of connection points: 6
#     Node 24, Type 0, BuildingBlock: BETDEL_clean_sbu_0, # of connection points: 6
#     Node 25, Type 0, BuildingBlock: BETDEL_clean_sbu_0, # of connection points: 6
#     Node 26, Type 0, BuildingBlock: BETDEL_clean_sbu_0, # of connection points: 6
#     Node 27, Type 0, BuildingBlock: BETDEL_clean_sbu_0, # of connection points: 6
#     Node 28, Type 0, BuildingBlock: BETDEL_clean_sbu_0, # of connection points: 6
#     Node 29, Type 0, BuildingBlock: BETDEL_clean_sbu_0, # of connection points: 6
#     Node 30, Type 0, BuildingBlock: BETDEL_clean_sbu_0, # of connection points: 6
#     Node 31, Type 0, BuildingBlock: BETDEL_clean_sbu_0, # of connection points: 6
#     Edge 32, Type (0, 0), BuildingBlock: OJICUG_clean_linker_0, # of connection points: 2
#     Edge 33, Type (0, 0), BuildingBlock: OJICUG_clean_linker_0, # of connection points: 2
#     Edge 34, Type (0, 0), BuildingBlock: OJICUG_clean_linker_0, # of connection points: 2
#     Edge 35, Type (0, 0), BuildingBlock: OJICUG_clean_linker_0, # of connection points: 2
#     Edge 36, Type (0, 0), BuildingBlock: OJICUG_clean_linker_0, # of connection points: 2
#     Edge 37, Type (0, 0), BuildingBlock: OJICUG_clean_linker_0, # of connection points: 2
#     Edge 38, Type (0, 0), BuildingBlock: OJICUG_clean_linker_0, # of connection points: 2
#     Edge 39, Type (0, 0), BuildingBlock: OJICUG_clean_linker_0, # of connection points: 2
#     Edge 40, Type (0, 0), BuildingBlock: OJICUG_clean_linker_0, # of connection points: 2
#     Edge 41, Type (0, 0), BuildingBlock: OJICUG_clean_linker_0, # of connection points: 2
#     Edge 42, Type (0, 0), BuildingBlock: OJICUG_clean_linker_0, # of connection points: 2
#     Edge 43, Type (0, 0), BuildingBlock: OJICUG_clean_linker_0, # of connection points: 2
#     Edge 44, Type (0, 0), BuildingBlock: OJICUG_clean_linker_0, # of connection points: 2
#     Edge 45, Type (0, 0), BuildingBlock: OJICUG_clean_linker_0, # of connection points: 2
#     Edge 46, Type (0, 0), BuildingBlock: OJICUG_clean_linker_0, # of connection points: 2
#     Edge 47, Type (0, 0), BuildingBlock: OJICUG_clean_linker_0, # of connection points: 2
#     Edge 48, Type (0, 0), BuildingBlock: OJICUG_clean_linker_0, # of connection points: 2
#     Edge 49, Type (0, 0), BuildingBlock: OJICUG_clean_linker_0, # of connection points: 2
#     Edge 50, Type (0, 0), BuildingBlock: OJICUG_clean_linker_0, # of connection points: 2
#     Edge 51, Type (0, 0), BuildingBlock: OJICUG_clean_linker_0, # of connection points: 2
#     Edge 52, Type (0, 0), BuildingBlock: OJICUG_clean_linker_0, # of connection points: 2
#     Edge 53, Type (0, 0), BuildingBlock: OJICUG_clean_linker_0, # of connection points: 2
#     Edge 54, Type (0, 0), BuildingBlock: OJICUG_clean_linker_0, # of connection points: 2
#     Edge 55, Type (0, 0), BuildingBlock: OJICUG_clean_linker_0, # of connection points: 2
#     Edge 56, Type (0, 0), BuildingBlock: OJICUG_clean_linker_0, # of connection points: 2
#     Edge 57, Type (0, 0), BuildingBlock: OJICUG_clean_linker_0, # of connection points: 2
#     Edge 58, Type (0, 0), BuildingBlock: OJICUG_clean_linker_0, # of connection points: 2
#     Edge 59, Type (0, 0), BuildingBlock: OJICUG_clean_linker_0, # of connection points: 2
#     Edge 60, Type (0, 0), BuildingBlock: OJICUG_clean_linker_0, # of connection points: 2
#     Edge 61, Type (0, 0), BuildingBlock: OJICUG_clean_linker_0, # of connection points: 2
#     Edge 62, Type (0, 0), BuildingBlock: OJICUG_clean_linker_0, # of connection points: 2
#     Edge 63, Type (0, 0), BuildingBlock: OJICUG_clean_linker_0, # of connection points: 2
#     Edge 64, Type (0, 0), BuildingBlock: OJICUG_clean_linker_0, # of connection points: 2
#     Edge 65, Type (0, 0), BuildingBlock: OJICUG_clean_linker_0, # of connection points: 2
#     Edge 66, Type (0, 0), BuildingBlock: OJICUG_clean_linker_0, # of connection points: 2
#     Edge 67, Type (0, 0), BuildingBlock: OJICUG_clean_linker_0, # of connection points: 2
#     Edge 68, Type (0, 0), BuildingBlock: OJICUG_clean_linker_0, # of connection points: 2
#     Edge 69, Type (0, 0), BuildingBlock: OJICUG_clean_linker_0, # of connection points: 2
#     Edge 70, Type (0, 0), BuildingBlock: OJICUG_clean_linker_0, # of connection points: 2
#     Edge 71, Type (0, 0), BuildingBlock: OJICUG_clean_linker_0, # of connection points: 2
#     Edge 72, Type (0, 0), BuildingBlock: OJICUG_clean_linker_0, # of connection points: 2
#     Edge 73, Type (0, 0), BuildingBlock: OJICUG_clean_linker_0, # of connection points: 2
#     Edge 74, Type (0, 0), BuildingBlock: OJICUG_clean_linker_0, # of connection points: 2
#     Edge 75, Type (0, 0), BuildingBlock: OJICUG_clean_linker_0, # of connection points: 2
#     Edge 76, Type (0, 0), BuildingBlock: OJICUG_clean_linker_0, # of connection points: 2
#     Edge 77, Type (0, 0), BuildingBlock: OJICUG_clean_linker_0, # of connection points: 2
#     Edge 78, Type (0, 0), BuildingBlock: OJICUG_clean_linker_0, # of connection points: 2
#     Edge 79, Type (0, 0), BuildingBlock: OJICUG_clean_linker_0, # of connection points: 2
#     Edge 80, Type (0, 0), BuildingBlock: OJICUG_clean_linker_0, # of connection points: 2
#     Edge 81, Type (0, 0), BuildingBlock: OJICUG_clean_linker_0, # of connection points: 2
#     Edge 82, Type (0, 0), BuildingBlock: OJICUG_clean_linker_0, # of connection points: 2
#     Edge 83, Type (0, 0), BuildingBlock: OJICUG_clean_linker_0, # of connection points: 2
#     Edge 84, Type (0, 0), BuildingBlock: OJICUG_clean_linker_0, # of connection points: 2
#     Edge 85, Type (0, 0), BuildingBlock: OJICUG_clean_linker_0, # of connection points: 2
#     Edge 86, Type (0, 0), BuildingBlock: OJICUG_clean_linker_0, # of connection points: 2
#     Edge 87, Type (0, 0), BuildingBlock: OJICUG_clean_linker_0, # of connection points: 2
#     Edge 88, Type (0, 0), BuildingBlock: OJICUG_clean_linker_0, # of connection points: 2
#     Edge 89, Type (0, 0), BuildingBlock: OJICUG_clean_linker_0, # of connection points: 2
#     Edge 90, Type (0, 0), BuildingBlock: OJICUG_clean_linker_0, # of connection points: 2
#     Edge 91, Type (0, 0), BuildingBlock: OJICUG_clean_linker_0, # of connection points: 2
#     Edge 92, Type (0, 0), BuildingBlock: OJICUG_clean_linker_0, # of connection points: 2
#     Edge 93, Type (0, 0), BuildingBlock: OJICUG_clean_linker_0, # of connection points: 2
#     Edge 94, Type (0, 0), BuildingBlock: OJICUG_clean_linker_0, # of connection points: 2
#     Edge 95, Type (0, 0), BuildingBlock: OJICUG_clean_linker_0, # of connection points: 2
#     Edge 96, Type (0, 0), BuildingBlock: OJICUG_clean_linker_0, # of connection points: 2
#     Edge 97, Type (0, 0), BuildingBlock: OJICUG_clean_linker_0, # of connection points: 2
#     Edge 98, Type (0, 0), BuildingBlock: OJICUG_clean_linker_0, # of connection points: 2
#     Edge 99, Type (0, 0), BuildingBlock: OJICUG_clean_linker_0, # of connection points: 2
#     Edge 100, Type (0, 0), BuildingBlock: OJICUG_clean_linker_0, # of connection points: 2
#     Edge 101, Type (0, 0), BuildingBlock: OJICUG_clean_linker_0, # of connection points: 2
#     Edge 102, Type (0, 0), BuildingBlock: OJICUG_clean_linker_0, # of connection points: 2
#     Edge 103, Type (0, 0), BuildingBlock: OJICUG_clean_linker_0, # of connection points: 2
#     Edge 104, Type (0, 0), BuildingBlock: OJICUG_clean_linker_0, # of connection points: 2
#     Edge 105, Type (0, 0), BuildingBlock: OJICUG_clean_linker_0, # of connection points: 2
#     Edge 106, Type (0, 0), BuildingBlock: OJICUG_clean_linker_0, # of connection points: 2
#     Edge 107, Type (0, 0), BuildingBlock: OJICUG_clean_linker_0, # of connection points: 2
#     Edge 108, Type (0, 0), BuildingBlock: OJICUG_clean_linker_0, # of connection points: 2
#     Edge 109, Type (0, 0), BuildingBlock: OJICUG_clean_linker_0, # of connection points: 2
#     Edge 110, Type (0, 0), BuildingBlock: OJICUG_clean_linker_0, # of connection points: 2
#     Edge 111, Type (0, 0), BuildingBlock: OJICUG_clean_linker_0, # of connection points: 2
#     Edge 112, Type (0, 0), BuildingBlock: OJICUG_clean_linker_0, # of connection points: 2
#     Edge 113, Type (0, 0), BuildingBlock: OJICUG_clean_linker_0, # of connection points: 2
#     Edge 114, Type (0, 0), BuildingBlock: OJICUG_clean_linker_0, # of connection points: 2
#     Edge 115, Type (0, 0), BuildingBlock: OJICUG_clean_linker_0, # of connection points: 2
#     Edge 116, Type (0, 0), BuildingBlock: OJICUG_clean_linker_0, # of connection points: 2
#     Edge 117, Type (0, 0), BuildingBlock: OJICUG_clean_linker_0, # of connection points: 2
#     Edge 118, Type (0, 0), BuildingBlock: OJICUG_clean_linker_0, # of connection points: 2
#     Edge 119, Type (0, 0), BuildingBlock: OJICUG_clean_linker_0, # of connection points: 2
#     Edge 120, Type (0, 0), BuildingBlock: OJICUG_clean_linker_0, # of connection points: 2
#     Edge 121, Type (0, 0), BuildingBlock: OJICUG_clean_linker_0, # of connection points: 2
#     Edge 122, Type (0, 0), BuildingBlock: OJICUG_clean_linker_0, # of connection points: 2
#     Edge 123, Type (0, 0), BuildingBlock: OJICUG_clean_linker_0, # of connection points: 2
#     Edge 124, Type (0, 0), BuildingBlock: OJICUG_clean_linker_0, # of connection points: 2
#     Edge 125, Type (0, 0), BuildingBlock: OJICUG_clean_linker_0, # of connection points: 2
#     Edge 126, Type (0, 0), BuildingBlock: OJICUG_clean_linker_0, # of connection points: 2
#     Edge 127, Type (0, 0), BuildingBlock: OJICUG_clean_linker_0, # of connection points: 2
# Relax obj value: 0.290
# Max RMSD: 0.191
# Mean RMSD: 0.191
data_MOF--net-wir--node1-BETDEL_clean_sbu_0--edge1-OJICUG_clean_linker_0
_symmetry_space_group_name_H-M    P1
_symmetry_Int_Tables_number       1
_symmetry_cell_setting            triclinic
loop_
_symmetry_equiv_pos_as_xyz
'x, y, z'
_cell_length_a     25.949891
_cell_length_b     26.255883
_cell_length_c     71.415908
_cell_angle_alpha  90.01965
_cell_angle_beta   90.141502
_cell_angle_gamma 90.01394
loop_
_atom_site_label
_atom_site_type_symbol
_atom_site_fract_x
_atom_site_fract_y
_atom_site_fract_z
_atom_type_partial_charge
Dy0 Dy 0.23996 0.22886 0.34274 0.0
C1 C 0.21554 0.07342 0.30098 0.0
C2 C 0.23642 0.32825 0.35139 0.0
Dy3 Dy 0.21261 0.1504 0.32644 0.0
O4 O 0.27905 0.30319 0.34899 0.0
O5 O 0.19715 0.29803 0.35045 0.0
O6 O 0.28277 0.20778 0.36801 0.0
O7 O 0.28629 0.15646 0.34441 0.0
C8 C 0.29849 0.16387 0.36201 0.0
C9 C 0.12779 0.21227 0.32892 0.0
O10 O 0.20321 0.1121 0.35282 0.0
O11 O 0.18885 0.1913 0.36439 0.0
O12 O 0.17481 0.08692 0.31025 0.0
O13 O 0.25476 0.09975 0.3066 0.0
O14 O 0.12751 0.16365 0.33229 0.0
O15 O 0.17306 0.22541 0.32424 0.0
O16 O 0.28211 0.24762 0.31612 0.0
O17 O 0.23461 0.19032 0.30034 0.0
C18 C 0.18807 0.1412 0.36647 0.0
C19 C 0.26637 0.22866 0.30009 0.0
Dy20 Dy 0.09559 0.99119 0.5928 0.0
C21 C 0.24285 0.95082 0.55085 0.0
C22 C 0.99908 1.00046 0.60655 0.0
Dy23 Dy 0.16647 0.95194 0.5766 0.0
O24 O 0.04071 1.01425 0.61518 0.0
O25 O 1.01042 0.98058 0.59062 0.0
O26 O 0.11764 0.06965 0.60103 0.0
O27 O 0.17804 1.01515 0.59783 0.0
C28 C 0.1657 0.05923 0.60433 0.0
C29 C 0.10078 0.87297 0.58138 0.0
O30 O 0.20346 0.93903 0.60377 0.0
O31 O 0.12372 0.94273 0.61654 0.0
O32 O 0.2272 0.91093 0.56001 0.0
O33 O 0.21898 0.99111 0.55669 0.0
O34 O 0.15063 0.86983 0.58283 0.0
O35 O 0.08781 0.9185 0.57695 0.0
O36 O 0.07545 0.03099 0.56599 0.0
O37 O 0.12468 0.97527 0.55062 0.0
C38 C 0.17334 0.9331 0.61828 0.0
C39 C 0.08989 1.01092 0.55011 0.0
Dy40 Dy 0.33086 0.82964 0.84289 0.0
C41 C 0.35715 0.98685 0.80131 0.0
C42 C 0.33393 0.73017 0.85157 0.0
Dy43 Dy 0.35899 0.90965 0.82678 0.0
O44 O 0.29142 0.75582 0.84967 0.0
O45 O 0.37344 0.75984 0.85001 0.0
O46 O 0.29074 0.85305 0.86843 0.0
O47 O 0.2849 0.90227 0.84441 0.0
C48 C 0.27395 0.89637 0.86218 0.0
C49 C 0.44307 0.84664 0.82929 0.0
O50 O 0.36946 0.94642 0.85363 0.0
O51 O 0.38244 0.86618 0.8646 0.0
O52 O 0.3977 0.9725 0.81057 0.0
O53 O 0.3175 0.96141 0.807 0.0
O54 O 0.44393 0.89522 0.83275 0.0
O55 O 0.39762 0.8342 0.82446 0.0
O56 O 0.28822 0.81169 0.81631 0.0
O57 O 0.33645 0.86881 0.80074 0.0
C58 C 0.38341 0.91614 0.86716 0.0
C59 C 0.30437 0.83058 0.80036 0.0
Dy60 Dy 0.48565 0.07525 0.09281 0.0
C61 C 0.32731 0.09832 0.05164 0.0
C62 C 0.58668 0.07829 0.10113 0.0
Dy63 Dy 0.40542 0.10195 0.07708 0.0
O64 O 0.56048 0.03635 0.09949 0.0
O65 O 0.55672 0.11735 0.09943 0.0
O66 O 0.46329 0.03565 0.11856 0.0
O67 O 0.41312 1.02858 0.09465 0.0
C68 C 0.41975 1.01797 0.11241 0.0
C69 C 0.46641 0.18692 0.08 0.0
O70 O 0.36761 0.11165 0.1038 0.0
O71 O 0.44868 0.12516 0.11479 0.0
O72 O 0.3409 0.13872 0.06089 0.0
O73 O 0.35401 0.05973 0.05734 0.0
O74 O 0.41729 0.18607 0.08345 0.0
O75 O 0.48049 0.14261 0.07493 0.0
O76 O 0.50359 0.03284 0.06628 0.0
O77 O 0.44695 0.08186 0.05081 0.0
C78 C 0.39814 0.12576 0.11733 0.0
C79 C 0.48507 0.04953 0.05033 0.0
Dy80 Dy 0.24059 0.82857 0.18647 0.0
C81 C 0.21538 0.98654 0.22757 0.0
C82 C 0.23635 0.72929 0.17756 0.0
Dy83 Dy 0.21283 0.90873 0.20242 0.0
O84 O 0.27922 0.7543 0.17967 0.0
O85 O 0.19725 0.75947 0.17908 0.0
O86 O 0.28119 0.85148 0.16095 0.0
O87 O 0.28698 0.90092 0.1849 0.0
C88 C 0.29801 0.89485 0.16715 0.0
C89 C 0.12834 0.84622 0.19992 0.0
O90 O 0.20281 0.94572 0.17565 0.0
O91 O 0.1895 0.86557 0.16466 0.0
O92 O 0.1746 0.97211 0.21845 0.0
O93 O 0.25483 0.96071 0.22195 0.0
O94 O 0.12782 0.89477 0.19642 0.0
O95 O 0.17368 0.83354 0.2048 0.0
O96 O 0.28231 0.81047 0.21331 0.0
O97 O 0.23488 0.86869 0.22867 0.0
C98 C 0.1888 0.91555 0.16211 0.0
C99 C 0.2664 0.83004 0.2292 0.0
Dy100 Dy 0.47911 0.99016 0.43618 0.0
C101 C 0.33133 0.95047 0.47769 0.0
C102 C 0.57747 0.99859 0.42401 0.0
Dy103 Dy 0.40721 0.95047 0.45174 0.0
O104 O 0.5369 1.01129 0.41453 0.0
O105 O 0.56414 0.98013 0.43999 0.0
O106 O 0.46044 0.06661 0.42528 0.0
O107 O 0.3972 1.0172 0.43189 0.0
C108 C 0.41135 0.05846 0.42349 0.0
C109 C 0.47131 0.87079 0.44593 0.0
O110 O 0.36992 0.94218 0.42445 0.0
O111 O 0.45015 0.94352 0.41206 0.0
O112 O 0.34527 0.91053 0.46816 0.0
O113 O 0.35665 0.99015 0.47212 0.0
O114 O 0.42139 0.86862 0.44443 0.0
O115 O 0.48516 0.91565 0.45091 0.0
O116 O 0.49599 0.02982 0.46339 0.0
O117 O 0.44971 0.97021 0.47793 0.0
C118 C 0.40017 0.93652 0.40998 0.0
C119 C 0.48252 1.00754 0.479 0.0
Dy120 Dy 0.33215 0.22984 0.6865 0.0
C121 C 0.35816 0.07395 0.72781 0.0
C122 C 0.33909 0.32885 0.67755 0.0
Dy123 Dy 0.36064 0.15089 0.70226 0.0
O124 O 0.29558 0.30553 0.68032 0.0
O125 O 0.37719 0.29722 0.67841 0.0
O126 O 0.28671 0.21111 0.66167 0.0
O127 O 0.28657 0.15676 0.68442 0.0
C128 C 0.2725 0.16617 0.66711 0.0
C129 C 0.44491 0.2135 0.69971 0.0
O130 O 0.36895 0.11271 0.67565 0.0
O131 O 0.38111 0.19244 0.66424 0.0
O132 O 0.39888 0.08775 0.71857 0.0
O133 O 0.31881 0.09988 0.72209 0.0
O134 O 0.44539 0.16505 0.696 0.0
O135 O 0.39971 0.22605 0.7047 0.0
O136 O 0.29042 0.24826 0.71318 0.0
O137 O 0.33843 0.19054 0.72855 0.0
C138 C 0.38156 0.14245 0.66184 0.0
C139 C 0.30654 0.22884 0.72907 0.0
Dy140 Dy 0.08473 0.07596 0.93632 0.0
C141 C 0.24428 0.0988 0.97746 0.0
C142 C 0.98389 0.08089 0.92792 0.0
Dy143 Dy 0.16587 0.10246 0.95215 0.0
O144 O 1.00918 0.03841 0.9296 0.0
O145 O 1.01463 0.11937 0.92959 0.0
O146 O 0.10714 0.03588 0.91065 0.0
O147 O 0.15725 1.02922 0.93458 0.0
C148 C 0.15078 1.01849 0.91682 0.0
C149 C 0.10454 0.18718 0.94941 0.0
O150 O 0.20322 0.11193 0.92533 0.0
O151 O 0.12212 0.12577 0.91441 0.0
O152 O 0.23035 0.1393 0.96836 0.0
O153 O 0.21775 0.06016 0.97168 0.0
O154 O 0.15363 0.1866 0.94589 0.0
O155 O 0.09075 0.14276 0.95443 0.0
O156 O 0.06659 0.03386 0.96289 0.0
O157 O 0.12447 0.08169 0.97837 0.0
C158 C 0.17265 0.12606 0.91182 0.0
C159 C 0.08579 0.04997 0.97884 0.0
Dy160 Dy 0.85899 0.90744 0.70311 0.0
C161 C 0.83558 0.73052 0.6768 0.0
C162 C 0.85535 0.98364 0.72892 0.0
Dy163 Dy 0.83273 0.82933 0.68634 0.0
O164 O 0.89619 0.9707 0.71961 0.0
O165 O 0.81634 0.9572 0.72317 0.0
O166 O 0.94457 0.89435 0.69776 0.0
O167 O 0.89887 0.83225 0.70516 0.0
C168 C 0.94434 0.8456 0.70085 0.0
C169 C 0.77595 0.89622 0.66699 0.0
O170 O 0.79022 0.8095 0.71289 0.0
O171 O 0.83658 0.86712 0.72899 0.0
O172 O 0.79309 0.75603 0.67889 0.0
O173 O 0.87517 0.76002 0.6786 0.0
O174 O 0.79442 0.85389 0.66049 0.0
O175 O 0.78543 0.90087 0.68494 0.0
O176 O 0.86977 0.94707 0.67712 0.0
O177 O 0.88536 0.86825 0.66539 0.0
C178 C 0.80526 0.82846 0.72904 0.0
C179 C 0.8861 0.91848 0.66353 0.0
Dy180 Dy 0.90554 0.1087 0.45335 0.0
C181 C 0.07376 0.06126 0.42352 0.0
C182 C 0.82943 0.10515 0.47915 0.0
Dy183 Dy 0.97708 0.07015 0.43711 0.0
O184 O 0.84348 0.14624 0.47034 0.0
O185 O 0.8547 0.06613 0.47292 0.0
O186 O 0.92018 0.19136 0.44759 0.0
O187 O 0.98381 0.14306 0.45297 0.0
C188 C 0.97014 0.18861 0.44876 0.0
C189 C 0.90607 1.00161 0.4261 0.0
O190 O 0.99753 0.03094 0.464 0.0
O191 O 0.94861 0.08708 0.47927 0.0
O192 O 1.0324 0.04656 0.4149 0.0
O193 O 0.06201 0.08176 0.4393 0.0
O194 O 0.95371 0.99078 0.43005 0.0
O195 O 0.89502 0.04698 0.43148 0.0
O196 O 0.86933 0.12337 0.42615 0.0
O197 O 0.94911 0.11862 0.41336 0.0
C198 C 0.98346 0.05149 0.47984 0.0
C199 C 0.89964 0.12911 0.41167 0.0
Dy200 Dy 0.7108 0.14624 0.20252 0.0
C201 C 0.73564 0.32681 0.17794 0.0
C202 C 0.71382 0.06866 0.22787 0.0
Dy203 Dy 0.7389 0.22721 0.18641 0.0
O204 O 0.67278 0.08337 0.21897 0.0
O205 O 0.75323 0.09394 0.22187 0.0
O206 O 0.62571 0.1615 0.19696 0.0
O207 O 0.67281 0.22203 0.20511 0.0
C208 C 0.62708 0.21005 0.20049 0.0
C209 C 0.79519 0.16008 0.16701 0.0
O210 O 0.78181 0.2442 0.21299 0.0
O211 O 0.73395 0.18661 0.22855 0.0
O212 O 0.77821 0.30117 0.17973 0.0
O213 O 0.69617 0.29708 0.17948 0.0
O214 O 0.77838 0.20339 0.16076 0.0
O215 O 0.78471 0.15465 0.18484 0.0
O216 O 0.6996 0.11027 0.17559 0.0
O217 O 0.68671 0.19084 0.16485 0.0
C218 C 0.76603 0.22484 0.22891 0.0
C219 C 0.6856 0.14092 0.16218 0.0
Dy220 Dy 0.66492 0.95681 0.95227 0.0
C221 C 0.48345 0.9803 0.92799 0.0
C222 C 0.74316 0.96046 0.97769 0.0
Dy223 Dy 0.58439 0.98362 0.93649 0.0
O224 O 0.72956 0.92008 0.96844 0.0
O225 O 0.71638 0.99903 0.97202 0.0
O226 O 0.65273 0.87258 0.94616 0.0
O227 O 0.58961 0.91641 0.95451 0.0
C228 C 0.60361 0.87192 0.94963 0.0
C229 C 0.65097 0.04046 0.9169 0.0
O230 O 0.56645 1.0261 0.963 0.0
O231 O 0.62334 0.97733 0.9785 0.0
O232 O 0.50967 1.02229 0.92945 0.0
O233 O 0.51333 0.94132 0.93002 0.0
O234 O 0.60749 1.02278 0.91068 0.0
O235 O 0.65695 0.03016 0.93472 0.0
O236 O 0.70232 0.94674 0.92548 0.0
O237 O 0.62112 0.93321 0.91463 0.0
C238 C 0.58512 1.00958 0.97896 0.0
C239 C 0.67162 0.93253 0.91201 0.0
Dy240 Dy 0.8579 0.1504 0.82712 0.0
C241 C 0.83308 0.33079 0.85119 0.0
C242 C 0.85514 0.07211 0.80214 0.0
Dy243 Dy 0.82988 0.231 0.84292 0.0
O244 O 0.8959 0.08656 0.81125 0.0
O245 O 0.81577 0.09823 0.80766 0.0
O246 O 0.94293 0.16425 0.83304 0.0
O247 O 0.89716 0.22564 0.8247 0.0
C248 C 0.94251 0.21281 0.82953 0.0
C249 C 0.77297 0.16423 0.86233 0.0
O250 O 0.78795 0.24822 0.8161 0.0
O251 O 0.83641 0.19069 0.80082 0.0
O252 O 0.79053 0.30507 0.84944 0.0
O253 O 0.87253 0.30103 0.84973 0.0
O254 O 0.78979 0.2076 0.86855 0.0
O255 O 0.78368 0.15866 0.84453 0.0
O256 O 0.86831 0.11448 0.85409 0.0
O257 O 0.88129 0.195 0.86481 0.0
C258 C 0.80443 0.229 0.80024 0.0
C259 C 0.88227 0.1451 0.86752 0.0
Dy260 Dy 0.66216 0.10067 0.57741 0.0
C261 C 0.48114 0.07635 0.60162 0.0
C262 C 0.74078 0.09912 0.5523 0.0
Dy263 Dy 0.58201 0.0732 0.59316 0.0
O264 O 0.7269 0.13876 0.56188 0.0
O265 O 0.71391 0.06007 0.55741 0.0
O266 O 0.64974 0.18464 0.58358 0.0
O267 O 0.58655 0.14068 0.57525 0.0
C268 C 0.60059 0.18517 0.58014 0.0
C269 C 0.64918 1.0165 0.61264 0.0
O270 O 0.56399 0.03111 0.5665 0.0
O271 O 0.62064 0.08023 0.55111 0.0
O272 O 0.50726 0.03435 0.60004 0.0
O273 O 0.51111 0.11534 0.59982 0.0
O274 O 0.60549 0.03351 0.61884 0.0
O275 O 0.65495 1.02716 0.59485 0.0
O276 O 0.69994 0.11024 0.6042 0.0
O277 O 0.61898 0.12344 0.61515 0.0
C278 C 0.58244 0.04794 0.55057 0.0
C279 C 0.66954 0.12428 0.61771 0.0
Dy280 Dy 0.71464 0.90624 0.32757 0.0
C281 C 0.73687 0.72906 0.35249 0.0
C282 C 0.71704 0.98215 0.30155 0.0
Dy283 Dy 0.742 0.82832 0.34383 0.0
O284 O 0.67673 0.96952 0.31123 0.0
O285 O 0.75626 0.95571 0.30709 0.0
O286 O 0.62951 0.89356 0.33356 0.0
O287 O 0.67449 0.83135 0.32555 0.0
C288 C 0.62934 0.84491 0.33023 0.0
C289 C 0.80081 0.89283 0.36327 0.0
O290 O 0.78404 0.80869 0.31719 0.0
O291 O 0.73634 0.86578 0.30149 0.0
O292 O 0.77995 0.75328 0.34994 0.0
O293 O 0.69815 0.76 0.35182 0.0
O294 O 0.78547 0.84853 0.36902 0.0
O295 O 0.78828 0.90082 0.34571 0.0
O296 O 0.70584 0.94544 0.35383 0.0
O297 O 0.69165 0.86654 0.36566 0.0
C298 C 0.76807 0.82742 0.30116 0.0
C299 C 0.69112 0.91671 0.36764 0.0
Dy300 Dy 0.90688 0.95649 0.07692 0.0
C301 C 0.08865 0.98061 0.1015 0.0
C302 C 0.82839 0.95992 0.05161 0.0
Dy303 Dy 0.98782 0.9838 0.09288 0.0
O304 O 0.84258 0.91944 0.06067 0.0
O305 O 0.85471 0.99867 0.05742 0.0
O306 O 0.92001 0.87236 0.08265 0.0
O307 O 0.98276 0.91716 0.0746 0.0
C308 C 0.96919 0.8724 0.0793 0.0
C309 C 0.92028 0.03952 0.11248 0.0
O310 O 1.00559 1.02624 0.06634 0.0
O311 O 0.94816 0.97801 0.05077 0.0
O312 O 0.0625 1.02263 0.09998 0.0
O313 O 0.05874 0.94163 0.09951 0.0
O314 O 0.964 1.0225 0.11871 0.0
O315 O 0.91474 1.02948 0.09462 0.0
O316 O 0.87002 0.9454 0.10377 0.0
O317 O 0.95142 0.93252 0.11456 0.0
C318 C 0.98655 1.01009 0.05036 0.0
C319 C 0.90092 0.93128 0.11719 0.0
Dy320 Dy 0.7408 0.72907 0.84309 0.0
C321 C 0.7166 0.57541 0.80093 0.0
C322 C 0.73546 0.82784 0.85244 0.0
Dy323 Dy 0.71368 0.65178 0.82667 0.0
O324 O 0.77858 0.8039 0.84966 0.0
O325 O 0.6968 0.79687 0.85147 0.0
O326 O 0.7842 0.70908 0.86829 0.0
O327 O 0.78702 0.65653 0.845 0.0
C328 C 0.79963 0.66485 0.86253 0.0
C329 C 0.62874 0.71377 0.82913 0.0
O330 O 0.70465 0.61167 0.85264 0.0
O331 O 0.68986 0.69027 0.86458 0.0
O332 O 0.67588 0.58858 0.81028 0.0
O333 O 0.75576 0.60181 0.80656 0.0
O334 O 0.62845 0.66515 0.83249 0.0
O335 O 0.67407 0.72685 0.82452 0.0
O336 O 0.78302 0.74896 0.81653 0.0
O337 O 0.73649 0.69123 0.80062 0.0
C338 C 0.68935 0.64009 0.86643 0.0
C339 C 0.76789 0.72981 0.80044 0.0
Dy340 Dy 0.59368 0.49101 0.09299 0.0
C341 C 0.74054 0.45045 0.05135 0.0
C342 C 0.4972 0.50176 0.10667 0.0
Dy343 Dy 0.66417 0.45116 0.07709 0.0
O344 O 0.539 0.51494 0.11531 0.0
O345 O 0.50835 0.48167 0.09075 0.0
O346 O 0.61621 0.56964 0.10088 0.0
O347 O 0.67611 0.51447 0.09827 0.0
C348 C 0.66406 0.55892 0.10446 0.0
C349 C 0.59822 0.37236 0.08184 0.0
O350 O 0.70086 0.43805 0.10429 0.0
O351 O 0.62102 0.44271 0.11691 0.0
O352 O 0.7253 0.41051 0.06058 0.0
O353 O 0.7163 0.49059 0.05714 0.0
O354 O 0.64806 0.36911 0.08333 0.0
O355 O 0.58534 0.41792 0.07738 0.0
O356 O 0.57415 0.53025 0.066 0.0
O357 O 0.62273 0.47346 0.05093 0.0
C358 C 0.67051 0.43261 0.11876 0.0
C359 C 0.58841 0.50949 0.05022 0.0
Dy360 Dy 0.82959 0.32735 0.34251 0.0
C361 C 0.85415 0.48193 0.30009 0.0
C362 C 0.83342 0.22826 0.35155 0.0
Dy363 Dy 0.85643 0.40551 0.32583 0.0
O364 O 0.79071 0.25321 0.34912 0.0
O365 O 0.87265 0.25848 0.35045 0.0
O366 O 0.78762 0.34924 0.36779 0.0
O367 O 0.78321 0.39976 0.34397 0.0
C368 C 0.77159 0.3929 0.36164 0.0
C369 C 0.94134 0.34369 0.32848 0.0
O370 O 0.86621 0.44463 0.35204 0.0
O371 O 0.88146 0.36579 0.36382 0.0
O372 O 0.89464 0.46858 0.30959 0.0
O373 O 0.81477 0.45574 0.30558 0.0
O374 O 0.94167 0.3924 0.33164 0.0
O375 O 0.89598 0.33044 0.32389 0.0
O376 O 0.78694 0.30737 0.31603 0.0
O377 O 0.83345 0.36475 0.29999 0.0
C378 C 0.88217 0.41596 0.3657 0.0
C379 C 0.80208 0.32607 0.29992 0.0
Dy380 Dy 0.98841 0.5761 0.59295 0.0
C381 C 0.82999 0.60047 0.55156 0.0
C382 C 0.0891 0.5803 0.60165 0.0
Dy383 Dy 0.90833 0.60247 0.57694 0.0
O384 O 0.06347 0.53804 0.59993 0.0
O385 O 0.05877 0.61902 0.59983 0.0
O386 O 0.96578 0.53631 0.61861 0.0
O387 O 0.91591 0.52922 0.5946 0.0
C388 C 0.92234 0.51858 0.61238 0.0
C389 C 0.96931 0.68742 0.57986 0.0
O390 O 0.87008 0.61186 0.60361 0.0
O391 O 0.95081 0.626 0.61477 0.0
O392 O 0.84412 0.64042 0.56094 0.0
O393 O 0.85641 0.56144 0.55702 0.0
O394 O 0.92021 0.68659 0.5833 0.0
O395 O 0.9834 0.64307 0.57486 0.0
O396 O 1.00746 0.53353 0.56657 0.0
O397 O 0.95024 0.58131 0.55082 0.0
C398 C 0.90024 0.62627 0.6172 0.0
C399 C 0.98892 0.54956 0.55053 0.0
Dy400 Dy 0.74234 0.32898 0.6861 0.0
C401 C 0.71728 0.48621 0.72784 0.0
C402 C 0.73644 0.23009 0.6769 0.0
Dy403 Dy 0.7152 0.40891 0.70244 0.0
O404 O 0.77976 0.25425 0.67913 0.0
O405 O 0.69784 0.26091 0.67837 0.0
O406 O 0.78307 0.35206 0.66066 0.0
O407 O 0.78908 0.40118 0.68471 0.0
C408 C 0.80003 0.39529 0.66693 0.0
C409 C 0.63065 0.34637 0.69996 0.0
O410 O 0.70532 0.44679 0.67583 0.0
O411 O 0.69127 0.36708 0.66453 0.0
O412 O 0.67667 0.47189 0.71861 0.0
O413 O 0.75685 0.46052 0.72223 0.0
O414 O 0.63007 0.39495 0.69652 0.0
O415 O 0.67606 0.33372 0.70471 0.0
O416 O 0.78442 0.30963 0.71274 0.0
O417 O 0.73824 0.36823 0.72844 0.0
C418 C 0.69094 0.41713 0.66219 0.0
C419 C 0.76923 0.32913 0.72874 0.0
Dy420 Dy 0.9776 0.48996 0.93658 0.0
C421 C 0.82839 0.44962 0.97808 0.0
C422 C 0.07462 0.49846 0.92313 0.0
Dy423 Dy 0.90544 0.45037 0.9526 0.0
O424 O 1.03339 0.51322 0.91448 0.0
O425 O 0.06259 0.47807 0.93891 0.0
O426 O 0.95593 0.5684 0.92824 0.0
O427 O 0.89521 0.5142 0.93158 0.0
C428 C 0.90778 0.55813 0.92499 0.0
C429 C 0.97172 0.37182 0.94788 0.0
O430 O 0.86906 0.43833 0.92531 0.0
O431 O 0.9491 0.44191 0.91273 0.0
O432 O 0.84422 0.40957 0.96904 0.0
O433 O 0.85245 0.48979 0.97224 0.0
O434 O 0.92192 0.36837 0.94628 0.0
O435 O 0.98424 0.41736 0.95248 0.0
O436 O 0.99697 0.52881 0.96371 0.0
O437 O 0.94586 0.47394 0.97878 0.0
C438 C 0.89941 0.43266 0.91085 0.0
C439 C 0.98113 0.50911 0.9795 0.0
Dy440 Dy 0.82919 0.73091 0.1867 0.0
C441 C 0.8555 0.57364 0.22742 0.0
C442 C 0.83588 0.82993 0.17766 0.0
Dy443 Dy 0.85779 0.65158 0.20232 0.0
O444 O 0.79244 0.80643 0.18036 0.0
O445 O 0.87408 0.79849 0.17873 0.0
O446 O 0.78386 0.71202 0.16183 0.0
O447 O 0.78369 0.65777 0.18457 0.0
C448 C 0.76973 0.66704 0.16724 0.0
C449 C 0.94212 0.71407 0.19977 0.0
O450 O 0.8661 0.6141 0.17556 0.0
O451 O 0.87836 0.69405 0.16439 0.0
O452 O 0.89621 0.58797 0.2183 0.0
O453 O 0.81609 0.59978 0.22189 0.0
O454 O 0.9425 0.66563 0.19603 0.0
O455 O 0.89695 0.72668 0.20481 0.0
O456 O 0.78799 0.74922 0.21351 0.0
O457 O 0.83577 0.69095 0.22871 0.0
C458 C 0.87885 0.64412 0.16186 0.0
C459 C 0.80416 0.72949 0.22935 0.0
Dy460 Dy 0.59255 0.56625 0.43629 0.0
C461 C 0.74188 0.60293 0.47815 0.0
C462 C 0.49369 0.56077 0.42424 0.0
Dy463 Dy 0.66593 0.60475 0.45208 0.0
O464 O 0.53354 0.54605 0.41483 0.0
O465 O 0.50804 0.57951 0.44009 0.0
O466 O 0.61011 0.49019 0.42483 0.0
O467 O 0.67407 0.53831 0.43199 0.0
C468 C 0.65934 0.49772 0.42323 0.0
C469 C 0.60246 0.68506 0.44635 0.0
O470 O 0.70278 0.61329 0.42478 0.0
O471 O 0.62223 0.61328 0.41245 0.0
O472 O 0.72842 0.64331 0.46877 0.0
O473 O 0.7161 0.56372 0.47236 0.0
O474 O 0.65239 0.68689 0.44488 0.0
O475 O 0.58842 0.64032 0.45134 0.0
O476 O 0.57556 0.52647 0.46345 0.0
O477 O 0.62294 0.58529 0.47811 0.0
C478 C 0.67228 0.61979 0.41038 0.0
C479 C 0.58952 0.54846 0.4791 0.0
Dy480 Dy 0.35856 0.40853 0.20359 0.0
C481 C 0.33479 0.23179 0.17675 0.0
C482 C 0.35542 0.48455 0.22955 0.0
Dy483 Dy 0.33197 0.33041 0.18647 0.0
O484 O 0.39632 0.471 0.22039 0.0
O485 O 0.31616 0.45878 0.22361 0.0
O486 O 0.44409 0.39443 0.19836 0.0
O487 O 0.39748 0.33289 0.20556 0.0
C488 C 0.44317 0.34564 0.20135 0.0
C489 C 0.27588 0.39804 0.16724 0.0
O490 O 0.28888 0.31028 0.21284 0.0
O491 O 0.33486 0.36773 0.22921 0.0
O492 O 0.29228 0.25724 0.17892 0.0
O493 O 0.37439 0.26128 0.17854 0.0
O494 O 0.29398 0.35563 0.16068 0.0
O495 O 0.28526 0.40237 0.18521 0.0
O496 O 0.36996 0.44822 0.17764 0.0
O497 O 0.38508 0.36944 0.16574 0.0
C498 C 0.30353 0.32905 0.22906 0.0
C499 C 0.38614 0.4197 0.164 0.0
Dy500 Dy 0.40568 0.60729 0.95323 0.0
C501 C 0.57401 0.55874 0.92297 0.0
C502 C 0.3292 0.60468 0.97892 0.0
Dy503 Dy 0.47762 0.5684 0.9368 0.0
O504 O 0.34392 0.64557 0.97014 0.0
O505 O 0.35394 0.56531 0.97268 0.0
O506 O 0.42139 0.68983 0.9478 0.0
O507 O 0.48449 0.64074 0.95298 0.0
C508 C 0.47132 0.68652 0.94891 0.0
C509 C 0.40547 0.5005 0.92607 0.0
O510 O 0.49828 0.52956 0.96378 0.0
O511 O 0.44794 0.58444 0.97913 0.0
O512 O 0.53238 0.54433 0.91446 0.0
O513 O 0.56266 0.57934 0.93877 0.0
O514 O 0.45284 0.48901 0.93022 0.0
O515 O 0.3954 0.54634 0.93109 0.0
O516 O 0.36989 0.62293 0.92604 0.0
O517 O 0.44967 0.61769 0.91321 0.0
C518 C 0.48337 0.54942 0.97964 0.0
C519 C 0.40029 0.6288 0.91158 0.0
Dy520 Dy 0.21461 0.64993 0.70276 0.0
C521 C 0.23955 0.82999 0.67797 0.0
C522 C 0.21718 0.57212 0.72799 0.0
Dy523 Dy 0.24257 0.73048 0.68665 0.0
O524 O 0.1764 0.58665 0.7189 0.0
O525 O 0.25664 0.59787 0.72231 0.0
O526 O 0.12954 0.66424 0.697 0.0
O527 O 0.17585 0.72543 0.70512 0.0
C528 C 0.13032 0.71284 0.70043 0.0
C529 C 0.29916 0.66331 0.66734 0.0
O530 O 0.28503 0.74822 0.71328 0.0
O531 O 0.237 0.69079 0.72882 0.0
O532 O 0.28203 0.80421 0.67974 0.0
O533 O 0.2 0.80044 0.67969 0.0
O534 O 0.28219 0.7065 0.66103 0.0
O535 O 0.28865 0.65803 0.68517 0.0
O536 O 0.20379 0.61368 0.67584 0.0
O537 O 0.19062 0.69408 0.66503 0.0
C538 C 0.26893 0.72916 0.72922 0.0
C539 C 0.18962 0.64416 0.6624 0.0
Dy540 Dy 0.1701 0.45201 0.45316 0.0
C541 C 0.99875 0.4973 0.42253 0.0
C542 C 0.24818 0.45432 0.47834 0.0
Dy543 Dy 0.09522 0.49004 0.4366 0.0
O544 O 0.23207 0.41335 0.46991 0.0
O545 O 0.22406 0.49388 0.47192 0.0
O546 O 0.15425 0.36938 0.44777 0.0
O547 O 0.09151 0.41845 0.45328 0.0
C548 C 0.10438 0.3727 0.44902 0.0
C549 C 0.16777 0.55865 0.4265 0.0
O550 O 0.07364 0.52749 0.46366 0.0
O551 O 0.12935 0.4774 0.47908 0.0
O552 O 0.03971 0.51502 0.41452 0.0
O553 O 1.01089 0.47495 0.43794 0.0
O554 O 0.12064 0.57005 0.431 0.0
O555 O 0.17709 0.51217 0.43071 0.0
O556 O 0.20401 0.4368 0.42563 0.0
O557 O 0.12341 0.4407 0.41312 0.0
C558 C 0.09154 0.51005 0.47954 0.0
C559 C 0.17287 0.43012 0.41134 0.0
Dy560 Dy 0.35607 0.65375 0.32775 0.0
C561 C 0.33403 0.83144 0.35169 0.0
C562 C 0.35344 0.57645 0.3023 0.0
Dy563 Dy 0.32899 0.73175 0.34364 0.0
O564 O 0.39385 0.58962 0.3119 0.0
O565 O 0.3143 0.60337 0.30754 0.0
O566 O 0.44128 0.66638 0.3338 0.0
O567 O 0.39646 0.72844 0.32548 0.0
C568 C 0.44159 0.71491 0.33026 0.0
C569 C 0.27011 0.66822 0.36336 0.0
O570 O 0.2866 0.75056 0.31695 0.0
O571 O 0.33433 0.69331 0.30143 0.0
O572 O 0.29099 0.80704 0.34922 0.0
O573 O 0.37275 0.80046 0.35134 0.0
O574 O 0.28555 0.71276 0.36888 0.0
O575 O 0.28264 0.65939 0.34586 0.0
O576 O 0.36485 0.61518 0.35413 0.0
O577 O 0.37938 0.69425 0.36572 0.0
C578 C 0.30255 0.73162 0.30097 0.0
C579 C 0.37979 0.64413 0.36787 0.0
Dy580 Dy 0.16244 0.60229 0.07739 0.0
C581 C 0.98152 0.57892 0.10205 0.0
C582 C 0.24081 0.60035 0.05217 0.0
Dy583 Dy 0.08214 0.5751 0.09339 0.0
O584 O 0.22688 0.6402 0.06162 0.0
O585 O 0.21416 0.56134 0.05747 0.0
O586 O 0.14929 0.68641 0.08323 0.0
O587 O 0.08656 0.64167 0.07508 0.0
C588 C 0.10013 0.68642 0.07978 0.0
C589 C 0.14954 0.51874 0.11288 0.0
O590 O 0.06359 0.53273 0.06685 0.0
O591 O 0.12091 0.58068 0.05124 0.0
O592 O 1.00722 0.5367 0.10033 0.0
O593 O 1.01177 0.61772 0.10032 0.0
O594 O 0.10585 0.5357 0.11909 0.0
O595 O 0.15516 0.52915 0.09507 0.0
O596 O 0.20038 0.61248 0.10412 0.0
O597 O 0.11949 0.62586 0.11513 0.0
C598 C 0.08231 0.54883 0.05085 0.0
C599 C 0.17008 0.6267 0.11764 0.0
Dy600 Dy 0.21506 0.40542 0.82688 0.0
C601 C 0.23714 0.22966 0.8523 0.0
C602 C 0.21807 0.48137 0.80092 0.0
Dy603 Dy 0.24207 0.32863 0.84318 0.0
O604 O 0.17754 0.4688 0.81049 0.0
O605 O 0.25711 0.45468 0.80647 0.0
O606 O 0.12971 0.39268 0.8326 0.0
O607 O 0.17484 0.33047 0.82476 0.0
C608 C 0.12958 0.34404 0.82929 0.0
C609 C 0.30036 0.39282 0.86294 0.0
O610 O 0.28488 0.30862 0.81675 0.0
O611 O 0.2374 0.36538 0.80084 0.0
O612 O 0.28016 0.25397 0.84975 0.0
O613 O 0.19832 0.2604 0.85126 0.0
O614 O 0.28462 0.34858 0.8686 0.0
O615 O 0.28828 0.40106 0.84535 0.0
O616 O 0.20557 0.44569 0.85285 0.0
O617 O 0.19091 0.36703 0.86472 0.0
C618 C 0.26926 0.32716 0.80065 0.0
C619 C 0.19022 0.41721 0.86661 0.0
Dy620 Dy 0.4106 0.45734 0.57766 0.0
C621 C 0.59154 0.48316 0.6017 0.0
C622 C 0.3322 0.45971 0.55235 0.0
Dy623 Dy 0.49051 0.4852 0.59327 0.0
O624 O 0.34563 0.41988 0.56193 0.0
O625 O 0.35924 0.49852 0.55764 0.0
O626 O 0.42307 0.37335 0.58375 0.0
O627 O 0.48623 0.41737 0.57548 0.0
C628 C 0.4722 0.37287 0.58034 0.0
C629 C 0.42344 0.54151 0.61286 0.0
O630 O 0.50795 0.52713 0.56656 0.0
O631 O 0.45196 0.47686 0.5513 0.0
O632 O 0.56486 0.52486 0.60024 0.0
O633 O 0.56205 0.44386 0.59974 0.0
O634 O 0.46716 0.5244 0.61906 0.0
O635 O 0.4175 0.531 0.59506 0.0
O636 O 0.37334 0.44713 0.60448 0.0
O637 O 0.45465 0.43462 0.6153 0.0
C638 C 0.48974 0.50959 0.55066 0.0
C639 C 0.40418 0.43337 0.61795 0.0
C640 C 0.18279 0.39903 0.36058 0.0
C641 C 0.23204 0.3771 0.3605 0.0
H642 H 0.12364 0.43068 0.37769 0.0
C643 C 0.26647 0.38705 0.3751 0.0
H644 H 0.15634 0.39278 0.34903 0.0
C645 C 0.24759 0.40754 0.39161 0.0
C646 C 0.19488 0.41915 0.39311 0.0
H647 H 0.30509 0.37134 0.37502 0.0
H648 H 0.27314 0.40983 0.4036 0.0
C649 C 0.1637 0.41921 0.37709 0.0
C650 C 0.94123 1.01769 0.63236 0.0
C651 C 0.95273 0.98837 0.61665 0.0
H652 H 0.91119 1.01752 0.65995 0.0
C653 C 0.93239 0.93914 0.61469 0.0
H654 H 0.95663 0.05585 0.63393 0.0
C655 C 0.90846 0.91614 0.62986 0.0
C656 C 0.90342 0.94333 0.64658 0.0
H657 H 0.94069 0.91627 0.60245 0.0
H658 H 0.89679 0.87661 0.62887 0.0
C659 C 0.91627 0.99528 0.64731 0.0
C660 C 0.30514 0.67231 0.87576 0.0
C661 C 0.33877 0.68167 0.86093 0.0
H662 H 0.29986 0.64999 0.90433 0.0
C663 C 0.38791 0.65947 0.86081 0.0
H664 H 0.26661 0.68825 0.87586 0.0
C665 C 0.40778 0.63943 0.87727 0.0
C666 C 0.37747 0.6399 0.89344 0.0
H667 H 0.41376 0.66529 0.8491 0.0
H668 H 0.44778 0.62767 0.87767 0.0
C669 C 0.32479 0.65193 0.89221 0.0
C670 C 0.67535 0.15105 0.128 0.0
C671 C 0.67525 0.11963 0.14381 0.0
H672 H 0.65085 0.1586 0.09968 0.0
C673 C 0.66502 0.06733 0.14192 0.0
H674 H 0.68613 0.19085 0.12894 0.0
C675 C 0.64561 0.0488 0.12513 0.0
C676 C 0.63564 0.0831 0.11062 0.0
H677 H 0.66728 0.0418 0.15381 0.0
H678 H 0.6306 1.01028 0.12472 0.0
C679 C 0.65687 0.13219 0.11116 0.0
C680 C 0.18133 0.65952 0.1682 0.0
C681 C 0.23089 0.68083 0.1682 0.0
H682 H 0.12145 0.62813 0.15121 0.0
C683 C 0.26482 0.67039 0.15354 0.0
H684 H 0.15522 0.66612 0.17978 0.0
C685 C 0.24542 0.64934 0.13715 0.0
C686 C 0.19256 0.63827 0.13576 0.0
H687 H 0.30359 0.68578 0.15352 0.0
H688 H 0.27058 0.64649 0.12512 0.0
C689 C 0.16162 0.63929 0.15175 0.0
C690 C 0.66785 0.91333 0.4013 0.0
C691 C 0.67512 0.94137 0.38488 0.0
H692 H 0.6334 0.91285 0.42836 0.0
C693 C 0.66477 0.99391 0.38463 0.0
H694 H 0.67756 0.87324 0.40198 0.0
C695 C 0.63945 1.01622 0.39954 0.0
C696 C 0.62517 0.9862 0.41476 0.0
H697 H 0.67179 1.01689 0.3723 0.0
H698 H 0.6256 0.055 0.39817 0.0
C699 C 0.64366 0.93622 0.41647 0.0
C700 C 0.41434 0.41874 0.65191 0.0
C701 C 0.38247 0.42142 0.63613 0.0
H702 H 0.42194 0.38992 0.67962 0.0
C703 C 0.3295 0.41121 0.63775 0.0
H704 H 0.4547 0.42913 0.65121 0.0
C705 C 0.31068 0.38945 0.65407 0.0
C706 C 0.34527 0.3775 0.66842 0.0
H707 H 0.30367 0.41529 0.62591 0.0
H708 H 0.27163 0.3748 0.65416 0.0
C709 C 0.39526 0.39774 0.66828 0.0
C710 C 0.91432 0.13612 0.91827 0.0
C711 C 0.93476 0.08669 0.91862 0.0
H712 H 0.88448 0.19511 0.90078 0.0
C713 C 0.92333 0.05252 0.90421 0.0
H714 H 0.92153 0.16243 0.92968 0.0
C715 C 0.90285 0.07127 0.88763 0.0
C716 C 0.89318 0.1237 0.88583 0.0
H717 H 0.93781 1.01381 0.90449 0.0
H718 H 0.89942 0.04573 0.87577 0.0
C719 C 0.89471 0.15516 0.90162 0.0
C720 C 0.80617 0.67183 0.65279 0.0
C721 C 0.84034 0.682 0.66746 0.0
H722 H 0.79995 0.64731 0.62442 0.0
C723 C 0.88948 0.65986 0.66762 0.0
H724 H 0.76769 0.68789 0.65266 0.0
C725 C 0.90877 0.63893 0.65128 0.0
C726 C 0.87777 0.63803 0.63525 0.0
H727 H 0.91573 0.66628 0.67922 0.0
H728 H 0.94877 0.62717 0.65083 0.0
C729 C 0.82513 0.64997 0.6365 0.0
C730 C 0.13303 0.04319 0.39816 0.0
C731 C 0.12019 0.07345 0.41348 0.0
H732 H 0.16499 0.0418 0.37087 0.0
C733 C 0.13976 0.12307 0.41516 0.0
H734 H 0.11821 1.00474 0.39683 0.0
C735 C 0.1645 0.14526 0.40001 0.0
C736 C 0.17095 0.11701 0.38359 0.0
H737 H 0.13021 0.14675 0.42708 0.0
H738 H 0.17544 0.18505 0.4007 0.0
C739 C 0.1588 0.06486 0.38325 0.0
C740 C 0.74571 0.40899 0.13821 0.0
C741 C 0.69302 0.421 0.13691 0.0
H742 H 0.80334 0.37091 0.15426 0.0
C743 C 0.66217 0.41976 0.15293 0.0
H744 H 0.77099 0.41216 0.12622 0.0
C745 C 0.68147 0.39792 0.16917 0.0
C746 C 0.73067 0.37583 0.16896 0.0
H747 H 0.62212 0.43135 0.15248 0.0
H748 H 0.65521 0.39087 0.18066 0.0
C749 C 0.7648 0.38678 0.15442 0.0
C750 C 0.40459 0.99017 0.88712 0.0
C751 C 0.3941 0.93787 0.88544 0.0
H752 H 0.43968 0.04751 0.90402 0.0
C753 C 0.39439 0.9068 0.90134 0.0
H754 H 0.40213 1.01542 0.87515 0.0
C755 C 0.41343 0.92598 0.91805 0.0
C756 C 0.43467 0.97508 0.91839 0.0
H757 H 0.38351 0.86701 0.90056 0.0
H758 H 0.41962 0.89983 0.92959 0.0
C759 C 0.42456 1.00903 0.90377 0.0
C760 C 0.80422 0.39012 0.87491 0.0
C761 C 0.83807 0.37976 0.86024 0.0
H762 H 0.79868 0.41344 0.90337 0.0
C763 C 0.88739 0.40163 0.86012 0.0
H764 H 0.76553 0.37455 0.87499 0.0
C765 C 0.9072 0.42201 0.87654 0.0
C766 C 0.87662 0.42228 0.89264 0.0
H767 H 0.91341 0.39513 0.8485 0.0
H768 H 0.94735 0.43325 0.87702 0.0
C769 C 0.82378 0.41091 0.89131 0.0
C770 C 0.41043 0.13042 0.61098 0.0
C771 C 0.4321 0.08148 0.61098 0.0
H772 H 0.38012 0.18995 0.6281 0.0
C773 C 0.42216 0.04809 0.62575 0.0
H774 H 0.41646 0.15608 0.5993 0.0
C775 C 0.4022 0.06757 0.64228 0.0
C776 C 0.39144 0.1199 0.64365 0.0
H777 H 0.43755 1.00972 0.62575 0.0
H778 H 0.40006 0.04284 0.65439 0.0
C779 C 0.39121 0.1502 0.62755 0.0
C780 C 0.7662 0.66613 0.37496 0.0
C781 C 0.73157 0.67921 0.36077 0.0
H782 H 0.77314 0.63766 0.40276 0.0
C783 C 0.68211 0.65773 0.36039 0.0
H784 H 0.80494 0.68156 0.3752 0.0
C785 C 0.66317 0.63436 0.37635 0.0
C786 C 0.69462 0.63112 0.39223 0.0
H787 H 0.65551 0.66638 0.34911 0.0
H788 H 0.62291 0.62347 0.3768 0.0
C789 C 0.74747 0.6423 0.39089 0.0
C790 C 0.17782 0.90675 0.1279 0.0
C791 C 0.17808 0.93753 0.14388 0.0
H792 H 0.1527 0.90033 0.09962 0.0
C793 C 0.16756 0.98986 0.14234 0.0
H794 H 0.18871 0.86696 0.12858 0.0
C795 C 0.14759 1.00902 0.12573 0.0
C796 C 0.13753 0.97533 0.11103 0.0
H797 H 0.16999 1.0149 0.15437 0.0
H798 H 0.13242 0.04747 0.12559 0.0
C799 C 0.15884 0.92625 0.11123 0.0
C800 C 0.66161 0.91871 0.87803 0.0
C801 C 0.6934 0.92071 0.89385 0.0
H802 H 0.65377 0.89025 0.85028 0.0
C803 C 0.74622 0.90984 0.89227 0.0
H804 H 0.6214 0.92966 0.87871 0.0
C805 C 0.76482 0.88795 0.87594 0.0
C806 C 0.73011 0.87658 0.86156 0.0
H807 H 0.77197 0.91341 0.90417 0.0
H808 H 0.80363 0.87271 0.87588 0.0
C809 C 0.68049 0.89762 0.86165 0.0
C810 C 0.41563 0.49663 0.14767 0.0
C811 C 0.40295 0.44464 0.147 0.0
H812 H 0.45522 0.55737 0.13411 0.0
C813 C 0.40732 0.41755 0.13022 0.0
H814 H 0.41098 0.5188 0.16035 0.0
C815 C 0.43051 0.44068 0.11493 0.0
C816 C 0.45085 0.48993 0.11682 0.0
H817 H 0.39569 0.378 0.12927 0.0
H818 H 0.43841 0.41785 0.10264 0.0
C819 C 0.43983 0.5192 0.13259 0.0
C820 C 0.82399 0.1506 0.39213 0.0
C821 C 0.87679 0.13917 0.39347 0.0
H822 H 0.76567 0.18593 0.37558 0.0
C823 C 0.90721 0.13833 0.37732 0.0
H824 H 0.79901 0.14884 0.40424 0.0
C825 C 0.88732 0.15768 0.36076 0.0
C826 C 0.83808 0.17962 0.36078 0.0
H827 H 0.94731 0.12693 0.37782 0.0
H828 H 0.91325 0.16343 0.34907 0.0
C829 C 0.80431 0.17025 0.37557 0.0
C830 C 0.15887 0.63494 0.61156 0.0
C831 C 0.13794 0.58571 0.61117 0.0
H832 H 0.18878 0.69379 0.6291 0.0
C833 C 0.14845 0.5516 0.62569 0.0
H834 H 0.15234 0.66119 0.60008 0.0
C835 C 0.16855 0.57032 0.64235 0.0
C836 C 0.17878 0.62265 0.64411 0.0
H837 H 0.13354 0.51304 0.62539 0.0
H838 H 0.17131 0.5449 0.65425 0.0
C839 C 0.1781 0.65396 0.62827 0.0
C840 C 0.66076 0.13912 0.65169 0.0
C841 C 0.69195 0.13647 0.63579 0.0
H842 H 0.65414 0.16843 0.67936 0.0
C843 C 0.74489 0.14717 0.63717 0.0
H844 H 0.62047 0.12837 0.65117 0.0
C845 C 0.76424 0.16946 0.65334 0.0
C846 C 0.73018 0.18138 0.6678 0.0
H847 H 0.77022 0.14312 0.62522 0.0
H848 H 0.80315 0.18446 0.65323 0.0
C849 C 0.68038 0.16064 0.66793 0.0
C850 C 0.15961 0.49397 0.88281 0.0
C851 C 0.17273 0.44209 0.88356 0.0
H852 H 0.11796 0.55412 0.89594 0.0
C853 C 0.16695 0.41476 0.90021 0.0
H854 H 0.16529 0.51635 0.87024 0.0
C855 C 0.14197 0.43746 0.91523 0.0
C856 C 0.1213 0.48652 0.91316 0.0
H857 H 0.17872 0.37527 0.90122 0.0
H858 H 0.13325 0.41446 0.92738 0.0
C859 C 0.13351 0.51605 0.89758 0.0
C860 C 0.82632 0.90953 0.13711 0.0
C861 C 0.87927 0.91968 0.13541 0.0
H862 H 0.76839 0.87433 0.15384 0.0
C863 C 0.91112 0.91799 0.15122 0.0
H864 H 0.80052 0.91289 0.12523 0.0
C865 C 0.89199 0.8982 0.16779 0.0
C866 C 0.84197 0.87803 0.16812 0.0
H867 H 0.95147 0.92839 0.15045 0.0
H868 H 0.91864 0.89115 0.17921 0.0
C869 C 0.80745 0.88894 0.15363 0.0
C870 C 0.43045 0.54438 0.39995 0.0
C871 C 0.44625 0.57448 0.41498 0.0
H872 H 0.39662 0.54362 0.37291 0.0
C873 C 0.42928 0.62502 0.41654 0.0
H874 H 0.44311 0.50518 0.3987 0.0
C875 C 0.40487 0.64804 0.40141 0.0
C876 C 0.39594 0.61967 0.38515 0.0
H877 H 0.44075 0.64848 0.42827 0.0
H878 H 0.39631 0.6884 0.40195 0.0
C879 C 0.40491 0.56685 0.38509 0.0
C880 C 0.38859 0.161 0.16762 0.0
C881 C 0.33946 0.18317 0.1675 0.0
H882 H 0.44742 0.12754 0.15081 0.0
C883 C 0.30493 0.17253 0.15298 0.0
H884 H 0.41511 0.16779 0.17911 0.0
C885 C 0.32348 0.15003 0.13676 0.0
C886 C 0.37607 0.13795 0.1354 0.0
H887 H 0.26648 0.18863 0.15289 0.0
H888 H 0.29801 0.14699 0.12476 0.0
C889 C 0.40745 0.13937 0.15133 0.0
C890 C 0.63215 0.54118 0.89719 0.0
C891 C 0.62047 0.57054 0.91287 0.0
H892 H 0.66356 0.54111 0.86981 0.0
C893 C 0.64156 0.61942 0.91503 0.0
H894 H 0.61624 0.50326 0.89549 0.0
C895 C 0.66654 0.64216 0.90004 0.0
C896 C 0.67186 0.61507 0.88332 0.0
H897 H 0.63314 0.64231 0.92726 0.0
H898 H 0.67865 0.68155 0.90113 0.0
C899 C 0.65827 0.56331 0.88245 0.0
C900 C 0.18551 0.90086 0.66889 0.0
C901 C 0.23462 0.8786 0.66868 0.0
H902 H 0.12581 0.93352 0.65216 0.0
C903 C 0.26836 0.88852 0.65393 0.0
H904 H 0.15956 0.89459 0.68054 0.0
C905 C 0.24888 0.90978 0.6376 0.0
C906 C 0.19622 0.92194 0.6364 0.0
H907 H 0.30685 0.8725 0.65377 0.0
H908 H 0.27384 0.91214 0.6255 0.0
C909 C 0.16581 0.92174 0.65255 0.0
C910 C 0.94088 0.51437 0.39647 0.0
C911 C 0.95288 0.48485 0.4121 0.0
H912 H 0.90865 0.51478 0.36915 0.0
C913 C 0.93209 0.43582 0.41416 0.0
H914 H 0.95655 0.55239 0.39485 0.0
C915 C 0.90659 0.41333 0.39919 0.0
C916 C 0.90061 0.4407 0.38255 0.0
H917 H 0.94087 0.41271 0.42631 0.0
H918 H 0.89447 0.37394 0.40023 0.0
C919 C 0.91435 0.49242 0.38174 0.0
C920 C 0.40846 0.92445 0.37578 0.0
C921 C 0.37742 0.92666 0.39174 0.0
H922 H 0.41512 0.89455 0.34819 0.0
C923 C 0.32438 0.91634 0.39032 0.0
H924 H 0.44885 0.93485 0.37631 0.0
C925 C 0.30499 0.89417 0.37414 0.0
C926 C 0.33923 0.88152 0.35984 0.0
H927 H 0.299 0.92038 0.40225 0.0
H928 H 0.26608 0.87915 0.37428 0.0
C929 C 0.38882 0.90272 0.35957 0.0
C930 C 0.89041 0.65265 0.12768 0.0
C931 C 0.8895 0.62193 0.14366 0.0
H932 H 0.9176 0.65924 0.0997 0.0
C933 C 0.90032 0.56963 0.14222 0.0
H934 H 0.87939 0.69241 0.12827 0.0
C935 C 0.92143 0.55055 0.12583 0.0
C936 C 0.93229 0.58428 0.11124 0.0
H937 H 0.89738 0.54462 0.15423 0.0
H938 H 0.93679 0.51216 0.12583 0.0
C939 C 0.91078 0.63328 0.11123 0.0
C940 C 0.18222 0.15975 0.86138 0.0
C941 C 0.23187 0.18079 0.86133 0.0
H942 H 0.12281 0.12829 0.87843 0.0
C943 C 0.2664 0.16951 0.87577 0.0
H944 H 0.15569 0.16696 0.84993 0.0
C945 C 0.24755 0.14799 0.89213 0.0
C946 C 0.19465 0.13737 0.89366 0.0
H947 H 0.30526 0.18467 0.87573 0.0
H948 H 0.27317 0.14459 0.90406 0.0
C949 C 0.16307 0.13909 0.87778 0.0
C950 C 0.64973 0.51158 0.62615 0.0
C951 C 0.64048 0.47837 0.61123 0.0
H952 H 0.67113 0.51655 0.65491 0.0
C953 C 0.66242 0.42956 0.61125 0.0
H954 H 0.63409 0.54986 0.62614 0.0
C955 C 0.681 0.40958 0.62791 0.0
C956 C 0.6804 0.43971 0.64405 0.0
H957 H 0.65693 0.40405 0.59947 0.0
H958 H 0.6923 0.36988 0.62842 0.0
C959 C 0.66938 0.49198 0.64274 0.0
C960 C 1.02996 0.22496 0.32809 0.0
C961 C 0.08008 0.246 0.32809 0.0
H962 H 0.94797 0.23813 0.32739 0.0
C963 C 0.0837 0.29966 0.32767 0.0
H964 H 1.02503 0.18401 0.3283 0.0
C965 C 0.03915 0.33094 0.32789 0.0
C966 C 0.98902 0.3099 0.32787 0.0
H967 H 0.12114 0.31776 0.32742 0.0
H968 H 0.04408 0.3719 0.32795 0.0
C969 C 0.9854 0.25623 0.32765 0.0
C970 C 0.9809 0.78453 0.58112 0.0
C971 C 1.00261 0.73526 0.57955 0.0
H972 H 0.9937 0.86589 0.58234 0.0
C973 C 0.05674 0.73247 0.57811 0.0
H974 H 0.93951 0.7888 0.58222 0.0
C975 C 0.08789 0.77677 0.57875 0.0
C976 C 0.06629 0.82605 0.58031 0.0
H977 H 0.07538 0.69582 0.5767 0.0
H978 H 0.1293 0.77226 0.57793 0.0
C979 C 1.01207 0.82905 0.58124 0.0
C980 C 0.48652 0.75875 0.82798 0.0
C981 C 0.49049 0.81241 0.82849 0.0
H982 H 0.52566 0.68621 0.82832 0.0
C983 C 0.5408 0.83305 0.8286 0.0
H984 H 0.44898 0.74091 0.82758 0.0
C985 C 0.58513 0.80145 0.82821 0.0
C986 C 0.58117 0.74779 0.82842 0.0
H987 H 0.54605 0.87396 0.82885 0.0
H988 H 0.62268 0.81929 0.828 0.0
C989 C 0.53087 0.72713 0.8283 0.0
C990 C 0.47817 0.28404 0.08148 0.0
C991 C 0.49979 0.23475 0.07978 0.0
H992 H 0.4911 0.36537 0.0829 0.0
C993 C 0.55392 0.23193 0.0783 0.0
H994 H 0.4368 0.28835 0.08262 0.0
C995 C 0.58514 0.27618 0.07902 0.0
C996 C 0.56364 0.32548 0.0807 0.0
H997 H 0.5725 0.19528 0.07681 0.0
H998 H 0.62654 0.27163 0.07816 0.0
C999 C 0.50942 0.32852 0.08168 0.0
C1000 C 0.03997 0.72714 0.20055 0.0
C1001 C 0.98977 0.74799 0.20062 0.0
H1002 H 0.12189 0.74053 0.20127 0.0
C1003 C 0.98606 0.80165 0.20114 0.0
H1004 H 0.045 0.6862 0.20033 0.0
C1005 C 1.03053 0.83308 0.2008 0.0
C1006 C 0.08074 0.81223 0.2007 0.0
H1007 H 0.94861 0.81965 0.20156 0.0
H1008 H 1.02548 0.87402 0.20076 0.0
C1009 C 0.08445 0.75855 0.20098 0.0
C1010 C 0.55943 0.82641 0.44649 0.0
C1011 C 0.50519 0.82341 0.44653 0.0
H1012 H 0.632 0.78644 0.44597 0.0
C1013 C 0.48338 0.774 0.44693 0.0
H1014 H 0.57791 0.8633 0.44642 0.0
C1015 C 0.5145 0.72959 0.44733 0.0
C1016 C 0.56871 0.73255 0.44674 0.0
H1017 H 0.44191 0.7695 0.4471 0.0
H1018 H 0.49604 0.69274 0.44797 0.0
C1019 C 0.59053 0.78196 0.44632 0.0
C1020 C 0.53286 0.33286 0.70077 0.0
C1021 C 0.58315 0.31222 0.70071 0.0
H1022 H 0.45099 0.31906 0.7015 0.0
C1023 C 0.58708 0.25855 0.70103 0.0
H1024 H 0.52764 0.37378 0.70071 0.0
C1025 C 0.54274 0.22694 0.70056 0.0
C1026 C 0.49245 0.24759 0.70058 0.0
H1027 H 0.6246 0.2407 0.70139 0.0
H1028 H 0.54795 0.18602 0.70036 0.0
C1029 C 0.48852 0.30124 0.70109 0.0
C1030 C 1.0168 0.23166 0.95129 0.0
C1031 C 0.07091 0.23481 0.94975 0.0
H1032 H 0.94395 0.27091 0.95149 0.0
C1033 C 0.09224 0.28424 0.94812 0.0
H1034 H 0.99843 0.19491 0.95279 0.0
C1035 C 0.06073 0.32852 0.94803 0.0
C1036 C 1.00654 0.32513 0.94899 0.0
H1037 H 0.13359 0.28882 0.94697 0.0
H1038 H 0.07882 0.36549 0.94691 0.0
C1039 C 0.98532 0.27571 0.95062 0.0
C1040 C 0.08669 0.80069 0.70191 0.0
C1041 C 0.08281 0.74702 0.70127 0.0
H1042 H 0.04744 0.8732 0.70178 0.0
C1043 C 1.03251 0.72635 0.70108 0.0
H1044 H 0.12421 0.81858 0.70236 0.0
C1045 C 0.98812 0.75789 0.70151 0.0
C1046 C 0.99199 0.81157 0.70148 0.0
H1047 H 1.02731 0.68544 0.70071 0.0
H1048 H 0.9506 0.73997 0.70162 0.0
C1049 C 0.04228 0.83227 0.70168 0.0
C1050 C 0.98358 0.28544 0.44925 0.0
C1051 C 1.0047 0.23566 0.44936 0.0
H1052 H 0.99716 0.36671 0.44947 0.0
C1053 C 0.0589 0.23202 0.44967 0.0
H1054 H 0.94216 0.29044 0.44899 0.0
C1055 C 0.09055 0.27612 0.44958 0.0
C1056 C 0.06947 0.32589 0.44955 0.0
H1057 H 0.07702 0.1949 0.44978 0.0
H1058 H 0.13196 0.27105 0.44957 0.0
C1059 C 1.01525 0.32958 0.44952 0.0
C1060 C 0.52946 0.22501 0.20125 0.0
C1061 C 0.58008 0.2449 0.20145 0.0
H1062 H 0.44779 0.23989 0.20196 0.0
C1063 C 0.58479 0.29849 0.20225 0.0
H1064 H 0.52361 0.18419 0.20079 0.0
C1065 C 0.54089 0.33077 0.2021 0.0
C1066 C 0.49028 0.31086 0.20189 0.0
H1067 H 0.62258 0.3158 0.20276 0.0
H1068 H 0.54671 0.37161 0.2023 0.0
C1069 C 0.48558 0.25724 0.20182 0.0
C1070 C 0.51607 0.82701 0.95182 0.0
C1071 C 0.57015 0.82409 0.95011 0.0
H1072 H 0.4434 0.78742 0.95245 0.0
C1073 C 0.59161 0.77471 0.94844 0.0
H1074 H 0.49759 0.86373 0.95326 0.0
C1075 C 0.56028 0.73025 0.94852 0.0
C1076 C 0.50609 0.73338 0.94978 0.0
H1077 H 0.63292 0.77031 0.94711 0.0
H1078 H 0.5785 0.69336 0.94729 0.0
C1079 C 0.48476 0.78277 0.95141 0.0
C1080 C 0.08506 0.25672 0.82848 0.0
C1081 C 0.08165 0.31042 0.82859 0.0
H1082 H 0.04526 0.18458 0.82921 0.0
C1083 C 1.03154 0.33153 0.8284 0.0
H1084 H 0.12244 0.23853 0.82836 0.0
C1085 C 0.98687 0.30031 0.82811 0.0
C1086 C 0.99029 0.24661 0.8287 0.0
H1087 H 1.02673 0.3725 0.82835 0.0
H1088 H 0.94951 0.31849 0.82767 0.0
C1089 C 0.04041 0.22554 0.82888 0.0
C1090 C 0.55961 0.32704 0.57927 0.0
C1091 C 0.50524 0.32489 0.5795 0.0
H1092 H 0.63162 0.28599 0.57976 0.0
C1093 C 0.48269 0.27586 0.57937 0.0
H1094 H 0.57891 0.36355 0.57916 0.0
C1095 C 0.51315 0.23099 0.579 0.0
C1096 C 0.56753 0.23314 0.5794 0.0
H1097 H 0.44114 0.27204 0.57945 0.0
H1098 H 0.49386 0.19449 0.57867 0.0
C1099 C 0.59007 0.28217 0.57954 0.0
C1100 C 0.53134 0.8329 0.32941 0.0
C1101 C 0.58131 0.81151 0.3295 0.0
H1102 H 0.44925 0.82031 0.3287 0.0
C1103 C 0.58445 0.75779 0.32925 0.0
H1104 H 0.52675 0.87389 0.32946 0.0
C1105 C 0.53962 0.72684 0.32961 0.0
C1106 C 0.48966 0.74824 0.32951 0.0
H1107 H 0.62173 0.73942 0.32903 0.0
H1108 H 0.54421 0.68585 0.32982 0.0
C1109 C 0.48653 0.80194 0.32907 0.0
C1110 C 0.98105 0.77555 0.07868 0.0
C1111 C 1.00292 0.82487 0.07859 0.0
H1112 H 0.99334 0.69434 0.07828 0.0
C1113 C 0.05727 0.82773 0.07827 0.0
H1114 H 0.93956 0.77117 0.07881 0.0
C1115 C 0.08835 0.78329 0.07874 0.0
C1116 C 0.06648 0.73397 0.07885 0.0
H1117 H 0.07607 0.86447 0.07792 0.0
H1118 H 0.12985 0.78766 0.0789 0.0
C1119 C 1.01214 0.73109 0.07847 0.0
C1120 C 0.26082 0.23116 0.265 0.0
C1121 C 0.27805 0.25338 0.28189 0.0
H1122 H 0.25445 0.23771 0.23511 0.0
C1123 C 0.30192 0.30123 0.28121 0.0
H1124 H 0.24191 0.19437 0.26501 0.0
C1125 C 0.30839 0.32627 0.26408 0.0
C1126 C 0.29131 0.30405 0.24717 0.0
H1127 H 0.31496 0.31974 0.29393 0.0
H1128 H 0.32727 0.36308 0.26413 0.0
C1129 C 0.2674 0.25618 0.24784 0.0
C1130 C 0.99392 0.06341 0.5146 0.0
C1131 C 1.0098 0.03959 0.49788 0.0
H1132 H 1.00685 0.07379 0.54406 0.0
C1133 C 0.05309 1.00753 0.49846 0.0
H1134 H 0.96089 0.08862 0.51469 0.0
C1135 C 0.07973 0.99946 0.51532 0.0
C1136 C 0.0638 1.0232 0.53205 0.0
H1137 H 0.06676 0.98901 0.48587 0.0
H1138 H 0.11273 0.9742 0.51523 0.0
C1139 C 1.02055 0.05532 0.53146 0.0
C1140 C 0.26752 0.75844 0.78135 0.0
C1141 C 0.29296 0.80557 0.78213 0.0
H1142 H 0.24111 0.69692 0.76417 0.0
C1143 C 0.31193 0.82668 0.76535 0.0
H1144 H 0.25303 0.74077 0.79399 0.0
C1145 C 0.30567 0.80131 0.74823 0.0
C1146 C 0.28024 0.75417 0.74745 0.0
H1147 H 0.33207 0.86283 0.76541 0.0
H1148 H 0.32017 0.81899 0.7356 0.0
C1149 C 0.26125 0.73307 0.76423 0.0
C1150 C 0.4891 0.05695 0.01524 0.0
C1151 C 0.50984 0.03747 0.03205 0.0
H1152 H 0.49662 0.06423 0.98543 0.0
C1153 C 0.5562 1.00999 0.03122 0.0
H1154 H 0.45355 0.07858 0.01532 0.0
C1155 C 0.58113 1.00221 1.01405 0.0
C1156 C 0.56038 1.02169 0.99723 0.0
H1157 H 0.5736 0.99493 0.04386 0.0
H1158 H 0.61667 0.98058 1.01397 0.0
C1159 C 0.51402 0.04917 0.99807 0.0
C1160 C 0.2658 0.80326 0.2816 0.0
C1161 C 0.29096 0.75603 0.28262 0.0
H1162 H 0.23941 0.86405 0.26406 0.0
C1163 C 0.30939 0.73399 0.26591 0.0
H1164 H 0.25172 0.82164 0.29416 0.0
C1165 C 0.30291 0.75851 0.24863 0.0
C1166 C 0.27777 0.80574 0.24759 0.0
H1167 H 0.32928 0.69772 0.26614 0.0
H1168 H 0.31703 0.74011 0.23607 0.0
C1169 C 0.25929 0.82778 0.26431 0.0
C1170 C 0.51347 1.00516 0.53116 0.0
C1171 C 0.55759 0.03602 0.53223 0.0
H1172 H 0.4549 0.97269 0.51365 0.0
C1173 C 0.576 0.05869 0.51563 0.0
H1174 H 0.49789 0.98753 0.54363 0.0
C1175 C 0.55098 0.05076 0.49844 0.0
C1176 C 0.50703 1.01973 0.49736 0.0
H1177 H 0.60972 0.083 0.51589 0.0
H1178 H 0.56656 0.06837 0.48596 0.0
C1179 C 0.48861 0.99702 0.51395 0.0
C1180 C 0.26982 0.30018 0.74837 0.0
C1181 C 0.29498 0.25299 0.74743 0.0
H1182 H 0.24324 0.36097 0.76576 0.0
C1183 C 0.31327 0.23093 0.7642 0.0
H1184 H 0.25586 0.31859 0.73577 0.0
C1185 C 0.30648 0.25544 0.78147 0.0
C1186 C 0.28129 0.30264 0.78239 0.0
H1187 H 0.33317 0.19467 0.764 0.0
H1188 H 0.32035 0.23709 0.79409 0.0
C1189 C 0.26312 0.32469 0.76561 0.0
C1190 C 0.08251 0.05694 1.01396 0.0
C1191 C 0.06119 0.03797 0.99715 0.0
H1192 H 0.07564 0.06383 0.04381 0.0
C1193 C 1.01445 1.01113 0.99803 0.0
H1194 H 0.11835 0.07809 1.01384 0.0
C1195 C 0.98974 1.00343 0.01525 0.0
C1196 C 1.01108 1.02234 0.03206 0.0
H1197 H 0.9966 0.9965 0.9854 0.0
H1198 H 0.9539 0.98226 0.01536 0.0
C1199 C 0.05779 0.04923 0.03118 0.0
C1200 C 0.80352 0.80214 0.78135 0.0
C1201 C 0.77983 0.75421 0.78219 0.0
H1202 H 0.82882 0.86357 0.76402 0.0
C1203 C 0.76293 0.73143 0.76534 0.0
H1204 H 0.81632 0.82106 0.79401 0.0
C1205 C 0.76953 0.75598 0.7481 0.0
C1206 C 0.79323 0.80391 0.74726 0.0
H1207 H 0.74419 0.69456 0.76545 0.0
H1208 H 0.75675 0.73708 0.73543 0.0
C1209 C 0.8101 0.82669 0.76411 0.0
C1210 C 0.80827 0.32253 0.26495 0.0
C1211 C 0.79039 0.30084 0.28179 0.0
H1212 H 0.81564 0.31536 0.23518 0.0
C1213 C 0.76603 0.25317 0.2811 0.0
H1214 H 0.82754 0.35913 0.26494 0.0
C1215 C 0.7597 0.22785 0.26397 0.0
C1216 C 0.77763 0.24958 0.24714 0.0
H1217 H 0.75245 0.23509 0.2938 0.0
H1218 H 0.74036 0.19127 0.26394 0.0
C1219 C 0.80203 0.2972 0.24785 0.0
C1220 C 0.76202 0.32591 0.76378 0.0
C1221 C 0.78058 0.30425 0.74702 0.0
H1222 H 0.754 0.31905 0.79357 0.0
C1223 C 0.80561 0.25691 0.74793 0.0
H1224 H 0.74221 0.36223 0.76365 0.0
C1225 C 0.8119 0.23194 0.76515 0.0
C1226 C 0.79327 0.25362 0.7819 0.0
H1227 H 0.8198 0.23881 0.73533 0.0
H1228 H 0.83173 0.19564 0.76531 0.0
C1229 C 0.76823 0.30092 0.78098 0.0
C1230 C 0.80493 0.7558 0.2818 0.0
C1231 C 0.7797 0.80298 0.28284 0.0
H1232 H 0.83143 0.69518 0.26421 0.0
C1233 C 0.76123 0.82511 0.26611 0.0
H1234 H 0.81905 0.73738 0.29438 0.0
C1235 C 0.7677 0.80072 0.24883 0.0
C1236 C 0.7929 0.75355 0.24777 0.0
H1237 H 0.74133 0.86137 0.26633 0.0
H1238 H 0.75352 0.8192 0.23627 0.0
C1239 C 0.81147 0.7314 0.26449 0.0
C1240 C 0.57905 0.49771 0.01541 0.0
C1241 C 0.56267 0.52151 0.03208 0.0
H1242 H 0.56678 0.48712 0.98592 0.0
C1243 C 0.51934 0.55346 0.03135 0.0
H1244 H 0.61215 0.47258 0.01544 0.0
C1245 C 0.49303 0.56133 1.01442 0.0
C1246 C 0.50937 0.53752 0.99775 0.0
H1247 H 0.5053 0.57195 0.0439 0.0
H1248 H 0.45991 0.58643 1.01441 0.0
C1249 C 0.55277 0.50563 0.99847 0.0
C1250 C 0.06049 0.50959 0.53169 0.0
C1251 C 1.01438 0.53755 0.53235 0.0
H1252 H 0.12134 0.4798 0.51467 0.0
C1253 C 0.99459 0.5576 0.51548 0.0
H1254 H 0.07717 0.49405 0.54438 0.0
C1255 C 1.02019 0.54994 0.49843 0.0
C1256 C 0.06628 0.52195 0.49776 0.0
H1257 H 0.95931 0.57964 0.51542 0.0
H1258 H 1.00349 0.5655 0.48575 0.0
C1259 C 0.08607 0.50186 0.51463 0.0
C1260 C 0.07669 0.55783 0.01584 0.0
C1261 C 0.05717 0.53689 0.03258 0.0
H1262 H 0.06785 0.5664 0.98611 0.0
C1263 C 1.01161 0.5081 0.0317 0.0
H1264 H 0.11155 0.58053 0.01596 0.0
C1265 C 0.98638 0.50034 1.01453 0.0
C1266 C 1.00592 0.5213 0.9978 0.0
H1267 H 0.99514 0.49189 0.04428 0.0
H1268 H 0.95155 0.4776 1.01439 0.0
C1269 C 0.05137 0.55021 0.9987 0.0
C1270 C 0.55869 0.55183 0.53122 0.0
C1271 C 0.51447 0.52116 0.53231 0.0
H1272 H 0.61733 0.58374 0.51373 0.0
C1273 C 0.49588 0.49828 0.51573 0.0
H1274 H 0.57441 0.56961 0.54367 0.0
C1275 C 0.52084 0.50584 0.49854 0.0
C1276 C 0.56494 0.53665 0.49744 0.0
H1277 H 0.46206 0.4741 0.516 0.0
H1278 H 0.50513 0.48808 0.48608 0.0
C1279 C 0.58351 0.55955 0.51402 0.0
C1280 C 0.37453 0.15357 0.38412 0.0
C1281 C 0.33159 0.13125 0.37507 0.0
H1282 H 0.4323 0.1493 0.40578 0.0
C1283 C 0.31365 0.0848 0.38277 0.0
H1284 H 0.38866 0.19014 0.37933 0.0
C1285 C 0.33771 0.06202 0.39873 0.0
C1286 C 0.38099 0.08452 0.40766 0.0
H1287 H 0.27956 0.06699 0.37696 0.0
H1288 H 0.3223 1.0266 0.40406 0.0
C1289 C 0.39909 0.13046 0.39972 0.0
C1290 C 0.20152 0.15766 0.64278 0.0
C1291 C 0.24041 0.13375 0.65357 0.0
H1292 H 0.14845 0.15422 0.61954 0.0
C1293 C 0.25562 0.08462 0.64753 0.0
H1294 H 0.18946 0.19595 0.64633 0.0
C1295 C 0.23316 0.0611 0.63138 0.0
C1296 C 0.1941 0.08538 0.62066 0.0
H1297 H 0.28654 0.06516 0.65478 0.0
H1298 H 0.24655 1.0237 0.62732 0.0
C1299 C 0.17844 0.1339 0.627 0.0
C1300 C 0.22368 0.95416 0.90883 0.0
C1301 C 0.18613 0.98963 0.90325 0.0
H1302 H 0.27913 0.89765 0.90054 0.0
C1303 C 0.17988 0.99647 0.88356 0.0
H1304 H 0.23024 0.94725 0.92359 0.0
C1305 C 0.20891 0.96866 0.8701 0.0
C1306 C 0.24488 0.93162 0.87569 0.0
H1307 H 0.1517 1.02349 0.87841 0.0
H1308 H 0.20186 0.97507 0.85534 0.0
C1309 C 0.25182 0.92549 0.89538 0.0
C1310 C 0.36212 0.96789 0.15915 0.0
C1311 C 0.32678 0.9302 0.15359 0.0
H1312 H 0.41848 1.02354 0.1508 0.0
C1313 C 0.32003 0.92372 0.13391 0.0
H1314 H 0.36896 0.97463 0.17391 0.0
C1315 C 0.34776 0.95268 0.12043 0.0
C1316 C 0.3847 0.98883 0.126 0.0
H1317 H 0.29316 0.8954 0.12877 0.0
H1318 H 0.34138 0.94547 0.10568 0.0
C1319 C 0.39076 0.99601 0.14567 0.0
C1320 C 0.7078 0.96593 0.65928 0.0
C1321 C 0.74583 0.93111 0.65361 0.0
H1322 H 0.64844 1.01872 0.65109 0.0
C1323 C 0.75386 0.92675 0.63392 0.0
H1324 H 0.6999 0.97098 0.67404 0.0
C1325 C 0.72465 0.95478 0.62053 0.0
C1326 C 0.68514 0.98799 0.62618 0.0
H1327 H 0.78297 0.90084 0.62872 0.0
H1328 H 0.73216 0.94929 0.60577 0.0
C1329 C 0.67795 0.99328 0.64588 0.0
C1330 C 0.83998 0.99903 0.39859 0.0
C1331 C 0.87861 0.975 0.40962 0.0
H1332 H 0.787 0.99426 0.37509 0.0
C1333 C 0.8942 0.92617 0.40356 0.0
H1334 H 0.82658 0.03662 0.40243 0.0
C1335 C 0.87145 0.90195 0.38779 0.0
C1336 C 0.83294 0.92561 0.37673 0.0
H1337 H 0.92381 0.90596 0.41125 0.0
H1338 H 0.8834 0.86346 0.38447 0.0
C1339 C 0.81778 0.97499 0.38249 0.0
C1340 C 0.84658 0.10303 0.1204 0.0
C1341 C 0.88438 0.06785 0.12601 0.0
H1342 H 0.79048 0.15894 0.12866 0.0
C1343 C 0.89037 0.06084 0.1457 0.0
H1344 H 0.84018 0.11005 0.10564 0.0
C1345 C 0.8609 0.08829 0.15915 0.0
C1346 C 0.82467 0.12506 0.15353 0.0
H1347 H 0.91871 0.03402 0.15087 0.0
H1348 H 0.86782 0.08181 0.17391 0.0
C1349 C 0.81796 0.13129 0.13384 0.0
C1350 C 0.68019 0.06276 0.88368 0.0
C1351 C 0.68614 0.06978 0.90338 0.0
H1352 H 0.70205 0.08442 0.85548 0.0
C1353 C 0.72304 0.10594 0.90898 0.0
H1354 H 0.65254 0.03523 0.87851 0.0
C1355 C 0.75084 0.13501 0.89554 0.0
C1356 C 0.74416 0.12873 0.87585 0.0
H1357 H 0.72936 0.11303 0.92375 0.0
H1358 H 0.77772 0.16327 0.90072 0.0
C1359 C 0.70884 0.09105 0.87024 0.0
C1360 C 0.87227 0.65578 0.88621 0.0
C1361 C 0.83213 0.63235 0.87589 0.0
H1362 H 0.92667 0.65203 0.90904 0.0
C1363 C 0.81595 0.58397 0.88238 0.0
H1364 H 0.88499 0.69363 0.88234 0.0
C1365 C 0.83886 0.56055 0.89845 0.0
C1366 C 0.87923 0.58428 0.9087 0.0
H1367 H 0.78391 0.56507 0.87557 0.0
H1368 H 0.82472 0.52371 0.90286 0.0
C1369 C 0.89572 0.63213 0.90194 0.0
C1370 C 0.67663 0.63414 0.1269 0.0
C1371 C 0.69216 0.58536 0.12079 0.0
H1372 H 0.68746 0.69666 0.14603 0.0
C1373 C 0.73082 0.56117 0.13175 0.0
H1374 H 0.64693 0.65441 0.11926 0.0
C1375 C 0.75304 0.58505 0.14787 0.0
C1376 C 0.73795 0.63443 0.15366 0.0
H1377 H 0.74405 0.52355 0.12788 0.0
H1378 H 0.78369 0.56564 0.15529 0.0
C1379 C 0.69944 0.65822 0.14266 0.0
C1380 C 0.69506 0.40375 0.38336 0.0
C1381 C 0.73857 0.42567 0.37464 0.0
H1382 H 0.63703 0.40809 0.40484 0.0
C1383 C 0.7572 0.47144 0.38271 0.0
H1384 H 0.6804 0.36762 0.37832 0.0
C1385 C 0.73325 0.49401 0.3987 0.0
C1386 C 0.68946 0.47188 0.40732 0.0
H1387 H 0.79175 0.48886 0.37716 0.0
H1388 H 0.74917 0.52896 0.40428 0.0
C1389 C 0.67067 0.42661 0.39902 0.0
C1390 C 0.86436 0.46826 0.65904 0.0
C1391 C 0.82901 0.43064 0.65343 0.0
H1392 H 0.92085 0.52388 0.65077 0.0
C1393 C 0.82241 0.42425 0.63374 0.0
H1394 H 0.87111 0.47494 0.67381 0.0
C1395 C 0.85026 0.45325 0.6203 0.0
C1396 C 0.88719 0.48935 0.62591 0.0
H1397 H 0.79558 0.39597 0.62855 0.0
H1398 H 0.84397 0.44613 0.60554 0.0
C1399 C 0.89313 0.49641 0.6456 0.0
C1400 C 0.25424 0.42904 0.1342 0.0
C1401 C 0.24599 0.43319 0.15388 0.0
H1402 H 0.23279 0.45179 0.10604 0.0
C1403 C 0.20783 0.46787 0.15955 0.0
H1404 H 0.28343 0.40323 0.129 0.0
C1405 C 0.17806 0.49527 0.14613 0.0
C1406 C 0.18545 0.49018 0.12643 0.0
H1407 H 0.19972 0.47272 0.1743 0.0
H1408 H 0.14841 0.52056 0.15134 0.0
C1409 C 0.22511 0.45713 0.1208 0.0
C1410 C 0.3401 0.49865 0.89833 0.0
C1411 C 0.37814 0.47415 0.9095 0.0
H1412 H 0.28751 0.49441 0.87469 0.0
C1413 C 0.39316 0.42507 0.90353 0.0
H1414 H 0.32715 0.53645 0.9021 0.0
C1415 C 0.37046 0.40108 0.88771 0.0
C1416 C 0.33252 0.42521 0.87651 0.0
H1417 H 0.4223 0.40449 0.91134 0.0
H1418 H 0.38197 0.36243 0.88445 0.0
C1419 C 0.3179 0.4748 0.88219 0.0
C1420 C 0.39387 0.56342 0.64609 0.0
C1421 C 0.38777 0.57019 0.62639 0.0
H1422 H 0.3716 0.58486 0.67429 0.0
C1423 C 0.35007 0.60546 0.62076 0.0
H1424 H 0.42209 0.5365 0.65128 0.0
C1425 C 0.32165 0.63402 0.63418 0.0
C1426 C 0.32849 0.62805 0.65388 0.0
H1427 H 0.34357 0.6123 0.606 0.0
H1428 H 0.2942 0.66167 0.62898 0.0
C1429 C 0.36462 0.59119 0.65952 0.0
C1430 C 0.17989 0.63536 0.40453 0.0
C1431 C 0.19422 0.58559 0.40992 0.0
H1432 H 0.19109 0.69897 0.38593 0.0
C1433 C 0.23088 0.56105 0.39822 0.0
H1434 H 0.1518 0.65602 0.41276 0.0
C1435 C 0.2524 0.58543 0.38212 0.0
C1436 C 0.23858 0.63572 0.37704 0.0
H1437 H 0.24328 0.52276 0.40154 0.0
H1438 H 0.28168 0.56562 0.37417 0.0
C1439 C 0.202 0.6599 0.38876 0.0
C1440 C 0.26137 0.03921 0.27342 0.0
C1441 C 0.21476 0.04747 0.28283 0.0
H1442 H 0.29786 1.01496 0.24817 0.0
C1443 C 0.16794 0.03826 0.27355 0.0
H1444 H 0.29797 0.04683 0.2802 0.0
C1445 C 0.16787 1.0211 0.25503 0.0
C1446 C 0.21461 1.01272 0.24567 0.0
H1447 H 0.13149 0.04535 0.28044 0.0
H1448 H 0.13137 1.01329 0.24821 0.0
C1449 C 0.2613 1.02191 0.255 0.0
C1450 C 0.27746 0.90311 0.52341 0.0
C1451 C 0.26926 0.94942 0.53278 0.0
H1452 H 0.30235 0.86704 0.49802 0.0
C1453 C 0.27911 0.99547 0.52354 0.0
H1454 H 0.26917 0.86714 0.53019 0.0
C1455 C 0.29668 0.99542 0.5052 0.0
C1456 C 0.30495 0.94932 0.49576 0.0
H1457 H 0.27239 0.0317 0.53039 0.0
H1458 H 0.3046 0.03161 0.4985 0.0
C1459 C 0.29524 0.90306 0.50495 0.0
C1460 C 0.40542 0.03895 0.75541 0.0
C1461 C 0.35878 0.04789 0.74597 0.0
H1462 H 0.44152 1.01408 0.78086 0.0
C1463 C 0.31201 0.03914 0.75524 0.0
H1464 H 0.44198 0.0464 0.74866 0.0
C1465 C 0.31174 1.02168 0.77364 0.0
C1466 C 0.35823 1.01281 0.78313 0.0
H1467 H 0.27551 0.0465 0.74835 0.0
H1468 H 0.27505 1.01443 0.78034 0.0
C1469 C 0.40515 1.02161 0.77392 0.0
C1470 C 0.27798 0.05317 1.00517 0.0
C1471 C 0.26968 0.09936 0.99578 0.0
H1472 H 0.30115 1.01684 0.03059 0.0
C1473 C 0.27772 0.14552 1.00527 0.0
H1474 H 0.27121 1.01707 0.99822 0.0
C1475 C 0.29364 0.14538 0.02396 0.0
C1476 C 0.30202 0.09907 0.0333 0.0
H1477 H 0.27053 0.18163 0.99841 0.0
H1478 H 0.30053 0.18139 0.03094 0.0
C1479 C 0.2941 0.05303 0.02376 0.0
C1480 C 0.80925 1.01769 0.7565 0.0
C1481 C 0.8559 1.00958 0.74708 0.0
H1482 H 0.77269 0.04249 0.78169 0.0
C1483 C 0.90267 1.01933 0.75633 0.0
H1484 H 0.7727 1.00965 0.74976 0.0
C1485 C 0.90268 0.03697 0.77478 0.0
C1486 C 0.85592 0.04537 0.78413 0.0
H1487 H 0.93915 1.01238 0.74944 0.0
H1488 H 0.93915 0.04521 0.78155 0.0
C1489 C 0.80926 0.03557 0.77485 0.0
C1490 C 0.77733 0.14826 0.52565 0.0
C1491 C 0.76753 0.10124 0.5343 0.0
H1492 H 0.8031 0.18648 0.50086 0.0
C1493 C 0.77586 0.05598 0.52434 0.0
H1494 H 0.77023 0.18371 0.53297 0.0
C1495 C 0.79365 0.05759 0.50599 0.0
C1496 C 0.80324 0.10449 0.49728 0.0
H1497 H 0.76782 1.01928 0.53063 0.0
H1498 H 0.80053 1.02204 0.49871 0.0
C1499 C 0.79496 0.14988 0.5072 0.0
C1500 C 0.6684 1.01757 0.27432 0.0
C1501 C 0.71559 1.00768 0.28327 0.0
H1502 H 0.63071 0.04311 0.24927 0.0
C1503 C 0.76173 1.01527 0.27346 0.0
H1504 H 0.63226 1.01104 0.28149 0.0
C1505 C 0.76083 0.0327 0.25504 0.0
C1506 C 0.71376 0.0426 0.24606 0.0
H1507 H 0.7986 1.00715 0.27995 0.0
H1508 H 0.79707 0.03915 0.24792 0.0
C1509 C 0.66748 0.03479 0.2558 0.0
C1510 C 0.79379 1.00559 0.02402 0.0
C1511 C 0.80257 0.95939 0.03335 0.0
H1512 H 0.76958 0.04196 0.99873 0.0
C1513 C 0.79437 0.91325 0.02386 0.0
H1514 H 0.80066 0.04168 0.03096 0.0
C1515 C 0.77778 0.91342 1.00524 0.0
C1516 C 0.7689 0.95973 0.99597 0.0
H1517 H 0.8019 0.87714 0.03067 0.0
H1518 H 0.7708 0.87742 0.99827 0.0
C1519 C 0.77698 1.00576 1.0055 0.0
C1520 C 0.66929 0.53941 0.77356 0.0
C1521 C 0.716 0.54903 0.78286 0.0
H1522 H 0.63303 0.51343 0.74829 0.0
C1523 C 0.76272 0.54044 0.77355 0.0
H1524 H 0.63276 0.54672 0.78036 0.0
C1525 C 0.76287 0.52236 0.75523 0.0
C1526 C 0.71629 0.51277 0.74588 0.0
H1527 H 0.79924 0.54833 0.78034 0.0
H1528 H 0.7995 0.51518 0.74848 0.0
C1529 C 0.66944 0.5215 0.75513 0.0
C1530 C 0.79253 0.49476 1.00536 0.0
C1531 C 0.80194 0.44855 0.99615 0.0
H1532 H 0.76763 0.53132 0.03042 0.0
C1533 C 0.79349 0.4024 1.00558 0.0
H1534 H 0.79946 0.53088 0.99848 0.0
C1535 C 0.77591 0.40266 0.02406 0.0
C1536 C 0.76668 0.44907 0.03323 0.0
H1537 H 0.80147 0.36631 0.99883 0.0
H1538 H 0.76864 0.36674 0.03103 0.0
C1539 C 0.77519 0.49502 0.02374 0.0
C1540 C 0.90223 0.51878 0.27312 0.0
C1541 C 0.85524 0.5086 0.28208 0.0
H1542 H 0.93925 0.54594 0.24823 0.0
C1543 C 0.80882 0.51725 0.2725 0.0
H1544 H 0.93855 0.51146 0.28013 0.0
C1545 C 0.80924 0.53602 0.25429 0.0
C1546 C 0.85609 0.54626 0.24529 0.0
H1547 H 0.7721 0.50895 0.27902 0.0
H1548 H 0.77281 0.54326 0.24734 0.0
C1549 C 0.90266 0.53738 0.25479 0.0
C1550 C 0.77735 0.55689 0.50541 0.0
C1551 C 0.76807 0.60335 0.49632 0.0
H1552 H 0.80266 0.51977 0.53039 0.0
C1553 C 0.77653 0.64924 0.50593 0.0
H1554 H 0.77034 0.52097 0.49837 0.0
C1555 C 0.79403 0.64852 0.52445 0.0
C1556 C 0.80345 0.6019 0.53346 0.0
H1557 H 0.76859 0.6855 0.49929 0.0
H1558 H 0.80129 0.6843 0.53153 0.0
C1559 C 0.79493 0.55618 0.52381 0.0
C1560 C 0.30824 0.53992 0.27484 0.0
C1561 C 0.35462 0.54921 0.28437 0.0
H1562 H 0.27237 0.51332 0.2497 0.0
C1563 C 0.40164 0.53927 0.27541 0.0
H1564 H 0.27148 0.54799 0.28137 0.0
C1565 C 0.40216 0.52055 0.25708 0.0
C1566 C 0.35566 0.51123 0.24759 0.0
H1567 H 0.43793 0.54705 0.28238 0.0
H1568 H 0.43882 0.51243 0.2505 0.0
C1569 C 0.30875 0.52092 0.25663 0.0
C1570 C 0.29496 0.65004 1.00688 0.0
C1571 C 0.30303 0.60444 0.99706 0.0
H1572 H 0.27044 0.68446 0.03258 0.0
C1573 C 0.29326 0.55775 1.0059 0.0
H1574 H 0.30323 0.68649 1.00045 0.0
C1575 C 0.27553 0.55656 0.02427 0.0
C1576 C 0.26742 0.60204 0.03412 0.0
H1577 H 0.29997 0.52203 0.99871 0.0
H1578 H 0.26738 0.52001 0.03065 0.0
C1579 C 0.27737 0.64885 0.02535 0.0
C1580 C 0.16998 0.53652 0.7554 0.0
C1581 C 0.21659 0.5451 0.74596 0.0
H1582 H 0.13392 0.51108 0.78072 0.0
C1583 C 0.26337 0.53475 0.75507 0.0
H1584 H 0.13343 0.54513 0.74876 0.0
C1585 C 0.26366 0.51612 0.77332 0.0
C1586 C 0.21719 0.50781 0.78284 0.0
H1587 H 0.29984 0.54176 0.74818 0.0
H1588 H 0.30032 0.5077 0.77992 0.0
C1589 C 0.17029 0.51814 0.77377 0.0
C1590 C 0.28032 0.40932 0.50673 0.0
C1591 C 0.27379 0.45472 0.49663 0.0
H1592 H 0.30232 0.37541 0.53285 0.0
C1593 C 0.28385 0.50154 0.50536 0.0
H1594 H 0.27177 0.3728 0.50038 0.0
C1595 C 0.30015 0.50307 0.52391 0.0
C1596 C 0.30665 0.45782 0.53406 0.0
H1597 H 0.27828 0.53711 0.49794 0.0
H1598 H 0.3085 0.53971 0.53022 0.0
C1599 C 0.29657 0.41087 0.52538 0.0
loop_
_geom_bond_atom_site_label_1
_geom_bond_atom_site_label_2
_geom_bond_distance
_geom_bond_site_symmetry_2
_ccdc_geom_bond_type
Dy0 O4 2.398 . S
Dy0 O5 2.491 . S
Dy0 O6 2.403 . S
Dy0 O7 2.664 . S
Dy0 O11 2.326 . S
Dy0 O15 2.310 . S
Dy0 O16 2.351 . S
C1 O12 1.185 . S
C1 O13 1.355 . S
C2 O4 1.185 . S
C2 O5 1.355 . S
Dy3 O7 2.310 . S
Dy3 O10 2.351 . S
Dy3 O12 2.398 . S
Dy3 O13 2.491 . S
Dy3 O14 2.403 . S
Dy3 O15 2.664 . S
Dy3 O17 2.326 . S
O4 Dy0 2.398 . S
O4 C2 1.185 . S
O5 Dy0 2.491 . S
O5 C2 1.355 . S
O6 Dy0 2.403 . S
O6 C8 1.254 . S
O7 Dy0 2.664 . S
O7 Dy3 2.310 . S
O7 C8 1.268 . S
C8 O6 1.254 . S
C8 O7 1.268 . S
C9 O14 1.254 . S
C9 O15 1.268 . S
O10 Dy3 2.351 . S
O10 C18 1.249 . S
O11 Dy0 2.326 . S
O11 C18 1.267 . S
O12 C1 1.185 . S
O12 Dy3 2.398 . S
O13 C1 1.355 . S
O13 Dy3 2.491 . S
O14 Dy3 2.403 . S
O14 C9 1.254 . S
O15 Dy0 2.310 . S
O15 Dy3 2.664 . S
O15 C9 1.268 . S
O16 Dy0 2.351 . S
O16 C19 1.249 . S
O17 Dy3 2.326 . S
O17 C19 1.267 . S
C18 O10 1.249 . S
C18 O11 1.267 . S
C19 O16 1.249 . S
C19 O17 1.267 . S
Dy20 O24 2.398 1_455 S
Dy20 O25 2.491 1_455 S
Dy20 O26 2.403 1_565 S
Dy20 O27 2.664 . S
Dy20 O31 2.326 . S
Dy20 O35 2.310 . S
Dy20 O36 2.351 . S
C21 O32 1.185 . S
C21 O33 1.355 . S
C22 O24 1.185 . S
C22 O25 1.355 . S
Dy23 O27 2.310 . S
Dy23 O30 2.351 . S
Dy23 O32 2.398 . S
Dy23 O33 2.491 . S
Dy23 O34 2.403 . S
Dy23 O35 2.664 . S
Dy23 O37 2.326 . S
O24 Dy20 2.398 1_655 S
O24 C22 1.185 . S
O25 Dy20 2.491 1_655 S
O25 C22 1.355 . S
O26 Dy20 2.403 1_545 S
O26 C28 1.254 . S
O27 Dy20 2.664 . S
O27 Dy23 2.310 . S
O27 C28 1.268 1_565 S
C28 O26 1.254 . S
C28 O27 1.268 1_545 S
C29 O34 1.254 . S
C29 O35 1.268 . S
O30 Dy23 2.351 . S
O30 C38 1.249 . S
O31 Dy20 2.326 . S
O31 C38 1.267 . S
O32 C21 1.185 . S
O32 Dy23 2.398 . S
O33 C21 1.355 . S
O33 Dy23 2.491 . S
O34 Dy23 2.403 . S
O34 C29 1.254 . S
O35 Dy20 2.310 . S
O35 Dy23 2.664 . S
O35 C29 1.268 . S
O36 Dy20 2.351 . S
O36 C39 1.249 . S
O37 Dy23 2.326 . S
O37 C39 1.267 . S
C38 O30 1.249 . S
C38 O31 1.267 . S
C39 O36 1.249 . S
C39 O37 1.267 . S
Dy40 O44 2.398 . S
Dy40 O45 2.491 . S
Dy40 O46 2.403 . S
Dy40 O47 2.664 . S
Dy40 O51 2.326 . S
Dy40 O55 2.310 . S
Dy40 O56 2.351 . S
C41 O52 1.185 . S
C41 O53 1.355 . S
C42 O44 1.185 . S
C42 O45 1.355 . S
Dy43 O47 2.310 . S
Dy43 O50 2.351 . S
Dy43 O52 2.398 . S
Dy43 O53 2.491 . S
Dy43 O54 2.403 . S
Dy43 O55 2.664 . S
Dy43 O57 2.326 . S
O44 Dy40 2.398 . S
O44 C42 1.185 . S
O45 Dy40 2.491 . S
O45 C42 1.355 . S
O46 Dy40 2.403 . S
O46 C48 1.254 . S
O47 Dy40 2.664 . S
O47 Dy43 2.310 . S
O47 C48 1.268 . S
C48 O46 1.254 . S
C48 O47 1.268 . S
C49 O54 1.254 . S
C49 O55 1.268 . S
O50 Dy43 2.351 . S
O50 C58 1.249 . S
O51 Dy40 2.326 . S
O51 C58 1.267 . S
O52 C41 1.185 . S
O52 Dy43 2.398 . S
O53 C41 1.355 . S
O53 Dy43 2.491 . S
O54 Dy43 2.403 . S
O54 C49 1.254 . S
O55 Dy40 2.310 . S
O55 Dy43 2.664 . S
O55 C49 1.268 . S
O56 Dy40 2.351 . S
O56 C59 1.249 . S
O57 Dy43 2.326 . S
O57 C59 1.267 . S
C58 O50 1.249 . S
C58 O51 1.267 . S
C59 O56 1.249 . S
C59 O57 1.267 . S
Dy60 O64 2.398 . S
Dy60 O65 2.491 . S
Dy60 O66 2.403 1_545 S
Dy60 O67 2.664 . S
Dy60 O71 2.326 . S
Dy60 O75 2.310 . S
Dy60 O76 2.351 . S
C61 O72 1.185 . S
C61 O73 1.355 . S
C62 O64 1.185 . S
C62 O65 1.355 . S
Dy63 O67 2.310 . S
Dy63 O70 2.351 . S
Dy63 O72 2.398 . S
Dy63 O73 2.491 . S
Dy63 O74 2.403 . S
Dy63 O75 2.664 . S
Dy63 O77 2.326 . S
O64 Dy60 2.398 . S
O64 C62 1.185 . S
O65 Dy60 2.491 . S
O65 C62 1.355 . S
O66 Dy60 2.403 1_565 S
O66 C68 1.254 . S
O67 Dy60 2.664 . S
O67 Dy63 2.310 . S
O67 C68 1.268 1_545 S
C68 O66 1.254 . S
C68 O67 1.268 1_565 S
C69 O74 1.254 . S
C69 O75 1.268 . S
O70 Dy63 2.351 . S
O70 C78 1.249 . S
O71 Dy60 2.326 . S
O71 C78 1.267 . S
O72 C61 1.185 . S
O72 Dy63 2.398 . S
O73 C61 1.355 . S
O73 Dy63 2.491 . S
O74 Dy63 2.403 . S
O74 C69 1.254 . S
O75 Dy60 2.310 . S
O75 Dy63 2.664 . S
O75 C69 1.268 . S
O76 Dy60 2.351 . S
O76 C79 1.249 . S
O77 Dy63 2.326 . S
O77 C79 1.267 . S
C78 O70 1.249 . S
C78 O71 1.267 . S
C79 O76 1.249 . S
C79 O77 1.267 . S
Dy80 O84 2.398 . S
Dy80 O85 2.491 . S
Dy80 O86 2.403 . S
Dy80 O87 2.664 . S
Dy80 O91 2.326 . S
Dy80 O95 2.310 . S
Dy80 O96 2.351 . S
C81 O92 1.185 . S
C81 O93 1.355 . S
C82 O84 1.185 . S
C82 O85 1.355 . S
Dy83 O87 2.310 . S
Dy83 O90 2.351 . S
Dy83 O92 2.398 . S
Dy83 O93 2.491 . S
Dy83 O94 2.403 . S
Dy83 O95 2.664 . S
Dy83 O97 2.326 . S
O84 Dy80 2.398 . S
O84 C82 1.185 . S
O85 Dy80 2.491 . S
O85 C82 1.355 . S
O86 Dy80 2.403 . S
O86 C88 1.254 . S
O87 Dy80 2.664 . S
O87 Dy83 2.310 . S
O87 C88 1.268 . S
C88 O86 1.254 . S
C88 O87 1.268 . S
C89 O94 1.254 . S
C89 O95 1.268 . S
O90 Dy83 2.351 . S
O90 C98 1.249 . S
O91 Dy80 2.326 . S
O91 C98 1.267 . S
O92 C81 1.185 . S
O92 Dy83 2.398 . S
O93 C81 1.355 . S
O93 Dy83 2.491 . S
O94 Dy83 2.403 . S
O94 C89 1.254 . S
O95 Dy80 2.310 . S
O95 Dy83 2.664 . S
O95 C89 1.268 . S
O96 Dy80 2.351 . S
O96 C99 1.249 . S
O97 Dy83 2.326 . S
O97 C99 1.267 . S
C98 O90 1.249 . S
C98 O91 1.267 . S
C99 O96 1.249 . S
C99 O97 1.267 . S
Dy100 O104 2.398 . S
Dy100 O105 2.491 . S
Dy100 O106 2.403 1_565 S
Dy100 O107 2.664 . S
Dy100 O111 2.326 . S
Dy100 O115 2.310 . S
Dy100 O116 2.351 . S
C101 O112 1.185 . S
C101 O113 1.355 . S
C102 O104 1.185 . S
C102 O105 1.355 . S
Dy103 O107 2.310 . S
Dy103 O110 2.351 . S
Dy103 O112 2.398 . S
Dy103 O113 2.491 . S
Dy103 O114 2.403 . S
Dy103 O115 2.664 . S
Dy103 O117 2.326 . S
O104 Dy100 2.398 . S
O104 C102 1.185 . S
O105 Dy100 2.491 . S
O105 C102 1.355 . S
O106 Dy100 2.403 1_545 S
O106 C108 1.254 . S
O107 Dy100 2.664 . S
O107 Dy103 2.310 . S
O107 C108 1.268 1_565 S
C108 O106 1.254 . S
C108 O107 1.268 1_545 S
C109 O114 1.254 . S
C109 O115 1.268 . S
O110 Dy103 2.351 . S
O110 C118 1.249 . S
O111 Dy100 2.326 . S
O111 C118 1.267 . S
O112 C101 1.185 . S
O112 Dy103 2.398 . S
O113 C101 1.355 . S
O113 Dy103 2.491 . S
O114 Dy103 2.403 . S
O114 C109 1.254 . S
O115 Dy100 2.310 . S
O115 Dy103 2.664 . S
O115 C109 1.268 . S
O116 Dy100 2.351 . S
O116 C119 1.249 . S
O117 Dy103 2.326 . S
O117 C119 1.267 . S
C118 O110 1.249 . S
C118 O111 1.267 . S
C119 O116 1.249 . S
C119 O117 1.267 . S
Dy120 O124 2.398 . S
Dy120 O125 2.491 . S
Dy120 O126 2.403 . S
Dy120 O127 2.664 . S
Dy120 O131 2.326 . S
Dy120 O135 2.310 . S
Dy120 O136 2.351 . S
C121 O132 1.185 . S
C121 O133 1.355 . S
C122 O124 1.185 . S
C122 O125 1.355 . S
Dy123 O127 2.310 . S
Dy123 O130 2.351 . S
Dy123 O132 2.398 . S
Dy123 O133 2.491 . S
Dy123 O134 2.403 . S
Dy123 O135 2.664 . S
Dy123 O137 2.326 . S
O124 Dy120 2.398 . S
O124 C122 1.185 . S
O125 Dy120 2.491 . S
O125 C122 1.355 . S
O126 Dy120 2.403 . S
O126 C128 1.254 . S
O127 Dy120 2.664 . S
O127 Dy123 2.310 . S
O127 C128 1.268 . S
C128 O126 1.254 . S
C128 O127 1.268 . S
C129 O134 1.254 . S
C129 O135 1.268 . S
O130 Dy123 2.351 . S
O130 C138 1.249 . S
O131 Dy120 2.326 . S
O131 C138 1.267 . S
O132 C121 1.185 . S
O132 Dy123 2.398 . S
O133 C121 1.355 . S
O133 Dy123 2.491 . S
O134 Dy123 2.403 . S
O134 C129 1.254 . S
O135 Dy120 2.310 . S
O135 Dy123 2.664 . S
O135 C129 1.268 . S
O136 Dy120 2.351 . S
O136 C139 1.249 . S
O137 Dy123 2.326 . S
O137 C139 1.267 . S
C138 O130 1.249 . S
C138 O131 1.267 . S
C139 O136 1.249 . S
C139 O137 1.267 . S
Dy140 O144 2.398 1_455 S
Dy140 O145 2.491 1_455 S
Dy140 O146 2.403 1_545 S
Dy140 O147 2.664 . S
Dy140 O151 2.326 . S
Dy140 O155 2.310 . S
Dy140 O156 2.351 . S
C141 O152 1.185 . S
C141 O153 1.355 . S
C142 O144 1.185 . S
C142 O145 1.355 . S
Dy143 O147 2.310 . S
Dy143 O150 2.351 . S
Dy143 O152 2.398 . S
Dy143 O153 2.491 . S
Dy143 O154 2.403 . S
Dy143 O155 2.664 . S
Dy143 O157 2.326 . S
O144 Dy140 2.398 1_655 S
O144 C142 1.185 . S
O145 Dy140 2.491 1_655 S
O145 C142 1.355 . S
O146 Dy140 2.403 1_565 S
O146 C148 1.254 . S
O147 Dy140 2.664 . S
O147 Dy143 2.310 . S
O147 C148 1.268 1_545 S
C148 O146 1.254 . S
C148 O147 1.268 1_565 S
C149 O154 1.254 . S
C149 O155 1.268 . S
O150 Dy143 2.351 . S
O150 C158 1.249 . S
O151 Dy140 2.326 . S
O151 C158 1.267 . S
O152 C141 1.185 . S
O152 Dy143 2.398 . S
O153 C141 1.355 . S
O153 Dy143 2.491 . S
O154 Dy143 2.403 . S
O154 C149 1.254 . S
O155 Dy140 2.310 . S
O155 Dy143 2.664 . S
O155 C149 1.268 . S
O156 Dy140 2.351 . S
O156 C159 1.249 . S
O157 Dy143 2.326 . S
O157 C159 1.267 . S
C158 O150 1.249 . S
C158 O151 1.267 . S
C159 O156 1.249 . S
C159 O157 1.267 . S
Dy160 O164 2.398 . S
Dy160 O165 2.491 . S
Dy160 O166 2.403 . S
Dy160 O167 2.664 . S
Dy160 O171 2.326 . S
Dy160 O175 2.310 . S
Dy160 O176 2.351 . S
C161 O172 1.185 . S
C161 O173 1.355 . S
C162 O164 1.185 . S
C162 O165 1.355 . S
Dy163 O167 2.310 . S
Dy163 O170 2.351 . S
Dy163 O172 2.398 . S
Dy163 O173 2.491 . S
Dy163 O174 2.403 . S
Dy163 O175 2.664 . S
Dy163 O177 2.326 . S
O164 Dy160 2.398 . S
O164 C162 1.185 . S
O165 Dy160 2.491 . S
O165 C162 1.355 . S
O166 Dy160 2.403 . S
O166 C168 1.254 . S
O167 Dy160 2.664 . S
O167 Dy163 2.310 . S
O167 C168 1.268 . S
C168 O166 1.254 . S
C168 O167 1.268 . S
C169 O174 1.254 . S
C169 O175 1.268 . S
O170 Dy163 2.351 . S
O170 C178 1.249 . S
O171 Dy160 2.326 . S
O171 C178 1.267 . S
O172 C161 1.185 . S
O172 Dy163 2.398 . S
O173 C161 1.355 . S
O173 Dy163 2.491 . S
O174 Dy163 2.403 . S
O174 C169 1.254 . S
O175 Dy160 2.310 . S
O175 Dy163 2.664 . S
O175 C169 1.268 . S
O176 Dy160 2.351 . S
O176 C179 1.249 . S
O177 Dy163 2.326 . S
O177 C179 1.267 . S
C178 O170 1.249 . S
C178 O171 1.267 . S
C179 O176 1.249 . S
C179 O177 1.267 . S
Dy180 O184 2.398 . S
Dy180 O185 2.491 . S
Dy180 O186 2.403 . S
Dy180 O187 2.664 . S
Dy180 O191 2.326 . S
Dy180 O195 2.310 . S
Dy180 O196 2.351 . S
C181 O192 1.185 . S
C181 O193 1.355 . S
C182 O184 1.185 . S
C182 O185 1.355 . S
Dy183 O187 2.310 . S
Dy183 O190 2.351 . S
Dy183 O192 2.398 1_655 S
Dy183 O193 2.491 1_655 S
Dy183 O194 2.403 1_545 S
Dy183 O195 2.664 . S
Dy183 O197 2.326 . S
O184 Dy180 2.398 . S
O184 C182 1.185 . S
O185 Dy180 2.491 . S
O185 C182 1.355 . S
O186 Dy180 2.403 . S
O186 C188 1.254 . S
O187 Dy180 2.664 . S
O187 Dy183 2.310 . S
O187 C188 1.268 . S
C188 O186 1.254 . S
C188 O187 1.268 . S
C189 O194 1.254 . S
C189 O195 1.268 1_565 S
O190 Dy183 2.351 . S
O190 C198 1.249 . S
O191 Dy180 2.326 . S
O191 C198 1.267 . S
O192 C181 1.185 . S
O192 Dy183 2.398 1_455 S
O193 C181 1.355 . S
O193 Dy183 2.491 1_455 S
O194 Dy183 2.403 1_565 S
O194 C189 1.254 . S
O195 Dy180 2.310 . S
O195 Dy183 2.664 . S
O195 C189 1.268 1_545 S
O196 Dy180 2.351 . S
O196 C199 1.249 . S
O197 Dy183 2.326 . S
O197 C199 1.267 . S
C198 O190 1.249 . S
C198 O191 1.267 . S
C199 O196 1.249 . S
C199 O197 1.267 . S
Dy200 O204 2.398 . S
Dy200 O205 2.491 . S
Dy200 O206 2.403 . S
Dy200 O207 2.664 . S
Dy200 O211 2.326 . S
Dy200 O215 2.310 . S
Dy200 O216 2.351 . S
C201 O212 1.185 . S
C201 O213 1.355 . S
C202 O204 1.185 . S
C202 O205 1.355 . S
Dy203 O207 2.310 . S
Dy203 O210 2.351 . S
Dy203 O212 2.398 . S
Dy203 O213 2.491 . S
Dy203 O214 2.403 . S
Dy203 O215 2.664 . S
Dy203 O217 2.326 . S
O204 Dy200 2.398 . S
O204 C202 1.185 . S
O205 Dy200 2.491 . S
O205 C202 1.355 . S
O206 Dy200 2.403 . S
O206 C208 1.254 . S
O207 Dy200 2.664 . S
O207 Dy203 2.310 . S
O207 C208 1.268 . S
C208 O206 1.254 . S
C208 O207 1.268 . S
C209 O214 1.254 . S
C209 O215 1.268 . S
O210 Dy203 2.351 . S
O210 C218 1.249 . S
O211 Dy200 2.326 . S
O211 C218 1.267 . S
O212 C201 1.185 . S
O212 Dy203 2.398 . S
O213 C201 1.355 . S
O213 Dy203 2.491 . S
O214 Dy203 2.403 . S
O214 C209 1.254 . S
O215 Dy200 2.310 . S
O215 Dy203 2.664 . S
O215 C209 1.268 . S
O216 Dy200 2.351 . S
O216 C219 1.249 . S
O217 Dy203 2.326 . S
O217 C219 1.267 . S
C218 O210 1.249 . S
C218 O211 1.267 . S
C219 O216 1.249 . S
C219 O217 1.267 . S
Dy220 O224 2.398 . S
Dy220 O225 2.491 . S
Dy220 O226 2.403 . S
Dy220 O227 2.664 . S
Dy220 O231 2.326 . S
Dy220 O235 2.310 . S
Dy220 O236 2.351 . S
C221 O232 1.185 . S
C221 O233 1.355 . S
C222 O224 1.185 . S
C222 O225 1.355 . S
Dy223 O227 2.310 . S
Dy223 O230 2.351 . S
Dy223 O232 2.398 . S
Dy223 O233 2.491 . S
Dy223 O234 2.403 1_565 S
Dy223 O235 2.664 . S
Dy223 O237 2.326 . S
O224 Dy220 2.398 . S
O224 C222 1.185 . S
O225 Dy220 2.491 . S
O225 C222 1.355 . S
O226 Dy220 2.403 . S
O226 C228 1.254 . S
O227 Dy220 2.664 . S
O227 Dy223 2.310 . S
O227 C228 1.268 . S
C228 O226 1.254 . S
C228 O227 1.268 . S
C229 O234 1.254 . S
C229 O235 1.268 1_545 S
O230 Dy223 2.351 . S
O230 C238 1.249 . S
O231 Dy220 2.326 . S
O231 C238 1.267 . S
O232 C221 1.185 . S
O232 Dy223 2.398 . S
O233 C221 1.355 . S
O233 Dy223 2.491 . S
O234 Dy223 2.403 1_545 S
O234 C229 1.254 . S
O235 Dy220 2.310 . S
O235 Dy223 2.664 . S
O235 C229 1.268 1_565 S
O236 Dy220 2.351 . S
O236 C239 1.249 . S
O237 Dy223 2.326 . S
O237 C239 1.267 . S
C238 O230 1.249 . S
C238 O231 1.267 . S
C239 O236 1.249 . S
C239 O237 1.267 . S
Dy240 O244 2.398 . S
Dy240 O245 2.491 . S
Dy240 O246 2.403 . S
Dy240 O247 2.664 . S
Dy240 O251 2.326 . S
Dy240 O255 2.310 . S
Dy240 O256 2.351 . S
C241 O252 1.185 . S
C241 O253 1.355 . S
C242 O244 1.185 . S
C242 O245 1.355 . S
Dy243 O247 2.310 . S
Dy243 O250 2.351 . S
Dy243 O252 2.398 . S
Dy243 O253 2.491 . S
Dy243 O254 2.403 . S
Dy243 O255 2.664 . S
Dy243 O257 2.326 . S
O244 Dy240 2.398 . S
O244 C242 1.185 . S
O245 Dy240 2.491 . S
O245 C242 1.355 . S
O246 Dy240 2.403 . S
O246 C248 1.254 . S
O247 Dy240 2.664 . S
O247 Dy243 2.310 . S
O247 C248 1.268 . S
C248 O246 1.254 . S
C248 O247 1.268 . S
C249 O254 1.254 . S
C249 O255 1.268 . S
O250 Dy243 2.351 . S
O250 C258 1.249 . S
O251 Dy240 2.326 . S
O251 C258 1.267 . S
O252 C241 1.185 . S
O252 Dy243 2.398 . S
O253 C241 1.355 . S
O253 Dy243 2.491 . S
O254 Dy243 2.403 . S
O254 C249 1.254 . S
O255 Dy240 2.310 . S
O255 Dy243 2.664 . S
O255 C249 1.268 . S
O256 Dy240 2.351 . S
O256 C259 1.249 . S
O257 Dy243 2.326 . S
O257 C259 1.267 . S
C258 O250 1.249 . S
C258 O251 1.267 . S
C259 O256 1.249 . S
C259 O257 1.267 . S
Dy260 O264 2.398 . S
Dy260 O265 2.491 . S
Dy260 O266 2.403 . S
Dy260 O267 2.664 . S
Dy260 O271 2.326 . S
Dy260 O275 2.310 . S
Dy260 O276 2.351 . S
C261 O272 1.185 . S
C261 O273 1.355 . S
C262 O264 1.185 . S
C262 O265 1.355 . S
Dy263 O267 2.310 . S
Dy263 O270 2.351 . S
Dy263 O272 2.398 . S
Dy263 O273 2.491 . S
Dy263 O274 2.403 1_545 S
Dy263 O275 2.664 . S
Dy263 O277 2.326 . S
O264 Dy260 2.398 . S
O264 C262 1.185 . S
O265 Dy260 2.491 . S
O265 C262 1.355 . S
O266 Dy260 2.403 . S
O266 C268 1.254 . S
O267 Dy260 2.664 . S
O267 Dy263 2.310 . S
O267 C268 1.268 . S
C268 O266 1.254 . S
C268 O267 1.268 . S
C269 O274 1.254 . S
C269 O275 1.268 1_565 S
O270 Dy263 2.351 . S
O270 C278 1.249 . S
O271 Dy260 2.326 . S
O271 C278 1.267 . S
O272 C261 1.185 . S
O272 Dy263 2.398 . S
O273 C261 1.355 . S
O273 Dy263 2.491 . S
O274 Dy263 2.403 1_565 S
O274 C269 1.254 . S
O275 Dy260 2.310 . S
O275 Dy263 2.664 . S
O275 C269 1.268 1_545 S
O276 Dy260 2.351 . S
O276 C279 1.249 . S
O277 Dy263 2.326 . S
O277 C279 1.267 . S
C278 O270 1.249 . S
C278 O271 1.267 . S
C279 O276 1.249 . S
C279 O277 1.267 . S
Dy280 O284 2.398 . S
Dy280 O285 2.491 . S
Dy280 O286 2.403 . S
Dy280 O287 2.664 . S
Dy280 O291 2.326 . S
Dy280 O295 2.310 . S
Dy280 O296 2.351 . S
C281 O292 1.185 . S
C281 O293 1.355 . S
C282 O284 1.185 . S
C282 O285 1.355 . S
Dy283 O287 2.310 . S
Dy283 O290 2.351 . S
Dy283 O292 2.398 . S
Dy283 O293 2.491 . S
Dy283 O294 2.403 . S
Dy283 O295 2.664 . S
Dy283 O297 2.326 . S
O284 Dy280 2.398 . S
O284 C282 1.185 . S
O285 Dy280 2.491 . S
O285 C282 1.355 . S
O286 Dy280 2.403 . S
O286 C288 1.254 . S
O287 Dy280 2.664 . S
O287 Dy283 2.310 . S
O287 C288 1.268 . S
C288 O286 1.254 . S
C288 O287 1.268 . S
C289 O294 1.254 . S
C289 O295 1.268 . S
O290 Dy283 2.351 . S
O290 C298 1.249 . S
O291 Dy280 2.326 . S
O291 C298 1.267 . S
O292 C281 1.185 . S
O292 Dy283 2.398 . S
O293 C281 1.355 . S
O293 Dy283 2.491 . S
O294 Dy283 2.403 . S
O294 C289 1.254 . S
O295 Dy280 2.310 . S
O295 Dy283 2.664 . S
O295 C289 1.268 . S
O296 Dy280 2.351 . S
O296 C299 1.249 . S
O297 Dy283 2.326 . S
O297 C299 1.267 . S
C298 O290 1.249 . S
C298 O291 1.267 . S
C299 O296 1.249 . S
C299 O297 1.267 . S
Dy300 O304 2.398 . S
Dy300 O305 2.491 . S
Dy300 O306 2.403 . S
Dy300 O307 2.664 . S
Dy300 O311 2.326 . S
Dy300 O315 2.310 . S
Dy300 O316 2.351 . S
C301 O312 1.185 . S
C301 O313 1.355 . S
C302 O304 1.185 . S
C302 O305 1.355 . S
Dy303 O307 2.310 . S
Dy303 O310 2.351 . S
Dy303 O312 2.398 1_655 S
Dy303 O313 2.491 1_655 S
Dy303 O314 2.403 1_565 S
Dy303 O315 2.664 . S
Dy303 O317 2.326 . S
O304 Dy300 2.398 . S
O304 C302 1.185 . S
O305 Dy300 2.491 . S
O305 C302 1.355 . S
O306 Dy300 2.403 . S
O306 C308 1.254 . S
O307 Dy300 2.664 . S
O307 Dy303 2.310 . S
O307 C308 1.268 . S
C308 O306 1.254 . S
C308 O307 1.268 . S
C309 O314 1.254 . S
C309 O315 1.268 1_545 S
O310 Dy303 2.351 . S
O310 C318 1.249 . S
O311 Dy300 2.326 . S
O311 C318 1.267 . S
O312 C301 1.185 . S
O312 Dy303 2.398 1_455 S
O313 C301 1.355 . S
O313 Dy303 2.491 1_455 S
O314 Dy303 2.403 1_545 S
O314 C309 1.254 . S
O315 Dy300 2.310 . S
O315 Dy303 2.664 . S
O315 C309 1.268 1_565 S
O316 Dy300 2.351 . S
O316 C319 1.249 . S
O317 Dy303 2.326 . S
O317 C319 1.267 . S
C318 O310 1.249 . S
C318 O311 1.267 . S
C319 O316 1.249 . S
C319 O317 1.267 . S
Dy320 O324 2.398 . S
Dy320 O325 2.491 . S
Dy320 O326 2.403 . S
Dy320 O327 2.664 . S
Dy320 O331 2.326 . S
Dy320 O335 2.310 . S
Dy320 O336 2.351 . S
C321 O332 1.185 . S
C321 O333 1.355 . S
C322 O324 1.185 . S
C322 O325 1.355 . S
Dy323 O327 2.310 . S
Dy323 O330 2.351 . S
Dy323 O332 2.398 . S
Dy323 O333 2.491 . S
Dy323 O334 2.403 . S
Dy323 O335 2.664 . S
Dy323 O337 2.326 . S
O324 Dy320 2.398 . S
O324 C322 1.185 . S
O325 Dy320 2.491 . S
O325 C322 1.355 . S
O326 Dy320 2.403 . S
O326 C328 1.254 . S
O327 Dy320 2.664 . S
O327 Dy323 2.310 . S
O327 C328 1.268 . S
C328 O326 1.254 . S
C328 O327 1.268 . S
C329 O334 1.254 . S
C329 O335 1.268 . S
O330 Dy323 2.351 . S
O330 C338 1.249 . S
O331 Dy320 2.326 . S
O331 C338 1.267 . S
O332 C321 1.185 . S
O332 Dy323 2.398 . S
O333 C321 1.355 . S
O333 Dy323 2.491 . S
O334 Dy323 2.403 . S
O334 C329 1.254 . S
O335 Dy320 2.310 . S
O335 Dy323 2.664 . S
O335 C329 1.268 . S
O336 Dy320 2.351 . S
O336 C339 1.249 . S
O337 Dy323 2.326 . S
O337 C339 1.267 . S
C338 O330 1.249 . S
C338 O331 1.267 . S
C339 O336 1.249 . S
C339 O337 1.267 . S
Dy340 O344 2.398 . S
Dy340 O345 2.491 . S
Dy340 O346 2.403 . S
Dy340 O347 2.664 . S
Dy340 O351 2.326 . S
Dy340 O355 2.310 . S
Dy340 O356 2.351 . S
C341 O352 1.185 . S
C341 O353 1.355 . S
C342 O344 1.185 . S
C342 O345 1.355 . S
Dy343 O347 2.310 . S
Dy343 O350 2.351 . S
Dy343 O352 2.398 . S
Dy343 O353 2.491 . S
Dy343 O354 2.403 . S
Dy343 O355 2.664 . S
Dy343 O357 2.326 . S
O344 Dy340 2.398 . S
O344 C342 1.185 . S
O345 Dy340 2.491 . S
O345 C342 1.355 . S
O346 Dy340 2.403 . S
O346 C348 1.254 . S
O347 Dy340 2.664 . S
O347 Dy343 2.310 . S
O347 C348 1.268 . S
C348 O346 1.254 . S
C348 O347 1.268 . S
C349 O354 1.254 . S
C349 O355 1.268 . S
O350 Dy343 2.351 . S
O350 C358 1.249 . S
O351 Dy340 2.326 . S
O351 C358 1.267 . S
O352 C341 1.185 . S
O352 Dy343 2.398 . S
O353 C341 1.355 . S
O353 Dy343 2.491 . S
O354 Dy343 2.403 . S
O354 C349 1.254 . S
O355 Dy340 2.310 . S
O355 Dy343 2.664 . S
O355 C349 1.268 . S
O356 Dy340 2.351 . S
O356 C359 1.249 . S
O357 Dy343 2.326 . S
O357 C359 1.267 . S
C358 O350 1.249 . S
C358 O351 1.267 . S
C359 O356 1.249 . S
C359 O357 1.267 . S
Dy360 O364 2.398 . S
Dy360 O365 2.491 . S
Dy360 O366 2.403 . S
Dy360 O367 2.664 . S
Dy360 O371 2.326 . S
Dy360 O375 2.310 . S
Dy360 O376 2.351 . S
C361 O372 1.185 . S
C361 O373 1.355 . S
C362 O364 1.185 . S
C362 O365 1.355 . S
Dy363 O367 2.310 . S
Dy363 O370 2.351 . S
Dy363 O372 2.398 . S
Dy363 O373 2.491 . S
Dy363 O374 2.403 . S
Dy363 O375 2.664 . S
Dy363 O377 2.326 . S
O364 Dy360 2.398 . S
O364 C362 1.185 . S
O365 Dy360 2.491 . S
O365 C362 1.355 . S
O366 Dy360 2.403 . S
O366 C368 1.254 . S
O367 Dy360 2.664 . S
O367 Dy363 2.310 . S
O367 C368 1.268 . S
C368 O366 1.254 . S
C368 O367 1.268 . S
C369 O374 1.254 . S
C369 O375 1.268 . S
O370 Dy363 2.351 . S
O370 C378 1.249 . S
O371 Dy360 2.326 . S
O371 C378 1.267 . S
O372 C361 1.185 . S
O372 Dy363 2.398 . S
O373 C361 1.355 . S
O373 Dy363 2.491 . S
O374 Dy363 2.403 . S
O374 C369 1.254 . S
O375 Dy360 2.310 . S
O375 Dy363 2.664 . S
O375 C369 1.268 . S
O376 Dy360 2.351 . S
O376 C379 1.249 . S
O377 Dy363 2.326 . S
O377 C379 1.267 . S
C378 O370 1.249 . S
C378 O371 1.267 . S
C379 O376 1.249 . S
C379 O377 1.267 . S
Dy380 O384 2.398 1_655 S
Dy380 O385 2.491 1_655 S
Dy380 O386 2.403 . S
Dy380 O387 2.664 . S
Dy380 O391 2.326 . S
Dy380 O395 2.310 . S
Dy380 O396 2.351 . S
C381 O392 1.185 . S
C381 O393 1.355 . S
C382 O384 1.185 . S
C382 O385 1.355 . S
Dy383 O387 2.310 . S
Dy383 O390 2.351 . S
Dy383 O392 2.398 . S
Dy383 O393 2.491 . S
Dy383 O394 2.403 . S
Dy383 O395 2.664 . S
Dy383 O397 2.326 . S
O384 Dy380 2.398 1_455 S
O384 C382 1.185 . S
O385 Dy380 2.491 1_455 S
O385 C382 1.355 . S
O386 Dy380 2.403 . S
O386 C388 1.254 . S
O387 Dy380 2.664 . S
O387 Dy383 2.310 . S
O387 C388 1.268 . S
C388 O386 1.254 . S
C388 O387 1.268 . S
C389 O394 1.254 . S
C389 O395 1.268 . S
O390 Dy383 2.351 . S
O390 C398 1.249 . S
O391 Dy380 2.326 . S
O391 C398 1.267 . S
O392 C381 1.185 . S
O392 Dy383 2.398 . S
O393 C381 1.355 . S
O393 Dy383 2.491 . S
O394 Dy383 2.403 . S
O394 C389 1.254 . S
O395 Dy380 2.310 . S
O395 Dy383 2.664 . S
O395 C389 1.268 . S
O396 Dy380 2.351 . S
O396 C399 1.249 . S
O397 Dy383 2.326 . S
O397 C399 1.267 . S
C398 O390 1.249 . S
C398 O391 1.267 . S
C399 O396 1.249 . S
C399 O397 1.267 . S
Dy400 O404 2.398 . S
Dy400 O405 2.491 . S
Dy400 O406 2.403 . S
Dy400 O407 2.664 . S
Dy400 O411 2.326 . S
Dy400 O415 2.310 . S
Dy400 O416 2.351 . S
C401 O412 1.185 . S
C401 O413 1.355 . S
C402 O404 1.185 . S
C402 O405 1.355 . S
Dy403 O407 2.310 . S
Dy403 O410 2.351 . S
Dy403 O412 2.398 . S
Dy403 O413 2.491 . S
Dy403 O414 2.403 . S
Dy403 O415 2.664 . S
Dy403 O417 2.326 . S
O404 Dy400 2.398 . S
O404 C402 1.185 . S
O405 Dy400 2.491 . S
O405 C402 1.355 . S
O406 Dy400 2.403 . S
O406 C408 1.254 . S
O407 Dy400 2.664 . S
O407 Dy403 2.310 . S
O407 C408 1.268 . S
C408 O406 1.254 . S
C408 O407 1.268 . S
C409 O414 1.254 . S
C409 O415 1.268 . S
O410 Dy403 2.351 . S
O410 C418 1.249 . S
O411 Dy400 2.326 . S
O411 C418 1.267 . S
O412 C401 1.185 . S
O412 Dy403 2.398 . S
O413 C401 1.355 . S
O413 Dy403 2.491 . S
O414 Dy403 2.403 . S
O414 C409 1.254 . S
O415 Dy400 2.310 . S
O415 Dy403 2.664 . S
O415 C409 1.268 . S
O416 Dy400 2.351 . S
O416 C419 1.249 . S
O417 Dy403 2.326 . S
O417 C419 1.267 . S
C418 O410 1.249 . S
C418 O411 1.267 . S
C419 O416 1.249 . S
C419 O417 1.267 . S
Dy420 O424 2.398 1_655 S
Dy420 O425 2.491 1_655 S
Dy420 O426 2.403 . S
Dy420 O427 2.664 . S
Dy420 O431 2.326 . S
Dy420 O435 2.310 . S
Dy420 O436 2.351 . S
C421 O432 1.185 . S
C421 O433 1.355 . S
C422 O424 1.185 . S
C422 O425 1.355 . S
Dy423 O427 2.310 . S
Dy423 O430 2.351 . S
Dy423 O432 2.398 . S
Dy423 O433 2.491 . S
Dy423 O434 2.403 . S
Dy423 O435 2.664 . S
Dy423 O437 2.326 . S
O424 Dy420 2.398 1_455 S
O424 C422 1.185 . S
O425 Dy420 2.491 1_455 S
O425 C422 1.355 . S
O426 Dy420 2.403 . S
O426 C428 1.254 . S
O427 Dy420 2.664 . S
O427 Dy423 2.310 . S
O427 C428 1.268 . S
C428 O426 1.254 . S
C428 O427 1.268 . S
C429 O434 1.254 . S
C429 O435 1.268 . S
O430 Dy423 2.351 . S
O430 C438 1.249 . S
O431 Dy420 2.326 . S
O431 C438 1.267 . S
O432 C421 1.185 . S
O432 Dy423 2.398 . S
O433 C421 1.355 . S
O433 Dy423 2.491 . S
O434 Dy423 2.403 . S
O434 C429 1.254 . S
O435 Dy420 2.310 . S
O435 Dy423 2.664 . S
O435 C429 1.268 . S
O436 Dy420 2.351 . S
O436 C439 1.249 . S
O437 Dy423 2.326 . S
O437 C439 1.267 . S
C438 O430 1.249 . S
C438 O431 1.267 . S
C439 O436 1.249 . S
C439 O437 1.267 . S
Dy440 O444 2.398 . S
Dy440 O445 2.491 . S
Dy440 O446 2.403 . S
Dy440 O447 2.664 . S
Dy440 O451 2.326 . S
Dy440 O455 2.310 . S
Dy440 O456 2.351 . S
C441 O452 1.185 . S
C441 O453 1.355 . S
C442 O444 1.185 . S
C442 O445 1.355 . S
Dy443 O447 2.310 . S
Dy443 O450 2.351 . S
Dy443 O452 2.398 . S
Dy443 O453 2.491 . S
Dy443 O454 2.403 . S
Dy443 O455 2.664 . S
Dy443 O457 2.326 . S
O444 Dy440 2.398 . S
O444 C442 1.185 . S
O445 Dy440 2.491 . S
O445 C442 1.355 . S
O446 Dy440 2.403 . S
O446 C448 1.254 . S
O447 Dy440 2.664 . S
O447 Dy443 2.310 . S
O447 C448 1.268 . S
C448 O446 1.254 . S
C448 O447 1.268 . S
C449 O454 1.254 . S
C449 O455 1.268 . S
O450 Dy443 2.351 . S
O450 C458 1.249 . S
O451 Dy440 2.326 . S
O451 C458 1.267 . S
O452 C441 1.185 . S
O452 Dy443 2.398 . S
O453 C441 1.355 . S
O453 Dy443 2.491 . S
O454 Dy443 2.403 . S
O454 C449 1.254 . S
O455 Dy440 2.310 . S
O455 Dy443 2.664 . S
O455 C449 1.268 . S
O456 Dy440 2.351 . S
O456 C459 1.249 . S
O457 Dy443 2.326 . S
O457 C459 1.267 . S
C458 O450 1.249 . S
C458 O451 1.267 . S
C459 O456 1.249 . S
C459 O457 1.267 . S
Dy460 O464 2.398 . S
Dy460 O465 2.491 . S
Dy460 O466 2.403 . S
Dy460 O467 2.664 . S
Dy460 O471 2.326 . S
Dy460 O475 2.310 . S
Dy460 O476 2.351 . S
C461 O472 1.185 . S
C461 O473 1.355 . S
C462 O464 1.185 . S
C462 O465 1.355 . S
Dy463 O467 2.310 . S
Dy463 O470 2.351 . S
Dy463 O472 2.398 . S
Dy463 O473 2.491 . S
Dy463 O474 2.403 . S
Dy463 O475 2.664 . S
Dy463 O477 2.326 . S
O464 Dy460 2.398 . S
O464 C462 1.185 . S
O465 Dy460 2.491 . S
O465 C462 1.355 . S
O466 Dy460 2.403 . S
O466 C468 1.254 . S
O467 Dy460 2.664 . S
O467 Dy463 2.310 . S
O467 C468 1.268 . S
C468 O466 1.254 . S
C468 O467 1.268 . S
C469 O474 1.254 . S
C469 O475 1.268 . S
O470 Dy463 2.351 . S
O470 C478 1.249 . S
O471 Dy460 2.326 . S
O471 C478 1.267 . S
O472 C461 1.185 . S
O472 Dy463 2.398 . S
O473 C461 1.355 . S
O473 Dy463 2.491 . S
O474 Dy463 2.403 . S
O474 C469 1.254 . S
O475 Dy460 2.310 . S
O475 Dy463 2.664 . S
O475 C469 1.268 . S
O476 Dy460 2.351 . S
O476 C479 1.249 . S
O477 Dy463 2.326 . S
O477 C479 1.267 . S
C478 O470 1.249 . S
C478 O471 1.267 . S
C479 O476 1.249 . S
C479 O477 1.267 . S
Dy480 O484 2.398 . S
Dy480 O485 2.491 . S
Dy480 O486 2.403 . S
Dy480 O487 2.664 . S
Dy480 O491 2.326 . S
Dy480 O495 2.310 . S
Dy480 O496 2.351 . S
C481 O492 1.185 . S
C481 O493 1.355 . S
C482 O484 1.185 . S
C482 O485 1.355 . S
Dy483 O487 2.310 . S
Dy483 O490 2.351 . S
Dy483 O492 2.398 . S
Dy483 O493 2.491 . S
Dy483 O494 2.403 . S
Dy483 O495 2.664 . S
Dy483 O497 2.326 . S
O484 Dy480 2.398 . S
O484 C482 1.185 . S
O485 Dy480 2.491 . S
O485 C482 1.355 . S
O486 Dy480 2.403 . S
O486 C488 1.254 . S
O487 Dy480 2.664 . S
O487 Dy483 2.310 . S
O487 C488 1.268 . S
C488 O486 1.254 . S
C488 O487 1.268 . S
C489 O494 1.254 . S
C489 O495 1.268 . S
O490 Dy483 2.351 . S
O490 C498 1.249 . S
O491 Dy480 2.326 . S
O491 C498 1.267 . S
O492 C481 1.185 . S
O492 Dy483 2.398 . S
O493 C481 1.355 . S
O493 Dy483 2.491 . S
O494 Dy483 2.403 . S
O494 C489 1.254 . S
O495 Dy480 2.310 . S
O495 Dy483 2.664 . S
O495 C489 1.268 . S
O496 Dy480 2.351 . S
O496 C499 1.249 . S
O497 Dy483 2.326 . S
O497 C499 1.267 . S
C498 O490 1.249 . S
C498 O491 1.267 . S
C499 O496 1.249 . S
C499 O497 1.267 . S
Dy500 O504 2.398 . S
Dy500 O505 2.491 . S
Dy500 O506 2.403 . S
Dy500 O507 2.664 . S
Dy500 O511 2.326 . S
Dy500 O515 2.310 . S
Dy500 O516 2.351 . S
C501 O512 1.185 . S
C501 O513 1.355 . S
C502 O504 1.185 . S
C502 O505 1.355 . S
Dy503 O507 2.310 . S
Dy503 O510 2.351 . S
Dy503 O512 2.398 . S
Dy503 O513 2.491 . S
Dy503 O514 2.403 . S
Dy503 O515 2.664 . S
Dy503 O517 2.326 . S
O504 Dy500 2.398 . S
O504 C502 1.185 . S
O505 Dy500 2.491 . S
O505 C502 1.355 . S
O506 Dy500 2.403 . S
O506 C508 1.254 . S
O507 Dy500 2.664 . S
O507 Dy503 2.310 . S
O507 C508 1.268 . S
C508 O506 1.254 . S
C508 O507 1.268 . S
C509 O514 1.254 . S
C509 O515 1.268 . S
O510 Dy503 2.351 . S
O510 C518 1.249 . S
O511 Dy500 2.326 . S
O511 C518 1.267 . S
O512 C501 1.185 . S
O512 Dy503 2.398 . S
O513 C501 1.355 . S
O513 Dy503 2.491 . S
O514 Dy503 2.403 . S
O514 C509 1.254 . S
O515 Dy500 2.310 . S
O515 Dy503 2.664 . S
O515 C509 1.268 . S
O516 Dy500 2.351 . S
O516 C519 1.249 . S
O517 Dy503 2.326 . S
O517 C519 1.267 . S
C518 O510 1.249 . S
C518 O511 1.267 . S
C519 O516 1.249 . S
C519 O517 1.267 . S
Dy520 O524 2.398 . S
Dy520 O525 2.491 . S
Dy520 O526 2.403 . S
Dy520 O527 2.664 . S
Dy520 O531 2.326 . S
Dy520 O535 2.310 . S
Dy520 O536 2.351 . S
C521 O532 1.185 . S
C521 O533 1.355 . S
C522 O524 1.185 . S
C522 O525 1.355 . S
Dy523 O527 2.310 . S
Dy523 O530 2.351 . S
Dy523 O532 2.398 . S
Dy523 O533 2.491 . S
Dy523 O534 2.403 . S
Dy523 O535 2.664 . S
Dy523 O537 2.326 . S
O524 Dy520 2.398 . S
O524 C522 1.185 . S
O525 Dy520 2.491 . S
O525 C522 1.355 . S
O526 Dy520 2.403 . S
O526 C528 1.254 . S
O527 Dy520 2.664 . S
O527 Dy523 2.310 . S
O527 C528 1.268 . S
C528 O526 1.254 . S
C528 O527 1.268 . S
C529 O534 1.254 . S
C529 O535 1.268 . S
O530 Dy523 2.351 . S
O530 C538 1.249 . S
O531 Dy520 2.326 . S
O531 C538 1.267 . S
O532 C521 1.185 . S
O532 Dy523 2.398 . S
O533 C521 1.355 . S
O533 Dy523 2.491 . S
O534 Dy523 2.403 . S
O534 C529 1.254 . S
O535 Dy520 2.310 . S
O535 Dy523 2.664 . S
O535 C529 1.268 . S
O536 Dy520 2.351 . S
O536 C539 1.249 . S
O537 Dy523 2.326 . S
O537 C539 1.267 . S
C538 O530 1.249 . S
C538 O531 1.267 . S
C539 O536 1.249 . S
C539 O537 1.267 . S
Dy540 O544 2.398 . S
Dy540 O545 2.491 . S
Dy540 O546 2.403 . S
Dy540 O547 2.664 . S
Dy540 O551 2.326 . S
Dy540 O555 2.310 . S
Dy540 O556 2.351 . S
C541 O552 1.185 . S
C541 O553 1.355 . S
C542 O544 1.185 . S
C542 O545 1.355 . S
Dy543 O547 2.310 . S
Dy543 O550 2.351 . S
Dy543 O552 2.398 1_455 S
Dy543 O553 2.491 1_455 S
Dy543 O554 2.403 . S
Dy543 O555 2.664 . S
Dy543 O557 2.326 . S
O544 Dy540 2.398 . S
O544 C542 1.185 . S
O545 Dy540 2.491 . S
O545 C542 1.355 . S
O546 Dy540 2.403 . S
O546 C548 1.254 . S
O547 Dy540 2.664 . S
O547 Dy543 2.310 . S
O547 C548 1.268 . S
C548 O546 1.254 . S
C548 O547 1.268 . S
C549 O554 1.254 . S
C549 O555 1.268 . S
O550 Dy543 2.351 . S
O550 C558 1.249 . S
O551 Dy540 2.326 . S
O551 C558 1.267 . S
O552 C541 1.185 . S
O552 Dy543 2.398 1_655 S
O553 C541 1.355 . S
O553 Dy543 2.491 1_655 S
O554 Dy543 2.403 . S
O554 C549 1.254 . S
O555 Dy540 2.310 . S
O555 Dy543 2.664 . S
O555 C549 1.268 . S
O556 Dy540 2.351 . S
O556 C559 1.249 . S
O557 Dy543 2.326 . S
O557 C559 1.267 . S
C558 O550 1.249 . S
C558 O551 1.267 . S
C559 O556 1.249 . S
C559 O557 1.267 . S
Dy560 O564 2.398 . S
Dy560 O565 2.491 . S
Dy560 O566 2.403 . S
Dy560 O567 2.664 . S
Dy560 O571 2.326 . S
Dy560 O575 2.310 . S
Dy560 O576 2.351 . S
C561 O572 1.185 . S
C561 O573 1.355 . S
C562 O564 1.185 . S
C562 O565 1.355 . S
Dy563 O567 2.310 . S
Dy563 O570 2.351 . S
Dy563 O572 2.398 . S
Dy563 O573 2.491 . S
Dy563 O574 2.403 . S
Dy563 O575 2.664 . S
Dy563 O577 2.326 . S
O564 Dy560 2.398 . S
O564 C562 1.185 . S
O565 Dy560 2.491 . S
O565 C562 1.355 . S
O566 Dy560 2.403 . S
O566 C568 1.254 . S
O567 Dy560 2.664 . S
O567 Dy563 2.310 . S
O567 C568 1.268 . S
C568 O566 1.254 . S
C568 O567 1.268 . S
C569 O574 1.254 . S
C569 O575 1.268 . S
O570 Dy563 2.351 . S
O570 C578 1.249 . S
O571 Dy560 2.326 . S
O571 C578 1.267 . S
O572 C561 1.185 . S
O572 Dy563 2.398 . S
O573 C561 1.355 . S
O573 Dy563 2.491 . S
O574 Dy563 2.403 . S
O574 C569 1.254 . S
O575 Dy560 2.310 . S
O575 Dy563 2.664 . S
O575 C569 1.268 . S
O576 Dy560 2.351 . S
O576 C579 1.249 . S
O577 Dy563 2.326 . S
O577 C579 1.267 . S
C578 O570 1.249 . S
C578 O571 1.267 . S
C579 O576 1.249 . S
C579 O577 1.267 . S
Dy580 O584 2.398 . S
Dy580 O585 2.491 . S
Dy580 O586 2.403 . S
Dy580 O587 2.664 . S
Dy580 O591 2.326 . S
Dy580 O595 2.310 . S
Dy580 O596 2.351 . S
C581 O592 1.185 . S
C581 O593 1.355 . S
C582 O584 1.185 . S
C582 O585 1.355 . S
Dy583 O587 2.310 . S
Dy583 O590 2.351 . S
Dy583 O592 2.398 1_455 S
Dy583 O593 2.491 1_455 S
Dy583 O594 2.403 . S
Dy583 O595 2.664 . S
Dy583 O597 2.326 . S
O584 Dy580 2.398 . S
O584 C582 1.185 . S
O585 Dy580 2.491 . S
O585 C582 1.355 . S
O586 Dy580 2.403 . S
O586 C588 1.254 . S
O587 Dy580 2.664 . S
O587 Dy583 2.310 . S
O587 C588 1.268 . S
C588 O586 1.254 . S
C588 O587 1.268 . S
C589 O594 1.254 . S
C589 O595 1.268 . S
O590 Dy583 2.351 . S
O590 C598 1.249 . S
O591 Dy580 2.326 . S
O591 C598 1.267 . S
O592 C581 1.185 . S
O592 Dy583 2.398 1_655 S
O593 C581 1.355 . S
O593 Dy583 2.491 1_655 S
O594 Dy583 2.403 . S
O594 C589 1.254 . S
O595 Dy580 2.310 . S
O595 Dy583 2.664 . S
O595 C589 1.268 . S
O596 Dy580 2.351 . S
O596 C599 1.249 . S
O597 Dy583 2.326 . S
O597 C599 1.267 . S
C598 O590 1.249 . S
C598 O591 1.267 . S
C599 O596 1.249 . S
C599 O597 1.267 . S
Dy600 O604 2.398 . S
Dy600 O605 2.491 . S
Dy600 O606 2.403 . S
Dy600 O607 2.664 . S
Dy600 O611 2.326 . S
Dy600 O615 2.310 . S
Dy600 O616 2.351 . S
C601 O612 1.185 . S
C601 O613 1.355 . S
C602 O604 1.185 . S
C602 O605 1.355 . S
Dy603 O607 2.310 . S
Dy603 O610 2.351 . S
Dy603 O612 2.398 . S
Dy603 O613 2.491 . S
Dy603 O614 2.403 . S
Dy603 O615 2.664 . S
Dy603 O617 2.326 . S
O604 Dy600 2.398 . S
O604 C602 1.185 . S
O605 Dy600 2.491 . S
O605 C602 1.355 . S
O606 Dy600 2.403 . S
O606 C608 1.254 . S
O607 Dy600 2.664 . S
O607 Dy603 2.310 . S
O607 C608 1.268 . S
C608 O606 1.254 . S
C608 O607 1.268 . S
C609 O614 1.254 . S
C609 O615 1.268 . S
O610 Dy603 2.351 . S
O610 C618 1.249 . S
O611 Dy600 2.326 . S
O611 C618 1.267 . S
O612 C601 1.185 . S
O612 Dy603 2.398 . S
O613 C601 1.355 . S
O613 Dy603 2.491 . S
O614 Dy603 2.403 . S
O614 C609 1.254 . S
O615 Dy600 2.310 . S
O615 Dy603 2.664 . S
O615 C609 1.268 . S
O616 Dy600 2.351 . S
O616 C619 1.249 . S
O617 Dy603 2.326 . S
O617 C619 1.267 . S
C618 O610 1.249 . S
C618 O611 1.267 . S
C619 O616 1.249 . S
C619 O617 1.267 . S
Dy620 O624 2.398 . S
Dy620 O625 2.491 . S
Dy620 O626 2.403 . S
Dy620 O627 2.664 . S
Dy620 O631 2.326 . S
Dy620 O635 2.310 . S
Dy620 O636 2.351 . S
C621 O632 1.185 . S
C621 O633 1.355 . S
C622 O624 1.185 . S
C622 O625 1.355 . S
Dy623 O627 2.310 . S
Dy623 O630 2.351 . S
Dy623 O632 2.398 . S
Dy623 O633 2.491 . S
Dy623 O634 2.403 . S
Dy623 O635 2.664 . S
Dy623 O637 2.326 . S
O624 Dy620 2.398 . S
O624 C622 1.185 . S
O625 Dy620 2.491 . S
O625 C622 1.355 . S
O626 Dy620 2.403 . S
O626 C628 1.254 . S
O627 Dy620 2.664 . S
O627 Dy623 2.310 . S
O627 C628 1.268 . S
C628 O626 1.254 . S
C628 O627 1.268 . S
C629 O634 1.254 . S
C629 O635 1.268 . S
O630 Dy623 2.351 . S
O630 C638 1.249 . S
O631 Dy620 2.326 . S
O631 C638 1.267 . S
O632 C621 1.185 . S
O632 Dy623 2.398 . S
O633 C621 1.355 . S
O633 Dy623 2.491 . S
O634 Dy623 2.403 . S
O634 C629 1.254 . S
O635 Dy620 2.310 . S
O635 Dy623 2.664 . S
O635 C629 1.268 . S
O636 Dy620 2.351 . S
O636 C639 1.249 . S
O637 Dy623 2.326 . S
O637 C639 1.267 . S
C638 O630 1.249 . S
C638 O631 1.267 . S
C639 O636 1.249 . S
C639 O637 1.267 . S
C640 C641 1.387 . S
C640 H644 0.950 . S
C640 C649 1.390 . S
C641 C640 1.387 . S
C641 C643 1.387 . S
H642 C649 0.950 . S
C643 C641 1.387 . S
C643 C645 1.390 . S
C643 H647 0.950 . S
H644 C640 0.950 . S
C645 C643 1.390 . S
C645 C646 1.387 . S
C645 H648 0.950 . S
C646 C645 1.387 . S
C646 C649 1.387 . S
H647 C643 0.950 . S
H648 C645 0.950 . S
C649 C640 1.390 . S
C649 H642 0.950 . S
C649 C646 1.387 . S
C650 C651 1.387 . S
C650 H654 0.950 . S
C650 C659 1.390 . S
C651 C650 1.387 . S
C651 C653 1.387 . S
H652 C659 0.950 . S
C653 C651 1.387 . S
C653 C655 1.390 . S
C653 H657 0.950 . S
H654 C650 0.950 . S
C655 C653 1.390 . S
C655 C656 1.387 . S
C655 H658 0.950 . S
C656 C655 1.387 . S
C656 C659 1.387 . S
H657 C653 0.950 . S
H658 C655 0.950 . S
C659 C650 1.390 . S
C659 H652 0.950 . S
C659 C656 1.387 . S
C660 C661 1.387 . S
C660 H664 0.950 . S
C660 C669 1.390 . S
C661 C660 1.387 . S
C661 C663 1.387 . S
H662 C669 0.950 . S
C663 C661 1.387 . S
C663 C665 1.390 . S
C663 H667 0.950 . S
H664 C660 0.950 . S
C665 C663 1.390 . S
C665 C666 1.387 . S
C665 H668 0.950 . S
C666 C665 1.387 . S
C666 C669 1.387 . S
H667 C663 0.950 . S
H668 C665 0.950 . S
C669 C660 1.390 . S
C669 H662 0.950 . S
C669 C666 1.387 . S
C670 C671 1.387 . S
C670 H674 0.950 . S
C670 C679 1.390 . S
C671 C670 1.387 . S
C671 C673 1.387 . S
H672 C679 0.950 . S
C673 C671 1.387 . S
C673 C675 1.390 . S
C673 H677 0.950 . S
H674 C670 0.950 . S
C675 C673 1.390 . S
C675 C676 1.387 . S
C675 H678 0.950 . S
C676 C675 1.387 . S
C676 C679 1.387 . S
H677 C673 0.950 . S
H678 C675 0.950 . S
C679 C670 1.390 . S
C679 H672 0.950 . S
C679 C676 1.387 . S
C680 C681 1.387 . S
C680 H684 0.950 . S
C680 C689 1.390 . S
C681 C680 1.387 . S
C681 C683 1.387 . S
H682 C689 0.950 . S
C683 C681 1.387 . S
C683 C685 1.390 . S
C683 H687 0.950 . S
H684 C680 0.950 . S
C685 C683 1.390 . S
C685 C686 1.387 . S
C685 H688 0.950 . S
C686 C685 1.387 . S
C686 C689 1.387 . S
H687 C683 0.950 . S
H688 C685 0.950 . S
C689 C680 1.390 . S
C689 H682 0.950 . S
C689 C686 1.387 . S
C690 C691 1.387 . S
C690 H694 0.950 . S
C690 C699 1.390 . S
C691 C690 1.387 . S
C691 C693 1.387 . S
H692 C699 0.950 . S
C693 C691 1.387 . S
C693 C695 1.390 . S
C693 H697 0.950 . S
H694 C690 0.950 . S
C695 C693 1.390 . S
C695 C696 1.387 . S
C695 H698 0.950 . S
C696 C695 1.387 . S
C696 C699 1.387 . S
H697 C693 0.950 . S
H698 C695 0.950 . S
C699 C690 1.390 . S
C699 H692 0.950 . S
C699 C696 1.387 . S
C700 C701 1.387 . S
C700 H704 0.950 . S
C700 C709 1.390 . S
C701 C700 1.387 . S
C701 C703 1.387 . S
H702 C709 0.950 . S
C703 C701 1.387 . S
C703 C705 1.390 . S
C703 H707 0.950 . S
H704 C700 0.950 . S
C705 C703 1.390 . S
C705 C706 1.387 . S
C705 H708 0.950 . S
C706 C705 1.387 . S
C706 C709 1.387 . S
H707 C703 0.950 . S
H708 C705 0.950 . S
C709 C700 1.390 . S
C709 H702 0.950 . S
C709 C706 1.387 . S
C710 C711 1.387 . S
C710 H714 0.950 . S
C710 C719 1.390 . S
C711 C710 1.387 . S
C711 C713 1.387 . S
H712 C719 0.950 . S
C713 C711 1.387 . S
C713 C715 1.390 . S
C713 H717 0.950 . S
H714 C710 0.950 . S
C715 C713 1.390 . S
C715 C716 1.387 . S
C715 H718 0.950 . S
C716 C715 1.387 . S
C716 C719 1.387 . S
H717 C713 0.950 . S
H718 C715 0.950 . S
C719 C710 1.390 . S
C719 H712 0.950 . S
C719 C716 1.387 . S
C720 C721 1.387 . S
C720 H724 0.950 . S
C720 C729 1.390 . S
C721 C720 1.387 . S
C721 C723 1.387 . S
H722 C729 0.950 . S
C723 C721 1.387 . S
C723 C725 1.390 . S
C723 H727 0.950 . S
H724 C720 0.950 . S
C725 C723 1.390 . S
C725 C726 1.387 . S
C725 H728 0.950 . S
C726 C725 1.387 . S
C726 C729 1.387 . S
H727 C723 0.950 . S
H728 C725 0.950 . S
C729 C720 1.390 . S
C729 H722 0.950 . S
C729 C726 1.387 . S
C730 C731 1.387 . S
C730 H734 0.950 . S
C730 C739 1.390 . S
C731 C730 1.387 . S
C731 C733 1.387 . S
H732 C739 0.950 . S
C733 C731 1.387 . S
C733 C735 1.390 . S
C733 H737 0.950 . S
H734 C730 0.950 . S
C735 C733 1.390 . S
C735 C736 1.387 . S
C735 H738 0.950 . S
C736 C735 1.387 . S
C736 C739 1.387 . S
H737 C733 0.950 . S
H738 C735 0.950 . S
C739 C730 1.390 . S
C739 H732 0.950 . S
C739 C736 1.387 . S
C740 C741 1.387 . S
C740 H744 0.950 . S
C740 C749 1.390 . S
C741 C740 1.387 . S
C741 C743 1.387 . S
H742 C749 0.950 . S
C743 C741 1.387 . S
C743 C745 1.390 . S
C743 H747 0.950 . S
H744 C740 0.950 . S
C745 C743 1.390 . S
C745 C746 1.387 . S
C745 H748 0.950 . S
C746 C745 1.387 . S
C746 C749 1.387 . S
H747 C743 0.950 . S
H748 C745 0.950 . S
C749 C740 1.390 . S
C749 H742 0.950 . S
C749 C746 1.387 . S
C750 C751 1.387 . S
C750 H754 0.950 . S
C750 C759 1.390 . S
C751 C750 1.387 . S
C751 C753 1.387 . S
H752 C759 0.950 . S
C753 C751 1.387 . S
C753 C755 1.390 . S
C753 H757 0.950 . S
H754 C750 0.950 . S
C755 C753 1.390 . S
C755 C756 1.387 . S
C755 H758 0.950 . S
C756 C755 1.387 . S
C756 C759 1.387 . S
H757 C753 0.950 . S
H758 C755 0.950 . S
C759 C750 1.390 . S
C759 H752 0.950 . S
C759 C756 1.387 . S
C760 C761 1.387 . S
C760 H764 0.950 . S
C760 C769 1.390 . S
C761 C760 1.387 . S
C761 C763 1.387 . S
H762 C769 0.950 . S
C763 C761 1.387 . S
C763 C765 1.390 . S
C763 H767 0.950 . S
H764 C760 0.950 . S
C765 C763 1.390 . S
C765 C766 1.387 . S
C765 H768 0.950 . S
C766 C765 1.387 . S
C766 C769 1.387 . S
H767 C763 0.950 . S
H768 C765 0.950 . S
C769 C760 1.390 . S
C769 H762 0.950 . S
C769 C766 1.387 . S
C770 C771 1.387 . S
C770 H774 0.950 . S
C770 C779 1.390 . S
C771 C770 1.387 . S
C771 C773 1.387 . S
H772 C779 0.950 . S
C773 C771 1.387 . S
C773 C775 1.390 . S
C773 H777 0.950 . S
H774 C770 0.950 . S
C775 C773 1.390 . S
C775 C776 1.387 . S
C775 H778 0.950 . S
C776 C775 1.387 . S
C776 C779 1.387 . S
H777 C773 0.950 . S
H778 C775 0.950 . S
C779 C770 1.390 . S
C779 H772 0.950 . S
C779 C776 1.387 . S
C780 C781 1.387 . S
C780 H784 0.950 . S
C780 C789 1.390 . S
C781 C780 1.387 . S
C781 C783 1.387 . S
H782 C789 0.950 . S
C783 C781 1.387 . S
C783 C785 1.390 . S
C783 H787 0.950 . S
H784 C780 0.950 . S
C785 C783 1.390 . S
C785 C786 1.387 . S
C785 H788 0.950 . S
C786 C785 1.387 . S
C786 C789 1.387 . S
H787 C783 0.950 . S
H788 C785 0.950 . S
C789 C780 1.390 . S
C789 H782 0.950 . S
C789 C786 1.387 . S
C790 C791 1.387 . S
C790 H794 0.950 . S
C790 C799 1.390 . S
C791 C790 1.387 . S
C791 C793 1.387 . S
H792 C799 0.950 . S
C793 C791 1.387 . S
C793 C795 1.390 . S
C793 H797 0.950 . S
H794 C790 0.950 . S
C795 C793 1.390 . S
C795 C796 1.387 . S
C795 H798 0.950 . S
C796 C795 1.387 . S
C796 C799 1.387 . S
H797 C793 0.950 . S
H798 C795 0.950 . S
C799 C790 1.390 . S
C799 H792 0.950 . S
C799 C796 1.387 . S
C800 C801 1.387 . S
C800 H804 0.950 . S
C800 C809 1.390 . S
C801 C800 1.387 . S
C801 C803 1.387 . S
H802 C809 0.950 . S
C803 C801 1.387 . S
C803 C805 1.390 . S
C803 H807 0.950 . S
H804 C800 0.950 . S
C805 C803 1.390 . S
C805 C806 1.387 . S
C805 H808 0.950 . S
C806 C805 1.387 . S
C806 C809 1.387 . S
H807 C803 0.950 . S
H808 C805 0.950 . S
C809 C800 1.390 . S
C809 H802 0.950 . S
C809 C806 1.387 . S
C810 C811 1.387 . S
C810 H814 0.950 . S
C810 C819 1.390 . S
C811 C810 1.387 . S
C811 C813 1.387 . S
H812 C819 0.950 . S
C813 C811 1.387 . S
C813 C815 1.390 . S
C813 H817 0.950 . S
H814 C810 0.950 . S
C815 C813 1.390 . S
C815 C816 1.387 . S
C815 H818 0.950 . S
C816 C815 1.387 . S
C816 C819 1.387 . S
H817 C813 0.950 . S
H818 C815 0.950 . S
C819 C810 1.390 . S
C819 H812 0.950 . S
C819 C816 1.387 . S
C820 C821 1.387 . S
C820 H824 0.950 . S
C820 C829 1.390 . S
C821 C820 1.387 . S
C821 C823 1.387 . S
H822 C829 0.950 . S
C823 C821 1.387 . S
C823 C825 1.390 . S
C823 H827 0.950 . S
H824 C820 0.950 . S
C825 C823 1.390 . S
C825 C826 1.387 . S
C825 H828 0.950 . S
C826 C825 1.387 . S
C826 C829 1.387 . S
H827 C823 0.950 . S
H828 C825 0.950 . S
C829 C820 1.390 . S
C829 H822 0.950 . S
C829 C826 1.387 . S
C830 C831 1.387 . S
C830 H834 0.950 . S
C830 C839 1.390 . S
C831 C830 1.387 . S
C831 C833 1.387 . S
H832 C839 0.950 . S
C833 C831 1.387 . S
C833 C835 1.390 . S
C833 H837 0.950 . S
H834 C830 0.950 . S
C835 C833 1.390 . S
C835 C836 1.387 . S
C835 H838 0.950 . S
C836 C835 1.387 . S
C836 C839 1.387 . S
H837 C833 0.950 . S
H838 C835 0.950 . S
C839 C830 1.390 . S
C839 H832 0.950 . S
C839 C836 1.387 . S
C840 C841 1.387 . S
C840 H844 0.950 . S
C840 C849 1.390 . S
C841 C840 1.387 . S
C841 C843 1.387 . S
H842 C849 0.950 . S
C843 C841 1.387 . S
C843 C845 1.390 . S
C843 H847 0.950 . S
H844 C840 0.950 . S
C845 C843 1.390 . S
C845 C846 1.387 . S
C845 H848 0.950 . S
C846 C845 1.387 . S
C846 C849 1.387 . S
H847 C843 0.950 . S
H848 C845 0.950 . S
C849 C840 1.390 . S
C849 H842 0.950 . S
C849 C846 1.387 . S
C850 C851 1.387 . S
C850 H854 0.950 . S
C850 C859 1.390 . S
C851 C850 1.387 . S
C851 C853 1.387 . S
H852 C859 0.950 . S
C853 C851 1.387 . S
C853 C855 1.390 . S
C853 H857 0.950 . S
H854 C850 0.950 . S
C855 C853 1.390 . S
C855 C856 1.387 . S
C855 H858 0.950 . S
C856 C855 1.387 . S
C856 C859 1.387 . S
H857 C853 0.950 . S
H858 C855 0.950 . S
C859 C850 1.390 . S
C859 H852 0.950 . S
C859 C856 1.387 . S
C860 C861 1.387 . S
C860 H864 0.950 . S
C860 C869 1.390 . S
C861 C860 1.387 . S
C861 C863 1.387 . S
H862 C869 0.950 . S
C863 C861 1.387 . S
C863 C865 1.390 . S
C863 H867 0.950 . S
H864 C860 0.950 . S
C865 C863 1.390 . S
C865 C866 1.387 . S
C865 H868 0.950 . S
C866 C865 1.387 . S
C866 C869 1.387 . S
H867 C863 0.950 . S
H868 C865 0.950 . S
C869 C860 1.390 . S
C869 H862 0.950 . S
C869 C866 1.387 . S
C870 C871 1.387 . S
C870 H874 0.950 . S
C870 C879 1.390 . S
C871 C870 1.387 . S
C871 C873 1.387 . S
H872 C879 0.950 . S
C873 C871 1.387 . S
C873 C875 1.390 . S
C873 H877 0.950 . S
H874 C870 0.950 . S
C875 C873 1.390 . S
C875 C876 1.387 . S
C875 H878 0.950 . S
C876 C875 1.387 . S
C876 C879 1.387 . S
H877 C873 0.950 . S
H878 C875 0.950 . S
C879 C870 1.390 . S
C879 H872 0.950 . S
C879 C876 1.387 . S
C880 C881 1.387 . S
C880 H884 0.950 . S
C880 C889 1.390 . S
C881 C880 1.387 . S
C881 C883 1.387 . S
H882 C889 0.950 . S
C883 C881 1.387 . S
C883 C885 1.390 . S
C883 H887 0.950 . S
H884 C880 0.950 . S
C885 C883 1.390 . S
C885 C886 1.387 . S
C885 H888 0.950 . S
C886 C885 1.387 . S
C886 C889 1.387 . S
H887 C883 0.950 . S
H888 C885 0.950 . S
C889 C880 1.390 . S
C889 H882 0.950 . S
C889 C886 1.387 . S
C890 C891 1.387 . S
C890 H894 0.950 . S
C890 C899 1.390 . S
C891 C890 1.387 . S
C891 C893 1.387 . S
H892 C899 0.950 . S
C893 C891 1.387 . S
C893 C895 1.390 . S
C893 H897 0.950 . S
H894 C890 0.950 . S
C895 C893 1.390 . S
C895 C896 1.387 . S
C895 H898 0.950 . S
C896 C895 1.387 . S
C896 C899 1.387 . S
H897 C893 0.950 . S
H898 C895 0.950 . S
C899 C890 1.390 . S
C899 H892 0.950 . S
C899 C896 1.387 . S
C900 C901 1.387 . S
C900 H904 0.950 . S
C900 C909 1.390 . S
C901 C900 1.387 . S
C901 C903 1.387 . S
H902 C909 0.950 . S
C903 C901 1.387 . S
C903 C905 1.390 . S
C903 H907 0.950 . S
H904 C900 0.950 . S
C905 C903 1.390 . S
C905 C906 1.387 . S
C905 H908 0.950 . S
C906 C905 1.387 . S
C906 C909 1.387 . S
H907 C903 0.950 . S
H908 C905 0.950 . S
C909 C900 1.390 . S
C909 H902 0.950 . S
C909 C906 1.387 . S
C910 C911 1.387 . S
C910 H914 0.950 . S
C910 C919 1.390 . S
C911 C910 1.387 . S
C911 C913 1.387 . S
H912 C919 0.950 . S
C913 C911 1.387 . S
C913 C915 1.390 . S
C913 H917 0.950 . S
H914 C910 0.950 . S
C915 C913 1.390 . S
C915 C916 1.387 . S
C915 H918 0.950 . S
C916 C915 1.387 . S
C916 C919 1.387 . S
H917 C913 0.950 . S
H918 C915 0.950 . S
C919 C910 1.390 . S
C919 H912 0.950 . S
C919 C916 1.387 . S
C920 C921 1.387 . S
C920 H924 0.950 . S
C920 C929 1.390 . S
C921 C920 1.387 . S
C921 C923 1.387 . S
H922 C929 0.950 . S
C923 C921 1.387 . S
C923 C925 1.390 . S
C923 H927 0.950 . S
H924 C920 0.950 . S
C925 C923 1.390 . S
C925 C926 1.387 . S
C925 H928 0.950 . S
C926 C925 1.387 . S
C926 C929 1.387 . S
H927 C923 0.950 . S
H928 C925 0.950 . S
C929 C920 1.390 . S
C929 H922 0.950 . S
C929 C926 1.387 . S
C930 C931 1.387 . S
C930 H934 0.950 . S
C930 C939 1.390 . S
C931 C930 1.387 . S
C931 C933 1.387 . S
H932 C939 0.950 . S
C933 C931 1.387 . S
C933 C935 1.390 . S
C933 H937 0.950 . S
H934 C930 0.950 . S
C935 C933 1.390 . S
C935 C936 1.387 . S
C935 H938 0.950 . S
C936 C935 1.387 . S
C936 C939 1.387 . S
H937 C933 0.950 . S
H938 C935 0.950 . S
C939 C930 1.390 . S
C939 H932 0.950 . S
C939 C936 1.387 . S
C940 C941 1.387 . S
C940 H944 0.950 . S
C940 C949 1.390 . S
C941 C940 1.387 . S
C941 C943 1.387 . S
H942 C949 0.950 . S
C943 C941 1.387 . S
C943 C945 1.390 . S
C943 H947 0.950 . S
H944 C940 0.950 . S
C945 C943 1.390 . S
C945 C946 1.387 . S
C945 H948 0.950 . S
C946 C945 1.387 . S
C946 C949 1.387 . S
H947 C943 0.950 . S
H948 C945 0.950 . S
C949 C940 1.390 . S
C949 H942 0.950 . S
C949 C946 1.387 . S
C950 C951 1.387 . S
C950 H954 0.950 . S
C950 C959 1.390 . S
C951 C950 1.387 . S
C951 C953 1.387 . S
H952 C959 0.950 . S
C953 C951 1.387 . S
C953 C955 1.390 . S
C953 H957 0.950 . S
H954 C950 0.950 . S
C955 C953 1.390 . S
C955 C956 1.387 . S
C955 H958 0.950 . S
C956 C955 1.387 . S
C956 C959 1.387 . S
H957 C953 0.950 . S
H958 C955 0.950 . S
C959 C950 1.390 . S
C959 H952 0.950 . S
C959 C956 1.387 . S
C960 C961 1.387 . S
C960 H964 0.950 . S
C960 C969 1.390 1_455 S
C961 C960 1.387 . S
C961 C963 1.387 . S
H962 C969 0.950 . S
C963 C961 1.387 . S
C963 C965 1.390 1_455 S
C963 H967 0.950 . S
H964 C960 0.950 . S
C965 C963 1.390 1_655 S
C965 C966 1.387 . S
C965 H968 0.950 . S
C966 C965 1.387 . S
C966 C969 1.387 . S
H967 C963 0.950 . S
H968 C965 0.950 . S
C969 C960 1.390 1_655 S
C969 H962 0.950 . S
C969 C966 1.387 . S
C970 C971 1.387 . S
C970 H974 0.950 . S
C970 C979 1.390 1_655 S
C971 C970 1.387 . S
C971 C973 1.387 . S
H972 C979 0.950 . S
C973 C971 1.387 . S
C973 C975 1.390 1_655 S
C973 H977 0.950 . S
H974 C970 0.950 . S
C975 C973 1.390 1_455 S
C975 C976 1.387 . S
C975 H978 0.950 . S
C976 C975 1.387 . S
C976 C979 1.387 . S
H977 C973 0.950 . S
H978 C975 0.950 . S
C979 C970 1.390 1_455 S
C979 H972 0.950 . S
C979 C976 1.387 . S
C980 C981 1.387 . S
C980 H984 0.950 . S
C980 C989 1.390 . S
C981 C980 1.387 . S
C981 C983 1.387 . S
H982 C989 0.950 . S
C983 C981 1.387 . S
C983 C985 1.390 . S
C983 H987 0.950 . S
H984 C980 0.950 . S
C985 C983 1.390 . S
C985 C986 1.387 . S
C985 H988 0.950 . S
C986 C985 1.387 . S
C986 C989 1.387 . S
H987 C983 0.950 . S
H988 C985 0.950 . S
C989 C980 1.390 . S
C989 H982 0.950 . S
C989 C986 1.387 . S
C990 C991 1.387 . S
C990 H994 0.950 . S
C990 C999 1.390 . S
C991 C990 1.387 . S
C991 C993 1.387 . S
H992 C999 0.950 . S
C993 C991 1.387 . S
C993 C995 1.390 . S
C993 H997 0.950 . S
H994 C990 0.950 . S
C995 C993 1.390 . S
C995 C996 1.387 . S
C995 H998 0.950 . S
C996 C995 1.387 . S
C996 C999 1.387 . S
H997 C993 0.950 . S
H998 C995 0.950 . S
C999 C990 1.390 . S
C999 H992 0.950 . S
C999 C996 1.387 . S
C1000 C1001 1.387 . S
C1000 H1004 0.950 . S
C1000 C1009 1.390 1_655 S
C1001 C1000 1.387 . S
C1001 C1003 1.387 . S
H1002 C1009 0.950 . S
C1003 C1001 1.387 . S
C1003 C1005 1.390 1_655 S
C1003 H1007 0.950 . S
H1004 C1000 0.950 . S
C1005 C1003 1.390 1_455 S
C1005 C1006 1.387 . S
C1005 H1008 0.950 . S
C1006 C1005 1.387 . S
C1006 C1009 1.387 . S
H1007 C1003 0.950 . S
H1008 C1005 0.950 . S
C1009 C1000 1.390 1_455 S
C1009 H1002 0.950 . S
C1009 C1006 1.387 . S
C1010 C1011 1.387 . S
C1010 H1014 0.950 . S
C1010 C1019 1.390 . S
C1011 C1010 1.387 . S
C1011 C1013 1.387 . S
H1012 C1019 0.950 . S
C1013 C1011 1.387 . S
C1013 C1015 1.390 . S
C1013 H1017 0.950 . S
H1014 C1010 0.950 . S
C1015 C1013 1.390 . S
C1015 C1016 1.387 . S
C1015 H1018 0.950 . S
C1016 C1015 1.387 . S
C1016 C1019 1.387 . S
H1017 C1013 0.950 . S
H1018 C1015 0.950 . S
C1019 C1010 1.390 . S
C1019 H1012 0.950 . S
C1019 C1016 1.387 . S
C1020 C1021 1.387 . S
C1020 H1024 0.950 . S
C1020 C1029 1.390 . S
C1021 C1020 1.387 . S
C1021 C1023 1.387 . S
H1022 C1029 0.950 . S
C1023 C1021 1.387 . S
C1023 C1025 1.390 . S
C1023 H1027 0.950 . S
H1024 C1020 0.950 . S
C1025 C1023 1.390 . S
C1025 C1026 1.387 . S
C1025 H1028 0.950 . S
C1026 C1025 1.387 . S
C1026 C1029 1.387 . S
H1027 C1023 0.950 . S
H1028 C1025 0.950 . S
C1029 C1020 1.390 . S
C1029 H1022 0.950 . S
C1029 C1026 1.387 . S
C1030 C1031 1.387 . S
C1030 H1034 0.950 . S
C1030 C1039 1.390 1_455 S
C1031 C1030 1.387 . S
C1031 C1033 1.387 . S
H1032 C1039 0.950 . S
C1033 C1031 1.387 . S
C1033 C1035 1.390 1_455 S
C1033 H1037 0.950 . S
H1034 C1030 0.950 . S
C1035 C1033 1.390 1_655 S
C1035 C1036 1.387 . S
C1035 H1038 0.950 . S
C1036 C1035 1.387 . S
C1036 C1039 1.387 . S
H1037 C1033 0.950 . S
H1038 C1035 0.950 . S
C1039 C1030 1.390 1_655 S
C1039 H1032 0.950 . S
C1039 C1036 1.387 . S
C1040 C1041 1.387 . S
C1040 H1044 0.950 . S
C1040 C1049 1.390 1_455 S
C1041 C1040 1.387 . S
C1041 C1043 1.387 . S
H1042 C1049 0.950 . S
C1043 C1041 1.387 . S
C1043 C1045 1.390 1_455 S
C1043 H1047 0.950 . S
H1044 C1040 0.950 . S
C1045 C1043 1.390 1_655 S
C1045 C1046 1.387 . S
C1045 H1048 0.950 . S
C1046 C1045 1.387 . S
C1046 C1049 1.387 . S
H1047 C1043 0.950 . S
H1048 C1045 0.950 . S
C1049 C1040 1.390 1_655 S
C1049 H1042 0.950 . S
C1049 C1046 1.387 . S
C1050 C1051 1.387 . S
C1050 H1054 0.950 . S
C1050 C1059 1.390 1_655 S
C1051 C1050 1.387 . S
C1051 C1053 1.387 . S
H1052 C1059 0.950 . S
C1053 C1051 1.387 . S
C1053 C1055 1.390 1_655 S
C1053 H1057 0.950 . S
H1054 C1050 0.950 . S
C1055 C1053 1.390 1_455 S
C1055 C1056 1.387 . S
C1055 H1058 0.950 . S
C1056 C1055 1.387 . S
C1056 C1059 1.387 . S
H1057 C1053 0.950 . S
H1058 C1055 0.950 . S
C1059 C1050 1.390 1_455 S
C1059 H1052 0.950 . S
C1059 C1056 1.387 . S
C1060 C1061 1.387 . S
C1060 H1064 0.950 . S
C1060 C1069 1.390 . S
C1061 C1060 1.387 . S
C1061 C1063 1.387 . S
H1062 C1069 0.950 . S
C1063 C1061 1.387 . S
C1063 C1065 1.390 . S
C1063 H1067 0.950 . S
H1064 C1060 0.950 . S
C1065 C1063 1.390 . S
C1065 C1066 1.387 . S
C1065 H1068 0.950 . S
C1066 C1065 1.387 . S
C1066 C1069 1.387 . S
H1067 C1063 0.950 . S
H1068 C1065 0.950 . S
C1069 C1060 1.390 . S
C1069 H1062 0.950 . S
C1069 C1066 1.387 . S
C1070 C1071 1.387 . S
C1070 H1074 0.950 . S
C1070 C1079 1.390 . S
C1071 C1070 1.387 . S
C1071 C1073 1.387 . S
H1072 C1079 0.950 . S
C1073 C1071 1.387 . S
C1073 C1075 1.390 . S
C1073 H1077 0.950 . S
H1074 C1070 0.950 . S
C1075 C1073 1.390 . S
C1075 C1076 1.387 . S
C1075 H1078 0.950 . S
C1076 C1075 1.387 . S
C1076 C1079 1.387 . S
H1077 C1073 0.950 . S
H1078 C1075 0.950 . S
C1079 C1070 1.390 . S
C1079 H1072 0.950 . S
C1079 C1076 1.387 . S
C1080 C1081 1.387 . S
C1080 H1084 0.950 . S
C1080 C1089 1.390 1_455 S
C1081 C1080 1.387 . S
C1081 C1083 1.387 . S
H1082 C1089 0.950 . S
C1083 C1081 1.387 . S
C1083 C1085 1.390 1_455 S
C1083 H1087 0.950 . S
H1084 C1080 0.950 . S
C1085 C1083 1.390 1_655 S
C1085 C1086 1.387 . S
C1085 H1088 0.950 . S
C1086 C1085 1.387 . S
C1086 C1089 1.387 . S
H1087 C1083 0.950 . S
H1088 C1085 0.950 . S
C1089 C1080 1.390 1_655 S
C1089 H1082 0.950 . S
C1089 C1086 1.387 . S
C1090 C1091 1.387 . S
C1090 H1094 0.950 . S
C1090 C1099 1.390 . S
C1091 C1090 1.387 . S
C1091 C1093 1.387 . S
H1092 C1099 0.950 . S
C1093 C1091 1.387 . S
C1093 C1095 1.390 . S
C1093 H1097 0.950 . S
H1094 C1090 0.950 . S
C1095 C1093 1.390 . S
C1095 C1096 1.387 . S
C1095 H1098 0.950 . S
C1096 C1095 1.387 . S
C1096 C1099 1.387 . S
H1097 C1093 0.950 . S
H1098 C1095 0.950 . S
C1099 C1090 1.390 . S
C1099 H1092 0.950 . S
C1099 C1096 1.387 . S
C1100 C1101 1.387 . S
C1100 H1104 0.950 . S
C1100 C1109 1.390 . S
C1101 C1100 1.387 . S
C1101 C1103 1.387 . S
H1102 C1109 0.950 . S
C1103 C1101 1.387 . S
C1103 C1105 1.390 . S
C1103 H1107 0.950 . S
H1104 C1100 0.950 . S
C1105 C1103 1.390 . S
C1105 C1106 1.387 . S
C1105 H1108 0.950 . S
C1106 C1105 1.387 . S
C1106 C1109 1.387 . S
H1107 C1103 0.950 . S
H1108 C1105 0.950 . S
C1109 C1100 1.390 . S
C1109 H1102 0.950 . S
C1109 C1106 1.387 . S
C1110 C1111 1.387 . S
C1110 H1114 0.950 . S
C1110 C1119 1.390 1_655 S
C1111 C1110 1.387 . S
C1111 C1113 1.387 . S
H1112 C1119 0.950 . S
C1113 C1111 1.387 . S
C1113 C1115 1.390 1_655 S
C1113 H1117 0.950 . S
H1114 C1110 0.950 . S
C1115 C1113 1.390 1_455 S
C1115 C1116 1.387 . S
C1115 H1118 0.950 . S
C1116 C1115 1.387 . S
C1116 C1119 1.387 . S
H1117 C1113 0.950 . S
H1118 C1115 0.950 . S
C1119 C1110 1.390 1_455 S
C1119 H1112 0.950 . S
C1119 C1116 1.387 . S
C1120 C1121 1.387 . S
C1120 H1124 0.950 . S
C1120 C1129 1.390 . S
C1121 C1120 1.387 . S
C1121 C1123 1.387 . S
H1122 C1129 0.950 . S
C1123 C1121 1.387 . S
C1123 C1125 1.390 . S
C1123 H1127 0.950 . S
H1124 C1120 0.950 . S
C1125 C1123 1.390 . S
C1125 C1126 1.387 . S
C1125 H1128 0.950 . S
C1126 C1125 1.387 . S
C1126 C1129 1.387 . S
H1127 C1123 0.950 . S
H1128 C1125 0.950 . S
C1129 C1120 1.390 . S
C1129 H1122 0.950 . S
C1129 C1126 1.387 . S
C1130 C1131 1.387 . S
C1130 H1134 0.950 . S
C1130 C1139 1.390 1_655 S
C1131 C1130 1.387 . S
C1131 C1133 1.387 1_545 S
H1132 C1139 0.950 . S
C1133 C1131 1.387 1_565 S
C1133 C1135 1.390 1_655 S
C1133 H1137 0.950 . S
H1134 C1130 0.950 . S
C1135 C1133 1.390 1_455 S
C1135 C1136 1.387 . S
C1135 H1138 0.950 . S
C1136 C1135 1.387 . S
C1136 C1139 1.387 1_565 S
H1137 C1133 0.950 . S
H1138 C1135 0.950 . S
C1139 C1130 1.390 1_455 S
C1139 H1132 0.950 . S
C1139 C1136 1.387 1_545 S
C1140 C1141 1.387 . S
C1140 H1144 0.950 . S
C1140 C1149 1.390 . S
C1141 C1140 1.387 . S
C1141 C1143 1.387 . S
H1142 C1149 0.950 . S
C1143 C1141 1.387 . S
C1143 C1145 1.390 . S
C1143 H1147 0.950 . S
H1144 C1140 0.950 . S
C1145 C1143 1.390 . S
C1145 C1146 1.387 . S
C1145 H1148 0.950 . S
C1146 C1145 1.387 . S
C1146 C1149 1.387 . S
H1147 C1143 0.950 . S
H1148 C1145 0.950 . S
C1149 C1140 1.390 . S
C1149 H1142 0.950 . S
C1149 C1146 1.387 . S
C1150 C1151 1.387 . S
C1150 H1154 0.950 . S
C1150 C1159 1.390 1_554 S
C1151 C1150 1.387 . S
C1151 C1153 1.387 1_545 S
H1152 C1159 0.950 . S
C1153 C1151 1.387 1_565 S
C1153 C1155 1.390 1_554 S
C1153 H1157 0.950 . S
H1154 C1150 0.950 . S
C1155 C1153 1.390 1_556 S
C1155 C1156 1.387 . S
C1155 H1158 0.950 . S
C1156 C1155 1.387 . S
C1156 C1159 1.387 1_565 S
H1157 C1153 0.950 . S
H1158 C1155 0.950 . S
C1159 C1150 1.390 1_556 S
C1159 H1152 0.950 . S
C1159 C1156 1.387 1_545 S
C1160 C1161 1.387 . S
C1160 H1164 0.950 . S
C1160 C1169 1.390 . S
C1161 C1160 1.387 . S
C1161 C1163 1.387 . S
H1162 C1169 0.950 . S
C1163 C1161 1.387 . S
C1163 C1165 1.390 . S
C1163 H1167 0.950 . S
H1164 C1160 0.950 . S
C1165 C1163 1.390 . S
C1165 C1166 1.387 . S
C1165 H1168 0.950 . S
C1166 C1165 1.387 . S
C1166 C1169 1.387 . S
H1167 C1163 0.950 . S
H1168 C1165 0.950 . S
C1169 C1160 1.390 . S
C1169 H1162 0.950 . S
C1169 C1166 1.387 . S
C1170 C1171 1.387 1_565 S
C1170 H1174 0.950 . S
C1170 C1179 1.390 . S
C1171 C1170 1.387 1_545 S
C1171 C1173 1.387 . S
H1172 C1179 0.950 . S
C1173 C1171 1.387 . S
C1173 C1175 1.390 . S
C1173 H1177 0.950 . S
H1174 C1170 0.950 . S
C1175 C1173 1.390 . S
C1175 C1176 1.387 1_545 S
C1175 H1178 0.950 . S
C1176 C1175 1.387 1_565 S
C1176 C1179 1.387 . S
H1177 C1173 0.950 . S
H1178 C1175 0.950 . S
C1179 C1170 1.390 . S
C1179 H1172 0.950 . S
C1179 C1176 1.387 . S
C1180 C1181 1.387 . S
C1180 H1184 0.950 . S
C1180 C1189 1.390 . S
C1181 C1180 1.387 . S
C1181 C1183 1.387 . S
H1182 C1189 0.950 . S
C1183 C1181 1.387 . S
C1183 C1185 1.390 . S
C1183 H1187 0.950 . S
H1184 C1180 0.950 . S
C1185 C1183 1.390 . S
C1185 C1186 1.387 . S
C1185 H1188 0.950 . S
C1186 C1185 1.387 . S
C1186 C1189 1.387 . S
H1187 C1183 0.950 . S
H1188 C1185 0.950 . S
C1189 C1180 1.390 . S
C1189 H1182 0.950 . S
C1189 C1186 1.387 . S
C1190 C1191 1.387 . S
C1190 H1194 0.950 . S
C1190 C1199 1.390 1_456 S
C1191 C1190 1.387 . S
C1191 C1193 1.387 1_545 S
H1192 C1199 0.950 . S
C1193 C1191 1.387 1_565 S
C1193 C1195 1.390 1_456 S
C1193 H1197 0.950 . S
H1194 C1190 0.950 . S
C1195 C1193 1.390 1_654 S
C1195 C1196 1.387 . S
C1195 H1198 0.950 . S
C1196 C1195 1.387 . S
C1196 C1199 1.387 1_565 S
H1197 C1193 0.950 . S
H1198 C1195 0.950 . S
C1199 C1190 1.390 1_654 S
C1199 H1192 0.950 . S
C1199 C1196 1.387 1_545 S
C1200 C1201 1.387 . S
C1200 H1204 0.950 . S
C1200 C1209 1.390 . S
C1201 C1200 1.387 . S
C1201 C1203 1.387 . S
H1202 C1209 0.950 . S
C1203 C1201 1.387 . S
C1203 C1205 1.390 . S
C1203 H1207 0.950 . S
H1204 C1200 0.950 . S
C1205 C1203 1.390 . S
C1205 C1206 1.387 . S
C1205 H1208 0.950 . S
C1206 C1205 1.387 . S
C1206 C1209 1.387 . S
H1207 C1203 0.950 . S
H1208 C1205 0.950 . S
C1209 C1200 1.390 . S
C1209 H1202 0.950 . S
C1209 C1206 1.387 . S
C1210 C1211 1.387 . S
C1210 H1214 0.950 . S
C1210 C1219 1.390 . S
C1211 C1210 1.387 . S
C1211 C1213 1.387 . S
H1212 C1219 0.950 . S
C1213 C1211 1.387 . S
C1213 C1215 1.390 . S
C1213 H1217 0.950 . S
H1214 C1210 0.950 . S
C1215 C1213 1.390 . S
C1215 C1216 1.387 . S
C1215 H1218 0.950 . S
C1216 C1215 1.387 . S
C1216 C1219 1.387 . S
H1217 C1213 0.950 . S
H1218 C1215 0.950 . S
C1219 C1210 1.390 . S
C1219 H1212 0.950 . S
C1219 C1216 1.387 . S
C1220 C1221 1.387 . S
C1220 H1224 0.950 . S
C1220 C1229 1.390 . S
C1221 C1220 1.387 . S
C1221 C1223 1.387 . S
H1222 C1229 0.950 . S
C1223 C1221 1.387 . S
C1223 C1225 1.390 . S
C1223 H1227 0.950 . S
H1224 C1220 0.950 . S
C1225 C1223 1.390 . S
C1225 C1226 1.387 . S
C1225 H1228 0.950 . S
C1226 C1225 1.387 . S
C1226 C1229 1.387 . S
H1227 C1223 0.950 . S
H1228 C1225 0.950 . S
C1229 C1220 1.390 . S
C1229 H1222 0.950 . S
C1229 C1226 1.387 . S
C1230 C1231 1.387 . S
C1230 H1234 0.950 . S
C1230 C1239 1.390 . S
C1231 C1230 1.387 . S
C1231 C1233 1.387 . S
H1232 C1239 0.950 . S
C1233 C1231 1.387 . S
C1233 C1235 1.390 . S
C1233 H1237 0.950 . S
H1234 C1230 0.950 . S
C1235 C1233 1.390 . S
C1235 C1236 1.387 . S
C1235 H1238 0.950 . S
C1236 C1235 1.387 . S
C1236 C1239 1.387 . S
H1237 C1233 0.950 . S
H1238 C1235 0.950 . S
C1239 C1230 1.390 . S
C1239 H1232 0.950 . S
C1239 C1236 1.387 . S
C1240 C1241 1.387 . S
C1240 H1244 0.950 . S
C1240 C1249 1.390 1_554 S
C1241 C1240 1.387 . S
C1241 C1243 1.387 . S
H1242 C1249 0.950 . S
C1243 C1241 1.387 . S
C1243 C1245 1.390 1_554 S
C1243 H1247 0.950 . S
H1244 C1240 0.950 . S
C1245 C1243 1.390 1_556 S
C1245 C1246 1.387 . S
C1245 H1248 0.950 . S
C1246 C1245 1.387 . S
C1246 C1249 1.387 . S
H1247 C1243 0.950 . S
H1248 C1245 0.950 . S
C1249 C1240 1.390 1_556 S
C1249 H1242 0.950 . S
C1249 C1246 1.387 . S
C1250 C1251 1.387 . S
C1250 H1254 0.950 . S
C1250 C1259 1.390 1_655 S
C1251 C1250 1.387 . S
C1251 C1253 1.387 . S
H1252 C1259 0.950 . S
C1253 C1251 1.387 . S
C1253 C1255 1.390 1_655 S
C1253 H1257 0.950 . S
H1254 C1250 0.950 . S
C1255 C1253 1.390 1_455 S
C1255 C1256 1.387 . S
C1255 H1258 0.950 . S
C1256 C1255 1.387 . S
C1256 C1259 1.387 . S
H1257 C1253 0.950 . S
H1258 C1255 0.950 . S
C1259 C1250 1.390 1_455 S
C1259 H1252 0.950 . S
C1259 C1256 1.387 . S
C1260 C1261 1.387 . S
C1260 H1264 0.950 . S
C1260 C1269 1.390 1_454 S
C1261 C1260 1.387 . S
C1261 C1263 1.387 . S
H1262 C1269 0.950 . S
C1263 C1261 1.387 . S
C1263 C1265 1.390 1_454 S
C1263 H1267 0.950 . S
H1264 C1260 0.950 . S
C1265 C1263 1.390 1_656 S
C1265 C1266 1.387 . S
C1265 H1268 0.950 . S
C1266 C1265 1.387 . S
C1266 C1269 1.387 . S
H1267 C1263 0.950 . S
H1268 C1265 0.950 . S
C1269 C1260 1.390 1_656 S
C1269 H1262 0.950 . S
C1269 C1266 1.387 . S
C1270 C1271 1.387 . S
C1270 H1274 0.950 . S
C1270 C1279 1.390 . S
C1271 C1270 1.387 . S
C1271 C1273 1.387 . S
H1272 C1279 0.950 . S
C1273 C1271 1.387 . S
C1273 C1275 1.390 . S
C1273 H1277 0.950 . S
H1274 C1270 0.950 . S
C1275 C1273 1.390 . S
C1275 C1276 1.387 . S
C1275 H1278 0.950 . S
C1276 C1275 1.387 . S
C1276 C1279 1.387 . S
H1277 C1273 0.950 . S
H1278 C1275 0.950 . S
C1279 C1270 1.390 . S
C1279 H1272 0.950 . S
C1279 C1276 1.387 . S
C1280 C1281 1.387 . S
C1280 H1284 0.950 . S
C1280 C1289 1.390 . S
C1281 C1280 1.387 . S
C1281 C1283 1.387 . S
H1282 C1289 0.950 . S
C1283 C1281 1.387 . S
C1283 C1285 1.390 . S
C1283 H1287 0.950 . S
H1284 C1280 0.950 . S
C1285 C1283 1.390 . S
C1285 C1286 1.387 . S
C1285 H1288 0.950 1_545 S
C1286 C1285 1.387 . S
C1286 C1289 1.387 . S
H1287 C1283 0.950 . S
H1288 C1285 0.950 1_565 S
C1289 C1280 1.390 . S
C1289 H1282 0.950 . S
C1289 C1286 1.387 . S
C1290 C1291 1.387 . S
C1290 H1294 0.950 . S
C1290 C1299 1.390 . S
C1291 C1290 1.387 . S
C1291 C1293 1.387 . S
H1292 C1299 0.950 . S
C1293 C1291 1.387 . S
C1293 C1295 1.390 . S
C1293 H1297 0.950 . S
H1294 C1290 0.950 . S
C1295 C1293 1.390 . S
C1295 C1296 1.387 . S
C1295 H1298 0.950 1_545 S
C1296 C1295 1.387 . S
C1296 C1299 1.387 . S
H1297 C1293 0.950 . S
H1298 C1295 0.950 1_565 S
C1299 C1290 1.390 . S
C1299 H1292 0.950 . S
C1299 C1296 1.387 . S
C1300 C1301 1.387 . S
C1300 H1304 0.950 . S
C1300 C1309 1.390 . S
C1301 C1300 1.387 . S
C1301 C1303 1.387 . S
H1302 C1309 0.950 . S
C1303 C1301 1.387 . S
C1303 C1305 1.390 . S
C1303 H1307 0.950 . S
H1304 C1300 0.950 . S
C1305 C1303 1.390 . S
C1305 C1306 1.387 . S
C1305 H1308 0.950 . S
C1306 C1305 1.387 . S
C1306 C1309 1.387 . S
H1307 C1303 0.950 . S
H1308 C1305 0.950 . S
C1309 C1300 1.390 . S
C1309 H1302 0.950 . S
C1309 C1306 1.387 . S
C1310 C1311 1.387 . S
C1310 H1314 0.950 . S
C1310 C1319 1.390 . S
C1311 C1310 1.387 . S
C1311 C1313 1.387 . S
H1312 C1319 0.950 . S
C1313 C1311 1.387 . S
C1313 C1315 1.390 . S
C1313 H1317 0.950 . S
H1314 C1310 0.950 . S
C1315 C1313 1.390 . S
C1315 C1316 1.387 . S
C1315 H1318 0.950 . S
C1316 C1315 1.387 . S
C1316 C1319 1.387 . S
H1317 C1313 0.950 . S
H1318 C1315 0.950 . S
C1319 C1310 1.390 . S
C1319 H1312 0.950 . S
C1319 C1316 1.387 . S
C1320 C1321 1.387 . S
C1320 H1324 0.950 . S
C1320 C1329 1.390 . S
C1321 C1320 1.387 . S
C1321 C1323 1.387 . S
H1322 C1329 0.950 . S
C1323 C1321 1.387 . S
C1323 C1325 1.390 . S
C1323 H1327 0.950 . S
H1324 C1320 0.950 . S
C1325 C1323 1.390 . S
C1325 C1326 1.387 . S
C1325 H1328 0.950 . S
C1326 C1325 1.387 . S
C1326 C1329 1.387 . S
H1327 C1323 0.950 . S
H1328 C1325 0.950 . S
C1329 C1320 1.390 . S
C1329 H1322 0.950 . S
C1329 C1326 1.387 . S
C1330 C1331 1.387 . S
C1330 H1334 0.972 . S
C1330 C1339 1.390 . S
C1331 C1330 1.387 . S
C1331 C1333 1.387 . S
H1332 C1339 0.950 . S
C1333 C1331 1.387 . S
C1333 C1335 1.390 . S
C1333 H1337 0.950 . S
H1334 C1330 0.972 . S
C1335 C1333 1.390 . S
C1335 C1336 1.387 . S
C1335 H1338 0.950 . S
C1336 C1335 1.387 . S
C1336 C1339 1.387 . S
H1337 C1333 0.950 . S
H1338 C1335 0.950 . S
C1339 C1330 1.390 . S
C1339 H1332 0.950 . S
C1339 C1336 1.387 . S
C1340 C1341 1.387 . S
C1340 H1344 0.950 . S
C1340 C1349 1.390 . S
C1341 C1340 1.387 . S
C1341 C1343 1.387 . S
H1342 C1349 0.950 . S
C1343 C1341 1.387 . S
C1343 C1345 1.390 . S
C1343 H1347 0.950 1_545 S
H1344 C1340 0.950 . S
C1345 C1343 1.390 . S
C1345 C1346 1.387 . S
C1345 H1348 0.950 . S
C1346 C1345 1.387 . S
C1346 C1349 1.387 . S
H1347 C1343 0.950 1_565 S
H1348 C1345 0.950 . S
C1349 C1340 1.390 . S
C1349 H1342 0.950 . S
C1349 C1346 1.387 . S
C1350 C1351 1.387 . S
C1350 H1354 0.950 . S
C1350 C1359 1.390 . S
C1351 C1350 1.387 . S
C1351 C1353 1.387 . S
H1352 C1359 0.950 . S
C1353 C1351 1.387 . S
C1353 C1355 1.390 . S
C1353 H1357 0.950 . S
H1354 C1350 0.950 . S
C1355 C1353 1.390 . S
C1355 C1356 1.387 . S
C1355 H1358 0.950 . S
C1356 C1355 1.387 . S
C1356 C1359 1.387 . S
H1357 C1353 0.950 . S
H1358 C1355 0.950 . S
C1359 C1350 1.390 . S
C1359 H1352 0.950 . S
C1359 C1356 1.387 . S
C1360 C1361 1.387 . S
C1360 H1364 0.950 . S
C1360 C1369 1.390 . S
C1361 C1360 1.387 . S
C1361 C1363 1.387 . S
H1362 C1369 0.950 . S
C1363 C1361 1.387 . S
C1363 C1365 1.390 . S
C1363 H1367 0.950 . S
H1364 C1360 0.950 . S
C1365 C1363 1.390 . S
C1365 C1366 1.387 . S
C1365 H1368 0.950 . S
C1366 C1365 1.387 . S
C1366 C1369 1.387 . S
H1367 C1363 0.950 . S
H1368 C1365 0.950 . S
C1369 C1360 1.390 . S
C1369 H1362 0.950 . S
C1369 C1366 1.387 . S
C1370 C1371 1.387 . S
C1370 H1374 0.950 . S
C1370 C1379 1.390 . S
C1371 C1370 1.387 . S
C1371 C1373 1.387 . S
H1372 C1379 0.950 . S
C1373 C1371 1.387 . S
C1373 C1375 1.390 . S
C1373 H1377 0.950 . S
H1374 C1370 0.950 . S
C1375 C1373 1.390 . S
C1375 C1376 1.387 . S
C1375 H1378 0.950 . S
C1376 C1375 1.387 . S
C1376 C1379 1.387 . S
H1377 C1373 0.950 . S
H1378 C1375 0.950 . S
C1379 C1370 1.390 . S
C1379 H1372 0.950 . S
C1379 C1376 1.387 . S
C1380 C1381 1.387 . S
C1380 H1384 0.950 . S
C1380 C1389 1.390 . S
C1381 C1380 1.387 . S
C1381 C1383 1.387 . S
H1382 C1389 0.950 . S
C1383 C1381 1.387 . S
C1383 C1385 1.390 . S
C1383 H1387 0.950 . S
H1384 C1380 0.950 . S
C1385 C1383 1.390 . S
C1385 C1386 1.387 . S
C1385 H1388 0.950 . S
C1386 C1385 1.387 . S
C1386 C1389 1.387 . S
H1387 C1383 0.950 . S
H1388 C1385 0.950 . S
C1389 C1380 1.390 . S
C1389 H1382 0.950 . S
C1389 C1386 1.387 . S
C1390 C1391 1.387 . S
C1390 H1394 0.950 . S
C1390 C1399 1.390 . S
C1391 C1390 1.387 . S
C1391 C1393 1.387 . S
H1392 C1399 0.950 . S
C1393 C1391 1.387 . S
C1393 C1395 1.390 . S
C1393 H1397 0.950 . S
H1394 C1390 0.950 . S
C1395 C1393 1.390 . S
C1395 C1396 1.387 . S
C1395 H1398 0.950 . S
C1396 C1395 1.387 . S
C1396 C1399 1.387 . S
H1397 C1393 0.950 . S
H1398 C1395 0.950 . S
C1399 C1390 1.390 . S
C1399 H1392 0.950 . S
C1399 C1396 1.387 . S
C1400 C1401 1.387 . S
C1400 H1404 0.950 . S
C1400 C1409 1.390 . S
C1401 C1400 1.387 . S
C1401 C1403 1.387 . S
H1402 C1409 0.950 . S
C1403 C1401 1.387 . S
C1403 C1405 1.390 . S
C1403 H1407 0.950 . S
H1404 C1400 0.950 . S
C1405 C1403 1.390 . S
C1405 C1406 1.387 . S
C1405 H1408 0.950 . S
C1406 C1405 1.387 . S
C1406 C1409 1.387 . S
H1407 C1403 0.950 . S
H1408 C1405 0.950 . S
C1409 C1400 1.390 . S
C1409 H1402 0.950 . S
C1409 C1406 1.387 . S
C1410 C1411 1.387 . S
C1410 H1414 0.950 . S
C1410 C1419 1.390 . S
C1411 C1410 1.387 . S
C1411 C1413 1.387 . S
H1412 C1419 0.950 . S
C1413 C1411 1.387 . S
C1413 C1415 1.390 . S
C1413 H1417 0.950 . S
H1414 C1410 0.950 . S
C1415 C1413 1.390 . S
C1415 C1416 1.387 . S
C1415 H1418 0.950 . S
C1416 C1415 1.387 . S
C1416 C1419 1.387 . S
H1417 C1413 0.950 . S
H1418 C1415 0.950 . S
C1419 C1410 1.390 . S
C1419 H1412 0.950 . S
C1419 C1416 1.387 . S
C1420 C1421 1.387 . S
C1420 H1424 0.950 . S
C1420 C1429 1.390 . S
C1421 C1420 1.387 . S
C1421 C1423 1.387 . S
H1422 C1429 0.950 . S
C1423 C1421 1.387 . S
C1423 C1425 1.390 . S
C1423 H1427 0.950 . S
H1424 C1420 0.950 . S
C1425 C1423 1.390 . S
C1425 C1426 1.387 . S
C1425 H1428 0.950 . S
C1426 C1425 1.387 . S
C1426 C1429 1.387 . S
H1427 C1423 0.950 . S
H1428 C1425 0.950 . S
C1429 C1420 1.390 . S
C1429 H1422 0.950 . S
C1429 C1426 1.387 . S
C1430 C1431 1.387 . S
C1430 H1434 0.950 . S
C1430 C1439 1.390 . S
C1431 C1430 1.387 . S
C1431 C1433 1.387 . S
H1432 C1439 0.950 . S
C1433 C1431 1.387 . S
C1433 C1435 1.390 . S
C1433 H1437 0.950 . S
H1434 C1430 0.950 . S
C1435 C1433 1.390 . S
C1435 C1436 1.387 . S
C1435 H1438 0.950 . S
C1436 C1435 1.387 . S
C1436 C1439 1.387 . S
H1437 C1433 0.950 . S
H1438 C1435 0.950 . S
C1439 C1430 1.390 . S
C1439 H1432 0.950 . S
C1439 C1436 1.387 . S
C1440 C1441 1.387 . S
C1440 H1444 0.950 . S
C1440 C1449 1.390 1_545 S
C1441 C1440 1.387 . S
C1441 C1443 1.387 . S
H1442 C1449 0.950 . S
C1443 C1441 1.387 . S
C1443 C1445 1.390 1_545 S
C1443 H1447 0.950 . S
H1444 C1440 0.950 . S
C1445 C1443 1.390 1_565 S
C1445 C1446 1.387 . S
C1445 H1448 0.950 . S
C1446 C1445 1.387 . S
C1446 C1449 1.387 . S
H1447 C1443 0.950 . S
H1448 C1445 0.950 . S
C1449 C1440 1.390 1_565 S
C1449 H1442 0.950 . S
C1449 C1446 1.387 . S
C1450 C1451 1.387 . S
C1450 H1454 0.950 . S
C1450 C1459 1.390 . S
C1451 C1450 1.387 . S
C1451 C1453 1.387 . S
H1452 C1459 0.950 . S
C1453 C1451 1.387 . S
C1453 C1455 1.390 . S
C1453 H1457 0.950 1_565 S
H1454 C1450 0.950 . S
C1455 C1453 1.390 . S
C1455 C1456 1.387 . S
C1455 H1458 0.950 1_565 S
C1456 C1455 1.387 . S
C1456 C1459 1.387 . S
H1457 C1453 0.950 1_545 S
H1458 C1455 0.950 1_545 S
C1459 C1450 1.390 . S
C1459 H1452 0.950 . S
C1459 C1456 1.387 . S
C1460 C1461 1.387 . S
C1460 H1464 0.950 . S
C1460 C1469 1.390 1_545 S
C1461 C1460 1.387 . S
C1461 C1463 1.387 . S
H1462 C1469 0.950 . S
C1463 C1461 1.387 . S
C1463 C1465 1.390 1_545 S
C1463 H1467 0.950 . S
H1464 C1460 0.950 . S
C1465 C1463 1.390 1_565 S
C1465 C1466 1.387 . S
C1465 H1468 0.950 . S
C1466 C1465 1.387 . S
C1466 C1469 1.387 . S
H1467 C1463 0.950 . S
H1468 C1465 0.950 . S
C1469 C1460 1.390 1_565 S
C1469 H1462 0.950 . S
C1469 C1466 1.387 . S
C1470 C1471 1.387 . S
C1470 H1474 0.950 1_545 S
C1470 C1479 1.390 1_556 S
C1471 C1470 1.387 . S
C1471 C1473 1.387 . S
H1472 C1479 0.950 1_565 S
C1473 C1471 1.387 . S
C1473 C1475 1.390 1_556 S
C1473 H1477 0.950 . S
H1474 C1470 0.950 1_565 S
C1475 C1473 1.390 1_554 S
C1475 C1476 1.387 . S
C1475 H1478 0.950 . S
C1476 C1475 1.387 . S
C1476 C1479 1.387 . S
H1477 C1473 0.950 . S
H1478 C1475 0.950 . S
C1479 C1470 1.390 1_554 S
C1479 H1472 0.950 1_545 S
C1479 C1476 1.387 . S
C1480 C1481 1.387 . S
C1480 H1484 0.950 . S
C1480 C1489 1.390 1_565 S
C1481 C1480 1.387 . S
C1481 C1483 1.387 . S
H1482 C1489 0.950 . S
C1483 C1481 1.387 . S
C1483 C1485 1.390 1_565 S
C1483 H1487 0.950 . S
H1484 C1480 0.950 . S
C1485 C1483 1.390 1_545 S
C1485 C1486 1.387 . S
C1485 H1488 0.950 . S
C1486 C1485 1.387 . S
C1486 C1489 1.387 . S
H1487 C1483 0.950 . S
H1488 C1485 0.950 . S
C1489 C1480 1.390 1_545 S
C1489 H1482 0.950 . S
C1489 C1486 1.387 . S
C1490 C1491 1.387 . S
C1490 H1494 0.950 . S
C1490 C1499 1.390 . S
C1491 C1490 1.387 . S
C1491 C1493 1.387 . S
H1492 C1499 0.950 . S
C1493 C1491 1.387 . S
C1493 C1495 1.390 . S
C1493 H1497 0.950 1_545 S
H1494 C1490 0.950 . S
C1495 C1493 1.390 . S
C1495 C1496 1.387 . S
C1495 H1498 0.950 1_545 S
C1496 C1495 1.387 . S
C1496 C1499 1.387 . S
H1497 C1493 0.950 1_565 S
H1498 C1495 0.950 1_565 S
C1499 C1490 1.390 . S
C1499 H1492 0.950 . S
C1499 C1496 1.387 . S
C1500 C1501 1.387 . S
C1500 H1504 0.950 . S
C1500 C1509 1.390 1_565 S
C1501 C1500 1.387 . S
C1501 C1503 1.387 . S
H1502 C1509 0.950 . S
C1503 C1501 1.387 . S
C1503 C1505 1.390 1_565 S
C1503 H1507 0.950 . S
H1504 C1500 0.950 . S
C1505 C1503 1.390 1_545 S
C1505 C1506 1.387 . S
C1505 H1508 0.950 . S
C1506 C1505 1.387 . S
C1506 C1509 1.387 . S
H1507 C1503 0.950 . S
H1508 C1505 0.950 . S
C1509 C1500 1.390 1_545 S
C1509 H1502 0.950 . S
C1509 C1506 1.387 . S
C1510 C1511 1.387 . S
C1510 H1514 0.950 1_565 S
C1510 C1519 1.390 1_554 S
C1511 C1510 1.387 . S
C1511 C1513 1.387 . S
H1512 C1519 0.950 1_545 S
C1513 C1511 1.387 . S
C1513 C1515 1.390 1_554 S
C1513 H1517 0.950 . S
H1514 C1510 0.950 1_545 S
C1515 C1513 1.390 1_556 S
C1515 C1516 1.387 . S
C1515 H1518 0.950 . S
C1516 C1515 1.387 . S
C1516 C1519 1.387 . S
H1517 C1513 0.950 . S
H1518 C1515 0.950 . S
C1519 C1510 1.390 1_556 S
C1519 H1512 0.950 1_565 S
C1519 C1516 1.387 . S
C1520 C1521 1.387 . S
C1520 H1524 0.950 . S
C1520 C1529 1.390 . S
C1521 C1520 1.387 . S
C1521 C1523 1.387 . S
H1522 C1529 0.950 . S
C1523 C1521 1.387 . S
C1523 C1525 1.390 . S
C1523 H1527 0.950 . S
H1524 C1520 0.950 . S
C1525 C1523 1.390 . S
C1525 C1526 1.387 . S
C1525 H1528 0.950 . S
C1526 C1525 1.387 . S
C1526 C1529 1.387 . S
H1527 C1523 0.950 . S
H1528 C1525 0.950 . S
C1529 C1520 1.390 . S
C1529 H1522 0.950 . S
C1529 C1526 1.387 . S
C1530 C1531 1.387 . S
C1530 H1534 0.950 . S
C1530 C1539 1.390 1_556 S
C1531 C1530 1.387 . S
C1531 C1533 1.387 . S
H1532 C1539 0.950 . S
C1533 C1531 1.387 . S
C1533 C1535 1.390 1_556 S
C1533 H1537 0.950 . S
H1534 C1530 0.950 . S
C1535 C1533 1.390 1_554 S
C1535 C1536 1.387 . S
C1535 H1538 0.950 . S
C1536 C1535 1.387 . S
C1536 C1539 1.387 . S
H1537 C1533 0.950 . S
H1538 C1535 0.950 . S
C1539 C1530 1.390 1_554 S
C1539 H1532 0.950 . S
C1539 C1536 1.387 . S
C1540 C1541 1.387 . S
C1540 H1544 0.950 . S
C1540 C1549 1.390 . S
C1541 C1540 1.387 . S
C1541 C1543 1.387 . S
H1542 C1549 0.950 . S
C1543 C1541 1.387 . S
C1543 C1545 1.390 . S
C1543 H1547 0.950 . S
H1544 C1540 0.950 . S
C1545 C1543 1.390 . S
C1545 C1546 1.387 . S
C1545 H1548 0.950 . S
C1546 C1545 1.387 . S
C1546 C1549 1.387 . S
H1547 C1543 0.950 . S
H1548 C1545 0.950 . S
C1549 C1540 1.390 . S
C1549 H1542 0.950 . S
C1549 C1546 1.387 . S
C1550 C1551 1.387 . S
C1550 H1554 0.950 . S
C1550 C1559 1.390 . S
C1551 C1550 1.387 . S
C1551 C1553 1.387 . S
H1552 C1559 0.950 . S
C1553 C1551 1.387 . S
C1553 C1555 1.390 . S
C1553 H1557 0.950 . S
H1554 C1550 0.950 . S
C1555 C1553 1.390 . S
C1555 C1556 1.387 . S
C1555 H1558 0.950 . S
C1556 C1555 1.387 . S
C1556 C1559 1.387 . S
H1557 C1553 0.950 . S
H1558 C1555 0.950 . S
C1559 C1550 1.390 . S
C1559 H1552 0.950 . S
C1559 C1556 1.387 . S
C1560 C1561 1.387 . S
C1560 H1564 0.950 . S
C1560 C1569 1.390 . S
C1561 C1560 1.387 . S
C1561 C1563 1.387 . S
H1562 C1569 0.950 . S
C1563 C1561 1.387 . S
C1563 C1565 1.390 . S
C1563 H1567 0.950 . S
H1564 C1560 0.950 . S
C1565 C1563 1.390 . S
C1565 C1566 1.387 . S
C1565 H1568 0.950 . S
C1566 C1565 1.387 . S
C1566 C1569 1.387 . S
H1567 C1563 0.950 . S
H1568 C1565 0.950 . S
C1569 C1560 1.390 . S
C1569 H1562 0.950 . S
C1569 C1566 1.387 . S
C1570 C1571 1.387 . S
C1570 H1574 0.950 . S
C1570 C1579 1.390 1_556 S
C1571 C1570 1.387 . S
C1571 C1573 1.387 . S
H1572 C1579 0.950 . S
C1573 C1571 1.387 . S
C1573 C1575 1.390 1_556 S
C1573 H1577 0.950 . S
H1574 C1570 0.950 . S
C1575 C1573 1.390 1_554 S
C1575 C1576 1.387 . S
C1575 H1578 0.950 . S
C1576 C1575 1.387 . S
C1576 C1579 1.387 . S
H1577 C1573 0.950 . S
H1578 C1575 0.950 . S
C1579 C1570 1.390 1_554 S
C1579 H1572 0.950 . S
C1579 C1576 1.387 . S
C1580 C1581 1.387 . S
C1580 H1584 0.950 . S
C1580 C1589 1.390 . S
C1581 C1580 1.387 . S
C1581 C1583 1.387 . S
H1582 C1589 0.950 . S
C1583 C1581 1.387 . S
C1583 C1585 1.390 . S
C1583 H1587 0.950 . S
H1584 C1580 0.950 . S
C1585 C1583 1.390 . S
C1585 C1586 1.387 . S
C1585 H1588 0.950 . S
C1586 C1585 1.387 . S
C1586 C1589 1.387 . S
H1587 C1583 0.950 . S
H1588 C1585 0.950 . S
C1589 C1580 1.390 . S
C1589 H1582 0.950 . S
C1589 C1586 1.387 . S
C1590 C1591 1.387 . S
C1590 H1594 0.950 . S
C1590 C1599 1.390 . S
C1591 C1590 1.387 . S
C1591 C1593 1.387 . S
H1592 C1599 0.950 . S
C1593 C1591 1.387 . S
C1593 C1595 1.390 . S
C1593 H1597 0.950 . S
H1594 C1590 0.950 . S
C1595 C1593 1.390 . S
C1595 C1596 1.387 . S
C1595 H1598 0.950 . S
C1596 C1595 1.387 . S
C1596 C1599 1.387 . S
H1597 C1593 0.950 . S
H1598 C1595 0.950 . S
C1599 C1590 1.390 . S
C1599 H1592 0.950 . S
C1599 C1596 1.387 . S
C641 C2 0.772 . S
C646 C559 0.772 . S
C651 C22 0.773 . S
C656 C179 0.770 . S
C661 C42 0.769 . S
C666 C519 0.767 . S
C671 C219 0.773 . S
C676 C62 0.773 . S
C681 C82 0.773 . S
C686 C599 0.773 . S
C691 C299 0.770 . S
C696 C102 0.770 . S
C701 C639 0.771 . S
C706 C122 0.771 . S
C711 C142 0.770 . S
C716 C259 0.770 . S
C721 C161 0.773 . S
C726 C398 0.773 . S
C731 C181 0.769 . S
C736 C18 0.770 . S
C741 C358 0.773 . S
C746 C201 0.773 . S
C751 C58 0.772 . S
C756 C221 0.771 . S
C761 C241 0.773 . S
C766 C438 0.773 . S
C771 C261 0.771 . S
C776 C138 0.768 . S
C781 C281 0.772 . S
C786 C478 0.772 . S
C791 C98 0.768 . S
C796 C301 0.771 . S
C801 C239 0.773 . S
C806 C322 0.772 . S
C811 C499 0.771 . S
C816 C342 0.773 . S
C821 C199 0.766 . S
C826 C362 0.768 . S
C831 C382 0.768 . S
C836 C539 0.768 . S
C841 C279 0.773 . S
C846 C402 0.773 . S
C851 C619 0.769 . S
C856 C422 0.772 . S
C861 C319 0.766 . S
C866 C442 0.768 . S
C871 C462 0.773 . S
C876 C579 0.770 . S
C881 C481 0.769 . S
C886 C78 0.766 . S
C891 C501 0.769 . S
C896 C338 0.770 . S
C901 C521 0.768 . S
C906 C38 0.766 . S
C911 C541 0.769 . S
C916 C378 0.769 . S
C921 C118 0.766 . S
C926 C561 0.769 . S
C931 C458 0.769 . S
C936 C581 0.772 . S
C941 C601 0.770 . S
C946 C158 0.767 . S
C951 C621 0.772 . S
C956 C418 0.772 . S
C961 C9 1.605 . S
C966 C369 1.605 . S
C971 C389 1.605 . S
C976 C29 1.605 . S
C981 C49 1.608 . S
C986 C329 1.608 . S
C991 C69 1.605 . S
C996 C349 1.605 . S
C1001 C449 1.609 . S
C1006 C89 1.609 . S
C1011 C109 1.605 . S
C1016 C469 1.605 . S
C1021 C409 1.608 . S
C1026 C129 1.608 . S
C1031 C149 1.608 . S
C1036 C429 1.608 . S
C1041 C528 1.609 . S
C1046 C168 1.609 . S
C1051 C188 1.605 . S
C1056 C548 1.605 . S
C1061 C208 1.608 . S
C1066 C488 1.608 . S
C1071 C228 1.605 . S
C1076 C508 1.605 . S
C1081 C608 1.605 . S
C1086 C248 1.605 . S
C1091 C628 1.605 . S
C1096 C268 1.605 . S
C1101 C288 1.605 . S
C1106 C568 1.605 . S
C1111 C308 1.605 . S
C1116 C588 1.605 . S
C1121 C19 1.888 . S
C1126 C498 1.888 . S
C1131 C198 1.887 . S
C1136 C39 1.887 . S
C1141 C59 1.888 . S
C1146 C538 1.888 . S
C1151 C79 1.888 . S
C1156 C238 1.888 . S
C1161 C578 1.888 . S
C1166 C99 1.888 . S
C1171 C278 1.888 . S
C1176 C119 1.888 . S
C1181 C139 1.887 . S
C1186 C618 1.887 . S
C1191 C159 1.888 . S
C1196 C318 1.888 . S
C1201 C339 1.887 . S
C1206 C178 1.887 . S
C1211 C379 1.888 . S
C1216 C218 1.888 . S
C1221 C419 1.888 . S
C1226 C258 1.888 . S
C1231 C298 1.888 . S
C1236 C459 1.888 . S
C1241 C359 1.888 . S
C1246 C518 1.888 . S
C1251 C399 1.887 . S
C1256 C558 1.887 . S
C1261 C598 1.887 . S
C1266 C439 1.887 . S
C1271 C638 1.888 . S
C1276 C479 1.888 . S
C1281 C8 2.781 . S
C1286 C108 2.781 . S
C1291 C128 2.781 . S
C1296 C28 2.782 . S
C1301 C148 2.782 . S
C1306 C48 2.782 . S
C1311 C88 2.781 . S
C1316 C68 2.780 . S
C1321 C169 2.781 . S
C1326 C269 2.781 . S
C1331 C189 2.781 . S
C1336 C289 2.781 . S
C1341 C309 2.779 . S
C1346 C209 2.780 . S
C1351 C229 2.781 . S
C1356 C249 2.782 . S
C1361 C328 2.781 . S
C1366 C428 2.781 . S
C1371 C348 2.782 . S
C1376 C448 2.781 . S
C1381 C368 2.781 . S
C1386 C468 2.782 . S
C1391 C408 2.779 . S
C1396 C388 2.779 . S
C1401 C489 2.781 . S
C1406 C589 2.781 . S
C1411 C509 2.782 . S
C1416 C609 2.781 . S
C1421 C629 2.782 . S
C1426 C529 2.781 . S
C1431 C549 2.780 . S
C1436 C569 2.780 . S
C1441 C1 1.422 . S
C1446 C81 1.422 . S
C1451 C21 1.419 . S
C1456 C101 1.419 . S
C1461 C121 1.419 . S
C1466 C41 1.419 . S
C1471 C141 1.422 . S
C1476 C61 1.422 . S
C1481 C162 1.419 . S
C1486 C242 1.419 . S
C1491 C262 1.422 . S
C1496 C182 1.422 . S
C1501 C282 1.422 . S
C1506 C202 1.422 . S
C1511 C302 1.419 . S
C1516 C222 1.419 . S
C1521 C321 1.419 . S
C1526 C401 1.419 . S
C1531 C421 1.422 . S
C1536 C341 1.422 . S
C1541 C361 1.419 . S
C1546 C441 1.419 . S
C1551 C461 1.422 . S
C1556 C381 1.422 . S
C1561 C562 1.419 . S
C1566 C482 1.419 . S
C1571 C502 1.422 . S
C1576 C582 1.422 . S
C1581 C522 1.422 . S
C1586 C602 1.422 . S
C1591 C542 1.422 . S
C1596 C622 1.422 . S
