# Generated by pormake.
# Topology afw, (4)-cn, num edge types: 1
# Building blocks:
#     Node 0, Type 0, BuildingBlock: AZAVOO_clean_sbu_0, # of connection points: 4
#     Node 1, Type 0, BuildingBlock: AZAVOO_clean_sbu_0, # of connection points: 4
#     Node 2, Type 0, BuildingBlock: AZAVOO_clean_sbu_0, # of connection points: 4
#     Node 3, Type 0, BuildingBlock: AZAVOO_clean_sbu_0, # of connection points: 4
#     Node 4, Type 0, BuildingBlock: AZAVOO_clean_sbu_0, # of connection points: 4
#     Node 5, Type 0, BuildingBlock: AZAVOO_clean_sbu_0, # of connection points: 4
#     Node 6, Type 0, BuildingBlock: AZAVOO_clean_sbu_0, # of connection points: 4
#     Node 7, Type 0, BuildingBlock: AZAVOO_clean_sbu_0, # of connection points: 4
#     Node 8, Type 0, BuildingBlock: AZAVOO_clean_sbu_0, # of connection points: 4
#     Edge 9, Type (0, 0), BuildingBlock: FUNLAD_clean_linker_1, # of connection points: 2
#     Edge 10, Type (0, 0), BuildingBlock: FUNLAD_clean_linker_1, # of connection points: 2
#     Edge 11, Type (0, 0), BuildingBlock: FUNLAD_clean_linker_1, # of connection points: 2
#     Edge 12, Type (0, 0), BuildingBlock: FUNLAD_clean_linker_1, # of connection points: 2
#     Edge 13, Type (0, 0), BuildingBlock: FUNLAD_clean_linker_1, # of connection points: 2
#     Edge 14, Type (0, 0), BuildingBlock: FUNLAD_clean_linker_1, # of connection points: 2
#     Edge 15, Type (0, 0), BuildingBlock: FUNLAD_clean_linker_1, # of connection points: 2
#     Edge 16, Type (0, 0), BuildingBlock: FUNLAD_clean_linker_1, # of connection points: 2
#     Edge 17, Type (0, 0), BuildingBlock: FUNLAD_clean_linker_1, # of connection points: 2
#     Edge 18, Type (0, 0), BuildingBlock: FUNLAD_clean_linker_1, # of connection points: 2
#     Edge 19, Type (0, 0), BuildingBlock: FUNLAD_clean_linker_1, # of connection points: 2
#     Edge 20, Type (0, 0), BuildingBlock: FUNLAD_clean_linker_1, # of connection points: 2
#     Edge 21, Type (0, 0), BuildingBlock: FUNLAD_clean_linker_1, # of connection points: 2
#     Edge 22, Type (0, 0), BuildingBlock: FUNLAD_clean_linker_1, # of connection points: 2
#     Edge 23, Type (0, 0), BuildingBlock: FUNLAD_clean_linker_1, # of connection points: 2
#     Edge 24, Type (0, 0), BuildingBlock: FUNLAD_clean_linker_1, # of connection points: 2
#     Edge 25, Type (0, 0), BuildingBlock: FUNLAD_clean_linker_1, # of connection points: 2
#     Edge 26, Type (0, 0), BuildingBlock: FUNLAD_clean_linker_1, # of connection points: 2
# Relax obj value: 0.306
# Max RMSD: 0.282
# Mean RMSD: 0.260
data_MOF--net-afw--node1-AZAVOO_clean_sbu_0--edge1-FUNLAD_clean_linker_1
_symmetry_space_group_name_H-M    P1
_symmetry_Int_Tables_number       1
_symmetry_cell_setting            triclinic
loop_
_symmetry_equiv_pos_as_xyz
'x, y, z'
_cell_length_a     41.564663
_cell_length_b     39.558663
_cell_length_c     37.759141
_cell_angle_alpha  90.689683
_cell_angle_beta   90.701145
_cell_angle_gamma 120.05505
loop_
_atom_site_label
_atom_site_type_symbol
_atom_site_fract_x
_atom_site_fract_y
_atom_site_fract_z
_atom_type_partial_charge
Mg0 Mg 0.0624 0.28825 0.02458 0.0
O1 O 0.00957 0.22847 0.02526 0.0
O2 O 0.95969 0.23587 0.02667 0.0
Mg3 Mg 0.98139 0.30178 0.02881 0.0
C4 C 0.97449 0.21433 0.02572 0.0
C5 C 0.12329 0.2635 0.02379 0.0
O6 O 0.13719 0.28905 0.05019 0.0
O7 O 0.05037 0.29598 0.96745 0.0
O8 O 0.00281 0.30723 0.97211 0.0
O9 O 0.06562 0.29172 0.08385 0.0
O10 O 0.03528 0.31272 0.05041 0.0
C11 C 0.02691 0.30419 0.95381 0.0
C12 C 0.04415 0.30659 0.08138 0.0
O13 O 0.09388 0.25772 0.00782 0.0
Mg14 Mg 0.78741 0.83974 0.99437 0.0
O15 O 0.79752 0.90184 0.0011 0.0
O16 O 0.74302 0.90008 -0.00245 0.0
Mg17 Mg 0.69795 0.83636 0.98723 0.0
C18 C 0.77827 0.91878 0.00176 0.0
C19 C 0.86103 0.8406 0.00246 0.0
O20 O 0.84068 0.80869 0.98335 0.0
O21 O 0.76419 0.82391 0.04973 0.0
O22 O 0.70852 0.81936 0.04242 0.0
O23 O 0.79116 0.84517 0.93567 0.0
O24 O 0.73894 0.82252 0.96514 0.0
C25 C 0.73255 0.81626 0.06137 0.0
C26 C 0.75552 0.83091 0.93528 0.0
O27 O 0.84671 0.86065 0.01306 0.0
Mg28 Mg 0.2239 0.00472 0.02192 0.0
O29 O 0.22691 0.06267 0.00991 0.0
O30 O 0.28378 0.10585 0.99191 0.0
Mg31 Mg 0.31753 0.07461 0.99145 0.0
C32 C 0.25061 0.09663 -0.00051 0.0
C33 C 0.14707 0.99103 0.04527 0.0
O34 O 0.16921 0.02242 0.06429 0.0
O35 O 0.22109 0.98951 0.96321 0.0
O36 O 0.27972 0.03101 0.94815 0.0
O37 O 0.24529 0.02558 0.07713 0.0
O38 O 0.28096 0.03398 0.03125 0.0
C39 C 0.24693 0.00302 0.94058 0.0
C40 C 0.27823 0.03996 0.06425 0.0
O41 O 0.16096 0.97599 0.02498 0.0
Mg42 Mg 0.58277 0.53837 0.27824 0.0
O43 O 0.64177 0.54932 0.28743 0.0
O44 O 0.68095 0.61326 0.29645 0.0
Mg45 Mg 0.64589 0.64302 0.2948 0.0
C46 C 0.67441 0.57821 0.29338 0.0
C47 C 0.52577 0.45017 0.2891 0.0
O48 O 0.5028 0.46385 0.28795 0.0
O49 O 0.57798 0.54658 0.33703 0.0
O50 O 0.61649 0.6108 0.34523 0.0
O51 O 0.59452 0.54881 0.22087 0.0
O52 O 0.60451 0.59508 0.26039 0.0
C53 C 0.59348 0.57709 0.35692 0.0
C54 C 0.60782 0.58548 0.2285 0.0
O55 O 0.56035 0.47335 0.2854 0.0
Mg56 Mg 0.50233 0.10011 0.31994 0.0
O57 O 0.50377 0.1584 0.32793 0.0
O58 O 0.44556 0.14705 0.33175 0.0
Mg59 Mg 0.40704 0.08081 0.33002 0.0
C60 C 0.48059 0.1704 0.33094 0.0
C61 C 0.58458 0.1175 0.32051 0.0
O62 O 0.56858 0.08188 0.30703 0.0
O63 O 0.49127 0.08622 0.37822 0.0
O64 O 0.43281 0.0745 0.38195 0.0
O65 O 0.495 0.10467 0.26208 0.0
O66 O 0.44858 0.07488 0.29933 0.0
C67 C 0.46203 0.0768 0.39582 0.0
C68 C 0.4597 0.08748 0.26809 0.0
O69 O 0.56477 0.13228 0.32924 0.0
Mg70 Mg 0.91164 0.44765 0.30154 0.0
O71 O 0.85984 0.38753 0.30853 0.0
O72 O 0.87738 0.34482 0.32484 0.0
Mg73 Mg 0.94075 0.37768 0.32858 0.0
C74 C 0.85226 0.35326 0.31714 0.0
C75 C 0.84937 0.46294 0.27536 0.0
O76 O 0.84594 0.43634 0.25212 0.0
O77 O 0.91843 0.45629 0.36156 0.0
O78 O 0.93819 0.41454 0.37438 0.0
O79 O 0.91609 0.43179 0.24527 0.0
O80 O 0.94209 0.42024 0.29149 0.0
C81 C 0.9299 0.44037 0.38372 0.0
C82 C 0.9342 0.41587 0.25823 0.0
O83 O 0.87466 0.4748 0.29931 0.0
Mg84 Mg 0.38593 0.89382 0.70349 0.0
O85 O 0.33435 0.83861 0.68241 0.0
O86 O 0.29361 0.85506 0.66147 0.0
Mg87 Mg 0.31972 0.92138 0.66913 0.0
C88 C 0.30299 0.82959 0.66812 0.0
C89 C 0.45309 0.88065 0.70467 0.0
O90 O 0.46991 0.9189 0.70361 0.0
O91 O 0.40541 0.91364 0.64769 0.0
O92 O 0.36581 0.93302 0.62973 0.0
O93 O 0.35902 0.88529 0.75593 0.0
O94 O 0.35448 0.92035 0.71296 0.0
C95 C 0.39403 0.92887 0.62476 0.0
C96 C 0.34502 0.9058 0.74387 0.0
O97 O 0.4178 0.86103 0.70529 0.0
Mg98 Mg 0.12037 0.43718 0.62368 0.0
O99 O 0.14957 0.50238 0.63843 0.0
O100 O 0.10721 0.51684 0.658 0.0
Mg101 Mg 0.05078 0.46029 0.65618 0.0
C102 C 0.14061 0.52679 0.6503 0.0
C103 C 0.20235 0.46517 0.60331 0.0
O104 O 0.19595 0.48764 0.58256 0.0
O105 O 0.11498 0.42159 0.68145 0.0
O106 O 0.07015 0.43312 0.69921 0.0
O107 O 0.10995 0.45058 0.56938 0.0
O108 O 0.07126 0.43766 0.61371 0.0
C109 C 0.09319 0.42123 0.70502 0.0
C110 C 0.08 0.44844 0.58152 0.0
O111 O 0.17656 0.44071 0.62261 0.0
Mg112 Mg 0.542 0.59647 0.69739 0.0
O113 O 0.53184 0.64808 0.69259 0.0
O114 O 0.58645 0.70393 0.69454 0.0
Mg115 Mg 0.63167 0.68738 0.69845 0.0
C116 C 0.55098 0.68529 0.69243 0.0
C117 C 0.46108 0.52337 0.69355 0.0
O118 O 0.47437 0.51053 0.71838 0.0
O119 O 0.56017 0.60372 0.64048 0.0
O120 O 0.61506 0.65919 0.6426 0.0
O121 O 0.54021 0.60157 0.75564 0.0
O122 O 0.59168 0.63283 0.72464 0.0
C123 C 0.58922 0.62988 0.62557 0.0
C124 C 0.5751 0.62771 0.75444 0.0
O125 O 0.48206 0.55631 0.67992 0.0
H126 H 0.26235 0.15733 0.99488 0.0
C127 C 0.24044 0.12737 -0.00119 0.0
H128 H 0.18387 0.09003 0.01014 0.0
H129 H 0.1575 0.21177 0.09229 0.0
H130 H 0.15215 0.16762 0.13871 0.0
H131 H 0.16809 0.1162 0.12785 0.0
H132 H 0.18915 0.1084 0.07045 0.0
C133 C 0.20574 0.11976 0.00527 0.0
C134 C 0.19732 0.15172 0.01148 0.0
C135 C 0.18572 0.15634 0.04549 0.0
C136 C 0.17726 0.18648 0.05197 0.0
C137 C 0.16485 0.18978 0.08596 0.0
C138 C 0.16158 0.16458 0.1129 0.0
C139 C 0.1705 0.1356 0.10677 0.0
C140 C 0.18247 0.1314 0.07358 0.0
H141 H 0.12469 0.216 0.99419 0.0
C142 C 0.1392 0.23876 0.01436 0.0
H143 H 0.18334 0.26354 0.05207 0.0
H144 H 0.21528 0.14872 0.94228 0.0
H145 H 0.22355 0.19486 0.89667 0.0
H146 H 0.21407 0.25053 0.90944 0.0
H147 H 0.19546 0.25986 0.96773 0.0
C148 C 0.1693 0.24184 0.031 0.0
C149 C 0.18078 0.21222 0.02455 0.0
C150 C 0.19345 0.20834 0.99084 0.0
C151 C 0.20079 0.17742 0.98401 0.0
C152 C 0.21095 0.17267 0.94942 0.0
C153 C 0.21554 0.1988 0.92289 0.0
C154 C 0.21005 0.23005 0.93003 0.0
C155 C 0.19913 0.23491 0.96355 0.0
H156 H 0.78026 0.9755 0.00715 0.0
C157 C 0.79714 0.96157 0.00703 0.0
H158 H 0.85168 0.97045 0.00968 0.0
H159 H 0.92531 0.14405 0.95663 0.0
H160 H 0.92771 0.1108 0.90324 0.0
H161 H 0.89611 0.03885 0.89965 0.0
H162 H 0.86168 0.99975 0.94936 0.0
C163 C 0.83424 0.98366 0.01095 0.0
C164 C 0.85298 0.02698 0.01346 0.0
C165 C 0.87354 0.0494 0.9844 0.0
C166 C 0.89231 0.09087 0.9867 0.0
C167 C 0.91148 0.1125 0.95676 0.0
C168 C 0.91285 0.09378 0.92581 0.0
C169 C 0.89502 0.05327 0.92378 0.0
C170 C 0.87544 0.03119 0.95257 0.0
H171 H 0.96452 0.15422 0.02255 0.0
C172 C 0.9508 0.17147 0.02378 0.0
H173 H 0.89897 0.16953 0.0241 0.0
H174 H 0.81686 0.99272 0.07442 0.0
H175 H 0.81404 0.02603 0.12762 0.0
H176 H 0.84627 0.098 0.13142 0.0
H177 H 0.88165 0.13712 0.08204 0.0
C178 C 0.9135 0.15317 0.02208 0.0
C179 C 0.89122 0.10985 0.01842 0.0
C180 C 0.86994 0.08744 0.04717 0.0
C181 C 0.851 0.04592 0.04481 0.0
C182 C 0.83112 0.02429 0.07446 0.0
C183 C 0.82944 0.04305 0.10525 0.0
C184 C 0.84761 0.08357 0.1074 0.0
C185 C 0.86779 0.10567 0.07885 0.0
H186 H 0.91185 0.8369 -0.00305 0.0
C187 C 0.90084 0.85438 0.00822 0.0
H188 H 0.91389 0.90647 0.03637 0.0
H189 H 0.06534 0.91653 0.09226 0.0
H190 H 0.02804 0.89083 0.14456 0.0
H191 H 0.96148 0.87089 0.14333 0.0
H192 H 0.93175 0.87628 0.0896 0.0
C193 C 0.92413 0.88858 0.02455 0.0
C194 C 0.96477 0.90326 0.02598 0.0
C195 C 0.98189 0.90087 0.05776 0.0
C196 C 0.02043 0.91311 0.05864 0.0
C197 C 0.03645 0.90878 0.09035 0.0
C198 C 0.01529 0.89381 0.12052 0.0
C199 C 0.97779 0.88251 0.11981 0.0
C200 C 0.9611 0.88579 0.08883 0.0
H201 H 0.09626 0.99 0.063 0.0
C202 C 0.10655 0.97466 0.04683 0.0
H203 H 0.09231 0.92734 0.01134 0.0
H204 H 0.94098 0.91455 0.96152 0.0
H205 H 0.97828 0.94091 0.90934 0.0
H206 H 0.04508 0.96198 0.91071 0.0
H207 H 0.075 0.95691 0.96429 0.0
C208 C 0.08237 0.94229 0.02849 0.0
C209 C 0.04188 0.92855 0.02786 0.0
C210 C 0.02476 0.93125 -0.00385 0.0
C211 C 0.9862 0.91884 -0.00473 0.0
C212 C 0.97001 0.92283 0.96351 0.0
C213 C 0.99114 0.93812 0.93339 0.0
C214 C 0.02875 0.95 0.93417 0.0
C215 C 0.04555 0.94682 0.96511 0.0
H216 H 0.80195 0.46628 0.25285 0.0
C217 C 0.8229 0.47738 0.27404 0.0
H218 H 0.84275 0.51259 0.32063 0.0
H219 H 0.73654 0.56946 0.23431 0.0
H220 H 0.7853 0.59544 0.19103 0.0
H221 H 0.83922 0.5856 0.19677 0.0
H222 H 0.8443 0.54908 0.24556 0.0
C223 C 0.82299 0.50239 0.29846 0.0
C224 C 0.79364 0.51342 0.29776 0.0
C225 C 0.79195 0.53631 0.26995 0.0
C226 C 0.76171 0.54344 0.26753 0.0
C227 C 0.75958 0.5644 0.23829 0.0
C228 C 0.78729 0.5793 0.21308 0.0
C229 C 0.81758 0.57365 0.21624 0.0
C230 C 0.82003 0.55242 0.24427 0.0
H231 H 0.73362 0.59617 0.30152 0.0
C232 C 0.70606 0.5713 0.29612 0.0
H233 H 0.67448 0.51025 0.28677 0.0
H234 H 0.78948 0.46992 0.35527 0.0
H235 H 0.74207 0.44618 0.39999 0.0
H236 H 0.69071 0.46042 0.39691 0.0
H237 H 0.68637 0.49834 0.349 0.0
C238 C 0.70192 0.53562 0.29126 0.0
C239 C 0.73407 0.52904 0.29381 0.0
C240 C 0.73644 0.50725 0.32222 0.0
C241 C 0.76626 0.49943 0.32421 0.0
C242 C 0.76761 0.47703 0.35259 0.0
C243 C 0.74055 0.46319 0.37845 0.0
C244 C 0.71162 0.47117 0.37671 0.0
C245 C 0.70944 0.49293 0.34901 0.0
H246 H 0.52517 0.23216 0.33036 0.0
C247 C 0.49519 0.21293 0.33072 0.0
H248 H 0.44285 0.20935 0.32615 0.0
H249 H 0.55588 0.39855 0.36304 0.0
H250 H 0.56389 0.37805 0.4212 0.0
H251 H 0.53676 0.30814 0.4343 0.0
H252 H 0.50165 0.25832 0.38925 0.0
C253 C 0.47286 0.22826 0.32774 0.0
C254 C 0.48836 0.27048 0.32068 0.0
C255 C 0.50848 0.29917 0.34745 0.0
C256 C 0.5237 0.33946 0.34003 0.0
C257 C 0.54375 0.36754 0.36721 0.0
C258 C 0.54849 0.35618 0.40075 0.0
C259 C 0.53325 0.31682 0.40811 0.0
C260 C 0.51332 0.28852 0.38193 0.0
H261 H 0.48123 0.38931 0.29659 0.0
C262 C 0.51116 0.40824 0.29498 0.0
H263 H 0.56357 0.41178 0.29866 0.0
H264 H 0.45224 0.22295 0.26318 0.0
H265 H 0.44456 0.24338 0.20493 0.0
H266 H 0.47099 0.31324 0.19204 0.0
H267 H 0.50519 0.36301 0.23731 0.0
C268 C 0.53354 0.39305 0.29883 0.0
C269 C 0.51817 0.3509 0.30609 0.0
C270 C 0.49825 0.3222 0.27924 0.0
C271 C 0.4832 0.28195 0.28661 0.0
C272 C 0.46387 0.2539 0.25918 0.0
C273 C 0.45939 0.26524 0.22555 0.0
C274 C 0.47426 0.30456 0.21831 0.0
C275 C 0.49364 0.33284 0.24465 0.0
H276 H 0.6416 0.12826 0.31325 0.0
C277 C 0.62545 0.1413 0.32233 0.0
H278 H 0.6272 0.19235 0.3424 0.0
H279 H 0.79433 0.27749 0.39521 0.0
H280 H 0.76328 0.256 0.45134 0.0
H281 H 0.69568 0.21026 0.45313 0.0
H282 H 0.65867 0.18585 0.39879 0.0
C283 C 0.64288 0.17909 0.3326 0.0
C284 C 0.68392 0.20417 0.3312 0.0
C285 C 0.70515 0.21776 0.36317 0.0
C286 C 0.74415 0.24382 0.36213 0.0
C287 C 0.76464 0.25745 0.39447 0.0
C288 C 0.74717 0.24535 0.42687 0.0
C289 C 0.7091 0.21962 0.42788 0.0
C290 C 0.68819 0.20589 0.3965 0.0
H291 H 0.79207 0.3301 0.30975 0.0
C292 C 0.81285 0.32255 0.31788 0.0
H293 H 0.82196 0.27812 0.33767 0.0
H294 H 0.65116 0.18543 0.26479 0.0
H295 H 0.68264 0.20478 0.20884 0.0
H296 H 0.75084 0.24666 0.20713 0.0
H297 H 0.78783 0.26996 0.26149 0.0
C298 C 0.80187 0.28604 0.32822 0.0
C299 C 0.76173 0.25625 0.32912 0.0
C300 C 0.74074 0.24152 0.2971 0.0
C301 C 0.70165 0.21605 0.29811 0.0
C302 C 0.68109 0.20366 0.2657 0.0
C303 C 0.6988 0.21474 0.23333 0.0
C304 C 0.73717 0.23842 0.23236 0.0
C305 C 0.75804 0.25176 0.26377 0.0
H306 H 0.50546 0.87931 0.70354 0.0
C307 C 0.47537 0.86114 0.70426 0.0
H308 H 0.42973 0.80349 0.70344 0.0
H309 H 0.5206 0.73441 0.62867 0.0
H310 H 0.48058 0.73161 0.58011 0.0
H311 H 0.441 0.76134 0.58632 0.0
H312 H 0.44142 0.79429 0.64106 0.0
C313 C 0.45979 0.8221 0.70404 0.0
C314 C 0.48289 0.80324 0.70107 0.0
C315 C 0.48165 0.78333 0.66916 0.0
C316 C 0.50395 0.76557 0.66579 0.0
C317 C 0.50336 0.74732 0.63309 0.0
C318 C 0.48073 0.74577 0.60487 0.0
C319 C 0.45849 0.76256 0.60835 0.0
C320 C 0.45894 0.7813 0.63998 0.0
H321 H 0.50059 0.69039 0.68993 0.0
C322 C 0.53081 0.70705 0.69103 0.0
H323 H 0.57836 0.76341 0.69488 0.0
H324 H 0.49034 0.83733 0.7666 0.0
H325 H 0.53065 0.84042 0.81501 0.0
H326 H 0.56956 0.80986 0.80904 0.0
H327 H 0.56815 0.77583 0.75474 0.0
C328 C 0.54824 0.74625 0.6924 0.0
C329 C 0.52673 0.76695 0.6947 0.0
C330 C 0.52827 0.78721 0.72647 0.0
C331 C 0.50614 0.80518 0.72977 0.0
C332 C 0.50724 0.82401 0.76229 0.0
C333 C 0.53009 0.82578 0.79041 0.0
C334 C 0.55196 0.80855 0.78707 0.0
C335 C 0.55099 0.78924 0.75565 0.0
H336 H 0.24867 0.78097 0.64929 0.0
C337 C 0.27544 0.78807 0.66096 0.0
H338 H 0.30745 0.76562 0.68362 0.0
H339 H 0.17041 0.60708 0.73016 0.0
H340 H 0.19436 0.64046 0.7869 0.0
H341 H 0.24432 0.70947 0.79003 0.0
H342 H 0.27077 0.74547 0.7365 0.0
C343 C 0.28146 0.75903 0.67054 0.0
C344 C 0.25129 0.71744 0.66819 0.0
C345 C 0.23605 0.69687 0.6998 0.0
C346 C 0.20696 0.65723 0.69804 0.0
C347 C 0.19237 0.63732 0.72999 0.0
C348 C 0.20587 0.65612 0.76275 0.0
C349 C 0.23402 0.69495 0.7645 0.0
C350 C 0.24901 0.71525 0.73352 0.0
H351 H 0.19819 0.57576 0.64679 0.0
C352 C 0.17003 0.56816 0.65358 0.0
H353 H 0.1353 0.58977 0.6707 0.0
H354 H 0.27645 0.74718 0.60261 0.0
H355 H 0.25122 0.71432 0.54593 0.0
H356 H 0.19844 0.64672 0.54288 0.0
H357 H 0.17097 0.61138 0.59648 0.0
C358 C 0.16303 0.59663 0.66311 0.0
C359 C 0.19319 0.63821 0.66471 0.0
C360 C 0.20817 0.65883 0.63307 0.0
C361 C 0.23768 0.6983 0.63481 0.0
C362 C 0.2532 0.71763 0.60284 0.0
C363 C 0.23912 0.69903 0.5701 0.0
C364 C 0.20948 0.66093 0.56838 0.0
C365 C 0.19408 0.64092 0.59939 0.0
H366 H 0.26231 0.49565 0.59264 0.0
C367 C 0.24038 0.47175 0.60706 0.0
H368 H 0.22755 0.42839 0.64521 0.0
H369 H 0.40262 0.48658 0.59896 0.0
H370 H 0.37601 0.45488 0.54207 0.0
H371 H 0.30893 0.42627 0.52906 0.0
H372 H 0.26808 0.42939 0.57279 0.0
C373 C 0.24903 0.45146 0.62973 0.0
C374 C 0.28849 0.46428 0.63858 0.0
C375 C 0.31179 0.46161 0.61295 0.0
C376 C 0.35035 0.47765 0.62062 0.0
C377 C 0.37313 0.47495 0.59446 0.0
C378 C 0.3582 0.45674 0.56175 0.0
C379 C 0.32044 0.44067 0.55441 0.0
C380 C 0.29734 0.44287 0.57965 0.0
H381 H 0.40337 0.47455 0.69785 0.0
C382 C 0.42115 0.50139 0.68405 0.0
H383 H 0.42362 0.54161 0.64625 0.0
H384 H 0.25086 0.47189 0.69446 0.0
H385 H 0.2773 0.50319 0.75131 0.0
H386 H 0.34443 0.53235 0.76419 0.0
H387 H 0.3854 0.53012 0.72044 0.0
C388 C 0.4061 0.51526 0.66079 0.0
C389 C 0.36535 0.49577 0.65405 0.0
C390 C 0.34183 0.49749 0.68008 0.0
C391 C 0.30325 0.48127 0.67245 0.0
C392 C 0.28038 0.48366 0.69877 0.0
C393 C 0.2952 0.50164 0.73155 0.0
C394 C 0.33297 0.51801 0.73881 0.0
C395 C 0.35617 0.51625 0.71345 0.0
H396 H 0.00791 0.31916 0.90496 0.0
C397 C 0.02952 0.31445 0.91627 0.0
H398 H 0.08252 0.32049 0.90829 0.0
H399 H 0.04011 0.32664 0.7418 0.0
H400 H 0.01666 0.25688 0.744 0.0
H401 H 0.01528 0.22558 0.80054 0.0
H402 H 0.03726 0.26398 0.85533 0.0
C403 C 0.05971 0.32329 0.8973 0.0
C404 C 0.06473 0.34254 0.8628 0.0
C405 C 0.05259 0.31989 0.83107 0.0
C406 C 0.05394 0.33807 0.79847 0.0
C407 C 0.04044 0.31453 0.76724 0.0
C408 C 0.02674 0.2744 0.76815 0.0
C409 C 0.02592 0.25676 0.79999 0.0
C410 C 0.03856 0.27908 0.83121 0.0
H411 H 0.11402 0.39542 0.74418 0.0
C412 C 0.09358 0.40447 0.73949 0.0
H413 H 0.04785 0.40714 0.76032 0.0
H414 H 0.09293 0.39462 0.9188 0.0
H415 H 0.11732 0.46459 0.91668 0.0
H416 H 0.11949 0.4962 0.86011 0.0
H417 H 0.0973 0.45801 0.80533 0.0
C418 C 0.0683 0.398 0.76417 0.0
C419 C 0.06795 0.37896 0.79782 0.0
C420 C 0.08096 0.40173 0.82948 0.0
C421 C 0.07958 0.38352 0.86203 0.0
C422 C 0.093 0.40694 0.89335 0.0
C423 C 0.10718 0.44715 0.89249 0.0
C424 C 0.10841 0.46494 0.86065 0.0
C425 C 0.09554 0.44267 0.82941 0.0
H426 H 0.74922 0.82146 0.87746 0.0
C427 C 0.73407 0.81793 0.90169 0.0
H428 H 0.68183 0.78906 0.92603 0.0
H429 H 0.62932 0.74333 0.75726 0.0
H430 H 0.64095 0.80968 0.75274 0.0
H431 H 0.66955 0.85678 0.80273 0.0
H432 H 0.68688 0.83779 0.85759 0.0
C433 C 0.697 0.79441 0.90156 0.0
C434 C 0.67811 0.76615 0.87182 0.0
C435 C 0.66853 0.77784 0.84002 0.0
C436 C 0.65201 0.75065 0.81127 0.0
C437 C 0.6422 0.76287 0.77985 0.0
C438 C 0.64863 0.80084 0.77694 0.0
C439 C 0.66477 0.82737 0.80509 0.0
C440 C 0.67466 0.81617 0.83635 0.0
H441 H 0.57742 0.64927 0.80903 0.0
C442 C 0.59345 0.65391 0.78522 0.0
H443 H 0.64471 0.68968 0.76055 0.0
H444 H 0.69205 0.73401 0.92994 0.0
H445 H 0.68082 0.66796 0.9344 0.0
H446 H 0.65413 0.62144 0.88381 0.0
H447 H 0.63824 0.64067 0.82861 0.0
C448 C 0.62846 0.68391 0.78424 0.0
C449 C 0.64522 0.71193 0.81454 0.0
C450 C 0.65475 0.70023 0.84644 0.0
C451 C 0.67077 0.72725 0.87531 0.0
C452 C 0.67989 0.71479 0.90703 0.0
C453 C 0.67365 0.67692 0.90998 0.0
C454 C 0.65858 0.65073 0.88152 0.0
C455 C 0.64935 0.66211 0.85003 0.0
H456 H 0.31679 0.93855 0.75647 0.0
C457 C 0.32077 0.91475 0.76513 0.0
H458 H 0.31117 0.87425 0.80508 0.0
H459 H 0.31814 0.992 0.92353 0.0
H460 H 0.36894 0.98187 0.9406 0.0
H461 H 0.38568 0.9417 0.90321 0.0
H462 H 0.35152 0.91118 0.84881 0.0
C463 C 0.30685 0.89767 0.79603 0.0
C464 C 0.29242 0.91592 0.82115 0.0
C465 C 0.31266 0.93329 0.85307 0.0
C466 C 0.30349 0.95706 0.87422 0.0
C467 C 0.32422 0.97419 0.90601 0.0
C468 C 0.35344 0.96852 0.91625 0.0
C469 C 0.36283 0.94587 0.89524 0.0
C470 C 0.34287 0.92847 0.864 0.0
H471 H 0.21807 0.95054 0.90593 0.0
C472 C 0.24124 0.98038 0.90742 0.0
H473 H 0.29208 0.02185 0.8858 0.0
H474 H 0.24349 0.88027 0.76564 0.0
H475 H 0.19184 0.88967 0.7489 0.0
H476 H 0.17784 0.93355 0.78409 0.0
H477 H 0.21509 0.96794 0.83649 0.0
C478 C 0.26846 0.99231 0.88373 0.0
C479 C 0.27431 0.96363 0.86327 0.0
C480 C 0.25253 0.94425 0.83266 0.0
C481 C 0.2613 0.91987 0.81179 0.0
C482 C 0.23866 0.90006 0.78173 0.0
C483 C 0.20885 0.90501 0.77201 0.0
C484 C 0.20092 0.92965 0.79188 0.0
C485 C 0.22244 0.94917 0.82188 0.0
H486 H 0.40336 0.0685 0.24817 0.0
C487 C 0.43259 0.08479 0.2414 0.0
H488 H 0.47105 0.11714 0.20182 0.0
H489 H 0.33398 0.01032 0.09525 0.0
H490 H 0.37439 0.98389 0.0846 0.0
H491 H 0.43329 0.00845 0.11847 0.0
H492 H 0.45172 0.05935 0.16362 0.0
C493 C 0.44217 0.10139 0.20968 0.0
C494 C 0.41247 0.09468 0.18365 0.0
C495 C 0.40322 0.06665 0.15604 0.0
C496 C 0.36998 0.05362 0.13567 0.0
C497 C 0.35977 0.02294 0.11036 0.0
C498 C 0.38256 0.0071 0.10422 0.0
C499 C 0.41565 0.02082 0.12335 0.0
C500 C 0.42588 0.05004 0.14918 0.0
H501 H 0.33853 0.07679 0.07289 0.0
C502 C 0.31212 0.06114 0.08625 0.0
H503 H 0.28583 0.04037 0.13511 0.0
H504 H 0.425 0.15229 0.23193 0.0
H505 H 0.38561 0.18065 0.24171 0.0
H506 H 0.32883 0.15953 0.20529 0.0
H507 H 0.31061 0.10951 0.15922 0.0
C508 C 0.3119 0.05628 0.12129 0.0
C509 C 0.34717 0.07037 0.14184 0.0
C510 C 0.35751 0.09987 0.16833 0.0
C511 C 0.39026 0.11208 0.18927 0.0
C512 C 0.40004 0.14157 0.21565 0.0
C513 C 0.37788 0.15826 0.22135 0.0
C514 C 0.34586 0.14635 0.20085 0.0
C515 C 0.33569 0.11756 0.17455 0.0
H516 H 0.05172 0.34394 0.12742 0.0
C517 C 0.03132 0.31813 0.11267 0.0
H518 H 0.97538 0.27627 0.10354 0.0
H519 H 0.01024 0.40408 0.24108 0.0
H520 H 0.05143 0.38325 0.26562 0.0
H521 H 0.05764 0.33071 0.23639 0.0
H522 H 0.02409 0.30038 0.18129 0.0
C523 C 0.99489 0.30178 0.11919 0.0
C524 C 0.9806 0.32142 0.14316 0.0
C525 C 0.997 0.33549 0.17727 0.0
C526 C 0.99023 0.36256 0.19606 0.0
C527 C 0.01159 0.38074 0.22729 0.0
C528 C 0.03578 0.36943 0.24146 0.0
C529 C 0.03948 0.34008 0.22488 0.0
C530 C 0.0204 0.32323 0.19313 0.0
H531 H 0.94108 0.36491 0.25022 0.0
C532 C 0.94204 0.38968 0.23706 0.0
H533 H 0.9548 0.42242 0.19062 0.0
H534 H 0.94026 0.29623 0.08026 0.0
H535 H 0.89331 0.31045 0.0597 0.0
H536 H 0.87635 0.3514 0.09565 0.0
H537 H 0.90704 0.37898 0.15215 0.0
C538 C 0.95347 0.39739 0.20361 0.0
C539 C 0.963 0.37128 0.18307 0.0
C540 C 0.94395 0.35428 0.15055 0.0
C541 C 0.9531 0.32979 0.13028 0.0
C542 C 0.93454 0.31464 0.09717 0.0
C543 C 0.90728 0.32252 0.08495 0.0
C544 C 0.89776 0.34559 0.10516 0.0
C545 C 0.91574 0.36134 0.13756 0.0
H546 H 0.63487 0.60606 0.17712 0.0
C547 C 0.62908 0.6154 0.20226 0.0
H548 H 0.63596 0.66316 0.23379 0.0
H549 H 0.77724 0.79351 0.159 0.0
H550 H 0.80236 0.79307 0.21731 0.0
H551 H 0.76461 0.74231 0.26009 0.0
H552 H 0.70147 0.6919 0.24504 0.0
C553 C 0.64114 0.65346 0.20857 0.0
C554 C 0.66377 0.68376 0.18251 0.0
C555 C 0.70078 0.71281 0.1917 0.0
C556 C 0.72278 0.74175 0.16688 0.0
C557 C 0.75947 0.7707 0.17682 0.0
C558 C 0.77422 0.77078 0.21017 0.0
C559 C 0.75295 0.74222 0.23427 0.0
C560 C 0.71668 0.71349 0.2253 0.0
H561 H 0.69613 0.79651 0.10735 0.0
C562 C 0.72003 0.79687 0.09551 0.0
H563 H 0.75351 0.77052 0.09481 0.0
H564 H 0.59206 0.63611 0.15808 0.0
H565 H 0.56848 0.6338 0.09861 0.0
H566 H 0.60906 0.67883 0.05326 0.0
H567 H 0.67298 0.72713 0.0675 0.0
C568 C 0.73062 0.77185 0.10703 0.0
C569 C 0.70789 0.7413 0.13286 0.0
C570 C 0.67126 0.71143 0.12325 0.0
C571 C 0.64868 0.68365 0.14859 0.0
C572 C 0.61116 0.65645 0.1393 0.0
C573 C 0.59712 0.65501 0.1053 0.0
C574 C 0.61989 0.68048 0.07984 0.0
C575 C 0.65652 0.70837 0.08853 0.0
H576 H 0.06356 0.46225 0.53086 0.0
C577 C 0.05706 0.4583 0.55884 0.0
H578 H 0.02049 0.45566 0.59847 0.0
H579 H 0.0003 0.51577 0.43641 0.0
H580 H 0.0594 0.57449 0.44899 0.0
H581 H 0.09199 0.58406 0.50655 0.0
H582 H 0.06572 0.53417 0.55163 0.0
C583 C 0.02774 0.46041 0.57079 0.0
C584 C 0.00211 0.46368 0.54508 0.0
C585 C 0.01637 0.49407 0.52023 0.0
C586 C 0.99697 0.48903 0.48763 0.0
C587 C 0.01344 0.51829 0.4619 0.0
C588 C 0.04737 0.5522 0.46883 0.0
C589 C 0.06576 0.55758 0.50122 0.0
C590 C 0.05059 0.52883 0.52672 0.0
H591 H 0.9311 0.47715 0.42931 0.0
C592 C 0.93624 0.45388 0.4211 0.0
H593 H 0.95515 0.41551 0.43616 0.0
H594 H 0.96179 0.40631 0.59256 0.0
H595 H 0.89922 0.35152 0.58305 0.0
H596 H 0.86476 0.34376 0.52698 0.0
H597 H 0.89299 0.39094 0.47994 0.0
C598 C 0.95096 0.4395 0.44414 0.0
C599 C 0.96274 0.45414 0.48097 0.0
C600 C 0.9454 0.42768 0.50867 0.0
C601 C 0.96514 0.43237 0.54097 0.0
C602 C 0.948 0.40419 0.56749 0.0
C603 C 0.91206 0.37266 0.56239 0.0
C604 C 0.89266 0.36827 0.53081 0.0
C605 C 0.90909 0.39532 0.50406 0.0
H606 H 0.5629 0.54474 0.40389 0.0
C607 C 0.5843 0.57303 0.39475 0.0
H608 H 0.62261 0.63172 0.40909 0.0
H609 H 0.5423 0.63944 0.54586 0.0
H610 H 0.52983 0.67949 0.50612 0.0
H611 H 0.54507 0.68307 0.44283 0.0
H612 H 0.57285 0.64666 0.41891 0.0
C613 C 0.6018 0.60305 0.41798 0.0
C614 C 0.59138 0.59931 0.45578 0.0
C615 C 0.57518 0.62085 0.46924 0.0
C616 C 0.56648 0.6189 0.50567 0.0
C617 C 0.54995 0.64035 0.51845 0.0
C618 C 0.54248 0.6633 0.4959 0.0
C619 C 0.55105 0.6653 0.46027 0.0
C620 C 0.56711 0.64432 0.44692 0.0
H621 H 0.6174 0.65088 0.57484 0.0
C622 C 0.59334 0.62706 0.58719 0.0
H623 H 0.54482 0.57185 0.57876 0.0
H624 H 0.62445 0.55609 0.43915 0.0
H625 H 0.63528 0.51493 0.47875 0.0
H626 H 0.61777 0.50964 0.54149 0.0
H627 H 0.5896 0.54592 0.56502 0.0
C628 C 0.56862 0.59659 0.56713 0.0
C629 C 0.5742 0.5956 0.52852 0.0
C630 C 0.5893 0.57312 0.51494 0.0
C631 C 0.5985 0.57542 0.47858 0.0
C632 C 0.61565 0.55444 0.46619 0.0
C633 C 0.62232 0.53089 0.48874 0.0
C634 C 0.61253 0.52798 0.52408 0.0
C635 C 0.59638 0.54893 0.53723 0.0
H636 H 0.44028 0.94176 0.58875 0.0
C637 C 0.41603 0.94491 0.59262 0.0
H638 H 0.38519 0.9706 0.57428 0.0
H639 H 0.5069 0.10947 0.4923 0.0
H640 H 0.50691 0.1429 0.54682 0.0
H641 H 0.47364 0.10546 0.59913 0.0
H642 H 0.44026 0.03451 0.59731 0.0
C643 C 0.4083 0.96568 0.56969 0.0
C644 C 0.43343 0.98751 0.54047 0.0
C645 C 0.45311 0.02891 0.54221 0.0
C646 C 0.4721 0.0505 0.51212 0.0
C647 C 0.49149 0.09181 0.51437 0.0
C648 C 0.49189 0.11128 0.54551 0.0
C649 C 0.47317 0.0902 0.57496 0.0
C650 C 0.45399 0.0495 0.57351 0.0
H651 H 0.43633 0.0615 0.44788 0.0
C652 C 0.45978 0.06468 0.43276 0.0
H653 H 0.50373 0.05233 0.43107 0.0
H654 H 0.40097 0.90834 0.52919 0.0
H655 H 0.40397 0.87553 0.47575 0.0
H656 H 0.43822 0.91328 0.42398 0.0
H657 H 0.46953 0.98412 0.42534 0.0
C658 C 0.48171 0.05203 0.44652 0.0
C659 C 0.47107 0.03064 0.48034 0.0
C660 C 0.45444 0.9894 0.47964 0.0
C661 C 0.43515 0.96767 0.50967 0.0
C662 C 0.41671 0.92637 0.50749 0.0
C663 C 0.41807 0.90713 0.47688 0.0
C664 C 0.43731 0.92838 0.44771 0.0
C665 C 0.45515 0.96902 0.44884 0.0
loop_
_geom_bond_atom_site_label_1
_geom_bond_atom_site_label_2
_geom_bond_distance
_geom_bond_site_symmetry_2
_ccdc_geom_bond_type
Mg0 O1 2.028 1_455 S
Mg0 O7 1.986 1_554 S
Mg0 O9 2.114 . S
Mg0 O10 2.251 1_455 S
Mg0 O13 2.010 . S
O1 Mg0 2.028 1_655 S
O1 C4 1.250 1_554 S
O2 Mg3 2.028 . S
O2 C4 1.248 . S
Mg3 O2 2.028 . S
Mg3 O8 2.032 . S
Mg3 O10 2.079 1_556 S
C4 O1 1.250 1_556 S
C4 O2 1.248 . S
C5 O6 1.264 . S
C5 O13 1.249 . S
O6 C5 1.264 . S
O7 Mg0 1.986 1_556 S
O7 C11 1.246 . S
O8 Mg3 2.032 . S
O8 C11 1.259 1_655 S
O9 Mg0 2.114 . S
O9 C12 1.252 1_455 S
O10 Mg0 2.251 1_655 S
O10 Mg3 2.079 1_554 S
O10 C12 1.273 . S
C11 O7 1.246 . S
C11 O8 1.259 1_455 S
C12 O9 1.252 1_655 S
C12 O10 1.273 . S
O13 Mg0 2.010 . S
O13 C5 1.249 . S
Mg14 O15 2.028 . S
Mg14 O21 1.986 . S
Mg14 O23 2.114 1_554 S
Mg14 O24 2.251 1_554 S
Mg14 O27 2.010 . S
O15 Mg14 2.028 . S
O15 C18 1.250 . S
O16 Mg17 2.028 . S
O16 C18 1.248 . S
Mg17 O16 2.028 . S
Mg17 O22 2.032 . S
Mg17 O24 2.079 1_554 S
C18 O15 1.250 . S
C18 O16 1.248 . S
C19 O20 1.264 . S
C19 O27 1.249 1_556 S
O20 C19 1.264 . S
O21 Mg14 1.986 . S
O21 C25 1.246 . S
O22 Mg17 2.032 . S
O22 C25 1.259 . S
O23 Mg14 2.114 1_556 S
O23 C26 1.252 . S
O24 Mg14 2.251 1_556 S
O24 Mg17 2.079 1_556 S
O24 C26 1.273 . S
C25 O21 1.246 . S
C25 O22 1.259 . S
C26 O23 1.252 . S
C26 O24 1.273 . S
O27 Mg14 2.010 . S
O27 C19 1.249 1_554 S
Mg28 O29 2.028 1_565 S
Mg28 O35 1.986 1_554 S
Mg28 O37 2.114 1_565 S
Mg28 O38 2.251 1_565 S
Mg28 O41 2.010 . S
O29 Mg28 2.028 1_545 S
O29 C32 1.250 1_554 S
O30 Mg31 2.028 . S
O30 C32 1.248 . S
Mg31 O30 2.028 . S
Mg31 O36 2.032 . S
Mg31 O38 2.079 1_556 S
C32 O29 1.250 1_556 S
C32 O30 1.248 . S
C33 O34 1.264 . S
C33 O41 1.249 . S
O34 C33 1.264 . S
O35 Mg28 1.986 1_556 S
O35 C39 1.246 1_565 S
O36 Mg31 2.032 . S
O36 C39 1.259 . S
O37 Mg28 2.114 1_545 S
O37 C40 1.252 . S
O38 Mg28 2.251 1_545 S
O38 Mg31 2.079 1_554 S
O38 C40 1.273 . S
C39 O35 1.246 1_545 S
C39 O36 1.259 . S
C40 O37 1.252 . S
C40 O38 1.273 . S
O41 Mg28 2.010 . S
O41 C33 1.249 . S
Mg42 O43 2.028 . S
Mg42 O49 1.986 . S
Mg42 O51 2.114 . S
Mg42 O52 2.251 . S
Mg42 O55 2.010 . S
O43 Mg42 2.028 . S
O43 C46 1.250 . S
O44 Mg45 2.028 . S
O44 C46 1.248 . S
Mg45 O44 2.028 . S
Mg45 O50 2.032 . S
Mg45 O52 2.079 . S
C46 O43 1.250 . S
C46 O44 1.248 . S
C47 O48 1.264 . S
C47 O55 1.249 . S
O48 C47 1.264 . S
O49 Mg42 1.986 . S
O49 C53 1.246 . S
O50 Mg45 2.032 . S
O50 C53 1.259 . S
O51 Mg42 2.114 . S
O51 C54 1.252 . S
O52 Mg42 2.251 . S
O52 Mg45 2.079 . S
O52 C54 1.273 . S
C53 O49 1.246 . S
C53 O50 1.259 . S
C54 O51 1.252 . S
C54 O52 1.273 . S
O55 Mg42 2.010 . S
O55 C47 1.249 . S
Mg56 O57 2.028 . S
Mg56 O63 1.986 . S
Mg56 O65 2.114 . S
Mg56 O66 2.251 . S
Mg56 O69 2.010 . S
O57 Mg56 2.028 . S
O57 C60 1.250 . S
O58 Mg59 2.028 . S
O58 C60 1.248 . S
Mg59 O58 2.028 . S
Mg59 O64 2.032 . S
Mg59 O66 2.079 . S
C60 O57 1.250 . S
C60 O58 1.248 . S
C61 O62 1.264 . S
C61 O69 1.249 . S
O62 C61 1.264 . S
O63 Mg56 1.986 . S
O63 C67 1.246 . S
O64 Mg59 2.032 . S
O64 C67 1.259 . S
O65 Mg56 2.114 . S
O65 C68 1.252 . S
O66 Mg56 2.251 . S
O66 Mg59 2.079 . S
O66 C68 1.273 . S
C67 O63 1.246 . S
C67 O64 1.259 . S
C68 O65 1.252 . S
C68 O66 1.273 . S
O69 Mg56 2.010 . S
O69 C61 1.249 . S
Mg70 O71 2.028 . S
Mg70 O77 1.986 . S
Mg70 O79 2.114 . S
Mg70 O80 2.251 . S
Mg70 O83 2.010 . S
O71 Mg70 2.028 . S
O71 C74 1.250 . S
O72 Mg73 2.028 . S
O72 C74 1.248 . S
Mg73 O72 2.028 . S
Mg73 O78 2.032 . S
Mg73 O80 2.079 . S
C74 O71 1.250 . S
C74 O72 1.248 . S
C75 O76 1.264 . S
C75 O83 1.249 . S
O76 C75 1.264 . S
O77 Mg70 1.986 . S
O77 C81 1.246 . S
O78 Mg73 2.032 . S
O78 C81 1.259 . S
O79 Mg70 2.114 . S
O79 C82 1.252 . S
O80 Mg70 2.251 . S
O80 Mg73 2.079 . S
O80 C82 1.273 . S
C81 O77 1.246 . S
C81 O78 1.259 . S
C82 O79 1.252 . S
C82 O80 1.273 . S
O83 Mg70 2.010 . S
O83 C75 1.249 . S
Mg84 O85 2.028 . S
Mg84 O91 1.986 . S
Mg84 O93 2.114 . S
Mg84 O94 2.251 . S
Mg84 O97 2.010 . S
O85 Mg84 2.028 . S
O85 C88 1.250 . S
O86 Mg87 2.028 . S
O86 C88 1.248 . S
Mg87 O86 2.028 . S
Mg87 O92 2.032 . S
Mg87 O94 2.079 . S
C88 O85 1.250 . S
C88 O86 1.248 . S
C89 O90 1.264 . S
C89 O97 1.249 . S
O90 C89 1.264 . S
O91 Mg84 1.986 . S
O91 C95 1.246 . S
O92 Mg87 2.032 . S
O92 C95 1.259 . S
O93 Mg84 2.114 . S
O93 C96 1.252 . S
O94 Mg84 2.251 . S
O94 Mg87 2.079 . S
O94 C96 1.273 . S
C95 O91 1.246 . S
C95 O92 1.259 . S
C96 O93 1.252 . S
C96 O94 1.273 . S
O97 Mg84 2.010 . S
O97 C89 1.249 . S
Mg98 O99 2.028 . S
Mg98 O105 1.986 . S
Mg98 O107 2.114 . S
Mg98 O108 2.251 . S
Mg98 O111 2.010 . S
O99 Mg98 2.028 . S
O99 C102 1.250 . S
O100 Mg101 2.028 . S
O100 C102 1.248 . S
Mg101 O100 2.028 . S
Mg101 O106 2.032 . S
Mg101 O108 2.079 . S
C102 O99 1.250 . S
C102 O100 1.248 . S
C103 O104 1.264 . S
C103 O111 1.249 . S
O104 C103 1.264 . S
O105 Mg98 1.986 . S
O105 C109 1.246 . S
O106 Mg101 2.032 . S
O106 C109 1.259 . S
O107 Mg98 2.114 . S
O107 C110 1.252 . S
O108 Mg98 2.251 . S
O108 Mg101 2.079 . S
O108 C110 1.273 . S
C109 O105 1.246 . S
C109 O106 1.259 . S
C110 O107 1.252 . S
C110 O108 1.273 . S
O111 Mg98 2.010 . S
O111 C103 1.249 . S
Mg112 O113 2.028 . S
Mg112 O119 1.986 . S
Mg112 O121 2.114 . S
Mg112 O122 2.251 . S
Mg112 O125 2.010 . S
O113 Mg112 2.028 . S
O113 C116 1.250 . S
O114 Mg115 2.028 . S
O114 C116 1.248 . S
Mg115 O114 2.028 . S
Mg115 O120 2.032 . S
Mg115 O122 2.079 . S
C116 O113 1.250 . S
C116 O114 1.248 . S
C117 O118 1.264 . S
C117 O125 1.249 . S
O118 C117 1.264 . S
O119 Mg112 1.986 . S
O119 C123 1.246 . S
O120 Mg115 2.032 . S
O120 C123 1.259 . S
O121 Mg112 2.114 . S
O121 C124 1.252 . S
O122 Mg112 2.251 . S
O122 Mg115 2.079 . S
O122 C124 1.273 . S
C123 O119 1.246 . S
C123 O120 1.259 . S
C124 O121 1.252 . S
C124 O122 1.273 . S
O125 Mg112 2.010 . S
O125 C117 1.249 . S
H126 C127 0.951 1_554 S
C127 H126 0.951 1_556 S
C127 C133 1.265 . S
H128 C133 0.950 . S
H129 C137 0.949 . S
H130 C138 0.950 . S
H131 C139 0.951 . S
H132 C140 0.951 . S
C133 C127 1.265 . S
C133 H128 0.950 . S
C133 C134 1.478 1_556 S
C134 C133 1.478 1_554 S
C134 C135 1.397 . S
C134 C151 1.394 1_554 S
C135 C134 1.397 . S
C135 C136 1.438 . S
C135 C140 1.429 . S
C136 C135 1.438 . S
C136 C137 1.428 . S
C136 C149 1.394 . S
C137 H129 0.949 . S
C137 C136 1.428 . S
C137 C138 1.345 . S
C138 H130 0.950 . S
C138 C137 1.345 . S
C138 C139 1.424 . S
C139 H131 0.951 . S
C139 C138 1.424 . S
C139 C140 1.347 . S
C140 H132 0.951 . S
C140 C135 1.429 . S
C140 C139 1.347 . S
H141 C142 0.951 . S
C142 H141 0.951 . S
C142 C148 1.265 . S
H143 C148 0.950 . S
H144 C152 0.949 . S
H145 C153 0.950 . S
H146 C154 0.951 . S
H147 C155 0.951 . S
C148 C142 1.265 . S
C148 H143 0.950 . S
C148 C149 1.478 . S
C149 C136 1.394 . S
C149 C148 1.478 . S
C149 C150 1.397 1_554 S
C150 C149 1.397 1_556 S
C150 C151 1.438 . S
C150 C155 1.429 . S
C151 C134 1.394 1_556 S
C151 C150 1.438 . S
C151 C152 1.428 . S
C152 H144 0.949 . S
C152 C151 1.428 . S
C152 C153 1.345 . S
C153 H145 0.950 . S
C153 C152 1.345 . S
C153 C154 1.424 . S
C154 H146 0.951 . S
C154 C153 1.424 . S
C154 C155 1.347 . S
C155 H147 0.951 . S
C155 C150 1.429 . S
C155 C154 1.347 . S
H156 C157 0.951 . S
C157 H156 0.951 . S
C157 C163 1.265 . S
H158 C163 0.950 . S
H159 C167 0.949 . S
H160 C168 0.950 . S
H161 C169 0.940 1_565 S
H162 C170 0.951 . S
C163 C157 1.265 . S
C163 H158 0.950 . S
C163 C164 1.478 . S
C164 C163 1.478 . S
C164 C165 1.397 1_564 S
C164 C181 1.394 1_565 S
C165 C164 1.397 1_546 S
C165 C166 1.438 . S
C165 C170 1.429 1_545 S
C166 C165 1.438 . S
C166 C167 1.428 . S
C166 C179 1.394 1_556 S
C167 H159 0.949 . S
C167 C166 1.428 . S
C167 C168 1.345 . S
C168 H160 0.950 . S
C168 C167 1.345 . S
C168 C169 1.442 . S
C169 H161 0.940 1_545 S
C169 C168 1.442 . S
C169 C170 1.339 1_545 S
C170 H162 0.951 . S
C170 C165 1.429 1_565 S
C170 C169 1.339 1_565 S
H171 C172 0.951 . S
C172 H171 0.951 . S
C172 C178 1.265 1_556 S
H173 C178 0.950 . S
H174 C182 0.949 . S
H175 C183 0.950 1_565 S
H176 C184 0.951 . S
H177 C185 0.951 . S
C178 C172 1.265 1_554 S
C178 H173 0.950 . S
C178 C179 1.478 . S
C179 C166 1.394 1_554 S
C179 C178 1.478 . S
C179 C180 1.397 . S
C180 C179 1.397 . S
C180 C181 1.438 . S
C180 C185 1.429 . S
C181 C164 1.394 1_545 S
C181 C180 1.438 . S
C181 C182 1.428 1_545 S
C182 H174 0.949 . S
C182 C181 1.428 1_565 S
C182 C183 1.345 1_565 S
C183 H175 0.950 1_545 S
C183 C182 1.345 1_545 S
C183 C184 1.424 . S
C184 H176 0.951 . S
C184 C183 1.424 . S
C184 C185 1.347 . S
C185 H177 0.951 . S
C185 C180 1.429 . S
C185 C184 1.347 . S
H186 C187 0.951 . S
C187 H186 0.951 . S
C187 C193 1.265 1_556 S
H188 C193 0.950 . S
H189 C197 0.949 . S
H190 C198 0.950 . S
H191 C199 0.951 . S
H192 C200 0.951 . S
C193 C187 1.265 1_554 S
C193 H188 0.950 . S
C193 C194 1.478 . S
C194 C193 1.478 . S
C194 C195 1.397 . S
C194 C211 1.394 1_554 S
C195 C194 1.397 . S
C195 C196 1.438 1_655 S
C195 C200 1.429 . S
C196 C195 1.438 1_455 S
C196 C197 1.428 . S
C196 C209 1.394 . S
C197 H189 0.949 . S
C197 C196 1.428 . S
C197 C198 1.345 . S
C198 H190 0.950 . S
C198 C197 1.345 . S
C198 C199 1.424 1_455 S
C199 H191 0.951 . S
C199 C198 1.424 1_655 S
C199 C200 1.347 . S
C200 H192 0.951 . S
C200 C195 1.429 . S
C200 C199 1.347 . S
H201 C202 0.951 . S
C202 H201 0.951 . S
C202 C208 1.265 . S
H203 C208 0.950 . S
H204 C212 0.949 . S
H205 C213 0.950 . S
H206 C214 0.951 . S
H207 C215 0.951 . S
C208 C202 1.265 . S
C208 H203 0.950 . S
C208 C209 1.478 . S
C209 C196 1.394 . S
C209 C208 1.478 . S
C209 C210 1.397 1_554 S
C210 C209 1.397 1_556 S
C210 C211 1.438 1_455 S
C210 C215 1.429 . S
C211 C194 1.394 1_556 S
C211 C210 1.438 1_655 S
C211 C212 1.428 . S
C212 H204 0.949 . S
C212 C211 1.428 . S
C212 C213 1.345 . S
C213 H205 0.950 . S
C213 C212 1.345 . S
C213 C214 1.424 1_655 S
C214 H206 0.951 . S
C214 C213 1.424 1_455 S
C214 C215 1.347 . S
C215 H207 0.951 . S
C215 C210 1.429 . S
C215 C214 1.347 . S
H216 C217 0.951 . S
C217 H216 0.951 . S
C217 C223 1.265 . S
H218 C223 0.950 . S
H219 C227 0.949 . S
H220 C228 0.950 . S
H221 C229 0.951 . S
H222 C230 0.951 . S
C223 C217 1.265 . S
C223 H218 0.950 . S
C223 C224 1.478 . S
C224 C223 1.478 . S
C224 C225 1.397 . S
C224 C241 1.394 . S
C225 C224 1.397 . S
C225 C226 1.438 . S
C225 C230 1.429 . S
C226 C225 1.438 . S
C226 C227 1.428 . S
C226 C239 1.394 . S
C227 H219 0.949 . S
C227 C226 1.428 . S
C227 C228 1.345 . S
C228 H220 0.950 . S
C228 C227 1.345 . S
C228 C229 1.424 . S
C229 H221 0.951 . S
C229 C228 1.424 . S
C229 C230 1.347 . S
C230 H222 0.951 . S
C230 C225 1.429 . S
C230 C229 1.347 . S
H231 C232 0.951 . S
C232 H231 0.951 . S
C232 C238 1.265 . S
H233 C238 0.950 . S
H234 C242 0.949 . S
H235 C243 0.950 . S
H236 C244 0.951 . S
H237 C245 0.951 . S
C238 C232 1.265 . S
C238 H233 0.950 . S
C238 C239 1.478 . S
C239 C226 1.394 . S
C239 C238 1.478 . S
C239 C240 1.397 . S
C240 C239 1.397 . S
C240 C241 1.438 . S
C240 C245 1.429 . S
C241 C224 1.394 . S
C241 C240 1.438 . S
C241 C242 1.428 . S
C242 H234 0.949 . S
C242 C241 1.428 . S
C242 C243 1.345 . S
C243 H235 0.950 . S
C243 C242 1.345 . S
C243 C244 1.424 . S
C244 H236 0.951 . S
C244 C243 1.424 . S
C244 C245 1.347 . S
C245 H237 0.951 . S
C245 C240 1.429 . S
C245 C244 1.347 . S
H246 C247 0.951 . S
C247 H246 0.951 . S
C247 C253 1.265 . S
H248 C253 0.950 . S
H249 C257 0.949 . S
H250 C258 0.950 . S
H251 C259 0.951 . S
H252 C260 0.951 . S
C253 C247 1.265 . S
C253 H248 0.950 . S
C253 C254 1.478 . S
C254 C253 1.478 . S
C254 C255 1.397 . S
C254 C271 1.394 . S
C255 C254 1.397 . S
C255 C256 1.438 . S
C255 C260 1.429 . S
C256 C255 1.438 . S
C256 C257 1.428 . S
C256 C269 1.394 . S
C257 H249 0.949 . S
C257 C256 1.428 . S
C257 C258 1.345 . S
C258 H250 0.950 . S
C258 C257 1.345 . S
C258 C259 1.424 . S
C259 H251 0.951 . S
C259 C258 1.424 . S
C259 C260 1.347 . S
C260 H252 0.951 . S
C260 C255 1.429 . S
C260 C259 1.347 . S
H261 C262 0.951 . S
C262 H261 0.951 . S
C262 C268 1.265 . S
H263 C268 0.950 . S
H264 C272 0.949 . S
H265 C273 0.950 . S
H266 C274 0.951 . S
H267 C275 0.951 . S
C268 C262 1.265 . S
C268 H263 0.950 . S
C268 C269 1.478 . S
C269 C256 1.394 . S
C269 C268 1.478 . S
C269 C270 1.397 . S
C270 C269 1.397 . S
C270 C271 1.438 . S
C270 C275 1.429 . S
C271 C254 1.394 . S
C271 C270 1.438 . S
C271 C272 1.428 . S
C272 H264 0.949 . S
C272 C271 1.428 . S
C272 C273 1.345 . S
C273 H265 0.950 . S
C273 C272 1.345 . S
C273 C274 1.424 . S
C274 H266 0.951 . S
C274 C273 1.424 . S
C274 C275 1.347 . S
C275 H267 0.951 . S
C275 C270 1.429 . S
C275 C274 1.347 . S
H276 C277 0.951 . S
C277 H276 0.951 . S
C277 C283 1.265 . S
H278 C283 0.950 . S
H279 C287 0.949 . S
H280 C288 0.950 . S
H281 C289 0.951 . S
H282 C290 0.951 . S
C283 C277 1.265 . S
C283 H278 0.950 . S
C283 C284 1.478 . S
C284 C283 1.478 . S
C284 C285 1.397 . S
C284 C301 1.394 . S
C285 C284 1.397 . S
C285 C286 1.438 . S
C285 C290 1.429 . S
C286 C285 1.438 . S
C286 C287 1.428 . S
C286 C299 1.394 . S
C287 H279 0.949 . S
C287 C286 1.428 . S
C287 C288 1.345 . S
C288 H280 0.950 . S
C288 C287 1.345 . S
C288 C289 1.424 . S
C289 H281 0.951 . S
C289 C288 1.424 . S
C289 C290 1.347 . S
C290 H282 0.951 . S
C290 C285 1.429 . S
C290 C289 1.347 . S
H291 C292 0.951 . S
C292 H291 0.951 . S
C292 C298 1.265 . S
H293 C298 0.950 . S
H294 C302 0.949 . S
H295 C303 0.950 . S
H296 C304 0.951 . S
H297 C305 0.951 . S
C298 C292 1.265 . S
C298 H293 0.950 . S
C298 C299 1.478 . S
C299 C286 1.394 . S
C299 C298 1.478 . S
C299 C300 1.397 . S
C300 C299 1.397 . S
C300 C301 1.438 . S
C300 C305 1.429 . S
C301 C284 1.394 . S
C301 C300 1.438 . S
C301 C302 1.428 . S
C302 H294 0.949 . S
C302 C301 1.428 . S
C302 C303 1.345 . S
C303 H295 0.950 . S
C303 C302 1.345 . S
C303 C304 1.424 . S
C304 H296 0.951 . S
C304 C303 1.424 . S
C304 C305 1.347 . S
C305 H297 0.951 . S
C305 C300 1.429 . S
C305 C304 1.347 . S
H306 C307 0.951 . S
C307 H306 0.951 . S
C307 C313 1.265 . S
H308 C313 0.950 . S
H309 C317 0.949 . S
H310 C318 0.950 . S
H311 C319 0.951 . S
H312 C320 0.951 . S
C313 C307 1.265 . S
C313 H308 0.950 . S
C313 C314 1.478 . S
C314 C313 1.478 . S
C314 C315 1.397 . S
C314 C331 1.394 . S
C315 C314 1.397 . S
C315 C316 1.438 . S
C315 C320 1.429 . S
C316 C315 1.438 . S
C316 C317 1.428 . S
C316 C329 1.394 . S
C317 H309 0.949 . S
C317 C316 1.428 . S
C317 C318 1.345 . S
C318 H310 0.950 . S
C318 C317 1.345 . S
C318 C319 1.424 . S
C319 H311 0.951 . S
C319 C318 1.424 . S
C319 C320 1.347 . S
C320 H312 0.951 . S
C320 C315 1.429 . S
C320 C319 1.347 . S
H321 C322 0.951 . S
C322 H321 0.951 . S
C322 C328 1.265 . S
H323 C328 0.950 . S
H324 C332 0.949 . S
H325 C333 0.950 . S
H326 C334 0.951 . S
H327 C335 0.951 . S
C328 C322 1.265 . S
C328 H323 0.950 . S
C328 C329 1.478 . S
C329 C316 1.394 . S
C329 C328 1.478 . S
C329 C330 1.397 . S
C330 C329 1.397 . S
C330 C331 1.438 . S
C330 C335 1.429 . S
C331 C314 1.394 . S
C331 C330 1.438 . S
C331 C332 1.428 . S
C332 H324 0.949 . S
C332 C331 1.428 . S
C332 C333 1.345 . S
C333 H325 0.950 . S
C333 C332 1.345 . S
C333 C334 1.424 . S
C334 H326 0.951 . S
C334 C333 1.424 . S
C334 C335 1.347 . S
C335 H327 0.951 . S
C335 C330 1.429 . S
C335 C334 1.347 . S
H336 C337 0.951 . S
C337 H336 0.951 . S
C337 C343 1.265 . S
H338 C343 0.950 . S
H339 C347 0.949 . S
H340 C348 0.950 . S
H341 C349 0.951 . S
H342 C350 0.951 . S
C343 C337 1.265 . S
C343 H338 0.950 . S
C343 C344 1.478 . S
C344 C343 1.478 . S
C344 C345 1.397 . S
C344 C361 1.394 . S
C345 C344 1.397 . S
C345 C346 1.438 . S
C345 C350 1.429 . S
C346 C345 1.438 . S
C346 C347 1.428 . S
C346 C359 1.394 . S
C347 H339 0.949 . S
C347 C346 1.428 . S
C347 C348 1.345 . S
C348 H340 0.950 . S
C348 C347 1.345 . S
C348 C349 1.424 . S
C349 H341 0.951 . S
C349 C348 1.424 . S
C349 C350 1.347 . S
C350 H342 0.951 . S
C350 C345 1.429 . S
C350 C349 1.347 . S
H351 C352 0.951 . S
C352 H351 0.951 . S
C352 C358 1.265 . S
H353 C358 0.950 . S
H354 C362 0.949 . S
H355 C363 0.950 . S
H356 C364 0.951 . S
H357 C365 0.951 . S
C358 C352 1.265 . S
C358 H353 0.950 . S
C358 C359 1.478 . S
C359 C346 1.394 . S
C359 C358 1.478 . S
C359 C360 1.397 . S
C360 C359 1.397 . S
C360 C361 1.438 . S
C360 C365 1.429 . S
C361 C344 1.394 . S
C361 C360 1.438 . S
C361 C362 1.428 . S
C362 H354 0.949 . S
C362 C361 1.428 . S
C362 C363 1.345 . S
C363 H355 0.950 . S
C363 C362 1.345 . S
C363 C364 1.424 . S
C364 H356 0.951 . S
C364 C363 1.424 . S
C364 C365 1.347 . S
C365 H357 0.951 . S
C365 C360 1.429 . S
C365 C364 1.347 . S
H366 C367 0.951 . S
C367 H366 0.951 . S
C367 C373 1.265 . S
H368 C373 0.950 . S
H369 C377 0.949 . S
H370 C378 0.950 . S
H371 C379 0.951 . S
H372 C380 0.951 . S
C373 C367 1.265 . S
C373 H368 0.950 . S
C373 C374 1.478 . S
C374 C373 1.478 . S
C374 C375 1.397 . S
C374 C391 1.394 . S
C375 C374 1.397 . S
C375 C376 1.438 . S
C375 C380 1.429 . S
C376 C375 1.438 . S
C376 C377 1.428 . S
C376 C389 1.394 . S
C377 H369 0.949 . S
C377 C376 1.428 . S
C377 C378 1.345 . S
C378 H370 0.950 . S
C378 C377 1.345 . S
C378 C379 1.424 . S
C379 H371 0.951 . S
C379 C378 1.424 . S
C379 C380 1.347 . S
C380 H372 0.951 . S
C380 C375 1.429 . S
C380 C379 1.347 . S
H381 C382 0.951 . S
C382 H381 0.951 . S
C382 C388 1.265 . S
H383 C388 0.950 . S
H384 C392 0.949 . S
H385 C393 0.950 . S
H386 C394 0.951 . S
H387 C395 0.951 . S
C388 C382 1.265 . S
C388 H383 0.950 . S
C388 C389 1.478 . S
C389 C376 1.394 . S
C389 C388 1.478 . S
C389 C390 1.397 . S
C390 C389 1.397 . S
C390 C391 1.438 . S
C390 C395 1.429 . S
C391 C374 1.394 . S
C391 C390 1.438 . S
C391 C392 1.428 . S
C392 H384 0.949 . S
C392 C391 1.428 . S
C392 C393 1.345 . S
C393 H385 0.950 . S
C393 C392 1.345 . S
C393 C394 1.424 . S
C394 H386 0.951 . S
C394 C393 1.424 . S
C394 C395 1.347 . S
C395 H387 0.951 . S
C395 C390 1.429 . S
C395 C394 1.347 . S
H396 C397 0.951 . S
C397 H396 0.951 . S
C397 C403 1.265 . S
H398 C403 0.950 . S
H399 C407 0.949 . S
H400 C408 0.950 . S
H401 C409 0.951 . S
H402 C410 0.951 . S
C403 C397 1.265 . S
C403 H398 0.950 . S
C403 C404 1.478 . S
C404 C403 1.478 . S
C404 C405 1.397 . S
C404 C421 1.394 . S
C405 C404 1.397 . S
C405 C406 1.438 . S
C405 C410 1.429 . S
C406 C405 1.438 . S
C406 C407 1.428 . S
C406 C419 1.394 . S
C407 H399 0.949 . S
C407 C406 1.428 . S
C407 C408 1.345 . S
C408 H400 0.950 . S
C408 C407 1.345 . S
C408 C409 1.424 . S
C409 H401 0.951 . S
C409 C408 1.424 . S
C409 C410 1.347 . S
C410 H402 0.951 . S
C410 C405 1.429 . S
C410 C409 1.347 . S
H411 C412 0.951 . S
C412 H411 0.951 . S
C412 C418 1.265 . S
H413 C418 0.950 . S
H414 C422 0.949 . S
H415 C423 0.950 . S
H416 C424 0.951 . S
H417 C425 0.951 . S
C418 C412 1.265 . S
C418 H413 0.950 . S
C418 C419 1.478 . S
C419 C406 1.394 . S
C419 C418 1.478 . S
C419 C420 1.397 . S
C420 C419 1.397 . S
C420 C421 1.438 . S
C420 C425 1.429 . S
C421 C404 1.394 . S
C421 C420 1.438 . S
C421 C422 1.428 . S
C422 H414 0.949 . S
C422 C421 1.428 . S
C422 C423 1.345 . S
C423 H415 0.950 . S
C423 C422 1.345 . S
C423 C424 1.424 . S
C424 H416 0.951 . S
C424 C423 1.424 . S
C424 C425 1.347 . S
C425 H417 0.951 . S
C425 C420 1.429 . S
C425 C424 1.347 . S
H426 C427 0.951 . S
C427 H426 0.951 . S
C427 C433 1.265 . S
H428 C433 0.950 . S
H429 C437 0.949 . S
H430 C438 0.950 . S
H431 C439 0.951 . S
H432 C440 0.951 . S
C433 C427 1.265 . S
C433 H428 0.950 . S
C433 C434 1.478 . S
C434 C433 1.478 . S
C434 C435 1.397 . S
C434 C451 1.394 . S
C435 C434 1.397 . S
C435 C436 1.438 . S
C435 C440 1.429 . S
C436 C435 1.438 . S
C436 C437 1.428 . S
C436 C449 1.394 . S
C437 H429 0.949 . S
C437 C436 1.428 . S
C437 C438 1.345 . S
C438 H430 0.950 . S
C438 C437 1.345 . S
C438 C439 1.424 . S
C439 H431 0.951 . S
C439 C438 1.424 . S
C439 C440 1.347 . S
C440 H432 0.951 . S
C440 C435 1.429 . S
C440 C439 1.347 . S
H441 C442 0.951 . S
C442 H441 0.951 . S
C442 C448 1.265 . S
H443 C448 0.950 . S
H444 C452 0.949 . S
H445 C453 0.950 . S
H446 C454 0.951 . S
H447 C455 0.951 . S
C448 C442 1.265 . S
C448 H443 0.950 . S
C448 C449 1.478 . S
C449 C436 1.394 . S
C449 C448 1.478 . S
C449 C450 1.397 . S
C450 C449 1.397 . S
C450 C451 1.438 . S
C450 C455 1.429 . S
C451 C434 1.394 . S
C451 C450 1.438 . S
C451 C452 1.428 . S
C452 H444 0.949 . S
C452 C451 1.428 . S
C452 C453 1.345 . S
C453 H445 0.950 . S
C453 C452 1.345 . S
C453 C454 1.424 . S
C454 H446 0.951 . S
C454 C453 1.424 . S
C454 C455 1.347 . S
C455 H447 0.951 . S
C455 C450 1.429 . S
C455 C454 1.347 . S
H456 C457 0.951 . S
C457 H456 0.951 . S
C457 C463 1.265 . S
H458 C463 0.950 . S
H459 C467 0.949 . S
H460 C468 0.950 . S
H461 C469 0.951 . S
H462 C470 0.951 1_565 S
C463 C457 1.265 . S
C463 H458 0.950 . S
C463 C464 1.478 . S
C464 C463 1.478 . S
C464 C465 1.397 . S
C464 C481 1.394 . S
C465 C464 1.397 . S
C465 C466 1.438 . S
C465 C470 1.429 1_565 S
C466 C465 1.438 . S
C466 C467 1.428 1_565 S
C466 C479 1.394 . S
C467 H459 0.949 . S
C467 C466 1.428 1_545 S
C467 C468 1.345 . S
C468 H460 0.950 . S
C468 C467 1.345 . S
C468 C469 1.424 . S
C469 H461 0.951 . S
C469 C468 1.424 . S
C469 C470 1.347 . S
C470 H462 0.951 1_545 S
C470 C465 1.429 1_545 S
C470 C469 1.347 . S
H471 C472 0.951 . S
C472 H471 0.951 . S
C472 C478 1.265 . S
H473 C478 0.950 1_545 S
H474 C482 0.949 . S
H475 C483 0.950 . S
H476 C484 0.951 . S
H477 C485 0.951 . S
C478 C472 1.265 . S
C478 H473 0.950 1_565 S
C478 C479 1.478 . S
C479 C466 1.394 . S
C479 C478 1.478 . S
C479 C480 1.397 . S
C480 C479 1.397 . S
C480 C481 1.438 . S
C480 C485 1.429 . S
C481 C464 1.394 . S
C481 C480 1.438 . S
C481 C482 1.428 . S
C482 H474 0.949 . S
C482 C481 1.428 . S
C482 C483 1.345 . S
C483 H475 0.950 . S
C483 C482 1.345 . S
C483 C484 1.424 . S
C484 H476 0.951 . S
C484 C483 1.424 . S
C484 C485 1.347 . S
C485 H477 0.951 . S
C485 C480 1.429 . S
C485 C484 1.347 . S
H486 C487 0.951 . S
C487 H486 0.951 . S
C487 C493 1.265 . S
H488 C493 0.950 . S
H489 C497 0.949 . S
H490 C498 0.950 . S
H491 C499 0.951 . S
H492 C500 0.951 . S
C493 C487 1.265 . S
C493 H488 0.950 . S
C493 C494 1.478 . S
C494 C493 1.478 . S
C494 C495 1.397 . S
C494 C511 1.394 . S
C495 C494 1.397 . S
C495 C496 1.438 . S
C495 C500 1.429 . S
C496 C495 1.438 . S
C496 C497 1.428 . S
C496 C509 1.394 . S
C497 H489 0.949 . S
C497 C496 1.428 . S
C497 C498 1.345 . S
C498 H490 0.950 . S
C498 C497 1.345 . S
C498 C499 1.424 . S
C499 H491 0.951 . S
C499 C498 1.424 . S
C499 C500 1.347 . S
C500 H492 0.951 . S
C500 C495 1.429 . S
C500 C499 1.347 . S
H501 C502 0.951 . S
C502 H501 0.951 . S
C502 C508 1.265 . S
H503 C508 0.950 . S
H504 C512 0.949 . S
H505 C513 0.950 . S
H506 C514 0.951 . S
H507 C515 0.951 . S
C508 C502 1.265 . S
C508 H503 0.950 . S
C508 C509 1.478 . S
C509 C496 1.394 . S
C509 C508 1.478 . S
C509 C510 1.397 . S
C510 C509 1.397 . S
C510 C511 1.438 . S
C510 C515 1.429 . S
C511 C494 1.394 . S
C511 C510 1.438 . S
C511 C512 1.428 . S
C512 H504 0.949 . S
C512 C511 1.428 . S
C512 C513 1.345 . S
C513 H505 0.950 . S
C513 C512 1.345 . S
C513 C514 1.424 . S
C514 H506 0.951 . S
C514 C513 1.424 . S
C514 C515 1.347 . S
C515 H507 0.951 . S
C515 C510 1.429 . S
C515 C514 1.347 . S
H516 C517 0.951 1_455 S
C517 H516 0.951 1_655 S
C517 C523 1.265 . S
H518 C523 0.950 . S
H519 C527 0.949 . S
H520 C528 0.950 . S
H521 C529 0.951 . S
H522 C530 0.951 . S
C523 C517 1.265 . S
C523 H518 0.950 . S
C523 C524 1.478 . S
C524 C523 1.478 . S
C524 C525 1.397 . S
C524 C541 1.394 . S
C525 C524 1.397 . S
C525 C526 1.438 . S
C525 C530 1.429 . S
C526 C525 1.438 . S
C526 C527 1.428 . S
C526 C539 1.394 . S
C527 H519 0.949 . S
C527 C526 1.428 . S
C527 C528 1.345 . S
C528 H520 0.950 . S
C528 C527 1.345 . S
C528 C529 1.424 . S
C529 H521 0.951 . S
C529 C528 1.424 . S
C529 C530 1.347 . S
C530 H522 0.951 . S
C530 C525 1.429 . S
C530 C529 1.347 . S
H531 C532 0.951 . S
C532 H531 0.951 . S
C532 C538 1.265 . S
H533 C538 0.950 . S
H534 C542 0.949 . S
H535 C543 0.950 . S
H536 C544 0.951 . S
H537 C545 0.951 . S
C538 C532 1.265 . S
C538 H533 0.950 . S
C538 C539 1.478 . S
C539 C526 1.394 . S
C539 C538 1.478 . S
C539 C540 1.397 . S
C540 C539 1.397 . S
C540 C541 1.438 . S
C540 C545 1.429 . S
C541 C524 1.394 . S
C541 C540 1.438 . S
C541 C542 1.428 . S
C542 H534 0.949 . S
C542 C541 1.428 . S
C542 C543 1.345 . S
C543 H535 0.950 . S
C543 C542 1.345 . S
C543 C544 1.424 . S
C544 H536 0.951 . S
C544 C543 1.424 . S
C544 C545 1.347 . S
C545 H537 0.951 . S
C545 C540 1.429 . S
C545 C544 1.347 . S
H546 C547 0.951 . S
C547 H546 0.951 . S
C547 C553 1.265 . S
H548 C553 0.950 . S
H549 C557 0.949 . S
H550 C558 0.950 . S
H551 C559 0.951 . S
H552 C560 0.951 . S
C553 C547 1.265 . S
C553 H548 0.950 . S
C553 C554 1.478 . S
C554 C553 1.478 . S
C554 C555 1.397 . S
C554 C571 1.394 . S
C555 C554 1.397 . S
C555 C556 1.438 . S
C555 C560 1.429 . S
C556 C555 1.438 . S
C556 C557 1.428 . S
C556 C569 1.394 . S
C557 H549 0.949 . S
C557 C556 1.428 . S
C557 C558 1.345 . S
C558 H550 0.950 . S
C558 C557 1.345 . S
C558 C559 1.424 . S
C559 H551 0.951 . S
C559 C558 1.424 . S
C559 C560 1.347 . S
C560 H552 0.951 . S
C560 C555 1.429 . S
C560 C559 1.347 . S
H561 C562 0.951 . S
C562 H561 0.951 . S
C562 C568 1.265 . S
H563 C568 0.950 . S
H564 C572 0.949 . S
H565 C573 0.950 . S
H566 C574 0.951 . S
H567 C575 0.951 . S
C568 C562 1.265 . S
C568 H563 0.950 . S
C568 C569 1.478 . S
C569 C556 1.394 . S
C569 C568 1.478 . S
C569 C570 1.397 . S
C570 C569 1.397 . S
C570 C571 1.438 . S
C570 C575 1.429 . S
C571 C554 1.394 . S
C571 C570 1.438 . S
C571 C572 1.428 . S
C572 H564 0.949 . S
C572 C571 1.428 . S
C572 C573 1.345 . S
C573 H565 0.950 . S
C573 C572 1.345 . S
C573 C574 1.424 . S
C574 H566 0.951 . S
C574 C573 1.424 . S
C574 C575 1.347 . S
C575 H567 0.951 . S
C575 C570 1.429 . S
C575 C574 1.347 . S
H576 C577 0.951 . S
C577 H576 0.951 . S
C577 C583 1.265 . S
H578 C583 0.950 . S
H579 C587 0.949 . S
H580 C588 0.950 . S
H581 C589 0.951 . S
H582 C590 0.951 . S
C583 C577 1.265 . S
C583 H578 0.950 . S
C583 C584 1.478 . S
C584 C583 1.478 . S
C584 C585 1.397 . S
C584 C601 1.394 . S
C585 C584 1.397 . S
C585 C586 1.438 . S
C585 C590 1.429 . S
C586 C585 1.438 . S
C586 C587 1.428 1_455 S
C586 C599 1.394 1_455 S
C587 H579 0.949 . S
C587 C586 1.428 1_655 S
C587 C588 1.345 1_655 S
C588 H580 0.950 . S
C588 C587 1.345 1_455 S
C588 C589 1.424 . S
C589 H581 0.951 . S
C589 C588 1.424 . S
C589 C590 1.347 . S
C590 H582 0.951 . S
C590 C585 1.429 . S
C590 C589 1.347 . S
H591 C592 0.951 . S
C592 H591 0.951 . S
C592 C598 1.265 . S
H593 C598 0.950 . S
H594 C602 0.949 . S
H595 C603 0.950 . S
H596 C604 0.951 . S
H597 C605 0.951 . S
C598 C592 1.265 . S
C598 H593 0.950 . S
C598 C599 1.478 . S
C599 C586 1.394 1_655 S
C599 C598 1.478 . S
C599 C600 1.383 1_655 S
C600 C599 1.383 1_455 S
C600 C601 1.446 . S
C600 C605 1.435 1_455 S
C601 C584 1.394 . S
C601 C600 1.446 . S
C601 C602 1.428 . S
C602 H594 0.949 . S
C602 C601 1.428 . S
C602 C603 1.345 . S
C603 H595 0.950 . S
C603 C602 1.345 . S
C603 C604 1.424 1_455 S
C604 H596 0.951 . S
C604 C603 1.424 1_655 S
C604 C605 1.347 . S
C605 H597 0.951 . S
C605 C600 1.435 1_655 S
C605 C604 1.347 . S
H606 C607 0.951 . S
C607 H606 0.951 . S
C607 C613 1.265 . S
H608 C613 0.950 . S
H609 C617 0.949 . S
H610 C618 0.950 . S
H611 C619 0.951 . S
H612 C620 0.951 . S
C613 C607 1.265 . S
C613 H608 0.950 . S
C613 C614 1.478 . S
C614 C613 1.478 . S
C614 C615 1.397 . S
C614 C631 1.394 . S
C615 C614 1.397 . S
C615 C616 1.438 . S
C615 C620 1.429 . S
C616 C615 1.438 . S
C616 C617 1.428 . S
C616 C629 1.394 . S
C617 H609 0.949 . S
C617 C616 1.428 . S
C617 C618 1.345 . S
C618 H610 0.950 . S
C618 C617 1.345 . S
C618 C619 1.424 . S
C619 H611 0.951 . S
C619 C618 1.424 . S
C619 C620 1.347 . S
C620 H612 0.951 . S
C620 C615 1.429 . S
C620 C619 1.347 . S
H621 C622 0.951 . S
C622 H621 0.951 . S
C622 C628 1.265 . S
H623 C628 0.950 . S
H624 C632 0.949 . S
H625 C633 0.950 . S
H626 C634 0.951 . S
H627 C635 0.951 . S
C628 C622 1.265 . S
C628 H623 0.950 . S
C628 C629 1.478 . S
C629 C616 1.394 . S
C629 C628 1.478 . S
C629 C630 1.397 . S
C630 C629 1.397 . S
C630 C631 1.438 . S
C630 C635 1.429 . S
C631 C614 1.394 . S
C631 C630 1.438 . S
C631 C632 1.428 . S
C632 H624 0.949 . S
C632 C631 1.428 . S
C632 C633 1.345 . S
C633 H625 0.950 . S
C633 C632 1.345 . S
C633 C634 1.424 . S
C634 H626 0.951 . S
C634 C633 1.424 . S
C634 C635 1.347 . S
C635 H627 0.951 . S
C635 C630 1.429 . S
C635 C634 1.347 . S
H636 C637 0.951 . S
C637 H636 0.951 . S
C637 C643 1.265 . S
H638 C643 0.950 . S
H639 C647 0.949 . S
H640 C648 0.950 . S
H641 C649 0.951 . S
H642 C650 0.951 . S
C643 C637 1.265 . S
C643 H638 0.950 . S
C643 C644 1.478 . S
C644 C643 1.478 . S
C644 C645 1.397 1_565 S
C644 C661 1.394 . S
C645 C644 1.397 1_545 S
C645 C646 1.438 . S
C645 C650 1.429 . S
C646 C645 1.438 . S
C646 C647 1.428 . S
C646 C659 1.394 . S
C647 H639 0.949 . S
C647 C646 1.428 . S
C647 C648 1.345 . S
C648 H640 0.950 . S
C648 C647 1.345 . S
C648 C649 1.424 . S
C649 H641 0.951 . S
C649 C648 1.424 . S
C649 C650 1.347 . S
C650 H642 0.951 . S
C650 C645 1.429 . S
C650 C649 1.347 . S
H651 C652 0.951 . S
C652 H651 0.951 . S
C652 C658 1.265 . S
H653 C658 0.950 . S
H654 C662 0.949 . S
H655 C663 0.950 . S
H656 C664 0.951 . S
H657 C665 0.951 . S
C658 C652 1.265 . S
C658 H653 0.950 . S
C658 C659 1.478 . S
C659 C646 1.394 . S
C659 C658 1.478 . S
C659 C660 1.397 1_545 S
C660 C659 1.397 1_565 S
C660 C661 1.438 . S
C660 C665 1.429 . S
C661 C644 1.394 . S
C661 C660 1.438 . S
C661 C662 1.428 . S
C662 H654 0.949 . S
C662 C661 1.428 . S
C662 C663 1.345 . S
C663 H655 0.950 . S
C663 C662 1.345 . S
C663 C664 1.424 . S
C664 H656 0.951 . S
C664 C663 1.424 . S
C664 C665 1.347 . S
C665 H657 0.951 . S
C665 C660 1.429 . S
C665 C664 1.347 . S
C127 C32 1.035 . S
C142 C5 1.069 . S
C157 C18 1.053 . S
C172 C4 1.062 . S
C187 C19 0.682 . S
C202 C33 0.905 . S
C217 C75 1.027 . S
C232 C46 0.960 . S
C247 C60 0.893 . S
C262 C47 0.833 . S
C277 C61 0.902 . S
C292 C74 1.044 . S
C307 C89 0.714 . S
C322 C116 0.865 . S
C337 C88 1.096 . S
C352 C102 1.106 . S
C367 C103 0.946 . S
C382 C117 0.738 . S
C397 C11 1.305 . S
C412 C109 1.341 . S
C427 C26 1.273 . S
C442 C124 1.264 . S
C457 C96 1.293 . S
C472 C39 1.278 1_565 S
C487 C68 1.296 . S
C502 C40 1.294 . S
C517 C12 1.419 . S
C532 C82 1.404 . S
C547 C54 1.287 . S
C562 C25 1.280 . S
C577 C110 1.309 . S
C592 C81 1.317 . S
C607 C53 1.206 . S
C622 C123 1.193 . S
C637 C95 1.322 . S
C652 C67 1.276 . S
