# Generated by pormake.
# Topology crs, (6)-cn, num edge types: 1
# Building blocks:
#     Node 0, Type 0, BuildingBlock: CUKXOW_clean_sbu_0, # of connection points: 6
#     Node 1, Type 0, BuildingBlock: CUKXOW_clean_sbu_0, # of connection points: 6
#     Node 2, Type 0, BuildingBlock: CUKXOW_clean_sbu_0, # of connection points: 6
#     Node 3, Type 0, BuildingBlock: CUKXOW_clean_sbu_0, # of connection points: 6
#     Node 4, Type 0, BuildingBlock: CUKXOW_clean_sbu_0, # of connection points: 6
#     Node 5, Type 0, BuildingBlock: CUKXOW_clean_sbu_0, # of connection points: 6
#     Node 6, Type 0, BuildingBlock: CUKXOW_clean_sbu_0, # of connection points: 6
#     Node 7, Type 0, BuildingBlock: CUKXOW_clean_sbu_0, # of connection points: 6
#     Node 8, Type 0, BuildingBlock: CUKXOW_clean_sbu_0, # of connection points: 6
#     Node 9, Type 0, BuildingBlock: CUKXOW_clean_sbu_0, # of connection points: 6
#     Node 10, Type 0, BuildingBlock: CUKXOW_clean_sbu_0, # of connection points: 6
#     Node 11, Type 0, BuildingBlock: CUKXOW_clean_sbu_0, # of connection points: 6
#     Node 12, Type 0, BuildingBlock: CUKXOW_clean_sbu_0, # of connection points: 6
#     Node 13, Type 0, BuildingBlock: CUKXOW_clean_sbu_0, # of connection points: 6
#     Node 14, Type 0, BuildingBlock: CUKXOW_clean_sbu_0, # of connection points: 6
#     Node 15, Type 0, BuildingBlock: CUKXOW_clean_sbu_0, # of connection points: 6
#     Edge 16, Type (0, 0), BuildingBlock: KIFKEQ_clean_linker_1, # of connection points: 2
#     Edge 17, Type (0, 0), BuildingBlock: KIFKEQ_clean_linker_1, # of connection points: 2
#     Edge 18, Type (0, 0), BuildingBlock: KIFKEQ_clean_linker_1, # of connection points: 2
#     Edge 19, Type (0, 0), BuildingBlock: KIFKEQ_clean_linker_1, # of connection points: 2
#     Edge 20, Type (0, 0), BuildingBlock: KIFKEQ_clean_linker_1, # of connection points: 2
#     Edge 21, Type (0, 0), BuildingBlock: KIFKEQ_clean_linker_1, # of connection points: 2
#     Edge 22, Type (0, 0), BuildingBlock: KIFKEQ_clean_linker_1, # of connection points: 2
#     Edge 23, Type (0, 0), BuildingBlock: KIFKEQ_clean_linker_1, # of connection points: 2
#     Edge 24, Type (0, 0), BuildingBlock: KIFKEQ_clean_linker_1, # of connection points: 2
#     Edge 25, Type (0, 0), BuildingBlock: KIFKEQ_clean_linker_1, # of connection points: 2
#     Edge 26, Type (0, 0), BuildingBlock: KIFKEQ_clean_linker_1, # of connection points: 2
#     Edge 27, Type (0, 0), BuildingBlock: KIFKEQ_clean_linker_1, # of connection points: 2
#     Edge 28, Type (0, 0), BuildingBlock: KIFKEQ_clean_linker_1, # of connection points: 2
#     Edge 29, Type (0, 0), BuildingBlock: KIFKEQ_clean_linker_1, # of connection points: 2
#     Edge 30, Type (0, 0), BuildingBlock: KIFKEQ_clean_linker_1, # of connection points: 2
#     Edge 31, Type (0, 0), BuildingBlock: KIFKEQ_clean_linker_1, # of connection points: 2
#     Edge 32, Type (0, 0), BuildingBlock: KIFKEQ_clean_linker_1, # of connection points: 2
#     Edge 33, Type (0, 0), BuildingBlock: KIFKEQ_clean_linker_1, # of connection points: 2
#     Edge 34, Type (0, 0), BuildingBlock: KIFKEQ_clean_linker_1, # of connection points: 2
#     Edge 35, Type (0, 0), BuildingBlock: KIFKEQ_clean_linker_1, # of connection points: 2
#     Edge 36, Type (0, 0), BuildingBlock: KIFKEQ_clean_linker_1, # of connection points: 2
#     Edge 37, Type (0, 0), BuildingBlock: KIFKEQ_clean_linker_1, # of connection points: 2
#     Edge 38, Type (0, 0), BuildingBlock: KIFKEQ_clean_linker_1, # of connection points: 2
#     Edge 39, Type (0, 0), BuildingBlock: KIFKEQ_clean_linker_1, # of connection points: 2
#     Edge 40, Type (0, 0), BuildingBlock: KIFKEQ_clean_linker_1, # of connection points: 2
#     Edge 41, Type (0, 0), BuildingBlock: KIFKEQ_clean_linker_1, # of connection points: 2
#     Edge 42, Type (0, 0), BuildingBlock: KIFKEQ_clean_linker_1, # of connection points: 2
#     Edge 43, Type (0, 0), BuildingBlock: KIFKEQ_clean_linker_1, # of connection points: 2
#     Edge 44, Type (0, 0), BuildingBlock: KIFKEQ_clean_linker_1, # of connection points: 2
#     Edge 45, Type (0, 0), BuildingBlock: KIFKEQ_clean_linker_1, # of connection points: 2
#     Edge 46, Type (0, 0), BuildingBlock: KIFKEQ_clean_linker_1, # of connection points: 2
#     Edge 47, Type (0, 0), BuildingBlock: KIFKEQ_clean_linker_1, # of connection points: 2
#     Edge 48, Type (0, 0), BuildingBlock: KIFKEQ_clean_linker_1, # of connection points: 2
#     Edge 49, Type (0, 0), BuildingBlock: KIFKEQ_clean_linker_1, # of connection points: 2
#     Edge 50, Type (0, 0), BuildingBlock: KIFKEQ_clean_linker_1, # of connection points: 2
#     Edge 51, Type (0, 0), BuildingBlock: KIFKEQ_clean_linker_1, # of connection points: 2
#     Edge 52, Type (0, 0), BuildingBlock: KIFKEQ_clean_linker_1, # of connection points: 2
#     Edge 53, Type (0, 0), BuildingBlock: KIFKEQ_clean_linker_1, # of connection points: 2
#     Edge 54, Type (0, 0), BuildingBlock: KIFKEQ_clean_linker_1, # of connection points: 2
#     Edge 55, Type (0, 0), BuildingBlock: KIFKEQ_clean_linker_1, # of connection points: 2
#     Edge 56, Type (0, 0), BuildingBlock: KIFKEQ_clean_linker_1, # of connection points: 2
#     Edge 57, Type (0, 0), BuildingBlock: KIFKEQ_clean_linker_1, # of connection points: 2
#     Edge 58, Type (0, 0), BuildingBlock: KIFKEQ_clean_linker_1, # of connection points: 2
#     Edge 59, Type (0, 0), BuildingBlock: KIFKEQ_clean_linker_1, # of connection points: 2
#     Edge 60, Type (0, 0), BuildingBlock: KIFKEQ_clean_linker_1, # of connection points: 2
#     Edge 61, Type (0, 0), BuildingBlock: KIFKEQ_clean_linker_1, # of connection points: 2
#     Edge 62, Type (0, 0), BuildingBlock: KIFKEQ_clean_linker_1, # of connection points: 2
#     Edge 63, Type (0, 0), BuildingBlock: KIFKEQ_clean_linker_1, # of connection points: 2
# Relax obj value: 0.154
# Max RMSD: 0.221
# Mean RMSD: 0.190
data_MOF--net-crs--node1-CUKXOW_clean_sbu_0--edge1-KIFKEQ_clean_linker_1
_symmetry_space_group_name_H-M    P1
_symmetry_Int_Tables_number       1
_symmetry_cell_setting            triclinic
loop_
_symmetry_equiv_pos_as_xyz
'x, y, z'
_cell_length_a     38.514218
_cell_length_b     44.922441
_cell_length_c     48.396599
_cell_angle_alpha  95.221816
_cell_angle_beta   94.00502
_cell_angle_gamma 93.491801
loop_
_atom_site_label
_atom_site_type_symbol
_atom_site_fract_x
_atom_site_fract_y
_atom_site_fract_z
_atom_type_partial_charge
Tb0 Tb 0.01265 0.99447 0.97797 0.0
C1 C 0.04224 0.00689 0.03879 0.0
Tb2 Tb 0.9853 0.04647 0.01208 0.0
O3 O 0.0645 0.01781 0.98103 0.0
O4 O 0.01981 0.04195 0.98009 0.0
O5 O 0.03517 0.98547 0.01821 0.0
C6 C 0.97782 0.09622 0.04505 0.0
O7 O 0.02872 0.0334 0.03914 0.0
C8 C 0.946 0.99602 0.00759 0.0
C9 C 0.95566 0.03406 0.9513 0.0
O10 O 0.96081 0.07059 0.04596 0.0
O11 O 0.99904 0.09397 0.02543 0.0
O12 O 0.93363 0.02232 0.00951 0.0
O13 O 0.97879 0.99907 0.01028 0.0
O14 O 0.96276 0.05555 0.97183 0.0
O15 O 0.96901 0.00747 0.95112 0.0
C16 C 0.02169 0.94477 0.94555 0.0
O17 O 0.00109 0.94647 0.96565 0.0
O18 O 0.03693 0.97095 0.94371 0.0
C19 C 0.05268 0.04429 0.98305 0.0
Tb20 Tb 0.9899 0.25575 0.26565 0.0
C21 C 0.06615 0.23557 0.25765 0.0
Tb22 Tb 0.03782 0.29246 0.23411 0.0
O23 O 0.95835 0.23977 0.22747 0.0
O24 O 0.01169 0.24949 0.22655 0.0
O25 O 0.0388 0.2343 0.27279 0.0
C26 C 0.06976 0.31917 0.1951 0.0
O27 O 0.06854 0.25386 0.23777 0.0
C28 C 0.04421 0.30585 0.28809 0.0
C29 C 0.96151 0.31283 0.24234 0.0
O30 O 0.08014 0.32135 0.22128 0.0
O31 O 0.04118 0.30205 0.19089 0.0
O32 O 0.06946 0.30931 0.27207 0.0
O33 O 0.01631 0.29852 0.27327 0.0
O34 O 0.98928 0.31471 0.22764 0.0
O35 O 0.95874 0.29407 0.26185 0.0
C36 C 0.95834 0.22658 0.30349 0.0
O37 O 0.9479 0.22567 0.27741 0.0
O38 O 0.98658 0.24401 0.30832 0.0
C39 C 0.98383 0.24248 0.2116 0.0
Tb40 Tb 0.74225 0.28135 0.47225 0.0
C41 C 0.71985 0.28259 0.53427 0.0
Tb42 Tb 0.77665 0.24231 0.51206 0.0
O43 O 0.71419 0.24207 0.44884 0.0
O44 O 0.72652 0.24279 0.49161 0.0
O45 O 0.72117 0.29698 0.51155 0.0
C46 C 0.79797 0.19513 0.53638 0.0
O47 O 0.73605 0.25777 0.53736 0.0
C48 C 0.80471 0.29712 0.51435 0.0
C49 C 0.79757 0.23946 0.44935 0.0
O50 O 0.80901 0.22276 0.54371 0.0
O51 O 0.77466 0.19411 0.5156 0.0
O52 O 0.80447 0.28145 0.53559 0.0
O53 O 0.79254 0.28086 0.49283 0.0
O54 O 0.79915 0.22734 0.47337 0.0
O55 O 0.77922 0.26282 0.4449 0.0
C56 C 0.72374 0.32934 0.44762 0.0
O57 O 0.7532 0.32704 0.46168 0.0
O58 O 0.70462 0.30446 0.44722 0.0
C59 C 0.71405 0.22649 0.47023 0.0
Tb60 Tb 0.77931 0.03476 0.72409 0.0
C61 C 0.79094 0.96671 0.73389 0.0
Tb62 Tb 0.74226 0.00453 0.7706 0.0
O63 O 0.81241 0.06373 0.75596 0.0
O64 O 0.79259 0.02127 0.7634 0.0
O65 O 0.79318 0.98818 0.7167 0.0
C66 C 0.72688 0.98831 0.82001 0.0
O67 O 0.7757 0.96964 0.7577 0.0
C68 C 0.71416 0.99085 0.72045 0.0
C69 C 0.72878 0.07193 0.75996 0.0
O70 O 0.70516 0.98661 0.79805 0.0
O71 O 0.75709 0.99933 0.81411 0.0
O72 O 0.70898 0.97416 0.74056 0.0
O73 O 0.72947 0.01559 0.73009 0.0
O74 O 0.72668 0.0505 0.77712 0.0
O75 O 0.74555 0.06947 0.73691 0.0
C76 C 0.79569 0.05224 0.67536 0.0
O77 O 0.81821 0.04775 0.69558 0.0
O78 O 0.76438 0.04717 0.68276 0.0
C79 C 0.80889 0.04475 0.77451 0.0
Tb80 Tb 0.48903 0.76028 0.27705 0.0
C81 C 0.56527 0.7443 0.27519 0.0
Tb82 Tb 0.53202 0.7934 0.24022 0.0
O83 O 0.49374 0.71738 0.25316 0.0
O84 O 0.49439 0.75647 0.23319 0.0
O85 O 0.53881 0.74517 0.29114 0.0
C86 C 0.57411 0.81051 0.20236 0.0
O87 O 0.56587 0.75866 0.25245 0.0
C88 C 0.52112 0.82523 0.28667 0.0
C89 C 0.45455 0.80702 0.24081 0.0
O90 O 0.58331 0.80917 0.22845 0.0
O91 O 0.54132 0.80214 0.19753 0.0
O92 O 0.52588 0.83643 0.2634 0.0
O93 O 0.52641 0.79767 0.2841 0.0
O94 O 0.48144 0.80665 0.22526 0.0
O95 O 0.45452 0.79399 0.26425 0.0
C96 C 0.44478 0.74262 0.31313 0.0
O97 O 0.43723 0.74398 0.28684 0.0
O98 O 0.47732 0.75139 0.31937 0.0
C99 C 0.49863 0.72877 0.22999 0.0
Tb100 Tb 0.22793 0.79458 0.48207 0.0
C101 C 0.20965 0.79787 0.54487 0.0
Tb102 Tb 0.26336 0.75341 0.52386 0.0
O103 O 0.18378 0.76287 0.46528 0.0
O104 O 0.21892 0.75256 0.49621 0.0
O105 O 0.21248 0.81248 0.52243 0.0
C106 C 0.28188 0.70733 0.55095 0.0
O107 O 0.22356 0.77203 0.54815 0.0
C108 C 0.2899 0.80904 0.52602 0.0
C109 C 0.27863 0.74739 0.45945 0.0
O110 O 0.25033 0.71512 0.54643 0.0
O111 O 0.30354 0.7259 0.54065 0.0
O112 O 0.29192 0.79287 0.54698 0.0
O113 O 0.2767 0.79268 0.50497 0.0
O114 O 0.28192 0.73647 0.48412 0.0
O115 O 0.25996 0.77037 0.4539 0.0
C116 C 0.21492 0.8422 0.45529 0.0
O117 O 0.24562 0.83255 0.46026 0.0
O118 O 0.19159 0.82481 0.465 0.0
C119 C 0.19182 0.74237 0.48149 0.0
Tb120 Tb 0.28167 0.52726 0.72526 0.0
C121 C 0.28915 0.45986 0.73521 0.0
Tb122 Tb 0.24018 0.49959 0.77177 0.0
O123 O 0.33016 0.52489 0.75097 0.0
O124 O 0.2834 0.53088 0.76955 0.0
O125 O 0.29148 0.48022 0.71698 0.0
C126 C 0.22862 0.48228 0.82142 0.0
O127 O 0.27351 0.46415 0.75878 0.0
C128 C 0.20624 0.48948 0.72182 0.0
C129 C 0.22488 0.5638 0.75654 0.0
O130 O 0.25888 0.48457 0.81128 0.0
O131 O 0.20464 0.48951 0.80347 0.0
O132 O 0.19427 0.47985 0.74413 0.0
O133 O 0.23559 0.5023 0.72927 0.0
O134 O 0.2247 0.54521 0.77634 0.0
O135 O 0.2424 0.55945 0.73389 0.0
C136 C 0.30272 0.55434 0.68223 0.0
O137 O 0.30897 0.56452 0.70819 0.0
O138 O 0.28457 0.52879 0.68046 0.0
C139 C 0.31523 0.52655 0.77425 0.0
Tb140 Tb 0.02181 0.49159 0.48518 0.0
C141 C 0.04853 0.50658 0.54902 0.0
Tb142 Tb 0.99058 0.54128 0.51951 0.0
O143 O 0.04859 0.52392 0.46134 0.0
O144 O 0.03915 0.53528 0.50282 0.0
O145 O 0.04438 0.48574 0.5274 0.0
C146 C 0.97114 0.59301 0.54301 0.0
O147 O 0.03301 0.53218 0.54897 0.0
C148 C 0.96211 0.48703 0.5221 0.0
C149 C 0.96472 0.52745 0.45525 0.0
O150 O 0.95555 0.56686 0.54443 0.0
O151 O 0.99772 0.59009 0.52817 0.0
O152 O 0.96458 0.50769 0.54284 0.0
O153 O 0.97316 0.49807 0.50121 0.0
O154 O 0.96645 0.54693 0.47783 0.0
O155 O 0.98217 0.50284 0.45432 0.0
C156 C 0.03467 0.43784 0.46167 0.0
O157 O 0.05697 0.461 0.46536 0.0
O158 O 0.00561 0.44496 0.4716 0.0
C159 C 0.05022 0.5454 0.48141 0.0
Tb160 Tb 0.23839 0.28757 0.9806 0.0
C161 C 0.223 0.2906 0.0443 0.0
Tb162 Tb 0.27376 0.24342 0.01918 0.0
O163 O 0.2038 0.25064 0.95963 0.0
O164 O 0.22321 0.24899 0.00059 0.0
O165 O 0.21941 0.30264 0.02029 0.0
C166 C 0.28619 0.19463 0.04425 0.0
O167 O 0.24054 0.26637 0.0479 0.0
C168 C 0.31509 0.29193 0.01481 0.0
C169 C 0.29303 0.24524 0.95718 0.0
O170 O 0.29229 0.22199 0.0555 0.0
O171 O 0.27276 0.19467 0.01886 0.0
O172 O 0.32371 0.27082 0.03012 0.0
O173 O 0.28526 0.28398 0.00368 0.0
O174 O 0.28856 0.22803 0.97775 0.0
O175 O 0.28007 0.27192 0.95642 0.0
C176 C 0.21952 0.33641 0.95791 0.0
O177 O 0.2107 0.30906 0.94769 0.0
O178 O 0.23906 0.33623 0.98079 0.0
C179 C 0.20638 0.234 0.98017 0.0
Tb180 Tb 0.26311 0.02145 0.21994 0.0
C181 C 0.27306 0.95394 0.23107 0.0
Tb182 Tb 0.22022 0.99231 0.26291 0.0
O183 O 0.2969 0.04776 0.25271 0.0
O184 O 0.27278 0.00627 0.25949 0.0
O185 O 0.27503 0.97437 0.2129 0.0
C186 C 0.19411 0.97692 0.30949 0.0
O187 O 0.25739 0.95864 0.25456 0.0
C188 C 0.19244 0.98699 0.21181 0.0
C189 C 0.2143 0.06157 0.2546 0.0
O190 O 0.18849 0.96194 0.28522 0.0
O191 O 0.21416 1.00072 0.30744 0.0
O192 O 0.18544 0.96775 0.2294 0.0
O193 O 0.21047 0.00886 0.22429 0.0
O194 O 0.20739 0.03909 0.2699 0.0
O195 O 0.23277 0.05889 0.23243 0.0
C196 C 0.28328 0.03736 0.1716 0.0
O197 O 0.3025 0.04057 0.19497 0.0
O198 O 0.25298 0.02492 0.17551 0.0
C199 C 0.29024 0.02915 0.27106 0.0
Tb200 Tb 0.47242 0.23679 0.75919 0.0
C201 C 0.55224 0.22344 0.7572 0.0
Tb202 Tb 0.51868 0.27184 0.72118 0.0
O203 O 0.44543 0.21057 0.72283 0.0
O204 O 0.49665 0.2272 0.72136 0.0
O205 O 0.52238 0.2182 0.76868 0.0
C206 C 0.55374 0.28881 0.67947 0.0
O207 O 0.55585 0.24176 0.73733 0.0
C208 C 0.51513 0.30324 0.7699 0.0
C209 C 0.44096 0.28757 0.72665 0.0
O210 O 0.56487 0.29225 0.70552 0.0
O211 O 0.52266 0.27527 0.67659 0.0
O212 O 0.53279 0.31235 0.75005 0.0
O213 O 0.50079 0.27803 0.76087 0.0
O214 O 0.46698 0.28637 0.71003 0.0
O215 O 0.44034 0.27321 0.74946 0.0
C216 C 0.44512 0.21667 0.80353 0.0
O217 O 0.43151 0.21145 0.77813 0.0
O218 O 0.47398 0.23313 0.80384 0.0
C219 C 0.47084 0.21391 0.70684 0.0
Tb220 Tb 0.97435 0.74247 0.76499 0.0
C221 C 0.05089 0.72145 0.75607 0.0
Tb222 Tb 0.02271 0.77809 0.73183 0.0
O223 O 0.94188 0.72591 0.72729 0.0
O224 O 0.99535 0.73571 0.72588 0.0
O225 O 0.02298 0.71965 0.77077 0.0
C226 C 0.05298 0.80522 0.69225 0.0
O227 O 0.05403 0.74031 0.7367 0.0
C228 C 0.02878 0.79236 0.78577 0.0
C229 C 0.94638 0.79846 0.73918 0.0
O230 O 0.06135 0.81048 0.71872 0.0
O231 O 0.02776 0.78449 0.68804 0.0
O232 O 0.05443 0.79469 0.76993 0.0
O233 O 0.00109 0.78512 0.77074 0.0
O234 O 0.97373 0.79908 0.724 0.0
O235 O 0.94385 0.78103 0.75976 0.0
C236 C 0.94272 0.71797 0.80549 0.0
O237 O 0.93311 0.71331 0.77917 0.0
O238 O 0.97044 0.73622 0.809 0.0
C239 C 0.96727 0.72875 0.71126 0.0
Tb240 Tb 0.77505 0.53811 0.23354 0.0
C241 C 0.78846 0.47041 0.24161 0.0
Tb242 Tb 0.73172 0.50541 0.27199 0.0
O243 O 0.80571 0.56366 0.26866 0.0
O244 O 0.78476 0.52068 0.27246 0.0
O245 O 0.79191 0.49252 0.22535 0.0
C246 C 0.70479 0.48319 0.31582 0.0
O247 O 0.76974 0.47264 0.2636 0.0
C248 C 0.70724 0.49989 0.21945 0.0
C249 C 0.71964 0.57361 0.26496 0.0
O250 O 0.69527 0.47471 0.28994 0.0
O251 O 0.72901 0.50474 0.31701 0.0
O252 O 0.70267 0.47933 0.23624 0.0
O253 O 0.72201 0.52292 0.23311 0.0
O254 O 0.71578 0.55123 0.28092 0.0
O255 O 0.73794 0.57144 0.24271 0.0
C256 C 0.80148 0.55739 0.18837 0.0
O257 O 0.81098 0.56775 0.21384 0.0
O258 O 0.77723 0.53607 0.18838 0.0
C259 C 0.8005 0.54351 0.2858 0.0
Tb260 Tb 0.7377 0.78853 0.98031 0.0
C261 C 0.72288 0.79233 0.04412 0.0
Tb262 Tb 0.77538 0.7469 0.02076 0.0
O263 O 0.68903 0.7597 0.96985 0.0
O264 O 0.72867 0.7475 -0.00391 0.0
O265 O 0.72073 0.8052 0.0205 0.0
C266 C 0.79173 0.70036 0.048 0.0
O267 O 0.74006 0.76819 0.04808 0.0
C268 C 0.80461 0.80126 0.01959 0.0
C269 C 0.78747 0.74037 0.95645 0.0
O270 O 0.76063 0.70926 0.04359 0.0
O271 O 0.81418 0.71799 0.03737 0.0
O272 O 0.80856 0.78546 0.04072 0.0
O273 O 0.78819 0.78503 -0.00025 0.0
O274 O 0.78873 0.7276 0.98022 0.0
O275 O 0.77234 0.76579 0.95295 0.0
C276 C 0.72517 0.83592 0.95325 0.0
O277 O 0.71956 0.80819 0.94284 0.0
O278 O 0.73801 0.83699 0.97889 0.0
C279 C 0.699 0.73869 0.98481 0.0
Tb280 Tb 0.52915 0.00543 0.51532 0.0
C281 C 0.51211 0.97871 0.45243 0.0
Tb282 Tb 0.47334 0.03102 0.48153 0.0
O283 O 0.49066 0.98803 0.54183 0.0
O284 O 0.47754 0.99026 0.49974 0.0
O285 O 0.53517 0.98151 0.4744 0.0
C286 C 0.41195 0.04407 0.45826 0.0
O287 O 0.484 0.9943 0.45146 0.0
C288 C 0.53652 0.05306 0.47407 0.0
C289 C 0.49215 0.05921 0.54385 0.0
O290 O 0.44077 0.06077 0.45922 0.0
O291 O 0.4178 0.02055 0.47097 0.0
O292 O 0.5108 0.04974 0.45497 0.0
O293 O 0.52521 0.04609 0.49666 0.0
O294 O 0.46824 0.05543 0.52241 0.0
O295 O 0.52048 0.04379 0.5444 0.0
C296 C 0.58685 0.98602 0.53941 0.0
O297 O 0.55642 0.97176 0.53636 0.0
O298 O 0.58493 0.01129 0.52859 0.0
C299 C 0.4657 0.98361 0.5222 0.0
Tb300 Tb 0.52113 0.48935 0.98178 0.0
C301 C 0.55341 0.50373 0.0421 0.0
Tb302 Tb 0.49194 0.54038 0.01745 0.0
O303 O 0.57094 0.51476 0.97957 0.0
O304 O 0.5253 0.53695 0.98439 0.0
O305 O 0.54503 0.4813 0.02246 0.0
C306 C 0.4836 0.58657 0.05517 0.0
O307 O 0.53922 0.5299 0.04171 0.0
C308 C 0.45572 0.48858 0.01294 0.0
C309 C 0.46253 0.52927 0.95534 0.0
O310 O 0.47232 0.55897 0.05627 0.0
O311 O 0.4991 0.58844 0.03232 0.0
O312 O 0.44192 0.51421 0.01592 0.0
O313 O 0.48848 0.4928 0.01494 0.0
O314 O 0.464 0.54825 0.97824 0.0
O315 O 0.48156 0.50555 0.95291 0.0
C316 C 0.52208 0.43864 0.94791 0.0
O317 O 0.54888 0.45715 0.956 0.0
O318 O 0.49501 0.44844 0.95937 0.0
C319 C 0.5581 0.54063 0.98462 0.0
H320 H 0.93391 0.10213 0.08613 0.0
H321 H 0.01752 0.1492 0.04947 0.0
H322 H 0.93423 0.14292 0.12276 0.0
H323 H 0.01752 0.19067 0.08609 0.0
H324 H 0.03813 0.22869 0.18044 0.0
H325 H 0.0347 0.19761 0.13609 0.0
H326 H 0.9221 0.19461 0.13331 0.0
H327 H 0.92566 0.22489 0.17798 0.0
C328 C 0.95196 0.12152 0.08568 0.0
C329 C 0.97579 0.12253 0.06514 0.0
C330 C 0.95199 0.14503 0.10655 0.0
C331 C 0.97587 0.17011 0.10732 0.0
C332 C 0.99901 0.17154 0.08616 0.0
C333 C 0.9989 0.14794 0.06517 0.0
C334 C 0.01271 0.22179 0.17005 0.0
C335 C 0.98214 0.22861 0.18278 0.0
C336 C 0.01071 0.20415 0.14458 0.0
C337 C 0.97809 0.19324 0.13141 0.0
C338 C 0.94759 0.2021 0.14325 0.0
C339 C 0.94961 0.21953 0.16874 0.0
H340 H 0.85282 0.20438 0.45454 0.0
H341 H 0.79093 0.24853 0.39454 0.0
H342 H 0.89236 0.19031 0.41886 0.0
H343 H 0.83023 0.23442 0.35916 0.0
H344 H 0.97466 0.23191 0.35933 0.0
H345 H 0.93398 0.22504 0.39507 0.0
H346 H 0.85374 0.19004 0.33162 0.0
H347 H 0.89443 0.19693 0.29585 0.0
C348 C 0.8473 0.21059 0.43366 0.0
C349 C 0.81906 0.22787 0.42735 0.0
C350 C 0.8699 0.20253 0.41333 0.0
C351 C 0.8642 0.21119 0.38634 0.0
C352 C 0.83492 0.22706 0.37972 0.0
C353 C 0.81264 0.23543 0.40006 0.0
C354 C 0.94868 0.22184 0.35315 0.0
C355 C 0.93733 0.21544 0.32495 0.0
C356 C 0.92548 0.21776 0.37358 0.0
C357 C 0.89067 0.20741 0.36595 0.0
C358 C 0.88038 0.19836 0.3379 0.0
C359 C 0.90362 0.20227 0.31751 0.0
H360 H 0.75043 0.05627 0.63103 0.0
H361 H 0.85802 0.07692 0.66155 0.0
H362 H 0.75891 0.08581 0.59225 0.0
H363 H 0.867 0.10628 0.62206 0.0
H364 H 0.8391 0.19595 0.58437 0.0
H365 H 0.8461 0.15472 0.6132 0.0
H366 H 0.78569 0.09482 0.5502 0.0
H367 H 0.77779 0.13649 0.52181 0.0
C368 C 0.77619 0.06657 0.62897 0.0
C369 C 0.80343 0.06488 0.64941 0.0
C370 C 0.7812 0.08328 0.60657 0.0
C371 C 0.81359 0.09865 0.6042 0.0
C372 C 0.84163 0.09501 0.62358 0.0
C373 C 0.83659 0.07814 0.64605 0.0
C374 C 0.82793 0.17382 0.5765 0.0
C375 C 0.80735 0.16938 0.55124 0.0
C376 C 0.83221 0.15011 0.59287 0.0
C377 C 0.8161 0.12155 0.58411 0.0
C378 C 0.7979 0.11669 0.55771 0.0
C379 C 0.79341 0.14048 0.54146 0.0
H380 H 0.95708 0.08114 0.91974 0.0
H381 H 0.89913 0.99862 0.93137 0.0
H382 H 0.91958 0.08625 0.87769 0.0
H383 H 0.85987 0.00462 0.89097 0.0
H384 H 0.8306 0.99773 0.7997 0.0
H385 H 0.86406 0.99784 0.8437 0.0
H386 H 0.86505 0.09462 0.85521 0.0
H387 H 0.83276 0.09431 0.80956 0.0
C388 C 0.93576 0.0645 0.91349 0.0
C389 C 0.93111 0.03922 0.92812 0.0
C390 C 0.91413 0.06748 0.88961 0.0
C391 C 0.88708 0.04552 0.88055 0.0
C392 C 0.8812 0.02138 0.89665 0.0
C393 C 0.90344 0.01797 0.91988 0.0
C394 C 0.83785 0.01906 0.81165 0.0
C395 C 0.82901 0.04603 0.80146 0.0
C396 C 0.85679 0.01915 0.8371 0.0
C397 C 0.86675 0.04622 0.85342 0.0
C398 C 0.85797 0.07337 0.84313 0.0
C399 C 0.83944 0.07327 0.81714 0.0
H400 H 0.10055 0.04085 0.05721 0.0
H401 H 0.0392 0.96086 0.07118 0.0
H402 H 0.14146 0.03326 0.09619 0.0
H403 H 0.07812 0.95437 0.11188 0.0
H404 H 0.16407 0.93997 0.17618 0.0
H405 H 0.13146 0.94255 0.13133 0.0
H406 H 0.14407 0.03947 0.14351 0.0
H407 H 0.17845 0.03647 0.18673 0.0
C408 C 0.09581 0.0218 0.069 0.0
C409 C 0.06688 1.00157 0.06174 0.0
C410 C 0.11899 0.01749 0.09143 0.0
C411 C 0.11285 0.99349 0.10766 0.0
C412 C 0.08406 0.97287 0.09976 0.0
C413 C 0.06153 0.97667 0.07669 0.0
C414 C 0.16003 0.96167 0.16886 0.0
C415 C 0.17366 0.98798 0.18463 0.0
C416 C 0.1412 0.96325 0.14334 0.0
C417 C 0.13502 0.99124 0.13364 0.0
C418 C 0.14896 0.01747 0.14971 0.0
C419 C 0.16843 0.01582 0.17471 0.0
H420 H 0.98234 0.40244 0.43379 0.0
H421 H 0.09451 0.41342 0.44637 0.0
H422 H 0.98661 0.36561 0.39498 0.0
H423 H 0.09936 0.37397 0.40899 0.0
H424 H 0.09634 0.34207 0.31636 0.0
H425 H 0.0959 0.36835 0.36223 0.0
H426 H 0.9965 0.32173 0.37276 0.0
H427 H 0.99531 0.29872 0.3254 0.0
C428 C 0.00802 0.39602 0.42881 0.0
C429 C 0.03812 0.41096 0.44271 0.0
C430 C 0.01059 0.37455 0.40655 0.0
C431 C 0.04344 0.36676 0.39819 0.0
C432 C 0.07358 0.37998 0.41395 0.0
C433 C 0.07094 0.40232 0.43567 0.0
C434 C 0.0745 0.33742 0.32862 0.0
C435 C 0.0458 0.31843 0.31733 0.0
C436 C 0.07438 0.35223 0.35523 0.0
C437 C 0.04598 0.34762 0.37158 0.0
C438 C 0.01839 0.32682 0.36075 0.0
C439 C 0.01791 0.31303 0.33369 0.0
H440 H 0.72714 0.27458 0.58897 0.0
H441 H 0.66005 0.31173 0.52749 0.0
H442 H 0.68503 0.28389 0.6234 0.0
H443 H 0.61741 0.32084 0.56218 0.0
H444 H 0.53919 0.27569 0.62342 0.0
H445 H 0.57972 0.2824 0.58723 0.0
H446 H 0.65648 0.32679 0.64914 0.0
H447 H 0.61632 0.31999 0.68512 0.0
C448 C 0.70359 0.28519 0.58299 0.0
C449 C 0.69669 0.29235 0.55565 0.0
C450 C 0.67961 0.29068 0.60271 0.0
C451 C 0.64807 0.30308 0.59535 0.0
C452 C 0.64159 0.31122 0.56824 0.0
C453 C 0.66599 0.30618 0.54854 0.0
C454 C 0.56443 0.28745 0.62907 0.0
C455 C 0.57501 0.29687 0.65697 0.0
C456 C 0.58747 0.29146 0.60842 0.0
C457 C 0.62123 0.30486 0.61558 0.0
C458 C 0.6307 0.31614 0.64322 0.0
C459 C 0.60777 0.31218 0.66375 0.0
H460 H 0.77296 0.98511 0.86454 0.0
H461 H 0.66708 0.95868 0.83233 0.0
H462 H 0.76715 0.95191 0.90131 0.0
H463 H 0.66097 0.92579 0.86947 0.0
H464 H 0.74406 0.89453 0.97021 0.0
H465 H 0.73853 0.93737 0.94268 0.0
H466 H 0.68851 0.87835 0.87394 0.0
H467 H 0.69371 0.83591 0.90147 0.0
C468 C 0.7481 0.97285 0.86586 0.0
C469 C 0.72063 0.97398 0.84545 0.0
C470 C 0.7447 0.95395 0.88699 0.0
C471 C 0.71376 0.93592 0.88797 0.0
C472 C 0.68531 0.93907 0.86888 0.0
C473 C 0.68872 0.95796 0.84775 0.0
C474 C 0.73143 0.89093 0.94935 0.0
C475 C 0.71945 0.86203 0.9378 0.0
C476 C 0.72833 0.91537 0.93363 0.0
C477 C 0.71299 0.91122 0.90622 0.0
C478 C 0.6999 0.88237 0.89516 0.0
C479 C 0.70318 0.85801 0.91079 0.0
H480 H 0.23038 0.27986 0.09898 0.0
H481 H 0.17246 0.33052 0.04175 0.0
H482 H 0.19452 0.29727 0.13594 0.0
H483 H 0.13668 0.34774 0.07881 0.0
H484 H 0.13669 0.34276 0.20134 0.0
H485 H 0.17715 0.34444 0.16471 0.0
H486 H 0.09242 0.31591 0.10295 0.0
H487 H 0.05206 0.314 0.13953 0.0
C488 C 0.21036 0.29499 0.09437 0.0
C489 C 0.20396 0.30347 0.06739 0.0
C490 C 0.19011 0.30521 0.11559 0.0
C491 C 0.16295 0.32385 0.1101 0.0
C492 C 0.15747 0.33335 0.08345 0.0
C493 C 0.17797 0.32342 0.06231 0.0
C494 C 0.12658 0.33776 0.17985 0.0
C495 C 0.0915 0.32782 0.17312 0.0
C496 C 0.14972 0.33862 0.15899 0.0
C497 C 0.13788 0.32995 0.13119 0.0
C498 C 0.10212 0.32283 0.12426 0.0
C499 C 0.07907 0.32165 0.14515 0.0
H500 H 0.66696 0.42992 0.31326 0.0
H501 H 0.72536 0.49689 0.37075 0.0
H502 H 0.66582 0.39555 0.34919 0.0
H503 H 0.72291 0.463 0.40735 0.0
H504 H 0.76533 0.37917 0.44297 0.0
H505 H 0.7533 0.42003 0.41492 0.0
H506 H 0.64911 0.37989 0.39196 0.0
H507 H 0.66197 0.33821 0.41934 0.0
C508 C 0.67852 0.43763 0.33392 0.0
C509 C 0.69668 0.46583 0.33918 0.0
C510 C 0.67774 0.41796 0.35463 0.0
C511 C 0.69483 0.42626 0.38111 0.0
C512 C 0.71027 0.45559 0.38699 0.0
C513 C 0.7114 0.47513 0.36614 0.0
C514 C 0.73974 0.37927 0.43214 0.0
C515 C 0.71471 0.35544 0.43298 0.0
C516 C 0.73265 0.40289 0.41626 0.0
C517 C 0.70019 0.40333 0.40106 0.0
C518 C 0.67455 0.38006 0.40304 0.0
C519 C 0.68182 0.35625 0.41878 0.0
H520 H 0.59041 0.93575 0.56616 0.0
H521 H 0.64625 0.02028 0.55736 0.0
H522 H 0.62775 0.93 0.60791 0.0
H523 H 0.6834 0.01472 0.59927 0.0
H524 H 0.75012 0.99328 0.67418 0.0
H525 H 0.72621 0.98603 0.62574 0.0
H526 H 0.62532 0.96017 0.65333 0.0
H527 H 0.6493 0.96856 0.7017 0.0
C528 C 0.61138 0.95263 0.5727 0.0
C529 C 0.61518 0.97871 0.55898 0.0
C530 C 0.63257 0.94942 0.59664 0.0
C531 C 0.65789 0.97221 0.6071 0.0
C532 C 0.66407 0.99678 0.59165 0.0
C533 C 0.6428 1.00001 0.5677 0.0
C534 C 0.72273 0.98681 0.66979 0.0
C535 C 0.70101 0.98305 0.69143 0.0
C536 C 0.70922 0.98204 0.64213 0.0
C537 C 0.67389 0.97279 0.6358 0.0
C538 C 0.65277 0.96706 0.65757 0.0
C539 C 0.66631 0.97205 0.6852 0.0
H540 H 0.98709 0.88962 0.94388 0.0
H541 H 0.06569 0.93986 0.90451 0.0
H542 H 0.99142 0.84658 0.9096 0.0
H543 H 0.06965 0.89746 0.87021 0.0
H544 H 0.08602 0.81457 0.81892 0.0
H545 H 0.08708 0.84664 0.86253 0.0
H546 H 0.97454 0.83611 0.85976 0.0
H547 H 0.97366 0.80345 0.81661 0.0
C548 C 0.0055 0.89129 0.92806 0.0
C549 C 0.02592 0.91798 0.92663 0.0
C550 C 0.00791 0.86676 0.90845 0.0
C551 C 0.03092 0.86859 0.88723 0.0
C552 C 0.05212 0.89508 0.88655 0.0
C553 C 0.04964 0.9195 0.90604 0.0
C554 C 0.06162 0.81864 0.828 0.0
C555 C 0.02975 0.80706 0.81425 0.0
C556 C 0.06219 0.83707 0.85286 0.0
C557 C 0.03086 0.84434 0.86431 0.0
C558 C 0.99914 0.83085 0.85157 0.0
C559 C 0.9986 0.81229 0.82676 0.0
H560 H 0.03309 0.09952 0.97146 0.0
H561 H 0.12194 0.05288 -0.00097 0.0
H562 H 0.07069 0.14562 0.97189 0.0
H563 H 0.15945 0.09906 -0.00015 0.0
H564 H 0.20401 0.19876 0.0235 0.0
H565 H 0.1668 0.15286 0.02573 0.0
H566 H 0.12165 0.16079 0.94278 0.0
H567 H 0.15943 0.20599 0.94022 0.0
C568 C 0.06059 0.09923 0.97785 0.0
C569 C 0.0747 0.07264 0.98503 0.0
C570 C 0.08211 0.12553 0.97798 0.0
C571 C 0.11803 0.12587 0.98577 0.0
C572 C 0.13187 0.09948 0.99385 0.0
C573 C 0.11046 0.07306 0.99324 0.0
C574 C 0.18649 0.19042 0.00562 0.0
C575 C 0.18486 0.20579 0.98158 0.0
C576 C 0.16512 0.16425 0.00695 0.0
C577 C 0.14117 0.15337 0.98449 0.0
C578 C 0.13956 0.16883 0.96052 0.0
C579 C 0.16134 0.19461 0.959 0.0
H580 H 0.70825 0.61658 0.22994 0.0
H581 H 0.68788 0.59237 0.31198 0.0
H582 H 0.67479 0.66004 0.23699 0.0
H583 H 0.65523 0.63702 0.31962 0.0
H584 H 0.5607 0.6948 0.30377 0.0
H585 H 0.60135 0.65547 0.30482 0.0
H586 H 0.67277 0.70783 0.26028 0.0
H587 H 0.63119 0.74642 0.25805 0.0
C588 C 0.69708 0.6208 0.24974 0.0
C589 C 0.70063 0.60091 0.27037 0.0
C590 C 0.67808 0.64601 0.25391 0.0
C591 C 0.66243 0.65231 0.27899 0.0
C592 C 0.66658 0.63272 0.29992 0.0
C593 C 0.68537 0.60718 0.2956 0.0
C594 C 0.58539 0.69814 0.29468 0.0
C595 C 0.59262 0.72348 0.28052 0.0
C596 C 0.60881 0.6756 0.29535 0.0
C597 C 0.64016 0.67816 0.28221 0.0
C598 C 0.64844 0.70467 0.26991 0.0
C599 C 0.62476 0.72692 0.26881 0.0
H600 H 0.31674 0.83147 0.48099 0.0
H601 H 0.30886 0.85145 0.56905 0.0
H602 H 0.35582 0.87593 0.48041 0.0
H603 H 0.34608 0.89726 0.56847 0.0
H604 H 0.44839 0.95343 0.56612 0.0
H605 H 0.40306 0.91367 0.56685 0.0
H606 H 0.36707 0.92665 0.48233 0.0
H607 H 0.41452 0.96471 0.48108 0.0
C608 C 0.32272 0.8459 0.50012 0.0
C609 C 0.30997 0.83798 0.5251 0.0
C610 C 0.34506 0.87163 0.49983 0.0
C611 C 0.35467 0.89047 0.52446 0.0
C612 C 0.34031 0.88309 0.54919 0.0
C613 C 0.31862 0.85697 0.54956 0.0
C614 C 0.4306 0.94793 0.54777 0.0
C615 C 0.43506 0.9623 0.52356 0.0
C616 C 0.40423 0.92518 0.54822 0.0
C617 C 0.38103 0.91653 0.52462 0.0
C618 C 0.38468 0.93199 0.50077 0.0
C619 C 0.41161 0.95429 0.50015 0.0
H620 H 0.04828 0.6698 0.78223 0.0
H621 H 0.11623 0.72591 0.73824 0.0
H622 H 0.09272 0.6334 0.78437 0.0
H623 H 0.16081 0.69011 0.74108 0.0
H624 H 0.1901 0.5839 0.8013 0.0
H625 H 0.15017 0.62394 0.80389 0.0
H626 H 0.16879 0.64113 0.71956 0.0
H627 H 0.20928 0.60178 0.71719 0.0
C628 C 0.07285 0.67456 0.77339 0.0
C629 C 0.07857 0.70052 0.75976 0.0
C630 C 0.09839 0.65379 0.77472 0.0
C631 C 0.13019 0.65873 0.76265 0.0
C632 C 0.13633 0.68531 0.75004 0.0
C633 C 0.11078 0.70589 0.74852 0.0
C634 C 0.18595 0.59643 0.78341 0.0
C635 C 0.20288 0.58961 0.75902 0.0
C636 C 0.16288 0.61925 0.78485 0.0
C637 C 0.15619 0.63566 0.76192 0.0
C638 C 0.17373 0.62924 0.73777 0.0
C639 C 0.19689 0.60656 0.73637 0.0
H640 H 0.818 0.34029 0.5573 0.0
H641 H 0.83881 0.31819 0.47177 0.0
H642 H 0.85476 0.3865 0.55881 0.0
H643 H 0.87803 0.36302 0.4736 0.0
H644 H 0.92612 0.45758 0.47636 0.0
H645 H 0.88625 0.41327 0.47402 0.0
H646 H 0.91004 0.40745 0.5621 0.0
H647 H 0.94764 0.45339 0.56448 0.0
C648 C 0.83074 0.34536 0.53885 0.0
C649 C 0.82558 0.3258 0.51443 0.0
C650 C 0.85227 0.37171 0.53975 0.0
C651 C 0.8701 0.37876 0.51645 0.0
C652 C 0.86451 0.35901 0.4919 0.0
C653 C 0.84213 0.33309 0.49081 0.0
C654 C 0.92272 0.44674 0.49519 0.0
C655 C 0.93983 0.4589 0.52064 0.0
C656 C 0.89997 0.42108 0.49387 0.0
C657 C 0.89448 0.40634 0.51786 0.0
C658 C 0.91254 0.41833 0.54323 0.0
C659 C 0.93451 0.44453 0.54464 0.0
H660 H 0.30841 0.93516 0.18605 0.0
H661 H 0.28446 0.91263 0.26792 0.0
H662 H 0.34825 0.89496 0.18301 0.0
H663 H 0.32494 0.87365 0.26539 0.0
H664 H 0.45306 0.85528 0.21045 0.0
H665 H 0.40455 0.88694 0.20354 0.0
H666 H 0.33879 0.82677 0.24544 0.0
H667 H 0.3878 0.79615 0.25352 0.0
C668 C 0.31138 0.92149 0.20327 0.0
C669 C 0.29352 0.9273 0.22734 0.0
C670 C 0.33437 0.89858 0.2016 0.0
C671 C 0.34006 0.88118 0.22402 0.0
C672 C 0.3209 0.8862 0.2475 0.0
C673 C 0.29777 0.90883 0.24905 0.0
C674 C 0.42805 0.84868 0.21779 0.0
C675 C 0.42424 0.82364 0.23291 0.0
C676 C 0.40015 0.86668 0.21369 0.0
C677 C 0.36783 0.85964 0.22428 0.0
C678 C 0.36354 0.83331 0.23767 0.0
C679 C 0.39156 0.81569 0.24221 0.0
H680 H 0.30055 0.41789 0.77145 0.0
H681 H 0.31687 0.43765 0.68735 0.0
H682 H 0.33293 0.37368 0.76494 0.0
H683 H 0.34847 0.39237 0.68043 0.0
H684 H 0.44428 0.33605 0.69652 0.0
H685 H 0.40336 0.37515 0.69504 0.0
H686 H 0.33417 0.32486 0.74309 0.0
H687 H 0.37593 0.28645 0.74559 0.0
C688 C 0.31049 0.41252 0.75133 0.0
C689 C 0.30625 0.43148 0.72997 0.0
C690 C 0.32891 0.38689 0.74751 0.0
C691 C 0.34332 0.3793 0.72211 0.0
C692 C 0.33813 0.39774 0.70039 0.0
C693 C 0.31989 0.42364 0.70431 0.0
C694 C 0.42005 0.33311 0.70634 0.0
C695 C 0.41353 0.30841 0.72152 0.0
C696 C 0.39645 0.3555 0.7054 0.0
C697 C 0.36564 0.35345 0.71933 0.0
C698 C 0.35807 0.3276 0.73278 0.0
C699 C 0.38189 0.30547 0.73407 0.0
H700 H 0.15335 0.83149 0.53969 0.0
H701 H 0.21976 0.79189 0.59993 0.0
H702 H 0.11396 0.84483 0.57586 0.0
H703 H 0.18093 0.80553 0.6359 0.0
H704 H 0.0372 0.79645 0.63646 0.0
H705 H 0.07648 0.80618 0.60036 0.0
H706 H 0.15337 0.84923 0.66289 0.0
H707 H 0.11392 0.83969 0.69904 0.0
C708 C 0.15997 0.8264 0.56079 0.0
C709 C 0.1892 0.81033 0.56708 0.0
C710 C 0.1375 0.834 0.58138 0.0
C711 C 0.14454 0.82623 0.60856 0.0
C712 C 0.17516 0.81211 0.61517 0.0
C713 C 0.19715 0.80401 0.59456 0.0
C714 C 0.06206 0.80881 0.64234 0.0
C715 C 0.07294 0.81688 0.67042 0.0
C716 C 0.08439 0.81459 0.62171 0.0
C717 C 0.11796 0.82822 0.62899 0.0
C718 C 0.12762 0.83856 0.65688 0.0
C719 C 0.10513 0.83307 0.67748 0.0
H720 H 0.22126 0.99792 0.36141 0.0
H721 H 0.1518 0.92813 0.3164 0.0
H722 H 0.22124 0.97051 0.4028 0.0
H723 H 0.15168 0.90081 0.35765 0.0
H724 H 0.26179 0.88247 0.43763 0.0
H725 H 0.24965 0.92183 0.40746 0.0
H726 H 0.13904 0.89911 0.40787 0.0
H727 H 0.15128 0.85963 0.43811 0.0
C728 C 0.20511 0.97721 0.36068 0.0
C729 C 0.18688 0.96481 0.33576 0.0
C730 C 0.20524 0.96151 0.38427 0.0
C731 C 0.18681 0.93343 0.38326 0.0
C732 C 0.16595 0.9225 0.35906 0.0
C733 C 0.16612 0.93804 0.33542 0.0
C734 C 0.2349 0.88625 0.4316 0.0
C735 C 0.20746 0.8679 0.43976 0.0
C736 C 0.22791 0.90894 0.41461 0.0
C737 C 0.19338 0.91346 0.40537 0.0
C738 C 0.16587 0.89597 0.41465 0.0
C739 C 0.17287 0.87343 0.43186 0.0
H740 H 0.90861 0.71461 0.67691 0.0
H741 H 0.02104 0.71838 0.67895 0.0
H742 H 0.90484 0.68965 0.62971 0.0
H743 H 0.01751 0.69249 0.6324 0.0
H744 H 0.91953 0.5993 0.57778 0.0
H745 H 0.91536 0.6397 0.61393 0.0
H746 H 0.00248 0.68895 0.58342 0.0
H747 H 0.00727 0.64762 0.54762 0.0
C748 C 0.93248 0.71037 0.66708 0.0
C749 C 0.96508 0.71782 0.68161 0.0
C750 C 0.93037 0.69606 0.64012 0.0
C751 C 0.96085 0.68863 0.6274 0.0
C752 C 0.99348 0.69807 0.64136 0.0
C753 C 0.99556 0.71267 0.66819 0.0
C754 C 0.93725 0.61906 0.5784 0.0
C755 C 0.96406 0.62022 0.5603 0.0
C756 C 0.93473 0.64241 0.59902 0.0
C757 C 0.95889 0.66747 0.60183 0.0
C758 C 0.9839 0.66969 0.58213 0.0
C759 C 0.98652 0.64617 0.56154 0.0
H760 H 0.34742 0.74032 0.46602 0.0
H761 H 0.25962 0.73026 0.40486 0.0
H762 H 0.38694 0.73297 0.42963 0.0
H763 H 0.29859 0.71963 0.36815 0.0
H764 H 0.37631 0.75197 0.309 0.0
H765 H 0.33488 0.74595 0.34373 0.0
H766 H 0.4139 0.70827 0.39577 0.0
H767 H 0.45615 0.71742 0.36172 0.0
C768 C 0.3366 0.73527 0.44471 0.0
C769 C 0.30074 0.73607 0.43802 0.0
C770 C 0.35924 0.73083 0.42369 0.0
C771 C 0.34631 0.72617 0.39556 0.0
C772 C 0.30985 0.7243 0.38933 0.0
C773 C 0.28735 0.72993 0.41032 0.0
C774 C 0.3846 0.74226 0.32786 0.0
C775 C 0.4193 0.7355 0.33303 0.0
C776 C 0.36071 0.73839 0.34777 0.0
C777 C 0.37073 0.72667 0.37295 0.0
C778 C 0.40525 0.7182 0.37716 0.0
C779 C 0.42948 0.72316 0.35761 0.0
H780 H 0.34328 0.06896 0.16249 0.0
H781 H 0.24044 0.03955 0.12501 0.0
H782 H 0.35067 0.10302 0.12644 0.0
H783 H 0.24732 0.07403 0.0895 0.0
H784 H 0.26982 0.1362 0.02472 0.0
H785 H 0.27636 0.09212 0.05045 0.0
H786 H 0.32241 0.14934 0.12195 0.0
H787 H 0.31646 0.19292 0.09616 0.0
C788 C 0.32265 0.06928 0.14614 0.0
C789 C 0.29111 0.05209 0.14668 0.0
C790 C 0.32676 0.08886 0.12563 0.0
C791 C 0.29931 0.09163 0.10547 0.0
C792 C 0.26902 0.07236 0.10463 0.0
C793 C 0.26499 0.0527 0.12506 0.0
C794 C 0.2818 0.13914 0.0458 0.0
C795 C 0.29242 0.16784 0.05862 0.0
C796 C 0.2855 0.11399 0.06051 0.0
C797 C 0.29998 0.11723 0.0882 0.0
C798 C 0.31176 0.14595 0.10051 0.0
C799 C 0.308 0.17099 0.08586 0.0
H800 H 0.77752 0.74805 0.90139 0.0
H801 H 0.84128 0.70365 0.95992 0.0
H802 H 0.81475 0.73281 0.86468 0.0
H803 H 0.87876 0.68861 0.92305 0.0
H804 H 0.87725 0.69096 0.79998 0.0
H805 H 0.8371 0.68743 0.8367 0.0
H806 H 0.91955 0.72324 0.89793 0.0
H807 H 0.95958 0.72701 0.86123 0.0
C808 C 0.79912 0.7346 0.90629 0.0
C809 C 0.80671 0.7273 0.93355 0.0
C810 C 0.82025 0.72565 0.88523 0.0
C811 C 0.84961 0.70958 0.89113 0.0
C812 C 0.85628 0.70104 0.91807 0.0
C813 C 0.83478 0.70959 0.93907 0.0
C814 C 0.88699 0.6973 0.82138 0.0
C815 C 0.92129 0.70959 0.82786 0.0
C816 C 0.86403 0.69535 0.84231 0.0
C817 C 0.87522 0.70529 0.87002 0.0
C818 C 0.91035 0.71522 0.87674 0.0
C819 C 0.9332 0.7175 0.85576 0.0
H820 H 0.28004 0.54046 0.62782 0.0
H821 H 0.34055 0.60752 0.68391 0.0
H822 H 0.28174 0.57404 0.59084 0.0
H823 H 0.34204 0.64114 0.64711 0.0
H824 H 0.23741 0.66234 0.56259 0.0
H825 H 0.25008 0.62088 0.58976 0.0
H826 H 0.35915 0.65166 0.59924 0.0
H827 H 0.34627 0.69353 0.57168 0.0
C828 C 0.29444 0.56207 0.63199 0.0
C829 C 0.30973 0.57168 0.65871 0.0
C830 C 0.29534 0.58127 0.61091 0.0
C831 C 0.31168 0.61028 0.61625 0.0
C832 C 0.32946 0.61885 0.64236 0.0
C833 C 0.3284 0.59971 0.66346 0.0
C834 C 0.26417 0.66006 0.57018 0.0
C835 C 0.29085 0.68119 0.56539 0.0
C836 C 0.2715 0.63613 0.58547 0.0
C837 C 0.30563 0.63299 0.5965 0.0
C838 C 0.33261 0.65364 0.59096 0.0
C839 C 0.32529 0.67749 0.57527 0.0
H840 H 0.33121 0.07581 0.29803 0.0
H841 H 0.27707 0.99187 0.31062 0.0
H842 H 0.35296 0.08183 0.34655 0.0
H843 H 0.29314 1.00004 0.35991 0.0
H844 H 0.37022 0.99735 0.43426 0.0
H845 H 0.33577 0.99541 0.39087 0.0
H846 H 0.35089 0.09207 0.3922 0.0
H847 H 0.38926 0.09298 0.43455 0.0
C848 C 0.32308 0.05911 0.31149 0.0
C849 C 0.30201 0.03362 0.30074 0.0
C850 C 0.33498 0.06277 0.33959 0.0
C851 C 0.325 0.04151 0.35781 0.0
C852 C 0.30251 0.01665 0.34689 0.0
C853 C 0.29232 0.01225 0.31857 0.0
C854 C 0.36555 0.01827 0.42555 0.0
C855 C 0.38277 0.04524 0.43737 0.0
C856 C 0.3454 0.01728 0.40046 0.0
C857 C 0.34084 0.04354 0.38708 0.0
C858 C 0.35493 0.07111 0.40091 0.0
C859 C 0.37639 0.07185 0.42553 0.0
H860 H 0.8053 0.83387 0.97437 0.0
H861 H 0.8483 0.83403 0.05918 0.0
H862 H 0.83847 0.88149 0.97052 0.0
H863 H 0.8825 0.88087 0.05491 0.0
H864 H 0.96846 0.94267 0.02173 0.0
H865 H 0.93332 0.8958 0.02409 0.0
H866 H 0.84127 0.93734 -0.005 0.0
H867 H 0.87636 0.98455 0.99322 0.0
C868 C 0.82148 0.84424 0.99227 0.0
C869 C 0.8238 0.83043 0.01721 0.0
C870 C 0.8406 0.87138 0.99001 0.0
C871 C 0.86315 0.8848 0.01239 0.0
C872 C 0.86553 0.87091 0.03726 0.0
C873 C 0.84585 0.84417 0.03972 0.0
C874 C 0.94075 0.94176 0.01575 0.0
C875 C 0.92506 0.96726 0.00745 0.0
C876 C 0.92064 0.91499 0.01722 0.0
C877 C 0.88455 0.91299 0.00986 0.0
C878 C 0.86903 0.93825 0.00074 0.0
C879 C 0.88906 0.96524 -0.00018 0.0
H880 H 0.69188 0.18579 0.42643 0.0
H881 H 0.68926 0.20255 0.51539 0.0
H882 H 0.6542 0.14024 0.42681 0.0
H883 H 0.64977 0.15825 0.51584 0.0
H884 H 0.59068 0.06879 0.51354 0.0
H885 H 0.63821 0.10702 0.51215 0.0
H886 H 0.597 0.12499 0.43029 0.0
H887 H 0.55136 0.08557 0.43114 0.0
C888 C 0.68312 0.17969 0.44607 0.0
C889 C 0.69326 0.19779 0.47082 0.0
C890 C 0.66121 0.15368 0.44634 0.0
C891 C 0.64822 0.14546 0.47131 0.0
C892 C 0.65938 0.16332 0.4962 0.0
C893 C 0.68188 0.18897 0.49597 0.0
C894 C 0.59235 0.08055 0.49507 0.0
C895 C 0.56729 0.07414 0.47247 0.0
C896 C 0.61937 0.1028 0.49435 0.0
C897 C 0.62162 0.11959 0.47119 0.0
C898 C 0.59688 0.11243 0.44833 0.0
C899 C 0.57035 0.08986 0.44887 0.0
H900 H 0.82767 0.45468 0.19798 0.0
H901 H 0.79801 0.42737 0.27692 0.0
H902 H 0.86672 0.41386 0.1943 0.0
H903 H 0.83767 0.38779 0.27383 0.0
H904 H 0.89438 0.30623 0.25603 0.0
H905 H 0.84914 0.34131 0.25136 0.0
H906 H 0.92117 0.40169 0.21537 0.0
H907 H 0.9659 0.36586 0.21888 0.0
C908 C 0.82935 0.43992 0.21445 0.0
C909 C 0.80983 0.44435 0.23777 0.0
C910 C 0.85187 0.41666 0.21244 0.0
C911 C 0.85547 0.39755 0.23381 0.0
C912 C 0.83517 0.40162 0.25671 0.0
C913 C 0.81251 0.42457 0.25857 0.0
C914 C 0.90045 0.32692 0.24695 0.0
C915 C 0.93376 0.3335 0.23813 0.0
C916 C 0.87456 0.34709 0.24434 0.0
C917 C 0.88159 0.37454 0.2333 0.0
C918 C 0.91466 0.38064 0.22366 0.0
C919 C 0.94042 0.36022 0.22588 0.0
H920 H 0.07152 0.5718 0.43645 0.0
H921 H 0.07415 0.58459 0.52608 0.0
H922 H 0.1064 0.61921 0.43621 0.0
H923 H 0.10929 0.63185 0.52587 0.0
H924 H 0.13362 0.72224 0.44885 0.0
H925 H 0.09919 0.67473 0.44856 0.0
H926 H 0.17081 0.64824 0.51301 0.0
H927 H 0.20557 0.69554 0.51261 0.0
C928 C 0.0795 0.58481 0.45607 0.0
C929 C 0.07013 0.57457 0.48125 0.0
C930 C 0.09937 0.61194 0.45594 0.0
C931 C 0.1107 0.62917 0.48103 0.0
C932 C 0.10124 0.61891 0.50623 0.0
C933 C 0.08093 0.59199 0.50633 0.0
C934 C 0.14216 0.70623 0.46288 0.0
C935 C 0.17224 0.71285 0.48113 0.0
C936 C 0.12244 0.67899 0.46265 0.0
C937 C 0.13214 0.65783 0.48089 0.0
C938 C 0.16238 0.66431 0.49899 0.0
C939 C 0.18234 0.69143 0.49888 0.0
H940 H 0.7212 0.1176 0.72708 0.0
H941 H 0.69132 0.08704 0.8048 0.0
H942 H 0.68228 0.15764 0.73199 0.0
H943 H 0.65298 0.12812 0.81022 0.0
H944 H 0.55083 0.17142 0.78234 0.0
H945 H 0.59817 0.13862 0.7882 0.0
H946 H 0.66856 0.20326 0.75584 0.0
H947 H 0.62077 0.23553 0.74893 0.0
C948 C 0.70688 0.11977 0.74557 0.0
C949 C 0.70902 0.09878 0.76534 0.0
C950 C 0.68469 0.14301 0.74851 0.0
C951 C 0.66429 0.14605 0.77144 0.0
C952 C 0.66789 0.12609 0.79207 0.0
C953 C 0.68999 0.10263 0.78902 0.0
C954 C 0.57653 0.17884 0.77688 0.0
C955 C 0.58196 0.20578 0.7647 0.0
C956 C 0.60379 0.16011 0.78043 0.0
C957 C 0.63712 0.16812 0.77217 0.0
C958 C 0.64302 0.19609 0.7618 0.0
C959 C 0.61567 0.21462 0.75791 0.0
H960 H 0.84483 0.60718 0.18661 0.0
H961 H 0.77874 0.54035 0.13453 0.0
H962 H 0.84925 0.63746 0.14747 0.0
H963 H 0.78367 0.57032 0.09518 0.0
H964 H 0.85525 0.68525 0.06959 0.0
H965 H 0.86589 0.64478 0.09941 0.0
H966 H 0.75577 0.61755 0.09048 0.0
H967 H 0.74541 0.65747 0.06098 0.0
C968 C 0.83218 0.59856 0.16654 0.0
C969 C 0.81093 0.57178 0.16361 0.0
C970 C 0.83488 0.61579 0.14408 0.0
C971 C 0.81634 0.60645 0.1184 0.0
C972 C 0.79776 0.57827 0.11488 0.0
C973 C 0.79502 0.56109 0.13734 0.0
C974 C 0.83357 0.6702 0.07374 0.0
C975 C 0.79951 0.67453 0.06335 0.0
C976 C 0.83961 0.64716 0.09076 0.0
C977 C 0.81169 0.62796 0.0972 0.0
C978 C 0.77794 0.6316 0.08558 0.0
C979 C 0.77192 0.65469 0.06892 0.0
H980 H 0.92556 0.57558 0.44644 0.0
H981 H 0.94825 0.48863 0.40877 0.0
H982 H 0.88351 0.58064 0.40704 0.0
H983 H 0.90671 0.49382 0.36971 0.0
H984 H 0.80485 0.497 0.31815 0.0
H985 H 0.84319 0.4945 0.36012 0.0
H986 H 0.88157 0.58624 0.3561 0.0
H987 H 0.84287 0.58879 0.31417 0.0
C988 C 0.92176 0.55763 0.42978 0.0
C989 C 0.94037 0.5317 0.43088 0.0
C990 C 0.89771 0.56056 0.40718 0.0
C991 C 0.89148 0.5375 0.38534 0.0
C992 C 0.91036 0.51178 0.38639 0.0
C993 C 0.9345 0.50895 0.40876 0.0
C994 C 0.82118 0.51674 0.3264 0.0
C995 C 0.82105 0.54303 0.31277 0.0
C996 C 0.84334 0.51525 0.35034 0.0
C997 C 0.86578 0.54007 0.3613 0.0
C998 C 0.86454 0.56678 0.34829 0.0
C999 C 0.84248 0.56821 0.32422 0.0
H1000 H 0.14999 0.45251 0.7014 0.0
H1001 H 0.21674 0.52674 0.68118 0.0
H1002 H 0.11352 0.45491 0.65821 0.0
H1003 H 0.18042 0.52923 0.63799 0.0
H1004 H 0.07836 0.54961 0.58835 0.0
H1005 H 0.11862 0.54365 0.62821 0.0
H1006 H 0.11482 0.44837 0.60506 0.0
H1007 H 0.07444 0.45431 0.56471 0.0
C1008 C 0.15713 0.46905 0.68748 0.0
C1009 C 0.18639 0.48925 0.69448 0.0
C1010 C 0.13635 0.47035 0.66272 0.0
C1011 C 0.14404 0.49228 0.64468 0.0
C1012 C 0.17372 0.51215 0.6515 0.0
C1013 C 0.19477 0.51055 0.67607 0.0
C1014 C 0.08601 0.52732 0.59166 0.0
C1015 C 0.073 0.5024 0.57331 0.0
C1016 C 0.10937 0.52398 0.61443 0.0
C1017 C 0.12007 0.49557 0.61975 0.0
C1018 C 0.10698 0.47055 0.60155 0.0
C1019 C 0.08394 0.47396 0.57841 0.0
H1020 H 0.64267 0.80064 0.20336 0.0
H1021 H 0.5588 0.83312 0.15318 0.0
H1022 H 0.68 0.80249 0.16517 0.0
H1023 H 0.59692 0.83787 0.11548 0.0
H1024 H 0.65352 0.79766 0.04228 0.0
H1025 H 0.61869 0.80819 0.08149 0.0
H1026 H 0.71336 0.82579 0.13596 0.0
H1027 H 0.74758 0.81227 0.09672 0.0
C1028 C 0.63269 0.80911 0.18431 0.0
C1029 C 0.59795 0.81642 0.18091 0.0
C1030 C 0.65417 0.81048 0.16237 0.0
C1031 C 0.64161 0.82009 0.13682 0.0
C1032 C 0.60734 0.82943 0.13436 0.0
C1033 C 0.58552 0.82705 0.15603 0.0
C1034 C 0.66665 0.80421 0.06266 0.0
C1035 C 0.70293 0.80404 0.06679 0.0
C1036 C 0.64678 0.81052 0.08523 0.0
C1037 C 0.66298 0.81762 0.11227 0.0
C1038 C 0.69973 0.8195 0.11576 0.0
C1039 C 0.71946 0.81214 0.09331 0.0
H1040 H 0.68836 0.54768 0.19241 0.0
H1041 H 0.68354 0.45113 0.18399 0.0
H1042 H 0.65306 0.54716 0.14882 0.0
H1043 H 0.6504 0.45023 0.13905 0.0
H1044 H 0.55875 0.4571 0.07454 0.0
H1045 H 0.5976 0.45548 0.1164 0.0
H1046 H 0.64774 0.54104 0.102 0.0
H1047 H 0.6069 0.54337 0.0618 0.0
C1048 C 0.68029 0.5263 0.18083 0.0
C1049 C 0.68852 0.49945 0.19163 0.0
C1050 C 0.66019 0.5259 0.15555 0.0
C1051 C 0.64853 0.4986 0.13989 0.0
C1052 C 0.65793 0.47174 0.1505 0.0
C1053 C 0.6773 0.47218 0.17619 0.0
C1054 C 0.57833 0.47535 0.08039 0.0
C1055 C 0.57972 0.50044 0.06516 0.0
C1056 C 0.60086 0.47447 0.10436 0.0
C1057 C 0.62594 0.49834 0.11322 0.0
C1058 C 0.62824 0.52265 0.09679 0.0
C1059 C 0.60507 0.52389 0.07343 0.0
H1060 H 0.38542 0.47741 0.0049 0.0
H1061 H 0.48128 0.43334 0.01548 0.0
H1062 H 0.35199 0.42922 0.00323 0.0
H1063 H 0.44791 0.38495 0.01344 0.0
H1064 H 0.37419 0.31299 0.04585 0.0
H1065 H 0.4089 0.35978 0.04324 0.0
H1066 H 0.33903 0.38074 0.97501 0.0
H1067 H 0.30454 0.33358 0.97758 0.0
C1068 C 0.39933 0.45735 0.00667 0.0
C1069 C 0.43591 0.4591 0.01048 0.0
C1070 C 0.3802 0.42971 0.00551 0.0
C1071 C 0.39724 0.40321 0.00829 0.0
C1072 C 0.43395 0.40497 0.01157 0.0
C1073 C 0.45308 0.43263 0.0126 0.0
C1074 C 0.36633 0.32757 0.03024 0.0
C1075 C 0.33624 0.31999 0.01229 0.0
C1076 C 0.38633 0.3543 0.02863 0.0
C1077 C 0.37671 0.37411 0.00899 0.0
C1078 C 0.34685 0.36622 0.99068 0.0
C1079 C 0.32695 0.33933 0.99223 0.0
H1080 H 0.07967 0.20399 0.30229 0.0
H1081 H 0.1127 0.21803 0.22068 0.0
H1082 H 0.12082 0.16518 0.30633 0.0
H1083 H 0.15254 0.17852 0.22409 0.0
H1084 H 0.23492 0.11659 0.23987 0.0
H1085 H 0.204 0.16222 0.24518 0.0
H1086 H 0.12466 0.11542 0.28703 0.0
H1087 H 0.15648 0.07037 0.28286 0.0
C1088 C 0.09578 0.19879 0.28525 0.0
C1089 C 0.09283 0.21383 0.26109 0.0
C1090 C 0.11925 0.1765 0.28751 0.0
C1091 C 0.13985 0.16855 0.26547 0.0
C1092 C 0.13758 0.18435 0.24169 0.0
C1093 C 0.11451 0.2069 0.23962 0.0
C1094 C 0.21112 0.11626 0.25055 0.0
C1095 C 0.19786 0.0899 0.26068 0.0
C1096 C 0.19331 0.14233 0.25348 0.0
C1097 C 0.16156 0.14241 0.26616 0.0
C1098 C 0.14922 0.11635 0.27744 0.0
C1099 C 0.16735 0.09041 0.27491 0.0
H1100 H 0.17808 0.3394 0.91071 0.0
H1101 H 0.24572 0.39351 0.97327 0.0
H1102 H 0.17457 0.38193 0.88299 0.0
H1103 H 0.24203 0.43628 0.94561 0.0
H1104 H 0.2771 0.47152 0.8618 0.0
H1105 H 0.26835 0.44184 0.90069 0.0
H1106 H 0.15724 0.43413 0.8787 0.0
H1107 H 0.16616 0.46389 0.83951 0.0
C1108 C 0.19148 0.36064 0.9188 0.0
C1109 C 0.21254 0.3632 0.94382 0.0
C1110 C 0.18925 0.38506 0.90308 0.0
C1111 C 0.20821 0.41234 0.91211 0.0
C1112 C 0.22739 0.41541 0.93811 0.0
C1113 C 0.22945 0.39101 0.95391 0.0
C1114 C 0.25075 0.46405 0.86569 0.0
C1115 C 0.22234 0.46947 0.84755 0.0
C1116 C 0.24568 0.44729 0.88808 0.0
C1117 C 0.21212 0.43552 0.89256 0.0
C1118 C 0.1834 0.44276 0.87551 0.0
C1119 C 0.18847 0.45978 0.8532 0.0
H1120 H 0.3318 0.28157 0.92805 0.0
H1121 H 0.30736 0.1882 0.93842 0.0
H1122 H 0.37212 0.26723 0.89348 0.0
H1123 H 0.34766 0.17384 0.90295 0.0
H1124 H 0.38252 0.18563 0.80603 0.0
H1125 H 0.34719 0.18657 0.8463 0.0
H1126 H 0.4317 0.23655 0.89686 0.0
H1127 H 0.46713 0.23537 0.85694 0.0
C1128 C 0.33487 0.25796 0.92278 0.0
C1129 C 0.31639 0.23595 0.93575 0.0
C1130 C 0.35817 0.24981 0.90324 0.0
C1131 C 0.36306 0.21952 0.89597 0.0
C1132 C 0.34431 0.19734 0.90852 0.0
C1133 C 0.32139 0.20554 0.92865 0.0
C1134 C 0.39387 0.19591 0.826 0.0
C1135 C 0.42722 0.21082 0.82843 0.0
C1136 C 0.37378 0.19632 0.84896 0.0
C1137 C 0.38684 0.21184 0.87437 0.0
C1138 C 0.42123 0.22452 0.87733 0.0
C1139 C 0.44139 0.22385 0.85454 0.0
H1140 H 0.48266 0.53605 0.90394 0.0
H1141 H 0.39177 0.53272 0.9509 0.0
H1142 H 0.44585 0.53723 0.8612 0.0
H1143 H 0.35413 0.53169 0.90779 0.0
H1144 H 0.29622 0.55018 0.82492 0.0
H1145 H 0.33105 0.55427 0.86959 0.0
H1146 H 0.41067 0.50528 0.83035 0.0
H1147 H 0.37688 0.50311 0.7859 0.0
C1148 C 0.45463 0.53578 0.905 0.0
C1149 C 0.43999 0.53456 0.9306 0.0
C1150 C 0.43335 0.53593 0.88044 0.0
C1151 C 0.39669 0.53378 0.88064 0.0
C1152 C 0.38212 0.53358 0.9066 0.0
C1153 C 0.40362 0.5342 0.93137 0.0
C1154 C 0.3212 0.54033 0.82605 0.0
C1155 C 0.33411 0.52666 0.80195 0.0
C1156 C 0.34118 0.54254 0.85167 0.0
C1157 C 0.37426 0.53067 0.85377 0.0
C1158 C 0.38611 0.51578 0.82965 0.0
C1159 C 0.36654 0.51416 0.80409 0.0
H1160 H 0.63123 0.72475 0.96739 0.0
H1161 H 0.72124 0.6872 0.00478 0.0
H1162 H 0.5975 0.67737 0.96788 0.0
H1163 H 0.68691 0.64045 0.00799 0.0
H1164 H 0.62808 0.5502 0.98175 0.0
H1165 H 0.66204 0.59775 0.98258 0.0
H1166 H 0.5684 0.64472 0.99352 0.0
H1167 H 0.53432 0.59689 0.99028 0.0
C1168 C 0.64362 0.70648 0.97637 0.0
C1169 C 0.67871 0.70999 0.98682 0.0
C1170 C 0.62412 0.67928 0.97695 0.0
C1171 C 0.63906 0.6548 0.9883 0.0
C1172 C 0.6743 0.6585 -0.00112 0.0
C1173 C 0.69395 0.68563 -0.00222 0.0
C1174 C 0.6148 0.57074 0.98427 0.0
C1175 C 0.57855 0.56982 0.98619 0.0
C1176 C 0.63436 0.59814 0.98507 0.0
C1177 C 0.61826 0.62546 0.98825 0.0
C1178 C 0.5819 0.62436 0.99059 0.0
C1179 C 0.56228 0.59689 0.98922 0.0
H1180 H 0.93391 0.82828 0.69321 0.0
H1181 H 0.89815 0.81662 0.77447 0.0
H1182 H 0.89156 0.86568 0.68659 0.0
H1183 H 0.85698 0.85469 0.76842 0.0
H1184 H 0.77181 0.91149 0.74814 0.0
H1185 H 0.80523 0.86722 0.74463 0.0
H1186 H 0.884 0.91592 0.70377 0.0
H1187 H 0.84951 0.9597 0.70613 0.0
C1188 C 0.91697 0.83371 0.70964 0.0
C1189 C 0.91942 0.81968 0.73443 0.0
C1190 C 0.8928 0.85519 0.70588 0.0
C1191 C 0.87089 0.86327 0.72697 0.0
C1192 C 0.87291 0.84864 0.75148 0.0
C1193 C 0.89673 0.82693 0.75508 0.0
C1194 C 0.79598 0.91246 0.73795 0.0
C1195 C 0.8084 0.939 0.7277 0.0
C1196 C 0.81524 0.8872 0.7361 0.0
C1197 C 0.84767 0.88819 0.72447 0.0
C1198 C 0.85903 0.91427 0.7127 0.0
C1199 C 0.83938 0.93941 0.71411 0.0
H1200 H 0.52835 0.20546 0.67739 0.0
H1201 H 0.41899 0.17809 0.67733 0.0
H1202 H 0.53325 0.16934 0.63703 0.0
H1203 H 0.42386 0.14174 0.6374 0.0
H1204 H 0.43816 0.09584 0.55097 0.0
H1205 H 0.43311 0.13532 0.58832 0.0
H1206 H 0.53237 0.11525 0.62694 0.0
H1207 H 0.53771 0.07616 0.58946 0.0
C1208 C 0.5053 0.19192 0.66859 0.0
C1209 C 0.47331 0.19454 0.6806 0.0
C1210 C 0.50814 0.17102 0.6456 0.0
C1211 C 0.47901 0.15234 0.63401 0.0
C1212 C 0.44679 0.15583 0.64554 0.0
C1213 C 0.444 0.17662 0.66853 0.0
C1214 C 0.45891 0.09978 0.56743 0.0
C1215 C 0.48831 0.08265 0.56712 0.0
C1216 C 0.45597 0.12242 0.58894 0.0
C1217 C 0.48239 0.12865 0.61069 0.0
C1218 C 0.51175 0.11149 0.61036 0.0
C1219 C 0.51465 0.08881 0.58893 0.0
H1220 H 0.55506 0.35289 0.78914 0.0
H1221 H 0.47506 0.29133 0.81359 0.0
H1222 H 0.5567 0.38166 0.83404 0.0
H1223 H 0.47734 0.31995 0.85959 0.0
H1224 H 0.46514 0.40475 0.92298 0.0
H1225 H 0.46304 0.36869 0.88171 0.0
H1226 H 0.5753 0.37966 0.88187 0.0
H1227 H 0.57711 0.41627 0.92247 0.0
C1228 C 0.53799 0.34529 0.80431 0.0
C1229 C 0.51519 0.31961 0.7979 0.0
C1230 C 0.53919 0.36169 0.83027 0.0
C1231 C 0.5176 0.35296 0.85076 0.0
C1232 C 0.49441 0.32731 0.84434 0.0
C1233 C 0.49327 0.31074 0.81811 0.0
C1234 C 0.48937 0.39908 0.91437 0.0
C1235 C 0.52128 0.41356 0.92572 0.0
C1236 C 0.48819 0.3783 0.89078 0.0
C1237 C 0.51893 0.37155 0.87812 0.0
C1238 C 0.551 0.38481 0.89063 0.0
C1239 C 0.55213 0.40565 0.91404 0.0
H1240 H 0.47699 0.86879 0.29455 0.0
H1241 H 0.5581 0.82471 0.33721 0.0
H1242 H 0.47433 0.9042 0.3352 0.0
H1243 H 0.55814 0.8618 0.37746 0.0
H1244 H 0.53543 0.92256 0.45433 0.0
H1245 H 0.53562 0.88342 0.41594 0.0
H1246 H 0.50022 0.9458 0.35863 0.0
H1247 H 0.49731 0.98358 0.39739 0.0
C1248 C 0.49435 0.86682 0.31282 0.0
C1249 C 0.51761 0.84405 0.31286 0.0
C1250 C 0.49335 0.8875 0.33611 0.0
C1251 C 0.51667 0.88679 0.35983 0.0
C1252 C 0.53945 0.86327 0.35997 0.0
C1253 C 0.53958 0.84191 0.33686 0.0
C1254 C 0.52786 0.92776 0.43342 0.0
C1255 C 0.51625 0.95606 0.42884 0.0
C1256 C 0.52805 0.90531 0.41125 0.0
C1257 C 0.51747 0.91085 0.38376 0.0
C1258 C 0.50732 0.93983 0.37933 0.0
C1259 C 0.50611 0.96186 0.40157 0.0
H1260 H 0.51639 0.64314 0.06054 0.0
H1261 H 0.45019 0.58359 0.10232 0.0
H1262 H 0.52086 0.67965 0.10187 0.0
H1263 H 0.45409 0.61987 0.14311 0.0
H1264 H 0.50451 0.66904 0.22225 0.0
H1265 H 0.50032 0.63699 0.17875 0.0
H1266 H 0.48826 0.71427 0.13286 0.0
H1267 H 0.49296 0.7467 0.17693 0.0
C1268 C 0.50236 0.6381 0.07836 0.0
C1269 C 0.48313 0.61046 0.07831 0.0
C1270 C 0.50487 0.65898 0.102 0.0
C1271 C 0.4883 0.65249 0.126 0.0
C1272 C 0.46786 0.62534 0.12528 0.0
C1273 C 0.46539 0.60461 0.1018 0.0
C1274 C 0.50108 0.67927 0.20291 0.0
C1275 C 0.49865 0.71033 0.20301 0.0
C1276 C 0.49845 0.66086 0.17793 0.0
C1277 C 0.49328 0.67294 0.15227 0.0
C1278 C 0.49218 0.70424 0.15225 0.0
C1279 C 0.49479 0.72279 0.17744 0.0
loop_
_geom_bond_atom_site_label_1
_geom_bond_atom_site_label_2
_geom_bond_distance
_geom_bond_site_symmetry_2
_ccdc_geom_bond_type
Tb0 O3 2.453 1_565 S
Tb0 O4 2.596 1_566 S
Tb0 O5 2.374 1_556 S
Tb0 O13 2.361 1_455 S
Tb0 O15 2.353 1_465 S
Tb0 O17 2.427 . S
Tb0 O18 2.513 . S
C1 O5 1.251 . S
C1 O7 1.263 1_565 S
Tb2 O4 2.343 1_655 S
Tb2 O7 2.353 1_655 S
Tb2 O10 2.428 . S
Tb2 O11 2.513 . S
Tb2 O12 2.453 1_545 S
Tb2 O13 2.577 1_544 S
Tb2 O14 2.374 1_554 S
O3 Tb0 2.453 1_545 S
O3 C19 1.245 1_556 S
O4 Tb0 2.596 1_544 S
O4 Tb2 2.343 1_455 S
O4 C19 1.259 . S
O5 Tb0 2.374 1_554 S
O5 C1 1.251 . S
C6 O10 1.276 . S
C6 O11 1.246 . S
O7 C1 1.263 1_545 S
O7 Tb2 2.353 1_455 S
C8 O12 1.245 . S
C8 O13 1.247 1_554 S
C9 O14 1.250 . S
C9 O15 1.263 . S
O10 Tb2 2.428 . S
O10 C6 1.276 . S
O11 Tb2 2.513 . S
O11 C6 1.246 . S
O12 Tb2 2.453 1_565 S
O12 C8 1.245 . S
O13 Tb0 2.361 1_655 S
O13 Tb2 2.577 1_566 S
O13 C8 1.247 1_556 S
O14 Tb2 2.374 1_556 S
O14 C9 1.250 . S
O15 Tb0 2.353 1_645 S
O15 C9 1.263 . S
C16 O17 1.275 . S
C16 O18 1.246 . S
O17 Tb0 2.427 . S
O17 C16 1.275 . S
O18 Tb0 2.513 . S
O18 C16 1.246 . S
C19 O3 1.245 1_554 S
C19 O4 1.259 . S
Tb20 O23 2.453 . S
Tb20 O24 2.596 1_655 S
Tb20 O25 2.374 1_655 S
Tb20 O33 2.343 1_655 S
Tb20 O35 2.353 . S
Tb20 O37 2.427 . S
Tb20 O38 2.513 . S
C21 O25 1.251 . S
C21 O27 1.263 . S
Tb22 O24 2.343 . S
Tb22 O27 2.353 . S
Tb22 O30 2.427 . S
Tb22 O31 2.513 . S
Tb22 O32 2.453 . S
Tb22 O33 2.596 . S
Tb22 O34 2.374 1_455 S
O23 Tb20 2.453 . S
O23 C39 1.245 . S
O24 Tb20 2.596 1_455 S
O24 Tb22 2.343 . S
O24 C39 1.259 1_455 S
O25 Tb20 2.374 1_455 S
O25 C21 1.251 . S
C26 O30 1.275 . S
C26 O31 1.246 . S
O27 C21 1.263 . S
O27 Tb22 2.353 . S
C28 O32 1.245 . S
C28 O33 1.259 . S
C29 O34 1.250 . S
C29 O35 1.263 . S
O30 Tb22 2.427 . S
O30 C26 1.275 . S
O31 Tb22 2.513 . S
O31 C26 1.246 . S
O32 Tb22 2.453 . S
O32 C28 1.245 . S
O33 Tb20 2.343 1_455 S
O33 Tb22 2.596 . S
O33 C28 1.259 . S
O34 Tb22 2.374 1_655 S
O34 C29 1.250 . S
O35 Tb20 2.353 . S
O35 C29 1.263 . S
C36 O37 1.275 . S
C36 O38 1.246 . S
O37 Tb20 2.427 . S
O37 C36 1.275 . S
O38 Tb20 2.513 . S
O38 C36 1.246 . S
C39 O23 1.245 . S
C39 O24 1.259 1_655 S
Tb40 O43 2.453 . S
Tb40 O44 2.596 . S
Tb40 O45 2.374 . S
Tb40 O53 2.343 . S
Tb40 O55 2.353 . S
Tb40 O57 2.427 . S
Tb40 O58 2.513 . S
C41 O45 1.251 . S
C41 O47 1.263 . S
Tb42 O44 2.343 . S
Tb42 O47 2.353 . S
Tb42 O50 2.427 . S
Tb42 O51 2.513 . S
Tb42 O52 2.453 . S
Tb42 O53 2.596 . S
Tb42 O54 2.374 . S
O43 Tb40 2.453 . S
O43 C59 1.245 . S
O44 Tb40 2.596 . S
O44 Tb42 2.343 . S
O44 C59 1.259 . S
O45 Tb40 2.374 . S
O45 C41 1.251 . S
C46 O50 1.275 . S
C46 O51 1.246 . S
O47 C41 1.263 . S
O47 Tb42 2.353 . S
C48 O52 1.245 . S
C48 O53 1.259 . S
C49 O54 1.250 . S
C49 O55 1.263 . S
O50 Tb42 2.427 . S
O50 C46 1.275 . S
O51 Tb42 2.513 . S
O51 C46 1.246 . S
O52 Tb42 2.453 . S
O52 C48 1.245 . S
O53 Tb40 2.343 . S
O53 Tb42 2.596 . S
O53 C48 1.259 . S
O54 Tb42 2.374 . S
O54 C49 1.250 . S
O55 Tb40 2.353 . S
O55 C49 1.263 . S
C56 O57 1.275 . S
C56 O58 1.246 . S
O57 Tb40 2.427 . S
O57 C56 1.275 . S
O58 Tb40 2.513 . S
O58 C56 1.246 . S
C59 O43 1.245 . S
C59 O44 1.259 . S
Tb60 O63 2.453 . S
Tb60 O64 2.596 . S
Tb60 O65 2.374 . S
Tb60 O73 2.343 . S
Tb60 O75 2.353 . S
Tb60 O77 2.427 . S
Tb60 O78 2.513 . S
C61 O65 1.251 1_565 S
C61 O67 1.263 . S
Tb62 O64 2.343 1_565 S
Tb62 O67 2.353 . S
Tb62 O70 2.427 . S
Tb62 O71 2.513 . S
Tb62 O72 2.453 . S
Tb62 O73 2.596 1_565 S
Tb62 O74 2.374 1_565 S
O63 Tb60 2.453 . S
O63 C79 1.245 . S
O64 Tb60 2.596 . S
O64 Tb62 2.343 1_545 S
O64 C79 1.259 . S
O65 Tb60 2.374 . S
O65 C61 1.251 1_545 S
C66 O70 1.275 . S
C66 O71 1.246 . S
O67 C61 1.263 . S
O67 Tb62 2.353 . S
C68 O72 1.245 1_545 S
C68 O73 1.259 . S
C69 O74 1.250 . S
C69 O75 1.263 . S
O70 Tb62 2.427 . S
O70 C66 1.275 . S
O71 Tb62 2.513 . S
O71 C66 1.246 . S
O72 Tb62 2.453 . S
O72 C68 1.245 1_565 S
O73 Tb60 2.343 . S
O73 Tb62 2.596 1_545 S
O73 C68 1.259 . S
O74 Tb62 2.374 1_545 S
O74 C69 1.250 . S
O75 Tb60 2.353 . S
O75 C69 1.263 . S
C76 O77 1.275 . S
C76 O78 1.246 . S
O77 Tb60 2.427 . S
O77 C76 1.275 . S
O78 Tb60 2.513 . S
O78 C76 1.246 . S
C79 O63 1.245 . S
C79 O64 1.259 . S
Tb80 O83 2.453 . S
Tb80 O84 2.596 . S
Tb80 O85 2.374 . S
Tb80 O93 2.343 . S
Tb80 O95 2.353 . S
Tb80 O97 2.427 . S
Tb80 O98 2.513 . S
C81 O85 1.251 . S
C81 O87 1.263 . S
Tb82 O84 2.343 . S
Tb82 O87 2.353 . S
Tb82 O90 2.427 . S
Tb82 O91 2.513 . S
Tb82 O92 2.453 . S
Tb82 O93 2.596 . S
Tb82 O94 2.374 . S
O83 Tb80 2.453 . S
O83 C99 1.245 . S
O84 Tb80 2.596 . S
O84 Tb82 2.343 . S
O84 C99 1.259 . S
O85 Tb80 2.374 . S
O85 C81 1.251 . S
C86 O90 1.275 . S
C86 O91 1.246 . S
O87 C81 1.263 . S
O87 Tb82 2.353 . S
C88 O92 1.245 . S
C88 O93 1.259 . S
C89 O94 1.250 . S
C89 O95 1.263 . S
O90 Tb82 2.427 . S
O90 C86 1.275 . S
O91 Tb82 2.513 . S
O91 C86 1.246 . S
O92 Tb82 2.453 . S
O92 C88 1.245 . S
O93 Tb80 2.343 . S
O93 Tb82 2.596 . S
O93 C88 1.259 . S
O94 Tb82 2.374 . S
O94 C89 1.250 . S
O95 Tb80 2.353 . S
O95 C89 1.263 . S
C96 O97 1.275 . S
C96 O98 1.246 . S
O97 Tb80 2.427 . S
O97 C96 1.275 . S
O98 Tb80 2.513 . S
O98 C96 1.246 . S
C99 O83 1.245 . S
C99 O84 1.259 . S
Tb100 O103 2.453 . S
Tb100 O104 2.596 . S
Tb100 O105 2.374 . S
Tb100 O113 2.343 . S
Tb100 O115 2.353 . S
Tb100 O117 2.427 . S
Tb100 O118 2.513 . S
C101 O105 1.251 . S
C101 O107 1.263 . S
Tb102 O104 2.343 . S
Tb102 O107 2.353 . S
Tb102 O110 2.427 . S
Tb102 O111 2.513 . S
Tb102 O112 2.453 . S
Tb102 O113 2.596 . S
Tb102 O114 2.374 . S
O103 Tb100 2.453 . S
O103 C119 1.245 . S
O104 Tb100 2.596 . S
O104 Tb102 2.343 . S
O104 C119 1.259 . S
O105 Tb100 2.374 . S
O105 C101 1.251 . S
C106 O110 1.275 . S
C106 O111 1.246 . S
O107 C101 1.263 . S
O107 Tb102 2.353 . S
C108 O112 1.245 . S
C108 O113 1.259 . S
C109 O114 1.250 . S
C109 O115 1.263 . S
O110 Tb102 2.427 . S
O110 C106 1.275 . S
O111 Tb102 2.513 . S
O111 C106 1.246 . S
O112 Tb102 2.453 . S
O112 C108 1.245 . S
O113 Tb100 2.343 . S
O113 Tb102 2.596 . S
O113 C108 1.259 . S
O114 Tb102 2.374 . S
O114 C109 1.250 . S
O115 Tb100 2.353 . S
O115 C109 1.263 . S
C116 O117 1.275 . S
C116 O118 1.246 . S
O117 Tb100 2.427 . S
O117 C116 1.275 . S
O118 Tb100 2.513 . S
O118 C116 1.246 . S
C119 O103 1.245 . S
C119 O104 1.259 . S
Tb120 O123 2.453 . S
Tb120 O124 2.596 . S
Tb120 O125 2.374 . S
Tb120 O133 2.343 . S
Tb120 O135 2.353 . S
Tb120 O137 2.427 . S
Tb120 O138 2.513 . S
C121 O125 1.251 . S
C121 O127 1.263 . S
Tb122 O124 2.343 . S
Tb122 O127 2.353 . S
Tb122 O130 2.427 . S
Tb122 O131 2.513 . S
Tb122 O132 2.453 . S
Tb122 O133 2.596 . S
Tb122 O134 2.374 . S
O123 Tb120 2.453 . S
O123 C139 1.245 . S
O124 Tb120 2.596 . S
O124 Tb122 2.343 . S
O124 C139 1.259 . S
O125 Tb120 2.374 . S
O125 C121 1.251 . S
C126 O130 1.275 . S
C126 O131 1.246 . S
O127 C121 1.263 . S
O127 Tb122 2.353 . S
C128 O132 1.245 . S
C128 O133 1.259 . S
C129 O134 1.250 . S
C129 O135 1.263 . S
O130 Tb122 2.427 . S
O130 C126 1.275 . S
O131 Tb122 2.513 . S
O131 C126 1.246 . S
O132 Tb122 2.453 . S
O132 C128 1.245 . S
O133 Tb120 2.343 . S
O133 Tb122 2.596 . S
O133 C128 1.259 . S
O134 Tb122 2.374 . S
O134 C129 1.250 . S
O135 Tb120 2.353 . S
O135 C129 1.263 . S
C136 O137 1.275 . S
C136 O138 1.246 . S
O137 Tb120 2.427 . S
O137 C136 1.275 . S
O138 Tb120 2.513 . S
O138 C136 1.246 . S
C139 O123 1.245 . S
C139 O124 1.259 . S
Tb140 O143 2.453 . S
Tb140 O144 2.596 . S
Tb140 O145 2.374 . S
Tb140 O153 2.343 1_455 S
Tb140 O155 2.353 1_455 S
Tb140 O157 2.427 . S
Tb140 O158 2.513 . S
C141 O145 1.251 . S
C141 O147 1.263 . S
Tb142 O144 2.343 1_655 S
Tb142 O147 2.353 1_655 S
Tb142 O150 2.433 . S
Tb142 O151 2.513 . S
Tb142 O152 2.453 . S
Tb142 O153 2.596 . S
Tb142 O154 2.374 . S
O143 Tb140 2.453 . S
O143 C159 1.245 . S
O144 Tb140 2.596 . S
O144 Tb142 2.343 1_455 S
O144 C159 1.259 . S
O145 Tb140 2.374 . S
O145 C141 1.251 . S
C146 O150 1.283 . S
C146 O151 1.246 . S
O147 C141 1.263 . S
O147 Tb142 2.353 1_455 S
C148 O152 1.245 . S
C148 O153 1.259 . S
C149 O154 1.250 . S
C149 O155 1.263 . S
O150 Tb142 2.433 . S
O150 C146 1.283 . S
O151 Tb142 2.513 . S
O151 C146 1.246 . S
O152 Tb142 2.453 . S
O152 C148 1.245 . S
O153 Tb140 2.343 1_655 S
O153 Tb142 2.596 . S
O153 C148 1.259 . S
O154 Tb142 2.374 . S
O154 C149 1.250 . S
O155 Tb140 2.353 1_655 S
O155 C149 1.263 . S
C156 O157 1.275 . S
C156 O158 1.246 . S
O157 Tb140 2.427 . S
O157 C156 1.275 . S
O158 Tb140 2.513 . S
O158 C156 1.246 . S
C159 O143 1.245 . S
C159 O144 1.259 . S
Tb160 O163 2.453 . S
Tb160 O164 2.596 1_556 S
Tb160 O165 2.374 1_556 S
Tb160 O173 2.347 . S
Tb160 O175 2.353 . S
Tb160 O177 2.427 . S
Tb160 O178 2.513 . S
C161 O165 1.251 . S
C161 O167 1.263 . S
Tb162 O164 2.343 . S
Tb162 O167 2.353 . S
Tb162 O170 2.427 . S
Tb162 O171 2.513 . S
Tb162 O172 2.453 . S
Tb162 O173 2.590 1_554 S
Tb162 O174 2.374 1_554 S
O163 Tb160 2.453 . S
O163 C179 1.245 . S
O164 Tb160 2.596 1_554 S
O164 Tb162 2.343 . S
O164 C179 1.259 1_554 S
O165 Tb160 2.374 1_554 S
O165 C161 1.251 . S
C166 O170 1.275 . S
C166 O171 1.246 . S
O167 C161 1.263 . S
O167 Tb162 2.353 . S
C168 O172 1.245 . S
C168 O173 1.257 1_554 S
C169 O174 1.250 . S
C169 O175 1.263 . S
O170 Tb162 2.427 . S
O170 C166 1.275 . S
O171 Tb162 2.513 . S
O171 C166 1.246 . S
O172 Tb162 2.453 . S
O172 C168 1.245 . S
O173 Tb160 2.347 . S
O173 Tb162 2.590 1_556 S
O173 C168 1.257 1_556 S
O174 Tb162 2.374 1_556 S
O174 C169 1.250 . S
O175 Tb160 2.353 . S
O175 C169 1.263 . S
C176 O177 1.275 . S
C176 O178 1.246 . S
O177 Tb160 2.427 . S
O177 C176 1.275 . S
O178 Tb160 2.513 . S
O178 C176 1.246 . S
C179 O163 1.245 . S
C179 O164 1.259 1_556 S
Tb180 O183 2.453 . S
Tb180 O184 2.596 . S
Tb180 O185 2.374 1_545 S
Tb180 O193 2.343 . S
Tb180 O195 2.353 . S
Tb180 O197 2.427 . S
Tb180 O198 2.513 . S
C181 O185 1.251 . S
C181 O187 1.263 . S
Tb182 O184 2.343 1_565 S
Tb182 O187 2.353 . S
Tb182 O190 2.427 . S
Tb182 O191 2.513 . S
Tb182 O192 2.453 . S
Tb182 O193 2.596 1_565 S
Tb182 O194 2.374 1_565 S
O183 Tb180 2.453 . S
O183 C199 1.245 . S
O184 Tb180 2.596 . S
O184 Tb182 2.343 1_545 S
O184 C199 1.259 . S
O185 Tb180 2.374 1_565 S
O185 C181 1.251 . S
C186 O190 1.275 . S
C186 O191 1.246 . S
O187 C181 1.263 . S
O187 Tb182 2.353 . S
C188 O192 1.245 . S
C188 O193 1.259 1_565 S
C189 O194 1.250 . S
C189 O195 1.263 . S
O190 Tb182 2.427 . S
O190 C186 1.275 . S
O191 Tb182 2.513 . S
O191 C186 1.246 . S
O192 Tb182 2.453 . S
O192 C188 1.245 . S
O193 Tb180 2.343 . S
O193 Tb182 2.596 1_545 S
O193 C188 1.259 1_545 S
O194 Tb182 2.374 1_545 S
O194 C189 1.250 . S
O195 Tb180 2.353 . S
O195 C189 1.263 . S
C196 O197 1.275 . S
C196 O198 1.246 . S
O197 Tb180 2.427 . S
O197 C196 1.275 . S
O198 Tb180 2.513 . S
O198 C196 1.246 . S
C199 O183 1.245 . S
C199 O184 1.259 . S
Tb200 O203 2.453 . S
Tb200 O204 2.596 . S
Tb200 O205 2.374 . S
Tb200 O213 2.343 . S
Tb200 O215 2.353 . S
Tb200 O217 2.427 . S
Tb200 O218 2.513 . S
C201 O205 1.251 . S
C201 O207 1.263 . S
Tb202 O204 2.343 . S
Tb202 O207 2.353 . S
Tb202 O210 2.427 . S
Tb202 O211 2.513 . S
Tb202 O212 2.453 . S
Tb202 O213 2.596 . S
Tb202 O214 2.374 . S
O203 Tb200 2.453 . S
O203 C219 1.245 . S
O204 Tb200 2.596 . S
O204 Tb202 2.343 . S
O204 C219 1.259 . S
O205 Tb200 2.374 . S
O205 C201 1.251 . S
C206 O210 1.275 . S
C206 O211 1.246 . S
O207 C201 1.263 . S
O207 Tb202 2.353 . S
C208 O212 1.245 . S
C208 O213 1.259 . S
C209 O214 1.250 . S
C209 O215 1.263 . S
O210 Tb202 2.427 . S
O210 C206 1.275 . S
O211 Tb202 2.513 . S
O211 C206 1.246 . S
O212 Tb202 2.453 . S
O212 C208 1.245 . S
O213 Tb200 2.343 . S
O213 Tb202 2.596 . S
O213 C208 1.259 . S
O214 Tb202 2.374 . S
O214 C209 1.250 . S
O215 Tb200 2.353 . S
O215 C209 1.263 . S
C216 O217 1.275 . S
C216 O218 1.246 . S
O217 Tb200 2.427 . S
O217 C216 1.275 . S
O218 Tb200 2.513 . S
O218 C216 1.246 . S
C219 O203 1.245 . S
C219 O204 1.259 . S
Tb220 O223 2.453 . S
Tb220 O224 2.596 1_655 S
Tb220 O225 2.374 1_655 S
Tb220 O233 2.343 1_655 S
Tb220 O235 2.353 . S
Tb220 O237 2.427 . S
Tb220 O238 2.513 . S
C221 O225 1.251 . S
C221 O227 1.263 . S
Tb222 O224 2.343 . S
Tb222 O227 2.353 . S
Tb222 O230 2.427 . S
Tb222 O231 2.513 . S
Tb222 O232 2.453 . S
Tb222 O233 2.596 . S
Tb222 O234 2.374 1_455 S
O223 Tb220 2.453 . S
O223 C239 1.245 . S
O224 Tb220 2.596 1_455 S
O224 Tb222 2.343 . S
O224 C239 1.259 1_455 S
O225 Tb220 2.374 1_455 S
O225 C221 1.251 . S
C226 O230 1.275 . S
C226 O231 1.246 . S
O227 C221 1.263 . S
O227 Tb222 2.353 . S
C228 O232 1.245 . S
C228 O233 1.259 . S
C229 O234 1.250 . S
C229 O235 1.263 . S
O230 Tb222 2.427 . S
O230 C226 1.275 . S
O231 Tb222 2.513 . S
O231 C226 1.246 . S
O232 Tb222 2.453 . S
O232 C228 1.245 . S
O233 Tb220 2.343 1_455 S
O233 Tb222 2.596 . S
O233 C228 1.259 . S
O234 Tb222 2.374 1_655 S
O234 C229 1.250 . S
O235 Tb220 2.353 . S
O235 C229 1.263 . S
C236 O237 1.275 . S
C236 O238 1.246 . S
O237 Tb220 2.427 . S
O237 C236 1.275 . S
O238 Tb220 2.513 . S
O238 C236 1.246 . S
C239 O223 1.245 . S
C239 O224 1.259 1_655 S
Tb240 O243 2.453 . S
Tb240 O244 2.596 . S
Tb240 O245 2.374 . S
Tb240 O253 2.343 . S
Tb240 O255 2.353 . S
Tb240 O257 2.427 . S
Tb240 O258 2.513 . S
C241 O245 1.251 . S
C241 O247 1.263 . S
Tb242 O244 2.343 . S
Tb242 O247 2.353 . S
Tb242 O250 2.427 . S
Tb242 O251 2.513 . S
Tb242 O252 2.453 . S
Tb242 O253 2.596 . S
Tb242 O254 2.374 . S
O243 Tb240 2.453 . S
O243 C259 1.245 . S
O244 Tb240 2.596 . S
O244 Tb242 2.343 . S
O244 C259 1.259 . S
O245 Tb240 2.374 . S
O245 C241 1.251 . S
C246 O250 1.275 . S
C246 O251 1.246 . S
O247 C241 1.263 . S
O247 Tb242 2.353 . S
C248 O252 1.245 . S
C248 O253 1.259 . S
C249 O254 1.250 . S
C249 O255 1.263 . S
O250 Tb242 2.427 . S
O250 C246 1.275 . S
O251 Tb242 2.513 . S
O251 C246 1.246 . S
O252 Tb242 2.453 . S
O252 C248 1.245 . S
O253 Tb240 2.343 . S
O253 Tb242 2.596 . S
O253 C248 1.259 . S
O254 Tb242 2.374 . S
O254 C249 1.250 . S
O255 Tb240 2.353 . S
O255 C249 1.263 . S
C256 O257 1.275 . S
C256 O258 1.246 . S
O257 Tb240 2.427 . S
O257 C256 1.275 . S
O258 Tb240 2.513 . S
O258 C256 1.246 . S
C259 O243 1.245 . S
C259 O244 1.259 . S
Tb260 O263 2.453 . S
Tb260 O264 2.596 1_556 S
Tb260 O265 2.374 1_556 S
Tb260 O273 2.343 1_556 S
Tb260 O275 2.353 . S
Tb260 O277 2.427 . S
Tb260 O278 2.513 . S
C261 O265 1.251 . S
C261 O267 1.263 . S
Tb262 O264 2.343 . S
Tb262 O267 2.353 . S
Tb262 O270 2.427 . S
Tb262 O271 2.513 . S
Tb262 O272 2.453 . S
Tb262 O273 2.596 . S
Tb262 O274 2.374 1_554 S
O263 Tb260 2.453 . S
O263 C279 1.245 . S
O264 Tb260 2.596 1_554 S
O264 Tb262 2.343 . S
O264 C279 1.259 1_554 S
O265 Tb260 2.374 1_554 S
O265 C261 1.251 . S
C266 O270 1.275 . S
C266 O271 1.246 . S
O267 C261 1.263 . S
O267 Tb262 2.353 . S
C268 O272 1.245 . S
C268 O273 1.259 . S
C269 O274 1.250 . S
C269 O275 1.263 . S
O270 Tb262 2.427 . S
O270 C266 1.275 . S
O271 Tb262 2.513 . S
O271 C266 1.246 . S
O272 Tb262 2.453 . S
O272 C268 1.245 . S
O273 Tb260 2.343 1_554 S
O273 Tb262 2.596 . S
O273 C268 1.259 . S
O274 Tb262 2.374 1_556 S
O274 C269 1.250 . S
O275 Tb260 2.353 . S
O275 C269 1.263 . S
C276 O277 1.275 . S
C276 O278 1.246 . S
O277 Tb260 2.427 . S
O277 C276 1.275 . S
O278 Tb260 2.513 . S
O278 C276 1.246 . S
C279 O263 1.245 . S
C279 O264 1.259 1_556 S
Tb280 O283 2.453 . S
Tb280 O284 2.596 . S
Tb280 O285 2.374 . S
Tb280 O293 2.343 1_565 S
Tb280 O295 2.353 1_565 S
Tb280 O297 2.427 1_565 S
Tb280 O298 2.513 . S
C281 O285 1.251 . S
C281 O287 1.263 . S
Tb282 O284 2.343 1_545 S
Tb282 O287 2.353 1_545 S
Tb282 O290 2.427 . S
Tb282 O291 2.513 . S
Tb282 O292 2.453 . S
Tb282 O293 2.596 . S
Tb282 O294 2.374 . S
O283 Tb280 2.453 . S
O283 C299 1.245 . S
O284 Tb280 2.596 . S
O284 Tb282 2.343 1_565 S
O284 C299 1.259 . S
O285 Tb280 2.374 . S
O285 C281 1.251 . S
C286 O290 1.275 . S
C286 O291 1.246 . S
O287 C281 1.263 . S
O287 Tb282 2.353 1_565 S
C288 O292 1.245 . S
C288 O293 1.259 . S
C289 O294 1.250 . S
C289 O295 1.263 . S
O290 Tb282 2.427 . S
O290 C286 1.275 . S
O291 Tb282 2.513 . S
O291 C286 1.246 . S
O292 Tb282 2.453 . S
O292 C288 1.245 . S
O293 Tb280 2.343 1_545 S
O293 Tb282 2.596 . S
O293 C288 1.259 . S
O294 Tb282 2.374 . S
O294 C289 1.250 . S
O295 Tb280 2.353 1_545 S
O295 C289 1.263 . S
C296 O297 1.275 . S
C296 O298 1.246 1_545 S
O297 Tb280 2.427 1_545 S
O297 C296 1.275 . S
O298 Tb280 2.513 . S
O298 C296 1.246 1_565 S
C299 O283 1.245 . S
C299 O284 1.259 . S
Tb300 O303 2.453 . S
Tb300 O304 2.596 1_556 S
Tb300 O305 2.374 1_556 S
Tb300 O313 2.355 . S
Tb300 O315 2.353 . S
Tb300 O317 2.427 . S
Tb300 O318 2.513 . S
C301 O305 1.251 . S
C301 O307 1.263 . S
Tb302 O304 2.343 . S
Tb302 O307 2.353 . S
Tb302 O310 2.427 . S
Tb302 O311 2.513 . S
Tb302 O312 2.453 . S
Tb302 O313 2.583 1_554 S
Tb302 O314 2.374 1_554 S
O303 Tb300 2.453 . S
O303 C319 1.212 1_556 S
O304 Tb300 2.596 1_554 S
O304 Tb302 2.343 . S
O304 C319 1.276 . S
O305 Tb300 2.374 1_554 S
O305 C301 1.251 . S
C306 O310 1.275 . S
C306 O311 1.246 . S
O307 C301 1.263 . S
O307 Tb302 2.353 . S
C308 O312 1.245 . S
C308 O313 1.251 1_554 S
C309 O314 1.250 . S
C309 O315 1.263 . S
O310 Tb302 2.427 . S
O310 C306 1.275 . S
O311 Tb302 2.513 . S
O311 C306 1.246 . S
O312 Tb302 2.453 . S
O312 C308 1.245 . S
O313 Tb300 2.355 . S
O313 Tb302 2.583 1_556 S
O313 C308 1.251 1_556 S
O314 Tb302 2.374 1_556 S
O314 C309 1.250 . S
O315 Tb300 2.353 . S
O315 C309 1.263 . S
C316 O317 1.275 . S
C316 O318 1.246 . S
O317 Tb300 2.427 . S
O317 C316 1.275 . S
O318 Tb300 2.513 . S
O318 C316 1.246 . S
C319 O303 1.212 1_554 S
C319 O304 1.276 . S
H320 C328 0.950 . S
H321 C333 0.950 . S
H322 C330 0.950 . S
H323 C332 0.950 . S
H324 C334 0.950 . S
H325 C336 0.950 . S
H326 C338 0.950 . S
H327 C339 0.950 . S
C328 H320 0.950 . S
C328 C329 1.386 . S
C328 C330 1.391 . S
C329 C328 1.386 . S
C329 C333 1.393 1_655 S
C330 H322 0.950 . S
C330 C328 1.391 . S
C330 C331 1.400 . S
C331 C330 1.400 . S
C331 C332 1.398 1_655 S
C331 C337 1.491 . S
C332 H323 0.950 . S
C332 C331 1.398 1_455 S
C332 C333 1.391 . S
C333 H321 0.950 . S
C333 C329 1.393 1_455 S
C333 C332 1.391 . S
C334 H324 0.950 . S
C334 C335 1.362 1_455 S
C334 C336 1.391 . S
C335 C334 1.362 1_655 S
C335 C339 1.416 . S
C336 H325 0.950 . S
C336 C334 1.391 . S
C336 C337 1.400 1_455 S
C337 C331 1.491 . S
C337 C336 1.400 1_655 S
C337 C338 1.398 . S
C338 H326 0.950 . S
C338 C337 1.398 . S
C338 C339 1.391 . S
C339 H327 0.950 . S
C339 C335 1.416 . S
C339 C338 1.391 . S
H340 C348 0.950 . S
H341 C353 0.950 . S
H342 C350 0.950 . S
H343 C352 0.950 . S
H344 C354 0.950 . S
H345 C356 0.950 . S
H346 C358 0.950 . S
H347 C359 0.950 . S
C348 H340 0.950 . S
C348 C349 1.386 . S
C348 C350 1.391 . S
C349 C348 1.386 . S
C349 C353 1.393 . S
C350 H342 0.950 . S
C350 C348 1.391 . S
C350 C351 1.400 . S
C351 C350 1.400 . S
C351 C352 1.398 . S
C351 C357 1.491 . S
C352 H343 0.950 . S
C352 C351 1.398 . S
C352 C353 1.391 . S
C353 H341 0.950 . S
C353 C349 1.393 . S
C353 C352 1.391 . S
C354 H344 0.950 . S
C354 C355 1.386 . S
C354 C356 1.391 . S
C355 C354 1.386 . S
C355 C359 1.393 . S
C356 H345 0.950 . S
C356 C354 1.391 . S
C356 C357 1.400 . S
C357 C351 1.491 . S
C357 C356 1.400 . S
C357 C358 1.398 . S
C358 H346 0.950 . S
C358 C357 1.398 . S
C358 C359 1.391 . S
C359 H347 0.950 . S
C359 C355 1.393 . S
C359 C358 1.391 . S
H360 C368 0.950 . S
H361 C373 0.950 . S
H362 C370 0.950 . S
H363 C372 0.950 . S
H364 C374 0.950 . S
H365 C376 0.950 . S
H366 C378 0.950 . S
H367 C379 0.950 . S
C368 H360 0.950 . S
C368 C369 1.386 . S
C368 C370 1.391 . S
C369 C368 1.386 . S
C369 C373 1.393 . S
C370 H362 0.950 . S
C370 C368 1.391 . S
C370 C371 1.400 . S
C371 C370 1.400 . S
C371 C372 1.398 . S
C371 C377 1.491 . S
C372 H363 0.950 . S
C372 C371 1.398 . S
C372 C373 1.391 . S
C373 H361 0.950 . S
C373 C369 1.393 . S
C373 C372 1.391 . S
C374 H364 0.950 . S
C374 C375 1.386 . S
C374 C376 1.391 . S
C375 C374 1.386 . S
C375 C379 1.393 . S
C376 H365 0.950 . S
C376 C374 1.391 . S
C376 C377 1.400 . S
C377 C371 1.491 . S
C377 C376 1.400 . S
C377 C378 1.398 . S
C378 H366 0.950 . S
C378 C377 1.398 . S
C378 C379 1.391 . S
C379 H367 0.950 . S
C379 C375 1.393 . S
C379 C378 1.391 . S
H380 C388 0.950 . S
H381 C393 0.950 1_565 S
H382 C390 0.950 . S
H383 C392 0.920 1_565 S
H384 C394 0.950 . S
H385 C396 0.950 . S
H386 C398 0.950 . S
H387 C399 0.950 . S
C388 H380 0.950 . S
C388 C389 1.386 . S
C388 C390 1.391 . S
C389 C388 1.386 . S
C389 C393 1.393 . S
C390 H382 0.950 . S
C390 C388 1.391 . S
C390 C391 1.400 . S
C391 C390 1.400 . S
C391 C392 1.430 . S
C391 C397 1.491 . S
C392 H383 0.920 1_545 S
C392 C391 1.430 . S
C392 C393 1.389 . S
C393 H381 0.950 1_545 S
C393 C389 1.393 . S
C393 C392 1.389 . S
C394 H384 0.950 . S
C394 C395 1.386 1_565 S
C394 C396 1.391 . S
C395 C394 1.386 1_545 S
C395 C399 1.393 . S
C396 H385 0.950 . S
C396 C394 1.391 . S
C396 C397 1.400 1_565 S
C397 C391 1.491 . S
C397 C396 1.400 1_545 S
C397 C398 1.398 . S
C398 H386 0.950 . S
C398 C397 1.398 . S
C398 C399 1.391 . S
C399 H387 0.950 . S
C399 C395 1.393 . S
C399 C398 1.391 . S
H400 C408 0.950 . S
H401 C413 0.950 . S
H402 C410 0.950 . S
H403 C412 0.950 . S
H404 C414 0.950 . S
H405 C416 0.950 . S
H406 C418 0.950 . S
H407 C419 0.950 . S
C408 H400 0.950 . S
C408 C409 1.386 1_545 S
C408 C410 1.391 . S
C409 C408 1.386 1_565 S
C409 C413 1.393 . S
C410 H402 0.950 . S
C410 C408 1.391 . S
C410 C411 1.386 1_545 S
C411 C410 1.386 1_565 S
C411 C412 1.412 . S
C411 C417 1.494 1_565 S
C412 H403 0.950 . S
C412 C411 1.412 . S
C412 C413 1.391 . S
C413 H401 0.950 . S
C413 C409 1.393 . S
C413 C412 1.391 . S
C414 H404 0.950 . S
C414 C415 1.386 1_565 S
C414 C416 1.391 . S
C415 C414 1.386 1_545 S
C415 C419 1.393 . S
C416 H405 0.950 . S
C416 C414 1.391 . S
C416 C417 1.370 1_565 S
C417 C411 1.494 1_545 S
C417 C416 1.370 1_545 S
C417 C418 1.427 . S
C418 H406 0.950 . S
C418 C417 1.427 . S
C418 C419 1.391 . S
C419 H407 0.950 . S
C419 C415 1.393 . S
C419 C418 1.391 . S
H420 C428 0.950 . S
H421 C433 0.950 . S
H422 C430 0.950 . S
H423 C432 0.950 . S
H424 C434 0.950 . S
H425 C436 0.950 . S
H426 C438 0.950 . S
H427 C439 0.950 . S
C428 H420 0.950 . S
C428 C429 1.386 1_655 S
C428 C430 1.391 . S
C429 C428 1.386 1_455 S
C429 C433 1.393 . S
C430 H422 0.950 . S
C430 C428 1.391 . S
C430 C431 1.400 1_655 S
C431 C430 1.400 1_455 S
C431 C432 1.398 . S
C431 C437 1.491 . S
C432 H423 0.950 . S
C432 C431 1.398 . S
C432 C433 1.391 . S
C433 H421 0.950 . S
C433 C429 1.393 . S
C433 C432 1.391 . S
C434 H424 0.950 . S
C434 C435 1.386 . S
C434 C436 1.391 . S
C435 C434 1.386 . S
C435 C439 1.393 1_455 S
C436 H425 0.950 . S
C436 C434 1.391 . S
C436 C437 1.400 . S
C437 C431 1.491 . S
C437 C436 1.400 . S
C437 C438 1.398 1_455 S
C438 H426 0.950 . S
C438 C437 1.398 1_655 S
C438 C439 1.391 . S
C439 H427 0.950 . S
C439 C435 1.393 1_655 S
C439 C438 1.391 . S
H440 C448 0.950 . S
H441 C453 0.950 . S
H442 C450 0.950 . S
H443 C452 0.950 . S
H444 C454 0.950 . S
H445 C456 0.950 . S
H446 C458 0.950 . S
H447 C459 0.950 . S
C448 H440 0.950 . S
C448 C449 1.386 . S
C448 C450 1.391 . S
C449 C448 1.386 . S
C449 C453 1.393 . S
C450 H442 0.950 . S
C450 C448 1.391 . S
C450 C451 1.400 . S
C451 C450 1.400 . S
C451 C452 1.398 . S
C451 C457 1.491 . S
C452 H443 0.950 . S
C452 C451 1.398 . S
C452 C453 1.391 . S
C453 H441 0.950 . S
C453 C449 1.393 . S
C453 C452 1.391 . S
C454 H444 0.950 . S
C454 C455 1.386 . S
C454 C456 1.391 . S
C455 C454 1.386 . S
C455 C459 1.393 . S
C456 H445 0.950 . S
C456 C454 1.391 . S
C456 C457 1.400 . S
C457 C451 1.491 . S
C457 C456 1.400 . S
C457 C458 1.398 . S
C458 H446 0.950 . S
C458 C457 1.398 . S
C458 C459 1.391 . S
C459 H447 0.950 . S
C459 C455 1.393 . S
C459 C458 1.391 . S
H460 C468 0.950 . S
H461 C473 0.950 . S
H462 C470 0.950 . S
H463 C472 0.950 . S
H464 C474 0.950 . S
H465 C476 0.950 . S
H466 C478 0.950 . S
H467 C479 0.950 . S
C468 H460 0.950 . S
C468 C469 1.386 . S
C468 C470 1.391 . S
C469 C468 1.386 . S
C469 C473 1.393 . S
C470 H462 0.950 . S
C470 C468 1.391 . S
C470 C471 1.400 . S
C471 C470 1.400 . S
C471 C472 1.398 . S
C471 C477 1.491 . S
C472 H463 0.950 . S
C472 C471 1.398 . S
C472 C473 1.391 . S
C473 H461 0.950 . S
C473 C469 1.393 . S
C473 C472 1.391 . S
C474 H464 0.950 . S
C474 C475 1.386 . S
C474 C476 1.391 . S
C475 C474 1.386 . S
C475 C479 1.393 . S
C476 H465 0.950 . S
C476 C474 1.391 . S
C476 C477 1.400 . S
C477 C471 1.491 . S
C477 C476 1.400 . S
C477 C478 1.398 . S
C478 H466 0.950 . S
C478 C477 1.398 . S
C478 C479 1.391 . S
C479 H467 0.950 . S
C479 C475 1.393 . S
C479 C478 1.391 . S
H480 C488 0.950 . S
H481 C493 0.950 . S
H482 C490 0.950 . S
H483 C492 0.950 . S
H484 C494 0.950 . S
H485 C496 0.950 . S
H486 C498 0.950 . S
H487 C499 0.950 . S
C488 H480 0.950 . S
C488 C489 1.386 . S
C488 C490 1.391 . S
C489 C488 1.386 . S
C489 C493 1.393 . S
C490 H482 0.950 . S
C490 C488 1.391 . S
C490 C491 1.400 . S
C491 C490 1.400 . S
C491 C492 1.398 . S
C491 C497 1.491 . S
C492 H483 0.950 . S
C492 C491 1.398 . S
C492 C493 1.391 . S
C493 H481 0.950 . S
C493 C489 1.393 . S
C493 C492 1.391 . S
C494 H484 0.950 . S
C494 C495 1.386 . S
C494 C496 1.391 . S
C495 C494 1.386 . S
C495 C499 1.393 . S
C496 H485 0.950 . S
C496 C494 1.391 . S
C496 C497 1.400 . S
C497 C491 1.491 . S
C497 C496 1.400 . S
C497 C498 1.398 . S
C498 H486 0.950 . S
C498 C497 1.398 . S
C498 C499 1.391 . S
C499 H487 0.950 . S
C499 C495 1.393 . S
C499 C498 1.391 . S
H500 C508 0.950 . S
H501 C513 0.950 . S
H502 C510 0.950 . S
H503 C512 0.950 . S
H504 C514 0.950 . S
H505 C516 0.950 . S
H506 C518 0.950 . S
H507 C519 0.950 . S
C508 H500 0.950 . S
C508 C509 1.386 . S
C508 C510 1.391 . S
C509 C508 1.386 . S
C509 C513 1.393 . S
C510 H502 0.950 . S
C510 C508 1.391 . S
C510 C511 1.400 . S
C511 C510 1.400 . S
C511 C512 1.398 . S
C511 C517 1.491 . S
C512 H503 0.950 . S
C512 C511 1.398 . S
C512 C513 1.391 . S
C513 H501 0.950 . S
C513 C509 1.393 . S
C513 C512 1.391 . S
C514 H504 0.950 . S
C514 C515 1.386 . S
C514 C516 1.391 . S
C515 C514 1.386 . S
C515 C519 1.393 . S
C516 H505 0.950 . S
C516 C514 1.391 . S
C516 C517 1.400 . S
C517 C511 1.491 . S
C517 C516 1.400 . S
C517 C518 1.398 . S
C518 H506 0.950 . S
C518 C517 1.398 . S
C518 C519 1.391 . S
C519 H507 0.950 . S
C519 C515 1.393 . S
C519 C518 1.391 . S
H520 C528 0.950 . S
H521 C533 0.950 . S
H522 C530 0.950 . S
H523 C532 0.950 . S
H524 C534 0.950 . S
H525 C536 0.950 . S
H526 C538 0.950 1_565 S
H527 C539 0.950 1_565 S
C528 H520 0.950 . S
C528 C529 1.386 1_565 S
C528 C530 1.391 . S
C529 C528 1.386 1_545 S
C529 C533 1.393 . S
C530 H522 0.950 . S
C530 C528 1.391 . S
C530 C531 1.400 1_565 S
C531 C530 1.400 1_545 S
C531 C532 1.398 . S
C531 C537 1.491 . S
C532 H523 0.950 . S
C532 C531 1.398 . S
C532 C533 1.391 . S
C533 H521 0.950 . S
C533 C529 1.393 . S
C533 C532 1.391 . S
C534 H524 0.950 . S
C534 C535 1.386 . S
C534 C536 1.391 . S
C535 C534 1.386 . S
C535 C539 1.393 . S
C536 H525 0.950 . S
C536 C534 1.391 . S
C536 C537 1.400 . S
C537 C531 1.491 . S
C537 C536 1.400 . S
C537 C538 1.398 . S
C538 H526 0.950 1_545 S
C538 C537 1.398 . S
C538 C539 1.391 . S
C539 H527 0.950 1_545 S
C539 C535 1.393 . S
C539 C538 1.391 . S
H540 C548 0.950 . S
H541 C553 0.950 . S
H542 C550 0.950 . S
H543 C552 0.950 . S
H544 C554 0.950 . S
H545 C556 0.950 . S
H546 C558 0.950 . S
H547 C559 0.950 . S
C548 H540 0.950 . S
C548 C549 1.386 1_655 S
C548 C550 1.391 . S
C549 C548 1.386 1_455 S
C549 C553 1.393 . S
C550 H542 0.950 . S
C550 C548 1.391 . S
C550 C551 1.400 1_655 S
C551 C550 1.400 1_455 S
C551 C552 1.398 . S
C551 C557 1.491 . S
C552 H543 0.950 . S
C552 C551 1.398 . S
C552 C553 1.391 . S
C553 H541 0.950 . S
C553 C549 1.393 . S
C553 C552 1.391 . S
C554 H544 0.950 . S
C554 C555 1.386 . S
C554 C556 1.391 . S
C555 C554 1.386 . S
C555 C559 1.393 1_455 S
C556 H545 0.950 . S
C556 C554 1.391 . S
C556 C557 1.400 . S
C557 C551 1.491 . S
C557 C556 1.400 . S
C557 C558 1.398 1_455 S
C558 H546 0.950 . S
C558 C557 1.398 1_655 S
C558 C559 1.391 . S
C559 H547 0.950 . S
C559 C555 1.393 1_655 S
C559 C558 1.391 . S
H560 C568 0.950 . S
H561 C573 0.950 . S
H562 C570 0.950 . S
H563 C572 0.950 . S
H564 C574 0.950 . S
H565 C576 0.950 . S
H566 C578 0.950 . S
H567 C579 0.950 . S
C568 H560 0.950 . S
C568 C569 1.386 1_556 S
C568 C570 1.391 . S
C569 C568 1.386 1_554 S
C569 C573 1.393 . S
C570 H562 0.950 . S
C570 C568 1.391 . S
C570 C571 1.400 1_556 S
C571 C570 1.400 1_554 S
C571 C572 1.398 . S
C571 C577 1.491 . S
C572 H563 0.950 . S
C572 C571 1.398 . S
C572 C573 1.391 . S
C573 H561 0.950 . S
C573 C569 1.393 . S
C573 C572 1.391 . S
C574 H564 0.950 . S
C574 C575 1.386 . S
C574 C576 1.391 . S
C575 C574 1.386 . S
C575 C579 1.393 1_554 S
C576 H565 0.950 . S
C576 C574 1.391 . S
C576 C577 1.400 . S
C577 C571 1.491 . S
C577 C576 1.400 . S
C577 C578 1.398 1_554 S
C578 H566 0.950 . S
C578 C577 1.398 1_556 S
C578 C579 1.391 . S
C579 H567 0.950 . S
C579 C575 1.393 1_556 S
C579 C578 1.391 . S
H580 C588 0.950 . S
H581 C593 0.950 . S
H582 C590 0.950 . S
H583 C592 0.950 . S
H584 C594 0.950 . S
H585 C596 0.950 . S
H586 C598 0.950 . S
H587 C599 0.950 . S
C588 H580 0.950 . S
C588 C589 1.386 . S
C588 C590 1.391 . S
C589 C588 1.386 . S
C589 C593 1.393 . S
C590 H582 0.950 . S
C590 C588 1.391 . S
C590 C591 1.400 . S
C591 C590 1.400 . S
C591 C592 1.398 . S
C591 C597 1.491 . S
C592 H583 0.950 . S
C592 C591 1.398 . S
C592 C593 1.391 . S
C593 H581 0.950 . S
C593 C589 1.393 . S
C593 C592 1.391 . S
C594 H584 0.950 . S
C594 C595 1.386 . S
C594 C596 1.391 . S
C595 C594 1.386 . S
C595 C599 1.393 . S
C596 H585 0.950 . S
C596 C594 1.391 . S
C596 C597 1.400 . S
C597 C591 1.491 . S
C597 C596 1.400 . S
C597 C598 1.398 . S
C598 H586 0.950 . S
C598 C597 1.398 . S
C598 C599 1.391 . S
C599 H587 0.950 . S
C599 C595 1.393 . S
C599 C598 1.391 . S
H600 C608 0.950 . S
H601 C613 0.950 . S
H602 C610 0.950 . S
H603 C612 0.950 . S
H604 C614 0.950 . S
H605 C616 0.950 . S
H606 C618 0.950 . S
H607 C619 0.950 . S
C608 H600 0.950 . S
C608 C609 1.386 . S
C608 C610 1.391 . S
C609 C608 1.386 . S
C609 C613 1.393 . S
C610 H602 0.950 . S
C610 C608 1.391 . S
C610 C611 1.400 . S
C611 C610 1.400 . S
C611 C612 1.398 . S
C611 C617 1.491 . S
C612 H603 0.950 . S
C612 C611 1.398 . S
C612 C613 1.391 . S
C613 H601 0.950 . S
C613 C609 1.393 . S
C613 C612 1.391 . S
C614 H604 0.950 . S
C614 C615 1.386 . S
C614 C616 1.391 . S
C615 C614 1.386 . S
C615 C619 1.393 . S
C616 H605 0.950 . S
C616 C614 1.391 . S
C616 C617 1.400 . S
C617 C611 1.491 . S
C617 C616 1.400 . S
C617 C618 1.398 . S
C618 H606 0.950 . S
C618 C617 1.398 . S
C618 C619 1.391 . S
C619 H607 0.950 . S
C619 C615 1.393 . S
C619 C618 1.391 . S
H620 C628 0.950 . S
H621 C633 0.950 . S
H622 C630 0.950 . S
H623 C632 0.950 . S
H624 C634 0.950 . S
H625 C636 0.950 . S
H626 C638 0.950 . S
H627 C639 0.950 . S
C628 H620 0.950 . S
C628 C629 1.386 . S
C628 C630 1.391 . S
C629 C628 1.386 . S
C629 C633 1.393 . S
C630 H622 0.950 . S
C630 C628 1.391 . S
C630 C631 1.400 . S
C631 C630 1.400 . S
C631 C632 1.398 . S
C631 C637 1.491 . S
C632 H623 0.950 . S
C632 C631 1.398 . S
C632 C633 1.391 . S
C633 H621 0.950 . S
C633 C629 1.393 . S
C633 C632 1.391 . S
C634 H624 0.950 . S
C634 C635 1.386 . S
C634 C636 1.391 . S
C635 C634 1.386 . S
C635 C639 1.393 . S
C636 H625 0.950 . S
C636 C634 1.391 . S
C636 C637 1.400 . S
C637 C631 1.491 . S
C637 C636 1.400 . S
C637 C638 1.398 . S
C638 H626 0.950 . S
C638 C637 1.398 . S
C638 C639 1.391 . S
C639 H627 0.950 . S
C639 C635 1.393 . S
C639 C638 1.391 . S
H640 C648 0.950 . S
H641 C653 0.950 . S
H642 C650 0.950 . S
H643 C652 0.950 . S
H644 C654 0.950 . S
H645 C656 0.950 . S
H646 C658 0.950 . S
H647 C659 0.950 . S
C648 H640 0.950 . S
C648 C649 1.386 . S
C648 C650 1.391 . S
C649 C648 1.386 . S
C649 C653 1.393 . S
C650 H642 0.950 . S
C650 C648 1.391 . S
C650 C651 1.400 . S
C651 C650 1.400 . S
C651 C652 1.398 . S
C651 C657 1.491 . S
C652 H643 0.950 . S
C652 C651 1.398 . S
C652 C653 1.391 . S
C653 H641 0.950 . S
C653 C649 1.393 . S
C653 C652 1.391 . S
C654 H644 0.950 . S
C654 C655 1.386 . S
C654 C656 1.391 . S
C655 C654 1.386 . S
C655 C659 1.393 . S
C656 H645 0.950 . S
C656 C654 1.391 . S
C656 C657 1.400 . S
C657 C651 1.491 . S
C657 C656 1.400 . S
C657 C658 1.398 . S
C658 H646 0.950 . S
C658 C657 1.398 . S
C658 C659 1.391 . S
C659 H647 0.950 . S
C659 C655 1.393 . S
C659 C658 1.391 . S
H660 C668 0.950 . S
H661 C673 0.950 . S
H662 C670 0.950 . S
H663 C672 0.950 . S
H664 C674 0.950 . S
H665 C676 0.950 . S
H666 C678 0.950 . S
H667 C679 0.950 . S
C668 H660 0.950 . S
C668 C669 1.386 . S
C668 C670 1.391 . S
C669 C668 1.386 . S
C669 C673 1.393 . S
C670 H662 0.950 . S
C670 C668 1.391 . S
C670 C671 1.400 . S
C671 C670 1.400 . S
C671 C672 1.398 . S
C671 C677 1.491 . S
C672 H663 0.950 . S
C672 C671 1.398 . S
C672 C673 1.391 . S
C673 H661 0.950 . S
C673 C669 1.393 . S
C673 C672 1.391 . S
C674 H664 0.950 . S
C674 C675 1.386 . S
C674 C676 1.391 . S
C675 C674 1.386 . S
C675 C679 1.393 . S
C676 H665 0.950 . S
C676 C674 1.391 . S
C676 C677 1.400 . S
C677 C671 1.491 . S
C677 C676 1.400 . S
C677 C678 1.398 . S
C678 H666 0.950 . S
C678 C677 1.398 . S
C678 C679 1.391 . S
C679 H667 0.950 . S
C679 C675 1.393 . S
C679 C678 1.391 . S
H680 C688 0.950 . S
H681 C693 0.950 . S
H682 C690 0.950 . S
H683 C692 0.950 . S
H684 C694 0.950 . S
H685 C696 0.950 . S
H686 C698 0.950 . S
H687 C699 0.950 . S
C688 H680 0.950 . S
C688 C689 1.386 . S
C688 C690 1.391 . S
C689 C688 1.386 . S
C689 C693 1.393 . S
C690 H682 0.950 . S
C690 C688 1.391 . S
C690 C691 1.400 . S
C691 C690 1.400 . S
C691 C692 1.398 . S
C691 C697 1.491 . S
C692 H683 0.950 . S
C692 C691 1.398 . S
C692 C693 1.391 . S
C693 H681 0.950 . S
C693 C689 1.393 . S
C693 C692 1.391 . S
C694 H684 0.950 . S
C694 C695 1.386 . S
C694 C696 1.391 . S
C695 C694 1.386 . S
C695 C699 1.393 . S
C696 H685 0.950 . S
C696 C694 1.391 . S
C696 C697 1.400 . S
C697 C691 1.491 . S
C697 C696 1.400 . S
C697 C698 1.398 . S
C698 H686 0.950 . S
C698 C697 1.398 . S
C698 C699 1.391 . S
C699 H687 0.950 . S
C699 C695 1.393 . S
C699 C698 1.391 . S
H700 C708 0.950 . S
H701 C713 0.950 . S
H702 C710 0.950 . S
H703 C712 0.950 . S
H704 C714 0.950 . S
H705 C716 0.950 . S
H706 C718 0.950 . S
H707 C719 0.950 . S
C708 H700 0.950 . S
C708 C709 1.386 . S
C708 C710 1.391 . S
C709 C708 1.386 . S
C709 C713 1.393 . S
C710 H702 0.950 . S
C710 C708 1.391 . S
C710 C711 1.400 . S
C711 C710 1.400 . S
C711 C712 1.398 . S
C711 C717 1.491 . S
C712 H703 0.950 . S
C712 C711 1.398 . S
C712 C713 1.391 . S
C713 H701 0.950 . S
C713 C709 1.393 . S
C713 C712 1.391 . S
C714 H704 0.950 . S
C714 C715 1.386 . S
C714 C716 1.391 . S
C715 C714 1.386 . S
C715 C719 1.393 . S
C716 H705 0.950 . S
C716 C714 1.391 . S
C716 C717 1.400 . S
C717 C711 1.491 . S
C717 C716 1.400 . S
C717 C718 1.398 . S
C718 H706 0.950 . S
C718 C717 1.398 . S
C718 C719 1.391 . S
C719 H707 0.950 . S
C719 C715 1.393 . S
C719 C718 1.391 . S
H720 C728 0.950 . S
H721 C733 0.950 . S
H722 C730 0.950 . S
H723 C732 0.950 . S
H724 C734 0.950 . S
H725 C736 0.950 . S
H726 C738 0.950 . S
H727 C739 0.950 . S
C728 H720 0.950 . S
C728 C729 1.386 . S
C728 C730 1.391 . S
C729 C728 1.386 . S
C729 C733 1.393 . S
C730 H722 0.950 . S
C730 C728 1.391 . S
C730 C731 1.400 . S
C731 C730 1.400 . S
C731 C732 1.398 . S
C731 C737 1.491 . S
C732 H723 0.950 . S
C732 C731 1.398 . S
C732 C733 1.391 . S
C733 H721 0.950 . S
C733 C729 1.393 . S
C733 C732 1.391 . S
C734 H724 0.950 . S
C734 C735 1.386 . S
C734 C736 1.391 . S
C735 C734 1.386 . S
C735 C739 1.393 . S
C736 H725 0.950 . S
C736 C734 1.391 . S
C736 C737 1.400 . S
C737 C731 1.491 . S
C737 C736 1.400 . S
C737 C738 1.398 . S
C738 H726 0.950 . S
C738 C737 1.398 . S
C738 C739 1.391 . S
C739 H727 0.950 . S
C739 C735 1.393 . S
C739 C738 1.391 . S
H740 C748 0.950 . S
H741 C753 0.950 . S
H742 C750 0.950 . S
H743 C752 0.950 . S
H744 C754 0.950 . S
H745 C756 0.950 . S
H746 C758 0.950 . S
H747 C759 0.950 . S
C748 H740 0.950 . S
C748 C749 1.386 . S
C748 C750 1.391 . S
C749 C748 1.386 . S
C749 C753 1.393 1_655 S
C750 H742 0.950 . S
C750 C748 1.391 . S
C750 C751 1.400 . S
C751 C750 1.400 . S
C751 C752 1.398 1_655 S
C751 C757 1.491 . S
C752 H743 0.950 . S
C752 C751 1.398 1_455 S
C752 C753 1.391 . S
C753 H741 0.950 . S
C753 C749 1.393 1_455 S
C753 C752 1.391 . S
C754 H744 0.950 . S
C754 C755 1.386 1_455 S
C754 C756 1.391 . S
C755 C754 1.386 1_655 S
C755 C759 1.393 . S
C756 H745 0.950 . S
C756 C754 1.391 . S
C756 C757 1.400 1_455 S
C757 C751 1.491 . S
C757 C756 1.400 1_655 S
C757 C758 1.398 . S
C758 H746 0.950 . S
C758 C757 1.398 . S
C758 C759 1.391 . S
C759 H747 0.950 . S
C759 C755 1.393 . S
C759 C758 1.391 . S
H760 C768 0.950 . S
H761 C773 0.950 . S
H762 C770 0.950 . S
H763 C772 0.950 . S
H764 C774 0.950 . S
H765 C776 0.950 . S
H766 C778 0.950 . S
H767 C779 0.950 . S
C768 H760 0.950 . S
C768 C769 1.386 . S
C768 C770 1.391 . S
C769 C768 1.386 . S
C769 C773 1.393 . S
C770 H762 0.950 . S
C770 C768 1.391 . S
C770 C771 1.400 . S
C771 C770 1.400 . S
C771 C772 1.398 . S
C771 C777 1.491 . S
C772 H763 0.950 . S
C772 C771 1.398 . S
C772 C773 1.391 . S
C773 H761 0.950 . S
C773 C769 1.393 . S
C773 C772 1.391 . S
C774 H764 0.950 . S
C774 C775 1.386 . S
C774 C776 1.391 . S
C775 C774 1.386 . S
C775 C779 1.393 . S
C776 H765 0.950 . S
C776 C774 1.391 . S
C776 C777 1.400 . S
C777 C771 1.491 . S
C777 C776 1.400 . S
C777 C778 1.398 . S
C778 H766 0.950 . S
C778 C777 1.398 . S
C778 C779 1.391 . S
C779 H767 0.950 . S
C779 C775 1.393 . S
C779 C778 1.391 . S
H780 C788 0.950 . S
H781 C793 0.950 . S
H782 C790 0.950 . S
H783 C792 0.950 . S
H784 C794 0.950 . S
H785 C796 0.950 . S
H786 C798 0.950 . S
H787 C799 0.950 . S
C788 H780 0.950 . S
C788 C789 1.386 . S
C788 C790 1.391 . S
C789 C788 1.386 . S
C789 C793 1.393 . S
C790 H782 0.950 . S
C790 C788 1.391 . S
C790 C791 1.400 . S
C791 C790 1.400 . S
C791 C792 1.398 . S
C791 C797 1.491 . S
C792 H783 0.950 . S
C792 C791 1.398 . S
C792 C793 1.391 . S
C793 H781 0.950 . S
C793 C789 1.393 . S
C793 C792 1.391 . S
C794 H784 0.950 . S
C794 C795 1.386 . S
C794 C796 1.391 . S
C795 C794 1.386 . S
C795 C799 1.393 . S
C796 H785 0.950 . S
C796 C794 1.391 . S
C796 C797 1.400 . S
C797 C791 1.491 . S
C797 C796 1.400 . S
C797 C798 1.398 . S
C798 H786 0.950 . S
C798 C797 1.398 . S
C798 C799 1.391 . S
C799 H787 0.950 . S
C799 C795 1.393 . S
C799 C798 1.391 . S
H800 C808 0.950 . S
H801 C813 0.950 . S
H802 C810 0.950 . S
H803 C812 0.950 . S
H804 C814 0.950 . S
H805 C816 0.950 . S
H806 C818 0.950 . S
H807 C819 0.950 . S
C808 H800 0.950 . S
C808 C809 1.386 . S
C808 C810 1.391 . S
C809 C808 1.386 . S
C809 C813 1.393 . S
C810 H802 0.950 . S
C810 C808 1.391 . S
C810 C811 1.400 . S
C811 C810 1.400 . S
C811 C812 1.398 . S
C811 C817 1.491 . S
C812 H803 0.950 . S
C812 C811 1.398 . S
C812 C813 1.391 . S
C813 H801 0.950 . S
C813 C809 1.393 . S
C813 C812 1.391 . S
C814 H804 0.950 . S
C814 C815 1.386 . S
C814 C816 1.391 . S
C815 C814 1.386 . S
C815 C819 1.393 . S
C816 H805 0.950 . S
C816 C814 1.391 . S
C816 C817 1.400 . S
C817 C811 1.491 . S
C817 C816 1.400 . S
C817 C818 1.398 . S
C818 H806 0.950 . S
C818 C817 1.398 . S
C818 C819 1.391 . S
C819 H807 0.950 . S
C819 C815 1.393 . S
C819 C818 1.391 . S
H820 C828 0.950 . S
H821 C833 0.950 . S
H822 C830 0.950 . S
H823 C832 0.950 . S
H824 C834 0.950 . S
H825 C836 0.950 . S
H826 C838 0.950 . S
H827 C839 0.950 . S
C828 H820 0.950 . S
C828 C829 1.386 . S
C828 C830 1.391 . S
C829 C828 1.386 . S
C829 C833 1.393 . S
C830 H822 0.950 . S
C830 C828 1.391 . S
C830 C831 1.400 . S
C831 C830 1.400 . S
C831 C832 1.398 . S
C831 C837 1.491 . S
C832 H823 0.950 . S
C832 C831 1.398 . S
C832 C833 1.391 . S
C833 H821 0.950 . S
C833 C829 1.393 . S
C833 C832 1.391 . S
C834 H824 0.950 . S
C834 C835 1.386 . S
C834 C836 1.391 . S
C835 C834 1.386 . S
C835 C839 1.393 . S
C836 H825 0.950 . S
C836 C834 1.391 . S
C836 C837 1.400 . S
C837 C831 1.491 . S
C837 C836 1.400 . S
C837 C838 1.398 . S
C838 H826 0.950 . S
C838 C837 1.398 . S
C838 C839 1.391 . S
C839 H827 0.950 . S
C839 C835 1.393 . S
C839 C838 1.391 . S
H840 C848 0.950 . S
H841 C853 0.950 . S
H842 C850 0.950 . S
H843 C852 0.950 . S
H844 C854 0.950 . S
H845 C856 0.950 . S
H846 C858 0.950 . S
H847 C859 0.950 . S
C848 H840 0.950 . S
C848 C849 1.386 . S
C848 C850 1.391 . S
C849 C848 1.386 . S
C849 C853 1.393 1_545 S
C850 H842 0.950 . S
C850 C848 1.391 . S
C850 C851 1.400 . S
C851 C850 1.400 . S
C851 C852 1.398 1_545 S
C851 C857 1.491 . S
C852 H843 0.950 . S
C852 C851 1.398 1_565 S
C852 C853 1.391 . S
C853 H841 0.950 . S
C853 C849 1.393 1_565 S
C853 C852 1.391 . S
C854 H844 0.950 . S
C854 C855 1.386 1_565 S
C854 C856 1.391 . S
C855 C854 1.386 1_545 S
C855 C859 1.393 . S
C856 H845 0.950 . S
C856 C854 1.391 . S
C856 C857 1.400 1_565 S
C857 C851 1.491 . S
C857 C856 1.400 1_545 S
C857 C858 1.398 . S
C858 H846 0.950 . S
C858 C857 1.398 . S
C858 C859 1.391 . S
C859 H847 0.950 . S
C859 C855 1.393 . S
C859 C858 1.391 . S
H860 C868 0.950 . S
H861 C873 0.950 . S
H862 C870 0.950 . S
H863 C872 0.950 . S
H864 C874 0.950 . S
H865 C876 0.950 . S
H866 C878 0.950 . S
H867 C879 0.950 . S
C868 H860 0.950 . S
C868 C869 1.386 1_556 S
C868 C870 1.391 . S
C869 C868 1.386 1_554 S
C869 C873 1.393 . S
C870 H862 0.950 . S
C870 C868 1.391 . S
C870 C871 1.400 1_556 S
C871 C870 1.400 1_554 S
C871 C872 1.398 . S
C871 C877 1.491 . S
C872 H863 0.950 . S
C872 C871 1.398 . S
C872 C873 1.391 . S
C873 H861 0.950 . S
C873 C869 1.393 . S
C873 C872 1.391 . S
C874 H864 0.950 . S
C874 C875 1.386 1_554 S
C874 C876 1.391 . S
C875 C874 1.386 1_556 S
C875 C879 1.393 . S
C876 H865 0.950 . S
C876 C874 1.391 . S
C876 C877 1.400 . S
C877 C871 1.491 . S
C877 C876 1.400 . S
C877 C878 1.398 1_554 S
C878 H866 0.950 . S
C878 C877 1.398 1_556 S
C878 C879 1.391 . S
C879 H867 0.950 . S
C879 C875 1.393 . S
C879 C878 1.391 . S
H880 C888 0.950 . S
H881 C893 0.950 . S
H882 C890 0.950 . S
H883 C892 0.950 . S
H884 C894 0.950 . S
H885 C896 0.950 . S
H886 C898 0.950 . S
H887 C899 0.950 . S
C888 H880 0.950 . S
C888 C889 1.386 . S
C888 C890 1.391 . S
C889 C888 1.386 . S
C889 C893 1.393 . S
C890 H882 0.950 . S
C890 C888 1.391 . S
C890 C891 1.400 . S
C891 C890 1.400 . S
C891 C892 1.398 . S
C891 C897 1.491 . S
C892 H883 0.950 . S
C892 C891 1.398 . S
C892 C893 1.391 . S
C893 H881 0.950 . S
C893 C889 1.393 . S
C893 C892 1.391 . S
C894 H884 0.950 . S
C894 C895 1.386 . S
C894 C896 1.391 . S
C895 C894 1.386 . S
C895 C899 1.393 . S
C896 H885 0.950 . S
C896 C894 1.391 . S
C896 C897 1.400 . S
C897 C891 1.491 . S
C897 C896 1.400 . S
C897 C898 1.398 . S
C898 H886 0.950 . S
C898 C897 1.398 . S
C898 C899 1.391 . S
C899 H887 0.950 . S
C899 C895 1.393 . S
C899 C898 1.391 . S
H900 C908 0.950 . S
H901 C913 0.950 . S
H902 C910 0.950 . S
H903 C912 0.950 . S
H904 C914 0.950 . S
H905 C916 0.950 . S
H906 C918 0.950 . S
H907 C919 0.950 . S
C908 H900 0.950 . S
C908 C909 1.386 . S
C908 C910 1.391 . S
C909 C908 1.386 . S
C909 C913 1.393 . S
C910 H902 0.950 . S
C910 C908 1.391 . S
C910 C911 1.400 . S
C911 C910 1.400 . S
C911 C912 1.398 . S
C911 C917 1.491 . S
C912 H903 0.950 . S
C912 C911 1.398 . S
C912 C913 1.391 . S
C913 H901 0.950 . S
C913 C909 1.393 . S
C913 C912 1.391 . S
C914 H904 0.950 . S
C914 C915 1.386 . S
C914 C916 1.391 . S
C915 C914 1.386 . S
C915 C919 1.393 . S
C916 H905 0.950 . S
C916 C914 1.391 . S
C916 C917 1.400 . S
C917 C911 1.491 . S
C917 C916 1.400 . S
C917 C918 1.398 . S
C918 H906 0.950 . S
C918 C917 1.398 . S
C918 C919 1.391 . S
C919 H907 0.950 . S
C919 C915 1.393 . S
C919 C918 1.391 . S
H920 C928 0.950 . S
H921 C933 0.950 . S
H922 C930 0.950 . S
H923 C932 0.950 . S
H924 C934 0.950 . S
H925 C936 0.950 . S
H926 C938 0.950 . S
H927 C939 0.950 . S
C928 H920 0.950 . S
C928 C929 1.386 . S
C928 C930 1.391 . S
C929 C928 1.386 . S
C929 C933 1.393 . S
C930 H922 0.950 . S
C930 C928 1.391 . S
C930 C931 1.400 . S
C931 C930 1.400 . S
C931 C932 1.398 . S
C931 C937 1.491 . S
C932 H923 0.950 . S
C932 C931 1.398 . S
C932 C933 1.391 . S
C933 H921 0.950 . S
C933 C929 1.393 . S
C933 C932 1.391 . S
C934 H924 0.950 . S
C934 C935 1.386 . S
C934 C936 1.391 . S
C935 C934 1.386 . S
C935 C939 1.393 . S
C936 H925 0.950 . S
C936 C934 1.391 . S
C936 C937 1.400 . S
C937 C931 1.491 . S
C937 C936 1.400 . S
C937 C938 1.398 . S
C938 H926 0.950 . S
C938 C937 1.398 . S
C938 C939 1.391 . S
C939 H927 0.950 . S
C939 C935 1.393 . S
C939 C938 1.391 . S
H940 C948 0.950 . S
H941 C953 0.950 . S
H942 C950 0.950 . S
H943 C952 0.950 . S
H944 C954 0.950 . S
H945 C956 0.950 . S
H946 C958 0.950 . S
H947 C959 0.950 . S
C948 H940 0.950 . S
C948 C949 1.386 . S
C948 C950 1.391 . S
C949 C948 1.386 . S
C949 C953 1.393 . S
C950 H942 0.950 . S
C950 C948 1.391 . S
C950 C951 1.400 . S
C951 C950 1.400 . S
C951 C952 1.398 . S
C951 C957 1.491 . S
C952 H943 0.950 . S
C952 C951 1.398 . S
C952 C953 1.391 . S
C953 H941 0.950 . S
C953 C949 1.393 . S
C953 C952 1.391 . S
C954 H944 0.950 . S
C954 C955 1.386 . S
C954 C956 1.391 . S
C955 C954 1.386 . S
C955 C959 1.393 . S
C956 H945 0.950 . S
C956 C954 1.391 . S
C956 C957 1.400 . S
C957 C951 1.491 . S
C957 C956 1.400 . S
C957 C958 1.398 . S
C958 H946 0.950 . S
C958 C957 1.398 . S
C958 C959 1.391 . S
C959 H947 0.950 . S
C959 C955 1.393 . S
C959 C958 1.391 . S
H960 C968 0.950 . S
H961 C973 0.950 . S
H962 C970 0.950 . S
H963 C972 0.950 . S
H964 C974 0.950 . S
H965 C976 0.950 . S
H966 C978 0.950 . S
H967 C979 0.950 . S
C968 H960 0.950 . S
C968 C969 1.386 . S
C968 C970 1.391 . S
C969 C968 1.386 . S
C969 C973 1.393 . S
C970 H962 0.950 . S
C970 C968 1.391 . S
C970 C971 1.400 . S
C971 C970 1.400 . S
C971 C972 1.398 . S
C971 C977 1.491 . S
C972 H963 0.950 . S
C972 C971 1.398 . S
C972 C973 1.391 . S
C973 H961 0.950 . S
C973 C969 1.393 . S
C973 C972 1.391 . S
C974 H964 0.950 . S
C974 C975 1.386 . S
C974 C976 1.391 . S
C975 C974 1.386 . S
C975 C979 1.393 . S
C976 H965 0.950 . S
C976 C974 1.391 . S
C976 C977 1.400 . S
C977 C971 1.491 . S
C977 C976 1.400 . S
C977 C978 1.398 . S
C978 H966 0.950 . S
C978 C977 1.398 . S
C978 C979 1.391 . S
C979 H967 0.950 . S
C979 C975 1.393 . S
C979 C978 1.391 . S
H980 C988 0.950 . S
H981 C993 0.950 . S
H982 C990 0.950 . S
H983 C992 0.950 . S
H984 C994 0.950 . S
H985 C996 0.950 . S
H986 C998 0.950 . S
H987 C999 0.950 . S
C988 H980 0.950 . S
C988 C989 1.386 . S
C988 C990 1.391 . S
C989 C988 1.386 . S
C989 C993 1.393 . S
C990 H982 0.950 . S
C990 C988 1.391 . S
C990 C991 1.400 . S
C991 C990 1.400 . S
C991 C992 1.398 . S
C991 C997 1.491 . S
C992 H983 0.950 . S
C992 C991 1.398 . S
C992 C993 1.391 . S
C993 H981 0.950 . S
C993 C989 1.393 . S
C993 C992 1.391 . S
C994 H984 0.950 . S
C994 C995 1.386 . S
C994 C996 1.391 . S
C995 C994 1.386 . S
C995 C999 1.393 . S
C996 H985 0.950 . S
C996 C994 1.391 . S
C996 C997 1.400 . S
C997 C991 1.491 . S
C997 C996 1.400 . S
C997 C998 1.398 . S
C998 H986 0.950 . S
C998 C997 1.398 . S
C998 C999 1.391 . S
C999 H987 0.950 . S
C999 C995 1.393 . S
C999 C998 1.391 . S
H1000 C1008 0.950 . S
H1001 C1013 0.950 . S
H1002 C1010 0.950 . S
H1003 C1012 0.950 . S
H1004 C1014 0.950 . S
H1005 C1016 0.950 . S
H1006 C1018 0.950 . S
H1007 C1019 0.950 . S
C1008 H1000 0.950 . S
C1008 C1009 1.386 . S
C1008 C1010 1.391 . S
C1009 C1008 1.386 . S
C1009 C1013 1.393 . S
C1010 H1002 0.950 . S
C1010 C1008 1.391 . S
C1010 C1011 1.400 . S
C1011 C1010 1.400 . S
C1011 C1012 1.398 . S
C1011 C1017 1.491 . S
C1012 H1003 0.950 . S
C1012 C1011 1.398 . S
C1012 C1013 1.391 . S
C1013 H1001 0.950 . S
C1013 C1009 1.393 . S
C1013 C1012 1.391 . S
C1014 H1004 0.950 . S
C1014 C1015 1.386 . S
C1014 C1016 1.391 . S
C1015 C1014 1.386 . S
C1015 C1019 1.393 . S
C1016 H1005 0.950 . S
C1016 C1014 1.391 . S
C1016 C1017 1.400 . S
C1017 C1011 1.491 . S
C1017 C1016 1.400 . S
C1017 C1018 1.398 . S
C1018 H1006 0.950 . S
C1018 C1017 1.398 . S
C1018 C1019 1.391 . S
C1019 H1007 0.950 . S
C1019 C1015 1.393 . S
C1019 C1018 1.391 . S
H1020 C1028 0.950 . S
H1021 C1033 0.950 . S
H1022 C1030 0.950 . S
H1023 C1032 0.950 . S
H1024 C1034 0.950 . S
H1025 C1036 0.950 . S
H1026 C1038 0.950 . S
H1027 C1039 0.950 . S
C1028 H1020 0.950 . S
C1028 C1029 1.386 . S
C1028 C1030 1.391 . S
C1029 C1028 1.386 . S
C1029 C1033 1.393 . S
C1030 H1022 0.950 . S
C1030 C1028 1.391 . S
C1030 C1031 1.400 . S
C1031 C1030 1.400 . S
C1031 C1032 1.398 . S
C1031 C1037 1.491 . S
C1032 H1023 0.950 . S
C1032 C1031 1.398 . S
C1032 C1033 1.391 . S
C1033 H1021 0.950 . S
C1033 C1029 1.393 . S
C1033 C1032 1.391 . S
C1034 H1024 0.950 . S
C1034 C1035 1.386 . S
C1034 C1036 1.391 . S
C1035 C1034 1.386 . S
C1035 C1039 1.393 . S
C1036 H1025 0.950 . S
C1036 C1034 1.391 . S
C1036 C1037 1.400 . S
C1037 C1031 1.491 . S
C1037 C1036 1.400 . S
C1037 C1038 1.398 . S
C1038 H1026 0.950 . S
C1038 C1037 1.398 . S
C1038 C1039 1.391 . S
C1039 H1027 0.950 . S
C1039 C1035 1.393 . S
C1039 C1038 1.391 . S
H1040 C1048 0.950 . S
H1041 C1053 0.950 . S
H1042 C1050 0.950 . S
H1043 C1052 0.950 . S
H1044 C1054 0.950 . S
H1045 C1056 0.950 . S
H1046 C1058 0.950 . S
H1047 C1059 0.950 . S
C1048 H1040 0.950 . S
C1048 C1049 1.386 . S
C1048 C1050 1.391 . S
C1049 C1048 1.386 . S
C1049 C1053 1.393 . S
C1050 H1042 0.950 . S
C1050 C1048 1.391 . S
C1050 C1051 1.400 . S
C1051 C1050 1.400 . S
C1051 C1052 1.398 . S
C1051 C1057 1.491 . S
C1052 H1043 0.950 . S
C1052 C1051 1.398 . S
C1052 C1053 1.391 . S
C1053 H1041 0.950 . S
C1053 C1049 1.393 . S
C1053 C1052 1.391 . S
C1054 H1044 0.950 . S
C1054 C1055 1.386 . S
C1054 C1056 1.391 . S
C1055 C1054 1.386 . S
C1055 C1059 1.393 . S
C1056 H1045 0.950 . S
C1056 C1054 1.391 . S
C1056 C1057 1.400 . S
C1057 C1051 1.491 . S
C1057 C1056 1.400 . S
C1057 C1058 1.398 . S
C1058 H1046 0.950 . S
C1058 C1057 1.398 . S
C1058 C1059 1.391 . S
C1059 H1047 0.950 . S
C1059 C1055 1.393 . S
C1059 C1058 1.391 . S
H1060 C1068 0.950 . S
H1061 C1073 0.950 . S
H1062 C1070 0.950 . S
H1063 C1072 0.950 . S
H1064 C1074 0.950 . S
H1065 C1076 0.950 . S
H1066 C1078 0.950 . S
H1067 C1079 0.950 . S
C1068 H1060 0.950 . S
C1068 C1069 1.397 . S
C1068 C1070 1.391 . S
C1069 C1068 1.397 . S
C1069 C1073 1.379 1_556 S
C1070 H1062 0.950 . S
C1070 C1068 1.391 . S
C1070 C1071 1.376 1_556 S
C1071 C1070 1.376 1_554 S
C1071 C1072 1.418 . S
C1071 C1077 1.495 . S
C1072 H1063 0.950 . S
C1072 C1071 1.418 . S
C1072 C1073 1.391 . S
C1073 H1061 0.950 . S
C1073 C1069 1.379 1_554 S
C1073 C1072 1.391 . S
C1074 H1064 0.950 . S
C1074 C1075 1.386 . S
C1074 C1076 1.391 . S
C1075 C1074 1.386 . S
C1075 C1079 1.393 1_554 S
C1076 H1065 0.950 . S
C1076 C1074 1.391 . S
C1076 C1077 1.400 . S
C1077 C1071 1.495 . S
C1077 C1076 1.400 . S
C1077 C1078 1.398 1_554 S
C1078 H1066 0.950 . S
C1078 C1077 1.398 1_556 S
C1078 C1079 1.391 . S
C1079 H1067 0.950 . S
C1079 C1075 1.393 1_556 S
C1079 C1078 1.391 . S
H1080 C1088 0.950 . S
H1081 C1093 0.950 . S
H1082 C1090 0.950 . S
H1083 C1092 0.950 . S
H1084 C1094 0.950 . S
H1085 C1096 0.950 . S
H1086 C1098 0.950 . S
H1087 C1099 0.950 . S
C1088 H1080 0.950 . S
C1088 C1089 1.386 . S
C1088 C1090 1.391 . S
C1089 C1088 1.386 . S
C1089 C1093 1.393 . S
C1090 H1082 0.950 . S
C1090 C1088 1.391 . S
C1090 C1091 1.400 . S
C1091 C1090 1.400 . S
C1091 C1092 1.398 . S
C1091 C1097 1.491 . S
C1092 H1083 0.950 . S
C1092 C1091 1.398 . S
C1092 C1093 1.391 . S
C1093 H1081 0.950 . S
C1093 C1089 1.393 . S
C1093 C1092 1.391 . S
C1094 H1084 0.950 . S
C1094 C1095 1.386 . S
C1094 C1096 1.391 . S
C1095 C1094 1.386 . S
C1095 C1099 1.393 . S
C1096 H1085 0.950 . S
C1096 C1094 1.391 . S
C1096 C1097 1.400 . S
C1097 C1091 1.491 . S
C1097 C1096 1.400 . S
C1097 C1098 1.398 . S
C1098 H1086 0.950 . S
C1098 C1097 1.398 . S
C1098 C1099 1.391 . S
C1099 H1087 0.950 . S
C1099 C1095 1.393 . S
C1099 C1098 1.391 . S
H1100 C1108 0.950 . S
H1101 C1113 0.950 . S
H1102 C1110 0.950 . S
H1103 C1112 0.950 . S
H1104 C1114 0.950 . S
H1105 C1116 0.950 . S
H1106 C1118 0.950 . S
H1107 C1119 0.950 . S
C1108 H1100 0.950 . S
C1108 C1109 1.386 . S
C1108 C1110 1.391 . S
C1109 C1108 1.386 . S
C1109 C1113 1.393 . S
C1110 H1102 0.950 . S
C1110 C1108 1.391 . S
C1110 C1111 1.400 . S
C1111 C1110 1.400 . S
C1111 C1112 1.398 . S
C1111 C1117 1.491 . S
C1112 H1103 0.950 . S
C1112 C1111 1.398 . S
C1112 C1113 1.391 . S
C1113 H1101 0.950 . S
C1113 C1109 1.393 . S
C1113 C1112 1.391 . S
C1114 H1104 0.950 . S
C1114 C1115 1.386 . S
C1114 C1116 1.391 . S
C1115 C1114 1.386 . S
C1115 C1119 1.393 . S
C1116 H1105 0.950 . S
C1116 C1114 1.391 . S
C1116 C1117 1.400 . S
C1117 C1111 1.491 . S
C1117 C1116 1.400 . S
C1117 C1118 1.398 . S
C1118 H1106 0.950 . S
C1118 C1117 1.398 . S
C1118 C1119 1.391 . S
C1119 H1107 0.950 . S
C1119 C1115 1.393 . S
C1119 C1118 1.391 . S
H1120 C1128 0.950 . S
H1121 C1133 0.950 . S
H1122 C1130 0.950 . S
H1123 C1132 0.950 . S
H1124 C1134 0.950 . S
H1125 C1136 0.950 . S
H1126 C1138 0.950 . S
H1127 C1139 0.950 . S
C1128 H1120 0.950 . S
C1128 C1129 1.386 . S
C1128 C1130 1.391 . S
C1129 C1128 1.386 . S
C1129 C1133 1.393 . S
C1130 H1122 0.950 . S
C1130 C1128 1.391 . S
C1130 C1131 1.400 . S
C1131 C1130 1.400 . S
C1131 C1132 1.398 . S
C1131 C1137 1.491 . S
C1132 H1123 0.950 . S
C1132 C1131 1.398 . S
C1132 C1133 1.391 . S
C1133 H1121 0.950 . S
C1133 C1129 1.393 . S
C1133 C1132 1.391 . S
C1134 H1124 0.950 . S
C1134 C1135 1.386 . S
C1134 C1136 1.391 . S
C1135 C1134 1.386 . S
C1135 C1139 1.393 . S
C1136 H1125 0.950 . S
C1136 C1134 1.391 . S
C1136 C1137 1.400 . S
C1137 C1131 1.491 . S
C1137 C1136 1.400 . S
C1137 C1138 1.398 . S
C1138 H1126 0.950 . S
C1138 C1137 1.398 . S
C1138 C1139 1.391 . S
C1139 H1127 0.950 . S
C1139 C1135 1.393 . S
C1139 C1138 1.391 . S
H1140 C1148 0.950 . S
H1141 C1153 0.950 . S
H1142 C1150 0.950 . S
H1143 C1152 0.950 . S
H1144 C1154 0.950 . S
H1145 C1156 0.950 . S
H1146 C1158 0.950 . S
H1147 C1159 0.950 . S
C1148 H1140 0.950 . S
C1148 C1149 1.386 . S
C1148 C1150 1.391 . S
C1149 C1148 1.386 . S
C1149 C1153 1.393 . S
C1150 H1142 0.950 . S
C1150 C1148 1.391 . S
C1150 C1151 1.400 . S
C1151 C1150 1.400 . S
C1151 C1152 1.398 . S
C1151 C1157 1.491 . S
C1152 H1143 0.950 . S
C1152 C1151 1.398 . S
C1152 C1153 1.391 . S
C1153 H1141 0.950 . S
C1153 C1149 1.393 . S
C1153 C1152 1.391 . S
C1154 H1144 0.950 . S
C1154 C1155 1.386 . S
C1154 C1156 1.391 . S
C1155 C1154 1.386 . S
C1155 C1159 1.393 . S
C1156 H1145 0.950 . S
C1156 C1154 1.391 . S
C1156 C1157 1.400 . S
C1157 C1151 1.491 . S
C1157 C1156 1.400 . S
C1157 C1158 1.398 . S
C1158 H1146 0.950 . S
C1158 C1157 1.398 . S
C1158 C1159 1.391 . S
C1159 H1147 0.950 . S
C1159 C1155 1.393 . S
C1159 C1158 1.391 . S
H1160 C1168 0.950 . S
H1161 C1173 0.950 . S
H1162 C1170 0.950 . S
H1163 C1172 0.950 . S
H1164 C1174 0.950 . S
H1165 C1176 0.950 . S
H1166 C1178 0.950 . S
H1167 C1179 0.950 . S
C1168 H1160 0.950 . S
C1168 C1169 1.386 1_556 S
C1168 C1170 1.391 . S
C1169 C1168 1.386 1_554 S
C1169 C1173 1.393 . S
C1170 H1162 0.950 . S
C1170 C1168 1.391 . S
C1170 C1171 1.400 1_556 S
C1171 C1170 1.400 1_554 S
C1171 C1172 1.398 . S
C1171 C1177 1.491 . S
C1172 H1163 0.950 . S
C1172 C1171 1.398 . S
C1172 C1173 1.391 . S
C1173 H1161 0.950 . S
C1173 C1169 1.393 . S
C1173 C1172 1.391 . S
C1174 H1164 0.950 . S
C1174 C1175 1.386 . S
C1174 C1176 1.391 . S
C1175 C1174 1.386 . S
C1175 C1179 1.393 1_554 S
C1176 H1165 0.950 . S
C1176 C1174 1.391 . S
C1176 C1177 1.400 . S
C1177 C1171 1.491 . S
C1177 C1176 1.400 . S
C1177 C1178 1.398 1_554 S
C1178 H1166 0.950 . S
C1178 C1177 1.398 1_556 S
C1178 C1179 1.391 . S
C1179 H1167 0.950 . S
C1179 C1175 1.393 1_556 S
C1179 C1178 1.391 . S
H1180 C1188 0.950 . S
H1181 C1193 0.950 . S
H1182 C1190 0.950 . S
H1183 C1192 0.950 . S
H1184 C1194 0.950 . S
H1185 C1196 0.950 . S
H1186 C1198 0.950 . S
H1187 C1199 0.950 . S
C1188 H1180 0.950 . S
C1188 C1189 1.386 . S
C1188 C1190 1.391 . S
C1189 C1188 1.386 . S
C1189 C1193 1.393 . S
C1190 H1182 0.950 . S
C1190 C1188 1.391 . S
C1190 C1191 1.400 . S
C1191 C1190 1.400 . S
C1191 C1192 1.398 . S
C1191 C1197 1.491 . S
C1192 H1183 0.950 . S
C1192 C1191 1.398 . S
C1192 C1193 1.391 . S
C1193 H1181 0.950 . S
C1193 C1189 1.393 . S
C1193 C1192 1.391 . S
C1194 H1184 0.950 . S
C1194 C1195 1.386 . S
C1194 C1196 1.391 . S
C1195 C1194 1.386 . S
C1195 C1199 1.393 . S
C1196 H1185 0.950 . S
C1196 C1194 1.391 . S
C1196 C1197 1.400 . S
C1197 C1191 1.491 . S
C1197 C1196 1.400 . S
C1197 C1198 1.398 . S
C1198 H1186 0.950 . S
C1198 C1197 1.398 . S
C1198 C1199 1.391 . S
C1199 H1187 0.950 . S
C1199 C1195 1.393 . S
C1199 C1198 1.391 . S
H1200 C1208 0.950 . S
H1201 C1213 0.950 . S
H1202 C1210 0.950 . S
H1203 C1212 0.950 . S
H1204 C1214 0.950 . S
H1205 C1216 0.950 . S
H1206 C1218 0.950 . S
H1207 C1219 0.950 . S
C1208 H1200 0.950 . S
C1208 C1209 1.386 . S
C1208 C1210 1.391 . S
C1209 C1208 1.386 . S
C1209 C1213 1.393 . S
C1210 H1202 0.950 . S
C1210 C1208 1.391 . S
C1210 C1211 1.400 . S
C1211 C1210 1.400 . S
C1211 C1212 1.398 . S
C1211 C1217 1.491 . S
C1212 H1203 0.950 . S
C1212 C1211 1.398 . S
C1212 C1213 1.391 . S
C1213 H1201 0.950 . S
C1213 C1209 1.393 . S
C1213 C1212 1.391 . S
C1214 H1204 0.950 . S
C1214 C1215 1.386 . S
C1214 C1216 1.391 . S
C1215 C1214 1.386 . S
C1215 C1219 1.393 . S
C1216 H1205 0.950 . S
C1216 C1214 1.391 . S
C1216 C1217 1.400 . S
C1217 C1211 1.491 . S
C1217 C1216 1.400 . S
C1217 C1218 1.398 . S
C1218 H1206 0.950 . S
C1218 C1217 1.398 . S
C1218 C1219 1.391 . S
C1219 H1207 0.950 . S
C1219 C1215 1.393 . S
C1219 C1218 1.391 . S
H1220 C1228 0.950 . S
H1221 C1233 0.950 . S
H1222 C1230 0.950 . S
H1223 C1232 0.950 . S
H1224 C1234 0.950 . S
H1225 C1236 0.950 . S
H1226 C1238 0.950 . S
H1227 C1239 0.950 . S
C1228 H1220 0.950 . S
C1228 C1229 1.386 . S
C1228 C1230 1.391 . S
C1229 C1228 1.386 . S
C1229 C1233 1.393 . S
C1230 H1222 0.950 . S
C1230 C1228 1.391 . S
C1230 C1231 1.400 . S
C1231 C1230 1.400 . S
C1231 C1232 1.398 . S
C1231 C1237 1.491 . S
C1232 H1223 0.950 . S
C1232 C1231 1.398 . S
C1232 C1233 1.391 . S
C1233 H1221 0.950 . S
C1233 C1229 1.393 . S
C1233 C1232 1.391 . S
C1234 H1224 0.950 . S
C1234 C1235 1.386 . S
C1234 C1236 1.391 . S
C1235 C1234 1.386 . S
C1235 C1239 1.393 . S
C1236 H1225 0.950 . S
C1236 C1234 1.391 . S
C1236 C1237 1.400 . S
C1237 C1231 1.491 . S
C1237 C1236 1.400 . S
C1237 C1238 1.398 . S
C1238 H1226 0.950 . S
C1238 C1237 1.398 . S
C1238 C1239 1.391 . S
C1239 H1227 0.950 . S
C1239 C1235 1.393 . S
C1239 C1238 1.391 . S
H1240 C1248 0.950 . S
H1241 C1253 0.950 . S
H1242 C1250 0.950 . S
H1243 C1252 0.950 . S
H1244 C1254 0.950 . S
H1245 C1256 0.950 . S
H1246 C1258 0.950 . S
H1247 C1259 0.950 . S
C1248 H1240 0.950 . S
C1248 C1249 1.386 . S
C1248 C1250 1.391 . S
C1249 C1248 1.386 . S
C1249 C1253 1.393 . S
C1250 H1242 0.950 . S
C1250 C1248 1.391 . S
C1250 C1251 1.400 . S
C1251 C1250 1.400 . S
C1251 C1252 1.398 . S
C1251 C1257 1.491 . S
C1252 H1243 0.950 . S
C1252 C1251 1.398 . S
C1252 C1253 1.391 . S
C1253 H1241 0.950 . S
C1253 C1249 1.393 . S
C1253 C1252 1.391 . S
C1254 H1244 0.950 . S
C1254 C1255 1.386 . S
C1254 C1256 1.391 . S
C1255 C1254 1.386 . S
C1255 C1259 1.393 . S
C1256 H1245 0.950 . S
C1256 C1254 1.391 . S
C1256 C1257 1.400 . S
C1257 C1251 1.491 . S
C1257 C1256 1.400 . S
C1257 C1258 1.398 . S
C1258 H1246 0.950 . S
C1258 C1257 1.398 . S
C1258 C1259 1.391 . S
C1259 H1247 0.950 . S
C1259 C1255 1.393 . S
C1259 C1258 1.391 . S
H1260 C1268 0.950 . S
H1261 C1273 0.950 . S
H1262 C1270 0.950 . S
H1263 C1272 0.950 . S
H1264 C1274 0.950 . S
H1265 C1276 0.950 . S
H1266 C1278 0.950 . S
H1267 C1279 0.950 . S
C1268 H1260 0.950 . S
C1268 C1269 1.386 . S
C1268 C1270 1.391 . S
C1269 C1268 1.386 . S
C1269 C1273 1.393 . S
C1270 H1262 0.950 . S
C1270 C1268 1.391 . S
C1270 C1271 1.400 . S
C1271 C1270 1.400 . S
C1271 C1272 1.398 . S
C1271 C1277 1.491 . S
C1272 H1263 0.950 . S
C1272 C1271 1.398 . S
C1272 C1273 1.391 . S
C1273 H1261 0.950 . S
C1273 C1269 1.393 . S
C1273 C1272 1.391 . S
C1274 H1264 0.950 . S
C1274 C1275 1.386 . S
C1274 C1276 1.391 . S
C1275 C1274 1.386 . S
C1275 C1279 1.393 . S
C1276 H1265 0.950 . S
C1276 C1274 1.391 . S
C1276 C1277 1.400 . S
C1277 C1271 1.491 . S
C1277 C1276 1.400 . S
C1277 C1278 1.398 . S
C1278 H1266 0.950 . S
C1278 C1277 1.398 . S
C1278 C1279 1.391 . S
C1279 H1267 0.950 . S
C1279 C1275 1.393 . S
C1279 C1278 1.391 . S
C329 C6 1.112 . S
C335 C39 1.125 . S
C349 C49 0.929 . S
C355 C36 0.908 . S
C369 C76 0.864 . S
C375 C46 0.876 . S
C389 C9 1.000 . S
C395 C79 0.996 . S
C409 C1 1.001 . S
C415 C188 1.003 1_545 S
C429 C156 1.107 . S
C435 C28 1.111 . S
C449 C41 1.134 . S
C455 C206 1.093 . S
C469 C66 1.001 . S
C475 C276 0.980 . S
C489 C161 0.940 . S
C495 C26 0.930 . S
C509 C246 1.017 . S
C515 C56 1.003 . S
C529 C296 1.049 . S
C535 C68 1.049 . S
C549 C16 1.107 . S
C555 C228 1.126 . S
C569 C19 1.249 . S
C575 C179 1.264 1_554 S
C589 C249 1.447 . S
C595 C81 1.456 . S
C609 C108 1.301 . S
C615 C299 1.298 . S
C629 C221 1.352 . S
C635 C129 1.351 . S
C649 C48 1.271 . S
C655 C148 1.255 . S
C669 C181 1.400 . S
C675 C89 1.388 . S
C689 C121 1.434 . S
C695 C209 1.454 . S
C709 C101 0.939 . S
C715 C226 0.914 . S
C729 C186 0.861 . S
C735 C116 0.881 . S
C749 C239 1.129 . S
C755 C146 1.103 . S
C769 C109 1.132 . S
C775 C96 1.116 . S
C789 C196 0.987 . S
C795 C166 0.987 . S
C809 C269 0.947 . S
C815 C236 0.945 . S
C829 C136 1.023 . S
C835 C106 0.998 . S
C849 C199 1.032 . S
C855 C286 1.034 . S
C869 C268 1.255 . S
C875 C8 1.253 1_556 S
C889 C59 1.308 . S
C895 C288 1.290 . S
C909 C241 1.354 . S
C915 C29 1.349 . S
C929 C159 1.245 . S
C935 C119 1.296 . S
C949 C69 1.397 . S
C955 C201 1.390 . S
C969 C256 0.970 . S
C975 C266 0.986 . S
C989 C149 1.376 . S
C995 C259 1.311 . S
C1009 C128 1.331 . S
C1015 C141 1.382 . S
C1029 C86 0.954 . S
C1035 C261 0.946 . S
C1049 C248 1.309 . S
C1055 C301 1.362 . S
C1069 C308 1.298 1_556 S
C1075 C168 1.307 . S
C1089 C21 1.312 . S
C1095 C189 1.295 . S
C1109 C176 0.989 . S
C1115 C126 0.971 . S
C1129 C169 0.945 . S
C1135 C216 0.954 . S
C1149 C309 1.367 . S
C1155 C139 1.302 . S
C1169 C279 1.310 1_554 S
C1175 C319 1.308 . S
C1189 C229 1.310 . S
C1195 C61 1.295 . S
C1209 C219 1.463 . S
C1215 C289 1.515 . S
C1229 C208 1.418 . S
C1235 C316 1.452 . S
C1249 C88 1.473 . S
C1255 C281 1.509 . S
C1269 C306 1.435 . S
C1275 C99 1.435 . S
