# Generated by pormake.
# Topology unj, (4)-cn, num edge types: 1
# Building blocks:
#     Node 0, Type 0, BuildingBlock: ICAMEG_clean_sbu_1, # of connection points: 4
#     Node 1, Type 0, BuildingBlock: ICAMEG_clean_sbu_1, # of connection points: 4
#     Node 2, Type 0, BuildingBlock: ICAMEG_clean_sbu_1, # of connection points: 4
#     Node 3, Type 0, BuildingBlock: ICAMEG_clean_sbu_1, # of connection points: 4
#     Node 4, Type 0, BuildingBlock: ICAMEG_clean_sbu_1, # of connection points: 4
#     Node 5, Type 0, BuildingBlock: ICAMEG_clean_sbu_1, # of connection points: 4
#     Edge 6, Type (0, 0), BuildingBlock: OJICUG_clean_linker_0, # of connection points: 2
#     Edge 7, Type (0, 0), BuildingBlock: OJICUG_clean_linker_0, # of connection points: 2
#     Edge 8, Type (0, 0), BuildingBlock: OJICUG_clean_linker_0, # of connection points: 2
#     Edge 9, Type (0, 0), BuildingBlock: OJICUG_clean_linker_0, # of connection points: 2
#     Edge 10, Type (0, 0), BuildingBlock: OJICUG_clean_linker_0, # of connection points: 2
#     Edge 11, Type (0, 0), BuildingBlock: OJICUG_clean_linker_0, # of connection points: 2
#     Edge 12, Type (0, 0), BuildingBlock: OJICUG_clean_linker_0, # of connection points: 2
#     Edge 13, Type (0, 0), BuildingBlock: OJICUG_clean_linker_0, # of connection points: 2
#     Edge 14, Type (0, 0), BuildingBlock: OJICUG_clean_linker_0, # of connection points: 2
#     Edge 15, Type (0, 0), BuildingBlock: OJICUG_clean_linker_0, # of connection points: 2
#     Edge 16, Type (0, 0), BuildingBlock: OJICUG_clean_linker_0, # of connection points: 2
#     Edge 17, Type (0, 0), BuildingBlock: OJICUG_clean_linker_0, # of connection points: 2
# Relax obj value: 0.090
# Max RMSD: 0.191
# Mean RMSD: 0.155
data_MOF--net-unj--node1-ICAMEG_clean_sbu_1--edge1-OJICUG_clean_linker_0
_symmetry_space_group_name_H-M    P1
_symmetry_Int_Tables_number       1
_symmetry_cell_setting            triclinic
loop_
_symmetry_equiv_pos_as_xyz
'x, y, z'
_cell_length_a     23.458468
_cell_length_b     26.249303
_cell_length_c     29.513562
_cell_angle_alpha  89.877795
_cell_angle_beta   90.030696
_cell_angle_gamma 120.30622
loop_
_atom_site_label
_atom_site_type_symbol
_atom_site_fract_x
_atom_site_fract_y
_atom_site_fract_z
_atom_type_partial_charge
Co0 Co 0.61343 0.329 0.59867 0.0
Co1 Co 0.46973 0.20401 0.6267 0.0
O2 O 0.53511 0.25487 0.58185 0.0
C3 C 0.61516 0.413 0.52954 0.0
O4 O 0.61864 0.44787 0.56262 0.0
C5 C 0.49236 0.11826 0.57334 0.0
O6 O 0.55614 0.15044 0.58074 0.0
O7 O 0.5395 0.20066 0.66335 0.0
O8 O 0.61964 0.29557 0.6584 0.0
H9 H 0.3804 0.13758 0.78394 0.0
H10 H 0.6093 0.2713 0.51159 0.0
O11 O 0.60898 0.36282 0.5385 0.0
H12 H 0.80112 0.2875 0.59332 0.0
H13 H 0.8369 0.50934 0.57179 0.0
H14 H 0.65666 0.40178 0.68181 0.0
H15 H 0.73378 0.32531 0.62726 0.0
H16 H 0.73779 0.41554 0.55066 0.0
O17 O 0.45289 0.13292 0.59059 0.0
H18 H 0.46203 0.20232 0.72707 0.0
H19 H 0.33777 0.09431 0.62088 0.0
H20 H 0.75509 0.49521 0.70446 0.0
H21 H 0.67592 0.23373 0.47602 0.0
H22 H 0.84605 0.54969 0.64923 0.0
H23 H 0.77251 0.24154 0.51701 0.0
O24 O 0.55626 0.35665 0.62673 0.0
H25 H 0.35007 0.1977 0.48355 0.0
H26 H 0.36029 0.22661 0.64903 0.0
H27 H 0.27554 0.23384 0.6047 0.0
H28 H 0.26986 0.21908 0.52135 0.0
H29 H 0.43458 0.19155 0.52912 0.0
H30 H 0.25502 0.02812 0.67664 0.0
H31 H 0.27597 0.04975 0.75882 0.0
O32 O 0.48316 0.27391 0.66289 0.0
C33 C 0.59363 0.24468 0.67709 0.0
C34 C 0.37062 0.12775 0.74822 0.0
C35 C 0.3003 0.06628 0.688 0.0
N36 N 0.40458 0.1523 0.67069 0.0
C37 C 0.41662 0.16432 0.71585 0.0
C38 C 0.34745 0.10382 0.65659 0.0
C39 C 0.31208 0.07846 0.73411 0.0
C40 C 0.65161 0.27538 0.52949 0.0
N41 N 0.66771 0.30071 0.57144 0.0
C42 C 0.68899 0.25379 0.50924 0.0
C43 C 0.74311 0.2581 0.53228 0.0
C44 C 0.75914 0.28382 0.57511 0.0
C45 C 0.72061 0.3049 0.5943 0.0
C46 C 0.79757 0.48603 0.59615 0.0
C47 C 0.69604 0.42522 0.65758 0.0
C48 C 0.7413 0.43294 0.58437 0.0
N49 N 0.69142 0.40321 0.61497 0.0
C50 C 0.75165 0.47811 0.6706 0.0
C51 C 0.80268 0.50864 0.6396 0.0
C52 C 0.51038 0.32942 0.65588 0.0
C53 C 0.35195 0.20407 0.51986 0.0
C54 C 0.35841 0.22044 0.61275 0.0
C55 C 0.31017 0.22442 0.58784 0.0
C56 C 0.30699 0.21612 0.54108 0.0
N57 N 0.40221 0.2084 0.59172 0.0
C58 C 0.39958 0.20048 0.54586 0.0
Co59 Co 0.25195 0.40863 0.79086 0.0
Co60 Co 0.25962 0.54034 0.7651 0.0
O61 O 0.27076 0.47339 0.74897 0.0
C62 C 0.3832 0.43975 0.74823 0.0
O63 O 0.39916 0.49494 0.74247 0.0
C64 C 0.17592 0.53952 0.68876 0.0
O65 O 0.12978 0.53139 0.71792 0.0
O66 O 0.16728 0.48588 0.78606 0.0
O67 O 0.17269 0.40939 0.81516 0.0
H68 H 0.19013 0.65399 0.86525 0.0
H69 H 0.26681 0.39818 0.69215 0.0
O70 O 0.32904 0.40321 0.7674 0.0
H71 H 0.04766 0.22998 0.73083 0.0
H72 H 0.23129 0.21495 0.83697 0.0
H73 H 0.2129 0.38507 0.88744 0.0
H74 H 0.11871 0.29929 0.78985 0.0
H75 H 0.25279 0.29529 0.7838 0.0
O76 O 0.22799 0.5401 0.70199 0.0
H77 H 0.20545 0.57073 0.84447 0.0
H78 H 0.2902 0.65287 0.71864 0.0
H79 H 0.19017 0.3053 0.9416 0.0
H80 H 0.19802 0.32938 0.63211 0.0
H81 H 0.19938 0.21948 0.91645 0.0
H82 H 0.08742 0.24465 0.65125 0.0
O83 O 0.3092 0.46606 0.83831 0.0
H84 H 0.44958 0.6154 0.65571 0.0
H85 H 0.37674 0.64638 0.8045 0.0
H86 H 0.49111 0.71339 0.77954 0.0
H87 H 0.52815 0.69832 0.70449 0.0
H88 H 0.33604 0.54863 0.68247 0.0
H89 H 0.27547 0.73686 0.73795 0.0
H90 H 0.22521 0.73783 0.81177 0.0
O91 O 0.29268 0.54243 0.82771 0.0
C92 C 0.14258 0.4379 0.80867 0.0
C93 C 0.21209 0.65409 0.83298 0.0
C94 C 0.25995 0.70058 0.76153 0.0
N95 N 0.24862 0.60685 0.78038 0.0
C96 C 0.22092 0.60707 0.82104 0.0
C97 C 0.26805 0.65283 0.75075 0.0
C98 C 0.23177 0.7011 0.80296 0.0
C99 C 0.21885 0.36137 0.70082 0.0
N100 N 0.1966 0.3531 0.74452 0.0
C101 C 0.18006 0.32258 0.66663 0.0
C102 C 0.118 0.27507 0.67738 0.0
C103 C 0.09563 0.26688 0.722 0.0
C104 C 0.13582 0.30656 0.75528 0.0
C105 C 0.22707 0.25209 0.84832 0.0
C106 C 0.21663 0.34771 0.87617 0.0
C107 C 0.23945 0.29786 0.81842 0.0
N108 N 0.23383 0.34476 0.83244 0.0
C109 C 0.20388 0.30275 0.90702 0.0
C110 C 0.20912 0.25464 0.8929 0.0
C111 C 0.31511 0.51514 0.85067 0.0
C112 C 0.43403 0.62247 0.68847 0.0
C113 C 0.39266 0.63893 0.77215 0.0
C114 C 0.4574 0.67732 0.75802 0.0
C115 C 0.47811 0.66891 0.71588 0.0
N116 N 0.34966 0.5934 0.74512 0.0
C117 C 0.36965 0.58496 0.70373 0.0
Co118 Co 0.7718 0.35167 0.9212 0.0
Co119 Co 0.76791 0.21949 0.92587 0.0
O120 O 0.75401 0.28 0.95377 0.0
C121 C 0.83965 0.39711 1.00912 0.0
O122 O 0.86485 0.36271 1.00446 0.0
C123 C 0.64287 0.10833 0.94947 0.0
O124 O 0.6312 0.09752 0.90599 0.0
O125 O 0.70778 0.21177 0.87443 0.0
O126 O 0.74205 0.30758 0.86295 0.0
H127 H 0.81146 0.12032 0.79601 0.0
H128 H 0.68753 0.31531 1.00331 0.0
O129 O 0.80171 0.39818 0.9788 0.0
H130 H 0.54756 0.31975 0.8804 0.0
H131 H 0.77163 0.54221 0.90117 0.0
H132 H 0.83403 0.40585 0.83312 0.0
H133 H 0.66254 0.34582 0.86526 0.0
H134 H 0.74926 0.4515 0.94143 0.0
O135 O 0.69178 0.1573 0.96254 0.0
H136 H 0.79518 0.19646 0.83254 0.0
H137 H 0.76871 0.11227 0.96018 0.0
H138 H 0.85652 0.49562 0.79141 0.0
H139 H 0.57296 0.28951 0.02006 0.0
H140 H 0.82524 0.56455 0.82546 0.0
H141 H 0.50214 0.29156 0.95832 0.0
O142 O 0.86366 0.37066 0.90798 0.0
H143 H 0.8336 0.23815 0.08983 0.0
H144 H 0.90177 0.23217 0.93298 0.0
H145 H 0.97736 0.2459 0.99582 0.0
H146 H 0.94328 0.2487 0.07502 0.0
H147 H 0.76009 0.2256 0.02583 0.0
H148 H 0.78426 0.03504 0.92498 0.0
H149 H 0.80594 0.03882 0.84232 0.0
O150 O 0.84629 0.2807 0.89047 0.0
C151 C 0.71215 0.25391 0.85004 0.0
C152 C 0.802 0.11817 0.83206 0.0
C153 C 0.78672 0.0703 0.90443 0.0
N154 N 0.78082 0.1588 0.89841 0.0
C155 C 0.79275 0.16117 0.85293 0.0
C156 C 0.77781 0.1141 0.92415 0.0
C157 C 0.7989 0.07245 0.85805 0.0
C158 C 0.65713 0.31671 0.97635 0.0
N159 N 0.68182 0.33241 0.93345 0.0
C160 C 0.59225 0.30188 0.986 0.0
C161 C 0.55251 0.30298 0.95133 0.0
C162 C 0.57796 0.31877 0.90761 0.0
C163 C 0.64307 0.33335 0.89922 0.0
C164 C 0.78536 0.51245 0.88593 0.0
C165 C 0.81984 0.43538 0.84801 0.0
C166 C 0.77298 0.4611 0.90862 0.0
N167 N 0.78976 0.4231 0.88944 0.0
C168 C 0.83293 0.48627 0.82431 0.0
C169 C 0.81542 0.52495 0.84345 0.0
C170 C 0.88236 0.33704 0.89055 0.0
C171 C 0.849 0.23694 0.05548 0.0
C172 C 0.88695 0.23416 0.96719 0.0
C173 C 0.92977 0.24151 1.00272 0.0
C174 C 0.91057 0.24297 0.04714 0.0
N175 N 0.82666 0.22836 0.97557 0.0
C176 C 0.80747 0.22962 0.01908 0.0
Co177 Co 0.4224 0.69711 0.09752 0.0
Co178 Co 0.56461 0.82525 0.1229 0.0
O179 O 0.49718 0.7734 0.07928 0.0
C180 C 0.42107 0.61663 0.02631 0.0
O181 O 0.42413 0.58372 0.05873 0.0
C182 C 0.53312 0.90514 0.06886 0.0
O183 O 0.47073 0.86364 0.06856 0.0
O184 O 0.49529 0.82421 0.16281 0.0
O185 O 0.41937 0.72802 0.15895 0.0
H186 H 0.66185 0.88952 0.27839 0.0
H187 H 0.4118 0.75044 1.01147 0.0
O188 O 0.42372 0.66517 0.036 0.0
H189 H 0.2288 0.73001 0.10677 0.0
H190 H 0.20203 0.51163 0.0758 0.0
H191 H 0.38979 0.62217 0.17953 0.0
H192 H 0.30439 0.69776 0.13512 0.0
H193 H 0.29594 0.60825 0.05331 0.0
O194 O 0.57547 0.89715 0.08995 0.0
H195 H 0.57843 0.82444 0.22273 0.0
H196 H 0.69333 0.93816 0.11547 0.0
H197 H 0.29682 0.52577 0.20342 0.0
H198 H 0.33643 0.78206 0.98144 0.0
H199 H 0.20205 0.4698 0.15137 0.0
H200 H 0.24432 0.77222 0.02931 0.0
O201 O 0.48455 0.67258 0.12089 0.0
H202 H 0.67699 0.84174 0.97417 0.0
H203 H 0.67956 0.80794 0.13839 0.0
H204 H 0.76379 0.80652 0.08934 0.0
H205 H 0.76302 0.82376 1.00661 0.0
H206 H 0.59318 0.8421 0.02439 0.0
H207 H 0.7777 1.00474 0.17003 0.0
H208 H 0.76238 0.98043 0.25212 0.0
O209 O 0.55767 0.75536 0.15666 0.0
C210 C 0.44402 0.77846 0.17798 0.0
C211 C 0.66918 0.90052 0.2427 0.0
C212 C 0.73416 0.96523 0.18188 0.0
N213 N 0.63117 0.87726 0.16588 0.0
C214 C 0.62218 0.86376 0.21101 0.0
C215 C 0.68611 0.92743 0.15116 0.0
C216 C 0.72554 0.95154 0.22794 0.0
C217 C 0.37129 0.7452 0.03228 0.0
N218 N 0.36248 0.72205 0.07494 0.0
C219 C 0.32901 0.76355 0.01519 0.0
C220 C 0.27744 0.75814 0.0421 0.0
C221 C 0.26877 0.73456 0.08559 0.0
C222 C 0.31201 0.71667 0.10156 0.0
C223 C 0.24301 0.53561 0.0988 0.0
C224 C 0.34872 0.59812 0.1567 0.0
C225 C 0.29632 0.59036 0.08626 0.0
N226 N 0.34828 0.62094 0.11514 0.0
C227 C 0.29622 0.54354 0.17041 0.0
C228 C 0.24306 0.51217 0.1412 0.0
C229 C 0.53165 0.70006 0.14897 0.0
C230 C 0.67795 0.83435 1.01018 0.0
C231 C 0.67868 0.81522 0.1024 0.0
C232 C 0.72662 0.81451 0.07481 0.0
C233 C 0.72617 0.8242 0.0284 0.0
N234 N 0.6317 0.82547 0.0843 0.0
C235 C 0.63075 0.8347 0.03881 0.0
Co236 Co 0.78051 0.6091 0.28607 0.0
Co237 Co 0.76707 0.47238 0.26749 0.0
O238 O 0.75874 0.54028 0.24726 0.0
C239 C 0.65192 0.58138 0.2398 0.0
O240 O 0.63925 0.52859 0.22781 0.0
C241 C 0.83676 0.50506 0.17755 0.0
O242 O 0.85422 0.5606 0.18332 0.0
O243 O 0.85906 0.52564 0.28958 0.0
O244 O 0.86078 0.60927 0.30875 0.0
H245 H 0.823 0.35949 0.37919 0.0
H246 H 0.7607 0.61212 0.18667 0.0
O247 O 0.70252 0.61437 0.26377 0.0
H248 H 0.98158 0.7825 0.21721 0.0
H249 H 0.80813 0.80773 0.32378 0.0
H250 H 0.82646 0.63985 0.3808 0.0
H251 H 0.91361 0.71741 0.27943 0.0
H252 H 0.78167 0.72309 0.2743 0.0
O253 O 0.80299 0.46661 0.20744 0.0
H254 H 0.81239 0.44333 0.35228 0.0
H255 H 0.73896 0.35821 0.22574 0.0
H256 H 0.85446 0.72409 0.43123 0.0
H257 H 0.82624 0.67673 0.12362 0.0
H258 H 0.84522 0.80877 0.40279 0.0
H259 H 0.93778 0.76251 0.1386 0.0
O260 O 0.72587 0.55654 0.33718 0.0
H261 H 0.58437 0.39782 0.15259 0.0
H262 H 0.64627 0.36841 0.30587 0.0
H263 H 0.53301 0.30254 0.27845 0.0
H264 H 0.50146 0.31688 0.20115 0.0
H265 H 0.69671 0.46338 0.18182 0.0
H266 H 0.74949 0.27379 0.25113 0.0
H267 H 0.79147 0.27394 0.32845 0.0
O268 O 0.73081 0.47408 0.32789 0.0
C269 C 0.88742 0.57737 0.30646 0.0
C270 C 0.8045 0.35884 0.34547 0.0
C271 C 0.76332 0.31078 0.27358 0.0
N272 N 0.77471 0.40558 0.28759 0.0
C273 C 0.79822 0.40613 0.33007 0.0
C274 C 0.75765 0.35882 0.25934 0.0
C275 C 0.78685 0.31088 0.31697 0.0
C276 C 0.80878 0.64963 0.19367 0.0
N277 N 0.83328 0.66072 0.23681 0.0
C278 C 0.84587 0.68596 0.15772 0.0
C279 C 0.90848 0.734 0.16613 0.0
C280 C 0.93312 0.74518 0.21019 0.0
C281 C 0.8946 0.70789 0.24527 0.0
C282 C 0.81227 0.77106 0.33658 0.0
C283 C 0.82263 0.67666 0.3681 0.0
C284 C 0.79696 0.72281 0.3088 0.0
N285 N 0.80247 0.67648 0.32462 0.0
C286 C 0.8384 0.72418 0.39685 0.0
C287 C 0.83315 0.77165 0.38089 0.0
C288 C 0.71414 0.50579 0.35045 0.0
C289 C 0.59747 0.39113 0.18635 0.0
C290 C 0.63269 0.37556 0.27256 0.0
C291 C 0.56858 0.33781 0.25703 0.0
C292 C 0.55096 0.34579 0.21363 0.0
N293 N 0.678 0.42006 0.24569 0.0
C294 C 0.66112 0.42799 0.20303 0.0
Co295 Co 0.26036 0.70131 0.4318 0.0
Co296 Co 0.25514 0.82481 0.40523 0.0
O297 O 0.26986 0.77691 0.44926 0.0
C298 C 0.17782 0.626 0.50825 0.0
O299 O 0.13082 0.59381 0.47926 0.0
C300 C 0.37824 0.91383 0.45439 0.0
O301 O 0.40533 0.88112 0.44838 0.0
O302 O 0.3245 0.82637 0.36486 0.0
O303 O 0.29167 0.73009 0.36867 0.0
H304 H 0.22158 0.88198 0.24914 0.0
H305 H 0.33942 0.76305 0.51304 0.0
O306 O 0.23053 0.67189 0.49503 0.0
H307 H 0.49235 0.74019 0.41198 0.0
H308 H 0.27936 0.52015 0.45511 0.0
H309 H 0.20346 0.62233 0.3525 0.0
H310 H 0.37658 0.70217 0.38948 0.0
H311 H 0.29363 0.61688 0.47582 0.0
O312 O 0.32177 0.89825 0.43753 0.0
H313 H 0.23764 0.82092 0.30552 0.0
H314 H 0.24583 0.93398 0.41125 0.0
H315 H 0.18861 0.52585 0.33029 0.0
H316 H 0.4546 0.80105 0.53712 0.0
H317 H 0.22668 0.47407 0.3818 0.0
H318 H 0.53199 0.78984 0.48637 0.0
O319 O 0.1678 0.67326 0.41251 0.0
H320 H 0.15948 0.83675 0.55451 0.0
H321 H 0.11791 0.80146 0.39062 0.0
H322 H 0.03039 0.79587 0.44016 0.0
H323 H 0.05101 0.81385 0.52275 0.0
H324 H 0.24538 0.84116 0.50379 0.0
H325 H 0.23045 0.99656 0.35594 0.0
H326 H 0.21788 0.97053 0.27424 0.0
O327 O 0.18549 0.75268 0.37287 0.0
C328 C 0.32318 0.78042 0.34918 0.0
C329 C 0.22686 0.89372 0.28465 0.0
C330 C 0.23192 0.95806 0.34458 0.0
N331 N 0.24235 0.87365 0.36167 0.0
C332 C 0.23585 0.85924 0.31676 0.0
C333 C 0.24085 0.92255 0.37573 0.0
C334 C 0.22484 0.94342 0.29875 0.0
C335 C 0.37261 0.7575 0.49095 0.0
N336 N 0.35112 0.7301 0.45003 0.0
C337 C 0.43786 0.77932 0.50469 0.0
C338 C 0.48128 0.7731 0.47617 0.0
C339 C 0.45908 0.74529 0.43442 0.0
C340 C 0.3935 0.72401 0.4218 0.0
C341 C 0.26264 0.5423 0.43235 0.0
C342 C 0.22037 0.60019 0.37501 0.0
C343 C 0.27052 0.59705 0.44391 0.0
N344 N 0.24966 0.62538 0.41529 0.0
C345 C 0.21174 0.54551 0.36229 0.0
C346 C 0.23308 0.51648 0.39121 0.0
C347 C 0.1495 0.69828 0.38362 0.0
C348 C 0.14994 0.82894 0.51857 0.0
C349 C 0.12718 0.80897 0.42653 0.0
C350 C 0.07747 0.80594 0.45441 0.0
C351 C 0.08908 0.81605 0.50074 0.0
N352 N 0.18685 0.82181 0.44424 0.0
C353 C 0.19846 0.83152 0.48966 0.0
C354 C 0.39966 0.04119 0.52713 0.0
C355 C 0.46496 0.06612 0.54277 0.0
H356 H 0.322 0.97495 0.48717 0.0
C357 C 0.50266 0.04103 0.52842 0.0
H358 H 0.3691 0.05936 0.5371 0.0
C359 C 0.47509 0.99159 0.49961 0.0
C360 C 0.40968 0.96695 0.48402 0.0
H361 H 0.55315 0.0592 0.53978 0.0
H362 H 0.50497 0.97281 0.4895 0.0
C363 C 0.37263 0.9927 0.4981 0.0
C364 C 0.44157 0.33352 0.71882 0.0
C365 C 0.48527 0.36206 0.68258 0.0
H366 H 0.37664 0.33594 0.76814 0.0
C367 C 0.50057 0.4197 0.67099 0.0
H368 H 0.42911 0.28952 0.72931 0.0
C369 C 0.46998 0.44669 0.69365 0.0
C370 C 0.42361 0.41646 0.72824 0.0
H371 H 0.53419 0.44306 0.64337 0.0
H372 H 0.48055 0.49005 0.6828 0.0
C373 C 0.41129 0.36027 0.74124 0.0
C374 C 0.97641 0.32858 0.85934 0.0
C375 C 0.94866 0.36386 0.86899 0.0
H376 H 0.05899 0.32428 0.83471 0.0
C377 C 0.98486 0.42425 0.85759 0.0
H378 H 0.95 0.28184 0.86678 0.0
C379 C 0.0473 0.44846 0.83707 0.0
C380 C 0.07547 0.41308 0.82861 0.0
H381 H 0.9648 0.45271 0.86419 0.0
H382 H 0.07394 0.49499 0.82862 0.0
C383 C 0.0392 0.353 0.84033 0.0
C384 C 0.61556 1.0111 0.05204 0.0
C385 C 0.55633 0.95941 0.04107 0.0
H386 H 0.68805 0.09895 0.03263 0.0
C387 C 0.52248 0.95895 1.00155 0.0
H388 H 0.64276 1.01293 0.08227 0.0
C389 C 0.54919 1.00807 0.97243 0.0
C390 C 0.60944 0.05922 0.9828 0.0
H391 H 0.4769 0.91967 0.99204 0.0
H392 H 0.52347 1.00549 0.94126 0.0
C393 C 0.64133 0.06059 0.0236 0.0
C394 C 0.56853 0.57977 0.18465 0.0
C395 C 0.61454 0.60788 0.21974 0.0
H396 H 0.50604 0.58654 0.13475 0.0
C397 C 0.62938 0.66476 0.233 0.0
H398 H 0.55594 0.53603 0.1735 0.0
C399 C 0.60163 0.6939 0.21052 0.0
C400 C 0.55753 0.66689 0.17433 0.0
H401 H 0.66387 0.68768 0.2602 0.0
H402 H 0.61563 0.73813 0.22127 0.0
C403 C 0.54014 0.60889 0.16229 0.0
C404 C 0.0648 0.69177 0.3289 0.0
C405 C 0.0841 0.66392 0.36117 0.0
H406 H 0.98868 0.6855 0.28582 0.0
C407 C 0.03942 0.60449 0.37238 0.0
H408 H 0.09789 0.737 0.3186 0.0
C409 C 0.97593 0.57474 0.35311 0.0
C410 C 0.95617 0.6042 0.32276 0.0
H411 H 0.05283 0.58147 0.39678 0.0
H412 H 0.94156 0.52973 0.36329 0.0
C413 C 1.00179 0.66236 0.31015 0.0
C414 C 0.63455 0.39965 0.44847 0.0
C415 C 0.63151 0.43567 0.48233 0.0
H416 H 0.66329 0.39331 0.38154 0.0
C417 C 0.6508 0.49449 0.47133 0.0
H418 H 0.62009 0.35416 0.45541 0.0
C419 C 0.67527 0.51725 0.42792 0.0
C420 C 0.68139 0.48169 0.39489 0.0
H421 H 0.64922 0.52354 0.49667 0.0
H422 H 0.69174 0.56315 0.42087 0.0
C423 C 0.65947 0.42235 0.40569 0.0
C424 C 0.11536 0.56637 0.57663 0.0
C425 C 0.17555 0.60405 0.55475 0.0
H426 H 0.06801 0.5168 0.63696 0.0
C427 C 0.23494 0.61903 0.57693 0.0
H428 H 0.06888 0.554 0.56017 0.0
C429 C 0.23441 0.59653 0.61978 0.0
C430 C 0.1745 0.55956 0.64213 0.0
H431 H 0.28216 0.64745 0.56084 0.0
H432 H 0.2813 0.6092 0.63576 0.0
C433 C 0.11486 0.54501 0.62037 0.0
C434 C 0.62287 0.19472 0.79225 0.0
C435 C 0.68485 0.24322 0.80351 0.0
H436 H 0.54458 0.15666 0.74292 0.0
C437 C 0.71889 0.28731 0.77086 0.0
H438 H 0.59549 0.1602 0.8169 0.0
C439 C 0.69021 0.28564 0.72929 0.0
C440 C 0.62644 0.23955 0.71865 0.0
H441 H 0.76718 0.3248 0.77816 0.0
H442 H 0.71744 0.32224 0.70627 0.0
C443 C 0.59376 0.1929 0.75001 0.0
C444 C 0.36456 0.51151 0.92592 0.0
C445 C 0.34806 0.5422 0.89432 0.0
H446 H 0.40103 0.51099 0.99256 0.0
C447 C 0.36092 0.59915 0.9055 0.0
H448 H 0.35532 0.46758 0.9185 0.0
C449 C 0.38771 0.62414 0.94738 0.0
C450 C 0.40172 0.59274 0.97976 0.0
H451 H 0.34889 0.62435 0.88234 0.0
H452 H 0.3952 0.66748 0.95483 0.0
C453 C 0.39091 0.53647 0.96833 0.0
C454 C 0.84296 0.48086 0.05194 0.0
C455 C 0.84895 0.43013 0.05162 0.0
H456 H 0.83657 0.54578 0.09232 0.0
C457 C 0.85813 0.40843 0.0928 0.0
H458 H 0.836 0.49859 0.02059 0.0
C459 C 0.85708 0.43466 0.13372 0.0
C460 C 0.84867 0.48406 0.13417 0.0
H461 H 0.86254 0.36928 0.0936 0.0
H462 H 0.86089 0.41523 0.16519 0.0
C463 C 0.84371 0.5081 0.09287 0.0
C464 C 0.33466 0.72947 0.2818 0.0
C465 C 0.3544 0.7826 0.30486 0.0
H466 H 0.34615 0.68669 0.22451 0.0
C467 C 0.40333 0.83573 0.28516 0.0
H468 H 0.2967 0.68763 0.29545 0.0
C469 C 0.4328 0.83517 0.24373 0.0
C470 C 0.41299 0.78155 0.22107 0.0
H471 H 0.41956 0.87742 0.30206 0.0
H472 H 0.47109 0.87651 0.22961 0.0
C473 C 0.36311 0.72896 0.24064 0.0
loop_
_geom_bond_atom_site_label_1
_geom_bond_atom_site_label_2
_geom_bond_distance
_geom_bond_site_symmetry_2
_ccdc_geom_bond_type
Co0 O2 2.143 . S
Co0 O8 2.074 . S
Co0 O11 2.093 . S
Co0 O24 2.097 . S
Co0 N41 2.151 . S
Co0 N49 2.214 . S
Co1 O2 2.160 . S
Co1 O7 2.058 . S
Co1 O17 2.057 . S
Co1 O32 2.037 . S
Co1 N36 2.145 . S
Co1 N57 2.257 . S
O2 Co0 2.143 . S
O2 Co1 2.160 . S
C3 O4 1.278 . S
C3 O11 1.224 . S
O4 C3 1.278 . S
C5 O6 1.245 . S
C5 O17 1.232 . S
O6 C5 1.245 . S
O7 Co1 2.058 . S
O7 C33 1.269 . S
O8 Co0 2.074 . S
O8 C33 1.257 . S
H9 C34 0.930 . S
H10 C40 0.930 . S
O11 Co0 2.093 . S
O11 C3 1.224 . S
H12 C44 0.929 . S
H13 C46 0.930 . S
H14 C47 0.930 . S
H15 C45 0.929 . S
H16 C48 0.928 . S
O17 Co1 2.057 . S
O17 C5 1.232 . S
H18 C37 0.929 . S
H19 C38 0.929 . S
H20 C50 0.931 . S
H21 C42 0.929 . S
H22 C51 0.930 . S
H23 C43 0.931 . S
O24 Co0 2.097 . S
O24 C52 1.214 . S
H25 C53 0.929 . S
H26 C54 0.929 . S
H27 C55 0.930 . S
H28 C56 0.929 . S
H29 C58 0.930 . S
H30 C35 0.930 . S
H31 C39 0.930 . S
O32 Co1 2.037 . S
O32 C52 1.234 . S
C33 O7 1.269 . S
C33 O8 1.257 . S
C34 H9 0.930 . S
C34 C37 1.388 . S
C34 C39 1.418 . S
C35 H30 0.930 . S
C35 C38 1.404 . S
C35 C39 1.353 . S
N36 Co1 2.145 . S
N36 C37 1.397 . S
N36 C38 1.334 . S
C37 H18 0.929 . S
C37 C34 1.388 . S
C37 N36 1.397 . S
C38 H19 0.929 . S
C38 C35 1.404 . S
C38 N36 1.334 . S
C39 H31 0.930 . S
C39 C34 1.418 . S
C39 C35 1.353 . S
C40 H10 0.930 . S
C40 N41 1.330 . S
C40 C42 1.446 . S
N41 Co0 2.151 . S
N41 C40 1.330 . S
N41 C45 1.418 . S
C42 H21 0.929 . S
C42 C40 1.446 . S
C42 C43 1.332 . S
C43 H23 0.931 . S
C43 C42 1.332 . S
C43 C44 1.267 . S
C44 H12 0.929 . S
C44 C43 1.267 . S
C44 C45 1.251 . S
C45 H15 0.929 . S
C45 N41 1.418 . S
C45 C44 1.251 . S
C46 H13 0.930 . S
C46 C48 1.406 . S
C46 C51 1.261 . S
C47 H14 0.930 . S
C47 N49 1.325 . S
C47 C50 1.357 . S
C48 H16 0.928 . S
C48 C46 1.406 . S
C48 N49 1.261 . S
N49 Co0 2.214 . S
N49 C47 1.325 . S
N49 C48 1.261 . S
C50 H20 0.931 . S
C50 C47 1.357 . S
C50 C51 1.312 . S
C51 H22 0.930 . S
C51 C46 1.261 . S
C51 C50 1.312 . S
C52 O24 1.214 . S
C52 O32 1.234 . S
C53 H25 0.929 . S
C53 C56 1.391 . S
C53 C58 1.391 . S
C54 H26 0.929 . S
C54 C55 1.390 . S
C54 N57 1.391 . S
C55 H27 0.930 . S
C55 C54 1.390 . S
C55 C56 1.392 . S
C56 H28 0.929 . S
C56 C53 1.391 . S
C56 C55 1.392 . S
N57 Co1 2.257 . S
N57 C54 1.391 . S
N57 C58 1.388 . S
C58 H29 0.930 . S
C58 C53 1.391 . S
C58 N57 1.388 . S
Co59 O61 2.143 . S
Co59 O67 2.074 . S
Co59 O70 2.093 . S
Co59 O83 2.097 . S
Co59 N100 2.151 . S
Co59 N108 2.214 . S
Co60 O61 2.160 . S
Co60 O66 2.058 . S
Co60 O76 2.057 . S
Co60 O91 2.037 . S
Co60 N95 2.145 . S
Co60 N116 2.257 . S
O61 Co59 2.143 . S
O61 Co60 2.160 . S
C62 O63 1.278 . S
C62 O70 1.224 . S
O63 C62 1.278 . S
C64 O65 1.245 . S
C64 O76 1.232 . S
O65 C64 1.245 . S
O66 Co60 2.058 . S
O66 C92 1.269 . S
O67 Co59 2.074 . S
O67 C92 1.257 . S
H68 C93 0.930 . S
H69 C99 0.930 . S
O70 Co59 2.093 . S
O70 C62 1.224 . S
H71 C103 0.929 . S
H72 C105 0.930 . S
H73 C106 0.930 . S
H74 C104 0.929 . S
H75 C107 0.928 . S
O76 Co60 2.057 . S
O76 C64 1.232 . S
H77 C96 0.929 . S
H78 C97 0.929 . S
H79 C109 0.931 . S
H80 C101 0.929 . S
H81 C110 0.930 . S
H82 C102 0.931 . S
O83 Co59 2.097 . S
O83 C111 1.214 . S
H84 C112 0.929 . S
H85 C113 0.929 . S
H86 C114 0.930 . S
H87 C115 0.929 . S
H88 C117 0.930 . S
H89 C94 0.930 . S
H90 C98 0.930 . S
O91 Co60 2.037 . S
O91 C111 1.234 . S
C92 O66 1.269 . S
C92 O67 1.257 . S
C93 H68 0.930 . S
C93 C96 1.388 . S
C93 C98 1.418 . S
C94 H89 0.930 . S
C94 C97 1.404 . S
C94 C98 1.353 . S
N95 Co60 2.145 . S
N95 C96 1.397 . S
N95 C97 1.334 . S
C96 H77 0.929 . S
C96 C93 1.388 . S
C96 N95 1.397 . S
C97 H78 0.929 . S
C97 C94 1.404 . S
C97 N95 1.334 . S
C98 H90 0.930 . S
C98 C93 1.418 . S
C98 C94 1.353 . S
C99 H69 0.930 . S
C99 N100 1.330 . S
C99 C101 1.446 . S
N100 Co59 2.151 . S
N100 C99 1.330 . S
N100 C104 1.418 . S
C101 H80 0.929 . S
C101 C99 1.446 . S
C101 C102 1.332 . S
C102 H82 0.931 . S
C102 C101 1.332 . S
C102 C103 1.267 . S
C103 H71 0.929 . S
C103 C102 1.267 . S
C103 C104 1.251 . S
C104 H74 0.929 . S
C104 N100 1.418 . S
C104 C103 1.251 . S
C105 H72 0.930 . S
C105 C107 1.406 . S
C105 C110 1.261 . S
C106 H73 0.930 . S
C106 N108 1.325 . S
C106 C109 1.357 . S
C107 H75 0.928 . S
C107 C105 1.406 . S
C107 N108 1.261 . S
N108 Co59 2.214 . S
N108 C106 1.325 . S
N108 C107 1.261 . S
C109 H79 0.931 . S
C109 C106 1.357 . S
C109 C110 1.312 . S
C110 H81 0.930 . S
C110 C105 1.261 . S
C110 C109 1.312 . S
C111 O83 1.214 . S
C111 O91 1.234 . S
C112 H84 0.929 . S
C112 C115 1.391 . S
C112 C117 1.391 . S
C113 H85 0.929 . S
C113 C114 1.390 . S
C113 N116 1.391 . S
C114 H86 0.930 . S
C114 C113 1.390 . S
C114 C115 1.392 . S
C115 H87 0.929 . S
C115 C112 1.391 . S
C115 C114 1.392 . S
N116 Co60 2.257 . S
N116 C113 1.391 . S
N116 C117 1.388 . S
C117 H88 0.930 . S
C117 C112 1.391 . S
C117 N116 1.388 . S
Co118 O120 2.143 . S
Co118 O126 2.074 . S
Co118 O129 2.093 . S
Co118 O142 2.097 . S
Co118 N159 2.151 . S
Co118 N167 2.214 . S
Co119 O120 2.160 . S
Co119 O125 2.058 . S
Co119 O135 2.057 . S
Co119 O150 2.037 . S
Co119 N154 2.145 . S
Co119 N175 2.257 . S
O120 Co118 2.143 . S
O120 Co119 2.160 . S
C121 O122 1.278 . S
C121 O129 1.224 1_554 S
O122 C121 1.278 . S
C123 O124 1.245 . S
C123 O135 1.232 . S
O124 C123 1.245 . S
O125 Co119 2.058 . S
O125 C151 1.269 . S
O126 Co118 2.074 . S
O126 C151 1.257 . S
H127 C152 0.930 . S
H128 C158 0.930 . S
O129 Co118 2.093 . S
O129 C121 1.224 1_556 S
H130 C162 0.929 . S
H131 C164 0.930 . S
H132 C165 0.930 . S
H133 C163 0.929 . S
H134 C166 0.928 . S
O135 Co119 2.057 . S
O135 C123 1.232 . S
H136 C155 0.929 . S
H137 C156 0.929 . S
H138 C168 0.931 . S
H139 C160 0.929 1_554 S
H140 C169 0.930 . S
H141 C161 0.931 . S
O142 Co118 2.097 . S
O142 C170 1.214 . S
H143 C171 0.929 . S
H144 C172 0.929 . S
H145 C173 0.930 . S
H146 C174 0.929 . S
H147 C176 0.933 . S
H148 C153 0.930 . S
H149 C157 0.930 . S
O150 Co119 2.037 . S
O150 C170 1.234 . S
C151 O125 1.269 . S
C151 O126 1.257 . S
C152 H127 0.930 . S
C152 C155 1.388 . S
C152 C157 1.418 . S
C153 H148 0.930 . S
C153 C156 1.404 . S
C153 C157 1.353 . S
N154 Co119 2.145 . S
N154 C155 1.397 . S
N154 C156 1.334 . S
C155 H136 0.929 . S
C155 C152 1.388 . S
C155 N154 1.397 . S
C156 H137 0.929 . S
C156 C153 1.404 . S
C156 N154 1.334 . S
C157 H149 0.930 . S
C157 C152 1.418 . S
C157 C153 1.353 . S
C158 H128 0.930 . S
C158 N159 1.330 . S
C158 C160 1.446 . S
N159 Co118 2.151 . S
N159 C158 1.330 . S
N159 C163 1.418 . S
C160 H139 0.929 1_556 S
C160 C158 1.446 . S
C160 C161 1.332 . S
C161 H141 0.931 . S
C161 C160 1.332 . S
C161 C162 1.267 . S
C162 H130 0.929 . S
C162 C161 1.267 . S
C162 C163 1.251 . S
C163 H133 0.929 . S
C163 N159 1.418 . S
C163 C162 1.251 . S
C164 H131 0.930 . S
C164 C166 1.406 . S
C164 C169 1.261 . S
C165 H132 0.930 . S
C165 N167 1.325 . S
C165 C168 1.357 . S
C166 H134 0.928 . S
C166 C164 1.406 . S
C166 N167 1.261 . S
N167 Co118 2.214 . S
N167 C165 1.325 . S
N167 C166 1.261 . S
C168 H138 0.931 . S
C168 C165 1.357 . S
C168 C169 1.312 . S
C169 H140 0.930 . S
C169 C164 1.261 . S
C169 C168 1.312 . S
C170 O142 1.214 . S
C170 O150 1.234 . S
C171 H143 0.929 . S
C171 C174 1.391 . S
C171 C176 1.391 1_554 S
C172 H144 0.929 . S
C172 C173 1.390 . S
C172 N175 1.391 . S
C173 H145 0.930 . S
C173 C172 1.390 . S
C173 C174 1.392 1_556 S
C174 H146 0.929 . S
C174 C171 1.391 . S
C174 C173 1.392 1_554 S
N175 Co119 2.257 . S
N175 C172 1.391 . S
N175 C176 1.388 . S
C176 H147 0.933 . S
C176 C171 1.391 1_556 S
C176 N175 1.388 . S
Co177 O179 2.143 . S
Co177 O185 2.074 . S
Co177 O188 2.093 . S
Co177 O201 2.097 . S
Co177 N218 2.151 . S
Co177 N226 2.214 . S
Co178 O179 2.160 . S
Co178 O184 2.058 . S
Co178 O194 2.057 . S
Co178 O209 2.037 . S
Co178 N213 2.145 . S
Co178 N234 2.257 . S
O179 Co177 2.143 . S
O179 Co178 2.160 . S
C180 O181 1.278 . S
C180 O188 1.224 1_556 S
O181 C180 1.278 . S
C182 O183 1.245 . S
C182 O194 1.232 . S
O183 C182 1.245 . S
O184 Co178 2.058 . S
O184 C210 1.269 . S
O185 Co177 2.074 . S
O185 C210 1.257 . S
H186 C211 0.930 . S
H187 C217 0.930 . S
O188 Co177 2.093 . S
O188 C180 1.224 1_554 S
H189 C221 0.929 . S
H190 C223 0.930 . S
H191 C224 0.930 . S
H192 C222 0.929 . S
H193 C225 0.928 . S
O194 Co178 2.057 . S
O194 C182 1.232 . S
H195 C214 0.929 . S
H196 C215 0.929 . S
H197 C227 0.931 . S
H198 C219 0.929 1_556 S
H199 C228 0.930 . S
H200 C220 0.931 . S
O201 Co177 2.097 . S
O201 C229 1.214 . S
H202 C230 0.929 . S
H203 C231 0.929 . S
H204 C232 0.930 . S
H205 C233 0.929 . S
H206 C235 0.930 . S
H207 C212 0.930 . S
H208 C216 0.930 . S
O209 Co178 2.037 . S
O209 C229 1.234 . S
C210 O184 1.269 . S
C210 O185 1.257 . S
C211 H186 0.930 . S
C211 C214 1.388 . S
C211 C216 1.418 . S
C212 H207 0.930 . S
C212 C215 1.404 . S
C212 C216 1.353 . S
N213 Co178 2.145 . S
N213 C214 1.397 . S
N213 C215 1.334 . S
C214 H195 0.929 . S
C214 C211 1.388 . S
C214 N213 1.397 . S
C215 H196 0.929 . S
C215 C212 1.404 . S
C215 N213 1.334 . S
C216 H208 0.930 . S
C216 C211 1.418 . S
C216 C212 1.353 . S
C217 H187 0.930 . S
C217 N218 1.330 . S
C217 C219 1.446 . S
N218 Co177 2.151 . S
N218 C217 1.330 . S
N218 C222 1.418 . S
C219 H198 0.929 1_554 S
C219 C217 1.446 . S
C219 C220 1.332 . S
C220 H200 0.931 . S
C220 C219 1.332 . S
C220 C221 1.267 . S
C221 H189 0.929 . S
C221 C220 1.267 . S
C221 C222 1.251 . S
C222 H192 0.929 . S
C222 N218 1.418 . S
C222 C221 1.251 . S
C223 H190 0.930 . S
C223 C225 1.406 . S
C223 C228 1.261 . S
C224 H191 0.930 . S
C224 N226 1.325 . S
C224 C227 1.357 . S
C225 H193 0.928 . S
C225 C223 1.406 . S
C225 N226 1.261 . S
N226 Co177 2.214 . S
N226 C224 1.325 . S
N226 C225 1.261 . S
C227 H197 0.931 . S
C227 C224 1.357 . S
C227 C228 1.312 . S
C228 H199 0.930 . S
C228 C223 1.261 . S
C228 C227 1.312 . S
C229 O201 1.214 . S
C229 O209 1.234 . S
C230 H202 0.929 . S
C230 C233 1.391 . S
C230 C235 1.391 1_556 S
C231 H203 0.929 . S
C231 C232 1.390 . S
C231 N234 1.391 . S
C232 H204 0.930 . S
C232 C231 1.390 . S
C232 C233 1.392 1_554 S
C233 H205 0.929 . S
C233 C230 1.391 . S
C233 C232 1.392 1_556 S
N234 Co178 2.257 . S
N234 C231 1.391 . S
N234 C235 1.388 . S
C235 H206 0.930 . S
C235 C230 1.391 1_554 S
C235 N234 1.388 . S
Co236 O238 2.143 . S
Co236 O244 2.074 . S
Co236 O247 2.093 . S
Co236 O260 2.097 . S
Co236 N277 2.151 . S
Co236 N285 2.214 . S
Co237 O238 2.160 . S
Co237 O243 2.058 . S
Co237 O253 2.057 . S
Co237 O268 2.037 . S
Co237 N272 2.145 . S
Co237 N293 2.257 . S
O238 Co236 2.143 . S
O238 Co237 2.160 . S
C239 O240 1.278 . S
C239 O247 1.224 . S
O240 C239 1.278 . S
C241 O242 1.245 . S
C241 O253 1.232 . S
O242 C241 1.245 . S
O243 Co237 2.058 . S
O243 C269 1.269 . S
O244 Co236 2.074 . S
O244 C269 1.257 . S
H245 C270 0.930 . S
H246 C276 0.930 . S
O247 Co236 2.093 . S
O247 C239 1.224 . S
H248 C280 0.929 . S
H249 C282 0.930 . S
H250 C283 0.930 . S
H251 C281 0.929 . S
H252 C284 0.928 . S
O253 Co237 2.057 . S
O253 C241 1.232 . S
H254 C273 0.929 . S
H255 C274 0.929 . S
H256 C286 0.931 . S
H257 C278 0.929 . S
H258 C287 0.930 . S
H259 C279 0.931 . S
O260 Co236 2.097 . S
O260 C288 1.214 . S
H261 C289 0.929 . S
H262 C290 0.929 . S
H263 C291 0.930 . S
H264 C292 0.929 . S
H265 C294 0.930 . S
H266 C271 0.930 . S
H267 C275 0.930 . S
O268 Co237 2.037 . S
O268 C288 1.234 . S
C269 O243 1.269 . S
C269 O244 1.257 . S
C270 H245 0.930 . S
C270 C273 1.388 . S
C270 C275 1.418 . S
C271 H266 0.930 . S
C271 C274 1.404 . S
C271 C275 1.353 . S
N272 Co237 2.145 . S
N272 C273 1.397 . S
N272 C274 1.334 . S
C273 H254 0.929 . S
C273 C270 1.388 . S
C273 N272 1.397 . S
C274 H255 0.929 . S
C274 C271 1.404 . S
C274 N272 1.334 . S
C275 H267 0.930 . S
C275 C270 1.418 . S
C275 C271 1.353 . S
C276 H246 0.930 . S
C276 N277 1.330 . S
C276 C278 1.446 . S
N277 Co236 2.151 . S
N277 C276 1.330 . S
N277 C281 1.418 . S
C278 H257 0.929 . S
C278 C276 1.446 . S
C278 C279 1.332 . S
C279 H259 0.931 . S
C279 C278 1.332 . S
C279 C280 1.267 . S
C280 H248 0.929 . S
C280 C279 1.267 . S
C280 C281 1.251 . S
C281 H251 0.929 . S
C281 N277 1.418 . S
C281 C280 1.251 . S
C282 H249 0.930 . S
C282 C284 1.406 . S
C282 C287 1.261 . S
C283 H250 0.930 . S
C283 N285 1.325 . S
C283 C286 1.357 . S
C284 H252 0.928 . S
C284 C282 1.406 . S
C284 N285 1.261 . S
N285 Co236 2.214 . S
N285 C283 1.325 . S
N285 C284 1.261 . S
C286 H256 0.931 . S
C286 C283 1.357 . S
C286 C287 1.312 . S
C287 H258 0.930 . S
C287 C282 1.261 . S
C287 C286 1.312 . S
C288 O260 1.214 . S
C288 O268 1.234 . S
C289 H261 0.929 . S
C289 C292 1.391 . S
C289 C294 1.391 . S
C290 H262 0.929 . S
C290 C291 1.390 . S
C290 N293 1.391 . S
C291 H263 0.930 . S
C291 C290 1.390 . S
C291 C292 1.392 . S
C292 H264 0.929 . S
C292 C289 1.391 . S
C292 C291 1.392 . S
N293 Co237 2.257 . S
N293 C290 1.391 . S
N293 C294 1.388 . S
C294 H265 0.930 . S
C294 C289 1.391 . S
C294 N293 1.388 . S
Co295 O297 2.143 . S
Co295 O303 2.074 . S
Co295 O306 2.093 . S
Co295 O319 2.097 . S
Co295 N336 2.151 . S
Co295 N344 2.214 . S
Co296 O297 2.160 . S
Co296 O302 2.058 . S
Co296 O312 2.057 . S
Co296 O327 2.037 . S
Co296 N331 2.145 . S
Co296 N352 2.257 . S
O297 Co295 2.143 . S
O297 Co296 2.160 . S
C298 O299 1.278 . S
C298 O306 1.224 . S
O299 C298 1.278 . S
C300 O301 1.245 . S
C300 O312 1.232 . S
O301 C300 1.245 . S
O302 Co296 2.058 . S
O302 C328 1.269 . S
O303 Co295 2.074 . S
O303 C328 1.257 . S
H304 C329 0.930 . S
H305 C335 0.930 . S
O306 Co295 2.093 . S
O306 C298 1.224 . S
H307 C339 0.929 . S
H308 C341 0.930 . S
H309 C342 0.930 . S
H310 C340 0.929 . S
H311 C343 0.928 . S
O312 Co296 2.057 . S
O312 C300 1.232 . S
H313 C332 0.929 . S
H314 C333 0.929 . S
H315 C345 0.931 . S
H316 C337 0.929 . S
H317 C346 0.930 . S
H318 C338 0.931 . S
O319 Co295 2.097 . S
O319 C347 1.214 . S
H320 C348 0.929 . S
H321 C349 0.929 . S
H322 C350 0.930 . S
H323 C351 0.929 . S
H324 C353 0.930 . S
H325 C330 0.930 . S
H326 C334 0.930 . S
O327 Co296 2.037 . S
O327 C347 1.234 . S
C328 O302 1.269 . S
C328 O303 1.257 . S
C329 H304 0.930 . S
C329 C332 1.388 . S
C329 C334 1.418 . S
C330 H325 0.930 . S
C330 C333 1.404 . S
C330 C334 1.353 . S
N331 Co296 2.145 . S
N331 C332 1.397 . S
N331 C333 1.334 . S
C332 H313 0.929 . S
C332 C329 1.388 . S
C332 N331 1.397 . S
C333 H314 0.929 . S
C333 C330 1.404 . S
C333 N331 1.334 . S
C334 H326 0.930 . S
C334 C329 1.418 . S
C334 C330 1.353 . S
C335 H305 0.930 . S
C335 N336 1.330 . S
C335 C337 1.446 . S
N336 Co295 2.151 . S
N336 C335 1.330 . S
N336 C340 1.418 . S
C337 H316 0.929 . S
C337 C335 1.446 . S
C337 C338 1.332 . S
C338 H318 0.931 . S
C338 C337 1.332 . S
C338 C339 1.267 . S
C339 H307 0.929 . S
C339 C338 1.267 . S
C339 C340 1.251 . S
C340 H310 0.929 . S
C340 N336 1.418 . S
C340 C339 1.251 . S
C341 H308 0.930 . S
C341 C343 1.406 . S
C341 C346 1.261 . S
C342 H309 0.930 . S
C342 N344 1.325 . S
C342 C345 1.357 . S
C343 H311 0.928 . S
C343 C341 1.406 . S
C343 N344 1.261 . S
N344 Co295 2.214 . S
N344 C342 1.325 . S
N344 C343 1.261 . S
C345 H315 0.931 . S
C345 C342 1.357 . S
C345 C346 1.312 . S
C346 H317 0.930 . S
C346 C341 1.261 . S
C346 C345 1.312 . S
C347 O319 1.214 . S
C347 O327 1.234 . S
C348 H320 0.929 . S
C348 C351 1.391 . S
C348 C353 1.391 . S
C349 H321 0.929 . S
C349 C350 1.390 . S
C349 N352 1.391 . S
C350 H322 0.930 . S
C350 C349 1.390 . S
C350 C351 1.392 . S
C351 H323 0.929 . S
C351 C348 1.391 . S
C351 C350 1.392 . S
N352 Co296 2.257 . S
N352 C349 1.391 . S
N352 C353 1.388 . S
C353 H324 0.930 . S
C353 C348 1.391 . S
C353 N352 1.388 . S
C354 C355 1.387 . S
C354 H358 0.950 . S
C354 C363 1.390 1_545 S
C355 C354 1.387 . S
C355 C357 1.387 . S
H356 C363 0.950 . S
C357 C355 1.387 . S
C357 C359 1.390 1_545 S
C357 H361 0.950 . S
H358 C354 0.950 . S
C359 C357 1.390 1_565 S
C359 C360 1.387 . S
C359 H362 0.950 . S
C360 C359 1.387 . S
C360 C363 1.387 . S
H361 C357 0.950 . S
H362 C359 0.950 . S
C363 C354 1.390 1_565 S
C363 H356 0.950 . S
C363 C360 1.387 . S
C364 C365 1.387 . S
C364 H368 0.950 . S
C364 C373 1.390 . S
C365 C364 1.387 . S
C365 C367 1.387 . S
H366 C373 0.950 . S
C367 C365 1.387 . S
C367 C369 1.390 . S
C367 H371 0.950 . S
H368 C364 0.950 . S
C369 C367 1.390 . S
C369 C370 1.387 . S
C369 H372 0.950 . S
C370 C369 1.387 . S
C370 C373 1.387 . S
H371 C367 0.950 . S
H372 C369 0.950 . S
C373 C364 1.390 . S
C373 H366 0.950 . S
C373 C370 1.387 . S
C374 C375 1.387 . S
C374 H378 0.950 . S
C374 C383 1.390 1_655 S
C375 C374 1.387 . S
C375 C377 1.387 . S
H376 C383 0.950 . S
C377 C375 1.387 . S
C377 C379 1.390 1_655 S
C377 H381 0.950 . S
H378 C374 0.950 . S
C379 C377 1.390 1_455 S
C379 C380 1.387 . S
C379 H382 0.950 . S
C380 C379 1.387 . S
C380 C383 1.387 . S
H381 C377 0.950 . S
H382 C379 0.950 . S
C383 C374 1.390 1_455 S
C383 H376 0.950 . S
C383 C380 1.387 . S
C384 C385 1.387 . S
C384 H388 0.950 . S
C384 C393 1.399 1_565 S
C385 C384 1.387 . S
C385 C387 1.387 1_554 S
H386 C393 0.950 . S
C387 C385 1.387 1_556 S
C387 C389 1.390 1_565 S
C387 H391 0.950 . S
H388 C384 0.950 . S
C389 C387 1.390 1_545 S
C389 C390 1.387 . S
C389 H392 0.950 . S
C390 C389 1.387 . S
C390 C393 1.378 1_556 S
H391 C387 0.950 . S
H392 C389 0.950 . S
C393 C384 1.399 1_545 S
C393 H386 0.950 . S
C393 C390 1.378 1_554 S
C394 C395 1.387 . S
C394 H398 0.950 . S
C394 C403 1.390 . S
C395 C394 1.387 . S
C395 C397 1.387 . S
H396 C403 0.950 . S
C397 C395 1.387 . S
C397 C399 1.390 . S
C397 H401 0.950 . S
H398 C394 0.950 . S
C399 C397 1.390 . S
C399 C400 1.387 . S
C399 H402 0.950 . S
C400 C399 1.387 . S
C400 C403 1.387 . S
H401 C397 0.950 . S
H402 C399 0.950 . S
C403 C394 1.390 . S
C403 H396 0.950 . S
C403 C400 1.387 . S
C404 C405 1.387 . S
C404 H408 0.950 . S
C404 C413 1.390 1_455 S
C405 C404 1.387 . S
C405 C407 1.387 . S
H406 C413 0.950 . S
C407 C405 1.387 . S
C407 C409 1.390 1_455 S
C407 H411 0.950 . S
H408 C404 0.950 . S
C409 C407 1.390 1_655 S
C409 C410 1.387 . S
C409 H412 0.950 . S
C410 C409 1.387 . S
C410 C413 1.387 . S
H411 C407 0.950 . S
H412 C409 0.950 . S
C413 C404 1.390 1_655 S
C413 H406 0.950 . S
C413 C410 1.387 . S
C414 C415 1.387 . S
C414 H418 0.950 . S
C414 C423 1.390 . S
C415 C414 1.387 . S
C415 C417 1.387 . S
H416 C423 0.950 . S
C417 C415 1.387 . S
C417 C419 1.390 . S
C417 H421 0.950 . S
H418 C414 0.950 . S
C419 C417 1.390 . S
C419 C420 1.387 . S
C419 H422 0.950 . S
C420 C419 1.387 . S
C420 C423 1.387 . S
H421 C417 0.950 . S
H422 C419 0.950 . S
C423 C414 1.390 . S
C423 H416 0.950 . S
C423 C420 1.387 . S
C424 C425 1.387 . S
C424 H428 0.950 . S
C424 C433 1.390 . S
C425 C424 1.387 . S
C425 C427 1.387 . S
H426 C433 0.950 . S
C427 C425 1.387 . S
C427 C429 1.390 . S
C427 H431 0.950 . S
H428 C424 0.950 . S
C429 C427 1.390 . S
C429 C430 1.387 . S
C429 H432 0.950 . S
C430 C429 1.387 . S
C430 C433 1.387 . S
H431 C427 0.950 . S
H432 C429 0.950 . S
C433 C424 1.390 . S
C433 H426 0.950 . S
C433 C430 1.387 . S
C434 C435 1.387 . S
C434 H438 0.950 . S
C434 C443 1.390 . S
C435 C434 1.387 . S
C435 C437 1.387 . S
H436 C443 0.950 . S
C437 C435 1.387 . S
C437 C439 1.390 . S
C437 H441 0.950 . S
H438 C434 0.950 . S
C439 C437 1.390 . S
C439 C440 1.387 . S
C439 H442 0.950 . S
C440 C439 1.387 . S
C440 C443 1.387 . S
H441 C437 0.950 . S
H442 C439 0.950 . S
C443 C434 1.390 . S
C443 H436 0.950 . S
C443 C440 1.387 . S
C444 C445 1.387 . S
C444 H448 0.950 . S
C444 C453 1.390 . S
C445 C444 1.387 . S
C445 C447 1.387 . S
H446 C453 0.950 . S
C447 C445 1.387 . S
C447 C449 1.390 . S
C447 H451 0.950 . S
H448 C444 0.950 . S
C449 C447 1.390 . S
C449 C450 1.387 . S
C449 H452 0.950 . S
C450 C449 1.387 . S
C450 C453 1.387 . S
H451 C447 0.950 . S
H452 C449 0.950 . S
C453 C444 1.390 . S
C453 H446 0.950 . S
C453 C450 1.387 . S
C454 C455 1.387 . S
C454 H458 0.950 . S
C454 C463 1.390 . S
C455 C454 1.387 . S
C455 C457 1.387 . S
H456 C463 0.950 . S
C457 C455 1.387 . S
C457 C459 1.390 . S
C457 H461 0.950 . S
H458 C454 0.950 . S
C459 C457 1.390 . S
C459 C460 1.387 . S
C459 H462 0.950 . S
C460 C459 1.387 . S
C460 C463 1.387 . S
H461 C457 0.950 . S
H462 C459 0.950 . S
C463 C454 1.390 . S
C463 H456 0.950 . S
C463 C460 1.387 . S
C464 C465 1.387 . S
C464 H468 0.950 . S
C464 C473 1.390 . S
C465 C464 1.387 . S
C465 C467 1.387 . S
H466 C473 0.950 . S
C467 C465 1.387 . S
C467 C469 1.390 . S
C467 H471 0.950 . S
H468 C464 0.950 . S
C469 C467 1.390 . S
C469 C470 1.387 . S
C469 H472 0.950 . S
C470 C469 1.387 . S
C470 C473 1.387 . S
H471 C467 0.950 . S
H472 C469 0.950 . S
C473 C464 1.390 . S
C473 H466 0.950 . S
C473 C470 1.387 . S
C355 C5 1.744 . S
C360 C300 1.744 . S
C365 C52 1.694 . S
C370 C62 1.696 . S
C375 C170 1.639 . S
C380 C92 1.642 . S
C385 C182 1.744 . S
C390 C123 1.744 . S
C395 C239 1.696 . S
C400 C229 1.694 . S
C405 C347 1.639 . S
C410 C269 1.642 . S
C415 C3 1.502 . S
C420 C288 1.496 . S
C425 C298 1.379 . S
C430 C64 1.383 . S
C435 C151 1.583 . S
C440 C33 1.589 . S
C445 C111 1.497 . S
C450 C180 1.503 . S
C455 C121 1.379 . S
C460 C241 1.383 . S
C465 C328 1.582 . S
C470 C210 1.588 . S
