# Generated by pormake.
# Topology umx, (4)-cn, num edge types: 1
# Building blocks:
#     Node 0, Type 0, BuildingBlock: MUDLON_clean_sbu_0, # of connection points: 4
#     Node 1, Type 0, BuildingBlock: MUDLON_clean_sbu_0, # of connection points: 4
#     Node 2, Type 0, BuildingBlock: MUDLON_clean_sbu_0, # of connection points: 4
#     Node 3, Type 0, BuildingBlock: MUDLON_clean_sbu_0, # of connection points: 4
#     Node 4, Type 0, BuildingBlock: MUDLON_clean_sbu_0, # of connection points: 4
#     Node 5, Type 0, BuildingBlock: MUDLON_clean_sbu_0, # of connection points: 4
#     Node 6, Type 0, BuildingBlock: MUDLON_clean_sbu_0, # of connection points: 4
#     Node 7, Type 0, BuildingBlock: MUDLON_clean_sbu_0, # of connection points: 4
#     Edge 8, Type (0, 0), BuildingBlock: FUNLAD_clean_linker_0, # of connection points: 2
#     Edge 9, Type (0, 0), BuildingBlock: FUNLAD_clean_linker_0, # of connection points: 2
#     Edge 10, Type (0, 0), BuildingBlock: FUNLAD_clean_linker_0, # of connection points: 2
#     Edge 11, Type (0, 0), BuildingBlock: FUNLAD_clean_linker_0, # of connection points: 2
#     Edge 12, Type (0, 0), BuildingBlock: FUNLAD_clean_linker_0, # of connection points: 2
#     Edge 13, Type (0, 0), BuildingBlock: FUNLAD_clean_linker_0, # of connection points: 2
#     Edge 14, Type (0, 0), BuildingBlock: FUNLAD_clean_linker_0, # of connection points: 2
#     Edge 15, Type (0, 0), BuildingBlock: FUNLAD_clean_linker_0, # of connection points: 2
#     Edge 16, Type (0, 0), BuildingBlock: FUNLAD_clean_linker_0, # of connection points: 2
#     Edge 17, Type (0, 0), BuildingBlock: FUNLAD_clean_linker_0, # of connection points: 2
#     Edge 18, Type (0, 0), BuildingBlock: FUNLAD_clean_linker_0, # of connection points: 2
#     Edge 19, Type (0, 0), BuildingBlock: FUNLAD_clean_linker_0, # of connection points: 2
#     Edge 20, Type (0, 0), BuildingBlock: FUNLAD_clean_linker_0, # of connection points: 2
#     Edge 21, Type (0, 0), BuildingBlock: FUNLAD_clean_linker_0, # of connection points: 2
#     Edge 22, Type (0, 0), BuildingBlock: FUNLAD_clean_linker_0, # of connection points: 2
#     Edge 23, Type (0, 0), BuildingBlock: FUNLAD_clean_linker_0, # of connection points: 2
# Relax obj value: 0.023
# Max RMSD: 0.223
# Mean RMSD: 0.222
data_MOF--net-umx--node1-MUDLON_clean_sbu_0--edge1-FUNLAD_clean_linker_0
_symmetry_space_group_name_H-M    P1
_symmetry_Int_Tables_number       1
_symmetry_cell_setting            triclinic
loop_
_symmetry_equiv_pos_as_xyz
'x, y, z'
_cell_length_a     47.162523
_cell_length_b     47.036758
_cell_length_c     34.875372
_cell_angle_alpha  90.31176
_cell_angle_beta   90.497398
_cell_angle_gamma 89.919792
loop_
_atom_site_label
_atom_site_type_symbol
_atom_site_fract_x
_atom_site_fract_y
_atom_site_fract_z
_atom_type_partial_charge
Mg0 Mg 0.18451 0.45759 0.03844 0.0
C1 C 0.12124 0.44618 0.02232 0.0
O2 O 0.13077 0.42564 1.00025 0.0
C3 C 0.2224 0.40789 0.02473 0.0
O4 O 0.23685 0.42857 1.00896 0.0
C5 C 0.21314 0.46356 0.11623 0.0
O6 O 0.21984 0.43709 0.10821 0.0
O7 O 0.2 0.47816 0.09103 0.0
O8 O 0.13874 0.46144 0.04115 0.0
O9 O 0.19745 0.47691 0.98436 0.0
C10 C 0.1932 0.46215 0.9541 0.0
O11 O 0.18255 0.43651 0.95756 0.0
O12 O 0.19836 0.41348 0.03918 0.0
Mg13 Mg 0.53824 0.1895 0.53749 0.0
C14 C 0.50101 0.19446 0.46546 0.0
O15 O 0.48691 0.17399 0.48223 0.0
C16 C 0.53052 0.19553 0.6202 0.0
O17 O 0.55535 0.18321 0.6162 0.0
C18 C 0.59502 0.21589 0.51712 0.0
O19 O 0.58407 0.21504 0.48237 0.0
O20 O 0.58108 0.2055 0.54473 0.0
O21 O 0.52183 0.20586 0.48311 0.0
O22 O 0.53756 0.14339 0.53452 0.0
C23 C 0.51579 0.13068 0.54714 0.0
O24 O 0.4951 0.14587 0.56178 0.0
O25 O 0.51646 0.20187 0.59006 0.0
Mg26 Mg 0.81628 0.55619 0.04211 0.0
C27 C 0.8706 0.52572 0.04023 0.0
O28 O 0.85172 0.50524 0.04181 0.0
C29 C 0.78789 0.60999 0.07002 0.0
O30 O 0.78232 0.59316 0.09889 0.0
C31 C 0.81748 0.54157 0.12435 0.0
O32 O 0.83932 0.55865 0.12074 0.0
O33 O 0.80267 0.53568 0.09469 0.0
O34 O 0.86196 0.55135 0.03991 0.0
O35 O 0.80012 0.53646 0.98983 0.0
C36 C 0.80393 0.55068 0.95938 0.0
O37 O 0.81578 0.57589 0.96225 0.0
O38 O 0.80267 0.60049 0.04242 0.0
Mg39 Mg 0.45067 0.81183 0.53094 0.0
C40 C 0.46268 0.80811 0.44887 0.0
O41 O 0.43825 0.82145 0.4512 0.0
C42 C 0.48514 0.80809 0.60596 0.0
O43 O 0.49986 0.8286 0.5903 0.0
C44 C 0.40721 0.77012 0.506 0.0
O45 O 0.43091 0.75797 0.49504 0.0
O46 O 0.40844 0.79425 0.52257 0.0
O47 O 0.4748 0.80027 0.47986 0.0
O48 O 0.45001 0.85799 0.53362 0.0
C49 C 0.47202 0.87096 0.52225 0.0
O50 O 0.49345 0.85596 0.50926 0.0
O51 O 0.46534 0.79634 0.58661 0.0
Mg52 Mg 0.183 0.55231 0.53497 0.0
C53 C 0.1757 0.53782 0.45265 0.0
O54 O 0.15242 0.55183 0.46099 0.0
C55 C 0.19207 0.54405 0.61705 0.0
O56 O 0.17966 0.56898 0.61396 0.0
C57 C 0.20519 0.60933 0.50754 0.0
O58 O 0.19704 0.599 0.47417 0.0
O59 O 0.20086 0.59488 0.53762 0.0
O60 O 0.1938 0.53344 0.47932 0.0
O61 O 0.13712 0.55237 0.53914 0.0
C62 C 0.12573 0.52789 0.53984 0.0
O63 O 0.14219 0.50535 0.53835 0.0
O64 O 0.19763 0.53033 0.58643 0.0
Mg65 Mg 0.44824 0.18848 0.04245 0.0
C66 C 0.48521 0.19429 0.11428 0.0
O67 O 0.49932 0.17372 0.09734 0.0
C68 C 0.45516 0.19525 0.95963 0.0
O69 O 0.43056 0.18254 0.96353 0.0
C70 C 0.39058 0.21319 0.06319 0.0
O71 O 0.40171 0.21327 0.09786 0.0
O72 O 0.40476 0.20281 0.03562 0.0
O73 O 0.46434 0.2056 0.09674 0.0
O74 O 0.45087 0.14244 0.0455 0.0
C75 C 0.47163 0.13014 0.0293 0.0
O76 O 0.49018 0.14561 1.01085 0.0
O77 O 0.46926 0.20158 0.98981 0.0
Mg78 Mg 0.8097 0.45498 0.54186 0.0
C79 C 0.86717 0.47891 0.54873 0.0
O80 O 0.85083 0.50141 0.55227 0.0
C81 C 0.76837 0.40793 0.55501 0.0
O82 O 0.75595 0.42896 0.57329 0.0
C83 C 0.79464 0.46172 0.45944 0.0
O84 O 0.79689 0.43399 0.46257 0.0
O85 O 0.79785 0.47702 0.48938 0.0
O86 O 0.85561 0.45474 0.54384 0.0
O87 O 0.79618 0.47566 0.59459 0.0
C88 C 0.80328 0.46274 0.62517 0.0
O89 O 0.81706 0.43853 0.62219 0.0
O90 O 0.79218 0.41232 0.53934 0.0
Mg91 Mg 0.55687 0.81548 0.03183 0.0
C92 C 0.54969 0.80671 0.11468 0.0
O93 O 0.57452 0.81913 0.11195 0.0
C94 C 0.52183 0.81132 0.9572 0.0
O95 O 0.50848 0.83327 0.97195 0.0
C96 C 0.61418 0.79401 1.00652 0.0
O97 O 0.60152 0.79563 0.97291 0.0
O98 O 0.60089 0.80209 0.03623 0.0
O99 O 0.53596 0.80115 0.08392 0.0
O100 O 0.55343 0.86148 0.03114 0.0
C101 C 0.53022 0.87242 0.04229 0.0
O102 O 0.5099 0.85555 0.05397 0.0
O103 O 0.54091 0.79893 0.97702 0.0
C104 C 0.20455 0.50025 0.16761 0.0
C105 C 0.21702 0.47448 0.15597 0.0
C106 C 0.205 0.50847 0.20627 0.0
C107 C 0.21786 0.49103 0.2342 0.0
C108 C 0.23179 0.4662 0.22216 0.0
C109 C 0.23125 0.45792 0.18357 0.0
C110 C 0.21658 0.49764 0.27605 0.0
C111 C 0.19477 0.51199 0.29182 0.0
C112 C 0.19096 0.51719 0.33375 0.0
C113 C 0.16444 0.52709 0.34601 0.0
C114 C 0.15953 0.5331 0.38459 0.0
C115 C 0.18106 0.52945 0.41224 0.0
H116 H 0.23351 0.50608 0.3534 0.0
C117 C 0.20761 0.51921 0.40033 0.0
C118 C 0.21259 0.51322 0.36145 0.0
H119 H 0.22472 0.51639 0.42088 0.0
H120 H 0.19366 0.51366 0.14706 0.0
H121 H 0.19498 0.52835 0.21414 0.0
H122 H 0.24224 0.45256 0.24288 0.0
H123 H 0.24132 0.43806 0.17561 0.0
H124 H 0.23276 0.4883 0.29434 0.0
H125 H 0.17768 0.51918 0.27316 0.0
H126 H 0.14733 0.53038 0.32556 0.0
H127 H 0.13878 0.54091 0.39262 0.0
C128 C 0.53588 0.19362 0.69155 0.0
C129 C 0.51928 0.2007 0.65928 0.0
C130 C 0.52532 0.19698 0.72861 0.0
C131 C 0.49784 0.20776 0.73449 0.0
C132 C 0.48132 0.2151 0.70221 0.0
C133 C 0.49193 0.21173 0.66501 0.0
C134 C 0.48501 0.2095 0.77343 0.0
C135 C 0.50024 0.20962 0.80649 0.0
C136 C 0.48746 0.20784 0.84543 0.0
C137 C 0.50396 0.21528 0.87777 0.0
C138 C 0.49345 0.21184 0.91495 0.0
C139 C 0.46622 0.20063 0.9206 0.0
H140 H 0.44685 0.19006 0.82747 0.0
C141 C 0.44961 0.1935 0.88827 0.0
C142 C 0.46007 0.19693 0.85123 0.0
H143 H 0.42856 0.18467 0.89148 0.0
H144 H 0.557 0.18493 0.68828 0.0
H145 H 0.53855 0.19017 0.75231 0.0
H146 H 0.45998 0.22318 0.70575 0.0
H147 H 0.47855 0.21732 0.6408 0.0
H148 H 0.46206 0.21074 0.77457 0.0
H149 H 0.52317 0.21107 0.80534 0.0
H150 H 0.52524 0.22348 0.87428 0.0
H151 H 0.50683 0.21747 0.9392 0.0
C152 C 0.78871 0.45731 0.38828 0.0
C153 C 0.79162 0.47471 0.42098 0.0
C154 C 0.78896 0.46901 0.35154 0.0
C155 C 0.79194 0.49853 0.34658 0.0
C156 C 0.79395 0.516 0.37934 0.0
C157 C 0.79368 0.50427 0.41614 0.0
C158 C 0.79565 0.51157 0.3081 0.0
C159 C 0.78859 0.4987 0.27467 0.0
C160 C 0.79566 0.51067 0.23649 0.0
C161 C 0.7797 0.50242 0.20409 0.0
C162 C 0.7866 0.51242 0.16757 0.0
C163 C 0.80988 0.53065 0.16269 0.0
H164 H 0.8326 0.53478 0.25535 0.0
C165 C 0.82601 0.53863 0.19507 0.0
C166 C 0.81908 0.52873 0.23146 0.0
H167 H 0.84422 0.55246 0.19236 0.0
H168 H 0.78713 0.43443 0.39094 0.0
H169 H 0.78803 0.45459 0.32732 0.0
H170 H 0.79642 0.53878 0.37647 0.0
H171 H 0.796 0.51829 0.4407 0.0
H172 H 0.80481 0.53273 0.30751 0.0
H173 H 0.77697 0.47881 0.2749 0.0
H174 H 0.76179 0.48822 0.20703 0.0
H175 H 0.77379 0.5058 0.14322 0.0
C176 C 0.4952 0.81563 0.89483 0.0
C177 C 0.51788 0.80402 0.91601 0.0
C178 C 0.49335 0.8116 0.85506 0.0
C179 C 0.51431 0.79601 0.83553 0.0
C180 C 0.53659 0.78389 0.85683 0.0
C181 C 0.53822 0.78756 0.89665 0.0
C182 C 0.51484 0.79418 0.79289 0.0
C183 C 0.49126 0.79475 0.77078 0.0
C184 C 0.49185 0.79553 0.72811 0.0
C185 C 0.46878 0.78444 0.7072 0.0
C186 C 0.46733 0.78722 0.6673 0.0
C187 C 0.48865 0.80175 0.64741 0.0
H188 H 0.53153 0.81857 0.72328 0.0
C189 C 0.51206 0.81235 0.66822 0.0
C190 C 0.51372 0.80918 0.7081 0.0
H191 H 0.52878 0.82376 0.65382 0.0
H192 H 0.47925 0.82853 0.90881 0.0
H193 H 0.4762 0.82182 0.83957 0.0
H194 H 0.55311 0.77194 0.84252 0.0
H195 H 0.55609 0.77846 0.91199 0.0
H196 H 0.5354 0.79191 0.77939 0.0
H197 H 0.47061 0.79422 0.78432 0.0
H198 H 0.45156 0.774 0.72188 0.0
H199 H 0.44889 0.77895 0.65226 0.0
C200 C 0.80579 0.4602 0.69673 0.0
C201 C 0.79743 0.47497 0.66356 0.0
C202 C 0.80191 0.47211 0.73308 0.0
C203 C 0.78932 0.4991 0.73725 0.0
C204 C 0.78065 0.5137 0.70409 0.0
C205 C 0.78454 0.50176 0.66763 0.0
C206 C 0.78706 0.51354 0.77526 0.0
C207 C 0.78796 0.49971 0.80909 0.0
C208 C 0.78953 0.5142 0.84718 0.0
C209 C 0.78362 0.4985 0.88036 0.0
C210 C 0.78742 0.51051 0.91688 0.0
C211 C 0.79743 0.53848 0.92101 0.0
H212 H 0.80461 0.55516 0.82691 0.0
C213 C 0.80276 0.55441 0.88785 0.0
C214 C 0.79899 0.54244 0.85142 0.0
H215 H 0.81061 0.576 0.88995 0.0
H216 H 0.81593 0.43958 0.69467 0.0
H217 H 0.80977 0.46041 0.75758 0.0
H218 H 0.77115 0.53463 0.70634 0.0
H219 H 0.77791 0.51373 0.64266 0.0
H220 H 0.78463 0.53648 0.77502 0.0
H221 H 0.7877 0.47664 0.80924 0.0
H222 H 0.77653 0.47666 0.87807 0.0
H223 H 0.78317 0.49762 0.94182 0.0
C224 C 0.55361 0.80759 0.18631 0.0
C225 C 0.53763 0.80118 0.15313 0.0
C226 C 0.54201 0.80442 0.22278 0.0
C227 C 0.51407 0.79453 0.22711 0.0
C228 C 0.49826 0.78765 0.19393 0.0
C229 C 0.50991 0.79083 0.15735 0.0
C230 C 0.5 0.79332 0.26527 0.0
C231 C 0.51405 0.79329 0.29924 0.0
C232 C 0.4998 0.79553 0.3372 0.0
C233 C 0.51456 0.78719 0.37055 0.0
C234 C 0.50251 0.79075 0.4069 0.0
C235 C 0.47549 0.80302 0.41069 0.0
H236 H 0.46085 0.81526 0.31655 0.0
C237 C 0.46069 0.81122 0.37733 0.0
C238 C 0.47267 0.80764 0.34113 0.0
H239 H 0.43989 0.82089 0.37911 0.0
H240 H 0.57501 0.81573 0.18419 0.0
H241 H 0.55478 0.81076 0.24724 0.0
H242 H 0.47662 0.78021 0.19626 0.0
H243 H 0.49699 0.78576 0.13243 0.0
H244 H 0.477 0.79246 0.26505 0.0
H245 H 0.53699 0.79146 0.29964 0.0
H246 H 0.53561 0.77809 0.36851 0.0
H247 H 0.51451 0.78428 0.432 0.0
C248 C 0.19288 0.45704 0.88259 0.0
C249 C 0.19866 0.47372 0.91533 0.0
C250 C 0.19618 0.46813 0.84579 0.0
C251 C 0.20563 0.49623 0.84069 0.0
C252 C 0.21185 0.51274 0.87346 0.0
C253 C 0.2085 0.50163 0.91035 0.0
C254 C 0.20712 0.50976 0.80209 0.0
C255 C 0.20712 0.49521 0.76853 0.0
C256 C 0.20517 0.50894 0.73007 0.0
C257 C 0.21248 0.49315 0.69719 0.0
C258 C 0.20891 0.5046 0.6604 0.0
C259 C 0.19773 0.53207 0.65568 0.0
H260 H 0.18747 0.54928 0.74935 0.0
C261 C 0.19075 0.54797 0.68855 0.0
C262 C 0.19427 0.53657 0.72519 0.0
H263 H 0.18192 0.56916 0.68607 0.0
H264 H 0.18515 0.43548 0.88529 0.0
H265 H 0.19035 0.45478 0.82168 0.0
H266 H 0.21895 0.53451 0.87055 0.0
H267 H 0.21311 0.51508 0.93492 0.0
H268 H 0.2082 0.53279 0.80168 0.0
H269 H 0.20862 0.4722 0.76882 0.0
H270 H 0.22066 0.47172 0.69994 0.0
H271 H 0.21442 0.49174 0.63571 0.0
C272 C 0.51496 0.21659 0.40293 0.0
C273 C 0.49511 0.20141 0.42467 0.0
C274 C 0.51088 0.2203 0.36342 0.0
C275 C 0.48674 0.20905 0.34484 0.0
C276 C 0.46627 0.19516 0.36693 0.0
C277 C 0.47051 0.19113 0.4063 0.0
C278 C 0.48234 0.21102 0.30257 0.0
C279 C 0.50388 0.21109 0.27733 0.0
C280 C 0.49949 0.20911 0.23503 0.0
C281 C 0.52004 0.19531 0.21273 0.0
C282 C 0.51581 0.19123 0.17332 0.0
C283 C 0.49112 0.20137 0.15512 0.0
H284 H 0.45935 0.23174 0.23267 0.0
C285 C 0.47118 0.21649 0.17707 0.0
C286 C 0.47525 0.22024 0.21662 0.0
H287 H 0.45196 0.22469 0.16395 0.0
H288 H 0.5341 0.2249 0.41618 0.0
H289 H 0.52671 0.23187 0.34755 0.0
H290 H 0.44733 0.18655 0.35347 0.0
H291 H 0.45471 0.17951 0.42219 0.0
H292 H 0.46068 0.20951 0.2919 0.0
H293 H 0.52555 0.20972 0.28797 0.0
H294 H 0.53906 0.18679 0.22606 0.0
H295 H 0.53167 0.17965 0.15725 0.0
C296 C 0.91014 0.49025 0.04061 0.0
C297 C 0.9012 0.51875 0.03899 0.0
C298 C 0.93893 0.48334 0.03957 0.0
C299 C 0.95953 0.5048 0.03653 0.0
C300 C 0.9506 0.5333 0.03535 0.0
C301 C 0.92175 0.54023 0.03643 0.0
C302 C 0.99045 0.49838 0.03603 0.0
C303 C 0.00124 0.47294 0.02551 0.0
C304 C 0.03213 0.46644 0.02544 0.0
C305 C 0.04208 0.44412 1.0022 0.0
C306 C 0.07095 0.43731 1.00138 0.0
C307 C 0.0905 0.45256 0.02406 0.0
H308 H 0.04482 0.49792 0.06816 0.0
C309 C 0.08049 0.4745 0.04795 0.0
C310 C 0.05165 0.48129 0.04877 0.0
H311 H 0.09493 0.4865 0.0661 0.0
H312 H 0.89489 0.47317 0.04298 0.0
H313 H 0.94481 0.46118 0.04194 0.0
H314 H 0.96599 0.5503 0.03342 0.0
H315 H 0.91558 0.5624 0.0353 0.0
H316 H 0.00473 0.51572 0.04318 0.0
H317 H 0.98713 0.45644 1.01486 0.0
H318 H 0.02749 0.43209 0.98428 0.0
H319 H 0.07792 0.42023 0.98275 0.0
C320 C 0.49834 0.91623 0.51093 0.0
C321 C 0.47407 0.90234 0.5245 0.0
C322 C 0.50083 0.94576 0.51368 0.0
C323 C 0.47917 0.96213 0.53042 0.0
C324 C 0.45466 0.94827 0.54325 0.0
C325 C 0.45215 0.91869 0.54046 0.0
C326 C 0.48098 0.99363 0.53416 0.0
C327 C 0.50566 0.00814 0.5346 0.0
C328 C 0.50759 0.03962 0.53825 0.0
C329 C 0.53218 0.0533 0.52539 0.0
C330 C 0.53496 0.08283 0.52832 0.0
C331 C 0.51326 0.09935 0.54451 0.0
H332 H 0.46719 0.04649 0.56657 0.0
C333 C 0.48885 0.08565 0.55801 0.0
C334 C 0.48605 0.05614 0.55504 0.0
H335 H 0.47183 0.0977 0.57098 0.0
H336 H 0.51549 0.90431 0.49804 0.0
H337 H 0.51961 0.95553 0.50206 0.0
H338 H 0.4375 0.96034 0.55589 0.0
H339 H 0.43312 0.90867 0.55104 0.0
H340 H 0.4611 0.00503 0.53711 0.0
H341 H 0.52554 0.99673 0.53171 0.0
H342 H 0.54924 0.04112 0.51269 0.0
H343 H 0.55409 0.09269 0.51778 0.0
C344 C 0.08243 0.49727 0.53962 0.0
C345 C 0.09455 0.52453 0.54121 0.0
C346 C 0.05303 0.4938 0.54029 0.0
C347 C 0.03498 0.51758 0.54294 0.0
C348 C 0.04714 0.54484 0.54428 0.0
C349 C 0.07659 0.54831 0.54352 0.0
C350 C 0.0035 0.51504 0.54306 0.0
C351 C 0.98948 0.49096 0.55183 0.0
C352 C 0.95802 0.48851 0.55125 0.0
C353 C 0.94573 0.4615 0.54663 0.0
C354 C 0.91625 0.45826 0.54583 0.0
C355 C 0.89841 0.482 0.54998 0.0
H356 H 0.94861 0.53326 0.56111 0.0
C357 C 0.91069 0.50897 0.55532 0.0
C358 C 0.94012 0.51221 0.55608 0.0
H359 H 0.89756 0.52768 0.55903 0.0
H360 H 0.09564 0.47849 0.53742 0.0
H361 H 0.04477 0.47244 0.53788 0.0
H362 H 0.03381 0.56358 0.546 0.0
H363 H 0.08524 0.56962 0.54464 0.0
H364 H 0.99157 0.53399 0.53559 0.0
H365 H 0.00124 0.47189 0.55914 0.0
H366 H 0.95898 0.44284 0.54324 0.0
H367 H 0.90747 0.43717 0.54187 0.0
C368 C 0.4985 0.9149 0.04755 0.0
C369 C 0.52557 0.90352 0.04081 0.0
C370 C 0.49368 0.94416 0.04525 0.0
C371 C 0.51601 0.96288 0.03661 0.0
C372 C 0.5431 0.9514 0.03 0.0
C373 C 0.54784 0.92209 0.03201 0.0
C374 C 0.51205 0.99424 0.03297 0.0
C375 C 0.48842 0.00846 0.04342 0.0
C376 C 0.4846 0.03974 0.03899 0.0
C377 C 0.46313 0.0534 0.05991 0.0
C378 C 0.45866 0.08268 0.05657 0.0
C379 C 0.47559 0.099 0.03214 0.0
H380 H 0.51717 0.04645 0.99603 0.0
C381 C 0.49676 0.08533 1.01071 0.0
C382 C 0.50111 0.05605 1.01385 0.0
H383 H 0.50995 0.09724 0.99125 0.0
H384 H 0.4808 0.90114 0.05407 0.0
H385 H 0.47229 0.95162 0.04967 0.0
H386 H 0.56071 0.96516 0.02307 0.0
H387 H 0.56896 0.91401 0.02662 0.0
H388 H 0.52993 0.00605 0.02195 0.0
H389 H 0.47125 0.99718 0.05703 0.0
H390 H 0.44986 0.0414 0.07918 0.0
H391 H 0.44213 0.09255 0.07343 0.0
C392 C 0.26012 0.37267 1.00849 0.0
C393 C 0.23529 0.37935 0.02858 0.0
C394 C 0.27403 0.34685 1.01452 0.0
C395 C 0.26339 0.32703 0.04083 0.0
C396 C 0.23827 0.33348 0.0604 0.0
C397 C 0.22418 0.35928 0.0541 0.0
C398 C 0.27958 0.30095 0.05101 0.0
C399 C 0.2976 0.28817 0.02659 0.0
C400 C 0.31813 0.26561 0.03784 0.0
C401 C 0.33119 0.24964 1.0088 0.0
C402 C 0.35375 0.2314 1.01732 0.0
C403 C 0.36394 0.22887 0.05514 0.0
H404 H 0.31838 0.27426 0.09923 0.0
C405 C 0.35 0.24374 0.08454 0.0
C406 C 0.32739 0.26199 0.07602 0.0
H407 H 0.35733 0.2423 0.11398 0.0
H408 H 0.26928 0.38771 0.98872 0.0
H409 H 0.29377 0.34314 0.99972 0.0
H410 H 0.22979 0.31874 0.08111 0.0
H411 H 0.20516 0.36389 0.07019 0.0
H412 H 0.27683 0.29254 0.07966 0.0
H413 H 0.29806 0.29509 0.99693 0.0
H414 H 0.3246 0.25205 0.97915 0.0
H415 H 0.36393 0.22019 0.99395 0.0
C416 C 0.72872 0.37492 0.57075 0.0
C417 C 0.75371 0.3803 0.55043 0.0
C418 C 0.71351 0.34985 0.56451 0.0
C419 C 0.723 0.32949 0.5378 0.0
C420 C 0.74818 0.3347 0.51785 0.0
C421 C 0.76354 0.35974 0.52431 0.0
C422 C 0.70578 0.30399 0.52787 0.0
C423 C 0.68751 0.29207 0.55252 0.0
C424 C 0.66674 0.26958 0.54172 0.0
C425 C 0.65372 0.25413 0.57105 0.0
C426 C 0.63134 0.2356 0.56283 0.0
C427 C 0.62127 0.23225 0.52503 0.0
H428 H 0.66642 0.27718 0.4802 0.0
C429 C 0.63504 0.24675 0.4954 0.0
C430 C 0.65748 0.26529 0.50362 0.0
H431 H 0.62777 0.24471 0.46597 0.0
H432 H 0.7205 0.39037 0.59096 0.0
H433 H 0.69377 0.34712 0.57961 0.0
H434 H 0.75581 0.31952 0.49684 0.0
H435 H 0.78265 0.36332 0.50803 0.0
H436 H 0.70824 0.29505 0.49933 0.0
H437 H 0.68726 0.29944 0.58209 0.0
H438 H 0.66031 0.25707 0.60065 0.0
H439 H 0.62127 0.22472 0.58637 0.0
C440 C 0.77681 0.65526 0.03495 0.0
C441 C 0.7744 0.63839 0.06791 0.0
C442 C 0.76134 0.68056 0.0315 0.0
C443 C 0.74296 0.68938 0.06094 0.0
C444 C 0.74194 0.67331 0.0947 0.0
C445 C 0.75738 0.64811 0.09814 0.0
C446 C 0.72348 0.71421 0.05731 0.0
C447 C 0.71529 0.72549 0.02347 0.0
C448 C 0.69146 0.74615 0.01935 0.0
C449 C 0.67823 0.74875 0.9833 0.0
C450 C 0.65381 0.76528 0.97878 0.0
C451 C 0.64201 0.77964 1.01028 0.0
H452 H 0.69079 0.76175 0.0783 0.0
C453 C 0.65613 0.77845 0.04589 0.0
C454 C 0.6807 0.76207 0.05036 0.0
H455 H 0.64785 0.78967 0.07058 0.0
H456 H 0.79006 0.64855 1.01133 0.0
H457 H 0.76367 0.69278 1.00556 0.0
H458 H 0.72831 0.6797 0.11808 0.0
H459 H 0.75527 0.63583 0.12414 0.0
H460 H 0.71323 0.72119 0.08343 0.0
H461 H 0.72412 0.71712 0.99711 0.0
H462 H 0.68616 0.73708 0.95875 0.0
H463 H 0.6436 0.7659 0.95085 0.0
C464 C 0.35523 0.764 0.51918 0.0
C465 C 0.37989 0.75525 0.50003 0.0
C466 C 0.32999 0.74856 0.51501 0.0
C467 C 0.32898 0.7242 0.49139 0.0
C468 C 0.35335 0.71621 0.47122 0.0
C469 C 0.37856 0.73138 0.47571 0.0
C470 C 0.30321 0.70629 0.48716 0.0
C471 C 0.28372 0.70332 0.51488 0.0
C472 C 0.26095 0.68153 0.51253 0.0
C473 C 0.25155 0.66878 0.54642 0.0
C474 C 0.23258 0.64597 0.54498 0.0
C475 C 0.22236 0.63565 0.50956 0.0
H476 H 0.25535 0.68234 0.45063 0.0
C477 C 0.23036 0.64961 0.4758 0.0
C478 C 0.24941 0.67234 0.47725 0.0
H479 H 0.22259 0.64247 0.44807 0.0
H480 H 0.35556 0.78243 0.53793 0.0
H481 H 0.31139 0.7558 0.5302 0.0
H482 H 0.35311 0.6977 0.45259 0.0
H483 H 0.39709 0.72423 0.46024 0.0
H484 H 0.30199 0.69275 0.46186 0.0
H485 H 0.28638 0.71472 0.54183 0.0
H486 H 0.25983 0.67568 0.57401 0.0
H487 H 0.22663 0.63589 0.57157 0.0
loop_
_geom_bond_atom_site_label_1
_geom_bond_atom_site_label_2
_geom_bond_distance
_geom_bond_site_symmetry_2
_ccdc_geom_bond_type
Mg0 O7 2.141 . S
Mg0 O8 2.048 . S
Mg0 O9 2.048 1_554 S
Mg0 O12 2.141 . S
C1 O2 1.313 . S
C1 O8 1.195 . S
O2 C1 1.313 . S
C3 O4 1.245 . S
C3 O12 1.289 . S
O4 C3 1.245 . S
C5 O6 1.245 . S
C5 O7 1.289 . S
O6 C5 1.245 . S
O7 Mg0 2.141 . S
O7 C5 1.289 . S
O8 Mg0 2.048 . S
O8 C1 1.195 . S
O9 Mg0 2.048 1_556 S
O9 C10 1.195 . S
C10 O9 1.195 . S
C10 O11 1.313 . S
O11 C10 1.313 . S
O12 Mg0 2.141 . S
O12 C3 1.289 . S
Mg13 O20 2.141 . S
Mg13 O21 2.048 . S
Mg13 O22 2.048 . S
Mg13 O25 2.141 . S
C14 O15 1.313 . S
C14 O21 1.195 . S
O15 C14 1.313 . S
C16 O17 1.245 . S
C16 O25 1.289 . S
O17 C16 1.245 . S
C18 O19 1.245 . S
C18 O20 1.289 . S
O19 C18 1.245 . S
O20 Mg13 2.141 . S
O20 C18 1.289 . S
O21 Mg13 2.048 . S
O21 C14 1.195 . S
O22 Mg13 2.048 . S
O22 C23 1.195 . S
C23 O22 1.195 . S
C23 O24 1.313 . S
O24 C23 1.313 . S
O25 Mg13 2.141 . S
O25 C16 1.289 . S
Mg26 O33 2.141 . S
Mg26 O34 2.048 . S
Mg26 O35 2.048 1_554 S
Mg26 O38 2.141 . S
C27 O28 1.313 . S
C27 O34 1.195 . S
O28 C27 1.313 . S
C29 O30 1.245 . S
C29 O38 1.289 . S
O30 C29 1.245 . S
C31 O32 1.245 . S
C31 O33 1.289 . S
O32 C31 1.245 . S
O33 Mg26 2.141 . S
O33 C31 1.289 . S
O34 Mg26 2.048 . S
O34 C27 1.195 . S
O35 Mg26 2.048 1_556 S
O35 C36 1.195 . S
C36 O35 1.195 . S
C36 O37 1.313 . S
O37 C36 1.313 . S
O38 Mg26 2.141 . S
O38 C29 1.289 . S
Mg39 O46 2.141 . S
Mg39 O47 2.048 . S
Mg39 O48 2.048 . S
Mg39 O51 2.141 . S
C40 O41 1.313 . S
C40 O47 1.195 . S
O41 C40 1.313 . S
C42 O43 1.245 . S
C42 O51 1.289 . S
O43 C42 1.245 . S
C44 O45 1.245 . S
C44 O46 1.289 . S
O45 C44 1.245 . S
O46 Mg39 2.141 . S
O46 C44 1.289 . S
O47 Mg39 2.048 . S
O47 C40 1.195 . S
O48 Mg39 2.048 . S
O48 C49 1.195 . S
C49 O48 1.195 . S
C49 O50 1.313 . S
O50 C49 1.313 . S
O51 Mg39 2.141 . S
O51 C42 1.289 . S
Mg52 O59 2.141 . S
Mg52 O60 2.048 . S
Mg52 O61 2.048 . S
Mg52 O64 2.141 . S
C53 O54 1.313 . S
C53 O60 1.195 . S
O54 C53 1.313 . S
C55 O56 1.245 . S
C55 O64 1.289 . S
O56 C55 1.245 . S
C57 O58 1.245 . S
C57 O59 1.289 . S
O58 C57 1.245 . S
O59 Mg52 2.141 . S
O59 C57 1.289 . S
O60 Mg52 2.048 . S
O60 C53 1.195 . S
O61 Mg52 2.048 . S
O61 C62 1.195 . S
C62 O61 1.195 . S
C62 O63 1.313 . S
O63 C62 1.313 . S
O64 Mg52 2.141 . S
O64 C55 1.289 . S
Mg65 O72 2.141 . S
Mg65 O73 2.048 . S
Mg65 O74 2.048 . S
Mg65 O77 2.141 1_554 S
C66 O67 1.313 . S
C66 O73 1.195 . S
O67 C66 1.313 . S
C68 O69 1.245 . S
C68 O77 1.289 . S
O69 C68 1.245 . S
C70 O71 1.245 . S
C70 O72 1.289 . S
O71 C70 1.245 . S
O72 Mg65 2.141 . S
O72 C70 1.289 . S
O73 Mg65 2.048 . S
O73 C66 1.195 . S
O74 Mg65 2.048 . S
O74 C75 1.195 . S
C75 O74 1.195 . S
C75 O76 1.313 . S
O76 C75 1.313 . S
O77 Mg65 2.141 1_556 S
O77 C68 1.289 . S
Mg78 O85 2.141 . S
Mg78 O86 2.048 . S
Mg78 O87 2.048 . S
Mg78 O90 2.141 . S
C79 O80 1.313 . S
C79 O86 1.195 . S
O80 C79 1.313 . S
C81 O82 1.245 . S
C81 O90 1.289 . S
O82 C81 1.245 . S
C83 O84 1.245 . S
C83 O85 1.289 . S
O84 C83 1.245 . S
O85 Mg78 2.141 . S
O85 C83 1.289 . S
O86 Mg78 2.048 . S
O86 C79 1.195 . S
O87 Mg78 2.048 . S
O87 C88 1.195 . S
C88 O87 1.195 . S
C88 O89 1.313 . S
O89 C88 1.313 . S
O90 Mg78 2.141 . S
O90 C81 1.289 . S
Mg91 O98 2.141 . S
Mg91 O99 2.048 . S
Mg91 O100 2.048 . S
Mg91 O103 2.141 1_554 S
C92 O93 1.313 . S
C92 O99 1.195 . S
O93 C92 1.313 . S
C94 O95 1.245 . S
C94 O103 1.289 . S
O95 C94 1.245 . S
C96 O97 1.245 . S
C96 O98 1.289 . S
O97 C96 1.245 . S
O98 Mg91 2.141 . S
O98 C96 1.289 . S
O99 Mg91 2.048 . S
O99 C92 1.195 . S
O100 Mg91 2.048 . S
O100 C101 1.195 . S
C101 O100 1.195 . S
C101 O102 1.313 . S
O102 C101 1.313 . S
O103 Mg91 2.141 1_556 S
O103 C94 1.289 . S
C104 C105 1.386 . S
C104 C106 1.383 . S
C104 H120 0.951 . S
C105 C104 1.386 . S
C105 C109 1.383 . S
C106 C104 1.383 . S
C106 C107 1.402 . S
C106 H121 0.951 . S
C107 C106 1.402 . S
C107 C108 1.375 . S
C107 C110 1.481 . S
C108 C107 1.375 . S
C108 C109 1.367 . S
C108 H122 0.951 . S
C109 C105 1.383 . S
C109 C108 1.367 . S
C109 H123 0.950 . S
C110 C107 1.481 . S
C110 C111 1.297 . S
C110 H124 0.950 . S
C111 C110 1.297 . S
C111 C112 1.479 . S
C111 H125 0.950 . S
C112 C111 1.479 . S
C112 C113 1.375 . S
C112 C118 1.404 . S
C113 C112 1.375 . S
C113 C114 1.369 . S
C113 H126 0.950 . S
C114 C113 1.369 . S
C114 C115 1.392 . S
C114 H127 0.951 . S
C115 C114 1.392 . S
C115 C117 1.384 . S
H116 C118 0.949 . S
C117 C115 1.384 . S
C117 C118 1.385 . S
C117 H119 0.950 . S
C118 C112 1.404 . S
C118 H116 0.949 . S
C118 C117 1.385 . S
H119 C117 0.950 . S
H120 C104 0.951 . S
H121 C106 0.951 . S
H122 C108 0.951 . S
H123 C109 0.950 . S
H124 C110 0.950 . S
H125 C111 0.950 . S
H126 C113 0.950 . S
H127 C114 0.951 . S
C128 C129 1.386 . S
C128 C130 1.383 . S
C128 H144 0.951 . S
C129 C128 1.386 . S
C129 C133 1.383 . S
C130 C128 1.383 . S
C130 C131 1.402 . S
C130 H145 0.951 . S
C131 C130 1.402 . S
C131 C132 1.375 . S
C131 C134 1.481 . S
C132 C131 1.375 . S
C132 C133 1.367 . S
C132 H146 0.951 . S
C133 C129 1.383 . S
C133 C132 1.367 . S
C133 H147 0.950 . S
C134 C131 1.481 . S
C134 C135 1.297 . S
C134 H148 0.950 . S
C135 C134 1.297 . S
C135 C136 1.479 . S
C135 H149 0.950 . S
C136 C135 1.479 . S
C136 C137 1.375 . S
C136 C142 1.404 . S
C137 C136 1.375 . S
C137 C138 1.369 . S
C137 H150 0.950 . S
C138 C137 1.369 . S
C138 C139 1.392 . S
C138 H151 0.951 . S
C139 C138 1.392 . S
C139 C141 1.384 . S
H140 C142 0.949 . S
C141 C139 1.384 . S
C141 C142 1.385 . S
C141 H143 0.950 . S
C142 C136 1.404 . S
C142 H140 0.949 . S
C142 C141 1.385 . S
H143 C141 0.950 . S
H144 C128 0.951 . S
H145 C130 0.951 . S
H146 C132 0.951 . S
H147 C133 0.950 . S
H148 C134 0.950 . S
H149 C135 0.950 . S
H150 C137 0.950 . S
H151 C138 0.951 . S
C152 C153 1.386 . S
C152 C154 1.383 . S
C152 H168 0.951 . S
C153 C152 1.386 . S
C153 C157 1.383 . S
C154 C152 1.383 . S
C154 C155 1.402 . S
C154 H169 0.951 . S
C155 C154 1.402 . S
C155 C156 1.375 . S
C155 C158 1.481 . S
C156 C155 1.375 . S
C156 C157 1.367 . S
C156 H170 0.951 . S
C157 C153 1.383 . S
C157 C156 1.367 . S
C157 H171 0.950 . S
C158 C155 1.481 . S
C158 C159 1.297 . S
C158 H172 0.950 . S
C159 C158 1.297 . S
C159 C160 1.479 . S
C159 H173 0.950 . S
C160 C159 1.479 . S
C160 C161 1.375 . S
C160 C166 1.404 . S
C161 C160 1.375 . S
C161 C162 1.369 . S
C161 H174 0.950 . S
C162 C161 1.369 . S
C162 C163 1.392 . S
C162 H175 0.951 . S
C163 C162 1.392 . S
C163 C165 1.384 . S
H164 C166 0.949 . S
C165 C163 1.384 . S
C165 C166 1.385 . S
C165 H167 0.950 . S
C166 C160 1.404 . S
C166 H164 0.949 . S
C166 C165 1.385 . S
H167 C165 0.950 . S
H168 C152 0.951 . S
H169 C154 0.951 . S
H170 C156 0.951 . S
H171 C157 0.950 . S
H172 C158 0.950 . S
H173 C159 0.950 . S
H174 C161 0.950 . S
H175 C162 0.951 . S
C176 C177 1.386 . S
C176 C178 1.383 . S
C176 H192 0.951 . S
C177 C176 1.386 . S
C177 C181 1.383 . S
C178 C176 1.383 . S
C178 C179 1.402 . S
C178 H193 0.951 . S
C179 C178 1.402 . S
C179 C180 1.375 . S
C179 C182 1.481 . S
C180 C179 1.375 . S
C180 C181 1.367 . S
C180 H194 0.951 . S
C181 C177 1.383 . S
C181 C180 1.367 . S
C181 H195 0.950 . S
C182 C179 1.481 . S
C182 C183 1.297 . S
C182 H196 0.950 . S
C183 C182 1.297 . S
C183 C184 1.479 . S
C183 H197 0.950 . S
C184 C183 1.479 . S
C184 C185 1.375 . S
C184 C190 1.404 . S
C185 C184 1.375 . S
C185 C186 1.369 . S
C185 H198 0.950 . S
C186 C185 1.369 . S
C186 C187 1.392 . S
C186 H199 0.951 . S
C187 C186 1.392 . S
C187 C189 1.384 . S
H188 C190 0.949 . S
C189 C187 1.384 . S
C189 C190 1.385 . S
C189 H191 0.950 . S
C190 C184 1.404 . S
C190 H188 0.949 . S
C190 C189 1.385 . S
H191 C189 0.950 . S
H192 C176 0.951 . S
H193 C178 0.951 . S
H194 C180 0.951 . S
H195 C181 0.950 . S
H196 C182 0.950 . S
H197 C183 0.950 . S
H198 C185 0.950 . S
H199 C186 0.951 . S
C200 C201 1.386 . S
C200 C202 1.383 . S
C200 H216 0.951 . S
C201 C200 1.386 . S
C201 C205 1.383 . S
C202 C200 1.383 . S
C202 C203 1.402 . S
C202 H217 0.951 . S
C203 C202 1.402 . S
C203 C204 1.375 . S
C203 C206 1.481 . S
C204 C203 1.375 . S
C204 C205 1.367 . S
C204 H218 0.951 . S
C205 C201 1.383 . S
C205 C204 1.367 . S
C205 H219 0.950 . S
C206 C203 1.481 . S
C206 C207 1.297 . S
C206 H220 0.950 . S
C207 C206 1.297 . S
C207 C208 1.479 . S
C207 H221 0.950 . S
C208 C207 1.479 . S
C208 C209 1.375 . S
C208 C214 1.404 . S
C209 C208 1.375 . S
C209 C210 1.369 . S
C209 H222 0.950 . S
C210 C209 1.369 . S
C210 C211 1.392 . S
C210 H223 0.951 . S
C211 C210 1.392 . S
C211 C213 1.384 . S
H212 C214 0.949 . S
C213 C211 1.384 . S
C213 C214 1.385 . S
C213 H215 0.950 . S
C214 C208 1.404 . S
C214 H212 0.949 . S
C214 C213 1.385 . S
H215 C213 0.950 . S
H216 C200 0.951 . S
H217 C202 0.951 . S
H218 C204 0.951 . S
H219 C205 0.950 . S
H220 C206 0.950 . S
H221 C207 0.950 . S
H222 C209 0.950 . S
H223 C210 0.951 . S
C224 C225 1.386 . S
C224 C226 1.383 . S
C224 H240 0.951 . S
C225 C224 1.386 . S
C225 C229 1.383 . S
C226 C224 1.383 . S
C226 C227 1.402 . S
C226 H241 0.951 . S
C227 C226 1.402 . S
C227 C228 1.375 . S
C227 C230 1.481 . S
C228 C227 1.375 . S
C228 C229 1.367 . S
C228 H242 0.951 . S
C229 C225 1.383 . S
C229 C228 1.367 . S
C229 H243 0.950 . S
C230 C227 1.481 . S
C230 C231 1.297 . S
C230 H244 0.950 . S
C231 C230 1.297 . S
C231 C232 1.479 . S
C231 H245 0.950 . S
C232 C231 1.479 . S
C232 C233 1.375 . S
C232 C238 1.404 . S
C233 C232 1.375 . S
C233 C234 1.369 . S
C233 H246 0.950 . S
C234 C233 1.369 . S
C234 C235 1.392 . S
C234 H247 0.951 . S
C235 C234 1.392 . S
C235 C237 1.384 . S
H236 C238 0.949 . S
C237 C235 1.384 . S
C237 C238 1.385 . S
C237 H239 0.950 . S
C238 C232 1.404 . S
C238 H236 0.949 . S
C238 C237 1.385 . S
H239 C237 0.950 . S
H240 C224 0.951 . S
H241 C226 0.951 . S
H242 C228 0.951 . S
H243 C229 0.950 . S
H244 C230 0.950 . S
H245 C231 0.950 . S
H246 C233 0.950 . S
H247 C234 0.951 . S
C248 C249 1.386 . S
C248 C250 1.383 . S
C248 H264 0.951 . S
C249 C248 1.386 . S
C249 C253 1.383 . S
C250 C248 1.383 . S
C250 C251 1.402 . S
C250 H265 0.951 . S
C251 C250 1.402 . S
C251 C252 1.375 . S
C251 C254 1.481 . S
C252 C251 1.375 . S
C252 C253 1.367 . S
C252 H266 0.951 . S
C253 C249 1.383 . S
C253 C252 1.367 . S
C253 H267 0.950 . S
C254 C251 1.481 . S
C254 C255 1.297 . S
C254 H268 0.950 . S
C255 C254 1.297 . S
C255 C256 1.479 . S
C255 H269 0.950 . S
C256 C255 1.479 . S
C256 C257 1.375 . S
C256 C262 1.404 . S
C257 C256 1.375 . S
C257 C258 1.369 . S
C257 H270 0.950 . S
C258 C257 1.369 . S
C258 C259 1.392 . S
C258 H271 0.951 . S
C259 C258 1.392 . S
C259 C261 1.384 . S
H260 C262 0.949 . S
C261 C259 1.384 . S
C261 C262 1.385 . S
C261 H263 0.950 . S
C262 C256 1.404 . S
C262 H260 0.949 . S
C262 C261 1.385 . S
H263 C261 0.950 . S
H264 C248 0.951 . S
H265 C250 0.951 . S
H266 C252 0.951 . S
H267 C253 0.950 . S
H268 C254 0.950 . S
H269 C255 0.950 . S
H270 C257 0.950 . S
H271 C258 0.951 . S
C272 C273 1.386 . S
C272 C274 1.383 . S
C272 H288 0.951 . S
C273 C272 1.386 . S
C273 C277 1.383 . S
C274 C272 1.383 . S
C274 C275 1.402 . S
C274 H289 0.951 . S
C275 C274 1.402 . S
C275 C276 1.375 . S
C275 C278 1.481 . S
C276 C275 1.375 . S
C276 C277 1.367 . S
C276 H290 0.951 . S
C277 C273 1.383 . S
C277 C276 1.367 . S
C277 H291 0.950 . S
C278 C275 1.481 . S
C278 C279 1.297 . S
C278 H292 0.950 . S
C279 C278 1.297 . S
C279 C280 1.479 . S
C279 H293 0.950 . S
C280 C279 1.479 . S
C280 C281 1.375 . S
C280 C286 1.404 . S
C281 C280 1.375 . S
C281 C282 1.369 . S
C281 H294 0.950 . S
C282 C281 1.369 . S
C282 C283 1.392 . S
C282 H295 0.951 . S
C283 C282 1.392 . S
C283 C285 1.384 . S
H284 C286 0.949 . S
C285 C283 1.384 . S
C285 C286 1.385 . S
C285 H287 0.950 . S
C286 C280 1.404 . S
C286 H284 0.949 . S
C286 C285 1.385 . S
H287 C285 0.950 . S
H288 C272 0.951 . S
H289 C274 0.951 . S
H290 C276 0.951 . S
H291 C277 0.950 . S
H292 C278 0.950 . S
H293 C279 0.950 . S
H294 C281 0.950 . S
H295 C282 0.951 . S
C296 C297 1.386 1_556 S
C296 C298 1.383 . S
C296 H312 0.951 . S
C297 C296 1.386 1_554 S
C297 C301 1.383 . S
C298 C296 1.383 . S
C298 C299 1.402 1_556 S
C298 H313 0.951 . S
C299 C298 1.402 1_554 S
C299 C300 1.375 . S
C299 C302 1.481 . S
C300 C299 1.375 . S
C300 C301 1.367 . S
C300 H314 0.951 . S
C301 C297 1.383 . S
C301 C300 1.367 . S
C301 H315 0.950 . S
C302 C299 1.481 . S
C302 C303 1.297 1_655 S
C302 H316 0.950 . S
C303 C302 1.297 1_455 S
C303 C304 1.479 . S
C303 H317 0.950 1_554 S
C304 C303 1.479 . S
C304 C305 1.375 1_554 S
C304 C310 1.404 . S
C305 C304 1.375 1_556 S
C305 C306 1.369 . S
C305 H318 0.950 . S
C306 C305 1.369 . S
C306 C307 1.392 1_556 S
C306 H319 0.951 . S
C307 C306 1.392 1_554 S
C307 C309 1.384 . S
H308 C310 0.949 . S
C309 C307 1.384 . S
C309 C310 1.385 . S
C309 H311 0.950 . S
C310 C304 1.404 . S
C310 H308 0.949 . S
C310 C309 1.385 . S
H311 C309 0.950 . S
H312 C296 0.951 . S
H313 C298 0.951 . S
H314 C300 0.951 . S
H315 C301 0.950 . S
H316 C302 0.950 . S
H317 C303 0.950 1_556 S
H318 C305 0.950 . S
H319 C306 0.951 . S
C320 C321 1.386 . S
C320 C322 1.383 . S
C320 H336 0.951 . S
C321 C320 1.386 . S
C321 C325 1.383 . S
C322 C320 1.383 . S
C322 C323 1.402 . S
C322 H337 0.951 . S
C323 C322 1.402 . S
C323 C324 1.375 . S
C323 C326 1.481 . S
C324 C323 1.375 . S
C324 C325 1.367 . S
C324 H338 0.951 . S
C325 C321 1.383 . S
C325 C324 1.367 . S
C325 H339 0.950 . S
C326 C323 1.481 . S
C326 C327 1.297 1_565 S
C326 H340 0.950 . S
C327 C326 1.297 1_545 S
C327 C328 1.479 . S
C327 H341 0.962 . S
C328 C327 1.479 . S
C328 C329 1.375 . S
C328 C334 1.404 . S
C329 C328 1.375 . S
C329 C330 1.369 . S
C329 H342 0.950 . S
C330 C329 1.369 . S
C330 C331 1.392 . S
C330 H343 0.951 . S
C331 C330 1.392 . S
C331 C333 1.384 . S
H332 C334 0.949 . S
C333 C331 1.384 . S
C333 C334 1.385 . S
C333 H335 0.950 . S
C334 C328 1.404 . S
C334 H332 0.949 . S
C334 C333 1.385 . S
H335 C333 0.950 . S
H336 C320 0.951 . S
H337 C322 0.951 . S
H338 C324 0.951 . S
H339 C325 0.950 . S
H340 C326 0.950 . S
H341 C327 0.962 . S
H342 C329 0.950 . S
H343 C330 0.951 . S
C344 C345 1.386 . S
C344 C346 1.383 . S
C344 H360 0.951 . S
C345 C344 1.386 . S
C345 C349 1.383 . S
C346 C344 1.383 . S
C346 C347 1.402 . S
C346 H361 0.951 . S
C347 C346 1.402 . S
C347 C348 1.375 . S
C347 C350 1.481 . S
C348 C347 1.375 . S
C348 C349 1.367 . S
C348 H362 0.951 . S
C349 C345 1.383 . S
C349 C348 1.367 . S
C349 H363 0.950 . S
C350 C347 1.481 . S
C350 C351 1.297 1_455 S
C350 H364 0.950 . S
C351 C350 1.297 1_655 S
C351 C352 1.479 . S
C351 H365 0.950 . S
C352 C351 1.479 . S
C352 C353 1.375 . S
C352 C358 1.404 . S
C353 C352 1.375 . S
C353 C354 1.369 . S
C353 H366 0.950 . S
C354 C353 1.369 . S
C354 C355 1.392 . S
C354 H367 0.951 . S
C355 C354 1.392 . S
C355 C357 1.384 . S
H356 C358 0.949 . S
C357 C355 1.384 . S
C357 C358 1.385 . S
C357 H359 0.950 . S
C358 C352 1.404 . S
C358 H356 0.949 . S
C358 C357 1.385 . S
H359 C357 0.950 . S
H360 C344 0.951 . S
H361 C346 0.951 . S
H362 C348 0.951 . S
H363 C349 0.950 . S
H364 C350 0.950 . S
H365 C351 0.950 . S
H366 C353 0.950 . S
H367 C354 0.951 . S
C368 C369 1.386 . S
C368 C370 1.383 . S
C368 H384 0.951 . S
C369 C368 1.386 . S
C369 C373 1.383 . S
C370 C368 1.383 . S
C370 C371 1.402 . S
C370 H385 0.951 . S
C371 C370 1.402 . S
C371 C372 1.375 . S
C371 C374 1.481 . S
C372 C371 1.375 . S
C372 C373 1.367 . S
C372 H386 0.951 . S
C373 C369 1.383 . S
C373 C372 1.367 . S
C373 H387 0.950 . S
C374 C371 1.481 . S
C374 C375 1.297 1_565 S
C374 H388 0.950 . S
C375 C374 1.297 1_545 S
C375 C376 1.479 . S
C375 H389 0.950 . S
C376 C375 1.479 . S
C376 C377 1.375 . S
C376 C382 1.404 . S
C377 C376 1.375 . S
C377 C378 1.369 . S
C377 H390 0.950 . S
C378 C377 1.369 . S
C378 C379 1.392 . S
C378 H391 0.951 . S
C379 C378 1.392 . S
C379 C381 1.384 . S
H380 C382 0.949 . S
C381 C379 1.384 . S
C381 C382 1.385 . S
C381 H383 0.950 . S
C382 C376 1.404 . S
C382 H380 0.949 . S
C382 C381 1.385 . S
H383 C381 0.950 . S
H384 C368 0.951 . S
H385 C370 0.951 . S
H386 C372 0.951 . S
H387 C373 0.950 . S
H388 C374 0.950 . S
H389 C375 0.950 . S
H390 C377 0.950 . S
H391 C378 0.951 . S
C392 C393 1.386 1_556 S
C392 C394 1.383 . S
C392 H408 0.951 . S
C393 C392 1.386 1_554 S
C393 C397 1.383 . S
C394 C392 1.383 . S
C394 C395 1.402 1_556 S
C394 H409 0.951 . S
C395 C394 1.402 1_554 S
C395 C396 1.375 . S
C395 C398 1.481 . S
C396 C395 1.375 . S
C396 C397 1.367 . S
C396 H410 0.951 . S
C397 C393 1.383 . S
C397 C396 1.367 . S
C397 H411 0.950 . S
C398 C395 1.481 . S
C398 C399 1.297 . S
C398 H412 0.950 . S
C399 C398 1.297 . S
C399 C400 1.479 . S
C399 H413 0.950 1_554 S
C400 C399 1.479 . S
C400 C401 1.375 1_554 S
C400 C406 1.404 . S
C401 C400 1.375 1_556 S
C401 C402 1.369 . S
C401 H414 0.950 . S
C402 C401 1.369 . S
C402 C403 1.392 1_556 S
C402 H415 0.951 . S
C403 C402 1.392 1_554 S
C403 C405 1.384 . S
H404 C406 0.949 . S
C405 C403 1.384 . S
C405 C406 1.385 . S
C405 H407 0.950 . S
C406 C400 1.404 . S
C406 H404 0.949 . S
C406 C405 1.385 . S
H407 C405 0.950 . S
H408 C392 0.951 . S
H409 C394 0.951 . S
H410 C396 0.951 . S
H411 C397 0.950 . S
H412 C398 0.950 . S
H413 C399 0.950 1_556 S
H414 C401 0.950 . S
H415 C402 0.951 . S
C416 C417 1.386 . S
C416 C418 1.383 . S
C416 H432 0.951 . S
C417 C416 1.386 . S
C417 C421 1.383 . S
C418 C416 1.383 . S
C418 C419 1.402 . S
C418 H433 0.951 . S
C419 C418 1.402 . S
C419 C420 1.375 . S
C419 C422 1.481 . S
C420 C419 1.375 . S
C420 C421 1.367 . S
C420 H434 0.951 . S
C421 C417 1.383 . S
C421 C420 1.367 . S
C421 H435 0.950 . S
C422 C419 1.481 . S
C422 C423 1.297 . S
C422 H436 0.950 . S
C423 C422 1.297 . S
C423 C424 1.479 . S
C423 H437 0.950 . S
C424 C423 1.479 . S
C424 C425 1.375 . S
C424 C430 1.404 . S
C425 C424 1.375 . S
C425 C426 1.369 . S
C425 H438 0.950 . S
C426 C425 1.369 . S
C426 C427 1.392 . S
C426 H439 0.951 . S
C427 C426 1.392 . S
C427 C429 1.384 . S
H428 C430 0.949 . S
C429 C427 1.384 . S
C429 C430 1.385 . S
C429 H431 0.950 . S
C430 C424 1.404 . S
C430 H428 0.949 . S
C430 C429 1.385 . S
H431 C429 0.950 . S
H432 C416 0.951 . S
H433 C418 0.951 . S
H434 C420 0.951 . S
H435 C421 0.950 . S
H436 C422 0.950 . S
H437 C423 0.950 . S
H438 C425 0.950 . S
H439 C426 0.951 . S
C440 C441 1.386 . S
C440 C442 1.383 . S
C440 H456 0.951 . S
C441 C440 1.386 . S
C441 C445 1.383 . S
C442 C440 1.383 . S
C442 C443 1.402 . S
C442 H457 0.951 . S
C443 C442 1.402 . S
C443 C444 1.375 . S
C443 C446 1.481 . S
C444 C443 1.375 . S
C444 C445 1.367 . S
C444 H458 0.951 . S
C445 C441 1.383 . S
C445 C444 1.367 . S
C445 H459 0.950 . S
C446 C443 1.481 . S
C446 C447 1.297 . S
C446 H460 0.950 . S
C447 C446 1.297 . S
C447 C448 1.479 . S
C447 H461 0.950 . S
C448 C447 1.479 . S
C448 C449 1.375 . S
C448 C454 1.404 . S
C449 C448 1.375 . S
C449 C450 1.369 . S
C449 H462 0.950 . S
C450 C449 1.369 . S
C450 C451 1.392 . S
C450 H463 0.951 . S
C451 C450 1.392 . S
C451 C453 1.384 . S
H452 C454 0.949 . S
C453 C451 1.384 . S
C453 C454 1.385 . S
C453 H455 0.950 . S
C454 C448 1.404 . S
C454 H452 0.949 . S
C454 C453 1.385 . S
H455 C453 0.950 . S
H456 C440 0.951 . S
H457 C442 0.951 . S
H458 C444 0.951 . S
H459 C445 0.950 . S
H460 C446 0.950 . S
H461 C447 0.950 . S
H462 C449 0.950 . S
H463 C450 0.951 . S
C464 C465 1.386 . S
C464 C466 1.383 . S
C464 H480 0.951 . S
C465 C464 1.386 . S
C465 C469 1.383 . S
C466 C464 1.383 . S
C466 C467 1.402 . S
C466 H481 0.951 . S
C467 C466 1.402 . S
C467 C468 1.375 . S
C467 C470 1.481 . S
C468 C467 1.375 . S
C468 C469 1.367 . S
C468 H482 0.951 . S
C469 C465 1.383 . S
C469 C468 1.367 . S
C469 H483 0.950 . S
C470 C467 1.481 . S
C470 C471 1.297 . S
C470 H484 0.950 . S
C471 C470 1.297 . S
C471 C472 1.479 . S
C471 H485 0.950 . S
C472 C471 1.479 . S
C472 C473 1.375 . S
C472 C478 1.404 . S
C473 C472 1.375 . S
C473 C474 1.369 . S
C473 H486 0.950 . S
C474 C473 1.369 . S
C474 C475 1.392 . S
C474 H487 0.951 . S
C475 C474 1.392 . S
C475 C477 1.384 . S
H476 C478 0.949 . S
C477 C475 1.384 . S
C477 C478 1.385 . S
C477 H479 0.950 . S
C478 C472 1.404 . S
C478 H476 0.949 . S
C478 C477 1.385 . S
H479 C477 0.950 . S
H480 C464 0.951 . S
H481 C466 0.951 . S
H482 C468 0.951 . S
H483 C469 0.950 . S
H484 C470 0.950 . S
H485 C471 0.950 . S
H486 C473 0.950 . S
H487 C474 0.951 . S
C105 C5 1.513 . S
C115 C53 1.492 . S
C129 C16 1.483 . S
C139 C68 1.509 . S
C153 C83 1.507 . S
C163 C31 1.497 . S
C177 C94 1.494 . S
C187 C42 1.502 . S
C201 C88 1.637 . S
C211 C36 1.626 . S
C225 C92 1.616 . S
C235 C40 1.624 . S
C249 C10 1.623 . S
C259 C55 1.619 . S
C273 C14 1.604 . S
C283 C66 1.584 . S
C297 C27 1.939 . S
C307 C1 1.990 . S
C321 C49 2.048 . S
C331 C23 2.066 . S
C345 C62 1.959 . S
C355 C79 1.919 . S
C369 C101 2.041 . S
C379 C75 2.032 . S
C393 C3 1.912 . S
C403 C70 1.958 . S
C417 C81 1.907 . S
C427 C18 1.960 . S
C441 C29 1.874 . S
C451 C96 1.961 . S
C465 C44 1.967 . S
C475 C57 1.845 . S
