# Generated by pormake.
# Topology wiu, (6)-cn, num edge types: 1
# Building blocks:
#     Node 0, Type 0, BuildingBlock: BETDAH_clean_sbu_0, # of connection points: 6
#     Node 1, Type 0, BuildingBlock: BETDAH_clean_sbu_0, # of connection points: 6
#     Node 2, Type 0, BuildingBlock: BETDAH_clean_sbu_0, # of connection points: 6
#     Node 3, Type 0, BuildingBlock: BETDAH_clean_sbu_0, # of connection points: 6
#     Node 4, Type 0, BuildingBlock: BETDAH_clean_sbu_0, # of connection points: 6
#     Node 5, Type 0, BuildingBlock: BETDAH_clean_sbu_0, # of connection points: 6
#     Node 6, Type 0, BuildingBlock: BETDAH_clean_sbu_0, # of connection points: 6
#     Node 7, Type 0, BuildingBlock: BETDAH_clean_sbu_0, # of connection points: 6
#     Node 8, Type 0, BuildingBlock: BETDAH_clean_sbu_0, # of connection points: 6
#     Node 9, Type 0, BuildingBlock: BETDAH_clean_sbu_0, # of connection points: 6
#     Node 10, Type 0, BuildingBlock: BETDAH_clean_sbu_0, # of connection points: 6
#     Node 11, Type 0, BuildingBlock: BETDAH_clean_sbu_0, # of connection points: 6
#     Node 12, Type 0, BuildingBlock: BETDAH_clean_sbu_0, # of connection points: 6
#     Node 13, Type 0, BuildingBlock: BETDAH_clean_sbu_0, # of connection points: 6
#     Node 14, Type 0, BuildingBlock: BETDAH_clean_sbu_0, # of connection points: 6
#     Node 15, Type 0, BuildingBlock: BETDAH_clean_sbu_0, # of connection points: 6
#     Edge 16, Type (0, 0), BuildingBlock: EZIPEK_clean_linker_0, # of connection points: 2
#     Edge 17, Type (0, 0), BuildingBlock: EZIPEK_clean_linker_0, # of connection points: 2
#     Edge 18, Type (0, 0), BuildingBlock: EZIPEK_clean_linker_0, # of connection points: 2
#     Edge 19, Type (0, 0), BuildingBlock: EZIPEK_clean_linker_0, # of connection points: 2
#     Edge 20, Type (0, 0), BuildingBlock: EZIPEK_clean_linker_0, # of connection points: 2
#     Edge 21, Type (0, 0), BuildingBlock: EZIPEK_clean_linker_0, # of connection points: 2
#     Edge 22, Type (0, 0), BuildingBlock: EZIPEK_clean_linker_0, # of connection points: 2
#     Edge 23, Type (0, 0), BuildingBlock: EZIPEK_clean_linker_0, # of connection points: 2
#     Edge 24, Type (0, 0), BuildingBlock: EZIPEK_clean_linker_0, # of connection points: 2
#     Edge 25, Type (0, 0), BuildingBlock: EZIPEK_clean_linker_0, # of connection points: 2
#     Edge 26, Type (0, 0), BuildingBlock: EZIPEK_clean_linker_0, # of connection points: 2
#     Edge 27, Type (0, 0), BuildingBlock: EZIPEK_clean_linker_0, # of connection points: 2
#     Edge 28, Type (0, 0), BuildingBlock: EZIPEK_clean_linker_0, # of connection points: 2
#     Edge 29, Type (0, 0), BuildingBlock: EZIPEK_clean_linker_0, # of connection points: 2
#     Edge 30, Type (0, 0), BuildingBlock: EZIPEK_clean_linker_0, # of connection points: 2
#     Edge 31, Type (0, 0), BuildingBlock: EZIPEK_clean_linker_0, # of connection points: 2
#     Edge 32, Type (0, 0), BuildingBlock: EZIPEK_clean_linker_0, # of connection points: 2
#     Edge 33, Type (0, 0), BuildingBlock: EZIPEK_clean_linker_0, # of connection points: 2
#     Edge 34, Type (0, 0), BuildingBlock: EZIPEK_clean_linker_0, # of connection points: 2
#     Edge 35, Type (0, 0), BuildingBlock: EZIPEK_clean_linker_0, # of connection points: 2
#     Edge 36, Type (0, 0), BuildingBlock: EZIPEK_clean_linker_0, # of connection points: 2
#     Edge 37, Type (0, 0), BuildingBlock: EZIPEK_clean_linker_0, # of connection points: 2
#     Edge 38, Type (0, 0), BuildingBlock: EZIPEK_clean_linker_0, # of connection points: 2
#     Edge 39, Type (0, 0), BuildingBlock: EZIPEK_clean_linker_0, # of connection points: 2
#     Edge 40, Type (0, 0), BuildingBlock: EZIPEK_clean_linker_0, # of connection points: 2
#     Edge 41, Type (0, 0), BuildingBlock: EZIPEK_clean_linker_0, # of connection points: 2
#     Edge 42, Type (0, 0), BuildingBlock: EZIPEK_clean_linker_0, # of connection points: 2
#     Edge 43, Type (0, 0), BuildingBlock: EZIPEK_clean_linker_0, # of connection points: 2
#     Edge 44, Type (0, 0), BuildingBlock: EZIPEK_clean_linker_0, # of connection points: 2
#     Edge 45, Type (0, 0), BuildingBlock: EZIPEK_clean_linker_0, # of connection points: 2
#     Edge 46, Type (0, 0), BuildingBlock: EZIPEK_clean_linker_0, # of connection points: 2
#     Edge 47, Type (0, 0), BuildingBlock: EZIPEK_clean_linker_0, # of connection points: 2
#     Edge 48, Type (0, 0), BuildingBlock: EZIPEK_clean_linker_0, # of connection points: 2
#     Edge 49, Type (0, 0), BuildingBlock: EZIPEK_clean_linker_0, # of connection points: 2
#     Edge 50, Type (0, 0), BuildingBlock: EZIPEK_clean_linker_0, # of connection points: 2
#     Edge 51, Type (0, 0), BuildingBlock: EZIPEK_clean_linker_0, # of connection points: 2
#     Edge 52, Type (0, 0), BuildingBlock: EZIPEK_clean_linker_0, # of connection points: 2
#     Edge 53, Type (0, 0), BuildingBlock: EZIPEK_clean_linker_0, # of connection points: 2
#     Edge 54, Type (0, 0), BuildingBlock: EZIPEK_clean_linker_0, # of connection points: 2
#     Edge 55, Type (0, 0), BuildingBlock: EZIPEK_clean_linker_0, # of connection points: 2
#     Edge 56, Type (0, 0), BuildingBlock: EZIPEK_clean_linker_0, # of connection points: 2
#     Edge 57, Type (0, 0), BuildingBlock: EZIPEK_clean_linker_0, # of connection points: 2
#     Edge 58, Type (0, 0), BuildingBlock: EZIPEK_clean_linker_0, # of connection points: 2
#     Edge 59, Type (0, 0), BuildingBlock: EZIPEK_clean_linker_0, # of connection points: 2
#     Edge 60, Type (0, 0), BuildingBlock: EZIPEK_clean_linker_0, # of connection points: 2
#     Edge 61, Type (0, 0), BuildingBlock: EZIPEK_clean_linker_0, # of connection points: 2
#     Edge 62, Type (0, 0), BuildingBlock: EZIPEK_clean_linker_0, # of connection points: 2
#     Edge 63, Type (0, 0), BuildingBlock: EZIPEK_clean_linker_0, # of connection points: 2
# Relax obj value: 0.728
# Max RMSD: 0.343
# Mean RMSD: 0.343
data_MOF--net-wiu--node1-BETDAH_clean_sbu_0--edge1-EZIPEK_clean_linker_0
_symmetry_space_group_name_H-M    P1
_symmetry_Int_Tables_number       1
_symmetry_cell_setting            triclinic
loop_
_symmetry_equiv_pos_as_xyz
'x, y, z'
_cell_length_a     28.491498
_cell_length_b     28.614333
_cell_length_c     38.81755
_cell_angle_alpha  91.251742
_cell_angle_beta   90.214906
_cell_angle_gamma 89.741112
loop_
_atom_site_label
_atom_site_type_symbol
_atom_site_fract_x
_atom_site_fract_y
_atom_site_fract_z
_atom_type_partial_charge
Ho0 Ho 0.37671 0.22356 0.3714 0.0
Ho1 Ho 0.4351 0.15392 0.33673 0.0
C2 C 0.41777 0.14198 0.41894 0.0
C3 C 0.31942 0.29136 0.38862 0.0
C4 C 0.31232 0.33755 0.37341 0.0
C5 C 0.33291 0.34744 0.34157 0.0
C6 C 0.32554 0.39069 0.3264 0.0
C7 C 0.29769 0.42481 0.34297 0.0
C8 C 0.2776 0.41532 0.37507 0.0
C9 C 0.28487 0.37183 0.39021 0.0
C10 C 0.46854 0.25247 0.36266 0.0
C11 C 0.35721 0.20009 0.28782 0.0
C12 C 0.50907 0.11938 0.30764 0.0
C13 C 0.54785 0.14211 0.28977 0.0
C14 C 0.5612 0.18782 0.29935 0.0
C15 C 0.598 0.20992 0.2827 0.0
C16 C 0.62104 0.18681 0.2555 0.0
C17 C 0.60802 0.14091 0.24603 0.0
C18 C 0.57171 0.1186 0.26315 0.0
C19 C 0.35213 0.11503 0.35679 0.0
O20 O 0.38243 0.17213 0.41557 0.0
O21 O 0.44819 0.13661 0.39329 0.0
O22 O 0.30783 0.25592 0.36902 0.0
O23 O 0.35981 0.28464 0.40336 0.0
O24 O 0.44475 0.2563 0.39067 0.0
O25 O 0.44286 0.23138 0.3406 0.0
O26 O 0.39372 0.17119 0.28862 0.0
O27 O 0.34633 0.22581 0.31586 0.0
O28 O 0.4681 0.12025 0.29229 0.0
O29 O 0.50643 0.12966 0.34054 0.0
O30 O 0.39096 0.09187 0.35165 0.0
O31 O 0.3596 0.15604 0.34717 0.0
H32 H 0.35437 0.3215 0.32832 0.0
H33 H 0.34125 0.39746 0.30164 0.0
H34 H 0.25603 0.44139 0.38816 0.0
H35 H 0.26887 0.36487 0.41484 0.0
H36 H 0.54278 0.20637 0.31958 0.0
H37 H 0.60767 0.24522 0.29041 0.0
H38 H 0.62556 0.1226 0.22497 0.0
H39 H 0.56197 0.08335 0.25539 0.0
Ho40 Ho 0.64955 0.64521 0.62407 0.0
Ho41 Ho 0.71587 0.69638 0.58867 0.0
C42 C 0.72749 0.69499 0.66973 0.0
C43 C 0.58514 0.58923 0.64628 0.0
C44 C 0.53823 0.57577 0.6328 0.0
C45 C 0.53143 0.53141 0.61732 0.0
C46 C 0.48781 0.51918 0.60317 0.0
C47 C 0.45036 0.55123 0.60404 0.0
C48 C 0.45682 0.59522 0.61994 0.0
C49 C 0.50017 0.60727 0.63437 0.0
C50 C 0.61885 0.73648 0.61443 0.0
C51 C 0.66684 0.61609 0.54264 0.0
C52 C 0.75608 0.76086 0.55408 0.0
C53 C 0.74762 0.81152 0.55256 0.0
C54 C 0.73633 0.83068 0.52084 0.0
C55 C 0.72595 0.87797 0.5187 0.0
C56 C 0.72811 0.9078 0.54808 0.0
C57 C 0.73796 0.88837 0.58018 0.0
C58 C 0.74745 0.84046 0.58246 0.0
C59 C 0.75655 0.61635 0.61203 0.0
O60 O 0.7042 0.65524 0.66655 0.0
O61 O 0.72421 0.72442 0.64393 0.0
O62 O 0.62102 0.57527 0.62819 0.0
O63 O 0.59026 0.63212 0.65732 0.0
O64 O 0.62101 0.71532 0.64341 0.0
O65 O 0.63812 0.70932 0.59224 0.0
O66 O 0.70278 0.64516 0.54429 0.0
O67 O 0.63726 0.61456 0.56913 0.0
O68 O 0.72301 0.73426 0.54122 0.0
O69 O 0.77251 0.74544 0.58301 0.0
O70 O 0.77823 0.65524 0.60755 0.0
O71 O 0.71546 0.6213 0.60078 0.0
H72 H 0.55993 0.50624 0.61602 0.0
H73 H 0.4832 0.48472 0.59157 0.0
H74 H 0.42809 0.62014 0.62135 0.0
H75 H 0.50371 0.64131 0.64666 0.0
H76 H 0.73527 0.80896 0.49762 0.0
H77 H 0.71781 0.89135 0.49353 0.0
H78 H 0.73879 0.91007 0.60334 0.0
H79 H 0.75482 0.82623 0.60754 0.0
Ho80 Ho 0.22402 0.90966 0.86845 0.0
Ho81 Ho 0.17 0.9726 0.82982 0.0
C82 C 0.17793 0.99491 0.91132 0.0
C83 C 0.27911 0.84404 0.89147 0.0
C84 C 0.28767 0.79562 0.87879 0.0
C85 C 0.31585 0.76506 0.89775 0.0
C86 C 0.32321 0.71889 0.88599 0.0
C87 C 0.30248 0.70246 0.85509 0.0
C88 C 0.27431 0.73317 0.83619 0.0
C89 C 0.26691 0.77928 0.84791 0.0
C90 C 0.13198 0.87952 0.86015 0.0
C91 C 0.2487 0.91785 0.78565 0.0
C92 C 0.10531 1.0062 0.79065 0.0
C93 C 0.0716 0.98125 0.76869 0.0
C94 C 0.07462 0.93241 0.76469 0.0
C95 C 1.0401 0.90785 0.74633 0.0
C96 C 1.00339 0.93214 0.73046 0.0
C97 C 1.00124 0.98117 0.73396 0.0
C98 C 1.03489 1.00554 0.75319 0.0
C99 C 0.25197 1.01466 0.84934 0.0
O100 O 0.21593 0.96773 0.90967 0.0
O101 O 0.14869 0.99442 0.88465 0.0
O102 O 0.29304 0.8772 0.87166 0.0
O103 O 0.23737 0.85263 0.90331 0.0
O104 O 0.15498 0.8824 0.88872 0.0
O105 O 0.15831 0.89612 0.83702 0.0
O106 O 0.21379 0.94817 0.78433 0.0
O107 O 0.25668 0.89528 0.81474 0.0
O108 O 0.14897 1.00214 0.78128 0.0
O109 O 0.09986 1.00026 0.82357 0.0
O110 O 0.21195 1.03584 0.84659 0.0
O111 O 0.24594 0.97239 0.84106 0.0
H112 H 0.33196 0.7768 0.92172 0.0
H113 H 0.34482 0.6958 0.90113 0.0
H114 H 0.25848 0.72146 0.81219 0.0
H115 H 0.24481 0.80215 0.83292 0.0
H116 H 0.10291 0.91318 0.7767 0.0
H117 H 1.04205 0.87006 0.74454 0.0
H118 H 0.97326 1.0007 0.72196 0.0
H119 H 1.03208 1.04319 0.75613 0.0
Ho120 Ho 0.95749 0.48883 1.12198 0.0
Ho121 Ho 0.88844 0.43589 1.08651 0.0
C122 C 0.87321 0.43963 1.16656 0.0
C123 C 1.02024 0.53708 1.15502 0.0
C124 C 0.0696 0.5461 1.14477 0.0
C125 C 0.08424 0.59202 1.13857 0.0
C126 C 0.1287 0.60057 1.12472 0.0
C127 C 0.15952 0.56338 1.11703 0.0
C128 C 0.14553 0.51758 1.12389 0.0
C129 C 0.10097 0.50896 1.13747 0.0
C130 C 0.99215 0.40323 1.09833 0.0
C131 C 0.942 0.51692 1.0419 0.0
C132 C 0.85446 0.37191 1.04634 0.0
C133 C 0.86021 0.32128 1.0454 0.0
C134 C 0.89201 0.29946 1.06781 0.0
C135 C 0.90628 0.25328 1.06125 0.0
C136 C 0.88938 0.22927 1.0319 0.0
C137 C 0.85396 0.24995 1.01184 0.0
C138 C 0.83972 0.29573 1.0184 0.0
C139 C 0.85187 0.52022 1.10553 0.0
O140 O 0.90279 0.4757 1.16503 0.0
O141 O 0.86924 0.41151 1.13936 0.0
O142 O 0.98819 0.55603 1.13566 0.0
O143 O 1.00952 0.49427 1.16287 0.0
O144 O 1.01182 0.44334 1.0944 0.0
O145 O 0.953 0.41138 1.11276 0.0
O146 O 0.9127 0.48086 1.04127 0.0
O147 O 0.96445 0.52736 1.07105 0.0
O148 O 0.89306 0.39451 1.03986 0.0
O149 O 0.83105 0.38989 1.07234 0.0
O150 O 0.82813 0.48179 1.10326 0.0
O151 O 0.89323 0.51186 1.09591 0.0
H152 H 1.06078 0.62125 1.14365 0.0
H153 H 0.13892 0.63617 1.11977 0.0
H154 H 0.16895 0.48847 1.11837 0.0
H155 H 0.09081 0.47308 1.14153 0.0
H156 H 0.90779 0.319 1.08905 0.0
H157 H 0.93193 0.23736 1.07802 0.0
H158 H 0.83917 0.23159 0.98971 0.0
H159 H 0.815 0.31206 1.00105 0.0
Ho160 Ho 0.66698 0.97692 1.06996 0.0
Ho161 Ho 0.716 0.90316 1.04211 0.0
C162 C 0.74365 0.92689 1.12148 0.0
C163 C 0.6195 1.03772 1.10504 0.0
C164 C 0.63921 0.07862 1.1238 0.0
C165 C 0.67096 0.0728 1.15106 0.0
C166 C 0.69445 0.1111 1.16556 0.0
C167 C 0.68652 0.15691 1.15361 0.0
C168 C 0.65566 0.162 1.12538 0.0
C169 C 0.63211 0.12354 1.11096 0.0
C170 C 0.754 1.00624 1.05083 0.0
C171 C 0.67144 0.9806 0.98956 0.0
C172 C 0.76239 0.83411 1.01405 0.0
C173 C 0.77358 0.78842 1.02881 0.0
C174 C 0.75789 0.77824 1.06208 0.0
C175 C 0.76778 0.73516 1.0766 0.0
C176 C 0.79488 0.70188 1.05856 0.0
C177 C 0.81154 0.71235 1.02549 0.0
C178 C 0.80072 0.7553 1.01061 0.0
C179 C 0.63045 0.87395 1.06872 0.0
O180 O 0.70499 0.95307 1.11966 0.0
O181 O 0.75718 0.90445 1.09298 0.0
O182 O 0.62398 1.03923 1.07177 0.0
O183 O 0.62939 0.9963 1.11677 0.0
O184 O 0.71587 1.0297 1.04687 0.0
O185 O 0.74386 0.9684 1.06441 0.0
O186 O 0.70546 0.94924 0.99424 0.0
O187 O 0.64334 0.99002 1.01563 0.0
O188 O 0.78224 0.86959 1.02959 0.0
O189 O 0.71808 0.84207 1.00795 0.0
O190 O 0.67162 0.85788 1.07558 0.0
O191 O 0.63729 0.90931 1.05001 0.0
H192 H 0.67813 1.0385 1.16114 0.0
H193 H 0.71754 0.10426 1.18705 0.0
H194 H 0.6485 0.19575 1.11461 0.0
H195 H 0.60876 0.12887 1.08928 0.0
H196 H 0.73821 0.80369 1.07704 0.0
H197 H 0.75469 0.72801 1.10207 0.0
H198 H 0.83235 0.68698 1.01106 0.0
H199 H 0.81355 0.76265 0.98507 0.0
Ho200 Ho 0.38915 0.42731 0.83044 0.0
Ho201 Ho 0.45406 0.48511 0.79256 0.0
C202 C 0.44185 0.50532 0.87715 0.0
C203 C 0.36381 0.35524 0.86379 0.0
C204 C 0.39163 0.32766 0.88798 0.0
C205 C 0.44061 0.32403 0.88409 0.0
C206 C 0.46824 0.30362 0.9095 0.0
C207 C 0.44718 0.28757 0.93945 0.0
C208 C 0.39792 0.28835 0.94221 0.0
C209 C 0.37032 0.30855 0.91675 0.0
C210 C 0.3489 0.51092 0.81436 0.0
C211 C 0.36708 0.43996 0.74875 0.0
C212 C 0.51604 0.54482 0.77278 0.0
C213 C 0.56335 0.55474 0.78659 0.0
C214 C 0.57807 0.60113 0.79165 0.0
C215 C 0.62222 0.61073 0.80599 0.0
C216 C 0.6523 0.57401 0.81515 0.0
C217 C 0.63745 0.52768 0.81055 0.0
C218 C 0.59315 0.51808 0.79665 0.0
C219 C 0.48808 0.39513 0.80223 0.0
O220 O 0.41188 0.47002 0.87745 0.0
O221 O 0.46522 0.51453 0.84825 0.0
O222 O 0.35388 0.39797 0.87426 0.0
O223 O 0.37812 0.35293 0.83177 0.0
O224 O 0.32548 0.47269 0.81941 0.0
O225 O 0.39099 0.50228 0.82116 0.0
O226 O 0.39767 0.47507 0.75046 0.0
O227 O 0.3632 0.41188 0.77538 0.0
O228 O 0.48136 0.55592 0.79304 0.0
O229 O 0.51007 0.50401 0.758 0.0
O230 O 0.48926 0.41779 0.77391 0.0
O231 O 0.46699 0.42143 0.82403 0.0
H232 H 0.45758 0.33855 0.862 0.0
H233 H 0.50598 0.30234 0.90655 0.0
H234 H 0.38085 0.27485 0.96475 0.0
H235 H 0.33264 0.3108 0.92014 0.0
H236 H 0.55536 0.62988 0.78458 0.0
H237 H 0.63322 0.64669 0.80954 0.0
H238 H 0.66033 0.499 0.81745 0.0
H239 H 0.5823 0.48196 0.79372 0.0
Ho240 Ho 0.91691 0.15605 0.56796 0.0
Ho241 Ho 0.87091 0.23121 0.54174 0.0
C242 C 0.84367 0.21021 0.62051 0.0
C243 C 0.96352 0.09329 0.60022 0.0
C244 C 0.94555 1.04933 0.61453 0.0
C245 C 0.93059 1.04778 0.64881 0.0
C246 C 0.91178 1.00683 0.66174 0.0
C247 C 0.90862 0.96562 0.64102 0.0
C248 C 0.92087 0.96841 0.60607 0.0
C249 C 0.93938 1.00949 0.59309 0.0
C250 C 0.82768 0.12951 0.54872 0.0
C251 C 0.91589 0.15322 0.48807 0.0
C252 C 0.82725 0.30098 0.51451 0.0
C253 C 0.81924 0.34718 0.53095 0.0
C254 C 0.80037 0.38463 0.51263 0.0
C255 C 0.79383 0.42827 0.52919 0.0
C256 C 0.80672 0.43479 0.564 0.0
C257 C 0.82591 0.39742 0.58203 0.0
C258 C 0.83146 0.35392 0.56579 0.0
C259 C 0.95749 0.25834 0.56748 0.0
O260 O 0.88057 0.18174 0.61806 0.0
O261 O 0.83162 0.23399 0.59297 0.0
O262 O 0.96202 0.09546 0.56682 0.0
O263 O 0.95018 0.13255 0.61511 0.0
O264 O 0.86511 0.1047 0.54403 0.0
O265 O 0.84035 0.16745 0.56233 0.0
O266 O 0.8811 0.18384 0.4931 0.0
O267 O 0.94305 0.14377 0.51432 0.0
O268 O 0.80583 0.26651 0.52906 0.0
O269 O 0.87097 0.29075 0.508 0.0
O270 O 0.91751 0.27573 0.57665 0.0
O271 O 0.94897 0.22218 0.54888 0.0
H272 H 0.93362 0.07819 0.66578 0.0
H273 H 0.90212 1.00729 0.68866 0.0
H274 H 0.91793 0.9384 0.58884 0.0
H275 H 0.9493 1.00971 0.56618 0.0
H276 H 0.79063 0.3801 0.48576 0.0
H277 H 0.77881 0.4569 0.51496 0.0
H278 H 0.83578 0.40178 0.60889 0.0
H279 H 0.84524 0.32544 0.58061 0.0
Ho280 Ho 0.21502 0.69034 0.32711 0.0
Ho281 Ho 0.14259 0.64382 0.29426 0.0
C282 C 0.16372 0.60876 0.37191 0.0
C283 C 0.26555 0.73531 0.37119 0.0
C284 C 0.29221 0.71369 0.39911 0.0
C285 C 0.29805 0.73737 0.43067 0.0
C286 C 0.31801 0.71428 0.45845 0.0
C287 C 0.3319 0.66719 0.45511 0.0
C288 C 0.32717 0.64372 0.42336 0.0
C289 C 0.30744 0.66689 0.39547 0.0
C290 C 0.24672 0.60678 0.3003 0.0
C291 C 0.22313 0.69581 0.24774 0.0
C292 C 0.07526 0.59971 0.26246 0.0
C293 C 1.02901 0.58817 0.27685 0.0
C294 C 0.99601 0.56204 0.25783 0.0
C295 C 0.95308 0.55008 0.27283 0.0
C296 C 0.94248 0.56472 0.30684 0.0
C297 C 0.9755 0.59104 0.32561 0.0
C298 C 1.01862 0.60176 0.31099 0.0
C299 C 0.1119 0.72875 0.32172 0.0
O300 O 0.19164 0.6457 0.37267 0.0
O301 O 0.14054 0.59933 0.34294 0.0
O302 O 0.28023 0.72467 0.34017 0.0
O303 O 0.21988 0.73243 0.37405 0.0
O304 O 0.27108 0.64445 0.30328 0.0
O305 O 0.20769 0.61474 0.31432 0.0
O306 O 0.19379 0.6595 0.24916 0.0
O307 O 0.22813 0.72216 0.27571 0.0
O308 O 0.11037 0.57888 0.27716 0.0
O309 O 0.08361 0.64402 0.25851 0.0
O310 O 0.09553 0.68827 0.32921 0.0
O311 O 0.14929 0.72121 0.30464 0.0
H312 H 0.28615 0.77319 0.43406 0.0
H313 H 0.32195 0.73298 0.48279 0.0
H314 H 0.33809 0.60757 0.42035 0.0
H315 H 0.30301 0.64787 0.37128 0.0
H316 H 1.00357 0.55059 0.23166 0.0
H317 H 0.92796 0.52974 0.25788 0.0
H318 H 0.96815 0.60266 0.3518 0.0
H319 H 1.04404 0.62036 0.32662 0.0
Ho320 Ho 0.87825 0.72511 0.87476 0.0
Ho321 Ho 0.92755 0.65165 0.8409 0.0
C322 C 0.92533 0.64164 0.92089 0.0
C323 C 0.83109 0.79147 0.9053 0.0
C324 C 0.81902 0.83706 0.89023 0.0
C325 C 0.82972 0.84451 0.85547 0.0
C326 C 0.81819 0.88649 0.83995 0.0
C327 C 0.79582 0.92226 0.85886 0.0
C328 C 0.78553 0.91554 0.89387 0.0
C329 C 0.79703 0.87302 0.90949 0.0
C330 C 0.96511 0.7539 0.85143 0.0
C331 C 0.85215 0.70929 0.79327 0.0
C332 C 0.98939 0.60679 0.80523 0.0
C333 C 1.0401 0.60381 0.80999 0.0
C334 C 0.06288 0.63518 0.83268 0.0
C335 C 0.11146 0.64086 0.83097 0.0
C336 C 0.1374 0.61555 0.80614 0.0
C337 C 0.11486 0.57887 0.7876 0.0
C338 C 0.06641 0.57363 0.78906 0.0
C339 C 0.83976 0.62357 0.85889 0.0
O340 O 0.88991 0.67223 0.91869 0.0
O341 O 0.95333 0.6363 0.89422 0.0
O342 O 0.81141 0.75531 0.89025 0.0
O343 O 0.87572 0.78427 0.9108 0.0
O344 O 0.92537 0.77473 0.84701 0.0
O345 O 0.95598 0.71607 0.86661 0.0
O346 O 0.88663 0.67786 0.79373 0.0
O347 O 0.84212 0.73268 0.82222 0.0
O348 O 0.97418 0.6485 0.79746 0.0
O349 O 0.96413 0.587 0.82875 0.0
O350 O 0.87657 0.59698 0.85858 0.0
O351 O 0.85164 0.66269 0.84801 0.0
H352 H 0.84677 0.81768 0.84004 0.0
H353 H 0.82643 0.89099 0.81299 0.0
H354 H 0.76821 0.94289 0.90886 0.0
H355 H 0.78856 0.86815 0.93635 0.0
H356 H 1.04263 0.65752 0.84987 0.0
H357 H 0.12784 0.66697 0.84747 0.0
H358 H 0.13375 0.55704 0.76921 0.0
H359 H 1.04934 0.54841 0.77203 0.0
Ho360 Ho 0.14267 0.14313 1.1187 0.0
Ho361 Ho 0.21313 0.19257 1.08537 0.0
C362 C 0.22527 0.18296 1.16757 0.0
C363 C 0.07436 0.08974 1.13831 0.0
C364 C 1.02811 0.07983 1.1232 0.0
C365 C 0.9997 1.04513 1.13703 0.0
C366 C 0.95583 1.03536 1.12235 0.0
C367 C 0.94006 1.06026 1.09374 0.0
C368 C 0.96853 0.09493 1.07988 0.0
C369 C 1.0124 0.10459 1.09447 0.0
C370 C 0.11629 0.23536 1.1087 0.0
C371 C 0.15925 0.11971 1.0357 0.0
C372 C 0.26516 0.25357 1.05623 0.0
C373 C 0.31529 0.26385 1.05951 0.0
C374 C 0.33509 0.29735 1.03855 0.0
C375 C 0.38366 0.29991 1.03541 0.0
C376 C 0.41326 0.26801 1.05248 0.0
C377 C 0.3933 0.23829 1.07665 0.0
C378 C 0.34453 0.23627 1.08015 0.0
C379 C 0.24746 0.10865 1.10719 0.0
O380 O 0.19436 0.14865 1.16393 0.0
O381 O 0.23139 0.2111 1.14137 0.0
O382 O 0.10992 0.07492 1.12035 0.0
O383 O 0.08067 0.13222 1.14972 0.0
O384 O 0.11619 0.21393 1.13758 0.0
O385 O 0.13566 0.20784 1.08678 0.0
O386 O 0.19282 0.15144 1.03712 0.0
O387 O 0.13229 0.11348 1.06323 0.0
O388 O 0.23937 0.26338 1.08323 0.0
O389 O 0.25577 0.21261 1.04246 0.0
O390 O 0.27124 0.14688 1.10612 0.0
O391 O 0.20747 0.11703 1.09514 0.0
H392 H 1.0114 1.02572 1.15915 0.0
H393 H 0.93397 1.00874 1.13345 0.0
H394 H 0.95676 0.1144 1.05788 0.0
H395 H 1.03404 0.13141 1.0834 0.0
H396 H 0.31304 0.31934 1.02279 0.0
H397 H 0.39753 0.32406 1.017 0.0
H398 H 0.41496 0.2148 1.09136 0.0
H399 H 0.32971 0.2112 1.09739 0.0
Ho400 Ho 0.72472 0.40428 0.37091 0.0
Ho401 Ho 0.67544 0.47489 0.34047 0.0
C402 C 0.6777 0.48703 0.42004 0.0
C403 C 0.77203 0.33885 0.40072 0.0
C404 C 0.78162 0.29174 0.38591 0.0
C405 C 0.80085 0.25578 0.40566 0.0
C406 C 0.81116 0.21204 0.39015 0.0
C407 C 0.80219 0.20405 0.35482 0.0
C408 C 0.78235 0.23977 0.33542 0.0
C409 C 0.77222 0.28309 0.35078 0.0
C410 C 0.63885 0.37168 0.34638 0.0
C411 C 0.75137 0.41966 0.29082 0.0
C412 C 0.6278 0.5324 0.30432 0.0
C413 C 0.64699 0.57464 0.28817 0.0
C414 C 0.66699 0.57194 0.25526 0.0
C415 C 0.68993 0.61043 0.24178 0.0
C416 C 0.69256 0.65345 0.26045 0.0
C417 C 0.67409 0.6551 0.29405 0.0
C418 C 0.65127 0.61656 0.30752 0.0
C419 C 0.76307 0.50599 0.35953 0.0
O420 O 0.71398 0.45766 0.41649 0.0
O421 O 0.64879 0.49047 0.39384 0.0
O422 O 0.7915 0.37289 0.38435 0.0
O423 O 0.7283 0.34821 0.40786 0.0
O424 O 0.67956 0.35472 0.3385 0.0
O425 O 0.64616 0.40967 0.36311 0.0
O426 O 0.71316 0.44644 0.29174 0.0
O427 O 0.76424 0.39911 0.31962 0.0
O428 O 0.62789 0.53355 0.33782 0.0
O429 O 0.64175 0.49182 0.2919 0.0
O430 O 0.72515 0.53041 0.36119 0.0
O431 O 0.75226 0.46679 0.34723 0.0
H432 H 0.80843 0.26168 0.43277 0.0
H433 H 0.82672 0.18478 0.40545 0.0
H434 H 0.77556 0.23441 0.30814 0.0
H435 H 0.75778 0.31018 0.3349 0.0
H436 H 0.66543 0.53986 0.23996 0.0
H437 H 0.70377 0.60644 0.21597 0.0
H438 H 0.67584 0.68658 0.30985 0.0
H439 H 0.63724 0.61967 0.33338 0.0
Ho440 Ho 0.45562 0.98862 0.61899 0.0
Ho441 Ho 0.38901 0.93032 0.58387 0.0
C442 C 0.37433 0.93676 0.6643 0.0
C443 C 0.51683 1.04069 0.65044 0.0
C444 C 0.56576 1.05005 0.63986 0.0
C445 C 0.57959 0.09624 0.63399 0.0
C446 C 0.62261 0.10544 0.6183 0.0
C447 C 0.65275 0.06863 0.60843 0.0
C448 C 0.63985 1.02251 0.61526 0.0
C449 C 0.5966 1.01323 0.63066 0.0
C450 C 0.4932 0.90327 0.5982 0.0
C451 C 0.43655 1.01195 0.5376 0.0
C452 C 0.35817 0.85993 0.54924 0.0
C453 C 0.36065 0.81001 0.55675 0.0
C454 C 0.40229 0.78948 0.5689 0.0
C455 C 0.40557 0.74106 0.57203 0.0
C456 C 0.36739 0.71227 0.56281 0.0
C457 C 0.32391 0.73433 0.55535 0.0
C458 C 0.32091 0.7825 0.55188 0.0
C459 C 0.34854 1.0134 0.60307 0.0
O460 O 0.40174 0.97444 0.66232 0.0
O461 O 0.3724 0.90743 0.63764 0.0
O462 O 0.48499 1.05708 0.62978 0.0
O463 O 0.50695 0.99841 0.66008 0.0
O464 O 0.51139 0.94363 0.59242 0.0
O465 O 0.45371 0.91093 0.61213 0.0
O466 O 0.41362 0.97159 0.53703 0.0
O467 O 0.45539 1.02689 0.56726 0.0
O468 O 0.39829 0.87991 0.54251 0.0
O469 O 0.33121 0.88511 0.56964 0.0
O470 O 0.32607 0.97466 0.59772 0.0
O471 O 0.39008 1.0065 0.59322 0.0
H472 H 0.55631 0.12516 0.64041 0.0
H473 H 0.63209 0.14128 0.6134 0.0
H474 H 0.663 0.99375 0.60825 0.0
H475 H 0.58684 0.97717 0.63443 0.0
H476 H 0.43296 0.81056 0.57453 0.0
H477 H 0.4389 0.72647 0.57972 0.0
H478 H 0.29264 0.71467 0.54891 0.0
H479 H 0.28801 0.79798 0.54375 0.0
Ho480 Ho 0.17638 0.47408 0.56956 0.0
Ho481 Ho 0.22092 0.39614 0.54138 0.0
C482 C 0.24706 0.41735 0.62193 0.0
C483 C 0.12849 0.53472 0.60504 0.0
C484 C 0.14294 0.5675 0.63278 0.0
C485 C 0.11865 0.56771 0.66396 0.0
C486 C 0.13684 0.59167 0.69255 0.0
C487 C 0.18016 0.61467 0.69066 0.0
C488 C 0.20277 0.61775 0.65889 0.0
C489 C 0.18375 0.59487 0.62989 0.0
C490 C 0.2676 0.49446 0.55208 0.0
C491 C 0.17885 0.47707 0.48964 0.0
C492 C 0.26357 0.32605 0.51154 0.0
C493 C 0.273 0.27946 0.52547 0.0
C494 C 0.29335 0.24367 0.50514 0.0
C495 C 0.30271 0.1999 0.51938 0.0
C496 C 0.29154 0.19168 0.55398 0.0
C497 C 0.27076 0.22733 0.57403 0.0
C498 C 0.26172 0.27085 0.55994 0.0
C499 C 0.13389 0.37222 0.56587 0.0
O500 O 0.21227 0.44831 0.61934 0.0
O501 O 0.25801 0.39199 0.59399 0.0
O502 O 0.14544 0.5428 0.57463 0.0
O503 O 0.13021 0.49035 0.61253 0.0
O504 O 0.2322 0.52245 0.54879 0.0
O505 O 0.25211 0.45807 0.56492 0.0
O506 O 0.21224 0.4448 0.49425 0.0
O507 O 0.15155 0.4876 0.51585 0.0
O508 O 0.28544 0.36039 0.52716 0.0
O509 O 0.21947 0.33597 0.50636 0.0
O510 O 0.17334 0.35361 0.57472 0.0
O511 O 0.14327 0.40802 0.54803 0.0
H512 H 0.08671 0.54769 0.66662 0.0
H513 H 0.11796 0.59056 0.71657 0.0
H514 H 0.23578 0.6361 0.65686 0.0
H515 H 0.20238 0.59652 0.60572 0.0
H516 H 0.30232 0.24969 0.47851 0.0
H517 H 0.31901 0.17268 0.50364 0.0
H518 H 0.26219 0.22161 0.60078 0.0
H519 H 0.24629 0.298 0.57613 0.0
Ho520 Ho 0.88852 0.94129 0.31902 0.0
Ho521 Ho 0.9639 0.98666 0.29044 0.0
C522 C 0.93944 1.02079 0.36859 0.0
C523 C 0.83609 0.89676 0.36044 0.0
C524 C 0.81035 0.91809 0.38963 0.0
C525 C 0.78963 0.96271 0.38679 0.0
C526 C 0.77194 0.98642 0.41588 0.0
C527 C 0.77414 0.96564 0.44817 0.0
C528 C 0.79489 0.92103 0.45081 0.0
C529 C 0.8126 0.89743 0.42186 0.0
C530 C 0.85983 1.02716 0.2973 0.0
C531 C 0.8808 0.94307 0.239 0.0
C532 C 1.03561 1.0265 0.26215 0.0
C533 C 0.08312 1.03451 0.27665 0.0
C534 C 0.1202 1.04971 0.256 0.0
C535 C 0.16446 1.05913 0.27069 0.0
C536 C 0.1721 1.05325 0.30617 0.0
C537 C 0.13523 1.03732 0.32658 0.0
C538 C 0.0912 1.02816 0.312 0.0
C539 C 0.99125 0.90199 0.31728 0.0
O540 O 0.91208 0.98347 0.36721 0.0
O541 O 0.96293 1.03139 0.34038 0.0
O542 O 0.82197 0.90882 0.32986 0.0
O543 O 0.8818 0.89755 0.36359 0.0
O544 O 0.83419 0.99007 0.29745 0.0
O545 O 0.89876 1.0169 0.31063 0.0
O546 O 0.91413 0.97558 0.2431 0.0
O547 O 0.87126 0.91627 0.26525 0.0
O548 O 1.002 1.04933 0.27774 0.0
O549 O 1.02405 0.9831 0.25599 0.0
O550 O 1.00746 0.94246 0.32645 0.0
O551 O 0.95534 0.9094 0.2984 0.0
H552 H 0.78852 0.98005 0.36228 0.0
H553 H 0.75757 1.02124 0.41322 0.0
H554 H 0.79837 0.90469 0.47556 0.0
H555 H 0.82952 0.86376 0.42484 0.0
H556 H 0.11475 1.055 0.22872 0.0
H557 H 0.19244 0.07178 0.25458 0.0
H558 H 0.14029 1.03294 0.354 0.0
H559 H 0.06314 1.0168 0.32852 0.0
Ho560 Ho 0.42609 0.65461 1.08209 0.0
Ho561 Ho 0.37311 0.71817 1.04252 0.0
C562 C 0.3486 0.71136 1.1259 0.0
C563 C 0.4931 0.62117 1.11907 0.0
C564 C 0.52962 0.64532 1.13886 0.0
C565 C 0.53354 0.69418 1.13752 0.0
C566 C 0.57118 0.71702 1.15357 0.0
C567 C 0.60432 0.69128 1.17207 0.0
C568 C 0.59943 0.64248 1.174 0.0
C569 C 0.56251 0.6196 1.1573 0.0
C570 C 0.34223 0.61463 1.06416 0.0
C571 C 0.41814 0.63164 1.00046 0.0
C572 C 0.31944 0.78465 1.01952 0.0
C573 C 0.30943 0.83125 1.03485 0.0
C574 C 0.28277 0.86422 1.01692 0.0
C575 C 0.27558 0.90918 1.03113 0.0
C576 C 0.29515 0.92166 1.06332 0.0
C577 C 0.32202 0.88877 1.08106 0.0
C578 C 0.3289 0.84393 1.06702 0.0
C579 C 0.46561 0.74628 1.05211 0.0
O580 O 0.38322 0.68062 1.12765 0.0
O581 O 0.34076 0.73315 1.09639 0.0
O582 O 0.45039 0.62666 1.13044 0.0
O583 O 0.49607 0.62635 1.08587 0.0
O584 O 0.38155 0.59214 1.06714 0.0
O585 O 0.35025 0.65691 1.0712 0.0
O586 O 0.38086 0.6598 1.00151 0.0
O587 O 0.44678 0.63156 1.02743 0.0
O588 O 0.30375 0.74903 1.03614 0.0
O589 O 0.36259 0.77804 1.01001 0.0
O590 O 0.44332 0.74455 1.02318 0.0
O591 O 0.43799 0.73058 1.07468 0.0
H592 H 0.50803 0.71445 1.12342 0.0
H593 H 0.57444 0.75453 1.15149 0.0
H594 H 0.62453 0.62191 1.18819 0.0
H595 H 0.55998 0.5819 1.15845 0.0
H596 H 0.26791 0.85533 0.99191 0.0
H597 H 0.25509 0.93432 1.01696 0.0
H598 H 0.33746 0.89781 1.10585 0.0
H599 H 0.35005 0.81934 1.08114 0.0
Ho600 Ho 0.71844 0.18539 0.82493 0.0
Ho601 Ho 0.64034 0.14423 0.79319 0.0
C602 C 0.65983 0.11296 0.87219 0.0
C603 C 0.78152 0.22743 0.86195 0.0
C604 C 0.81942 0.20685 0.8825 0.0
C605 C 0.84637 0.23493 0.90467 0.0
C606 C 0.88079 0.21473 0.92533 0.0
C607 C 0.88836 0.16585 0.92467 0.0
C608 C 0.86347 0.13836 0.90049 0.0
C609 C 0.82929 0.15874 0.87962 0.0
C610 C 0.74045 0.09661 0.80035 0.0
C611 C 0.72316 0.18872 0.74518 0.0
C612 C 0.57 0.10444 0.76144 0.0
C613 C 0.52086 0.09785 0.77228 0.0
C614 C 0.49974 0.12877 0.79634 0.0
C615 C 0.45561 0.11891 0.81009 0.0
C616 C 0.4319 0.07797 0.79998 0.0
C617 C 0.45232 1.04781 0.77518 0.0
C618 C 0.49656 1.05754 0.76156 0.0
C619 C 0.61708 0.23158 0.82099 0.0
O620 O 0.6886 0.14932 0.87245 0.0
O621 O 0.63747 0.10221 0.84303 0.0
O622 O 0.78546 0.21977 0.82896 0.0
O623 O 0.7387 0.22075 0.87279 0.0
O624 O 0.76813 0.1319 0.80168 0.0
O625 O 0.70283 0.11034 0.81401 0.0
O626 O 0.69195 0.15421 0.74747 0.0
O627 O 0.73035 0.21525 0.77273 0.0
O628 O 0.60075 0.08201 0.77956 0.0
O629 O 0.58344 0.14699 0.75571 0.0
O630 O 0.59553 0.1928 0.82623 0.0
O631 O 0.65403 0.22086 0.8041 0.0
H632 H 0.83994 0.27224 0.90673 0.0
H633 H 0.89939 0.23728 0.94343 0.0
H634 H 0.86929 0.10107 0.89828 0.0
H635 H 0.80987 0.13672 0.86173 0.0
H636 H 0.51762 0.16012 0.80502 0.0
H637 H 0.44013 0.14292 0.82883 0.0
H638 H 0.43417 1.01651 0.76668 0.0
H639 H 0.51225 1.03307 0.74322 0.0
C640 C 0.55549 0.26959 0.37241 0.0
C641 C 0.51245 0.28173 0.35617 0.0
C642 C 0.5508 0.35463 0.33613 0.0
C643 C 0.59501 0.34071 0.3502 0.0
N644 N 0.63935 0.27943 0.37813 0.0
N645 N 0.47049 0.33424 0.31945 0.0
C646 C 0.59723 0.29659 0.36714 0.0
C647 C 0.51066 0.32377 0.33703 0.0
N648 N 0.55653 0.23208 0.39366 0.0
N649 N 0.54689 0.39791 0.32216 0.0
H650 H 0.4404 0.31378 0.32049 0.0
H651 H 0.46772 0.36122 0.30201 0.0
H652 H 0.57534 0.4204 0.31979 0.0
H653 H 0.51513 0.41297 0.31497 0.0
H654 H 0.58423 0.225 0.41035 0.0
H655 H 0.52828 0.20943 0.39633 0.0
H656 H 0.64455 0.24475 0.38487 0.0
H657 H 0.67003 0.29859 0.37896 0.0
C658 C 0.59126 0.81025 0.58115 0.0
C659 C 0.58393 0.77687 0.60743 0.0
C660 C 0.51851 0.82742 0.62898 0.0
C661 C 0.52295 0.85853 0.60093 0.0
N662 N 0.55813 0.87125 0.54551 0.0
N663 N 0.52613 0.7475 0.64694 0.0
C664 C 0.55774 0.84736 0.57561 0.0
C665 C 0.54332 0.78366 0.62854 0.0
N666 N 0.63112 0.8079 0.562 0.0
N667 N 0.49283 0.83999 0.65737 0.0
H668 H 0.53931 0.71367 0.64451 0.0
H669 H 0.49449 0.74962 0.66033 0.0
H670 H 0.47742 0.87273 0.66097 0.0
H671 H 0.4922 0.81994 0.67947 0.0
H672 H 0.64096 0.83391 0.54518 0.0
H673 H 0.65623 0.78203 0.56527 0.0
H674 H 0.5793 0.86185 0.52464 0.0
H675 H 0.53377 0.89732 0.53991 0.0
C676 C 0.09472 0.79813 0.86726 0.0
C677 C 0.09167 0.84458 0.85466 0.0
C678 C 1.01303 0.82391 0.8321 0.0
C679 C 1.01173 0.78127 0.85063 0.0
N680 N 1.05322 0.73348 0.89216 0.0
N681 N 1.03919 0.90408 0.83453 0.0
C682 C 1.05316 0.76972 0.86989 0.0
C683 C 1.0484 0.85807 0.8396 0.0
N684 N 0.13749 0.78033 0.87612 0.0
N685 N 0.98124 0.83187 0.80649 0.0
H686 H 0.06263 0.92997 0.84234 0.0
H687 H 1.00649 0.91622 0.82636 0.0
H688 H 0.95864 0.8061 0.7969 0.0
H689 H 0.98199 0.86176 0.79172 0.0
H690 H 0.14256 0.74546 0.88249 0.0
H691 H 0.16856 0.79884 0.87308 0.0
H692 H 0.08086 0.72736 0.90916 0.0
H693 H 1.02463 0.71206 0.8963 0.0
C694 C 1.0375 0.27737 1.11907 0.0
C695 C 0.08109 0.27494 1.10114 0.0
C696 C 1.05806 0.3499 1.07424 0.0
C697 C 1.02034 0.35707 1.09816 0.0
N698 N 0.9817 0.32708 1.14889 0.0
N699 N 0.13281 0.31197 1.06124 0.0
C700 C 1.01196 0.32059 1.12199 0.0
C701 C 0.09119 0.31204 1.07845 0.0
N702 N 1.01862 0.23763 1.13188 0.0
N703 N 0.0613 0.378 1.04636 0.0
H704 H 0.15651 0.28426 1.06218 0.0
H705 H 0.14492 0.34062 1.0478 0.0
H706 H 1.03662 0.40388 1.041 0.0
H707 H 0.08512 0.37203 1.02643 0.0
H708 H 0.98507 0.23664 1.14248 0.0
H709 H 1.03331 0.20472 1.12715 0.0
H710 H 0.9782 0.30271 1.1683 0.0
H711 H 0.96451 0.35832 1.15462 0.0
C712 C 0.54018 0.8606 1.06128 0.0
C713 C 0.58599 0.84279 1.06903 0.0
C714 C 0.55264 0.76243 1.0643 0.0
C715 C 0.50662 0.77989 1.05882 0.0
N716 N 0.45571 0.84701 1.0567 0.0
N717 N 0.62724 0.77584 1.0923 0.0
C718 C 0.50027 0.82947 1.05857 0.0
C719 C 0.58977 0.79347 1.07472 0.0
N720 N 0.53424 0.90751 1.0571 0.0
N721 N 0.56152 0.71592 1.05899 0.0
H722 H 0.64962 0.79661 1.10724 0.0
H723 H 0.63111 0.74049 1.09744 0.0
H724 H 0.53559 0.69236 1.05113 0.0
H725 H 0.5953 0.70179 1.05905 0.0
H726 H 0.50422 0.92224 1.0464 0.0
H727 H 0.55973 0.93199 1.06396 0.0
H728 H 0.4473 0.88222 1.06016 0.0
H729 H 0.42639 0.8256 1.05413 0.0
C730 C 0.56253 0.28303 0.78455 0.0
C731 C 0.58779 0.27624 0.81585 0.0
C732 C 0.55075 0.34994 0.83859 0.0
C733 C 0.52105 0.35322 0.80881 0.0
N734 N 0.49304 0.31454 0.75691 0.0
N735 N 0.60043 0.30113 0.87468 0.0
C736 C 0.52558 0.31738 0.78283 0.0
C737 C 0.58 0.30905 0.84346 0.0
N738 N 0.57439 0.2574 0.75579 0.0
N739 N 0.55313 0.38663 0.8616 0.0
H740 H 0.62329 0.27317 0.87873 0.0
H741 H 0.59229 0.32033 0.89699 0.0
H742 H 0.53428 0.41753 0.85882 0.0
H743 H 0.57734 0.38835 0.88175 0.0
H744 H 0.56064 0.26389 0.73144 0.0
H745 H 0.60192 0.23339 0.75539 0.0
H746 H 0.49135 0.28651 0.73937 0.0
H747 H 0.46443 0.33725 0.75523 0.0
C748 C 1.04322 0.36519 0.56666 0.0
C749 C 0.08818 0.3435 0.56419 0.0
C750 C 1.04763 0.26643 0.56704 0.0
C751 C 1.00254 0.28788 0.56573 0.0
N752 N 0.96066 0.35946 0.55251 0.0
N753 N 0.12877 0.27095 0.54962 0.0
C754 C 1.00118 0.3378 0.56237 0.0
C755 C 0.08919 0.29339 0.561 0.0
N756 N 1.04005 0.41204 0.57369 0.0
N757 N 1.05142 0.22019 0.57466 0.0
H758 H 0.15782 0.28848 0.54036 0.0
H759 H 0.13007 0.2351 0.54435 0.0
H760 H 1.02248 0.19929 0.5797 0.0
H761 H 0.08358 0.20401 0.57943 0.0
H762 H 1.00837 0.42873 0.5795 0.0
H763 H 0.06937 0.43333 0.57693 0.0
H764 H 0.95887 0.39492 0.54703 0.0
H765 H 0.93078 0.34139 0.54476 0.0
C766 C 1.03084 0.77061 0.31432 0.0
C767 C 0.08077 0.7731 0.31945 0.0
C768 C 0.07231 0.8594 0.31544 0.0
C769 C 1.02198 0.85721 0.31682 0.0
N770 N 0.95473 0.80741 0.32348 0.0
N771 N 0.14671 0.82367 0.33101 0.0
C772 C 1.0018 0.81182 0.31812 0.0
C773 C 0.10064 0.81865 0.32193 0.0
N774 N 1.01075 0.7298 0.3031 0.0
N775 N 0.09377 0.89935 0.30527 0.0
H776 H 0.16861 0.79542 0.33622 0.0
H777 H 0.1617 0.85611 0.33672 0.0
H778 H 0.07543 0.92774 0.29569 0.0
H779 H 0.12983 0.90158 0.30125 0.0
H780 H 0.97541 0.72718 0.29633 0.0
H781 H 1.03012 0.70059 0.29545 0.0
H782 H 0.93899 0.77545 0.32845 0.0
H783 H 0.9322 0.83599 0.32624 0.0
C784 C 0.70372 0.19154 0.23567 0.0
C785 C 0.65744 0.21006 0.23511 0.0
C786 C 0.67143 0.2362 1.1771 0.0
C787 C 0.70377 0.19909 1.17391 0.0
N788 N 0.77433 0.17492 1.20184 0.0
N789 N 0.60254 0.26289 1.20821 0.0
C790 C 0.72912 0.19 1.20424 0.0
C791 C 0.64346 0.23813 1.20715 0.0
N792 N 0.72071 0.17201 0.26485 0.0
N793 N 0.66748 0.26778 1.15159 0.0
H794 H 0.58202 0.26534 0.23036 0.0
H795 H 0.58896 0.27991 1.18687 0.0
H796 H 0.68914 0.26541 1.12994 0.0
H797 H 0.64589 0.29723 1.15348 0.0
H798 H 0.75263 0.1543 0.26585 0.0
H799 H 0.70187 0.17372 0.28788 0.0
H800 H 0.79545 0.16822 0.22315 0.0
H801 H 0.79061 0.17192 1.17781 0.0
C802 C 0.77148 0.97986 0.5412 0.0
C803 C 0.72685 0.95918 0.54312 0.0
C804 C 0.70695 0.98804 0.48667 0.0
C805 C 0.75598 0.98907 0.48006 0.0
N806 N 0.83328 1.00395 0.50234 0.0
N807 N 0.6463 0.96895 0.52853 0.0
C808 C 0.78753 0.99304 0.50826 0.0
C809 C 0.6922 0.9745 0.51999 0.0
N810 N 0.79902 0.9823 0.56989 0.0
N811 N 0.67565 0.99505 0.46064 0.0
H812 H 0.63719 0.95545 0.5524 0.0
H813 H 0.61819 0.97929 0.51326 0.0
H814 H 0.68621 1.00555 0.43638 0.0
H815 H 0.63951 0.99167 0.46322 0.0
H816 H 0.83224 0.99724 0.5705 0.0
H817 H 0.78619 0.97259 0.59382 0.0
H818 H 0.85937 1.00409 0.52117 0.0
H819 H 0.84475 1.01235 0.47773 0.0
C820 C 0.91873 0.91612 0.71849 0.0
C821 C 0.96666 0.90797 0.70969 0.0
C822 C 0.94122 0.88864 0.65145 0.0
C823 C 0.90299 0.91884 0.6573 0.0
N824 N 0.83935 0.92977 0.69621 0.0
N825 N 1.02191 0.87577 0.66764 0.0
C826 C 0.88547 0.91941 0.69113 0.0
C827 C 0.97745 0.88906 0.67641 0.0
N828 N 0.90675 0.92489 0.752 0.0
N829 N 0.94333 0.86213 0.62201 0.0
H830 H 1.04969 0.8756 0.68508 0.0
H831 H 1.03119 0.86659 0.64242 0.0
H832 H 0.91547 0.86194 0.60442 0.0
H833 H 0.97002 0.83781 0.61722 0.0
H834 H 0.87301 0.93381 0.76002 0.0
H835 H 0.93145 0.92278 0.77184 0.0
H836 H 0.82346 0.93147 0.7203 0.0
H837 H 0.81703 0.93477 0.67515 0.0
C838 C 0.87942 0.14839 1.01006 0.0
C839 C 0.91067 0.18511 1.01859 0.0
C840 C 0.95447 0.16865 0.96587 0.0
C841 C 0.91457 0.14432 0.95373 0.0
N842 N 0.8633 0.0831 0.97115 0.0
N843 N 0.99025 0.21249 1.01359 0.0
C844 C 0.8859 0.12378 0.97854 0.0
C845 C 0.95327 0.18836 0.99988 0.0
N846 N 0.84035 0.14203 1.0294 0.0
N847 N 0.98946 0.17772 0.94322 0.0
H848 H 0.98959 0.2262 1.03866 0.0
H849 H 1.02257 0.21532 1.00143 0.0
H850 H 0.98838 0.16369 0.91814 0.0
H851 H 1.01825 0.19879 0.94893 0.0
H852 H 0.81263 0.12086 1.02115 0.0
H853 H 0.83535 0.16038 1.05267 0.0
H854 H 0.84302 0.0662 0.98928 0.0
H855 H 0.86957 0.0644 0.94825 0.0
C856 C 0.46905 0.22687 0.98103 0.0
C857 C 0.47513 0.27304 0.96967 0.0
C858 C 0.48579 0.29989 1.02919 0.0
C859 C 0.46146 0.25957 1.0388 0.0
N860 N 0.46355 0.17636 1.03053 0.0
N861 N 0.50574 0.35019 0.9817 0.0
C862 C 0.4656 0.21975 1.01695 0.0
C863 C 0.49095 0.30816 0.99338 0.0
N864 N 0.46244 0.19153 0.95741 0.0
N865 N 0.49741 0.33193 1.05417 0.0
H866 H 0.51023 0.35623 0.95555 0.0
H867 H 0.51414 0.37861 0.99767 0.0
H868 H 0.49039 0.32541 1.08004 0.0
H869 H 0.51555 0.36266 1.04966 0.0
H870 H 0.45312 0.15769 0.96385 0.0
H871 H 0.46579 0.19717 0.93102 0.0
H872 H 0.4676 0.14562 1.01598 0.0
H873 H 0.46228 0.17196 1.05711 0.0
C874 C 0.41134 0.65357 0.52911 0.0
C875 C 0.37488 0.66164 0.553 0.0
C876 C 0.31886 0.63038 0.51183 0.0
C877 C 0.35065 0.64359 0.48572 0.0
N878 N 0.4309 0.65396 0.46833 0.0
N879 N 0.30498 0.62736 0.57387 0.0
C880 C 0.39875 0.64914 0.49389 0.0
C881 C 0.33349 0.63608 0.54678 0.0
N882 N 0.4567 0.65219 0.54004 0.0
N883 N 0.27412 0.61807 0.50315 0.0
H884 H 0.31568 0.63582 0.59903 0.0
H885 H 0.27277 0.61063 0.57154 0.0
H886 H 0.26328 0.61563 0.47746 0.0
H887 H 0.24811 0.61086 0.52097 0.0
H888 H 0.48473 0.64417 0.52376 0.0
H889 H 0.46503 0.65505 0.56618 0.0
H890 H 0.46578 0.66294 0.47299 0.0
H891 H 0.42173 0.64979 0.44239 0.0
C892 C 0.2243 0.59823 0.74397 0.0
C893 C 0.20193 0.63174 0.72313 0.0
C894 C 0.17923 0.67557 0.77461 0.0
C895 C 0.18283 0.63331 0.79269 0.0
N896 N 0.22465 0.56204 0.80021 0.0
N897 N 0.16918 0.70862 0.71793 0.0
C898 C 0.21391 0.59867 0.77977 0.0
C899 C 0.18432 0.6734 0.73835 0.0
N900 N 0.25133 0.56422 0.72886 0.0
N901 N 0.16852 0.71618 0.7918 0.0
H902 H 0.17396 0.70715 0.69126 0.0
H903 H 0.15125 0.73803 0.72727 0.0
H904 H 0.16733 0.71786 0.81862 0.0
H905 H 0.1668 0.74847 0.77998 0.0
H906 H 0.26946 0.53896 0.7425 0.0
H907 H 0.25792 0.56379 0.70244 0.0
H908 H 0.24192 0.53187 0.79169 0.0
H909 H 0.21442 0.56229 0.82605 0.0
C910 C 0.67311 0.73428 0.24722 0.0
C911 C 0.70596 0.69788 0.24289 0.0
C912 C 0.69052 0.6971 1.18176 0.0
C913 C 0.6446 0.71361 1.19001 0.0
N914 N 0.59613 0.75996 0.22932 0.0
N915 N 0.76827 0.67773 1.20445 0.0
C916 C 0.63742 0.7378 0.22197 0.0
C917 C 0.72336 0.69269 1.20918 0.0
N918 N 0.67549 0.76318 0.27541 0.0
N919 N 0.70019 0.68108 1.14923 0.0
H920 H 0.79015 0.67201 0.22563 0.0
H921 H 0.78381 0.67394 1.18031 0.0
H922 H 0.67587 0.6843 1.12924 0.0
H923 H 0.73139 0.66421 1.14248 0.0
H924 H 0.65329 0.79194 0.27898 0.0
H925 H 0.70267 0.75976 0.29335 0.0
H926 H 0.58837 0.77351 0.2538 0.0
H927 H 0.56937 0.76359 0.21125 0.0
C928 C 0.32214 0.5066 0.32903 0.0
C929 C 0.28865 0.47011 0.32608 0.0
C930 C 0.23704 0.52072 0.29244 0.0
C931 C 0.26737 0.55867 0.29967 0.0
N932 N 0.34776 0.58186 0.3088 0.0
N933 N 0.21524 0.44054 0.30368 0.0
C934 C 0.31286 0.55 0.31307 0.0
C935 C 0.24662 0.4764 0.3069 0.0
N936 N 0.36175 0.50054 0.34844 0.0
N937 N 0.20047 0.52711 0.27019 0.0
H938 H 0.22199 0.40712 0.31277 0.0
H939 H 0.18167 0.44414 0.29342 0.0
H940 H 0.19568 0.55865 0.25758 0.0
H941 H 0.17822 0.50063 0.26147 0.0
H942 H 0.38447 0.52765 0.3552 0.0
H943 H 0.37017 0.46902 0.36003 0.0
H944 H 0.38246 0.57624 0.31617 0.0
H945 H 0.3437 0.61076 0.29319 0.0
C946 C 0.3649 0.53494 0.61293 0.0
C947 C 0.40344 0.53792 0.59013 0.0
C948 C 0.35385 0.50875 0.54264 0.0
C949 C 0.31395 0.5121 0.56424 0.0
N950 N 0.28092 0.53374 0.61969 0.0
N951 N 0.43252 0.5362 0.53176 0.0
C952 C 0.31932 0.52707 0.59926 0.0
C953 C 0.3973 0.52748 0.55447 0.0
N954 N 0.37212 0.53673 0.64781 0.0
N955 N 0.3512 0.48521 0.51174 0.0
H956 H 0.46473 0.55024 0.53939 0.0
H957 H 0.42796 0.53379 0.50513 0.0
H958 H 0.32109 0.46752 0.50369 0.0
H959 H 0.38034 0.47846 0.49625 0.0
H960 H 0.34608 0.52963 0.6657 0.0
H961 H 0.40525 0.54026 0.65904 0.0
H962 H 0.28248 0.54984 0.64395 0.0
H963 H 0.24693 0.52701 0.61131 0.0
C964 C 0.3336 0.64283 0.81138 0.0
C965 C 0.30989 0.6529 0.84285 0.0
C966 C 0.31014 0.56922 0.85565 0.0
C967 C 0.32994 0.55862 0.82271 0.0
N968 N 0.35175 0.5853 0.7666 0.0
N969 N 0.26449 0.62418 0.89015 0.0
C970 C 0.33876 0.59549 0.79974 0.0
C971 C 0.29467 0.6156 0.86346 0.0
N972 N 0.35364 0.67815 0.79351 0.0
N973 N 0.30843 0.53609 0.88043 0.0
H974 H 0.25141 0.65747 0.89616 0.0
H975 H 0.24866 0.59763 0.90387 0.0
H976 H 0.32018 0.50189 0.87674 0.0
H977 H 0.29952 0.54392 0.90593 0.0
H978 H 0.37566 0.67237 0.77247 0.0
H979 H 0.3521 0.7131 0.80161 0.0
H980 H 0.35415 0.6104 0.74766 0.0
H981 H 0.35491 0.55112 0.75715 0.0
C982 C 0.2456 0.57858 1.12578 0.0
C983 C 0.20721 0.57255 1.10284 0.0
C984 C 0.25848 0.58974 1.05374 0.0
C985 C 0.29737 0.59399 1.07654 0.0
N986 N 0.32957 0.58379 1.13381 0.0
N987 N 0.17766 0.56503 1.0448 0.0
C988 C 0.29145 0.58551 1.11238 0.0
C989 C 0.21388 0.57583 1.06671 0.0
N990 N 0.23788 0.57994 1.16058 0.0
N991 N 0.26395 0.60027 1.01981 0.0
H992 H 0.1444 0.55581 1.05346 0.0
H993 H 0.18124 0.56193 1.01818 0.0
H994 H 0.29649 0.60816 1.00921 0.0
H995 H 0.23616 0.60348 1.00254 0.0
H996 H 0.26288 0.59083 1.17862 0.0
H997 H 0.20513 0.57389 1.1715 0.0
H998 H 0.32799 0.57247 1.15909 0.0
H999 H 0.36374 0.58973 1.12588 0.0
C1000 C 0.80612 0.57044 1.06462 0.0
C1001 C 0.83004 0.56554 1.09663 0.0
C1002 C 0.83103 0.65083 1.10432 0.0
C1003 C 0.80422 0.65522 1.07355 0.0
N1004 N 0.75417 0.61834 1.03081 0.0
N1005 N 0.85699 0.60018 1.15014 0.0
C1006 C 0.7878 0.6147 1.05583 0.0
C1007 C 0.83948 0.60554 1.11764 0.0
N1008 N 0.80357 0.53403 1.04128 0.0
N1009 N 0.85097 0.68941 1.1196 0.0
H1010 H 0.8637 0.5674 1.16041 0.0
H1011 H 0.86078 0.62776 1.16788 0.0
H1012 H 0.84716 0.72296 1.11002 0.0
H1013 H 0.87476 0.68769 1.13996 0.0
H1014 H 0.79131 0.53802 1.01618 0.0
H1015 H 0.81791 0.5011 1.04529 0.0
H1016 H 0.73788 0.58933 1.01939 0.0
H1017 H 0.73892 0.65016 1.02423 0.0
C1018 C 0.73766 0.58408 0.80278 0.0
C1019 C 0.70081 0.5839 0.8272 0.0
C1020 C 0.75596 0.60642 0.87338 0.0
C1021 C 0.79313 0.60462 0.8492 0.0
N1022 N 0.8212 0.58387 0.79206 0.0
N1023 N 0.67478 0.58784 0.88616 0.0
C1024 C 0.78455 0.59078 0.81429 0.0
C1025 C 0.70996 0.59291 0.8627 0.0
N1026 N 0.72754 0.57984 0.76835 0.0
N1027 N 0.76449 0.62229 0.90628 0.0
H1028 H 0.64054 0.57903 0.87906 0.0
H1029 H 0.68003 0.58915 0.91271 0.0
H1030 H 0.79812 0.63038 0.91527 0.0
H1031 H 0.73823 0.62974 0.92417 0.0
H1032 H 0.75177 0.58605 0.74899 0.0
H1033 H 0.69377 0.57388 0.75882 0.0
H1034 H 0.81753 0.56877 0.76756 0.0
H1035 H 0.85613 0.58955 0.79877 0.0
C1036 C 0.76134 0.48586 0.6056 0.0
C1037 C 0.79933 0.48041 0.58221 0.0
C1038 C 0.82244 0.56187 0.5934 0.0
C1039 C 0.77951 0.56935 0.61102 0.0
N1040 N 0.71965 0.53668 0.64623 0.0
N1041 N 0.86794 0.51161 0.55485 0.0
C1042 C 0.75267 0.53051 0.62112 0.0
C1043 C 0.83077 0.51787 0.57667 0.0
N1044 N 0.73174 0.44923 0.61104 0.0
N1045 N 0.85628 0.59551 0.59461 0.0
H1046 H 0.87667 0.47923 0.5437 0.0
H1047 H 0.88866 0.53886 0.54631 0.0
H1048 H 0.85362 0.62508 0.61062 0.0
H1049 H 0.88956 0.59121 0.58402 0.0
H1050 H 0.70051 0.45203 0.62473 0.0
H1051 H 0.73654 0.41613 0.59981 0.0
H1052 H 0.70065 0.50977 0.65702 0.0
H1053 H 0.71474 0.56884 0.65883 0.0
C1054 C 0.84951 0.51673 0.36762 0.0
C1055 C 0.80804 0.52729 0.34908 0.0
C1056 C 0.85456 0.57008 0.30723 0.0
C1057 C 0.89637 0.55345 0.32262 0.0
N1058 N 0.93363 0.50454 0.36484 0.0
N1059 N 0.77295 0.55462 0.29612 0.0
C1060 C 0.89398 0.52541 0.35241 0.0
C1061 C 0.81089 0.5517 0.31759 0.0
N1062 N 0.84635 0.49791 0.39957 0.0
N1063 N 0.8563 0.60407 0.28308 0.0
H1064 H 0.74052 0.54001 0.30147 0.0
H1065 H 0.77527 0.56715 0.27118 0.0
H1066 H 0.8876 0.61938 0.27535 0.0
H1067 H 0.82633 0.62047 0.27358 0.0
H1068 H 0.8752 0.49344 0.41576 0.0
H1069 H 0.81423 0.4907 0.41111 0.0
H1070 H 0.93322 0.47993 0.38421 0.0
H1071 H 0.96655 0.50831 0.35363 0.0
C1072 C 0.73579 0.97178 0.82874 0.0
C1073 C 0.78245 0.96595 0.84099 0.0
C1074 C 0.80562 1.0383 0.81268 0.0
C1075 C 0.75776 1.04758 0.80525 0.0
N1076 N 0.68296 1.01459 0.79146 0.0
N1077 N 0.86171 0.99452 0.84648 0.0
C1078 C 0.72436 1.01165 0.80904 0.0
C1079 C 0.81752 0.99924 0.83314 0.0
N1080 N 0.70223 0.93974 0.83657 0.0
N1081 N 0.83972 0.0647 0.7981 0.0
H1082 H 0.87174 0.96641 0.86155 0.0
H1083 H 0.88726 1.02032 0.84505 0.0
H1084 H 0.83207 0.08935 0.77947 0.0
H1085 H 0.87546 1.0577 0.80044 0.0
H1086 H 0.66657 0.94468 0.83193 0.0
H1087 H 0.70961 0.90913 0.84968 0.0
H1088 H 0.65755 0.98858 0.79077 0.0
H1089 H 0.67717 1.04106 0.77386 0.0
C1090 C 0.80777 0.0659 1.07999 0.0
C1091 C 0.80123 1.02733 1.05646 0.0
C1092 C 0.88692 1.01775 1.05221 0.0
C1093 C 0.89266 1.0512 1.07925 0.0
N1094 N 0.8597 0.10578 1.12062 0.0
N1095 N 0.83471 0.96546 1.02091 0.0
C1096 C 0.85343 0.07507 1.09347 0.0
C1097 C 0.84095 1.00315 1.04268 0.0
N1098 N 0.77105 0.09435 1.08943 0.0
N1099 N 0.9255 1.00033 1.03537 0.0
H1100 H 0.80199 0.95555 1.01125 0.0
H1101 H 0.86158 0.94257 1.01365 0.0
H1102 H 0.95974 1.00937 1.0423 0.0
H1103 H 0.92366 0.97997 1.01286 0.0
H1104 H 0.77527 0.12594 1.10286 0.0
H1105 H 0.7365 0.08947 1.08184 0.0
H1106 H 0.83232 0.11969 1.13529 0.0
H1107 H 0.89268 0.11521 1.13014 0.0
C1108 C 0.87222 0.11335 0.3029 0.0
C1109 C 0.84029 0.07563 0.30163 0.0
C1110 C 0.7815 0.12372 0.332 0.0
C1111 C 0.81551 0.15937 0.33704 0.0
N1112 N 0.89359 0.18877 0.32795 0.0
N1113 N 0.75878 1.05401 0.29948 0.0
C1114 C 0.86089 0.15459 0.32231 0.0
C1115 C 0.79302 0.0833 0.31162 0.0
N1116 N 0.91222 0.11021 0.28373 0.0
N1117 N 0.73871 0.12784 0.34759 0.0
H1118 H 0.76547 1.02818 0.28077 0.0
H1119 H 0.72313 1.05957 0.3038 0.0
H1120 H 0.72881 0.15727 0.36221 0.0
H1121 H 0.71444 0.10078 0.3482 0.0
H1122 H 0.93605 0.13732 0.28109 0.0
H1123 H 0.91851 0.08167 0.26715 0.0
H1124 H 0.92879 0.18525 0.32129 0.0
H1125 H 0.88628 0.21988 0.34141 0.0
C1126 C 0.78366 0.08895 0.59559 0.0
C1127 C 0.78398 0.10755 0.56176 0.0
C1128 C 0.69942 0.0922 0.55671 0.0
C1129 C 0.69841 0.0788 0.59167 0.0
N1130 N 0.73809 0.07066 0.64612 0.0
N1131 N 0.7402 0.13519 0.51294 0.0
C1132 C 0.74022 0.07834 0.61149 0.0
C1133 C 0.74135 0.11116 0.54295 0.0
N1134 N 0.82479 0.08183 0.61293 0.0
N1135 N 0.66028 0.08662 0.5366 0.0
H1136 H 0.76962 0.15145 0.50293 0.0
H1137 H 0.7093 0.14296 0.4998 0.0
H1138 H 0.62893 0.07322 0.54597 0.0
H1139 H 0.66025 0.09104 0.51004 0.0
H1140 H 0.82706 1.06276 0.63541 0.0
H1141 H 0.85734 0.09183 0.60376 0.0
H1142 H 0.76614 0.07638 0.66294 0.0
H1143 H 0.70711 1.06234 0.65878 0.0
C1144 C 0.27075 0.10904 0.56854 0.0
C1145 C 0.30324 0.14654 0.5702 0.0
C1146 C 0.35547 0.10018 0.60639 0.0
C1147 C 0.3266 1.06077 0.60042 0.0
N1148 N 0.24741 1.03418 0.5911 0.0
N1149 N 0.3772 0.17828 0.58987 0.0
C1150 C 0.28126 0.0669 0.58595 0.0
C1151 C 0.34556 0.14247 0.58931 0.0
N1152 N 0.23053 0.11332 0.54952 0.0
N1153 N 0.39072 0.0975 0.63017 0.0
H1154 H 0.371 0.21008 0.57799 0.0
H1155 H 0.41097 0.17537 0.59996 0.0
H1156 H 0.39579 0.06764 0.64473 0.0
H1157 H 0.41088 0.12592 0.63834 0.0
H1158 H 0.20811 0.08556 0.54386 0.0
H1159 H 0.22108 0.14412 0.53733 0.0
H1160 H 0.21273 1.03779 0.58306 0.0
H1161 H 0.25225 1.00662 0.60788 0.0
C1162 C 0.22221 0.11207 0.338 0.0
C1163 C 0.21752 0.06676 0.32283 0.0
C1164 C 0.29727 1.04677 0.3426 0.0
C1165 C 0.30393 0.09401 0.3534 0.0
N1166 N 0.26662 0.16312 0.37644 0.0
N1167 N 0.25006 0.99057 0.30993 0.0
C1168 C 0.26444 0.1242 0.35557 0.0
C1169 C 0.25481 1.03378 0.32521 0.0
N1170 N 0.18702 0.14427 0.33438 0.0
N1171 N 0.32978 1.01385 0.35133 0.0
H1172 H 0.21908 0.97955 0.29792 0.0
H1173 H 0.27756 0.96675 0.30712 0.0
H1174 H 0.35753 1.02138 0.36809 0.0
H1175 H 0.32593 0.97822 0.34624 0.0
H1176 H 0.19067 0.1795 0.34109 0.0
H1177 H 0.15517 0.13664 0.32222 0.0
H1178 H 0.23789 0.18458 0.38197 0.0
H1179 H 0.29599 0.17051 0.39167 0.0
C1180 C 0.31011 1.05112 1.0867 0.0
C1181 C 0.26791 1.06021 1.10513 0.0
C1182 C 0.25076 0.97581 1.10348 0.0
C1183 C 0.28704 0.96899 1.07893 0.0
N1184 N 0.35105 0.99993 1.04616 0.0
N1185 N 0.20149 1.03032 1.13575 0.0
C1186 C 0.31678 1.00657 1.07034 0.0
C1187 C 0.23969 1.02203 1.11534 0.0
N1188 N 0.34487 0.0838 1.08621 0.0
N1189 N 0.22677 0.93807 1.11524 0.0
H1190 H 0.19494 1.06279 1.14738 0.0
H1191 H 0.17569 1.00576 1.14061 0.0
H1192 H 0.23227 0.90408 1.10582 0.0
H1193 H 0.20339 0.93961 1.13576 0.0
H1194 H 0.3775 0.07778 1.07492 0.0
H1195 H 0.34425 0.11403 1.10158 0.0
H1196 H 0.36997 1.02725 1.03573 0.0
H1197 H 0.35832 0.96741 1.03465 0.0
C1198 C 0.34456 0.07288 0.79365 0.0
C1199 C 0.38492 0.06708 0.81448 0.0
C1200 C 0.33546 1.03805 0.86119 0.0
C1201 C 0.29614 1.038 0.83868 0.0
N1202 N 0.2651 1.04939 0.78117 0.0
N1203 N 0.42036 1.04055 0.86708 0.0
C1204 C 0.30103 1.05418 0.80437 0.0
C1205 C 0.3808 1.04903 0.84815 0.0
N1206 N 0.34762 0.09708 0.76374 0.0
N1207 N 0.32928 1.028 0.89512 0.0
H1208 H 0.45399 1.04852 0.85853 0.0
H1209 H 0.42028 1.02266 0.89015 0.0
H1210 H 0.29652 1.01998 0.90529 0.0
H1211 H 0.35549 1.03165 0.91372 0.0
H1212 H 0.31843 0.10705 0.74938 0.0
H1213 H 0.37897 0.11115 0.75492 0.0
H1214 H 0.26918 1.05401 0.7548 0.0
H1215 H 0.23199 1.03738 0.78749 0.0
C1216 C 0.30657 0.15196 0.24515 0.0
C1217 C 0.32271 0.1966 0.25731 0.0
C1218 C 0.26792 0.23229 0.21493 0.0
C1219 C 0.25713 0.18759 1.19967 0.0
N1220 N 0.27713 0.10523 1.19745 0.0
N1221 N 0.32203 0.27981 0.24956 0.0
C1222 C 0.27935 0.14764 0.21413 0.0
C1223 C 0.30409 0.23692 0.24103 0.0
N1224 N 0.3152 0.11303 0.26394 0.0
N1225 N 0.24216 0.2704 1.20567 0.0
H1226 H 0.34874 0.28441 0.26775 0.0
H1227 H 0.31368 0.31005 0.23635 0.0
H1228 H 0.21437 0.26831 1.18816 0.0
H1229 H 0.24491 0.30293 0.21806 0.0
H1230 H 0.29905 0.081 0.25875 0.0
H1231 H 0.33418 0.11351 0.28679 0.0
H1232 H 0.29733 0.07652 1.20456 0.0
H1233 H 0.25946 0.09977 1.1744 0.0
C1234 C 0.66303 0.56894 0.44858 0.0
C1235 C 0.67131 0.51955 0.45196 0.0
C1236 C 0.67239 0.53293 0.51569 0.0
C1237 C 0.66338 0.58173 0.512 0.0
N1238 N 0.6393 0.64339 0.47503 0.0
N1239 N 0.67335 0.45426 0.48997 0.0
C1240 C 0.65563 0.5987 0.47844 0.0
C1241 C 0.67311 0.50161 0.48595 0.0
N1242 N 0.66437 0.58866 0.4169 0.0
N1243 N 0.68165 0.51641 0.54771 0.0
H1244 H 0.67281 0.43051 0.46923 0.0
H1245 H 0.66961 0.43823 0.5136 0.0
H1246 H 0.67982 0.53731 0.56997 0.0
H1247 H 0.69363 0.48269 0.55204 0.0
H1248 H 0.66638 0.62455 0.41329 0.0
H1249 H 0.6666 0.56974 0.39399 0.0
H1250 H 0.62697 0.65661 0.45189 0.0
H1251 H 0.63353 0.66596 0.49609 0.0
C1252 C 0.26617 0.90607 0.72166 0.0
C1253 C 0.28311 0.91563 0.75547 0.0
C1254 C 0.36178 0.9308 0.72999 0.0
C1255 C 0.34311 0.92806 0.69588 0.0
N1256 N 0.27348 0.91732 0.66041 0.0
N1257 N 0.34748 0.9429 0.79121 0.0
C1258 C 0.29431 0.9164 0.6921 0.0
C1259 C 0.33114 0.92925 0.75945 0.0
N1260 N 0.22316 0.88561 0.71766 0.0
N1261 N 0.40931 0.93257 0.73449 0.0
H1262 H 0.32731 0.94188 0.81346 0.0
H1263 H 0.38001 0.95863 0.7951 0.0
H1264 H 0.43282 0.93264 0.71397 0.0
H1265 H 0.42554 0.92897 0.75839 0.0
H1266 H 0.21065 0.87247 0.69415 0.0
H1267 H 0.202 0.87723 0.73851 0.0
H1268 H 0.23727 0.91596 0.65673 0.0
H1269 H 0.29149 0.92319 0.63784 0.0
C1270 C 0.93065 0.62932 0.98654 0.0
C1271 C 0.93226 0.61031 0.95232 0.0
C1272 C 0.95051 0.53264 0.97769 0.0
C1273 C 0.94234 0.55033 1.01156 0.0
N1274 N 0.91877 0.61643 1.04749 0.0
N1275 N 0.93803 0.53982 0.9165 0.0
C1276 C 0.93106 0.59899 1.01576 0.0
C1277 C 0.94098 0.56095 0.94829 0.0
N1278 N 0.93099 0.67676 0.99143 0.0
N1279 N 0.96926 0.48883 0.97343 0.0
H1280 H 0.93233 0.55763 0.89396 0.0
H1281 H 0.93726 0.50367 0.91272 0.0
H1282 H 0.97728 0.46741 0.99408 0.0
H1283 H 0.98154 0.47569 0.94989 0.0
H1284 H 0.93513 0.69309 1.01548 0.0
H1285 H 0.93212 0.7 0.97114 0.0
H1286 H 0.90498 0.64984 1.05148 0.0
H1287 H 0.91867 0.59657 1.06957 0.0
C1288 C 0.8378 0.89563 1.19113 0.0
C1289 C 0.84872 0.93997 1.20683 0.0
C1290 C 0.79217 0.97599 1.16568 0.0
C1291 C 0.77788 0.93122 1.15233 0.0
N1292 N 0.78335 0.84769 1.15707 0.0
N1293 N 0.82917 1.02225 0.21111 0.0
C1294 C 0.79991 0.89092 1.16636 0.0
C1295 C 0.82395 0.97998 1.19457 0.0
N1296 N 0.86505 0.85787 1.19889 0.0
N1297 N 0.77761 1.01553 1.14965 0.0
H1298 H 0.85441 1.02888 0.22983 0.0
H1299 H 0.8063 1.05033 1.20775 0.0
H1300 H 0.75585 1.01537 1.12816 0.0
H1301 H 0.79061 1.04867 1.15561 0.0
H1302 H 0.8626 0.82564 1.18604 0.0
H1303 H 0.89354 0.86009 0.2158 0.0
H1304 H 0.79399 0.817 1.16879 0.0
H1305 H 0.75546 0.84287 1.13989 0.0
C1306 C 0.42913 0.61845 0.93504 0.0
C1307 C 0.42842 0.59981 0.96878 0.0
C1308 C 0.44873 0.52194 0.94209 0.0
C1309 C 0.44254 0.53929 0.90832 0.0
N1310 N 0.42082 0.60506 0.87339 0.0
N1311 N 0.43454 0.53068 1.0034 0.0
C1312 C 0.43148 0.5879 0.90503 0.0
C1313 C 0.43784 0.55077 0.97196 0.0
N1314 N 0.42977 0.66585 0.93147 0.0
N1315 N 0.46678 0.47796 0.94578 0.0
H1316 H 0.42872 0.54961 1.02603 0.0
H1317 H 0.4342 0.49468 1.00679 0.0
H1318 H 0.47586 0.45642 0.92478 0.0
H1319 H 0.47732 0.46463 0.96934 0.0
H1320 H 0.43592 0.68188 0.90809 0.0
H1321 H 0.4292 0.68928 0.95242 0.0
H1322 H 0.40716 0.63843 0.86986 0.0
H1323 H 0.42176 0.58505 0.85074 0.0
C1324 C 0.80351 0.20123 0.7154 0.0
C1325 C 0.75347 0.19587 0.71287 0.0
C1326 C 0.76186 0.20079 0.64916 0.0
C1327 C 0.81148 0.20873 0.65213 0.0
N1328 N 0.87594 0.22825 0.68968 0.0
N1329 N 0.68503 0.20139 0.67669 0.0
C1330 C 0.83106 0.21222 0.68573 0.0
C1331 C 0.73279 0.19864 0.6795 0.0
N1332 N 0.82588 0.1938 0.74592 0.0
N1333 N 0.74213 0.19337 0.61741 0.0
H1334 H 0.66275 0.20073 0.69792 0.0
H1335 H 0.66761 0.20916 0.65388 0.0
H1336 H 0.76069 0.19443 0.59449 0.0
H1337 H 0.7078 0.18202 0.61374 0.0
H1338 H 0.86218 0.19038 0.74817 0.0
H1339 H 0.80852 0.18694 0.76856 0.0
H1340 H 0.89065 0.2371 0.71354 0.0
H1341 H 0.89679 0.23775 0.66896 0.0
C1342 C 0.13027 0.51897 0.44275 0.0
C1343 C 0.17507 0.50679 0.45694 0.0
C1344 C 0.21128 0.55466 0.41139 0.0
C1345 C 0.16679 0.57269 0.40079 0.0
N1346 N 0.08325 0.57362 0.40945 0.0
N1347 N 0.25819 0.52287 0.45733 0.0
C1348 C 0.12609 0.555 0.41726 0.0
C1349 C 0.21549 0.52705 0.44171 0.0
N1350 N 0.09158 0.49471 0.45257 0.0
N1351 N 0.24999 0.56224 0.39178 0.0
H1352 H 0.26241 0.50736 0.48098 0.0
H1353 H 0.28821 0.54009 0.44921 0.0
H1354 H 0.249 0.58154 0.36947 0.0
H1355 H 0.28187 0.54509 0.3956 0.0
H1356 H 1.05875 0.49835 0.44103 0.0
H1357 H 0.09339 0.46719 0.46972 0.0
H1358 H 1.05277 0.56625 0.42298 0.0
H1359 H 0.07885 0.59957 0.39124 0.0
C1360 C 0.80701 0.71713 0.69855 0.0
C1361 C 0.75844 0.70493 0.7016 0.0
C1362 C 0.76969 0.70294 0.76537 0.0
C1363 C 0.8191 0.71113 0.76199 0.0
N1364 N 0.88458 0.72541 0.72488 0.0
N1365 N 0.69348 0.68791 0.73855 0.0
C1366 C 0.83741 0.71822 0.7284 0.0
C1367 C 0.73997 0.69863 0.73528 0.0
N1368 N 0.8245 0.72833 0.66709 0.0
N1369 N 0.75062 0.69925 0.79747 0.0
H1370 H 0.66937 0.69067 0.71842 0.0
H1371 H 0.67855 0.67511 0.7608 0.0
H1372 H 0.77023 0.69628 0.81991 0.0
H1373 H 0.71481 0.70042 0.8025 0.0
H1374 H 0.857 0.74385 0.66346 0.0
H1375 H 0.80568 0.72503 0.64429 0.0
H1376 H 0.90222 0.72364 0.70147 0.0
H1377 H 0.90699 0.7314 0.7458 0.0
C1378 C 0.16922 1.00745 0.97694 0.0
C1379 C 0.16799 1.02638 0.94327 0.0
C1380 C 0.14901 0.1041 0.97084 0.0
C1381 C 0.157 0.08639 1.00426 0.0
N1382 N 0.17807 1.02032 1.03871 0.0
N1383 N 0.15801 0.09548 0.90898 0.0
C1384 C 0.16763 1.03773 1.00712 0.0
C1385 C 0.15771 0.07536 0.94051 0.0
N1386 N 0.16954 0.95998 0.98024 0.0
N1387 N 0.13117 0.14829 0.96805 0.0
H1388 H 0.16087 0.07658 0.88602 0.0
H1389 H 0.15807 0.13147 0.90556 0.0
H1390 H 0.12412 0.16981 0.98948 0.0
H1391 H 0.11896 0.16194 0.94502 0.0
H1392 H 0.16492 0.94348 1.00362 0.0
H1393 H 0.1694 0.93678 0.95916 0.0
H1394 H 0.1917 0.98697 1.04226 0.0
H1395 H 0.17592 1.04016 1.0614 0.0
C1396 C 0.79299 0.42263 1.19564 0.0
C1397 C 0.84249 0.43144 1.19851 0.0
C1398 C 0.83305 0.43091 0.26228 0.0
C1399 C 0.78399 0.42012 0.25929 0.0
N1400 N 0.72158 0.39383 0.22202 0.0
N1401 N 0.91032 0.431 0.23558 0.0
C1402 C 0.76539 0.41266 0.22562 0.0
C1403 C 0.86255 0.43191 0.23217 0.0
N1404 N 0.77113 0.42557 1.16443 0.0
N1405 N 0.85182 0.44222 0.29374 0.0
H1406 H 0.933 0.43033 0.21456 0.0
H1407 H 0.92749 0.42574 0.25892 0.0
H1408 H 0.83308 0.44179 0.31658 0.0
H1409 H 0.88542 0.45579 0.29695 0.0
H1410 H 0.73477 0.4263 1.16152 0.0
H1411 H 0.78871 0.43092 1.14158 0.0
H1412 H 0.70787 0.38208 1.19849 0.0
H1413 H 0.70088 0.3851 0.24302 0.0
C1414 C 0.387 1.0567 0.49283 0.0
C1415 C 0.43194 1.0455 0.50726 0.0
C1416 C 0.46646 0.10321 0.46723 0.0
C1417 C 0.42214 0.11056 0.45062 0.0
N1418 N 0.33979 0.0896 0.44785 0.0
N1419 N 0.5157 1.05465 0.50376 0.0
C1420 C 0.38263 0.08596 0.46353 0.0
C1421 C 0.47194 0.06806 0.49324 0.0
N1422 N 0.34642 1.04071 0.50663 0.0
N1423 N 0.5031 0.13177 0.45961 0.0
H1424 H 0.52118 1.0292 0.52221 0.0
H1425 H 0.54651 0.06546 0.49206 0.0
H1426 H 0.50005 0.15903 0.44237 0.0
H1427 H 0.53482 0.13189 0.47302 0.0
H1428 H 0.34428 1.02082 0.52869 0.0
H1429 H 0.34428 1.02082 0.52869 0.0
H1430 H 0.31008 0.07214 0.45641 0.0
H1431 H 0.33394 0.10806 0.42555 0.0
C1432 C 0.35746 0.42358 0.6833 0.0
C1433 C 0.33646 0.43153 0.7162 0.0
C1434 C 0.25826 0.41973 0.6877 0.0
C1435 C 0.27877 0.41811 0.65431 0.0
N1436 N 0.35028 0.42404 0.62097 0.0
N1437 N 0.26444 0.44212 0.74804 0.0
C1438 C 0.32905 0.42112 0.65235 0.0
C1439 C 0.28622 0.43064 0.71783 0.0
N1440 N 0.40489 0.4166 0.68157 0.0
N1441 N 0.2119 0.40865 0.69102 0.0
H1442 H 0.28275 0.44932 0.77055 0.0
H1443 H 0.22856 0.44873 0.75003 0.0
H1444 H 0.19075 0.399 0.67009 0.0
H1445 H 0.1957 0.40391 0.71469 0.0
H1446 H 0.42211 0.40502 0.65934 0.0
H1447 H 0.42666 0.41781 0.70322 0.0
H1448 H 0.38563 0.43197 0.61796 0.0
H1449 H 0.33233 0.42332 0.59765 0.0
C1450 C 0.96691 0.11384 0.441 0.0
C1451 C 0.9214 0.12359 0.45492 0.0
C1452 C 0.88829 0.07207 0.40883 0.0
C1453 C 0.93391 1.05667 0.39825 0.0
N1454 N 1.01732 1.06083 0.40761 0.0
N1455 N 0.83931 0.10263 0.45467 0.0
C1456 C 0.97341 0.07727 0.41519 0.0
C1457 C 0.88231 0.10041 0.43935 0.0
N1458 N 1.00396 0.14075 0.45155 0.0
N1459 N 0.85002 1.06146 0.38905 0.0
H1460 H 0.8333 0.12026 0.4778 0.0
H1461 H 0.81081 0.08245 0.44658 0.0
H1462 H 0.8516 1.04077 0.36685 0.0
H1463 H 0.8174 0.0773 0.39283 0.0
H1464 H 1.03702 0.13874 0.44025 0.0
H1465 H 1.00033 0.16863 0.46912 0.0
H1466 H 1.04721 0.07059 0.42147 0.0
H1467 H 1.02336 1.0342 0.38937 0.0
C1468 C 0.30367 0.71399 0.21954 0.0
C1469 C 0.25427 0.70451 0.21604 0.0
C1470 C 0.2655 0.70415 1.1523 0.0
C1471 C 0.31429 0.71504 1.15614 0.0
N1472 N 0.37559 0.74246 1.19377 0.0
N1473 N 0.18749 0.70268 1.17787 0.0
C1474 C 0.33186 0.72353 1.18988 0.0
C1475 C 0.23513 0.70309 1.18201 0.0
N1476 N 0.32513 0.71164 0.25096 0.0
N1477 N 0.24809 0.69274 1.1204 0.0
H1478 H 0.16428 0.70309 1.19857 0.0
H1479 H 0.17087 0.70705 1.15423 0.0
H1480 H 0.26808 0.69299 1.09805 0.0
H1481 H 0.21461 0.67931 1.11627 0.0
H1482 H 0.36145 0.71078 0.25408 0.0
H1483 H 0.30761 0.70699 0.27388 0.0
H1484 H 0.38871 0.75496 0.21728 0.0
H1485 H 0.39681 0.75049 1.17286 0.0
C1486 C 0.70941 1.03133 0.9427 0.0
C1487 C 0.66846 1.01105 0.95725 0.0
C1488 C 0.62081 1.06032 0.91748 0.0
C1489 C 0.66203 0.07772 0.90154 0.0
N1490 N 0.74551 0.0672 0.89367 0.0
N1491 N 0.5849 0.99994 0.95195 0.0
C1492 C 0.70614 1.05942 0.9126 0.0
C1493 C 0.62407 1.02391 0.94273 0.0
N1494 N 0.75187 1.02671 0.9586 0.0
N1495 N 0.57835 0.07957 0.90937 0.0
H1496 H 0.58606 0.97209 0.96883 0.0
H1497 H 0.55233 1.00419 0.94014 0.0
H1498 H 0.57469 0.10587 0.89135 0.0
H1499 H 0.54753 0.07244 0.92256 0.0
H1500 H 0.78148 1.04495 0.95114 0.0
H1501 H 0.75682 1.00914 0.98135 0.0
H1502 H 0.77721 1.0498 0.89768 0.0
H1503 H 0.74545 0.087 0.87162 0.0
loop_
_geom_bond_atom_site_label_1
_geom_bond_atom_site_label_2
_geom_bond_distance
_geom_bond_site_symmetry_2
_ccdc_geom_bond_type
Ho0 C3 2.811 . S
Ho0 O20 2.322 . S
Ho0 O22 2.378 . S
Ho0 O23 2.524 . S
Ho0 O24 2.381 . S
Ho0 O25 2.669 . S
Ho0 O27 2.346 . S
Ho0 O31 2.305 . S
Ho1 C12 2.811 . S
Ho1 O21 2.346 . S
Ho1 O25 2.305 . S
Ho1 O26 2.322 . S
Ho1 O28 2.378 . S
Ho1 O29 2.524 . S
Ho1 O30 2.381 . S
Ho1 O31 2.669 . S
C2 O20 1.259 . S
C2 O21 1.268 . S
C3 Ho0 2.811 . S
C3 C4 1.488 . S
C3 O22 1.215 . S
C3 O23 1.289 . S
C4 C3 1.488 . S
C4 C5 1.348 . S
C4 C9 1.413 . S
C5 C4 1.348 . S
C5 C6 1.442 . S
C5 H32 0.930 . S
C6 C5 1.442 . S
C6 C7 1.381 . S
C6 H33 0.931 . S
C7 C6 1.381 . S
C7 C8 1.321 . S
C8 C7 1.321 . S
C8 C9 1.403 . S
C8 H34 0.934 . S
C9 C4 1.413 . S
C9 C8 1.403 . S
C9 H35 0.930 . S
C10 O24 1.275 . S
C10 O25 1.256 . S
C11 O26 1.259 . S
C11 O27 1.268 . S
C12 Ho1 2.811 . S
C12 C13 1.488 . S
C12 O28 1.215 . S
C12 O29 1.289 . S
C13 C12 1.488 . S
C13 C14 1.348 . S
C13 C18 1.413 1_545 S
C14 C13 1.348 . S
C14 C15 1.442 . S
C14 H36 0.930 . S
C15 C14 1.442 . S
C15 C16 1.381 1_545 S
C15 H37 0.931 1_554 S
C16 C15 1.381 1_565 S
C16 C17 1.321 . S
C17 C16 1.321 . S
C17 C18 1.403 . S
C17 H38 0.934 . S
C18 C13 1.413 1_565 S
C18 C17 1.403 . S
C18 H39 0.930 . S
C19 O30 1.275 . S
C19 O31 1.256 . S
O20 Ho0 2.322 . S
O20 C2 1.259 . S
O21 Ho1 2.346 . S
O21 C2 1.268 . S
O22 Ho0 2.378 . S
O22 C3 1.215 . S
O23 Ho0 2.524 . S
O23 C3 1.289 . S
O24 Ho0 2.381 . S
O24 C10 1.275 . S
O25 Ho0 2.669 . S
O25 Ho1 2.305 . S
O25 C10 1.256 . S
O26 Ho1 2.322 . S
O26 C11 1.259 . S
O27 Ho0 2.346 . S
O27 C11 1.268 . S
O28 Ho1 2.378 . S
O28 C12 1.215 . S
O29 Ho1 2.524 . S
O29 C12 1.289 . S
O30 Ho1 2.381 . S
O30 C19 1.275 . S
O31 Ho0 2.305 . S
O31 Ho1 2.669 . S
O31 C19 1.256 . S
H32 C5 0.930 . S
H33 C6 0.931 . S
H34 C8 0.934 . S
H35 C9 0.930 . S
H36 C14 0.930 . S
H37 C15 0.931 1_556 S
H38 C17 0.934 . S
H39 C18 0.930 . S
Ho40 C43 2.811 . S
Ho40 O60 2.322 . S
Ho40 O62 2.378 . S
Ho40 O63 2.524 . S
Ho40 O64 2.381 . S
Ho40 O65 2.669 . S
Ho40 O67 2.346 . S
Ho40 O71 2.305 . S
Ho41 C52 2.811 . S
Ho41 O61 2.346 . S
Ho41 O65 2.305 . S
Ho41 O66 2.322 . S
Ho41 O68 2.378 . S
Ho41 O69 2.524 . S
Ho41 O70 2.381 . S
Ho41 O71 2.669 . S
C42 O60 1.259 . S
C42 O61 1.268 . S
C43 Ho40 2.811 . S
C43 C44 1.488 . S
C43 O62 1.215 . S
C43 O63 1.289 . S
C44 C43 1.488 . S
C44 C45 1.348 . S
C44 C49 1.413 . S
C45 C44 1.348 . S
C45 C46 1.442 . S
C45 H72 0.930 . S
C46 C45 1.442 . S
C46 C47 1.381 . S
C46 H73 0.931 . S
C47 C46 1.381 . S
C47 C48 1.321 . S
C48 C47 1.321 . S
C48 C49 1.403 . S
C48 H74 0.934 . S
C49 C44 1.413 . S
C49 C48 1.403 . S
C49 H75 0.930 . S
C50 O64 1.275 . S
C50 O65 1.256 . S
C51 O66 1.259 . S
C51 O67 1.268 . S
C52 Ho41 2.811 . S
C52 C53 1.488 . S
C52 O68 1.215 . S
C52 O69 1.289 . S
C53 C52 1.488 . S
C53 C54 1.348 . S
C53 C58 1.413 . S
C54 C53 1.348 . S
C54 C55 1.442 . S
C54 H76 0.930 . S
C55 C54 1.442 . S
C55 C56 1.381 . S
C55 H77 0.931 . S
C56 C55 1.381 . S
C56 C57 1.321 . S
C57 C56 1.321 . S
C57 C58 1.403 . S
C57 H78 0.934 . S
C58 C53 1.413 . S
C58 C57 1.403 . S
C58 H79 0.930 . S
C59 O70 1.275 . S
C59 O71 1.256 . S
O60 Ho40 2.322 . S
O60 C42 1.259 . S
O61 Ho41 2.346 . S
O61 C42 1.268 . S
O62 Ho40 2.378 . S
O62 C43 1.215 . S
O63 Ho40 2.524 . S
O63 C43 1.289 . S
O64 Ho40 2.381 . S
O64 C50 1.275 . S
O65 Ho40 2.669 . S
O65 Ho41 2.305 . S
O65 C50 1.256 . S
O66 Ho41 2.322 . S
O66 C51 1.259 . S
O67 Ho40 2.346 . S
O67 C51 1.268 . S
O68 Ho41 2.378 . S
O68 C52 1.215 . S
O69 Ho41 2.524 . S
O69 C52 1.289 . S
O70 Ho41 2.381 . S
O70 C59 1.275 . S
O71 Ho40 2.305 . S
O71 Ho41 2.669 . S
O71 C59 1.256 . S
H72 C45 0.930 . S
H73 C46 0.931 . S
H74 C48 0.934 . S
H75 C49 0.930 . S
H76 C54 0.930 . S
H77 C55 0.931 . S
H78 C57 0.934 . S
H79 C58 0.930 . S
Ho80 C83 2.811 . S
Ho80 O100 2.322 . S
Ho80 O102 2.378 . S
Ho80 O103 2.524 . S
Ho80 O104 2.381 . S
Ho80 O105 2.669 . S
Ho80 O107 2.346 . S
Ho80 O111 2.305 . S
Ho81 C92 2.811 . S
Ho81 O101 2.346 . S
Ho81 O105 2.305 . S
Ho81 O106 2.322 . S
Ho81 O108 2.378 . S
Ho81 O109 2.524 . S
Ho81 O110 2.381 . S
Ho81 O111 2.669 . S
C82 O100 1.259 . S
C82 O101 1.268 . S
C83 Ho80 2.811 . S
C83 C84 1.488 . S
C83 O102 1.215 . S
C83 O103 1.289 . S
C84 C83 1.488 . S
C84 C85 1.348 . S
C84 C89 1.413 . S
C85 C84 1.348 . S
C85 C86 1.442 . S
C85 H112 0.930 . S
C86 C85 1.442 . S
C86 C87 1.381 . S
C86 H113 0.931 . S
C87 C86 1.381 . S
C87 C88 1.321 . S
C88 C87 1.321 . S
C88 C89 1.403 . S
C88 H114 0.934 . S
C89 C84 1.413 . S
C89 C88 1.403 . S
C89 H115 0.930 . S
C90 O104 1.275 . S
C90 O105 1.256 . S
C91 O106 1.259 . S
C91 O107 1.268 . S
C92 Ho81 2.811 . S
C92 C93 1.488 . S
C92 O108 1.215 . S
C92 O109 1.289 . S
C93 C92 1.488 . S
C93 C94 1.348 . S
C93 C98 1.413 1_565 S
C94 C93 1.348 . S
C94 C95 1.442 . S
C94 H116 0.930 . S
C95 C94 1.442 . S
C95 C96 1.381 1_565 S
C95 H117 0.931 . S
C96 C95 1.381 1_545 S
C96 C97 1.321 . S
C97 C96 1.321 . S
C97 C98 1.403 . S
C97 H118 0.934 . S
C98 C93 1.413 1_545 S
C98 C97 1.403 . S
C98 H119 0.930 . S
C99 O110 1.275 . S
C99 O111 1.256 . S
O100 Ho80 2.322 . S
O100 C82 1.259 . S
O101 Ho81 2.346 . S
O101 C82 1.268 . S
O102 Ho80 2.378 . S
O102 C83 1.215 . S
O103 Ho80 2.524 . S
O103 C83 1.289 . S
O104 Ho80 2.381 . S
O104 C90 1.275 . S
O105 Ho80 2.669 . S
O105 Ho81 2.305 . S
O105 C90 1.256 . S
O106 Ho81 2.322 . S
O106 C91 1.259 . S
O107 Ho80 2.346 . S
O107 C91 1.268 . S
O108 Ho81 2.378 . S
O108 C92 1.215 . S
O109 Ho81 2.524 . S
O109 C92 1.289 . S
O110 Ho81 2.381 . S
O110 C99 1.275 . S
O111 Ho80 2.305 . S
O111 Ho81 2.669 . S
O111 C99 1.256 . S
H112 C85 0.930 . S
H113 C86 0.931 . S
H114 C88 0.934 . S
H115 C89 0.930 . S
H116 C94 0.930 . S
H117 C95 0.931 . S
H118 C97 0.934 . S
H119 C98 0.930 . S
Ho120 C123 2.811 1_655 S
Ho120 O140 2.322 . S
Ho120 O142 2.378 1_655 S
Ho120 O143 2.524 . S
Ho120 O144 2.381 . S
Ho120 O145 2.669 . S
Ho120 O147 2.346 . S
Ho120 O151 2.305 . S
Ho121 C132 2.811 . S
Ho121 O141 2.346 . S
Ho121 O145 2.305 . S
Ho121 O146 2.322 . S
Ho121 O148 2.378 . S
Ho121 O149 2.524 . S
Ho121 O150 2.381 . S
Ho121 O151 2.669 . S
C122 O140 1.259 . S
C122 O141 1.268 . S
C123 Ho120 2.811 1_455 S
C123 C124 1.488 . S
C123 O142 1.215 . S
C123 O143 1.289 1_455 S
C124 C123 1.488 . S
C124 C125 1.348 . S
C124 C129 1.413 . S
C125 C124 1.348 . S
C125 C126 1.442 . S
C125 H152 0.930 1_455 S
C126 C125 1.442 . S
C126 C127 1.381 . S
C126 H153 0.931 . S
C127 C126 1.381 . S
C127 C128 1.321 . S
C128 C127 1.321 . S
C128 C129 1.403 . S
C128 H154 0.934 . S
C129 C124 1.413 . S
C129 C128 1.403 . S
C129 H155 0.930 . S
C130 O144 1.275 . S
C130 O145 1.256 . S
C131 O146 1.259 . S
C131 O147 1.268 . S
C132 Ho121 2.811 . S
C132 C133 1.488 . S
C132 O148 1.215 . S
C132 O149 1.289 . S
C133 C132 1.488 . S
C133 C134 1.348 . S
C133 C138 1.413 . S
C134 C133 1.348 . S
C134 C135 1.442 . S
C134 H156 0.930 . S
C135 C134 1.442 . S
C135 C136 1.381 . S
C135 H157 0.931 . S
C136 C135 1.381 . S
C136 C137 1.321 . S
C137 C136 1.321 . S
C137 C138 1.403 . S
C137 H158 0.934 . S
C138 C133 1.413 . S
C138 C137 1.403 . S
C138 H159 0.930 . S
C139 O150 1.275 . S
C139 O151 1.256 . S
O140 Ho120 2.322 . S
O140 C122 1.259 . S
O141 Ho121 2.346 . S
O141 C122 1.268 . S
O142 Ho120 2.378 1_455 S
O142 C123 1.215 . S
O143 Ho120 2.524 . S
O143 C123 1.289 1_655 S
O144 Ho120 2.381 . S
O144 C130 1.275 . S
O145 Ho120 2.669 . S
O145 Ho121 2.305 . S
O145 C130 1.256 . S
O146 Ho121 2.322 . S
O146 C131 1.259 . S
O147 Ho120 2.346 . S
O147 C131 1.268 . S
O148 Ho121 2.378 . S
O148 C132 1.215 . S
O149 Ho121 2.524 . S
O149 C132 1.289 . S
O150 Ho121 2.381 . S
O150 C139 1.275 . S
O151 Ho120 2.305 . S
O151 Ho121 2.669 . S
O151 C139 1.256 . S
H152 C125 0.930 1_655 S
H153 C126 0.931 . S
H154 C128 0.934 . S
H155 C129 0.930 . S
H156 C134 0.930 . S
H157 C135 0.931 . S
H158 C137 0.934 . S
H159 C138 0.930 . S
Ho160 C163 2.811 . S
Ho160 O180 2.322 . S
Ho160 O182 2.378 . S
Ho160 O183 2.524 . S
Ho160 O184 2.381 . S
Ho160 O185 2.669 . S
Ho160 O187 2.346 . S
Ho160 O191 2.305 . S
Ho161 C172 2.811 . S
Ho161 O181 2.346 . S
Ho161 O185 2.305 . S
Ho161 O186 2.322 . S
Ho161 O188 2.378 . S
Ho161 O189 2.524 . S
Ho161 O190 2.381 . S
Ho161 O191 2.669 . S
C162 O180 1.259 . S
C162 O181 1.268 . S
C163 Ho160 2.811 . S
C163 C164 1.488 . S
C163 O182 1.215 . S
C163 O183 1.289 . S
C164 C163 1.488 . S
C164 C165 1.348 . S
C164 C169 1.413 1_565 S
C165 C164 1.348 . S
C165 C166 1.442 . S
C165 H192 0.930 . S
C166 C165 1.442 . S
C166 C167 1.381 1_565 S
C166 H193 0.931 1_556 S
C167 C166 1.381 1_545 S
C167 C168 1.321 . S
C168 C167 1.321 . S
C168 C169 1.403 . S
C168 H194 0.934 . S
C169 C164 1.413 1_545 S
C169 C168 1.403 . S
C169 H195 0.930 . S
C170 O184 1.275 . S
C170 O185 1.256 . S
C171 O186 1.259 . S
C171 O187 1.268 . S
C172 Ho161 2.811 . S
C172 C173 1.488 . S
C172 O188 1.215 . S
C172 O189 1.289 . S
C173 C172 1.488 . S
C173 C174 1.348 . S
C173 C178 1.413 . S
C174 C173 1.348 . S
C174 C175 1.442 . S
C174 H196 0.930 . S
C175 C174 1.442 . S
C175 C176 1.381 . S
C175 H197 0.931 . S
C176 C175 1.381 . S
C176 C177 1.321 . S
C177 C176 1.321 . S
C177 C178 1.403 . S
C177 H198 0.934 . S
C178 C173 1.413 . S
C178 C177 1.403 . S
C178 H199 0.930 . S
C179 O190 1.275 . S
C179 O191 1.256 . S
O180 Ho160 2.322 . S
O180 C162 1.259 . S
O181 Ho161 2.346 . S
O181 C162 1.268 . S
O182 Ho160 2.378 . S
O182 C163 1.215 . S
O183 Ho160 2.524 . S
O183 C163 1.289 . S
O184 Ho160 2.381 . S
O184 C170 1.275 . S
O185 Ho160 2.669 . S
O185 Ho161 2.305 . S
O185 C170 1.256 . S
O186 Ho161 2.322 . S
O186 C171 1.259 . S
O187 Ho160 2.346 . S
O187 C171 1.268 . S
O188 Ho161 2.378 . S
O188 C172 1.215 . S
O189 Ho161 2.524 . S
O189 C172 1.289 . S
O190 Ho161 2.381 . S
O190 C179 1.275 . S
O191 Ho160 2.305 . S
O191 Ho161 2.669 . S
O191 C179 1.256 . S
H192 C165 0.930 . S
H193 C166 0.931 1_554 S
H194 C168 0.934 . S
H195 C169 0.930 . S
H196 C174 0.930 . S
H197 C175 0.931 . S
H198 C177 0.934 . S
H199 C178 0.930 . S
Ho200 C203 2.811 . S
Ho200 O220 2.322 . S
Ho200 O222 2.378 . S
Ho200 O223 2.524 . S
Ho200 O224 2.381 . S
Ho200 O225 2.669 . S
Ho200 O227 2.346 . S
Ho200 O231 2.305 . S
Ho201 C212 2.811 . S
Ho201 O221 2.346 . S
Ho201 O225 2.305 . S
Ho201 O226 2.322 . S
Ho201 O228 2.378 . S
Ho201 O229 2.524 . S
Ho201 O230 2.381 . S
Ho201 O231 2.669 . S
C202 O220 1.259 . S
C202 O221 1.268 . S
C203 Ho200 2.811 . S
C203 C204 1.488 . S
C203 O222 1.215 . S
C203 O223 1.289 . S
C204 C203 1.488 . S
C204 C205 1.348 . S
C204 C209 1.413 . S
C205 C204 1.348 . S
C205 C206 1.442 . S
C205 H232 0.930 . S
C206 C205 1.442 . S
C206 C207 1.381 . S
C206 H233 0.931 . S
C207 C206 1.381 . S
C207 C208 1.321 . S
C208 C207 1.321 . S
C208 C209 1.403 . S
C208 H234 0.934 . S
C209 C204 1.413 . S
C209 C208 1.403 . S
C209 H235 0.930 . S
C210 O224 1.275 . S
C210 O225 1.256 . S
C211 O226 1.259 . S
C211 O227 1.268 . S
C212 Ho201 2.811 . S
C212 C213 1.488 . S
C212 O228 1.215 . S
C212 O229 1.289 . S
C213 C212 1.488 . S
C213 C214 1.348 . S
C213 C218 1.413 . S
C214 C213 1.348 . S
C214 C215 1.442 . S
C214 H236 0.930 . S
C215 C214 1.442 . S
C215 C216 1.381 . S
C215 H237 0.931 . S
C216 C215 1.381 . S
C216 C217 1.321 . S
C217 C216 1.321 . S
C217 C218 1.403 . S
C217 H238 0.934 . S
C218 C213 1.413 . S
C218 C217 1.403 . S
C218 H239 0.930 . S
C219 O230 1.275 . S
C219 O231 1.256 . S
O220 Ho200 2.322 . S
O220 C202 1.259 . S
O221 Ho201 2.346 . S
O221 C202 1.268 . S
O222 Ho200 2.378 . S
O222 C203 1.215 . S
O223 Ho200 2.524 . S
O223 C203 1.289 . S
O224 Ho200 2.381 . S
O224 C210 1.275 . S
O225 Ho200 2.669 . S
O225 Ho201 2.305 . S
O225 C210 1.256 . S
O226 Ho201 2.322 . S
O226 C211 1.259 . S
O227 Ho200 2.346 . S
O227 C211 1.268 . S
O228 Ho201 2.378 . S
O228 C212 1.215 . S
O229 Ho201 2.524 . S
O229 C212 1.289 . S
O230 Ho201 2.381 . S
O230 C219 1.275 . S
O231 Ho200 2.305 . S
O231 Ho201 2.669 . S
O231 C219 1.256 . S
H232 C205 0.930 . S
H233 C206 0.931 . S
H234 C208 0.934 . S
H235 C209 0.930 . S
H236 C214 0.930 . S
H237 C215 0.931 . S
H238 C217 0.934 . S
H239 C218 0.930 . S
Ho240 C243 2.811 . S
Ho240 O260 2.322 . S
Ho240 O262 2.378 . S
Ho240 O263 2.524 . S
Ho240 O264 2.381 . S
Ho240 O265 2.669 . S
Ho240 O267 2.346 . S
Ho240 O271 2.305 . S
Ho241 C252 2.811 . S
Ho241 O261 2.346 . S
Ho241 O265 2.305 . S
Ho241 O266 2.322 . S
Ho241 O268 2.378 . S
Ho241 O269 2.524 . S
Ho241 O270 2.381 . S
Ho241 O271 2.669 . S
C242 O260 1.259 . S
C242 O261 1.268 . S
C243 Ho240 2.811 . S
C243 C244 1.488 . S
C243 O262 1.215 . S
C243 O263 1.289 . S
C244 C243 1.488 . S
C244 C245 1.348 . S
C244 C249 1.413 1_545 S
C245 C244 1.348 . S
C245 C246 1.442 . S
C245 H272 0.930 . S
C246 C245 1.442 . S
C246 C247 1.381 1_545 S
C246 H273 0.931 . S
C247 C246 1.381 1_565 S
C247 C248 1.321 . S
C248 C247 1.321 . S
C248 C249 1.403 . S
C248 H274 0.934 . S
C249 C244 1.413 1_565 S
C249 C248 1.403 . S
C249 H275 0.930 . S
C250 O264 1.275 . S
C250 O265 1.256 . S
C251 O266 1.259 . S
C251 O267 1.268 . S
C252 Ho241 2.811 . S
C252 C253 1.488 . S
C252 O268 1.215 . S
C252 O269 1.289 . S
C253 C252 1.488 . S
C253 C254 1.348 . S
C253 C258 1.413 . S
C254 C253 1.348 . S
C254 C255 1.442 . S
C254 H276 0.930 . S
C255 C254 1.442 . S
C255 C256 1.381 . S
C255 H277 0.931 . S
C256 C255 1.381 . S
C256 C257 1.321 . S
C257 C256 1.321 . S
C257 C258 1.403 . S
C257 H278 0.934 . S
C258 C253 1.413 . S
C258 C257 1.403 . S
C258 H279 0.930 . S
C259 O270 1.275 . S
C259 O271 1.256 . S
O260 Ho240 2.322 . S
O260 C242 1.259 . S
O261 Ho241 2.346 . S
O261 C242 1.268 . S
O262 Ho240 2.378 . S
O262 C243 1.215 . S
O263 Ho240 2.524 . S
O263 C243 1.289 . S
O264 Ho240 2.381 . S
O264 C250 1.275 . S
O265 Ho240 2.669 . S
O265 Ho241 2.305 . S
O265 C250 1.256 . S
O266 Ho241 2.322 . S
O266 C251 1.259 . S
O267 Ho240 2.346 . S
O267 C251 1.268 . S
O268 Ho241 2.378 . S
O268 C252 1.215 . S
O269 Ho241 2.524 . S
O269 C252 1.289 . S
O270 Ho241 2.381 . S
O270 C259 1.275 . S
O271 Ho240 2.305 . S
O271 Ho241 2.669 . S
O271 C259 1.256 . S
H272 C245 0.930 . S
H273 C246 0.931 . S
H274 C248 0.934 . S
H275 C249 0.930 . S
H276 C254 0.930 . S
H277 C255 0.931 . S
H278 C257 0.934 . S
H279 C258 0.930 . S
Ho280 C283 2.811 . S
Ho280 O300 2.322 . S
Ho280 O302 2.378 . S
Ho280 O303 2.524 . S
Ho280 O304 2.381 . S
Ho280 O305 2.669 . S
Ho280 O307 2.346 . S
Ho280 O311 2.305 . S
Ho281 C292 2.811 1_455 S
Ho281 O301 2.346 . S
Ho281 O305 2.305 . S
Ho281 O306 2.322 . S
Ho281 O308 2.378 1_455 S
Ho281 O309 2.524 . S
Ho281 O310 2.381 . S
Ho281 O311 2.669 . S
C282 O300 1.259 . S
C282 O301 1.268 . S
C283 Ho280 2.811 . S
C283 C284 1.488 . S
C283 O302 1.215 . S
C283 O303 1.289 . S
C284 C283 1.488 . S
C284 C285 1.348 . S
C284 C289 1.413 . S
C285 C284 1.348 . S
C285 C286 1.442 . S
C285 H312 0.930 . S
C286 C285 1.442 . S
C286 C287 1.381 . S
C286 H313 0.931 . S
C287 C286 1.381 . S
C287 C288 1.321 . S
C288 C287 1.321 . S
C288 C289 1.403 . S
C288 H314 0.934 . S
C289 C284 1.413 . S
C289 C288 1.403 . S
C289 H315 0.930 . S
C290 O304 1.275 . S
C290 O305 1.256 . S
C291 O306 1.259 . S
C291 O307 1.268 . S
C292 Ho281 2.811 1_655 S
C292 C293 1.488 . S
C292 O308 1.215 . S
C292 O309 1.289 1_655 S
C293 C292 1.488 . S
C293 C294 1.348 . S
C293 C298 1.413 . S
C294 C293 1.348 . S
C294 C295 1.442 . S
C294 H316 0.930 1_655 S
C295 C294 1.442 . S
C295 C296 1.381 . S
C295 H317 0.931 . S
C296 C295 1.381 . S
C296 C297 1.321 . S
C297 C296 1.321 . S
C297 C298 1.403 . S
C297 H318 0.934 . S
C298 C293 1.413 . S
C298 C297 1.403 . S
C298 H319 0.930 . S
C299 O310 1.275 . S
C299 O311 1.256 . S
O300 Ho280 2.322 . S
O300 C282 1.259 . S
O301 Ho281 2.346 . S
O301 C282 1.268 . S
O302 Ho280 2.378 . S
O302 C283 1.215 . S
O303 Ho280 2.524 . S
O303 C283 1.289 . S
O304 Ho280 2.381 . S
O304 C290 1.275 . S
O305 Ho280 2.669 . S
O305 Ho281 2.305 . S
O305 C290 1.256 . S
O306 Ho281 2.322 . S
O306 C291 1.259 . S
O307 Ho280 2.346 . S
O307 C291 1.268 . S
O308 Ho281 2.378 1_655 S
O308 C292 1.215 . S
O309 Ho281 2.524 . S
O309 C292 1.289 1_455 S
O310 Ho281 2.381 . S
O310 C299 1.275 . S
O311 Ho280 2.305 . S
O311 Ho281 2.669 . S
O311 C299 1.256 . S
H312 C285 0.930 . S
H313 C286 0.931 . S
H314 C288 0.934 . S
H315 C289 0.930 . S
H316 C294 0.930 1_455 S
H317 C295 0.931 . S
H318 C297 0.934 . S
H319 C298 0.930 . S
Ho320 C323 2.811 . S
Ho320 O340 2.322 . S
Ho320 O342 2.378 . S
Ho320 O343 2.524 . S
Ho320 O344 2.381 . S
Ho320 O345 2.669 . S
Ho320 O347 2.346 . S
Ho320 O351 2.305 . S
Ho321 C332 2.811 . S
Ho321 O341 2.346 . S
Ho321 O345 2.305 . S
Ho321 O346 2.322 . S
Ho321 O348 2.378 . S
Ho321 O349 2.524 . S
Ho321 O350 2.381 . S
Ho321 O351 2.669 . S
C322 O340 1.259 . S
C322 O341 1.268 . S
C323 Ho320 2.811 . S
C323 C324 1.488 . S
C323 O342 1.215 . S
C323 O343 1.289 . S
C324 C323 1.488 . S
C324 C325 1.348 . S
C324 C329 1.413 . S
C325 C324 1.348 . S
C325 C326 1.442 . S
C325 H352 0.930 . S
C326 C325 1.442 . S
C326 C327 1.381 . S
C326 H353 0.931 . S
C327 C326 1.381 . S
C327 C328 1.321 . S
C328 C327 1.321 . S
C328 C329 1.403 . S
C328 H354 0.934 . S
C329 C324 1.413 . S
C329 C328 1.403 . S
C329 H355 0.930 . S
C330 O344 1.275 . S
C330 O345 1.256 . S
C331 O346 1.259 . S
C331 O347 1.268 . S
C332 Ho321 2.811 . S
C332 C333 1.488 . S
C332 O348 1.215 . S
C332 O349 1.289 . S
C333 C332 1.488 . S
C333 C334 1.348 . S
C333 C338 1.413 . S
C334 C333 1.348 . S
C334 C335 1.442 . S
C334 H356 0.930 . S
C335 C334 1.442 . S
C335 C336 1.381 . S
C335 H357 0.931 . S
C336 C335 1.381 . S
C336 C337 1.321 . S
C337 C336 1.321 . S
C337 C338 1.403 . S
C337 H358 0.934 . S
C338 C333 1.413 . S
C338 C337 1.403 . S
C338 H359 0.930 . S
C339 O350 1.275 . S
C339 O351 1.256 . S
O340 Ho320 2.322 . S
O340 C322 1.259 . S
O341 Ho321 2.346 . S
O341 C322 1.268 . S
O342 Ho320 2.378 . S
O342 C323 1.215 . S
O343 Ho320 2.524 . S
O343 C323 1.289 . S
O344 Ho320 2.381 . S
O344 C330 1.275 . S
O345 Ho320 2.669 . S
O345 Ho321 2.305 . S
O345 C330 1.256 . S
O346 Ho321 2.322 . S
O346 C331 1.259 . S
O347 Ho320 2.346 . S
O347 C331 1.268 . S
O348 Ho321 2.378 . S
O348 C332 1.215 . S
O349 Ho321 2.524 . S
O349 C332 1.289 . S
O350 Ho321 2.381 . S
O350 C339 1.275 . S
O351 Ho320 2.305 . S
O351 Ho321 2.669 . S
O351 C339 1.256 . S
H352 C325 0.930 . S
H353 C326 0.931 . S
H354 C328 0.934 . S
H355 C329 0.930 . S
H356 C334 0.930 . S
H357 C335 0.931 . S
H358 C337 0.934 . S
H359 C338 0.930 . S
Ho360 C363 2.811 1_445 S
Ho360 O380 2.322 . S
Ho360 O382 2.378 1_455 S
Ho360 O383 2.524 1_545 S
Ho360 O384 2.381 . S
Ho360 O385 2.669 . S
Ho360 O387 2.346 . S
Ho360 O391 2.305 . S
Ho361 C372 2.811 . S
Ho361 O381 2.346 . S
Ho361 O385 2.305 . S
Ho361 O386 2.322 . S
Ho361 O388 2.378 . S
Ho361 O389 2.524 . S
Ho361 O390 2.381 . S
Ho361 O391 2.669 . S
C362 O380 1.259 . S
C362 O381 1.268 . S
C363 Ho360 2.811 1_665 S
C363 C364 1.488 . S
C363 O382 1.215 1_565 S
C363 O383 1.289 1_655 S
C364 C363 1.488 . S
C364 C365 1.348 . S
C364 C369 1.413 . S
C365 C364 1.348 . S
C365 C366 1.442 . S
C365 H392 0.930 1_655 S
C366 C365 1.442 . S
C366 C367 1.381 . S
C366 H393 0.931 . S
C367 C366 1.381 . S
C367 C368 1.321 . S
C368 C367 1.321 . S
C368 C369 1.403 . S
C368 H394 0.934 . S
C369 C364 1.413 . S
C369 C368 1.403 . S
C369 H395 0.930 1_565 S
C370 O384 1.275 . S
C370 O385 1.256 . S
C371 O386 1.259 . S
C371 O387 1.268 . S
C372 Ho361 2.811 . S
C372 C373 1.488 . S
C372 O388 1.215 . S
C372 O389 1.289 . S
C373 C372 1.488 . S
C373 C374 1.348 . S
C373 C378 1.413 . S
C374 C373 1.348 . S
C374 C375 1.442 . S
C374 H396 0.930 . S
C375 C374 1.442 . S
C375 C376 1.381 . S
C375 H397 0.931 . S
C376 C375 1.381 . S
C376 C377 1.321 . S
C377 C376 1.321 . S
C377 C378 1.403 . S
C377 H398 0.934 . S
C378 C373 1.413 . S
C378 C377 1.403 . S
C378 H399 0.930 . S
C379 O390 1.275 1_565 S
C379 O391 1.256 1_565 S
O380 Ho360 2.322 . S
O380 C362 1.259 . S
O381 Ho361 2.346 . S
O381 C362 1.268 . S
O382 Ho360 2.378 1_655 S
O382 C363 1.215 1_545 S
O383 Ho360 2.524 1_565 S
O383 C363 1.289 1_455 S
O384 Ho360 2.381 . S
O384 C370 1.275 . S
O385 Ho360 2.669 . S
O385 Ho361 2.305 . S
O385 C370 1.256 . S
O386 Ho361 2.322 . S
O386 C371 1.259 . S
O387 Ho360 2.346 . S
O387 C371 1.268 . S
O388 Ho361 2.378 . S
O388 C372 1.215 . S
O389 Ho361 2.524 . S
O389 C372 1.289 . S
O390 Ho361 2.381 . S
O390 C379 1.275 1_545 S
O391 Ho360 2.305 . S
O391 Ho361 2.669 . S
O391 C379 1.256 1_545 S
H392 C365 0.930 1_455 S
H393 C366 0.931 . S
H394 C368 0.934 . S
H395 C369 0.930 1_545 S
H396 C374 0.930 . S
H397 C375 0.931 . S
H398 C377 0.934 . S
H399 C378 0.930 . S
Ho400 C403 2.811 . S
Ho400 O420 2.322 . S
Ho400 O422 2.378 . S
Ho400 O423 2.524 . S
Ho400 O424 2.381 . S
Ho400 O425 2.669 . S
Ho400 O427 2.346 . S
Ho400 O431 2.305 . S
Ho401 C412 2.811 . S
Ho401 O421 2.346 . S
Ho401 O425 2.305 . S
Ho401 O426 2.322 . S
Ho401 O428 2.378 . S
Ho401 O429 2.524 . S
Ho401 O430 2.381 . S
Ho401 O431 2.669 . S
C402 O420 1.259 . S
C402 O421 1.268 . S
C403 Ho400 2.811 . S
C403 C404 1.488 . S
C403 O422 1.215 . S
C403 O423 1.289 . S
C404 C403 1.488 . S
C404 C405 1.348 . S
C404 C409 1.413 . S
C405 C404 1.348 . S
C405 C406 1.442 . S
C405 H432 0.930 . S
C406 C405 1.442 . S
C406 C407 1.381 . S
C406 H433 0.931 . S
C407 C406 1.381 . S
C407 C408 1.321 . S
C408 C407 1.321 . S
C408 C409 1.403 . S
C408 H434 0.934 . S
C409 C404 1.413 . S
C409 C408 1.403 . S
C409 H435 0.930 . S
C410 O424 1.275 . S
C410 O425 1.256 . S
C411 O426 1.259 . S
C411 O427 1.268 . S
C412 Ho401 2.811 . S
C412 C413 1.488 . S
C412 O428 1.215 . S
C412 O429 1.289 . S
C413 C412 1.488 . S
C413 C414 1.348 . S
C413 C418 1.413 . S
C414 C413 1.348 . S
C414 C415 1.442 . S
C414 H436 0.930 . S
C415 C414 1.442 . S
C415 C416 1.381 . S
C415 H437 0.931 1_554 S
C416 C415 1.381 . S
C416 C417 1.321 . S
C417 C416 1.321 . S
C417 C418 1.403 . S
C417 H438 0.934 . S
C418 C413 1.413 . S
C418 C417 1.403 . S
C418 H439 0.930 . S
C419 O430 1.275 . S
C419 O431 1.256 . S
O420 Ho400 2.322 . S
O420 C402 1.259 . S
O421 Ho401 2.346 . S
O421 C402 1.268 . S
O422 Ho400 2.378 . S
O422 C403 1.215 . S
O423 Ho400 2.524 . S
O423 C403 1.289 . S
O424 Ho400 2.381 . S
O424 C410 1.275 . S
O425 Ho400 2.669 . S
O425 Ho401 2.305 . S
O425 C410 1.256 . S
O426 Ho401 2.322 . S
O426 C411 1.259 . S
O427 Ho400 2.346 . S
O427 C411 1.268 . S
O428 Ho401 2.378 . S
O428 C412 1.215 . S
O429 Ho401 2.524 . S
O429 C412 1.289 . S
O430 Ho401 2.381 . S
O430 C419 1.275 . S
O431 Ho400 2.305 . S
O431 Ho401 2.669 . S
O431 C419 1.256 . S
H432 C405 0.930 . S
H433 C406 0.931 . S
H434 C408 0.934 . S
H435 C409 0.930 . S
H436 C414 0.930 . S
H437 C415 0.931 1_556 S
H438 C417 0.934 . S
H439 C418 0.930 . S
Ho440 C443 2.811 1_565 S
Ho440 O460 2.322 . S
Ho440 O462 2.378 . S
Ho440 O463 2.524 1_565 S
Ho440 O464 2.381 . S
Ho440 O465 2.669 . S
Ho440 O467 2.346 . S
Ho440 O471 2.305 . S
Ho441 C452 2.811 . S
Ho441 O461 2.346 . S
Ho441 O465 2.305 . S
Ho441 O466 2.322 . S
Ho441 O468 2.378 . S
Ho441 O469 2.524 . S
Ho441 O470 2.381 . S
Ho441 O471 2.669 . S
C442 O460 1.259 . S
C442 O461 1.268 . S
C443 Ho440 2.811 1_545 S
C443 C444 1.488 . S
C443 O462 1.215 1_545 S
C443 O463 1.289 . S
C444 C443 1.488 . S
C444 C445 1.348 . S
C444 C449 1.413 . S
C445 C444 1.348 . S
C445 C446 1.442 . S
C445 H472 0.930 . S
C446 C445 1.442 . S
C446 C447 1.381 . S
C446 H473 0.931 . S
C447 C446 1.381 . S
C447 C448 1.321 . S
C448 C447 1.321 . S
C448 C449 1.403 . S
C448 H474 0.934 . S
C449 C444 1.413 . S
C449 C448 1.403 . S
C449 H475 0.930 1_545 S
C450 O464 1.275 . S
C450 O465 1.256 . S
C451 O466 1.259 . S
C451 O467 1.268 . S
C452 Ho441 2.811 . S
C452 C453 1.488 . S
C452 O468 1.215 . S
C452 O469 1.289 . S
C453 C452 1.488 . S
C453 C454 1.348 . S
C453 C458 1.413 . S
C454 C453 1.348 . S
C454 C455 1.442 . S
C454 H476 0.930 . S
C455 C454 1.442 . S
C455 C456 1.381 . S
C455 H477 0.931 . S
C456 C455 1.381 . S
C456 C457 1.321 . S
C457 C456 1.321 . S
C457 C458 1.403 . S
C457 H478 0.934 . S
C458 C453 1.413 . S
C458 C457 1.403 . S
C458 H479 0.930 . S
C459 O470 1.275 1_545 S
C459 O471 1.256 1_545 S
O460 Ho440 2.322 . S
O460 C442 1.259 . S
O461 Ho441 2.346 . S
O461 C442 1.268 . S
O462 Ho440 2.378 . S
O462 C443 1.215 1_565 S
O463 Ho440 2.524 1_545 S
O463 C443 1.289 . S
O464 Ho440 2.381 . S
O464 C450 1.275 . S
O465 Ho440 2.669 . S
O465 Ho441 2.305 . S
O465 C450 1.256 . S
O466 Ho441 2.322 . S
O466 C451 1.259 . S
O467 Ho440 2.346 . S
O467 C451 1.268 . S
O468 Ho441 2.378 . S
O468 C452 1.215 . S
O469 Ho441 2.524 . S
O469 C452 1.289 . S
O470 Ho441 2.381 . S
O470 C459 1.275 1_565 S
O471 Ho440 2.305 . S
O471 Ho441 2.669 . S
O471 C459 1.256 1_565 S
H472 C445 0.930 . S
H473 C446 0.931 . S
H474 C448 0.934 . S
H475 C449 0.930 1_565 S
H476 C454 0.930 . S
H477 C455 0.931 . S
H478 C457 0.934 . S
H479 C458 0.930 . S
Ho480 C483 2.811 . S
Ho480 O500 2.322 . S
Ho480 O502 2.378 . S
Ho480 O503 2.524 . S
Ho480 O504 2.381 . S
Ho480 O505 2.669 . S
Ho480 O507 2.346 . S
Ho480 O511 2.305 . S
Ho481 C492 2.811 . S
Ho481 O501 2.346 . S
Ho481 O505 2.305 . S
Ho481 O506 2.322 . S
Ho481 O508 2.378 . S
Ho481 O509 2.524 . S
Ho481 O510 2.381 . S
Ho481 O511 2.669 . S
C482 O500 1.259 . S
C482 O501 1.268 . S
C483 Ho480 2.811 . S
C483 C484 1.488 . S
C483 O502 1.215 . S
C483 O503 1.289 . S
C484 C483 1.488 . S
C484 C485 1.348 . S
C484 C489 1.413 . S
C485 C484 1.348 . S
C485 C486 1.442 . S
C485 H512 0.930 . S
C486 C485 1.442 . S
C486 C487 1.381 . S
C486 H513 0.931 . S
C487 C486 1.381 . S
C487 C488 1.321 . S
C488 C487 1.321 . S
C488 C489 1.403 . S
C488 H514 0.934 . S
C489 C484 1.413 . S
C489 C488 1.403 . S
C489 H515 0.930 . S
C490 O504 1.275 . S
C490 O505 1.256 . S
C491 O506 1.259 . S
C491 O507 1.268 . S
C492 Ho481 2.811 . S
C492 C493 1.488 . S
C492 O508 1.215 . S
C492 O509 1.289 . S
C493 C492 1.488 . S
C493 C494 1.348 . S
C493 C498 1.413 . S
C494 C493 1.348 . S
C494 C495 1.442 . S
C494 H516 0.930 . S
C495 C494 1.442 . S
C495 C496 1.381 . S
C495 H517 0.931 . S
C496 C495 1.381 . S
C496 C497 1.321 . S
C497 C496 1.321 . S
C497 C498 1.403 . S
C497 H518 0.934 . S
C498 C493 1.413 . S
C498 C497 1.403 . S
C498 H519 0.930 . S
C499 O510 1.275 . S
C499 O511 1.256 . S
O500 Ho480 2.322 . S
O500 C482 1.259 . S
O501 Ho481 2.346 . S
O501 C482 1.268 . S
O502 Ho480 2.378 . S
O502 C483 1.215 . S
O503 Ho480 2.524 . S
O503 C483 1.289 . S
O504 Ho480 2.381 . S
O504 C490 1.275 . S
O505 Ho480 2.669 . S
O505 Ho481 2.305 . S
O505 C490 1.256 . S
O506 Ho481 2.322 . S
O506 C491 1.259 . S
O507 Ho480 2.346 . S
O507 C491 1.268 . S
O508 Ho481 2.378 . S
O508 C492 1.215 . S
O509 Ho481 2.524 . S
O509 C492 1.289 . S
O510 Ho481 2.381 . S
O510 C499 1.275 . S
O511 Ho480 2.305 . S
O511 Ho481 2.669 . S
O511 C499 1.256 . S
H512 C485 0.930 . S
H513 C486 0.931 . S
H514 C488 0.934 . S
H515 C489 0.930 . S
H516 C494 0.930 . S
H517 C495 0.931 . S
H518 C497 0.934 . S
H519 C498 0.930 . S
Ho520 C523 2.811 . S
Ho520 O540 2.322 . S
Ho520 O542 2.378 . S
Ho520 O543 2.524 . S
Ho520 O544 2.381 . S
Ho520 O545 2.669 . S
Ho520 O547 2.346 . S
Ho520 O551 2.305 . S
Ho521 C532 2.811 1_665 S
Ho521 O541 2.346 . S
Ho521 O545 2.305 . S
Ho521 O546 2.322 . S
Ho521 O548 2.378 1_655 S
Ho521 O549 2.524 1_565 S
Ho521 O550 2.381 . S
Ho521 O551 2.669 . S
C522 O540 1.259 . S
C522 O541 1.268 . S
C523 Ho520 2.811 . S
C523 C524 1.488 . S
C523 O542 1.215 . S
C523 O543 1.289 . S
C524 C523 1.488 . S
C524 C525 1.348 . S
C524 C529 1.413 . S
C525 C524 1.348 . S
C525 C526 1.442 . S
C525 H552 0.930 . S
C526 C525 1.442 . S
C526 C527 1.381 . S
C526 H553 0.931 . S
C527 C526 1.381 . S
C527 C528 1.321 . S
C528 C527 1.321 . S
C528 C529 1.403 . S
C528 H554 0.934 . S
C529 C524 1.413 . S
C529 C528 1.403 . S
C529 H555 0.930 . S
C530 O544 1.275 1_545 S
C530 O545 1.256 1_545 S
C531 O546 1.259 . S
C531 O547 1.268 . S
C532 Ho521 2.811 1_445 S
C532 C533 1.488 . S
C532 O548 1.215 1_545 S
C532 O549 1.289 1_455 S
C533 C532 1.488 . S
C533 C534 1.348 . S
C533 C538 1.413 . S
C534 C533 1.348 . S
C534 C535 1.442 . S
C534 H556 0.930 1_455 S
C535 C534 1.442 . S
C535 C536 1.381 . S
C535 H557 0.931 . S
C536 C535 1.381 . S
C536 C537 1.321 . S
C537 C536 1.321 . S
C537 C538 1.403 . S
C537 H558 0.934 . S
C538 C533 1.413 . S
C538 C537 1.403 . S
C538 H559 0.930 1_545 S
C539 O550 1.275 . S
C539 O551 1.256 . S
O540 Ho520 2.322 . S
O540 C522 1.259 . S
O541 Ho521 2.346 . S
O541 C522 1.268 . S
O542 Ho520 2.378 . S
O542 C523 1.215 . S
O543 Ho520 2.524 . S
O543 C523 1.289 . S
O544 Ho520 2.381 . S
O544 C530 1.275 1_565 S
O545 Ho520 2.669 . S
O545 Ho521 2.305 . S
O545 C530 1.256 1_565 S
O546 Ho521 2.322 . S
O546 C531 1.259 . S
O547 Ho520 2.346 . S
O547 C531 1.268 . S
O548 Ho521 2.378 1_455 S
O548 C532 1.215 1_565 S
O549 Ho521 2.524 1_545 S
O549 C532 1.289 1_655 S
O550 Ho521 2.381 . S
O550 C539 1.275 . S
O551 Ho520 2.305 . S
O551 Ho521 2.669 . S
O551 C539 1.256 . S
H552 C525 0.930 . S
H553 C526 0.931 . S
H554 C528 0.934 . S
H555 C529 0.930 . S
H556 C534 0.930 1_655 S
H557 C535 0.931 . S
H558 C537 0.934 . S
H559 C538 0.930 1_565 S
Ho560 C563 2.811 . S
Ho560 O580 2.322 . S
Ho560 O582 2.378 . S
Ho560 O583 2.524 . S
Ho560 O584 2.381 . S
Ho560 O585 2.669 . S
Ho560 O587 2.346 . S
Ho560 O591 2.305 . S
Ho561 C572 2.811 . S
Ho561 O581 2.346 . S
Ho561 O585 2.305 . S
Ho561 O586 2.322 . S
Ho561 O588 2.378 . S
Ho561 O589 2.524 . S
Ho561 O590 2.381 . S
Ho561 O591 2.669 . S
C562 O580 1.259 . S
C562 O581 1.268 . S
C563 Ho560 2.811 . S
C563 C564 1.488 . S
C563 O582 1.215 . S
C563 O583 1.289 . S
C564 C563 1.488 . S
C564 C565 1.348 . S
C564 C569 1.413 . S
C565 C564 1.348 . S
C565 C566 1.442 . S
C565 H592 0.930 . S
C566 C565 1.442 . S
C566 C567 1.381 . S
C566 H593 0.931 1_556 S
C567 C566 1.381 . S
C567 C568 1.321 . S
C568 C567 1.321 . S
C568 C569 1.403 . S
C568 H594 0.934 . S
C569 C564 1.413 . S
C569 C568 1.403 . S
C569 H595 0.930 . S
C570 O584 1.275 . S
C570 O585 1.256 . S
C571 O586 1.259 . S
C571 O587 1.268 . S
C572 Ho561 2.811 . S
C572 C573 1.488 . S
C572 O588 1.215 . S
C572 O589 1.289 . S
C573 C572 1.488 . S
C573 C574 1.348 . S
C573 C578 1.413 . S
C574 C573 1.348 . S
C574 C575 1.442 . S
C574 H596 0.930 . S
C575 C574 1.442 . S
C575 C576 1.381 . S
C575 H597 0.931 . S
C576 C575 1.381 . S
C576 C577 1.321 . S
C577 C576 1.321 . S
C577 C578 1.403 . S
C577 H598 0.934 . S
C578 C573 1.413 . S
C578 C577 1.403 . S
C578 H599 0.930 . S
C579 O590 1.275 . S
C579 O591 1.256 . S
O580 Ho560 2.322 . S
O580 C562 1.259 . S
O581 Ho561 2.346 . S
O581 C562 1.268 . S
O582 Ho560 2.378 . S
O582 C563 1.215 . S
O583 Ho560 2.524 . S
O583 C563 1.289 . S
O584 Ho560 2.381 . S
O584 C570 1.275 . S
O585 Ho560 2.669 . S
O585 Ho561 2.305 . S
O585 C570 1.256 . S
O586 Ho561 2.322 . S
O586 C571 1.259 . S
O587 Ho560 2.346 . S
O587 C571 1.268 . S
O588 Ho561 2.378 . S
O588 C572 1.215 . S
O589 Ho561 2.524 . S
O589 C572 1.289 . S
O590 Ho561 2.381 . S
O590 C579 1.275 . S
O591 Ho560 2.305 . S
O591 Ho561 2.669 . S
O591 C579 1.256 . S
H592 C565 0.930 . S
H593 C566 0.931 1_554 S
H594 C568 0.934 . S
H595 C569 0.930 . S
H596 C574 0.930 . S
H597 C575 0.931 . S
H598 C577 0.934 . S
H599 C578 0.930 . S
Ho600 C603 2.811 . S
Ho600 O620 2.322 . S
Ho600 O622 2.378 . S
Ho600 O623 2.524 . S
Ho600 O624 2.381 . S
Ho600 O625 2.669 . S
Ho600 O627 2.346 . S
Ho600 O631 2.305 . S
Ho601 C612 2.811 1_545 S
Ho601 O621 2.346 . S
Ho601 O625 2.305 . S
Ho601 O626 2.322 . S
Ho601 O628 2.378 . S
Ho601 O629 2.524 1_545 S
Ho601 O630 2.381 . S
Ho601 O631 2.669 . S
C602 O620 1.259 . S
C602 O621 1.268 . S
C603 Ho600 2.811 . S
C603 C604 1.488 . S
C603 O622 1.215 . S
C603 O623 1.289 . S
C604 C603 1.488 . S
C604 C605 1.348 . S
C604 C609 1.413 . S
C605 C604 1.348 . S
C605 C606 1.442 . S
C605 H632 0.930 . S
C606 C605 1.442 . S
C606 C607 1.381 . S
C606 H633 0.931 . S
C607 C606 1.381 . S
C607 C608 1.321 . S
C608 C607 1.321 . S
C608 C609 1.403 . S
C608 H634 0.934 . S
C609 C604 1.413 . S
C609 C608 1.403 . S
C609 H635 0.930 . S
C610 O624 1.275 1_565 S
C610 O625 1.256 1_565 S
C611 O626 1.259 . S
C611 O627 1.268 . S
C612 Ho601 2.811 1_565 S
C612 C613 1.488 . S
C612 O628 1.215 1_565 S
C612 O629 1.289 . S
C613 C612 1.488 . S
C613 C614 1.348 . S
C613 C618 1.413 . S
C614 C613 1.348 . S
C614 C615 1.442 . S
C614 H636 0.930 . S
C615 C614 1.442 . S
C615 C616 1.381 . S
C615 H637 0.931 . S
C616 C615 1.381 . S
C616 C617 1.321 . S
C617 C616 1.321 . S
C617 C618 1.403 . S
C617 H638 0.934 . S
C618 C613 1.413 . S
C618 C617 1.403 . S
C618 H639 0.930 1_565 S
C619 O630 1.275 . S
C619 O631 1.256 . S
O620 Ho600 2.322 . S
O620 C602 1.259 . S
O621 Ho601 2.346 . S
O621 C602 1.268 . S
O622 Ho600 2.378 . S
O622 C603 1.215 . S
O623 Ho600 2.524 . S
O623 C603 1.289 . S
O624 Ho600 2.381 . S
O624 C610 1.275 1_545 S
O625 Ho600 2.669 . S
O625 Ho601 2.305 . S
O625 C610 1.256 1_545 S
O626 Ho601 2.322 . S
O626 C611 1.259 . S
O627 Ho600 2.346 . S
O627 C611 1.268 . S
O628 Ho601 2.378 . S
O628 C612 1.215 1_545 S
O629 Ho601 2.524 1_565 S
O629 C612 1.289 . S
O630 Ho601 2.381 . S
O630 C619 1.275 . S
O631 Ho600 2.305 . S
O631 Ho601 2.669 . S
O631 C619 1.256 . S
H632 C605 0.930 . S
H633 C606 0.931 . S
H634 C608 0.934 . S
H635 C609 0.930 . S
H636 C614 0.930 . S
H637 C615 0.931 . S
H638 C617 0.934 . S
H639 C618 0.930 1_545 S
C640 C641 1.363 . S
C640 C646 1.379 . S
C640 N648 1.356 . S
C641 C640 1.363 . S
C641 C647 1.363 . S
C642 C643 1.363 . S
C642 C647 1.379 . S
C642 N649 1.356 . S
C643 C642 1.363 . S
C643 C646 1.363 . S
N644 C646 1.356 . S
N644 H656 0.984 . S
N644 H657 0.985 . S
N645 C647 1.356 . S
N645 H650 0.984 . S
N645 H651 0.985 . S
C646 C640 1.379 . S
C646 C643 1.363 . S
C646 N644 1.356 . S
C647 C641 1.363 . S
C647 C642 1.379 . S
C647 N645 1.356 . S
N648 C640 1.356 . S
N648 H654 0.984 . S
N648 H655 0.984 . S
N649 C642 1.356 . S
N649 H652 0.984 . S
N649 H653 0.985 . S
H650 N645 0.984 . S
H651 N645 0.985 . S
H652 N649 0.984 . S
H653 N649 0.985 . S
H654 N648 0.984 . S
H655 N648 0.984 . S
H656 N644 0.984 . S
H657 N644 0.985 . S
C658 C659 1.363 . S
C658 C664 1.379 . S
C658 N666 1.356 . S
C659 C658 1.363 . S
C659 C665 1.363 . S
C660 C661 1.363 . S
C660 C665 1.379 . S
C660 N667 1.356 . S
C661 C660 1.363 . S
C661 C664 1.363 . S
N662 C664 1.356 . S
N662 H674 0.984 . S
N662 H675 0.985 . S
N663 C665 1.356 . S
N663 H668 0.984 . S
N663 H669 0.985 . S
C664 C658 1.379 . S
C664 C661 1.363 . S
C664 N662 1.356 . S
C665 C659 1.363 . S
C665 C660 1.379 . S
C665 N663 1.356 . S
N666 C658 1.356 . S
N666 H672 0.984 . S
N666 H673 0.984 . S
N667 C660 1.356 . S
N667 H670 0.984 . S
N667 H671 0.985 . S
H668 N663 0.984 . S
H669 N663 0.985 . S
H670 N667 0.984 . S
H671 N667 0.985 . S
H672 N666 0.984 . S
H673 N666 0.984 . S
H674 N662 0.984 . S
H675 N662 0.985 . S
C676 C677 1.363 . S
C676 C682 1.379 1_455 S
C676 N684 1.356 . S
C677 C676 1.363 . S
C677 C683 1.363 . S
C678 C679 1.363 . S
C678 C683 1.379 1_655 S
C678 N685 1.356 . S
C679 C678 1.363 . S
C679 C682 1.363 . S
N680 C682 1.356 . S
N680 H692 0.984 . S
N680 H693 0.985 . S
N681 C683 1.356 . S
N681 H686 0.984 . S
N681 H687 0.985 . S
C682 C676 1.379 1_655 S
C682 C679 1.363 . S
C682 N680 1.356 . S
C683 C677 1.363 . S
C683 C678 1.379 1_455 S
C683 N681 1.356 . S
N684 C676 1.356 . S
N684 H690 0.984 . S
N684 H691 0.984 . S
N685 C678 1.356 . S
N685 H688 0.984 . S
N685 H689 0.985 . S
H686 N681 0.984 . S
H687 N681 0.985 . S
H688 N685 0.984 . S
H689 N685 0.985 . S
H690 N684 0.984 . S
H691 N684 0.984 . S
H692 N680 0.984 . S
H693 N680 0.985 . S
C694 C695 1.363 1_655 S
C694 C700 1.379 . S
C694 N702 1.356 . S
C695 C694 1.363 1_455 S
C695 C701 1.363 . S
C696 C697 1.363 1_455 S
C696 C701 1.379 . S
C696 N703 1.356 . S
C697 C696 1.363 1_655 S
C697 C700 1.363 . S
N698 C700 1.356 . S
N698 H710 0.984 . S
N698 H711 0.985 . S
N699 C701 1.356 . S
N699 H704 0.984 . S
N699 H705 0.985 . S
C700 C694 1.379 . S
C700 C697 1.363 . S
C700 N698 1.356 . S
C701 C695 1.363 . S
C701 C696 1.379 . S
C701 N699 1.356 . S
N702 C694 1.356 . S
N702 H708 0.984 . S
N702 H709 0.984 1_655 S
N703 C696 1.356 . S
N703 H706 0.984 1_455 S
N703 H707 0.985 . S
H704 N699 0.984 . S
H705 N699 0.985 . S
H706 N703 0.984 1_655 S
H707 N703 0.985 . S
H708 N702 0.984 . S
H709 N702 0.984 1_455 S
H710 N698 0.984 . S
H711 N698 0.985 . S
C712 C713 1.363 . S
C712 C718 1.379 . S
C712 N720 1.356 . S
C713 C712 1.363 . S
C713 C719 1.363 . S
C714 C715 1.363 . S
C714 C719 1.379 . S
C714 N721 1.356 . S
C715 C714 1.363 . S
C715 C718 1.363 . S
N716 C718 1.356 . S
N716 H728 0.984 . S
N716 H729 0.985 . S
N717 C719 1.356 . S
N717 H722 0.984 . S
N717 H723 0.985 . S
C718 C712 1.379 . S
C718 C715 1.363 . S
C718 N716 1.356 . S
C719 C713 1.363 . S
C719 C714 1.379 . S
C719 N717 1.356 . S
N720 C712 1.356 . S
N720 H726 0.984 . S
N720 H727 0.984 . S
N721 C714 1.356 . S
N721 H724 0.984 . S
N721 H725 0.985 . S
H722 N717 0.984 . S
H723 N717 0.985 . S
H724 N721 0.984 . S
H725 N721 0.985 . S
H726 N720 0.984 . S
H727 N720 0.984 . S
H728 N716 0.984 . S
H729 N716 0.985 . S
C730 C731 1.363 . S
C730 C736 1.379 . S
C730 N738 1.356 . S
C731 C730 1.363 . S
C731 C737 1.363 . S
C732 C733 1.363 . S
C732 C737 1.379 . S
C732 N739 1.356 . S
C733 C732 1.363 . S
C733 C736 1.363 . S
N734 C736 1.356 . S
N734 H746 0.984 . S
N734 H747 0.985 . S
N735 C737 1.356 . S
N735 H740 0.984 . S
N735 H741 0.985 . S
C736 C730 1.379 . S
C736 C733 1.363 . S
C736 N734 1.356 . S
C737 C731 1.363 . S
C737 C732 1.379 . S
C737 N735 1.356 . S
N738 C730 1.356 . S
N738 H744 0.984 . S
N738 H745 0.984 . S
N739 C732 1.356 . S
N739 H742 0.984 . S
N739 H743 0.985 . S
H740 N735 0.984 . S
H741 N735 0.985 . S
H742 N739 0.984 . S
H743 N739 0.985 . S
H744 N738 0.984 . S
H745 N738 0.984 . S
H746 N734 0.984 . S
H747 N734 0.985 . S
C748 C749 1.363 . S
C748 C754 1.379 1_455 S
C748 N756 1.356 . S
C749 C748 1.363 . S
C749 C755 1.363 . S
C750 C751 1.363 . S
C750 C755 1.379 1_655 S
C750 N757 1.356 . S
C751 C750 1.363 . S
C751 C754 1.363 . S
N752 C754 1.356 . S
N752 H764 0.984 . S
N752 H765 0.985 . S
N753 C755 1.356 . S
N753 H758 0.984 . S
N753 H759 0.985 . S
C754 C748 1.379 1_655 S
C754 C751 1.363 . S
C754 N752 1.356 . S
C755 C749 1.363 . S
C755 C750 1.379 1_455 S
C755 N753 1.356 . S
N756 C748 1.356 . S
N756 H762 0.984 . S
N756 H763 0.984 . S
N757 C750 1.356 . S
N757 H760 0.984 . S
N757 H761 0.985 . S
H758 N753 0.984 . S
H759 N753 0.985 . S
H760 N757 0.984 . S
H761 N757 0.985 . S
H762 N756 0.984 . S
H763 N756 0.984 . S
H764 N752 0.984 . S
H765 N752 0.985 . S
C766 C767 1.363 1_655 S
C766 C772 1.379 . S
C766 N774 1.356 . S
C767 C766 1.363 1_455 S
C767 C773 1.363 . S
C768 C769 1.363 1_455 S
C768 C773 1.379 . S
C768 N775 1.356 . S
C769 C768 1.363 1_655 S
C769 C772 1.363 . S
N770 C772 1.356 . S
N770 H782 0.984 . S
N770 H783 0.985 . S
N771 C773 1.356 . S
N771 H776 0.984 . S
N771 H777 0.985 . S
C772 C766 1.379 . S
C772 C769 1.363 . S
C772 N770 1.356 . S
C773 C767 1.363 . S
C773 C768 1.379 . S
C773 N771 1.356 . S
N774 C766 1.356 . S
N774 H780 0.984 . S
N774 H781 0.984 1_655 S
N775 C768 1.356 . S
N775 H778 0.984 1_455 S
N775 H779 0.985 . S
H776 N771 0.984 . S
H777 N771 0.985 . S
H778 N775 0.984 1_655 S
H779 N775 0.985 . S
H780 N774 0.984 . S
H781 N774 0.984 1_455 S
H782 N770 0.984 . S
H783 N770 0.985 . S
C784 C785 1.363 1_544 S
C784 C790 1.379 . S
C784 N792 1.358 . S
C785 C784 1.363 1_566 S
C785 C791 1.363 . S
C786 C787 1.363 1_566 S
C786 C791 1.379 . S
C786 N793 1.358 . S
C787 C786 1.363 1_544 S
C787 C790 1.363 . S
N788 C790 1.356 . S
N788 H800 0.984 . S
N788 H801 0.985 . S
N789 C791 1.356 . S
N789 H794 0.984 . S
N789 H795 0.985 . S
C790 C784 1.379 . S
C790 C787 1.363 . S
C790 N788 1.356 . S
C791 C785 1.363 . S
C791 C786 1.379 . S
C791 N789 1.356 . S
N792 C784 1.358 . S
N792 H798 0.995 . S
N792 H799 0.973 1_545 S
N793 C786 1.358 . S
N793 H796 0.973 1_565 S
N793 H797 0.995 . S
H794 N789 0.984 . S
H795 N789 0.985 . S
H796 N793 0.973 1_545 S
H797 N793 0.995 . S
H798 N792 0.995 . S
H799 N792 0.973 1_565 S
H800 N788 0.984 . S
H801 N788 0.985 . S
C802 C803 1.363 . S
C802 C808 1.379 . S
C802 N810 1.356 . S
C803 C802 1.363 . S
C803 C809 1.363 . S
C804 C805 1.363 . S
C804 C809 1.379 . S
C804 N811 1.356 . S
C805 C804 1.363 . S
C805 C808 1.363 . S
N806 C808 1.356 . S
N806 H818 0.984 . S
N806 H819 0.985 . S
N807 C809 1.356 . S
N807 H812 0.984 . S
N807 H813 0.985 . S
C808 C802 1.379 . S
C808 C805 1.363 . S
C808 N806 1.356 . S
C809 C803 1.363 . S
C809 C804 1.379 . S
C809 N807 1.356 . S
N810 C802 1.356 . S
N810 H816 0.984 . S
N810 H817 0.984 . S
N811 C804 1.356 . S
N811 H814 0.984 . S
N811 H815 0.985 . S
H812 N807 0.984 . S
H813 N807 0.985 . S
H814 N811 0.984 . S
H815 N811 0.985 . S
H816 N810 0.984 . S
H817 N810 0.984 . S
H818 N806 0.984 . S
H819 N806 0.985 . S
C820 C821 1.363 1_565 S
C820 C826 1.379 1_455 S
C820 N828 1.356 . S
C821 C820 1.363 1_545 S
C821 C827 1.363 . S
C822 C823 1.363 1_545 S
C822 C827 1.379 1_655 S
C822 N829 1.356 . S
C823 C822 1.363 1_565 S
C823 C826 1.363 . S
N824 C826 1.356 . S
N824 H836 0.984 1_655 S
N824 H837 0.985 . S
N825 C827 1.356 . S
N825 H830 0.984 . S
N825 H831 0.985 1_455 S
C826 C820 1.379 1_655 S
C826 C823 1.363 . S
C826 N824 1.356 . S
C827 C821 1.363 . S
C827 C822 1.379 1_455 S
C827 N825 1.356 . S
N828 C820 1.356 . S
N828 H834 0.984 . S
N828 H835 0.984 1_565 S
N829 C822 1.356 . S
N829 H832 0.984 1_545 S
N829 H833 0.985 . S
H830 N825 0.984 . S
H831 N825 0.985 1_655 S
H832 N829 0.984 1_565 S
H833 N829 0.985 . S
H834 N828 0.984 . S
H835 N828 0.984 1_545 S
H836 N824 0.984 1_455 S
H837 N824 0.985 . S
C838 C839 1.363 . S
C838 C844 1.379 . S
C838 N846 1.356 . S
C839 C838 1.363 . S
C839 C845 1.363 . S
C840 C841 1.363 . S
C840 C845 1.379 . S
C840 N847 1.356 . S
C841 C840 1.363 . S
C841 C844 1.363 . S
N842 C844 1.356 . S
N842 H854 0.984 . S
N842 H855 0.985 . S
N843 C845 1.356 . S
N843 H848 0.984 . S
N843 H849 0.985 . S
C844 C838 1.379 . S
C844 C841 1.363 . S
C844 N842 1.356 . S
C845 C839 1.363 . S
C845 C840 1.379 . S
C845 N843 1.356 . S
N846 C838 1.356 . S
N846 H852 0.984 . S
N846 H853 0.984 . S
N847 C840 1.356 . S
N847 H850 0.984 . S
N847 H851 0.985 . S
H848 N843 0.984 . S
H849 N843 0.985 . S
H850 N847 0.984 . S
H851 N847 0.985 . S
H852 N846 0.984 . S
H853 N846 0.984 . S
H854 N842 0.984 . S
H855 N842 0.985 . S
C856 C857 1.363 . S
C856 C862 1.379 . S
C856 N864 1.356 . S
C857 C856 1.363 . S
C857 C863 1.363 . S
C858 C859 1.363 . S
C858 C863 1.379 . S
C858 N865 1.356 . S
C859 C858 1.363 . S
C859 C862 1.363 . S
N860 C862 1.356 . S
N860 H872 0.984 . S
N860 H873 0.985 . S
N861 C863 1.356 . S
N861 H866 0.984 . S
N861 H867 0.985 . S
C862 C856 1.379 . S
C862 C859 1.363 . S
C862 N860 1.356 . S
C863 C857 1.363 . S
C863 C858 1.379 . S
C863 N861 1.356 . S
N864 C856 1.356 . S
N864 H870 0.984 . S
N864 H871 0.984 . S
N865 C858 1.356 . S
N865 H868 0.984 . S
N865 H869 0.985 . S
H866 N861 0.984 . S
H867 N861 0.985 . S
H868 N865 0.984 . S
H869 N865 0.985 . S
H870 N864 0.984 . S
H871 N864 0.984 . S
H872 N860 0.984 . S
H873 N860 0.985 . S
C874 C875 1.363 . S
C874 C880 1.379 . S
C874 N882 1.356 . S
C875 C874 1.363 . S
C875 C881 1.363 . S
C876 C877 1.363 . S
C876 C881 1.379 . S
C876 N883 1.356 . S
C877 C876 1.363 . S
C877 C880 1.363 . S
N878 C880 1.356 . S
N878 H890 0.984 . S
N878 H891 0.985 . S
N879 C881 1.356 . S
N879 H884 0.984 . S
N879 H885 0.985 . S
C880 C874 1.379 . S
C880 C877 1.363 . S
C880 N878 1.356 . S
C881 C875 1.363 . S
C881 C876 1.379 . S
C881 N879 1.356 . S
N882 C874 1.356 . S
N882 H888 0.984 . S
N882 H889 0.984 . S
N883 C876 1.356 . S
N883 H886 0.984 . S
N883 H887 0.985 . S
H884 N879 0.984 . S
H885 N879 0.985 . S
H886 N883 0.984 . S
H887 N883 0.985 . S
H888 N882 0.984 . S
H889 N882 0.984 . S
H890 N878 0.984 . S
H891 N878 0.985 . S
C892 C893 1.363 . S
C892 C898 1.379 1_455 S
C892 N900 1.356 . S
C893 C892 1.363 . S
C893 C899 1.363 . S
C894 C895 1.363 . S
C894 C899 1.379 1_655 S
C894 N901 1.356 . S
C895 C894 1.363 . S
C895 C898 1.363 . S
N896 C898 1.356 . S
N896 H908 0.984 . S
N896 H909 0.985 . S
N897 C899 1.356 . S
N897 H902 0.984 . S
N897 H903 0.985 . S
C898 C892 1.379 1_655 S
C898 C895 1.363 . S
C898 N896 1.356 . S
C899 C893 1.363 . S
C899 C894 1.379 1_455 S
C899 N897 1.356 . S
N900 C892 1.356 . S
N900 H906 0.984 . S
N900 H907 0.984 . S
N901 C894 1.356 . S
N901 H904 0.984 . S
N901 H905 0.985 . S
H902 N897 0.984 . S
H903 N897 0.985 . S
H904 N901 0.984 . S
H905 N901 0.985 . S
H906 N900 0.984 . S
H907 N900 0.984 . S
H908 N896 0.984 . S
H909 N896 0.985 . S
C910 C911 1.363 1_554 S
C910 C916 1.379 . S
C910 N918 1.356 . S
C911 C910 1.363 1_556 S
C911 C917 1.363 . S
C912 C913 1.363 1_556 S
C912 C917 1.379 . S
C912 N919 1.356 . S
C913 C912 1.363 1_554 S
C913 C916 1.363 . S
N914 C916 1.356 . S
N914 H926 0.984 . S
N914 H927 0.985 . S
N915 C917 1.356 . S
N915 H920 0.984 . S
N915 H921 0.985 . S
C916 C910 1.379 . S
C916 C913 1.363 . S
C916 N914 1.356 . S
C917 C911 1.363 . S
C917 C912 1.379 . S
C917 N915 1.356 . S
N918 C910 1.356 . S
N918 H924 0.984 . S
N918 H925 0.984 . S
N919 C912 1.356 . S
N919 H922 0.984 . S
N919 H923 0.985 . S
H920 N915 0.984 . S
H921 N915 0.985 . S
H922 N919 0.984 . S
H923 N919 0.985 . S
H924 N918 0.984 . S
H925 N918 0.984 . S
H926 N914 0.984 . S
H927 N914 0.985 . S
C928 C929 1.363 . S
C928 C934 1.379 . S
C928 N936 1.356 . S
C929 C928 1.363 . S
C929 C935 1.363 . S
C930 C931 1.363 . S
C930 C935 1.379 . S
C930 N937 1.356 . S
C931 C930 1.363 . S
C931 C934 1.363 . S
N932 C934 1.356 . S
N932 H944 0.984 . S
N932 H945 0.985 . S
N933 C935 1.356 . S
N933 H938 0.984 . S
N933 H939 0.985 . S
C934 C928 1.379 . S
C934 C931 1.363 . S
C934 N932 1.356 . S
C935 C929 1.363 . S
C935 C930 1.379 . S
C935 N933 1.356 . S
N936 C928 1.356 . S
N936 H942 0.984 . S
N936 H943 0.984 . S
N937 C930 1.356 . S
N937 H940 0.984 . S
N937 H941 0.985 . S
H938 N933 0.984 . S
H939 N933 0.985 . S
H940 N937 0.984 . S
H941 N937 0.985 . S
H942 N936 0.984 . S
H943 N936 0.984 . S
H944 N932 0.984 . S
H945 N932 0.985 . S
C946 C947 1.363 . S
C946 C952 1.379 . S
C946 N954 1.356 . S
C947 C946 1.363 . S
C947 C953 1.363 . S
C948 C949 1.363 . S
C948 C953 1.379 . S
C948 N955 1.356 . S
C949 C948 1.363 . S
C949 C952 1.363 . S
N950 C952 1.356 . S
N950 H962 0.984 . S
N950 H963 0.985 . S
N951 C953 1.356 . S
N951 H956 0.984 . S
N951 H957 0.985 . S
C952 C946 1.379 . S
C952 C949 1.363 . S
C952 N950 1.356 . S
C953 C947 1.363 . S
C953 C948 1.379 . S
C953 N951 1.356 . S
N954 C946 1.356 . S
N954 H960 0.984 . S
N954 H961 0.984 . S
N955 C948 1.356 . S
N955 H958 0.984 . S
N955 H959 0.985 . S
H956 N951 0.984 . S
H957 N951 0.985 . S
H958 N955 0.984 . S
H959 N955 0.985 . S
H960 N954 0.984 . S
H961 N954 0.984 . S
H962 N950 0.984 . S
H963 N950 0.985 . S
C964 C965 1.363 . S
C964 C970 1.379 . S
C964 N972 1.356 . S
C965 C964 1.363 . S
C965 C971 1.363 . S
C966 C967 1.363 . S
C966 C971 1.379 . S
C966 N973 1.356 . S
C967 C966 1.363 . S
C967 C970 1.363 . S
N968 C970 1.356 . S
N968 H980 0.984 . S
N968 H981 0.985 . S
N969 C971 1.356 . S
N969 H974 0.984 . S
N969 H975 0.985 . S
C970 C964 1.379 . S
C970 C967 1.363 . S
C970 N968 1.356 . S
C971 C965 1.363 . S
C971 C966 1.379 . S
C971 N969 1.356 . S
N972 C964 1.356 . S
N972 H978 0.984 . S
N972 H979 0.984 . S
N973 C966 1.356 . S
N973 H976 0.984 . S
N973 H977 0.985 . S
H974 N969 0.984 . S
H975 N969 0.985 . S
H976 N973 0.984 . S
H977 N973 0.985 . S
H978 N972 0.984 . S
H979 N972 0.984 . S
H980 N968 0.984 . S
H981 N968 0.985 . S
C982 C983 1.363 . S
C982 C988 1.379 . S
C982 N990 1.356 . S
C983 C982 1.363 . S
C983 C989 1.363 . S
C984 C985 1.363 . S
C984 C989 1.379 . S
C984 N991 1.356 . S
C985 C984 1.363 . S
C985 C988 1.363 . S
N986 C988 1.356 . S
N986 H998 0.984 . S
N986 H999 0.985 . S
N987 C989 1.356 . S
N987 H992 0.984 . S
N987 H993 0.985 . S
C988 C982 1.379 . S
C988 C985 1.363 . S
C988 N986 1.356 . S
C989 C983 1.363 . S
C989 C984 1.379 . S
C989 N987 1.356 . S
N990 C982 1.356 . S
N990 H996 0.984 . S
N990 H997 0.984 . S
N991 C984 1.356 . S
N991 H994 0.984 . S
N991 H995 0.985 . S
H992 N987 0.984 . S
H993 N987 0.985 . S
H994 N991 0.984 . S
H995 N991 0.985 . S
H996 N990 0.984 . S
H997 N990 0.984 . S
H998 N986 0.984 . S
H999 N986 0.985 . S
C1000 C1001 1.363 . S
C1000 C1006 1.379 . S
C1000 N1008 1.356 . S
C1001 C1000 1.363 . S
C1001 C1007 1.363 . S
C1002 C1003 1.363 . S
C1002 C1007 1.379 . S
C1002 N1009 1.356 . S
C1003 C1002 1.363 . S
C1003 C1006 1.363 . S
N1004 C1006 1.356 . S
N1004 H1016 0.984 . S
N1004 H1017 0.985 . S
N1005 C1007 1.356 . S
N1005 H1010 0.984 . S
N1005 H1011 0.985 . S
C1006 C1000 1.379 . S
C1006 C1003 1.363 . S
C1006 N1004 1.356 . S
C1007 C1001 1.363 . S
C1007 C1002 1.379 . S
C1007 N1005 1.356 . S
N1008 C1000 1.356 . S
N1008 H1014 0.984 . S
N1008 H1015 0.984 . S
N1009 C1002 1.356 . S
N1009 H1012 0.984 . S
N1009 H1013 0.985 . S
H1010 N1005 0.984 . S
H1011 N1005 0.985 . S
H1012 N1009 0.984 . S
H1013 N1009 0.985 . S
H1014 N1008 0.984 . S
H1015 N1008 0.984 . S
H1016 N1004 0.984 . S
H1017 N1004 0.985 . S
C1018 C1019 1.363 . S
C1018 C1024 1.379 . S
C1018 N1026 1.356 . S
C1019 C1018 1.363 . S
C1019 C1025 1.363 . S
C1020 C1021 1.363 . S
C1020 C1025 1.379 . S
C1020 N1027 1.356 . S
C1021 C1020 1.363 . S
C1021 C1024 1.363 . S
N1022 C1024 1.356 . S
N1022 H1034 0.984 . S
N1022 H1035 0.985 . S
N1023 C1025 1.356 . S
N1023 H1028 0.984 . S
N1023 H1029 0.985 . S
C1024 C1018 1.379 . S
C1024 C1021 1.363 . S
C1024 N1022 1.356 . S
C1025 C1019 1.363 . S
C1025 C1020 1.379 . S
C1025 N1023 1.356 . S
N1026 C1018 1.356 . S
N1026 H1032 0.984 . S
N1026 H1033 0.984 . S
N1027 C1020 1.356 . S
N1027 H1030 0.984 . S
N1027 H1031 0.985 . S
H1028 N1023 0.984 . S
H1029 N1023 0.985 . S
H1030 N1027 0.984 . S
H1031 N1027 0.985 . S
H1032 N1026 0.984 . S
H1033 N1026 0.984 . S
H1034 N1022 0.984 . S
H1035 N1022 0.985 . S
C1036 C1037 1.363 . S
C1036 C1042 1.379 . S
C1036 N1044 1.356 . S
C1037 C1036 1.363 . S
C1037 C1043 1.363 . S
C1038 C1039 1.363 . S
C1038 C1043 1.379 . S
C1038 N1045 1.356 . S
C1039 C1038 1.363 . S
C1039 C1042 1.363 . S
N1040 C1042 1.356 . S
N1040 H1052 0.984 . S
N1040 H1053 0.985 . S
N1041 C1043 1.356 . S
N1041 H1046 0.984 . S
N1041 H1047 0.985 . S
C1042 C1036 1.379 . S
C1042 C1039 1.363 . S
C1042 N1040 1.356 . S
C1043 C1037 1.363 . S
C1043 C1038 1.379 . S
C1043 N1041 1.356 . S
N1044 C1036 1.356 . S
N1044 H1050 0.984 . S
N1044 H1051 0.984 . S
N1045 C1038 1.356 . S
N1045 H1048 0.984 . S
N1045 H1049 0.985 . S
H1046 N1041 0.984 . S
H1047 N1041 0.985 . S
H1048 N1045 0.984 . S
H1049 N1045 0.985 . S
H1050 N1044 0.984 . S
H1051 N1044 0.984 . S
H1052 N1040 0.984 . S
H1053 N1040 0.985 . S
C1054 C1055 1.363 . S
C1054 C1060 1.379 . S
C1054 N1062 1.356 . S
C1055 C1054 1.363 . S
C1055 C1061 1.363 . S
C1056 C1057 1.363 . S
C1056 C1061 1.379 . S
C1056 N1063 1.356 . S
C1057 C1056 1.363 . S
C1057 C1060 1.363 . S
N1058 C1060 1.356 . S
N1058 H1070 0.984 . S
N1058 H1071 0.985 . S
N1059 C1061 1.356 . S
N1059 H1064 0.984 . S
N1059 H1065 0.985 . S
C1060 C1054 1.379 . S
C1060 C1057 1.363 . S
C1060 N1058 1.356 . S
C1061 C1055 1.363 . S
C1061 C1056 1.379 . S
C1061 N1059 1.356 . S
N1062 C1054 1.356 . S
N1062 H1068 0.984 . S
N1062 H1069 0.984 . S
N1063 C1056 1.356 . S
N1063 H1066 0.984 . S
N1063 H1067 0.985 . S
H1064 N1059 0.984 . S
H1065 N1059 0.985 . S
H1066 N1063 0.984 . S
H1067 N1063 0.985 . S
H1068 N1062 0.984 . S
H1069 N1062 0.984 . S
H1070 N1058 0.984 . S
H1071 N1058 0.985 . S
C1072 C1073 1.363 . S
C1072 C1078 1.379 . S
C1072 N1080 1.356 . S
C1073 C1072 1.363 . S
C1073 C1079 1.363 . S
C1074 C1075 1.363 . S
C1074 C1079 1.379 . S
C1074 N1081 1.356 . S
C1075 C1074 1.363 . S
C1075 C1078 1.363 . S
N1076 C1078 1.356 . S
N1076 H1088 0.984 . S
N1076 H1089 0.981 1_565 S
N1077 C1079 1.356 . S
N1077 H1082 0.984 . S
N1077 H1083 0.985 . S
C1078 C1072 1.379 . S
C1078 C1075 1.363 . S
C1078 N1076 1.356 . S
C1079 C1073 1.363 . S
C1079 C1074 1.379 . S
C1079 N1077 1.356 . S
N1080 C1072 1.356 . S
N1080 H1086 0.984 . S
N1080 H1087 0.984 . S
N1081 C1074 1.356 . S
N1081 H1084 0.984 . S
N1081 H1085 0.985 . S
H1082 N1077 0.984 . S
H1083 N1077 0.985 . S
H1084 N1081 0.984 . S
H1085 N1081 0.985 . S
H1086 N1080 0.984 . S
H1087 N1080 0.984 . S
H1088 N1076 0.984 . S
H1089 N1076 0.981 1_545 S
C1090 C1091 1.363 . S
C1090 C1096 1.379 . S
C1090 N1098 1.356 . S
C1091 C1090 1.363 . S
C1091 C1097 1.363 . S
C1092 C1093 1.363 . S
C1092 C1097 1.379 . S
C1092 N1099 1.356 . S
C1093 C1092 1.363 . S
C1093 C1096 1.363 . S
N1094 C1096 1.356 . S
N1094 H1106 0.984 . S
N1094 H1107 0.985 . S
N1095 C1097 1.356 . S
N1095 H1100 0.984 . S
N1095 H1101 0.985 . S
C1096 C1090 1.379 . S
C1096 C1093 1.363 . S
C1096 N1094 1.356 . S
C1097 C1091 1.363 . S
C1097 C1092 1.379 . S
C1097 N1095 1.356 . S
N1098 C1090 1.356 . S
N1098 H1104 0.984 . S
N1098 H1105 0.984 . S
N1099 C1092 1.356 . S
N1099 H1102 0.984 . S
N1099 H1103 0.985 . S
H1100 N1095 0.984 . S
H1101 N1095 0.985 . S
H1102 N1099 0.984 . S
H1103 N1099 0.985 . S
H1104 N1098 0.984 . S
H1105 N1098 0.984 . S
H1106 N1094 0.984 . S
H1107 N1094 0.985 . S
C1108 C1109 1.363 . S
C1108 C1114 1.379 . S
C1108 N1116 1.356 . S
C1109 C1108 1.363 . S
C1109 C1115 1.363 . S
C1110 C1111 1.363 . S
C1110 C1115 1.379 . S
C1110 N1117 1.356 . S
C1111 C1110 1.363 . S
C1111 C1114 1.363 . S
N1112 C1114 1.356 . S
N1112 H1124 0.984 . S
N1112 H1125 0.985 . S
N1113 C1115 1.356 . S
N1113 H1118 0.984 1_545 S
N1113 H1119 0.985 1_545 S
C1114 C1108 1.379 . S
C1114 C1111 1.363 . S
C1114 N1112 1.356 . S
C1115 C1109 1.363 . S
C1115 C1110 1.379 . S
C1115 N1113 1.356 . S
N1116 C1108 1.356 . S
N1116 H1122 0.984 . S
N1116 H1123 0.984 . S
N1117 C1110 1.356 . S
N1117 H1120 0.984 . S
N1117 H1121 0.985 . S
H1118 N1113 0.984 1_565 S
H1119 N1113 0.985 1_565 S
H1120 N1117 0.984 . S
H1121 N1117 0.985 . S
H1122 N1116 0.984 . S
H1123 N1116 0.984 . S
H1124 N1112 0.984 . S
H1125 N1112 0.985 . S
C1126 C1127 1.363 . S
C1126 C1132 1.379 . S
C1126 N1134 1.356 . S
C1127 C1126 1.363 . S
C1127 C1133 1.363 . S
C1128 C1129 1.363 . S
C1128 C1133 1.379 . S
C1128 N1135 1.356 . S
C1129 C1128 1.363 . S
C1129 C1132 1.363 . S
N1130 C1132 1.356 . S
N1130 H1142 0.984 1_545 S
N1130 H1143 0.985 . S
N1131 C1133 1.356 . S
N1131 H1136 0.984 . S
N1131 H1137 0.985 . S
C1132 C1126 1.379 . S
C1132 C1129 1.363 . S
C1132 N1130 1.356 . S
C1133 C1127 1.363 . S
C1133 C1128 1.379 . S
C1133 N1131 1.356 . S
N1134 C1126 1.356 . S
N1134 H1140 0.984 . S
N1134 H1141 0.984 . S
N1135 C1128 1.356 . S
N1135 H1138 0.984 . S
N1135 H1139 0.985 . S
H1136 N1131 0.984 . S
H1137 N1131 0.985 . S
H1138 N1135 0.984 . S
H1139 N1135 0.985 . S
H1140 N1134 0.984 . S
H1141 N1134 0.984 . S
H1142 N1130 0.984 1_565 S
H1143 N1130 0.985 . S
C1144 C1145 1.363 . S
C1144 C1150 1.379 . S
C1144 N1152 1.356 . S
C1145 C1144 1.363 . S
C1145 C1151 1.363 . S
C1146 C1147 1.363 . S
C1146 C1151 1.379 . S
C1146 N1153 1.356 . S
C1147 C1146 1.363 . S
C1147 C1150 1.363 . S
N1148 C1150 1.356 . S
N1148 H1160 0.984 1_545 S
N1148 H1161 0.985 1_545 S
N1149 C1151 1.356 . S
N1149 H1154 0.984 . S
N1149 H1155 0.985 . S
C1150 C1144 1.379 . S
C1150 C1147 1.363 . S
C1150 N1148 1.356 . S
C1151 C1145 1.363 . S
C1151 C1146 1.379 . S
C1151 N1149 1.356 . S
N1152 C1144 1.356 . S
N1152 H1158 0.984 . S
N1152 H1159 0.984 . S
N1153 C1146 1.356 . S
N1153 H1156 0.984 . S
N1153 H1157 0.985 . S
H1154 N1149 0.984 . S
H1155 N1149 0.985 . S
H1156 N1153 0.984 . S
H1157 N1153 0.985 . S
H1158 N1152 0.984 . S
H1159 N1152 0.984 . S
H1160 N1148 0.984 1_565 S
H1161 N1148 0.985 1_565 S
C1162 C1163 1.363 . S
C1162 C1168 1.379 . S
C1162 N1170 1.356 . S
C1163 C1162 1.363 . S
C1163 C1169 1.363 . S
C1164 C1165 1.363 . S
C1164 C1169 1.379 . S
C1164 N1171 1.356 . S
C1165 C1164 1.363 . S
C1165 C1168 1.363 . S
N1166 C1168 1.356 . S
N1166 H1178 0.984 . S
N1166 H1179 0.985 . S
N1167 C1169 1.356 . S
N1167 H1172 0.984 . S
N1167 H1173 0.985 1_545 S
C1168 C1162 1.379 . S
C1168 C1165 1.363 . S
C1168 N1166 1.356 . S
C1169 C1163 1.363 . S
C1169 C1164 1.379 . S
C1169 N1167 1.356 . S
N1170 C1162 1.356 . S
N1170 H1176 0.984 . S
N1170 H1177 0.984 . S
N1171 C1164 1.356 . S
N1171 H1174 0.984 . S
N1171 H1175 0.996 . S
H1172 N1167 0.984 . S
H1173 N1167 0.985 1_565 S
H1174 N1171 0.984 . S
H1175 N1171 0.996 . S
H1176 N1170 0.984 . S
H1177 N1170 0.984 . S
H1178 N1166 0.984 . S
H1179 N1166 0.985 . S
C1180 C1181 1.363 . S
C1180 C1186 1.379 . S
C1180 N1188 1.356 . S
C1181 C1180 1.363 . S
C1181 C1187 1.363 . S
C1182 C1183 1.363 . S
C1182 C1187 1.379 . S
C1182 N1189 1.356 . S
C1183 C1182 1.363 . S
C1183 C1186 1.363 . S
N1184 C1186 1.356 . S
N1184 H1196 0.984 . S
N1184 H1197 0.985 . S
N1185 C1187 1.356 . S
N1185 H1190 0.984 . S
N1185 H1191 0.985 . S
C1186 C1180 1.379 . S
C1186 C1183 1.363 . S
C1186 N1184 1.356 . S
C1187 C1181 1.363 . S
C1187 C1182 1.379 . S
C1187 N1185 1.356 . S
N1188 C1180 1.356 . S
N1188 H1194 0.984 1_565 S
N1188 H1195 0.984 1_565 S
N1189 C1182 1.356 . S
N1189 H1192 0.984 . S
N1189 H1193 0.985 . S
H1190 N1185 0.984 . S
H1191 N1185 0.985 . S
H1192 N1189 0.984 . S
H1193 N1189 0.985 . S
H1194 N1188 0.984 1_545 S
H1195 N1188 0.984 1_545 S
H1196 N1184 0.984 . S
H1197 N1184 0.985 . S
C1198 C1199 1.363 . S
C1198 C1204 1.379 . S
C1198 N1206 1.356 . S
C1199 C1198 1.363 . S
C1199 C1205 1.363 . S
C1200 C1201 1.363 . S
C1200 C1205 1.379 . S
C1200 N1207 1.356 . S
C1201 C1200 1.363 . S
C1201 C1204 1.363 . S
N1202 C1204 1.356 . S
N1202 H1214 0.984 . S
N1202 H1215 0.985 . S
N1203 C1205 1.356 . S
N1203 H1208 0.984 . S
N1203 H1209 0.985 . S
C1204 C1198 1.379 . S
C1204 C1201 1.363 . S
C1204 N1202 1.356 . S
C1205 C1199 1.363 . S
C1205 C1200 1.379 . S
C1205 N1203 1.356 . S
N1206 C1198 1.356 . S
N1206 H1212 0.984 . S
N1206 H1213 0.984 . S
N1207 C1200 1.356 . S
N1207 H1210 0.984 . S
N1207 H1211 0.985 . S
H1208 N1203 0.984 . S
H1209 N1203 0.985 . S
H1210 N1207 0.984 . S
H1211 N1207 0.985 . S
H1212 N1206 0.984 . S
H1213 N1206 0.984 . S
H1214 N1202 0.984 . S
H1215 N1202 0.985 . S
C1216 C1217 1.363 . S
C1216 C1222 1.379 . S
C1216 N1224 1.356 1_556 S
C1217 C1216 1.363 . S
C1217 C1223 1.363 . S
C1218 C1219 1.363 . S
C1218 C1223 1.379 . S
C1218 N1225 1.356 . S
C1219 C1218 1.363 . S
C1219 C1222 1.363 . S
N1220 C1222 1.356 . S
N1220 H1232 0.984 . S
N1220 H1233 0.985 . S
N1221 C1223 1.356 . S
N1221 H1226 0.984 1_556 S
N1221 H1227 0.985 . S
C1222 C1216 1.379 . S
C1222 C1219 1.363 . S
C1222 N1220 1.356 . S
C1223 C1217 1.363 . S
C1223 C1218 1.379 . S
C1223 N1221 1.356 . S
N1224 C1216 1.356 1_554 S
N1224 H1230 0.984 . S
N1224 H1231 0.984 . S
N1225 C1218 1.356 . S
N1225 H1228 0.984 . S
N1225 H1229 0.985 . S
H1226 N1221 0.984 1_554 S
H1227 N1221 0.985 . S
H1228 N1225 0.984 . S
H1229 N1225 0.985 . S
H1230 N1224 0.984 . S
H1231 N1224 0.984 . S
H1232 N1220 0.984 . S
H1233 N1220 0.985 . S
C1234 C1235 1.363 . S
C1234 C1240 1.379 . S
C1234 N1242 1.356 . S
C1235 C1234 1.363 . S
C1235 C1241 1.363 . S
C1236 C1237 1.363 . S
C1236 C1241 1.379 . S
C1236 N1243 1.356 . S
C1237 C1236 1.363 . S
C1237 C1240 1.363 . S
N1238 C1240 1.356 . S
N1238 H1250 0.984 . S
N1238 H1251 0.985 . S
N1239 C1241 1.356 . S
N1239 H1244 0.984 . S
N1239 H1245 0.985 . S
C1240 C1234 1.379 . S
C1240 C1237 1.363 . S
C1240 N1238 1.356 . S
C1241 C1235 1.363 . S
C1241 C1236 1.379 . S
C1241 N1239 1.356 . S
N1242 C1234 1.356 . S
N1242 H1248 0.984 . S
N1242 H1249 0.984 . S
N1243 C1236 1.356 . S
N1243 H1246 0.984 . S
N1243 H1247 0.985 . S
H1244 N1239 0.984 . S
H1245 N1239 0.985 . S
H1246 N1243 0.984 . S
H1247 N1243 0.985 . S
H1248 N1242 0.984 . S
H1249 N1242 0.984 . S
H1250 N1238 0.984 . S
H1251 N1238 0.985 . S
C1252 C1253 1.363 . S
C1252 C1258 1.379 . S
C1252 N1260 1.356 . S
C1253 C1252 1.363 . S
C1253 C1259 1.363 . S
C1254 C1255 1.363 . S
C1254 C1259 1.379 . S
C1254 N1261 1.356 . S
C1255 C1254 1.363 . S
C1255 C1258 1.363 . S
N1256 C1258 1.356 . S
N1256 H1268 0.984 . S
N1256 H1269 0.985 . S
N1257 C1259 1.356 . S
N1257 H1262 0.984 . S
N1257 H1263 0.985 . S
C1258 C1252 1.379 . S
C1258 C1255 1.363 . S
C1258 N1256 1.356 . S
C1259 C1253 1.363 . S
C1259 C1254 1.379 . S
C1259 N1257 1.356 . S
N1260 C1252 1.356 . S
N1260 H1266 0.984 . S
N1260 H1267 0.984 . S
N1261 C1254 1.356 . S
N1261 H1264 0.984 . S
N1261 H1265 0.985 . S
H1262 N1257 0.984 . S
H1263 N1257 0.985 . S
H1264 N1261 0.984 . S
H1265 N1261 0.985 . S
H1266 N1260 0.984 . S
H1267 N1260 0.984 . S
H1268 N1256 0.984 . S
H1269 N1256 0.985 . S
C1270 C1271 1.363 . S
C1270 C1276 1.379 . S
C1270 N1278 1.356 . S
C1271 C1270 1.363 . S
C1271 C1277 1.363 . S
C1272 C1273 1.363 . S
C1272 C1277 1.379 . S
C1272 N1279 1.356 . S
C1273 C1272 1.363 . S
C1273 C1276 1.363 . S
N1274 C1276 1.356 . S
N1274 H1286 0.984 . S
N1274 H1287 0.985 . S
N1275 C1277 1.356 . S
N1275 H1280 0.984 . S
N1275 H1281 0.985 . S
C1276 C1270 1.379 . S
C1276 C1273 1.363 . S
C1276 N1274 1.356 . S
C1277 C1271 1.363 . S
C1277 C1272 1.379 . S
C1277 N1275 1.356 . S
N1278 C1270 1.356 . S
N1278 H1284 0.984 . S
N1278 H1285 0.984 . S
N1279 C1272 1.356 . S
N1279 H1282 0.984 . S
N1279 H1283 0.985 . S
H1280 N1275 0.984 . S
H1281 N1275 0.985 . S
H1282 N1279 0.984 . S
H1283 N1279 0.985 . S
H1284 N1278 0.984 . S
H1285 N1278 0.984 . S
H1286 N1274 0.984 . S
H1287 N1274 0.985 . S
C1288 C1289 1.363 . S
C1288 C1294 1.379 . S
C1288 N1296 1.356 . S
C1289 C1288 1.363 . S
C1289 C1295 1.363 . S
C1290 C1291 1.363 . S
C1290 C1295 1.379 . S
C1290 N1297 1.356 1_554 S
C1291 C1290 1.363 . S
C1291 C1294 1.363 . S
N1292 C1294 1.356 . S
N1292 H1304 0.984 . S
N1292 H1305 0.965 1_554 S
N1293 C1295 1.356 . S
N1293 H1298 0.984 . S
N1293 H1299 0.985 . S
C1294 C1288 1.379 . S
C1294 C1291 1.363 . S
C1294 N1292 1.356 . S
C1295 C1289 1.363 . S
C1295 C1290 1.379 . S
C1295 N1293 1.356 . S
N1296 C1288 1.356 . S
N1296 H1302 0.984 . S
N1296 H1303 0.984 . S
N1297 C1290 1.356 1_556 S
N1297 H1300 0.984 . S
N1297 H1301 0.985 . S
H1298 N1293 0.984 . S
H1299 N1293 0.985 . S
H1300 N1297 0.984 . S
H1301 N1297 0.985 . S
H1302 N1296 0.984 . S
H1303 N1296 0.984 . S
H1304 N1292 0.984 . S
H1305 N1292 0.965 1_556 S
C1306 C1307 1.363 . S
C1306 C1312 1.379 . S
C1306 N1314 1.356 . S
C1307 C1306 1.363 . S
C1307 C1313 1.363 . S
C1308 C1309 1.363 . S
C1308 C1313 1.379 . S
C1308 N1315 1.356 . S
C1309 C1308 1.363 . S
C1309 C1312 1.363 . S
N1310 C1312 1.356 . S
N1310 H1322 0.984 . S
N1310 H1323 0.985 . S
N1311 C1313 1.356 . S
N1311 H1316 0.984 . S
N1311 H1317 0.985 . S
C1312 C1306 1.379 . S
C1312 C1309 1.363 . S
C1312 N1310 1.356 . S
C1313 C1307 1.363 . S
C1313 C1308 1.379 . S
C1313 N1311 1.356 . S
N1314 C1306 1.356 . S
N1314 H1320 0.984 . S
N1314 H1321 0.984 . S
N1315 C1308 1.356 . S
N1315 H1318 0.984 . S
N1315 H1319 0.985 . S
H1316 N1311 0.984 . S
H1317 N1311 0.985 . S
H1318 N1315 0.984 . S
H1319 N1315 0.985 . S
H1320 N1314 0.984 . S
H1321 N1314 0.984 . S
H1322 N1310 0.984 . S
H1323 N1310 0.985 . S
C1324 C1325 1.363 . S
C1324 C1330 1.379 . S
C1324 N1332 1.356 . S
C1325 C1324 1.363 . S
C1325 C1331 1.363 . S
C1326 C1327 1.363 . S
C1326 C1331 1.379 . S
C1326 N1333 1.356 . S
C1327 C1326 1.363 . S
C1327 C1330 1.363 . S
N1328 C1330 1.356 . S
N1328 H1340 0.984 . S
N1328 H1341 0.985 . S
N1329 C1331 1.356 . S
N1329 H1334 0.984 . S
N1329 H1335 0.985 . S
C1330 C1324 1.379 . S
C1330 C1327 1.363 . S
C1330 N1328 1.356 . S
C1331 C1325 1.363 . S
C1331 C1326 1.379 . S
C1331 N1329 1.356 . S
N1332 C1324 1.356 . S
N1332 H1338 0.984 . S
N1332 H1339 0.984 . S
N1333 C1326 1.356 . S
N1333 H1336 0.984 . S
N1333 H1337 0.985 . S
H1334 N1329 0.984 . S
H1335 N1329 0.985 . S
H1336 N1333 0.984 . S
H1337 N1333 0.985 . S
H1338 N1332 0.984 . S
H1339 N1332 0.984 . S
H1340 N1328 0.984 . S
H1341 N1328 0.985 . S
C1342 C1343 1.363 . S
C1342 C1348 1.379 . S
C1342 N1350 1.356 . S
C1343 C1342 1.363 . S
C1343 C1349 1.363 . S
C1344 C1345 1.363 . S
C1344 C1349 1.379 . S
C1344 N1351 1.356 . S
C1345 C1344 1.363 . S
C1345 C1348 1.363 . S
N1346 C1348 1.356 . S
N1346 H1358 0.984 . S
N1346 H1359 0.985 . S
N1347 C1349 1.356 . S
N1347 H1352 0.984 . S
N1347 H1353 0.985 . S
C1348 C1342 1.379 . S
C1348 C1345 1.363 . S
C1348 N1346 1.356 . S
C1349 C1343 1.363 . S
C1349 C1344 1.379 . S
C1349 N1347 1.356 . S
N1350 C1342 1.356 . S
N1350 H1356 0.984 . S
N1350 H1357 0.984 . S
N1351 C1344 1.356 . S
N1351 H1354 0.984 . S
N1351 H1355 0.985 . S
H1352 N1347 0.984 . S
H1353 N1347 0.985 . S
H1354 N1351 0.984 . S
H1355 N1351 0.985 . S
H1356 N1350 0.984 . S
H1357 N1350 0.984 . S
H1358 N1346 0.984 . S
H1359 N1346 0.985 . S
C1360 C1361 1.363 . S
C1360 C1366 1.379 . S
C1360 N1368 1.356 . S
C1361 C1360 1.363 . S
C1361 C1367 1.363 . S
C1362 C1363 1.363 . S
C1362 C1367 1.379 . S
C1362 N1369 1.356 . S
C1363 C1362 1.363 . S
C1363 C1366 1.363 . S
N1364 C1366 1.356 . S
N1364 H1376 0.984 . S
N1364 H1377 0.985 . S
N1365 C1367 1.356 . S
N1365 H1370 0.984 . S
N1365 H1371 0.985 . S
C1366 C1360 1.379 . S
C1366 C1363 1.363 . S
C1366 N1364 1.356 . S
C1367 C1361 1.363 . S
C1367 C1362 1.379 . S
C1367 N1365 1.356 . S
N1368 C1360 1.356 . S
N1368 H1374 0.984 . S
N1368 H1375 0.984 . S
N1369 C1362 1.356 . S
N1369 H1372 0.984 . S
N1369 H1373 0.985 . S
H1370 N1365 0.984 . S
H1371 N1365 0.985 . S
H1372 N1369 0.984 . S
H1373 N1369 0.985 . S
H1374 N1368 0.984 . S
H1375 N1368 0.984 . S
H1376 N1364 0.984 . S
H1377 N1364 0.985 . S
C1378 C1379 1.363 . S
C1378 C1384 1.379 . S
C1378 N1386 1.356 . S
C1379 C1378 1.363 . S
C1379 C1385 1.363 . S
C1380 C1381 1.363 . S
C1380 C1385 1.379 . S
C1380 N1387 1.356 1_565 S
C1381 C1380 1.363 . S
C1381 C1384 1.363 . S
N1382 C1384 1.356 . S
N1382 H1394 0.984 . S
N1382 H1395 0.985 . S
N1383 C1385 1.356 . S
N1383 H1388 0.984 . S
N1383 H1389 0.985 . S
C1384 C1378 1.379 . S
C1384 C1381 1.363 . S
C1384 N1382 1.356 . S
C1385 C1379 1.363 . S
C1385 C1380 1.379 . S
C1385 N1383 1.356 . S
N1386 C1378 1.356 . S
N1386 H1392 0.984 . S
N1386 H1393 0.984 . S
N1387 C1380 1.356 1_545 S
N1387 H1390 0.984 . S
N1387 H1391 0.985 . S
H1388 N1383 0.984 . S
H1389 N1383 0.985 . S
H1390 N1387 0.984 . S
H1391 N1387 0.985 . S
H1392 N1386 0.984 . S
H1393 N1386 0.984 . S
H1394 N1382 0.984 . S
H1395 N1382 0.985 . S
C1396 C1397 1.363 . S
C1396 C1402 1.379 . S
C1396 N1404 1.356 . S
C1397 C1396 1.363 . S
C1397 C1403 1.363 . S
C1398 C1399 1.363 . S
C1398 C1403 1.379 . S
C1398 N1405 1.356 1_556 S
C1399 C1398 1.363 . S
C1399 C1402 1.363 . S
N1400 C1402 1.356 . S
N1400 H1412 0.984 . S
N1400 H1413 0.985 . S
N1401 C1403 1.356 . S
N1401 H1406 0.984 . S
N1401 H1407 0.985 . S
C1402 C1396 1.379 . S
C1402 C1399 1.363 . S
C1402 N1400 1.356 . S
C1403 C1397 1.363 . S
C1403 C1398 1.379 . S
C1403 N1401 1.356 . S
N1404 C1396 1.356 . S
N1404 H1410 0.984 . S
N1404 H1411 0.984 . S
N1405 C1398 1.356 1_554 S
N1405 H1408 0.984 . S
N1405 H1409 0.985 . S
H1406 N1401 0.984 . S
H1407 N1401 0.985 . S
H1408 N1405 0.984 . S
H1409 N1405 0.985 . S
H1410 N1404 0.984 . S
H1411 N1404 0.984 . S
H1412 N1400 0.984 . S
H1413 N1400 0.985 . S
C1414 C1415 1.363 . S
C1414 C1420 1.379 . S
C1414 N1422 1.356 . S
C1415 C1414 1.363 . S
C1415 C1421 1.363 . S
C1416 C1417 1.363 . S
C1416 C1421 1.379 . S
C1416 N1423 1.356 . S
C1417 C1416 1.363 . S
C1417 C1420 1.363 . S
N1418 C1420 1.356 . S
N1418 H1430 0.984 . S
N1418 H1431 0.985 . S
N1419 C1421 1.346 1_565 S
N1419 H1424 0.992 . S
N1419 H1425 0.987 . S
C1420 C1414 1.379 . S
C1420 C1417 1.363 . S
C1420 N1418 1.356 . S
C1421 C1415 1.363 . S
C1421 C1416 1.379 . S
C1421 N1419 1.346 1_545 S
N1422 C1414 1.356 . S
N1422 H1428 0.984 . S
N1422 H1429 0.984 . S
N1423 C1416 1.356 . S
N1423 H1426 0.984 . S
N1423 H1427 0.985 . S
H1424 N1419 0.992 . S
H1425 N1419 0.987 . S
H1426 N1423 0.984 . S
H1427 N1423 0.985 . S
H1428 N1422 0.984 . S
H1429 N1422 0.984 . S
H1430 N1418 0.984 . S
H1431 N1418 0.985 . S
C1432 C1433 1.363 . S
C1432 C1438 1.379 . S
C1432 N1440 1.356 . S
C1433 C1432 1.363 . S
C1433 C1439 1.363 . S
C1434 C1435 1.363 . S
C1434 C1439 1.379 . S
C1434 N1441 1.356 . S
C1435 C1434 1.363 . S
C1435 C1438 1.363 . S
N1436 C1438 1.356 . S
N1436 H1448 0.984 . S
N1436 H1449 0.985 . S
N1437 C1439 1.356 . S
N1437 H1442 0.984 . S
N1437 H1443 0.985 . S
C1438 C1432 1.379 . S
C1438 C1435 1.363 . S
C1438 N1436 1.356 . S
C1439 C1433 1.363 . S
C1439 C1434 1.379 . S
C1439 N1437 1.356 . S
N1440 C1432 1.356 . S
N1440 H1446 0.984 . S
N1440 H1447 0.984 . S
N1441 C1434 1.356 . S
N1441 H1444 0.984 . S
N1441 H1445 0.985 . S
H1442 N1437 0.984 . S
H1443 N1437 0.985 . S
H1444 N1441 0.984 . S
H1445 N1441 0.985 . S
H1446 N1440 0.984 . S
H1447 N1440 0.984 . S
H1448 N1436 0.984 . S
H1449 N1436 0.985 . S
C1450 C1451 1.363 . S
C1450 C1456 1.379 . S
C1450 N1458 1.356 . S
C1451 C1450 1.363 . S
C1451 C1457 1.363 . S
C1452 C1453 1.363 . S
C1452 C1457 1.379 . S
C1452 N1459 1.356 . S
C1453 C1452 1.363 . S
C1453 C1456 1.363 . S
N1454 C1456 1.356 1_565 S
N1454 H1466 0.984 . S
N1454 H1467 0.985 . S
N1455 C1457 1.356 . S
N1455 H1460 0.984 . S
N1455 H1461 0.985 . S
C1456 C1450 1.379 . S
C1456 C1453 1.363 . S
C1456 N1454 1.356 1_545 S
C1457 C1451 1.363 . S
C1457 C1452 1.379 . S
C1457 N1455 1.356 . S
N1458 C1450 1.356 . S
N1458 H1464 0.984 . S
N1458 H1465 0.984 . S
N1459 C1452 1.356 . S
N1459 H1462 0.984 . S
N1459 H1463 0.985 . S
H1460 N1455 0.984 . S
H1461 N1455 0.985 . S
H1462 N1459 0.984 . S
H1463 N1459 0.985 . S
H1464 N1458 0.984 . S
H1465 N1458 0.984 . S
H1466 N1454 0.984 . S
H1467 N1454 0.985 . S
C1468 C1469 1.363 . S
C1468 C1474 1.379 . S
C1468 N1476 1.356 . S
C1469 C1468 1.363 . S
C1469 C1475 1.363 . S
C1470 C1471 1.363 . S
C1470 C1475 1.379 . S
C1470 N1477 1.356 1_554 S
C1471 C1470 1.363 . S
C1471 C1474 1.363 . S
N1472 C1474 1.356 . S
N1472 H1484 0.984 . S
N1472 H1485 0.985 1_554 S
N1473 C1475 1.356 . S
N1473 H1478 0.984 . S
N1473 H1479 0.985 . S
C1474 C1468 1.379 . S
C1474 C1471 1.363 . S
C1474 N1472 1.356 . S
C1475 C1469 1.363 . S
C1475 C1470 1.379 . S
C1475 N1473 1.356 . S
N1476 C1468 1.356 . S
N1476 H1482 0.984 . S
N1476 H1483 0.984 . S
N1477 C1470 1.356 1_556 S
N1477 H1480 0.984 . S
N1477 H1481 0.985 . S
H1478 N1473 0.984 . S
H1479 N1473 0.985 . S
H1480 N1477 0.984 . S
H1481 N1477 0.985 . S
H1482 N1476 0.984 . S
H1483 N1476 0.984 . S
H1484 N1472 0.984 . S
H1485 N1472 0.985 1_556 S
C1486 C1487 1.363 . S
C1486 C1492 1.379 . S
C1486 N1494 1.356 . S
C1487 C1486 1.363 . S
C1487 C1493 1.363 . S
C1488 C1489 1.363 . S
C1488 C1493 1.379 . S
C1488 N1495 1.356 . S
C1489 C1488 1.363 . S
C1489 C1492 1.363 . S
N1490 C1492 1.356 . S
N1490 H1502 0.984 . S
N1490 H1503 0.985 . S
N1491 C1493 1.356 . S
N1491 H1496 0.984 . S
N1491 H1497 0.985 . S
C1492 C1486 1.379 . S
C1492 C1489 1.363 . S
C1492 N1490 1.356 . S
C1493 C1487 1.363 . S
C1493 C1488 1.379 . S
C1493 N1491 1.356 . S
N1494 C1486 1.356 . S
N1494 H1500 0.984 . S
N1494 H1501 0.984 . S
N1495 C1488 1.356 . S
N1495 H1498 0.984 1_565 S
N1495 H1499 0.985 1_565 S
H1496 N1491 0.984 . S
H1497 N1491 0.985 . S
H1498 N1495 0.984 1_545 S
H1499 N1495 0.985 1_545 S
H1500 N1494 0.984 . S
H1501 N1494 0.984 . S
H1502 N1490 0.984 . S
H1503 N1490 0.985 . S
C641 C10 3.030 . S
C643 C410 3.030 . S
C659 C50 3.029 . S
C661 C450 3.029 . S
C677 C90 3.030 . S
C679 C330 3.030 . S
C695 C370 3.030 . S
C697 C130 3.030 . S
C713 C179 3.030 . S
C715 C579 3.030 . S
C731 C619 3.029 . S
C733 C219 3.029 . S
C749 C499 3.030 . S
C751 C259 3.030 . S
C767 C299 3.030 . S
C769 C539 3.030 . S
C785 C16 1.446 1_556 S
C787 C167 1.446 1_554 S
C803 C56 1.446 . S
C805 C527 1.446 . S
C821 C96 1.446 . S
C823 C247 1.446 . S
C839 C136 1.446 . S
C841 C607 1.446 . S
C857 C207 1.446 . S
C859 C376 1.446 . S
C875 C456 1.446 . S
C877 C287 1.446 . S
C893 C487 1.446 . S
C895 C336 1.446 . S
C911 C416 1.446 1_556 S
C913 C567 1.446 1_554 S
C929 C7 1.599 . S
C931 C290 1.882 . S
C947 C47 1.599 . S
C949 C490 1.882 . S
C965 C87 1.599 . S
C967 C210 1.882 . S
C983 C127 1.599 . S
C985 C570 1.882 . S
C1001 C139 1.882 . S
C1003 C176 1.599 . S
C1019 C216 1.599 . S
C1021 C339 1.882 . S
C1037 C256 1.599 . S
C1039 C59 1.882 . S
C1055 C419 1.882 . S
C1057 C296 1.599 . S
C1073 C327 1.599 . S
C1075 C610 1.882 . S
C1091 C170 1.882 . S
C1093 C367 1.599 . S
C1109 C530 1.882 . S
C1111 C407 1.599 . S
C1127 C250 1.882 . S
C1129 C447 1.599 . S
C1145 C496 1.599 . S
C1147 C459 1.882 . S
C1163 C536 1.599 . S
C1165 C19 1.882 . S
C1181 C379 1.882 . S
C1183 C576 1.599 . S
C1199 C616 1.599 . S
C1201 C99 1.882 . S
C1217 C11 4.054 1_556 S
C1219 C362 4.092 . S
C1235 C402 4.092 . S
C1237 C51 4.054 . S
C1253 C91 4.054 . S
C1255 C442 4.092 . S
C1271 C322 4.093 . S
C1273 C131 4.054 . S
C1289 C531 4.092 . S
C1291 C162 4.054 1_554 S
C1307 C571 4.092 . S
C1309 C202 4.054 . S
C1325 C611 4.092 . S
C1327 C242 4.054 . S
C1343 C491 4.093 . S
C1345 C282 4.054 . S
C1361 C42 4.093 . S
C1363 C331 4.054 . S
C1379 C82 4.092 . S
C1381 C371 4.054 1_565 S
C1397 C122 4.093 . S
C1399 C411 4.054 1_556 S
C1415 C451 4.054 1_545 S
C1417 C2 4.092 . S
C1433 C211 4.093 . S
C1435 C482 4.054 . S
C1451 C251 4.092 . S
C1453 C522 4.054 1_545 S
C1469 C291 4.093 . S
C1471 C562 4.054 1_554 S
C1487 C171 4.092 . S
C1489 C602 4.054 1_565 S
