# Generated by pormake.
# Topology whz, (6)-cn, num edge types: 1
# Building blocks:
#     Node 0, Type 0, BuildingBlock: JUFBIX_clean_sbu_0, # of connection points: 6
#     Node 1, Type 0, BuildingBlock: JUFBIX_clean_sbu_0, # of connection points: 6
#     Node 2, Type 0, BuildingBlock: JUFBIX_clean_sbu_0, # of connection points: 6
#     Node 3, Type 0, BuildingBlock: JUFBIX_clean_sbu_0, # of connection points: 6
#     Node 4, Type 0, BuildingBlock: JUFBIX_clean_sbu_0, # of connection points: 6
#     Node 5, Type 0, BuildingBlock: JUFBIX_clean_sbu_0, # of connection points: 6
#     Node 6, Type 0, BuildingBlock: JUFBIX_clean_sbu_0, # of connection points: 6
#     Node 7, Type 0, BuildingBlock: JUFBIX_clean_sbu_0, # of connection points: 6
#     Node 8, Type 0, BuildingBlock: JUFBIX_clean_sbu_0, # of connection points: 6
#     Node 9, Type 0, BuildingBlock: JUFBIX_clean_sbu_0, # of connection points: 6
#     Node 10, Type 0, BuildingBlock: JUFBIX_clean_sbu_0, # of connection points: 6
#     Node 11, Type 0, BuildingBlock: JUFBIX_clean_sbu_0, # of connection points: 6
#     Node 12, Type 0, BuildingBlock: JUFBIX_clean_sbu_0, # of connection points: 6
#     Node 13, Type 0, BuildingBlock: JUFBIX_clean_sbu_0, # of connection points: 6
#     Node 14, Type 0, BuildingBlock: JUFBIX_clean_sbu_0, # of connection points: 6
#     Node 15, Type 0, BuildingBlock: JUFBIX_clean_sbu_0, # of connection points: 6
#     Edge 16, Type (0, 0), BuildingBlock: ZUJKAS_clean_linker_0, # of connection points: 2
#     Edge 17, Type (0, 0), BuildingBlock: ZUJKAS_clean_linker_0, # of connection points: 2
#     Edge 18, Type (0, 0), BuildingBlock: ZUJKAS_clean_linker_0, # of connection points: 2
#     Edge 19, Type (0, 0), BuildingBlock: ZUJKAS_clean_linker_0, # of connection points: 2
#     Edge 20, Type (0, 0), BuildingBlock: ZUJKAS_clean_linker_0, # of connection points: 2
#     Edge 21, Type (0, 0), BuildingBlock: ZUJKAS_clean_linker_0, # of connection points: 2
#     Edge 22, Type (0, 0), BuildingBlock: ZUJKAS_clean_linker_0, # of connection points: 2
#     Edge 23, Type (0, 0), BuildingBlock: ZUJKAS_clean_linker_0, # of connection points: 2
#     Edge 24, Type (0, 0), BuildingBlock: ZUJKAS_clean_linker_0, # of connection points: 2
#     Edge 25, Type (0, 0), BuildingBlock: ZUJKAS_clean_linker_0, # of connection points: 2
#     Edge 26, Type (0, 0), BuildingBlock: ZUJKAS_clean_linker_0, # of connection points: 2
#     Edge 27, Type (0, 0), BuildingBlock: ZUJKAS_clean_linker_0, # of connection points: 2
#     Edge 28, Type (0, 0), BuildingBlock: ZUJKAS_clean_linker_0, # of connection points: 2
#     Edge 29, Type (0, 0), BuildingBlock: ZUJKAS_clean_linker_0, # of connection points: 2
#     Edge 30, Type (0, 0), BuildingBlock: ZUJKAS_clean_linker_0, # of connection points: 2
#     Edge 31, Type (0, 0), BuildingBlock: ZUJKAS_clean_linker_0, # of connection points: 2
#     Edge 32, Type (0, 0), BuildingBlock: ZUJKAS_clean_linker_0, # of connection points: 2
#     Edge 33, Type (0, 0), BuildingBlock: ZUJKAS_clean_linker_0, # of connection points: 2
#     Edge 34, Type (0, 0), BuildingBlock: ZUJKAS_clean_linker_0, # of connection points: 2
#     Edge 35, Type (0, 0), BuildingBlock: ZUJKAS_clean_linker_0, # of connection points: 2
#     Edge 36, Type (0, 0), BuildingBlock: ZUJKAS_clean_linker_0, # of connection points: 2
#     Edge 37, Type (0, 0), BuildingBlock: ZUJKAS_clean_linker_0, # of connection points: 2
#     Edge 38, Type (0, 0), BuildingBlock: ZUJKAS_clean_linker_0, # of connection points: 2
#     Edge 39, Type (0, 0), BuildingBlock: ZUJKAS_clean_linker_0, # of connection points: 2
#     Edge 40, Type (0, 0), BuildingBlock: ZUJKAS_clean_linker_0, # of connection points: 2
#     Edge 41, Type (0, 0), BuildingBlock: ZUJKAS_clean_linker_0, # of connection points: 2
#     Edge 42, Type (0, 0), BuildingBlock: ZUJKAS_clean_linker_0, # of connection points: 2
#     Edge 43, Type (0, 0), BuildingBlock: ZUJKAS_clean_linker_0, # of connection points: 2
#     Edge 44, Type (0, 0), BuildingBlock: ZUJKAS_clean_linker_0, # of connection points: 2
#     Edge 45, Type (0, 0), BuildingBlock: ZUJKAS_clean_linker_0, # of connection points: 2
#     Edge 46, Type (0, 0), BuildingBlock: ZUJKAS_clean_linker_0, # of connection points: 2
#     Edge 47, Type (0, 0), BuildingBlock: ZUJKAS_clean_linker_0, # of connection points: 2
#     Edge 48, Type (0, 0), BuildingBlock: ZUJKAS_clean_linker_0, # of connection points: 2
#     Edge 49, Type (0, 0), BuildingBlock: ZUJKAS_clean_linker_0, # of connection points: 2
#     Edge 50, Type (0, 0), BuildingBlock: ZUJKAS_clean_linker_0, # of connection points: 2
#     Edge 51, Type (0, 0), BuildingBlock: ZUJKAS_clean_linker_0, # of connection points: 2
#     Edge 52, Type (0, 0), BuildingBlock: ZUJKAS_clean_linker_0, # of connection points: 2
#     Edge 53, Type (0, 0), BuildingBlock: ZUJKAS_clean_linker_0, # of connection points: 2
#     Edge 54, Type (0, 0), BuildingBlock: ZUJKAS_clean_linker_0, # of connection points: 2
#     Edge 55, Type (0, 0), BuildingBlock: ZUJKAS_clean_linker_0, # of connection points: 2
#     Edge 56, Type (0, 0), BuildingBlock: ZUJKAS_clean_linker_0, # of connection points: 2
#     Edge 57, Type (0, 0), BuildingBlock: ZUJKAS_clean_linker_0, # of connection points: 2
#     Edge 58, Type (0, 0), BuildingBlock: ZUJKAS_clean_linker_0, # of connection points: 2
#     Edge 59, Type (0, 0), BuildingBlock: ZUJKAS_clean_linker_0, # of connection points: 2
#     Edge 60, Type (0, 0), BuildingBlock: ZUJKAS_clean_linker_0, # of connection points: 2
#     Edge 61, Type (0, 0), BuildingBlock: ZUJKAS_clean_linker_0, # of connection points: 2
#     Edge 62, Type (0, 0), BuildingBlock: ZUJKAS_clean_linker_0, # of connection points: 2
#     Edge 63, Type (0, 0), BuildingBlock: ZUJKAS_clean_linker_0, # of connection points: 2
# Relax obj value: 0.420
# Max RMSD: 0.257
# Mean RMSD: 0.257
data_MOF--net-whz--node1-JUFBIX_clean_sbu_0--edge1-ZUJKAS_clean_linker_0
_symmetry_space_group_name_H-M    P1
_symmetry_Int_Tables_number       1
_symmetry_cell_setting            triclinic
loop_
_symmetry_equiv_pos_as_xyz
'x, y, z'
_cell_length_a     50.632087
_cell_length_b     50.655595
_cell_length_c     60.015316
_cell_angle_alpha  90.012135
_cell_angle_beta   90.053711
_cell_angle_gamma 90.014585
loop_
_atom_site_label
_atom_site_type_symbol
_atom_site_fract_x
_atom_site_fract_y
_atom_site_fract_z
_atom_type_partial_charge
Co0 Co 0.27143 0.14104 0.1334 0.0
C1 C 0.31654 0.11041 0.14006 0.0
Co2 Co 0.30852 0.15999 0.12218 0.0
C3 C 0.21652 0.12389 0.13732 0.0
C4 C 0.24098 0.11176 0.16458 0.0
N5 N 0.24159 0.12494 0.14507 0.0
N6 N 0.20033 0.11067 0.15138 0.0
C7 C 0.21579 0.10299 0.16847 0.0
H8 H 0.21026 0.13297 0.12188 0.0
H9 H 0.25786 0.10875 0.17535 0.0
C10 C 0.26328 0.1911 0.11723 0.0
N11 N 0.33872 0.17637 0.11078 0.0
C12 C 0.36217 0.18235 0.12049 0.0
C13 C 0.34062 0.18616 0.08996 0.0
N14 N 0.37859 0.19534 0.10641 0.0
C15 C 0.36493 0.19769 0.08722 0.0
C16 C 0.28074 0.13069 0.08949 0.0
O17 O 0.25158 0.17147 0.12597 0.0
O18 O 0.28794 0.1897 0.11336 0.0
O19 O 0.30193 0.14347 0.09353 0.0
O20 O 0.2644 0.12683 0.10518 0.0
O21 O 0.3289 0.13015 0.13202 0.0
H22 H 0.32505 0.18546 0.07763 0.0
H23 H 0.36703 0.17732 0.13753 0.0
O24 O 0.2915 0.11096 0.14094 0.0
O25 O 0.27835 0.15575 0.16158 0.0
O26 O 0.31391 0.17653 0.15037 0.0
C27 C 0.29732 0.17138 0.16565 0.0
H28 H 0.20949 0.09145 0.18268 0.0
H29 H 0.37167 0.20775 0.07237 0.0
Co30 Co 0.61885 0.52003 0.3819 0.0
C31 C 0.64685 0.56693 0.38929 0.0
Co32 Co 0.59782 0.55631 0.37145 0.0
C33 C 0.64106 0.46679 0.38441 0.0
C34 C 0.65093 0.49135 0.41224 0.0
N35 N 0.63734 0.49123 0.39289 0.0
N36 N 0.65667 0.45186 0.39768 0.0
C37 C 0.66282 0.4673 0.4152 0.0
H38 H 0.63291 0.46028 0.36866 0.0
H39 H 0.6522 0.50799 0.4235 0.0
C40 C 0.5693 0.50907 0.36619 0.0
N41 N 0.57909 0.5855 0.36083 0.0
C42 C 0.57261 0.60867 0.37073 0.0
C43 C 0.56674 0.58619 0.34092 0.0
N44 N 0.55643 0.6235 0.3578 0.0
C45 C 0.55286 0.60935 0.33903 0.0
C46 C 0.6279 0.53129 0.33796 0.0
O47 O 0.5898 0.49826 0.37434 0.0
O48 O 0.56924 0.53388 0.36285 0.0
O49 O 0.61372 0.5514 0.34247 0.0
O50 O 0.63329 0.51493 0.35335 0.0
O51 O 0.62666 0.57847 0.38112 0.0
H52 H 0.56724 0.57047 0.32872 0.0
H53 H 0.5788 0.61411 0.38738 0.0
O54 O 0.6474 0.5419 0.38974 0.0
O55 O 0.60398 0.52505 0.41029 0.0
O56 O 0.58176 0.56009 0.39995 0.0
C57 C 0.58764 0.54323 0.41483 0.0
H58 H 0.67486 0.46154 0.42929 0.0
H59 H 0.54091 0.61528 0.32493 0.0
Co60 Co 0.23836 0.86961 0.63171 0.0
C61 C 0.19151 0.89742 0.63877 0.0
Co62 Co 0.20223 0.84806 0.62148 0.0
C63 C 0.29194 0.89145 0.63428 0.0
C64 C 0.26713 0.90201 0.66175 0.0
N65 N 0.26731 0.88817 0.64254 0.0
N66 N 0.30696 0.90701 0.64757 0.0
C67 C 0.29133 0.91356 0.66485 0.0
H68 H 0.29857 0.88289 0.61873 0.0
H69 H 0.2504 0.90357 0.67287 0.0
C70 C 0.24939 0.8198 0.61624 0.0
N71 N 0.17278 0.82951 0.61102 0.0
C72 C 0.14889 0.82485 0.62043 0.0
C73 C 0.1717 0.81722 0.59112 0.0
N74 N 0.13295 0.8103 0.60702 0.0
C75 C 0.14742 0.8055 0.58861 0.0
C76 C 0.22699 0.87806 0.58777 0.0
O77 O 0.26005 0.84034 0.62448 0.0
O78 O 0.22457 0.81956 0.61279 0.0
O79 O 0.20691 0.86392 0.59246 0.0
O80 O 0.24351 0.88359 0.60303 0.0
O81 O 0.18019 0.87681 0.6312 0.0
H82 H 0.18767 0.81669 0.57917 0.0
H83 H 0.14323 0.83224 0.63666 0.0
O84 O 0.21653 0.89844 0.63913 0.0
O85 O 0.23324 0.85514 0.6603 0.0
O86 O 0.19867 0.83207 0.65001 0.0
C87 C 0.21535 0.83848 0.66491 0.0
H88 H 0.29708 0.92553 0.67899 0.0
H89 H 0.14111 0.79395 0.5744 0.0
Co90 Co 0.89332 0.48998 0.88215 0.0
C91 C 0.86327 0.44489 0.88999 0.0
Co92 Co 0.91256 0.45295 0.87109 0.0
C93 C 0.87374 0.54419 0.88531 0.0
C94 C 0.86755 0.52131 0.91486 0.0
N95 N 0.87736 0.51982 0.89398 0.0
N96 N 0.86251 0.56075 0.90019 0.0
C97 C 0.85861 0.54642 0.91875 0.0
H98 H 0.8797 0.54982 0.86866 0.0
H99 H 0.86709 0.50513 0.92662 0.0
C100 C 0.94306 0.49846 0.86528 0.0
N101 N 0.92889 0.4227 0.85968 0.0
C102 C 0.93473 0.39921 0.86935 0.0
C103 C 0.93876 0.4208 0.83889 0.0
N104 N 0.94769 0.38276 0.85526 0.0
C105 C 0.95017 0.39645 0.83612 0.0
C106 C 0.88243 0.48004 0.83844 0.0
O107 O 0.92326 0.50999 0.8739 0.0
O108 O 0.9421 0.47367 0.86187 0.0
O109 O 0.89584 0.4593 0.84258 0.0
O110 O 0.87804 0.49639 0.85406 0.0
O111 O 0.88269 0.43253 0.88134 0.0
H112 H 0.93819 0.4364 0.8266 0.0
H113 H 0.92963 0.39433 0.88637 0.0
O114 O 0.86385 0.46991 0.89068 0.0
O115 O 0.9091 0.48359 0.91003 0.0
O116 O 0.92953 0.44774 0.89915 0.0
C117 C 0.92468 0.46467 0.91423 0.0
H118 H 0.84963 0.55358 0.93397 0.0
H119 H 0.96025 0.38969 0.82129 0.0
Co120 Co 0.70354 0.85097 0.88484 0.0
C121 C 0.7476 0.81842 0.89065 0.0
Co122 Co 0.7414 0.86828 0.87345 0.0
C123 C 0.64918 0.83064 0.88664 0.0
C124 C 0.67028 0.82679 0.91738 0.0
N125 N 0.67268 0.83611 0.89645 0.0
N126 N 0.63223 0.81839 0.90074 0.0
C127 C 0.64561 0.81603 0.92008 0.0
H128 H 0.64469 0.83542 0.86947 0.0
H129 H 0.68576 0.82719 0.9298 0.0
C130 C 0.69756 0.90023 0.86552 0.0
N131 N 0.77194 0.88273 0.86146 0.0
C132 C 0.79622 0.88605 0.87045 0.0
C133 C 0.77416 0.89166 0.84035 0.0
N134 N 0.81342 0.89624 0.85556 0.0
C135 C 0.79962 0.89976 0.83664 0.0
C136 C 0.71437 0.83789 0.84175 0.0
O137 O 0.68447 0.88157 0.87457 0.0
O138 O 0.72255 0.8985 0.86458 0.0
O139 O 0.73417 0.85243 0.84577 0.0
O140 O 0.6973 0.8341 0.85692 0.0
O141 O 0.76011 0.83763 0.88204 0.0
H142 H 0.75824 0.89219 0.82832 0.0
H143 H 0.80129 0.8807 0.88739 0.0
O144 O 0.72288 0.82056 0.89403 0.0
O145 O 0.71088 0.86768 0.91324 0.0
O146 O 0.7486 0.88362 0.9013 0.0
C147 C 0.73225 0.88024 0.91708 0.0
H148 H 0.63844 0.80641 0.93499 0.0
H149 H 0.80734 0.90802 0.82134 0.0
Co150 Co 0.4093 0.45312 0.63478 0.0
C151 C 0.43877 0.49962 0.64005 0.0
Co152 Co 0.38878 0.48977 0.62448 0.0
C153 C 0.43198 0.39957 0.6357 0.0
C154 C 0.4391 0.42193 0.66537 0.0
N155 N 0.42718 0.42332 0.64532 0.0
N156 N 0.44628 0.38343 0.64913 0.0
C157 C 0.45074 0.39763 0.66777 0.0
H158 H 0.425 0.39421 0.61926 0.0
H159 H 0.43959 0.43778 0.67745 0.0
C160 C 0.35979 0.44358 0.61713 0.0
N161 N 0.37098 0.5191 0.61357 0.0
C162 C 0.36816 0.54376 0.6219 0.0
C163 C 0.35727 0.51927 0.59429 0.0
N164 N 0.353 0.55911 0.60858 0.0
C165 C 0.34624 0.54369 0.5912 0.0
C166 C 0.41929 0.46589 0.59136 0.0
O167 O 0.37985 0.43174 0.62521 0.0
O168 O 0.35959 0.46862 0.61673 0.0
O169 O 0.40332 0.48436 0.59602 0.0
O170 O 0.42509 0.44895 0.60621 0.0
O171 O 0.41843 0.51077 0.63193 0.0
H172 H 0.35544 0.50261 0.58311 0.0
H173 H 0.37671 0.55016 0.63753 0.0
O174 O 0.43848 0.47479 0.64333 0.0
O175 O 0.39374 0.45844 0.66382 0.0
O176 O 0.3747 0.49527 0.65313 0.0
C177 C 0.38007 0.47885 0.66848 0.0
H178 H 0.46213 0.39116 0.68202 0.0
H179 H 0.33444 0.54974 0.57704 0.0
Co180 Co 0.80717 0.15953 0.38401 0.0
C181 C 0.76223 0.19095 0.38952 0.0
Co182 Co 0.76985 0.14119 0.37244 0.0
C183 C 0.86112 0.18125 0.38593 0.0
C184 C 0.83969 0.18488 0.41649 0.0
N185 N 0.83768 0.17527 0.39562 0.0
N186 N 0.87766 0.19413 0.40005 0.0
C187 C 0.86403 0.19635 0.41926 0.0
H188 H 0.86583 0.17642 0.36882 0.0
H189 H 0.82412 0.18423 0.4288 0.0
C190 C 0.81448 0.11031 0.36482 0.0
N191 N 0.73969 0.12587 0.36046 0.0
C192 C 0.71533 0.12255 0.36925 0.0
C193 C 0.73783 0.11635 0.3395 0.0
N194 N 0.69841 0.11177 0.35439 0.0
C195 C 0.71251 0.10786 0.33569 0.0
C196 C 0.79603 0.17215 0.34077 0.0
O197 O 0.82707 0.12944 0.3737 0.0
O198 O 0.78944 0.11132 0.3639 0.0
O199 O 0.77677 0.15687 0.34467 0.0
O200 O 0.81283 0.17661 0.35606 0.0
O201 O 0.75039 0.17148 0.38065 0.0
H202 H 0.7539 0.11575 0.32764 0.0
H203 H 0.70996 0.1284 0.386 0.0
O204 O 0.78694 0.18938 0.39328 0.0
O205 O 0.80037 0.14259 0.41238 0.0
O206 O 0.76292 0.12602 0.4004 0.0
C207 C 0.77921 0.12968 0.4162 0.0
H208 H 0.87075 0.20638 0.43414 0.0
H209 H 0.70505 0.09917 0.32045 0.0
Co210 Co 0.10193 0.55733 0.13476 0.0
C211 C 0.07038 0.51241 0.14036 0.0
Co212 Co 0.1203 0.5198 0.12386 0.0
C213 C 0.07899 0.61077 0.13595 0.0
C214 C 0.07528 0.58947 0.1666 0.0
N215 N 0.08572 0.58773 0.14599 0.0
N216 N 0.06448 0.62649 0.1495 0.0
C217 C 0.06229 0.6131 0.16879 0.0
H218 H 0.0836 0.61539 0.11878 0.0
H219 H 0.07623 0.57407 0.17906 0.0
C220 C 0.15123 0.56454 0.11608 0.0
N221 N 0.13593 0.48968 0.11225 0.0
C222 C 0.13847 0.46515 0.12087 0.0
C223 C 0.14631 0.488 0.09158 0.0
N224 N 0.1496 0.44831 0.10616 0.0
C225 C 0.15454 0.46262 0.08776 0.0
C226 C 0.08978 0.54548 0.09156 0.0
O227 O 0.13205 0.57727 0.12473 0.0
O228 O 0.15018 0.53951 0.11539 0.0
O229 O 0.10491 0.52624 0.0959 0.0
O230 O 0.08527 0.56263 0.10654 0.0
O231 O 0.08996 0.50025 0.13202 0.0
H232 H 0.14753 0.5042 0.07988 0.0
H233 H 0.13169 0.45959 0.13732 0.0
O234 O 0.07203 0.53715 0.14371 0.0
O235 O 0.11843 0.55084 0.16345 0.0
O236 O 0.13522 0.51329 0.15198 0.0
C237 C 0.13132 0.52975 0.16759 0.0
H238 H 0.05171 0.61979 0.18341 0.0
H239 H 0.16361 0.45522 0.07267 0.0
Co240 Co 0.76858 0.6408 0.63278 0.0
C241 C 0.81491 0.6119 0.63987 0.0
Co242 Co 0.80519 0.66138 0.62238 0.0
C243 C 0.71474 0.61973 0.63559 0.0
C244 C 0.73947 0.6093 0.66319 0.0
N245 N 0.7394 0.6229 0.64386 0.0
N246 N 0.69962 0.60445 0.64899 0.0
C247 C 0.71519 0.59798 0.66635 0.0
H248 H 0.70819 0.62807 0.61993 0.0
H249 H 0.75621 0.60768 0.67431 0.0
C250 C 0.75856 0.69078 0.61745 0.0
N251 N 0.83486 0.67933 0.61163 0.0
C252 C 0.85875 0.68432 0.62098 0.0
C253 C 0.83582 0.69128 0.59158 0.0
N254 N 0.87456 0.69878 0.60739 0.0
C255 C 0.85998 0.70313 0.58894 0.0
C256 C 0.77922 0.63203 0.58876 0.0
O257 O 0.74744 0.67038 0.62546 0.0
O258 O 0.78338 0.69051 0.61406 0.0
O259 O 0.7996 0.6458 0.59334 0.0
O260 O 0.76287 0.62666 0.60416 0.0
O261 O 0.82672 0.63195 0.63177 0.0
H262 H 0.81974 0.69169 0.5797 0.0
H263 H 0.8644 0.67743 0.63737 0.0
O264 O 0.78987 0.61171 0.64037 0.0
O265 O 0.77424 0.65537 0.66123 0.0
O266 O 0.80963 0.67714 0.65095 0.0
C267 C 0.79278 0.6713 0.66586 0.0
H268 H 0.70934 0.58614 0.68053 0.0
H269 H 0.86603 0.71468 0.57466 0.0
Co270 Co 0.12071 0.02081 0.88282 0.0
C271 C 0.15119 0.06622 0.88898 0.0
Co272 Co 0.10158 0.05774 0.87139 0.0
C273 C 0.13865 0.9661 0.88707 0.0
C274 C 0.15064 0.99107 0.91403 0.0
N275 N 0.13726 0.99123 0.89459 0.0
N276 N 0.15227 0.95031 0.9012 0.0
C277 C 0.15986 0.9661 0.91811 0.0
H278 H 0.12955 0.95951 0.87172 0.0
H279 H 0.1535 0.00812 0.92463 0.0
C280 C 0.07052 0.01228 0.86711 0.0
N281 N 0.08472 0.08772 0.86004 0.0
C282 C 0.07841 0.11095 0.86992 0.0
C283 C 0.07379 0.08919 0.83958 0.0
N284 N 0.06372 0.12662 0.85644 0.0
C285 C 0.06096 0.11293 0.83733 0.0
C286 C 0.13046 0.0298 0.83869 0.0
O287 O 0.09027 1.00067 0.87578 0.0
O288 O 0.07191 0.03689 0.863 0.0
O289 O 0.11768 0.05101 0.84263 0.0
O290 O 0.1346 0.01369 0.85451 0.0
O291 O 0.13138 0.07841 0.88085 0.0
H292 H 0.07448 0.07365 0.82723 0.0
H293 H 0.08361 0.11583 0.88693 0.0
O294 O 0.15074 0.0412 0.89002 0.0
O295 O 0.10629 0.02785 0.91109 0.0
O296 O 0.0854 0.06324 0.89966 0.0
C297 C 0.09066 0.04683 0.91506 0.0
H298 H 0.17165 0.96018 0.9323 0.0
H299 H 0.05025 0.11952 0.82274 0.0
Co300 Co 0.74099 0.36837 0.13186 0.0
C301 C 0.6958 0.39845 0.13966 0.0
Co302 Co 0.70382 0.34907 0.12115 0.0
C303 C 0.7953 0.38775 0.13445 0.0
C304 C 0.77264 0.3949 0.16397 0.0
N305 N 0.77093 0.38462 0.14326 0.0
N306 N 0.81207 0.39914 0.1491 0.0
C307 C 0.7979 0.40364 0.16765 0.0
H308 H 0.8008 0.38125 0.11791 0.0
H309 H 0.75655 0.39572 0.17581 0.0
C310 C 0.74935 0.31848 0.11539 0.0
N311 N 0.67357 0.33231 0.11021 0.0
C312 C 0.65043 0.32619 0.12033 0.0
C313 C 0.67181 0.32115 0.08986 0.0
N314 N 0.63456 0.31139 0.1071 0.0
C315 C 0.64801 0.30836 0.08791 0.0
C316 C 0.73049 0.37867 0.08808 0.0
O317 O 0.76106 0.33835 0.12374 0.0
O318 O 0.72453 0.31949 0.11216 0.0
O319 O 0.70978 0.36528 0.0924 0.0
O320 O 0.74698 0.38323 0.10359 0.0
O321 O 0.6834 0.37896 0.13116 0.0
H322 H 0.68723 0.32162 0.07741 0.0
H323 H 0.64578 0.33157 0.13733 0.0
O324 O 0.72085 0.3979 0.14027 0.0
O325 O 0.73502 0.35306 0.15995 0.0
O326 O 0.69898 0.33262 0.14946 0.0
C327 C 0.71605 0.33763 0.16441 0.0
H328 H 0.8053 0.41279 0.18272 0.0
H329 H 0.64121 0.29746 0.07349 0.0
Co330 Co 0.39036 0.98964 0.38253 0.0
C331 C 0.35953 0.94446 0.38958 0.0
Co332 Co 0.40899 0.95221 0.37171 0.0
C333 C 0.37274 0.04447 0.38577 0.0
C334 C 0.36048 0.02032 0.41315 0.0
N335 N 0.37395 0.01955 0.39379 0.0
N336 N 0.35912 0.06073 0.39949 0.0
C337 C 0.35136 0.04546 0.41667 0.0
H338 H 0.382 0.05057 0.37036 0.0
H339 H 0.35748 1.0036 0.42407 0.0
C340 C 0.44041 0.99751 0.36667 0.0
N341 N 0.42579 0.92204 0.36069 0.0
C342 C 0.43219 0.89885 0.37061 0.0
C343 C 0.4368 0.92059 0.34027 0.0
N344 N 0.44704 0.88328 0.35719 0.0
C345 C 0.44977 0.89696 0.33808 0.0
C346 C 0.38012 0.97951 0.33862 0.0
O347 O 0.42072 0.00955 0.37497 0.0
O348 O 0.43885 0.97278 0.36317 0.0
O349 O 0.39297 0.95844 0.34288 0.0
O350 O 0.37613 0.99605 0.35415 0.0
O351 O 0.37898 0.93186 0.38128 0.0
H352 H 0.43612 0.93612 0.32792 0.0
H353 H 0.42698 0.89395 0.3876 0.0
O354 O 0.36045 0.96949 0.39031 0.0
O355 O 0.40499 0.98329 0.41083 0.0
O356 O 0.42504 0.94709 0.40012 0.0
C357 C 0.42014 0.96404 0.41519 0.0
H358 H 0.33954 0.05183 0.43069 0.0
H359 H 0.46059 0.89041 0.32355 0.0
Co360 Co 0.20291 0.34853 0.38414 0.0
C361 C 0.24936 0.31915 0.38855 0.0
Co362 Co 0.23923 0.36957 0.37374 0.0
C363 C 0.14922 0.32592 0.38548 0.0
C364 C 0.17215 0.31853 0.41481 0.0
N365 N 0.17319 0.33058 0.39481 0.0
N366 N 0.13329 0.31159 0.39905 0.0
C367 C 0.14784 0.30696 0.41746 0.0
H368 H 0.14355 0.33306 0.36917 0.0
H369 H 0.18822 0.31795 0.42668 0.0
C370 C 0.19304 0.39844 0.36721 0.0
N371 N 0.26857 0.38726 0.36276 0.0
C372 C 0.29378 0.38798 0.3702 0.0
C373 C 0.26869 0.40179 0.34394 0.0
N374 N 0.30959 0.40228 0.35661 0.0
C375 C 0.29374 0.41105 0.34015 0.0
C376 C 0.21513 0.33912 0.34057 0.0
O377 O 0.18143 0.37797 0.37477 0.0
O378 O 0.21807 0.39902 0.36673 0.0
O379 O 0.23329 0.35554 0.3451 0.0
O380 O 0.19855 0.33287 0.35556 0.0
O381 O 0.2602 0.33967 0.38051 0.0
H382 H 0.25164 0.40523 0.33347 0.0
H383 H 0.30047 0.37771 0.38497 0.0
O384 O 0.22464 0.31933 0.39237 0.0
O385 O 0.2085 0.36402 0.41326 0.0
O386 O 0.24528 0.3831 0.40249 0.0
C387 C 0.22897 0.37766 0.41789 0.0
H388 H 0.1416 0.29552 0.43174 0.0
H389 H 0.29971 0.42348 0.32639 0.0
Co390 Co 0.91362 0.95352 0.13373 0.0
C391 C 0.94157 1.00102 0.13872 0.0
Co392 Co 0.89203 0.9894 0.12313 0.0
C393 C 0.9389 0.90117 0.13477 0.0
C394 C 0.94518 0.92414 0.16426 0.0
N395 N 0.93266 0.92456 0.14442 0.0
N396 N 0.9551 0.88645 0.14779 0.0
C397 C 0.95892 0.90092 0.16635 0.0
H398 H 0.9324 0.89543 0.11828 0.0
H399 H 0.94479 0.94003 0.1763 0.0
C400 C 0.86451 0.9422 0.11635 0.0
N401 N 0.87321 0.01797 0.11213 0.0
C402 C 0.86962 0.04251 0.12047 0.0
C403 C 0.8593 0.01763 0.09295 0.0
N404 N 0.85378 0.05728 0.10727 0.0
C405 C 0.84735 0.04164 0.08995 0.0
C406 C 0.92333 0.96632 0.09019 0.0
O407 O 0.88513 0.93104 0.12408 0.0
O408 O 0.86342 0.96721 0.11582 0.0
O409 O 0.90654 0.98414 0.09459 0.0
O410 O 0.92976 0.94988 0.10525 0.0
O411 O 0.92108 0.01147 0.13025 0.0
H412 H 0.85788 1.00087 0.08183 0.0
H413 H 0.87803 0.04919 0.13607 0.0
O414 O 0.94185 0.97627 0.14236 0.0
O415 O 0.89762 0.95831 0.1627 0.0
O416 O 0.87799 0.99473 0.15179 0.0
C417 C 0.88347 0.97844 0.16721 0.0
H418 H 0.97083 0.89512 0.18052 0.0
H419 H 0.83507 0.04725 0.07595 0.0
Co420 Co 0.30861 0.6616 0.88443 0.0
C421 C 0.26193 0.69105 0.88932 0.0
Co422 Co 0.27207 0.64142 0.87341 0.0
C423 C 0.36182 0.68499 0.88635 0.0
C424 C 0.33904 0.69068 0.91599 0.0
N425 N 0.33811 0.67935 0.89569 0.0
N426 N 0.3775 0.69931 0.90017 0.0
C427 C 0.36302 0.70285 0.91878 0.0
H428 H 0.36739 0.67876 0.86976 0.0
H429 H 0.32301 0.69057 0.9279 0.0
C430 C 0.3184 0.61241 0.86657 0.0
N431 N 0.24308 0.62369 0.86181 0.0
C432 C 0.21851 0.61984 0.87001 0.0
C433 C 0.24334 0.61067 0.8422 0.0
N434 N 0.20364 0.60469 0.8563 0.0
C435 C 0.21925 0.59901 0.83879 0.0
C436 C 0.29676 0.6724 0.84096 0.0
O437 O 0.33024 0.63235 0.87486 0.0
O438 O 0.29337 0.61239 0.8658 0.0
O439 O 0.27815 0.6564 0.84515 0.0
O440 O 0.31338 0.67793 0.85614 0.0
O441 O 0.25087 0.6709 0.88077 0.0
H442 H 0.26011 0.60957 0.83109 0.0
H443 H 0.21189 0.62751 0.88589 0.0
O444 O 0.2867 0.69059 0.893 0.0
O445 O 0.30277 0.64545 0.91316 0.0
O446 O 0.26594 0.6269 0.90183 0.0
C447 C 0.28223 0.63179 0.91741 0.0
H448 H 0.36895 0.71414 0.93325 0.0
H449 H 0.21359 0.58741 0.8244 0.0
Co450 Co 0.59807 0.05722 0.6333 0.0
C451 C 0.56846 0.01094 0.63831 0.0
Co452 Co 0.61854 0.02072 0.62259 0.0
C453 C 0.57496 0.11069 0.63476 0.0
C454 C 0.56927 0.0882 0.66456 0.0
N455 N 0.58048 0.08701 0.64423 0.0
N456 N 0.56088 0.1266 0.64855 0.0
C457 C 0.55733 0.1123 0.66726 0.0
H458 H 0.58115 0.1161 0.61812 0.0
H459 H 0.56935 0.07231 0.67659 0.0
C460 C 0.6476 0.06674 0.61561 0.0
N461 N 0.63586 0.99127 0.61143 0.0
C462 C 0.63694 0.9662 0.61911 0.0
C463 C 0.64992 0.99094 0.59235 0.0
N464 N 0.65102 0.95026 0.60545 0.0
C465 C 0.65925 0.96591 0.58867 0.0
C466 C 0.58767 0.04499 0.58986 0.0
O467 O 0.62736 0.07852 0.62342 0.0
O468 O 0.64798 0.04171 0.61512 0.0
O469 O 0.60398 0.02668 0.59417 0.0
O470 O 0.58175 0.06155 0.60497 0.0
O471 O 0.58863 0.99992 0.62983 0.0
H472 H 0.65304 0.00785 0.58168 0.0
H473 H 0.62716 0.95973 0.63418 0.0
O474 O 0.56897 0.03566 0.6421 0.0
O475 O 0.6143 0.05173 0.66212 0.0
O476 O 0.6327 0.01472 0.65112 0.0
C477 C 0.62793 0.03121 0.66654 0.0
H478 H 0.54622 0.11846 0.68175 0.0
H479 H 0.67142 0.95982 0.57478 0.0
H480 H 0.2729 0.15748 0.2041 0.0
H481 H 0.26063 0.18705 0.23446 0.0
H482 H 0.30698 0.24928 0.20489 0.0
H483 H 0.31917 0.21978 0.17415 0.0
H484 H 0.28745 0.21934 0.26579 0.0
H485 H 0.23002 0.27715 0.20354 0.0
H486 H 0.24359 0.24502 0.19743 0.0
H487 H 0.26465 0.27357 0.19773 0.0
C488 C 0.28108 0.17725 0.20436 0.0
C489 C 0.29669 0.18648 0.18663 0.0
C490 C 0.27402 0.19411 0.2217 0.0
C491 C 0.28236 0.22047 0.22155 0.0
C492 C 0.29996 0.22908 0.205 0.0
H493 H 0.24093 0.35371 0.30287 0.0
H494 H 0.25493 0.32453 0.27275 0.0
C495 C 0.30714 0.21215 0.18761 0.0
C496 C 0.27053 0.23926 0.23751 0.0
H497 H 0.22883 0.29211 0.24076 0.0
C498 C 0.27468 0.2353 0.26037 0.0
C499 C 0.25362 0.25981 0.23029 0.0
C500 C 0.24744 0.26412 0.20594 0.0
C501 C 0.26269 0.25167 0.27626 0.0
C502 C 0.24576 0.27219 0.26902 0.0
C503 C 0.24167 0.27621 0.24618 0.0
C504 C 0.23339 0.29063 0.28498 0.0
C505 C 0.26863 0.24722 0.30064 0.0
C506 C 0.21537 0.28157 0.30102 0.0
C507 C 0.20716 0.29828 0.31822 0.0
C508 C 0.217 0.32418 0.31956 0.0
C509 C 0.23316 0.33378 0.30233 0.0
C510 C 0.24125 0.31714 0.28515 0.0
H511 H 0.28616 0.23434 0.30309 0.0
H512 H 0.27218 0.26628 0.3093 0.0
H513 H 0.25144 0.23753 0.30865 0.0
H514 H 0.20871 0.26125 0.30084 0.0
H515 H 0.19474 0.29033 0.33129 0.0
H516 H 0.46719 0.44385 0.58133 0.0
H517 H 0.49596 0.45671 0.55031 0.0
H518 H 0.43356 0.50485 0.52311 0.0
H519 H 0.40478 0.49226 0.55394 0.0
H520 H 0.48969 0.45714 0.50079 0.0
H521 H 0.49561 0.55661 0.53981 0.0
H522 H 0.48404 0.52788 0.55471 0.0
H523 H 0.46284 0.54414 0.53503 0.0
C524 C 0.45934 0.45649 0.56836 0.0
C525 C 0.4339 0.46735 0.57018 0.0
C526 C 0.47583 0.46393 0.55076 0.0
C527 C 0.46697 0.4822 0.53484 0.0
C528 C 0.44082 0.49112 0.53553 0.0
H529 H 0.53948 0.5649 0.42451 0.0
H530 H 0.5104 0.55177 0.45524 0.0
C531 C 0.42441 0.48379 0.55308 0.0
C532 C 0.48557 0.49371 0.51864 0.0
H533 H 0.51649 0.55137 0.50482 0.0
C534 C 0.49566 0.47768 0.50166 0.0
C535 C 0.49322 0.52055 0.51997 0.0
C536 C 0.48358 0.53833 0.53844 0.0
C537 C 0.51295 0.48796 0.48563 0.0
C538 C 0.52061 0.5148 0.48697 0.0
C539 C 0.51051 0.53083 0.50394 0.0
C540 C 0.5393 0.5263 0.47084 0.0
C541 C 0.5226 0.4702 0.46715 0.0
C542 C 0.56548 0.51745 0.47032 0.0
C543 C 0.58208 0.52494 0.45294 0.0
C544 C 0.57274 0.54148 0.43585 0.0
C545 C 0.54722 0.5522 0.43748 0.0
C546 C 0.53055 0.5446 0.45491 0.0
H547 H 0.5106 0.4519 0.46579 0.0
H548 H 0.52209 0.48066 0.45089 0.0
H549 H 0.54336 0.46444 0.47053 0.0
H550 H 0.57265 0.50369 0.48275 0.0
H551 H 0.60175 0.51655 0.45221 0.0
H552 H 0.19504 0.78983 0.67469 0.0
H553 H 0.20838 0.76149 0.70583 0.0
H554 H 0.25479 0.82518 0.73314 0.0
H555 H 0.24141 0.85358 0.70236 0.0
H556 H 0.26237 0.74964 0.7121 0.0
H557 H 0.21904 0.79401 0.78832 0.0
H558 H 0.20662 0.80102 0.76072 0.0
H559 H 0.23591 0.81721 0.77075 0.0
C560 C 0.20728 0.79807 0.68777 0.0
C561 C 0.21729 0.82385 0.68607 0.0
C562 C 0.21504 0.78181 0.70543 0.0
C563 C 0.23254 0.79128 0.72174 0.0
C564 C 0.241 0.8176 0.7209 0.0
H565 H 0.31832 0.72075 0.83202 0.0
H566 H 0.30653 0.74961 0.80076 0.0
C567 C 0.23338 0.83378 0.70325 0.0
C568 C 0.24454 0.77301 0.73805 0.0
H569 H 0.25323 0.76241 0.79367 0.0
C570 C 0.26022 0.75227 0.72995 0.0
C571 C 0.242 0.77681 0.76127 0.0
C572 C 0.2248 0.79832 0.77083 0.0
C573 C 0.27367 0.73528 0.74451 0.0
C574 C 0.27103 0.73901 0.76773 0.0
C575 C 0.25544 0.75982 0.77582 0.0
C576 C 0.28246 0.72036 0.78404 0.0
C577 C 0.29084 0.71376 0.73493 0.0
C578 C 0.27356 0.69417 0.7845 0.0
C579 C 0.28027 0.67772 0.80222 0.0
C580 C 0.29589 0.68723 0.81986 0.0
C581 C 0.30642 0.71285 0.81857 0.0
C582 C 0.29956 0.72939 0.80083 0.0
H583 H 0.29702 0.71836 0.71759 0.0
H584 H 0.30878 0.71066 0.74527 0.0
H585 H 0.27951 0.69501 0.73456 0.0
H586 H 0.26004 0.68694 0.7719 0.0
H587 H 0.27187 0.65806 0.80278 0.0
H588 H 0.9098 0.48786 0.9529 0.0
H589 H 0.93874 0.50058 0.9836 0.0
H590 H 1.0029 0.45744 0.95352 0.0
H591 H 0.97396 0.44472 0.92247 0.0
H592 H 0.97212 0.47343 0.01452 0.0
H593 H 0.02749 0.53588 0.95421 0.0
H594 H 0.99584 0.52142 0.94767 0.0
H595 H 0.0251 0.50142 0.94735 0.0
C596 C 0.92988 0.48047 0.95311 0.0
C597 C 0.93976 0.46555 0.93521 0.0
C598 C 0.94638 0.4878 0.97064 0.0
C599 C 0.97304 0.48047 0.97049 0.0
C600 C 0.98243 0.46364 0.95366 0.0
H601 H 0.10472 0.52261 0.05281 0.0
H602 H 0.07569 0.5096 0.02224 0.0
C603 C 0.96583 0.45614 0.9361 0.0
C604 C 0.99124 0.49248 0.98685 0.0
H605 H 0.04221 0.53631 0.99153 0.0
C606 C 0.98748 0.48715 0.00955 0.0
C607 C 0.011 0.51061 0.98021 0.0
C608 C 0.01508 0.51793 0.95607 0.0
C609 C 1.00336 0.49911 0.02585 0.0
C610 C 0.0231 0.51726 0.0192 0.0
C611 C 0.02686 0.52258 0.9965 0.0
C612 C 0.04128 0.52936 0.03554 0.0
C613 C 0.99934 0.49173 0.04999 0.0
C614 C 0.03185 0.54612 0.05241 0.0
C615 C 0.04851 0.55381 0.06987 0.0
C616 C 0.07468 0.54466 0.07061 0.0
C617 C 0.08457 0.52983 0.05267 0.0
C618 C 0.06801 0.52232 0.03524 0.0
H619 H 0.98705 0.47368 0.05183 0.0
H620 H 0.0186 0.48836 0.05839 0.0
H621 H 0.98918 0.50815 0.05872 0.0
H622 H 0.01132 0.55213 0.05265 0.0
H623 H 0.04037 0.56512 0.08355 0.0
H624 H 0.7371 0.85181 0.8027 0.0
H625 H 0.74813 0.82239 0.77199 0.0
H626 H 0.70375 0.75976 0.80311 0.0
H627 H 0.69277 0.78924 0.83421 0.0
H628 H 0.75691 0.74758 0.79495 0.0
H629 H 0.71002 0.78906 0.71916 0.0
H630 H 0.72766 0.81322 0.73522 0.0
H631 H 0.69909 0.79735 0.74694 0.0
C632 C 0.72893 0.83204 0.80264 0.0
C633 C 0.71417 0.82273 0.82084 0.0
C634 C 0.73518 0.81527 0.78503 0.0
C635 C 0.7267 0.78895 0.78526 0.0
C636 C 0.71037 0.78009 0.80264 0.0
H637 H 0.76825 0.65572 0.7038 0.0
H638 H 0.75531 0.68395 0.73483 0.0
C639 C 0.70393 0.79697 0.82027 0.0
C640 C 0.73792 0.7701 0.76903 0.0
H641 H 0.74558 0.75881 0.7134 0.0
C642 C 0.7542 0.7498 0.77712 0.0
C643 C 0.73464 0.77336 0.74581 0.0
C644 C 0.71671 0.79428 0.73625 0.0
C645 C 0.76773 0.73292 0.76254 0.0
C646 C 0.76461 0.73633 0.73933 0.0
C647 C 0.74819 0.75651 0.73124 0.0
C648 C 0.77672 0.71816 0.72302 0.0
C649 C 0.78567 0.71198 0.77206 0.0
C650 C 0.79367 0.72786 0.70642 0.0
C651 C 0.80121 0.7117 0.68864 0.0
C652 C 0.79148 0.68579 0.68711 0.0
C653 C 0.77604 0.67563 0.70457 0.0
C654 C 0.76868 0.69171 0.72236 0.0
H655 H 0.79155 0.71657 0.78948 0.0
H656 H 0.77511 0.69278 0.77213 0.0
H657 H 0.80377 0.70974 0.7618 0.0
H658 H 0.79998 0.7483 0.70666 0.0
H659 H 0.81292 0.7201 0.67531 0.0
H660 H 0.69628 0.2885 0.17314 0.0
H661 H 0.7089 0.26017 0.20456 0.0
H662 H 0.75201 0.3249 0.23392 0.0
H663 H 0.73939 0.35319 0.20285 0.0
H664 H 0.76306 0.25019 0.2122 0.0
H665 H 0.7155 0.29155 0.28781 0.0
H666 H 0.70375 0.29855 0.26 0.0
H667 H 0.73202 0.3157 0.27093 0.0
C668 C 0.70755 0.29692 0.18675 0.0
C669 C 0.71695 0.32297 0.18557 0.0
C670 C 0.71491 0.2807 0.20457 0.0
C671 C 0.73135 0.29049 0.22154 0.0
C672 C 0.73902 0.31706 0.22118 0.0
H673 H 0.81603 0.22149 0.33329 0.0
H674 H 0.80417 0.25061 0.30216 0.0
C675 C 0.73185 0.33318 0.20337 0.0
C676 C 0.74341 0.27238 0.23795 0.0
H677 H 0.75091 0.2614 0.29365 0.0
C678 C 0.76024 0.25246 0.23002 0.0
C679 C 0.74003 0.27575 0.26114 0.0
C680 C 0.72167 0.2964 0.27052 0.0
C681 C 0.77401 0.23591 0.24471 0.0
C682 C 0.77052 0.23917 0.2679 0.0
C683 C 0.75378 0.25917 0.27584 0.0
C684 C 0.78217 0.22071 0.28426 0.0
C685 C 0.79244 0.21535 0.23529 0.0
C686 C 0.7745 0.19413 0.28402 0.0
C687 C 0.78128 0.17757 0.30164 0.0
C688 C 0.79574 0.18732 0.31986 0.0
C689 C 0.80513 0.21341 0.31933 0.0
C690 C 0.79818 0.23008 0.30168 0.0
H691 H 0.79914 0.22067 0.21824 0.0
H692 H 0.81005 0.21268 0.2461 0.0
H693 H 0.7819 0.19618 0.23421 0.0
H694 H 0.76181 0.1866 0.27094 0.0
H695 H 0.77373 0.15754 0.30167 0.0
H696 H 0.90823 0.99161 0.05237 0.0
H697 H 0.93675 1.00479 0.02161 0.0
H698 H 1.00072 0.95953 0.0498 0.0
H699 H 0.97225 0.94635 0.08088 0.0
H700 H 0.0117 0.01386 0.04329 0.0
H701 H 0.96934 0.96862 0.96694 0.0
H702 H 0.94561 0.98513 0.98426 0.0
H703 H 0.96232 0.95631 0.99456 0.0
C704 C 0.92812 0.98377 0.05168 0.0
C705 C 0.93808 0.96806 0.06908 0.0
C706 C 0.94437 0.99127 0.03404 0.0
C707 C 0.97079 0.98311 0.03345 0.0
C708 C 0.98031 0.96596 0.04999 0.0
H709 H 0.10487 0.02318 0.95379 0.0
H710 H 0.07558 0.01151 0.98445 0.0
C711 C 0.96399 0.95829 0.06762 0.0
C712 C 0.98913 0.99516 0.01724 0.0
H713 H 1.00064 1.00306 0.96168 0.0
C714 C 0.00944 0.01136 0.02544 0.0
C715 C 0.9858 0.99216 0.99401 0.0
C716 C 0.96474 0.97444 0.98436 0.0
C717 C 0.02647 0.02484 0.01096 0.0
C718 C 0.02325 0.02172 0.98773 0.0
C719 C 1.00285 0.00563 0.97953 0.0
C720 C 0.04205 0.03317 0.97157 0.0
C721 C 0.04751 0.04257 0.02064 0.0
C722 C 0.03309 0.04985 0.95448 0.0
C723 C 0.04988 0.05665 0.93689 0.0
C724 C 0.07566 0.04646 0.93607 0.0
C725 C 0.08508 0.03133 0.95402 0.0
C726 C 0.06839 0.02469 0.9716 0.0
H727 H 0.04247 0.04897 0.03782 0.0
H728 H 0.06646 0.03159 0.02142 0.0
H729 H 0.05051 0.06036 0.01013 0.0
H730 H 0.01276 0.05649 0.95418 0.0
H731 H 0.04203 0.06814 0.92317 0.0
H732 H 0.46847 0.9424 0.42395 0.0
H733 H 0.49744 0.95416 0.45518 0.0
H734 H 0.43457 0.99985 0.48451 0.0
H735 H 0.40559 0.9881 0.45361 0.0
H736 H 0.50928 0.00798 0.46194 0.0
H737 H 0.46759 0.96324 0.53861 0.0
H738 H 0.45978 0.95119 0.51104 0.0
H739 H 0.44364 0.98013 0.52176 0.0
C740 C 0.46054 0.95406 0.43752 0.0
C741 C 0.43487 0.96447 0.43635 0.0
C742 C 0.47714 0.96091 0.45524 0.0
C743 C 0.4681 0.97784 0.47212 0.0
C744 C 0.44181 0.98647 0.47183 0.0
H745 H 0.53875 0.06526 0.581 0.0
H746 H 0.50984 0.0522 0.55012 0.0
C747 C 0.42531 0.97981 0.45411 0.0
C748 C 0.48684 0.98958 0.48819 0.0
H749 H 0.49855 0.9982 0.54366 0.0
C750 C 0.50714 0.00564 0.47982 0.0
C751 C 0.48366 0.98681 0.51145 0.0
C752 C 0.46263 0.96922 0.52129 0.0
C753 C 0.52419 0.01935 0.49415 0.0
C754 C 0.521 0.0166 0.51741 0.0
C755 C 0.50072 1.0005 0.52578 0.0
C756 C 0.53954 0.02869 0.53345 0.0
C757 C 0.54513 0.03703 0.4843 0.0
C758 C 0.56598 0.02056 0.53377 0.0
C759 C 0.58247 0.02801 0.55127 0.0
C760 C 0.57275 0.04361 0.56881 0.0
C761 C 0.54683 0.05341 0.56761 0.0
C762 C 0.53025 0.0458 0.55011 0.0
H763 H 0.54021 0.0429 0.46694 0.0
H764 H 0.54782 0.05514 0.49449 0.0
H765 H 0.56421 0.02626 0.48392 0.0
H766 H 0.57342 0.00707 0.52125 0.0
H767 H 0.60237 0.02015 0.55178 0.0
H768 H 0.20242 0.05131 0.89404 0.0
H769 H 0.23235 0.06561 0.9237 0.0
H770 H 0.17612 0.12496 0.94371 0.0
H771 H 0.14658 0.11142 0.91342 0.0
H772 H 0.22721 0.14102 0.95144 0.0
H773 H 0.21108 0.0401 0.98486 0.0
H774 H 0.22629 0.04062 0.95789 0.0
H775 H 0.19309 0.05265 0.96122 0.0
C776 C 0.19692 0.06809 0.90422 0.0
C777 C 0.17212 0.08017 0.90151 0.0
C778 C 0.2139 0.07604 0.92134 0.0
C779 C 0.20608 0.09572 0.93643 0.0
C780 C 0.18248 0.10955 0.9324 0.0
H781 H 0.23566 0.10607 0.07597 0.0
H782 H 0.22065 0.09804 0.03807 0.0
C783 C 0.16567 0.10192 0.91497 0.0
C784 C 0.22074 0.09971 0.9577 0.0
H785 H 0.23907 0.06789 0.00549 0.0
C786 C 0.22999 0.12502 0.96322 0.0
C787 C 0.22394 0.07889 0.97326 0.0
C788 C 0.21287 0.05161 0.96917 0.0
C789 C 0.24208 0.13014 0.98393 0.0
C790 C 0.24554 0.10922 0.99934 0.0
C791 C 0.23669 0.08386 0.99361 0.0
C792 C 0.25585 0.11352 0.02232 0.0
C793 C 0.24994 0.15812 0.98948 0.0
C794 C 0.281 0.12434 0.02627 0.0
C795 C 0.28968 0.12914 0.04812 0.0
C796 C 0.27345 0.12291 0.06642 0.0
C797 C 0.24875 0.11112 0.06235 0.0
C798 C 0.24007 0.10654 0.04062 0.0
H799 H 0.24047 0.17264 0.97813 0.0
H800 H 0.24453 0.16313 0.0069 0.0
H801 H 0.27166 0.16018 0.98776 0.0
H802 H 0.29384 0.12928 0.01247 0.0
H803 H 0.30882 0.13822 0.05066 0.0
H804 H 0.66669 0.49799 0.32389 0.0
H805 H 0.67398 0.48149 0.28618 0.0
H806 H 0.61136 0.53151 0.26179 0.0
H807 H 0.60466 0.54886 0.29946 0.0
H808 H 0.63986 0.45378 0.26271 0.0
H809 H 0.66576 0.54341 0.21434 0.0
H810 H 0.6652 0.54304 0.2444 0.0
H811 H 0.63491 0.54585 0.22889 0.0
C812 C 0.65491 0.50599 0.31041 0.0
C813 C 0.63519 0.52484 0.31467 0.0
C814 C 0.659 0.49643 0.28884 0.0
C815 C 0.64331 0.50527 0.27102 0.0
C816 C 0.62413 0.52475 0.27509 0.0
H817 H 0.64396 0.39994 0.15372 0.0
H818 H 0.62597 0.42863 0.18297 0.0
C819 C 0.62029 0.53464 0.29668 0.0
C820 C 0.64589 0.49244 0.24874 0.0
H821 H 0.65932 0.50401 0.19378 0.0
C822 C 0.64405 0.4648 0.24763 0.0
C823 C 0.65132 0.50678 0.22902 0.0
C824 C 0.65466 0.53638 0.22917 0.0
C825 C 0.64836 0.45103 0.22765 0.0
C826 C 0.65373 0.46533 0.20787 0.0
C827 C 0.65482 0.49305 0.20883 0.0
C828 C 0.6617 0.45172 0.18688 0.0
C829 C 0.64852 0.42122 0.22828 0.0
C830 C 0.68686 0.45656 0.17803 0.0
C831 C 0.6969 0.44066 0.16104 0.0
C832 C 0.68209 0.41938 0.15256 0.0
C833 C 0.65593 0.41606 0.15993 0.0
C834 C 0.64577 0.43224 0.17689 0.0
H835 H 0.6499 0.41351 0.24557 0.0
H836 H 0.62993 0.41364 0.22087 0.0
H837 H 0.66536 0.41318 0.21856 0.0
H838 H 0.69948 0.47159 0.18524 0.0
H839 H 0.71703 0.444 0.15563 0.0
H840 H 0.26021 0.91671 0.57331 0.0
H841 H 0.27637 0.92371 0.53546 0.0
H842 H 0.22592 0.86108 0.51169 0.0
H843 H 0.20894 0.85463 0.54951 0.0
H844 H 0.30374 0.889 0.51215 0.0
H845 H 0.21396 0.91539 0.46399 0.0
H846 H 0.21458 0.91514 0.49405 0.0
H847 H 0.21141 0.88473 0.47881 0.0
C848 C 0.25205 0.90487 0.55994 0.0
C849 C 0.23321 0.8852 0.5644 0.0
C850 C 0.2614 0.90879 0.5383 0.0
C851 C 0.25235 0.893 0.52061 0.0
C852 C 0.23285 0.87391 0.52489 0.0
H853 H 0.35713 0.89253 0.40319 0.0
H854 H 0.32811 0.87473 0.43228 0.0
C855 C 0.22317 0.87021 0.54655 0.0
C856 C 0.26504 0.89535 0.49829 0.0
H857 H 0.25325 0.9088 0.44335 0.0
C858 C 0.29266 0.89325 0.49709 0.0
C859 C 0.25061 0.90085 0.47861 0.0
C860 C 0.22103 0.90441 0.47887 0.0
C861 C 0.30635 0.89739 0.47706 0.0
C862 C 0.29197 0.90288 0.45733 0.0
C863 C 0.26425 0.90422 0.45837 0.0
C864 C 0.30555 0.91074 0.43633 0.0
C865 C 0.33619 0.89728 0.47759 0.0
C866 C 0.30107 0.93602 0.4276 0.0
C867 C 0.31717 0.94598 0.41071 0.0
C868 C 0.33828 0.93094 0.40222 0.0
C869 C 0.34116 0.90468 0.40943 0.0
C870 C 0.32478 0.8946 0.42627 0.0
H871 H 0.34402 0.89852 0.49486 0.0
H872 H 0.34354 0.87866 0.47011 0.0
H873 H 0.34432 0.91407 0.46788 0.0
H874 H 0.28623 0.9488 0.43486 0.0
H875 H 0.31417 0.9662 0.40542 0.0
H876 H 0.86649 0.61188 0.65464 0.0
H877 H 0.88505 0.58315 0.6836 0.0
H878 H 0.81277 0.53803 0.68447 0.0
H879 H 0.79482 0.56558 0.65514 0.0
H880 H 0.86757 0.581 0.72376 0.0
H881 H 0.86276 0.47921 0.69225 0.0
H882 H 0.85916 0.5073 0.67401 0.0
H883 H 0.83105 0.49431 0.68891 0.0
C884 C 0.85505 0.59513 0.66034 0.0
C885 C 0.82914 0.59112 0.65257 0.0
C886 C 0.86557 0.57882 0.67706 0.0
C887 C 0.85044 0.55818 0.68626 0.0
C888 C 0.82525 0.55323 0.67742 0.0
H889 H 0.84583 0.51613 0.82469 0.0
H890 H 0.83942 0.53331 0.78704 0.0
C891 C 0.81488 0.56926 0.66065 0.0
C892 C 0.85901 0.54433 0.70701 0.0
H893 H 0.85928 0.48402 0.73266 0.0
C894 C 0.86623 0.55973 0.72551 0.0
C895 C 0.85773 0.51651 0.70947 0.0
C896 C 0.85254 0.49843 0.68998 0.0
C897 C 0.87082 0.54834 0.74651 0.0
C898 C 0.86712 0.52082 0.74941 0.0
C899 C 0.8614 0.50519 0.73067 0.0
C900 C 0.86885 0.50811 0.7718 0.0
C901 C 0.87964 0.56606 0.76532 0.0
C902 C 0.88609 0.48684 0.77559 0.0
C903 C 0.88926 0.47644 0.79708 0.0
C904 C 0.87535 0.48724 0.81522 0.0
C905 C 0.85701 0.50751 0.81113 0.0
C906 C 0.85357 0.51759 0.78963 0.0
H907 H 0.89002 0.58385 0.75893 0.0
H908 H 0.86208 0.57291 0.77474 0.0
H909 H 0.89306 0.55555 0.77697 0.0
H910 H 0.89789 0.47894 0.7621 0.0
H911 H 0.90362 0.46089 0.79966 0.0
H912 H 0.81251 0.95435 0.11271 0.0
H913 H 0.78246 0.93949 0.08343 0.0
H914 H 0.84128 0.88418 0.06056 0.0
H915 H 0.87102 0.89838 0.09042 0.0
H916 H 0.79365 0.94839 0.04169 0.0
H917 H 0.77582 0.84129 0.0506 0.0
H918 H 0.78927 0.86106 0.07294 0.0
H919 H 0.81041 0.84888 0.05111 0.0
C920 C 0.81855 0.93817 0.10206 0.0
C921 C 0.84405 0.92742 0.10392 0.0
C922 C 0.80143 0.92981 0.0852 0.0
C923 C 0.80951 0.91071 0.06966 0.0
C924 C 0.83426 0.89853 0.07254 0.0
H925 H 0.77594 0.90778 0.93009 0.0
H926 H 0.79164 0.91562 0.9679 0.0
C927 C 0.8513 0.90664 0.08968 0.0
C928 C 0.79392 0.90667 0.04883 0.0
H929 H 0.76842 0.85968 0.014 0.0
C930 C 0.7878 0.92898 0.03587 0.0
C931 C 0.78601 0.88143 0.04117 0.0
C932 C 0.79047 0.85685 0.05481 0.0
C933 C 0.77494 0.92671 0.01523 0.0
C934 C 0.7685 0.90138 0.00694 0.0
C935 C 0.7736 0.8791 0.02023 0.0
C936 C 0.75794 0.89758 0.984 0.0
C937 C 0.76848 0.95155 1.00246 0.0
C938 C 0.73378 0.88461 0.98035 0.0
C939 C 0.72468 0.88001 0.95859 0.0
C940 C 0.73973 0.8881 0.94009 0.0
C941 C 0.76368 0.90148 0.94389 0.0
C942 C 0.7727 0.90605 0.96556 0.0
H943 H 0.76674 0.96885 0.01376 0.0
H944 H 0.78463 0.95573 0.99048 0.0
H945 H 0.74976 0.94943 0.99298 0.0
H946 H 0.7221 0.8778 0.99433 0.0
H947 H 0.7063 0.86942 0.95629 0.0
H948 H 0.29849 0.56553 0.85245 0.0
H949 H 0.31613 0.53741 0.82339 0.0
H950 H 0.38796 0.58324 0.82255 0.0
H951 H 0.36971 0.61249 0.85127 0.0
H952 H 0.36925 0.58025 0.78269 0.0
H953 H 0.36666 0.47897 0.81549 0.0
H954 H 0.33489 0.49376 0.81935 0.0
H955 H 0.36332 0.50735 0.83346 0.0
C956 C 0.3184 0.56925 0.84663 0.0
C957 C 0.33262 0.59143 0.85414 0.0
C958 C 0.3286 0.55289 0.83003 0.0
C959 C 0.35355 0.55788 0.82077 0.0
C960 C 0.36868 0.57887 0.82943 0.0
H961 H 0.40357 0.46018 0.70651 0.0
H962 H 0.39932 0.47828 0.74422 0.0
C963 C 0.35834 0.59548 0.84601 0.0
C964 C 0.36169 0.54377 0.80005 0.0
H965 H 0.3616 0.48305 0.77507 0.0
C966 C 0.36809 0.55894 0.78122 0.0
C967 C 0.36062 0.5159 0.79794 0.0
C968 C 0.35629 0.49812 0.81776 0.0
C969 C 0.37194 0.54726 0.76025 0.0
C970 C 0.36838 0.51966 0.75775 0.0
C971 C 0.3636 0.50427 0.77679 0.0
C972 C 0.36913 0.5067 0.73545 0.0
C973 C 0.37975 0.56475 0.74098 0.0
C974 C 0.35269 0.51569 0.71817 0.0
C975 C 0.35524 0.50556 0.6966 0.0
C976 C 0.37387 0.48575 0.69192 0.0
C977 C 0.38895 0.47536 0.70957 0.0
C978 C 0.38664 0.48579 0.73113 0.0
H979 H 0.39016 0.58277 0.74686 0.0
H980 H 0.39279 0.55419 0.72908 0.0
H981 H 0.36172 0.57121 0.73199 0.0
H982 H 0.33835 0.53113 0.72121 0.0
H983 H 0.34317 0.51386 0.68343 0.0
H984 H 0.80548 0.14009 0.45542 0.0
H985 H 0.79004 0.13119 0.49345 0.0
H986 H 0.72022 0.0938 0.46698 0.0
H987 H 0.7356 0.10209 0.4292 0.0
H988 H 0.74453 0.14895 0.51379 0.0
H989 H 0.74488 0.03985 0.51202 0.0
H990 H 0.76163 0.05943 0.49126 0.0
H991 H 0.72666 0.05342 0.48909 0.0
C992 C 0.78711 0.12948 0.45771 0.0
C993 C 0.77191 0.12162 0.4392 0.0
C994 C 0.77822 0.12458 0.47946 0.0
C995 C 0.7541 0.11155 0.48312 0.0
C996 C 0.73915 0.10336 0.46466 0.0
H997 H 0.64211 0.11113 0.59021 0.0
H998 H 0.67188 0.12506 0.56036 0.0
C999 C 0.74798 0.10821 0.44299 0.0
C1000 C 0.74374 0.10741 0.50607 0.0
H1001 H 0.71813 0.06007 0.54022 0.0
C1002 C 0.7391 0.12947 0.51974 0.0
C1003 C 0.73701 0.08201 0.51404 0.0
C1004 C 0.74306 0.05732 0.50092 0.0
C1005 C 0.72685 0.12689 0.5407 0.0
C1006 C 0.71855 0.10164 0.548 0.0
C1007 C 0.72424 0.07951 0.53468 0.0
C1008 C 0.70298 0.09741 0.56881 0.0
C1009 C 0.72298 0.15126 0.55476 0.0
C1010 C 0.71062 0.07769 0.58395 0.0
C1011 C 0.69343 0.06946 0.60079 0.0
C1012 C 0.66832 0.08096 0.60304 0.0
C1013 C 0.66154 0.10226 0.58917 0.0
C1014 C 0.67861 0.11022 0.57204 0.0
H1015 H 0.73802 0.16654 0.55083 0.0
H1016 H 0.70326 0.15981 0.55114 0.0
H1017 H 0.72407 0.14662 0.57281 0.0
H1018 H 0.72928 0.06752 0.58191 0.0
H1019 H 0.69912 0.05288 0.61114 0.0
H1020 H 0.20635 0.45016 0.36331 0.0
H1021 H 0.19171 0.48047 0.33416 0.0
H1022 H 0.13496 0.4227 0.31173 0.0
H1023 H 0.14888 0.3928 0.3415 0.0
H1024 H 0.19981 0.46993 0.29256 0.0
H1025 H 0.09291 0.4883 0.30196 0.0
H1026 H 0.11264 0.47437 0.3241 0.0
H1027 H 0.09999 0.45364 0.30214 0.0
C1028 C 0.18992 0.44443 0.35279 0.0
C1029 C 0.17865 0.41917 0.35478 0.0
C1030 C 0.18169 0.46169 0.33599 0.0
C1031 C 0.16221 0.454 0.32061 0.0
C1032 C 0.1496 0.42948 0.32359 0.0
H1033 H 0.15937 0.48667 0.18111 0.0
H1034 H 0.16725 0.47156 0.21904 0.0
C1035 C 0.15755 0.41233 0.34068 0.0
C1036 C 0.1581 0.46969 0.29983 0.0
H1037 H 0.11096 0.49509 0.26508 0.0
C1038 C 0.18036 0.47578 0.2868 0.0
C1039 C 0.13284 0.47767 0.29224 0.0
C1040 C 0.10829 0.4734 0.30598 0.0
C1041 C 0.17801 0.48859 0.26615 0.0
C1042 C 0.15263 0.49495 0.25787 0.0
C1043 C 0.13042 0.48995 0.27127 0.0
C1044 C 0.14872 0.50519 0.23484 0.0
C1045 C 0.20284 0.49505 0.25336 0.0
C1046 C 0.13538 0.52909 0.23094 0.0
C1047 C 0.13071 0.53783 0.20909 0.0
C1048 C 0.13911 0.52269 0.19073 0.0
C1049 C 0.15283 0.49901 0.19478 0.0
C1050 C 0.15744 0.49033 0.21653 0.0
H1051 H 0.22008 0.49716 0.26469 0.0
H1052 H 0.20721 0.47872 0.2416 0.0
H1053 H 0.20059 0.51357 0.24365 0.0
H1054 H 0.12835 0.54084 0.2448 0.0
H1055 H 0.11986 0.55601 0.20659 0.0
H1056 H 0.74597 0.59337 0.57416 0.0
H1057 H 0.72915 0.58691 0.5364 0.0
H1058 H 0.7782 0.65081 0.51302 0.0
H1059 H 0.79597 0.65654 0.55066 0.0
H1060 H 0.70074 0.62015 0.51363 0.0
H1061 H 0.79077 0.59892 0.46431 0.0
H1062 H 0.79076 0.59885 0.49435 0.0
H1063 H 0.79252 0.62951 0.47928 0.0
C1064 C 0.75369 0.60559 0.56086 0.0
C1065 C 0.77244 0.62533 0.56539 0.0
C1066 C 0.74394 0.60199 0.53927 0.0
C1067 C 0.75244 0.61825 0.52169 0.0
C1068 C 0.77173 0.63755 0.52607 0.0
H1069 H 0.64576 0.61813 0.40503 0.0
H1070 H 0.6739 0.63619 0.43469 0.0
C1071 C 0.78187 0.64085 0.54765 0.0
C1072 C 0.73953 0.61607 0.49939 0.0
H1073 H 0.7512 0.60564 0.44396 0.0
C1074 C 0.71182 0.617 0.49839 0.0
C1075 C 0.75391 0.612 0.47944 0.0
C1076 C 0.78361 0.6095 0.47935 0.0
C1077 C 0.69806 0.61308 0.47832 0.0
C1078 C 0.7124 0.60917 0.45832 0.0
C1079 C 0.74017 0.60903 0.45918 0.0
C1080 C 0.69898 0.60165 0.43709 0.0
C1081 C 0.66827 0.61173 0.47908 0.0
C1082 C 0.70513 0.57735 0.42716 0.0
C1083 C 0.6896 0.56737 0.40989 0.0
C1084 C 0.66734 0.58133 0.4022 0.0
C1085 C 0.66267 0.60682 0.41061 0.0
C1086 C 0.67852 0.61698 0.42782 0.0
H1087 H 0.66079 0.60911 0.49634 0.0
H1088 H 0.65992 0.6304 0.47248 0.0
H1089 H 0.66077 0.59515 0.46875 0.0
H1090 H 0.72093 0.56521 0.43374 0.0
H1091 H 0.69398 0.54778 0.40367 0.0
H1092 H 0.12061 0.05637 0.79945 0.0
H1093 H 0.12841 0.04037 0.7614 0.0
H1094 H 0.16329 0.96928 0.78782 0.0
H1095 H 0.15633 0.98529 0.82556 0.0
H1096 H 0.19129 0.98773 0.75365 0.0
H1097 H 0.08521 0.98403 0.73012 0.0
H1098 H 0.0969 0.01597 0.73862 0.0
H1099 H 0.09604 0.98936 0.75841 0.0
C1100 C 0.13027 0.0375 0.79712 0.0
C1101 C 0.13778 0.02212 0.81561 0.0
C1102 C 0.13441 0.02822 0.77535 0.0
C1103 C 0.1459 1.00332 0.7717 0.0
C1104 C 0.15424 0.98846 0.79014 0.0
H1105 H 0.14797 0.89079 0.66498 0.0
H1106 H 0.1344 0.92027 0.69527 0.0
C1107 C 0.15027 0.99772 0.81179 0.0
C1108 C 0.14943 0.99233 0.74886 0.0
H1109 H 0.11596 0.97113 0.7026 0.0
C1110 C 0.17483 0.98432 0.74242 0.0
C1111 C 0.12788 0.98749 0.73432 0.0
C1112 C 0.09992 0.99442 0.74071 0.0
C1113 C 0.17928 0.97117 0.72218 0.0
C1114 C 0.15782 0.96663 0.70747 0.0
C1115 C 0.13243 0.97494 0.71372 0.0
C1116 C 0.16139 0.95168 0.68632 0.0
C1117 C 0.20678 0.96119 0.71727 0.0
C1118 C 0.17969 0.96024 0.67032 0.0
C1119 C 0.18763 0.94333 0.65318 0.0
C1120 C 0.17692 0.91781 0.65137 0.0
C1121 C 0.15637 0.91044 0.66581 0.0
C1122 C 0.14874 0.92722 0.68324 0.0
H1123 H 0.21921 0.96039 0.73253 0.0
H1124 H 0.20618 0.94116 0.70978 0.0
H1125 H 0.21654 0.97471 0.70529 0.0
H1126 H 0.18918 0.9793 0.67197 0.0
H1127 H 0.20349 0.94954 0.64225 0.0
H1128 H 0.71085 0.35751 0.0494 0.0
H1129 H 0.72872 0.36306 0.01173 0.0
H1130 H 0.78373 0.42114 0.03646 0.0
H1131 H 0.76666 0.41502 0.07415 0.0
H1132 H 0.73428 0.40236 0.98228 0.0
H1133 H 0.83341 0.36911 0.00847 0.0
H1134 H 0.80495 0.36641 0.02638 0.0
H1135 H 0.82292 0.39706 0.02449 0.0
C1136 C 0.72648 0.37177 0.04674 0.0
C1137 C 0.73751 0.38565 0.06482 0.0
C1138 C 0.73677 0.37482 0.0252 0.0
C1139 C 0.75817 0.39189 0.02134 0.0
C1140 C 0.76787 0.40715 0.03911 0.0
H1141 H 0.81784 0.46617 0.90599 0.0
H1142 H 0.78979 0.44842 0.93505 0.0
C1143 C 0.75787 0.40385 0.06064 0.0
C1144 C 0.77088 0.39342 0.99898 0.0
H1145 H 0.83109 0.39184 0.97343 0.0
C1146 C 0.7554 0.39974 0.98029 0.0
C1147 C 0.79832 0.38911 0.99609 0.0
C1148 C 0.81579 0.37974 0.01489 0.0
C1149 C 0.76686 0.40346 0.95915 0.0
C1150 C 0.79465 0.40153 0.95673 0.0
C1151 C 0.80985 0.39366 0.97517 0.0
C1152 C 0.80875 0.41014 0.93614 0.0
C1153 C 0.74897 0.40947 0.93969 0.0
C1154 C 0.8289 0.39459 0.92668 0.0
C1155 C 0.84549 0.40497 0.9101 0.0
C1156 C 0.84226 0.43113 0.90277 0.0
C1157 C 0.82092 0.44591 0.91117 0.0
C1158 C 0.80459 0.43566 0.92777 0.0
H1159 H 0.72944 0.39978 0.94181 0.0
H1160 H 0.74549 0.43107 0.93887 0.0
H1161 H 0.75768 0.40285 0.92367 0.0
H1162 H 0.83262 0.37486 0.93288 0.0
H1163 H 0.86183 0.39312 0.90413 0.0
H1164 H 0.36169 0.11417 0.16469 0.0
H1165 H 0.37559 0.08354 0.1939 0.0
H1166 H 0.31573 0.0282 0.17287 0.0
H1167 H 0.30106 0.05934 0.14435 0.0
H1168 H 0.30966 0.03842 0.21449 0.0
H1169 H 0.41545 0.0166 0.20243 0.0
H1170 H 0.40982 0.05152 0.20258 0.0
H1171 H 0.39553 0.03149 0.18086 0.0
C1172 C 0.35226 0.09501 0.1657 0.0
C1173 C 0.33033 0.08911 0.15223 0.0
C1174 C 0.36023 0.07743 0.18245 0.0
C1175 C 0.3468 0.05339 0.18565 0.0
C1176 C 0.32639 0.0466 0.17084 0.0
H1177 H 0.39036 0.95218 0.29991 0.0
H1178 H 0.38112 0.96653 0.2616 0.0
C1179 C 0.31812 0.06433 0.15443 0.0
C1180 C 0.35112 0.03745 0.20623 0.0
H1181 H 0.3987 0.01111 0.24002 0.0
C1182 C 0.32913 0.03206 0.21979 0.0
C1183 C 0.37639 0.02878 0.21324 0.0
C1184 C 0.40056 0.03216 0.19887 0.0
C1185 C 0.33182 0.01939 0.24046 0.0
C1186 C 0.3573 0.01252 0.2482 0.0
C1187 C 0.37918 0.01669 0.23424 0.0
C1188 C 0.36173 1.00281 0.2713 0.0
C1189 C 0.30726 0.0137 0.25386 0.0
C1190 C 0.35386 0.01836 0.28948 0.0
C1191 C 0.35888 0.01015 0.31128 0.0
C1192 C 0.3722 0.98629 0.31549 0.0
C1193 C 0.37984 0.97053 0.29728 0.0
C1194 C 0.37473 0.97878 0.27537 0.0
H1195 H 0.28968 0.01162 0.24291 0.0
H1196 H 0.30944 0.99538 0.26386 0.0
H1197 H 0.3035 0.0304 0.26539 0.0
H1198 H 0.34436 0.03725 0.28681 0.0
H1199 H 0.35292 0.02295 0.32483 0.0
H1200 H 0.3135 0.46368 0.60166 0.0
H1201 H 0.28593 0.44566 0.57234 0.0
H1202 H 0.33108 0.37345 0.5734 0.0
H1203 H 0.35978 0.39204 0.6024 0.0
H1204 H 0.32907 0.39119 0.53316 0.0
H1205 H 0.22714 0.39537 0.5645 0.0
H1206 H 0.24221 0.42707 0.56795 0.0
H1207 H 0.25523 0.39895 0.58279 0.0
C1208 C 0.31718 0.44363 0.5962 0.0
C1209 C 0.33902 0.42938 0.60436 0.0
C1210 C 0.30114 0.43321 0.57944 0.0
C1211 C 0.3061 0.40802 0.57065 0.0
C1212 C 0.32674 0.39292 0.5799 0.0
H1213 H 0.21004 0.35485 0.45615 0.0
H1214 H 0.22771 0.36002 0.49397 0.0
C1215 C 0.34304 0.40347 0.59664 0.0
C1216 C 0.29231 0.39943 0.54986 0.0
H1217 H 0.232 0.39886 0.52409 0.0
C1218 C 0.30779 0.39238 0.53138 0.0
C1219 C 0.26448 0.40053 0.54736 0.0
C1220 C 0.24636 0.4056 0.56683 0.0
C1221 C 0.29645 0.38787 0.51035 0.0
C1222 C 0.2689 0.39137 0.50741 0.0
C1223 C 0.25319 0.39686 0.52613 0.0
C1224 C 0.25631 0.38992 0.48496 0.0
C1225 C 0.31426 0.37941 0.49149 0.0
C1226 C 0.2656 0.40585 0.46748 0.0
C1227 C 0.25572 0.40278 0.44587 0.0
C1228 C 0.23588 0.38412 0.44131 0.0
C1229 C 0.22526 0.36947 0.45911 0.0
C1230 C 0.23544 0.37232 0.48073 0.0
H1231 H 0.33217 0.36919 0.49783 0.0
H1232 H 0.30387 0.366 0.47976 0.0
H1233 H 0.3209 0.39712 0.48217 0.0
H1234 H 0.28103 0.42024 0.47042 0.0
H1235 H 0.26418 0.41454 0.43259 0.0
H1236 H 0.84633 0.01358 0.18139 0.0
H1237 H 0.83985 0.03022 0.21916 0.0
H1238 H 0.89904 0.9763 0.24363 0.0
H1239 H 0.90514 0.95895 0.2058 0.0
H1240 H 0.85817 0.98109 0.27293 0.0
H1241 H 0.89216 0.08026 0.2475 0.0
H1242 H 0.86468 0.0695 0.23097 0.0
H1243 H 0.89547 0.05175 0.2297 0.0
C1244 C 0.85769 1.00493 0.19484 0.0
C1245 C 0.8764 0.98506 0.19054 0.0
C1246 C 0.85415 0.01466 0.21642 0.0
C1247 C 0.86956 0.00513 0.23414 0.0
C1248 C 0.88714 0.98419 0.23018 0.0
H1249 H 0.8666 0.10794 0.35183 0.0
H1250 H 0.88522 0.07862 0.32335 0.0
C1251 C 0.89051 0.9742 0.20856 0.0
C1252 C 0.86772 0.01769 0.25654 0.0
H1253 H 0.86894 0.0778 0.28226 0.0
C1254 C 0.86085 1.00219 0.27505 0.0
C1255 C 0.87206 0.04508 0.25956 0.0
C1256 C 0.8818 0.06255 0.24092 0.0
C1257 C 0.85658 0.01362 0.29613 0.0
C1258 C 0.85862 0.04138 0.29865 0.0
C1259 C 0.86706 0.05658 0.28043 0.0
C1260 C 0.84958 0.05548 0.3191 0.0
C1261 C 0.84981 0.99577 0.31541 0.0
C1262 C 0.82369 0.05177 0.32681 0.0
C1263 C 0.81318 0.06822 0.34322 0.0
C1264 C 0.82812 0.08917 0.35212 0.0
C1265 C 0.85461 0.09191 0.34546 0.0
C1266 C 0.86521 0.07525 0.32905 0.0
H1267 H 0.8592 0.97609 0.3134 0.0
H1268 H 0.85619 1.00434 0.33157 0.0
H1269 H 0.82812 0.99267 0.31585 0.0
H1270 H 0.8109 0.03724 0.31913 0.0
H1271 H 0.79269 0.06553 0.34787 0.0
H1272 H 0.1958 0.5424 0.09913 0.0
H1273 H 0.22382 0.56012 0.07001 0.0
H1274 H 0.18296 0.63469 0.07396 0.0
H1275 H 0.15382 0.61653 0.10277 0.0
H1276 H 0.18316 0.6183 0.03309 0.0
H1277 H 0.28523 0.60766 0.06326 0.0
H1278 H 0.26846 0.57672 0.066 0.0
H1279 H 0.25724 0.60493 0.08172 0.0
C1280 C 0.19317 0.56285 0.09433 0.0
C1281 C 0.17238 0.57799 0.10325 0.0
C1282 C 0.20947 0.57308 0.0777 0.0
C1283 C 0.20582 0.59889 0.0698 0.0
C1284 C 0.18627 0.61473 0.07979 0.0
H1285 H 0.30242 0.65239 0.95611 0.0
H1286 H 0.28505 0.64644 0.9939 0.0
C1287 C 0.16972 0.6044 0.0964 0.0
C1288 C 0.21971 0.60761 0.04916 0.0
H1289 H 0.2796 0.60627 0.02285 0.0
C1290 C 0.20433 0.61614 0.03105 0.0
C1291 C 0.24741 0.60522 0.04637 0.0
C1292 C 0.2655 0.59842 0.0655 0.0
C1293 C 0.21557 0.62093 0.01006 0.0
C1294 C 0.24287 0.61622 0.00677 0.0
C1295 C 0.25856 0.60922 0.02515 0.0
C1296 C 0.2552 0.61802 0.98428 0.0
C1297 C 0.19794 0.63094 0.9916 0.0
C1298 C 0.24507 0.60316 0.96646 0.0
C1299 C 0.25479 0.60667 0.94486 0.0
C1300 C 0.27528 0.62473 0.94067 0.0
C1301 C 0.28667 0.63827 0.95878 0.0
C1302 C 0.27668 0.63497 0.98038 0.0
H1303 H 0.18055 0.64164 0.99837 0.0
H1304 H 0.20878 0.64439 0.98022 0.0
H1305 H 0.19046 0.61394 0.98179 0.0
H1306 H 0.2291 0.58929 0.96913 0.0
H1307 H 0.24572 0.59576 0.93134 0.0
H1308 H 0.60661 0.05037 0.70529 0.0
H1309 H 0.61393 0.03359 0.74307 0.0
H1310 H 0.6734 0.98033 0.71804 0.0
H1311 H 0.6655 0.99631 0.68026 0.0
H1312 H 0.63887 0.95476 0.74297 0.0
H1313 H 0.67099 0.04442 0.78869 0.0
H1314 H 0.63972 0.04783 0.77488 0.0
H1315 H 0.66923 0.04319 0.75868 0.0
C1316 C 0.62167 0.03552 0.70793 0.0
C1317 C 0.6355 0.0247 0.68977 0.0
C1318 C 0.62588 0.02596 0.72958 0.0
C1319 C 0.64436 0.00578 0.73352 0.0
C1320 C 0.65897 0.99583 0.71548 0.0
H1321 H 0.72052 0.94392 0.84764 0.0
H1322 H 0.70302 0.97153 0.81799 0.0
C1323 C 0.65453 0.00508 0.69387 0.0
C1324 C 0.64733 0.99347 0.75595 0.0
H1325 H 0.66394 0.00588 0.81019 0.0
C1326 C 0.64426 0.96598 0.75769 0.0
C1327 C 0.65435 0.00807 0.77519 0.0
C1328 C 0.65901 0.03747 0.77432 0.0
C1329 C 0.64888 0.95257 0.77779 0.0
C1330 C 0.65588 0.96714 0.79708 0.0
C1331 C 0.65821 0.99474 0.79552 0.0
C1332 C 0.66417 0.95374 0.81806 0.0
C1333 C 0.6476 0.92278 0.77779 0.0
C1334 C 0.64772 0.93548 0.829 0.0
C1335 C 0.65783 0.9193 0.84598 0.0
C1336 C 0.68446 0.92139 0.85244 0.0
C1337 C 0.69999 0.94154 0.84296 0.0
C1338 C 0.68998 0.95744 0.82596 0.0
H1339 H 0.64773 0.91453 0.76063 0.0
H1340 H 0.66451 0.91422 0.78711 0.0
H1341 H 0.62906 0.91632 0.78599 0.0
H1342 H 0.62748 0.93278 0.82365 0.0
H1343 H 0.6453 0.90408 0.85298 0.0
H1344 H 0.41737 0.20336 0.07612 0.0
H1345 H 0.46016 0.22415 0.08222 0.0
H1346 H 0.44287 0.23176 0.15223 0.0
H1347 H 0.39952 0.21108 0.14618 0.0
H1348 H 0.46871 0.27568 0.09983 0.0
H1349 H 0.51767 0.19774 0.15056 0.0
H1350 H 0.48859 0.1912 0.134 0.0
H1351 H 0.48577 0.20898 0.15975 0.0
C1352 C 0.42251 0.20947 0.09284 0.0
C1353 C 0.40479 0.2057 0.11062 0.0
C1354 C 0.44711 0.2213 0.09631 0.0
C1355 C 0.4548 0.22951 0.11766 0.0
C1356 C 0.4375 0.22531 0.13563 0.0
H1357 H 0.59586 0.33185 0.13335 0.0
H1358 H 0.55144 0.31329 0.13938 0.0
C1359 C 0.41273 0.21343 0.13216 0.0
C1360 C 0.48064 0.24316 0.12059 0.0
H1361 H 0.54293 0.23537 0.14171 0.0
C1362 C 0.48483 0.26707 0.10926 0.0
C1363 C 0.50171 0.23181 0.13279 0.0
C1364 C 0.49846 0.20594 0.1449 0.0
C1365 C 0.50964 0.27956 0.10931 0.0
C1366 C 0.53085 0.26792 0.12108 0.0
C1367 C 0.52655 0.24436 0.13287 0.0
C1368 C 0.55818 0.27849 0.11927 0.0
C1369 C 0.5134 0.30448 0.09593 0.0
C1370 C 0.57678 0.26486 0.10637 0.0
C1371 C 0.60192 0.27545 0.10282 0.0
C1372 C 0.60918 0.29983 0.11226 0.0
C1373 C 0.59086 0.31303 0.12591 0.0
C1374 C 0.56549 0.30251 0.12928 0.0
H1375 H 0.49563 0.30958 0.08594 0.0
H1376 H 0.51775 0.32115 0.10736 0.0
H1377 H 0.5305 0.3023 0.0845 0.0
H1378 H 0.57159 0.2463 0.09853 0.0
H1379 H 0.61568 0.26456 0.09254 0.0
H1380 H 0.57763 0.66451 0.38094 0.0
H1381 H 0.55843 0.70878 0.38543 0.0
H1382 H 0.48841 0.68328 0.35052 0.0
H1383 H 0.5077 0.63954 0.34566 0.0
H1384 H 0.50648 0.7275 0.33324 0.0
H1385 H 0.5017 0.73948 0.42494 0.0
H1386 H 0.53411 0.73139 0.41495 0.0
H1387 H 0.50766 0.70796 0.41183 0.0
C1388 C 0.55797 0.66832 0.37461 0.0
C1389 C 0.54429 0.64863 0.36277 0.0
C1390 C 0.54693 0.69359 0.37725 0.0
C1391 C 0.52181 0.69944 0.36846 0.0
C1392 C 0.50782 0.6794 0.3574 0.0
H1393 H 0.42691 0.84382 0.38285 0.0
H1394 H 0.44514 0.79902 0.3872 0.0
C1395 C 0.51892 0.65438 0.35455 0.0
C1396 C 0.51081 0.7268 0.36894 0.0
H1397 H 0.49371 0.77814 0.40314 0.0
C1398 C 0.5036 0.73845 0.34858 0.0
C1399 C 0.50671 0.74113 0.38893 0.0
C1400 C 0.5127 0.72929 0.41143 0.0
C1401 C 0.49277 0.76393 0.34758 0.0
C1402 C 0.48962 0.77868 0.36745 0.0
C1403 C 0.49637 0.76696 0.3879 0.0
C1404 C 0.47975 0.8064 0.36699 0.0
C1405 C 0.48442 0.77465 0.32518 0.0
C1406 C 0.49355 0.82567 0.35489 0.0
C1407 C 0.48312 0.85101 0.35229 0.0
C1408 C 0.45877 0.85789 0.36195 0.0
C1409 C 0.44567 0.83909 0.37519 0.0
C1410 C 0.45606 0.81351 0.37765 0.0
H1411 H 0.48099 0.75856 0.31292 0.0
H1412 H 0.46608 0.78656 0.32658 0.0
H1413 H 0.5003 0.78752 0.31853 0.0
H1414 H 0.51219 0.82092 0.34701 0.0
H1415 H 0.49405 0.86521 0.34246 0.0
H1416 H 0.91148 0.7108 0.57634 0.0
H1417 H 0.95456 0.73092 0.58239 0.0
H1418 H 0.94197 0.72893 0.65337 0.0
H1419 H 0.8982 0.70905 0.64743 0.0
H1420 H 0.96285 0.78072 0.60596 0.0
H1421 H 0.0177 0.69639 0.64354 0.0
H1422 H 0.98813 0.69156 0.62716 0.0
H1423 H 0.9858 0.70469 0.65483 0.0
C1424 C 0.91767 0.71466 0.59329 0.0
C1425 C 0.90107 0.70852 0.61138 0.0
C1426 C 0.94247 0.72607 0.59671 0.0
C1427 C 0.95156 0.73144 0.61831 0.0
C1428 C 0.93548 0.72473 0.63654 0.0
H1429 H 0.10941 0.7997 0.64692 0.0
H1430 H 0.06444 0.78259 0.6528 0.0
C1431 C 0.91047 0.71331 0.63312 0.0
C1432 C 0.97737 0.74513 0.62125 0.0
H1433 H 0.04175 0.73525 0.63646 0.0
C1434 C 0.98003 0.77087 0.61287 0.0
C1435 C 0.99974 0.73241 0.63044 0.0
C1436 C 0.99797 0.70468 0.63945 0.0
C1437 C 1.00454 0.78391 0.6128 0.0
C1438 C 0.02725 0.77067 0.62085 0.0
C1439 C 0.02439 0.74538 0.63021 0.0
C1440 C 0.05429 0.78179 0.61777 0.0
C1441 C 0.00591 0.81169 0.60382 0.0
C1442 C 0.06362 0.78692 0.5962 0.0
C1443 C 0.0891 0.79671 0.59283 0.0
C1444 C 0.10614 0.80148 0.61094 0.0
C1445 C 0.09675 0.79651 0.63262 0.0
C1446 C 0.07112 0.78656 0.63599 0.0
H1447 H 0.98655 0.82187 0.60527 0.0
H1448 H 0.02108 0.82353 0.61271 0.0
H1449 H 0.0112 0.81101 0.58589 0.0
H1450 H 0.05125 0.78301 0.58183 0.0
H1451 H 0.09544 0.80055 0.57593 0.0
H1452 H 0.95521 0.34393 0.82494 0.0
H1453 H 0.97585 0.30106 0.8309 0.0
H1454 H 0.98424 0.31842 0.90086 0.0
H1455 H 0.96365 0.36181 0.89495 0.0
H1456 H 0.02729 0.2922 0.84776 0.0
H1457 H 0.95036 0.24386 0.89993 0.0
H1458 H 0.94364 0.27304 0.88359 0.0
H1459 H 0.96205 0.27562 0.90905 0.0
C1460 C 0.96144 0.33876 0.84162 0.0
C1461 C 0.95791 0.35652 0.85943 0.0
C1462 C 0.97319 0.31413 0.84501 0.0
C1463 C 0.98159 0.30643 0.86632 0.0
C1464 C 0.97763 0.32377 0.88431 0.0
H1465 H 0.08355 0.16538 0.88305 0.0
H1466 H 0.06488 0.20979 0.88873 0.0
C1467 C 0.96581 0.34857 0.88091 0.0
C1468 C 0.99523 0.28057 0.86915 0.0
H1469 H 0.98792 0.21855 0.89089 0.0
C1470 C 0.01887 0.27621 0.85745 0.0
C1471 C 0.98415 0.25965 0.88169 0.0
C1472 C 0.95856 0.26303 0.8942 0.0
C1473 C 0.03135 0.25141 0.85752 0.0
C1474 C 0.02 0.23037 0.86965 0.0
C1475 C 0.9967 0.23481 0.88177 0.0
C1476 C 0.03061 0.20307 0.86794 0.0
C1477 C 0.05601 0.24746 0.84382 0.0
C1478 C 0.01733 0.18451 0.85471 0.0
C1479 C 0.02799 0.15937 0.85135 0.0
C1480 C 0.0521 0.15206 0.8613 0.0
C1481 C 0.06494 0.17038 0.87523 0.0
C1482 C 0.05435 0.19575 0.87841 0.0
H1483 H 0.06127 0.26529 0.83402 0.0
H1484 H 0.07278 0.24256 0.855 0.0
H1485 H 0.05328 0.23061 0.8322 0.0
H1486 H 0.99899 0.18971 0.84651 0.0
H1487 H 0.01735 0.14563 0.84084 0.0
H1488 H 0.59296 0.81144 0.93078 0.0
H1489 H 0.54978 0.79167 0.92446 0.0
H1490 H 0.56726 0.78407 0.85445 0.0
H1491 H 0.61123 0.80314 0.86084 0.0
H1492 H 0.50851 0.80752 0.8983 0.0
H1493 H 0.54481 0.70911 0.87074 0.0
H1494 H 0.56618 0.73314 0.88373 0.0
H1495 H 0.5566 0.73696 0.8551 0.0
C1496 C 0.58784 0.80538 0.91403 0.0
C1497 C 0.60585 0.80859 0.89638 0.0
C1498 C 0.56297 0.79422 0.91041 0.0
C1499 C 0.55534 0.78591 0.88905 0.0
C1500 C 0.57287 0.7898 0.87118 0.0
H1501 H 0.40063 0.71036 0.86009 0.0
H1502 H 0.44382 0.73143 0.85411 0.0
C1503 C 0.5979 0.80102 0.87481 0.0
C1504 C 0.52898 0.77326 0.88595 0.0
H1505 H 0.49873 0.7146 0.87346 0.0
C1506 C 0.5064 0.7873 0.89262 0.0
C1507 C 0.52612 0.74684 0.8785 0.0
C1508 C 0.54967 0.73047 0.87175 0.0
C1509 C 0.48129 0.77547 0.8927 0.0
C1510 C 0.4786 0.74882 0.88609 0.0
C1511 C 0.50089 0.73505 0.87848 0.0
C1512 C 0.45327 0.73442 0.88916 0.0
C1513 C 0.45782 0.79135 0.90044 0.0
C1514 C 0.44464 0.72849 0.91076 0.0
C1515 C 0.42025 0.71631 0.91422 0.0
C1516 C 0.40369 0.70982 0.89615 0.0
C1517 C 0.41281 0.71496 0.8744 0.0
C1518 C 0.43744 0.72711 0.87094 0.0
H1519 H 0.46195 0.81289 0.90022 0.0
H1520 H 0.44032 0.78731 0.8898 0.0
H1521 H 0.45282 0.78559 0.91777 0.0
H1522 H 0.45673 0.7336 0.92504 0.0
H1523 H 0.41433 0.71212 0.93117 0.0
H1524 H 0.45627 0.34553 0.67979 0.0
H1525 H 0.47483 0.30185 0.67346 0.0
H1526 H 0.47516 0.31611 0.60264 0.0
H1527 H 0.45716 0.36056 0.60897 0.0
H1528 H 0.45524 0.25976 0.64948 0.0
H1529 H 0.55149 0.2929 0.61452 0.0
H1530 H 0.52934 0.31518 0.62871 0.0
H1531 H 0.52231 0.30484 0.60071 0.0
C1532 C 0.46048 0.3396 0.66285 0.0
C1533 C 0.45551 0.35683 0.64492 0.0
C1534 C 0.47096 0.31445 0.65924 0.0
C1535 C 0.47685 0.30574 0.63761 0.0
C1536 C 0.47128 0.32253 0.61953 0.0
H1537 H 0.54917 0.14955 0.6085 0.0
H1538 H 0.52842 0.19292 0.60259 0.0
C1539 C 0.46069 0.34784 0.62315 0.0
C1540 C 0.48869 0.27902 0.63446 0.0
H1541 H 0.54558 0.24715 0.61934 0.0
C1542 C 0.47488 0.25702 0.64264 0.0
C1543 C 0.51432 0.27533 0.62548 0.0
C1544 C 0.53041 0.29826 0.61697 0.0
C1545 C 0.48622 0.2317 0.64274 0.0
C1546 C 0.51221 0.22819 0.63465 0.0
C1547 C 0.52565 0.24989 0.62553 0.0
C1548 C 0.52642 0.20271 0.63763 0.0
C1549 C 0.47049 0.20889 0.65197 0.0
C1550 C 0.53289 0.19419 0.65917 0.0
C1551 C 0.54487 0.16969 0.66257 0.0
C1552 C 0.55066 0.1529 0.64451 0.0
C1553 C 0.54507 0.1619 0.62279 0.0
C1554 C 0.5331 0.18665 0.61939 0.0
H1555 H 0.44899 0.21326 0.65224 0.0
H1556 H 0.47384 0.19071 0.64202 0.0
H1557 H 0.47695 0.20493 0.66933 0.0
H1558 H 0.52838 0.20646 0.67346 0.0
H1559 H 0.54945 0.16387 0.67948 0.0
H1560 H 0.10957 0.30061 0.35924 0.0
H1561 H 0.06479 0.2829 0.35356 0.0
H1562 H 0.05206 0.28357 0.42457 0.0
H1563 H 0.096 0.30179 0.43026 0.0
H1564 H 0.04309 0.2357 0.36945 0.0
H1565 H 0.9863 0.32046 0.40198 0.0
H1566 H 0.02078 0.32299 0.39464 0.0
H1567 H 0.01115 0.3099 0.42132 0.0
C1568 C 0.09703 0.29739 0.37358 0.0
C1569 C 0.1065 0.3026 0.39522 0.0
C1570 C 0.07151 0.28709 0.37033 0.0
C1571 C 0.05485 0.28219 0.38862 0.0
C1572 C 0.06425 0.2876 0.41014 0.0
H1573 H 0.91597 0.20436 0.43049 0.0
H1574 H 0.9583 0.22591 0.42419 0.0
C1575 C 0.08961 0.29777 0.41339 0.0
C1576 C 0.02801 0.27048 0.38568 0.0
H1577 H 0.96364 0.27859 0.40146 0.0
C1578 C 0.0256 0.24529 0.37602 0.0
C1579 C 1.00511 0.283 0.39414 0.0
C1580 C 0.00588 0.3107 0.40338 0.0
C1581 C 1.00127 0.23174 0.37586 0.0
C1582 C 0.97879 0.2437 0.38551 0.0
C1583 C 0.98094 0.26933 0.39421 0.0
C1584 C 0.95343 0.22926 0.38854 0.0
C1585 C 0.99994 0.20419 0.36642 0.0
C1586 C 0.93658 0.22371 0.37051 0.0
C1587 C 0.91198 0.21152 0.37408 0.0
C1588 C 0.90378 0.20474 0.39578 0.0
C1589 C 0.92119 0.20973 0.41362 0.0
C1590 C 0.94557 0.22195 0.41005 0.0
H1591 H 0.01965 0.19678 0.36121 0.0
H1592 H 0.99155 0.19044 0.37897 0.0
H1593 H 0.98664 0.20401 0.35172 0.0
H1594 H 0.94218 0.22936 0.35376 0.0
H1595 H 0.8991 0.2082 0.35996 0.0
H1596 H 0.01703 0.64355 0.16394 0.0
H1597 H 0.99766 0.68721 0.15883 0.0
H1598 H 0.06484 0.71058 0.1193 0.0
H1599 H 0.08406 0.66633 0.12405 0.0
H1600 H 0.0171 0.73203 0.1736 0.0
H1601 H 0.00533 0.73988 0.08203 0.0
H1602 H 0.01224 0.70895 0.09579 0.0
H1603 H 0.03843 0.73213 0.09054 0.0
C1604 C 0.02759 0.6579 0.154 0.0
C1605 C 0.05219 0.65156 0.14454 0.0
C1606 C 0.01645 0.68288 0.15101 0.0
C1607 C 0.02962 0.7023 0.13857 0.0
C1608 C 0.05394 0.69585 0.12858 0.0
H1609 H 1.00318 0.86928 0.16081 0.0
H1610 H 0.02129 0.82489 0.15678 0.0
C1611 C 0.065 0.67061 0.13137 0.0
C1612 C 0.01871 0.72969 0.1378 0.0
H1613 H 0.99899 0.77948 0.10295 0.0
C1614 C 0.01307 0.74229 0.15811 0.0
C1615 C 0.01309 0.74312 0.11762 0.0
C1616 C 0.01733 0.73026 0.09525 0.0
C1617 C 1.0023 0.76781 0.15887 0.0
C1618 C 0.99762 0.78165 0.13875 0.0
C1619 C 1.00283 0.76901 0.11837 0.0
C1620 C 0.98764 0.80935 0.13883 0.0
C1621 C 0.99561 0.77951 0.1813 0.0
C1622 C 0.96321 0.81588 0.12909 0.0
C1623 C 0.95284 0.84149 0.13123 0.0
C1624 C 0.96669 0.86094 0.14324 0.0
C1625 C 0.99171 0.8546 0.15195 0.0
C1626 C 1.00211 0.8292 0.14965 0.0
H1627 H 0.99315 0.76399 0.19421 0.0
H1628 H 0.01192 0.79268 0.18671 0.0
H1629 H 0.97717 0.79134 0.18048 0.0
H1630 H 0.95175 0.80093 0.12052 0.0
H1631 H 0.93355 0.84578 0.12433 0.0
H1632 H 0.20988 0.1995 0.11834 0.0
H1633 H 0.18675 0.24183 0.11551 0.0
H1634 H 0.26132 0.28176 0.10692 0.0
H1635 H 0.28442 0.2396 0.10892 0.0
H1636 H 0.18968 0.28409 0.14181 0.0
H1637 H 0.21989 0.31299 0.05673 0.0
H1638 H 0.22504 0.28012 0.06743 0.0
H1639 H 0.24793 0.30623 0.07406 0.0
C1640 C 0.22129 0.21727 0.11546 0.0
C1641 C 0.24896 0.21617 0.11362 0.0
C1642 C 0.20806 0.24144 0.11395 0.0
C1643 C 0.22225 0.26495 0.11066 0.0
C1644 C 0.24986 0.26385 0.10882 0.0
H1645 H 0.17238 0.42494 0.14173 0.0
H1646 H 0.18788 0.37907 0.14382 0.0
C1647 C 0.26306 0.2397 0.11004 0.0
C1648 C 0.20837 0.29075 0.11006 0.0
H1649 H 0.20249 0.34737 0.07975 0.0
C1650 C 0.19221 0.29784 0.12812 0.0
C1651 C 0.21136 0.30854 0.09207 0.0
C1652 C 0.22677 0.30147 0.07138 0.0
C1653 C 0.17949 0.32248 0.12893 0.0
C1654 C 0.18369 0.34083 0.1115 0.0
C1655 C 0.19941 0.33346 0.09324 0.0
C1656 C 0.1721 0.3678 0.11159 0.0
C1657 C 0.16141 0.32833 0.14827 0.0
C1658 C 0.1583 0.37687 0.09279 0.0
C1659 C 0.15013 0.40311 0.09141 0.0
C1660 C 0.15524 0.42074 0.10893 0.0
C1661 C 0.16796 0.41152 0.12818 0.0
C1662 C 0.17667 0.38531 0.12939 0.0
H1663 H 0.15357 0.30988 0.15579 0.0
H1664 H 0.17268 0.33893 0.16138 0.0
H1665 H 0.14449 0.34086 0.14309 0.0
H1666 H 0.15446 0.3638 0.07886 0.0
H1667 H 0.14022 0.40984 0.07646 0.0
H1668 H 0.34415 0.41236 0.32329 0.0
H1669 H 0.39036 0.42484 0.32689 0.0
H1670 H 0.38542 0.41552 0.3982 0.0
H1671 H 0.33856 0.40385 0.39476 0.0
H1672 H 0.4077 0.46218 0.38651 0.0
H1673 H 0.45584 0.38184 0.33931 0.0
H1674 H 0.43013 0.39724 0.32338 0.0
H1675 H 0.42199 0.37982 0.34862 0.0
C1676 C 0.3528 0.41292 0.33977 0.0
C1677 C 0.33753 0.40732 0.35877 0.0
C1678 C 0.37941 0.41968 0.34176 0.0
C1679 C 0.39151 0.4207 0.36277 0.0
C1680 C 0.37653 0.41461 0.38179 0.0
H1681 H 0.5601 0.45748 0.37756 0.0
H1682 H 0.51757 0.43442 0.37759 0.0
C1683 C 0.3498 0.40783 0.3798 0.0
C1684 C 0.41911 0.4303 0.3648 0.0
H1685 H 0.48129 0.42178 0.3439 0.0
C1686 C 0.42386 0.45311 0.37745 0.0
C1687 C 0.4403 0.41829 0.35322 0.0
C1688 C 0.43688 0.39278 0.34057 0.0
C1689 C 0.44891 0.46495 0.37798 0.0
C1690 C 0.46962 0.45399 0.36514 0.0
C1691 C 0.46525 0.43044 0.35338 0.0
C1692 C 0.49573 0.46707 0.36344 0.0
C1693 C 0.45295 0.48918 0.39223 0.0
C1694 C 0.4977 0.49267 0.35467 0.0
C1695 C 0.52191 0.50589 0.35461 0.0
C1696 C 0.54469 0.49367 0.36317 0.0
C1697 C 0.54293 0.46747 0.37085 0.0
C1698 C 0.51864 0.45428 0.37095 0.0
H1699 H 0.43787 0.49055 0.40562 0.0
H1700 H 0.47286 0.48918 0.40001 0.0
H1701 H 0.45118 0.50706 0.38166 0.0
H1702 H 0.48035 0.50266 0.34829 0.0
H1703 H 0.52258 0.52598 0.34844 0.0
H1704 H 0.30019 0.80997 0.62961 0.0
H1705 H 0.32382 0.76779 0.62804 0.0
H1706 H 0.25739 0.73227 0.59448 0.0
H1707 H 0.23367 0.7742 0.59592 0.0
H1708 H 0.30514 0.71963 0.64747 0.0
H1709 H 0.32149 0.7096 0.55656 0.0
H1710 H 0.31398 0.74084 0.56963 0.0
H1711 H 0.28803 0.71759 0.5638 0.0
C1712 C 0.2908 0.79331 0.62152 0.0
C1713 C 0.26505 0.79545 0.61284 0.0
C1714 C 0.3043 0.76921 0.62074 0.0
C1715 C 0.29244 0.747 0.61099 0.0
C1716 C 0.26706 0.74929 0.60177 0.0
H1717 H 0.30784 0.58203 0.59462 0.0
H1718 H 0.2962 0.62863 0.59674 0.0
C1719 C 0.2535 0.77327 0.60267 0.0
C1720 C 0.30567 0.72093 0.61161 0.0
H1721 H 0.3256 0.6702 0.57826 0.0
C1722 C 0.31006 0.70892 0.63238 0.0
C1723 C 0.31208 0.70711 0.5919 0.0
C1724 C 0.30891 0.71951 0.5692 0.0
C1725 C 0.31933 0.68282 0.6339 0.0
C1726 C 0.32468 0.66862 0.61412 0.0
C1727 C 0.32135 0.68109 0.59341 0.0
C1728 C 0.33169 0.6402 0.6143 0.0
C1729 C 0.32205 0.6702 0.65655 0.0
C1730 C 0.35542 0.63113 0.62373 0.0
C1731 C 0.36216 0.60431 0.62253 0.0
C1732 C 0.34539 0.58629 0.61167 0.0
C1733 C 0.32141 0.59546 0.60274 0.0
C1734 C 0.31468 0.62209 0.604 0.0
H1735 H 0.31262 0.6822 0.66985 0.0
H1736 H 0.31306 0.6502 0.65659 0.0
H1737 H 0.34331 0.66804 0.66066 0.0
H1738 H 0.36901 0.64486 0.6315 0.0
H1739 H 0.38086 0.59786 0.62938 0.0
H1740 H 0.95428 0.54939 0.87708 0.0
H1741 H 0.99705 0.57177 0.87502 0.0
H1742 H 0.031 0.50309 0.84374 0.0
H1743 H 0.98837 0.48053 0.84568 0.0
H1744 H 0.04461 0.55228 0.89535 0.0
H1745 H 0.05519 0.56545 0.80401 0.0
H1746 H 0.02372 0.55925 0.81719 0.0
H1747 H 0.0464 0.53256 0.81239 0.0
C1748 C 0.97072 0.53919 0.8694 0.0
C1749 C 0.96791 0.51317 0.8615 0.0
C1750 C 0.99515 0.55199 0.86833 0.0
C1751 C 0.01708 0.53915 0.8591 0.0
C1752 C 0.01419 0.51348 0.85064 0.0
H1753 H 0.18269 0.55877 0.84199 0.0
H1754 H 0.13661 0.54505 0.84413 0.0
C1755 C 0.98982 0.5006 0.85181 0.0
C1756 C 0.04342 0.55184 0.85949 0.0
H1757 H 0.094 0.5715 0.82589 0.0
C1758 C 0.05535 0.55683 0.8802 0.0
C1759 C 0.05726 0.55772 0.83969 0.0
C1760 C 0.04494 0.55372 0.81704 0.0
C1761 C 0.08133 0.56645 0.88162 0.0
C1762 C 0.09546 0.57164 0.86177 0.0
C1763 C 0.08315 0.56742 0.84109 0.0
C1764 C 0.12357 0.57983 0.86191 0.0
C1765 C 0.09382 0.56988 0.90427 0.0
C1766 C 0.13164 0.60386 0.87143 0.0
C1767 C 0.15814 0.61176 0.87027 0.0
C1768 C 0.17683 0.59589 0.8593 0.0
C1769 C 0.16869 0.57164 0.85021 0.0
C1770 C 0.14237 0.56372 0.85148 0.0
H1771 H 0.08236 0.55974 0.91754 0.0
H1772 H 0.11432 0.5621 0.90436 0.0
H1773 H 0.09466 0.59121 0.9084 0.0
H1774 H 0.11736 0.6168 0.87925 0.0
H1775 H 0.16383 0.63065 0.87722 0.0
H1776 H 0.8007 0.80835 0.89045 0.0
H1777 H 0.82232 0.76518 0.89192 0.0
H1778 H 0.74637 0.72742 0.89876 0.0
H1779 H 0.72474 0.77047 0.89813 0.0
H1780 H 0.78093 0.70535 0.92551 0.0
H1781 H 0.82529 0.71323 0.84145 0.0
H1782 H 0.83542 0.73949 0.8596 0.0
H1783 H 0.80125 0.73652 0.85167 0.0
C1784 C 0.78864 0.79085 0.89251 0.0
C1785 C 0.76101 0.79282 0.89411 0.0
C1786 C 0.801 0.76617 0.89308 0.0
C1787 C 0.78592 0.743 0.89482 0.0
C1788 C 0.75841 0.74501 0.89722 0.0
H1789 H 0.83822 0.58281 0.86467 0.0
H1790 H 0.8202 0.62784 0.86267 0.0
C1791 C 0.74607 0.76966 0.89695 0.0
C1792 C 0.79867 0.71661 0.89434 0.0
H1793 H 0.83944 0.67694 0.86374 0.0
C1794 C 0.79366 0.69913 0.91197 0.0
C1795 C 0.81482 0.70825 0.87641 0.0
C1796 C 0.8193 0.72524 0.8561 0.0
C1797 C 0.80458 0.6737 0.91234 0.0
C1798 C 0.82188 0.66583 0.89502 0.0
C1799 C 0.82656 0.68313 0.87719 0.0
C1800 C 0.83494 0.6396 0.89509 0.0
C1801 C 0.79682 0.65533 0.93105 0.0
C1802 C 0.85012 0.63166 0.91348 0.0
C1803 C 0.85994 0.60598 0.91474 0.0
C1804 C 0.85544 0.58799 0.89736 0.0
C1805 C 0.84193 0.59643 0.87822 0.0
C1806 C 0.83162 0.62206 0.87713 0.0
H1807 H 0.77762 0.66111 0.93855 0.0
H1808 H 0.79526 0.63461 0.92516 0.0
H1809 H 0.812 0.65625 0.94437 0.0
H1810 H 0.85378 0.64511 0.92717 0.0
H1811 H 0.87068 0.59995 0.9295 0.0
H1812 H 0.67756 0.55882 0.66273 0.0
H1813 H 0.63115 0.5463 0.66056 0.0
H1814 H 0.61351 0.61908 0.62636 0.0
H1815 H 0.66031 0.63176 0.62848 0.0
H1816 H 0.58911 0.57394 0.6792 0.0
H1817 H 0.57712 0.56308 0.58745 0.0
H1818 H 0.60915 0.5643 0.60066 0.0
H1819 H 0.59035 0.59403 0.59698 0.0
C1820 C 0.66385 0.57218 0.65472 0.0
C1821 C 0.67257 0.59637 0.64592 0.0
C1822 C 0.63733 0.56495 0.65343 0.0
C1823 C 0.61888 0.58169 0.64325 0.0
C1824 C 0.6275 0.60567 0.634 0.0
H1825 H 0.44919 0.55059 0.62764 0.0
H1826 H 0.49165 0.57369 0.62958 0.0
C1827 C 0.6542 0.6129 0.6352 0.0
C1828 C 0.59057 0.57414 0.64333 0.0
H1829 H 0.53956 0.55524 0.60964 0.0
C1830 C 0.57821 0.57003 0.66398 0.0
C1831 C 0.57636 0.56921 0.62346 0.0
C1832 C 0.58888 0.57266 0.60084 0.0
C1833 C 0.55224 0.56052 0.66532 0.0
C1834 C 0.53837 0.55468 0.64549 0.0
C1835 C 0.55031 0.55973 0.62481 0.0
C1836 C 0.5122 0.54161 0.64584 0.0
C1837 C 0.53993 0.55657 0.68796 0.0
C1838 C 0.50969 0.51599 0.65448 0.0
C1839 C 0.48554 0.50272 0.65338 0.0
C1840 C 0.46341 0.51482 0.64357 0.0
C1841 C 0.46581 0.54077 0.63544 0.0
C1842 C 0.49006 0.55397 0.63643 0.0
H1843 H 0.54995 0.56864 0.70091 0.0
H1844 H 0.51861 0.56174 0.68772 0.0
H1845 H 0.54176 0.53551 0.69279 0.0
H1846 H 0.52666 0.50594 0.6615 0.0
H1847 H 0.48441 0.48272 0.6597 0.0
H1848 H 0.71064 0.20227 0.37975 0.0
H1849 H 0.68962 0.24576 0.37961 0.0
H1850 H 0.76079 0.28043 0.40613 0.0
H1851 H 0.78212 0.23715 0.40612 0.0
H1852 H 0.68066 0.28384 0.41329 0.0
H1853 H 0.74809 0.32121 0.34771 0.0
H1854 H 0.74508 0.28656 0.35429 0.0
H1855 H 0.76498 0.30781 0.37148 0.0
C1856 C 0.72174 0.21908 0.38584 0.0
C1857 C 0.74817 0.21628 0.39276 0.0
C1858 C 0.70968 0.24392 0.38569 0.0
C1859 C 0.72387 0.26635 0.39237 0.0
C1860 C 0.74972 0.26341 0.40043 0.0
H1861 H 0.70325 0.43103 0.41051 0.0
H1862 H 0.71726 0.38508 0.40728 0.0
C1863 C 0.76181 0.23862 0.40058 0.0
C1864 C 0.71199 0.29296 0.39033 0.0
H1865 H 0.72155 0.35329 0.36628 0.0
C1866 C 0.68937 0.29897 0.40284 0.0
C1867 C 0.72325 0.31251 0.37643 0.0
C1868 C 0.74653 0.30669 0.36153 0.0
C1869 C 0.67848 0.32449 0.40265 0.0
C1870 C 0.69043 0.34428 0.38946 0.0
C1871 C 0.7125 0.33803 0.37641 0.0
C1872 C 0.68175 0.37214 0.39048 0.0
C1873 C 0.65496 0.33045 0.41721 0.0
C1874 C 0.65731 0.38013 0.3817 0.0
C1875 C 0.64924 0.40651 0.3835 0.0
C1876 C 0.66545 0.42513 0.39424 0.0
C1877 C 0.69015 0.41705 0.4025 0.0
C1878 C 0.69825 0.39086 0.40056 0.0
H1879 H 0.65009 0.3138 0.42854 0.0
H1880 H 0.65874 0.34837 0.42739 0.0
H1881 H 0.6375 0.33447 0.40654 0.0
H1882 H 0.64445 0.36595 0.37364 0.0
H1883 H 0.63008 0.41219 0.37707 0.0
H1884 H 0.8514 0.38925 0.17787 0.0
H1885 H 0.89695 0.40521 0.17549 0.0
H1886 H 0.8796 0.44094 0.11186 0.0
H1887 H 0.83421 0.42373 0.11385 0.0
H1888 H 0.9284 0.42135 0.11208 0.0
H1889 H 0.9141 0.48055 0.18863 0.0
H1890 H 0.90897 0.44605 0.19363 0.0
H1891 H 0.88724 0.46363 0.17503 0.0
C1892 C 0.85753 0.40022 0.16328 0.0
C1893 C 0.83943 0.40557 0.14614 0.0
C1894 C 0.88341 0.4095 0.16199 0.0
C1895 C 0.89144 0.42505 0.14387 0.0
C1896 C 0.87376 0.42921 0.12612 0.0
H1897 H 0.02236 0.53466 0.1486 0.0
H1898 H 0.97944 0.51284 0.14892 0.0
C1899 C 0.84793 0.41938 0.1272 0.0
C1900 C 0.91786 0.4378 0.14394 0.0
H1901 H 0.95811 0.47734 0.17514 0.0
C1902 C 0.93488 0.43366 0.12582 0.0
C1903 C 0.9261 0.45439 0.16165 0.0
C1904 C 0.90803 0.46167 0.1807 0.0
C1905 C 0.96007 0.4453 0.1251 0.0
C1906 C 0.96878 0.46074 0.14338 0.0
C1907 C 0.95161 0.46514 0.16132 0.0
C1908 C 0.99515 0.47354 0.14386 0.0
C1909 C 0.97673 0.44157 0.10449 0.0
C1910 C 0.01838 0.45864 0.14154 0.0
C1911 C 0.04302 0.47113 0.14117 0.0
C1912 C 0.04488 0.49869 0.14351 0.0
C1913 C 0.02166 0.51339 0.14684 0.0
C1914 C 0.99707 0.50094 0.14694 0.0
H1915 H 0.9645 0.43599 0.08984 0.0
H1916 H 0.98785 0.45983 0.10037 0.0
H1917 H 0.99115 0.42546 0.10744 0.0
H1918 H 0.01745 0.43739 0.13983 0.0
H1919 H 0.06056 0.45925 0.13868 0.0
H1920 H 0.77615 0.7375 0.60019 0.0
H1921 H 0.75304 0.77982 0.59973 0.0
H1922 H 0.68405 0.74295 0.62808 0.0
H1923 H 0.70689 0.70035 0.62833 0.0
H1924 H 0.67192 0.77868 0.59444 0.0
H1925 H 0.74 0.82316 0.65623 0.0
H1926 H 0.75688 0.80976 0.6325 0.0
H1927 H 0.73893 0.78812 0.65081 0.0
C1928 C 0.75596 0.73828 0.60611 0.0
C1929 C 0.74344 0.71556 0.61446 0.0
C1930 C 0.74286 0.76255 0.606 0.0
C1931 C 0.71708 0.76464 0.61439 0.0
C1932 C 0.70405 0.7418 0.62174 0.0
H1933 H 0.6532 0.92195 0.64393 0.0
H1934 H 0.6653 0.87531 0.64783 0.0
C1935 C 0.71712 0.71746 0.62181 0.0
C1936 C 0.70397 0.79077 0.61573 0.0
H1937 H 0.71184 0.853 0.63653 0.0
C1938 C 0.68048 0.79489 0.6038 0.0
C1939 C 0.71478 0.81169 0.62843 0.0
C1940 C 0.73888 0.80795 0.64292 0.0
C1941 C 0.66824 0.81977 0.60334 0.0
C1942 C 0.68012 0.84117 0.61476 0.0
C1943 C 0.70289 0.83669 0.62757 0.0
C1944 C 0.67039 0.86868 0.61246 0.0
C1945 C 0.64275 0.82286 0.59058 0.0
C1946 C 0.66917 0.88043 0.59133 0.0
C1947 C 0.66212 0.90691 0.58906 0.0
C1948 C 0.65643 0.92244 0.60791 0.0
C1949 C 0.65722 0.91053 0.62907 0.0
C1950 C 0.66426 0.88392 0.63133 0.0
H1951 H 0.63186 0.80385 0.58953 0.0
H1952 H 0.62971 0.83785 0.5984 0.0
H1953 H 0.64725 0.82928 0.57331 0.0
H1954 H 0.67437 0.8693 0.57656 0.0
H1955 H 0.66137 0.91526 0.57249 0.0
H1956 H 0.8349 0.92147 0.89086 0.0
H1957 H 0.88015 0.93889 0.89333 0.0
H1958 H 0.89871 0.90262 0.83018 0.0
H1959 H 0.85332 0.88635 0.82733 0.0
H1960 H 0.92907 0.91918 0.89384 0.0
H1961 H 0.91584 0.97803 0.81692 0.0
H1962 H 0.88881 0.96115 0.83026 0.0
H1963 H 0.9109 0.94347 0.81207 0.0
C1964 C 0.84884 0.91704 0.87772 0.0
C1965 C 0.84071 0.90297 0.85877 0.0
C1966 C 0.8746 0.927 0.87907 0.0
C1967 C 0.8926 0.92273 0.8616 0.0
C1968 C 0.88493 0.90698 0.84347 0.0
H1969 H 0.06146 0.95899 0.86938 0.0
H1970 H 0.01873 0.9364 0.86774 0.0
C1971 C 0.85912 0.89753 0.84192 0.0
C1972 C 0.91898 0.93555 0.86184 0.0
H1973 H 0.95951 0.97537 0.83123 0.0
C1974 C 0.93572 0.93154 0.88019 0.0
C1975 C 0.92745 0.95215 0.84423 0.0
C1976 C 0.9097 0.95921 0.82489 0.0
C1977 C 0.9608 0.94337 0.88129 0.0
C1978 C 0.96972 0.95892 0.86317 0.0
C1979 C 0.95286 0.96312 0.84495 0.0
C1980 C 0.99591 0.97215 0.86315 0.0
C1981 C 0.97711 0.93972 0.90213 0.0
C1982 C 0.99745 0.99956 0.85998 0.0
C1983 C 0.02183 0.0124 0.86036 0.0
C1984 C 0.04522 0.99812 0.86408 0.0
C1985 C 0.04377 0.97056 0.86662 0.0
C1986 C 0.01933 0.95766 0.86594 0.0
H1987 H 0.96466 0.93398 0.91658 0.0
H1988 H 0.99172 0.92374 0.89935 0.0
H1989 H 0.98798 0.95806 0.90646 0.0
H1990 H 0.97967 0.01115 0.85766 0.0
H1991 H 0.02222 0.03366 0.85844 0.0
H1992 H 0.88066 0.09715 0.12732 0.0
H1993 H 0.86623 0.14336 0.13083 0.0
H1994 H 0.79303 0.12395 0.09791 0.0
H1995 H 0.80709 0.07806 0.09462 0.0
H1996 H 0.85049 0.17779 0.09362 0.0
H1997 H 0.77066 0.16339 0.15568 0.0
H1998 H 0.79691 0.13971 0.15161 0.0
H1999 H 0.76944 0.14078 0.13263 0.0
C2000 C 0.86136 0.10275 0.12115 0.0
C2001 C 0.84503 0.08404 0.11064 0.0
C2002 C 0.85323 0.1291 0.12303 0.0
C2003 C 0.82849 0.13695 0.11477 0.0
C2004 C 0.81207 0.11822 0.10459 0.0
H2005 H 0.73024 0.27252 0.09784 0.0
H2006 H 0.75202 0.2295 0.09718 0.0
C2007 C 0.82023 0.09205 0.10256 0.0
C2008 C 0.81986 0.16482 0.11592 0.0
H2009 H 0.77024 0.20395 0.13553 0.0
C2010 C 0.83318 0.18369 0.10301 0.0
C2011 C 0.79725 0.17232 0.12816 0.0
C2012 C 0.78283 0.15307 0.14298 0.0
C2013 C 0.82372 0.2097 0.10123 0.0
C2014 C 0.8006 0.21696 0.11293 0.0
C2015 C 0.78782 0.19826 0.1264 0.0
C2016 C 0.7888 0.24365 0.11116 0.0
C2017 C 0.83788 0.22886 0.08615 0.0
C2018 C 0.80245 0.26597 0.11886 0.0
C2019 C 0.79009 0.29067 0.11915 0.0
C2020 C 0.76378 0.29339 0.11193 0.0
C2021 C 0.75051 0.27113 0.1035 0.0
C2022 C 0.76289 0.24651 0.10318 0.0
H2023 H 0.85158 0.21864 0.07455 0.0
H2024 H 0.82355 0.24059 0.07623 0.0
H2025 H 0.84962 0.24276 0.09646 0.0
H2026 H 0.82229 0.26413 0.12542 0.0
H2027 H 0.80081 0.30737 0.12588 0.0
H2028 H 0.48863 0.9755 0.35889 0.0
H2029 H 0.53133 0.99768 0.35782 0.0
H2030 H 0.49272 0.07304 0.36561 0.0
H2031 H 0.44982 0.0508 0.36756 0.0
H2032 H 0.55206 0.03224 0.33067 0.0
H2033 H 0.54634 0.07707 0.41475 0.0
H2034 H 0.52292 0.0528 0.4051 0.0
H2035 H 0.51955 0.08684 0.39699 0.0
C2036 C 0.48915 0.99682 0.36024 0.0
C2037 C 0.46583 0.01139 0.36342 0.0
C2038 C 0.51363 0.00948 0.3597 0.0
C2039 C 0.51534 0.03699 0.36215 0.0
C2040 C 0.49199 0.05173 0.36438 0.0
H2041 H 0.65897 0.12042 0.32535 0.0
H2042 H 0.61349 0.10439 0.32812 0.0
C2043 C 0.46746 0.03902 0.36523 0.0
C2044 C 0.54163 0.05003 0.36203 0.0
H2045 H 0.58228 0.09068 0.39194 0.0
C2046 C 0.55866 0.04499 0.34409 0.0
C2047 C 0.55048 0.06624 0.37978 0.0
C2048 C 0.53399 0.07086 0.40035 0.0
C2049 C 0.58416 0.05573 0.34331 0.0
C2050 C 0.59258 0.07295 0.36052 0.0
C2051 C 0.57567 0.07783 0.37859 0.0
C2052 C 0.61907 0.08557 0.36017 0.0
C2053 C 0.60206 0.04777 0.32434 0.0
C2054 C 0.63681 0.08196 0.37796 0.0
C2055 C 0.66263 0.09178 0.37663 0.0
C2056 C 0.67109 0.10507 0.35739 0.0
C2057 C 0.65294 0.10983 0.34016 0.0
C2058 C 0.62707 0.10052 0.34168 0.0
H2059 H 0.59586 0.02868 0.31686 0.0
H2060 H 0.6011 0.06299 0.31106 0.0
H2061 H 0.62288 0.04591 0.32994 0.0
H2062 H 0.63101 0.0707 0.3925 0.0
H2063 H 0.67636 0.08788 0.39007 0.0
H2064 H 0.30084 0.3102 0.37687 0.0
H2065 H 0.32401 0.26781 0.37617 0.0
H2066 H 0.25576 0.22973 0.40465 0.0
H2067 H 0.23229 0.27187 0.40512 0.0
H2068 H 0.33708 0.23209 0.40914 0.0
H2069 H 0.26884 0.18698 0.34789 0.0
H2070 H 0.26946 0.22199 0.35347 0.0
H2071 H 0.25194 0.19997 0.37177 0.0
C2072 C 0.29084 0.29286 0.38321 0.0
C2073 C 0.26463 0.29439 0.39092 0.0
C2074 C 0.30409 0.26864 0.38272 0.0
C2075 C 0.29137 0.24554 0.38986 0.0
C2076 C 0.26569 0.24722 0.39852 0.0
H2077 H 0.34941 0.0964 0.43207 0.0
H2078 H 0.33595 0.14213 0.42753 0.0
C2079 C 0.25239 0.27137 0.39897 0.0
C2080 C 0.30483 0.21962 0.38823 0.0
H2081 H 0.2973 0.15726 0.36761 0.0
C2082 C 0.32855 0.21579 0.39988 0.0
C2083 C 0.29409 0.19858 0.37561 0.0
C2084 C 0.26984 0.20211 0.36127 0.0
C2085 C 0.34107 0.19105 0.40024 0.0
C2086 C 0.3292 0.16947 0.38906 0.0
C2087 C 0.30624 0.17369 0.37642 0.0
C2088 C 0.33909 0.14203 0.39157 0.0
C2089 C 0.36685 0.18832 0.41266 0.0
C2090 C 0.34487 0.12644 0.37282 0.0
C2091 C 0.35214 0.09991 0.37536 0.0
C2092 C 0.35353 0.08847 0.39669 0.0
C2093 C 0.3482 0.10437 0.41539 0.0
C2094 C 0.34088 0.13074 0.41284 0.0
H2095 H 0.37767 0.2074 0.41323 0.0
H2096 H 0.36275 0.1823 0.43009 0.0
H2097 H 0.37979 0.17322 0.40488 0.0
H2098 H 0.34338 0.13469 0.35622 0.0
H2099 H 0.35586 0.0882 0.36062 0.0
H2100 H 0.98707 0.98554 0.15932 0.0
H2101 H 0.029 0.0093 0.16083 0.0
H2102 H 0.99365 0.07518 0.12643 0.0
H2103 H 0.95139 0.05174 0.12522 0.0
H2104 H 0.05749 0.02497 0.12431 0.0
H2105 H 0.0328 0.11135 0.1774 0.0
H2106 H 0.01201 0.08246 0.1758 0.0
H2107 H 0.0114 0.10657 0.15385 0.0
C2108 C 0.98805 0.00528 0.15242 0.0
C2109 C 0.96587 0.01676 0.14216 0.0
C2110 C 0.01206 0.0188 0.15323 0.0
C2111 C 0.01443 0.04406 0.14384 0.0
C2112 C 0.99217 0.0559 0.13413 0.0
H2113 H 0.17242 0.10667 0.11274 0.0
H2114 H 0.12601 0.09359 0.10887 0.0
C2115 C 0.96804 0.04244 0.13341 0.0
C2116 C 0.04067 0.05706 0.14305 0.0
H2117 H 0.07527 0.11093 0.16096 0.0
C2118 C 0.06138 0.04382 0.13225 0.0
C2119 C 0.04566 0.08161 0.15346 0.0
C2120 C 0.02439 0.09629 0.16596 0.0
C2121 C 0.08709 0.05416 0.13196 0.0
C2122 C 0.09211 0.07874 0.14233 0.0
C2123 C 0.07129 0.09223 0.15281 0.0
C2124 C 0.11927 0.08948 0.14431 0.0
C2125 C 0.10883 0.03812 0.12134 0.0
C2126 C 0.13049 0.09266 0.1655 0.0
C2127 C 0.15679 0.10041 0.16775 0.0
C2128 C 0.17253 0.10514 0.14886 0.0
C2129 C 0.1609 0.10315 0.12762 0.0
C2130 C 0.13445 0.09543 0.12538 0.0
H2131 H 0.10277 0.01732 0.11845 0.0
H2132 H 0.114 0.04692 0.10499 0.0
H2133 H 0.12684 0.03818 0.13192 0.0
H2134 H 0.1191 0.08838 0.18034 0.0
H2135 H 0.16488 0.10237 0.18436 0.0
H2136 H 0.16137 0.91548 0.93452 0.0
H2137 H 0.17603 0.8699 0.93096 0.0
H2138 H 0.17029 0.87569 0.85943 0.0
H2139 H 0.15652 0.92193 0.86285 0.0
H2140 H 0.15382 0.82572 0.91238 0.0
H2141 H 0.24674 0.85297 0.86876 0.0
H2142 H 0.22585 0.87715 0.882 0.0
H2143 H 0.21695 0.86376 0.85529 0.0
C2144 C 0.16337 0.9072 0.91799 0.0
C2145 C 0.15826 0.92258 0.89895 0.0
C2146 C 0.17152 0.88101 0.916 0.0
C2147 C 0.17473 0.86952 0.89493 0.0
C2148 C 0.16845 0.88434 0.87585 0.0
H2149 H 0.21104 0.70163 0.87669 0.0
H2150 H 0.18829 0.74418 0.87807 0.0
C2151 C 0.16033 0.91068 0.87783 0.0
C2152 C 0.18565 0.84241 0.89322 0.0
H2153 H 0.23917 0.80768 0.87489 0.0
C2154 C 0.1724 0.8217 0.90407 0.0
C2155 C 0.2101 0.83732 0.88266 0.0
C2156 C 0.22592 0.85896 0.87167 0.0
C2157 C 0.18307 0.79611 0.90483 0.0
C2158 C 0.20742 0.79101 0.89412 0.0
C2159 C 0.22048 0.81164 0.88305 0.0
C2160 C 0.22024 0.76467 0.89469 0.0
C2161 C 0.16863 0.77501 0.91772 0.0
C2162 C 0.24579 0.76204 0.90352 0.0
C2163 C 0.25893 0.73782 0.9026 0.0
C2164 C 0.24679 0.71571 0.89279 0.0
C2165 C 0.22088 0.7182 0.88453 0.0
C2166 C 0.20779 0.74251 0.88536 0.0
H2167 H 0.15409 0.78359 0.92953 0.0
H2168 H 0.15773 0.76215 0.9059 0.0
H2169 H 0.18267 0.76248 0.92723 0.0
H2170 H 0.25576 0.77889 0.9108 0.0
H2171 H 0.27887 0.7366 0.90909 0.0
H2172 H 0.34609 0.88023 0.62624 0.0
H2173 H 0.39294 0.89291 0.62418 0.0
H2174 H 0.37575 0.96465 0.65999 0.0
H2175 H 0.3293 0.95232 0.66196 0.0
H2176 H 0.41778 0.93961 0.6067 0.0
H2177 H 0.43398 0.92934 0.69761 0.0
H2178 H 0.40567 0.91536 0.68358 0.0
H2179 H 0.4062 0.94983 0.6908 0.0
C2180 C 0.35231 0.89881 0.63345 0.0
C2181 C 0.33405 0.91507 0.64458 0.0
C2182 C 0.37905 0.90596 0.63236 0.0
C2183 C 0.38787 0.9294 0.64242 0.0
C2184 C 0.36948 0.94613 0.65266 0.0
H2185 H 0.52268 0.02783 0.65774 0.0
H2186 H 0.48018 1.00493 0.65865 0.0
C2187 C 0.34292 0.93903 0.65378 0.0
C2188 C 0.41622 0.93672 0.64245 0.0
H2189 H 0.4667 0.95366 0.67744 0.0
C2190 C 0.42868 0.94228 0.62211 0.0
C2191 C 0.43037 0.94009 0.6626 0.0
C2192 C 0.41848 0.9331 0.68488 0.0
C2193 C 0.4545 0.95247 0.62148 0.0
C2194 C 0.4682 0.95686 0.64171 0.0
C2195 C 0.45608 0.95039 0.66198 0.0
C2196 C 0.49449 0.96968 0.64228 0.0
C2197 C 0.46653 0.95961 0.59927 0.0
C2198 C 0.51677 0.9571 0.63337 0.0
C2199 C 0.54118 0.97006 0.63295 0.0
C2200 C 0.54366 0.99587 0.64141 0.0
C2201 C 0.52146 0.008 0.65106 0.0
C2202 C 0.49714 0.99497 0.65156 0.0
H2203 H 0.45177 0.9591 0.58556 0.0
H2204 H 0.47545 0.97962 0.59995 0.0
H2205 H 0.48247 0.94537 0.59525 0.0
H2206 H 0.51519 0.93741 0.62644 0.0
H2207 H 0.55787 0.96016 0.62539 0.0
loop_
_geom_bond_atom_site_label_1
_geom_bond_atom_site_label_2
_geom_bond_distance
_geom_bond_site_symmetry_2
_ccdc_geom_bond_type
Co0 N5 2.057 . S
Co0 O17 2.021 . S
Co0 O20 2.062 . S
Co0 O24 2.117 . S
Co0 O25 2.020 . S
C1 O21 1.259 . S
C1 O24 1.258 . S
Co2 N11 2.057 . S
Co2 O18 2.117 . S
Co2 O19 2.020 . S
Co2 O21 2.021 . S
Co2 O26 2.062 . S
C3 N5 1.316 . S
C3 N6 1.347 . S
C3 H8 0.931 . S
C4 N5 1.375 . S
C4 C7 1.350 . S
C4 H9 0.930 . S
N5 Co0 2.057 . S
N5 C3 1.316 . S
N5 C4 1.375 . S
N6 C3 1.347 . S
N6 C7 1.373 . S
C7 C4 1.350 . S
C7 N6 1.373 . S
C7 H28 0.931 . S
H8 C3 0.931 . S
H9 C4 0.930 . S
C10 O17 1.259 . S
C10 O18 1.258 . S
N11 Co2 2.057 . S
N11 C12 1.316 . S
N11 C13 1.375 . S
C12 N11 1.316 . S
C12 N14 1.347 . S
C12 H23 0.931 . S
C13 N11 1.375 . S
C13 C15 1.350 . S
C13 H22 0.930 . S
N14 C12 1.347 . S
N14 C15 1.373 . S
C15 C13 1.350 . S
C15 N14 1.373 . S
C15 H29 0.931 . S
C16 O19 1.256 . S
C16 O20 1.255 . S
O17 Co0 2.021 . S
O17 C10 1.259 . S
O18 Co2 2.117 . S
O18 C10 1.258 . S
O19 Co2 2.020 . S
O19 C16 1.256 . S
O20 Co0 2.062 . S
O20 C16 1.255 . S
O21 C1 1.259 . S
O21 Co2 2.021 . S
H22 C13 0.930 . S
H23 C12 0.931 . S
O24 Co0 2.117 . S
O24 C1 1.258 . S
O25 Co0 2.020 . S
O25 C27 1.256 . S
O26 Co2 2.062 . S
O26 C27 1.255 . S
C27 O25 1.256 . S
C27 O26 1.255 . S
H28 C7 0.931 . S
H29 C15 0.931 . S
Co30 N35 2.057 . S
Co30 O47 2.021 . S
Co30 O50 2.062 . S
Co30 O54 2.117 . S
Co30 O55 2.020 . S
C31 O51 1.259 . S
C31 O54 1.258 . S
Co32 N41 2.057 . S
Co32 O48 2.117 . S
Co32 O49 2.020 . S
Co32 O51 2.021 . S
Co32 O56 2.062 . S
C33 N35 1.316 . S
C33 N36 1.347 . S
C33 H38 0.931 . S
C34 N35 1.375 . S
C34 C37 1.350 . S
C34 H39 0.930 . S
N35 Co30 2.057 . S
N35 C33 1.316 . S
N35 C34 1.375 . S
N36 C33 1.347 . S
N36 C37 1.373 . S
C37 C34 1.350 . S
C37 N36 1.373 . S
C37 H58 0.931 . S
H38 C33 0.931 . S
H39 C34 0.930 . S
C40 O47 1.259 . S
C40 O48 1.258 . S
N41 Co32 2.057 . S
N41 C42 1.316 . S
N41 C43 1.375 . S
C42 N41 1.316 . S
C42 N44 1.347 . S
C42 H53 0.931 . S
C43 N41 1.375 . S
C43 C45 1.350 . S
C43 H52 0.930 . S
N44 C42 1.347 . S
N44 C45 1.373 . S
C45 C43 1.350 . S
C45 N44 1.373 . S
C45 H59 0.931 . S
C46 O49 1.256 . S
C46 O50 1.255 . S
O47 Co30 2.021 . S
O47 C40 1.259 . S
O48 Co32 2.117 . S
O48 C40 1.258 . S
O49 Co32 2.020 . S
O49 C46 1.256 . S
O50 Co30 2.062 . S
O50 C46 1.255 . S
O51 C31 1.259 . S
O51 Co32 2.021 . S
H52 C43 0.930 . S
H53 C42 0.931 . S
O54 Co30 2.117 . S
O54 C31 1.258 . S
O55 Co30 2.020 . S
O55 C57 1.256 . S
O56 Co32 2.062 . S
O56 C57 1.255 . S
C57 O55 1.256 . S
C57 O56 1.255 . S
H58 C37 0.931 . S
H59 C45 0.931 . S
Co60 N65 2.057 . S
Co60 O77 2.021 . S
Co60 O80 2.062 . S
Co60 O84 2.117 . S
Co60 O85 2.020 . S
C61 O81 1.259 . S
C61 O84 1.258 . S
Co62 N71 2.057 . S
Co62 O78 2.117 . S
Co62 O79 2.020 . S
Co62 O81 2.021 . S
Co62 O86 2.062 . S
C63 N65 1.316 . S
C63 N66 1.347 . S
C63 H68 0.931 . S
C64 N65 1.375 . S
C64 C67 1.350 . S
C64 H69 0.930 . S
N65 Co60 2.057 . S
N65 C63 1.316 . S
N65 C64 1.375 . S
N66 C63 1.347 . S
N66 C67 1.373 . S
C67 C64 1.350 . S
C67 N66 1.373 . S
C67 H88 0.931 . S
H68 C63 0.931 . S
H69 C64 0.930 . S
C70 O77 1.259 . S
C70 O78 1.258 . S
N71 Co62 2.057 . S
N71 C72 1.316 . S
N71 C73 1.375 . S
C72 N71 1.316 . S
C72 N74 1.347 . S
C72 H83 0.931 . S
C73 N71 1.375 . S
C73 C75 1.350 . S
C73 H82 0.930 . S
N74 C72 1.347 . S
N74 C75 1.373 . S
C75 C73 1.350 . S
C75 N74 1.373 . S
C75 H89 0.931 . S
C76 O79 1.256 . S
C76 O80 1.255 . S
O77 Co60 2.021 . S
O77 C70 1.259 . S
O78 Co62 2.117 . S
O78 C70 1.258 . S
O79 Co62 2.020 . S
O79 C76 1.256 . S
O80 Co60 2.062 . S
O80 C76 1.255 . S
O81 C61 1.259 . S
O81 Co62 2.021 . S
H82 C73 0.930 . S
H83 C72 0.931 . S
O84 Co60 2.117 . S
O84 C61 1.258 . S
O85 Co60 2.020 . S
O85 C87 1.256 . S
O86 Co62 2.062 . S
O86 C87 1.255 . S
C87 O85 1.256 . S
C87 O86 1.255 . S
H88 C67 0.931 . S
H89 C75 0.931 . S
Co90 N95 2.057 . S
Co90 O107 2.021 . S
Co90 O110 2.062 . S
Co90 O114 2.117 . S
Co90 O115 2.020 . S
C91 O111 1.259 . S
C91 O114 1.258 . S
Co92 N101 2.057 . S
Co92 O108 2.117 . S
Co92 O109 2.020 . S
Co92 O111 2.021 . S
Co92 O116 2.062 . S
C93 N95 1.316 . S
C93 N96 1.347 . S
C93 H98 0.931 . S
C94 N95 1.375 . S
C94 C97 1.350 . S
C94 H99 0.930 . S
N95 Co90 2.057 . S
N95 C93 1.316 . S
N95 C94 1.375 . S
N96 C93 1.347 . S
N96 C97 1.373 . S
C97 C94 1.350 . S
C97 N96 1.373 . S
C97 H118 0.931 . S
H98 C93 0.931 . S
H99 C94 0.930 . S
C100 O107 1.259 . S
C100 O108 1.258 . S
N101 Co92 2.057 . S
N101 C102 1.316 . S
N101 C103 1.375 . S
C102 N101 1.316 . S
C102 N104 1.347 . S
C102 H113 0.931 . S
C103 N101 1.375 . S
C103 C105 1.350 . S
C103 H112 0.930 . S
N104 C102 1.347 . S
N104 C105 1.373 . S
C105 C103 1.350 . S
C105 N104 1.373 . S
C105 H119 0.931 . S
C106 O109 1.256 . S
C106 O110 1.255 . S
O107 Co90 2.021 . S
O107 C100 1.259 . S
O108 Co92 2.117 . S
O108 C100 1.258 . S
O109 Co92 2.020 . S
O109 C106 1.256 . S
O110 Co90 2.062 . S
O110 C106 1.255 . S
O111 C91 1.259 . S
O111 Co92 2.021 . S
H112 C103 0.930 . S
H113 C102 0.931 . S
O114 Co90 2.117 . S
O114 C91 1.258 . S
O115 Co90 2.020 . S
O115 C117 1.256 . S
O116 Co92 2.062 . S
O116 C117 1.255 . S
C117 O115 1.256 . S
C117 O116 1.255 . S
H118 C97 0.931 . S
H119 C105 0.931 . S
Co120 N125 2.057 . S
Co120 O137 2.021 . S
Co120 O140 2.062 . S
Co120 O144 2.117 . S
Co120 O145 2.020 . S
C121 O141 1.259 . S
C121 O144 1.258 . S
Co122 N131 2.057 . S
Co122 O138 2.117 . S
Co122 O139 2.020 . S
Co122 O141 2.021 . S
Co122 O146 2.062 . S
C123 N125 1.316 . S
C123 N126 1.347 . S
C123 H128 0.931 . S
C124 N125 1.375 . S
C124 C127 1.350 . S
C124 H129 0.930 . S
N125 Co120 2.057 . S
N125 C123 1.316 . S
N125 C124 1.375 . S
N126 C123 1.347 . S
N126 C127 1.373 . S
C127 C124 1.350 . S
C127 N126 1.373 . S
C127 H148 0.931 . S
H128 C123 0.931 . S
H129 C124 0.930 . S
C130 O137 1.259 . S
C130 O138 1.258 . S
N131 Co122 2.057 . S
N131 C132 1.316 . S
N131 C133 1.375 . S
C132 N131 1.316 . S
C132 N134 1.347 . S
C132 H143 0.931 . S
C133 N131 1.375 . S
C133 C135 1.350 . S
C133 H142 0.930 . S
N134 C132 1.347 . S
N134 C135 1.373 . S
C135 C133 1.350 . S
C135 N134 1.373 . S
C135 H149 0.931 . S
C136 O139 1.256 . S
C136 O140 1.255 . S
O137 Co120 2.021 . S
O137 C130 1.259 . S
O138 Co122 2.117 . S
O138 C130 1.258 . S
O139 Co122 2.020 . S
O139 C136 1.256 . S
O140 Co120 2.062 . S
O140 C136 1.255 . S
O141 C121 1.259 . S
O141 Co122 2.021 . S
H142 C133 0.930 . S
H143 C132 0.931 . S
O144 Co120 2.117 . S
O144 C121 1.258 . S
O145 Co120 2.020 . S
O145 C147 1.256 . S
O146 Co122 2.062 . S
O146 C147 1.255 . S
C147 O145 1.256 . S
C147 O146 1.255 . S
H148 C127 0.931 . S
H149 C135 0.931 . S
Co150 N155 2.057 . S
Co150 O167 2.021 . S
Co150 O170 2.062 . S
Co150 O174 2.117 . S
Co150 O175 2.020 . S
C151 O171 1.259 . S
C151 O174 1.258 . S
Co152 N161 2.057 . S
Co152 O168 2.117 . S
Co152 O169 2.020 . S
Co152 O171 2.021 . S
Co152 O176 2.062 . S
C153 N155 1.316 . S
C153 N156 1.347 . S
C153 H158 0.931 . S
C154 N155 1.375 . S
C154 C157 1.350 . S
C154 H159 0.930 . S
N155 Co150 2.057 . S
N155 C153 1.316 . S
N155 C154 1.375 . S
N156 C153 1.347 . S
N156 C157 1.373 . S
C157 C154 1.350 . S
C157 N156 1.373 . S
C157 H178 0.931 . S
H158 C153 0.931 . S
H159 C154 0.930 . S
C160 O167 1.259 . S
C160 O168 1.258 . S
N161 Co152 2.057 . S
N161 C162 1.316 . S
N161 C163 1.375 . S
C162 N161 1.316 . S
C162 N164 1.347 . S
C162 H173 0.931 . S
C163 N161 1.375 . S
C163 C165 1.350 . S
C163 H172 0.930 . S
N164 C162 1.347 . S
N164 C165 1.373 . S
C165 C163 1.350 . S
C165 N164 1.373 . S
C165 H179 0.931 . S
C166 O169 1.256 . S
C166 O170 1.255 . S
O167 Co150 2.021 . S
O167 C160 1.259 . S
O168 Co152 2.117 . S
O168 C160 1.258 . S
O169 Co152 2.020 . S
O169 C166 1.256 . S
O170 Co150 2.062 . S
O170 C166 1.255 . S
O171 C151 1.259 . S
O171 Co152 2.021 . S
H172 C163 0.930 . S
H173 C162 0.931 . S
O174 Co150 2.117 . S
O174 C151 1.258 . S
O175 Co150 2.020 . S
O175 C177 1.256 . S
O176 Co152 2.062 . S
O176 C177 1.255 . S
C177 O175 1.256 . S
C177 O176 1.255 . S
H178 C157 0.931 . S
H179 C165 0.931 . S
Co180 N185 2.057 . S
Co180 O197 2.021 . S
Co180 O200 2.062 . S
Co180 O204 2.117 . S
Co180 O205 2.020 . S
C181 O201 1.259 . S
C181 O204 1.258 . S
Co182 N191 2.057 . S
Co182 O198 2.117 . S
Co182 O199 2.020 . S
Co182 O201 2.021 . S
Co182 O206 2.062 . S
C183 N185 1.316 . S
C183 N186 1.347 . S
C183 H188 0.931 . S
C184 N185 1.375 . S
C184 C187 1.350 . S
C184 H189 0.930 . S
N185 Co180 2.057 . S
N185 C183 1.316 . S
N185 C184 1.375 . S
N186 C183 1.347 . S
N186 C187 1.373 . S
C187 C184 1.350 . S
C187 N186 1.373 . S
C187 H208 0.931 . S
H188 C183 0.931 . S
H189 C184 0.930 . S
C190 O197 1.259 . S
C190 O198 1.258 . S
N191 Co182 2.057 . S
N191 C192 1.316 . S
N191 C193 1.375 . S
C192 N191 1.316 . S
C192 N194 1.347 . S
C192 H203 0.931 . S
C193 N191 1.375 . S
C193 C195 1.350 . S
C193 H202 0.930 . S
N194 C192 1.347 . S
N194 C195 1.373 . S
C195 C193 1.350 . S
C195 N194 1.373 . S
C195 H209 0.931 . S
C196 O199 1.256 . S
C196 O200 1.255 . S
O197 Co180 2.021 . S
O197 C190 1.259 . S
O198 Co182 2.117 . S
O198 C190 1.258 . S
O199 Co182 2.020 . S
O199 C196 1.256 . S
O200 Co180 2.062 . S
O200 C196 1.255 . S
O201 C181 1.259 . S
O201 Co182 2.021 . S
H202 C193 0.930 . S
H203 C192 0.931 . S
O204 Co180 2.117 . S
O204 C181 1.258 . S
O205 Co180 2.020 . S
O205 C207 1.256 . S
O206 Co182 2.062 . S
O206 C207 1.255 . S
C207 O205 1.256 . S
C207 O206 1.255 . S
H208 C187 0.931 . S
H209 C195 0.931 . S
Co210 N215 2.057 . S
Co210 O227 2.021 . S
Co210 O230 2.062 . S
Co210 O234 2.117 . S
Co210 O235 2.020 . S
C211 O231 1.259 . S
C211 O234 1.258 . S
Co212 N221 2.057 . S
Co212 O228 2.117 . S
Co212 O229 2.020 . S
Co212 O231 2.021 . S
Co212 O236 2.062 . S
C213 N215 1.316 . S
C213 N216 1.347 . S
C213 H218 0.931 . S
C214 N215 1.375 . S
C214 C217 1.350 . S
C214 H219 0.930 . S
N215 Co210 2.057 . S
N215 C213 1.316 . S
N215 C214 1.375 . S
N216 C213 1.347 . S
N216 C217 1.373 . S
C217 C214 1.350 . S
C217 N216 1.373 . S
C217 H238 0.931 . S
H218 C213 0.931 . S
H219 C214 0.930 . S
C220 O227 1.259 . S
C220 O228 1.258 . S
N221 Co212 2.057 . S
N221 C222 1.316 . S
N221 C223 1.375 . S
C222 N221 1.316 . S
C222 N224 1.347 . S
C222 H233 0.931 . S
C223 N221 1.375 . S
C223 C225 1.350 . S
C223 H232 0.930 . S
N224 C222 1.347 . S
N224 C225 1.373 . S
C225 C223 1.350 . S
C225 N224 1.373 . S
C225 H239 0.931 . S
C226 O229 1.256 . S
C226 O230 1.255 . S
O227 Co210 2.021 . S
O227 C220 1.259 . S
O228 Co212 2.117 . S
O228 C220 1.258 . S
O229 Co212 2.020 . S
O229 C226 1.256 . S
O230 Co210 2.062 . S
O230 C226 1.255 . S
O231 C211 1.259 . S
O231 Co212 2.021 . S
H232 C223 0.930 . S
H233 C222 0.931 . S
O234 Co210 2.117 . S
O234 C211 1.258 . S
O235 Co210 2.020 . S
O235 C237 1.256 . S
O236 Co212 2.062 . S
O236 C237 1.255 . S
C237 O235 1.256 . S
C237 O236 1.255 . S
H238 C217 0.931 . S
H239 C225 0.931 . S
Co240 N245 2.057 . S
Co240 O257 2.021 . S
Co240 O260 2.062 . S
Co240 O264 2.117 . S
Co240 O265 2.020 . S
C241 O261 1.259 . S
C241 O264 1.258 . S
Co242 N251 2.057 . S
Co242 O258 2.117 . S
Co242 O259 2.020 . S
Co242 O261 2.021 . S
Co242 O266 2.062 . S
C243 N245 1.316 . S
C243 N246 1.347 . S
C243 H248 0.931 . S
C244 N245 1.375 . S
C244 C247 1.350 . S
C244 H249 0.930 . S
N245 Co240 2.057 . S
N245 C243 1.316 . S
N245 C244 1.375 . S
N246 C243 1.347 . S
N246 C247 1.373 . S
C247 C244 1.350 . S
C247 N246 1.373 . S
C247 H268 0.931 . S
H248 C243 0.931 . S
H249 C244 0.930 . S
C250 O257 1.259 . S
C250 O258 1.258 . S
N251 Co242 2.057 . S
N251 C252 1.316 . S
N251 C253 1.375 . S
C252 N251 1.316 . S
C252 N254 1.347 . S
C252 H263 0.931 . S
C253 N251 1.375 . S
C253 C255 1.350 . S
C253 H262 0.930 . S
N254 C252 1.347 . S
N254 C255 1.373 . S
C255 C253 1.350 . S
C255 N254 1.373 . S
C255 H269 0.931 . S
C256 O259 1.256 . S
C256 O260 1.255 . S
O257 Co240 2.021 . S
O257 C250 1.259 . S
O258 Co242 2.117 . S
O258 C250 1.258 . S
O259 Co242 2.020 . S
O259 C256 1.256 . S
O260 Co240 2.062 . S
O260 C256 1.255 . S
O261 C241 1.259 . S
O261 Co242 2.021 . S
H262 C253 0.930 . S
H263 C252 0.931 . S
O264 Co240 2.117 . S
O264 C241 1.258 . S
O265 Co240 2.020 . S
O265 C267 1.256 . S
O266 Co242 2.062 . S
O266 C267 1.255 . S
C267 O265 1.256 . S
C267 O266 1.255 . S
H268 C247 0.931 . S
H269 C255 0.931 . S
Co270 N275 2.057 . S
Co270 O287 2.021 . S
Co270 O290 2.062 1_565 S
Co270 O294 2.117 1_565 S
Co270 O295 2.020 1_565 S
C271 O291 1.259 . S
C271 O294 1.258 . S
Co272 N281 2.057 . S
Co272 O288 2.117 . S
Co272 O289 2.020 . S
Co272 O291 2.021 . S
Co272 O296 2.062 . S
C273 N275 1.316 . S
C273 N276 1.347 . S
C273 H278 0.931 . S
C274 N275 1.375 . S
C274 C277 1.350 . S
C274 H279 0.930 . S
N275 Co270 2.057 . S
N275 C273 1.316 . S
N275 C274 1.375 . S
N276 C273 1.347 . S
N276 C277 1.373 . S
C277 C274 1.350 . S
C277 N276 1.373 . S
C277 H298 0.931 . S
H278 C273 0.931 . S
H279 C274 0.930 . S
C280 O287 1.259 1_545 S
C280 O288 1.258 . S
N281 Co272 2.057 . S
N281 C282 1.316 . S
N281 C283 1.375 . S
C282 N281 1.316 . S
C282 N284 1.347 . S
C282 H293 0.931 . S
C283 N281 1.375 . S
C283 C285 1.350 . S
C283 H292 0.930 . S
N284 C282 1.347 . S
N284 C285 1.373 . S
C285 C283 1.350 . S
C285 N284 1.373 . S
C285 H299 0.931 . S
C286 O289 1.256 . S
C286 O290 1.255 . S
O287 Co270 2.021 . S
O287 C280 1.259 1_565 S
O288 Co272 2.117 . S
O288 C280 1.258 . S
O289 Co272 2.020 . S
O289 C286 1.256 . S
O290 Co270 2.062 1_545 S
O290 C286 1.255 . S
O291 C271 1.259 . S
O291 Co272 2.021 . S
H292 C283 0.930 . S
H293 C282 0.931 . S
O294 Co270 2.117 1_545 S
O294 C271 1.258 . S
O295 Co270 2.020 1_545 S
O295 C297 1.256 . S
O296 Co272 2.062 . S
O296 C297 1.255 . S
C297 O295 1.256 . S
C297 O296 1.255 . S
H298 C277 0.931 . S
H299 C285 0.931 . S
Co300 N305 2.057 . S
Co300 O317 2.021 . S
Co300 O320 2.062 . S
Co300 O324 2.117 . S
Co300 O325 2.020 . S
C301 O321 1.259 . S
C301 O324 1.258 . S
Co302 N311 2.057 . S
Co302 O318 2.117 . S
Co302 O319 2.020 . S
Co302 O321 2.021 . S
Co302 O326 2.062 . S
C303 N305 1.316 . S
C303 N306 1.347 . S
C303 H308 0.931 . S
C304 N305 1.375 . S
C304 C307 1.350 . S
C304 H309 0.930 . S
N305 Co300 2.057 . S
N305 C303 1.316 . S
N305 C304 1.375 . S
N306 C303 1.347 . S
N306 C307 1.373 . S
C307 C304 1.350 . S
C307 N306 1.373 . S
C307 H328 0.931 . S
H308 C303 0.931 . S
H309 C304 0.930 . S
C310 O317 1.259 . S
C310 O318 1.258 . S
N311 Co302 2.057 . S
N311 C312 1.316 . S
N311 C313 1.375 . S
C312 N311 1.316 . S
C312 N314 1.347 . S
C312 H323 0.931 . S
C313 N311 1.375 . S
C313 C315 1.350 . S
C313 H322 0.930 . S
N314 C312 1.347 . S
N314 C315 1.373 . S
C315 C313 1.350 . S
C315 N314 1.373 . S
C315 H329 0.931 . S
C316 O319 1.256 . S
C316 O320 1.255 . S
O317 Co300 2.021 . S
O317 C310 1.259 . S
O318 Co302 2.117 . S
O318 C310 1.258 . S
O319 Co302 2.020 . S
O319 C316 1.256 . S
O320 Co300 2.062 . S
O320 C316 1.255 . S
O321 C301 1.259 . S
O321 Co302 2.021 . S
H322 C313 0.930 . S
H323 C312 0.931 . S
O324 Co300 2.117 . S
O324 C301 1.258 . S
O325 Co300 2.020 . S
O325 C327 1.256 . S
O326 Co302 2.062 . S
O326 C327 1.255 . S
C327 O325 1.256 . S
C327 O326 1.255 . S
H328 C307 0.931 . S
H329 C315 0.931 . S
Co330 N335 2.057 . S
Co330 O347 2.021 . S
Co330 O350 2.062 1_545 S
Co330 O354 2.117 1_545 S
Co330 O355 2.020 1_545 S
C331 O351 1.259 . S
C331 O354 1.258 . S
Co332 N341 2.057 . S
Co332 O348 2.117 . S
Co332 O349 2.020 . S
Co332 O351 2.021 . S
Co332 O356 2.062 . S
C333 N335 1.316 . S
C333 N336 1.347 . S
C333 H338 0.931 . S
C334 N335 1.375 . S
C334 C337 1.350 . S
C334 H339 0.930 . S
N335 Co330 2.057 . S
N335 C333 1.316 . S
N335 C334 1.375 . S
N336 C333 1.347 . S
N336 C337 1.373 . S
C337 C334 1.350 . S
C337 N336 1.373 . S
C337 H358 0.931 . S
H338 C333 0.931 . S
H339 C334 0.930 . S
C340 O347 1.259 1_565 S
C340 O348 1.258 . S
N341 Co332 2.057 . S
N341 C342 1.316 . S
N341 C343 1.375 . S
C342 N341 1.316 . S
C342 N344 1.347 . S
C342 H353 0.931 . S
C343 N341 1.375 . S
C343 C345 1.350 . S
C343 H352 0.930 . S
N344 C342 1.347 . S
N344 C345 1.373 . S
C345 C343 1.350 . S
C345 N344 1.373 . S
C345 H359 0.931 . S
C346 O349 1.256 . S
C346 O350 1.255 . S
O347 Co330 2.021 . S
O347 C340 1.259 1_545 S
O348 Co332 2.117 . S
O348 C340 1.258 . S
O349 Co332 2.020 . S
O349 C346 1.256 . S
O350 Co330 2.062 1_565 S
O350 C346 1.255 . S
O351 C331 1.259 . S
O351 Co332 2.021 . S
H352 C343 0.930 . S
H353 C342 0.931 . S
O354 Co330 2.117 1_565 S
O354 C331 1.258 . S
O355 Co330 2.020 1_565 S
O355 C357 1.256 . S
O356 Co332 2.062 . S
O356 C357 1.255 . S
C357 O355 1.256 . S
C357 O356 1.255 . S
H358 C337 0.931 . S
H359 C345 0.931 . S
Co360 N365 2.057 . S
Co360 O377 2.021 . S
Co360 O380 2.062 . S
Co360 O384 2.117 . S
Co360 O385 2.020 . S
C361 O381 1.259 . S
C361 O384 1.258 . S
Co362 N371 2.057 . S
Co362 O378 2.117 . S
Co362 O379 2.020 . S
Co362 O381 2.021 . S
Co362 O386 2.062 . S
C363 N365 1.316 . S
C363 N366 1.347 . S
C363 H368 0.931 . S
C364 N365 1.375 . S
C364 C367 1.350 . S
C364 H369 0.930 . S
N365 Co360 2.057 . S
N365 C363 1.316 . S
N365 C364 1.375 . S
N366 C363 1.347 . S
N366 C367 1.373 . S
C367 C364 1.350 . S
C367 N366 1.373 . S
C367 H388 0.931 . S
H368 C363 0.931 . S
H369 C364 0.930 . S
C370 O377 1.259 . S
C370 O378 1.258 . S
N371 Co362 2.057 . S
N371 C372 1.316 . S
N371 C373 1.375 . S
C372 N371 1.316 . S
C372 N374 1.347 . S
C372 H383 0.931 . S
C373 N371 1.375 . S
C373 C375 1.350 . S
C373 H382 0.930 . S
N374 C372 1.347 . S
N374 C375 1.373 . S
C375 C373 1.350 . S
C375 N374 1.373 . S
C375 H389 0.931 . S
C376 O379 1.256 . S
C376 O380 1.255 . S
O377 Co360 2.021 . S
O377 C370 1.259 . S
O378 Co362 2.117 . S
O378 C370 1.258 . S
O379 Co362 2.020 . S
O379 C376 1.256 . S
O380 Co360 2.062 . S
O380 C376 1.255 . S
O381 C361 1.259 . S
O381 Co362 2.021 . S
H382 C373 0.930 . S
H383 C372 0.931 . S
O384 Co360 2.117 . S
O384 C361 1.258 . S
O385 Co360 2.020 . S
O385 C387 1.256 . S
O386 Co362 2.062 . S
O386 C387 1.255 . S
C387 O385 1.256 . S
C387 O386 1.255 . S
H388 C367 0.931 . S
H389 C375 0.931 . S
Co390 N395 2.057 . S
Co390 O407 2.021 . S
Co390 O410 2.062 . S
Co390 O414 2.117 . S
Co390 O415 2.020 . S
C391 O411 1.259 1_565 S
C391 O414 1.258 . S
Co392 N401 2.057 . S
Co392 O408 2.117 1_545 S
Co392 O409 2.020 1_545 S
Co392 O411 2.021 . S
Co392 O416 2.062 1_545 S
C393 N395 1.316 . S
C393 N396 1.347 . S
C393 H398 0.931 . S
C394 N395 1.375 . S
C394 C397 1.350 . S
C394 H399 0.930 . S
N395 Co390 2.057 . S
N395 C393 1.316 . S
N395 C394 1.375 . S
N396 C393 1.347 . S
N396 C397 1.373 . S
C397 C394 1.350 . S
C397 N396 1.373 . S
C397 H418 0.931 . S
H398 C393 0.931 . S
H399 C394 0.930 . S
C400 O407 1.259 . S
C400 O408 1.258 . S
N401 Co392 2.057 . S
N401 C402 1.316 . S
N401 C403 1.375 . S
C402 N401 1.316 . S
C402 N404 1.347 . S
C402 H413 0.931 . S
C403 N401 1.375 . S
C403 C405 1.350 . S
C403 H412 0.930 . S
N404 C402 1.347 . S
N404 C405 1.373 . S
C405 C403 1.350 . S
C405 N404 1.373 . S
C405 H419 0.931 . S
C406 O409 1.256 . S
C406 O410 1.255 . S
O407 Co390 2.021 . S
O407 C400 1.259 . S
O408 Co392 2.117 1_565 S
O408 C400 1.258 . S
O409 Co392 2.020 1_565 S
O409 C406 1.256 . S
O410 Co390 2.062 . S
O410 C406 1.255 . S
O411 C391 1.259 1_545 S
O411 Co392 2.021 . S
H412 C403 0.930 . S
H413 C402 0.931 . S
O414 Co390 2.117 . S
O414 C391 1.258 . S
O415 Co390 2.020 . S
O415 C417 1.256 . S
O416 Co392 2.062 1_565 S
O416 C417 1.255 . S
C417 O415 1.256 . S
C417 O416 1.255 . S
H418 C397 0.931 . S
H419 C405 0.931 . S
Co420 N425 2.057 . S
Co420 O437 2.021 . S
Co420 O440 2.062 . S
Co420 O444 2.117 . S
Co420 O445 2.020 . S
C421 O441 1.259 . S
C421 O444 1.258 . S
Co422 N431 2.057 . S
Co422 O438 2.117 . S
Co422 O439 2.020 . S
Co422 O441 2.021 . S
Co422 O446 2.062 . S
C423 N425 1.316 . S
C423 N426 1.347 . S
C423 H428 0.931 . S
C424 N425 1.375 . S
C424 C427 1.350 . S
C424 H429 0.930 . S
N425 Co420 2.057 . S
N425 C423 1.316 . S
N425 C424 1.375 . S
N426 C423 1.347 . S
N426 C427 1.373 . S
C427 C424 1.350 . S
C427 N426 1.373 . S
C427 H448 0.931 . S
H428 C423 0.931 . S
H429 C424 0.930 . S
C430 O437 1.259 . S
C430 O438 1.258 . S
N431 Co422 2.057 . S
N431 C432 1.316 . S
N431 C433 1.375 . S
C432 N431 1.316 . S
C432 N434 1.347 . S
C432 H443 0.931 . S
C433 N431 1.375 . S
C433 C435 1.350 . S
C433 H442 0.930 . S
N434 C432 1.347 . S
N434 C435 1.373 . S
C435 C433 1.350 . S
C435 N434 1.373 . S
C435 H449 0.931 . S
C436 O439 1.256 . S
C436 O440 1.255 . S
O437 Co420 2.021 . S
O437 C430 1.259 . S
O438 Co422 2.117 . S
O438 C430 1.258 . S
O439 Co422 2.020 . S
O439 C436 1.256 . S
O440 Co420 2.062 . S
O440 C436 1.255 . S
O441 C421 1.259 . S
O441 Co422 2.021 . S
H442 C433 0.930 . S
H443 C432 0.931 . S
O444 Co420 2.117 . S
O444 C421 1.258 . S
O445 Co420 2.020 . S
O445 C447 1.256 . S
O446 Co422 2.062 . S
O446 C447 1.255 . S
C447 O445 1.256 . S
C447 O446 1.255 . S
H448 C427 0.931 . S
H449 C435 0.931 . S
Co450 N455 2.057 . S
Co450 O467 2.021 . S
Co450 O470 2.062 . S
Co450 O474 2.117 . S
Co450 O475 2.020 . S
C451 O471 1.259 1_545 S
C451 O474 1.258 . S
Co452 N461 2.057 . S
Co452 O468 2.117 1_565 S
Co452 O469 2.020 1_565 S
Co452 O471 2.021 . S
Co452 O476 2.062 1_565 S
C453 N455 1.316 . S
C453 N456 1.347 . S
C453 H458 0.931 . S
C454 N455 1.375 . S
C454 C457 1.350 . S
C454 H459 0.930 . S
N455 Co450 2.057 . S
N455 C453 1.316 . S
N455 C454 1.375 . S
N456 C453 1.347 . S
N456 C457 1.373 . S
C457 C454 1.350 . S
C457 N456 1.373 . S
C457 H478 0.931 . S
H458 C453 0.931 . S
H459 C454 0.930 . S
C460 O467 1.259 . S
C460 O468 1.258 . S
N461 Co452 2.057 . S
N461 C462 1.316 . S
N461 C463 1.375 . S
C462 N461 1.316 . S
C462 N464 1.347 . S
C462 H473 0.931 . S
C463 N461 1.375 . S
C463 C465 1.350 . S
C463 H472 0.930 . S
N464 C462 1.347 . S
N464 C465 1.373 . S
C465 C463 1.350 . S
C465 N464 1.373 . S
C465 H479 0.931 . S
C466 O469 1.256 . S
C466 O470 1.255 . S
O467 Co450 2.021 . S
O467 C460 1.259 . S
O468 Co452 2.117 1_545 S
O468 C460 1.258 . S
O469 Co452 2.020 1_545 S
O469 C466 1.256 . S
O470 Co450 2.062 . S
O470 C466 1.255 . S
O471 C451 1.259 1_565 S
O471 Co452 2.021 . S
H472 C463 0.930 . S
H473 C462 0.931 . S
O474 Co450 2.117 . S
O474 C451 1.258 . S
O475 Co450 2.020 . S
O475 C477 1.256 . S
O476 Co452 2.062 1_545 S
O476 C477 1.255 . S
C477 O475 1.256 . S
C477 O476 1.255 . S
H478 C457 0.931 . S
H479 C465 0.931 . S
H480 C488 0.929 . S
H481 C490 0.930 . S
H482 C492 0.930 . S
H483 C495 0.929 . S
H484 C498 0.930 . S
H485 C500 0.960 . S
H486 C500 0.960 . S
H487 C500 0.960 . S
C488 H480 0.929 . S
C488 C489 1.377 . S
C488 C490 1.384 . S
C489 C488 1.377 . S
C489 C495 1.390 . S
C490 H481 0.930 . S
C490 C488 1.384 . S
C490 C491 1.372 . S
C491 C490 1.372 . S
C491 C492 1.400 . S
C491 C496 1.490 . S
C492 H482 0.930 . S
C492 C491 1.400 . S
C492 C495 1.386 . S
H493 C509 0.930 . S
H494 C510 0.931 . S
C495 H483 0.929 . S
C495 C489 1.390 . S
C495 C492 1.386 . S
C496 C491 1.490 . S
C496 C498 1.395 . S
C496 C499 1.403 . S
H497 C503 0.930 . S
C498 H484 0.930 . S
C498 C496 1.395 . S
C498 C501 1.403 . S
C499 C496 1.403 . S
C499 C500 1.524 . S
C499 C503 1.400 . S
C500 H485 0.960 . S
C500 H486 0.960 . S
C500 H487 0.960 . S
C500 C499 1.524 . S
C501 C498 1.403 . S
C501 C502 1.392 . S
C501 C505 1.495 . S
C502 C501 1.392 . S
C502 C503 1.385 . S
C502 C504 1.478 . S
C503 H497 0.930 . S
C503 C499 1.400 . S
C503 C502 1.385 . S
C504 C502 1.478 . S
C504 C506 1.381 . S
C504 C510 1.383 . S
C505 C501 1.495 . S
C505 H511 0.959 . S
C505 H512 0.961 . S
C505 H513 0.960 . S
C506 C504 1.381 . S
C506 C507 1.394 . S
C506 H514 0.930 . S
C507 C506 1.394 . S
C507 C508 1.383 . S
C507 H515 0.929 . S
C508 C507 1.383 . S
C508 C509 1.377 . S
C509 H493 0.930 . S
C509 C508 1.377 . S
C509 C510 1.379 . S
C510 H494 0.931 . S
C510 C504 1.383 . S
C510 C509 1.379 . S
H511 C505 0.959 . S
H512 C505 0.961 . S
H513 C505 0.960 . S
H514 C506 0.930 . S
H515 C507 0.929 . S
H516 C524 0.929 . S
H517 C526 0.930 . S
H518 C528 0.930 . S
H519 C531 0.929 . S
H520 C534 0.930 . S
H521 C536 0.960 . S
H522 C536 0.960 . S
H523 C536 0.960 . S
C524 H516 0.929 . S
C524 C525 1.377 . S
C524 C526 1.384 . S
C525 C524 1.377 . S
C525 C531 1.390 . S
C526 H517 0.930 . S
C526 C524 1.384 . S
C526 C527 1.372 . S
C527 C526 1.372 . S
C527 C528 1.400 . S
C527 C532 1.490 . S
C528 H518 0.930 . S
C528 C527 1.400 . S
C528 C531 1.386 . S
H529 C545 0.930 . S
H530 C546 0.931 . S
C531 H519 0.929 . S
C531 C525 1.390 . S
C531 C528 1.386 . S
C532 C527 1.490 . S
C532 C534 1.395 . S
C532 C535 1.403 . S
H533 C539 0.930 . S
C534 H520 0.930 . S
C534 C532 1.395 . S
C534 C537 1.403 . S
C535 C532 1.403 . S
C535 C536 1.524 . S
C535 C539 1.400 . S
C536 H521 0.960 . S
C536 H522 0.960 . S
C536 H523 0.960 . S
C536 C535 1.524 . S
C537 C534 1.403 . S
C537 C538 1.392 . S
C537 C541 1.495 . S
C538 C537 1.392 . S
C538 C539 1.385 . S
C538 C540 1.478 . S
C539 H533 0.930 . S
C539 C535 1.400 . S
C539 C538 1.385 . S
C540 C538 1.478 . S
C540 C542 1.381 . S
C540 C546 1.383 . S
C541 C537 1.495 . S
C541 H547 0.959 . S
C541 H548 0.961 . S
C541 H549 0.960 . S
C542 C540 1.381 . S
C542 C543 1.394 . S
C542 H550 0.930 . S
C543 C542 1.394 . S
C543 C544 1.383 . S
C543 H551 0.929 . S
C544 C543 1.383 . S
C544 C545 1.377 . S
C545 H529 0.930 . S
C545 C544 1.377 . S
C545 C546 1.379 . S
C546 H530 0.931 . S
C546 C540 1.383 . S
C546 C545 1.379 . S
H547 C541 0.959 . S
H548 C541 0.961 . S
H549 C541 0.960 . S
H550 C542 0.930 . S
H551 C543 0.929 . S
H552 C560 0.929 . S
H553 C562 0.930 . S
H554 C564 0.930 . S
H555 C567 0.929 . S
H556 C570 0.930 . S
H557 C572 0.960 . S
H558 C572 0.960 . S
H559 C572 0.960 . S
C560 H552 0.929 . S
C560 C561 1.377 . S
C560 C562 1.384 . S
C561 C560 1.377 . S
C561 C567 1.390 . S
C562 H553 0.930 . S
C562 C560 1.384 . S
C562 C563 1.372 . S
C563 C562 1.372 . S
C563 C564 1.400 . S
C563 C568 1.490 . S
C564 H554 0.930 . S
C564 C563 1.400 . S
C564 C567 1.386 . S
H565 C581 0.930 . S
H566 C582 0.931 . S
C567 H555 0.929 . S
C567 C561 1.390 . S
C567 C564 1.386 . S
C568 C563 1.490 . S
C568 C570 1.395 . S
C568 C571 1.403 . S
H569 C575 0.930 . S
C570 H556 0.930 . S
C570 C568 1.395 . S
C570 C573 1.403 . S
C571 C568 1.403 . S
C571 C572 1.524 . S
C571 C575 1.400 . S
C572 H557 0.960 . S
C572 H558 0.960 . S
C572 H559 0.960 . S
C572 C571 1.524 . S
C573 C570 1.403 . S
C573 C574 1.392 . S
C573 C577 1.495 . S
C574 C573 1.392 . S
C574 C575 1.385 . S
C574 C576 1.478 . S
C575 H569 0.930 . S
C575 C571 1.400 . S
C575 C574 1.385 . S
C576 C574 1.478 . S
C576 C578 1.381 . S
C576 C582 1.383 . S
C577 C573 1.495 . S
C577 H583 0.959 . S
C577 H584 0.961 . S
C577 H585 0.960 . S
C578 C576 1.381 . S
C578 C579 1.394 . S
C578 H586 0.930 . S
C579 C578 1.394 . S
C579 C580 1.383 . S
C579 H587 0.929 . S
C580 C579 1.383 . S
C580 C581 1.377 . S
C581 H565 0.930 . S
C581 C580 1.377 . S
C581 C582 1.379 . S
C582 H566 0.931 . S
C582 C576 1.383 . S
C582 C581 1.379 . S
H583 C577 0.959 . S
H584 C577 0.961 . S
H585 C577 0.960 . S
H586 C578 0.930 . S
H587 C579 0.929 . S
H588 C596 0.929 . S
H589 C598 0.930 . S
H590 C600 0.930 . S
H591 C603 0.929 . S
H592 C606 0.930 . S
H593 C608 0.960 . S
H594 C608 0.960 . S
H595 C608 0.960 . S
C596 H588 0.929 . S
C596 C597 1.377 . S
C596 C598 1.384 . S
C597 C596 1.377 . S
C597 C603 1.390 . S
C598 H589 0.930 . S
C598 C596 1.384 . S
C598 C599 1.372 . S
C599 C598 1.372 . S
C599 C600 1.400 . S
C599 C604 1.490 . S
C600 H590 0.930 . S
C600 C599 1.400 . S
C600 C603 1.386 . S
H601 C617 0.930 . S
H602 C618 0.931 . S
C603 H591 0.929 . S
C603 C597 1.390 . S
C603 C600 1.386 . S
C604 C599 1.490 . S
C604 C606 1.395 . S
C604 C607 1.403 1_655 S
H605 C611 0.930 . S
C606 H592 0.930 . S
C606 C604 1.395 . S
C606 C609 1.403 1_556 S
C607 C604 1.403 1_455 S
C607 C608 1.524 . S
C607 C611 1.400 1_556 S
C608 H593 0.960 . S
C608 H594 0.960 . S
C608 H595 0.960 . S
C608 C607 1.524 . S
C609 C606 1.403 1_554 S
C609 C610 1.392 1_655 S
C609 C613 1.495 . S
C610 C609 1.392 1_455 S
C610 C611 1.385 . S
C610 C612 1.478 . S
C611 H605 0.930 . S
C611 C607 1.400 1_554 S
C611 C610 1.385 . S
C612 C610 1.478 . S
C612 C614 1.381 . S
C612 C618 1.383 . S
C613 C609 1.495 . S
C613 H619 0.959 . S
C613 H620 0.961 . S
C613 H621 0.960 . S
C614 C612 1.381 . S
C614 C615 1.394 . S
C614 H622 0.930 . S
C615 C614 1.394 . S
C615 C616 1.383 . S
C615 H623 0.929 . S
C616 C615 1.383 . S
C616 C617 1.377 . S
C617 H601 0.930 . S
C617 C616 1.377 . S
C617 C618 1.379 . S
C618 H602 0.931 . S
C618 C612 1.383 . S
C618 C617 1.379 . S
H619 C613 0.959 . S
H620 C613 0.961 . S
H621 C613 0.960 . S
H622 C614 0.930 . S
H623 C615 0.929 . S
H624 C632 0.929 . S
H625 C634 0.930 . S
H626 C636 0.930 . S
H627 C639 0.929 . S
H628 C642 0.930 . S
H629 C644 0.960 . S
H630 C644 0.960 . S
H631 C644 0.960 . S
C632 H624 0.929 . S
C632 C633 1.377 . S
C632 C634 1.384 . S
C633 C632 1.377 . S
C633 C639 1.390 . S
C634 H625 0.930 . S
C634 C632 1.384 . S
C634 C635 1.372 . S
C635 C634 1.372 . S
C635 C636 1.400 . S
C635 C640 1.490 . S
C636 H626 0.930 . S
C636 C635 1.400 . S
C636 C639 1.386 . S
H637 C653 0.930 . S
H638 C654 0.931 . S
C639 H627 0.929 . S
C639 C633 1.390 . S
C639 C636 1.386 . S
C640 C635 1.490 . S
C640 C642 1.395 . S
C640 C643 1.403 . S
H641 C647 0.930 . S
C642 H628 0.930 . S
C642 C640 1.395 . S
C642 C645 1.403 . S
C643 C640 1.403 . S
C643 C644 1.524 . S
C643 C647 1.400 . S
C644 H629 0.960 . S
C644 H630 0.960 . S
C644 H631 0.960 . S
C644 C643 1.524 . S
C645 C642 1.403 . S
C645 C646 1.392 . S
C645 C649 1.495 . S
C646 C645 1.392 . S
C646 C647 1.385 . S
C646 C648 1.478 . S
C647 H641 0.930 . S
C647 C643 1.400 . S
C647 C646 1.385 . S
C648 C646 1.478 . S
C648 C650 1.381 . S
C648 C654 1.383 . S
C649 C645 1.495 . S
C649 H655 0.959 . S
C649 H656 0.961 . S
C649 H657 0.960 . S
C650 C648 1.381 . S
C650 C651 1.394 . S
C650 H658 0.930 . S
C651 C650 1.394 . S
C651 C652 1.383 . S
C651 H659 0.929 . S
C652 C651 1.383 . S
C652 C653 1.377 . S
C653 H637 0.930 . S
C653 C652 1.377 . S
C653 C654 1.379 . S
C654 H638 0.931 . S
C654 C648 1.383 . S
C654 C653 1.379 . S
H655 C649 0.959 . S
H656 C649 0.961 . S
H657 C649 0.960 . S
H658 C650 0.930 . S
H659 C651 0.929 . S
H660 C668 0.929 . S
H661 C670 0.930 . S
H662 C672 0.930 . S
H663 C675 0.929 . S
H664 C678 0.930 . S
H665 C680 0.960 . S
H666 C680 0.960 . S
H667 C680 0.960 . S
C668 H660 0.929 . S
C668 C669 1.377 . S
C668 C670 1.384 . S
C669 C668 1.377 . S
C669 C675 1.390 . S
C670 H661 0.930 . S
C670 C668 1.384 . S
C670 C671 1.372 . S
C671 C670 1.372 . S
C671 C672 1.400 . S
C671 C676 1.490 . S
C672 H662 0.930 . S
C672 C671 1.400 . S
C672 C675 1.386 . S
H673 C689 0.930 . S
H674 C690 0.931 . S
C675 H663 0.929 . S
C675 C669 1.390 . S
C675 C672 1.386 . S
C676 C671 1.490 . S
C676 C678 1.395 . S
C676 C679 1.403 . S
H677 C683 0.930 . S
C678 H664 0.930 . S
C678 C676 1.395 . S
C678 C681 1.403 . S
C679 C676 1.403 . S
C679 C680 1.524 . S
C679 C683 1.400 . S
C680 H665 0.960 . S
C680 H666 0.960 . S
C680 H667 0.960 . S
C680 C679 1.524 . S
C681 C678 1.403 . S
C681 C682 1.392 . S
C681 C685 1.495 . S
C682 C681 1.392 . S
C682 C683 1.385 . S
C682 C684 1.478 . S
C683 H677 0.930 . S
C683 C679 1.400 . S
C683 C682 1.385 . S
C684 C682 1.478 . S
C684 C686 1.381 . S
C684 C690 1.383 . S
C685 C681 1.495 . S
C685 H691 0.959 . S
C685 H692 0.961 . S
C685 H693 0.960 . S
C686 C684 1.381 . S
C686 C687 1.394 . S
C686 H694 0.930 . S
C687 C686 1.394 . S
C687 C688 1.383 . S
C687 H695 0.929 . S
C688 C687 1.383 . S
C688 C689 1.377 . S
C689 H673 0.930 . S
C689 C688 1.377 . S
C689 C690 1.379 . S
C690 H674 0.931 . S
C690 C684 1.383 . S
C690 C689 1.379 . S
H691 C685 0.959 . S
H692 C685 0.961 . S
H693 C685 0.960 . S
H694 C686 0.930 . S
H695 C687 0.929 . S
H696 C704 0.929 1_545 S
H697 C706 0.930 . S
H698 C708 0.930 . S
H699 C711 0.929 . S
H700 C714 0.930 . S
H701 C716 0.960 . S
H702 C716 0.960 . S
H703 C716 0.992 . S
C704 H696 0.929 1_565 S
C704 C705 1.377 . S
C704 C706 1.384 1_565 S
C705 C704 1.377 . S
C705 C711 1.390 . S
C706 H697 0.930 . S
C706 C704 1.384 1_545 S
C706 C707 1.372 1_545 S
C707 C706 1.372 1_565 S
C707 C708 1.400 . S
C707 C712 1.490 . S
C708 H698 0.930 . S
C708 C707 1.400 . S
C708 C711 1.386 . S
H709 C725 0.930 1_565 S
H710 C726 0.931 1_565 S
C711 H699 0.929 . S
C711 C705 1.390 . S
C711 C708 1.386 . S
C712 C707 1.490 . S
C712 C714 1.395 1_565 S
C712 C715 1.403 1_554 S
H713 C719 0.930 . S
C714 H700 0.930 . S
C714 C712 1.395 1_545 S
C714 C717 1.403 1_655 S
C715 C712 1.403 1_556 S
C715 C716 1.524 . S
C715 C719 1.400 1_655 S
C716 H701 0.960 . S
C716 H702 0.960 . S
C716 H703 0.992 . S
C716 C715 1.524 . S
C717 C714 1.403 1_455 S
C717 C718 1.392 1_554 S
C717 C721 1.495 . S
C718 C717 1.392 1_556 S
C718 C719 1.385 1_545 S
C718 C720 1.478 . S
C719 H713 0.930 . S
C719 C715 1.400 1_455 S
C719 C718 1.385 1_565 S
C720 C718 1.478 . S
C720 C722 1.381 . S
C720 C726 1.383 . S
C721 C717 1.495 . S
C721 H727 0.959 . S
C721 H728 0.961 . S
C721 H729 0.960 . S
C722 C720 1.381 . S
C722 C723 1.394 . S
C722 H730 0.930 . S
C723 C722 1.394 . S
C723 C724 1.383 . S
C723 H731 0.929 . S
C724 C723 1.383 . S
C724 C725 1.377 . S
C725 H709 0.930 1_545 S
C725 C724 1.377 . S
C725 C726 1.379 . S
C726 H710 0.931 1_545 S
C726 C720 1.383 . S
C726 C725 1.379 . S
H727 C721 0.959 . S
H728 C721 0.961 . S
H729 C721 0.960 . S
H730 C722 0.930 . S
H731 C723 0.929 . S
H732 C740 0.929 . S
H733 C742 0.930 . S
H734 C744 0.956 . S
H735 C747 0.929 1_545 S
H736 C750 0.930 . S
H737 C752 0.960 . S
H738 C752 0.960 . S
H739 C752 0.960 . S
C740 H732 0.929 . S
C740 C741 1.377 . S
C740 C742 1.384 . S
C741 C740 1.377 . S
C741 C747 1.390 . S
C742 H733 0.930 . S
C742 C740 1.384 . S
C742 C743 1.372 . S
C743 C742 1.372 . S
C743 C744 1.382 1_565 S
C743 C748 1.490 . S
C744 H734 0.956 . S
C744 C743 1.382 1_545 S
C744 C747 1.379 1_545 S
H745 C761 0.930 . S
H746 C762 0.931 . S
C747 H735 0.929 1_565 S
C747 C741 1.390 . S
C747 C744 1.379 1_565 S
C748 C743 1.490 . S
C748 C750 1.395 . S
C748 C751 1.403 1_565 S
H749 C755 0.930 . S
C750 H736 0.930 . S
C750 C748 1.395 . S
C750 C753 1.403 . S
C751 C748 1.403 1_545 S
C751 C752 1.524 . S
C751 C755 1.400 . S
C752 H737 0.960 . S
C752 H738 0.960 . S
C752 H739 0.960 . S
C752 C751 1.524 . S
C753 C750 1.403 . S
C753 C754 1.392 1_565 S
C753 C757 1.495 . S
C754 C753 1.392 1_545 S
C754 C755 1.385 . S
C754 C756 1.478 . S
C755 H749 0.930 . S
C755 C751 1.400 . S
C755 C754 1.385 . S
C756 C754 1.478 . S
C756 C758 1.381 1_545 S
C756 C762 1.383 . S
C757 C753 1.495 . S
C757 H763 0.959 . S
C757 H764 0.961 . S
C757 H765 0.960 . S
C758 C756 1.381 1_565 S
C758 C759 1.394 1_565 S
C758 H766 0.930 . S
C759 C758 1.394 1_545 S
C759 C760 1.383 . S
C759 H767 0.929 1_545 S
C760 C759 1.383 . S
C760 C761 1.377 . S
C761 H745 0.930 . S
C761 C760 1.377 . S
C761 C762 1.379 . S
C762 H746 0.931 . S
C762 C756 1.383 . S
C762 C761 1.379 . S
H763 C757 0.959 . S
H764 C757 0.961 . S
H765 C757 0.960 . S
H766 C758 0.930 . S
H767 C759 0.929 1_565 S
H768 C776 0.929 . S
H769 C778 0.930 . S
H770 C780 0.930 . S
H771 C783 0.929 . S
H772 C786 0.930 . S
H773 C788 0.960 . S
H774 C788 0.960 . S
H775 C788 0.962 . S
C776 H768 0.929 . S
C776 C777 1.377 . S
C776 C778 1.384 . S
C777 C776 1.377 . S
C777 C783 1.390 . S
C778 H769 0.930 . S
C778 C776 1.384 . S
C778 C779 1.372 . S
C779 C778 1.372 . S
C779 C780 1.400 . S
C779 C784 1.490 . S
C780 H770 0.930 . S
C780 C779 1.400 . S
C780 C783 1.386 . S
H781 C797 0.930 . S
H782 C798 0.931 . S
C783 H771 0.929 . S
C783 C777 1.390 . S
C783 C780 1.386 . S
C784 C779 1.490 . S
C784 C786 1.395 . S
C784 C787 1.403 1_556 S
H785 C791 0.930 . S
C786 H772 0.930 . S
C786 C784 1.395 . S
C786 C789 1.403 . S
C787 C784 1.403 1_554 S
C787 C788 1.524 . S
C787 C791 1.400 . S
C788 H773 0.960 . S
C788 H774 0.960 . S
C788 H775 0.962 . S
C788 C787 1.524 . S
C789 C786 1.403 . S
C789 C790 1.392 1_556 S
C789 C793 1.495 . S
C790 C789 1.392 1_554 S
C790 C791 1.385 . S
C790 C792 1.478 . S
C791 H785 0.930 . S
C791 C787 1.400 . S
C791 C790 1.385 . S
C792 C790 1.478 . S
C792 C794 1.381 . S
C792 C798 1.383 . S
C793 C789 1.495 . S
C793 H799 0.959 . S
C793 H800 0.974 . S
C793 H801 0.977 . S
C794 C792 1.381 . S
C794 C795 1.394 . S
C794 H802 0.930 . S
C795 C794 1.394 . S
C795 C796 1.383 . S
C795 H803 0.929 . S
C796 C795 1.383 . S
C796 C797 1.377 . S
C797 H781 0.930 . S
C797 C796 1.377 . S
C797 C798 1.379 . S
C798 H782 0.931 . S
C798 C792 1.383 . S
C798 C797 1.379 . S
H799 C793 0.959 . S
H800 C793 0.974 . S
H801 C793 0.977 . S
H802 C794 0.930 . S
H803 C795 0.929 . S
H804 C812 0.929 . S
H805 C814 0.930 . S
H806 C816 0.930 . S
H807 C819 0.929 . S
H808 C822 0.930 . S
H809 C824 0.960 . S
H810 C824 0.960 . S
H811 C824 0.960 . S
C812 H804 0.929 . S
C812 C813 1.377 . S
C812 C814 1.384 . S
C813 C812 1.377 . S
C813 C819 1.390 . S
C814 H805 0.930 . S
C814 C812 1.384 . S
C814 C815 1.372 . S
C815 C814 1.372 . S
C815 C816 1.400 . S
C815 C820 1.490 . S
C816 H806 0.930 . S
C816 C815 1.400 . S
C816 C819 1.386 . S
H817 C833 0.930 . S
H818 C834 0.931 . S
C819 H807 0.929 . S
C819 C813 1.390 . S
C819 C816 1.386 . S
C820 C815 1.490 . S
C820 C822 1.395 . S
C820 C823 1.403 . S
H821 C827 0.930 . S
C822 H808 0.930 . S
C822 C820 1.395 . S
C822 C825 1.403 . S
C823 C820 1.403 . S
C823 C824 1.524 . S
C823 C827 1.400 . S
C824 H809 0.960 . S
C824 H810 0.960 . S
C824 H811 0.960 . S
C824 C823 1.524 . S
C825 C822 1.403 . S
C825 C826 1.392 . S
C825 C829 1.495 . S
C826 C825 1.392 . S
C826 C827 1.385 . S
C826 C828 1.478 . S
C827 H821 0.930 . S
C827 C823 1.400 . S
C827 C826 1.385 . S
C828 C826 1.478 . S
C828 C830 1.381 . S
C828 C834 1.383 . S
C829 C825 1.495 . S
C829 H835 0.959 . S
C829 H836 0.961 . S
C829 H837 0.960 . S
C830 C828 1.381 . S
C830 C831 1.394 . S
C830 H838 0.930 . S
C831 C830 1.394 . S
C831 C832 1.383 . S
C831 H839 0.929 . S
C832 C831 1.383 . S
C832 C833 1.377 . S
C833 H817 0.930 . S
C833 C832 1.377 . S
C833 C834 1.379 . S
C834 H818 0.931 . S
C834 C828 1.383 . S
C834 C833 1.379 . S
H835 C829 0.959 . S
H836 C829 0.961 . S
H837 C829 0.960 . S
H838 C830 0.930 . S
H839 C831 0.929 . S
H840 C848 0.929 . S
H841 C850 0.930 . S
H842 C852 0.930 . S
H843 C855 0.929 . S
H844 C858 0.930 . S
H845 C860 0.960 . S
H846 C860 0.960 . S
H847 C860 0.960 . S
C848 H840 0.929 . S
C848 C849 1.377 . S
C848 C850 1.384 . S
C849 C848 1.377 . S
C849 C855 1.390 . S
C850 H841 0.930 . S
C850 C848 1.384 . S
C850 C851 1.372 . S
C851 C850 1.372 . S
C851 C852 1.400 . S
C851 C856 1.490 . S
C852 H842 0.930 . S
C852 C851 1.400 . S
C852 C855 1.386 . S
H853 C869 0.930 . S
H854 C870 0.931 . S
C855 H843 0.929 . S
C855 C849 1.390 . S
C855 C852 1.386 . S
C856 C851 1.490 . S
C856 C858 1.395 . S
C856 C859 1.403 . S
H857 C863 0.930 . S
C858 H844 0.930 . S
C858 C856 1.395 . S
C858 C861 1.403 . S
C859 C856 1.403 . S
C859 C860 1.524 . S
C859 C863 1.400 . S
C860 H845 0.960 . S
C860 H846 0.960 . S
C860 H847 0.960 . S
C860 C859 1.524 . S
C861 C858 1.403 . S
C861 C862 1.392 . S
C861 C865 1.495 . S
C862 C861 1.392 . S
C862 C863 1.385 . S
C862 C864 1.478 . S
C863 H857 0.930 . S
C863 C859 1.400 . S
C863 C862 1.385 . S
C864 C862 1.478 . S
C864 C866 1.381 . S
C864 C870 1.383 . S
C865 C861 1.495 . S
C865 H871 0.959 . S
C865 H872 0.961 . S
C865 H873 0.960 . S
C866 C864 1.381 . S
C866 C867 1.394 . S
C866 H874 0.930 . S
C867 C866 1.394 . S
C867 C868 1.383 . S
C867 H875 0.929 . S
C868 C867 1.383 . S
C868 C869 1.377 . S
C869 H853 0.930 . S
C869 C868 1.377 . S
C869 C870 1.379 . S
C870 H854 0.931 . S
C870 C864 1.383 . S
C870 C869 1.379 . S
H871 C865 0.959 . S
H872 C865 0.961 . S
H873 C865 0.960 . S
H874 C866 0.930 . S
H875 C867 0.929 . S
H876 C884 0.929 . S
H877 C886 0.930 . S
H878 C888 0.930 . S
H879 C891 0.929 . S
H880 C894 0.930 . S
H881 C896 0.960 . S
H882 C896 0.960 . S
H883 C896 0.960 . S
C884 H876 0.929 . S
C884 C885 1.377 . S
C884 C886 1.384 . S
C885 C884 1.377 . S
C885 C891 1.390 . S
C886 H877 0.930 . S
C886 C884 1.384 . S
C886 C887 1.372 . S
C887 C886 1.372 . S
C887 C888 1.400 . S
C887 C892 1.490 . S
C888 H878 0.930 . S
C888 C887 1.400 . S
C888 C891 1.386 . S
H889 C905 0.930 . S
H890 C906 0.931 . S
C891 H879 0.929 . S
C891 C885 1.390 . S
C891 C888 1.386 . S
C892 C887 1.490 . S
C892 C894 1.395 . S
C892 C895 1.403 . S
H893 C899 0.930 . S
C894 H880 0.930 . S
C894 C892 1.395 . S
C894 C897 1.403 . S
C895 C892 1.403 . S
C895 C896 1.524 . S
C895 C899 1.400 . S
C896 H881 0.960 . S
C896 H882 0.960 . S
C896 H883 0.960 . S
C896 C895 1.524 . S
C897 C894 1.403 . S
C897 C898 1.392 . S
C897 C901 1.495 . S
C898 C897 1.392 . S
C898 C899 1.385 . S
C898 C900 1.478 . S
C899 H893 0.930 . S
C899 C895 1.400 . S
C899 C898 1.385 . S
C900 C898 1.478 . S
C900 C902 1.381 . S
C900 C906 1.383 . S
C901 C897 1.495 . S
C901 H907 0.959 . S
C901 H908 0.961 . S
C901 H909 0.960 . S
C902 C900 1.381 . S
C902 C903 1.394 . S
C902 H910 0.930 . S
C903 C902 1.394 . S
C903 C904 1.383 . S
C903 H911 0.929 . S
C904 C903 1.383 . S
C904 C905 1.377 . S
C905 H889 0.930 . S
C905 C904 1.377 . S
C905 C906 1.379 . S
C906 H890 0.931 . S
C906 C900 1.383 . S
C906 C905 1.379 . S
H907 C901 0.959 . S
H908 C901 0.961 . S
H909 C901 0.960 . S
H910 C902 0.930 . S
H911 C903 0.929 . S
H912 C920 0.929 . S
H913 C922 0.930 . S
H914 C924 0.930 . S
H915 C927 0.929 . S
H916 C930 0.930 . S
H917 C932 0.960 . S
H918 C932 0.960 . S
H919 C932 0.960 . S
C920 H912 0.929 . S
C920 C921 1.377 . S
C920 C922 1.384 . S
C921 C920 1.377 . S
C921 C927 1.390 . S
C922 H913 0.930 . S
C922 C920 1.384 . S
C922 C923 1.372 . S
C923 C922 1.372 . S
C923 C924 1.400 . S
C923 C928 1.490 . S
C924 H914 0.930 . S
C924 C923 1.400 . S
C924 C927 1.386 . S
H925 C941 0.930 . S
H926 C942 0.931 . S
C927 H915 0.929 . S
C927 C921 1.390 . S
C927 C924 1.386 . S
C928 C923 1.490 . S
C928 C930 1.395 . S
C928 C931 1.403 . S
H929 C935 0.930 . S
C930 H916 0.930 . S
C930 C928 1.395 . S
C930 C933 1.403 1_554 S
C931 C928 1.403 . S
C931 C932 1.524 . S
C931 C935 1.400 1_554 S
C932 H917 0.960 . S
C932 H918 0.960 . S
C932 H919 0.960 . S
C932 C931 1.524 . S
C933 C930 1.403 1_556 S
C933 C934 1.392 . S
C933 C937 1.495 . S
C934 C933 1.392 . S
C934 C935 1.385 . S
C934 C936 1.478 . S
C935 H929 0.930 . S
C935 C931 1.400 1_556 S
C935 C934 1.385 . S
C936 C934 1.478 . S
C936 C938 1.381 . S
C936 C942 1.383 . S
C937 C933 1.495 . S
C937 H943 0.959 . S
C937 H944 0.961 . S
C937 H945 0.960 . S
C938 C936 1.381 . S
C938 C939 1.394 . S
C938 H946 0.930 . S
C939 C938 1.394 . S
C939 C940 1.383 . S
C939 H947 0.929 . S
C940 C939 1.383 . S
C940 C941 1.377 . S
C941 H925 0.930 . S
C941 C940 1.377 . S
C941 C942 1.379 . S
C942 H926 0.931 . S
C942 C936 1.383 . S
C942 C941 1.379 . S
H943 C937 0.959 . S
H944 C937 0.961 . S
H945 C937 0.960 . S
H946 C938 0.930 . S
H947 C939 0.929 . S
H948 C956 0.929 . S
H949 C958 0.930 . S
H950 C960 0.930 . S
H951 C963 0.929 . S
H952 C966 0.930 . S
H953 C968 0.960 . S
H954 C968 0.960 . S
H955 C968 0.960 . S
C956 H948 0.929 . S
C956 C957 1.377 . S
C956 C958 1.384 . S
C957 C956 1.377 . S
C957 C963 1.390 . S
C958 H949 0.930 . S
C958 C956 1.384 . S
C958 C959 1.372 . S
C959 C958 1.372 . S
C959 C960 1.400 . S
C959 C964 1.490 . S
C960 H950 0.930 . S
C960 C959 1.400 . S
C960 C963 1.386 . S
H961 C977 0.930 . S
H962 C978 0.931 . S
C963 H951 0.929 . S
C963 C957 1.390 . S
C963 C960 1.386 . S
C964 C959 1.490 . S
C964 C966 1.395 . S
C964 C967 1.403 . S
H965 C971 0.930 . S
C966 H952 0.930 . S
C966 C964 1.395 . S
C966 C969 1.403 . S
C967 C964 1.403 . S
C967 C968 1.524 . S
C967 C971 1.400 . S
C968 H953 0.960 . S
C968 H954 0.960 . S
C968 H955 0.960 . S
C968 C967 1.524 . S
C969 C966 1.403 . S
C969 C970 1.392 . S
C969 C973 1.495 . S
C970 C969 1.392 . S
C970 C971 1.385 . S
C970 C972 1.478 . S
C971 H965 0.930 . S
C971 C967 1.400 . S
C971 C970 1.385 . S
C972 C970 1.478 . S
C972 C974 1.381 . S
C972 C978 1.383 . S
C973 C969 1.495 . S
C973 H979 0.959 . S
C973 H980 0.961 . S
C973 H981 0.960 . S
C974 C972 1.381 . S
C974 C975 1.394 . S
C974 H982 0.930 . S
C975 C974 1.394 . S
C975 C976 1.383 . S
C975 H983 0.929 . S
C976 C975 1.383 . S
C976 C977 1.377 . S
C977 H961 0.930 . S
C977 C976 1.377 . S
C977 C978 1.379 . S
C978 H962 0.931 . S
C978 C972 1.383 . S
C978 C977 1.379 . S
H979 C973 0.959 . S
H980 C973 0.961 . S
H981 C973 0.960 . S
H982 C974 0.930 . S
H983 C975 0.929 . S
H984 C992 0.929 . S
H985 C994 0.930 . S
H986 C996 0.930 . S
H987 C999 0.929 . S
H988 C1002 0.930 . S
H989 C1004 0.960 . S
H990 C1004 0.960 . S
H991 C1004 0.960 . S
C992 H984 0.929 . S
C992 C993 1.377 . S
C992 C994 1.384 . S
C993 C992 1.377 . S
C993 C999 1.390 . S
C994 H985 0.930 . S
C994 C992 1.384 . S
C994 C995 1.372 . S
C995 C994 1.372 . S
C995 C996 1.400 . S
C995 C1000 1.490 . S
C996 H986 0.930 . S
C996 C995 1.400 . S
C996 C999 1.386 . S
H997 C1013 0.930 . S
H998 C1014 0.931 . S
C999 H987 0.929 . S
C999 C993 1.390 . S
C999 C996 1.386 . S
C1000 C995 1.490 . S
C1000 C1002 1.395 . S
C1000 C1003 1.403 . S
H1001 C1007 0.930 . S
C1002 H988 0.930 . S
C1002 C1000 1.395 . S
C1002 C1005 1.403 . S
C1003 C1000 1.403 . S
C1003 C1004 1.524 . S
C1003 C1007 1.400 . S
C1004 H989 0.960 . S
C1004 H990 0.960 . S
C1004 H991 0.960 . S
C1004 C1003 1.524 . S
C1005 C1002 1.403 . S
C1005 C1006 1.392 . S
C1005 C1009 1.495 . S
C1006 C1005 1.392 . S
C1006 C1007 1.385 . S
C1006 C1008 1.478 . S
C1007 H1001 0.930 . S
C1007 C1003 1.400 . S
C1007 C1006 1.385 . S
C1008 C1006 1.478 . S
C1008 C1010 1.381 . S
C1008 C1014 1.383 . S
C1009 C1005 1.495 . S
C1009 H1015 0.959 . S
C1009 H1016 0.961 . S
C1009 H1017 0.960 . S
C1010 C1008 1.381 . S
C1010 C1011 1.394 . S
C1010 H1018 0.930 . S
C1011 C1010 1.394 . S
C1011 C1012 1.383 . S
C1011 H1019 0.929 . S
C1012 C1011 1.383 . S
C1012 C1013 1.377 . S
C1013 H997 0.930 . S
C1013 C1012 1.377 . S
C1013 C1014 1.379 . S
C1014 H998 0.931 . S
C1014 C1008 1.383 . S
C1014 C1013 1.379 . S
H1015 C1009 0.959 . S
H1016 C1009 0.961 . S
H1017 C1009 0.960 . S
H1018 C1010 0.930 . S
H1019 C1011 0.929 . S
H1020 C1028 0.929 . S
H1021 C1030 0.930 . S
H1022 C1032 0.930 . S
H1023 C1035 0.929 . S
H1024 C1038 0.930 . S
H1025 C1040 0.960 . S
H1026 C1040 0.960 . S
H1027 C1040 0.960 . S
C1028 H1020 0.929 . S
C1028 C1029 1.377 . S
C1028 C1030 1.384 . S
C1029 C1028 1.377 . S
C1029 C1035 1.390 . S
C1030 H1021 0.930 . S
C1030 C1028 1.384 . S
C1030 C1031 1.372 . S
C1031 C1030 1.372 . S
C1031 C1032 1.400 . S
C1031 C1036 1.490 . S
C1032 H1022 0.930 . S
C1032 C1031 1.400 . S
C1032 C1035 1.386 . S
H1033 C1049 0.930 . S
H1034 C1050 0.931 . S
C1035 H1023 0.929 . S
C1035 C1029 1.390 . S
C1035 C1032 1.386 . S
C1036 C1031 1.490 . S
C1036 C1038 1.395 . S
C1036 C1039 1.403 . S
H1037 C1043 0.930 . S
C1038 H1024 0.930 . S
C1038 C1036 1.395 . S
C1038 C1041 1.403 . S
C1039 C1036 1.403 . S
C1039 C1040 1.524 . S
C1039 C1043 1.400 . S
C1040 H1025 0.960 . S
C1040 H1026 0.960 . S
C1040 H1027 0.960 . S
C1040 C1039 1.524 . S
C1041 C1038 1.403 . S
C1041 C1042 1.392 . S
C1041 C1045 1.495 . S
C1042 C1041 1.392 . S
C1042 C1043 1.385 . S
C1042 C1044 1.478 . S
C1043 H1037 0.930 . S
C1043 C1039 1.400 . S
C1043 C1042 1.385 . S
C1044 C1042 1.478 . S
C1044 C1046 1.381 . S
C1044 C1050 1.383 . S
C1045 C1041 1.495 . S
C1045 H1051 0.959 . S
C1045 H1052 0.961 . S
C1045 H1053 0.960 . S
C1046 C1044 1.381 . S
C1046 C1047 1.394 . S
C1046 H1054 0.930 . S
C1047 C1046 1.394 . S
C1047 C1048 1.383 . S
C1047 H1055 0.929 . S
C1048 C1047 1.383 . S
C1048 C1049 1.377 . S
C1049 H1033 0.930 . S
C1049 C1048 1.377 . S
C1049 C1050 1.379 . S
C1050 H1034 0.931 . S
C1050 C1044 1.383 . S
C1050 C1049 1.379 . S
H1051 C1045 0.959 . S
H1052 C1045 0.961 . S
H1053 C1045 0.960 . S
H1054 C1046 0.930 . S
H1055 C1047 0.929 . S
H1056 C1064 0.929 . S
H1057 C1066 0.930 . S
H1058 C1068 0.930 . S
H1059 C1071 0.929 . S
H1060 C1074 0.930 . S
H1061 C1076 0.960 . S
H1062 C1076 0.960 . S
H1063 C1076 0.960 . S
C1064 H1056 0.929 . S
C1064 C1065 1.377 . S
C1064 C1066 1.384 . S
C1065 C1064 1.377 . S
C1065 C1071 1.390 . S
C1066 H1057 0.930 . S
C1066 C1064 1.384 . S
C1066 C1067 1.372 . S
C1067 C1066 1.372 . S
C1067 C1068 1.400 . S
C1067 C1072 1.490 . S
C1068 H1058 0.930 . S
C1068 C1067 1.400 . S
C1068 C1071 1.386 . S
H1069 C1085 0.930 . S
H1070 C1086 0.931 . S
C1071 H1059 0.929 . S
C1071 C1065 1.390 . S
C1071 C1068 1.386 . S
C1072 C1067 1.490 . S
C1072 C1074 1.395 . S
C1072 C1075 1.403 . S
H1073 C1079 0.930 . S
C1074 H1060 0.930 . S
C1074 C1072 1.395 . S
C1074 C1077 1.403 . S
C1075 C1072 1.403 . S
C1075 C1076 1.524 . S
C1075 C1079 1.400 . S
C1076 H1061 0.960 . S
C1076 H1062 0.960 . S
C1076 H1063 0.960 . S
C1076 C1075 1.524 . S
C1077 C1074 1.403 . S
C1077 C1078 1.392 . S
C1077 C1081 1.495 . S
C1078 C1077 1.392 . S
C1078 C1079 1.385 . S
C1078 C1080 1.478 . S
C1079 H1073 0.930 . S
C1079 C1075 1.400 . S
C1079 C1078 1.385 . S
C1080 C1078 1.478 . S
C1080 C1082 1.381 . S
C1080 C1086 1.383 . S
C1081 C1077 1.495 . S
C1081 H1087 0.959 . S
C1081 H1088 0.961 . S
C1081 H1089 0.960 . S
C1082 C1080 1.381 . S
C1082 C1083 1.394 . S
C1082 H1090 0.930 . S
C1083 C1082 1.394 . S
C1083 C1084 1.383 . S
C1083 H1091 0.929 . S
C1084 C1083 1.383 . S
C1084 C1085 1.377 . S
C1085 H1069 0.930 . S
C1085 C1084 1.377 . S
C1085 C1086 1.379 . S
C1086 H1070 0.931 . S
C1086 C1080 1.383 . S
C1086 C1085 1.379 . S
H1087 C1081 0.959 . S
H1088 C1081 0.961 . S
H1089 C1081 0.960 . S
H1090 C1082 0.930 . S
H1091 C1083 0.929 . S
H1092 C1100 0.929 . S
H1093 C1102 0.930 . S
H1094 C1104 0.930 . S
H1095 C1107 0.929 . S
H1096 C1110 0.930 . S
H1097 C1112 0.960 . S
H1098 C1112 0.960 . S
H1099 C1112 0.960 . S
C1100 H1092 0.929 . S
C1100 C1101 1.377 . S
C1100 C1102 1.384 . S
C1101 C1100 1.377 . S
C1101 C1107 1.390 1_545 S
C1102 H1093 0.930 . S
C1102 C1100 1.384 . S
C1102 C1103 1.372 1_545 S
C1103 C1102 1.372 1_565 S
C1103 C1104 1.400 . S
C1103 C1108 1.490 . S
C1104 H1094 0.930 . S
C1104 C1103 1.400 . S
C1104 C1107 1.386 . S
H1105 C1121 0.930 . S
H1106 C1122 0.931 . S
C1107 H1095 0.929 . S
C1107 C1101 1.390 1_565 S
C1107 C1104 1.386 . S
C1108 C1103 1.490 . S
C1108 C1110 1.395 . S
C1108 C1111 1.403 . S
H1109 C1115 0.930 . S
C1110 H1096 0.930 . S
C1110 C1108 1.395 . S
C1110 C1113 1.403 . S
C1111 C1108 1.403 . S
C1111 C1112 1.524 . S
C1111 C1115 1.400 . S
C1112 H1097 0.960 . S
C1112 H1098 0.960 . S
C1112 H1099 0.960 . S
C1112 C1111 1.524 . S
C1113 C1110 1.403 . S
C1113 C1114 1.392 . S
C1113 C1117 1.495 . S
C1114 C1113 1.392 . S
C1114 C1115 1.385 . S
C1114 C1116 1.478 . S
C1115 H1109 0.930 . S
C1115 C1111 1.400 . S
C1115 C1114 1.385 . S
C1116 C1114 1.478 . S
C1116 C1118 1.381 . S
C1116 C1122 1.383 . S
C1117 C1113 1.495 . S
C1117 H1123 0.959 . S
C1117 H1124 0.961 . S
C1117 H1125 0.960 . S
C1118 C1116 1.381 . S
C1118 C1119 1.394 . S
C1118 H1126 0.930 . S
C1119 C1118 1.394 . S
C1119 C1120 1.383 . S
C1119 H1127 0.929 . S
C1120 C1119 1.383 . S
C1120 C1121 1.377 . S
C1121 H1105 0.930 . S
C1121 C1120 1.377 . S
C1121 C1122 1.379 . S
C1122 H1106 0.931 . S
C1122 C1116 1.383 . S
C1122 C1121 1.379 . S
H1123 C1117 0.959 . S
H1124 C1117 0.961 . S
H1125 C1117 0.960 . S
H1126 C1118 0.930 . S
H1127 C1119 0.929 . S
H1128 C1136 0.929 . S
H1129 C1138 0.930 . S
H1130 C1140 0.930 . S
H1131 C1143 0.929 . S
H1132 C1146 0.929 1_554 S
H1133 C1148 0.960 . S
H1134 C1148 0.960 . S
H1135 C1148 0.960 . S
C1136 H1128 0.929 . S
C1136 C1137 1.377 . S
C1136 C1138 1.384 . S
C1137 C1136 1.377 . S
C1137 C1143 1.390 . S
C1138 H1129 0.930 . S
C1138 C1136 1.384 . S
C1138 C1139 1.372 . S
C1139 C1138 1.372 . S
C1139 C1140 1.400 . S
C1139 C1144 1.490 . S
C1140 H1130 0.930 . S
C1140 C1139 1.400 . S
C1140 C1143 1.386 . S
H1141 C1157 0.930 . S
H1142 C1158 0.931 . S
C1143 H1131 0.929 . S
C1143 C1137 1.390 . S
C1143 C1140 1.386 . S
C1144 C1139 1.490 . S
C1144 C1146 1.397 1_554 S
C1144 C1147 1.403 . S
H1145 C1151 0.930 . S
C1146 H1132 0.929 1_556 S
C1146 C1144 1.397 1_556 S
C1146 C1149 1.400 . S
C1147 C1144 1.403 . S
C1147 C1148 1.524 . S
C1147 C1151 1.400 1_554 S
C1148 H1133 0.960 . S
C1148 H1134 0.960 . S
C1148 H1135 0.960 . S
C1148 C1147 1.524 . S
C1149 C1146 1.400 . S
C1149 C1150 1.392 . S
C1149 C1153 1.495 . S
C1150 C1149 1.392 . S
C1150 C1151 1.385 . S
C1150 C1152 1.478 . S
C1151 H1145 0.930 . S
C1151 C1147 1.400 1_556 S
C1151 C1150 1.385 . S
C1152 C1150 1.478 . S
C1152 C1154 1.381 . S
C1152 C1158 1.383 . S
C1153 C1149 1.495 . S
C1153 H1159 0.959 . S
C1153 H1160 0.961 . S
C1153 H1161 0.960 . S
C1154 C1152 1.381 . S
C1154 C1155 1.394 . S
C1154 H1162 0.930 . S
C1155 C1154 1.394 . S
C1155 C1156 1.383 . S
C1155 H1163 0.929 . S
C1156 C1155 1.383 . S
C1156 C1157 1.377 . S
C1157 H1141 0.930 . S
C1157 C1156 1.377 . S
C1157 C1158 1.379 . S
C1158 H1142 0.931 . S
C1158 C1152 1.383 . S
C1158 C1157 1.379 . S
H1159 C1153 0.959 . S
H1160 C1153 0.961 . S
H1161 C1153 0.960 . S
H1162 C1154 0.930 . S
H1163 C1155 0.929 . S
H1164 C1172 0.929 . S
H1165 C1174 0.930 . S
H1166 C1176 0.930 . S
H1167 C1179 0.929 . S
H1168 C1182 0.930 . S
H1169 C1184 0.960 . S
H1170 C1184 0.960 . S
H1171 C1184 0.960 . S
C1172 H1164 0.929 . S
C1172 C1173 1.377 . S
C1172 C1174 1.384 . S
C1173 C1172 1.377 . S
C1173 C1179 1.390 . S
C1174 H1165 0.930 . S
C1174 C1172 1.384 . S
C1174 C1175 1.372 . S
C1175 C1174 1.372 . S
C1175 C1176 1.400 . S
C1175 C1180 1.490 . S
C1176 H1166 0.930 . S
C1176 C1175 1.400 . S
C1176 C1179 1.386 . S
H1177 C1193 0.930 . S
H1178 C1194 0.931 . S
C1179 H1167 0.929 . S
C1179 C1173 1.390 . S
C1179 C1176 1.386 . S
C1180 C1175 1.490 . S
C1180 C1182 1.395 . S
C1180 C1183 1.403 . S
H1181 C1187 0.930 . S
C1182 H1168 0.930 . S
C1182 C1180 1.395 . S
C1182 C1185 1.403 . S
C1183 C1180 1.403 . S
C1183 C1184 1.524 . S
C1183 C1187 1.400 . S
C1184 H1169 0.960 . S
C1184 H1170 0.960 . S
C1184 H1171 0.960 . S
C1184 C1183 1.524 . S
C1185 C1182 1.403 . S
C1185 C1186 1.392 . S
C1185 C1189 1.495 . S
C1186 C1185 1.392 . S
C1186 C1187 1.385 . S
C1186 C1188 1.478 . S
C1187 H1181 0.930 . S
C1187 C1183 1.400 . S
C1187 C1186 1.385 . S
C1188 C1186 1.478 . S
C1188 C1190 1.381 . S
C1188 C1194 1.383 1_545 S
C1189 C1185 1.495 . S
C1189 H1195 0.959 . S
C1189 H1196 0.961 . S
C1189 H1197 0.960 . S
C1190 C1188 1.381 . S
C1190 C1191 1.394 . S
C1190 H1198 0.930 . S
C1191 C1190 1.394 . S
C1191 C1192 1.383 1_545 S
C1191 H1199 0.929 . S
C1192 C1191 1.383 1_565 S
C1192 C1193 1.377 . S
C1193 H1177 0.930 . S
C1193 C1192 1.377 . S
C1193 C1194 1.379 . S
C1194 H1178 0.931 . S
C1194 C1188 1.383 1_565 S
C1194 C1193 1.379 . S
H1195 C1189 0.959 . S
H1196 C1189 0.961 . S
H1197 C1189 0.960 . S
H1198 C1190 0.930 . S
H1199 C1191 0.929 . S
H1200 C1208 0.929 . S
H1201 C1210 0.930 . S
H1202 C1212 0.930 . S
H1203 C1215 0.929 . S
H1204 C1218 0.930 . S
H1205 C1220 0.960 . S
H1206 C1220 0.960 . S
H1207 C1220 0.960 . S
C1208 H1200 0.929 . S
C1208 C1209 1.377 . S
C1208 C1210 1.384 . S
C1209 C1208 1.377 . S
C1209 C1215 1.390 . S
C1210 H1201 0.930 . S
C1210 C1208 1.384 . S
C1210 C1211 1.372 . S
C1211 C1210 1.372 . S
C1211 C1212 1.400 . S
C1211 C1216 1.490 . S
C1212 H1202 0.930 . S
C1212 C1211 1.400 . S
C1212 C1215 1.386 . S
H1213 C1229 0.930 . S
H1214 C1230 0.931 . S
C1215 H1203 0.929 . S
C1215 C1209 1.390 . S
C1215 C1212 1.386 . S
C1216 C1211 1.490 . S
C1216 C1218 1.395 . S
C1216 C1219 1.403 . S
H1217 C1223 0.930 . S
C1218 H1204 0.930 . S
C1218 C1216 1.395 . S
C1218 C1221 1.403 . S
C1219 C1216 1.403 . S
C1219 C1220 1.524 . S
C1219 C1223 1.400 . S
C1220 H1205 0.960 . S
C1220 H1206 0.960 . S
C1220 H1207 0.960 . S
C1220 C1219 1.524 . S
C1221 C1218 1.403 . S
C1221 C1222 1.392 . S
C1221 C1225 1.495 . S
C1222 C1221 1.392 . S
C1222 C1223 1.385 . S
C1222 C1224 1.478 . S
C1223 H1217 0.930 . S
C1223 C1219 1.400 . S
C1223 C1222 1.385 . S
C1224 C1222 1.478 . S
C1224 C1226 1.381 . S
C1224 C1230 1.383 . S
C1225 C1221 1.495 . S
C1225 H1231 0.959 . S
C1225 H1232 0.961 . S
C1225 H1233 0.960 . S
C1226 C1224 1.381 . S
C1226 C1227 1.394 . S
C1226 H1234 0.930 . S
C1227 C1226 1.394 . S
C1227 C1228 1.383 . S
C1227 H1235 0.929 . S
C1228 C1227 1.383 . S
C1228 C1229 1.377 . S
C1229 H1213 0.930 . S
C1229 C1228 1.377 . S
C1229 C1230 1.379 . S
C1230 H1214 0.931 . S
C1230 C1224 1.383 . S
C1230 C1229 1.379 . S
H1231 C1225 0.959 . S
H1232 C1225 0.961 . S
H1233 C1225 0.960 . S
H1234 C1226 0.930 . S
H1235 C1227 0.929 . S
H1236 C1244 0.929 . S
H1237 C1246 0.930 . S
H1238 C1248 0.930 . S
H1239 C1251 0.929 . S
H1240 C1254 0.930 1_565 S
H1241 C1256 0.960 . S
H1242 C1256 0.960 . S
H1243 C1256 0.960 . S
C1244 H1236 0.929 . S
C1244 C1245 1.377 . S
C1244 C1246 1.384 1_565 S
C1245 C1244 1.377 . S
C1245 C1251 1.390 . S
C1246 H1237 0.930 . S
C1246 C1244 1.384 1_545 S
C1246 C1247 1.372 . S
C1247 C1246 1.372 . S
C1247 C1248 1.400 . S
C1247 C1252 1.490 . S
C1248 H1238 0.930 . S
C1248 C1247 1.400 . S
C1248 C1251 1.386 1_545 S
H1249 C1265 0.930 . S
H1250 C1266 0.931 . S
C1251 H1239 0.929 . S
C1251 C1245 1.390 . S
C1251 C1248 1.386 1_565 S
C1252 C1247 1.490 . S
C1252 C1254 1.395 . S
C1252 C1255 1.403 . S
H1253 C1259 0.930 . S
C1254 H1240 0.930 1_545 S
C1254 C1252 1.395 . S
C1254 C1257 1.403 . S
C1255 C1252 1.403 . S
C1255 C1256 1.524 . S
C1255 C1259 1.400 . S
C1256 H1241 0.960 . S
C1256 H1242 0.960 . S
C1256 H1243 0.960 . S
C1256 C1255 1.524 . S
C1257 C1254 1.403 . S
C1257 C1258 1.392 . S
C1257 C1261 1.495 . S
C1258 C1257 1.392 . S
C1258 C1259 1.385 . S
C1258 C1260 1.478 . S
C1259 H1253 0.930 . S
C1259 C1255 1.400 . S
C1259 C1258 1.385 . S
C1260 C1258 1.478 . S
C1260 C1262 1.381 . S
C1260 C1266 1.383 . S
C1261 C1257 1.495 . S
C1261 H1267 0.959 1_545 S
C1261 H1268 0.961 . S
C1261 H1269 0.960 . S
C1262 C1260 1.381 . S
C1262 C1263 1.394 . S
C1262 H1270 0.930 . S
C1263 C1262 1.394 . S
C1263 C1264 1.383 . S
C1263 H1271 0.929 . S
C1264 C1263 1.383 . S
C1264 C1265 1.377 . S
C1265 H1249 0.930 . S
C1265 C1264 1.377 . S
C1265 C1266 1.379 . S
C1266 H1250 0.931 . S
C1266 C1260 1.383 . S
C1266 C1265 1.379 . S
H1267 C1261 0.959 1_565 S
H1268 C1261 0.961 . S
H1269 C1261 0.960 . S
H1270 C1262 0.930 . S
H1271 C1263 0.929 . S
H1272 C1280 0.929 . S
H1273 C1282 0.930 . S
H1274 C1284 0.930 . S
H1275 C1287 0.929 . S
H1276 C1290 0.930 . S
H1277 C1292 0.960 . S
H1278 C1292 0.960 . S
H1279 C1292 0.960 . S
C1280 H1272 0.929 . S
C1280 C1281 1.377 . S
C1280 C1282 1.384 . S
C1281 C1280 1.377 . S
C1281 C1287 1.390 . S
C1282 H1273 0.930 . S
C1282 C1280 1.384 . S
C1282 C1283 1.372 . S
C1283 C1282 1.372 . S
C1283 C1284 1.400 . S
C1283 C1288 1.490 . S
C1284 H1274 0.930 . S
C1284 C1283 1.400 . S
C1284 C1287 1.386 . S
H1285 C1301 0.930 . S
H1286 C1302 0.931 . S
C1287 H1275 0.929 . S
C1287 C1281 1.390 . S
C1287 C1284 1.386 . S
C1288 C1283 1.490 . S
C1288 C1290 1.395 1_554 S
C1288 C1291 1.403 . S
H1289 C1295 0.930 . S
C1290 H1276 0.930 . S
C1290 C1288 1.395 1_556 S
C1290 C1293 1.403 . S
C1291 C1288 1.403 . S
C1291 C1292 1.524 . S
C1291 C1295 1.400 1_554 S
C1292 H1277 0.960 . S
C1292 H1278 0.960 . S
C1292 H1279 0.960 . S
C1292 C1291 1.524 . S
C1293 C1290 1.403 . S
C1293 C1294 1.392 . S
C1293 C1297 1.495 . S
C1294 C1293 1.392 . S
C1294 C1295 1.385 . S
C1294 C1296 1.478 . S
C1295 H1289 0.930 . S
C1295 C1291 1.400 1_556 S
C1295 C1294 1.385 . S
C1296 C1294 1.478 . S
C1296 C1298 1.381 . S
C1296 C1302 1.383 . S
C1297 C1293 1.495 . S
C1297 H1303 0.959 . S
C1297 H1304 0.961 . S
C1297 H1305 0.960 . S
C1298 C1296 1.381 . S
C1298 C1299 1.394 . S
C1298 H1306 0.930 . S
C1299 C1298 1.394 . S
C1299 C1300 1.383 . S
C1299 H1307 0.929 . S
C1300 C1299 1.383 . S
C1300 C1301 1.377 . S
C1301 H1285 0.930 . S
C1301 C1300 1.377 . S
C1301 C1302 1.379 . S
C1302 H1286 0.931 . S
C1302 C1296 1.383 . S
C1302 C1301 1.379 . S
H1303 C1297 0.959 . S
H1304 C1297 0.961 . S
H1305 C1297 0.960 . S
H1306 C1298 0.930 . S
H1307 C1299 0.929 . S
H1308 C1316 0.929 . S
H1309 C1318 0.930 . S
H1310 C1320 0.930 . S
H1311 C1323 0.929 . S
H1312 C1326 0.930 . S
H1313 C1328 0.960 . S
H1314 C1328 0.960 . S
H1315 C1328 0.960 . S
C1316 H1308 0.929 . S
C1316 C1317 1.377 1_565 S
C1316 C1318 1.384 . S
C1317 C1316 1.377 1_545 S
C1317 C1323 1.390 . S
C1318 H1309 0.930 . S
C1318 C1316 1.384 . S
C1318 C1319 1.372 . S
C1319 C1318 1.372 . S
C1319 C1320 1.400 1_565 S
C1319 C1324 1.490 . S
C1320 H1310 0.930 . S
C1320 C1319 1.400 1_545 S
C1320 C1323 1.386 . S
H1321 C1337 0.930 . S
H1322 C1338 0.931 . S
C1323 H1311 0.929 . S
C1323 C1317 1.390 . S
C1323 C1320 1.386 . S
C1324 C1319 1.490 . S
C1324 C1326 1.395 . S
C1324 C1327 1.403 . S
H1325 C1331 0.930 . S
C1326 H1312 0.930 . S
C1326 C1324 1.395 . S
C1326 C1329 1.403 . S
C1327 C1324 1.403 . S
C1327 C1328 1.524 1_565 S
C1327 C1331 1.400 . S
C1328 H1313 0.960 . S
C1328 H1314 0.960 . S
C1328 H1315 0.960 . S
C1328 C1327 1.524 1_545 S
C1329 C1326 1.403 . S
C1329 C1330 1.392 . S
C1329 C1333 1.495 . S
C1330 C1329 1.392 . S
C1330 C1331 1.385 . S
C1330 C1332 1.478 . S
C1331 H1325 0.930 . S
C1331 C1327 1.400 . S
C1331 C1330 1.385 . S
C1332 C1330 1.478 . S
C1332 C1334 1.381 . S
C1332 C1338 1.383 . S
C1333 C1329 1.495 . S
C1333 H1339 0.959 . S
C1333 H1340 0.961 . S
C1333 H1341 0.960 . S
C1334 C1332 1.381 . S
C1334 C1335 1.394 . S
C1334 H1342 0.930 . S
C1335 C1334 1.394 . S
C1335 C1336 1.383 . S
C1335 H1343 0.929 . S
C1336 C1335 1.383 . S
C1336 C1337 1.377 . S
C1337 H1321 0.930 . S
C1337 C1336 1.377 . S
C1337 C1338 1.379 . S
C1338 H1322 0.931 . S
C1338 C1332 1.383 . S
C1338 C1337 1.379 . S
H1339 C1333 0.959 . S
H1340 C1333 0.961 . S
H1341 C1333 0.960 . S
H1342 C1334 0.930 . S
H1343 C1335 0.929 . S
H1344 C1352 0.929 . S
H1345 C1354 0.930 . S
H1346 C1356 0.930 . S
H1347 C1359 0.929 . S
H1348 C1362 0.930 . S
H1349 C1364 0.960 . S
H1350 C1364 0.960 . S
H1351 C1364 0.960 . S
C1352 H1344 0.929 . S
C1352 C1353 1.377 . S
C1352 C1354 1.384 . S
C1353 C1352 1.377 . S
C1353 C1359 1.390 . S
C1354 H1345 0.930 . S
C1354 C1352 1.384 . S
C1354 C1355 1.372 . S
C1355 C1354 1.372 . S
C1355 C1356 1.400 . S
C1355 C1360 1.490 . S
C1356 H1346 0.930 . S
C1356 C1355 1.400 . S
C1356 C1359 1.386 . S
H1357 C1373 0.930 . S
H1358 C1374 0.931 . S
C1359 H1347 0.929 . S
C1359 C1353 1.390 . S
C1359 C1356 1.386 . S
C1360 C1355 1.490 . S
C1360 C1362 1.395 . S
C1360 C1363 1.403 . S
H1361 C1367 0.930 . S
C1362 H1348 0.930 . S
C1362 C1360 1.395 . S
C1362 C1365 1.403 . S
C1363 C1360 1.403 . S
C1363 C1364 1.524 . S
C1363 C1367 1.400 . S
C1364 H1349 0.960 . S
C1364 H1350 0.960 . S
C1364 H1351 0.960 . S
C1364 C1363 1.524 . S
C1365 C1362 1.403 . S
C1365 C1366 1.392 . S
C1365 C1369 1.495 . S
C1366 C1365 1.392 . S
C1366 C1367 1.385 . S
C1366 C1368 1.478 . S
C1367 H1361 0.930 . S
C1367 C1363 1.400 . S
C1367 C1366 1.385 . S
C1368 C1366 1.478 . S
C1368 C1370 1.381 . S
C1368 C1374 1.383 . S
C1369 C1365 1.495 . S
C1369 H1375 0.959 . S
C1369 H1376 0.961 . S
C1369 H1377 0.960 . S
C1370 C1368 1.381 . S
C1370 C1371 1.394 . S
C1370 H1378 0.930 . S
C1371 C1370 1.394 . S
C1371 C1372 1.383 . S
C1371 H1379 0.929 . S
C1372 C1371 1.383 . S
C1372 C1373 1.377 . S
C1373 H1357 0.930 . S
C1373 C1372 1.377 . S
C1373 C1374 1.379 . S
C1374 H1358 0.931 . S
C1374 C1368 1.383 . S
C1374 C1373 1.379 . S
H1375 C1369 0.959 . S
H1376 C1369 0.961 . S
H1377 C1369 0.960 . S
H1378 C1370 0.930 . S
H1379 C1371 0.929 . S
H1380 C1388 0.929 . S
H1381 C1390 0.930 . S
H1382 C1392 0.930 . S
H1383 C1395 0.929 . S
H1384 C1398 0.930 . S
H1385 C1400 0.960 . S
H1386 C1400 0.960 . S
H1387 C1400 0.960 . S
C1388 H1380 0.929 . S
C1388 C1389 1.377 . S
C1388 C1390 1.384 . S
C1389 C1388 1.377 . S
C1389 C1395 1.390 . S
C1390 H1381 0.930 . S
C1390 C1388 1.384 . S
C1390 C1391 1.372 . S
C1391 C1390 1.372 . S
C1391 C1392 1.400 . S
C1391 C1396 1.490 . S
C1392 H1382 0.930 . S
C1392 C1391 1.400 . S
C1392 C1395 1.386 . S
H1393 C1409 0.930 . S
H1394 C1410 0.931 . S
C1395 H1383 0.929 . S
C1395 C1389 1.390 . S
C1395 C1392 1.386 . S
C1396 C1391 1.490 . S
C1396 C1398 1.395 . S
C1396 C1399 1.403 . S
H1397 C1403 0.930 . S
C1398 H1384 0.930 . S
C1398 C1396 1.395 . S
C1398 C1401 1.403 . S
C1399 C1396 1.403 . S
C1399 C1400 1.524 . S
C1399 C1403 1.400 . S
C1400 H1385 0.960 . S
C1400 H1386 0.960 . S
C1400 H1387 0.960 . S
C1400 C1399 1.524 . S
C1401 C1398 1.403 . S
C1401 C1402 1.392 . S
C1401 C1405 1.495 . S
C1402 C1401 1.392 . S
C1402 C1403 1.385 . S
C1402 C1404 1.478 . S
C1403 H1397 0.930 . S
C1403 C1399 1.400 . S
C1403 C1402 1.385 . S
C1404 C1402 1.478 . S
C1404 C1406 1.381 . S
C1404 C1410 1.383 . S
C1405 C1401 1.495 . S
C1405 H1411 0.959 . S
C1405 H1412 0.961 . S
C1405 H1413 0.960 . S
C1406 C1404 1.381 . S
C1406 C1407 1.394 . S
C1406 H1414 0.930 . S
C1407 C1406 1.394 . S
C1407 C1408 1.383 . S
C1407 H1415 0.929 . S
C1408 C1407 1.383 . S
C1408 C1409 1.377 . S
C1409 H1393 0.930 . S
C1409 C1408 1.377 . S
C1409 C1410 1.379 . S
C1410 H1394 0.931 . S
C1410 C1404 1.383 . S
C1410 C1409 1.379 . S
H1411 C1405 0.959 . S
H1412 C1405 0.961 . S
H1413 C1405 0.960 . S
H1414 C1406 0.930 . S
H1415 C1407 0.929 . S
H1416 C1424 0.929 . S
H1417 C1426 0.930 . S
H1418 C1428 0.930 . S
H1419 C1431 0.929 . S
H1420 C1434 0.930 . S
H1421 C1436 0.933 1_455 S
H1422 C1436 0.971 . S
H1423 C1436 0.977 . S
C1424 H1416 0.929 . S
C1424 C1425 1.377 . S
C1424 C1426 1.384 . S
C1425 C1424 1.377 . S
C1425 C1431 1.390 . S
C1426 H1417 0.930 . S
C1426 C1424 1.384 . S
C1426 C1427 1.372 . S
C1427 C1426 1.372 . S
C1427 C1428 1.400 . S
C1427 C1432 1.490 . S
C1428 H1418 0.930 . S
C1428 C1427 1.400 . S
C1428 C1431 1.386 . S
H1429 C1445 0.930 . S
H1430 C1446 0.931 . S
C1431 H1419 0.929 . S
C1431 C1425 1.390 . S
C1431 C1428 1.386 . S
C1432 C1427 1.490 . S
C1432 C1434 1.395 . S
C1432 C1435 1.403 . S
H1433 C1439 0.930 . S
C1434 H1420 0.930 . S
C1434 C1432 1.395 . S
C1434 C1437 1.411 . S
C1435 C1432 1.403 . S
C1435 C1436 1.525 . S
C1435 C1439 1.400 1_655 S
C1436 H1421 0.933 1_655 S
C1436 H1422 0.971 . S
C1436 H1423 0.977 . S
C1436 C1435 1.525 . S
C1437 C1434 1.411 . S
C1437 C1438 1.384 1_655 S
C1437 C1441 1.495 . S
C1438 C1437 1.384 1_455 S
C1438 C1439 1.385 . S
C1438 C1440 1.478 . S
C1439 H1433 0.930 . S
C1439 C1435 1.400 1_455 S
C1439 C1438 1.385 . S
C1440 C1438 1.478 . S
C1440 C1442 1.381 . S
C1440 C1446 1.383 . S
C1441 C1437 1.495 . S
C1441 H1447 0.984 . S
C1441 H1448 0.952 1_655 S
C1441 H1449 0.945 1_655 S
C1442 C1440 1.381 . S
C1442 C1443 1.394 . S
C1442 H1450 0.930 . S
C1443 C1442 1.394 . S
C1443 C1444 1.383 . S
C1443 H1451 0.929 . S
C1444 C1443 1.383 . S
C1444 C1445 1.377 . S
C1445 H1429 0.930 . S
C1445 C1444 1.377 . S
C1445 C1446 1.379 . S
C1446 H1430 0.931 . S
C1446 C1440 1.383 . S
C1446 C1445 1.379 . S
H1447 C1441 0.984 . S
H1448 C1441 0.952 1_455 S
H1449 C1441 0.945 1_455 S
H1450 C1442 0.930 . S
H1451 C1443 0.929 . S
H1452 C1460 0.929 . S
H1453 C1462 0.930 . S
H1454 C1464 0.930 . S
H1455 C1467 0.929 . S
H1456 C1470 0.930 . S
H1457 C1472 0.960 . S
H1458 C1472 0.960 . S
H1459 C1472 0.960 . S
C1460 H1452 0.929 . S
C1460 C1461 1.377 . S
C1460 C1462 1.384 . S
C1461 C1460 1.377 . S
C1461 C1467 1.390 . S
C1462 H1453 0.930 . S
C1462 C1460 1.384 . S
C1462 C1463 1.372 . S
C1463 C1462 1.372 . S
C1463 C1464 1.400 . S
C1463 C1468 1.490 . S
C1464 H1454 0.930 . S
C1464 C1463 1.400 . S
C1464 C1467 1.386 . S
H1465 C1481 0.930 . S
H1466 C1482 0.931 . S
C1467 H1455 0.929 . S
C1467 C1461 1.390 . S
C1467 C1464 1.386 . S
C1468 C1463 1.490 . S
C1468 C1470 1.395 1_655 S
C1468 C1471 1.403 . S
H1469 C1475 0.930 . S
C1470 H1456 0.930 . S
C1470 C1468 1.395 1_455 S
C1470 C1473 1.403 . S
C1471 C1468 1.403 . S
C1471 C1472 1.524 . S
C1471 C1475 1.400 . S
C1472 H1457 0.960 . S
C1472 H1458 0.960 . S
C1472 H1459 0.960 . S
C1472 C1471 1.524 . S
C1473 C1470 1.403 . S
C1473 C1474 1.392 . S
C1473 C1477 1.495 . S
C1474 C1473 1.392 . S
C1474 C1475 1.385 1_455 S
C1474 C1476 1.478 . S
C1475 H1469 0.930 . S
C1475 C1471 1.400 . S
C1475 C1474 1.385 1_655 S
C1476 C1474 1.478 . S
C1476 C1478 1.381 . S
C1476 C1482 1.383 . S
C1477 C1473 1.495 . S
C1477 H1483 0.959 . S
C1477 H1484 0.961 . S
C1477 H1485 0.960 . S
C1478 C1476 1.381 . S
C1478 C1479 1.394 . S
C1478 H1486 0.930 . S
C1479 C1478 1.394 . S
C1479 C1480 1.383 . S
C1479 H1487 0.929 . S
C1480 C1479 1.383 . S
C1480 C1481 1.377 . S
C1481 H1465 0.930 . S
C1481 C1480 1.377 . S
C1481 C1482 1.379 . S
C1482 H1466 0.931 . S
C1482 C1476 1.383 . S
C1482 C1481 1.379 . S
H1483 C1477 0.959 . S
H1484 C1477 0.961 . S
H1485 C1477 0.960 . S
H1486 C1478 0.930 . S
H1487 C1479 0.929 . S
H1488 C1496 0.929 . S
H1489 C1498 0.930 . S
H1490 C1500 0.930 . S
H1491 C1503 0.929 . S
H1492 C1506 0.930 . S
H1493 C1508 0.960 . S
H1494 C1508 0.960 . S
H1495 C1508 0.960 . S
C1496 H1488 0.929 . S
C1496 C1497 1.377 . S
C1496 C1498 1.384 . S
C1497 C1496 1.377 . S
C1497 C1503 1.390 . S
C1498 H1489 0.930 . S
C1498 C1496 1.384 . S
C1498 C1499 1.372 . S
C1499 C1498 1.372 . S
C1499 C1500 1.400 . S
C1499 C1504 1.490 . S
C1500 H1490 0.930 . S
C1500 C1499 1.400 . S
C1500 C1503 1.386 . S
H1501 C1517 0.930 . S
H1502 C1518 0.931 . S
C1503 H1491 0.929 . S
C1503 C1497 1.390 . S
C1503 C1500 1.386 . S
C1504 C1499 1.490 . S
C1504 C1506 1.395 . S
C1504 C1507 1.403 . S
H1505 C1511 0.930 . S
C1506 H1492 0.930 . S
C1506 C1504 1.395 . S
C1506 C1509 1.403 . S
C1507 C1504 1.403 . S
C1507 C1508 1.524 . S
C1507 C1511 1.400 . S
C1508 H1493 0.960 . S
C1508 H1494 0.960 . S
C1508 H1495 0.960 . S
C1508 C1507 1.524 . S
C1509 C1506 1.403 . S
C1509 C1510 1.392 . S
C1509 C1513 1.495 . S
C1510 C1509 1.392 . S
C1510 C1511 1.385 . S
C1510 C1512 1.478 . S
C1511 H1505 0.930 . S
C1511 C1507 1.400 . S
C1511 C1510 1.385 . S
C1512 C1510 1.478 . S
C1512 C1514 1.381 . S
C1512 C1518 1.383 . S
C1513 C1509 1.495 . S
C1513 H1519 0.959 . S
C1513 H1520 0.961 . S
C1513 H1521 0.960 . S
C1514 C1512 1.381 . S
C1514 C1515 1.394 . S
C1514 H1522 0.930 . S
C1515 C1514 1.394 . S
C1515 C1516 1.383 . S
C1515 H1523 0.929 . S
C1516 C1515 1.383 . S
C1516 C1517 1.377 . S
C1517 H1501 0.930 . S
C1517 C1516 1.377 . S
C1517 C1518 1.379 . S
C1518 H1502 0.931 . S
C1518 C1512 1.383 . S
C1518 C1517 1.379 . S
H1519 C1513 0.959 . S
H1520 C1513 0.961 . S
H1521 C1513 0.960 . S
H1522 C1514 0.930 . S
H1523 C1515 0.929 . S
H1524 C1532 0.929 . S
H1525 C1534 0.930 . S
H1526 C1536 0.930 . S
H1527 C1539 0.929 . S
H1528 C1542 0.930 . S
H1529 C1544 0.960 . S
H1530 C1544 0.960 . S
H1531 C1544 0.960 . S
C1532 H1524 0.929 . S
C1532 C1533 1.377 . S
C1532 C1534 1.384 . S
C1533 C1532 1.377 . S
C1533 C1539 1.390 . S
C1534 H1525 0.930 . S
C1534 C1532 1.384 . S
C1534 C1535 1.372 . S
C1535 C1534 1.372 . S
C1535 C1536 1.400 . S
C1535 C1540 1.490 . S
C1536 H1526 0.930 . S
C1536 C1535 1.400 . S
C1536 C1539 1.386 . S
H1537 C1553 0.930 . S
H1538 C1554 0.931 . S
C1539 H1527 0.929 . S
C1539 C1533 1.390 . S
C1539 C1536 1.386 . S
C1540 C1535 1.490 . S
C1540 C1542 1.395 . S
C1540 C1543 1.403 . S
H1541 C1547 0.930 . S
C1542 H1528 0.930 . S
C1542 C1540 1.395 . S
C1542 C1545 1.403 . S
C1543 C1540 1.403 . S
C1543 C1544 1.524 . S
C1543 C1547 1.400 . S
C1544 H1529 0.960 . S
C1544 H1530 0.960 . S
C1544 H1531 0.960 . S
C1544 C1543 1.524 . S
C1545 C1542 1.403 . S
C1545 C1546 1.392 . S
C1545 C1549 1.495 . S
C1546 C1545 1.392 . S
C1546 C1547 1.385 . S
C1546 C1548 1.478 . S
C1547 H1541 0.930 . S
C1547 C1543 1.400 . S
C1547 C1546 1.385 . S
C1548 C1546 1.478 . S
C1548 C1550 1.381 . S
C1548 C1554 1.383 . S
C1549 C1545 1.495 . S
C1549 H1555 0.959 . S
C1549 H1556 0.961 . S
C1549 H1557 0.960 . S
C1550 C1548 1.381 . S
C1550 C1551 1.394 . S
C1550 H1558 0.930 . S
C1551 C1550 1.394 . S
C1551 C1552 1.383 . S
C1551 H1559 0.929 . S
C1552 C1551 1.383 . S
C1552 C1553 1.377 . S
C1553 H1537 0.930 . S
C1553 C1552 1.377 . S
C1553 C1554 1.379 . S
C1554 H1538 0.931 . S
C1554 C1548 1.383 . S
C1554 C1553 1.379 . S
H1555 C1549 0.959 . S
H1556 C1549 0.961 . S
H1557 C1549 0.960 . S
H1558 C1550 0.930 . S
H1559 C1551 0.929 . S
H1560 C1568 0.929 . S
H1561 C1570 0.930 . S
H1562 C1572 0.930 . S
H1563 C1575 0.929 . S
H1564 C1578 0.930 . S
H1565 C1580 0.960 1_655 S
H1566 C1580 0.960 . S
H1567 C1580 0.960 . S
C1568 H1560 0.929 . S
C1568 C1569 1.377 . S
C1568 C1570 1.384 . S
C1569 C1568 1.377 . S
C1569 C1575 1.390 . S
C1570 H1561 0.930 . S
C1570 C1568 1.384 . S
C1570 C1571 1.372 . S
C1571 C1570 1.372 . S
C1571 C1572 1.400 . S
C1571 C1576 1.490 . S
C1572 H1562 0.930 . S
C1572 C1571 1.400 . S
C1572 C1575 1.386 . S
H1573 C1589 0.930 . S
H1574 C1590 0.931 . S
C1575 H1563 0.929 . S
C1575 C1569 1.390 . S
C1575 C1572 1.386 . S
C1576 C1571 1.490 . S
C1576 C1578 1.395 . S
C1576 C1579 1.403 . S
H1577 C1583 0.930 . S
C1578 H1564 0.930 . S
C1578 C1576 1.395 . S
C1578 C1581 1.393 1_455 S
C1579 C1576 1.403 . S
C1579 C1580 1.524 . S
C1579 C1583 1.400 1_455 S
C1580 H1565 0.960 1_455 S
C1580 H1566 0.960 . S
C1580 H1567 0.960 . S
C1580 C1579 1.524 . S
C1581 C1578 1.393 1_655 S
C1581 C1582 1.402 . S
C1581 C1585 1.495 . S
C1582 C1581 1.402 . S
C1582 C1583 1.385 . S
C1582 C1584 1.478 . S
C1583 H1577 0.930 . S
C1583 C1579 1.400 1_655 S
C1583 C1582 1.385 . S
C1584 C1582 1.478 . S
C1584 C1586 1.381 . S
C1584 C1590 1.383 . S
C1585 C1581 1.495 . S
C1585 H1591 0.941 1_655 S
C1585 H1592 0.968 . S
C1585 H1593 0.972 . S
C1586 C1584 1.381 . S
C1586 C1587 1.394 . S
C1586 H1594 0.930 . S
C1587 C1586 1.394 . S
C1587 C1588 1.383 . S
C1587 H1595 0.929 . S
C1588 C1587 1.383 . S
C1588 C1589 1.377 . S
C1589 H1573 0.930 . S
C1589 C1588 1.377 . S
C1589 C1590 1.379 . S
C1590 H1574 0.931 . S
C1590 C1584 1.383 . S
C1590 C1589 1.379 . S
H1591 C1585 0.941 1_455 S
H1592 C1585 0.968 . S
H1593 C1585 0.972 . S
H1594 C1586 0.930 . S
H1595 C1587 0.929 . S
H1596 C1604 0.929 . S
H1597 C1606 0.930 1_655 S
H1598 C1608 0.930 . S
H1599 C1611 0.929 . S
H1600 C1614 0.930 . S
H1601 C1616 0.960 . S
H1602 C1616 0.960 . S
H1603 C1616 0.960 . S
C1604 H1596 0.929 . S
C1604 C1605 1.377 . S
C1604 C1606 1.384 . S
C1605 C1604 1.377 . S
C1605 C1611 1.390 . S
C1606 H1597 0.930 1_455 S
C1606 C1604 1.384 . S
C1606 C1607 1.372 . S
C1607 C1606 1.372 . S
C1607 C1608 1.400 . S
C1607 C1612 1.490 . S
C1608 H1598 0.930 . S
C1608 C1607 1.400 . S
C1608 C1611 1.386 . S
H1609 C1625 0.930 . S
H1610 C1626 0.931 1_455 S
C1611 H1599 0.929 . S
C1611 C1605 1.390 . S
C1611 C1608 1.386 . S
C1612 C1607 1.490 . S
C1612 C1614 1.395 1_455 S
C1612 C1615 1.403 . S
H1613 C1619 0.930 . S
C1614 H1600 0.930 . S
C1614 C1612 1.395 1_655 S
C1614 C1617 1.403 . S
C1615 C1612 1.403 . S
C1615 C1616 1.524 . S
C1615 C1619 1.400 . S
C1616 H1601 0.960 . S
C1616 H1602 0.960 . S
C1616 H1603 0.960 . S
C1616 C1615 1.524 . S
C1617 C1614 1.403 . S
C1617 C1618 1.392 . S
C1617 C1621 1.495 . S
C1618 C1617 1.392 . S
C1618 C1619 1.385 1_655 S
C1618 C1620 1.478 . S
C1619 H1613 0.930 . S
C1619 C1615 1.400 . S
C1619 C1618 1.385 1_455 S
C1620 C1618 1.478 . S
C1620 C1622 1.381 . S
C1620 C1626 1.383 . S
C1621 C1617 1.495 . S
C1621 H1627 0.959 . S
C1621 H1628 0.961 . S
C1621 H1629 0.960 . S
C1622 C1620 1.381 . S
C1622 C1623 1.394 . S
C1622 H1630 0.930 . S
C1623 C1622 1.394 . S
C1623 C1624 1.383 . S
C1623 H1631 0.929 . S
C1624 C1623 1.383 . S
C1624 C1625 1.377 . S
C1625 H1609 0.930 . S
C1625 C1624 1.377 . S
C1625 C1626 1.379 . S
C1626 H1610 0.931 1_655 S
C1626 C1620 1.383 . S
C1626 C1625 1.379 . S
H1627 C1621 0.959 . S
H1628 C1621 0.961 . S
H1629 C1621 0.960 . S
H1630 C1622 0.930 . S
H1631 C1623 0.929 . S
H1632 C1640 0.929 . S
H1633 C1642 0.930 . S
H1634 C1644 0.930 . S
H1635 C1647 0.929 . S
H1636 C1650 0.930 . S
H1637 C1652 0.960 . S
H1638 C1652 0.960 . S
H1639 C1652 0.960 . S
C1640 H1632 0.929 . S
C1640 C1641 1.377 . S
C1640 C1642 1.384 . S
C1641 C1640 1.377 . S
C1641 C1647 1.390 . S
C1642 H1633 0.930 . S
C1642 C1640 1.384 . S
C1642 C1643 1.372 . S
C1643 C1642 1.372 . S
C1643 C1644 1.400 . S
C1643 C1648 1.490 . S
C1644 H1634 0.930 . S
C1644 C1643 1.400 . S
C1644 C1647 1.386 . S
H1645 C1661 0.930 . S
H1646 C1662 0.931 . S
C1647 H1635 0.929 . S
C1647 C1641 1.390 . S
C1647 C1644 1.386 . S
C1648 C1643 1.490 . S
C1648 C1650 1.395 . S
C1648 C1651 1.403 . S
H1649 C1655 0.930 . S
C1650 H1636 0.930 . S
C1650 C1648 1.395 . S
C1650 C1653 1.403 . S
C1651 C1648 1.403 . S
C1651 C1652 1.524 . S
C1651 C1655 1.400 . S
C1652 H1637 0.960 . S
C1652 H1638 0.960 . S
C1652 H1639 0.960 . S
C1652 C1651 1.524 . S
C1653 C1650 1.403 . S
C1653 C1654 1.392 . S
C1653 C1657 1.495 . S
C1654 C1653 1.392 . S
C1654 C1655 1.385 . S
C1654 C1656 1.478 . S
C1655 H1649 0.930 . S
C1655 C1651 1.400 . S
C1655 C1654 1.385 . S
C1656 C1654 1.478 . S
C1656 C1658 1.381 . S
C1656 C1662 1.383 . S
C1657 C1653 1.495 . S
C1657 H1663 0.959 . S
C1657 H1664 0.961 . S
C1657 H1665 0.960 . S
C1658 C1656 1.381 . S
C1658 C1659 1.394 . S
C1658 H1666 0.930 . S
C1659 C1658 1.394 . S
C1659 C1660 1.383 . S
C1659 H1667 0.929 . S
C1660 C1659 1.383 . S
C1660 C1661 1.377 . S
C1661 H1645 0.930 . S
C1661 C1660 1.377 . S
C1661 C1662 1.379 . S
C1662 H1646 0.931 . S
C1662 C1656 1.383 . S
C1662 C1661 1.379 . S
H1663 C1657 0.959 . S
H1664 C1657 0.961 . S
H1665 C1657 0.960 . S
H1666 C1658 0.930 . S
H1667 C1659 0.929 . S
H1668 C1676 0.929 . S
H1669 C1678 0.930 . S
H1670 C1680 0.930 . S
H1671 C1683 0.929 . S
H1672 C1686 0.930 . S
H1673 C1688 0.960 . S
H1674 C1688 0.960 . S
H1675 C1688 0.960 . S
C1676 H1668 0.929 . S
C1676 C1677 1.377 . S
C1676 C1678 1.384 . S
C1677 C1676 1.377 . S
C1677 C1683 1.390 . S
C1678 H1669 0.930 . S
C1678 C1676 1.384 . S
C1678 C1679 1.372 . S
C1679 C1678 1.372 . S
C1679 C1680 1.400 . S
C1679 C1684 1.490 . S
C1680 H1670 0.930 . S
C1680 C1679 1.400 . S
C1680 C1683 1.386 . S
H1681 C1697 0.930 . S
H1682 C1698 0.931 . S
C1683 H1671 0.929 . S
C1683 C1677 1.390 . S
C1683 C1680 1.386 . S
C1684 C1679 1.490 . S
C1684 C1686 1.395 . S
C1684 C1687 1.403 . S
H1685 C1691 0.930 . S
C1686 H1672 0.930 . S
C1686 C1684 1.395 . S
C1686 C1689 1.403 . S
C1687 C1684 1.403 . S
C1687 C1688 1.524 . S
C1687 C1691 1.400 . S
C1688 H1673 0.960 . S
C1688 H1674 0.960 . S
C1688 H1675 0.960 . S
C1688 C1687 1.524 . S
C1689 C1686 1.403 . S
C1689 C1690 1.392 . S
C1689 C1693 1.495 . S
C1690 C1689 1.392 . S
C1690 C1691 1.385 . S
C1690 C1692 1.478 . S
C1691 H1685 0.930 . S
C1691 C1687 1.400 . S
C1691 C1690 1.385 . S
C1692 C1690 1.478 . S
C1692 C1694 1.381 . S
C1692 C1698 1.383 . S
C1693 C1689 1.495 . S
C1693 H1699 0.959 . S
C1693 H1700 0.961 . S
C1693 H1701 0.960 . S
C1694 C1692 1.381 . S
C1694 C1695 1.394 . S
C1694 H1702 0.930 . S
C1695 C1694 1.394 . S
C1695 C1696 1.383 . S
C1695 H1703 0.929 . S
C1696 C1695 1.383 . S
C1696 C1697 1.377 . S
C1697 H1681 0.930 . S
C1697 C1696 1.377 . S
C1697 C1698 1.379 . S
C1698 H1682 0.931 . S
C1698 C1692 1.383 . S
C1698 C1697 1.379 . S
H1699 C1693 0.959 . S
H1700 C1693 0.961 . S
H1701 C1693 0.960 . S
H1702 C1694 0.930 . S
H1703 C1695 0.929 . S
H1704 C1712 0.929 . S
H1705 C1714 0.930 . S
H1706 C1716 0.930 . S
H1707 C1719 0.929 . S
H1708 C1722 0.930 . S
H1709 C1724 0.960 . S
H1710 C1724 0.960 . S
H1711 C1724 0.960 . S
C1712 H1704 0.929 . S
C1712 C1713 1.377 . S
C1712 C1714 1.384 . S
C1713 C1712 1.377 . S
C1713 C1719 1.390 . S
C1714 H1705 0.930 . S
C1714 C1712 1.384 . S
C1714 C1715 1.372 . S
C1715 C1714 1.372 . S
C1715 C1716 1.400 . S
C1715 C1720 1.490 . S
C1716 H1706 0.930 . S
C1716 C1715 1.400 . S
C1716 C1719 1.386 . S
H1717 C1733 0.930 . S
H1718 C1734 0.931 . S
C1719 H1707 0.929 . S
C1719 C1713 1.390 . S
C1719 C1716 1.386 . S
C1720 C1715 1.490 . S
C1720 C1722 1.395 . S
C1720 C1723 1.403 . S
H1721 C1727 0.930 . S
C1722 H1708 0.930 . S
C1722 C1720 1.395 . S
C1722 C1725 1.403 . S
C1723 C1720 1.403 . S
C1723 C1724 1.524 . S
C1723 C1727 1.400 . S
C1724 H1709 0.960 . S
C1724 H1710 0.960 . S
C1724 H1711 0.960 . S
C1724 C1723 1.524 . S
C1725 C1722 1.403 . S
C1725 C1726 1.392 . S
C1725 C1729 1.495 . S
C1726 C1725 1.392 . S
C1726 C1727 1.385 . S
C1726 C1728 1.478 . S
C1727 H1721 0.930 . S
C1727 C1723 1.400 . S
C1727 C1726 1.385 . S
C1728 C1726 1.478 . S
C1728 C1730 1.381 . S
C1728 C1734 1.383 . S
C1729 C1725 1.495 . S
C1729 H1735 0.959 . S
C1729 H1736 0.961 . S
C1729 H1737 0.960 . S
C1730 C1728 1.381 . S
C1730 C1731 1.394 . S
C1730 H1738 0.930 . S
C1731 C1730 1.394 . S
C1731 C1732 1.383 . S
C1731 H1739 0.929 . S
C1732 C1731 1.383 . S
C1732 C1733 1.377 . S
C1733 H1717 0.930 . S
C1733 C1732 1.377 . S
C1733 C1734 1.379 . S
C1734 H1718 0.931 . S
C1734 C1728 1.383 . S
C1734 C1733 1.379 . S
H1735 C1729 0.959 . S
H1736 C1729 0.961 . S
H1737 C1729 0.960 . S
H1738 C1730 0.930 . S
H1739 C1731 0.929 . S
H1740 C1748 0.929 . S
H1741 C1750 0.930 . S
H1742 C1752 0.930 . S
H1743 C1755 0.929 . S
H1744 C1758 0.930 . S
H1745 C1760 0.960 . S
H1746 C1760 0.960 . S
H1747 C1760 0.960 . S
C1748 H1740 0.929 . S
C1748 C1749 1.377 . S
C1748 C1750 1.384 . S
C1749 C1748 1.377 . S
C1749 C1755 1.390 . S
C1750 H1741 0.930 . S
C1750 C1748 1.384 . S
C1750 C1751 1.372 1_655 S
C1751 C1750 1.372 1_455 S
C1751 C1752 1.400 . S
C1751 C1756 1.490 . S
C1752 H1742 0.930 . S
C1752 C1751 1.400 . S
C1752 C1755 1.386 1_455 S
H1753 C1769 0.930 . S
H1754 C1770 0.931 . S
C1755 H1743 0.929 . S
C1755 C1749 1.390 . S
C1755 C1752 1.386 1_655 S
C1756 C1751 1.490 . S
C1756 C1758 1.395 . S
C1756 C1759 1.403 . S
H1757 C1763 0.930 . S
C1758 H1744 0.930 . S
C1758 C1756 1.395 . S
C1758 C1761 1.403 . S
C1759 C1756 1.403 . S
C1759 C1760 1.524 . S
C1759 C1763 1.400 . S
C1760 H1745 0.960 . S
C1760 H1746 0.960 . S
C1760 H1747 0.960 . S
C1760 C1759 1.524 . S
C1761 C1758 1.403 . S
C1761 C1762 1.392 . S
C1761 C1765 1.495 . S
C1762 C1761 1.392 . S
C1762 C1763 1.385 . S
C1762 C1764 1.478 . S
C1763 H1757 0.930 . S
C1763 C1759 1.400 . S
C1763 C1762 1.385 . S
C1764 C1762 1.478 . S
C1764 C1766 1.381 . S
C1764 C1770 1.383 . S
C1765 C1761 1.495 . S
C1765 H1771 0.959 . S
C1765 H1772 0.961 . S
C1765 H1773 0.960 . S
C1766 C1764 1.381 . S
C1766 C1767 1.394 . S
C1766 H1774 0.930 . S
C1767 C1766 1.394 . S
C1767 C1768 1.383 . S
C1767 H1775 0.929 . S
C1768 C1767 1.383 . S
C1768 C1769 1.377 . S
C1769 H1753 0.930 . S
C1769 C1768 1.377 . S
C1769 C1770 1.379 . S
C1770 H1754 0.931 . S
C1770 C1764 1.383 . S
C1770 C1769 1.379 . S
H1771 C1765 0.959 . S
H1772 C1765 0.961 . S
H1773 C1765 0.960 . S
H1774 C1766 0.930 . S
H1775 C1767 0.929 . S
H1776 C1784 0.929 . S
H1777 C1786 0.930 . S
H1778 C1788 0.930 . S
H1779 C1791 0.929 . S
H1780 C1794 0.930 . S
H1781 C1796 0.960 . S
H1782 C1796 0.960 . S
H1783 C1796 0.960 . S
C1784 H1776 0.929 . S
C1784 C1785 1.377 . S
C1784 C1786 1.384 . S
C1785 C1784 1.377 . S
C1785 C1791 1.390 . S
C1786 H1777 0.930 . S
C1786 C1784 1.384 . S
C1786 C1787 1.372 . S
C1787 C1786 1.372 . S
C1787 C1788 1.400 . S
C1787 C1792 1.490 . S
C1788 H1778 0.930 . S
C1788 C1787 1.400 . S
C1788 C1791 1.386 . S
H1789 C1805 0.930 . S
H1790 C1806 0.931 . S
C1791 H1779 0.929 . S
C1791 C1785 1.390 . S
C1791 C1788 1.386 . S
C1792 C1787 1.490 . S
C1792 C1794 1.395 . S
C1792 C1795 1.403 . S
H1793 C1799 0.930 . S
C1794 H1780 0.930 . S
C1794 C1792 1.395 . S
C1794 C1797 1.403 . S
C1795 C1792 1.403 . S
C1795 C1796 1.524 . S
C1795 C1799 1.400 . S
C1796 H1781 0.960 . S
C1796 H1782 0.960 . S
C1796 H1783 0.960 . S
C1796 C1795 1.524 . S
C1797 C1794 1.403 . S
C1797 C1798 1.392 . S
C1797 C1801 1.495 . S
C1798 C1797 1.392 . S
C1798 C1799 1.385 . S
C1798 C1800 1.478 . S
C1799 H1793 0.930 . S
C1799 C1795 1.400 . S
C1799 C1798 1.385 . S
C1800 C1798 1.478 . S
C1800 C1802 1.381 . S
C1800 C1806 1.383 . S
C1801 C1797 1.495 . S
C1801 H1807 0.959 . S
C1801 H1808 0.961 . S
C1801 H1809 0.960 . S
C1802 C1800 1.381 . S
C1802 C1803 1.394 . S
C1802 H1810 0.930 . S
C1803 C1802 1.394 . S
C1803 C1804 1.383 . S
C1803 H1811 0.929 . S
C1804 C1803 1.383 . S
C1804 C1805 1.377 . S
C1805 H1789 0.930 . S
C1805 C1804 1.377 . S
C1805 C1806 1.379 . S
C1806 H1790 0.931 . S
C1806 C1800 1.383 . S
C1806 C1805 1.379 . S
H1807 C1801 0.959 . S
H1808 C1801 0.961 . S
H1809 C1801 0.960 . S
H1810 C1802 0.930 . S
H1811 C1803 0.929 . S
H1812 C1820 0.929 . S
H1813 C1822 0.930 . S
H1814 C1824 0.930 . S
H1815 C1827 0.929 . S
H1816 C1830 0.930 . S
H1817 C1832 0.960 . S
H1818 C1832 0.960 . S
H1819 C1832 0.960 . S
C1820 H1812 0.929 . S
C1820 C1821 1.377 . S
C1820 C1822 1.384 . S
C1821 C1820 1.377 . S
C1821 C1827 1.390 . S
C1822 H1813 0.930 . S
C1822 C1820 1.384 . S
C1822 C1823 1.372 . S
C1823 C1822 1.372 . S
C1823 C1824 1.400 . S
C1823 C1828 1.490 . S
C1824 H1814 0.930 . S
C1824 C1823 1.400 . S
C1824 C1827 1.386 . S
H1825 C1841 0.930 . S
H1826 C1842 0.931 . S
C1827 H1815 0.929 . S
C1827 C1821 1.390 . S
C1827 C1824 1.386 . S
C1828 C1823 1.490 . S
C1828 C1830 1.395 . S
C1828 C1831 1.403 . S
H1829 C1835 0.930 . S
C1830 H1816 0.930 . S
C1830 C1828 1.395 . S
C1830 C1833 1.403 . S
C1831 C1828 1.403 . S
C1831 C1832 1.524 . S
C1831 C1835 1.400 . S
C1832 H1817 0.960 . S
C1832 H1818 0.960 . S
C1832 H1819 0.960 . S
C1832 C1831 1.524 . S
C1833 C1830 1.403 . S
C1833 C1834 1.392 . S
C1833 C1837 1.495 . S
C1834 C1833 1.392 . S
C1834 C1835 1.385 . S
C1834 C1836 1.478 . S
C1835 H1829 0.930 . S
C1835 C1831 1.400 . S
C1835 C1834 1.385 . S
C1836 C1834 1.478 . S
C1836 C1838 1.381 . S
C1836 C1842 1.383 . S
C1837 C1833 1.495 . S
C1837 H1843 0.959 . S
C1837 H1844 0.961 . S
C1837 H1845 0.960 . S
C1838 C1836 1.381 . S
C1838 C1839 1.394 . S
C1838 H1846 0.930 . S
C1839 C1838 1.394 . S
C1839 C1840 1.383 . S
C1839 H1847 0.929 . S
C1840 C1839 1.383 . S
C1840 C1841 1.377 . S
C1841 H1825 0.930 . S
C1841 C1840 1.377 . S
C1841 C1842 1.379 . S
C1842 H1826 0.931 . S
C1842 C1836 1.383 . S
C1842 C1841 1.379 . S
H1843 C1837 0.959 . S
H1844 C1837 0.961 . S
H1845 C1837 0.960 . S
H1846 C1838 0.930 . S
H1847 C1839 0.929 . S
H1848 C1856 0.929 . S
H1849 C1858 0.930 . S
H1850 C1860 0.930 . S
H1851 C1863 0.929 . S
H1852 C1866 0.930 . S
H1853 C1868 0.960 . S
H1854 C1868 0.960 . S
H1855 C1868 0.960 . S
C1856 H1848 0.929 . S
C1856 C1857 1.377 . S
C1856 C1858 1.384 . S
C1857 C1856 1.377 . S
C1857 C1863 1.390 . S
C1858 H1849 0.930 . S
C1858 C1856 1.384 . S
C1858 C1859 1.372 . S
C1859 C1858 1.372 . S
C1859 C1860 1.400 . S
C1859 C1864 1.490 . S
C1860 H1850 0.930 . S
C1860 C1859 1.400 . S
C1860 C1863 1.386 . S
H1861 C1877 0.930 . S
H1862 C1878 0.931 . S
C1863 H1851 0.929 . S
C1863 C1857 1.390 . S
C1863 C1860 1.386 . S
C1864 C1859 1.490 . S
C1864 C1866 1.395 . S
C1864 C1867 1.403 . S
H1865 C1871 0.930 . S
C1866 H1852 0.930 . S
C1866 C1864 1.395 . S
C1866 C1869 1.403 . S
C1867 C1864 1.403 . S
C1867 C1868 1.524 . S
C1867 C1871 1.400 . S
C1868 H1853 0.960 . S
C1868 H1854 0.960 . S
C1868 H1855 0.960 . S
C1868 C1867 1.524 . S
C1869 C1866 1.403 . S
C1869 C1870 1.392 . S
C1869 C1873 1.495 . S
C1870 C1869 1.392 . S
C1870 C1871 1.385 . S
C1870 C1872 1.478 . S
C1871 H1865 0.930 . S
C1871 C1867 1.400 . S
C1871 C1870 1.385 . S
C1872 C1870 1.478 . S
C1872 C1874 1.381 . S
C1872 C1878 1.383 . S
C1873 C1869 1.495 . S
C1873 H1879 0.959 . S
C1873 H1880 0.961 . S
C1873 H1881 0.960 . S
C1874 C1872 1.381 . S
C1874 C1875 1.394 . S
C1874 H1882 0.930 . S
C1875 C1874 1.394 . S
C1875 C1876 1.383 . S
C1875 H1883 0.929 . S
C1876 C1875 1.383 . S
C1876 C1877 1.377 . S
C1877 H1861 0.930 . S
C1877 C1876 1.377 . S
C1877 C1878 1.379 . S
C1878 H1862 0.931 . S
C1878 C1872 1.383 . S
C1878 C1877 1.379 . S
H1879 C1873 0.959 . S
H1880 C1873 0.961 . S
H1881 C1873 0.960 . S
H1882 C1874 0.930 . S
H1883 C1875 0.929 . S
H1884 C1892 0.929 . S
H1885 C1894 0.930 . S
H1886 C1896 0.930 . S
H1887 C1899 0.929 . S
H1888 C1902 0.930 . S
H1889 C1904 0.960 . S
H1890 C1904 0.960 . S
H1891 C1904 0.960 . S
C1892 H1884 0.929 . S
C1892 C1893 1.377 . S
C1892 C1894 1.384 . S
C1893 C1892 1.377 . S
C1893 C1899 1.390 . S
C1894 H1885 0.930 . S
C1894 C1892 1.384 . S
C1894 C1895 1.372 . S
C1895 C1894 1.372 . S
C1895 C1896 1.400 . S
C1895 C1900 1.490 . S
C1896 H1886 0.930 . S
C1896 C1895 1.400 . S
C1896 C1899 1.386 . S
H1897 C1913 0.930 . S
H1898 C1914 0.931 1_655 S
C1899 H1887 0.929 . S
C1899 C1893 1.390 . S
C1899 C1896 1.386 . S
C1900 C1895 1.490 . S
C1900 C1902 1.395 . S
C1900 C1903 1.403 . S
H1901 C1907 0.930 . S
C1902 H1888 0.930 . S
C1902 C1900 1.395 . S
C1902 C1905 1.403 . S
C1903 C1900 1.403 . S
C1903 C1904 1.524 . S
C1903 C1907 1.400 . S
C1904 H1889 0.960 . S
C1904 H1890 0.960 . S
C1904 H1891 0.960 . S
C1904 C1903 1.524 . S
C1905 C1902 1.403 . S
C1905 C1906 1.392 . S
C1905 C1909 1.495 . S
C1906 C1905 1.392 . S
C1906 C1907 1.385 . S
C1906 C1908 1.478 . S
C1907 H1901 0.930 . S
C1907 C1903 1.400 . S
C1907 C1906 1.385 . S
C1908 C1906 1.478 . S
C1908 C1910 1.381 1_655 S
C1908 C1914 1.383 1_655 S
C1909 C1905 1.495 . S
C1909 H1915 0.959 . S
C1909 H1916 0.961 . S
C1909 H1917 0.931 1_655 S
C1910 C1908 1.381 1_455 S
C1910 C1911 1.394 . S
C1910 H1918 0.930 . S
C1911 C1910 1.394 . S
C1911 C1912 1.383 . S
C1911 H1919 0.929 . S
C1912 C1911 1.383 . S
C1912 C1913 1.377 . S
C1913 H1897 0.930 . S
C1913 C1912 1.377 . S
C1913 C1914 1.379 . S
C1914 H1898 0.931 1_455 S
C1914 C1908 1.383 1_455 S
C1914 C1913 1.379 . S
H1915 C1909 0.959 . S
H1916 C1909 0.961 . S
H1917 C1909 0.931 1_455 S
H1918 C1910 0.930 . S
H1919 C1911 0.929 . S
H1920 C1928 0.929 . S
H1921 C1930 0.930 . S
H1922 C1932 0.930 . S
H1923 C1935 0.929 . S
H1924 C1938 0.930 . S
H1925 C1940 0.960 . S
H1926 C1940 0.960 . S
H1927 C1940 0.960 . S
C1928 H1920 0.929 . S
C1928 C1929 1.377 . S
C1928 C1930 1.384 . S
C1929 C1928 1.377 . S
C1929 C1935 1.390 . S
C1930 H1921 0.930 . S
C1930 C1928 1.384 . S
C1930 C1931 1.372 . S
C1931 C1930 1.372 . S
C1931 C1932 1.400 . S
C1931 C1936 1.490 . S
C1932 H1922 0.930 . S
C1932 C1931 1.400 . S
C1932 C1935 1.386 . S
H1933 C1949 0.930 . S
H1934 C1950 0.931 . S
C1935 H1923 0.929 . S
C1935 C1929 1.390 . S
C1935 C1932 1.386 . S
C1936 C1931 1.490 . S
C1936 C1938 1.395 . S
C1936 C1939 1.403 . S
H1937 C1943 0.930 . S
C1938 H1924 0.930 . S
C1938 C1936 1.395 . S
C1938 C1941 1.403 . S
C1939 C1936 1.403 . S
C1939 C1940 1.524 . S
C1939 C1943 1.400 . S
C1940 H1925 0.960 . S
C1940 H1926 0.960 . S
C1940 H1927 0.960 . S
C1940 C1939 1.524 . S
C1941 C1938 1.403 . S
C1941 C1942 1.392 . S
C1941 C1945 1.495 . S
C1942 C1941 1.392 . S
C1942 C1943 1.385 . S
C1942 C1944 1.478 . S
C1943 H1937 0.930 . S
C1943 C1939 1.400 . S
C1943 C1942 1.385 . S
C1944 C1942 1.478 . S
C1944 C1946 1.381 . S
C1944 C1950 1.383 . S
C1945 C1941 1.495 . S
C1945 H1951 0.959 . S
C1945 H1952 0.961 . S
C1945 H1953 0.960 . S
C1946 C1944 1.381 . S
C1946 C1947 1.394 . S
C1946 H1954 0.930 . S
C1947 C1946 1.394 . S
C1947 C1948 1.383 . S
C1947 H1955 0.929 . S
C1948 C1947 1.383 . S
C1948 C1949 1.377 . S
C1949 H1933 0.930 . S
C1949 C1948 1.377 . S
C1949 C1950 1.379 . S
C1950 H1934 0.931 . S
C1950 C1944 1.383 . S
C1950 C1949 1.379 . S
H1951 C1945 0.959 . S
H1952 C1945 0.961 . S
H1953 C1945 0.960 . S
H1954 C1946 0.930 . S
H1955 C1947 0.929 . S
H1956 C1964 0.929 . S
H1957 C1966 0.930 . S
H1958 C1968 0.930 . S
H1959 C1971 0.929 . S
H1960 C1974 0.930 . S
H1961 C1976 0.960 . S
H1962 C1976 0.960 . S
H1963 C1976 0.960 . S
C1964 H1956 0.929 . S
C1964 C1965 1.377 . S
C1964 C1966 1.384 . S
C1965 C1964 1.377 . S
C1965 C1971 1.390 . S
C1966 H1957 0.930 . S
C1966 C1964 1.384 . S
C1966 C1967 1.372 . S
C1967 C1966 1.372 . S
C1967 C1968 1.400 . S
C1967 C1972 1.490 . S
C1968 H1958 0.930 . S
C1968 C1967 1.400 . S
C1968 C1971 1.386 . S
H1969 C1985 0.930 . S
H1970 C1986 0.931 . S
C1971 H1959 0.929 . S
C1971 C1965 1.390 . S
C1971 C1968 1.386 . S
C1972 C1967 1.490 . S
C1972 C1974 1.395 . S
C1972 C1975 1.403 . S
H1973 C1979 0.930 . S
C1974 H1960 0.930 . S
C1974 C1972 1.395 . S
C1974 C1977 1.403 . S
C1975 C1972 1.403 . S
C1975 C1976 1.524 . S
C1975 C1979 1.400 . S
C1976 H1961 0.960 . S
C1976 H1962 0.960 . S
C1976 H1963 0.960 . S
C1976 C1975 1.524 . S
C1977 C1974 1.403 . S
C1977 C1978 1.392 . S
C1977 C1981 1.495 . S
C1978 C1977 1.392 . S
C1978 C1979 1.385 . S
C1978 C1980 1.478 . S
C1979 H1973 0.930 . S
C1979 C1975 1.400 . S
C1979 C1978 1.385 . S
C1980 C1978 1.478 . S
C1980 C1982 1.381 1_655 S
C1980 C1986 1.383 1_655 S
C1981 C1977 1.495 . S
C1981 H1987 0.959 . S
C1981 H1988 0.961 . S
C1981 H1989 0.960 . S
C1982 C1980 1.381 1_455 S
C1982 C1983 1.394 . S
C1982 H1990 0.930 1_455 S
C1983 C1982 1.394 . S
C1983 C1984 1.383 . S
C1983 H1991 0.929 1_565 S
C1984 C1983 1.383 . S
C1984 C1985 1.377 . S
C1985 H1969 0.930 . S
C1985 C1984 1.377 . S
C1985 C1986 1.379 . S
C1986 H1970 0.931 . S
C1986 C1980 1.383 1_455 S
C1986 C1985 1.379 . S
H1987 C1981 0.959 . S
H1988 C1981 0.961 . S
H1989 C1981 0.960 . S
H1990 C1982 0.930 1_655 S
H1991 C1983 0.929 1_545 S
H1992 C2000 0.929 . S
H1993 C2002 0.930 . S
H1994 C2004 0.930 . S
H1995 C2007 0.929 . S
H1996 C2010 0.930 . S
H1997 C2012 0.960 . S
H1998 C2012 0.960 . S
H1999 C2012 0.960 . S
C2000 H1992 0.929 . S
C2000 C2001 1.377 . S
C2000 C2002 1.384 . S
C2001 C2000 1.377 . S
C2001 C2007 1.390 . S
C2002 H1993 0.930 . S
C2002 C2000 1.384 . S
C2002 C2003 1.372 . S
C2003 C2002 1.372 . S
C2003 C2004 1.400 . S
C2003 C2008 1.490 . S
C2004 H1994 0.930 . S
C2004 C2003 1.400 . S
C2004 C2007 1.386 . S
H2005 C2021 0.930 . S
H2006 C2022 0.931 . S
C2007 H1995 0.929 . S
C2007 C2001 1.390 . S
C2007 C2004 1.386 . S
C2008 C2003 1.490 . S
C2008 C2010 1.395 . S
C2008 C2011 1.403 . S
H2009 C2015 0.930 . S
C2010 H1996 0.930 . S
C2010 C2008 1.395 . S
C2010 C2013 1.403 . S
C2011 C2008 1.403 . S
C2011 C2012 1.524 . S
C2011 C2015 1.400 . S
C2012 H1997 0.960 . S
C2012 H1998 0.960 . S
C2012 H1999 0.960 . S
C2012 C2011 1.524 . S
C2013 C2010 1.403 . S
C2013 C2014 1.392 . S
C2013 C2017 1.495 . S
C2014 C2013 1.392 . S
C2014 C2015 1.385 . S
C2014 C2016 1.478 . S
C2015 H2009 0.930 . S
C2015 C2011 1.400 . S
C2015 C2014 1.385 . S
C2016 C2014 1.478 . S
C2016 C2018 1.381 . S
C2016 C2022 1.383 . S
C2017 C2013 1.495 . S
C2017 H2023 0.959 . S
C2017 H2024 0.961 . S
C2017 H2025 0.960 . S
C2018 C2016 1.381 . S
C2018 C2019 1.394 . S
C2018 H2026 0.930 . S
C2019 C2018 1.394 . S
C2019 C2020 1.383 . S
C2019 H2027 0.929 . S
C2020 C2019 1.383 . S
C2020 C2021 1.377 . S
C2021 H2005 0.930 . S
C2021 C2020 1.377 . S
C2021 C2022 1.379 . S
C2022 H2006 0.931 . S
C2022 C2016 1.383 . S
C2022 C2021 1.379 . S
H2023 C2017 0.959 . S
H2024 C2017 0.961 . S
H2025 C2017 0.960 . S
H2026 C2018 0.930 . S
H2027 C2019 0.929 . S
H2028 C2036 0.906 1_565 S
H2029 C2038 0.930 . S
H2030 C2040 0.930 . S
H2031 C2043 0.929 . S
H2032 C2046 0.930 . S
H2033 C2048 0.960 . S
H2034 C2048 0.960 . S
H2035 C2048 0.960 . S
C2036 H2028 0.906 1_545 S
C2036 C2037 1.384 . S
C2036 C2038 1.402 . S
C2037 C2036 1.384 . S
C2037 C2043 1.390 . S
C2038 H2029 0.930 . S
C2038 C2036 1.402 . S
C2038 C2039 1.372 . S
C2039 C2038 1.372 . S
C2039 C2040 1.400 . S
C2039 C2044 1.490 . S
C2040 H2030 0.930 . S
C2040 C2039 1.400 . S
C2040 C2043 1.386 . S
H2041 C2057 0.930 . S
H2042 C2058 0.931 . S
C2043 H2031 0.929 . S
C2043 C2037 1.390 . S
C2043 C2040 1.386 . S
C2044 C2039 1.490 . S
C2044 C2046 1.395 . S
C2044 C2047 1.403 . S
H2045 C2051 0.930 . S
C2046 H2032 0.930 . S
C2046 C2044 1.395 . S
C2046 C2049 1.403 . S
C2047 C2044 1.403 . S
C2047 C2048 1.524 . S
C2047 C2051 1.400 . S
C2048 H2033 0.960 . S
C2048 H2034 0.960 . S
C2048 H2035 0.960 . S
C2048 C2047 1.524 . S
C2049 C2046 1.403 . S
C2049 C2050 1.392 . S
C2049 C2053 1.495 . S
C2050 C2049 1.392 . S
C2050 C2051 1.385 . S
C2050 C2052 1.478 . S
C2051 H2045 0.930 . S
C2051 C2047 1.400 . S
C2051 C2050 1.385 . S
C2052 C2050 1.478 . S
C2052 C2054 1.381 . S
C2052 C2058 1.383 . S
C2053 C2049 1.495 . S
C2053 H2059 0.959 1_545 S
C2053 H2060 0.961 . S
C2053 H2061 0.960 . S
C2054 C2052 1.381 . S
C2054 C2055 1.394 . S
C2054 H2062 0.930 . S
C2055 C2054 1.394 . S
C2055 C2056 1.383 . S
C2055 H2063 0.929 . S
C2056 C2055 1.383 . S
C2056 C2057 1.377 . S
C2057 H2041 0.930 . S
C2057 C2056 1.377 . S
C2057 C2058 1.379 . S
C2058 H2042 0.931 . S
C2058 C2052 1.383 . S
C2058 C2057 1.379 . S
H2059 C2053 0.959 1_565 S
H2060 C2053 0.961 . S
H2061 C2053 0.960 . S
H2062 C2054 0.930 . S
H2063 C2055 0.929 . S
H2064 C2072 0.929 . S
H2065 C2074 0.930 . S
H2066 C2076 0.930 . S
H2067 C2079 0.929 . S
H2068 C2082 0.930 . S
H2069 C2084 0.960 . S
H2070 C2084 0.960 . S
H2071 C2084 0.960 . S
C2072 H2064 0.929 . S
C2072 C2073 1.377 . S
C2072 C2074 1.384 . S
C2073 C2072 1.377 . S
C2073 C2079 1.390 . S
C2074 H2065 0.930 . S
C2074 C2072 1.384 . S
C2074 C2075 1.372 . S
C2075 C2074 1.372 . S
C2075 C2076 1.400 . S
C2075 C2080 1.490 . S
C2076 H2066 0.930 . S
C2076 C2075 1.400 . S
C2076 C2079 1.386 . S
H2077 C2093 0.930 . S
H2078 C2094 0.931 . S
C2079 H2067 0.929 . S
C2079 C2073 1.390 . S
C2079 C2076 1.386 . S
C2080 C2075 1.490 . S
C2080 C2082 1.395 . S
C2080 C2083 1.403 . S
H2081 C2087 0.930 . S
C2082 H2068 0.930 . S
C2082 C2080 1.395 . S
C2082 C2085 1.403 . S
C2083 C2080 1.403 . S
C2083 C2084 1.524 . S
C2083 C2087 1.400 . S
C2084 H2069 0.960 . S
C2084 H2070 0.960 . S
C2084 H2071 0.960 . S
C2084 C2083 1.524 . S
C2085 C2082 1.403 . S
C2085 C2086 1.392 . S
C2085 C2089 1.495 . S
C2086 C2085 1.392 . S
C2086 C2087 1.385 . S
C2086 C2088 1.478 . S
C2087 H2081 0.930 . S
C2087 C2083 1.400 . S
C2087 C2086 1.385 . S
C2088 C2086 1.478 . S
C2088 C2090 1.381 . S
C2088 C2094 1.383 . S
C2089 C2085 1.495 . S
C2089 H2095 0.959 . S
C2089 H2096 0.961 . S
C2089 H2097 0.960 . S
C2090 C2088 1.381 . S
C2090 C2091 1.394 . S
C2090 H2098 0.930 . S
C2091 C2090 1.394 . S
C2091 C2092 1.383 . S
C2091 H2099 0.929 . S
C2092 C2091 1.383 . S
C2092 C2093 1.377 . S
C2093 H2077 0.930 . S
C2093 C2092 1.377 . S
C2093 C2094 1.379 . S
C2094 H2078 0.931 . S
C2094 C2088 1.383 . S
C2094 C2093 1.379 . S
H2095 C2089 0.959 . S
H2096 C2089 0.961 . S
H2097 C2089 0.960 . S
H2098 C2090 0.930 . S
H2099 C2091 0.929 . S
H2100 C2108 0.929 . S
H2101 C2110 0.930 . S
H2102 C2112 0.930 1_455 S
H2103 C2115 0.929 . S
H2104 C2118 0.930 . S
H2105 C2120 0.960 . S
H2106 C2120 0.960 . S
H2107 C2120 0.960 . S
C2108 H2100 0.929 . S
C2108 C2109 1.377 . S
C2108 C2110 1.384 . S
C2109 C2108 1.377 . S
C2109 C2115 1.390 . S
C2110 H2101 0.930 . S
C2110 C2108 1.384 . S
C2110 C2111 1.372 1_655 S
C2111 C2110 1.372 1_455 S
C2111 C2112 1.400 1_455 S
C2111 C2116 1.490 . S
C2112 H2102 0.930 1_655 S
C2112 C2111 1.400 1_655 S
C2112 C2115 1.386 . S
H2113 C2129 0.930 . S
H2114 C2130 0.931 . S
C2115 H2103 0.929 . S
C2115 C2109 1.390 . S
C2115 C2112 1.386 . S
C2116 C2111 1.490 . S
C2116 C2118 1.395 . S
C2116 C2119 1.403 . S
H2117 C2123 0.930 . S
C2118 H2104 0.930 . S
C2118 C2116 1.395 . S
C2118 C2121 1.403 . S
C2119 C2116 1.403 . S
C2119 C2120 1.524 . S
C2119 C2123 1.400 . S
C2120 H2105 0.960 . S
C2120 H2106 0.960 . S
C2120 H2107 0.960 . S
C2120 C2119 1.524 . S
C2121 C2118 1.403 . S
C2121 C2122 1.392 . S
C2121 C2125 1.495 . S
C2122 C2121 1.392 . S
C2122 C2123 1.385 . S
C2122 C2124 1.478 . S
C2123 H2117 0.930 . S
C2123 C2119 1.400 . S
C2123 C2122 1.385 . S
C2124 C2122 1.478 . S
C2124 C2126 1.381 . S
C2124 C2130 1.383 . S
C2125 C2121 1.495 . S
C2125 H2131 0.959 . S
C2125 H2132 0.961 . S
C2125 H2133 0.960 . S
C2126 C2124 1.381 . S
C2126 C2127 1.394 . S
C2126 H2134 0.930 . S
C2127 C2126 1.394 . S
C2127 C2128 1.383 . S
C2127 H2135 0.929 . S
C2128 C2127 1.383 . S
C2128 C2129 1.377 . S
C2129 H2113 0.930 . S
C2129 C2128 1.377 . S
C2129 C2130 1.379 . S
C2130 H2114 0.931 . S
C2130 C2124 1.383 . S
C2130 C2129 1.379 . S
H2131 C2125 0.959 . S
H2132 C2125 0.961 . S
H2133 C2125 0.960 . S
H2134 C2126 0.930 . S
H2135 C2127 0.929 . S
H2136 C2144 0.929 . S
H2137 C2146 0.930 . S
H2138 C2148 0.930 . S
H2139 C2151 0.929 . S
H2140 C2154 0.930 . S
H2141 C2156 0.960 . S
H2142 C2156 0.960 . S
H2143 C2156 0.960 . S
C2144 H2136 0.929 . S
C2144 C2145 1.377 . S
C2144 C2146 1.384 . S
C2145 C2144 1.377 . S
C2145 C2151 1.390 . S
C2146 H2137 0.930 . S
C2146 C2144 1.384 . S
C2146 C2147 1.372 . S
C2147 C2146 1.372 . S
C2147 C2148 1.400 . S
C2147 C2152 1.490 . S
C2148 H2138 0.930 . S
C2148 C2147 1.400 . S
C2148 C2151 1.386 . S
H2149 C2165 0.930 . S
H2150 C2166 0.931 . S
C2151 H2139 0.929 . S
C2151 C2145 1.390 . S
C2151 C2148 1.386 . S
C2152 C2147 1.490 . S
C2152 C2154 1.395 . S
C2152 C2155 1.403 . S
H2153 C2159 0.930 . S
C2154 H2140 0.930 . S
C2154 C2152 1.395 . S
C2154 C2157 1.403 . S
C2155 C2152 1.403 . S
C2155 C2156 1.524 . S
C2155 C2159 1.400 . S
C2156 H2141 0.960 . S
C2156 H2142 0.960 . S
C2156 H2143 0.960 . S
C2156 C2155 1.524 . S
C2157 C2154 1.403 . S
C2157 C2158 1.392 . S
C2157 C2161 1.495 . S
C2158 C2157 1.392 . S
C2158 C2159 1.385 . S
C2158 C2160 1.478 . S
C2159 H2153 0.930 . S
C2159 C2155 1.400 . S
C2159 C2158 1.385 . S
C2160 C2158 1.478 . S
C2160 C2162 1.381 . S
C2160 C2166 1.383 . S
C2161 C2157 1.495 . S
C2161 H2167 0.959 . S
C2161 H2168 0.961 . S
C2161 H2169 0.960 . S
C2162 C2160 1.381 . S
C2162 C2163 1.394 . S
C2162 H2170 0.930 . S
C2163 C2162 1.394 . S
C2163 C2164 1.383 . S
C2163 H2171 0.929 . S
C2164 C2163 1.383 . S
C2164 C2165 1.377 . S
C2165 H2149 0.930 . S
C2165 C2164 1.377 . S
C2165 C2166 1.379 . S
C2166 H2150 0.931 . S
C2166 C2160 1.383 . S
C2166 C2165 1.379 . S
H2167 C2161 0.959 . S
H2168 C2161 0.961 . S
H2169 C2161 0.960 . S
H2170 C2162 0.930 . S
H2171 C2163 0.929 . S
H2172 C2180 0.929 . S
H2173 C2182 0.930 . S
H2174 C2184 0.930 . S
H2175 C2187 0.929 . S
H2176 C2190 0.930 . S
H2177 C2192 0.960 . S
H2178 C2192 0.960 . S
H2179 C2192 0.960 . S
C2180 H2172 0.929 . S
C2180 C2181 1.377 . S
C2180 C2182 1.384 . S
C2181 C2180 1.377 . S
C2181 C2187 1.390 . S
C2182 H2173 0.930 . S
C2182 C2180 1.384 . S
C2182 C2183 1.372 . S
C2183 C2182 1.372 . S
C2183 C2184 1.400 . S
C2183 C2188 1.490 . S
C2184 H2174 0.930 . S
C2184 C2183 1.400 . S
C2184 C2187 1.386 . S
H2185 C2201 0.930 . S
H2186 C2202 0.931 1_545 S
C2187 H2175 0.929 . S
C2187 C2181 1.390 . S
C2187 C2184 1.386 . S
C2188 C2183 1.490 . S
C2188 C2190 1.395 . S
C2188 C2191 1.403 . S
H2189 C2195 0.930 . S
C2190 H2176 0.930 . S
C2190 C2188 1.395 . S
C2190 C2193 1.403 . S
C2191 C2188 1.403 . S
C2191 C2192 1.524 . S
C2191 C2195 1.400 . S
C2192 H2177 0.960 . S
C2192 H2178 0.960 . S
C2192 H2179 0.960 . S
C2192 C2191 1.524 . S
C2193 C2190 1.403 . S
C2193 C2194 1.392 . S
C2193 C2197 1.495 . S
C2194 C2193 1.392 . S
C2194 C2195 1.385 . S
C2194 C2196 1.478 . S
C2195 H2189 0.930 . S
C2195 C2191 1.400 . S
C2195 C2194 1.385 . S
C2196 C2194 1.478 . S
C2196 C2198 1.381 . S
C2196 C2202 1.383 . S
C2197 C2193 1.495 . S
C2197 H2203 0.959 . S
C2197 H2204 0.961 . S
C2197 H2205 0.960 . S
C2198 C2196 1.381 . S
C2198 C2199 1.394 . S
C2198 H2206 0.930 . S
C2199 C2198 1.394 . S
C2199 C2200 1.383 . S
C2199 H2207 0.929 . S
C2200 C2199 1.383 . S
C2200 C2201 1.377 1_565 S
C2201 H2185 0.930 . S
C2201 C2200 1.377 1_545 S
C2201 C2202 1.379 1_545 S
C2202 H2186 0.931 1_565 S
C2202 C2196 1.383 . S
C2202 C2201 1.379 1_565 S
H2203 C2197 0.959 . S
H2204 C2197 0.961 . S
H2205 C2197 0.960 . S
H2206 C2198 0.930 . S
H2207 C2199 0.929 . S
C489 C27 0.545 . S
C508 C376 0.509 . S
C525 C166 0.544 . S
C544 C57 0.512 . S
C561 C87 0.561 . S
C580 C436 0.604 . S
C597 C117 0.545 . S
C616 C226 0.563 . S
C633 C136 0.548 . S
C652 C267 0.579 . S
C669 C327 0.562 . S
C688 C196 0.547 . S
C705 C406 0.558 . S
C724 C297 0.605 . S
C741 C357 0.561 . S
C760 C466 0.544 . S
C777 C271 1.414 . S
C796 C16 1.411 . S
C813 C46 1.409 . S
C832 C301 1.393 . S
C849 C76 1.409 . S
C868 C331 1.390 . S
C885 C241 1.419 . S
C904 C106 1.374 . S
C921 C400 1.419 . S
C940 C147 1.404 . S
C957 C430 1.415 . S
C976 C177 1.375 . S
C993 C207 1.408 . S
C1012 C460 1.428 . S
C1029 C370 1.419 . S
C1048 C237 1.413 . S
C1065 C256 1.408 . S
C1084 C31 1.389 . S
C1101 C286 1.406 . S
C1120 C61 1.411 . S
C1137 C316 1.399 . S
C1156 C91 1.434 . S
C1173 C1 1.411 . S
C1192 C346 1.413 . S
C1209 C160 1.418 . S
C1228 C387 1.387 . S
C1245 C417 1.401 . S
C1264 C190 1.430 . S
C1281 C220 1.417 . S
C1300 C447 1.381 . S
C1317 C477 1.401 . S
C1336 C130 1.389 . S
C1353 N14 1.378 . S
C1372 N314 1.365 . S
C1389 N44 1.380 . S
C1408 N344 1.354 . S
C1425 N254 1.374 . S
C1444 N74 1.385 . S
C1461 N104 1.378 . S
C1480 N284 1.368 . S
C1497 N126 1.370 . S
C1516 N426 1.355 . S
C1533 N156 1.371 . S
C1552 N456 1.352 . S
C1569 N366 1.380 . S
C1588 N186 1.391 . S
C1605 N216 1.376 . S
C1624 N396 1.366 . S
C1641 C10 1.052 . S
C1660 N224 1.084 . S
C1677 N374 1.057 . S
C1696 C40 1.044 . S
C1713 C70 1.046 . S
C1732 N164 1.073 . S
C1749 C100 1.051 . S
C1768 N434 1.083 . S
C1785 C121 1.047 . S
C1804 N96 1.031 . S
C1821 N246 1.063 . S
C1840 C151 1.071 . S
C1857 C181 1.038 . S
C1876 N36 1.054 . S
C1893 N306 1.056 . S
C1912 C211 1.023 . S
C1929 C250 1.048 . S
C1948 N464 1.060 . S
C1965 N134 1.057 . S
C1984 C280 1.015 1_565 S
C2001 N404 1.063 . S
C2020 C310 1.053 . S
C2037 C340 1.037 1_545 S
C2056 N194 1.037 . S
C2073 C361 1.043 . S
C2092 N336 1.084 . S
C2109 C391 1.048 1_545 S
C2128 N6 1.032 . S
C2145 N276 1.054 . S
C2164 C421 1.060 . S
C2181 N66 1.057 . S
C2200 C451 1.013 1_565 S
