# Generated by pormake.
# Topology qtz-e, (6)-cn, num edge types: 1
# Building blocks:
#     Node 0, Type 0, BuildingBlock: KUMBUR_clean_sbu_1, # of connection points: 6
#     Node 1, Type 0, BuildingBlock: KUMBUR_clean_sbu_1, # of connection points: 6
#     Node 2, Type 0, BuildingBlock: KUMBUR_clean_sbu_1, # of connection points: 6
#     Node 3, Type 0, BuildingBlock: KUMBUR_clean_sbu_1, # of connection points: 6
#     Node 4, Type 0, BuildingBlock: KUMBUR_clean_sbu_1, # of connection points: 6
#     Node 5, Type 0, BuildingBlock: KUMBUR_clean_sbu_1, # of connection points: 6
#     Edge 6, Type (0, 0), BuildingBlock: TEMPAE_clean_linker_10, # of connection points: 2
#     Edge 7, Type (0, 0), BuildingBlock: TEMPAE_clean_linker_10, # of connection points: 2
#     Edge 8, Type (0, 0), BuildingBlock: TEMPAE_clean_linker_10, # of connection points: 2
#     Edge 9, Type (0, 0), BuildingBlock: TEMPAE_clean_linker_10, # of connection points: 2
#     Edge 10, Type (0, 0), BuildingBlock: TEMPAE_clean_linker_10, # of connection points: 2
#     Edge 11, Type (0, 0), BuildingBlock: TEMPAE_clean_linker_10, # of connection points: 2
#     Edge 12, Type (0, 0), BuildingBlock: TEMPAE_clean_linker_10, # of connection points: 2
#     Edge 13, Type (0, 0), BuildingBlock: TEMPAE_clean_linker_10, # of connection points: 2
#     Edge 14, Type (0, 0), BuildingBlock: TEMPAE_clean_linker_10, # of connection points: 2
#     Edge 15, Type (0, 0), BuildingBlock: TEMPAE_clean_linker_10, # of connection points: 2
#     Edge 16, Type (0, 0), BuildingBlock: TEMPAE_clean_linker_10, # of connection points: 2
#     Edge 17, Type (0, 0), BuildingBlock: TEMPAE_clean_linker_10, # of connection points: 2
#     Edge 18, Type (0, 0), BuildingBlock: TEMPAE_clean_linker_10, # of connection points: 2
#     Edge 19, Type (0, 0), BuildingBlock: TEMPAE_clean_linker_10, # of connection points: 2
#     Edge 20, Type (0, 0), BuildingBlock: TEMPAE_clean_linker_10, # of connection points: 2
#     Edge 21, Type (0, 0), BuildingBlock: TEMPAE_clean_linker_10, # of connection points: 2
#     Edge 22, Type (0, 0), BuildingBlock: TEMPAE_clean_linker_10, # of connection points: 2
#     Edge 23, Type (0, 0), BuildingBlock: TEMPAE_clean_linker_10, # of connection points: 2
# Relax obj value: 0.149
# Max RMSD: 0.211
# Mean RMSD: 0.211
data_MOF--net-qtz-e--node1-KUMBUR_clean_sbu_1--edge1-TEMPAE_clean_linker_10
_symmetry_space_group_name_H-M    P1
_symmetry_Int_Tables_number       1
_symmetry_cell_setting            triclinic
loop_
_symmetry_equiv_pos_as_xyz
'x, y, z'
_cell_length_a     28.149843
_cell_length_b     28.102055
_cell_length_c     49.665634
_cell_angle_alpha  89.81808
_cell_angle_beta   89.905463
_cell_angle_gamma 120.03413
loop_
_atom_site_label
_atom_site_type_symbol
_atom_site_fract_x
_atom_site_fract_y
_atom_site_fract_z
_atom_type_partial_charge
Tb0 Tb 0.17826 0.3577 0.9853 0.0
C1 C 0.36366 0.61413 0.03529 0.0
N2 N 0.35035 0.56468 0.04633 0.0
C3 C 0.43761 0.60627 0.06873 0.0
C4 C 0.41546 0.66116 0.03973 0.0
C5 C 0.38606 0.56069 0.06346 0.0
C6 C 0.45266 0.65659 0.05657 0.0
C7 C 0.33951 0.66702 0.00551 0.0
C8 C 0.32569 0.61732 0.01897 0.0
C9 C 0.39052 0.71414 0.01024 0.0
C10 C 0.42838 0.71124 0.02738 0.0
Tb11 Tb 0.26163 0.49545 0.04047 0.0
N12 N 0.27713 0.5706 0.01454 0.0
C13 C 0.30275 0.66733 0.98676 0.0
C14 C 0.24454 0.56986 -0.00608 0.0
C15 C 0.25561 0.61816 0.98049 0.0
H16 H 0.37433 0.52315 0.07411 0.0
H17 H 0.22856 0.61701 0.96472 0.0
H18 H 0.06025 0.3442 0.96498 0.0
H19 H 0.23129 0.20897 0.02423 0.0
H20 H 0.21102 0.53223 0.98667 0.0
H21 H 0.31183 0.70454 0.97598 0.0
H22 H 0.25113 0.29928 0.00878 0.0
H23 H 0.46531 0.60293 0.08264 0.0
H24 H 0.40156 0.75268 0.00026 0.0
H25 H 0.46784 0.74777 0.03065 0.0
H26 H 0.96309 0.27128 0.96373 0.0
H27 H 0.49264 0.6918 0.06067 0.0
H28 H 0.13627 0.13084 0.02409 0.0
N29 N 0.0874 0.29348 0.98322 0.0
C30 C 0.07371 0.24165 0.9908 0.0
C31 C 0.99368 0.2625 0.97168 0.0
C32 C 0.01881 0.19836 0.98992 0.0
C33 C 0.04869 0.30403 0.9729 0.0
C34 C 0.97856 0.2095 0.98043 0.0
N35 N 0.1674 0.27534 0.00058 0.0
C36 C 0.20904 0.26697 0.00889 0.0
C37 C 0.10209 0.17908 0.00824 0.0
C38 C 0.11497 0.23215 -0.00032 0.0
C39 C 0.14447 0.17097 0.01734 0.0
C40 C 0.19812 0.21503 0.01754 0.0
H41 H 0.93593 0.17735 0.97942 0.0
H42 H 0.96395 0.11173 -0.0021 0.0
H43 H 0.03682 0.09489 0.01406 0.0
O44 O 0.20492 0.32843 0.95204 0.0
O45 O 0.14285 0.32821 0.02555 0.0
O46 O 0.20164 0.41238 0.03229 0.0
O47 O 0.15409 0.36578 0.9467 0.0
O48 O 0.2644 0.38451 -0.00307 0.0
O49 O 0.27305 0.42334 0.03908 0.0
O50 O 0.23808 0.52805 0.07367 0.0
O51 O 0.30796 0.50962 0.00303 0.0
O52 O 0.22727 0.4482 0.98521 0.0
O53 O 0.27755 0.47841 0.07874 0.0
O54 O 0.17879 0.47739 0.02867 0.0
O55 O 0.13876 0.40912 -0.00625 0.0
C56 C 0.16411 0.36663 0.04329 0.0
C57 C 0.17595 0.33465 0.90575 0.0
C58 C 0.1948 0.29871 0.86481 0.0
C59 C 0.16344 0.31586 0.85005 0.0
C60 C 0.14494 0.35145 0.89038 0.0
C61 C 0.13893 0.34221 0.86276 0.0
C62 C 0.20153 0.30871 0.89276 0.0
C63 C 0.2932 0.40805 0.01907 0.0
C64 C 0.17834 0.34225 0.93529 0.0
C65 C 0.00591 0.14549 -0.00162 0.0
C66 C 0.04742 0.13589 0.00755 0.0
C67 C 0.2806 0.48021 0.98211 0.0
C68 C 0.25868 0.50988 0.11994 0.0
C69 C 0.24884 0.54911 0.16176 0.0
C70 C 0.26603 0.51735 0.17619 0.0
C71 C 0.27599 0.47865 0.13488 0.0
C72 C 0.24454 0.54491 0.13354 0.0
C73 C 0.27959 0.48246 0.16278 0.0
C74 C 0.14019 0.44769 0.01042 0.0
C75 C 0.25855 0.50685 0.09032 0.0
H76 H 0.15832 0.30928 0.82851 0.0
H77 H 0.12481 0.37149 0.89971 0.0
H78 H 0.11503 0.3554 0.85117 0.0
H79 H 0.22536 0.2953 0.90432 0.0
H80 H 0.26926 0.51984 0.19794 0.0
H81 H 0.28715 0.45127 0.12503 0.0
H82 H 0.23192 0.56982 0.1223 0.0
H83 H 0.2932 0.45845 0.17404 0.0
Tb84 Tb 0.8497 0.20112 0.32137 0.0
C85 C 0.73751 0.33907 0.33635 0.0
N86 N 0.77464 0.33962 0.35398 0.0
C87 C 0.81972 0.43808 0.35601 0.0
C88 C 0.74079 0.38828 0.32736 0.0
C89 C 0.81422 0.38808 0.36452 0.0
C90 C 0.78313 0.43825 0.33713 0.0
C91 C 0.65411 0.28614 0.31101 0.0
C92 C 0.69568 0.28866 0.32783 0.0
C93 C 0.65803 0.33494 0.30119 0.0
C94 C 0.70148 0.38594 0.30925 0.0
Tb95 Tb 0.76475 0.25608 0.3656 0.0
N96 N 0.69264 0.24235 0.33835 0.0
C97 C 0.60814 0.23491 0.30599 0.0
C98 C 0.64403 0.19394 0.33675 0.0
C99 C 0.60225 0.1889 0.31966 0.0
H100 H 0.84031 0.38781 0.38005 0.0
H101 H 0.56476 0.14997 0.31764 0.0
H102 H 0.75765 0.07997 0.29672 0.0
H103 H 0.0284 0.2635 0.38443 0.0
H104 H 0.63611 0.15948 0.34932 0.0
H105 H 0.57528 0.23107 0.29319 0.0
H106 H 0.96666 0.27898 0.35595 0.0
H107 H 0.85173 0.47636 0.36429 0.0
H108 H 0.62683 0.33367 0.28797 0.0
H109 H 0.70353 0.42327 0.30189 0.0
H110 H 0.73563 0.98359 0.30112 0.0
H111 H 0.78724 0.47699 0.33064 0.0
H112 H 0.01176 0.16934 0.39181 0.0
N113 N 0.82717 0.11114 0.32248 0.0
C114 C 0.86005 0.09934 0.3377 0.0
C115 C 0.77068 0.01575 0.31156 0.0
C116 C 0.84924 0.0449 0.34058 0.0
C117 C 0.78305 0.07041 0.3093 0.0
C118 C 0.80383 1.0029 0.32731 0.0
N119 N 0.91181 0.19382 0.34837 0.0
C120 C 0.95695 0.23734 0.35953 0.0
C121 C 0.93899 0.13148 0.36697 0.0
C122 C 0.90391 0.14205 0.351 0.0
C123 C 0.98371 0.17569 0.37945 0.0
C124 C 0.99303 0.22886 0.37545 0.0
H125 H 0.79405 0.9605 0.32906 0.0
H126 H 0.87602 0.99253 0.35925 0.0
H127 H 0.95495 0.0684 0.38212 0.0
O128 O 0.91577 0.25472 0.29655 0.0
O129 O 0.81782 0.16113 0.36065 0.0
O130 O 0.81602 0.22845 0.38602 0.0
O131 O 0.86062 0.17178 0.28422 0.0
O132 O 0.89512 0.28724 0.33568 0.0
O133 O 0.85213 0.2919 0.37473 0.0
O134 O 0.70127 0.21261 0.39342 0.0
O135 O 0.806 0.30084 0.32865 0.0
O136 O 0.79626 0.22841 0.30468 0.0
O137 O 0.76127 0.29735 0.40016 0.0
O138 O 0.72529 0.16865 0.35486 0.0
O139 O 0.76103 0.16425 0.31356 0.0
C140 C 0.81209 0.17997 0.38392 0.0
C141 C 0.95124 0.2145 0.2671 0.0
C142 C 0.01899 0.2382 0.2311 0.0
C143 C 0.041 0.21028 0.24533 0.0
C144 C 0.97382 0.18701 0.28094 0.0
C145 C 0.01852 0.18496 0.27004 0.0
C146 C 0.97388 0.24002 0.24227 0.0
C147 C 0.89369 0.31321 0.35759 0.0
C148 C 0.9045 0.21778 0.27814 0.0
C149 C 0.88369 0.03412 0.35675 0.0
C150 C 0.92856 0.07731 0.36984 0.0
C151 C 0.80867 0.27966 0.30568 0.0
C152 C 0.67204 0.26532 0.41677 0.0
C153 C 0.61078 0.26076 0.45231 0.0
C154 C 0.58635 0.28093 0.43437 0.0
C155 C 0.64788 0.2858 0.39897 0.0
C156 C 0.65309 0.2524 0.44316 0.0
C157 C 0.60493 0.29332 0.40776 0.0
C158 C 0.72212 0.1432 0.33214 0.0
C159 C 0.71601 0.25532 0.40851 0.0
H160 H 0.07508 0.20725 0.23716 0.0
H161 H 0.95694 0.16715 0.30006 0.0
H162 H 0.0357 0.16348 0.28074 0.0
H163 H 0.95665 0.2618 0.23181 0.0
H164 H 0.55389 0.2882 0.44104 0.0
H165 H 0.66192 0.29581 0.37845 0.0
H166 H 0.67145 0.23571 0.45665 0.0
H167 H 0.58635 0.3092 0.39402 0.0
Tb168 Tb 0.67618 0.84162 0.65879 0.0
C169 C 0.42096 0.77446 0.70034 0.0
N170 N 0.47012 0.8056 0.7126 0.0
C171 C 0.43683 0.86052 0.73303 0.0
C172 C 0.37804 0.78607 0.70342 0.0
C173 C 0.47867 0.84828 0.72878 0.0
C174 C 0.38615 0.82899 0.72043 0.0
C175 C 0.36325 0.69712 0.67172 0.0
C176 C 0.41295 0.72941 0.68554 0.0
C177 C 0.32097 0.70969 0.67392 0.0
C178 C 0.32811 0.75367 0.69001 0.0
Tb179 Tb 0.53065 0.77466 0.70917 0.0
N180 N 0.45448 0.71802 0.6843 0.0
C181 C 0.35755 0.6532 0.65615 0.0
C182 C 0.4487 0.67463 0.6694 0.0
C183 C 0.40054 0.64201 0.65496 0.0
H184 H 0.51671 0.8709 0.73965 0.0
H185 H 0.39658 0.60813 0.64296 0.0
H186 H 0.70484 0.74225 0.64744 0.0
H187 H 0.79355 0.04189 0.70583 0.0
H188 H 0.48111 0.66527 0.66804 0.0
H189 H 0.32021 0.62768 0.64503 0.0
H190 H 0.712 0.96618 0.68567 0.0
H191 H 0.4434 0.89368 0.74633 0.0
H192 H 0.28241 0.68527 0.66353 0.0
H193 H 0.29478 0.76225 0.69198 0.0
H194 H 0.78491 0.72927 0.65191 0.0
H195 H 0.3535 0.83801 0.72402 0.0
H196 H 0.87835 0.037 0.71046 0.0
N197 N 0.74615 0.82345 0.66306 0.0
C198 C 0.79394 0.86534 0.6728 0.0
C199 C 0.78792 0.76767 0.65793 0.0
C200 C 0.84079 0.85983 0.67553 0.0
C201 C 0.74243 0.77494 0.65567 0.0
C202 C 0.83738 0.81034 0.66781 0.0
N203 N 0.74743 0.91508 0.68006 0.0
C204 C 0.74725 0.96146 0.68816 0.0
C205 C 0.84289 0.95606 0.69276 0.0
C206 C 0.79466 0.9127 0.68155 0.0
C207 C 0.84213 1.00276 0.70176 0.0
C208 C 0.79421 0.0055 0.69934 0.0
H209 H 0.87248 0.80449 0.66961 0.0
H210 H 0.92559 0.89998 0.68847 0.0
H211 H 0.92756 0.98432 0.70338 0.0
O212 O 0.69568 0.9014 0.62825 0.0
O213 O 0.69718 0.8271 0.69951 0.0
O214 O 0.61606 0.8113 0.7042 0.0
O215 O 0.70714 0.8326 0.62182 0.0
O216 O 0.63437 0.8895 0.66738 0.0
O217 O 0.59349 0.86247 0.70979 0.0
O218 O 0.50628 0.70649 0.7348 0.0
O219 O 0.52004 0.79499 0.66812 0.0
O220 O 0.58904 0.78608 0.64864 0.0
O221 O 0.52025 0.78387 0.75036 0.0
O222 O 0.5592 0.7183 0.69722 0.0
O223 O 0.62366 0.74954 0.66096 0.0
C224 C 0.65679 0.8108 0.71599 0.0
C225 C 0.6889 0.87044 0.58315 0.0
C226 C 0.691 0.91173 0.53929 0.0
C227 C 0.65292 0.85946 0.52959 0.0
C228 C 0.65158 0.81853 0.57271 0.0
C229 C 0.6339 0.81325 0.54611 0.0
C230 C 0.70914 0.91706 0.56617 0.0
C231 C 0.60734 0.89461 0.68815 0.0
C232 C 0.70974 0.87592 0.611 0.0
C233 C 0.88906 0.90332 0.68633 0.0
C234 C 0.89014 0.95132 0.69487 0.0
C235 C 0.54896 0.79734 0.64676 0.0
C236 C 0.44929 0.70277 0.77039 0.0
C237 C 0.39054 0.63233 0.80296 0.0
C238 C 0.35021 0.64741 0.79898 0.0
C239 C 0.40832 0.71677 0.7669 0.0
C240 C 0.44004 0.66014 0.78828 0.0
C241 C 0.35901 0.68897 0.78093 0.0
C242 C 0.58872 0.71114 0.67841 0.0
C243 C 0.50162 0.73204 0.75556 0.0
H244 H 0.63894 0.8542 0.50892 0.0
H245 H 0.63685 0.78185 0.58494 0.0
H246 H 0.60605 0.77307 0.53806 0.0
H247 H 0.73902 0.95717 0.57377 0.0
H248 H 0.31237 0.62848 0.81047 0.0
H249 H 0.41429 0.74958 0.75369 0.0
H250 H 0.47157 0.64914 0.79084 0.0
H251 H 0.32792 0.70049 0.77821 0.0
Tb252 Tb 0.8193 0.65163 -0.00698 0.0
C253 C 0.70923 0.40611 -0.00022 0.0
N254 N 0.68615 0.43149 0.01312 0.0
C255 C 0.59792 0.36531 -0.00441 0.0
C256 C 0.67867 0.36291 0.98163 0.0
C257 C 0.63018 0.40697 0.01382 0.0
C258 C 0.62283 0.34493 0.97843 0.0
C259 C 0.78108 0.38323 -0.00035 0.0
C260 C 0.75984 0.41648 0.00846 0.0
C261 C 0.75445 0.34518 0.97887 0.0
C262 C 0.7032 0.33526 0.96969 0.0
Tb263 Tb 0.74606 0.50699 0.03826 0.0
N264 N 0.78277 0.45196 0.0292 0.0
C265 C 0.82487 0.38521 0.01381 0.0
C266 C 0.82231 0.45052 0.04454 0.0
C267 C 0.84449 0.41773 0.03684 0.0
H268 H 0.6109 0.42055 0.02778 0.0
H269 H 0.8764 0.41725 0.04874 0.0
H270 H 0.94296 0.66236 0.98394 0.0
H271 H 0.76146 0.79462 0.03208 0.0
H272 H 0.83751 0.47576 0.06236 0.0
H273 H 0.84082 0.35864 0.00834 0.0
H274 H 0.74499 0.70893 0.01081 0.0
H275 H 0.55394 0.34843 -0.00492 0.0
H276 H 0.77099 0.32033 0.97126 0.0
H277 H 0.68098 0.30289 0.95518 0.0
H278 H 0.03785 0.72575 -0.00289 0.0
H279 H 0.59776 0.31191 0.9647 0.0
H280 H 0.85534 0.86465 0.04561 0.0
N281 N 0.91012 0.70741 0.00323 0.0
C282 C 0.9226 0.75596 0.01497 0.0
C283 C 1.00571 0.73433 0.0027 0.0
C284 C 0.9771 0.79483 0.02186 0.0
C285 C 0.95118 0.6974 -0.00405 0.0
C286 C 0.01868 0.78298 0.016 0.0
N287 N 0.82839 0.72825 0.01345 0.0
C288 C 0.786 0.73813 0.01717 0.0
C289 C 0.89188 0.81715 0.03179 0.0
C290 C 0.88056 0.76712 0.01982 0.0
C291 C 0.84835 0.82673 0.03645 0.0
C292 C 0.79526 0.78717 0.02896 0.0
H293 H 0.06106 0.81175 0.02097 0.0
H294 H 0.03009 0.87478 0.03946 0.0
H295 H 0.9555 0.89433 0.04812 0.0
O296 O 0.7815 0.67239 0.96097 0.0
O297 O 0.82565 0.65842 0.03782 0.0
O298 O 0.82233 0.57798 0.05257 0.0
O299 O 0.86706 0.69323 0.95979 0.0
O300 O 0.73188 0.62005 0.00167 0.0
O301 O 0.72671 0.5739 0.04054 0.0
O302 O 0.72634 0.44876 0.06962 0.0
O303 O 0.70588 0.50689 0.00074 0.0
O304 O 0.78301 0.56736 0.9787 0.0
O305 O 0.70517 0.51275 0.07272 0.0
O306 O 0.8343 0.54907 0.02949 0.0
O307 O 0.84918 0.59258 0.98796 0.0
C308 C 0.83306 0.62896 0.05661 0.0
C309 C 0.83686 0.7208 0.92043 0.0
C310 C 0.8068 0.74853 0.88004 0.0
C311 C 0.85968 0.7691 0.86903 0.0
C312 C 0.88936 0.74245 0.90882 0.0
C313 C 0.90047 0.76614 0.88334 0.0
C314 C 0.79517 0.72348 0.9058 0.0
C315 C 0.70369 0.59036 0.02259 0.0
C316 C 0.82733 0.69467 0.94737 0.0
C317 C 0.98849 0.84453 0.03397 0.0
C318 C 0.94603 0.85574 0.03883 0.0
C319 C 0.73023 0.53321 0.97861 0.0
C320 C 0.67998 0.45013 0.11052 0.0
C321 C 0.68691 0.41738 0.15497 0.0
C322 C 0.64166 0.42212 0.16346 0.0
C323 C 0.63508 0.45473 0.11926 0.0
C324 C 0.70513 0.43063 0.1282 0.0
C325 C 0.61571 0.4402 0.14559 0.0
C326 C 0.86135 0.56655 0.00654 0.0
C327 C 0.70437 0.47096 0.084 0.0
H328 H 0.8695 0.78731 0.84908 0.0
H329 H 0.9222 0.74083 0.91936 0.0
H330 H 0.94092 0.78222 0.87459 0.0
H331 H 0.75451 0.70692 0.91442 0.0
H332 H 0.62702 0.41304 0.18405 0.0
H333 H 0.61549 0.47017 0.10585 0.0
H334 H 0.73984 0.42723 0.12125 0.0
H335 H 0.58123 0.44407 0.15235 0.0
Tb336 Tb 0.18764 0.83739 0.32249 0.0
C337 C 0.30815 0.69548 0.34221 0.0
N338 N 0.26314 0.68972 0.35524 0.0
C339 C 0.21686 0.59219 0.34773 0.0
C340 C 0.30823 0.65021 0.33007 0.0
C341 C 0.21901 0.6384 0.35946 0.0
C342 C 0.26124 0.5983 0.33242 0.0
C343 C 0.40393 0.75344 0.33099 0.0
C344 C 0.35488 0.74652 0.34235 0.0
C345 C 0.40366 0.70949 0.31743 0.0
C346 C 0.35575 0.65793 0.31688 0.0
Tb347 Tb 0.26894 0.76906 0.37162 0.0
N348 N 0.35351 0.78786 0.35582 0.0
C349 C 0.45235 0.80323 0.33495 0.0
C350 C 0.4016 0.83477 0.36164 0.0
C351 C 0.45141 0.84327 0.35105 0.0
H352 H 0.18549 0.63363 0.37152 0.0
H353 H 0.48925 0.88051 0.35529 0.0
H354 H 0.29345 0.95779 0.30227 0.0
H355 H 0.99349 0.78382 0.36896 0.0
H356 H 0.40199 0.86586 0.37455 0.0
H357 H 0.49104 0.81014 0.32679 0.0
H358 H 0.06313 0.76509 0.34976 0.0
H359 H 0.1811 0.55195 0.35059 0.0
H360 H 0.44077 0.71437 0.30822 0.0
H361 H 0.3565 0.62388 0.30713 0.0
H362 H 0.31884 0.05507 0.30368 0.0
H363 H 0.25961 0.56248 0.32338 0.0
H364 H 0.0112 0.87927 0.37133 0.0
N365 N 0.21705 0.92939 0.32258 0.0
C366 C 0.18084 0.94341 0.33282 0.0
C367 C 0.28006 0.02407 0.31214 0.0
C368 C 0.19318 0.99857 0.33337 0.0
C369 C 0.26579 0.9687 0.31179 0.0
C370 C 0.24374 0.03913 0.32306 0.0
N371 N 0.12107 0.84941 0.34223 0.0
C372 C 0.07205 0.80705 0.35108 0.0
C373 C 0.09198 0.91451 0.35327 0.0
C374 C 0.1308 0.90199 0.3426 0.0
C375 C 0.04221 0.87141 0.363 0.0
C376 C 0.03215 0.81746 0.36179 0.0
H377 H 0.25484 0.08203 0.32312 0.0
H378 H 0.16337 0.05354 0.34457 0.0
H379 H 0.07481 0.97995 0.362 0.0
O380 O 0.12426 0.7864 0.29574 0.0
O381 O 0.19224 0.86499 0.36436 0.0
O382 O 0.23644 0.82229 0.36667 0.0
O383 O 0.18928 0.86533 0.28299 0.0
O384 O 0.13868 0.75131 0.33824 0.0
O385 O 0.1816 0.74337 0.37708 0.0
O386 O 0.31822 0.79026 0.40645 0.0
O387 O 0.23261 0.72665 0.33386 0.0
O388 O 0.24001 0.80239 0.31485 0.0
O389 O 0.23377 0.72716 0.40769 0.0
O390 O 0.31608 0.85777 0.36007 0.0
O391 O 0.27957 0.87276 0.31978 0.0
C392 C 0.21975 0.85111 0.37996 0.0
C393 C 0.10236 0.83407 0.26321 0.0
C394 C 0.03341 0.81259 0.2282 0.0
C395 C 0.02722 0.8566 0.23725 0.0
C396 C 0.09561 0.87795 0.27161 0.0
C397 C 0.05807 0.88888 0.2588 0.0
C398 C 0.07121 0.80149 0.24143 0.0
C399 C 0.14115 0.72302 0.35934 0.0
C400 C 0.14265 0.82282 0.27649 0.0
C401 C 0.15462 0.01137 0.34399 0.0
C402 C 0.10413 0.96945 0.35389 0.0
C403 C 0.22305 0.74996 0.31336 0.0
C404 C 0.29436 0.71552 0.43577 0.0
C405 C 0.33619 0.69991 0.47505 0.0
C406 C 0.31953 0.64659 0.46595 0.0
C407 C 0.2781 0.6621 0.42688 0.0
C408 C 0.32387 0.73443 0.45977 0.0
C409 C 0.29085 0.62796 0.44186 0.0
C410 C 0.32066 0.88495 0.33719 0.0
C411 C 0.27964 0.75144 0.42078 0.0
H412 H 0.99938 0.86695 0.22727 0.0
H413 H 0.11983 0.90436 0.28777 0.0
H414 H 0.05338 0.92299 0.26539 0.0
H415 H 0.07643 0.76763 0.23486 0.0
H416 H 0.32907 0.61956 0.4774 0.0
H417 H 0.25503 0.64638 0.40861 0.0
H418 H 0.33619 0.77548 0.46686 0.0
H419 H 0.27812 0.58686 0.43487 0.0
Tb420 Tb 0.36089 0.17848 0.65462 0.0
C421 C 0.59465 0.23063 0.70752 0.0
N422 N 0.5437 0.20586 0.71883 0.0
C423 C 0.56443 0.14649 0.74463 0.0
C424 C 0.63254 0.21376 0.71432 0.0
C425 C 0.52798 0.16424 0.73714 0.0
C426 C 0.61685 0.17121 0.73312 0.0
C427 C 0.66208 0.30116 0.67791 0.0
C428 C 0.60928 0.27407 0.68961 0.0
C429 C 0.69956 0.28361 0.68419 0.0
C430 C 0.6849 0.24015 0.70239 0.0
Tb431 Tb 0.49025 0.24136 0.70637 0.0
N432 N 0.57193 0.28998 0.68385 0.0
C433 C 0.67589 0.3455 0.66049 0.0
C434 C 0.58606 0.33463 0.66766 0.0
C435 C 0.63779 0.36242 0.65544 0.0
H436 H 0.48783 0.14584 0.74643 0.0
H437 H 0.64808 0.39663 0.64198 0.0
H438 H 0.33168 0.27097 0.63089 0.0
H439 H 0.2439 0.99361 0.71414 0.0
H440 H 0.55626 0.34638 0.66273 0.0
H441 H 0.71597 0.36721 0.65101 0.0
H442 H 0.32243 0.0595 0.68692 0.0
H443 H 0.55224 0.11407 0.75943 0.0
H444 H 0.74024 0.30379 0.67531 0.0
H445 H 0.71447 0.22749 0.70722 0.0
H446 H 0.25591 0.29113 0.63509 0.0
H447 H 0.64505 0.15743 0.73903 0.0
H448 H 0.1648 0.00764 0.72131 0.0
N449 N 0.29257 0.19929 0.65536 0.0
C450 C 0.2474 0.16457 0.66994 0.0
C451 C 0.25308 0.25549 0.64506 0.0
C452 C 0.20301 0.17409 0.67271 0.0
C453 C 0.29612 0.24433 0.64292 0.0
C454 C 0.20635 0.22028 0.66005 0.0
N455 N 0.29046 0.11276 0.67985 0.0
C456 C 0.28934 0.06732 0.69037 0.0
C457 C 0.19985 0.08257 0.69767 0.0
C458 C 0.24608 0.11965 0.68244 0.0
C459 C 0.19958 0.03718 0.70949 0.0
C460 C 0.24428 0.02927 0.70558 0.0
H461 H 0.17311 0.22906 0.6617 0.0
H462 H 0.12254 0.14414 0.69049 0.0
H463 H 0.11962 0.06386 0.7122 0.0
O464 O 0.35591 0.11948 0.62725 0.0
O465 O 0.35168 0.20078 0.69591 0.0
O466 O 0.40845 0.18292 0.72192 0.0
O467 O 0.31918 0.16851 0.61784 0.0
O468 O 0.40377 0.13229 0.66245 0.0
O469 O 0.43553 0.15311 0.70586 0.0
O470 O 0.4888 0.30272 0.73022 0.0
O471 O 0.50583 0.23036 0.66393 0.0
O472 O 0.44044 0.23693 0.63865 0.0
O473 O 0.5388 0.26798 0.74104 0.0
O474 O 0.45353 0.29118 0.6951 0.0
O475 O 0.41265 0.26978 0.65284 0.0
C476 C 0.36726 0.19223 0.71951 0.0
C477 C 0.27981 0.07918 0.59858 0.0
C478 C 0.2436 0.00661 0.56444 0.0
C479 C 0.19341 0.98045 0.57855 0.0
C480 C 0.2294 0.05227 0.61221 0.0
C481 C 0.18645 1.00325 0.60216 0.0
C482 C 0.2867 0.0564 0.57462 0.0
C483 C 0.42726 0.12495 0.68365 0.0
C484 C 0.32685 0.12874 0.60993 0.0
C485 C 0.15706 0.13751 0.68809 0.0
C486 C 0.15544 0.09182 0.70049 0.0
C487 C 0.48466 0.23319 0.64081 0.0
C488 C 0.50196 0.29276 0.7764 0.0
C489 C 0.5167 0.32773 0.82204 0.0
C490 C 0.47844 0.27504 0.83149 0.0
C491 C 0.46424 0.24015 0.7861 0.0
C492 C 0.52766 0.33675 0.79438 0.0
C493 C 0.45196 0.23156 0.81351 0.0
C494 C 0.4415 0.30564 0.6721 0.0
C495 C 0.5207 0.30015 0.74842 0.0
H496 H 0.15916 0.94263 0.57112 0.0
H497 H 0.2234 0.06885 0.6307 0.0
H498 H 0.14759 0.98268 0.61278 0.0
H499 H 0.32597 0.07681 0.56429 0.0
H500 H 0.47026 0.26733 0.85286 0.0
H501 H 0.44618 0.20539 0.77262 0.0
H502 H 0.5588 0.37689 0.78714 0.0
H503 H 0.42351 0.19075 0.82095 0.0
C504 C 0.18713 0.6641 0.28689 0.0
C505 C 0.20609 0.72062 0.28751 0.0
C506 C 0.18351 0.6376 0.26257 0.0
C507 C 0.1982 0.66832 0.23828 0.0
C508 C 0.21022 0.72362 0.2385 0.0
C509 C 0.21466 0.74945 0.26325 0.0
C510 C 0.16988 0.57834 0.26331 0.0
C511 C 0.22377 0.75709 0.21293 0.0
C512 C 0.27875 0.62555 0.19399 0.0
C513 C 0.23808 0.58791 0.1768 0.0
C514 C 0.26693 0.65486 0.21291 0.0
C515 C 0.213 0.64645 0.21454 0.0
C516 C 0.17287 0.61191 0.19566 0.0
C517 C 0.18591 0.58267 0.17694 0.0
C518 C 0.31118 0.6915 0.23253 0.0
C519 C 0.11533 0.60279 0.19642 0.0
H520 H 0.17856 0.64122 0.30558 0.0
H521 H 0.22848 0.79302 0.26357 0.0
H522 H 0.14 0.55437 0.24733 0.0
H523 H 0.20773 0.57637 0.2595 0.0
H524 H 0.15266 0.55856 0.28309 0.0
H525 H 0.21789 0.79309 0.21545 0.0
H526 H 0.26734 0.77248 0.20751 0.0
H527 H 0.19803 0.73176 0.19597 0.0
H528 H 0.31923 0.62981 0.19356 0.0
H529 H 0.1545 0.55339 0.16358 0.0
H530 H 0.29991 0.67374 0.25312 0.0
H531 H 0.3152 0.73281 0.23307 0.0
H532 H 0.35179 0.69641 0.22728 0.0
H533 H 0.09128 0.57177 0.21213 0.0
H534 H 0.09419 0.58731 0.17684 0.0
H535 H 0.11535 0.64121 0.20155 0.0
C536 C 0.52734 0.28233 0.5989 0.0
C537 C 0.51434 0.23812 0.6161 0.0
C538 C 0.54582 0.28285 0.57278 0.0
C539 C 0.55026 0.23748 0.56379 0.0
C540 C 0.5391 0.19358 0.58154 0.0
C541 C 0.52132 0.19459 0.60776 0.0
C542 C 0.55826 0.3308 0.55447 0.0
C543 C 0.54285 0.14433 0.57248 0.0
C544 C 0.53895 0.2233 0.48831 0.0
C545 C 0.59441 0.25056 0.48088 0.0
C546 C 0.52365 0.21557 0.51551 0.0
C547 C 0.56499 0.23598 0.53547 0.0
C548 C 0.62087 0.26128 0.52808 0.0
C549 C 0.63495 0.26861 0.50082 0.0
C550 C 0.4635 0.18775 0.52287 0.0
C551 C 0.66587 0.28315 0.54892 0.0
H552 H 0.52129 0.3156 0.60566 0.0
H553 H 0.50961 0.15984 0.62108 0.0
H554 H 0.60009 0.34824 0.54581 0.0
H555 H 0.5289 0.31655 0.53745 0.0
H556 H 0.55548 0.36401 0.56515 0.0
H557 H 0.53968 0.1174 0.58964 0.0
H558 H 0.50905 0.11979 0.55821 0.0
H559 H 0.58202 0.15748 0.56166 0.0
H560 H 0.50763 0.20845 0.47287 0.0
H561 H 0.67793 0.29013 0.49511 0.0
H562 H 0.45407 0.21837 0.53164 0.0
H563 H 0.45341 0.1555 0.53835 0.0
H564 H 0.43656 0.1687 0.50515 0.0
H565 H 0.6678 0.31921 0.55906 0.0
H566 H 0.7067 0.29595 0.53991 0.0
H567 H 0.65707 0.25163 0.56463 0.0
C568 C 0.30993 0.45569 0.93927 0.0
C569 C 0.30548 0.49426 0.95519 0.0
C570 C 0.33158 0.46916 0.91306 0.0
C571 C 0.34562 0.52119 0.90221 0.0
C572 C 0.34169 0.56043 0.91851 0.0
C573 C 0.32355 0.54698 0.94511 0.0
C574 C 0.34002 0.42824 0.89722 0.0
C575 C 0.35435 0.6159 0.90762 0.0
C576 C 0.42526 0.59959 0.8413 0.0
C577 C 0.38205 0.59141 0.82425 0.0
C578 C 0.41466 0.57018 0.86556 0.0
C579 C 0.35965 0.53399 0.87332 0.0
C580 C 0.31682 0.52044 0.85468 0.0
C581 C 0.32886 0.54841 0.83004 0.0
C582 C 0.46186 0.58209 0.884 0.0
C583 C 0.2575 0.48154 0.86196 0.0
H584 H 0.29721 0.41534 0.9473 0.0
H585 H 0.32138 0.57716 0.95768 0.0
H586 H 0.32115 0.42163 0.87701 0.0
H587 H 0.38463 0.44484 0.89408 0.0
H588 H 0.32285 0.388 0.90774 0.0
H589 H 0.34543 0.63987 0.92251 0.0
H590 H 0.39827 0.64031 0.9019 0.0
H591 H 0.32977 0.6106 0.88926 0.0
H592 H 0.46684 0.63178 0.83692 0.0
H593 H 0.29565 0.53968 0.81628 0.0
H594 H 0.45372 0.54482 0.89551 0.0
H595 H 0.46751 0.6142 0.89866 0.0
H596 H 0.50078 0.59741 0.87251 0.0
H597 H 0.25254 0.44323 0.87098 0.0
H598 H 0.23002 0.47058 0.84423 0.0
H599 H 0.24397 0.50111 0.87721 0.0
C600 C 0.80659 0.28364 0.25556 0.0
C601 C 0.81344 0.30959 0.28047 0.0
C602 C 0.79981 0.30707 0.232 0.0
C603 C 0.79815 0.35641 0.23373 0.0
C604 C 0.81203 0.38605 0.25816 0.0
C605 C 0.82062 0.36262 0.28122 0.0
C606 C 0.79011 0.27689 0.20572 0.0
C607 C 0.81259 0.43984 0.26057 0.0
C608 C 0.77346 0.42519 0.17372 0.0
C609 C 0.71594 0.40023 0.17419 0.0
C610 C 0.80116 0.41004 0.19225 0.0
C611 C 0.77065 0.37034 0.21225 0.0
C612 C 0.71261 0.34452 0.21259 0.0
C613 C 0.68603 0.35926 0.19335 0.0
C614 C 0.86291 0.43761 0.19048 0.0
C615 C 0.67814 0.30098 0.2332 0.0
H616 H 0.80367 0.24372 0.25458 0.0
H617 H 0.82961 0.38444 0.30013 0.0
H618 H 0.74548 0.25367 0.20144 0.0
H619 H 0.81068 0.30627 0.18886 0.0
H620 H 0.80534 0.24727 0.20638 0.0
H621 H 0.82867 0.45988 0.28032 0.0
H622 H 0.83816 0.46854 0.24439 0.0
H623 H 0.77024 0.43249 0.25814 0.0
H624 H 0.79714 0.45733 0.15916 0.0
H625 H 0.6416 0.33863 0.19337 0.0
H626 H 0.87873 0.4117 0.19902 0.0
H627 H 0.8814 0.47684 0.20176 0.0
H628 H 0.87701 0.44775 0.16925 0.0
H629 H 0.67614 0.26177 0.22776 0.0
H630 H 0.63554 0.2936 0.23425 0.0
H631 H 0.69659 0.31257 0.2535 0.0
C632 C 0.52373 0.75485 0.60141 0.0
C633 C 0.52078 0.78909 0.6209 0.0
C634 C 0.49339 0.74306 0.57764 0.0
C635 C 0.45949 0.76625 0.57337 0.0
C636 C 0.45624 0.80081 0.59302 0.0
C637 C 0.48667 0.81145 0.61672 0.0
C638 C 0.49599 0.70412 0.55758 0.0
C639 C 0.41978 0.82548 0.58929 0.0
C640 C 0.41683 0.76794 0.50137 0.0
C641 C 0.36609 0.71921 0.50062 0.0
C642 C 0.4473 0.78467 0.52521 0.0
C643 C 0.42578 0.75221 0.54875 0.0
C644 C 0.37347 0.70418 0.54832 0.0
C645 C 0.34441 0.68792 0.52409 0.0
C646 C 0.50335 0.83569 0.52498 0.0
C647 C 0.34879 0.66932 0.57326 0.0
H648 H 0.54805 0.73546 0.60519 0.0
H649 H 0.48306 0.83657 0.63219 0.0
H650 H 0.45585 0.66546 0.55696 0.0
H651 H 0.50425 0.72228 0.53705 0.0
H652 H 0.52806 0.69364 0.56278 0.0
H653 H 0.42099 0.85042 0.60687 0.0
H654 H 0.43269 0.85204 0.57108 0.0
H655 H 0.37672 0.79245 0.58612 0.0
H656 H 0.43344 0.79188 0.48308 0.0
H657 H 0.30473 0.65061 0.52343 0.0
H658 H 0.53495 0.82424 0.52939 0.0
H659 H 0.50602 0.86437 0.54098 0.0
H660 H 0.51323 0.85755 0.5053 0.0
H661 H 0.3061 0.63545 0.56992 0.0
H662 H 0.34866 0.69505 0.59013 0.0
H663 H 0.37402 0.65113 0.57967 0.0
C664 C 0.64131 0.4849 0.95443 0.0
C665 C 0.69812 0.52094 0.9536 0.0
C666 C 0.6115 0.46342 0.93076 0.0
C667 C 0.63879 0.48074 0.90565 0.0
C668 C 0.69447 0.52298 0.90466 0.0
C669 C 0.72391 0.54203 0.92875 0.0
C670 C 0.55215 0.41845 0.93275 0.0
C671 C 0.72418 0.54462 0.87823 0.0
C672 C 0.58777 0.36268 0.85715 0.0
C673 C 0.55111 0.37051 0.84145 0.0
C674 C 0.61882 0.40025 0.87713 0.0
C675 C 0.61256 0.44659 0.8816 0.0
C676 C 0.57713 0.45596 0.86499 0.0
C677 C 0.54668 0.41756 0.84491 0.0
C678 C 0.65626 0.38874 0.89433 0.0
C679 C 0.5695 0.50492 0.86912 0.0
H680 H 0.62047 0.47097 0.97361 0.0
H681 H 0.76752 0.57142 0.92801 0.0
H682 H 0.52602 0.42948 0.92061 0.0
H683 H 0.54738 0.37963 0.92449 0.0
H684 H 0.53685 0.41051 0.95384 0.0
H685 H 0.76173 0.58544 0.88066 0.0
H686 H 0.73655 0.51555 0.87026 0.0
H687 H 0.69717 0.54823 0.86311 0.0
H688 H 0.5913 0.32637 0.85406 0.0
H689 H 0.51822 0.42331 0.83253 0.0
H690 H 0.64131 0.38109 0.91547 0.0
H691 H 0.69834 0.42489 0.89433 0.0
H692 H 0.6585 0.35247 0.88722 0.0
H693 H 0.54112 0.49662 0.8863 0.0
H694 H 0.55166 0.5134 0.85105 0.0
H695 H 0.60901 0.54229 0.874 0.0
C696 C 0.38158 0.43313 -0.00421 0.0
C697 C 0.35243 0.42737 0.01959 0.0
C698 C 0.43905 0.46123 -0.00439 0.0
C699 C 0.46772 0.48499 0.0198 0.0
C700 C 0.43826 0.47712 0.04412 0.0
C701 C 0.38101 0.44637 0.0438 0.0
C702 C 0.46781 0.46547 0.96925 0.0
C703 C 0.46718 0.5006 0.07058 0.0
C704 C 0.61088 0.51575 0.0355 0.0
C705 C 0.64356 0.567 0.02338 0.0
C706 C 0.554 0.48712 0.0328 0.0
C707 C 0.52831 0.51372 0.02061 0.0
C708 C 0.56061 0.56785 0.01021 0.0
C709 C 0.6182 0.59296 0.01064 0.0
C710 C 0.5226 0.42716 0.04134 0.0
C711 C 0.53474 0.59897 -0.00164 0.0
H712 H 0.35981 0.41666 0.97716 0.0
H713 H 0.35841 0.43877 0.0625 0.0
H714 H 0.46463 0.49565 0.95601 0.0
H715 H 0.51174 0.4783 0.97166 0.0
H716 H 0.44701 0.42537 0.95866 0.0
H717 H 0.43876 0.49904 0.0865 0.0
H718 H 0.48599 0.4768 0.07822 0.0
H719 H 0.50072 0.54373 0.06781 0.0
H720 H 0.62985 0.49633 0.04598 0.0
H721 H 0.6432 0.63308 0.00148 0.0
H722 H 0.51986 0.40165 0.02377 0.0
H723 H 0.47987 0.41241 0.04776 0.0
H724 H 0.54387 0.41871 0.0579 0.0
H725 H 0.52294 0.58596 0.97721 0.0
H726 H 0.56375 0.64401 -0.00166 0.0
H727 H 0.49721 0.59047 0.00968 0.0
C728 C 0.10004 0.63495 0.38527 0.0
C729 C 0.09759 0.66466 0.3631 0.0
C730 C 0.07146 0.57741 0.38545 0.0
C731 C 0.03254 0.5486 0.36498 0.0
C732 C 0.02342 0.57908 0.34475 0.0
C733 C 0.05773 0.63654 0.34337 0.0
C734 C 0.08616 0.54888 0.407 0.0
C735 C 0.97875 0.55181 0.32395 0.0
C736 C 0.9768 0.40064 0.34197 0.0
C737 C 0.93729 0.37125 0.36184 0.0
C738 C 0.01087 0.45801 0.34373 0.0
C739 C 1.00195 0.48717 0.36466 0.0
C740 C 0.96359 0.457 0.38532 0.0
C741 C 0.93523 0.39946 0.38461 0.0
C742 C 0.05511 0.48646 0.32264 0.0
C743 C 0.94967 0.48415 0.40781 0.0
H744 H 0.12885 0.65616 0.40136 0.0
H745 H 0.05382 0.65905 0.32657 0.0
H746 H 0.07402 0.50591 0.40187 0.0
H747 H 0.13111 0.57164 0.41069 0.0
H748 H 0.06619 0.54923 0.42621 0.0
H749 H 0.99684 0.54739 0.30492 0.0
H750 H 0.94543 0.51071 0.3305 0.0
H751 H 0.96042 0.57792 0.3194 0.0
H752 H 0.98058 0.3792 0.32472 0.0
H753 H 0.90716 0.37691 0.40093 0.0
H754 H 0.0871 0.52846 0.32858 0.0
H755 H 0.03617 0.48887 0.3035 0.0
H756 H 0.07538 0.46198 0.31851 0.0
H757 H 0.97058 0.48292 0.42649 0.0
H758 H 0.90493 0.461 0.41214 0.0
H759 H 0.96139 0.52732 0.40326 0.0
C760 C 0.42091 0.03365 0.68521 0.0
C761 C 0.4521 0.09014 0.68084 0.0
C762 C 0.44511 1.0006 0.68352 0.0
C763 C 0.50219 0.02515 0.67827 0.0
C764 C 0.5331 0.08203 0.67254 0.0
C765 C 0.50736 0.11364 0.67351 0.0
C766 C 0.40933 0.94015 0.68886 0.0
C767 C 0.59362 0.10978 0.66609 0.0
C768 C 0.58007 0.95906 0.70753 0.0
C769 C 0.58516 0.93197 0.68517 0.0
C770 C 0.55213 0.98852 0.70573 0.0
C771 C 0.53056 0.99268 0.68061 0.0
C772 C 0.53747 0.96696 0.65766 0.0
C773 C 0.56535 0.93746 0.66017 0.0
C774 C 0.54658 0.01514 0.73093 0.0
C775 C 0.5138 0.96903 0.63072 0.0
H776 H 0.3778 0.01528 0.69033 0.0
H777 H 0.53089 0.15697 0.66894 0.0
H778 H 0.42743 0.91559 0.68132 0.0
H779 H 0.40283 0.93433 0.71091 0.0
H780 H 0.36839 0.92448 0.67947 0.0
H781 H 0.61087 0.15364 0.66036 0.0
H782 H 0.61616 0.10741 0.68389 0.0
H783 H 0.60105 0.08829 0.64934 0.0
H784 H 0.59682 0.95607 0.7267 0.0
H785 H 0.57009 0.91716 0.64272 0.0
H786 H 0.51075 0.02146 0.73046 0.0
H787 H 0.58439 0.05553 0.73324 0.0
H788 H 0.54294 0.99014 0.74902 0.0
H789 H 0.46854 0.94964 0.63251 0.0
H790 H 0.52338 0.94744 0.61477 0.0
H791 H 0.52984 0.01232 0.62436 0.0
C792 C 0.53449 0.61265 0.69193 0.0
C793 C 0.57236 0.65262 0.67404 0.0
C794 C 0.51184 0.55667 0.68699 0.0
C795 C 0.52992 0.53945 0.66447 0.0
C796 C 0.5694 0.57907 0.64666 0.0
C797 C 0.58936 0.63536 0.65133 0.0
C798 C 0.46907 0.51598 0.70633 0.0
C799 C 0.59135 0.56201 0.62312 0.0
C800 C 0.5123 0.40195 0.68213 0.0
C801 C 0.46515 0.36547 0.66769 0.0
C802 C 0.53734 0.45864 0.67856 0.0
C803 C 0.51187 0.48022 0.66204 0.0
C804 C 0.46403 0.44408 0.6474 0.0
C805 C 0.44207 0.38685 0.6498 0.0
C806 C 0.58957 0.49537 0.69377 0.0
C807 C 0.43399 0.46562 0.63076 0.0
H808 H 0.52101 0.62479 0.70974 0.0
H809 H 0.61788 0.66553 0.63716 0.0
H810 H 0.43384 0.48317 0.69516 0.0
H811 H 0.48711 0.49604 0.71866 0.0
H812 H 0.45335 0.53591 0.72022 0.0
H813 H 0.62123 0.59775 0.61088 0.0
H814 H 0.61183 0.53952 0.63055 0.0
H815 H 0.55718 0.53347 0.60995 0.0
H816 H 0.53064 0.38634 0.69618 0.0
H817 H 0.40552 0.35914 0.63874 0.0
H818 H 0.57995 0.51263 0.71165 0.0
H819 H 0.61888 0.53029 0.68098 0.0
H820 H 0.61003 0.47255 0.70083 0.0
H821 H 0.41474 0.48247 0.64437 0.0
H822 H 0.40136 0.43302 0.61822 0.0
H823 H 0.4629 0.49968 0.61747 0.0
C824 C 0.11524 0.52104 0.00968 0.0
C825 C 0.09956 0.46559 0.00599 0.0
C826 C 0.08029 0.54093 0.00304 0.0
C827 C 0.02548 0.50337 -0.00399 0.0
C828 C 0.0086 0.44692 -0.00724 0.0
C829 C 0.04631 0.42897 -0.00266 0.0
C830 C 0.10199 0.60215 0.00455 0.0
C831 C 0.95056 0.40406 0.98595 0.0
C832 C 0.93285 0.55034 0.02558 0.0
C833 C 0.90781 0.55709 0.00271 0.0
C834 C 0.96881 0.53008 0.02357 0.0
C835 C 0.98479 0.52189 -0.00222 0.0
C836 C 0.96403 0.53409 0.97439 0.0
C837 C 0.92439 0.55028 0.97711 0.0
C838 C 0.98804 0.51589 0.04924 0.0
C839 C 0.98309 0.52925 0.94667 0.0
H840 H 0.15512 0.54966 0.01768 0.0
H841 H 0.03297 0.38578 -0.00437 0.0
H842 H 0.08076 0.61541 0.99012 0.0
H843 H 0.09583 0.61323 0.02514 0.0
H844 H 0.14674 0.62562 0.0002 0.0
H845 H 0.95075 0.3785 0.96898 0.0
H846 H 0.93224 0.37618 0.00353 0.0
H847 H 0.9242 0.42143 0.98047 0.0
H848 H 0.92192 0.55799 0.0454 0.0
H849 H 0.9058 0.55657 0.95937 0.0
H850 H 0.03009 0.54904 0.05413 0.0
H851 H 0.98892 0.47704 0.04702 0.0
H852 H 0.96116 0.51129 0.06663 0.0
H853 H 0.02863 0.5515 0.94583 0.0
H854 H 0.96764 0.54598 0.93081 0.0
H855 H 0.96849 0.48542 0.94218 0.0
C856 C 0.40409 0.97619 0.34241 0.0
C857 C 0.37683 0.92585 0.32913 0.0
C858 C 0.46094 0.01096 0.33938 0.0
C859 C 0.49153 0.99389 0.32323 0.0
C860 C 0.46323 0.94365 0.30891 0.0
C861 C 0.40596 0.9108 0.31163 0.0
C862 C 0.4871 0.06454 0.35462 0.0
C863 C 0.49355 0.92265 0.29208 0.0
C864 C 0.64032 0.09292 0.30253 0.0
C865 C 0.66803 0.09503 0.32626 0.0
C866 C 0.58284 0.05952 0.3009 0.0
C867 C 0.55291 0.0258 0.32322 0.0
C868 C 0.58213 0.02465 0.34632 0.0
C869 C 0.63912 0.05908 0.34741 0.0
C870 C 0.55508 0.06453 0.27593 0.0
C871 C 0.55441 0.99111 0.37125 0.0
H872 H 0.38118 0.98759 0.35595 0.0
H873 H 0.38449 0.87125 0.30167 0.0
H874 H 0.53244 0.08588 0.35511 0.0
H875 H 0.47461 0.09243 0.34518 0.0
H876 H 0.47167 0.0573 0.3757 0.0
H877 H 0.46689 0.87894 0.2863 0.0
H878 H 0.50874 0.9474 0.27337 0.0
H879 H 0.52958 0.92658 0.30315 0.0
H880 H 0.66262 0.1214 0.28629 0.0
H881 H 0.66069 0.06082 0.36581 0.0
H882 H 0.51026 0.04721 0.2784 0.0
H883 H 0.56241 0.04312 0.25908 0.0
H884 H 0.57357 0.10838 0.26988 0.0
H885 H 0.56469 0.01904 0.38876 0.0
H886 H 0.571 0.96345 0.37567 0.0
H887 H 0.50922 0.96617 0.36988 0.0
C888 C 0.32632 0.24129 0.74275 0.0
C889 C 0.34245 0.20156 0.74373 0.0
C890 C 0.30336 0.25222 0.76528 0.0
C891 C 0.29568 0.22225 0.78943 0.0
C892 C 0.31114 0.18139 0.79046 0.0
C893 C 0.33437 0.17147 0.76752 0.0
C894 C 0.28723 0.29593 0.76315 0.0
C895 C 0.30263 0.14792 0.81567 0.0
C896 C 0.27745 0.29417 0.84987 0.0
C897 C 0.22037 0.27118 0.85023 0.0
C898 C 0.30272 0.27601 0.83132 0.0
C899 C 0.26994 0.23334 0.81308 0.0
C900 C 0.21205 0.2069 0.81506 0.0
C901 C 0.18801 0.2264 0.83349 0.0
C902 C 0.36451 0.30511 0.82993 0.0
C903 C 0.17545 0.16095 0.79625 0.0
H904 H 0.33239 0.2646 0.72436 0.0
H905 H 0.34586 0.13998 0.76811 0.0
H906 H 0.24258 0.2775 0.76696 0.0
H907 H 0.309 0.32788 0.77868 0.0
H908 H 0.2968 0.31613 0.74305 0.0
H909 H 0.31834 0.1189 0.81348 0.0
H910 H 0.32361 0.17552 0.83291 0.0
H911 H 0.25829 0.12409 0.82069 0.0
H912 H 0.30249 0.32874 0.86279 0.0
H913 H 0.14376 0.20831 0.83393 0.0
H914 H 0.37891 0.32919 0.81094 0.0
H915 H 0.37843 0.2746 0.82969 0.0
H916 H 0.38408 0.33342 0.84715 0.0
H917 H 0.17735 0.17809 0.77585 0.0
H918 H 0.13199 0.13922 0.80309 0.0
H919 H 0.18956 0.13065 0.79444 0.0
C920 C 0.00809 0.25937 0.183 0.0
C921 C 0.04254 0.26443 0.20453 0.0
C922 C 0.02968 0.28084 0.15739 0.0
C923 C 0.08721 0.30832 0.15314 0.0
C924 C 0.12225 0.31494 0.175 0.0
C925 C 0.09952 0.29294 0.20035 0.0
C926 C 0.9907 0.27178 0.13457 0.0
C927 C 0.18371 0.34264 0.1718 0.0
C928 C 0.13724 0.30427 0.08259 0.0
C929 C 0.14952 0.35552 0.07208 0.0
C930 C 0.11765 0.28885 0.10898 0.0
C931 C 0.10998 0.32558 0.12537 0.0
C932 C 0.12317 0.3779 0.115 0.0
C933 C 0.1421 0.39196 0.08826 0.0
C934 C 0.10442 0.23284 0.11918 0.0
C935 C 0.11693 0.41868 0.13214 0.0
H936 H 0.964 0.23681 0.18591 0.0
H937 H 0.12664 0.29774 0.21689 0.0
H938 H 1.00206 0.31136 0.12448 0.0
H939 H 0.99368 0.24467 0.11927 0.0
H940 H 0.9474 0.25258 0.14149 0.0
H941 H 0.2045 0.36764 0.18985 0.0
H942 H 0.19567 0.31065 0.17008 0.0
H943 H 0.19893 0.36929 0.15371 0.0
H944 H 0.14237 0.27573 0.06995 0.0
H945 H 0.1491 0.43043 0.07975 0.0
H946 H 0.06093 0.2093 0.12582 0.0
H947 H 0.13028 0.23743 0.13691 0.0
H948 H 0.11139 0.2086 0.10364 0.0
H949 H 0.12854 0.45746 0.1211 0.0
H950 H 0.14307 0.42843 0.15031 0.0
H951 H 0.07388 0.40059 0.13918 0.0
C952 C 0.67669 0.9719 0.50708 0.0
C953 C 0.71286 0.95937 0.52051 0.0
C954 C 0.69523 0.01144 0.48635 0.0
C955 C 0.75117 0.03834 0.47844 0.0
C956 C 0.78818 0.02693 0.49252 0.0
C957 C 0.76863 0.98787 0.51355 0.0
C958 C 0.65444 0.02279 0.47223 0.0
C959 C 0.84792 0.05412 0.48455 0.0
C960 C 0.78235 0.08871 0.40573 0.0
C961 C 0.79998 0.14487 0.40833 0.0
C962 C 0.76707 0.0539 0.42836 0.0
C963 C 0.76998 0.07569 0.4544 0.0
C964 C 0.78902 0.1326 0.45723 0.0
C965 C 0.80341 0.16641 0.43418 0.0
C966 C 0.7465 0.99344 0.42429 0.0
C967 C 0.79329 0.15762 0.4846 0.0
H968 H 0.6335 0.94969 0.51242 0.0
H969 H 0.79645 0.9776 0.52367 0.0
H970 H 0.66955 0.0676 0.47182 0.0
H971 H 0.64973 0.00883 0.45103 0.0
H972 H 0.61346 1.00159 0.4821 0.0
H973 H 0.87208 0.04368 0.49858 0.0
H974 H 0.85157 0.04088 0.46399 0.0
H975 H 0.86624 0.09943 0.48396 0.0
H976 H 0.77903 0.07144 0.38587 0.0
H977 H 0.81708 0.20973 0.43643 0.0
H978 H 0.7032 0.96908 0.43112 0.0
H979 H 0.77079 0.98033 0.43662 0.0
H980 H 0.7488 0.98338 0.40288 0.0
H981 H 0.75198 0.1393 0.49395 0.0
H982 H 0.81123 0.20292 0.48353 0.0
H983 H 0.81903 0.1483 0.49806 0.0
C984 C 0.6358 0.79944 0.76549 0.0
C985 C 0.65701 0.78749 0.74266 0.0
C986 C 0.64404 0.78441 0.7914 0.0
C987 C 0.67772 0.76053 0.79459 0.0
C988 C 0.6975 0.74662 0.77138 0.0
C989 C 0.68639 0.75975 0.74576 0.0
C990 C 0.61971 0.79767 0.81532 0.0
C991 C 0.7345 0.7222 0.77357 0.0
C992 C 0.78156 0.80411 0.85056 0.0
C993 C 0.76549 0.75402 0.86368 0.0
C994 C 0.75094 0.80765 0.82926 0.0
C995 C 0.70174 0.76023 0.82136 0.0
C996 C 0.68164 0.71121 0.83678 0.0
C997 C 0.71421 0.70838 0.85762 0.0
C998 C 0.77423 0.86098 0.81364 0.0
C999 C 0.6277 0.66073 0.83016 0.0
H1000 H 0.61612 0.82383 0.76337 0.0
H1001 H 0.70336 0.75097 0.72809 0.0
H1002 H 0.61085 0.76821 0.83212 0.0
H1003 H 0.64909 0.83956 0.8226 0.0
H1004 H 0.58117 0.79697 0.80969 0.0
H1005 H 0.74373 0.71084 0.75363 0.0
H1006 H 0.77382 0.75237 0.7831 0.0
H1007 H 0.7153 0.68501 0.78654 0.0
H1008 H 0.8205 0.83986 0.8557 0.0
H1009 H 0.70118 0.66964 0.86788 0.0
H1010 H 0.74342 0.8744 0.8121 0.0
H1011 H 0.78463 0.85481 0.79285 0.0
H1012 H 0.81181 0.89455 0.82308 0.0
H1013 H 0.59712 0.672 0.82324 0.0
H1014 H 0.61073 0.6328 0.84785 0.0
H1015 H 0.63397 0.63782 0.8137 0.0
C1016 C 0.9463 0.76557 0.20142 0.0
C1017 C 1.0015 0.77998 0.20446 0.0
C1018 C 0.91691 0.73923 0.17808 0.0
C1019 C 0.94321 0.72677 0.15722 0.0
C1020 C 0.99838 0.73963 0.16048 0.0
C1021 C 0.02685 0.76604 0.18406 0.0
C1022 C 0.85802 0.72579 0.17551 0.0
C1023 C 0.02784 0.72691 0.13872 0.0
C1024 C 0.85723 0.62112 0.10426 0.0
C1025 C 0.85914 0.65456 0.08268 0.0
C1026 C 0.8836 0.64392 0.12874 0.0
C1027 C 0.91345 0.70173 0.13169 0.0
C1028 C 0.91486 0.73571 0.1102 0.0
C1029 C 0.88715 0.71166 0.08613 0.0
C1030 C 0.87984 0.6061 0.15135 0.0
C1031 C 0.94656 0.79758 0.11244 0.0
H1032 H 0.9261 0.77534 0.21727 0.0
H1033 H 0.06959 0.77746 0.18611 0.0
H1034 H 0.85414 0.749 0.15836 0.0
H1035 H 0.83113 0.68143 0.17121 0.0
H1036 H 0.84283 0.73606 0.19402 0.0
H1037 H 0.06997 0.73752 0.14479 0.0
H1038 H 1.00443 0.68259 0.13362 0.0
H1039 H 0.03055 0.75024 0.12016 0.0
H1040 H 0.83496 0.57679 0.10208 0.0
H1041 H 0.88841 0.73781 0.06994 0.0
H1042 H 0.8639 0.61532 0.16987 0.0
H1043 H 0.9213 0.61294 0.15605 0.0
H1044 H 0.85273 0.56206 0.14629 0.0
H1045 H 0.93387 0.81092 0.13075 0.0
H1046 H 0.94063 0.81807 0.09466 0.0
H1047 H 0.99097 0.8119 0.11439 0.0
C1048 C 0.27341 0.01458 0.51596 0.0
C1049 C 0.24995 0.98197 0.53899 0.0
C1050 C 0.27358 0.99078 0.49106 0.0
C1051 C 0.25012 0.93296 0.48911 0.0
C1052 C 0.22947 0.90027 0.51265 0.0
C1053 C 0.22939 0.92506 0.53722 0.0
C1054 C 0.29612 0.0273 0.46653 0.0
C1055 C 0.20506 0.83871 0.51165 0.0
C1056 C 0.18493 0.8713 0.4217 0.0
C1057 C 0.22528 0.86374 0.40911 0.0
C1058 C 0.19203 0.89226 0.4479 0.0
C1059 C 0.24094 0.90633 0.46206 0.0
C1060 C 0.28112 0.89691 0.44982 0.0
C1061 C 0.27298 0.87615 0.42335 0.0
C1062 C 0.14788 0.90124 0.46001 0.0
C1063 C 0.33375 0.91102 0.46413 0.0
H1064 H 0.2893 0.05851 0.51709 0.0
H1065 H 0.2122 0.89964 0.55502 0.0
H1066 H 0.32475 0.01807 0.45541 0.0
H1067 H 0.26195 0.01914 0.4527 0.0
H1068 H 0.31801 0.07163 0.4718 0.0
H1069 H 0.19689 0.81996 0.53208 0.0
H1070 H 0.16582 0.8201 0.50041 0.0
H1071 H 0.23294 0.82808 0.50078 0.0
H1072 H 0.14813 0.86223 0.41066 0.0
H1073 H 0.30522 0.87264 0.41335 0.0
H1074 H 0.16452 0.94571 0.46377 0.0
H1075 H 0.13435 0.87971 0.47969 0.0
H1076 H 0.11148 0.88634 0.44673 0.0
H1077 H 0.36043 0.95635 0.46489 0.0
H1078 H 0.35657 0.89353 0.45378 0.0
H1079 H 0.32534 0.89568 0.4852 0.0
loop_
_geom_bond_atom_site_label_1
_geom_bond_atom_site_label_2
_geom_bond_distance
_geom_bond_site_symmetry_2
_ccdc_geom_bond_type
Tb0 N29 2.618 . S
Tb0 N35 2.572 1_556 S
Tb0 O44 2.465 . S
Tb0 O45 2.387 1_556 S
Tb0 O47 2.428 . S
Tb0 O48 2.308 1_556 S
Tb0 O52 2.349 . S
Tb0 O55 2.393 . S
Tb0 C64 2.802 . S
C1 N2 1.379 . S
C1 C4 1.416 . S
C1 C8 1.424 . S
N2 C1 1.379 . S
N2 C5 1.334 . S
N2 Tb11 2.617 . S
C3 C5 1.390 . S
C3 C6 1.339 . S
C3 H23 0.930 . S
C4 C1 1.416 . S
C4 C6 1.416 . S
C4 C10 1.448 . S
C5 N2 1.334 . S
C5 C3 1.390 . S
C5 H16 0.930 . S
C6 C3 1.339 . S
C6 C4 1.416 . S
C6 H27 0.930 . S
C7 C8 1.413 . S
C7 C9 1.427 . S
C7 C13 1.415 1_554 S
C8 C1 1.424 . S
C8 C7 1.413 . S
C8 N12 1.361 . S
C9 C7 1.427 . S
C9 C10 1.328 . S
C9 H24 0.929 1_554 S
C10 C4 1.448 . S
C10 C9 1.328 . S
C10 H25 0.930 . S
Tb11 N2 2.617 . S
Tb11 N12 2.572 . S
Tb11 O46 2.349 . S
Tb11 O49 2.393 . S
Tb11 O50 2.465 . S
Tb11 O51 2.387 1_554 S
Tb11 O53 2.428 . S
Tb11 O54 2.308 . S
Tb11 C75 2.802 . S
N12 C8 1.361 . S
N12 Tb11 2.572 . S
N12 C14 1.340 . S
C13 C7 1.415 1_556 S
C13 C15 1.331 1_556 S
C13 H21 0.933 . S
C14 N12 1.340 . S
C14 C15 1.407 . S
C14 H20 0.930 . S
C15 C13 1.331 1_554 S
C15 C14 1.407 . S
C15 H17 0.923 1_554 S
H16 C5 0.930 . S
H17 C15 0.923 1_556 S
H18 C33 0.930 . S
H19 C40 0.929 . S
H20 C14 0.930 . S
H21 C13 0.933 . S
H22 C36 0.930 . S
H23 C3 0.930 . S
H24 C9 0.929 1_556 S
H25 C10 0.930 . S
H26 C31 0.930 . S
H27 C6 0.930 . S
H28 C39 0.931 . S
N29 Tb0 2.618 . S
N29 C30 1.374 1_556 S
N29 C33 1.338 . S
C30 N29 1.374 1_554 S
C30 C32 1.416 . S
C30 C38 1.424 . S
C31 H26 0.930 . S
C31 C33 1.390 1_655 S
C31 C34 1.339 1_556 S
C32 C30 1.416 . S
C32 C34 1.416 1_455 S
C32 C65 1.448 1_455 S
C33 H18 0.930 . S
C33 N29 1.338 . S
C33 C31 1.390 1_455 S
C34 C31 1.339 1_554 S
C34 C32 1.416 1_655 S
C34 H41 0.930 . S
N35 Tb0 2.572 1_554 S
N35 C36 1.340 . S
N35 C38 1.361 . S
C36 H22 0.930 . S
C36 N35 1.340 . S
C36 C40 1.407 . S
C37 C38 1.413 . S
C37 C39 1.416 . S
C37 C66 1.427 . S
C38 C30 1.424 . S
C38 N35 1.361 . S
C38 C37 1.413 . S
C39 H28 0.931 . S
C39 C37 1.416 . S
C39 C40 1.332 . S
C40 H19 0.929 . S
C40 C36 1.407 . S
C40 C39 1.332 . S
H41 C34 0.930 . S
H42 C65 0.930 . S
H43 C66 0.929 . S
O44 Tb0 2.465 . S
O44 C64 1.264 . S
O45 Tb0 2.387 1_554 S
O45 C56 1.264 . S
O46 Tb11 2.349 . S
O46 C56 1.243 . S
O47 Tb0 2.428 . S
O47 C64 1.256 . S
O48 Tb0 2.308 1_554 S
O48 C63 1.266 . S
O49 Tb11 2.393 . S
O49 C63 1.248 . S
O50 Tb11 2.465 . S
O50 C75 1.264 . S
O51 Tb11 2.387 1_556 S
O51 C67 1.264 . S
O52 Tb0 2.349 . S
O52 C67 1.243 . S
O53 Tb11 2.428 . S
O53 C75 1.256 . S
O54 Tb11 2.308 . S
O54 C74 1.266 . S
O55 Tb0 2.393 . S
O55 C74 1.248 1_556 S
C56 O45 1.264 . S
C56 O46 1.243 . S
C57 C60 1.399 . S
C57 C62 1.383 . S
C57 C64 1.496 . S
C58 C59 1.399 . S
C58 C62 1.389 . S
C59 C58 1.399 . S
C59 C61 1.380 . S
C59 H76 0.929 . S
C60 C57 1.399 . S
C60 C61 1.392 . S
C60 H77 0.929 . S
C61 C59 1.380 . S
C61 C60 1.392 . S
C61 H78 0.929 . S
C62 C57 1.383 . S
C62 C58 1.389 . S
C62 H79 0.931 . S
C63 O48 1.266 . S
C63 O49 1.248 . S
C64 Tb0 2.802 . S
C64 O44 1.264 . S
C64 O47 1.256 . S
C64 C57 1.496 . S
C65 C32 1.448 1_655 S
C65 H42 0.930 . S
C65 C66 1.328 1_655 S
C66 C37 1.427 . S
C66 H43 0.929 . S
C66 C65 1.328 1_455 S
C67 O51 1.264 . S
C67 O52 1.243 . S
C68 C71 1.399 . S
C68 C72 1.383 . S
C68 C75 1.496 . S
C69 C70 1.399 . S
C69 C72 1.389 . S
C70 C69 1.399 . S
C70 C73 1.380 . S
C70 H80 0.929 . S
C71 C68 1.399 . S
C71 C73 1.392 . S
C71 H81 0.929 . S
C72 C68 1.383 . S
C72 C69 1.389 . S
C72 H82 0.931 . S
C73 C70 1.380 . S
C73 C71 1.392 . S
C73 H83 0.929 . S
C74 O54 1.266 . S
C74 O55 1.248 1_554 S
C75 Tb11 2.802 . S
C75 O50 1.264 . S
C75 O53 1.256 . S
C75 C68 1.496 . S
H76 C59 0.929 . S
H77 C60 0.929 . S
H78 C61 0.929 . S
H79 C62 0.931 . S
H80 C70 0.929 . S
H81 C71 0.929 . S
H82 C72 0.931 . S
H83 C73 0.929 . S
Tb84 N113 2.617 . S
Tb84 N119 2.572 . S
Tb84 O128 2.465 . S
Tb84 O129 2.387 . S
Tb84 O131 2.428 . S
Tb84 O132 2.308 . S
Tb84 O136 2.349 . S
Tb84 O139 2.393 . S
Tb84 C148 2.802 . S
C85 N86 1.379 . S
C85 C88 1.416 . S
C85 C92 1.424 . S
N86 C85 1.379 . S
N86 C89 1.334 . S
N86 Tb95 2.617 . S
C87 C89 1.390 . S
C87 C90 1.339 . S
C87 H107 0.930 . S
C88 C85 1.416 . S
C88 C90 1.416 . S
C88 C94 1.448 . S
C89 N86 1.334 . S
C89 C87 1.390 . S
C89 H100 0.930 . S
C90 C87 1.339 . S
C90 C88 1.416 . S
C90 H111 0.930 . S
C91 C92 1.413 . S
C91 C93 1.427 . S
C91 C97 1.416 . S
C92 C85 1.424 . S
C92 C91 1.413 . S
C92 N96 1.361 . S
C93 C91 1.427 . S
C93 C94 1.328 . S
C93 H108 0.929 . S
C94 C88 1.448 . S
C94 C93 1.328 . S
C94 H109 0.930 . S
Tb95 N86 2.617 . S
Tb95 N96 2.572 . S
Tb95 O130 2.349 . S
Tb95 O133 2.393 . S
Tb95 O134 2.465 . S
Tb95 O135 2.387 . S
Tb95 O137 2.428 . S
Tb95 O138 2.308 . S
Tb95 C159 2.802 . S
N96 C92 1.361 . S
N96 Tb95 2.572 . S
N96 C98 1.340 . S
C97 C91 1.416 . S
C97 C99 1.332 . S
C97 H105 0.931 . S
C98 N96 1.340 . S
C98 C99 1.407 . S
C98 H104 0.930 . S
C99 C97 1.332 . S
C99 C98 1.407 . S
C99 H101 0.929 . S
H100 C89 0.930 . S
H101 C99 0.929 . S
H102 C117 0.930 . S
H103 C124 0.929 1_455 S
H104 C98 0.930 . S
H105 C97 0.931 . S
H106 C120 0.930 . S
H107 C87 0.930 . S
H108 C93 0.929 . S
H109 C94 0.930 . S
H110 C115 0.930 . S
H111 C90 0.930 . S
H112 C123 0.931 1_455 S
N113 Tb84 2.617 . S
N113 C114 1.379 . S
N113 C117 1.334 . S
C114 N113 1.379 . S
C114 C116 1.416 . S
C114 C122 1.424 . S
C115 H110 0.930 . S
C115 C117 1.390 1_565 S
C115 C118 1.339 . S
C116 C114 1.416 . S
C116 C118 1.416 1_545 S
C116 C149 1.448 1_545 S
C117 H102 0.930 . S
C117 N113 1.334 . S
C117 C115 1.390 1_545 S
C118 C115 1.339 . S
C118 C116 1.416 1_565 S
C118 H125 0.930 . S
N119 Tb84 2.572 . S
N119 C120 1.340 . S
N119 C122 1.361 . S
C120 H106 0.930 . S
C120 N119 1.340 . S
C120 C124 1.407 . S
C121 C122 1.413 . S
C121 C123 1.416 . S
C121 C150 1.427 . S
C122 C114 1.424 . S
C122 N119 1.361 . S
C122 C121 1.413 . S
C123 H112 0.931 1_655 S
C123 C121 1.416 . S
C123 C124 1.332 . S
C124 H103 0.929 1_655 S
C124 C120 1.407 . S
C124 C123 1.332 . S
H125 C118 0.930 . S
H126 C149 0.930 . S
H127 C150 0.929 . S
O128 Tb84 2.465 . S
O128 C148 1.264 . S
O129 Tb84 2.387 . S
O129 C140 1.264 . S
O130 Tb95 2.349 . S
O130 C140 1.243 . S
O131 Tb84 2.428 . S
O131 C148 1.256 . S
O132 Tb84 2.308 . S
O132 C147 1.266 . S
O133 Tb95 2.393 . S
O133 C147 1.248 . S
O134 Tb95 2.465 . S
O134 C159 1.264 . S
O135 Tb95 2.387 . S
O135 C151 1.264 . S
O136 Tb84 2.349 . S
O136 C151 1.243 . S
O137 Tb95 2.428 . S
O137 C159 1.256 . S
O138 Tb95 2.308 . S
O138 C158 1.266 . S
O139 Tb84 2.393 . S
O139 C158 1.248 . S
C140 O129 1.264 . S
C140 O130 1.243 . S
C141 C144 1.399 . S
C141 C146 1.383 . S
C141 C148 1.496 . S
C142 C143 1.399 . S
C142 C146 1.389 . S
C143 C142 1.399 . S
C143 C145 1.380 . S
C143 H160 0.929 . S
C144 C141 1.399 . S
C144 C145 1.392 . S
C144 H161 0.929 . S
C145 C143 1.380 . S
C145 C144 1.392 . S
C145 H162 0.929 . S
C146 C141 1.383 . S
C146 C142 1.389 . S
C146 H163 0.931 . S
C147 O132 1.266 . S
C147 O133 1.248 . S
C148 Tb84 2.802 . S
C148 O128 1.264 . S
C148 O131 1.256 . S
C148 C141 1.496 . S
C149 C116 1.448 1_565 S
C149 H126 0.930 . S
C149 C150 1.328 1_565 S
C150 C121 1.427 . S
C150 H127 0.929 . S
C150 C149 1.328 1_545 S
C151 O135 1.264 . S
C151 O136 1.243 . S
C152 C155 1.399 . S
C152 C156 1.383 . S
C152 C159 1.496 . S
C153 C154 1.399 . S
C153 C156 1.389 . S
C154 C153 1.399 . S
C154 C157 1.380 . S
C154 H164 0.929 . S
C155 C152 1.399 . S
C155 C157 1.392 . S
C155 H165 0.929 . S
C156 C152 1.383 . S
C156 C153 1.389 . S
C156 H166 0.931 . S
C157 C154 1.380 . S
C157 C155 1.392 . S
C157 H167 0.929 . S
C158 O138 1.266 . S
C158 O139 1.248 . S
C159 Tb95 2.802 . S
C159 O134 1.264 . S
C159 O137 1.256 . S
C159 C152 1.496 . S
H160 C143 0.929 . S
H161 C144 0.929 . S
H162 C145 0.929 . S
H163 C146 0.931 . S
H164 C154 0.929 . S
H165 C155 0.929 . S
H166 C156 0.931 . S
H167 C157 0.929 . S
Tb168 N197 2.617 . S
Tb168 N203 2.572 . S
Tb168 O212 2.465 . S
Tb168 O213 2.387 . S
Tb168 O215 2.428 . S
Tb168 O216 2.308 . S
Tb168 O220 2.349 . S
Tb168 O223 2.393 . S
Tb168 C232 2.802 . S
C169 N170 1.379 . S
C169 C172 1.416 . S
C169 C176 1.424 . S
N170 C169 1.379 . S
N170 C173 1.334 . S
N170 Tb179 2.617 . S
C171 C173 1.390 . S
C171 C174 1.339 . S
C171 H191 0.930 . S
C172 C169 1.416 . S
C172 C174 1.416 . S
C172 C178 1.448 . S
C173 N170 1.334 . S
C173 C171 1.390 . S
C173 H184 0.930 . S
C174 C171 1.339 . S
C174 C172 1.416 . S
C174 H195 0.930 . S
C175 C176 1.413 . S
C175 C177 1.427 . S
C175 C181 1.416 . S
C176 C169 1.424 . S
C176 C175 1.413 . S
C176 N180 1.361 . S
C177 C175 1.427 . S
C177 C178 1.328 . S
C177 H192 0.929 . S
C178 C172 1.448 . S
C178 C177 1.328 . S
C178 H193 0.930 . S
Tb179 N170 2.617 . S
Tb179 N180 2.572 . S
Tb179 O214 2.349 . S
Tb179 O217 2.393 . S
Tb179 O218 2.465 . S
Tb179 O219 2.387 . S
Tb179 O221 2.428 . S
Tb179 O222 2.308 . S
Tb179 C243 2.802 . S
N180 C176 1.361 . S
N180 Tb179 2.572 . S
N180 C182 1.340 . S
C181 C175 1.416 . S
C181 C183 1.332 . S
C181 H189 0.931 . S
C182 N180 1.340 . S
C182 C183 1.407 . S
C182 H188 0.930 . S
C183 C181 1.332 . S
C183 C182 1.407 . S
C183 H185 0.929 . S
H184 C173 0.930 . S
H185 C183 0.929 . S
H186 C201 0.930 . S
H187 C208 0.929 1_545 S
H188 C182 0.930 . S
H189 C181 0.931 . S
H190 C204 0.930 . S
H191 C171 0.930 . S
H192 C177 0.929 . S
H193 C178 0.930 . S
H194 C199 0.930 . S
H195 C174 0.930 . S
H196 C207 0.931 1_545 S
N197 Tb168 2.617 . S
N197 C198 1.379 . S
N197 C201 1.334 . S
C198 N197 1.379 . S
C198 C200 1.416 . S
C198 C206 1.424 . S
C199 H194 0.930 . S
C199 C201 1.390 . S
C199 C202 1.339 . S
C200 C198 1.416 . S
C200 C202 1.416 . S
C200 C233 1.448 . S
C201 H186 0.930 . S
C201 N197 1.334 . S
C201 C199 1.390 . S
C202 C199 1.339 . S
C202 C200 1.416 . S
C202 H209 0.930 . S
N203 Tb168 2.572 . S
N203 C204 1.340 . S
N203 C206 1.361 . S
C204 H190 0.930 . S
C204 N203 1.340 . S
C204 C208 1.407 . S
C205 C206 1.413 . S
C205 C207 1.416 . S
C205 C234 1.427 . S
C206 C198 1.424 . S
C206 N203 1.361 . S
C206 C205 1.413 . S
C207 H196 0.931 1_565 S
C207 C205 1.416 . S
C207 C208 1.332 . S
C208 H187 0.929 1_565 S
C208 C204 1.407 . S
C208 C207 1.332 . S
H209 C202 0.930 . S
H210 C233 0.930 . S
H211 C234 0.929 . S
O212 Tb168 2.465 . S
O212 C232 1.264 . S
O213 Tb168 2.387 . S
O213 C224 1.264 . S
O214 Tb179 2.349 . S
O214 C224 1.243 . S
O215 Tb168 2.428 . S
O215 C232 1.256 . S
O216 Tb168 2.308 . S
O216 C231 1.266 . S
O217 Tb179 2.393 . S
O217 C231 1.248 . S
O218 Tb179 2.465 . S
O218 C243 1.264 . S
O219 Tb179 2.387 . S
O219 C235 1.264 . S
O220 Tb168 2.349 . S
O220 C235 1.243 . S
O221 Tb179 2.428 . S
O221 C243 1.256 . S
O222 Tb179 2.308 . S
O222 C242 1.266 . S
O223 Tb168 2.393 . S
O223 C242 1.248 . S
C224 O213 1.264 . S
C224 O214 1.243 . S
C225 C228 1.399 . S
C225 C230 1.383 . S
C225 C232 1.496 . S
C226 C227 1.399 . S
C226 C230 1.389 . S
C227 C226 1.399 . S
C227 C229 1.380 . S
C227 H244 0.929 . S
C228 C225 1.399 . S
C228 C229 1.392 . S
C228 H245 0.929 . S
C229 C227 1.380 . S
C229 C228 1.392 . S
C229 H246 0.929 . S
C230 C225 1.383 . S
C230 C226 1.389 . S
C230 H247 0.931 . S
C231 O216 1.266 . S
C231 O217 1.248 . S
C232 Tb168 2.802 . S
C232 O212 1.264 . S
C232 O215 1.256 . S
C232 C225 1.496 . S
C233 C200 1.448 . S
C233 H210 0.930 . S
C233 C234 1.328 . S
C234 C205 1.427 . S
C234 H211 0.929 . S
C234 C233 1.328 . S
C235 O219 1.264 . S
C235 O220 1.243 . S
C236 C239 1.399 . S
C236 C240 1.383 . S
C236 C243 1.496 . S
C237 C238 1.399 . S
C237 C240 1.389 . S
C238 C237 1.399 . S
C238 C241 1.380 . S
C238 H248 0.929 . S
C239 C236 1.399 . S
C239 C241 1.392 . S
C239 H249 0.929 . S
C240 C236 1.383 . S
C240 C237 1.389 . S
C240 H250 0.931 . S
C241 C238 1.380 . S
C241 C239 1.392 . S
C241 H251 0.929 . S
C242 O222 1.266 . S
C242 O223 1.248 . S
C243 Tb179 2.802 . S
C243 O218 1.264 . S
C243 O221 1.256 . S
C243 C236 1.496 . S
H244 C227 0.929 . S
H245 C228 0.929 . S
H246 C229 0.929 . S
H247 C230 0.931 . S
H248 C238 0.929 . S
H249 C239 0.929 . S
H250 C240 0.931 . S
H251 C241 0.929 . S
Tb252 N281 2.618 . S
Tb252 N287 2.572 1_556 S
Tb252 O296 2.465 . S
Tb252 O297 2.387 1_556 S
Tb252 O299 2.428 . S
Tb252 O300 2.308 1_556 S
Tb252 O304 2.349 . S
Tb252 O307 2.393 . S
Tb252 C316 2.802 . S
C253 N254 1.379 . S
C253 C256 1.416 . S
C253 C260 1.424 . S
N254 C253 1.379 . S
N254 C257 1.334 . S
N254 Tb263 2.617 . S
C255 C257 1.390 . S
C255 C258 1.339 . S
C255 H275 0.930 . S
C256 C253 1.416 . S
C256 C258 1.416 . S
C256 C262 1.448 . S
C257 N254 1.334 . S
C257 C255 1.390 . S
C257 H268 0.930 . S
C258 C255 1.339 . S
C258 C256 1.416 . S
C258 H279 0.930 . S
C259 C260 1.413 . S
C259 C261 1.427 . S
C259 C265 1.415 1_554 S
C260 C253 1.424 . S
C260 C259 1.413 . S
C260 N264 1.361 . S
C261 C259 1.427 . S
C261 C262 1.328 . S
C261 H276 0.929 1_554 S
C262 C256 1.448 . S
C262 C261 1.328 . S
C262 H277 0.930 . S
Tb263 N254 2.617 . S
Tb263 N264 2.572 . S
Tb263 O298 2.349 . S
Tb263 O301 2.393 . S
Tb263 O302 2.465 . S
Tb263 O303 2.387 1_554 S
Tb263 O305 2.428 . S
Tb263 O306 2.308 . S
Tb263 C327 2.802 . S
N264 C260 1.361 . S
N264 Tb263 2.572 . S
N264 C266 1.340 . S
C265 C259 1.415 1_556 S
C265 C267 1.331 1_556 S
C265 H273 0.933 . S
C266 N264 1.340 . S
C266 C267 1.407 . S
C266 H272 0.930 . S
C267 C265 1.331 1_554 S
C267 C266 1.407 . S
C267 H269 0.923 1_554 S
H268 C257 0.930 . S
H269 C267 0.923 1_556 S
H270 C285 0.930 . S
H271 C292 0.929 . S
H272 C266 0.930 . S
H273 C265 0.933 . S
H274 C288 0.930 . S
H275 C255 0.930 . S
H276 C261 0.929 1_556 S
H277 C262 0.930 . S
H278 C283 0.930 . S
H279 C258 0.930 . S
H280 C291 0.931 . S
N281 Tb252 2.618 . S
N281 C282 1.374 1_556 S
N281 C285 1.338 . S
C282 N281 1.374 1_554 S
C282 C284 1.416 . S
C282 C290 1.424 . S
C283 H278 0.930 . S
C283 C285 1.390 1_455 S
C283 C286 1.339 1_556 S
C284 C282 1.416 . S
C284 C286 1.416 1_655 S
C284 C317 1.448 1_655 S
C285 H270 0.930 . S
C285 N281 1.338 . S
C285 C283 1.390 1_655 S
C286 C283 1.339 1_554 S
C286 C284 1.416 1_455 S
C286 H293 0.930 . S
N287 Tb252 2.572 1_554 S
N287 C288 1.340 . S
N287 C290 1.361 . S
C288 H274 0.930 . S
C288 N287 1.340 . S
C288 C292 1.407 . S
C289 C290 1.413 . S
C289 C291 1.416 . S
C289 C318 1.427 . S
C290 C282 1.424 . S
C290 N287 1.361 . S
C290 C289 1.413 . S
C291 H280 0.931 . S
C291 C289 1.416 . S
C291 C292 1.332 . S
C292 H271 0.929 . S
C292 C288 1.407 . S
C292 C291 1.332 . S
H293 C286 0.930 . S
H294 C317 0.930 . S
H295 C318 0.929 . S
O296 Tb252 2.465 . S
O296 C316 1.264 . S
O297 Tb252 2.387 1_554 S
O297 C308 1.264 . S
O298 Tb263 2.349 . S
O298 C308 1.243 . S
O299 Tb252 2.428 . S
O299 C316 1.256 . S
O300 Tb252 2.308 1_554 S
O300 C315 1.266 . S
O301 Tb263 2.393 . S
O301 C315 1.248 . S
O302 Tb263 2.465 . S
O302 C327 1.264 . S
O303 Tb263 2.387 1_556 S
O303 C319 1.264 . S
O304 Tb252 2.349 . S
O304 C319 1.243 . S
O305 Tb263 2.428 . S
O305 C327 1.256 . S
O306 Tb263 2.308 . S
O306 C326 1.266 . S
O307 Tb252 2.393 . S
O307 C326 1.248 1_556 S
C308 O297 1.264 . S
C308 O298 1.243 . S
C309 C312 1.399 . S
C309 C314 1.383 . S
C309 C316 1.496 . S
C310 C311 1.399 . S
C310 C314 1.389 . S
C311 C310 1.399 . S
C311 C313 1.380 . S
C311 H328 0.929 . S
C312 C309 1.399 . S
C312 C313 1.392 . S
C312 H329 0.929 . S
C313 C311 1.380 . S
C313 C312 1.392 . S
C313 H330 0.929 . S
C314 C309 1.383 . S
C314 C310 1.389 . S
C314 H331 0.931 . S
C315 O300 1.266 . S
C315 O301 1.248 . S
C316 Tb252 2.802 . S
C316 O296 1.264 . S
C316 O299 1.256 . S
C316 C309 1.496 . S
C317 C284 1.448 1_455 S
C317 H294 0.930 . S
C317 C318 1.328 1_455 S
C318 C289 1.427 . S
C318 H295 0.929 . S
C318 C317 1.328 1_655 S
C319 O303 1.264 . S
C319 O304 1.243 . S
C320 C323 1.399 . S
C320 C324 1.383 . S
C320 C327 1.496 . S
C321 C322 1.399 . S
C321 C324 1.389 . S
C322 C321 1.399 . S
C322 C325 1.380 . S
C322 H332 0.929 . S
C323 C320 1.399 . S
C323 C325 1.392 . S
C323 H333 0.929 . S
C324 C320 1.383 . S
C324 C321 1.389 . S
C324 H334 0.931 . S
C325 C322 1.380 . S
C325 C323 1.392 . S
C325 H335 0.929 . S
C326 O306 1.266 . S
C326 O307 1.248 1_554 S
C327 Tb263 2.802 . S
C327 O302 1.264 . S
C327 O305 1.256 . S
C327 C320 1.496 . S
H328 C311 0.929 . S
H329 C312 0.929 . S
H330 C313 0.929 . S
H331 C314 0.931 . S
H332 C322 0.929 . S
H333 C323 0.929 . S
H334 C324 0.931 . S
H335 C325 0.929 . S
Tb336 N365 2.617 . S
Tb336 N371 2.572 . S
Tb336 O380 2.465 . S
Tb336 O381 2.387 . S
Tb336 O383 2.428 . S
Tb336 O384 2.308 . S
Tb336 O388 2.349 . S
Tb336 O391 2.393 . S
Tb336 C400 2.802 . S
C337 N338 1.379 . S
C337 C340 1.416 . S
C337 C344 1.424 . S
N338 C337 1.379 . S
N338 C341 1.334 . S
N338 Tb347 2.617 . S
C339 C341 1.390 . S
C339 C342 1.339 . S
C339 H359 0.930 . S
C340 C337 1.416 . S
C340 C342 1.416 . S
C340 C346 1.448 . S
C341 N338 1.334 . S
C341 C339 1.390 . S
C341 H352 0.930 . S
C342 C339 1.339 . S
C342 C340 1.416 . S
C342 H363 0.930 . S
C343 C344 1.413 . S
C343 C345 1.427 . S
C343 C349 1.416 . S
C344 C337 1.424 . S
C344 C343 1.413 . S
C344 N348 1.361 . S
C345 C343 1.427 . S
C345 C346 1.328 . S
C345 H360 0.929 . S
C346 C340 1.448 . S
C346 C345 1.328 . S
C346 H361 0.930 . S
Tb347 N338 2.617 . S
Tb347 N348 2.572 . S
Tb347 O382 2.349 . S
Tb347 O385 2.393 . S
Tb347 O386 2.465 . S
Tb347 O387 2.387 . S
Tb347 O389 2.428 . S
Tb347 O390 2.308 . S
Tb347 C411 2.802 . S
N348 C344 1.361 . S
N348 Tb347 2.572 . S
N348 C350 1.340 . S
C349 C343 1.416 . S
C349 C351 1.332 . S
C349 H357 0.931 . S
C350 N348 1.340 . S
C350 C351 1.407 . S
C350 H356 0.930 . S
C351 C349 1.332 . S
C351 C350 1.407 . S
C351 H353 0.929 . S
H352 C341 0.930 . S
H353 C351 0.929 . S
H354 C369 0.930 . S
H355 C376 0.929 1_655 S
H356 C350 0.930 . S
H357 C349 0.931 . S
H358 C372 0.930 . S
H359 C339 0.930 . S
H360 C345 0.929 . S
H361 C346 0.930 . S
H362 C367 0.930 . S
H363 C342 0.930 . S
H364 C375 0.931 1_655 S
N365 Tb336 2.617 . S
N365 C366 1.379 . S
N365 C369 1.334 . S
C366 N365 1.379 . S
C366 C368 1.416 . S
C366 C374 1.424 . S
C367 H362 0.930 . S
C367 C369 1.390 1_545 S
C367 C370 1.339 . S
C368 C366 1.416 . S
C368 C370 1.416 1_565 S
C368 C401 1.448 1_565 S
C369 H354 0.930 . S
C369 N365 1.334 . S
C369 C367 1.390 1_565 S
C370 C367 1.339 . S
C370 C368 1.416 1_545 S
C370 H377 0.930 . S
N371 Tb336 2.572 . S
N371 C372 1.340 . S
N371 C374 1.361 . S
C372 H358 0.930 . S
C372 N371 1.340 . S
C372 C376 1.407 . S
C373 C374 1.413 . S
C373 C375 1.416 . S
C373 C402 1.427 . S
C374 C366 1.424 . S
C374 N371 1.361 . S
C374 C373 1.413 . S
C375 H364 0.931 1_455 S
C375 C373 1.416 . S
C375 C376 1.332 . S
C376 H355 0.929 1_455 S
C376 C372 1.407 . S
C376 C375 1.332 . S
H377 C370 0.930 . S
H378 C401 0.930 . S
H379 C402 0.929 . S
O380 Tb336 2.465 . S
O380 C400 1.264 . S
O381 Tb336 2.387 . S
O381 C392 1.264 . S
O382 Tb347 2.349 . S
O382 C392 1.243 . S
O383 Tb336 2.428 . S
O383 C400 1.256 . S
O384 Tb336 2.308 . S
O384 C399 1.266 . S
O385 Tb347 2.393 . S
O385 C399 1.248 . S
O386 Tb347 2.465 . S
O386 C411 1.264 . S
O387 Tb347 2.387 . S
O387 C403 1.264 . S
O388 Tb336 2.349 . S
O388 C403 1.243 . S
O389 Tb347 2.428 . S
O389 C411 1.256 . S
O390 Tb347 2.308 . S
O390 C410 1.266 . S
O391 Tb336 2.393 . S
O391 C410 1.248 . S
C392 O381 1.264 . S
C392 O382 1.243 . S
C393 C396 1.399 . S
C393 C398 1.383 . S
C393 C400 1.496 . S
C394 C395 1.399 . S
C394 C398 1.389 . S
C395 C394 1.399 . S
C395 C397 1.380 . S
C395 H412 0.929 . S
C396 C393 1.399 . S
C396 C397 1.392 . S
C396 H413 0.929 . S
C397 C395 1.380 . S
C397 C396 1.392 . S
C397 H414 0.929 . S
C398 C393 1.383 . S
C398 C394 1.389 . S
C398 H415 0.931 . S
C399 O384 1.266 . S
C399 O385 1.248 . S
C400 Tb336 2.802 . S
C400 O380 1.264 . S
C400 O383 1.256 . S
C400 C393 1.496 . S
C401 C368 1.448 1_545 S
C401 H378 0.930 . S
C401 C402 1.328 1_545 S
C402 C373 1.427 . S
C402 H379 0.929 . S
C402 C401 1.328 1_565 S
C403 O387 1.264 . S
C403 O388 1.243 . S
C404 C407 1.399 . S
C404 C408 1.383 . S
C404 C411 1.496 . S
C405 C406 1.399 . S
C405 C408 1.389 . S
C406 C405 1.399 . S
C406 C409 1.380 . S
C406 H416 0.929 . S
C407 C404 1.399 . S
C407 C409 1.392 . S
C407 H417 0.929 . S
C408 C404 1.383 . S
C408 C405 1.389 . S
C408 H418 0.931 . S
C409 C406 1.380 . S
C409 C407 1.392 . S
C409 H419 0.929 . S
C410 O390 1.266 . S
C410 O391 1.248 . S
C411 Tb347 2.802 . S
C411 O386 1.264 . S
C411 O389 1.256 . S
C411 C404 1.496 . S
H412 C395 0.929 . S
H413 C396 0.929 . S
H414 C397 0.929 . S
H415 C398 0.931 . S
H416 C406 0.929 . S
H417 C407 0.929 . S
H418 C408 0.931 . S
H419 C409 0.929 . S
Tb420 N449 2.617 . S
Tb420 N455 2.572 . S
Tb420 O464 2.465 . S
Tb420 O465 2.387 . S
Tb420 O467 2.428 . S
Tb420 O468 2.308 . S
Tb420 O472 2.349 . S
Tb420 O475 2.393 . S
Tb420 C484 2.802 . S
C421 N422 1.379 . S
C421 C424 1.416 . S
C421 C428 1.424 . S
N422 C421 1.379 . S
N422 C425 1.334 . S
N422 Tb431 2.617 . S
C423 C425 1.390 . S
C423 C426 1.339 . S
C423 H443 0.930 . S
C424 C421 1.416 . S
C424 C426 1.416 . S
C424 C430 1.448 . S
C425 N422 1.334 . S
C425 C423 1.390 . S
C425 H436 0.930 . S
C426 C423 1.339 . S
C426 C424 1.416 . S
C426 H447 0.930 . S
C427 C428 1.413 . S
C427 C429 1.427 . S
C427 C433 1.416 . S
C428 C421 1.424 . S
C428 C427 1.413 . S
C428 N432 1.361 . S
C429 C427 1.427 . S
C429 C430 1.328 . S
C429 H444 0.929 . S
C430 C424 1.448 . S
C430 C429 1.328 . S
C430 H445 0.930 . S
Tb431 N422 2.617 . S
Tb431 N432 2.572 . S
Tb431 O466 2.349 . S
Tb431 O469 2.393 . S
Tb431 O470 2.465 . S
Tb431 O471 2.387 . S
Tb431 O473 2.428 . S
Tb431 O474 2.308 . S
Tb431 C495 2.802 . S
N432 C428 1.361 . S
N432 Tb431 2.572 . S
N432 C434 1.340 . S
C433 C427 1.416 . S
C433 C435 1.332 . S
C433 H441 0.931 . S
C434 N432 1.340 . S
C434 C435 1.407 . S
C434 H440 0.930 . S
C435 C433 1.332 . S
C435 C434 1.407 . S
C435 H437 0.929 . S
H436 C425 0.930 . S
H437 C435 0.929 . S
H438 C453 0.930 . S
H439 C460 0.929 1_565 S
H440 C434 0.930 . S
H441 C433 0.931 . S
H442 C456 0.930 . S
H443 C423 0.930 . S
H444 C429 0.929 . S
H445 C430 0.930 . S
H446 C451 0.930 . S
H447 C426 0.930 . S
H448 C459 0.931 1_565 S
N449 Tb420 2.617 . S
N449 C450 1.379 . S
N449 C453 1.334 . S
C450 N449 1.379 . S
C450 C452 1.416 . S
C450 C458 1.424 . S
C451 H446 0.930 . S
C451 C453 1.390 . S
C451 C454 1.339 . S
C452 C450 1.416 . S
C452 C454 1.416 . S
C452 C485 1.448 . S
C453 H438 0.930 . S
C453 N449 1.334 . S
C453 C451 1.390 . S
C454 C451 1.339 . S
C454 C452 1.416 . S
C454 H461 0.930 . S
N455 Tb420 2.572 . S
N455 C456 1.340 . S
N455 C458 1.361 . S
C456 H442 0.930 . S
C456 N455 1.340 . S
C456 C460 1.407 . S
C457 C458 1.413 . S
C457 C459 1.416 . S
C457 C486 1.427 . S
C458 C450 1.424 . S
C458 N455 1.361 . S
C458 C457 1.413 . S
C459 H448 0.931 1_545 S
C459 C457 1.416 . S
C459 C460 1.332 . S
C460 H439 0.929 1_545 S
C460 C456 1.407 . S
C460 C459 1.332 . S
H461 C454 0.930 . S
H462 C485 0.930 . S
H463 C486 0.929 . S
O464 Tb420 2.465 . S
O464 C484 1.264 . S
O465 Tb420 2.387 . S
O465 C476 1.264 . S
O466 Tb431 2.349 . S
O466 C476 1.243 . S
O467 Tb420 2.428 . S
O467 C484 1.256 . S
O468 Tb420 2.308 . S
O468 C483 1.266 . S
O469 Tb431 2.393 . S
O469 C483 1.248 . S
O470 Tb431 2.465 . S
O470 C495 1.264 . S
O471 Tb431 2.387 . S
O471 C487 1.264 . S
O472 Tb420 2.349 . S
O472 C487 1.243 . S
O473 Tb431 2.428 . S
O473 C495 1.256 . S
O474 Tb431 2.308 . S
O474 C494 1.266 . S
O475 Tb420 2.393 . S
O475 C494 1.248 . S
C476 O465 1.264 . S
C476 O466 1.243 . S
C477 C480 1.399 . S
C477 C482 1.383 . S
C477 C484 1.496 . S
C478 C479 1.399 . S
C478 C482 1.389 . S
C479 C478 1.399 . S
C479 C481 1.380 . S
C479 H496 0.929 . S
C480 C477 1.399 . S
C480 C481 1.392 . S
C480 H497 0.929 . S
C481 C479 1.380 . S
C481 C480 1.392 . S
C481 H498 0.929 . S
C482 C477 1.383 . S
C482 C478 1.389 . S
C482 H499 0.931 . S
C483 O468 1.266 . S
C483 O469 1.248 . S
C484 Tb420 2.802 . S
C484 O464 1.264 . S
C484 O467 1.256 . S
C484 C477 1.496 . S
C485 C452 1.448 . S
C485 H462 0.930 . S
C485 C486 1.328 . S
C486 C457 1.427 . S
C486 H463 0.929 . S
C486 C485 1.328 . S
C487 O471 1.264 . S
C487 O472 1.243 . S
C488 C491 1.399 . S
C488 C492 1.383 . S
C488 C495 1.496 . S
C489 C490 1.399 . S
C489 C492 1.389 . S
C490 C489 1.399 . S
C490 C493 1.380 . S
C490 H500 0.929 . S
C491 C488 1.399 . S
C491 C493 1.392 . S
C491 H501 0.929 . S
C492 C488 1.383 . S
C492 C489 1.389 . S
C492 H502 0.931 . S
C493 C490 1.380 . S
C493 C491 1.392 . S
C493 H503 0.929 . S
C494 O474 1.266 . S
C494 O475 1.248 . S
C495 Tb431 2.802 . S
C495 O470 1.264 . S
C495 O473 1.256 . S
C495 C488 1.496 . S
H496 C479 0.929 . S
H497 C480 0.929 . S
H498 C481 0.929 . S
H499 C482 0.931 . S
H500 C490 0.929 . S
H501 C491 0.929 . S
H502 C492 0.931 . S
H503 C493 0.929 . S
C504 C505 1.391 . S
C504 C506 1.394 . S
C504 H520 0.931 . S
C505 C504 1.391 . S
C505 C509 1.376 . S
C506 C504 1.394 . S
C506 C507 1.369 . S
C506 C510 1.531 . S
C507 C506 1.369 . S
C507 C508 1.410 . S
C507 C515 1.503 . S
C508 C507 1.410 . S
C508 C509 1.392 . S
C508 C511 1.511 . S
C509 C505 1.376 . S
C509 C508 1.392 . S
C509 H521 0.929 . S
C510 C506 1.531 . S
C510 H522 0.960 . S
C510 H523 0.962 . S
C510 H524 0.960 . S
C511 C508 1.511 . S
C511 H525 0.961 . S
C511 H526 0.961 . S
C511 H527 0.961 . S
C512 C513 1.370 . S
C512 C514 1.363 . S
C512 H528 0.931 . S
C513 C512 1.370 . S
C513 C517 1.408 . S
C514 C512 1.363 . S
C514 C515 1.370 . S
C514 C518 1.524 . S
C515 C507 1.503 . S
C515 C514 1.370 . S
C515 C516 1.403 . S
C516 C515 1.403 . S
C516 C517 1.404 . S
C516 C519 1.539 . S
C517 C513 1.408 . S
C517 C516 1.404 . S
C517 H529 0.930 . S
C518 C514 1.524 . S
C518 H530 0.956 . S
C518 H531 0.961 . S
C518 H532 0.961 . S
C519 C516 1.539 . S
C519 H533 0.958 . S
C519 H534 0.961 . S
C519 H535 0.960 . S
H520 C504 0.931 . S
H521 C509 0.929 . S
H522 C510 0.960 . S
H523 C510 0.962 . S
H524 C510 0.960 . S
H525 C511 0.961 . S
H526 C511 0.961 . S
H527 C511 0.961 . S
H528 C512 0.931 . S
H529 C517 0.930 . S
H530 C518 0.956 . S
H531 C518 0.961 . S
H532 C518 0.961 . S
H533 C519 0.958 . S
H534 C519 0.961 . S
H535 C519 0.960 . S
C536 C537 1.391 . S
C536 C538 1.394 . S
C536 H552 0.931 . S
C537 C536 1.391 . S
C537 C541 1.376 . S
C538 C536 1.394 . S
C538 C539 1.369 . S
C538 C542 1.531 . S
C539 C538 1.369 . S
C539 C540 1.410 . S
C539 C547 1.503 . S
C540 C539 1.410 . S
C540 C541 1.392 . S
C540 C543 1.511 . S
C541 C537 1.376 . S
C541 C540 1.392 . S
C541 H553 0.929 . S
C542 C538 1.531 . S
C542 H554 0.960 . S
C542 H555 0.962 . S
C542 H556 0.960 . S
C543 C540 1.511 . S
C543 H557 0.961 . S
C543 H558 0.961 . S
C543 H559 0.961 . S
C544 C545 1.370 . S
C544 C546 1.363 . S
C544 H560 0.931 . S
C545 C544 1.370 . S
C545 C549 1.408 . S
C546 C544 1.363 . S
C546 C547 1.370 . S
C546 C550 1.524 . S
C547 C539 1.503 . S
C547 C546 1.370 . S
C547 C548 1.403 . S
C548 C547 1.403 . S
C548 C549 1.404 . S
C548 C551 1.539 . S
C549 C545 1.408 . S
C549 C548 1.404 . S
C549 H561 0.930 . S
C550 C546 1.524 . S
C550 H562 0.956 . S
C550 H563 0.961 . S
C550 H564 0.961 . S
C551 C548 1.539 . S
C551 H565 0.958 . S
C551 H566 0.961 . S
C551 H567 0.960 . S
H552 C536 0.931 . S
H553 C541 0.929 . S
H554 C542 0.960 . S
H555 C542 0.962 . S
H556 C542 0.960 . S
H557 C543 0.961 . S
H558 C543 0.961 . S
H559 C543 0.961 . S
H560 C544 0.931 . S
H561 C549 0.930 . S
H562 C550 0.956 . S
H563 C550 0.961 . S
H564 C550 0.961 . S
H565 C551 0.958 . S
H566 C551 0.961 . S
H567 C551 0.960 . S
C568 C569 1.391 . S
C568 C570 1.394 . S
C568 H584 0.931 . S
C569 C568 1.391 . S
C569 C573 1.376 . S
C570 C568 1.394 . S
C570 C571 1.369 . S
C570 C574 1.531 . S
C571 C570 1.369 . S
C571 C572 1.410 . S
C571 C579 1.503 . S
C572 C571 1.410 . S
C572 C573 1.392 . S
C572 C575 1.511 . S
C573 C569 1.376 . S
C573 C572 1.392 . S
C573 H585 0.929 . S
C574 C570 1.531 . S
C574 H586 0.960 . S
C574 H587 0.962 . S
C574 H588 0.960 . S
C575 C572 1.511 . S
C575 H589 0.961 . S
C575 H590 0.961 . S
C575 H591 0.961 . S
C576 C577 1.370 . S
C576 C578 1.363 . S
C576 H592 0.931 . S
C577 C576 1.370 . S
C577 C581 1.408 . S
C578 C576 1.363 . S
C578 C579 1.370 . S
C578 C582 1.524 . S
C579 C571 1.503 . S
C579 C578 1.370 . S
C579 C580 1.403 . S
C580 C579 1.403 . S
C580 C581 1.404 . S
C580 C583 1.539 . S
C581 C577 1.408 . S
C581 C580 1.404 . S
C581 H593 0.930 . S
C582 C578 1.524 . S
C582 H594 0.956 . S
C582 H595 0.961 . S
C582 H596 0.961 . S
C583 C580 1.539 . S
C583 H597 0.958 . S
C583 H598 0.961 . S
C583 H599 0.960 . S
H584 C568 0.931 . S
H585 C573 0.929 . S
H586 C574 0.960 . S
H587 C574 0.962 . S
H588 C574 0.960 . S
H589 C575 0.961 . S
H590 C575 0.961 . S
H591 C575 0.961 . S
H592 C576 0.931 . S
H593 C581 0.930 . S
H594 C582 0.956 . S
H595 C582 0.961 . S
H596 C582 0.961 . S
H597 C583 0.958 . S
H598 C583 0.961 . S
H599 C583 0.960 . S
C600 C601 1.391 . S
C600 C602 1.394 . S
C600 H616 0.931 . S
C601 C600 1.391 . S
C601 C605 1.376 . S
C602 C600 1.394 . S
C602 C603 1.369 . S
C602 C606 1.531 . S
C603 C602 1.369 . S
C603 C604 1.410 . S
C603 C611 1.503 . S
C604 C603 1.410 . S
C604 C605 1.392 . S
C604 C607 1.511 . S
C605 C601 1.376 . S
C605 C604 1.392 . S
C605 H617 0.929 . S
C606 C602 1.531 . S
C606 H618 0.960 . S
C606 H619 0.962 . S
C606 H620 0.960 . S
C607 C604 1.511 . S
C607 H621 0.961 . S
C607 H622 0.961 . S
C607 H623 0.961 . S
C608 C609 1.370 . S
C608 C610 1.363 . S
C608 H624 0.931 . S
C609 C608 1.370 . S
C609 C613 1.408 . S
C610 C608 1.363 . S
C610 C611 1.370 . S
C610 C614 1.524 . S
C611 C603 1.503 . S
C611 C610 1.370 . S
C611 C612 1.403 . S
C612 C611 1.403 . S
C612 C613 1.404 . S
C612 C615 1.539 . S
C613 C609 1.408 . S
C613 C612 1.404 . S
C613 H625 0.930 . S
C614 C610 1.524 . S
C614 H626 0.956 . S
C614 H627 0.961 . S
C614 H628 0.961 . S
C615 C612 1.539 . S
C615 H629 0.958 . S
C615 H630 0.961 . S
C615 H631 0.960 . S
H616 C600 0.931 . S
H617 C605 0.929 . S
H618 C606 0.960 . S
H619 C606 0.962 . S
H620 C606 0.960 . S
H621 C607 0.961 . S
H622 C607 0.961 . S
H623 C607 0.961 . S
H624 C608 0.931 . S
H625 C613 0.930 . S
H626 C614 0.956 . S
H627 C614 0.961 . S
H628 C614 0.961 . S
H629 C615 0.958 . S
H630 C615 0.961 . S
H631 C615 0.960 . S
C632 C633 1.391 . S
C632 C634 1.394 . S
C632 H648 0.931 . S
C633 C632 1.391 . S
C633 C637 1.376 . S
C634 C632 1.394 . S
C634 C635 1.369 . S
C634 C638 1.531 . S
C635 C634 1.369 . S
C635 C636 1.410 . S
C635 C643 1.503 . S
C636 C635 1.410 . S
C636 C637 1.392 . S
C636 C639 1.511 . S
C637 C633 1.376 . S
C637 C636 1.392 . S
C637 H649 0.929 . S
C638 C634 1.531 . S
C638 H650 0.960 . S
C638 H651 0.962 . S
C638 H652 0.960 . S
C639 C636 1.511 . S
C639 H653 0.961 . S
C639 H654 0.961 . S
C639 H655 0.961 . S
C640 C641 1.370 . S
C640 C642 1.363 . S
C640 H656 0.931 . S
C641 C640 1.370 . S
C641 C645 1.408 . S
C642 C640 1.363 . S
C642 C643 1.370 . S
C642 C646 1.524 . S
C643 C635 1.503 . S
C643 C642 1.370 . S
C643 C644 1.403 . S
C644 C643 1.403 . S
C644 C645 1.404 . S
C644 C647 1.539 . S
C645 C641 1.408 . S
C645 C644 1.404 . S
C645 H657 0.930 . S
C646 C642 1.524 . S
C646 H658 0.956 . S
C646 H659 0.961 . S
C646 H660 0.961 . S
C647 C644 1.539 . S
C647 H661 0.958 . S
C647 H662 0.961 . S
C647 H663 0.960 . S
H648 C632 0.931 . S
H649 C637 0.929 . S
H650 C638 0.960 . S
H651 C638 0.962 . S
H652 C638 0.960 . S
H653 C639 0.961 . S
H654 C639 0.961 . S
H655 C639 0.961 . S
H656 C640 0.931 . S
H657 C645 0.930 . S
H658 C646 0.956 . S
H659 C646 0.961 . S
H660 C646 0.961 . S
H661 C647 0.958 . S
H662 C647 0.961 . S
H663 C647 0.960 . S
C664 C665 1.391 . S
C664 C666 1.394 . S
C664 H680 0.931 . S
C665 C664 1.391 . S
C665 C669 1.376 . S
C666 C664 1.394 . S
C666 C667 1.369 . S
C666 C670 1.531 . S
C667 C666 1.369 . S
C667 C668 1.410 . S
C667 C675 1.503 . S
C668 C667 1.410 . S
C668 C669 1.392 . S
C668 C671 1.511 . S
C669 C665 1.376 . S
C669 C668 1.392 . S
C669 H681 0.929 . S
C670 C666 1.531 . S
C670 H682 0.960 . S
C670 H683 0.962 . S
C670 H684 0.960 . S
C671 C668 1.511 . S
C671 H685 0.961 . S
C671 H686 0.961 . S
C671 H687 0.961 . S
C672 C673 1.370 . S
C672 C674 1.363 . S
C672 H688 0.931 . S
C673 C672 1.370 . S
C673 C677 1.408 . S
C674 C672 1.363 . S
C674 C675 1.370 . S
C674 C678 1.524 . S
C675 C667 1.503 . S
C675 C674 1.370 . S
C675 C676 1.403 . S
C676 C675 1.403 . S
C676 C677 1.404 . S
C676 C679 1.539 . S
C677 C673 1.408 . S
C677 C676 1.404 . S
C677 H689 0.930 . S
C678 C674 1.524 . S
C678 H690 0.956 . S
C678 H691 0.961 . S
C678 H692 0.961 . S
C679 C676 1.539 . S
C679 H693 0.958 . S
C679 H694 0.961 . S
C679 H695 0.960 . S
H680 C664 0.931 . S
H681 C669 0.929 . S
H682 C670 0.960 . S
H683 C670 0.962 . S
H684 C670 0.960 . S
H685 C671 0.961 . S
H686 C671 0.961 . S
H687 C671 0.961 . S
H688 C672 0.931 . S
H689 C677 0.930 . S
H690 C678 0.956 . S
H691 C678 0.961 . S
H692 C678 0.961 . S
H693 C679 0.958 . S
H694 C679 0.961 . S
H695 C679 0.960 . S
C696 C697 1.391 . S
C696 C698 1.394 . S
C696 H712 0.931 1_554 S
C697 C696 1.391 . S
C697 C701 1.376 . S
C698 C696 1.394 . S
C698 C699 1.369 . S
C698 C702 1.531 1_554 S
C699 C698 1.369 . S
C699 C700 1.410 . S
C699 C707 1.503 . S
C700 C699 1.410 . S
C700 C701 1.392 . S
C700 C703 1.511 . S
C701 C697 1.376 . S
C701 C700 1.392 . S
C701 H713 0.929 . S
C702 C698 1.531 1_556 S
C702 H714 0.960 . S
C702 H715 0.962 . S
C702 H716 0.960 . S
C703 C700 1.511 . S
C703 H717 0.961 . S
C703 H718 0.961 . S
C703 H719 0.961 . S
C704 C705 1.370 . S
C704 C706 1.363 . S
C704 H720 0.931 . S
C705 C704 1.370 . S
C705 C709 1.408 . S
C706 C704 1.363 . S
C706 C707 1.370 . S
C706 C710 1.524 . S
C707 C699 1.503 . S
C707 C706 1.370 . S
C707 C708 1.403 . S
C708 C707 1.403 . S
C708 C709 1.404 . S
C708 C711 1.539 1_554 S
C709 C705 1.408 . S
C709 C708 1.404 . S
C709 H721 0.930 1_554 S
C710 C706 1.524 . S
C710 H722 0.956 . S
C710 H723 0.961 . S
C710 H724 0.961 . S
C711 C708 1.539 1_556 S
C711 H725 0.958 . S
C711 H726 0.961 . S
C711 H727 0.960 . S
H712 C696 0.931 1_556 S
H713 C701 0.929 . S
H714 C702 0.960 . S
H715 C702 0.962 . S
H716 C702 0.960 . S
H717 C703 0.961 . S
H718 C703 0.961 . S
H719 C703 0.961 . S
H720 C704 0.931 . S
H721 C709 0.930 1_556 S
H722 C710 0.956 . S
H723 C710 0.961 . S
H724 C710 0.961 . S
H725 C711 0.958 . S
H726 C711 0.961 . S
H727 C711 0.960 . S
C728 C729 1.391 . S
C728 C730 1.394 . S
C728 H744 0.931 . S
C729 C728 1.391 . S
C729 C733 1.376 . S
C730 C728 1.394 . S
C730 C731 1.369 . S
C730 C734 1.531 . S
C731 C730 1.369 . S
C731 C732 1.410 1_455 S
C731 C739 1.503 1_455 S
C732 C731 1.410 1_655 S
C732 C733 1.392 1_655 S
C732 C735 1.511 . S
C733 C729 1.376 . S
C733 C732 1.392 1_455 S
C733 H745 0.929 . S
C734 C730 1.531 . S
C734 H746 0.960 . S
C734 H747 0.962 . S
C734 H748 0.960 . S
C735 C732 1.511 . S
C735 H749 0.961 . S
C735 H750 0.961 . S
C735 H751 0.961 . S
C736 C737 1.370 . S
C736 C738 1.363 1_655 S
C736 H752 0.931 1_655 S
C737 C736 1.370 . S
C737 C741 1.408 . S
C738 C736 1.363 1_455 S
C738 C739 1.370 1_455 S
C738 C742 1.524 . S
C739 C731 1.503 1_655 S
C739 C738 1.370 1_655 S
C739 C740 1.403 . S
C740 C739 1.403 . S
C740 C741 1.404 . S
C740 C743 1.539 . S
C741 C737 1.408 . S
C741 C740 1.404 . S
C741 H753 0.930 . S
C742 C738 1.524 . S
C742 H754 0.956 . S
C742 H755 0.961 . S
C742 H756 0.961 . S
C743 C740 1.539 . S
C743 H757 0.958 . S
C743 H758 0.961 . S
C743 H759 0.960 . S
H744 C728 0.931 . S
H745 C733 0.929 . S
H746 C734 0.960 . S
H747 C734 0.962 . S
H748 C734 0.960 . S
H749 C735 0.961 . S
H750 C735 0.961 . S
H751 C735 0.961 . S
H752 C736 0.931 1_455 S
H753 C741 0.930 . S
H754 C742 0.956 . S
H755 C742 0.961 . S
H756 C742 0.961 . S
H757 C743 0.958 . S
H758 C743 0.961 . S
H759 C743 0.960 . S
C760 C761 1.391 . S
C760 C762 1.394 1_545 S
C760 H776 0.931 1_545 S
C761 C760 1.391 . S
C761 C765 1.376 . S
C762 C760 1.394 1_565 S
C762 C763 1.369 1_565 S
C762 C766 1.531 . S
C763 C762 1.369 1_545 S
C763 C764 1.410 . S
C763 C771 1.503 1_545 S
C764 C763 1.410 . S
C764 C765 1.392 . S
C764 C767 1.511 . S
C765 C761 1.376 . S
C765 C764 1.392 . S
C765 H777 0.929 . S
C766 C762 1.531 . S
C766 H778 0.960 . S
C766 H779 0.962 . S
C766 H780 0.960 . S
C767 C764 1.511 . S
C767 H781 0.961 . S
C767 H782 0.961 . S
C767 H783 0.961 . S
C768 C769 1.370 . S
C768 C770 1.363 . S
C768 H784 0.931 . S
C769 C768 1.370 . S
C769 C773 1.408 . S
C770 C768 1.363 . S
C770 C771 1.370 . S
C770 C774 1.524 . S
C771 C763 1.503 1_565 S
C771 C770 1.370 . S
C771 C772 1.403 . S
C772 C771 1.403 . S
C772 C773 1.404 . S
C772 C775 1.539 . S
C773 C769 1.408 . S
C773 C772 1.404 . S
C773 H785 0.930 . S
C774 C770 1.524 . S
C774 H786 0.956 . S
C774 H787 0.961 1_565 S
C774 H788 0.961 . S
C775 C772 1.539 . S
C775 H789 0.958 . S
C775 H790 0.961 . S
C775 H791 0.960 1_565 S
H776 C760 0.931 1_565 S
H777 C765 0.929 . S
H778 C766 0.960 . S
H779 C766 0.962 . S
H780 C766 0.960 . S
H781 C767 0.961 . S
H782 C767 0.961 . S
H783 C767 0.961 . S
H784 C768 0.931 . S
H785 C773 0.930 . S
H786 C774 0.956 . S
H787 C774 0.961 1_545 S
H788 C774 0.961 . S
H789 C775 0.958 . S
H790 C775 0.961 . S
H791 C775 0.960 1_545 S
C792 C793 1.391 . S
C792 C794 1.394 . S
C792 H808 0.931 . S
C793 C792 1.391 . S
C793 C797 1.376 . S
C794 C792 1.394 . S
C794 C795 1.369 . S
C794 C798 1.531 . S
C795 C794 1.369 . S
C795 C796 1.410 . S
C795 C803 1.503 . S
C796 C795 1.410 . S
C796 C797 1.392 . S
C796 C799 1.511 . S
C797 C793 1.376 . S
C797 C796 1.392 . S
C797 H809 0.929 . S
C798 C794 1.531 . S
C798 H810 0.960 . S
C798 H811 0.962 . S
C798 H812 0.960 . S
C799 C796 1.511 . S
C799 H813 0.961 . S
C799 H814 0.961 . S
C799 H815 0.961 . S
C800 C801 1.370 . S
C800 C802 1.363 . S
C800 H816 0.931 . S
C801 C800 1.370 . S
C801 C805 1.408 . S
C802 C800 1.363 . S
C802 C803 1.370 . S
C802 C806 1.524 . S
C803 C795 1.503 . S
C803 C802 1.370 . S
C803 C804 1.403 . S
C804 C803 1.403 . S
C804 C805 1.404 . S
C804 C807 1.539 . S
C805 C801 1.408 . S
C805 C804 1.404 . S
C805 H817 0.930 . S
C806 C802 1.524 . S
C806 H818 0.956 . S
C806 H819 0.961 . S
C806 H820 0.961 . S
C807 C804 1.539 . S
C807 H821 0.958 . S
C807 H822 0.961 . S
C807 H823 0.960 . S
H808 C792 0.931 . S
H809 C797 0.929 . S
H810 C798 0.960 . S
H811 C798 0.962 . S
H812 C798 0.960 . S
H813 C799 0.961 . S
H814 C799 0.961 . S
H815 C799 0.961 . S
H816 C800 0.931 . S
H817 C805 0.930 . S
H818 C806 0.956 . S
H819 C806 0.961 . S
H820 C806 0.961 . S
H821 C807 0.958 . S
H822 C807 0.961 . S
H823 C807 0.960 . S
C824 C825 1.391 . S
C824 C826 1.394 . S
C824 H840 0.931 . S
C825 C824 1.391 . S
C825 C829 1.376 . S
C826 C824 1.394 . S
C826 C827 1.369 . S
C826 C830 1.531 . S
C827 C826 1.369 . S
C827 C828 1.410 1_455 S
C827 C835 1.503 1_455 S
C828 C827 1.410 1_655 S
C828 C829 1.392 1_655 S
C828 C831 1.511 1_554 S
C829 C825 1.376 . S
C829 C828 1.392 1_455 S
C829 H841 0.929 . S
C830 C826 1.531 . S
C830 H842 0.960 . S
C830 H843 0.962 . S
C830 H844 0.960 . S
C831 C828 1.511 1_556 S
C831 H845 0.962 . S
C831 H846 0.961 1_556 S
C831 H847 0.961 . S
C832 C833 1.370 . S
C832 C834 1.363 . S
C832 H848 0.931 . S
C833 C832 1.370 . S
C833 C837 1.408 1_554 S
C834 C832 1.363 . S
C834 C835 1.370 . S
C834 C838 1.524 . S
C835 C827 1.503 1_655 S
C835 C834 1.370 . S
C835 C836 1.403 1_554 S
C836 C835 1.403 1_556 S
C836 C837 1.404 . S
C836 C839 1.539 1_655 S
C837 C833 1.408 1_556 S
C837 C836 1.404 . S
C837 H849 0.930 . S
C838 C834 1.524 . S
C838 H850 0.956 1_655 S
C838 H851 0.961 . S
C838 H852 0.961 . S
C839 C836 1.539 1_455 S
C839 H853 0.958 . S
C839 H854 0.961 1_455 S
C839 H855 0.960 . S
H840 C824 0.931 . S
H841 C829 0.929 . S
H842 C830 0.960 . S
H843 C830 0.962 . S
H844 C830 0.960 . S
H845 C831 0.962 . S
H846 C831 0.961 1_554 S
H847 C831 0.961 . S
H848 C832 0.931 . S
H849 C837 0.930 . S
H850 C838 0.956 1_455 S
H851 C838 0.961 . S
H852 C838 0.961 . S
H853 C839 0.958 . S
H854 C839 0.961 1_655 S
H855 C839 0.960 . S
C856 C857 1.391 . S
C856 C858 1.394 1_565 S
C856 H872 0.931 . S
C857 C856 1.391 . S
C857 C861 1.376 . S
C858 C856 1.394 1_545 S
C858 C859 1.369 1_545 S
C858 C862 1.531 . S
C859 C858 1.369 1_565 S
C859 C860 1.410 . S
C859 C867 1.503 1_565 S
C860 C859 1.410 . S
C860 C861 1.392 . S
C860 C863 1.511 . S
C861 C857 1.376 . S
C861 C860 1.392 . S
C861 H873 0.929 . S
C862 C858 1.531 . S
C862 H874 0.960 . S
C862 H875 0.962 . S
C862 H876 0.960 . S
C863 C860 1.511 . S
C863 H877 0.961 . S
C863 H878 0.961 . S
C863 H879 0.961 . S
C864 C865 1.370 . S
C864 C866 1.363 . S
C864 H880 0.931 . S
C865 C864 1.370 . S
C865 C869 1.408 . S
C866 C864 1.363 . S
C866 C867 1.370 . S
C866 C870 1.524 . S
C867 C859 1.503 1_545 S
C867 C866 1.370 . S
C867 C868 1.403 . S
C868 C867 1.403 . S
C868 C869 1.404 . S
C868 C871 1.539 . S
C869 C865 1.408 . S
C869 C868 1.404 . S
C869 H881 0.930 . S
C870 C866 1.524 . S
C870 H882 0.956 . S
C870 H883 0.961 1_545 S
C870 H884 0.961 . S
C871 C868 1.539 . S
C871 H885 0.958 . S
C871 H886 0.961 . S
C871 H887 0.960 1_545 S
H872 C856 0.931 . S
H873 C861 0.929 . S
H874 C862 0.960 . S
H875 C862 0.962 . S
H876 C862 0.960 . S
H877 C863 0.961 . S
H878 C863 0.961 . S
H879 C863 0.961 . S
H880 C864 0.931 . S
H881 C869 0.930 . S
H882 C870 0.956 . S
H883 C870 0.961 1_565 S
H884 C870 0.961 . S
H885 C871 0.958 . S
H886 C871 0.961 . S
H887 C871 0.960 1_565 S
C888 C889 1.391 . S
C888 C890 1.394 . S
C888 H904 0.931 . S
C889 C888 1.391 . S
C889 C893 1.376 . S
C890 C888 1.394 . S
C890 C891 1.369 . S
C890 C894 1.531 . S
C891 C890 1.369 . S
C891 C892 1.410 . S
C891 C899 1.503 . S
C892 C891 1.410 . S
C892 C893 1.392 . S
C892 C895 1.511 . S
C893 C889 1.376 . S
C893 C892 1.392 . S
C893 H905 0.929 . S
C894 C890 1.531 . S
C894 H906 0.960 . S
C894 H907 0.962 . S
C894 H908 0.960 . S
C895 C892 1.511 . S
C895 H909 0.961 . S
C895 H910 0.961 . S
C895 H911 0.961 . S
C896 C897 1.370 . S
C896 C898 1.363 . S
C896 H912 0.931 . S
C897 C896 1.370 . S
C897 C901 1.408 . S
C898 C896 1.363 . S
C898 C899 1.370 . S
C898 C902 1.524 . S
C899 C891 1.503 . S
C899 C898 1.370 . S
C899 C900 1.403 . S
C900 C899 1.403 . S
C900 C901 1.404 . S
C900 C903 1.539 . S
C901 C897 1.408 . S
C901 C900 1.404 . S
C901 H913 0.930 . S
C902 C898 1.524 . S
C902 H914 0.956 . S
C902 H915 0.961 . S
C902 H916 0.961 . S
C903 C900 1.539 . S
C903 H917 0.958 . S
C903 H918 0.961 . S
C903 H919 0.960 . S
H904 C888 0.931 . S
H905 C893 0.929 . S
H906 C894 0.960 . S
H907 C894 0.962 . S
H908 C894 0.960 . S
H909 C895 0.961 . S
H910 C895 0.961 . S
H911 C895 0.961 . S
H912 C896 0.931 . S
H913 C901 0.930 . S
H914 C902 0.956 . S
H915 C902 0.961 . S
H916 C902 0.961 . S
H917 C903 0.958 . S
H918 C903 0.961 . S
H919 C903 0.960 . S
C920 C921 1.391 . S
C920 C922 1.394 . S
C920 H936 0.931 1_455 S
C921 C920 1.391 . S
C921 C925 1.376 . S
C922 C920 1.394 . S
C922 C923 1.369 . S
C922 C926 1.542 . S
C923 C922 1.369 . S
C923 C924 1.410 . S
C923 C931 1.503 . S
C924 C923 1.410 . S
C924 C925 1.392 . S
C924 C927 1.511 . S
C925 C921 1.376 . S
C925 C924 1.392 . S
C925 H937 0.929 . S
C926 C922 1.542 . S
C926 H938 0.967 . S
C926 H939 0.960 1_455 S
C926 H940 0.945 1_455 S
C927 C924 1.511 . S
C927 H941 0.961 . S
C927 H942 0.961 . S
C927 H943 0.961 . S
C928 C929 1.370 . S
C928 C930 1.363 . S
C928 H944 0.931 . S
C929 C928 1.370 . S
C929 C933 1.408 . S
C930 C928 1.363 . S
C930 C931 1.370 . S
C930 C934 1.524 . S
C931 C923 1.503 . S
C931 C930 1.370 . S
C931 C932 1.403 . S
C932 C931 1.403 . S
C932 C933 1.404 . S
C932 C935 1.539 . S
C933 C929 1.408 . S
C933 C932 1.404 . S
C933 H945 0.930 . S
C934 C930 1.524 . S
C934 H946 0.956 . S
C934 H947 0.961 . S
C934 H948 0.961 . S
C935 C932 1.539 . S
C935 H949 0.958 . S
C935 H950 0.961 . S
C935 H951 0.960 . S
H936 C920 0.931 1_655 S
H937 C925 0.929 . S
H938 C926 0.967 . S
H939 C926 0.960 1_655 S
H940 C926 0.945 1_655 S
H941 C927 0.961 . S
H942 C927 0.961 . S
H943 C927 0.961 . S
H944 C928 0.931 . S
H945 C933 0.930 . S
H946 C934 0.956 . S
H947 C934 0.961 . S
H948 C934 0.961 . S
H949 C935 0.958 . S
H950 C935 0.961 . S
H951 C935 0.960 . S
C952 C953 1.391 . S
C952 C954 1.394 . S
C952 H968 0.931 . S
C953 C952 1.391 . S
C953 C957 1.376 . S
C954 C952 1.394 . S
C954 C955 1.369 . S
C954 C958 1.531 . S
C955 C954 1.369 . S
C955 C956 1.410 . S
C955 C963 1.503 . S
C956 C955 1.410 . S
C956 C957 1.392 . S
C956 C959 1.511 . S
C957 C953 1.376 . S
C957 C956 1.392 . S
C957 H969 0.929 1_545 S
C958 C954 1.531 . S
C958 H970 0.960 . S
C958 H971 0.962 . S
C958 H972 0.960 . S
C959 C956 1.511 . S
C959 H973 0.961 1_545 S
C959 H974 0.961 . S
C959 H975 0.961 . S
C960 C961 1.370 . S
C960 C962 1.363 . S
C960 H976 0.931 . S
C961 C960 1.370 . S
C961 C965 1.408 . S
C962 C960 1.363 . S
C962 C963 1.370 . S
C962 C966 1.524 . S
C963 C955 1.503 . S
C963 C962 1.370 . S
C963 C964 1.403 . S
C964 C963 1.403 . S
C964 C965 1.404 . S
C964 C967 1.539 . S
C965 C961 1.408 . S
C965 C964 1.404 . S
C965 H977 0.930 . S
C966 C962 1.524 . S
C966 H978 0.956 . S
C966 H979 0.961 . S
C966 H980 0.961 . S
C967 C964 1.539 . S
C967 H981 0.958 . S
C967 H982 0.961 . S
C967 H983 0.960 . S
H968 C952 0.931 . S
H969 C957 0.929 1_565 S
H970 C958 0.960 . S
H971 C958 0.962 . S
H972 C958 0.960 . S
H973 C959 0.961 1_565 S
H974 C959 0.961 . S
H975 C959 0.961 . S
H976 C960 0.931 . S
H977 C965 0.930 . S
H978 C966 0.956 . S
H979 C966 0.961 . S
H980 C966 0.961 . S
H981 C967 0.958 . S
H982 C967 0.961 . S
H983 C967 0.960 . S
C984 C985 1.391 . S
C984 C986 1.394 . S
C984 H1000 0.931 . S
C985 C984 1.391 . S
C985 C989 1.376 . S
C986 C984 1.394 . S
C986 C987 1.369 . S
C986 C990 1.531 . S
C987 C986 1.369 . S
C987 C988 1.410 . S
C987 C995 1.503 . S
C988 C987 1.410 . S
C988 C989 1.392 . S
C988 C991 1.511 . S
C989 C985 1.376 . S
C989 C988 1.392 . S
C989 H1001 0.929 . S
C990 C986 1.531 . S
C990 H1002 0.960 . S
C990 H1003 0.962 . S
C990 H1004 0.960 . S
C991 C988 1.511 . S
C991 H1005 0.961 . S
C991 H1006 0.961 . S
C991 H1007 0.961 . S
C992 C993 1.370 . S
C992 C994 1.363 . S
C992 H1008 0.931 . S
C993 C992 1.370 . S
C993 C997 1.408 . S
C994 C992 1.363 . S
C994 C995 1.370 . S
C994 C998 1.524 . S
C995 C987 1.503 . S
C995 C994 1.370 . S
C995 C996 1.403 . S
C996 C995 1.403 . S
C996 C997 1.404 . S
C996 C999 1.539 . S
C997 C993 1.408 . S
C997 C996 1.404 . S
C997 H1009 0.930 . S
C998 C994 1.524 . S
C998 H1010 0.956 . S
C998 H1011 0.961 . S
C998 H1012 0.961 . S
C999 C996 1.539 . S
C999 H1013 0.958 . S
C999 H1014 0.961 . S
C999 H1015 0.960 . S
H1000 C984 0.931 . S
H1001 C989 0.929 . S
H1002 C990 0.960 . S
H1003 C990 0.962 . S
H1004 C990 0.960 . S
H1005 C991 0.961 . S
H1006 C991 0.961 . S
H1007 C991 0.961 . S
H1008 C992 0.931 . S
H1009 C997 0.930 . S
H1010 C998 0.956 . S
H1011 C998 0.961 . S
H1012 C998 0.961 . S
H1013 C999 0.958 . S
H1014 C999 0.961 . S
H1015 C999 0.960 . S
C1016 C1017 1.391 . S
C1016 C1018 1.394 . S
C1016 H1032 0.931 . S
C1017 C1016 1.391 . S
C1017 C1021 1.376 . S
C1018 C1016 1.394 . S
C1018 C1019 1.369 . S
C1018 C1022 1.531 . S
C1019 C1018 1.369 . S
C1019 C1020 1.410 . S
C1019 C1027 1.503 . S
C1020 C1019 1.410 . S
C1020 C1021 1.392 . S
C1020 C1023 1.511 . S
C1021 C1017 1.376 . S
C1021 C1020 1.392 . S
C1021 H1033 0.929 1_655 S
C1022 C1018 1.531 . S
C1022 H1034 0.960 . S
C1022 H1035 0.962 . S
C1022 H1036 0.960 . S
C1023 C1020 1.511 . S
C1023 H1037 0.948 1_655 S
C1023 H1038 0.961 . S
C1023 H1039 0.961 1_655 S
C1024 C1025 1.370 . S
C1024 C1026 1.363 . S
C1024 H1040 0.931 . S
C1025 C1024 1.370 . S
C1025 C1029 1.408 . S
C1026 C1024 1.363 . S
C1026 C1027 1.370 . S
C1026 C1030 1.524 . S
C1027 C1019 1.503 . S
C1027 C1026 1.370 . S
C1027 C1028 1.403 . S
C1028 C1027 1.403 . S
C1028 C1029 1.404 . S
C1028 C1031 1.539 . S
C1029 C1025 1.408 . S
C1029 C1028 1.404 . S
C1029 H1041 0.930 . S
C1030 C1026 1.524 . S
C1030 H1042 0.956 . S
C1030 H1043 0.961 . S
C1030 H1044 0.961 . S
C1031 C1028 1.539 . S
C1031 H1045 0.958 . S
C1031 H1046 0.961 . S
C1031 H1047 0.964 . S
H1032 C1016 0.931 . S
H1033 C1021 0.929 1_455 S
H1034 C1022 0.960 . S
H1035 C1022 0.962 . S
H1036 C1022 0.960 . S
H1037 C1023 0.948 1_455 S
H1038 C1023 0.961 . S
H1039 C1023 0.961 1_455 S
H1040 C1024 0.931 . S
H1041 C1029 0.930 . S
H1042 C1030 0.956 . S
H1043 C1030 0.961 . S
H1044 C1030 0.961 . S
H1045 C1031 0.958 . S
H1046 C1031 0.961 . S
H1047 C1031 0.964 . S
C1048 C1049 1.391 1_545 S
C1048 C1050 1.394 1_545 S
C1048 H1064 0.931 . S
C1049 C1048 1.391 1_565 S
C1049 C1053 1.376 . S
C1050 C1048 1.394 1_565 S
C1050 C1051 1.369 . S
C1050 C1054 1.531 1_565 S
C1051 C1050 1.369 . S
C1051 C1052 1.410 . S
C1051 C1059 1.503 . S
C1052 C1051 1.410 . S
C1052 C1053 1.392 . S
C1052 C1055 1.511 . S
C1053 C1049 1.376 . S
C1053 C1052 1.392 . S
C1053 H1065 0.929 . S
C1054 C1050 1.531 1_545 S
C1054 H1066 0.971 . S
C1054 H1067 0.962 . S
C1054 H1068 0.960 . S
C1055 C1052 1.511 . S
C1055 H1069 0.961 . S
C1055 H1070 0.961 . S
C1055 H1071 0.961 . S
C1056 C1057 1.370 . S
C1056 C1058 1.363 . S
C1056 H1072 0.931 . S
C1057 C1056 1.370 . S
C1057 C1061 1.408 . S
C1058 C1056 1.363 . S
C1058 C1059 1.370 . S
C1058 C1062 1.524 . S
C1059 C1051 1.503 . S
C1059 C1058 1.370 . S
C1059 C1060 1.403 . S
C1060 C1059 1.403 . S
C1060 C1061 1.404 . S
C1060 C1063 1.539 . S
C1061 C1057 1.408 . S
C1061 C1060 1.404 . S
C1061 H1073 0.930 . S
C1062 C1058 1.524 . S
C1062 H1074 0.956 . S
C1062 H1075 0.961 . S
C1062 H1076 0.961 . S
C1063 C1060 1.539 . S
C1063 H1077 0.958 . S
C1063 H1078 0.961 . S
C1063 H1079 0.960 . S
H1064 C1048 0.931 . S
H1065 C1053 0.929 . S
H1066 C1054 0.971 . S
H1067 C1054 0.962 . S
H1068 C1054 0.960 . S
H1069 C1055 0.961 . S
H1070 C1055 0.961 . S
H1071 C1055 0.961 . S
H1072 C1056 0.931 . S
H1073 C1061 0.930 . S
H1074 C1062 0.956 . S
H1075 C1062 0.961 . S
H1076 C1062 0.961 . S
H1077 C1063 0.958 . S
H1078 C1063 0.961 . S
H1079 C1063 0.960 . S
C505 C403 1.114 . S
C513 C69 1.012 . S
C537 C487 1.158 . S
C545 C153 0.957 . S
C569 C67 1.143 . S
C577 C237 0.990 . S
C601 C151 1.174 . S
C609 C321 0.950 . S
C633 C235 1.169 . S
C641 C405 0.947 . S
C665 C319 1.114 . S
C673 C489 1.012 . S
C697 C63 1.433 . S
C705 C315 1.478 . S
C729 C399 1.482 . S
C737 C147 1.441 . S
C761 C483 1.471 . S
C769 C231 1.468 . S
C793 C242 1.645 . S
C801 C494 1.666 . S
C825 C74 1.646 . S
C833 C326 1.660 . S
C857 C410 1.673 . S
C865 C158 1.671 . S
C889 C476 1.113 . S
C897 C58 0.994 . S
C921 C142 1.062 1_455 S
C929 C56 1.071 . S
C953 C226 1.031 1_545 S
C961 C140 1.095 . S
C985 C224 1.042 . S
C993 C310 0.996 . S
C1017 C394 0.934 1_655 S
C1025 C308 1.083 . S
C1049 C478 1.016 1_565 S
C1057 C392 1.064 . S
