# Generated by pormake.
# Topology fnu, (5)-cn, num edge types: 1
# Building blocks:
#     Node 0, Type 0, BuildingBlock: XOMCOT_clean_sbu_0, # of connection points: 5
#     Node 1, Type 0, BuildingBlock: XOMCOT_clean_sbu_0, # of connection points: 5
#     Node 2, Type 0, BuildingBlock: XOMCOT_clean_sbu_0, # of connection points: 5
#     Node 3, Type 0, BuildingBlock: XOMCOT_clean_sbu_0, # of connection points: 5
#     Node 4, Type 0, BuildingBlock: XOMCOT_clean_sbu_0, # of connection points: 5
#     Node 5, Type 0, BuildingBlock: XOMCOT_clean_sbu_0, # of connection points: 5
#     Edge 6, Type (0, 0), BuildingBlock: XIVTED_clean_linker_0, # of connection points: 2
#     Edge 7, Type (0, 0), BuildingBlock: XIVTED_clean_linker_0, # of connection points: 2
#     Edge 8, Type (0, 0), BuildingBlock: XIVTED_clean_linker_0, # of connection points: 2
#     Edge 9, Type (0, 0), BuildingBlock: XIVTED_clean_linker_0, # of connection points: 2
#     Edge 10, Type (0, 0), BuildingBlock: XIVTED_clean_linker_0, # of connection points: 2
#     Edge 11, Type (0, 0), BuildingBlock: XIVTED_clean_linker_0, # of connection points: 2
#     Edge 12, Type (0, 0), BuildingBlock: XIVTED_clean_linker_0, # of connection points: 2
#     Edge 13, Type (0, 0), BuildingBlock: XIVTED_clean_linker_0, # of connection points: 2
#     Edge 14, Type (0, 0), BuildingBlock: XIVTED_clean_linker_0, # of connection points: 2
#     Edge 15, Type (0, 0), BuildingBlock: XIVTED_clean_linker_0, # of connection points: 2
#     Edge 16, Type (0, 0), BuildingBlock: XIVTED_clean_linker_0, # of connection points: 2
#     Edge 17, Type (0, 0), BuildingBlock: XIVTED_clean_linker_0, # of connection points: 2
#     Edge 18, Type (0, 0), BuildingBlock: XIVTED_clean_linker_0, # of connection points: 2
#     Edge 19, Type (0, 0), BuildingBlock: XIVTED_clean_linker_0, # of connection points: 2
#     Edge 20, Type (0, 0), BuildingBlock: XIVTED_clean_linker_0, # of connection points: 2
# Relax obj value: 0.175
# Max RMSD: 0.131
# Mean RMSD: 0.131
data_MOF--net-fnu--node1-XOMCOT_clean_sbu_0--edge1-XIVTED_clean_linker_0
_symmetry_space_group_name_H-M    P1
_symmetry_Int_Tables_number       1
_symmetry_cell_setting            triclinic
loop_
_symmetry_equiv_pos_as_xyz
'x, y, z'
_cell_length_a     25.867464
_cell_length_b     28.441642
_cell_length_c     33.770932
_cell_angle_alpha  90.216321
_cell_angle_beta   97.806516
_cell_angle_gamma 123.01818
loop_
_atom_site_label
_atom_site_type_symbol
_atom_site_fract_x
_atom_site_fract_y
_atom_site_fract_z
_atom_type_partial_charge
Co0 Co 0.09319 0.0548 0.2469 0.0
C1 C 0.09678 0.04015 0.33392 0.0
C2 C 0.18834 0.08214 0.31786 0.0
C3 C 0.19372 0.07893 0.35868 0.0
N4 N 0.12758 0.05796 0.30227 0.0
N5 N 0.13621 0.05283 0.3689 0.0
H6 H 1.04682 1.02004 0.33157 0.0
H7 H 0.22669 0.10195 0.30118 0.0
C8 C 0.19179 0.07818 0.19622 0.0
O9 O 0.14742 0.04375 0.16672 0.0
N10 N 1.05767 0.05245 0.19214 0.0
C11 C 1.0007 1.01277 0.17192 0.0
C12 C 0.98984 1.03273 0.13694 0.0
C13 C 0.07961 0.09657 0.16974 0.0
N14 N 1.03949 0.08546 0.13567 0.0
C15 C 1.00381 0.93549 0.24153 0.0
C16 C 0.07581 0.9028 0.21319 0.0
C17 C 1.01116 0.86315 0.20986 0.0
C18 C 0.97597 0.87952 0.22667 0.0
C19 C 0.10189 0.95835 0.22883 0.0
N20 N 0.06472 0.97532 0.239 0.0
H21 H 0.97466 0.94728 0.25229 0.0
H22 H 0.15164 0.98743 0.23148 0.0
H23 H 0.96779 0.97286 0.18203 0.0
H24 H 0.12378 0.13633 0.17868 0.0
O25 O 1.01928 0.04625 0.26256 0.0
O26 O 0.1058 0.12768 0.25705 0.0
O27 O 0.17798 0.0837 0.23029 0.0
C28 C 1.04779 0.10059 0.26237 0.0
H29 H 0.23696 0.09504 0.37923 0.0
H30 H 0.94884 1.00972 0.11396 0.0
H31 H 0.10582 0.89201 0.20221 0.0
H32 H 0.92663 0.84987 0.2271 0.0
Co33 Co 0.06726 0.04773 0.76625 0.0
C34 C 0.0642 1.02378 0.68046 0.0
C35 C 0.9722 0.9902 0.69397 0.0
C36 C 0.96765 0.98073 0.65327 0.0
N37 N 1.03268 1.01698 0.71099 0.0
N38 N 1.02554 1.00209 0.64467 0.0
H39 H 0.11451 0.04539 0.68435 0.0
H40 H 0.93419 0.98038 0.70963 0.0
C41 C 0.9695 0.97238 0.81681 0.0
O42 O 1.01433 0.98241 0.84602 0.0
N43 N 0.10298 0.08076 0.82106 0.0
C44 C 0.16036 0.09847 0.84096 0.0
C45 C 0.17075 0.12855 0.87632 0.0
C46 C 0.08036 0.10208 0.844 0.0
N47 N 0.12039 0.1308 0.87816 0.0
C48 C 0.15784 1.01849 0.77101 0.0
C49 C 0.08735 0.91462 0.79959 0.0
C50 C 0.15221 0.94004 0.80309 0.0
C51 C 0.1866 0.99108 0.78604 0.0
C52 C 1.06033 0.94333 0.78371 0.0
N53 N 0.09675 0.99717 0.77355 0.0
H54 H 0.18647 0.05917 0.76024 0.0
H55 H 1.01048 0.9224 0.78099 0.0
H56 H 0.19379 0.09217 0.83041 0.0
H57 H 1.03565 0.09709 0.83546 0.0
O58 O 0.1405 0.11273 0.75037 0.0
O59 O 1.05373 0.10759 0.75668 0.0
O60 O 0.98272 0.99166 0.78275 0.0
C61 C 0.11148 0.1383 0.75088 0.0
H62 H 0.92519 0.96209 0.6315 0.0
H63 H 0.21186 0.14648 0.89921 0.0
H64 H 1.05789 0.87414 0.81069 0.0
H65 H 0.23606 1.01103 0.78565 0.0
Co66 Co 0.75865 0.39088 0.57758 0.0
C67 C 0.76463 0.375 0.66407 0.0
C68 C 0.85607 0.42789 0.64836 0.0
C69 C 0.8623 0.42461 0.6892 0.0
N70 N 0.79489 0.39677 0.63268 0.0
N71 N 0.80477 0.3916 0.69917 0.0
H72 H 0.71424 0.34938 0.66138 0.0
H73 H 0.89368 0.45256 0.63158 0.0
C74 C 0.84871 0.39722 0.52674 0.0
O75 O 0.80044 0.35701 0.50179 0.0
N76 N 0.72227 0.38686 0.52261 0.0
C77 C 0.66273 0.35188 0.50386 0.0
C78 C 0.65486 0.37231 0.46835 0.0
C79 C 0.7489 0.42886 0.4987 0.0
N80 N 0.70904 0.42092 0.46528 0.0
C81 C 0.66377 0.27271 0.57024 0.0
C82 C 0.73876 0.23434 0.55884 0.0
C83 C 0.67352 0.19647 0.54965 0.0
C84 C 0.63617 0.21609 0.55757 0.0
C85 C 0.76431 0.29103 0.57119 0.0
N86 N 0.72651 0.31049 0.57271 0.0
H87 H 0.63384 0.28665 0.57571 0.0
H88 H 0.81447 0.3193 0.57818 0.0
H89 H 0.62589 0.31565 0.51539 0.0
H90 H 0.79598 0.46565 0.50661 0.0
O91 O 0.68798 0.38756 0.59425 0.0
O92 O 0.77573 0.46577 0.58516 0.0
O93 O 0.84047 0.41341 0.55943 0.0
C94 C 0.71867 0.44173 0.59198 0.0
H95 H 0.906 0.44557 0.70992 0.0
H96 H 0.61231 0.35273 0.4466 0.0
H97 H 0.76992 0.22075 0.55578 0.0
H98 H 0.58568 0.18899 0.55211 0.0
Co99 Co 0.73774 0.37735 0.0975 0.0
C100 C 0.73651 0.35586 0.01181 0.0
C101 C 0.64369 0.31989 0.02457 0.0
C102 C 0.64022 0.31148 0.98385 0.0
N103 N 0.70405 0.34755 0.04204 0.0
N104 N 0.69865 0.33441 0.97578 0.0
H105 H 0.78693 0.37838 0.01609 0.0
H106 H 0.60498 0.30868 0.03992 0.0
C107 C 0.63849 0.30246 0.14734 0.0
O108 O 0.68271 0.31298 0.17719 0.0
N109 N 0.77296 0.40947 0.15249 0.0
C110 C 0.82946 0.42513 0.17275 0.0
C111 C 0.84105 0.45632 0.2078 0.0
C112 C 0.75199 0.4329 0.17496 0.0
N113 N 0.79235 0.46127 0.20907 0.0
C114 C 0.82726 0.34696 0.10102 0.0
C115 C 0.75754 0.2443 0.13137 0.0
C116 C 0.82213 0.26916 0.13381 0.0
C117 C 0.85606 0.31952 0.11591 0.0
C118 C 0.73045 0.27299 0.11564 0.0
N119 N 0.76662 0.32632 0.10454 0.0
H120 H 0.85561 0.38724 0.08964 0.0
H121 H 0.6808 0.25242 0.11376 0.0
H122 H 0.86161 0.41673 0.16264 0.0
H123 H 0.7084 0.42986 0.16604 0.0
O124 O 0.81165 0.44267 0.08244 0.0
O125 O 0.72478 0.43762 0.08823 0.0
O126 O 0.65261 0.32121 0.11327 0.0
C127 C 0.78278 0.46839 0.08295 0.0
H128 H 0.59811 0.29251 0.96172 0.0
H129 H 0.88186 0.47325 0.23083 0.0
H130 H 0.7284 0.20434 0.1432 0.0
H131 H 0.90525 0.33898 0.11479 0.0
Co132 Co 0.42322 0.7256 0.91391 0.0
C133 C 0.4277 0.71293 1.00111 0.0
C134 C 0.5163 0.74224 0.98341 0.0
C135 C 0.52169 0.73815 0.02417 0.0
N136 N 0.45742 0.72675 0.96894 0.0
N137 N 0.46601 0.71986 0.03533 0.0
H138 H 0.37937 0.69911 0.9997 0.0
H139 H 0.55322 0.75569 0.9659 0.0
C140 C 0.52123 0.75012 0.8626 0.0
O141 O 0.47642 0.71615 0.83314 0.0
N142 N 0.38777 0.72495 0.85957 0.0
C143 C 0.33097 0.68559 0.83902 0.0
C144 C 0.32014 0.70654 0.8046 0.0
C145 C 0.40964 0.76988 0.83798 0.0
N146 N 0.36963 0.75961 0.80402 0.0
C147 C 0.33367 0.60627 0.90718 0.0
C148 C 0.40556 0.57402 0.87806 0.0
C149 C 0.34095 0.53427 0.87491 0.0
C150 C 0.30583 0.55043 0.89205 0.0
C151 C 0.43165 0.62946 0.894 0.0
N152 N 0.39453 0.64623 0.90461 0.0
H153 H 0.30457 0.61783 0.91832 0.0
H154 H 0.48139 0.65856 0.89664 0.0
H155 H 0.29823 0.6451 0.84847 0.0
H156 H 0.45378 0.80949 0.84737 0.0
O157 O 0.34926 0.71644 0.92999 0.0
O158 O 0.43592 0.79827 0.92555 0.0
O159 O 0.50798 0.7552 0.89699 0.0
C160 C 0.37778 0.77086 0.93063 0.0
H161 H 0.56342 0.74757 0.04395 0.0
H162 H 0.27939 0.68383 0.78143 0.0
H163 H 0.43552 0.56337 0.86682 0.0
H164 H 0.25656 0.52067 0.89264 0.0
Co165 Co 0.3942 0.71087 0.43366 0.0
C166 C 0.3919 0.68789 0.34674 0.0
C167 C 0.30333 0.66738 0.35938 0.0
C168 C 0.29889 0.65995 0.31857 0.0
N169 N 0.36111 0.6834 0.37734 0.0
N170 N 0.35465 0.673 0.31053 0.0
H171 H 0.44115 0.70458 0.35046 0.0
H172 H 0.26771 0.6645 0.37464 0.0
C173 C 0.26981 0.60351 0.43764 0.0
O174 O 0.28264 0.57754 0.4123 0.0
N175 N 0.42698 0.74023 0.48886 0.0
C176 C 0.48449 0.75792 0.50825 0.0
C177 C 0.49437 0.78643 0.54429 0.0
C178 C 0.40295 0.75869 0.51278 0.0
N179 N 0.44324 0.7873 0.54692 0.0
C180 C 0.47085 0.66708 0.42682 0.0
C181 C 0.4303 0.59723 0.48788 0.0
C182 C 0.48185 0.60573 0.47216 0.0
C183 C 0.50128 0.64041 0.44062 0.0
C184 C 0.40152 0.62479 0.47343 0.0
N185 N 0.42136 0.65913 0.44305 0.0
H186 H 0.49055 0.69757 0.40542 0.0
H187 H 0.3668 0.62213 0.48943 0.0
H188 H 0.51774 0.75228 0.49638 0.0
H189 H 0.35807 0.75338 0.50436 0.0
O190 O 0.46998 0.77599 0.42003 0.0
O191 O 0.38309 0.77178 0.42487 0.0
O192 O 0.30935 0.65575 0.44915 0.0
C193 C 0.44158 0.80228 0.42066 0.0
H194 H 0.2588 0.64931 0.29644 0.0
H195 H 0.53603 0.80495 0.56673 0.0
H196 H 0.41486 0.57262 0.5132 0.0
H197 H 0.54127 0.64872 0.42771 0.0
H198 H 0.29888 0.1407 0.25222 0.0
H199 H 0.53154 0.25423 0.0906 0.0
H200 H 0.23621 0.08916 0.1253 0.0
H201 H 0.59377 0.27184 0.21817 0.0
H202 H 0.42295 0.19882 0.10239 0.0
H203 H 0.4071 0.19413 0.24013 0.0
C204 C 0.30774 0.14042 0.22184 0.0
C205 C 0.25809 0.11001 0.18981 0.0
C206 C 0.46043 0.21468 0.12777 0.0
C207 C 0.3823 0.17178 0.17564 0.0
C208 C 0.52249 0.24644 0.12106 0.0
C209 C 0.57208 0.26768 0.15339 0.0
C210 C 0.44769 0.20457 0.16716 0.0
C211 C 0.55724 0.25612 0.19223 0.0
C212 C 0.36966 0.17095 0.21494 0.0
C213 C 0.2728 0.11157 0.15102 0.0
N214 N 0.49661 0.22567 0.19801 0.0
N215 N 0.33338 0.14205 0.14503 0.0
H216 H 0.92074 0.04874 0.24805 0.0
H217 H 0.93909 0.32592 0.17966 0.0
H218 H 0.09298 0.21261 0.25907 0.0
H219 H 0.77939 0.15715 0.14157 0.0
H220 H 0.99178 0.28673 0.2176 0.0
H221 H 0.86361 0.09013 0.22017 0.0
C222 C 0.94644 0.09373 0.24569 0.0
C223 C 1.0119 0.12724 0.2559 0.0
C224 C 0.94519 0.25827 0.20096 0.0
C225 C 0.9467 0.17465 0.22322 0.0
C226 C 0.91514 0.28058 0.17882 0.0
C227 C 0.85468 0.24494 0.15668 0.0
C228 C 0.91467 0.19973 0.2015 0.0
C229 C 0.82567 0.18651 0.1582 0.0
C230 C 0.91379 0.11717 0.22927 0.0
C231 C 1.04259 0.18516 0.25165 0.0
N232 N 0.85594 0.1658 0.18012 0.0
N233 N 1.00983 0.20692 0.23535 0.0
H234 H 0.73641 0.53487 0.08407 0.0
H235 H 1.05552 0.79431 0.20493 0.0
H236 H 0.90959 0.54315 0.09953 0.0
H237 H 0.89546 0.80227 0.1625 0.0
H238 H 1.00309 0.70241 0.16658 0.0
H239 H 0.79408 0.63347 0.11128 0.0
C240 C 0.78676 0.55781 0.09224 0.0
C241 C 0.81814 0.53063 0.08944 0.0
C242 C 0.9796 0.72444 0.1656 0.0
C243 C 0.88434 0.64315 0.12186 0.0
C244 C 1.00958 0.77708 0.18751 0.0
C245 C 0.97989 0.80632 0.18746 0.0
C246 C 0.91924 0.70047 0.14358 0.0
C247 C 0.91985 0.78105 0.16447 0.0
C248 C 0.81967 0.61404 0.10809 0.0
C249 C 0.88344 0.5624 0.1009 0.0
N250 N 0.89153 0.72967 0.14374 0.0
N251 N 0.91421 0.61666 0.11717 0.0
H252 H 0.06485 0.20459 0.75208 0.0
H253 H 0.38553 0.46567 0.86962 0.0
H254 H 0.23828 0.2134 0.76575 0.0
H255 H 0.22492 0.47313 0.82801 0.0
H256 H 0.33268 0.37343 0.8317 0.0
H257 H 0.12287 0.30363 0.77828 0.0
C258 C 0.1153 0.22772 0.75964 0.0
C259 C 0.14667 0.20057 0.75667 0.0
C260 C 0.30918 0.39544 0.83079 0.0
C261 C 0.21329 0.3136 0.78792 0.0
C262 C 0.3394 0.44827 0.85245 0.0
C263 C 0.30965 0.47744 0.85254 0.0
C264 C 0.24852 0.37121 0.80917 0.0
C265 C 0.24936 0.45197 0.82987 0.0
C266 C 0.14841 0.2842 0.7749 0.0
C267 C 0.21211 0.2326 0.76731 0.0
N268 N 0.2208 0.40039 0.8094 0.0
N269 N 0.24311 0.28711 0.78304 0.0
H270 H 0.56407 0.76148 0.79116 0.0
H271 H 0.92669 0.9413 0.8882 0.0
H272 H 0.62939 0.81113 0.91814 0.0
H273 H 0.86141 0.92554 0.76126 0.0
H274 H 0.81831 0.88692 0.89962 0.0
H275 H 0.67242 0.81444 0.77973 0.0
C276 C 0.60114 0.78326 0.81674 0.0
C277 C 0.5873 0.78155 0.85576 0.0
C278 C 0.82764 0.89529 0.86926 0.0
C279 C 0.71206 0.84252 0.84273 0.0
C280 C 0.88961 0.92618 0.86263 0.0
C281 C 0.90344 0.93805 0.82363 0.0
C282 C 0.77869 0.87546 0.83665 0.0
C283 C 0.85316 0.91756 0.79182 0.0
C284 C 0.66311 0.81374 0.81011 0.0
C285 C 0.6376 0.8111 0.88757 0.0
N286 N 0.79314 0.88717 0.79902 0.0
N287 N 0.69763 0.84014 0.88037 0.0
H288 H 0.26812 0.9965 0.85031 0.0
H289 H 0.25071 0.71876 0.916 0.0
H290 H 0.10997 0.82788 0.80969 0.0
H291 H 0.42266 0.883 0.9283 0.0
H292 H 0.19347 0.76019 0.88846 0.0
H293 H 0.32067 0.95705 0.88805 0.0
C294 C 0.24447 0.95114 0.84888 0.0
C295 C 0.18452 0.91564 0.82605 0.0
C296 C 0.2436 0.7873 0.89777 0.0
C297 C 0.24433 0.8701 0.87066 0.0
C298 C 0.27632 0.76382 0.91402 0.0
C299 C 0.34175 0.79744 0.92448 0.0
C300 C 0.2764 0.84492 0.89219 0.0
C301 C 0.37231 0.85546 0.92069 0.0
C302 C 0.27445 0.92868 0.8709 0.0
C303 C 0.15585 0.85714 0.82685 0.0
N304 N 0.33948 0.87726 0.90458 0.0
N305 N 0.18604 0.83628 0.84867 0.0
H306 H 0.88453 0.36461 0.46511 0.0
H307 H 0.23335 0.63944 0.49735 0.0
H308 H 0.95794 0.49325 0.56335 0.0
H309 H 0.1682 0.49642 0.41306 0.0
H310 H 0.13264 0.58801 0.5211 0.0
H311 H 0.98758 0.41329 0.44503 0.0
C312 C 0.92237 0.40298 0.48264 0.0
C313 C 0.91232 0.42482 0.516 0.0
C314 C 0.14045 0.5678 0.49751 0.0
C315 C 1.03092 0.48129 0.49282 0.0
C316 C 0.19795 0.59721 0.48382 0.0
C317 C 0.20938 0.57234 0.45301 0.0
C318 C 0.09361 0.51318 0.4801 0.0
C319 C 0.16166 0.51737 0.43684 0.0
C320 C 0.98135 0.43079 0.47112 0.0
C321 C 0.96343 0.47474 0.53749 0.0
N322 N 0.10592 0.48984 0.45041 0.0
N323 N 1.02033 0.50144 0.52539 0.0
H324 H 0.59438 0.39791 0.59155 0.0
H325 H 0.60938 0.65711 0.48767 0.0
H326 H 0.76635 0.55071 0.57492 0.0
H327 H 0.43722 0.50236 0.50136 0.0
H328 H 0.66786 0.62091 0.52268 0.0
H329 H 0.53667 0.43908 0.56452 0.0
C330 C 0.62022 0.44065 0.58316 0.0
C331 C 0.6854 0.47082 0.5855 0.0
C332 C 0.61728 0.59484 0.51804 0.0
C333 C 0.61931 0.51778 0.55349 0.0
C334 C 0.58375 0.61524 0.49759 0.0
C335 C 0.51806 0.5827 0.49125 0.0
C336 C 0.58511 0.54139 0.5324 0.0
C337 C 0.48772 0.52923 0.50577 0.0
C338 C 0.58711 0.46395 0.56729 0.0
C339 C 0.71618 0.52587 0.57376 0.0
N340 N 0.52141 0.5103 0.52557 0.0
N341 N 0.68286 0.5473 0.55789 0.0
H342 H 0.39538 0.86562 0.43514 0.0
H343 H 0.71895 0.15903 0.49649 0.0
H344 H 0.56851 0.88019 0.42669 0.0
H345 H 0.56043 0.09982 0.55748 0.0
H346 H 0.66487 0.06552 0.45987 0.0
H347 H 0.45476 0.96247 0.4655 0.0
C348 C 0.44591 0.88956 0.43868 0.0
C349 C 0.47694 0.86443 0.42851 0.0
C350 C 0.6423 0.07336 0.48136 0.0
C351 C 0.54524 0.97555 0.46376 0.0
C352 C 0.67328 0.12657 0.50267 0.0
C353 C 0.64426 0.13818 0.5301 0.0
C354 C 0.5814 1.03176 0.48685 0.0
C355 C 0.58438 0.09408 0.53598 0.0
C356 C 0.47974 0.94471 0.45649 0.0
C357 C 0.54264 0.89784 0.43404 0.0
N358 N 0.55485 0.04328 0.51427 0.0
N359 N 0.57476 0.95174 0.45155 0.0
H360 H 0.95185 0.935 0.57631 0.0
H361 H 0.21292 0.1118 0.43887 0.0
H362 H 0.13753 0.07792 0.62194 0.0
H363 H 1.02504 0.97406 0.3913 0.0
H364 H 0.18715 0.09686 0.5063 0.0
H365 H 0.97871 0.9458 0.5089 0.0
C366 C 0.99827 0.9687 0.57227 0.0
C367 C 1.04229 1.00579 0.6051 0.0
C368 C 0.15151 0.06976 0.48117 0.0
C369 C 0.07357 1.0181 0.52765 0.0
C370 C 0.16632 0.07803 0.4425 0.0
C371 C 0.12119 0.04401 0.40906 0.0
C372 C 0.09103 1.02709 0.4868 0.0
C373 C 1.06121 1.00168 0.41597 0.0
C374 C 1.01364 0.97469 0.53368 0.0
C375 C 0.10211 0.04797 0.59785 0.0
N376 N 1.04792 0.99443 0.45401 0.0
N377 N 0.11583 0.05306 0.55998 0.0
H378 H 0.80987 0.41464 0.95453 0.0
H379 H 0.69806 0.30384 0.7208 0.0
H380 H 0.62855 0.26738 0.90678 0.0
H381 H 0.87667 0.45362 0.76956 0.0
H382 H 0.67289 0.28735 0.78871 0.0
H383 H 0.83697 0.42626 0.88728 0.0
C384 C 0.77591 0.38432 0.93006 0.0
C385 C 0.71667 0.33999 0.93652 0.0
C386 C 0.71768 0.32371 0.7845 0.0
C387 C 0.74724 0.3536 0.85893 0.0
C388 C 0.73198 0.33333 0.74565 0.0
C389 C 0.78965 0.38025 0.73918 0.0
C390 C 0.76127 0.36129 0.81725 0.0
C391 C 0.83202 0.4165 0.77285 0.0
C392 C 0.79129 0.39124 0.89149 0.0
C393 C 0.6744 0.30262 0.90325 0.0
N394 N 0.81692 0.40633 0.81026 0.0
N395 N 0.69042 0.31034 0.86596 0.0
H396 H 0.2776 0.61353 0.24106 0.0
H397 H 0.54652 0.76957 0.10571 0.0
H398 H 0.47031 0.73933 0.28941 0.0
H399 H 0.35184 0.65076 0.05732 0.0
H400 H 0.52067 0.75537 0.17334 0.0
H401 H 0.30504 0.62322 0.17393 0.0
C402 C 0.32572 0.64328 0.23763 0.0
C403 C 0.37154 0.67595 0.2711 0.0
C404 C 0.4836 0.73232 0.14794 0.0
C405 C 0.40352 0.68695 0.19399 0.0
C406 C 0.49838 0.74016 0.10921 0.0
C407 C 0.45132 0.71134 0.07554 0.0
C408 C 0.42125 0.69529 0.15325 0.0
C409 C 0.3896 0.67446 0.08219 0.0
C410 C 0.34141 0.64862 0.19922 0.0
C411 C 0.43341 0.71293 0.26471 0.0
N412 N 0.37641 0.66752 0.1202 0.0
N413 N 0.44749 0.7176 0.22692 0.0
H414 H 0.95284 0.08242 0.07846 0.0
H415 H 0.2059 0.21305 0.93639 0.0
H416 H 0.15176 0.16609 0.11654 0.0
H417 H 1.00743 0.09701 0.89784 0.0
H418 H 0.18559 0.2292 1.00196 0.0
H419 H 0.97234 0.12102 0.01367 0.0
C420 C 1.00063 0.10966 0.07346 0.0
C421 C 1.05061 0.11911 0.10229 0.0
C422 C 0.14643 0.20128 0.97876 0.0
C423 C 0.07319 0.16358 0.02859 0.0
C424 C 0.15801 0.19172 0.94145 0.0
C425 C 0.10848 0.15182 0.9122 0.0
C426 C 0.08498 0.17033 0.98681 0.0
C427 C 1.0472 0.12726 0.91972 0.0
C428 C 1.01174 0.13203 0.03662 0.0
C429 C 0.11169 0.15669 0.09494 0.0
N430 N 1.03725 0.13587 0.95668 0.0
N431 N 0.12123 0.17649 0.05839 0.0
H432 H 0.8801 0.5433 0.26666 0.0
H433 H 0.62661 0.425 0.40839 0.0
H434 H 0.6808 0.4333 0.22807 0.0
H435 H 0.8234 0.49486 0.44546 0.0
H436 H 0.64887 0.46407 0.34403 0.0
H437 H 0.86129 0.56216 0.332 0.0
C438 C 0.83239 0.52392 0.27165 0.0
C439 C 0.78202 0.48466 0.24257 0.0
C440 C 0.68727 0.47194 0.36672 0.0
C441 C 0.76029 0.50634 0.31682 0.0
C442 C 0.67457 0.44915 0.40331 0.0
C443 C 0.72283 0.45445 0.43172 0.0
C444 C 0.74855 0.49992 0.35857 0.0
C445 C 0.78442 0.48852 0.42423 0.0
C446 C 0.8217 0.53506 0.30881 0.0
C447 C 0.72114 0.46281 0.2499 0.0
N448 N 0.79535 0.5089 0.38797 0.0
N449 N 0.71195 0.47283 0.28675 0.0
H450 H 0.33135 0.76103 0.56464 0.0
H451 H 0.48239 0.84302 0.78681 0.0
H452 H 0.53042 0.86811 0.60568 0.0
H453 H 0.28377 0.75547 0.7454 0.0
H454 H 0.50127 0.87984 0.722 0.0
H455 H 0.31365 0.78495 0.6282 0.0
C456 C 0.37153 0.79049 0.5866 0.0
C457 C 0.43253 0.81047 0.58042 0.0
C458 C 0.45347 0.85363 0.72728 0.0
C459 C 0.41238 0.83705 0.65385 0.0
C460 C 0.4426 0.83262 0.76453 0.0
C461 C 0.38125 0.79377 0.77091 0.0
C462 C 0.40268 0.83462 0.6961 0.0
C463 C 0.33181 0.78292 0.74101 0.0
C464 C 0.36132 0.8042 0.62309 0.0
C465 C 0.48252 0.84933 0.6099 0.0
N466 N 0.34353 0.80188 0.70443 0.0
N467 N 0.47133 0.86022 0.64579 0.0
loop_
_geom_bond_atom_site_label_1
_geom_bond_atom_site_label_2
_geom_bond_distance
_geom_bond_site_symmetry_2
_ccdc_geom_bond_type
Co0 N4 2.148 . S
Co0 N10 2.128 . S
Co0 N20 2.194 1_445 S
Co0 O25 2.351 1_455 S
Co0 O26 2.155 . S
Co0 O27 2.096 . S
C1 N4 1.301 . S
C1 N5 1.328 . S
C1 H6 0.930 1_455 S
C2 C3 1.333 . S
C2 N4 1.317 . S
C2 H7 0.930 . S
C3 C2 1.333 . S
C3 N5 1.350 . S
C3 H29 0.931 . S
N4 Co0 2.148 . S
N4 C1 1.301 . S
N4 C2 1.317 . S
N5 C1 1.328 . S
N5 C3 1.350 . S
H6 C1 0.930 1_655 S
H7 C2 0.930 . S
C8 O9 1.224 . S
C8 O27 1.247 . S
O9 C8 1.224 . S
N10 Co0 2.128 . S
N10 C11 1.355 1_445 S
N10 C13 1.311 . S
C11 N10 1.355 1_665 S
C11 C12 1.363 . S
C11 H23 0.929 . S
C12 C11 1.363 . S
C12 N14 1.375 1_665 S
C12 H30 0.931 . S
C13 N10 1.311 . S
C13 N14 1.347 . S
C13 H24 0.929 . S
N14 C12 1.375 1_445 S
N14 C13 1.347 . S
C15 C18 1.365 . S
C15 N20 1.328 . S
C15 H21 0.929 . S
C16 C17 1.362 . S
C16 C19 1.378 1_655 S
C16 H31 0.929 1_655 S
C17 C16 1.362 . S
C17 C18 1.366 . S
C18 C15 1.365 . S
C18 C17 1.366 . S
C18 H32 0.930 . S
C19 C16 1.378 1_455 S
C19 N20 1.315 1_455 S
C19 H22 0.930 . S
N20 Co0 2.194 1_665 S
N20 C15 1.328 . S
N20 C19 1.315 1_655 S
H21 C15 0.929 . S
H22 C19 0.930 . S
H23 C11 0.929 . S
H24 C13 0.929 . S
O25 Co0 2.351 1_655 S
O25 C28 1.244 . S
O26 Co0 2.155 . S
O26 C28 1.240 1_455 S
O27 Co0 2.096 . S
O27 C8 1.247 . S
C28 O25 1.244 . S
C28 O26 1.240 1_655 S
H29 C3 0.931 . S
H30 C12 0.931 . S
H31 C16 0.929 1_455 S
H32 C18 0.930 . S
Co33 N37 2.148 1_455 S
Co33 N43 2.128 . S
Co33 N53 2.194 1_545 S
Co33 O58 2.351 . S
Co33 O59 2.155 . S
Co33 O60 2.096 1_445 S
C34 N37 1.301 1_455 S
C34 N38 1.328 1_455 S
C34 H39 0.930 . S
C35 C36 1.333 . S
C35 N37 1.317 1_565 S
C35 H40 0.930 . S
C36 C35 1.333 . S
C36 N38 1.350 1_565 S
C36 H62 0.931 . S
N37 Co33 2.148 1_655 S
N37 C34 1.301 1_655 S
N37 C35 1.317 1_545 S
N38 C34 1.328 1_655 S
N38 C36 1.350 1_545 S
H39 C34 0.930 . S
H40 C35 0.930 . S
C41 O42 1.224 . S
C41 O60 1.247 . S
O42 C41 1.224 . S
N43 Co33 2.128 . S
N43 C44 1.355 . S
N43 C46 1.311 1_455 S
C44 N43 1.355 . S
C44 C45 1.363 . S
C44 H56 0.929 . S
C45 C44 1.363 . S
C45 N47 1.375 . S
C45 H63 0.931 . S
C46 N43 1.311 1_655 S
C46 N47 1.347 1_655 S
C46 H57 0.930 1_545 S
N47 C45 1.375 . S
N47 C46 1.347 1_455 S
C48 C51 1.365 1_545 S
C48 N53 1.328 1_545 S
C48 H54 0.929 . S
C49 C50 1.362 . S
C49 C52 1.378 . S
C49 H64 0.929 . S
C50 C49 1.362 . S
C50 C51 1.366 . S
C51 C48 1.365 1_565 S
C51 C50 1.366 . S
C51 H65 0.930 . S
C52 C49 1.378 . S
C52 N53 1.315 . S
C52 H55 0.930 1_455 S
N53 Co33 2.194 1_565 S
N53 C48 1.328 1_565 S
N53 C52 1.315 . S
H54 C48 0.929 . S
H55 C52 0.930 1_655 S
H56 C44 0.929 . S
H57 C46 0.930 1_565 S
O58 Co33 2.351 . S
O58 C61 1.244 . S
O59 Co33 2.155 . S
O59 C61 1.240 . S
O60 Co33 2.096 1_665 S
O60 C41 1.247 . S
C61 O58 1.244 . S
C61 O59 1.240 . S
H62 C36 0.931 . S
H63 C45 0.931 . S
H64 C49 0.929 . S
H65 C51 0.930 . S
Co66 N70 2.148 . S
Co66 N76 2.128 . S
Co66 N86 2.194 . S
Co66 O91 2.351 . S
Co66 O92 2.155 . S
Co66 O93 2.096 . S
C67 N70 1.301 . S
C67 N71 1.328 . S
C67 H72 0.930 . S
C68 C69 1.333 . S
C68 N70 1.317 . S
C68 H73 0.930 . S
C69 C68 1.333 . S
C69 N71 1.350 . S
C69 H95 0.931 . S
N70 Co66 2.148 . S
N70 C67 1.301 . S
N70 C68 1.317 . S
N71 C67 1.328 . S
N71 C69 1.350 . S
H72 C67 0.930 . S
H73 C68 0.930 . S
C74 O75 1.224 . S
C74 O93 1.247 . S
O75 C74 1.224 . S
N76 Co66 2.128 . S
N76 C77 1.355 . S
N76 C79 1.311 . S
C77 N76 1.355 . S
C77 C78 1.363 . S
C77 H89 0.929 . S
C78 C77 1.363 . S
C78 N80 1.375 . S
C78 H96 0.931 . S
C79 N76 1.311 . S
C79 N80 1.347 . S
C79 H90 0.929 . S
N80 C78 1.375 . S
N80 C79 1.347 . S
C81 C84 1.365 . S
C81 N86 1.328 . S
C81 H87 0.929 . S
C82 C83 1.362 . S
C82 C85 1.378 . S
C82 H97 0.929 . S
C83 C82 1.362 . S
C83 C84 1.366 . S
C84 C81 1.365 . S
C84 C83 1.366 . S
C84 H98 0.930 . S
C85 C82 1.378 . S
C85 N86 1.315 . S
C85 H88 0.930 . S
N86 Co66 2.194 . S
N86 C81 1.328 . S
N86 C85 1.315 . S
H87 C81 0.929 . S
H88 C85 0.930 . S
H89 C77 0.929 . S
H90 C79 0.929 . S
O91 Co66 2.351 . S
O91 C94 1.244 . S
O92 Co66 2.155 . S
O92 C94 1.240 . S
O93 Co66 2.096 . S
O93 C74 1.247 . S
C94 O91 1.244 . S
C94 O92 1.240 . S
H95 C69 0.931 . S
H96 C78 0.931 . S
H97 C82 0.929 . S
H98 C84 0.930 . S
Co99 N103 2.148 . S
Co99 N109 2.128 . S
Co99 N119 2.194 . S
Co99 O124 2.351 . S
Co99 O125 2.155 . S
Co99 O126 2.096 . S
C100 N103 1.301 . S
C100 N104 1.328 1_554 S
C100 H105 0.930 . S
C101 C102 1.333 1_554 S
C101 N103 1.317 . S
C101 H106 0.930 . S
C102 C101 1.333 1_556 S
C102 N104 1.350 . S
C102 H128 0.931 . S
N103 Co99 2.148 . S
N103 C100 1.301 . S
N103 C101 1.317 . S
N104 C100 1.328 1_556 S
N104 C102 1.350 . S
H105 C100 0.930 . S
H106 C101 0.930 . S
C107 O108 1.224 . S
C107 O126 1.247 . S
O108 C107 1.224 . S
N109 Co99 2.128 . S
N109 C110 1.355 . S
N109 C112 1.311 . S
C110 N109 1.355 . S
C110 C111 1.363 . S
C110 H122 0.929 . S
C111 C110 1.363 . S
C111 N113 1.375 . S
C111 H129 0.931 . S
C112 N109 1.311 . S
C112 N113 1.347 . S
C112 H123 0.929 . S
N113 C111 1.375 . S
N113 C112 1.347 . S
C114 C117 1.365 . S
C114 N119 1.328 . S
C114 H120 0.929 . S
C115 C116 1.362 . S
C115 C118 1.378 . S
C115 H130 0.929 . S
C116 C115 1.362 . S
C116 C117 1.366 . S
C117 C114 1.365 . S
C117 C116 1.366 . S
C117 H131 0.930 . S
C118 C115 1.378 . S
C118 N119 1.315 . S
C118 H121 0.930 . S
N119 Co99 2.194 . S
N119 C114 1.328 . S
N119 C118 1.315 . S
H120 C114 0.929 . S
H121 C118 0.930 . S
H122 C110 0.929 . S
H123 C112 0.929 . S
O124 Co99 2.351 . S
O124 C127 1.244 . S
O125 Co99 2.155 . S
O125 C127 1.240 . S
O126 Co99 2.096 . S
O126 C107 1.247 . S
C127 O124 1.244 . S
C127 O125 1.240 . S
H128 C102 0.931 . S
H129 C111 0.931 . S
H130 C115 0.929 . S
H131 C117 0.930 . S
Co132 N136 2.148 . S
Co132 N142 2.128 . S
Co132 N152 2.194 . S
Co132 O157 2.351 . S
Co132 O158 2.155 . S
Co132 O159 2.096 . S
C133 N136 1.301 . S
C133 N137 1.328 1_556 S
C133 H138 0.930 . S
C134 C135 1.333 1_556 S
C134 N136 1.317 . S
C134 H139 0.930 . S
C135 C134 1.333 1_554 S
C135 N137 1.350 . S
C135 H161 0.931 . S
N136 Co132 2.148 . S
N136 C133 1.301 . S
N136 C134 1.317 . S
N137 C133 1.328 1_554 S
N137 C135 1.350 . S
H138 C133 0.930 . S
H139 C134 0.930 . S
C140 O141 1.224 . S
C140 O159 1.247 . S
O141 C140 1.224 . S
N142 Co132 2.128 . S
N142 C143 1.355 . S
N142 C145 1.311 . S
C143 N142 1.355 . S
C143 C144 1.363 . S
C143 H155 0.929 . S
C144 C143 1.363 . S
C144 N146 1.375 . S
C144 H162 0.931 . S
C145 N142 1.311 . S
C145 N146 1.347 . S
C145 H156 0.929 . S
N146 C144 1.375 . S
N146 C145 1.347 . S
C147 C150 1.365 . S
C147 N152 1.328 . S
C147 H153 0.929 . S
C148 C149 1.362 . S
C148 C151 1.378 . S
C148 H163 0.929 . S
C149 C148 1.362 . S
C149 C150 1.366 . S
C150 C147 1.365 . S
C150 C149 1.366 . S
C150 H164 0.930 . S
C151 C148 1.378 . S
C151 N152 1.315 . S
C151 H154 0.930 . S
N152 Co132 2.194 . S
N152 C147 1.328 . S
N152 C151 1.315 . S
H153 C147 0.929 . S
H154 C151 0.930 . S
H155 C143 0.929 . S
H156 C145 0.929 . S
O157 Co132 2.351 . S
O157 C160 1.244 . S
O158 Co132 2.155 . S
O158 C160 1.240 . S
O159 Co132 2.096 . S
O159 C140 1.247 . S
C160 O157 1.244 . S
C160 O158 1.240 . S
H161 C135 0.931 . S
H162 C144 0.931 . S
H163 C148 0.929 . S
H164 C150 0.930 . S
Co165 N169 2.148 . S
Co165 N175 2.128 . S
Co165 N185 2.194 . S
Co165 O190 2.351 . S
Co165 O191 2.155 . S
Co165 O192 2.096 . S
C166 N169 1.301 . S
C166 N170 1.328 . S
C166 H171 0.930 . S
C167 C168 1.333 . S
C167 N169 1.317 . S
C167 H172 0.930 . S
C168 C167 1.333 . S
C168 N170 1.350 . S
C168 H194 0.931 . S
N169 Co165 2.148 . S
N169 C166 1.301 . S
N169 C167 1.317 . S
N170 C166 1.328 . S
N170 C168 1.350 . S
H171 C166 0.930 . S
H172 C167 0.930 . S
C173 O174 1.224 . S
C173 O192 1.247 . S
O174 C173 1.224 . S
N175 Co165 2.128 . S
N175 C176 1.355 . S
N175 C178 1.311 . S
C176 N175 1.355 . S
C176 C177 1.363 . S
C176 H188 0.929 . S
C177 C176 1.363 . S
C177 N179 1.375 . S
C177 H195 0.931 . S
C178 N175 1.311 . S
C178 N179 1.347 . S
C178 H189 0.929 . S
N179 C177 1.375 . S
N179 C178 1.347 . S
C180 C183 1.365 . S
C180 N185 1.328 . S
C180 H186 0.929 . S
C181 C182 1.362 . S
C181 C184 1.378 . S
C181 H196 0.929 . S
C182 C181 1.362 . S
C182 C183 1.366 . S
C183 C180 1.365 . S
C183 C182 1.366 . S
C183 H197 0.930 . S
C184 C181 1.378 . S
C184 N185 1.315 . S
C184 H187 0.930 . S
N185 Co165 2.194 . S
N185 C180 1.328 . S
N185 C184 1.315 . S
H186 C180 0.929 . S
H187 C184 0.930 . S
H188 C176 0.929 . S
H189 C178 0.929 . S
O190 Co165 2.351 . S
O190 C193 1.244 . S
O191 Co165 2.155 . S
O191 C193 1.240 . S
O192 Co165 2.096 . S
O192 C173 1.247 . S
C193 O190 1.244 . S
C193 O191 1.240 . S
H194 C168 0.931 . S
H195 C177 0.931 . S
H196 C181 0.929 . S
H197 C183 0.930 . S
H198 C204 0.930 . S
H199 C208 0.930 . S
H200 C213 0.929 . S
H201 C211 0.929 . S
H202 C206 0.929 . S
H203 C212 0.929 . S
C204 H198 0.930 . S
C204 C205 1.367 . S
C204 C212 1.378 . S
C205 C204 1.367 . S
C205 C213 1.433 . S
C206 H202 0.929 . S
C206 C208 1.378 . S
C206 C210 1.350 . S
C207 C210 1.463 . S
C207 C212 1.350 . S
C207 N215 1.427 . S
C208 H199 0.930 . S
C208 C206 1.378 . S
C208 C209 1.367 . S
C209 C208 1.367 . S
C209 C211 1.433 . S
C210 C206 1.350 . S
C210 C207 1.463 . S
C210 N214 1.427 . S
C211 H201 0.929 . S
C211 C209 1.433 . S
C211 N214 1.384 . S
C212 H203 0.929 . S
C212 C204 1.378 . S
C212 C207 1.350 . S
C213 H200 0.929 . S
C213 C205 1.433 . S
C213 N215 1.384 . S
N214 C210 1.427 . S
N214 C211 1.384 . S
N215 C207 1.427 . S
N215 C213 1.384 . S
H216 C222 0.930 . S
H217 C226 0.930 . S
H218 C231 0.929 . S
H219 C229 0.929 . S
H220 C224 0.929 . S
H221 C230 0.929 . S
C222 H216 0.930 . S
C222 C223 1.367 . S
C222 C230 1.378 . S
C223 C222 1.367 . S
C223 C231 1.433 . S
C224 H220 0.929 . S
C224 C226 1.378 . S
C224 C228 1.350 . S
C225 C228 1.463 . S
C225 C230 1.350 . S
C225 N233 1.427 . S
C226 H217 0.930 . S
C226 C224 1.378 . S
C226 C227 1.367 . S
C227 C226 1.367 . S
C227 C229 1.433 . S
C228 C224 1.350 . S
C228 C225 1.463 . S
C228 N232 1.427 . S
C229 H219 0.929 . S
C229 C227 1.433 . S
C229 N232 1.384 . S
C230 H221 0.929 . S
C230 C222 1.378 . S
C230 C225 1.350 . S
C231 H218 0.929 . S
C231 C223 1.433 . S
C231 N233 1.384 . S
N232 C228 1.427 . S
N232 C229 1.384 . S
N233 C225 1.427 . S
N233 C231 1.384 . S
H234 C240 0.930 . S
H235 C244 0.930 . S
H236 C249 0.929 . S
H237 C247 0.929 . S
H238 C242 0.929 . S
H239 C248 0.929 . S
C240 H234 0.930 . S
C240 C241 1.367 . S
C240 C248 1.378 . S
C241 C240 1.367 . S
C241 C249 1.433 . S
C242 H238 0.929 . S
C242 C244 1.378 . S
C242 C246 1.350 . S
C243 C246 1.463 . S
C243 C248 1.350 . S
C243 N251 1.427 . S
C244 H235 0.930 . S
C244 C242 1.378 . S
C244 C245 1.367 . S
C245 C244 1.367 . S
C245 C247 1.433 . S
C246 C242 1.350 . S
C246 C243 1.463 . S
C246 N250 1.427 . S
C247 H237 0.929 . S
C247 C245 1.433 . S
C247 N250 1.384 . S
C248 H239 0.929 . S
C248 C240 1.378 . S
C248 C243 1.350 . S
C249 H236 0.929 . S
C249 C241 1.433 . S
C249 N251 1.384 . S
N250 C246 1.427 . S
N250 C247 1.384 . S
N251 C243 1.427 . S
N251 C249 1.384 . S
H252 C258 0.930 . S
H253 C262 0.930 . S
H254 C267 0.929 . S
H255 C265 0.929 . S
H256 C260 0.929 . S
H257 C266 0.929 . S
C258 H252 0.930 . S
C258 C259 1.367 . S
C258 C266 1.378 . S
C259 C258 1.367 . S
C259 C267 1.433 . S
C260 H256 0.929 . S
C260 C262 1.378 . S
C260 C264 1.350 . S
C261 C264 1.463 . S
C261 C266 1.350 . S
C261 N269 1.427 . S
C262 H253 0.930 . S
C262 C260 1.378 . S
C262 C263 1.367 . S
C263 C262 1.367 . S
C263 C265 1.433 . S
C264 C260 1.350 . S
C264 C261 1.463 . S
C264 N268 1.427 . S
C265 H255 0.929 . S
C265 C263 1.433 . S
C265 N268 1.384 . S
C266 H257 0.929 . S
C266 C258 1.378 . S
C266 C261 1.350 . S
C267 H254 0.929 . S
C267 C259 1.433 . S
C267 N269 1.384 . S
N268 C264 1.427 . S
N268 C265 1.384 . S
N269 C261 1.427 . S
N269 C267 1.384 . S
H270 C276 0.930 . S
H271 C280 0.930 . S
H272 C285 0.929 . S
H273 C283 0.929 . S
H274 C278 0.929 . S
H275 C284 0.929 . S
C276 H270 0.930 . S
C276 C277 1.367 . S
C276 C284 1.378 . S
C277 C276 1.367 . S
C277 C285 1.433 . S
C278 H274 0.929 . S
C278 C280 1.378 . S
C278 C282 1.350 . S
C279 C282 1.463 . S
C279 C284 1.350 . S
C279 N287 1.427 . S
C280 H271 0.930 . S
C280 C278 1.378 . S
C280 C281 1.367 . S
C281 C280 1.367 . S
C281 C283 1.433 . S
C282 C278 1.350 . S
C282 C279 1.463 . S
C282 N286 1.427 . S
C283 H273 0.929 . S
C283 C281 1.433 . S
C283 N286 1.384 . S
C284 H275 0.929 . S
C284 C276 1.378 . S
C284 C279 1.350 . S
C285 H272 0.929 . S
C285 C277 1.433 . S
C285 N287 1.384 . S
N286 C282 1.427 . S
N286 C283 1.384 . S
N287 C279 1.427 . S
N287 C285 1.384 . S
H288 C294 0.930 . S
H289 C298 0.930 . S
H290 C303 0.929 . S
H291 C301 0.929 . S
H292 C296 0.929 . S
H293 C302 0.929 . S
C294 H288 0.930 . S
C294 C295 1.367 . S
C294 C302 1.378 . S
C295 C294 1.367 . S
C295 C303 1.433 . S
C296 H292 0.929 . S
C296 C298 1.378 . S
C296 C300 1.350 . S
C297 C300 1.463 . S
C297 C302 1.350 . S
C297 N305 1.427 . S
C298 H289 0.930 . S
C298 C296 1.378 . S
C298 C299 1.367 . S
C299 C298 1.367 . S
C299 C301 1.433 . S
C300 C296 1.350 . S
C300 C297 1.463 . S
C300 N304 1.427 . S
C301 H291 0.929 . S
C301 C299 1.433 . S
C301 N304 1.384 . S
C302 H293 0.929 . S
C302 C294 1.378 . S
C302 C297 1.350 . S
C303 H290 0.929 . S
C303 C295 1.433 . S
C303 N305 1.384 . S
N304 C300 1.427 . S
N304 C301 1.384 . S
N305 C297 1.427 . S
N305 C303 1.384 . S
H306 C312 0.930 . S
H307 C316 0.930 . S
H308 C321 0.929 . S
H309 C319 0.929 . S
H310 C314 0.929 . S
H311 C320 0.929 . S
C312 H306 0.930 . S
C312 C313 1.367 . S
C312 C320 1.378 . S
C313 C312 1.367 . S
C313 C321 1.433 . S
C314 H310 0.929 . S
C314 C316 1.378 . S
C314 C318 1.350 . S
C315 C318 1.463 1_655 S
C315 C320 1.350 . S
C315 N323 1.427 . S
C316 H307 0.930 . S
C316 C314 1.378 . S
C316 C317 1.367 . S
C317 C316 1.367 . S
C317 C319 1.433 . S
C318 C314 1.350 . S
C318 C315 1.463 1_455 S
C318 N322 1.427 . S
C319 H309 0.929 . S
C319 C317 1.433 . S
C319 N322 1.384 . S
C320 H311 0.929 . S
C320 C312 1.378 . S
C320 C315 1.350 . S
C321 H308 0.929 . S
C321 C313 1.433 . S
C321 N323 1.384 . S
N322 C318 1.427 . S
N322 C319 1.384 . S
N323 C315 1.427 . S
N323 C321 1.384 . S
H324 C330 0.930 . S
H325 C334 0.930 . S
H326 C339 0.929 . S
H327 C337 0.929 . S
H328 C332 0.929 . S
H329 C338 0.929 . S
C330 H324 0.930 . S
C330 C331 1.367 . S
C330 C338 1.378 . S
C331 C330 1.367 . S
C331 C339 1.433 . S
C332 H328 0.929 . S
C332 C334 1.378 . S
C332 C336 1.350 . S
C333 C336 1.463 . S
C333 C338 1.350 . S
C333 N341 1.427 . S
C334 H325 0.930 . S
C334 C332 1.378 . S
C334 C335 1.367 . S
C335 C334 1.367 . S
C335 C337 1.433 . S
C336 C332 1.350 . S
C336 C333 1.463 . S
C336 N340 1.427 . S
C337 H327 0.929 . S
C337 C335 1.433 . S
C337 N340 1.384 . S
C338 H329 0.929 . S
C338 C330 1.378 . S
C338 C333 1.350 . S
C339 H326 0.929 . S
C339 C331 1.433 . S
C339 N341 1.384 . S
N340 C336 1.427 . S
N340 C337 1.384 . S
N341 C333 1.427 . S
N341 C339 1.384 . S
H342 C348 0.930 . S
H343 C352 0.930 . S
H344 C357 0.929 . S
H345 C355 0.929 . S
H346 C350 0.929 . S
H347 C356 0.929 . S
C348 H342 0.930 . S
C348 C349 1.367 . S
C348 C356 1.378 . S
C349 C348 1.367 . S
C349 C357 1.433 . S
C350 H346 0.929 . S
C350 C352 1.378 . S
C350 C354 1.350 . S
C351 C354 1.463 1_565 S
C351 C356 1.350 . S
C351 N359 1.427 . S
C352 H343 0.930 . S
C352 C350 1.378 . S
C352 C353 1.367 . S
C353 C352 1.367 . S
C353 C355 1.433 . S
C354 C350 1.350 . S
C354 C351 1.463 1_545 S
C354 N358 1.427 . S
C355 H345 0.929 . S
C355 C353 1.433 . S
C355 N358 1.384 . S
C356 H347 0.929 . S
C356 C348 1.378 . S
C356 C351 1.350 . S
C357 H344 0.929 . S
C357 C349 1.433 . S
C357 N359 1.384 . S
N358 C354 1.427 . S
N358 C355 1.384 . S
N359 C351 1.427 . S
N359 C357 1.384 . S
H360 C366 0.930 . S
H361 C370 0.930 . S
H362 C375 0.929 . S
H363 C373 0.929 . S
H364 C368 0.929 . S
H365 C374 0.929 . S
C366 H360 0.930 . S
C366 C367 1.367 1_665 S
C366 C374 1.378 . S
C367 C366 1.367 1_445 S
C367 C375 1.433 . S
C368 H364 0.929 . S
C368 C370 1.378 . S
C368 C372 1.350 . S
C369 C372 1.463 . S
C369 C374 1.350 1_445 S
C369 N377 1.427 . S
C370 H361 0.930 . S
C370 C368 1.378 . S
C370 C371 1.367 . S
C371 C370 1.367 . S
C371 C373 1.433 1_445 S
C372 C368 1.350 . S
C372 C369 1.463 . S
C372 N376 1.427 1_445 S
C373 H363 0.929 . S
C373 C371 1.433 1_665 S
C373 N376 1.384 . S
C374 H365 0.929 . S
C374 C366 1.378 . S
C374 C369 1.350 1_665 S
C375 H362 0.929 . S
C375 C367 1.433 . S
C375 N377 1.384 . S
N376 C372 1.427 1_665 S
N376 C373 1.384 . S
N377 C369 1.427 . S
N377 C375 1.384 . S
H378 C384 0.930 . S
H379 C388 0.930 . S
H380 C393 0.929 . S
H381 C391 0.929 . S
H382 C386 0.929 . S
H383 C392 0.929 . S
C384 H378 0.930 . S
C384 C385 1.367 . S
C384 C392 1.378 . S
C385 C384 1.367 . S
C385 C393 1.433 . S
C386 H382 0.929 . S
C386 C388 1.378 . S
C386 C390 1.350 . S
C387 C390 1.463 . S
C387 C392 1.350 . S
C387 N395 1.427 . S
C388 H379 0.930 . S
C388 C386 1.378 . S
C388 C389 1.367 . S
C389 C388 1.367 . S
C389 C391 1.433 . S
C390 C386 1.350 . S
C390 C387 1.463 . S
C390 N394 1.427 . S
C391 H381 0.929 . S
C391 C389 1.433 . S
C391 N394 1.384 . S
C392 H383 0.929 . S
C392 C384 1.378 . S
C392 C387 1.350 . S
C393 H380 0.929 . S
C393 C385 1.433 . S
C393 N395 1.384 . S
N394 C390 1.427 . S
N394 C391 1.384 . S
N395 C387 1.427 . S
N395 C393 1.384 . S
H396 C402 0.930 . S
H397 C406 0.930 . S
H398 C411 0.929 . S
H399 C409 0.929 . S
H400 C404 0.929 . S
H401 C410 0.929 . S
C402 H396 0.930 . S
C402 C403 1.367 . S
C402 C410 1.378 . S
C403 C402 1.367 . S
C403 C411 1.433 . S
C404 H400 0.929 . S
C404 C406 1.378 . S
C404 C408 1.350 . S
C405 C408 1.463 . S
C405 C410 1.350 . S
C405 N413 1.427 . S
C406 H397 0.930 . S
C406 C404 1.378 . S
C406 C407 1.367 . S
C407 C406 1.367 . S
C407 C409 1.433 . S
C408 C404 1.350 . S
C408 C405 1.463 . S
C408 N412 1.427 . S
C409 H399 0.929 . S
C409 C407 1.433 . S
C409 N412 1.384 . S
C410 H401 0.929 . S
C410 C402 1.378 . S
C410 C405 1.350 . S
C411 H398 0.929 . S
C411 C403 1.433 . S
C411 N413 1.384 . S
N412 C408 1.427 . S
N412 C409 1.384 . S
N413 C405 1.427 . S
N413 C411 1.384 . S
H414 C420 0.930 . S
H415 C424 0.930 . S
H416 C429 0.929 . S
H417 C427 0.929 . S
H418 C422 0.929 . S
H419 C428 0.929 . S
C420 H414 0.930 . S
C420 C421 1.367 1_665 S
C420 C428 1.378 . S
C421 C420 1.367 1_445 S
C421 C429 1.433 . S
C422 H418 0.929 . S
C422 C424 1.378 . S
C422 C426 1.350 . S
C423 C426 1.463 1_554 S
C423 C428 1.350 1_445 S
C423 N431 1.427 . S
C424 H415 0.930 . S
C424 C422 1.378 . S
C424 C425 1.367 1_455 S
C425 C424 1.367 1_655 S
C425 C427 1.433 1_545 S
C426 C422 1.350 . S
C426 C423 1.463 1_556 S
C426 N430 1.427 1_445 S
C427 H417 0.929 . S
C427 C425 1.433 1_565 S
C427 N430 1.384 . S
C428 H419 0.929 . S
C428 C420 1.378 . S
C428 C423 1.350 1_665 S
C429 H416 0.929 . S
C429 C421 1.433 . S
C429 N431 1.384 . S
N430 C426 1.427 1_665 S
N430 C427 1.384 . S
N431 C423 1.427 . S
N431 C429 1.384 . S
H432 C438 0.930 . S
H433 C442 0.930 . S
H434 C447 0.929 . S
H435 C445 0.929 . S
H436 C440 0.929 . S
H437 C446 0.929 . S
C438 H432 0.930 . S
C438 C439 1.367 . S
C438 C446 1.378 . S
C439 C438 1.367 . S
C439 C447 1.433 . S
C440 H436 0.929 . S
C440 C442 1.378 . S
C440 C444 1.350 . S
C441 C444 1.463 . S
C441 C446 1.350 . S
C441 N449 1.427 . S
C442 H433 0.930 . S
C442 C440 1.378 . S
C442 C443 1.367 . S
C443 C442 1.367 . S
C443 C445 1.433 . S
C444 C440 1.350 . S
C444 C441 1.463 . S
C444 N448 1.427 . S
C445 H435 0.929 . S
C445 C443 1.433 . S
C445 N448 1.384 . S
C446 H437 0.929 . S
C446 C438 1.378 . S
C446 C441 1.350 . S
C447 H434 0.929 . S
C447 C439 1.433 . S
C447 N449 1.384 . S
N448 C444 1.427 . S
N448 C445 1.384 . S
N449 C441 1.427 . S
N449 C447 1.384 . S
H450 C456 0.930 . S
H451 C460 0.930 . S
H452 C465 0.929 . S
H453 C463 0.929 . S
H454 C458 0.929 . S
H455 C464 0.929 . S
C456 H450 0.930 . S
C456 C457 1.367 . S
C456 C464 1.378 . S
C457 C456 1.367 . S
C457 C465 1.433 . S
C458 H454 0.929 . S
C458 C460 1.378 . S
C458 C462 1.350 . S
C459 C462 1.463 . S
C459 C464 1.350 . S
C459 N467 1.427 . S
C460 H451 0.930 . S
C460 C458 1.378 . S
C460 C461 1.367 . S
C461 C460 1.367 . S
C461 C463 1.433 . S
C462 C458 1.350 . S
C462 C459 1.463 . S
C462 N466 1.427 . S
C463 H453 0.929 . S
C463 C461 1.433 . S
C463 N466 1.384 . S
C464 H455 0.929 . S
C464 C456 1.378 . S
C464 C459 1.350 . S
C465 H452 0.929 . S
C465 C457 1.433 . S
C465 N467 1.384 . S
N466 C462 1.427 . S
N466 C463 1.384 . S
N467 C459 1.427 . S
N467 C465 1.384 . S
C205 C8 1.935 . S
C209 C107 1.936 . S
C223 C28 1.568 . S
C227 C116 1.602 . S
C241 C127 1.561 . S
C245 C17 1.599 . S
C259 C61 1.567 . S
C263 C149 1.602 . S
C277 C140 1.932 . S
C281 C41 1.932 . S
C295 C50 1.597 . S
C299 C160 1.558 . S
C313 C74 1.931 . S
C317 C173 1.932 . S
C331 C94 1.559 . S
C335 C182 1.598 . S
C349 C193 1.557 . S
C353 C83 1.597 . S
C367 N38 2.197 1_455 S
C371 N5 2.198 . S
C385 N104 2.202 . S
C389 N71 2.201 . S
C403 N170 2.198 . S
C407 N137 2.199 . S
C421 N14 0.586 . S
C425 N47 0.586 1_655 S
C439 N113 0.586 . S
C443 N80 0.586 . S
C457 N179 0.617 . S
C461 N146 0.618 . S
