# Generated by pormake.
# Topology xfz, (5)-cn, num edge types: 1
# Building blocks:
#     Node 0, Type 0, BuildingBlock: XOMCOT_clean_sbu_1, # of connection points: 5
#     Node 1, Type 0, BuildingBlock: XOMCOT_clean_sbu_1, # of connection points: 5
#     Node 2, Type 0, BuildingBlock: XOMCOT_clean_sbu_1, # of connection points: 5
#     Node 3, Type 0, BuildingBlock: XOMCOT_clean_sbu_1, # of connection points: 5
#     Node 4, Type 0, BuildingBlock: XOMCOT_clean_sbu_1, # of connection points: 5
#     Node 5, Type 0, BuildingBlock: XOMCOT_clean_sbu_1, # of connection points: 5
#     Node 6, Type 0, BuildingBlock: XOMCOT_clean_sbu_1, # of connection points: 5
#     Node 7, Type 0, BuildingBlock: XOMCOT_clean_sbu_1, # of connection points: 5
#     Node 8, Type 0, BuildingBlock: XOMCOT_clean_sbu_1, # of connection points: 5
#     Node 9, Type 0, BuildingBlock: XOMCOT_clean_sbu_1, # of connection points: 5
#     Node 10, Type 0, BuildingBlock: XOMCOT_clean_sbu_1, # of connection points: 5
#     Node 11, Type 0, BuildingBlock: XOMCOT_clean_sbu_1, # of connection points: 5
#     Node 12, Type 0, BuildingBlock: XOMCOT_clean_sbu_1, # of connection points: 5
#     Node 13, Type 0, BuildingBlock: XOMCOT_clean_sbu_1, # of connection points: 5
#     Node 14, Type 0, BuildingBlock: XOMCOT_clean_sbu_1, # of connection points: 5
#     Node 15, Type 0, BuildingBlock: XOMCOT_clean_sbu_1, # of connection points: 5
#     Edge 16, Type (0, 0), None
#     Edge 17, Type (0, 0), None
#     Edge 18, Type (0, 0), None
#     Edge 19, Type (0, 0), None
#     Edge 20, Type (0, 0), None
#     Edge 21, Type (0, 0), None
#     Edge 22, Type (0, 0), None
#     Edge 23, Type (0, 0), None
#     Edge 24, Type (0, 0), None
#     Edge 25, Type (0, 0), None
#     Edge 26, Type (0, 0), None
#     Edge 27, Type (0, 0), None
#     Edge 28, Type (0, 0), None
#     Edge 29, Type (0, 0), None
#     Edge 30, Type (0, 0), None
#     Edge 31, Type (0, 0), None
#     Edge 32, Type (0, 0), None
#     Edge 33, Type (0, 0), None
#     Edge 34, Type (0, 0), None
#     Edge 35, Type (0, 0), None
#     Edge 36, Type (0, 0), None
#     Edge 37, Type (0, 0), None
#     Edge 38, Type (0, 0), None
#     Edge 39, Type (0, 0), None
#     Edge 40, Type (0, 0), None
#     Edge 41, Type (0, 0), None
#     Edge 42, Type (0, 0), None
#     Edge 43, Type (0, 0), None
#     Edge 44, Type (0, 0), None
#     Edge 45, Type (0, 0), None
#     Edge 46, Type (0, 0), None
#     Edge 47, Type (0, 0), None
#     Edge 48, Type (0, 0), None
#     Edge 49, Type (0, 0), None
#     Edge 50, Type (0, 0), None
#     Edge 51, Type (0, 0), None
#     Edge 52, Type (0, 0), None
#     Edge 53, Type (0, 0), None
#     Edge 54, Type (0, 0), None
#     Edge 55, Type (0, 0), None
# Relax obj value: 0.637
# Max RMSD: 0.326
# Mean RMSD: 0.326
data_MOF--net-xfz--node1-XOMCOT_clean_sbu_1--edge1-none
_symmetry_space_group_name_H-M    P1
_symmetry_Int_Tables_number       1
_symmetry_cell_setting            triclinic
loop_
_symmetry_equiv_pos_as_xyz
'x, y, z'
_cell_length_a     17.269153
_cell_length_b     17.268887
_cell_length_c     33.079574
_cell_angle_alpha  90.000082
_cell_angle_beta   90.000009
_cell_angle_gamma 89.999928
loop_
_atom_site_label
_atom_site_type_symbol
_atom_site_fract_x
_atom_site_fract_y
_atom_site_fract_z
_atom_type_partial_charge
C0 C 0.1723 0.28713 0.32192 0.0
C1 C 0.13828 0.26452 0.28606 0.0
N2 N 0.10782 0.32771 0.2686 0.0
N3 N 0.16317 0.36428 0.32718 0.0
C4 C 0.12133 0.38633 0.29456 0.0
H5 H 0.20527 0.24972 0.34156 0.0
Co6 Co 0.21048 0.42713 0.36719 0.0
C7 C 0.08687 0.53566 0.39708 0.0
O8 O 0.13762 0.59069 0.40399 0.0
N9 N 0.25825 0.48766 0.40746 0.0
C10 C 0.33044 0.57048 0.44325 0.0
C11 C 0.3126 0.54411 0.40488 0.0
C12 C 0.24481 0.48028 0.44758 0.0
N13 N 0.28756 0.5296 0.46944 0.0
O14 O 0.19529 0.34503 0.4066 0.0
H15 H 0.33829 0.5648 0.37714 0.0
H16 H 0.20363 0.44053 0.46082 0.0
O17 O 0.10849 0.47077 0.38182 0.0
C18 C 0.24597 0.29502 0.41747 0.0
O19 O 0.22637 0.24062 0.44323 0.0
N20 N 0.22972 0.50443 0.32688 0.0
C21 C 0.25607 0.57785 0.25279 0.0
C22 C 0.1906 0.5956 0.2759 0.0
C23 C 0.17865 0.55889 0.3129 0.0
C24 C 0.29711 0.49176 0.30631 0.0
C25 C 0.31169 0.52799 0.26917 0.0
H26 H 0.12362 0.56855 0.32688 0.0
H27 H 0.33825 0.45044 0.31785 0.0
H28 H 0.10163 0.44447 0.28903 0.0
H29 H 0.14035 0.20736 0.27265 0.0
H30 H 0.37238 0.61439 0.45132 0.0
H31 H 0.14692 0.63502 0.26456 0.0
H32 H 0.3637 0.5139 0.25246 0.0
C33 C 0.28712 0.91885 0.65908 0.0
C34 C 0.26452 0.95287 0.69494 0.0
N35 N 0.32771 0.98332 0.7124 0.0
N36 N 0.36428 0.92797 0.65382 0.0
C37 C 0.38633 0.96981 0.68644 0.0
H38 H 0.24971 0.88589 0.63944 0.0
Co39 Co 0.42713 0.88066 0.61381 0.0
C40 C 0.53565 1.00427 0.58392 0.0
O41 O 0.59068 0.95352 0.577 0.0
N42 N 0.48765 0.83289 0.57354 0.0
C43 C 0.57047 0.7607 0.53775 0.0
C44 C 0.5441 0.77854 0.57611 0.0
C45 C 0.48027 0.84633 0.53342 0.0
N46 N 0.52959 0.80358 0.51156 0.0
O47 O 0.34502 0.89585 0.5744 0.0
H48 H 0.56479 0.75285 0.60385 0.0
H49 H 0.44052 0.88751 0.52018 0.0
O50 O 0.47076 0.98265 0.59918 0.0
C51 C 0.29502 0.84518 0.56353 0.0
O52 O 0.24061 0.86478 0.53777 0.0
N53 N 0.50443 0.86142 0.65411 0.0
C54 C 0.57784 0.83507 0.7282 0.0
C55 C 0.59559 0.90054 0.70509 0.0
C56 C 0.55889 0.91249 0.6681 0.0
C57 C 0.49175 0.79403 0.67469 0.0
C58 C 0.52799 0.77945 0.71183 0.0
H59 H 0.56855 0.96752 0.65412 0.0
H60 H 0.45043 0.75289 0.66315 0.0
H61 H 0.44447 0.98951 0.69197 0.0
H62 H 0.20736 0.95081 0.70835 0.0
H63 H 0.61438 0.71876 0.52967 0.0
H64 H 0.63502 0.94422 0.71644 0.0
H65 H 0.51389 0.72743 0.72854 0.0
C66 C 0.91884 0.80402 0.32192 0.0
C67 C 0.95286 0.82663 0.28605 0.0
N68 N 0.98331 0.76343 0.2686 0.0
N69 N 0.92796 0.72687 0.32718 0.0
C70 C 0.9698 0.70481 0.29456 0.0
H71 H 0.88588 0.84144 0.34156 0.0
Co72 Co 0.88065 0.66402 0.36719 0.0
C73 C 1.00425 0.55551 0.39709 0.0
O74 O 0.95353 0.50045 0.404 0.0
N75 N 0.83288 0.6035 0.40746 0.0
C76 C 0.7607 0.52067 0.44325 0.0
C77 C 0.77854 0.54704 0.40488 0.0
C78 C 0.84632 0.61088 0.44758 0.0
N79 N 0.80357 0.56156 0.46944 0.0
O80 O 0.89584 0.74613 0.4066 0.0
H81 H 0.75286 0.52634 0.37714 0.0
H82 H 0.8875 0.65064 0.46082 0.0
O83 O 0.98264 0.62038 0.38182 0.0
C84 C 0.84517 0.79613 0.41747 0.0
O85 O 0.86477 0.85054 0.44323 0.0
N86 N 0.86141 0.58672 0.32689 0.0
C87 C 0.83507 0.5133 0.2528 0.0
C88 C 0.90054 0.49555 0.27591 0.0
C89 C 0.91248 0.53225 0.3129 0.0
C90 C 0.79403 0.59939 0.30631 0.0
C91 C 0.77945 0.56316 0.26917 0.0
H92 H 0.96751 0.52259 0.32689 0.0
H93 H 0.75288 0.64072 0.31785 0.0
H94 H 0.9895 0.64667 0.28903 0.0
H95 H 0.9508 0.88379 0.27265 0.0
H96 H 0.71877 0.47675 0.45132 0.0
H97 H 0.94421 0.45612 0.26456 0.0
H98 H 0.72744 0.57726 0.25245 0.0
C99 C 0.80402 0.17231 0.65908 0.0
C100 C 0.82662 0.13828 0.69494 0.0
N101 N 0.76343 0.10783 0.7124 0.0
N102 N 0.72686 0.16318 0.65382 0.0
C103 C 0.70481 0.12134 0.68644 0.0
H104 H 0.84143 0.20527 0.63944 0.0
Co105 Co 0.66401 0.2105 0.61381 0.0
C106 C 0.5555 0.08689 0.58391 0.0
O107 O 0.50045 0.13762 0.577 0.0
N108 N 0.60349 0.25826 0.57354 0.0
C109 C 0.52066 0.33044 0.53775 0.0
C110 C 0.54703 0.31261 0.57612 0.0
C111 C 0.61087 0.24482 0.53342 0.0
N112 N 0.56155 0.28758 0.51156 0.0
O113 O 0.74612 0.1953 0.5744 0.0
H114 H 0.52634 0.33829 0.60386 0.0
H115 H 0.65063 0.20365 0.52018 0.0
O116 O 0.62038 0.1085 0.59918 0.0
C117 C 0.79612 0.24598 0.56353 0.0
O118 O 0.85053 0.22637 0.53777 0.0
N119 N 0.58671 0.22973 0.65411 0.0
C120 C 0.51329 0.25607 0.7282 0.0
C121 C 0.49555 0.19061 0.70509 0.0
C122 C 0.53225 0.17866 0.6681 0.0
C123 C 0.59939 0.29712 0.67469 0.0
C124 C 0.56315 0.31169 0.71183 0.0
H125 H 0.52259 0.12363 0.65411 0.0
H126 H 0.64071 0.33826 0.66315 0.0
H127 H 0.64667 0.10164 0.69197 0.0
H128 H 0.88378 0.14035 0.70835 0.0
H129 H 0.47674 0.37238 0.52968 0.0
H130 H 0.45612 0.14693 0.71644 0.0
H131 H 0.57725 0.36371 0.72854 0.0
C132 C 0.26372 0.73709 0.68181 0.0
C133 C 0.23347 0.76969 0.71604 0.0
N134 N 0.15675 0.75772 0.71586 0.0
N135 N 0.20663 0.70491 0.65974 0.0
C136 C 0.14167 0.71859 0.68126 0.0
H137 H 0.32443 0.72971 0.67574 0.0
Co138 Co 0.23233 0.63841 0.6177 0.0
C139 C 0.08833 0.54937 0.59493 0.0
O140 O 0.12994 0.48596 0.59282 0.0
N141 N 0.26395 0.57266 0.5748 0.0
C142 C 0.30835 0.47512 0.53678 0.0
C143 C 0.29363 0.49986 0.5756 0.0
C144 C 0.26245 0.59091 0.53492 0.0
N145 N 0.29005 0.53331 0.51179 0.0
O146 O 0.23234 0.7265 0.58193 0.0
H147 H 0.30162 0.46484 0.60226 0.0
H148 H 0.23917 0.644 0.52261 0.0
O149 O 0.12083 0.61448 0.60431 0.0
C150 C 0.29396 0.76748 0.58183 0.0
O151 O 0.35502 0.7426 0.60145 0.0
N152 N 0.23646 0.55837 0.65619 0.0
C153 C 0.25183 0.47837 0.72868 0.0
C154 C 0.17888 0.49683 0.71373 0.0
C155 C 0.1723 0.53763 0.67792 0.0
C156 C 0.30857 0.54059 0.67045 0.0
C157 C 0.31761 0.49855 0.70637 0.0
H158 H 0.11544 0.55779 0.6702 0.0
H159 H 0.35921 0.56172 0.65467 0.0
H160 H 0.08622 0.6924 0.67446 0.0
H161 H 0.26638 0.79154 0.74148 0.0
H162 H 0.32917 0.41874 0.52751 0.0
H163 H 0.12718 0.48158 0.73035 0.0
H164 H 0.37493 0.48418 0.71731 0.0
C165 C 0.73708 0.82743 0.29919 0.0
C166 C 0.76968 0.85767 0.26496 0.0
N167 N 0.75771 0.93439 0.26514 0.0
N168 N 0.7049 0.88451 0.32126 0.0
C169 C 0.71858 0.94947 0.29974 0.0
H170 H 0.7297 0.76671 0.30526 0.0
Co171 Co 0.6384 0.85881 0.3633 0.0
C172 C 0.54936 1.00282 0.38607 0.0
O173 O 0.48595 0.9612 0.38818 0.0
N174 N 0.57265 0.8272 0.4062 0.0
C175 C 0.47511 0.7828 0.44421 0.0
C176 C 0.49985 0.79752 0.40539 0.0
C177 C 0.5909 0.8287 0.44608 0.0
N178 N 0.5333 0.80109 0.4692 0.0
O179 O 0.72649 0.8588 0.39907 0.0
H180 H 0.46483 0.78953 0.37874 0.0
H181 H 0.64399 0.85197 0.45839 0.0
O182 O 0.61446 0.97031 0.37668 0.0
C183 C 0.76747 0.79718 0.39917 0.0
O184 O 0.74259 0.73613 0.37955 0.0
N185 N 0.55836 0.85469 0.3248 0.0
C186 C 0.47836 0.83932 0.25232 0.0
C187 C 0.49682 0.91227 0.26727 0.0
C188 C 0.53762 0.91884 0.30307 0.0
C189 C 0.54058 0.78258 0.31054 0.0
C190 C 0.49854 0.77354 0.27462 0.0
H191 H 0.55778 0.9757 0.31079 0.0
H192 H 0.56171 0.73194 0.32633 0.0
H193 H 0.69239 1.00492 0.30654 0.0
H194 H 0.79153 0.82476 0.23952 0.0
H195 H 0.41873 0.76197 0.45348 0.0
H196 H 0.48158 0.96396 0.25065 0.0
H197 H 0.48417 0.71621 0.26369 0.0
C198 C 0.82742 0.35406 0.68181 0.0
C199 C 0.85767 0.32147 0.71604 0.0
N200 N 0.93439 0.33344 0.71585 0.0
N201 N 0.88451 0.38625 0.65974 0.0
C202 C 0.94946 0.37257 0.68126 0.0
H203 H 0.76671 0.36144 0.67574 0.0
Co204 Co 0.85881 0.45275 0.6177 0.0
C205 C 1.0028 0.54179 0.59492 0.0
O206 O 0.9612 0.60521 0.59282 0.0
N207 N 0.82719 0.51849 0.5748 0.0
C208 C 0.78279 0.61603 0.53679 0.0
C209 C 0.79751 0.5913 0.5756 0.0
C210 C 0.82869 0.50024 0.53492 0.0
N211 N 0.80109 0.55785 0.5118 0.0
O212 O 0.85879 0.36466 0.58193 0.0
H213 H 0.78952 0.62632 0.60226 0.0
H214 H 0.85196 0.44716 0.52261 0.0
O215 O 0.9703 0.47668 0.60431 0.0
C216 C 0.79717 0.32367 0.58183 0.0
O217 O 0.73612 0.34855 0.60145 0.0
N218 N 0.85468 0.53279 0.65619 0.0
C219 C 0.83931 0.61278 0.72868 0.0
C220 C 0.91226 0.59433 0.71373 0.0
C221 C 0.91883 0.55353 0.67792 0.0
C222 C 0.78257 0.55056 0.67045 0.0
C223 C 0.77353 0.59261 0.70637 0.0
H224 H 0.97569 0.53337 0.6702 0.0
H225 H 0.73193 0.52943 0.65467 0.0
H226 H 1.00491 0.39876 0.67445 0.0
H227 H 0.82476 0.29961 0.74148 0.0
H228 H 0.76197 0.67242 0.52751 0.0
H229 H 0.96395 0.60957 0.73035 0.0
H230 H 0.71621 0.60697 0.71731 0.0
C231 C 0.35406 0.26373 0.29919 0.0
C232 C 0.32146 0.23348 0.26496 0.0
N233 N 0.33343 0.15676 0.26514 0.0
N234 N 0.38624 0.20664 0.32126 0.0
C235 C 0.37256 0.14168 0.29974 0.0
H236 H 0.36144 0.32444 0.30526 0.0
Co237 Co 0.45274 0.23234 0.3633 0.0
C238 C 0.54178 0.08835 0.38608 0.0
O239 O 0.6052 0.12995 0.38818 0.0
N240 N 0.51848 0.26396 0.4062 0.0
C241 C 0.61602 0.30836 0.44421 0.0
C242 C 0.59128 0.29364 0.4054 0.0
C243 C 0.50023 0.26246 0.44608 0.0
N244 N 0.55784 0.29006 0.4692 0.0
O245 O 0.36465 0.23236 0.39907 0.0
H246 H 0.6263 0.30163 0.37874 0.0
H247 H 0.44715 0.23919 0.45839 0.0
O248 O 0.47667 0.12085 0.37668 0.0
C249 C 0.32366 0.29397 0.39917 0.0
O250 O 0.34854 0.35503 0.37955 0.0
N251 N 0.53278 0.23647 0.3248 0.0
C252 C 0.61278 0.25184 0.25232 0.0
C253 C 0.59432 0.17889 0.26727 0.0
C254 C 0.55352 0.17232 0.30308 0.0
C255 C 0.55055 0.30858 0.31054 0.0
C256 C 0.5926 0.31762 0.27463 0.0
H257 H 0.53336 0.11545 0.3108 0.0
H258 H 0.52942 0.35922 0.32633 0.0
H259 H 0.39875 0.08623 0.30654 0.0
H260 H 0.29961 0.26639 0.23952 0.0
H261 H 0.67241 0.32918 0.45348 0.0
H262 H 0.60956 0.12719 0.25065 0.0
H263 H 0.60696 0.37494 0.26369 0.0
C264 C 0.67221 0.78712 0.82198 0.0
C265 C 0.63823 0.76452 0.7861 0.0
N266 N 0.60798 0.82776 0.76859 0.0
N267 N 0.66321 0.8643 0.8272 0.0
C268 C 0.62147 0.88637 0.79455 0.0
H269 H 0.70505 0.74967 0.84165 0.0
Co270 Co 0.71052 0.92715 0.86722 0.0
C271 C 0.58688 1.03566 0.8971 0.0
O272 O 0.63761 0.09071 0.90401 0.0
N273 N 0.75826 0.98767 0.9075 0.0
C274 C 0.83047 0.07045 0.9433 0.0
C275 C 0.81263 1.04411 0.90493 0.0
C276 C 0.74481 0.98028 0.94762 0.0
N277 N 0.78758 1.02956 0.96949 0.0
O278 O 0.69534 0.84503 0.90662 0.0
H279 H 0.83833 0.0648 0.8772 0.0
H280 H 0.70361 0.94052 0.96085 0.0
O281 O 0.60851 0.97078 0.88184 0.0
C282 C 0.74602 0.79503 0.91749 0.0
O283 O 0.72642 0.7406 0.94323 0.0
N284 N 0.72976 1.00448 0.82692 0.0
C285 C 0.7561 0.0778 0.75281 0.0
C286 C 0.69064 0.09558 0.77591 0.0
C287 C 0.67869 0.05893 0.81292 0.0
C288 C 0.79716 0.9918 0.80636 0.0
C289 C 0.81174 1.02799 0.76921 0.0
H290 H 0.62366 0.0686 0.8269 0.0
H291 H 0.83832 0.95052 0.81792 0.0
H292 H 0.60181 0.94452 0.78901 0.0
H293 H 0.64018 0.70733 0.77272 0.0
H294 H 0.87242 0.11435 0.95139 0.0
H295 H 0.64695 0.13498 0.76454 0.0
H296 H 0.86376 1.01388 0.7525 0.0
C297 C 0.78712 0.41894 0.15902 0.0
C298 C 0.76452 0.45292 0.1949 0.0
N299 N 0.82776 0.48316 0.21241 0.0
N300 N 0.8643 0.42793 0.1538 0.0
C301 C 0.88637 0.46966 0.18645 0.0
H302 H 0.74967 0.3861 0.13934 0.0
Co303 Co 0.92715 0.38062 0.11378 0.0
C304 C 1.03565 0.50427 0.0839 0.0
O305 O 0.0907 0.45353 0.07698 0.0
N306 N 0.98766 0.33288 0.0735 0.0
C307 C 0.07044 0.26067 0.0377 0.0
C308 C 1.0441 0.27851 0.07606 0.0
C309 C 0.98027 0.34633 0.03338 0.0
N310 N 1.02955 0.30356 0.01151 0.0
O311 O 0.84502 0.39581 0.07437 0.0
H312 H 0.06479 0.25281 0.1038 0.0
H313 H 0.94051 0.38752 0.02015 0.0
O314 O 0.97077 0.48263 0.09916 0.0
C315 C 0.79502 0.34513 0.06351 0.0
O316 O 0.74059 0.36473 0.03777 0.0
N317 N 1.00447 0.36138 0.15408 0.0
C318 C 0.07779 0.33503 0.22819 0.0
C319 C 0.09557 0.4005 0.20509 0.0
C320 C 0.05893 0.41244 0.16808 0.0
C321 C 0.99179 0.29398 0.17464 0.0
C322 C 1.02798 0.2794 0.21179 0.0
H323 H 0.0686 0.46748 0.1541 0.0
H324 H 0.9505 0.25282 0.16308 0.0
H325 H 0.94452 0.48932 0.192 0.0
H326 H 0.70733 0.45097 0.20827 0.0
H327 H 0.11434 0.21873 0.02961 0.0
H328 H 0.13497 0.44418 0.21645 0.0
H329 H 1.01387 0.22738 0.2285 0.0
C330 C 0.41893 0.30403 0.82197 0.0
C331 C 0.45291 0.32663 0.7861 0.0
N332 N 0.48316 0.26339 0.76859 0.0
N333 N 0.42792 0.22685 0.8272 0.0
C334 C 0.46966 0.20477 0.79455 0.0
H335 H 0.38609 0.34148 0.84165 0.0
Co336 Co 0.38062 0.164 0.86722 0.0
C337 C 0.50425 0.0555 0.89711 0.0
O338 O 0.45353 1.00044 0.90402 0.0
N339 N 0.33287 0.10349 0.9075 0.0
C340 C 0.26067 1.0207 0.9433 0.0
C341 C 0.27851 0.04704 0.90493 0.0
C342 C 0.34632 0.11089 0.94762 0.0
N343 N 0.30355 0.0616 0.96949 0.0
O344 O 0.3958 0.24613 0.90662 0.0
H345 H 0.25282 1.02634 0.8772 0.0
H346 H 0.38751 0.15064 0.96085 0.0
O347 O 0.48262 0.12038 0.88184 0.0
C348 C 0.34512 0.29613 0.91749 0.0
O349 O 0.36472 0.35056 0.94323 0.0
N350 N 0.36137 0.08668 0.82692 0.0
C351 C 0.33503 1.01335 0.75281 0.0
C352 C 0.4005 0.99557 0.77591 0.0
C353 C 0.41244 1.03221 0.81292 0.0
C354 C 0.29397 0.09935 0.80636 0.0
C355 C 0.2794 0.06317 0.76921 0.0
H356 H 0.46747 1.02254 0.82691 0.0
H357 H 0.25282 0.14064 0.81792 0.0
H358 H 0.48931 0.14663 0.789 0.0
H359 H 0.45096 0.38382 0.77272 0.0
H360 H 0.21873 0.9768 0.95139 0.0
H361 H 0.44418 0.95617 0.76455 0.0
H362 H 0.22738 0.07728 0.7525 0.0
C363 C 0.30402 0.67222 0.15902 0.0
C364 C 0.32662 0.63823 0.1949 0.0
N365 N 0.26338 0.60798 0.2124 0.0
N366 N 0.22684 0.66322 0.1538 0.0
C367 C 0.20477 0.62148 0.18645 0.0
H368 H 0.34147 0.70506 0.13934 0.0
Co369 Co 0.16399 0.71053 0.11377 0.0
C370 C 0.05549 0.58689 0.08389 0.0
O371 O 1.00043 0.63761 0.07698 0.0
N372 N 0.10348 0.75828 0.0735 0.0
C373 C 1.02069 0.83047 0.0377 0.0
C374 C 0.04703 0.81264 0.07607 0.0
C375 C 0.11087 0.74483 0.03338 0.0
N376 N 0.06159 0.7876 0.01151 0.0
O377 O 0.24612 0.69535 0.07437 0.0
H378 H 1.02633 0.83833 0.1038 0.0
H379 H 0.15063 0.70364 0.02015 0.0
O380 O 0.12037 0.60852 0.09915 0.0
C381 C 0.29612 0.74603 0.06351 0.0
O382 O 0.35055 0.72642 0.03776 0.0
N383 N 0.08667 0.72977 0.15407 0.0
C384 C 1.01335 0.75611 0.22819 0.0
C385 C 0.99556 0.69065 0.20509 0.0
C386 C 1.03221 0.67871 0.16807 0.0
C387 C 0.09934 0.79717 0.17464 0.0
C388 C 0.06316 0.81174 0.21179 0.0
H389 H 1.02254 0.62367 0.15409 0.0
H390 H 0.14064 0.83833 0.16308 0.0
H391 H 0.14662 0.60183 0.19199 0.0
H392 H 0.38381 0.64019 0.20827 0.0
H393 H 0.97679 0.87242 0.02961 0.0
H394 H 0.95616 0.64696 0.21645 0.0
H395 H 0.07727 0.86377 0.2285 0.0
C396 C 0.76371 0.23731 0.18178 0.0
C397 C 0.73349 0.26977 0.21605 0.0
N398 N 0.65685 0.25737 0.21594 0.0
N399 N 0.70666 0.20489 0.15976 0.0
C400 C 0.64173 0.2183 0.18134 0.0
H401 H 0.82443 0.23021 0.17564 0.0
Co402 Co 0.73236 0.13839 0.11774 0.0
C403 C 0.58833 0.04936 0.09497 0.0
O404 O 0.62993 0.98594 0.09283 0.0
N405 N 0.76397 0.07263 0.07484 0.0
C406 C 0.80841 0.97511 0.03684 0.0
C407 C 0.7937 0.99986 0.07566 0.0
C408 C 0.76242 0.09086 0.03497 0.0
N409 N 0.79004 1.03327 0.01184 0.0
O410 O 0.73234 0.22647 0.08196 0.0
H411 H 0.80176 0.96487 0.10232 0.0
H412 H 0.73911 0.14393 0.02265 0.0
O413 O 0.62086 0.11444 0.10437 0.0
C414 C 0.79398 0.26743 0.08181 0.0
O415 O 0.85508 0.24251 0.10138 0.0
N416 N 0.73655 0.05835 0.15625 0.0
C417 C 0.75207 0.97845 0.22876 0.0
C418 C 0.67908 0.99669 0.21378 0.0
C419 C 0.67243 1.03745 0.17796 0.0
C420 C 0.80869 1.04076 0.17053 0.0
C421 C 0.81781 0.99878 0.20646 0.0
H422 H 0.61552 0.05743 0.17022 0.0
H423 H 0.85929 0.062 0.15474 0.0
H424 H 0.58634 0.19194 0.17458 0.0
H425 H 0.76639 0.29179 0.24145 0.0
H426 H 0.82928 0.91874 0.02757 0.0
H427 H 0.62742 0.98131 0.23039 0.0
H428 H 0.87516 0.98457 0.21741 0.0
C429 C 0.2373 0.32743 0.79922 0.0
C430 C 0.26976 0.35766 0.76495 0.0
N431 N 0.25736 0.4343 0.76505 0.0
N432 N 0.20488 0.38448 0.82124 0.0
C433 C 0.21829 0.44941 0.79966 0.0
H434 H 0.23019 0.26671 0.80536 0.0
Co435 Co 0.13838 0.35878 0.86326 0.0
C436 C 0.04935 0.50281 0.88603 0.0
O437 O 0.98593 0.46121 0.88817 0.0
N438 N 0.07263 0.32718 0.90616 0.0
C439 C 0.9751 0.28274 0.94416 0.0
C440 C 0.99985 0.29744 0.90534 0.0
C441 C 0.09085 0.32872 0.94603 0.0
N442 N 1.03326 0.3011 0.96916 0.0
O443 O 0.22646 0.3588 0.89904 0.0
H444 H 0.96487 0.28939 0.87867 0.0
H445 H 0.14392 0.35203 0.95835 0.0
O446 O 0.11443 0.47029 0.87663 0.0
C447 C 0.26742 0.29717 0.89919 0.0
O448 O 0.24251 0.23606 0.87962 0.0
N449 N 0.05835 0.35459 0.82475 0.0
C450 C 0.97844 0.33908 0.75224 0.0
C451 C 0.99668 0.41207 0.76722 0.0
C452 C 1.03744 0.41871 0.80304 0.0
C453 C 1.04075 0.28245 0.81047 0.0
C454 C 0.99877 0.27334 0.77453 0.0
H455 H 0.05742 0.47562 0.81078 0.0
H456 H 0.06199 0.23185 0.82625 0.0
H457 H 0.19193 0.5048 0.80641 0.0
H458 H 0.29178 0.32476 0.73955 0.0
H459 H 0.91873 0.26186 0.95343 0.0
H460 H 0.98131 0.46373 0.75061 0.0
H461 H 0.98456 0.21598 0.76358 0.0
C462 C 0.32742 0.85384 0.18178 0.0
C463 C 0.35765 0.82139 0.21605 0.0
N464 N 0.43429 0.83379 0.21594 0.0
N465 N 0.38447 0.88627 0.15976 0.0
C466 C 0.4494 0.87286 0.18134 0.0
H467 H 0.26671 0.86095 0.17564 0.0
Co468 Co 0.35877 0.95277 0.11774 0.0
C469 C 0.5028 1.0418 0.09496 0.0
O470 O 0.46121 0.10523 0.09283 0.0
N471 N 0.32717 1.01852 0.07484 0.0
C472 C 0.28273 0.11605 0.03684 0.0
C473 C 0.29744 0.0913 0.07566 0.0
C474 C 0.32871 1.00029 0.03497 0.0
N475 N 0.30109 0.05789 0.01184 0.0
O476 O 0.35879 0.86469 0.08196 0.0
H477 H 0.28938 0.12628 0.10233 0.0
H478 H 0.35202 0.94723 0.02265 0.0
O479 O 0.47028 0.97672 0.10437 0.0
C480 C 0.29716 0.82372 0.08181 0.0
O481 O 0.23605 0.84864 0.10137 0.0
N482 N 0.35459 1.0328 0.15625 0.0
C483 C 0.33907 0.11271 0.22876 0.0
C484 C 0.41206 0.09447 0.21378 0.0
C485 C 0.41871 0.05371 0.17796 0.0
C486 C 0.28245 0.0504 0.17053 0.0
C487 C 0.27333 0.09237 0.20646 0.0
H488 H 0.47561 1.03373 0.17022 0.0
H489 H 0.23185 1.02916 0.15475 0.0
H490 H 0.50479 0.89922 0.17458 0.0
H491 H 0.32475 0.79936 0.24145 0.0
H492 H 0.26186 0.17242 0.02757 0.0
H493 H 0.46372 0.10985 0.23039 0.0
H494 H 0.21598 0.10658 0.21742 0.0
C495 C 0.85384 0.76372 0.79922 0.0
C496 C 0.82138 0.7335 0.76495 0.0
N497 N 0.83378 0.65686 0.76505 0.0
N498 N 0.88626 0.70668 0.82124 0.0
C499 C 0.87285 0.64174 0.79966 0.0
H500 H 0.86094 0.82444 0.80536 0.0
Co501 Co 0.95276 0.73238 0.86326 0.0
C502 C 1.04179 0.58835 0.88604 0.0
O503 O 0.10522 0.62994 0.88817 0.0
N504 N 1.01851 0.76398 0.90616 0.0
C505 C 0.11604 0.80842 0.94416 0.0
C506 C 0.09129 0.79371 0.90534 0.0
C507 C 1.00028 0.76244 0.94603 0.0
N508 N 0.05788 0.79006 0.96916 0.0
O509 O 0.86468 0.73235 0.89904 0.0
H510 H 0.12627 0.80177 0.87867 0.0
H511 H 0.94722 0.73913 0.95835 0.0
O512 O 0.97671 0.62087 0.87663 0.0
C513 C 0.82371 0.79399 0.89919 0.0
O514 O 0.84863 0.85509 0.87962 0.0
N515 N 1.03279 0.73656 0.82475 0.0
C516 C 0.1127 0.75208 0.75224 0.0
C517 C 0.09446 0.67909 0.76722 0.0
C518 C 0.0537 0.67244 0.80304 0.0
C519 C 0.05039 0.80871 0.81047 0.0
C520 C 0.09236 0.81782 0.77454 0.0
H521 H 1.03372 0.61553 0.81078 0.0
H522 H 1.02915 0.85931 0.82625 0.0
H523 H 0.89921 0.58635 0.80641 0.0
H524 H 0.79936 0.7664 0.73955 0.0
H525 H 0.17241 0.82929 0.95343 0.0
H526 H 0.10984 0.62743 0.75061 0.0
H527 H 0.10657 0.87517 0.76358 0.0
loop_
_geom_bond_atom_site_label_1
_geom_bond_atom_site_label_2
_geom_bond_distance
_geom_bond_site_symmetry_2
_ccdc_geom_bond_type
C0 C1 1.351 . S
C0 N3 1.368 . S
C0 H5 0.931 . S
C1 C0 1.351 . S
C1 N2 1.373 . S
C1 H29 0.930 . S
N2 C1 1.373 . S
N2 C4 1.340 . S
N3 C0 1.368 . S
N3 C4 1.321 . S
N3 Co6 2.135 . S
C4 N2 1.340 . S
C4 N3 1.321 . S
C4 H28 0.930 . S
H5 C0 0.931 . S
Co6 N3 2.135 . S
Co6 N9 2.121 . S
Co6 O14 2.055 . S
Co6 O17 2.039 . S
Co6 N20 2.140 . S
C7 O8 1.227 . S
C7 O17 1.265 . S
O8 C7 1.227 . S
N9 Co6 2.121 . S
N9 C11 1.375 . S
N9 C12 1.313 . S
C10 C11 1.338 . S
C10 N13 1.377 . S
C10 H30 0.930 . S
C11 N9 1.375 . S
C11 C10 1.338 . S
C11 H15 0.931 . S
C12 N9 1.313 . S
C12 N13 1.344 . S
C12 H16 0.930 . S
N13 C10 1.377 . S
N13 C12 1.344 . S
O14 Co6 2.055 . S
O14 C18 1.253 . S
H15 C11 0.931 . S
H16 C12 0.930 . S
O17 Co6 2.039 . S
O17 C7 1.265 . S
C18 O14 1.253 . S
C18 O19 1.227 . S
O19 C18 1.227 . S
N20 Co6 2.140 . S
N20 C23 1.346 . S
N20 C24 1.345 . S
C21 C22 1.387 . S
C21 C25 1.391 . S
C22 C21 1.387 . S
C22 C23 1.369 . S
C22 H31 0.929 . S
C23 N20 1.346 . S
C23 C22 1.369 . S
C23 H26 0.928 . S
C24 N20 1.345 . S
C24 C25 1.371 . S
C24 H27 0.931 . S
C25 C21 1.391 . S
C25 C24 1.371 . S
C25 H32 0.930 . S
H26 C23 0.928 . S
H27 C24 0.931 . S
H28 C4 0.930 . S
H29 C1 0.930 . S
H30 C10 0.930 . S
H31 C22 0.929 . S
H32 C25 0.930 . S
C33 C34 1.351 . S
C33 N36 1.368 . S
C33 H38 0.931 . S
C34 C33 1.351 . S
C34 N35 1.373 . S
C34 H62 0.930 . S
N35 C34 1.373 . S
N35 C37 1.340 . S
N36 C33 1.368 . S
N36 C37 1.321 . S
N36 Co39 2.135 . S
C37 N35 1.340 . S
C37 N36 1.321 . S
C37 H61 0.930 . S
H38 C33 0.931 . S
Co39 N36 2.135 . S
Co39 N42 2.121 . S
Co39 O47 2.055 . S
Co39 O50 2.039 . S
Co39 N53 2.140 . S
C40 O41 1.227 . S
C40 O50 1.265 . S
O41 C40 1.227 . S
N42 Co39 2.121 . S
N42 C44 1.375 . S
N42 C45 1.313 . S
C43 C44 1.338 . S
C43 N46 1.377 . S
C43 H63 0.930 . S
C44 N42 1.375 . S
C44 C43 1.338 . S
C44 H48 0.931 . S
C45 N42 1.313 . S
C45 N46 1.344 . S
C45 H49 0.930 . S
N46 C43 1.377 . S
N46 C45 1.344 . S
O47 Co39 2.055 . S
O47 C51 1.253 . S
H48 C44 0.931 . S
H49 C45 0.930 . S
O50 Co39 2.039 . S
O50 C40 1.265 . S
C51 O47 1.253 . S
C51 O52 1.227 . S
O52 C51 1.227 . S
N53 Co39 2.140 . S
N53 C56 1.346 . S
N53 C57 1.345 . S
C54 C55 1.387 . S
C54 C58 1.391 . S
C55 C54 1.387 . S
C55 C56 1.369 . S
C55 H64 0.929 . S
C56 N53 1.346 . S
C56 C55 1.369 . S
C56 H59 0.928 . S
C57 N53 1.345 . S
C57 C58 1.371 . S
C57 H60 0.931 . S
C58 C54 1.391 . S
C58 C57 1.371 . S
C58 H65 0.930 . S
H59 C56 0.928 . S
H60 C57 0.931 . S
H61 C37 0.930 . S
H62 C34 0.930 . S
H63 C43 0.930 . S
H64 C55 0.929 . S
H65 C58 0.930 . S
C66 C67 1.351 . S
C66 N69 1.368 . S
C66 H71 0.931 . S
C67 C66 1.351 . S
C67 N68 1.373 . S
C67 H95 0.930 . S
N68 C67 1.373 . S
N68 C70 1.340 . S
N69 C66 1.368 . S
N69 C70 1.321 . S
N69 Co72 2.135 . S
C70 N68 1.340 . S
C70 N69 1.321 . S
C70 H94 0.930 . S
H71 C66 0.931 . S
Co72 N69 2.135 . S
Co72 N75 2.121 . S
Co72 O80 2.055 . S
Co72 O83 2.039 . S
Co72 N86 2.140 . S
C73 O74 1.227 . S
C73 O83 1.265 . S
O74 C73 1.227 . S
N75 Co72 2.121 . S
N75 C77 1.375 . S
N75 C78 1.313 . S
C76 C77 1.338 . S
C76 N79 1.377 . S
C76 H96 0.930 . S
C77 N75 1.375 . S
C77 C76 1.338 . S
C77 H81 0.931 . S
C78 N75 1.313 . S
C78 N79 1.344 . S
C78 H82 0.930 . S
N79 C76 1.377 . S
N79 C78 1.344 . S
O80 Co72 2.055 . S
O80 C84 1.253 . S
H81 C77 0.931 . S
H82 C78 0.930 . S
O83 Co72 2.039 . S
O83 C73 1.265 . S
C84 O80 1.253 . S
C84 O85 1.227 . S
O85 C84 1.227 . S
N86 Co72 2.140 . S
N86 C89 1.346 . S
N86 C90 1.345 . S
C87 C88 1.387 . S
C87 C91 1.391 . S
C88 C87 1.387 . S
C88 C89 1.369 . S
C88 H97 0.929 . S
C89 N86 1.346 . S
C89 C88 1.369 . S
C89 H92 0.928 . S
C90 N86 1.345 . S
C90 C91 1.371 . S
C90 H93 0.931 . S
C91 C87 1.391 . S
C91 C90 1.371 . S
C91 H98 0.930 . S
H92 C89 0.928 . S
H93 C90 0.931 . S
H94 C70 0.930 . S
H95 C67 0.930 . S
H96 C76 0.930 . S
H97 C88 0.929 . S
H98 C91 0.930 . S
C99 C100 1.351 . S
C99 N102 1.368 . S
C99 H104 0.931 . S
C100 C99 1.351 . S
C100 N101 1.373 . S
C100 H128 0.930 . S
N101 C100 1.373 . S
N101 C103 1.340 . S
N102 C99 1.368 . S
N102 C103 1.321 . S
N102 Co105 2.135 . S
C103 N101 1.340 . S
C103 N102 1.321 . S
C103 H127 0.930 . S
H104 C99 0.931 . S
Co105 N102 2.135 . S
Co105 N108 2.121 . S
Co105 O113 2.055 . S
Co105 O116 2.039 . S
Co105 N119 2.140 . S
C106 O107 1.227 . S
C106 O116 1.265 . S
O107 C106 1.227 . S
N108 Co105 2.121 . S
N108 C110 1.375 . S
N108 C111 1.313 . S
C109 C110 1.338 . S
C109 N112 1.377 . S
C109 H129 0.930 . S
C110 N108 1.375 . S
C110 C109 1.338 . S
C110 H114 0.931 . S
C111 N108 1.313 . S
C111 N112 1.344 . S
C111 H115 0.930 . S
N112 C109 1.377 . S
N112 C111 1.344 . S
O113 Co105 2.055 . S
O113 C117 1.253 . S
H114 C110 0.931 . S
H115 C111 0.930 . S
O116 Co105 2.039 . S
O116 C106 1.265 . S
C117 O113 1.253 . S
C117 O118 1.227 . S
O118 C117 1.227 . S
N119 Co105 2.140 . S
N119 C122 1.346 . S
N119 C123 1.345 . S
C120 C121 1.387 . S
C120 C124 1.391 . S
C121 C120 1.387 . S
C121 C122 1.369 . S
C121 H130 0.929 . S
C122 N119 1.346 . S
C122 C121 1.369 . S
C122 H125 0.928 . S
C123 N119 1.345 . S
C123 C124 1.371 . S
C123 H126 0.931 . S
C124 C120 1.391 . S
C124 C123 1.371 . S
C124 H131 0.930 . S
H125 C122 0.928 . S
H126 C123 0.931 . S
H127 C103 0.930 . S
H128 C100 0.930 . S
H129 C109 0.930 . S
H130 C121 0.929 . S
H131 C124 0.930 . S
C132 C133 1.351 . S
C132 N135 1.368 . S
C132 H137 0.931 . S
C133 C132 1.351 . S
C133 N134 1.373 . S
C133 H161 0.930 . S
N134 C133 1.373 . S
N134 C136 1.340 . S
N135 C132 1.368 . S
N135 C136 1.321 . S
N135 Co138 2.135 . S
C136 N134 1.340 . S
C136 N135 1.321 . S
C136 H160 0.930 . S
H137 C132 0.931 . S
Co138 N135 2.135 . S
Co138 N141 2.121 . S
Co138 O146 2.055 . S
Co138 O149 2.039 . S
Co138 N152 2.140 . S
C139 O140 1.227 . S
C139 O149 1.265 . S
O140 C139 1.227 . S
N141 Co138 2.121 . S
N141 C143 1.375 . S
N141 C144 1.313 . S
C142 C143 1.338 . S
C142 N145 1.377 . S
C142 H162 0.930 . S
C143 N141 1.375 . S
C143 C142 1.338 . S
C143 H147 0.931 . S
C144 N141 1.313 . S
C144 N145 1.344 . S
C144 H148 0.930 . S
N145 C142 1.377 . S
N145 C144 1.344 . S
O146 Co138 2.055 . S
O146 C150 1.253 . S
H147 C143 0.931 . S
H148 C144 0.930 . S
O149 Co138 2.039 . S
O149 C139 1.265 . S
C150 O146 1.253 . S
C150 O151 1.227 . S
O151 C150 1.227 . S
N152 Co138 2.140 . S
N152 C155 1.346 . S
N152 C156 1.345 . S
C153 C154 1.387 . S
C153 C157 1.391 . S
C154 C153 1.387 . S
C154 C155 1.369 . S
C154 H163 0.929 . S
C155 N152 1.346 . S
C155 C154 1.369 . S
C155 H158 0.928 . S
C156 N152 1.345 . S
C156 C157 1.371 . S
C156 H159 0.931 . S
C157 C153 1.391 . S
C157 C156 1.371 . S
C157 H164 0.930 . S
H158 C155 0.928 . S
H159 C156 0.931 . S
H160 C136 0.930 . S
H161 C133 0.930 . S
H162 C142 0.930 . S
H163 C154 0.929 . S
H164 C157 0.930 . S
C165 C166 1.351 . S
C165 N168 1.368 . S
C165 H170 0.931 . S
C166 C165 1.351 . S
C166 N167 1.373 . S
C166 H194 0.930 . S
N167 C166 1.373 . S
N167 C169 1.340 . S
N168 C165 1.368 . S
N168 C169 1.321 . S
N168 Co171 2.135 . S
C169 N167 1.340 . S
C169 N168 1.321 . S
C169 H193 0.930 . S
H170 C165 0.931 . S
Co171 N168 2.135 . S
Co171 N174 2.121 . S
Co171 O179 2.055 . S
Co171 O182 2.039 . S
Co171 N185 2.140 . S
C172 O173 1.227 . S
C172 O182 1.265 . S
O173 C172 1.227 . S
N174 Co171 2.121 . S
N174 C176 1.375 . S
N174 C177 1.313 . S
C175 C176 1.338 . S
C175 N178 1.377 . S
C175 H195 0.930 . S
C176 N174 1.375 . S
C176 C175 1.338 . S
C176 H180 0.931 . S
C177 N174 1.313 . S
C177 N178 1.344 . S
C177 H181 0.930 . S
N178 C175 1.377 . S
N178 C177 1.344 . S
O179 Co171 2.055 . S
O179 C183 1.253 . S
H180 C176 0.931 . S
H181 C177 0.930 . S
O182 Co171 2.039 . S
O182 C172 1.265 . S
C183 O179 1.253 . S
C183 O184 1.227 . S
O184 C183 1.227 . S
N185 Co171 2.140 . S
N185 C188 1.346 . S
N185 C189 1.345 . S
C186 C187 1.387 . S
C186 C190 1.391 . S
C187 C186 1.387 . S
C187 C188 1.369 . S
C187 H196 0.929 . S
C188 N185 1.346 . S
C188 C187 1.369 . S
C188 H191 0.928 . S
C189 N185 1.345 . S
C189 C190 1.371 . S
C189 H192 0.931 . S
C190 C186 1.391 . S
C190 C189 1.371 . S
C190 H197 0.930 . S
H191 C188 0.928 . S
H192 C189 0.931 . S
H193 C169 0.930 . S
H194 C166 0.930 . S
H195 C175 0.930 . S
H196 C187 0.929 . S
H197 C190 0.930 . S
C198 C199 1.351 . S
C198 N201 1.368 . S
C198 H203 0.931 . S
C199 C198 1.351 . S
C199 N200 1.373 . S
C199 H227 0.930 . S
N200 C199 1.373 . S
N200 C202 1.340 . S
N201 C198 1.368 . S
N201 C202 1.321 . S
N201 Co204 2.135 . S
C202 N200 1.340 . S
C202 N201 1.321 . S
C202 H226 0.930 . S
H203 C198 0.931 . S
Co204 N201 2.135 . S
Co204 N207 2.121 . S
Co204 O212 2.055 . S
Co204 O215 2.039 . S
Co204 N218 2.140 . S
C205 O206 1.227 . S
C205 O215 1.265 . S
O206 C205 1.227 . S
N207 Co204 2.121 . S
N207 C209 1.375 . S
N207 C210 1.313 . S
C208 C209 1.338 . S
C208 N211 1.377 . S
C208 H228 0.930 . S
C209 N207 1.375 . S
C209 C208 1.338 . S
C209 H213 0.931 . S
C210 N207 1.313 . S
C210 N211 1.344 . S
C210 H214 0.930 . S
N211 C208 1.377 . S
N211 C210 1.344 . S
O212 Co204 2.055 . S
O212 C216 1.253 . S
H213 C209 0.931 . S
H214 C210 0.930 . S
O215 Co204 2.039 . S
O215 C205 1.265 . S
C216 O212 1.253 . S
C216 O217 1.227 . S
O217 C216 1.227 . S
N218 Co204 2.140 . S
N218 C221 1.346 . S
N218 C222 1.345 . S
C219 C220 1.387 . S
C219 C223 1.391 . S
C220 C219 1.387 . S
C220 C221 1.369 . S
C220 H229 0.929 . S
C221 N218 1.346 . S
C221 C220 1.369 . S
C221 H224 0.928 . S
C222 N218 1.345 . S
C222 C223 1.371 . S
C222 H225 0.931 . S
C223 C219 1.391 . S
C223 C222 1.371 . S
C223 H230 0.930 . S
H224 C221 0.928 . S
H225 C222 0.931 . S
H226 C202 0.930 . S
H227 C199 0.930 . S
H228 C208 0.930 . S
H229 C220 0.929 . S
H230 C223 0.930 . S
C231 C232 1.351 . S
C231 N234 1.368 . S
C231 H236 0.931 . S
C232 C231 1.351 . S
C232 N233 1.373 . S
C232 H260 0.930 . S
N233 C232 1.373 . S
N233 C235 1.340 . S
N234 C231 1.368 . S
N234 C235 1.321 . S
N234 Co237 2.135 . S
C235 N233 1.340 . S
C235 N234 1.321 . S
C235 H259 0.930 . S
H236 C231 0.931 . S
Co237 N234 2.135 . S
Co237 N240 2.121 . S
Co237 O245 2.055 . S
Co237 O248 2.039 . S
Co237 N251 2.140 . S
C238 O239 1.227 . S
C238 O248 1.265 . S
O239 C238 1.227 . S
N240 Co237 2.121 . S
N240 C242 1.375 . S
N240 C243 1.313 . S
C241 C242 1.338 . S
C241 N244 1.377 . S
C241 H261 0.930 . S
C242 N240 1.375 . S
C242 C241 1.338 . S
C242 H246 0.931 . S
C243 N240 1.313 . S
C243 N244 1.344 . S
C243 H247 0.930 . S
N244 C241 1.377 . S
N244 C243 1.344 . S
O245 Co237 2.055 . S
O245 C249 1.253 . S
H246 C242 0.931 . S
H247 C243 0.930 . S
O248 Co237 2.039 . S
O248 C238 1.265 . S
C249 O245 1.253 . S
C249 O250 1.227 . S
O250 C249 1.227 . S
N251 Co237 2.140 . S
N251 C254 1.346 . S
N251 C255 1.345 . S
C252 C253 1.387 . S
C252 C256 1.391 . S
C253 C252 1.387 . S
C253 C254 1.369 . S
C253 H262 0.929 . S
C254 N251 1.346 . S
C254 C253 1.369 . S
C254 H257 0.928 . S
C255 N251 1.345 . S
C255 C256 1.371 . S
C255 H258 0.931 . S
C256 C252 1.391 . S
C256 C255 1.371 . S
C256 H263 0.930 . S
H257 C254 0.928 . S
H258 C255 0.931 . S
H259 C235 0.930 . S
H260 C232 0.930 . S
H261 C241 0.930 . S
H262 C253 0.929 . S
H263 C256 0.930 . S
C264 C265 1.351 . S
C264 N267 1.368 . S
C264 H269 0.931 . S
C265 C264 1.351 . S
C265 N266 1.373 . S
C265 H293 0.930 . S
N266 C265 1.373 . S
N266 C268 1.340 . S
N267 C264 1.368 . S
N267 C268 1.321 . S
N267 Co270 2.135 . S
C268 N266 1.340 . S
C268 N267 1.321 . S
C268 H292 0.930 . S
H269 C264 0.931 . S
Co270 N267 2.135 . S
Co270 N273 2.121 . S
Co270 O278 2.055 . S
Co270 O281 2.039 . S
Co270 N284 2.140 1_565 S
C271 O272 1.227 . S
C271 O281 1.265 . S
O272 C271 1.227 . S
N273 Co270 2.121 . S
N273 C275 1.375 1_565 S
N273 C276 1.313 . S
C274 C275 1.338 . S
C274 N277 1.377 . S
C274 H294 0.930 . S
C275 N273 1.375 1_545 S
C275 C274 1.338 . S
C275 H279 0.931 . S
C276 N273 1.313 . S
C276 N277 1.344 1_565 S
C276 H280 0.930 . S
N277 C274 1.377 . S
N277 C276 1.344 1_545 S
O278 Co270 2.055 . S
O278 C282 1.253 . S
H279 C275 0.931 . S
H280 C276 0.930 . S
O281 Co270 2.039 . S
O281 C271 1.265 . S
C282 O278 1.253 . S
C282 O283 1.227 . S
O283 C282 1.227 . S
N284 Co270 2.140 1_545 S
N284 C287 1.346 . S
N284 C288 1.345 . S
C285 C286 1.387 . S
C285 C289 1.391 . S
C286 C285 1.387 . S
C286 C287 1.369 . S
C286 H295 0.929 . S
C287 N284 1.346 . S
C287 C286 1.369 . S
C287 H290 0.928 . S
C288 N284 1.345 . S
C288 C289 1.371 . S
C288 H291 0.931 . S
C289 C285 1.391 . S
C289 C288 1.371 . S
C289 H296 0.930 . S
H290 C287 0.928 . S
H291 C288 0.931 . S
H292 C268 0.930 . S
H293 C265 0.930 . S
H294 C274 0.930 . S
H295 C286 0.929 . S
H296 C289 0.930 . S
C297 C298 1.351 . S
C297 N300 1.368 . S
C297 H302 0.931 . S
C298 C297 1.351 . S
C298 N299 1.373 . S
C298 H326 0.930 . S
N299 C298 1.373 . S
N299 C301 1.340 . S
N300 C297 1.368 . S
N300 C301 1.321 . S
N300 Co303 2.135 . S
C301 N299 1.340 . S
C301 N300 1.321 . S
C301 H325 0.930 . S
H302 C297 0.931 . S
Co303 N300 2.135 . S
Co303 N306 2.121 . S
Co303 O311 2.055 . S
Co303 O314 2.039 . S
Co303 N317 2.140 1_655 S
C304 O305 1.227 . S
C304 O314 1.265 . S
O305 C304 1.227 . S
N306 Co303 2.121 . S
N306 C308 1.375 1_655 S
N306 C309 1.313 . S
C307 C308 1.338 . S
C307 N310 1.377 . S
C307 H327 0.930 . S
C308 N306 1.375 1_455 S
C308 C307 1.338 . S
C308 H312 0.931 . S
C309 N306 1.313 . S
C309 N310 1.344 1_655 S
C309 H313 0.930 . S
N310 C307 1.377 . S
N310 C309 1.344 1_455 S
O311 Co303 2.055 . S
O311 C315 1.253 . S
H312 C308 0.931 . S
H313 C309 0.930 . S
O314 Co303 2.039 . S
O314 C304 1.265 . S
C315 O311 1.253 . S
C315 O316 1.227 . S
O316 C315 1.227 . S
N317 Co303 2.140 1_455 S
N317 C320 1.346 . S
N317 C321 1.345 . S
C318 C319 1.387 . S
C318 C322 1.391 . S
C319 C318 1.387 . S
C319 C320 1.369 . S
C319 H328 0.929 . S
C320 N317 1.346 . S
C320 C319 1.369 . S
C320 H323 0.928 . S
C321 N317 1.345 . S
C321 C322 1.371 . S
C321 H324 0.931 . S
C322 C318 1.391 . S
C322 C321 1.371 . S
C322 H329 0.930 . S
H323 C320 0.928 . S
H324 C321 0.931 . S
H325 C301 0.930 . S
H326 C298 0.930 . S
H327 C307 0.930 . S
H328 C319 0.929 . S
H329 C322 0.930 . S
C330 C331 1.351 . S
C330 N333 1.368 . S
C330 H335 0.931 . S
C331 C330 1.351 . S
C331 N332 1.373 . S
C331 H359 0.930 . S
N332 C331 1.373 . S
N332 C334 1.340 . S
N333 C330 1.368 . S
N333 C334 1.321 . S
N333 Co336 2.135 . S
C334 N332 1.340 . S
C334 N333 1.321 . S
C334 H358 0.930 . S
H335 C330 0.931 . S
Co336 N333 2.135 . S
Co336 N339 2.121 . S
Co336 O344 2.055 . S
Co336 O347 2.039 . S
Co336 N350 2.140 1_545 S
C337 O338 1.227 . S
C337 O347 1.265 . S
O338 C337 1.227 . S
N339 Co336 2.121 . S
N339 C341 1.375 1_545 S
N339 C342 1.313 . S
C340 C341 1.338 . S
C340 N343 1.377 . S
C340 H360 0.930 . S
C341 N339 1.375 1_565 S
C341 C340 1.338 . S
C341 H345 0.931 . S
C342 N339 1.313 . S
C342 N343 1.344 1_545 S
C342 H346 0.930 . S
N343 C340 1.377 . S
N343 C342 1.344 1_565 S
O344 Co336 2.055 . S
O344 C348 1.253 . S
H345 C341 0.931 . S
H346 C342 0.930 . S
O347 Co336 2.039 . S
O347 C337 1.265 . S
C348 O344 1.253 . S
C348 O349 1.227 . S
O349 C348 1.227 . S
N350 Co336 2.140 1_565 S
N350 C353 1.346 . S
N350 C354 1.345 . S
C351 C352 1.387 . S
C351 C355 1.391 . S
C352 C351 1.387 . S
C352 C353 1.369 . S
C352 H361 0.929 . S
C353 N350 1.346 . S
C353 C352 1.369 . S
C353 H356 0.928 . S
C354 N350 1.345 . S
C354 C355 1.371 . S
C354 H357 0.931 . S
C355 C351 1.391 . S
C355 C354 1.371 . S
C355 H362 0.930 . S
H356 C353 0.928 . S
H357 C354 0.931 . S
H358 C334 0.930 . S
H359 C331 0.930 . S
H360 C340 0.930 . S
H361 C352 0.929 . S
H362 C355 0.930 . S
C363 C364 1.351 . S
C363 N366 1.368 . S
C363 H368 0.931 . S
C364 C363 1.351 . S
C364 N365 1.373 . S
C364 H392 0.930 . S
N365 C364 1.373 . S
N365 C367 1.340 . S
N366 C363 1.368 . S
N366 C367 1.321 . S
N366 Co369 2.135 . S
C367 N365 1.340 . S
C367 N366 1.321 . S
C367 H391 0.930 . S
H368 C363 0.931 . S
Co369 N366 2.135 . S
Co369 N372 2.121 . S
Co369 O377 2.055 . S
Co369 O380 2.039 . S
Co369 N383 2.140 1_455 S
C370 O371 1.227 . S
C370 O380 1.265 . S
O371 C370 1.227 . S
N372 Co369 2.121 . S
N372 C374 1.375 1_455 S
N372 C375 1.313 . S
C373 C374 1.338 . S
C373 N376 1.377 . S
C373 H393 0.930 . S
C374 N372 1.375 1_655 S
C374 C373 1.338 . S
C374 H378 0.931 . S
C375 N372 1.313 . S
C375 N376 1.344 1_455 S
C375 H379 0.930 . S
N376 C373 1.377 . S
N376 C375 1.344 1_655 S
O377 Co369 2.055 . S
O377 C381 1.253 . S
H378 C374 0.931 . S
H379 C375 0.930 . S
O380 Co369 2.039 . S
O380 C370 1.265 . S
C381 O377 1.253 . S
C381 O382 1.227 . S
O382 C381 1.227 . S
N383 Co369 2.140 1_655 S
N383 C386 1.346 . S
N383 C387 1.345 . S
C384 C385 1.387 . S
C384 C388 1.391 . S
C385 C384 1.387 . S
C385 C386 1.369 . S
C385 H394 0.929 . S
C386 N383 1.346 . S
C386 C385 1.369 . S
C386 H389 0.928 . S
C387 N383 1.345 . S
C387 C388 1.371 . S
C387 H390 0.931 . S
C388 C384 1.391 . S
C388 C387 1.371 . S
C388 H395 0.930 . S
H389 C386 0.928 . S
H390 C387 0.931 . S
H391 C367 0.930 . S
H392 C364 0.930 . S
H393 C373 0.930 . S
H394 C385 0.929 . S
H395 C388 0.930 . S
C396 C397 1.351 . S
C396 N399 1.368 . S
C396 H401 0.931 . S
C397 C396 1.351 . S
C397 N398 1.373 . S
C397 H425 0.930 . S
N398 C397 1.373 . S
N398 C400 1.340 . S
N399 C396 1.368 . S
N399 C400 1.321 . S
N399 Co402 2.135 . S
C400 N398 1.340 . S
C400 N399 1.321 . S
C400 H424 0.930 . S
H401 C396 0.931 . S
Co402 N399 2.135 . S
Co402 N405 2.121 . S
Co402 O410 2.055 . S
Co402 O413 2.039 . S
Co402 N416 2.140 1_545 S
C403 O404 1.227 . S
C403 O413 1.265 . S
O404 C403 1.227 . S
N405 Co402 2.121 . S
N405 C407 1.375 1_545 S
N405 C408 1.313 . S
C406 C407 1.338 . S
C406 N409 1.377 . S
C406 H426 0.930 . S
C407 N405 1.375 1_565 S
C407 C406 1.338 . S
C407 H411 0.931 . S
C408 N405 1.313 . S
C408 N409 1.344 1_545 S
C408 H412 0.930 . S
N409 C406 1.377 . S
N409 C408 1.344 1_565 S
O410 Co402 2.055 . S
O410 C414 1.253 . S
H411 C407 0.931 . S
H412 C408 0.930 . S
O413 Co402 2.039 . S
O413 C403 1.265 . S
C414 O410 1.253 . S
C414 O415 1.227 . S
O415 C414 1.227 . S
N416 Co402 2.140 1_565 S
N416 C419 1.346 . S
N416 C420 1.345 . S
C417 C418 1.387 . S
C417 C421 1.391 . S
C418 C417 1.387 . S
C418 C419 1.369 . S
C418 H427 0.929 . S
C419 N416 1.346 . S
C419 C418 1.369 . S
C419 H422 0.928 . S
C420 N416 1.345 . S
C420 C421 1.371 . S
C420 H423 0.931 . S
C421 C417 1.391 . S
C421 C420 1.371 . S
C421 H428 0.930 . S
H422 C419 0.928 . S
H423 C420 0.931 . S
H424 C400 0.930 . S
H425 C397 0.930 . S
H426 C406 0.930 . S
H427 C418 0.929 . S
H428 C421 0.930 . S
C429 C430 1.351 . S
C429 N432 1.368 . S
C429 H434 0.931 . S
C430 C429 1.351 . S
C430 N431 1.373 . S
C430 H458 0.930 . S
N431 C430 1.373 . S
N431 C433 1.340 . S
N432 C429 1.368 . S
N432 C433 1.321 . S
N432 Co435 2.135 . S
C433 N431 1.340 . S
C433 N432 1.321 . S
C433 H457 0.930 . S
H434 C429 0.931 . S
Co435 N432 2.135 . S
Co435 N438 2.121 . S
Co435 O443 2.055 . S
Co435 O446 2.039 . S
Co435 N449 2.140 1_455 S
C436 O437 1.227 . S
C436 O446 1.265 . S
O437 C436 1.227 . S
N438 Co435 2.121 . S
N438 C440 1.375 1_455 S
N438 C441 1.313 . S
C439 C440 1.338 . S
C439 N442 1.377 . S
C439 H459 0.930 . S
C440 N438 1.375 1_655 S
C440 C439 1.338 . S
C440 H444 0.931 . S
C441 N438 1.313 . S
C441 N442 1.344 1_455 S
C441 H445 0.930 . S
N442 C439 1.377 . S
N442 C441 1.344 1_655 S
O443 Co435 2.055 . S
O443 C447 1.253 . S
H444 C440 0.931 . S
H445 C441 0.930 . S
O446 Co435 2.039 . S
O446 C436 1.265 . S
C447 O443 1.253 . S
C447 O448 1.227 . S
O448 C447 1.227 . S
N449 Co435 2.140 1_655 S
N449 C452 1.346 . S
N449 C453 1.345 . S
C450 C451 1.387 . S
C450 C454 1.391 . S
C451 C450 1.387 . S
C451 C452 1.369 . S
C451 H460 0.929 . S
C452 N449 1.346 . S
C452 C451 1.369 . S
C452 H455 0.928 . S
C453 N449 1.345 . S
C453 C454 1.371 . S
C453 H456 0.931 . S
C454 C450 1.391 . S
C454 C453 1.371 . S
C454 H461 0.930 . S
H455 C452 0.928 . S
H456 C453 0.931 . S
H457 C433 0.930 . S
H458 C430 0.930 . S
H459 C439 0.930 . S
H460 C451 0.929 . S
H461 C454 0.930 . S
C462 C463 1.351 . S
C462 N465 1.368 . S
C462 H467 0.931 . S
C463 C462 1.351 . S
C463 N464 1.373 . S
C463 H491 0.930 . S
N464 C463 1.373 . S
N464 C466 1.340 . S
N465 C462 1.368 . S
N465 C466 1.321 . S
N465 Co468 2.135 . S
C466 N464 1.340 . S
C466 N465 1.321 . S
C466 H490 0.930 . S
H467 C462 0.931 . S
Co468 N465 2.135 . S
Co468 N471 2.121 . S
Co468 O476 2.055 . S
Co468 O479 2.039 . S
Co468 N482 2.140 1_565 S
C469 O470 1.227 . S
C469 O479 1.265 . S
O470 C469 1.227 . S
N471 Co468 2.121 . S
N471 C473 1.375 1_565 S
N471 C474 1.313 . S
C472 C473 1.338 . S
C472 N475 1.377 . S
C472 H492 0.930 . S
C473 N471 1.375 1_545 S
C473 C472 1.338 . S
C473 H477 0.931 . S
C474 N471 1.313 . S
C474 N475 1.344 1_565 S
C474 H478 0.930 . S
N475 C472 1.377 . S
N475 C474 1.344 1_545 S
O476 Co468 2.055 . S
O476 C480 1.253 . S
H477 C473 0.931 . S
H478 C474 0.930 . S
O479 Co468 2.039 . S
O479 C469 1.265 . S
C480 O476 1.253 . S
C480 O481 1.227 . S
O481 C480 1.227 . S
N482 Co468 2.140 1_545 S
N482 C485 1.346 . S
N482 C486 1.345 . S
C483 C484 1.387 . S
C483 C487 1.391 . S
C484 C483 1.387 . S
C484 C485 1.369 . S
C484 H493 0.929 . S
C485 N482 1.346 . S
C485 C484 1.369 . S
C485 H488 0.928 . S
C486 N482 1.345 . S
C486 C487 1.371 . S
C486 H489 0.931 . S
C487 C483 1.391 . S
C487 C486 1.371 . S
C487 H494 0.930 . S
H488 C485 0.928 . S
H489 C486 0.931 . S
H490 C466 0.930 . S
H491 C463 0.930 . S
H492 C472 0.930 . S
H493 C484 0.929 . S
H494 C487 0.930 . S
C495 C496 1.351 . S
C495 N498 1.368 . S
C495 H500 0.931 . S
C496 C495 1.351 . S
C496 N497 1.373 . S
C496 H524 0.930 . S
N497 C496 1.373 . S
N497 C499 1.340 . S
N498 C495 1.368 . S
N498 C499 1.321 . S
N498 Co501 2.135 . S
C499 N497 1.340 . S
C499 N498 1.321 . S
C499 H523 0.930 . S
H500 C495 0.931 . S
Co501 N498 2.135 . S
Co501 N504 2.121 . S
Co501 O509 2.055 . S
Co501 O512 2.039 . S
Co501 N515 2.140 1_655 S
C502 O503 1.227 . S
C502 O512 1.265 . S
O503 C502 1.227 . S
N504 Co501 2.121 . S
N504 C506 1.375 1_655 S
N504 C507 1.313 . S
C505 C506 1.338 . S
C505 N508 1.377 . S
C505 H525 0.930 . S
C506 N504 1.375 1_455 S
C506 C505 1.338 . S
C506 H510 0.931 . S
C507 N504 1.313 . S
C507 N508 1.344 1_655 S
C507 H511 0.930 . S
N508 C505 1.377 . S
N508 C507 1.344 1_455 S
O509 Co501 2.055 . S
O509 C513 1.253 . S
H510 C506 0.931 . S
H511 C507 0.930 . S
O512 Co501 2.039 . S
O512 C502 1.265 . S
C513 O509 1.253 . S
C513 O514 1.227 . S
O514 C513 1.227 . S
N515 Co501 2.140 1_455 S
N515 C518 1.346 . S
N515 C519 1.345 . S
C516 C517 1.387 . S
C516 C520 1.391 . S
C517 C516 1.387 . S
C517 C518 1.369 . S
C517 H526 0.929 . S
C518 N515 1.346 . S
C518 C517 1.369 . S
C518 H521 0.928 . S
C519 N515 1.345 . S
C519 C520 1.371 . S
C519 H522 0.931 . S
C520 C516 1.391 . S
C520 C519 1.371 . S
C520 H527 0.930 . S
H521 C518 0.928 . S
H522 C519 0.931 . S
H523 C499 0.930 . S
H524 C496 0.930 . S
H525 C505 0.930 . S
H526 C517 0.929 . S
H527 C520 0.930 . S
C73 C7 2.396 1_655 S
C106 C40 2.396 1_545 S
C205 C139 2.396 1_655 S
C172 C238 2.396 1_565 S
C271 C337 2.396 1_565 S
C304 C370 2.396 1_655 S
C469 C403 2.396 1_565 S
C502 C436 2.396 1_655 S
C18 C249 1.230 . S
C150 C51 1.230 . S
C183 C84 1.230 . S
C216 C117 1.230 . S
C513 C282 1.230 . S
C414 C315 1.230 . S
C447 C348 1.230 . S
C480 C381 1.230 . S
C21 N365 1.505 . S
C54 N266 1.505 . S
C87 N299 1.505 . S
N332 C120 1.505 . S
C153 N431 1.505 . S
C186 N464 1.505 . S
C219 N497 1.505 . S
C252 N398 1.505 . S
N101 C285 1.505 . S
N2 C318 1.505 . S
N35 C351 1.505 . S
C384 N68 1.505 . S
C417 N167 1.505 . S
C450 N200 1.505 . S
C483 N233 1.505 . S
C516 N134 1.505 . S
N145 N13 2.105 . S
N178 N46 2.105 . S
N79 N211 2.105 . S
N244 N112 2.105 . S
N277 N409 2.105 1_546 S
N442 N310 2.105 1_656 S
N475 N343 2.105 1_544 S
N508 N376 2.105 1_456 S
