# Generated by pormake.
# Topology lcy, (6)-cn, num edge types: 1
# Building blocks:
#     Node 0, Type 0, BuildingBlock: FUNLAD_clean_sbu_0, # of connection points: 6
#     Node 1, Type 0, BuildingBlock: FUNLAD_clean_sbu_0, # of connection points: 6
#     Node 2, Type 0, BuildingBlock: FUNLAD_clean_sbu_0, # of connection points: 6
#     Node 3, Type 0, BuildingBlock: FUNLAD_clean_sbu_0, # of connection points: 6
#     Edge 4, Type (0, 0), BuildingBlock: CIFDUS_clean_linker_0, # of connection points: 2
#     Edge 5, Type (0, 0), BuildingBlock: CIFDUS_clean_linker_0, # of connection points: 2
#     Edge 6, Type (0, 0), BuildingBlock: CIFDUS_clean_linker_0, # of connection points: 2
#     Edge 7, Type (0, 0), BuildingBlock: CIFDUS_clean_linker_0, # of connection points: 2
#     Edge 8, Type (0, 0), BuildingBlock: CIFDUS_clean_linker_0, # of connection points: 2
#     Edge 9, Type (0, 0), BuildingBlock: CIFDUS_clean_linker_0, # of connection points: 2
#     Edge 10, Type (0, 0), BuildingBlock: CIFDUS_clean_linker_0, # of connection points: 2
#     Edge 11, Type (0, 0), BuildingBlock: CIFDUS_clean_linker_0, # of connection points: 2
#     Edge 12, Type (0, 0), BuildingBlock: CIFDUS_clean_linker_0, # of connection points: 2
#     Edge 13, Type (0, 0), BuildingBlock: CIFDUS_clean_linker_0, # of connection points: 2
#     Edge 14, Type (0, 0), BuildingBlock: CIFDUS_clean_linker_0, # of connection points: 2
#     Edge 15, Type (0, 0), BuildingBlock: CIFDUS_clean_linker_0, # of connection points: 2
# Relax obj value: 0.693
# Max RMSD: 0.361
# Mean RMSD: 0.324
data_MOF--net-lcy--node1-FUNLAD_clean_sbu_0--edge1-CIFDUS_clean_linker_0
_symmetry_space_group_name_H-M    P1
_symmetry_Int_Tables_number       1
_symmetry_cell_setting            triclinic
loop_
_symmetry_equiv_pos_as_xyz
'x, y, z'
_cell_length_a     24.963872
_cell_length_b     24.878965
_cell_length_c     23.399788
_cell_angle_alpha  79.293241
_cell_angle_beta   79.309423
_cell_angle_gamma 68.110111
loop_
_atom_site_label
_atom_site_type_symbol
_atom_site_fract_x
_atom_site_fract_y
_atom_site_fract_z
_atom_type_partial_charge
C0 C 0.30107 0.46465 0.35231 0.0
N1 N 0.44452 0.49546 0.38883 0.0
C2 C 0.45354 0.5118 0.33015 0.0
C3 C 0.47257 0.55878 0.30909 0.0
C4 C 0.48198 0.58944 0.34883 0.0
C5 C 0.47592 0.56914 0.4089 0.0
C6 C 0.45714 0.5218 0.42802 0.0
Zn7 Zn 0.40133 0.43865 0.42032 0.0
C8 C 0.3116 0.48089 0.52589 0.0
N9 N 0.30407 0.32667 0.48704 0.0
C10 C 0.28672 0.30646 0.44606 0.0
C11 C 0.28433 0.31791 0.54496 0.0
C12 C 0.24288 0.29086 0.56306 0.0
C13 C 0.222 0.27251 0.5211 0.0
C14 C 0.24584 0.27889 0.46223 0.0
Zn15 Zn 0.35109 0.38036 0.45669 0.0
O16 O 0.34198 0.48174 0.35677 0.0
C17 C 0.44068 0.33186 0.359 0.0
O18 O 0.29073 0.42567 0.39175 0.0
H19 H 0.2986 0.33436 0.5768 0.0
H20 H 0.4434 0.49014 0.29979 0.0
H21 H 0.30212 0.31449 0.40011 0.0
O22 O 0.45415 0.37702 0.35721 0.0
O23 O 0.40004 0.32432 0.39682 0.0
H24 H 0.44979 0.50808 0.47452 0.0
O25 O 0.41603 0.33422 0.51783 0.0
O26 O 0.46094 0.3959 0.47906 0.0
O27 O 0.30106 0.43632 0.51975 0.0
O28 O 0.34924 0.49585 0.48824 0.0
C29 C 0.458 0.35257 0.5159 0.0
H30 H 0.47795 0.57218 0.26226 0.0
H31 H 0.48239 0.59152 0.44111 0.0
H32 H 0.22591 0.2861 0.60906 0.0
H33 H 0.23048 0.26599 0.42845 0.0
C34 C 0.75947 0.23492 0.6474 0.0
N35 N 0.88605 0.07551 0.60448 0.0
C36 C 0.84714 0.05367 0.59367 0.0
C37 C 0.86446 0.0124 0.5549 0.0
C38 C 0.92222 0.9938 0.52722 0.0
C39 C 0.96124 0.01733 0.53876 0.0
C40 C 0.94222 0.05813 0.57811 0.0
Zn41 Zn 0.86509 0.12898 0.6661 0.0
C42 C 0.93015 0.20684 0.64118 0.0
N43 N 0.82998 0.23278 0.79961 0.0
C44 C 0.78232 0.28127 0.80949 0.0
C45 C 0.87925 0.22139 0.82373 0.0
C46 C 0.88337 0.26065 0.85624 0.0
C47 C 0.83671 0.31312 0.86368 0.0
C48 C 0.78484 0.32247 0.84151 0.0
Zn49 Zn 0.84006 0.18241 0.73565 0.0
O50 O 0.78932 0.18549 0.63041 0.0
C51 C 0.77814 0.10517 0.76553 0.0
O52 O 0.77595 0.25157 0.68744 0.0
H53 H 0.91764 0.18428 0.81372 0.0
H54 H 0.80294 0.06795 0.61545 0.0
H55 H 0.74372 0.29 0.78946 0.0
O56 O 0.81424 0.08162 0.72326 0.0
O57 O 0.77556 0.15377 0.77725 0.0
H58 H 0.9729 0.07507 0.5883 0.0
O59 O 0.90014 0.10537 0.78398 0.0
O60 O 0.93778 0.07073 0.7012 0.0
O61 O 0.9067 0.21321 0.69342 0.0
O62 O 0.91649 0.17595 0.61304 0.0
C63 C 0.93589 0.06418 0.75611 0.0
H64 H 0.83271 0.9961 0.54571 0.0
H65 H 0.00586 1.00416 0.51779 0.0
H66 H 0.92481 0.25202 0.8709 0.0
H67 H 0.7478 0.36241 0.84632 0.0
C68 C 0.20587 0.57217 0.02733 0.0
N69 N 0.20405 0.73414 0.9368 0.0
C70 C 0.20233 0.74865 0.9905 0.0
C71 C 0.22482 0.79059 0.9961 0.0
C72 C 0.2493 0.81824 0.94594 0.0
C73 C 0.2507 0.80238 0.89093 0.0
C74 C 0.22759 0.76001 0.88732 0.0
Zn75 Zn 0.16529 0.67605 0.93342 0.0
C76 C 0.22117 0.5954 0.84307 0.0
N77 N 0.07587 0.55966 0.94108 0.0
C78 C 0.05905 0.53167 0.99301 0.0
C79 C 0.05995 0.55551 0.89002 0.0
C80 C 0.02521 0.52262 0.89007 0.0
C81 C 0.00641 0.494 0.94322 0.0
C82 C 0.02411 0.49861 0.99511 0.0
Zn83 Zn 0.11979 0.61415 0.94167 0.0
O84 O 0.21036 0.62048 1.00261 0.0
C85 C 0.05192 0.69864 1.018 0.0
O86 O 0.17338 0.55237 1.00765 0.0
H87 H 0.07357 0.57838 0.8493 0.0
H88 H 0.18326 0.72769 0.02923 0.0
H89 H 0.07161 0.53607 0.03323 0.0
O90 O 0.09038 0.72152 0.99554 0.0
O91 O 0.06016 0.64786 1.00846 0.0
H92 H 0.22795 0.7482 0.84501 0.0
O93 O 0.06329 0.68276 0.88147 0.0
O94 O 0.12247 0.73177 0.86897 0.0
O95 O 0.17913 0.57927 0.86891 0.0
O96 O 0.23274 0.63274 0.86493 0.0
C97 C 0.0767 0.72754 0.85829 0.0
H98 H 0.22404 0.80038 0.03952 0.0
H99 H 0.2691 0.82272 0.85117 0.0
H100 H 0.01354 0.51937 0.84884 0.0
H101 H 0.01023 0.47778 0.03711 0.0
C102 C 0.56026 0.03362 0.22102 0.0
N103 N 0.7258 0.912 0.25215 0.0
C104 C 0.74856 0.95345 0.25325 0.0
C105 C 0.7952 0.94015 0.28455 0.0
C106 C 0.81906 0.88338 0.314 0.0
C107 C 0.79537 0.84134 0.31079 0.0
C108 C 0.74811 0.85685 0.28025 0.0
Zn109 Zn 0.66325 0.926 0.20216 0.0
C110 C 0.58695 0.86151 0.25216 0.0
N111 N 0.54432 0.94572 0.08901 0.0
C112 C 0.50296 0.99572 0.0681 0.0
C113 C 0.55058 0.89298 0.07469 0.0
C114 C 0.51543 0.88889 0.03747 0.0
C115 C 0.4723 0.93932 1.01546 0.0
C116 C 0.46558 0.99339 0.0314 0.0
Zn117 Zn 0.60126 0.94233 0.14293 0.0
O118 O 0.61209 1.00621 0.23255 0.0
C119 C 0.67752 1.0003 0.08643 0.0
O120 O 0.53866 0.01246 0.18901 0.0
H121 H 0.58256 0.85354 0.09278 0.0
H122 H 0.73039 0.99674 0.23004 0.0
H123 H 0.49867 0.03716 0.08022 0.0
O124 O 0.7053 0.97087 0.1293 0.0
O125 O 0.62619 1.00229 0.0866 0.0
H126 H 0.72981 0.8242 0.27841 0.0
O127 O 0.67105 0.87564 0.09467 0.0
O128 O 0.71527 0.84879 0.17239 0.0
O129 O 0.5744 0.87991 0.20041 0.0
O130 O 0.62161 0.87905 0.27056 0.0
C131 C 0.71435 0.84234 0.1207 0.0
H132 H 0.81101 0.97456 0.28715 0.0
H133 H 0.8125 0.79712 0.33248 0.0
H134 H 0.52073 0.84624 0.02744 0.0
H135 H 0.43201 0.03303 1.01571 0.0
H136 H 0.16637 0.5137 0.12967 0.0
H137 H 0.30793 0.57305 0.04915 0.0
H138 H 0.3473 0.54843 0.14217 0.0
H139 H 0.34022 0.51444 0.24732 0.0
H140 H 0.20138 0.45217 0.33045 0.0
H141 H 0.16212 0.47423 0.23658 0.0
C142 C 0.20662 0.51978 0.13223 0.0
C143 C 0.2344 0.54473 0.08178 0.0
C144 C 0.22885 0.5064 0.18697 0.0
C145 C 0.28578 0.55357 0.08671 0.0
C146 C 0.30816 0.53996 0.14022 0.0
C147 C 0.30092 0.50621 0.24537 0.0
C148 C 0.2733 0.48265 0.29672 0.0
C149 C 0.27953 0.5175 0.1909 0.0
C150 C 0.22323 0.47108 0.29222 0.0
C151 C 0.20098 0.4833 0.23823 0.0
H152 H 0.91071 0.92094 0.29802 0.0
H153 H 0.82444 0.81774 0.42174 0.0
H154 H 0.8699 0.82748 0.50019 0.0
H155 H 0.9051 0.89179 0.53737 0.0
H156 H 0.9761 0.00883 0.41634 0.0
H157 H 0.96722 0.96689 0.33375 0.0
C158 C 0.90304 0.89951 0.34195 0.0
C159 C 0.86229 0.87108 0.3545 0.0
C160 C 0.92582 0.90893 0.38785 0.0
C161 C 0.85484 0.84088 0.41081 0.0
C162 C 0.88036 0.84694 0.4561 0.0
C163 C 0.92047 0.90644 0.49289 0.0
C164 C 0.93895 0.95445 0.48226 0.0
C165 C 0.91151 0.88501 0.44585 0.0
C166 C 0.96069 0.97239 0.42513 0.0
C167 C 0.95503 0.94886 0.37793 0.0
H168 H 0.18053 0.54599 0.77499 0.0
H169 H 0.32146 0.60656 0.77471 0.0
H170 H 0.35993 0.58131 0.6746 0.0
H171 H 0.35413 0.53921 0.58698 0.0
H172 H 0.20961 0.48253 0.5908 0.0
H173 H 0.17169 0.51022 0.68866 0.0
C174 C 0.22007 0.55338 0.75362 0.0
C175 C 0.24852 0.57727 0.78347 0.0
C176 C 0.24091 0.5402 0.69577 0.0
C177 C 0.29892 0.58752 0.75363 0.0
C178 C 0.32073 0.57338 0.69605 0.0
C179 C 0.31366 0.5342 0.60875 0.0
C180 C 0.28469 0.50895 0.58079 0.0
C181 C 0.29203 0.54968 0.66642 0.0
C182 C 0.23286 0.5019 0.61059 0.0
C183 C 0.21123 0.51738 0.66699 0.0
H184 H 0.62607 0.06303 0.99247 0.0
H185 H 0.79479 0.97699 0.05276 0.0
H186 H 0.84184 0.9897 0.95201 0.0
H187 H 0.83384 0.02742 0.8477 0.0
H188 H 0.66493 0.116 0.79012 0.0
H189 H 0.61825 0.09551 0.88917 0.0
C190 C 0.67324 0.04729 0.98395 0.0
C191 C 0.70695 0.01923 0.03013 0.0
C192 C 0.69953 0.05259 0.92628 0.0
C193 C 0.76791 0.99942 1.01814 0.0
C194 C 0.79472 1.00569 0.96049 0.0
C195 C 0.7869 0.03968 0.85662 0.0
C196 C 0.75249 0.0715 0.81205 0.0
C197 C 0.76082 0.03152 0.91426 0.0
C198 C 0.6918 0.08966 0.82374 0.0
C199 C 0.66536 0.07938 0.8805 0.0
H200 H 0.02397 0.16356 0.56116 0.0
H201 H 0.94126 0.30236 0.66957 0.0
H202 H 0.02471 0.3345 0.64225 0.0
H203 H 0.12263 0.32074 0.59126 0.0
H204 H 0.208 0.18025 0.48539 0.0
H205 H 0.12223 0.15097 0.5081 0.0
C206 C 0.02393 0.20148 0.57779 0.0
C207 C 0.97659 0.23078 0.61699 0.0
C208 C 0.07285 0.21876 0.5632 0.0
C209 C 0.97729 0.27923 0.63918 0.0
C210 C 0.02507 0.29743 0.62388 0.0
C211 C 0.12278 0.2832 0.57382 0.0
C212 C 0.17176 0.25226 0.53735 0.0
C213 C 0.0735 0.26682 0.5869 0.0
C214 C 0.17075 0.20469 0.51372 0.0
C215 C 0.12174 0.18802 0.52658 0.0
H216 H 0.01329 0.81924 0.91405 0.0
H217 H 0.05509 0.75925 0.74459 0.0
H218 H 0.01756 0.86055 0.69779 0.0
H219 H 0.98263 0.96503 0.70477 0.0
H220 H 0.94269 0.02647 0.87404 0.0
H221 H 0.97214 0.92502 0.92159 0.0
C222 C 0.01185 0.82848 0.86704 0.0
C223 C 0.0351 0.78201 0.83271 0.0
C224 C 0.99332 0.88678 0.84056 0.0
C225 C 0.03541 0.79418 0.77182 0.0
C226 C 0.01529 0.85211 0.74515 0.0
C227 C 0.98092 0.95666 0.75213 0.0
C228 C 0.96155 1.00372 0.78573 0.0
C229 C -0.00381 0.89861 0.77899 0.0
C230 C 0.95862 0.99136 0.84704 0.0
C231 C 0.97463 0.93338 0.87421 0.0
H232 H 0.35193 0.82615 0.88946 0.0
H233 H 0.20788 0.90442 1.01723 0.0
H234 H 0.26156 0.9592 0.04256 0.0
H235 H 0.3555 0.97121 0.04005 0.0
H236 H 0.5004 0.88945 0.9152 0.0
H237 H 0.43975 0.85138 0.87542 0.0
C238 C 0.33154 0.85653 0.92154 0.0
C239 C 0.27654 0.86025 0.95229 0.0
C240 C 0.36297 0.88717 0.93651 0.0
C241 C 0.25085 0.89966 0.99399 0.0
C242 C 0.2814 0.93116 1.00836 0.0
C243 C 0.37294 0.94693 1.00269 0.0
C244 C 0.4321 0.93271 0.98065 0.0
C245 C 0.33843 0.92334 0.98167 0.0
C246 C 0.45481 0.90063 0.93276 0.0
C247 C 0.42033 0.8785 0.91042 0.0
H248 H 0.39325 0.26878 0.31698 0.0
H249 H 0.5572 0.28939 0.31719 0.0
H250 H 0.60863 0.19838 0.27324 0.0
H251 H 0.60685 0.10882 0.2436 0.0
H252 H 0.44226 0.08991 0.24169 0.0
H253 H 0.39084 0.18457 0.27823 0.0
C254 C 0.44026 0.25388 0.30643 0.0
C255 C 0.47154 0.28558 0.32054 0.0
C256 C 0.46921 0.20142 0.28206 0.0
C257 C 0.53222 0.26611 0.30627 0.0
C258 C 0.56154 0.21372 0.28185 0.0
C259 C 0.55966 0.12539 0.25122 0.0
C260 C 0.52832 0.09177 0.24112 0.0
C261 C 0.53053 0.18025 0.27117 0.0
C262 C 0.46729 0.11456 0.24969 0.0
C263 C 0.43798 0.16869 0.27045 0.0
H264 H 0.68496 0.18814 0.62568 0.0
H265 H 0.7035 0.35361 0.62586 0.0
H266 H 0.60866 0.40482 0.58964 0.0
H267 H 0.52364 0.40164 0.55266 0.0
H268 H 0.50303 0.2362 0.55738 0.0
H269 H 0.5952 0.18557 0.59853 0.0
C270 C 0.66829 0.23548 0.61759 0.0
C271 C 0.70177 0.26719 0.62697 0.0
C272 C 0.61326 0.26436 0.5984 0.0
C273 C 0.67889 0.32839 0.61819 0.0
C274 C 0.62468 0.35753 0.59765 0.0
C275 C 0.53888 0.3545 0.56358 0.0
C276 C 0.50667 0.32259 0.55168 0.0
C277 C 0.59187 0.32588 0.58699 0.0
C278 C 0.52668 0.26172 0.5665 0.0
C279 C 0.57969 0.2328 0.58941 0.0
H280 H 0.91575 0.51936 0.8812 0.0
H281 H 0.01473 0.38847 1.00801 0.0
H282 H 0.9608 0.32575 1.00369 0.0
H283 H 0.89494 0.30279 0.95482 0.0
H284 H 0.8034 0.42914 0.82051 0.0
H285 H 0.84325 0.4995 0.83835 0.0
C286 C 0.92548 0.47712 0.90792 0.0
C287 C 0.96981 0.4584 0.94426 0.0
C288 C 0.89527 0.44054 0.90418 0.0
C289 C 0.98077 0.40418 0.97979 0.0
C290 C 0.9501 0.36809 0.97717 0.0
C291 C 0.88305 0.34605 0.93003 0.0
C292 C 0.847 0.36025 0.88577 0.0
C293 C 0.90852 0.38513 0.9383 0.0
C294 C 0.83081 0.41698 0.85504 0.0
C295 C 0.85434 0.45701 0.86459 0.0
H296 H 0.95613 0.67085 0.02534 0.0
H297 H 0.01143 0.80641 0.05794 0.0
H298 H 0.90931 0.86545 0.08661 0.0
H299 H 0.80564 0.87606 0.10506 0.0
H300 H 0.75117 0.74173 0.06931 0.0
H301 H 0.85301 0.6844 0.03695 0.0
C302 C 0.94639 0.71304 0.03938 0.0
C303 C 0.99181 0.7336 0.04101 0.0
C304 C 0.88801 0.74706 0.05368 0.0
C305 C 0.97762 0.78911 0.05755 0.0
C306 C 0.9193 0.82294 0.07331 0.0
C307 C 0.81608 0.83486 0.08863 0.0
C308 C 0.77134 0.81314 0.08852 0.0
C309 C 0.87435 0.80221 0.07147 0.0
C310 C 0.78492 0.75946 0.06853 0.0
C311 C 0.84305 0.7266 0.05096 0.0
H312 H 0.50146 0.83076 0.22937 0.0
H313 H 0.6281 0.78618 0.34929 0.0
H314 H 0.60566 0.69785 0.39143 0.0
H315 H 0.55613 0.62918 0.38731 0.0
H316 H 0.43114 0.67556 0.26495 0.0
H317 H 0.44835 0.76667 0.2294 0.0
C318 C 0.52379 0.80218 0.26526 0.0
C319 C 0.56664 0.81479 0.28595 0.0
C320 C 0.51198 0.7511 0.2878 0.0
C321 C 0.5947 0.77757 0.33279 0.0
C322 C 0.58232 0.72679 0.35641 0.0
C323 C 0.53234 0.65947 0.35323 0.0
C324 C 0.49318 0.64491 0.32811 0.0
C325 C 0.54207 0.71238 0.33316 0.0
C326 C 0.46276 0.6847 0.28391 0.0
C327 C 0.47203 0.73721 0.26398 0.0
loop_
_geom_bond_atom_site_label_1
_geom_bond_atom_site_label_2
_geom_bond_distance
_geom_bond_site_symmetry_2
_ccdc_geom_bond_type
C0 O16 1.251 . S
C0 O18 1.254 . S
N1 C2 1.333 . S
N1 C6 1.307 . S
N1 Zn7 2.020 . S
C2 N1 1.333 . S
C2 C3 1.379 . S
C2 H20 0.952 . S
C3 C2 1.379 . S
C3 C4 1.390 . S
C3 H30 0.949 . S
C4 C3 1.390 . S
C4 C5 1.357 . S
C5 C4 1.357 . S
C5 C6 1.370 . S
C5 H31 0.950 . S
C6 N1 1.307 . S
C6 C5 1.370 . S
C6 H24 0.948 . S
Zn7 N1 2.020 . S
Zn7 O16 2.039 . S
Zn7 O22 2.034 . S
Zn7 O26 2.025 . S
Zn7 O28 2.024 . S
C8 O27 1.246 . S
C8 O28 1.249 . S
N9 C10 1.307 . S
N9 C11 1.333 . S
N9 Zn15 2.020 . S
C10 N9 1.307 . S
C10 C14 1.370 . S
C10 H21 0.948 . S
C11 N9 1.333 . S
C11 C12 1.379 . S
C11 H19 0.952 . S
C12 C11 1.379 . S
C12 C13 1.390 . S
C12 H32 0.949 . S
C13 C12 1.390 . S
C13 C14 1.357 . S
C14 C10 1.370 . S
C14 C13 1.357 . S
C14 H33 0.950 . S
Zn15 N9 2.020 . S
Zn15 O18 2.025 . S
Zn15 O23 2.024 . S
Zn15 O25 2.039 . S
Zn15 O27 2.034 . S
O16 C0 1.251 . S
O16 Zn7 2.039 . S
C17 O22 1.246 . S
C17 O23 1.249 . S
O18 C0 1.254 . S
O18 Zn15 2.025 . S
H19 C11 0.952 . S
H20 C2 0.952 . S
H21 C10 0.948 . S
O22 Zn7 2.034 . S
O22 C17 1.246 . S
O23 Zn15 2.024 . S
O23 C17 1.249 . S
H24 C6 0.948 . S
O25 Zn15 2.039 . S
O25 C29 1.251 . S
O26 Zn7 2.025 . S
O26 C29 1.254 . S
O27 C8 1.246 . S
O27 Zn15 2.034 . S
O28 Zn7 2.024 . S
O28 C8 1.249 . S
C29 O25 1.251 . S
C29 O26 1.254 . S
H30 C3 0.949 . S
H31 C5 0.950 . S
H32 C12 0.949 . S
H33 C14 0.950 . S
C34 O50 1.251 . S
C34 O52 1.254 . S
N35 C36 1.333 . S
N35 C40 1.307 . S
N35 Zn41 2.020 . S
C36 N35 1.333 . S
C36 C37 1.379 . S
C36 H54 0.952 . S
C37 C36 1.379 . S
C37 C38 1.390 1_545 S
C37 H64 0.949 . S
C38 C37 1.390 1_565 S
C38 C39 1.357 . S
C39 C38 1.357 . S
C39 C40 1.370 1_565 S
C39 H65 0.950 . S
C40 N35 1.307 . S
C40 C39 1.370 1_545 S
C40 H58 0.948 1_545 S
Zn41 N35 2.020 . S
Zn41 O50 2.039 . S
Zn41 O56 2.034 . S
Zn41 O60 2.025 . S
Zn41 O62 2.024 . S
C42 O61 1.246 . S
C42 O62 1.249 . S
N43 C44 1.307 . S
N43 C45 1.333 . S
N43 Zn49 2.020 . S
C44 N43 1.307 . S
C44 C48 1.370 . S
C44 H55 0.948 . S
C45 N43 1.333 . S
C45 C46 1.379 . S
C45 H53 0.952 . S
C46 C45 1.379 . S
C46 C47 1.390 . S
C46 H66 0.949 . S
C47 C46 1.390 . S
C47 C48 1.357 . S
C48 C44 1.370 . S
C48 C47 1.357 . S
C48 H67 0.950 . S
Zn49 N43 2.020 . S
Zn49 O52 2.025 . S
Zn49 O57 2.024 . S
Zn49 O59 2.039 . S
Zn49 O61 2.034 . S
O50 C34 1.251 . S
O50 Zn41 2.039 . S
C51 O56 1.246 . S
C51 O57 1.249 . S
O52 C34 1.254 . S
O52 Zn49 2.025 . S
H53 C45 0.952 . S
H54 C36 0.952 . S
H55 C44 0.948 . S
O56 Zn41 2.034 . S
O56 C51 1.246 . S
O57 Zn49 2.024 . S
O57 C51 1.249 . S
H58 C40 0.948 1_565 S
O59 Zn49 2.039 . S
O59 C63 1.251 . S
O60 Zn41 2.025 . S
O60 C63 1.254 . S
O61 C42 1.246 . S
O61 Zn49 2.034 . S
O62 Zn41 2.024 . S
O62 C42 1.249 . S
C63 O59 1.251 . S
C63 O60 1.254 . S
H64 C37 0.949 . S
H65 C39 0.950 . S
H66 C46 0.949 . S
H67 C48 0.950 . S
C68 O84 1.251 . S
C68 O86 1.254 . S
N69 C70 1.333 . S
N69 C74 1.307 . S
N69 Zn75 2.020 . S
C70 N69 1.333 . S
C70 C71 1.379 1_556 S
C70 H88 0.952 1_556 S
C71 C70 1.379 1_554 S
C71 C72 1.390 1_554 S
C71 H98 0.949 . S
C72 C71 1.390 1_556 S
C72 C73 1.357 . S
C73 C72 1.357 . S
C73 C74 1.370 . S
C73 H99 0.950 . S
C74 N69 1.307 . S
C74 C73 1.370 . S
C74 H92 0.948 . S
Zn75 N69 2.020 . S
Zn75 O84 2.039 . S
Zn75 O90 2.034 . S
Zn75 O94 2.025 . S
Zn75 O96 2.024 . S
C76 O95 1.246 . S
C76 O96 1.249 . S
N77 C78 1.307 . S
N77 C79 1.333 . S
N77 Zn83 2.020 . S
C78 N77 1.307 . S
C78 C82 1.370 1_455 S
C78 H89 0.948 . S
C79 N77 1.333 . S
C79 C80 1.379 1_455 S
C79 H87 0.952 . S
C80 C79 1.379 1_655 S
C80 C81 1.390 . S
C80 H100 0.949 . S
C81 C80 1.390 . S
C81 C82 1.357 . S
C82 C78 1.370 1_655 S
C82 C81 1.357 . S
C82 H101 0.950 . S
Zn83 N77 2.020 . S
Zn83 O86 2.025 . S
Zn83 O91 2.024 . S
Zn83 O93 2.039 . S
Zn83 O95 2.034 . S
O84 C68 1.251 . S
O84 Zn75 2.039 . S
C85 O90 1.246 . S
C85 O91 1.249 . S
O86 C68 1.254 . S
O86 Zn83 2.025 . S
H87 C79 0.952 . S
H88 C70 0.952 1_554 S
H89 C78 0.948 . S
O90 Zn75 2.034 . S
O90 C85 1.246 . S
O91 Zn83 2.024 . S
O91 C85 1.249 . S
H92 C74 0.948 . S
O93 Zn83 2.039 . S
O93 C97 1.251 . S
O94 Zn75 2.025 . S
O94 C97 1.254 . S
O95 C76 1.246 . S
O95 Zn83 2.034 . S
O96 Zn75 2.024 . S
O96 C76 1.249 . S
C97 O93 1.251 . S
C97 O94 1.254 . S
H98 C71 0.949 . S
H99 C73 0.950 . S
H100 C80 0.949 . S
H101 C82 0.950 . S
C102 O118 1.251 1_545 S
C102 O120 1.254 1_545 S
N103 C104 1.333 . S
N103 C108 1.307 . S
N103 Zn109 2.020 . S
C104 N103 1.333 . S
C104 C105 1.379 1_565 S
C104 H122 0.952 1_565 S
C105 C104 1.379 1_545 S
C105 C106 1.390 1_545 S
C105 H132 0.949 . S
C106 C105 1.390 1_565 S
C106 C107 1.357 . S
C107 C106 1.357 . S
C107 C108 1.370 . S
C107 H133 0.950 . S
C108 N103 1.307 . S
C108 C107 1.370 . S
C108 H126 0.948 . S
Zn109 N103 2.020 . S
Zn109 O118 2.039 . S
Zn109 O124 2.034 . S
Zn109 O128 2.025 . S
Zn109 O130 2.024 . S
C110 O129 1.246 . S
C110 O130 1.249 . S
N111 C112 1.307 . S
N111 C113 1.333 . S
N111 Zn117 2.020 . S
C112 N111 1.307 . S
C112 C116 1.370 1_554 S
C112 H123 0.948 . S
C113 N111 1.333 . S
C113 C114 1.379 1_554 S
C113 H121 0.952 . S
C114 C113 1.379 1_556 S
C114 C115 1.390 . S
C114 H134 0.949 . S
C115 C114 1.390 . S
C115 C116 1.357 . S
C116 C112 1.370 1_556 S
C116 C115 1.357 . S
C116 H135 0.950 . S
Zn117 N111 2.020 . S
Zn117 O120 2.025 . S
Zn117 O125 2.024 . S
Zn117 O127 2.039 . S
Zn117 O129 2.034 . S
O118 C102 1.251 1_565 S
O118 Zn109 2.039 . S
C119 O124 1.246 . S
C119 O125 1.249 . S
O120 C102 1.254 1_565 S
O120 Zn117 2.025 . S
H121 C113 0.952 . S
H122 C104 0.952 1_545 S
H123 C112 0.948 . S
O124 Zn109 2.034 . S
O124 C119 1.246 . S
O125 Zn117 2.024 . S
O125 C119 1.249 . S
H126 C108 0.948 . S
O127 Zn117 2.039 . S
O127 C131 1.251 . S
O128 Zn109 2.025 . S
O128 C131 1.254 . S
O129 C110 1.246 . S
O129 Zn117 2.034 . S
O130 Zn109 2.024 . S
O130 C110 1.249 . S
C131 O127 1.251 . S
C131 O128 1.254 . S
H132 C105 0.949 . S
H133 C107 0.950 . S
H134 C114 0.949 . S
H135 C116 0.950 . S
H136 C142 0.930 . S
H137 C145 0.930 . S
H138 C146 0.930 . S
H139 C147 0.930 . S
H140 C150 0.930 . S
H141 C151 0.930 . S
C142 H136 0.930 . S
C142 C143 1.355 . S
C142 C144 1.415 . S
C143 C142 1.355 . S
C143 C145 1.419 . S
C144 C142 1.415 . S
C144 C149 1.425 . S
C144 C151 1.409 . S
C145 H137 0.930 . S
C145 C143 1.419 . S
C145 C146 1.362 . S
C146 H138 0.930 . S
C146 C145 1.362 . S
C146 C149 1.409 . S
C147 H139 0.930 . S
C147 C148 1.355 . S
C147 C149 1.415 . S
C148 C147 1.355 . S
C148 C150 1.419 . S
C149 C144 1.425 . S
C149 C146 1.409 . S
C149 C147 1.415 . S
C150 H140 0.930 . S
C150 C148 1.419 . S
C150 C151 1.362 . S
C151 H141 0.930 . S
C151 C144 1.409 . S
C151 C150 1.362 . S
H152 C158 0.930 . S
H153 C161 0.930 1_545 S
H154 C162 0.928 1_545 S
H155 C163 0.930 1_545 S
H156 C166 0.930 . S
H157 C167 0.930 . S
C158 H152 0.930 . S
C158 C159 1.355 . S
C158 C160 1.415 . S
C159 C158 1.355 . S
C159 C161 1.419 . S
C160 C158 1.415 . S
C160 C165 1.425 . S
C160 C167 1.409 . S
C161 H153 0.930 1_565 S
C161 C159 1.419 . S
C161 C162 1.366 . S
C162 H154 0.928 1_565 S
C162 C161 1.366 . S
C162 C165 1.408 . S
C163 H155 0.930 1_565 S
C163 C164 1.355 . S
C163 C165 1.415 . S
C164 C163 1.355 . S
C164 C166 1.419 . S
C165 C160 1.425 . S
C165 C162 1.408 . S
C165 C163 1.415 . S
C166 H156 0.930 . S
C166 C164 1.419 . S
C166 C167 1.362 . S
C167 H157 0.930 . S
C167 C160 1.409 . S
C167 C166 1.362 . S
H168 C174 0.930 . S
H169 C177 0.930 . S
H170 C178 0.930 . S
H171 C179 0.930 . S
H172 C182 0.930 . S
H173 C183 0.930 . S
C174 H168 0.930 . S
C174 C175 1.355 . S
C174 C176 1.415 . S
C175 C174 1.355 . S
C175 C177 1.419 . S
C176 C174 1.415 . S
C176 C181 1.425 . S
C176 C183 1.409 . S
C177 H169 0.930 . S
C177 C175 1.419 . S
C177 C178 1.362 . S
C178 H170 0.930 . S
C178 C177 1.362 . S
C178 C181 1.409 . S
C179 H171 0.930 . S
C179 C180 1.355 . S
C179 C181 1.415 . S
C180 C179 1.355 . S
C180 C182 1.419 . S
C181 C176 1.425 . S
C181 C178 1.409 . S
C181 C179 1.415 . S
C182 H172 0.930 . S
C182 C180 1.419 . S
C182 C183 1.362 . S
C183 H173 0.930 . S
C183 C176 1.409 . S
C183 C182 1.362 . S
H184 C190 0.930 . S
H185 C193 0.930 . S
H186 C194 0.930 . S
H187 C195 0.930 . S
H188 C198 0.930 . S
H189 C199 0.930 . S
C190 H184 0.930 . S
C190 C191 1.355 1_556 S
C190 C192 1.415 . S
C191 C190 1.355 1_554 S
C191 C193 1.419 . S
C192 C190 1.415 . S
C192 C197 1.425 . S
C192 C199 1.409 . S
C193 H185 0.930 . S
C193 C191 1.419 . S
C193 C194 1.362 1_554 S
C194 H186 0.930 . S
C194 C193 1.362 1_556 S
C194 C197 1.409 . S
C195 H187 0.930 . S
C195 C196 1.355 . S
C195 C197 1.415 . S
C196 C195 1.355 . S
C196 C198 1.419 . S
C197 C192 1.425 . S
C197 C194 1.409 . S
C197 C195 1.415 . S
C198 H188 0.930 . S
C198 C196 1.419 . S
C198 C199 1.362 . S
C199 H189 0.930 . S
C199 C192 1.409 . S
C199 C198 1.362 . S
H200 C206 0.930 . S
H201 C209 0.930 . S
H202 C210 0.930 . S
H203 C211 0.930 . S
H204 C214 0.930 . S
H205 C215 0.930 . S
C206 H200 0.930 . S
C206 C207 1.355 1_455 S
C206 C208 1.415 . S
C207 C206 1.355 1_655 S
C207 C209 1.419 . S
C208 C206 1.415 . S
C208 C213 1.425 . S
C208 C215 1.409 . S
C209 H201 0.930 . S
C209 C207 1.419 . S
C209 C210 1.362 1_655 S
C210 H202 0.930 . S
C210 C209 1.362 1_455 S
C210 C213 1.409 . S
C211 H203 0.930 . S
C211 C212 1.355 . S
C211 C213 1.415 . S
C212 C211 1.355 . S
C212 C214 1.419 . S
C213 C208 1.425 . S
C213 C210 1.409 . S
C213 C211 1.415 . S
C214 H204 0.930 . S
C214 C212 1.419 . S
C214 C215 1.362 . S
C215 H205 0.930 . S
C215 C208 1.409 . S
C215 C214 1.362 . S
H216 C222 0.930 1_655 S
H217 C225 0.930 . S
H218 C226 0.930 . S
H219 C227 0.930 . S
H220 C230 0.930 1_545 S
H221 C231 0.930 . S
C222 H216 0.930 1_455 S
C222 C223 1.355 . S
C222 C224 1.415 1_455 S
C223 C222 1.355 . S
C223 C225 1.419 . S
C224 C222 1.415 1_655 S
C224 C229 1.425 1_655 S
C224 C231 1.409 . S
C225 H217 0.930 . S
C225 C223 1.419 . S
C225 C226 1.362 . S
C226 H218 0.930 . S
C226 C225 1.362 . S
C226 C229 1.409 . S
C227 H219 0.930 . S
C227 C228 1.355 1_465 S
C227 C229 1.415 . S
C228 C227 1.355 1_645 S
C228 C230 1.419 1_545 S
C229 C224 1.425 1_455 S
C229 C226 1.409 . S
C229 C227 1.415 . S
C230 H220 0.930 1_565 S
C230 C228 1.419 1_565 S
C230 C231 1.362 . S
C231 H221 0.930 . S
C231 C224 1.409 . S
C231 C230 1.362 . S
H232 C238 0.930 . S
H233 C241 0.930 . S
H234 C242 0.930 . S
H235 C243 0.930 . S
H236 C246 0.930 . S
H237 C247 0.930 . S
C238 H232 0.930 . S
C238 C239 1.355 . S
C238 C240 1.415 . S
C239 C238 1.355 . S
C239 C241 1.419 1_556 S
C240 C238 1.415 . S
C240 C245 1.425 . S
C240 C247 1.409 . S
C241 H233 0.930 . S
C241 C239 1.419 1_554 S
C241 C242 1.362 . S
C242 H234 0.930 . S
C242 C241 1.362 . S
C242 C245 1.409 1_554 S
C243 H235 0.930 . S
C243 C244 1.355 . S
C243 C245 1.415 . S
C244 C243 1.355 . S
C244 C246 1.419 . S
C245 C240 1.425 . S
C245 C242 1.409 1_556 S
C245 C243 1.415 . S
C246 H236 0.930 . S
C246 C244 1.419 . S
C246 C247 1.362 . S
C247 H237 0.930 . S
C247 C240 1.409 . S
C247 C246 1.362 . S
H248 C254 0.930 . S
H249 C257 0.930 . S
H250 C258 0.930 . S
H251 C259 0.930 . S
H252 C262 0.930 . S
H253 C263 0.930 . S
C254 H248 0.930 . S
C254 C255 1.355 . S
C254 C256 1.415 . S
C255 C254 1.355 . S
C255 C257 1.419 . S
C256 C254 1.415 . S
C256 C261 1.425 . S
C256 C263 1.409 . S
C257 H249 0.930 . S
C257 C255 1.419 . S
C257 C258 1.362 . S
C258 H250 0.930 . S
C258 C257 1.362 . S
C258 C261 1.409 . S
C259 H251 0.930 . S
C259 C260 1.355 . S
C259 C261 1.415 . S
C260 C259 1.355 . S
C260 C262 1.419 . S
C261 C256 1.425 . S
C261 C258 1.409 . S
C261 C259 1.415 . S
C262 H252 0.930 . S
C262 C260 1.419 . S
C262 C263 1.362 . S
C263 H253 0.930 . S
C263 C256 1.409 . S
C263 C262 1.362 . S
H264 C270 0.930 . S
H265 C273 0.930 . S
H266 C274 0.930 . S
H267 C275 0.930 . S
H268 C278 0.930 . S
H269 C279 0.930 . S
C270 H264 0.930 . S
C270 C271 1.355 . S
C270 C272 1.415 . S
C271 C270 1.355 . S
C271 C273 1.419 . S
C272 C270 1.415 . S
C272 C277 1.425 . S
C272 C279 1.409 . S
C273 H265 0.930 . S
C273 C271 1.419 . S
C273 C274 1.362 . S
C274 H266 0.930 . S
C274 C273 1.362 . S
C274 C277 1.409 . S
C275 H267 0.930 . S
C275 C276 1.355 . S
C275 C277 1.415 . S
C276 C275 1.355 . S
C276 C278 1.419 . S
C277 C272 1.425 . S
C277 C274 1.409 . S
C277 C275 1.415 . S
C278 H268 0.930 . S
C278 C276 1.419 . S
C278 C279 1.362 . S
C279 H269 0.930 . S
C279 C272 1.409 . S
C279 C278 1.362 . S
H280 C286 0.930 . S
H281 C289 0.930 1_455 S
H282 C290 0.930 1_455 S
H283 C291 0.930 . S
H284 C294 0.930 . S
H285 C295 0.930 . S
C286 H280 0.930 . S
C286 C287 1.355 . S
C286 C288 1.415 . S
C287 C286 1.355 . S
C287 C289 1.419 . S
C288 C286 1.415 . S
C288 C293 1.425 . S
C288 C295 1.409 . S
C289 H281 0.930 1_655 S
C289 C287 1.419 . S
C289 C290 1.362 . S
C290 H282 0.930 1_655 S
C290 C289 1.362 . S
C290 C293 1.409 . S
C291 H283 0.930 . S
C291 C292 1.355 . S
C291 C293 1.415 . S
C292 C291 1.355 . S
C292 C294 1.419 . S
C293 C288 1.425 . S
C293 C290 1.409 . S
C293 C291 1.415 . S
C294 H284 0.930 . S
C294 C292 1.419 . S
C294 C295 1.362 . S
C295 H285 0.930 . S
C295 C288 1.409 . S
C295 C294 1.362 . S
H296 C302 0.930 . S
H297 C305 0.930 . S
H298 C306 0.930 . S
H299 C307 0.930 1_556 S
H300 C310 0.930 . S
H301 C311 0.930 . S
C302 H296 0.930 . S
C302 C303 1.355 . S
C302 C304 1.415 . S
C303 C302 1.355 . S
C303 C305 1.419 1_554 S
C304 C302 1.415 . S
C304 C309 1.425 . S
C304 C311 1.409 . S
C305 H297 0.930 . S
C305 C303 1.419 1_556 S
C305 C306 1.362 . S
C306 H298 0.930 . S
C306 C305 1.362 . S
C306 C309 1.409 1_556 S
C307 H299 0.930 1_554 S
C307 C308 1.355 . S
C307 C309 1.415 . S
C308 C307 1.355 . S
C308 C310 1.419 . S
C309 C304 1.425 . S
C309 C306 1.409 1_554 S
C309 C307 1.415 . S
C310 H300 0.930 . S
C310 C308 1.419 . S
C310 C311 1.362 . S
C311 H301 0.930 . S
C311 C304 1.409 . S
C311 C310 1.362 . S
H312 C318 0.930 . S
H313 C321 0.930 . S
H314 C322 0.930 . S
H315 C323 0.930 . S
H316 C326 0.930 . S
H317 C327 0.930 . S
C318 H312 0.930 . S
C318 C319 1.355 . S
C318 C320 1.415 . S
C319 C318 1.355 . S
C319 C321 1.419 . S
C320 C318 1.415 . S
C320 C325 1.425 . S
C320 C327 1.409 . S
C321 H313 0.930 . S
C321 C319 1.419 . S
C321 C322 1.362 . S
C322 H314 0.930 . S
C322 C321 1.362 . S
C322 C325 1.409 . S
C323 H315 0.930 . S
C323 C324 1.355 . S
C323 C325 1.415 . S
C324 C323 1.355 . S
C324 C326 1.419 . S
C325 C320 1.425 . S
C325 C322 1.409 . S
C325 C323 1.415 . S
C326 H316 0.930 . S
C326 C324 1.419 . S
C326 C327 1.362 . S
C327 H317 0.930 . S
C327 C320 1.409 . S
C327 C326 1.362 . S
C143 C68 2.361 1_554 S
C148 C0 2.397 . S
C159 C106 0.855 . S
C164 C38 0.876 . S
C175 C76 2.322 . S
C180 C8 2.331 . S
C191 C119 0.952 1_545 S
C196 C51 0.964 . S
C207 C42 1.659 . S
C212 C13 1.696 . S
C223 C97 1.160 . S
C228 C63 1.143 . S
C239 C72 1.128 . S
C244 C115 1.100 . S
C255 C17 2.090 . S
C260 C102 2.032 . S
C271 C34 2.079 . S
C276 C29 2.121 . S
C287 C81 1.085 . S
C292 C47 1.033 . S
C303 C85 1.077 1_654 S
C308 C131 1.078 . S
C319 C110 1.572 . S
C324 C4 1.638 . S
