# Generated by pormake.
# Topology umf, (4)-cn, num edge types: 1
# Building blocks:
#     Node 0, Type 0, BuildingBlock: GALJAG_clean_sbu_0, # of connection points: 4
#     Node 1, Type 0, BuildingBlock: GALJAG_clean_sbu_0, # of connection points: 4
#     Node 2, Type 0, BuildingBlock: GALJAG_clean_sbu_0, # of connection points: 4
#     Node 3, Type 0, BuildingBlock: GALJAG_clean_sbu_0, # of connection points: 4
#     Node 4, Type 0, BuildingBlock: GALJAG_clean_sbu_0, # of connection points: 4
#     Node 5, Type 0, BuildingBlock: GALJAG_clean_sbu_0, # of connection points: 4
#     Node 6, Type 0, BuildingBlock: GALJAG_clean_sbu_0, # of connection points: 4
#     Node 7, Type 0, BuildingBlock: GALJAG_clean_sbu_0, # of connection points: 4
#     Edge 8, Type (0, 0), BuildingBlock: FUNLAD_clean_linker_1, # of connection points: 2
#     Edge 9, Type (0, 0), BuildingBlock: FUNLAD_clean_linker_1, # of connection points: 2
#     Edge 10, Type (0, 0), BuildingBlock: FUNLAD_clean_linker_1, # of connection points: 2
#     Edge 11, Type (0, 0), BuildingBlock: FUNLAD_clean_linker_1, # of connection points: 2
#     Edge 12, Type (0, 0), BuildingBlock: FUNLAD_clean_linker_1, # of connection points: 2
#     Edge 13, Type (0, 0), BuildingBlock: FUNLAD_clean_linker_1, # of connection points: 2
#     Edge 14, Type (0, 0), BuildingBlock: FUNLAD_clean_linker_1, # of connection points: 2
#     Edge 15, Type (0, 0), BuildingBlock: FUNLAD_clean_linker_1, # of connection points: 2
#     Edge 16, Type (0, 0), BuildingBlock: FUNLAD_clean_linker_1, # of connection points: 2
#     Edge 17, Type (0, 0), BuildingBlock: FUNLAD_clean_linker_1, # of connection points: 2
#     Edge 18, Type (0, 0), BuildingBlock: FUNLAD_clean_linker_1, # of connection points: 2
#     Edge 19, Type (0, 0), BuildingBlock: FUNLAD_clean_linker_1, # of connection points: 2
#     Edge 20, Type (0, 0), BuildingBlock: FUNLAD_clean_linker_1, # of connection points: 2
#     Edge 21, Type (0, 0), BuildingBlock: FUNLAD_clean_linker_1, # of connection points: 2
#     Edge 22, Type (0, 0), BuildingBlock: FUNLAD_clean_linker_1, # of connection points: 2
#     Edge 23, Type (0, 0), BuildingBlock: FUNLAD_clean_linker_1, # of connection points: 2
# Relax obj value: 0.108
# Max RMSD: 0.235
# Mean RMSD: 0.235
data_MOF--net-umf--node1-GALJAG_clean_sbu_0--edge1-FUNLAD_clean_linker_1
_symmetry_space_group_name_H-M    P1
_symmetry_Int_Tables_number       1
_symmetry_cell_setting            triclinic
loop_
_symmetry_equiv_pos_as_xyz
'x, y, z'
_cell_length_a     29.89949
_cell_length_b     29.946256
_cell_length_c     55.038594
_cell_angle_alpha  90.127572
_cell_angle_beta   90.176818
_cell_angle_gamma 90.168627
loop_
_atom_site_label
_atom_site_type_symbol
_atom_site_fract_x
_atom_site_fract_y
_atom_site_fract_z
_atom_type_partial_charge
In0 In 0.04262 0.24304 0.14113 0.0
O1 O 0.04893 0.24758 0.10024 0.0
O2 O 0.98304 0.24566 0.11651 0.0
C3 C 0.08606 0.23696 0.18274 0.0
C4 C 0.03367 0.32908 0.14785 0.0
C5 C 0.03846 0.1557 0.14017 0.0
O6 O 0.10709 0.24305 0.16283 0.0
O7 O 0.04365 0.23435 0.18131 0.0
O8 O 0.0072 0.17925 0.14931 0.0
O9 O 0.07155 0.17671 0.13112 0.0
C10 C 0.00651 0.24768 0.09731 0.0
O11 O 0.00335 0.30158 0.15428 0.0
O12 O 0.0684 0.31275 0.13784 0.0
In13 In 0.74247 0.04906 0.6452 0.0
O14 O 0.73492 0.06523 0.60453 0.0
O15 O 0.74775 -0.00215 0.61561 0.0
C16 C 0.73748 0.11548 0.67761 0.0
C17 C 0.66363 0.01296 0.6562 0.0
C18 C 0.83023 0.03852 0.65062 0.0
O19 O 0.731 0.12274 0.65511 0.0
O20 O 0.74576 0.07538 0.68319 0.0
O21 O 0.80258 0.00985 0.65864 0.0
O22 O 0.81342 0.07199 0.64005 0.0
C23 C 0.74098 0.02472 0.59837 0.0
O24 O 0.69993 -0.0055 0.6626 0.0
O25 O 0.66765 0.04916 0.6446 0.0
In26 In 0.93533 0.7393 0.15524 0.0
O27 O 0.89694 0.72626 0.11953 0.0
O28 O 0.96475 0.74877 0.11814 0.0
C29 C 0.88438 0.72939 0.19496 0.0
C30 C 0.98331 0.66494 0.15863 0.0
C31 C 0.95177 0.82635 0.16016 0.0
O32 O 0.8669 0.73535 0.17418 0.0
O33 O 0.92647 0.72736 0.19528 0.0
O34 O 0.98216 0.79754 0.16332 0.0
O35 O 0.91354 0.81111 0.15499 0.0
C36 C 0.93034 0.73671 0.10652 0.0
O37 O -9e-05 0.70264 0.16407 0.0
O38 O 0.94275 0.66514 0.152 0.0
In39 In 0.24183 0.91016 0.64496 0.0
O40 O 0.28865 0.96478 0.65868 0.0
O41 O 0.3166 0.90353 0.64539 0.0
C42 C 0.15597 0.93255 0.64912 0.0
C43 C 0.24641 0.92017 0.59664 0.0
C44 C 0.23936 0.84956 0.68063 0.0
O45 O 0.18681 0.95835 0.65667 0.0
O46 O 0.1687 0.89638 0.63965 0.0
O47 O 0.23887 0.83771 0.65847 0.0
O48 O 0.24188 0.89115 0.68432 0.0
C49 C 0.32338 0.94196 0.6543 0.0
O50 O 0.24869 0.88181 0.60636 0.0
O51 O 0.24214 0.95242 0.61128 0.0
In52 In 0.05501 0.72876 0.87834 0.0
O53 O 0.08292 0.73355 0.91724 0.0
O54 O 0.01242 0.72758 0.91219 0.0
C55 C 0.12218 0.73846 0.84634 0.0
C56 C 0.03514 0.64306 0.87074 0.0
C57 C 0.01218 0.80424 0.86723 0.0
O58 O 0.1282 0.74495 0.86886 0.0
O59 O 0.0832 0.72631 0.84046 0.0
O60 O -0.00456 0.76643 0.86243 0.0
O61 O 0.04995 0.80358 0.87751 0.0
C62 C 0.0446 0.73131 0.92692 0.0
O63 O 0.00975 0.67414 0.86369 0.0
O64 O 0.07044 0.65526 0.88161 0.0
In65 In 0.23762 0.06919 0.37333 0.0
O66 O 0.23491 0.09702 0.41233 0.0
O67 O 0.24369 0.02701 0.40702 0.0
C68 C 0.22652 0.13442 0.34045 0.0
C69 C 0.32226 0.04833 0.36345 0.0
C70 C 0.15963 0.0285 0.36507 0.0
O71 O 0.2306 0.14334 0.36288 0.0
O72 O 0.22858 0.09351 0.33509 0.0
O73 O 0.1963 0.01095 0.3589 0.0
O74 O 0.16259 0.06603 0.37552 0.0
C75 C 0.23991 0.05887 0.42188 0.0
O76 O 0.29037 0.02202 0.35855 0.0
O77 O 0.31132 0.08496 0.37312 0.0
In78 In 0.93115 0.22686 0.86584 0.0
O79 O 0.90104 0.23631 0.90409 0.0
O80 O 0.96724 0.21027 0.90041 0.0
C81 C 0.87411 0.23201 0.82833 0.0
C82 C 0.97251 0.30535 0.86178 0.0
C83 C 0.95085 0.14176 0.85768 0.0
O84 O 0.85978 0.23124 0.85005 0.0
O85 O 0.91605 0.23128 0.82606 0.0
O86 O 0.9787 0.17272 0.85337 0.0
O87 O 0.91334 0.154 0.86592 0.0
C88 C 0.93633 0.22223 0.91444 0.0
O89 O -0.00787 0.26921 0.85654 0.0
O90 O 0.93239 0.30154 0.86863 0.0
In91 In 0.73852 0.94391 0.36592 0.0
O92 O 0.73193 0.92287 0.40612 0.0
O93 O 0.75595 0.98819 0.39763 0.0
C94 C 0.7285 0.87466 0.3353 0.0
C95 C 0.66007 0.98395 0.35991 0.0
C96 C 0.82149 0.96473 0.35227 0.0
O97 O 0.74196 0.86892 0.35695 0.0
O98 O 0.71884 0.9143 0.32981 0.0
O99 O 0.78888 -0.00966 0.34785 0.0
O100 O 0.81187 0.92896 0.36321 0.0
C101 C 0.74545 0.96054 0.41384 0.0
O102 O 0.69571 0.00051 0.3514 0.0
O103 O 0.66431 0.94742 0.37117 0.0
H104 H -0.00368 0.38888 0.1587 0.0
C105 C 0.0281 0.3772 0.15157 0.0
H106 H 0.0919 0.39566 0.13839 0.0
H107 H 0.01389 0.58458 0.10691 0.0
H108 H 0.0355 0.55279 0.06805 0.0
H109 H 0.06442 0.47585 0.06542 0.0
H110 H 0.07248 0.43045 0.10163 0.0
C111 C 0.06037 0.4067 0.14609 0.0
C112 C 0.05151 0.45522 0.14821 0.0
C113 C 0.04777 0.4813 0.12688 0.0
C114 C 0.03054 0.52533 0.12834 0.0
C115 C 0.02636 0.55068 0.10675 0.0
C116 C 0.03868 0.53288 0.08435 0.0
C117 C 0.05506 0.4896 0.08288 0.0
C118 C 0.05951 0.46389 0.10382 0.0
H119 H 0.04383 0.62469 0.16599 0.0
C120 C 0.00951 0.62357 0.15945 0.0
H121 H 0.9578 0.58407 0.14433 0.0
H122 H 0.06477 0.4175 0.19287 0.0
H123 H 0.04473 0.44975 0.2319 0.0
H124 H 0.01102 0.52476 0.23432 0.0
H125 H -0.00218 0.56818 0.19785 0.0
C126 C -0.00848 0.58499 0.15176 0.0
C127 C 0.0172 0.54291 0.15109 0.0
C128 C 0.02421 0.51811 0.17265 0.0
C129 C 0.04217 0.47437 0.17121 0.0
C130 C 0.04983 0.45038 0.19296 0.0
C131 C 0.03875 0.46859 0.21545 0.0
C132 C 0.01988 0.51087 0.21681 0.0
C133 C 0.01255 0.53548 0.19572 0.0
H134 H 0.37271 -0.00608 0.66442 0.0
C135 C 0.36876 0.95958 0.65833 0.0
H136 H 0.40112 0.90074 0.64665 0.0
H137 H 0.57273 -0.0003 0.60841 0.0
H138 H 0.53609 0.97994 0.57052 0.0
H139 H 0.45976 0.94836 0.5703 0.0
H140 H 0.41982 0.9361 0.60797 0.0
C141 C 0.40492 0.93462 0.6535 0.0
C142 C 0.45062 0.95395 0.65399 0.0
C143 C 0.47339 0.96092 0.63177 0.0
C144 C 0.51702 0.97975 0.63188 0.0
C145 C 0.53922 0.98609 0.60941 0.0
C146 C 0.51863 0.97477 0.5875 0.0
C147 C 0.47571 0.95693 0.58738 0.0
C148 C 0.4532 0.95 0.60917 0.0
H149 H 0.61771 0.95974 0.66878 0.0
C150 C 0.61952 -0.00721 0.66073 0.0
H151 H 0.58395 0.04632 0.64502 0.0
H152 H 0.41763 0.94117 0.69984 0.0
H153 H 0.45354 0.96266 0.73773 0.0
H154 H 0.52786 -0.0013 0.7378 0.0
H155 H 0.56697 0.01291 0.70003 0.0
C156 C 0.58202 0.01385 0.65375 0.0
C157 C 0.53764 -0.0083 0.65419 0.0
C158 C 0.515 0.98454 0.67644 0.0
C159 C 0.47158 0.96506 0.67635 0.0
C160 C 0.45015 0.95695 0.69883 0.0
C161 C 0.47047 0.96895 0.72071 0.0
C162 C 0.51236 0.98915 0.72076 0.0
C163 C 0.53452 -0.00303 0.69894 0.0
H164 H 0.03096 0.34994 0.85744 0.0
C165 C -0.00474 0.34882 0.86105 0.0
H166 H 0.93722 0.38521 0.86996 0.0
H167 H 0.02818 0.54888 0.91981 0.0
H168 H -0.00648 0.51213 0.95422 0.0
H169 H 0.95982 0.43726 0.94983 0.0
H170 H 0.9614 0.39828 0.91119 0.0
C171 C 0.97269 0.38651 0.86571 0.0
C172 C -0.00447 0.4302 0.86831 0.0
C173 C -0.00445 0.45174 0.89129 0.0
C174 C 0.01497 0.49479 0.89385 0.0
C175 C 0.01391 0.51605 0.91687 0.0
C176 C -0.00581 0.49533 0.93679 0.0
C177 C 0.97531 0.45313 0.93433 0.0
C178 C 0.97618 0.43127 0.91196 0.0
H179 H -0.00731 0.58815 0.85732 0.0
C180 C 0.0236 0.596 0.8669 0.0
H181 H 0.07936 0.57019 0.88598 0.0
H182 H -0.00152 0.3995 0.82122 0.0
H183 H 0.03408 0.43611 0.78713 0.0
H184 H 0.07131 0.50919 0.79224 0.0
H185 H 0.07254 0.54632 0.83152 0.0
C186 C 0.04922 0.56301 0.87558 0.0
C187 C 0.03405 0.51612 0.87343 0.0
C188 C 0.03535 0.4941 0.85064 0.0
C189 C 0.01536 0.4513 0.84794 0.0
C190 C 0.01467 0.43124 0.8246 0.0
C191 C 0.03472 0.45206 0.8048 0.0
C192 C 0.05557 0.49326 0.80766 0.0
C193 C 0.05589 0.51425 0.83026 0.0
H194 H 0.37626 0.00256 0.35279 0.0
C195 C 0.36904 0.03599 0.35943 0.0
H196 H 0.39567 0.09695 0.37251 0.0
H197 H 0.57168 0.00402 0.41079 0.0
H198 H 0.53614 0.02632 0.44844 0.0
H199 H 0.46029 0.05856 0.44833 0.0
H200 H 0.41982 0.06919 0.41057 0.0
C201 C 0.40257 0.06399 0.36512 0.0
C202 C 0.44947 0.04837 0.36477 0.0
C203 C 0.47255 0.04259 0.38706 0.0
C204 C 0.51582 0.02329 0.38717 0.0
C205 C 0.53838 0.01794 0.40967 0.0
C206 C 0.51842 0.03068 0.43143 0.0
C207 C 0.47577 0.0489 0.43137 0.0
C208 C 0.45292 0.05485 0.40952 0.0
H209 H 0.61509 0.03848 0.34854 0.0
C210 C 0.6166 0.00595 0.35723 0.0
H211 H 0.58084 0.9547 0.37501 0.0
H212 H 0.41686 0.06153 0.31879 0.0
H213 H 0.4516 0.03784 0.28111 0.0
H214 H 0.52453 -0.00051 0.28144 0.0
H215 H 0.56345 0.98536 0.31933 0.0
C216 C 0.57928 0.98661 0.36567 0.0
C217 C 0.53562 0.00964 0.36502 0.0
C218 C 0.51297 0.01638 0.34265 0.0
C219 C 0.47014 0.0367 0.34252 0.0
C220 C 0.44879 0.04476 0.31995 0.0
C221 C 0.46847 0.03157 0.29819 0.0
C222 C 0.50959 0.01012 0.29837 0.0
C223 C 0.5317 0.00244 0.32028 0.0
H224 H 0.96968 0.19824 0.94731 0.0
C225 C 0.94327 0.22021 0.94088 0.0
H226 H 0.90005 0.27294 0.95048 0.0
H227 H 0.96716 0.17009 0.05303 0.0
H228 H 0.91697 0.11065 0.04055 0.0
H229 H 0.87588 0.11491 1.00169 0.0
H230 H 0.88541 0.17852 0.97488 0.0
C231 C 0.92378 0.24802 0.95672 0.0
C232 C 0.94091 0.24992 0.98219 0.0
C233 C 0.93332 0.21373 0.99824 0.0
C234 C 0.95559 0.21223 0.02112 0.0
C235 C 0.94968 0.17407 0.03595 0.0
C236 C 0.9212 0.13945 0.02891 0.0
C237 C 0.89819 0.14176 1.007 0.0
C238 C 0.90411 0.17834 0.99174 0.0
H239 H 0.94841 0.25107 0.07273 0.0
C240 C 0.98471 0.24923 0.07326 0.0
H241 H 0.04385 0.24618 0.05253 0.0
H242 H 0.9627 0.32433 0.95588 0.0
H243 H 0.01263 0.38416 0.96847 0.0
H244 H 0.04822 0.3835 1.0089 0.0
H245 H 0.03541 0.32225 0.03679 0.0
C246 C 0.00752 0.24696 0.05234 0.0
C247 C 0.984 0.248 0.02839 0.0
C248 C 0.99068 0.28473 0.01257 0.0
C249 C 0.96925 0.28564 0.98944 0.0
C250 C 0.97773 0.3221 0.97374 0.0
C251 C 0.00616 0.35678 0.98075 0.0
C252 C 0.02637 0.35632 1.0035 0.0
C253 C 0.01879 0.32088 0.01932 0.0
H254 H 0.74968 0.97332 0.5704 0.0
C255 C 0.74106 0.00824 0.57313 0.0
H256 H 0.72027 0.06769 0.55593 0.0
H257 H 0.81417 0.94197 0.46915 0.0
H258 H 0.88406 0.95822 0.48989 0.0
H259 H 0.88491 0.00091 0.52828 0.0
H260 H 0.81585 0.02706 0.54631 0.0
C261 C 0.73088 0.03325 0.55373 0.0
C262 C 0.73098 0.01273 0.52898 0.0
C263 C 0.77183 -0.00079 0.51818 0.0
C264 C 0.77151 0.97631 0.49549 0.0
C265 C 0.81261 0.9611 0.48582 0.0
C266 C 0.85296 0.9699 0.49763 0.0
C267 C 0.85343 -0.00621 0.51928 0.0
C268 C 0.81348 0.00836 0.52952 0.0
H269 H 0.76366 0.00565 0.44366 0.0
C270 C 0.74816 0.97356 0.43963 0.0
H271 H 0.71253 0.91894 0.4542 0.0
H272 H 0.64691 0.03345 0.54476 0.0
H273 H 0.57711 0.01883 0.52352 0.0
H274 H 0.57672 0.98186 0.48342 0.0
H275 H 0.64602 0.95882 0.4644 0.0
C276 C 0.7304 0.94988 0.45788 0.0
C277 C 0.73051 0.96878 0.48303 0.0
C278 C 0.68969 0.98234 0.49383 0.0
C279 C 0.68995 0.00426 0.51682 0.0
C280 C 0.64866 0.01701 0.52726 0.0
C281 C 0.60836 0.00885 0.51526 0.0
C282 C 0.60814 0.98802 0.49268 0.0
C283 C 0.64819 0.97492 0.48198 0.0
H284 H 0.90069 0.72174 0.07031 0.0
C285 C 0.93049 0.73348 0.07972 0.0
H286 H -0.00283 0.75627 0.07654 0.0
H287 H -0.007 0.6475 0.9734 0.0
H288 H 0.9858 0.58049 0.99786 0.0
H289 H 0.97255 0.58555 0.04199 0.0
H290 H 0.96632 0.65746 0.06196 0.0
C291 C 0.96777 0.74349 0.06713 0.0
C292 C 0.97099 0.73973 0.04024 0.0
C293 C 0.97488 0.69727 0.02894 0.0
C294 C 0.98315 0.69432 1.00352 0.0
C295 C 0.98684 0.65159 0.99265 0.0
C296 C 0.98286 0.61289 1.00647 0.0
C297 C 0.97542 0.61574 0.03133 0.0
C298 C 0.97167 0.65731 0.04255 0.0
H299 H 0.06632 0.73852 0.96527 0.0
C300 C 0.03756 0.73367 0.95344 0.0
H301 H 0.96736 0.72505 0.95133 0.0
H302 H 0.96398 0.82613 0.05604 0.0
H303 H 0.97107 0.89298 0.03147 0.0
H304 H 0.98561 0.88772 0.98745 0.0
H305 H -0.00658 0.81558 0.96774 0.0
C306 C -0.00372 0.73048 0.96298 0.0
C307 C 0.98825 0.73371 0.98957 0.0
C308 C 0.9837 0.7761 1.00077 0.0
C309 C 0.9752 0.77911 0.02614 0.0
C310 C 0.9708 0.82192 0.03687 0.0
C311 C 0.97463 0.86056 0.02297 0.0
C312 C 0.9828 0.85759 0.99818 0.0
C313 C 0.98727 0.81597 0.98711 0.0
H314 H 0.2389 0.08011 0.46053 0.0
C315 C 0.24117 0.05154 0.4484 0.0
H316 H 0.24566 0.9813 0.44545 0.0
H317 H 0.32553 -0.00223 0.55626 0.0
H318 H 0.39073 0.03099 0.53726 0.0
H319 H 0.39014 0.05022 0.49369 0.0
H320 H 0.3243 0.0366 0.46889 0.0
C321 C 0.24481 0.01003 0.45754 0.0
C322 C 0.24476 0.00081 0.48409 0.0
C323 C 0.28355 0.00905 0.49831 0.0
C324 C 0.28401 -0.00237 0.5234 0.0
C325 C 0.32327 0.00601 0.53716 0.0
C326 C 0.36098 0.02493 0.52647 0.0
C327 C 0.36065 0.03576 0.50194 0.0
C328 C 0.32255 0.02789 0.48792 0.0
H329 H 0.24923 0.89841 0.5581 0.0
C330 C 0.24756 0.92723 0.5701 0.0
H331 H 0.24532 -0.00238 0.57272 0.0
H332 H 0.16528 0.9803 0.46191 0.0
H333 H 0.09999 0.94727 0.48089 0.0
H334 H 0.10035 0.92853 0.52452 0.0
H335 H 0.16603 0.94234 0.54938 0.0
C336 C 0.24568 0.96871 0.56075 0.0
C337 C 0.24589 0.9776 0.53416 0.0
C338 C 0.20707 0.9694 0.51993 0.0
C339 C 0.20667 0.98071 0.49483 0.0
C340 C 0.16746 0.97223 0.48103 0.0
C341 C 0.12969 0.95341 0.49171 0.0
C342 C 0.1299 0.94285 0.51627 0.0
C343 C 0.16796 0.95079 0.53032 0.0
H344 H 0.08874 0.21527 0.22064 0.0
C345 C 0.10853 0.23032 0.20626 0.0
H346 H 0.17152 0.25604 0.19631 0.0
H347 H 0.14531 0.21312 0.31681 0.0
H348 H 0.0893 0.27119 0.31634 0.0
H349 H 0.07304 0.3131 0.2788 0.0
H350 H 0.11196 0.29575 0.24122 0.0
C351 C 0.15144 0.24124 0.21061 0.0
C352 C 0.1727 0.22911 0.23432 0.0
C353 C 0.15266 0.24219 0.25657 0.0
C354 C 0.16427 0.22007 0.27856 0.0
C355 C 0.13983 0.23029 0.29986 0.0
C356 C 0.10725 0.26347 0.29981 0.0
C357 C 0.09795 0.28694 0.27866 0.0
C358 C 0.12023 0.27648 0.25722 0.0
H359 H 0.22467 0.20366 0.32597 0.0
C360 C 0.2191 0.16869 0.32161 0.0
H361 H 0.20026 0.1211 0.29527 0.0
H362 H 0.2244 0.203 0.19572 0.0
H363 H 0.28717 0.1521 0.19701 0.0
H364 H 0.31124 0.11805 0.23565 0.0
H365 H 0.27216 0.13434 0.27323 0.0
C366 C 0.20495 0.15637 0.29933 0.0
C367 C 0.1986 0.18742 0.27849 0.0
C368 C 0.22299 0.17931 0.25685 0.0
C369 C 0.20976 0.19976 0.23467 0.0
C370 C 0.23323 0.18893 0.21315 0.0
C371 C 0.26943 0.15974 0.21362 0.0
C372 C 0.28294 0.14052 0.23536 0.0
C373 C 0.26009 0.14999 0.25676 0.0
H374 H 0.86297 0.22237 0.78957 0.0
C375 C 0.84562 0.22902 0.80654 0.0
H376 H 0.78297 0.23604 0.82344 0.0
H377 H 0.79066 0.21807 0.69993 0.0
H378 H 0.82881 0.28938 0.70043 0.0
H379 H 0.84039 0.33047 0.73887 0.0
H380 H 0.81495 0.29919 0.77728 0.0
C381 C 0.80072 0.23055 0.80653 0.0
C382 C 0.77583 0.21801 0.78384 0.0
C383 C 0.78702 0.23831 0.76137 0.0
C384 C 0.77783 0.21582 0.73908 0.0
C385 C 0.79451 0.23443 0.71728 0.0
C386 C 0.8168 0.27539 0.71733 0.0
C387 C 0.82347 0.29847 0.73897 0.0
C388 C 0.80898 0.28018 0.76082 0.0
H389 H 0.72075 0.18267 0.6923 0.0
C390 C 0.73643 0.15088 0.69637 0.0
H391 H 0.77001 0.11095 0.72191 0.0
H392 H 0.73852 0.17658 0.82332 0.0
H393 H 0.69114 0.11079 0.82267 0.0
H394 H 0.67051 0.07457 0.7839 0.0
H395 H 0.69777 0.10375 0.74551 0.0
C396 C 0.75516 0.14337 0.71826 0.0
C397 C 0.75411 0.17469 0.73936 0.0
C398 C 0.73606 0.15884 0.76156 0.0
C399 C 0.74725 0.18023 0.78388 0.0
C400 C 0.73095 0.16189 0.80583 0.0
C401 C 0.70356 0.12416 0.80572 0.0
C402 C 0.69197 0.10374 0.7839 0.0
C403 C 0.70799 0.12067 0.76203 0.0
H404 H 0.71334 0.84804 0.29916 0.0
C405 C 0.73028 0.84036 0.31616 0.0
H406 H 0.78078 0.80201 0.33266 0.0
H407 H 0.74978 0.70392 0.22417 0.0
H408 H 0.68279 0.67161 0.24198 0.0
H409 H 0.65861 0.69314 0.2832 0.0
H410 H 0.7014 0.74701 0.30697 0.0
C411 C 0.76074 0.8076 0.31645 0.0
C412 C 0.77748 0.79004 0.29284 0.0
C413 C 0.75223 0.75863 0.27921 0.0
C414 C 0.76623 0.74619 0.25543 0.0
C415 C 0.74055 0.71453 0.24228 0.0
C416 C 0.70208 0.69577 0.25229 0.0
C417 C 0.68844 0.70793 0.2755 0.0
C418 C 0.71313 0.73895 0.28891 0.0
H419 H 0.87734 0.71918 0.23414 0.0
C420 C 0.85947 0.73002 0.21797 0.0
H421 H 0.80273 0.76444 0.20486 0.0
H422 H 0.83465 0.85002 0.31451 0.0
H423 H 0.89986 0.88415 0.29634 0.0
H424 H 0.92143 0.8665 0.2542 0.0
H425 H 0.87848 0.81379 0.23023 0.0
C426 C 0.82072 0.75194 0.2206 0.0
C427 C 0.80533 0.76537 0.24531 0.0
C428 C 0.83023 0.79744 0.25886 0.0
C429 C 0.81691 0.80888 0.28285 0.0
C430 C 0.84289 0.84032 0.29612 0.0
C431 C 0.88042 0.86034 0.2859 0.0
C432 C 0.89265 0.85025 0.26222 0.0
C433 C 0.86787 0.81946 0.24874 0.0
H434 H 0.21844 0.78525 0.69694 0.0
C435 C 0.23196 0.8182 0.70089 0.0
H436 H 0.24893 0.86566 0.72771 0.0
H437 H 0.10136 0.81432 0.80232 0.0
H438 H 0.07343 0.88443 0.78669 0.0
H439 H 0.10892 0.92058 0.75141 0.0
H440 H 0.17276 0.88694 0.73168 0.0
C441 C 0.23614 0.83229 0.72403 0.0
C442 C 0.21431 0.80874 0.74461 0.0
C443 C 0.17677 0.8289 0.75587 0.0
C444 C 0.15589 0.80782 0.77598 0.0
C445 C 0.11842 0.82868 0.78687 0.0
C446 C 0.10196 0.869 0.77809 0.0
C447 C 0.122 0.88937 0.75827 0.0
C448 C 0.15886 0.86971 0.74718 0.0
H449 H 0.18588 0.76778 0.83335 0.0
C450 C 0.15599 0.74965 0.82782 0.0
H451 H 0.11677 0.72582 0.79854 0.0
H452 H 0.28723 0.76274 0.72827 0.0
H453 H 0.31481 0.69209 0.74384 0.0
H454 H 0.27729 0.65468 0.77813 0.0
H455 H 0.2121 0.68792 0.79726 0.0
C456 C 0.14723 0.74296 0.8041 0.0
C457 C 0.17237 0.76653 0.78474 0.0
C458 C 0.21004 0.74654 0.77366 0.0
C459 C 0.23126 0.7678 0.75362 0.0
C460 C 0.26941 0.7476 0.74323 0.0
C461 C 0.28564 0.70716 0.75205 0.0
C462 C 0.26453 0.6861 0.77138 0.0
C463 C 0.22716 0.70544 0.78215 0.0
H464 H 0.06485 0.08859 0.13231 0.0
C465 C 0.03747 0.10673 0.1407 0.0
H466 H 0.97815 0.10217 0.16129 0.0
H467 H -0.00205 0.89745 0.1156 0.0
H468 H 0.98436 0.93153 0.0763 0.0
H469 H 0.97916 0.01342 0.07228 0.0
H470 H 0.98814 0.06162 0.10741 0.0
C471 C 0.00466 0.08435 0.15194 0.0
C472 C 0.00604 0.03507 0.15418 0.0
C473 C -0.00029 0.00756 0.13345 0.0
C474 C 0.001 0.96041 0.1359 0.0
C475 C -0.00407 0.93349 0.11485 0.0
C476 C 0.98834 0.95262 0.09217 0.0
C477 C 0.98556 -0.00129 0.0899 0.0
C478 C -0.00893 0.02602 0.11022 0.0
H479 H 0.93135 0.89639 0.15774 0.0
C480 C 0.95991 0.87457 0.16059 0.0
H481 H 0.03021 0.87141 0.16513 0.0
H482 H 0.02111 0.07851 0.19734 0.0
H483 H 0.03289 0.04416 0.23665 0.0
H484 H 0.03296 0.96205 0.24103 0.0
H485 H 0.02138 0.91398 0.20594 0.0
C486 C 0.00099 0.89223 0.16223 0.0
C487 C 0.00682 0.94103 0.15918 0.0
C488 C 0.01392 0.96845 0.17979 0.0
C489 C 0.01351 0.01563 0.1773 0.0
C490 C 0.02065 0.04241 0.19821 0.0
C491 C 0.02753 0.02309 0.2209 0.0
C492 C 0.02757 0.97692 0.22335 0.0
C493 C 0.02084 0.94972 0.20309 0.0
H494 H 0.08504 0.91917 0.64229 0.0
C495 C 0.10817 0.94305 0.65043 0.0
H496 H 0.1141 0.00401 0.66971 0.0
H497 H 0.91526 -0.00105 0.61309 0.0
H498 H 0.95849 0.01094 0.57653 0.0
H499 H 0.0409 0.01471 0.57817 0.0
H500 H 0.08045 0.00549 0.61639 0.0
C501 C 0.09207 0.98023 0.6607 0.0
C502 C 0.04299 0.98789 0.66071 0.0
C503 C 0.02035 -0.00386 0.6385 0.0
C504 C 0.97287 -0.00348 0.6378 0.0
C505 C 0.95121 0.00093 0.61498 0.0
C506 C 0.97566 0.00736 0.59377 0.0
C507 C 0.02204 0.00928 0.59467 0.0
C508 C 0.04431 0.00368 0.61671 0.0
H509 H 0.89954 0.06193 0.64721 0.0
C510 C 0.87893 0.03372 0.65266 0.0
H511 H 0.87848 0.96713 0.66518 0.0
H512 H 0.07634 0.97212 0.7062 0.0
H513 H 0.03322 0.96115 0.74298 0.0
H514 H 0.95066 0.96395 0.74205 0.0
H515 H 0.91094 0.97879 0.70452 0.0
C516 C 0.89854 -0.00453 0.65939 0.0
C517 C 0.94815 -0.00848 0.65964 0.0
C518 C 0.97086 0.98381 0.68188 0.0
C519 C 0.01838 0.98209 0.68241 0.0
C520 C 0.04027 0.9738 0.7048 0.0
C521 C 0.01592 0.96745 0.72605 0.0
C522 C 0.9695 0.96922 0.72555 0.0
C523 C 0.94707 0.97759 0.70382 0.0
H524 H -0.00342 0.08607 0.84987 0.0
C525 C 0.96247 0.09451 0.85485 0.0
H526 H 0.89904 0.07029 0.86546 0.0
H527 H 0.01133 0.89477 0.82095 0.0
H528 H 0.00456 0.93121 0.78178 0.0
H529 H 0.97104 0.00624 0.77842 0.0
H530 H 0.94306 0.04458 0.81406 0.0
C531 C 0.93281 0.06208 0.85977 0.0
C532 C 0.94715 0.01484 0.86103 0.0
C533 C 0.96172 -0.00777 0.83985 0.0
C534 C 0.98046 0.94886 0.84177 0.0
C535 C -0.00376 0.92753 0.82048 0.0
C536 C -0.00731 0.94814 0.79789 0.0
C537 C 0.97371 -0.00972 0.79597 0.0
C538 C 0.95813 0.01212 0.81662 0.0
H539 H 0.95576 0.84506 0.85379 0.0
C540 C 0.98895 0.84622 0.86188 0.0
H541 H 0.04051 0.88678 0.87635 0.0
H542 H 0.91899 0.04785 0.90498 0.0
H543 H 0.92271 0.01003 0.94382 0.0
H544 H 0.9539 0.93406 0.94698 0.0
H545 H 0.98172 0.89558 0.91126 0.0
C546 C 0.00791 0.88549 0.86758 0.0
C547 C 0.98374 0.92816 0.86481 0.0
C548 C 0.96692 0.94974 0.88578 0.0
C549 C 0.9485 -0.00679 0.8839 0.0
C550 C 0.93291 0.01456 0.90526 0.0
C551 C 0.9349 -0.00675 0.92771 0.0
C552 C 0.9525 0.95052 0.9295 0.0
C553 C 0.96844 0.92887 0.90886 0.0
H554 H 0.87479 0.0119 0.34185 0.0
C555 C 0.86799 0.97788 0.34764 0.0
H556 H 0.89506 0.91684 0.35982 0.0
H557 H 0.07222 0.03031 0.31884 0.0
H558 H 0.04083 0.0193 0.27868 0.0
H559 H 0.96666 0.98408 0.27323 0.0
H560 H 0.9235 0.95996 0.30815 0.0
C561 C 0.90182 0.95042 0.3533 0.0
C562 C 0.94797 0.9678 0.35595 0.0
C563 C 0.97294 0.98089 0.33531 0.0
C564 C 0.01604 0.00019 0.33839 0.0
C565 C 0.03978 0.01442 0.31756 0.0
C566 C 0.022 0.0085 0.29436 0.0
C567 C 0.98026 0.98873 0.29131 0.0
C568 C 0.95581 0.9751 0.3115 0.0
H569 H 0.11589 0.97382 0.35207 0.0
C570 C 0.1164 0.0069 0.36024 0.0
H571 H 0.07825 0.06017 0.3744 0.0
H572 H 0.90883 0.94544 0.39939 0.0
H573 H 0.94145 0.95408 0.43948 0.0
H574 H 0.01717 0.98575 0.44467 0.0
H575 H 0.0605 0.00929 0.40976 0.0
C576 C 0.07799 0.02757 0.36567 0.0
C577 C 0.03416 0.00548 0.36206 0.0
C578 C 0.00965 -0.00866 0.38264 0.0
C579 C 0.96642 0.97247 0.37959 0.0
C580 C 0.94216 0.95944 0.40054 0.0
C581 C 0.96045 0.96429 0.42371 0.0
C582 C 0.00303 0.98218 0.42664 0.0
C583 C 0.02749 -0.00437 0.40643 0.0
loop_
_geom_bond_atom_site_label_1
_geom_bond_atom_site_label_2
_geom_bond_distance
_geom_bond_site_symmetry_2
_ccdc_geom_bond_type
In0 O1 2.294 . S
In0 O2 2.326 . S
In0 O6 2.266 . S
In0 O7 2.326 . S
In0 O8 2.266 . S
In0 O9 2.326 . S
In0 O11 2.294 . S
In0 O12 2.326 . S
O1 In0 2.294 . S
O1 C10 1.240 . S
O2 In0 2.326 . S
O2 C10 1.252 . S
C3 O6 1.252 . S
C3 O7 1.260 . S
C4 O11 1.240 . S
C4 O12 1.252 . S
C5 O8 1.252 . S
C5 O9 1.260 . S
O6 In0 2.266 . S
O6 C3 1.252 . S
O7 In0 2.326 . S
O7 C3 1.260 . S
O8 In0 2.266 . S
O8 C5 1.252 . S
O9 In0 2.326 . S
O9 C5 1.260 . S
C10 O1 1.240 . S
C10 O2 1.252 . S
O11 In0 2.294 . S
O11 C4 1.240 . S
O12 In0 2.326 . S
O12 C4 1.252 . S
In13 O14 2.294 . S
In13 O15 2.326 . S
In13 O19 2.266 . S
In13 O20 2.326 . S
In13 O21 2.266 . S
In13 O22 2.326 . S
In13 O24 2.294 . S
In13 O25 2.326 . S
O14 In13 2.294 . S
O14 C23 1.240 . S
O15 In13 2.326 . S
O15 C23 1.252 . S
C16 O19 1.252 . S
C16 O20 1.260 . S
C17 O24 1.240 . S
C17 O25 1.252 . S
C18 O21 1.252 . S
C18 O22 1.260 . S
O19 In13 2.266 . S
O19 C16 1.252 . S
O20 In13 2.326 . S
O20 C16 1.260 . S
O21 In13 2.266 . S
O21 C18 1.252 . S
O22 In13 2.326 . S
O22 C18 1.260 . S
C23 O14 1.240 . S
C23 O15 1.252 . S
O24 In13 2.294 . S
O24 C17 1.240 . S
O25 In13 2.326 . S
O25 C17 1.252 . S
In26 O27 2.294 . S
In26 O28 2.326 . S
In26 O32 2.266 . S
In26 O33 2.326 . S
In26 O34 2.266 . S
In26 O35 2.326 . S
In26 O37 2.294 . S
In26 O38 2.326 . S
O27 In26 2.294 . S
O27 C36 1.240 . S
O28 In26 2.326 . S
O28 C36 1.252 . S
C29 O32 1.252 . S
C29 O33 1.260 . S
C30 O37 1.240 . S
C30 O38 1.252 . S
C31 O34 1.252 . S
C31 O35 1.260 . S
O32 In26 2.266 . S
O32 C29 1.252 . S
O33 In26 2.326 . S
O33 C29 1.260 . S
O34 In26 2.266 . S
O34 C31 1.252 . S
O35 In26 2.326 . S
O35 C31 1.260 . S
C36 O27 1.240 . S
C36 O28 1.252 . S
O37 In26 2.294 . S
O37 C30 1.240 . S
O38 In26 2.326 . S
O38 C30 1.252 . S
In39 O40 2.294 . S
In39 O41 2.326 . S
In39 O45 2.266 . S
In39 O46 2.326 . S
In39 O47 2.266 . S
In39 O48 2.326 . S
In39 O50 2.294 . S
In39 O51 2.326 . S
O40 In39 2.294 . S
O40 C49 1.240 . S
O41 In39 2.326 . S
O41 C49 1.252 . S
C42 O45 1.252 . S
C42 O46 1.260 . S
C43 O50 1.240 . S
C43 O51 1.252 . S
C44 O47 1.252 . S
C44 O48 1.260 . S
O45 In39 2.266 . S
O45 C42 1.252 . S
O46 In39 2.326 . S
O46 C42 1.260 . S
O47 In39 2.266 . S
O47 C44 1.252 . S
O48 In39 2.326 . S
O48 C44 1.260 . S
C49 O40 1.240 . S
C49 O41 1.252 . S
O50 In39 2.294 . S
O50 C43 1.240 . S
O51 In39 2.326 . S
O51 C43 1.252 . S
In52 O53 2.294 . S
In52 O54 2.326 . S
In52 O58 2.266 . S
In52 O59 2.326 . S
In52 O60 2.266 . S
In52 O61 2.326 . S
In52 O63 2.294 . S
In52 O64 2.326 . S
O53 In52 2.294 . S
O53 C62 1.240 . S
O54 In52 2.326 . S
O54 C62 1.252 . S
C55 O58 1.252 . S
C55 O59 1.260 . S
C56 O63 1.240 . S
C56 O64 1.252 . S
C57 O60 1.252 . S
C57 O61 1.260 . S
O58 In52 2.266 . S
O58 C55 1.252 . S
O59 In52 2.326 . S
O59 C55 1.260 . S
O60 In52 2.266 . S
O60 C57 1.252 . S
O61 In52 2.326 . S
O61 C57 1.260 . S
C62 O53 1.240 . S
C62 O54 1.252 . S
O63 In52 2.294 . S
O63 C56 1.240 . S
O64 In52 2.326 . S
O64 C56 1.252 . S
In65 O66 2.294 . S
In65 O67 2.326 . S
In65 O71 2.266 . S
In65 O72 2.326 . S
In65 O73 2.266 . S
In65 O74 2.326 . S
In65 O76 2.294 . S
In65 O77 2.326 . S
O66 In65 2.294 . S
O66 C75 1.240 . S
O67 In65 2.326 . S
O67 C75 1.252 . S
C68 O71 1.252 . S
C68 O72 1.260 . S
C69 O76 1.240 . S
C69 O77 1.252 . S
C70 O73 1.252 . S
C70 O74 1.260 . S
O71 In65 2.266 . S
O71 C68 1.252 . S
O72 In65 2.326 . S
O72 C68 1.260 . S
O73 In65 2.266 . S
O73 C70 1.252 . S
O74 In65 2.326 . S
O74 C70 1.260 . S
C75 O66 1.240 . S
C75 O67 1.252 . S
O76 In65 2.294 . S
O76 C69 1.240 . S
O77 In65 2.326 . S
O77 C69 1.252 . S
In78 O79 2.294 . S
In78 O80 2.326 . S
In78 O84 2.266 . S
In78 O85 2.326 . S
In78 O86 2.266 . S
In78 O87 2.326 . S
In78 O89 2.294 . S
In78 O90 2.326 . S
O79 In78 2.294 . S
O79 C88 1.240 . S
O80 In78 2.326 . S
O80 C88 1.252 . S
C81 O84 1.252 . S
C81 O85 1.260 . S
C82 O89 1.240 . S
C82 O90 1.252 . S
C83 O86 1.252 . S
C83 O87 1.260 . S
O84 In78 2.266 . S
O84 C81 1.252 . S
O85 In78 2.326 . S
O85 C81 1.260 . S
O86 In78 2.266 . S
O86 C83 1.252 . S
O87 In78 2.326 . S
O87 C83 1.260 . S
C88 O79 1.240 . S
C88 O80 1.252 . S
O89 In78 2.294 . S
O89 C82 1.240 . S
O90 In78 2.326 . S
O90 C82 1.252 . S
In91 O92 2.294 . S
In91 O93 2.326 . S
In91 O97 2.266 . S
In91 O98 2.326 . S
In91 O99 2.266 . S
In91 O100 2.326 . S
In91 O102 2.294 . S
In91 O103 2.326 . S
O92 In91 2.294 . S
O92 C101 1.240 . S
O93 In91 2.326 . S
O93 C101 1.252 . S
C94 O97 1.252 . S
C94 O98 1.260 . S
C95 O102 1.240 . S
C95 O103 1.252 . S
C96 O99 1.252 . S
C96 O100 1.260 . S
O97 In91 2.266 . S
O97 C94 1.252 . S
O98 In91 2.326 . S
O98 C94 1.260 . S
O99 In91 2.266 . S
O99 C96 1.252 . S
O100 In91 2.326 . S
O100 C96 1.260 . S
C101 O92 1.240 . S
C101 O93 1.252 . S
O102 In91 2.294 . S
O102 C95 1.240 . S
O103 In91 2.326 . S
O103 C95 1.252 . S
H104 C105 0.951 1_655 S
C105 H104 0.951 1_455 S
C105 C111 1.265 . S
H106 C111 0.950 . S
H107 C115 0.949 1_655 S
H108 C116 0.950 . S
H109 C117 0.951 . S
H110 C118 0.951 . S
C111 C105 1.265 . S
C111 H106 0.950 . S
C111 C112 1.478 . S
C112 C111 1.478 . S
C112 C113 1.397 . S
C112 C129 1.394 1_455 S
C113 C112 1.397 . S
C113 C114 1.438 . S
C113 C118 1.429 . S
C114 C113 1.438 . S
C114 C115 1.428 . S
C114 C127 1.394 1_455 S
C115 H107 0.949 1_455 S
C115 C114 1.428 . S
C115 C116 1.345 . S
C116 H108 0.950 . S
C116 C115 1.345 . S
C116 C117 1.424 . S
C117 H109 0.951 . S
C117 C116 1.424 . S
C117 C118 1.347 . S
C118 H110 0.951 . S
C118 C113 1.429 . S
C118 C117 1.347 . S
H119 C120 0.951 1_455 S
C120 H119 0.951 1_655 S
C120 C126 1.265 . S
H121 C126 0.950 . S
H122 C130 0.949 1_455 S
H123 C131 0.950 . S
H124 C132 0.951 . S
H125 C133 0.951 . S
C126 C120 1.265 . S
C126 H121 0.950 . S
C126 C127 1.478 . S
C127 C114 1.394 1_655 S
C127 C126 1.478 . S
C127 C128 1.397 . S
C128 C127 1.397 . S
C128 C129 1.438 . S
C128 C133 1.429 . S
C129 C112 1.394 1_655 S
C129 C128 1.438 . S
C129 C130 1.428 . S
C130 H122 0.949 1_655 S
C130 C129 1.428 . S
C130 C131 1.345 . S
C131 H123 0.950 . S
C131 C130 1.345 . S
C131 C132 1.424 . S
C132 H124 0.951 . S
C132 C131 1.424 . S
C132 C133 1.347 . S
C133 H125 0.951 . S
C133 C128 1.429 . S
C133 C132 1.347 . S
H134 C135 0.951 1_545 S
C135 H134 0.951 1_565 S
C135 C141 1.265 . S
H136 C141 0.950 . S
H137 C145 0.949 . S
H138 C146 0.950 . S
H139 C147 0.951 . S
H140 C148 0.951 . S
C141 C135 1.265 . S
C141 H136 0.950 . S
C141 C142 1.478 . S
C142 C141 1.478 . S
C142 C143 1.397 . S
C142 C159 1.394 1_565 S
C143 C142 1.397 . S
C143 C144 1.438 . S
C143 C148 1.429 . S
C144 C143 1.438 . S
C144 C145 1.428 . S
C144 C157 1.394 1_565 S
C145 H137 0.949 . S
C145 C144 1.428 . S
C145 C146 1.345 . S
C146 H138 0.950 . S
C146 C145 1.345 . S
C146 C147 1.424 . S
C147 H139 0.951 . S
C147 C146 1.424 . S
C147 C148 1.347 . S
C148 H140 0.951 . S
C148 C143 1.429 . S
C148 C147 1.347 . S
H149 C150 0.951 1_565 S
C150 H149 0.951 1_545 S
C150 C156 1.265 . S
H151 C156 0.950 . S
H152 C160 0.949 . S
H153 C161 0.950 . S
H154 C162 0.951 . S
H155 C163 0.951 . S
C156 C150 1.265 . S
C156 H151 0.950 . S
C156 C157 1.478 . S
C157 C144 1.394 1_545 S
C157 C156 1.478 . S
C157 C158 1.397 . S
C158 C157 1.397 . S
C158 C159 1.438 . S
C158 C163 1.429 . S
C159 C142 1.394 1_545 S
C159 C158 1.438 . S
C159 C160 1.428 . S
C160 H152 0.949 . S
C160 C159 1.428 . S
C160 C161 1.345 . S
C161 H153 0.950 . S
C161 C160 1.345 . S
C161 C162 1.424 . S
C162 H154 0.951 . S
C162 C161 1.424 . S
C162 C163 1.347 . S
C163 H155 0.951 . S
C163 C158 1.429 . S
C163 C162 1.347 . S
H164 C165 0.951 1_455 S
C165 H164 0.951 1_655 S
C165 C171 1.265 . S
H166 C171 0.950 . S
H167 C175 0.949 1_455 S
H168 C176 0.950 . S
H169 C177 0.951 . S
H170 C178 0.951 . S
C171 C165 1.265 . S
C171 H166 0.950 . S
C171 C172 1.478 . S
C172 C171 1.478 . S
C172 C173 1.397 . S
C172 C189 1.394 1_655 S
C173 C172 1.397 . S
C173 C174 1.438 . S
C173 C178 1.429 . S
C174 C173 1.438 . S
C174 C175 1.428 . S
C174 C187 1.394 1_655 S
C175 H167 0.949 1_655 S
C175 C174 1.428 . S
C175 C176 1.345 . S
C176 H168 0.950 . S
C176 C175 1.345 . S
C176 C177 1.424 . S
C177 H169 0.951 . S
C177 C176 1.424 . S
C177 C178 1.347 . S
C178 H170 0.951 . S
C178 C173 1.429 . S
C178 C177 1.347 . S
H179 C180 0.951 1_655 S
C180 H179 0.951 1_455 S
C180 C186 1.265 . S
H181 C186 0.950 . S
H182 C190 0.949 1_655 S
H183 C191 0.950 . S
H184 C192 0.951 . S
H185 C193 0.951 . S
C186 C180 1.265 . S
C186 H181 0.950 . S
C186 C187 1.478 . S
C187 C174 1.394 1_455 S
C187 C186 1.478 . S
C187 C188 1.397 . S
C188 C187 1.397 . S
C188 C189 1.438 . S
C188 C193 1.429 . S
C189 C172 1.394 1_455 S
C189 C188 1.438 . S
C189 C190 1.428 . S
C190 H182 0.949 1_455 S
C190 C189 1.428 . S
C190 C191 1.345 . S
C191 H183 0.950 . S
C191 C190 1.345 . S
C191 C192 1.424 . S
C192 H184 0.951 . S
C192 C191 1.424 . S
C192 C193 1.347 . S
C193 H185 0.951 . S
C193 C188 1.429 . S
C193 C192 1.347 . S
H194 C195 0.951 1_565 S
C195 H194 0.951 1_545 S
C195 C201 1.265 . S
H196 C201 0.950 . S
H197 C205 0.949 1_565 S
H198 C206 0.950 . S
H199 C207 0.951 . S
H200 C208 0.951 . S
C201 C195 1.265 . S
C201 H196 0.950 . S
C201 C202 1.478 . S
C202 C201 1.478 . S
C202 C203 1.397 . S
C202 C219 1.394 1_545 S
C203 C202 1.397 . S
C203 C204 1.438 . S
C203 C208 1.429 . S
C204 C203 1.438 . S
C204 C205 1.428 . S
C204 C217 1.394 1_545 S
C205 H197 0.949 1_545 S
C205 C204 1.428 . S
C205 C206 1.345 . S
C206 H198 0.950 . S
C206 C205 1.345 . S
C206 C207 1.424 . S
C207 H199 0.951 . S
C207 C206 1.424 . S
C207 C208 1.347 . S
C208 H200 0.951 . S
C208 C203 1.429 . S
C208 C207 1.347 . S
H209 C210 0.951 1_545 S
C210 H209 0.951 1_565 S
C210 C216 1.265 . S
H211 C216 0.950 . S
H212 C220 0.949 1_545 S
H213 C221 0.950 . S
H214 C222 0.951 . S
H215 C223 0.951 . S
C216 C210 1.265 . S
C216 H211 0.950 . S
C216 C217 1.478 . S
C217 C204 1.394 1_565 S
C217 C216 1.478 . S
C217 C218 1.397 . S
C218 C217 1.397 . S
C218 C219 1.438 . S
C218 C223 1.429 . S
C219 C202 1.394 1_565 S
C219 C218 1.438 . S
C219 C220 1.428 . S
C220 H212 0.949 1_565 S
C220 C219 1.428 . S
C220 C221 1.345 . S
C221 H213 0.950 . S
C221 C220 1.345 . S
C221 C222 1.424 . S
C222 H214 0.951 . S
C222 C221 1.424 . S
C222 C223 1.347 . S
C223 H215 0.951 . S
C223 C218 1.429 . S
C223 C222 1.347 . S
H224 C225 0.951 . S
C225 H224 0.951 . S
C225 C231 1.265 . S
H226 C231 0.950 . S
H227 C235 0.949 1_455 S
H228 C236 0.950 . S
H229 C237 0.951 . S
H230 C238 0.951 . S
C231 C225 1.265 . S
C231 H226 0.950 . S
C231 C232 1.478 . S
C232 C231 1.478 . S
C232 C233 1.397 . S
C232 C249 1.394 1_655 S
C233 C232 1.397 . S
C233 C234 1.438 1_556 S
C233 C238 1.429 . S
C234 C233 1.438 1_554 S
C234 C235 1.428 . S
C234 C247 1.394 1_655 S
C235 H227 0.949 1_655 S
C235 C234 1.428 . S
C235 C236 1.345 . S
C236 H228 0.950 . S
C236 C235 1.345 . S
C236 C237 1.424 . S
C237 H229 0.951 . S
C237 C236 1.424 . S
C237 C238 1.347 1_554 S
C238 H230 0.951 . S
C238 C233 1.429 . S
C238 C237 1.347 1_556 S
H239 C240 0.951 . S
C240 H239 0.951 . S
C240 C246 1.265 . S
H241 C246 0.950 . S
H242 C250 0.949 1_655 S
H243 C251 0.950 . S
H244 C252 0.951 . S
H245 C253 0.951 . S
C246 C240 1.265 . S
C246 H241 0.950 . S
C246 C247 1.478 . S
C247 C234 1.394 1_455 S
C247 C246 1.478 . S
C247 C248 1.397 . S
C248 C247 1.397 . S
C248 C249 1.438 1_554 S
C248 C253 1.429 . S
C249 C232 1.394 1_455 S
C249 C248 1.438 1_556 S
C249 C250 1.428 . S
C250 H242 0.949 1_455 S
C250 C249 1.428 . S
C250 C251 1.345 . S
C251 H243 0.950 . S
C251 C250 1.345 . S
C251 C252 1.424 . S
C252 H244 0.951 . S
C252 C251 1.424 . S
C252 C253 1.347 1_556 S
C253 H245 0.951 . S
C253 C248 1.429 . S
C253 C252 1.347 1_554 S
H254 C255 0.951 . S
C255 H254 0.951 . S
C255 C261 1.265 . S
H256 C261 0.950 . S
H257 C265 0.949 . S
H258 C266 0.950 1_565 S
H259 C267 0.951 . S
H260 C268 0.951 . S
C261 C255 1.265 . S
C261 H256 0.950 . S
C261 C262 1.478 . S
C262 C261 1.478 . S
C262 C263 1.397 . S
C262 C279 1.394 . S
C263 C262 1.397 . S
C263 C264 1.438 1_545 S
C263 C268 1.429 . S
C264 C263 1.438 1_565 S
C264 C265 1.428 . S
C264 C277 1.394 . S
C265 H257 0.949 . S
C265 C264 1.428 . S
C265 C266 1.345 1_565 S
C266 H258 0.950 1_545 S
C266 C265 1.345 1_545 S
C266 C267 1.424 . S
C267 H259 0.951 . S
C267 C266 1.424 . S
C267 C268 1.347 . S
C268 H260 0.951 . S
C268 C263 1.429 . S
C268 C267 1.347 . S
H269 C270 0.951 . S
C270 H269 0.951 . S
C270 C276 1.265 . S
H271 C276 0.950 . S
H272 C280 0.949 . S
H273 C281 0.950 1_545 S
H274 C282 0.951 . S
H275 C283 0.951 . S
C276 C270 1.265 . S
C276 H271 0.950 . S
C276 C277 1.478 . S
C277 C264 1.394 . S
C277 C276 1.478 . S
C277 C278 1.397 . S
C278 C277 1.397 . S
C278 C279 1.438 1_565 S
C278 C283 1.429 . S
C279 C262 1.394 . S
C279 C278 1.438 1_545 S
C279 C280 1.428 . S
C280 H272 0.949 . S
C280 C279 1.428 . S
C280 C281 1.345 1_545 S
C281 H273 0.950 1_565 S
C281 C280 1.345 1_565 S
C281 C282 1.424 . S
C282 H274 0.951 . S
C282 C281 1.424 . S
C282 C283 1.347 . S
C283 H275 0.951 . S
C283 C278 1.429 . S
C283 C282 1.347 . S
H284 C285 0.951 . S
C285 H284 0.951 . S
C285 C291 1.265 . S
H286 C291 0.950 . S
H287 C295 0.949 . S
H288 C296 0.950 . S
H289 C297 0.951 . S
H290 C298 0.951 . S
C291 C285 1.265 . S
C291 H286 0.950 . S
C291 C292 1.478 . S
C292 C291 1.478 . S
C292 C293 1.397 1_655 S
C292 C309 1.394 . S
C293 C292 1.397 1_455 S
C293 C294 1.438 1_554 S
C293 C298 1.429 . S
C294 C293 1.438 1_556 S
C294 C295 1.428 . S
C294 C307 1.394 . S
C295 H287 0.949 . S
C295 C294 1.428 . S
C295 C296 1.345 . S
C296 H288 0.950 . S
C296 C295 1.345 . S
C296 C297 1.424 1_556 S
C297 H289 0.951 . S
C297 C296 1.424 1_554 S
C297 C298 1.347 . S
C298 H290 0.951 . S
C298 C293 1.429 . S
C298 C297 1.347 . S
H299 C300 0.951 . S
C300 H299 0.951 . S
C300 C306 1.265 . S
H301 C306 0.950 . S
H302 C310 0.949 . S
H303 C311 0.950 . S
H304 C312 0.951 . S
H305 C313 0.951 . S
C306 C300 1.265 . S
C306 H301 0.950 . S
C306 C307 1.478 . S
C307 C294 1.394 . S
C307 C306 1.478 . S
C307 C308 1.397 1_455 S
C308 C307 1.397 1_655 S
C308 C309 1.438 1_556 S
C308 C313 1.429 . S
C309 C292 1.394 . S
C309 C308 1.438 1_554 S
C309 C310 1.428 . S
C310 H302 0.949 . S
C310 C309 1.428 . S
C310 C311 1.345 . S
C311 H303 0.950 . S
C311 C310 1.345 . S
C311 C312 1.424 1_554 S
C312 H304 0.951 . S
C312 C311 1.424 1_556 S
C312 C313 1.347 . S
C313 H305 0.951 . S
C313 C308 1.429 . S
C313 C312 1.347 . S
H314 C315 0.951 . S
C315 H314 0.951 . S
C315 C321 1.265 . S
H316 C321 0.950 . S
H317 C325 0.949 . S
H318 C326 0.950 . S
H319 C327 0.951 . S
H320 C328 0.951 . S
C321 C315 1.265 . S
C321 H316 0.950 . S
C321 C322 1.478 . S
C322 C321 1.478 . S
C322 C323 1.397 . S
C322 C339 1.394 1_545 S
C323 C322 1.397 . S
C323 C324 1.438 . S
C323 C328 1.429 . S
C324 C323 1.438 . S
C324 C325 1.428 . S
C324 C337 1.394 1_545 S
C325 H317 0.949 . S
C325 C324 1.428 . S
C325 C326 1.345 . S
C326 H318 0.950 . S
C326 C325 1.345 . S
C326 C327 1.424 . S
C327 H319 0.951 . S
C327 C326 1.424 . S
C327 C328 1.347 . S
C328 H320 0.951 . S
C328 C323 1.429 . S
C328 C327 1.347 . S
H329 C330 0.951 . S
C330 H329 0.951 . S
C330 C336 1.265 . S
H331 C336 0.950 . S
H332 C340 0.949 . S
H333 C341 0.950 . S
H334 C342 0.951 . S
H335 C343 0.951 . S
C336 C330 1.265 . S
C336 H331 0.950 . S
C336 C337 1.478 . S
C337 C324 1.394 1_565 S
C337 C336 1.478 . S
C337 C338 1.397 . S
C338 C337 1.397 . S
C338 C339 1.438 . S
C338 C343 1.429 . S
C339 C322 1.394 1_565 S
C339 C338 1.438 . S
C339 C340 1.428 . S
C340 H332 0.949 . S
C340 C339 1.428 . S
C340 C341 1.345 . S
C341 H333 0.950 . S
C341 C340 1.345 . S
C341 C342 1.424 . S
C342 H334 0.951 . S
C342 C341 1.424 . S
C342 C343 1.347 . S
C343 H335 0.951 . S
C343 C338 1.429 . S
C343 C342 1.347 . S
H344 C345 0.951 . S
C345 H344 0.951 . S
C345 C351 1.265 . S
H346 C351 0.950 . S
H347 C355 0.949 . S
H348 C356 0.950 . S
H349 C357 0.951 . S
H350 C358 0.951 . S
C351 C345 1.265 . S
C351 H346 0.950 . S
C351 C352 1.478 . S
C352 C351 1.478 . S
C352 C353 1.397 . S
C352 C369 1.394 . S
C353 C352 1.397 . S
C353 C354 1.438 . S
C353 C358 1.429 . S
C354 C353 1.438 . S
C354 C355 1.428 . S
C354 C367 1.394 . S
C355 H347 0.949 . S
C355 C354 1.428 . S
C355 C356 1.345 . S
C356 H348 0.950 . S
C356 C355 1.345 . S
C356 C357 1.424 . S
C357 H349 0.951 . S
C357 C356 1.424 . S
C357 C358 1.347 . S
C358 H350 0.951 . S
C358 C353 1.429 . S
C358 C357 1.347 . S
H359 C360 0.951 . S
C360 H359 0.951 . S
C360 C366 1.265 . S
H361 C366 0.950 . S
H362 C370 0.949 . S
H363 C371 0.950 . S
H364 C372 0.951 . S
H365 C373 0.951 . S
C366 C360 1.265 . S
C366 H361 0.950 . S
C366 C367 1.478 . S
C367 C354 1.394 . S
C367 C366 1.478 . S
C367 C368 1.397 . S
C368 C367 1.397 . S
C368 C369 1.438 . S
C368 C373 1.429 . S
C369 C352 1.394 . S
C369 C368 1.438 . S
C369 C370 1.428 . S
C370 H362 0.949 . S
C370 C369 1.428 . S
C370 C371 1.345 . S
C371 H363 0.950 . S
C371 C370 1.345 . S
C371 C372 1.424 . S
C372 H364 0.951 . S
C372 C371 1.424 . S
C372 C373 1.347 . S
C373 H365 0.951 . S
C373 C368 1.429 . S
C373 C372 1.347 . S
H374 C375 0.951 . S
C375 H374 0.951 . S
C375 C381 1.265 . S
H376 C381 0.950 . S
H377 C385 0.949 . S
H378 C386 0.950 . S
H379 C387 0.951 . S
H380 C388 0.951 . S
C381 C375 1.265 . S
C381 H376 0.950 . S
C381 C382 1.478 . S
C382 C381 1.478 . S
C382 C383 1.397 . S
C382 C399 1.394 . S
C383 C382 1.397 . S
C383 C384 1.438 . S
C383 C388 1.429 . S
C384 C383 1.438 . S
C384 C385 1.428 . S
C384 C397 1.394 . S
C385 H377 0.949 . S
C385 C384 1.428 . S
C385 C386 1.345 . S
C386 H378 0.950 . S
C386 C385 1.345 . S
C386 C387 1.424 . S
C387 H379 0.951 . S
C387 C386 1.424 . S
C387 C388 1.347 . S
C388 H380 0.951 . S
C388 C383 1.429 . S
C388 C387 1.347 . S
H389 C390 0.951 . S
C390 H389 0.951 . S
C390 C396 1.265 . S
H391 C396 0.950 . S
H392 C400 0.949 . S
H393 C401 0.950 . S
H394 C402 0.951 . S
H395 C403 0.951 . S
C396 C390 1.265 . S
C396 H391 0.950 . S
C396 C397 1.478 . S
C397 C384 1.394 . S
C397 C396 1.478 . S
C397 C398 1.397 . S
C398 C397 1.397 . S
C398 C399 1.438 . S
C398 C403 1.429 . S
C399 C382 1.394 . S
C399 C398 1.438 . S
C399 C400 1.428 . S
C400 H392 0.949 . S
C400 C399 1.428 . S
C400 C401 1.345 . S
C401 H393 0.950 . S
C401 C400 1.345 . S
C401 C402 1.424 . S
C402 H394 0.951 . S
C402 C401 1.424 . S
C402 C403 1.347 . S
C403 H395 0.951 . S
C403 C398 1.429 . S
C403 C402 1.347 . S
H404 C405 0.951 . S
C405 H404 0.951 . S
C405 C411 1.265 . S
H406 C411 0.950 . S
H407 C415 0.949 . S
H408 C416 0.950 . S
H409 C417 0.951 . S
H410 C418 0.951 . S
C411 C405 1.265 . S
C411 H406 0.950 . S
C411 C412 1.478 . S
C412 C411 1.478 . S
C412 C413 1.397 . S
C412 C429 1.394 . S
C413 C412 1.397 . S
C413 C414 1.438 . S
C413 C418 1.429 . S
C414 C413 1.438 . S
C414 C415 1.428 . S
C414 C427 1.394 . S
C415 H407 0.949 . S
C415 C414 1.428 . S
C415 C416 1.345 . S
C416 H408 0.950 . S
C416 C415 1.345 . S
C416 C417 1.424 . S
C417 H409 0.951 . S
C417 C416 1.424 . S
C417 C418 1.347 . S
C418 H410 0.951 . S
C418 C413 1.429 . S
C418 C417 1.347 . S
H419 C420 0.951 . S
C420 H419 0.951 . S
C420 C426 1.265 . S
H421 C426 0.950 . S
H422 C430 0.949 . S
H423 C431 0.950 . S
H424 C432 0.951 . S
H425 C433 0.951 . S
C426 C420 1.265 . S
C426 H421 0.950 . S
C426 C427 1.478 . S
C427 C414 1.394 . S
C427 C426 1.478 . S
C427 C428 1.397 . S
C428 C427 1.397 . S
C428 C429 1.438 . S
C428 C433 1.429 . S
C429 C412 1.394 . S
C429 C428 1.438 . S
C429 C430 1.428 . S
C430 H422 0.949 . S
C430 C429 1.428 . S
C430 C431 1.345 . S
C431 H423 0.950 . S
C431 C430 1.345 . S
C431 C432 1.424 . S
C432 H424 0.951 . S
C432 C431 1.424 . S
C432 C433 1.347 . S
C433 H425 0.951 . S
C433 C428 1.429 . S
C433 C432 1.347 . S
H434 C435 0.951 . S
C435 H434 0.951 . S
C435 C441 1.265 . S
H436 C441 0.950 . S
H437 C445 0.949 . S
H438 C446 0.950 . S
H439 C447 0.951 . S
H440 C448 0.951 . S
C441 C435 1.265 . S
C441 H436 0.950 . S
C441 C442 1.478 . S
C442 C441 1.478 . S
C442 C443 1.397 . S
C442 C459 1.394 . S
C443 C442 1.397 . S
C443 C444 1.438 . S
C443 C448 1.429 . S
C444 C443 1.438 . S
C444 C445 1.428 . S
C444 C457 1.394 . S
C445 H437 0.949 . S
C445 C444 1.428 . S
C445 C446 1.345 . S
C446 H438 0.950 . S
C446 C445 1.345 . S
C446 C447 1.424 . S
C447 H439 0.951 . S
C447 C446 1.424 . S
C447 C448 1.347 . S
C448 H440 0.951 . S
C448 C443 1.429 . S
C448 C447 1.347 . S
H449 C450 0.951 . S
C450 H449 0.951 . S
C450 C456 1.265 . S
H451 C456 0.950 . S
H452 C460 0.949 . S
H453 C461 0.950 . S
H454 C462 0.951 . S
H455 C463 0.951 . S
C456 C450 1.265 . S
C456 H451 0.950 . S
C456 C457 1.478 . S
C457 C444 1.394 . S
C457 C456 1.478 . S
C457 C458 1.397 . S
C458 C457 1.397 . S
C458 C459 1.438 . S
C458 C463 1.429 . S
C459 C442 1.394 . S
C459 C458 1.438 . S
C459 C460 1.428 . S
C460 H452 0.949 . S
C460 C459 1.428 . S
C460 C461 1.345 . S
C461 H453 0.950 . S
C461 C460 1.345 . S
C461 C462 1.424 . S
C462 H454 0.951 . S
C462 C461 1.424 . S
C462 C463 1.347 . S
C463 H455 0.951 . S
C463 C458 1.429 . S
C463 C462 1.347 . S
H464 C465 0.951 . S
C465 H464 0.951 . S
C465 C471 1.265 1_455 S
H466 C471 0.950 . S
H467 C475 0.949 . S
H468 C476 0.950 . S
H469 C477 0.951 . S
H470 C478 0.951 . S
C471 C465 1.265 1_655 S
C471 H466 0.950 . S
C471 C472 1.478 . S
C472 C471 1.478 . S
C472 C473 1.397 . S
C472 C489 1.394 1_655 S
C473 C472 1.397 . S
C473 C474 1.438 1_545 S
C473 C478 1.429 . S
C474 C473 1.438 1_565 S
C474 C475 1.428 . S
C474 C487 1.394 1_655 S
C475 H467 0.949 . S
C475 C474 1.428 . S
C475 C476 1.345 . S
C476 H468 0.950 . S
C476 C475 1.345 . S
C476 C477 1.424 1_565 S
C477 H469 0.951 . S
C477 C476 1.424 1_545 S
C477 C478 1.347 . S
C478 H470 0.951 . S
C478 C473 1.429 . S
C478 C477 1.347 . S
H479 C480 0.951 . S
C480 H479 0.951 . S
C480 C486 1.265 1_655 S
H481 C486 0.950 . S
H482 C490 0.949 . S
H483 C491 0.950 . S
H484 C492 0.951 . S
H485 C493 0.951 . S
C486 C480 1.265 1_455 S
C486 H481 0.950 . S
C486 C487 1.478 . S
C487 C474 1.394 1_455 S
C487 C486 1.478 . S
C487 C488 1.397 . S
C488 C487 1.397 . S
C488 C489 1.438 1_565 S
C488 C493 1.429 . S
C489 C472 1.394 1_455 S
C489 C488 1.438 1_545 S
C489 C490 1.428 . S
C490 H482 0.949 . S
C490 C489 1.428 . S
C490 C491 1.345 . S
C491 H483 0.950 . S
C491 C490 1.345 . S
C491 C492 1.424 1_545 S
C492 H484 0.951 . S
C492 C491 1.424 1_565 S
C492 C493 1.347 . S
C493 H485 0.951 . S
C493 C488 1.429 . S
C493 C492 1.347 . S
H494 C495 0.951 . S
C495 H494 0.951 . S
C495 C501 1.265 1_565 S
H496 C501 0.950 . S
H497 C505 0.949 . S
H498 C506 0.950 . S
H499 C507 0.951 . S
H500 C508 0.951 . S
C501 C495 1.265 1_545 S
C501 H496 0.950 . S
C501 C502 1.478 . S
C502 C501 1.478 . S
C502 C503 1.397 . S
C502 C519 1.394 1_545 S
C503 C502 1.397 . S
C503 C504 1.438 1_455 S
C503 C508 1.429 . S
C504 C503 1.438 1_655 S
C504 C505 1.428 . S
C504 C517 1.394 1_545 S
C505 H497 0.949 . S
C505 C504 1.428 . S
C505 C506 1.345 . S
C506 H498 0.950 . S
C506 C505 1.345 . S
C506 C507 1.424 1_655 S
C507 H499 0.951 . S
C507 C506 1.424 1_455 S
C507 C508 1.347 . S
C508 H500 0.951 . S
C508 C503 1.429 . S
C508 C507 1.347 . S
H509 C510 0.951 . S
C510 H509 0.951 . S
C510 C516 1.265 1_545 S
H511 C516 0.950 . S
H512 C520 0.949 . S
H513 C521 0.950 . S
H514 C522 0.951 . S
H515 C523 0.951 . S
C516 C510 1.265 1_565 S
C516 H511 0.950 . S
C516 C517 1.478 . S
C517 C504 1.394 1_565 S
C517 C516 1.478 . S
C517 C518 1.397 . S
C518 C517 1.397 . S
C518 C519 1.438 1_655 S
C518 C523 1.429 . S
C519 C502 1.394 1_565 S
C519 C518 1.438 1_455 S
C519 C520 1.428 . S
C520 H512 0.949 . S
C520 C519 1.428 . S
C520 C521 1.345 . S
C521 H513 0.950 . S
C521 C520 1.345 . S
C521 C522 1.424 1_455 S
C522 H514 0.951 . S
C522 C521 1.424 1_655 S
C522 C523 1.347 . S
C523 H515 0.951 . S
C523 C518 1.429 . S
C523 C522 1.347 . S
H524 C525 0.951 1_455 S
C525 H524 0.951 1_655 S
C525 C531 1.265 . S
H526 C531 0.950 . S
H527 C535 0.949 1_455 S
H528 C536 0.950 . S
H529 C537 0.951 . S
H530 C538 0.951 . S
C531 C525 1.265 . S
C531 H526 0.950 . S
C531 C532 1.478 . S
C532 C531 1.478 . S
C532 C533 1.397 . S
C532 C549 1.394 1_655 S
C533 C532 1.397 . S
C533 C534 1.438 1_545 S
C533 C538 1.429 . S
C534 C533 1.438 1_565 S
C534 C535 1.428 . S
C534 C547 1.394 1_655 S
C535 H527 0.949 1_655 S
C535 C534 1.428 . S
C535 C536 1.345 . S
C536 H528 0.950 . S
C536 C535 1.345 . S
C536 C537 1.424 1_565 S
C537 H529 0.951 . S
C537 C536 1.424 1_545 S
C537 C538 1.347 . S
C538 H530 0.951 . S
C538 C533 1.429 . S
C538 C537 1.347 . S
H539 C540 0.951 1_655 S
C540 H539 0.951 1_455 S
C540 C546 1.265 . S
H541 C546 0.950 . S
H542 C550 0.949 1_655 S
H543 C551 0.950 . S
H544 C552 0.951 . S
H545 C553 0.951 . S
C546 C540 1.265 . S
C546 H541 0.950 . S
C546 C547 1.478 . S
C547 C534 1.394 1_455 S
C547 C546 1.478 . S
C547 C548 1.397 . S
C548 C547 1.397 . S
C548 C549 1.438 1_565 S
C548 C553 1.429 . S
C549 C532 1.394 1_455 S
C549 C548 1.438 1_545 S
C549 C550 1.428 . S
C550 H542 0.949 1_455 S
C550 C549 1.428 . S
C550 C551 1.345 . S
C551 H543 0.950 . S
C551 C550 1.345 . S
C551 C552 1.424 1_545 S
C552 H544 0.951 . S
C552 C551 1.424 1_565 S
C552 C553 1.347 . S
C553 H545 0.951 . S
C553 C548 1.429 . S
C553 C552 1.347 . S
H554 C555 0.951 1_545 S
C555 H554 0.951 1_565 S
C555 C561 1.265 . S
H556 C561 0.950 . S
H557 C565 0.949 . S
H558 C566 0.950 . S
H559 C567 0.951 . S
H560 C568 0.951 . S
C561 C555 1.265 . S
C561 H556 0.950 . S
C561 C562 1.478 . S
C562 C561 1.478 . S
C562 C563 1.397 . S
C562 C579 1.394 1_565 S
C563 C562 1.397 . S
C563 C564 1.438 1_655 S
C563 C568 1.429 . S
C564 C563 1.438 1_455 S
C564 C565 1.428 . S
C564 C577 1.394 1_565 S
C565 H557 0.949 . S
C565 C564 1.428 . S
C565 C566 1.345 . S
C566 H558 0.950 . S
C566 C565 1.345 . S
C566 C567 1.424 1_455 S
C567 H559 0.951 . S
C567 C566 1.424 1_655 S
C567 C568 1.347 . S
C568 H560 0.951 . S
C568 C563 1.429 . S
C568 C567 1.347 . S
H569 C570 0.951 1_565 S
C570 H569 0.951 1_545 S
C570 C576 1.265 . S
H571 C576 0.950 . S
H572 C580 0.949 . S
H573 C581 0.950 . S
H574 C582 0.951 . S
H575 C583 0.951 . S
C576 C570 1.265 . S
C576 H571 0.950 . S
C576 C577 1.478 . S
C577 C564 1.394 1_545 S
C577 C576 1.478 . S
C577 C578 1.397 . S
C578 C577 1.397 . S
C578 C579 1.438 1_455 S
C578 C583 1.429 . S
C579 C562 1.394 1_545 S
C579 C578 1.438 1_655 S
C579 C580 1.428 . S
C580 H572 0.949 . S
C580 C579 1.428 . S
C580 C581 1.345 . S
C581 H573 0.950 . S
C581 C580 1.345 . S
C581 C582 1.424 1_655 S
C582 H574 0.951 . S
C582 C581 1.424 1_455 S
C582 C583 1.347 . S
C583 H575 0.951 . S
C583 C578 1.429 . S
C583 C582 1.347 . S
C105 C4 1.325 . S
C120 C30 1.324 . S
C135 C49 1.319 . S
C150 C17 1.329 . S
C165 C82 1.325 . S
C180 C56 1.325 . S
C195 C69 1.325 . S
C210 C95 1.325 . S
C225 C88 1.483 . S
C240 C10 1.486 . S
C255 C23 1.487 . S
C270 C101 1.483 . S
C285 C36 1.581 . S
C300 C62 1.582 . S
C315 C75 1.526 . S
C330 C43 1.543 . S
C345 C3 1.328 . S
C360 C68 1.393 . S
C375 C81 1.314 . S
C390 C16 1.358 . S
C405 C94 1.314 . S
C420 C29 1.359 . S
C435 C44 1.361 . S
C450 C55 1.395 . S
C465 C5 1.094 . S
C480 C31 1.092 . S
C495 C42 1.096 . S
C510 C18 1.091 . S
C525 C83 1.159 . S
C540 C57 1.161 . S
C555 C96 1.162 . S
C570 C70 1.159 . S
