# Generated by pormake.
# Topology crb, (4)-cn, num edge types: 1
# Building blocks:
#     Node 0, Type 0, BuildingBlock: ICAMEG_clean_sbu_1, # of connection points: 4
#     Node 1, Type 0, BuildingBlock: ICAMEG_clean_sbu_1, # of connection points: 4
#     Node 2, Type 0, BuildingBlock: ICAMEG_clean_sbu_1, # of connection points: 4
#     Node 3, Type 0, BuildingBlock: ICAMEG_clean_sbu_1, # of connection points: 4
#     Node 4, Type 0, BuildingBlock: ICAMEG_clean_sbu_1, # of connection points: 4
#     Node 5, Type 0, BuildingBlock: ICAMEG_clean_sbu_1, # of connection points: 4
#     Node 6, Type 0, BuildingBlock: ICAMEG_clean_sbu_1, # of connection points: 4
#     Node 7, Type 0, BuildingBlock: ICAMEG_clean_sbu_1, # of connection points: 4
#     Edge 8, Type (0, 0), BuildingBlock: EZIPEK_clean_linker_0, # of connection points: 2
#     Edge 9, Type (0, 0), BuildingBlock: EZIPEK_clean_linker_0, # of connection points: 2
#     Edge 10, Type (0, 0), BuildingBlock: EZIPEK_clean_linker_0, # of connection points: 2
#     Edge 11, Type (0, 0), BuildingBlock: EZIPEK_clean_linker_0, # of connection points: 2
#     Edge 12, Type (0, 0), BuildingBlock: EZIPEK_clean_linker_0, # of connection points: 2
#     Edge 13, Type (0, 0), BuildingBlock: EZIPEK_clean_linker_0, # of connection points: 2
#     Edge 14, Type (0, 0), BuildingBlock: EZIPEK_clean_linker_0, # of connection points: 2
#     Edge 15, Type (0, 0), BuildingBlock: EZIPEK_clean_linker_0, # of connection points: 2
#     Edge 16, Type (0, 0), BuildingBlock: EZIPEK_clean_linker_0, # of connection points: 2
#     Edge 17, Type (0, 0), BuildingBlock: EZIPEK_clean_linker_0, # of connection points: 2
#     Edge 18, Type (0, 0), BuildingBlock: EZIPEK_clean_linker_0, # of connection points: 2
#     Edge 19, Type (0, 0), BuildingBlock: EZIPEK_clean_linker_0, # of connection points: 2
#     Edge 20, Type (0, 0), BuildingBlock: EZIPEK_clean_linker_0, # of connection points: 2
#     Edge 21, Type (0, 0), BuildingBlock: EZIPEK_clean_linker_0, # of connection points: 2
#     Edge 22, Type (0, 0), BuildingBlock: EZIPEK_clean_linker_0, # of connection points: 2
#     Edge 23, Type (0, 0), BuildingBlock: EZIPEK_clean_linker_0, # of connection points: 2
# Relax obj value: 0.183
# Max RMSD: 0.233
# Mean RMSD: 0.233
data_MOF--net-crb--node1-ICAMEG_clean_sbu_1--edge1-EZIPEK_clean_linker_0
_symmetry_space_group_name_H-M    P1
_symmetry_Int_Tables_number       1
_symmetry_cell_setting            triclinic
loop_
_symmetry_equiv_pos_as_xyz
'x, y, z'
_cell_length_a     33.091504
_cell_length_b     33.11117
_cell_length_c     19.090608
_cell_angle_alpha  90.446062
_cell_angle_beta   89.820103
_cell_angle_gamma 90.060061
loop_
_atom_site_label
_atom_site_type_symbol
_atom_site_fract_x
_atom_site_fract_y
_atom_site_fract_z
_atom_type_partial_charge
Co0 Co 0.35857 0.35718 0.93705 0.0
Co1 Co 0.36121 0.36396 0.11498 0.0
O2 O 0.33699 0.34069 0.02906 0.0
C3 C 0.2682 0.35406 0.90291 0.0
O4 O 0.25735 0.37343 0.96013 0.0
C5 C 0.32687 0.28185 0.15926 0.0
O6 O 0.3137 0.27467 0.0956 0.0
O7 O 0.41471 0.34031 0.08525 0.0
O8 O 0.41428 0.36598 0.97727 0.0
H9 H 0.47217 0.43641 0.24495 0.0
H10 H 0.31695 0.27858 0.95066 0.0
O11 O 0.30518 0.34665 0.89012 0.0
H12 H 0.45156 0.24586 0.85449 0.0
H13 H 0.37294 0.35104 0.67406 0.0
H14 H 0.41201 0.4234 0.88981 0.0
H15 H 0.43244 0.3165 0.879 0.0
H16 H 0.34869 0.32796 0.78907 0.0
O17 O 0.34781 0.31365 0.17218 0.0
H18 H 0.43751 0.40829 0.14195 0.0
H19 H 0.34109 0.36796 0.2691 0.0
H20 H 0.43737 0.44743 0.77597 0.0
H21 H 0.33478 0.20745 0.92667 0.0
H22 H 0.41774 0.41113 0.66688 0.0
H23 H 0.40253 0.19073 0.87822 0.0
O24 O 0.3427 0.41438 0.96077 0.0
H25 H 0.20896 0.36945 0.13086 0.0
H26 H 0.33565 0.44292 0.17772 0.0
H27 H 0.27075 0.47447 0.20866 0.0
H28 H 0.20668 0.43769 0.18554 0.0
H29 H 0.27434 0.33877 0.10166 0.0
H30 H 0.37463 0.39466 0.37416 0.0
H31 H 0.44075 0.42961 0.36261 0.0
O32 O 0.37381 0.41589 0.06456 0.0
C33 C 0.43278 0.34905 0.02787 0.0
C34 C 0.44334 0.42131 0.25081 0.0
C35 C 0.38874 0.39778 0.32326 0.0
N36 N 0.38709 0.38631 0.19869 0.0
C37 C 0.42349 0.40541 0.1923 0.0
C38 C 0.36989 0.38228 0.26344 0.0
C39 C 0.42576 0.41743 0.31676 0.0
C40 C 0.34649 0.27151 0.92961 0.0
N41 N 0.37361 0.30165 0.91646 0.0
C42 C 0.35641 0.2312 0.9161 0.0
C43 C 0.39443 0.22184 0.88892 0.0
C44 C 0.42194 0.25275 0.87554 0.0
C45 C 0.41096 0.2927 0.88971 0.0
C46 C 0.38171 0.36714 0.72118 0.0
C47 C 0.40349 0.40749 0.8428 0.0
C48 C 0.36795 0.35431 0.78658 0.0
N49 N 0.37891 0.37445 0.84644 0.0
C50 C 0.41789 0.42119 0.77836 0.0
C51 C 0.40685 0.40083 0.71719 0.0
C52 C 0.35462 0.43356 1.01547 0.0
C53 C 0.23669 0.38551 0.14238 0.0
C54 C 0.3081 0.42606 0.16915 0.0
C55 C 0.27133 0.44435 0.18624 0.0
C56 C 0.23541 0.4238 0.17297 0.0
N57 N 0.30931 0.38789 0.14107 0.0
C58 C 0.27404 0.36812 0.12621 0.0
Co59 Co 0.67546 0.33564 0.1025 0.0
Co60 Co 0.68857 0.34579 0.92383 0.0
O61 O 0.70048 0.31953 1.01321 0.0
C62 C 0.75414 0.34368 0.1845 0.0
O63 O 0.75632 0.38275 0.17418 0.0
C64 C 0.68322 0.2574 0.87831 0.0
O65 O 0.65822 0.2475 0.92887 0.0
O66 O 0.62894 0.33468 0.93784 0.0
O67 O 0.62221 0.34555 0.05451 0.0
H68 H 0.62748 0.44999 0.76255 0.0
H69 H 0.71572 0.25637 0.08271 0.0
O70 O 0.72716 0.32266 0.15329 0.0
H71 H 0.5795 0.22448 0.17183 0.0
H72 H 0.65084 0.32472 0.36254 0.0
H73 H 0.62023 0.4013 0.14917 0.0
H74 H 0.59983 0.29512 0.15161 0.0
H75 H 0.67958 0.30394 0.24879 0.0
O76 O 0.69637 0.29326 0.87255 0.0
H77 H 0.64292 0.41986 0.87563 0.0
H78 H 0.71642 0.33133 0.77579 0.0
H79 H 0.59028 0.42286 0.26157 0.0
H80 H 0.6965 0.18534 0.10131 0.0
H81 H 0.60566 0.38448 0.36953 0.0
H82 H 0.62796 0.16899 0.14647 0.0
O83 O 0.69194 0.39361 0.08722 0.0
H84 H 0.83599 0.30973 0.92564 0.0
H85 H 0.73719 0.41834 0.88467 0.0
H86 H 0.80989 0.4325 0.87104 0.0
H87 H 0.85988 0.37792 0.89125 0.0
H88 H 0.76295 0.29696 0.93938 0.0
H89 H 0.7017 0.36072 0.66163 0.0
H90 H 0.65665 0.4204 0.6538 0.0
O91 O 0.68215 0.39919 0.97138 0.0
C92 C 0.60728 0.33901 0.99356 0.0
C93 C 0.64615 0.42321 0.76496 0.0
C94 C 0.68781 0.37323 0.70839 0.0
N95 N 0.67772 0.37132 0.83341 0.0
C96 C 0.65436 0.40529 0.82935 0.0
C97 C 0.69542 0.35618 0.77372 0.0
C98 C 0.66267 0.40675 0.70403 0.0
C99 C 0.68584 0.24955 0.10229 0.0
N100 N 0.65906 0.27993 0.11654 0.0
C101 C 0.67512 0.20924 0.11273 0.0
C102 C 0.63668 0.20009 0.13806 0.0
C103 C 0.6095 0.23121 0.15239 0.0
C104 C 0.6212 0.27117 0.1409 0.0
C105 C 0.64392 0.34172 0.3159 0.0
C106 C 0.62686 0.38436 0.19552 0.0
C107 C 0.66027 0.33022 0.25124 0.0
N108 N 0.6516 0.35145 0.19192 0.0
C109 C 0.6099 0.39674 0.25923 0.0
C110 C 0.61856 0.37522 0.31978 0.0
C111 C 0.68854 0.41462 0.03153 0.0
C112 C 0.8145 0.33372 0.91646 0.0
C113 C 0.7587 0.39441 0.89366 0.0
C114 C 0.79986 0.40262 0.88581 0.0
C115 C 0.82788 0.372 0.8972 0.0
N116 N 0.74579 0.35675 0.9123 0.0
C117 C 0.7731 0.32664 0.92397 0.0
Co118 Co 0.6686 0.65482 0.12432 0.0
Co119 Co 0.68006 0.67056 0.9479 0.0
O120 O 0.6954 0.68117 0.04536 0.0
C121 C 0.69193 0.73925 0.17524 0.0
O122 O 0.70648 0.74806 0.11334 0.0
C123 C 0.7606 0.66221 0.87665 0.0
O124 O 0.74758 0.62773 0.8508 0.0
O125 O 0.69193 0.61149 0.96261 0.0
O126 O 0.66234 0.60336 0.068 0.0
H127 H 0.61053 0.59661 0.75076 0.0
H128 H 0.75297 0.68772 0.13 0.0
O129 O 0.67495 0.70505 0.18589 0.0
H130 H 0.76235 0.54927 0.22084 0.0
H131 H 0.64488 0.61969 0.37835 0.0
H132 H 0.59582 0.60306 0.13682 0.0
H133 H 0.69705 0.57628 0.18164 0.0
H134 H 0.68095 0.65107 0.28007 0.0
O135 O 0.73798 0.68116 0.92019 0.0
H136 H 0.62846 0.61086 0.87365 0.0
H137 H 0.70063 0.71009 0.81165 0.0
H138 H 0.55884 0.57052 0.23308 0.0
H139 H 0.81876 0.66175 0.16787 0.0
H140 H 0.58334 0.57875 0.35523 0.0
H141 H 0.82387 0.59212 0.21434 0.0
O142 O 0.61552 0.67537 0.08979 0.0
H143 H 0.70984 0.81934 0.96601 0.0
H144 H 0.61104 0.71711 0.88789 0.0
H145 H 0.59585 0.78927 0.8723 0.0
H146 H 0.6455 0.84102 0.91123 0.0
H147 H 0.7235 0.74682 0.9814 0.0
H148 H 0.68363 0.69729 0.68798 0.0
H149 H 0.63833 0.64009 0.65668 0.0
O150 O 0.62159 0.66169 0.97459 0.0
C151 C 0.67932 0.58913 1.01279 0.0
C152 C 0.63059 0.62142 0.7636 0.0
C153 C 0.67154 0.67791 0.72838 0.0
N154 N 0.66623 0.66044 0.85011 0.0
C155 C 0.64098 0.62934 0.83322 0.0
C156 C 0.68117 0.6849 0.79861 0.0
C157 C 0.64612 0.64585 0.71087 0.0
C158 C 0.75453 0.65761 0.15068 0.0
N159 N 0.72055 0.63433 0.15616 0.0
C160 C 0.79209 0.64296 0.17187 0.0
C161 C 0.79494 0.60389 0.1979 0.0
C162 C 0.76043 0.57991 0.20181 0.0
C163 C 0.72342 0.59554 0.17993 0.0
C164 C 0.63381 0.61592 0.32541 0.0
C165 C 0.60673 0.60673 0.18938 0.0
C166 C 0.65405 0.63395 0.26945 0.0
N167 N 0.6406 0.62914 0.20226 0.0
C168 C 0.58562 0.58826 0.24393 0.0
C169 C 0.59934 0.59292 0.31241 0.0
C170 C 0.60053 0.67155 0.02845 0.0
C171 C 0.68795 0.7971 0.9488 0.0
C172 C 0.63271 0.73937 0.9056 0.0
C173 C 0.62399 0.78023 0.89627 0.0
C174 C 0.65185 0.80924 0.91811 0.0
N175 N 0.66819 0.72764 0.93586 0.0
C176 C 0.69561 0.75596 0.95724 0.0
Co177 Co 0.34846 0.66384 0.93292 0.0
Co178 Co 0.35585 0.68932 0.10729 0.0
O179 O 0.33154 0.69633 1.01445 0.0
C180 C 0.31996 0.74445 0.87261 0.0
O181 O 0.31154 0.75864 0.93522 0.0
C182 C 0.26997 0.68809 0.16783 0.0
O183 O 0.26217 0.65154 0.14453 0.0
O184 O 0.34003 0.63038 0.10549 0.0
O185 O 0.35803 0.6159 0.99434 0.0
H186 H 0.4514 0.63055 0.28553 0.0
H187 H 0.26568 0.69751 0.96414 0.0
O188 O 0.33724 0.71007 0.86532 0.0
H189 H 0.24186 0.56073 0.86988 0.0
H190 H 0.34923 0.61562 0.68008 0.0
H191 H 0.41411 0.60423 0.91045 0.0
H192 H 0.31104 0.58577 0.88558 0.0
H193 H 0.32467 0.65549 0.77999 0.0
O194 O 0.30315 0.7056 0.1525 0.0
H195 H 0.42326 0.64011 0.16832 0.0
H196 H 0.34264 0.72922 0.24726 0.0
H197 H 0.43938 0.56318 0.81217 0.0
H198 H 0.19638 0.6724 0.95353 0.0
H199 H 0.40687 0.56861 0.69558 0.0
H200 H 0.18376 0.60396 0.90426 0.0
O201 O 0.40548 0.68281 0.94732 0.0
H202 H 0.33421 0.83805 0.07195 0.0
H203 H 0.43195 0.73371 0.1419 0.0
H204 H 0.4529 0.8051 0.14133 0.0
H205 H 0.40384 0.85793 0.10636 0.0
H206 H 0.31481 0.76616 0.07261 0.0
H207 H 0.37 0.72065 0.3653 0.0
H208 H 0.42467 0.67085 0.38561 0.0
O209 O 0.4094 0.67532 0.06404 0.0
C210 C 0.34659 0.60514 0.05537 0.0
C211 C 0.42685 0.65163 0.27778 0.0
C212 C 0.38124 0.70217 0.32249 0.0
N213 N 0.37912 0.68302 0.20062 0.0
C214 C 0.4102 0.65664 0.21128 0.0
C215 C 0.36537 0.70638 0.25523 0.0
C216 C 0.41198 0.67434 0.33382 0.0
C217 C 0.2611 0.66745 0.94369 0.0
N218 N 0.29306 0.6442 0.92194 0.0
C219 C 0.22142 0.65348 0.93734 0.0
C220 C 0.21435 0.61514 0.90958 0.0
C221 C 0.24691 0.59101 0.88979 0.0
C222 C 0.2862 0.60575 0.89777 0.0
C223 C 0.36357 0.61283 0.73069 0.0
C224 C 0.39944 0.60663 0.86061 0.0
C225 C 0.34978 0.6356 0.78785 0.0
N226 N 0.36732 0.63205 0.85235 0.0
C227 C 0.41406 0.58336 0.80474 0.0
C228 C 0.39588 0.58646 0.73938 0.0
C229 C 0.42578 0.68018 1.00411 0.0
C230 C 0.35585 0.81536 0.0875 0.0
C231 C 0.41037 0.75644 0.12658 0.0
C232 C 0.42244 0.79687 0.12642 0.0
C233 C 0.39491 0.82648 0.10676 0.0
N234 N 0.37198 0.74574 0.10764 0.0
C235 C 0.34493 0.77461 0.08818 0.0
Co236 Co 0.83524 0.83528 0.44979 0.0
Co237 Co 0.84433 0.8564 0.62722 0.0
O238 O 0.81918 0.82805 0.54806 0.0
C239 C 0.75569 0.84657 0.3788 0.0
O240 O 0.77056 0.88025 0.35351 0.0
C241 C 0.8256 0.77127 0.67818 0.0
O242 O 0.81196 0.76145 0.61606 0.0
O243 O 0.89953 0.84001 0.59315 0.0
O244 O 0.89321 0.84306 0.47612 0.0
H245 H 0.94648 0.95138 0.73287 0.0
H246 H 0.78741 0.76219 0.48549 0.0
O247 O 0.77705 0.82676 0.42235 0.0
H248 H 0.91558 0.71062 0.38825 0.0
H249 H 0.82853 0.8013 0.19201 0.0
H250 H 0.89682 0.88361 0.37166 0.0
H251 H 0.90335 0.78379 0.39763 0.0
H252 H 0.81052 0.7944 0.31638 0.0
O253 O 0.84127 0.80621 0.68897 0.0
H254 H 0.91178 0.91503 0.63772 0.0
H255 H 0.83354 0.85935 0.78404 0.0
H256 H 0.91562 0.89198 0.248 0.0
H257 H 0.79791 0.68874 0.47538 0.0
H258 H 0.88121 0.85071 0.15678 0.0
H259 H 0.86255 0.66246 0.42689 0.0
O260 O 0.8263 0.89549 0.45912 0.0
H261 H 0.69478 0.83949 0.67199 0.0
H262 H 0.81063 0.93268 0.68735 0.0
H263 H 0.74393 0.95497 0.72949 0.0
H264 H 0.68534 0.90822 0.72227 0.0
H265 H 0.76192 0.81817 0.63145 0.0
H266 H 0.86753 0.89448 0.88116 0.0
H267 H 0.92443 0.9412 0.85597 0.0
O268 O 0.8463 0.90728 0.57057 0.0
C269 C 0.91452 0.84038 0.53132 0.0
C270 C 0.92171 0.93112 0.74463 0.0
C271 C 0.87751 0.89913 0.82777 0.0
N272 N 0.87051 0.88485 0.70471 0.0
C273 C 0.90186 0.91046 0.69072 0.0
C274 C 0.85844 0.87899 0.77243 0.0
C275 C 0.90937 0.92537 0.81363 0.0
C276 C 0.81531 0.75107 0.46338 0.0
N277 N 0.84458 0.77741 0.44223 0.0
C278 C 0.82123 0.7094 0.45822 0.0
C279 C 0.85752 0.69467 0.43112 0.0
C280 C 0.88729 0.72168 0.40953 0.0
C281 C 0.88024 0.76315 0.41538 0.0
C282 C 0.84307 0.82022 0.23099 0.0
C283 C 0.88048 0.86696 0.3325 0.0
C284 C 0.83263 0.81683 0.30162 0.0
N285 N 0.85038 0.84096 0.35138 0.0
C286 C 0.89182 0.87116 0.26239 0.0
C287 C 0.87266 0.84786 0.21129 0.0
C288 C 0.83482 0.91941 0.51032 0.0
C289 C 0.72019 0.85996 0.67636 0.0
C290 C 0.78563 0.91168 0.68539 0.0
C291 C 0.74777 0.92468 0.70884 0.0
C292 C 0.71489 0.89851 0.70452 0.0
N293 N 0.79099 0.87333 0.65976 0.0
C294 C 0.75853 0.84796 0.65361 0.0
Co295 Co 0.16548 0.87434 0.42445 0.0
Co296 Co 0.15373 0.86285 0.60144 0.0
O297 O 0.18129 0.84768 0.51262 0.0
C298 C 0.19603 0.79047 0.37902 0.0
O299 O 0.20619 0.78166 0.44332 0.0
C300 C 0.23581 0.82842 0.64761 0.0
O301 O 0.24649 0.81961 0.58311 0.0
O302 O 0.17492 0.91934 0.58813 0.0
O303 O 0.15331 0.92617 0.4774 0.0
H304 H 0.06273 0.95065 0.75062 0.0
H305 H 0.24889 0.84203 0.45017 0.0
O306 O 0.17868 0.82413 0.36556 0.0
H307 H 0.26922 0.97945 0.36031 0.0
H308 H 0.17294 0.9092 0.16707 0.0
H309 H 0.09669 0.92683 0.38646 0.0
H310 H 0.20062 0.95251 0.37658 0.0
H311 H 0.1963 0.87809 0.27599 0.0
O312 O 0.20296 0.84758 0.66 0.0
H313 H 0.09577 0.92771 0.64242 0.0
H314 H 0.15448 0.83396 0.75178 0.0
H315 H 0.07209 0.95937 0.27945 0.0
H316 H 0.31783 0.86799 0.43595 0.0
H317 H 0.11035 0.95056 0.16822 0.0
H318 H 0.32856 0.93711 0.38991 0.0
O319 O 0.109 0.85382 0.43984 0.0
H320 H 0.1525 0.71157 0.56506 0.0
H321 H 0.07553 0.82856 0.65361 0.0
H322 H 0.04569 0.76086 0.66045 0.0
H323 H 0.08398 0.70161 0.61552 0.0
H324 H 0.18225 0.77943 0.56363 0.0
H325 H 0.12246 0.85573 0.86127 0.0
H326 H 0.07595 0.91452 0.86169 0.0
O327 O 0.10286 0.87677 0.54957 0.0
C328 C 0.16821 0.94103 0.53388 0.0
C329 C 0.08306 0.92507 0.75132 0.0
C330 C 0.11654 0.87188 0.8133 0.0
N331 N 0.12764 0.87972 0.68935 0.0
C332 C 0.10204 0.91203 0.68974 0.0
C333 C 0.13492 0.85976 0.7506 0.0
C334 C 0.09045 0.90481 0.81354 0.0
C335 C 0.25291 0.87186 0.42967 0.0
N336 N 0.22035 0.89478 0.41147 0.0
C337 C 0.29224 0.88655 0.42188 0.0
C338 C 0.29826 0.92531 0.39609 0.0
C339 C 0.26501 0.949 0.37921 0.0
C340 C 0.22613 0.93336 0.38805 0.0
C341 C 0.15584 0.91316 0.21506 0.0
C342 C 0.1134 0.92288 0.33885 0.0
C343 C 0.16884 0.89516 0.27697 0.0
N344 N 0.14777 0.90013 0.33812 0.0
C345 C 0.09938 0.94137 0.27808 0.0
C346 C 0.12081 0.9364 0.21575 0.0
C347 C 0.08769 0.86068 0.49466 0.0
C348 C 0.13556 0.73708 0.58529 0.0
C349 C 0.09335 0.80302 0.63641 0.0
C350 C 0.07588 0.76466 0.63952 0.0
C351 C 0.09723 0.73149 0.61384 0.0
N352 N 0.13156 0.80832 0.61021 0.0
C353 C 0.15212 0.77589 0.58343 0.0
Co354 Co 0.18548 0.18275 0.63978 0.0
Co355 Co 0.17493 0.19728 0.46058 0.0
O356 O 0.19887 0.21031 0.55208 0.0
C357 C 0.18094 0.27135 0.68588 0.0
O358 O 0.15973 0.28254 0.63136 0.0
C359 C 0.25362 0.18563 0.3804 0.0
O360 O 0.25291 0.14638 0.38907 0.0
O361 O 0.18737 0.13802 0.47279 0.0
O362 O 0.18135 0.13008 0.58935 0.0
H363 H 0.08765 0.1204 0.28918 0.0
H364 H 0.25914 0.23345 0.62948 0.0
O365 O 0.19123 0.23473 0.6938 0.0
H366 H 0.30742 0.09851 0.69744 0.0
H367 H 0.193 0.16441 0.90192 0.0
H368 H 0.14101 0.10653 0.68219 0.0
H369 H 0.2348 0.11099 0.67949 0.0
H370 H 0.20943 0.19593 0.79009 0.0
O371 O 0.22835 0.20806 0.41314 0.0
H372 H 0.11581 0.13694 0.40485 0.0
H373 H 0.18449 0.23244 0.31768 0.0
H374 H 0.1239 0.07432 0.79293 0.0
H375 H 0.33203 0.22235 0.64749 0.0
H376 H 0.14964 0.10323 0.90453 0.0
H377 H 0.35661 0.15447 0.68176 0.0
O378 O 0.12572 0.19255 0.62346 0.0
H379 H 0.20509 0.34601 0.47114 0.0
H380 H 0.10237 0.24309 0.41347 0.0
H381 H 0.08618 0.31522 0.39881 0.0
H382 H 0.13776 0.36726 0.42769 0.0
H383 H 0.21997 0.27359 0.48504 0.0
H384 H 0.15754 0.21673 0.20071 0.0
H385 H 0.10862 0.1604 0.1857 0.0
O386 O 0.12052 0.18901 0.50528 0.0
C387 C 0.18556 0.11596 0.52764 0.0
C388 C 0.10905 0.14495 0.29494 0.0
C389 C 0.14826 0.19894 0.24531 0.0
N390 N 0.15213 0.18524 0.36867 0.0
C391 C 0.12513 0.15438 0.36063 0.0
C392 C 0.16362 0.20752 0.31184 0.0
C393 C 0.12081 0.16738 0.23692 0.0
C394 C 0.26956 0.20387 0.64474 0.0
N395 N 0.24266 0.173 0.65396 0.0
C396 C 0.31089 0.19775 0.65471 0.0
C397 C 0.32466 0.15966 0.6739 0.0
C398 C 0.29708 0.12826 0.68277 0.0
C399 C 0.25596 0.13552 0.6725 0.0
C400 C 0.18055 0.15218 0.85386 0.0
C401 C 0.15091 0.12084 0.72969 0.0
C402 C 0.18911 0.17044 0.78979 0.0
N403 N 0.17328 0.15562 0.72845 0.0
C404 C 0.14177 0.10173 0.79277 0.0
C405 C 0.15637 0.11781 0.8553 0.0
C406 C 0.10483 0.19126 0.56658 0.0
C407 C 0.18238 0.32363 0.45822 0.0
C408 C 0.12499 0.26556 0.42607 0.0
C409 C 0.11566 0.30636 0.41763 0.0
C410 C 0.1446 0.33553 0.43388 0.0
N411 N 0.16215 0.25411 0.44977 0.0
C412 C 0.19065 0.28256 0.46589 0.0
Co413 Co 0.85828 0.16745 0.62374 0.0
Co414 Co 0.85756 0.16135 0.44595 0.0
O415 O 0.83566 0.18536 0.53341 0.0
C416 C 0.76893 0.17368 0.66086 0.0
O417 O 0.75758 0.15607 0.60238 0.0
C418 C 0.82546 0.24466 0.40337 0.0
O419 O 0.81368 0.25244 0.46778 0.0
O420 O 0.91226 0.18364 0.47235 0.0
O421 O 0.91291 0.15716 0.57961 0.0
H422 H 0.96333 0.08461 0.30995 0.0
H423 H 0.8196 0.24754 0.61323 0.0
O424 O 0.80613 0.17932 0.6741 0.0
H425 H 0.95634 0.27486 0.70404 0.0
H426 H 0.87843 0.17013 0.88549 0.0
H427 H 0.90967 0.09854 0.66454 0.0
H428 H 0.9343 0.20509 0.67919 0.0
H429 H 0.85245 0.1953 0.7732 0.0
O430 O 0.84485 0.21204 0.3894 0.0
H431 H 0.93142 0.11414 0.41487 0.0
H432 H 0.83472 0.15796 0.29321 0.0
H433 H 0.9367 0.07256 0.77563 0.0
H434 H 0.84041 0.31785 0.63734 0.0
H435 H 0.92104 0.10843 0.88721 0.0
H436 H 0.90924 0.33185 0.68311 0.0
O437 O 0.8397 0.11116 0.60055 0.0
H438 H 0.70508 0.1605 0.4399 0.0
H439 H 0.82842 0.08283 0.38654 0.0
H440 H 0.76199 0.05259 0.36256 0.0
H441 H 0.69959 0.09149 0.38895 0.0
H442 H 0.77196 0.18963 0.46295 0.0
H443 H 0.86549 0.12986 0.18632 0.0
H444 H 0.93034 0.09248 0.19415 0.0
O445 O 0.8693 0.109 0.49554 0.0
C446 C 0.9309 0.17483 0.52897 0.0
C447 C 0.93509 0.10085 0.30568 0.0
C448 C 0.8803 0.12633 0.23636 0.0
N449 N 0.8812 0.13812 0.36084 0.0
C450 C 0.91685 0.11761 0.36524 0.0
C451 C 0.86306 0.14263 0.29718 0.0
C452 C 0.91661 0.10531 0.24079 0.0
C453 C 0.8496 0.25343 0.63305 0.0
N454 N 0.87569 0.22226 0.64456 0.0
C455 C 0.86121 0.29329 0.64667 0.0
C456 C 0.89983 0.30112 0.67236 0.0
C457 C 0.92625 0.26916 0.68418 0.0
C458 C 0.91361 0.2297 0.66987 0.0
C459 C 0.88551 0.15426 0.83722 0.0
C460 C 0.90296 0.11444 0.71276 0.0
C461 C 0.87078 0.1683 0.77341 0.0
N462 N 0.87971 0.14849 0.71216 0.0
C463 C 0.91826 0.09954 0.77556 0.0
C464 C 0.90943 0.11965 0.83814 0.0
C465 C 0.84989 0.09177 0.54511 0.0
C466 C 0.73205 0.14347 0.42708 0.0
C467 C 0.80159 0.10052 0.39673 0.0
C468 C 0.76395 0.08299 0.38357 0.0
C469 C 0.72897 0.10475 0.39862 0.0
N470 N 0.80454 0.13895 0.42327 0.0
C471 C 0.77022 0.15999 0.43966 0.0
C472 C 0.31082 0.49682 0.02918 0.0
C473 C 0.34959 0.47844 0.02219 0.0
C474 C 0.38004 0.53921 0.07185 0.0
C475 C 0.3436 0.56057 0.06595 0.0
N476 N 0.27251 0.55945 0.04129 0.0
N477 N 0.42119 0.48957 1.01465 0.0
C478 C 0.30826 0.53919 0.04534 0.0
C479 C 0.38424 0.50173 0.0376 0.0
N480 N 0.27679 0.47389 0.02206 0.0
N481 N 0.41042 0.55418 0.11193 0.0
H482 H 0.42379 0.46579 0.97908 0.0
H483 H 0.44728 0.50682 0.02183 0.0
H484 H 0.40603 0.58001 0.1421 0.0
H485 H 0.43689 0.53806 0.12165 0.0
H486 H 0.24784 0.48446 0.03309 0.0
H487 H 0.27785 0.44324 1.00966 0.0
H488 H 0.2461 0.54685 0.02127 0.0
H489 H 0.26999 0.58977 0.0559 0.0
C490 C 0.49685 0.30619 0.02091 0.0
C491 C 0.47785 0.34475 0.02101 0.0
C492 C 0.54123 0.37501 0.97946 0.0
C493 C 0.56196 0.33833 0.9894 0.0
N494 N 0.55957 0.26759 1.01598 0.0
N495 N 0.48553 0.4169 1.01457 0.0
C496 C 0.53969 0.30341 1.00917 0.0
C497 C 0.50108 0.37933 1.00382 0.0
N498 N 0.47384 0.2723 0.02955 0.0
N499 N 0.55953 0.40564 0.9445 0.0
H500 H 0.45715 0.42102 0.03646 0.0
H501 H 0.50244 0.44333 1.00992 0.0
H502 H 0.58852 0.40251 0.92473 0.0
H503 H 0.54458 0.43177 0.92897 0.0
H504 H 0.48477 0.24305 0.02302 0.0
H505 H 0.44281 0.2734 0.03905 0.0
H506 H 0.54665 0.24173 0.03715 0.0
H507 H 0.5899 0.26428 1.00204 0.0
C508 C 0.65007 0.4789 0.02212 0.0
C509 C 0.68746 0.45961 0.03486 0.0
C510 C 0.72163 0.52573 0.02698 0.0
C511 C 0.68421 0.54416 1.0093 0.0
N512 N 0.61648 0.53476 0.96768 0.0
N513 N 0.76002 0.46344 0.03985 0.0
C514 C 0.64945 0.51974 1.00094 0.0
C515 C 0.72369 0.48272 0.03474 0.0
N516 N 0.61476 0.45821 0.0306 0.0
N517 N 0.75497 0.54936 0.03722 0.0
H518 H 0.76229 0.43238 0.04783 0.0
H519 H 0.78773 0.47766 0.03224 0.0
H520 H 0.75485 0.58046 0.02875 0.0
H521 H 0.78203 0.53861 0.05751 0.0
H522 H 0.58655 0.4722 0.03063 0.0
H523 H 0.61391 0.42776 0.04349 0.0
H524 H 0.59149 0.51731 0.95376 0.0
H525 H 0.61676 0.56335 0.94599 0.0
C526 C 0.49408 0.71398 1.00014 0.0
C527 C 0.47074 0.67798 1.00175 0.0
C528 C 0.53274 0.63813 1.01538 0.0
C529 C 0.55578 0.67414 1.02023 0.0
N530 N 0.55818 0.74676 0.02658 0.0
N531 N 0.46726 0.6063 0.0223 0.0
C532 C 0.53639 0.71227 1.01509 0.0
C533 C 0.48997 0.64021 1.01215 0.0
N534 N 0.47574 0.74971 0.98433 0.0
N535 N 0.5518 0.60165 1.0142 0.0
H536 H 0.4359 0.60634 1.0202 0.0
H537 H 0.47918 0.57881 0.03823 0.0
H538 H 0.58262 0.59892 0.02276 0.0
H539 H 0.53768 0.57456 1.00078 0.0
H540 H 0.49138 0.77653 0.97591 0.0
H541 H 0.44484 0.7519 0.97433 0.0
H542 H 0.54537 0.77539 0.03038 0.0
H543 H 0.58903 0.74648 0.03765 0.0
C544 C 0.86742 0.9852 0.48278 0.0
C545 C 0.83222 0.96423 0.50222 0.0
C546 C 0.80426 0.02894 0.54519 0.0
C547 C 0.84325 0.04699 0.53898 0.0
N548 N 0.91431 0.03505 0.5238 0.0
N549 N 0.76544 0.96647 0.55196 0.0
C550 C 0.8755 0.02306 0.51356 0.0
C551 C 0.80001 0.98627 0.53366 0.0
N552 N 0.8926 0.9697 0.43328 0.0
N553 N 0.7713 0.05238 0.55909 0.0
H554 H 0.76081 0.93604 0.53962 0.0
H555 H 0.74244 0.97975 0.58151 0.0
H556 H 0.7733 0.08347 0.56638 0.0
H557 H 0.74177 0.04151 0.55744 0.0
H558 H 0.91751 0.9856 0.41418 0.0
H559 H 0.88499 0.94353 0.40618 0.0
H560 H 0.9391 0.01777 0.50799 0.0
H561 H 0.92059 0.05853 0.55863 0.0
C562 C 0.01745 0.88917 0.50229 0.0
C563 C 0.04281 0.85497 0.49362 0.0
C564 C 0.98427 0.8104 0.51475 0.0
C565 C 0.95905 0.84485 0.5221 0.0
N566 N 0.95015 0.91669 0.51194 0.0
N567 N 0.04963 0.78295 0.47971 0.0
C568 C 0.97533 0.88409 0.51297 0.0
C569 C 0.02591 0.81548 0.49592 0.0
N570 N 0.03385 0.9269 0.49992 0.0
N571 N 0.96854 0.77299 0.52757 0.0
H572 H 0.08021 0.7856 0.4673 0.0
H573 H 0.0387 0.75364 0.47404 0.0
H574 H 0.93825 0.76852 0.54083 0.0
H575 H 0.98575 0.74677 0.53002 0.0
H576 H 0.01953 0.95299 0.51781 0.0
H577 H 0.06289 0.93174 0.48148 0.0
H578 H 0.95926 0.94574 0.49909 0.0
H579 H 0.91918 0.91439 0.51979 0.0
C580 C 0.21739 0.04656 0.53172 0.0
C581 C 0.18273 0.07112 0.52139 0.0
C582 C 0.13923 1.01138 0.53143 0.0
C583 C 0.17366 0.98607 0.5369 0.0
N584 N 0.24606 0.97892 0.53898 0.0
N585 N 0.11085 0.07669 0.50569 0.0
C586 C 0.21299 1.00355 0.53649 0.0
C587 C 0.14384 0.0533 0.51905 0.0
N588 N 0.25436 0.0646 0.53836 0.0
N589 N 0.10181 0.9957 0.54331 0.0
H590 H 0.1121 0.10802 0.50526 0.0
H591 H 0.08268 0.0651 0.49193 0.0
H592 H 0.09785 0.9656 0.55516 0.0
H593 H 0.07559 0.01278 0.54886 0.0
H594 H 0.28039 0.0496 0.55392 0.0
H595 H 0.25866 0.0955 0.53092 0.0
H596 H 0.27559 0.98883 0.53155 0.0
H597 H 0.24386 0.94771 0.54494 0.0
C598 C 1.00015 0.14681 0.55248 0.0
C599 C 0.97589 0.1806 0.53534 0.0
C600 C 0.03625 0.22409 0.54861 0.0
C601 C 0.05944 0.19003 0.56926 0.0
N602 N 0.05929 0.12184 0.61089 0.0
N603 N 0.96973 0.2529 0.52646 0.0
C604 C 0.03994 0.15241 0.5777 0.0
C605 C 0.99368 0.21979 0.53574 0.0
N606 N 0.98602 0.1088 0.54026 0.0
N607 N 0.05501 0.26059 0.54206 0.0
H608 H 0.93886 0.25079 0.51618 0.0
H609 H 0.97967 0.28248 0.53333 0.0
H610 H 0.08488 0.26515 0.55767 0.0
H611 H 0.04164 0.28577 0.51956 0.0
H612 H 1.00355 0.08284 0.54505 0.0
H613 H 0.95839 0.10405 0.51633 0.0
H614 H 0.04522 0.09499 0.62545 0.0
H615 H 0.08841 0.12532 0.62951 0.0
C616 C 0.28919 0.18884 0.25963 0.0
C617 C 0.28087 0.20561 0.32752 0.0
C618 C 0.30002 0.27187 0.28312 0.0
C619 C 0.31327 0.25502 0.21836 0.0
N620 N 0.33035 0.19407 0.1546 0.0
N621 N 0.2948 0.26086 0.40734 0.0
C622 C 0.3112 0.21236 0.20974 0.0
C623 C 0.29229 0.24623 0.34048 0.0
N624 N 0.27403 0.15214 0.23982 0.0
N625 N 0.28998 0.3116 0.28846 0.0
H626 H 0.29144 0.24231 0.45097 0.0
H627 H 0.30485 0.2901 0.41846 0.0
H628 H 0.28819 0.32996 0.24476 0.0
H629 H 0.27753 0.32421 0.33391 0.0
H630 H 0.27615 0.1413 0.18852 0.0
H631 H 0.25591 0.13423 0.2714 0.0
H632 H 0.33242 0.16277 0.14944 0.0
H633 H 0.34798 0.21001 0.1188 0.0
C634 C 0.78984 0.28124 0.22369 0.0
C635 C 0.78061 0.3224 0.23666 0.0
C636 C 0.81193 0.31468 0.35313 0.0
C637 C 0.81203 0.27194 0.34486 0.0
N638 N 0.78542 0.21616 0.27655 0.0
N639 N 0.77735 0.37646 0.3237 0.0
C640 C 0.79718 0.25547 0.28097 0.0
C641 C 0.79049 0.33899 0.3039 0.0
N642 N 0.79082 0.26628 0.15691 0.0
N643 N 0.83249 0.33231 0.40719 0.0
H644 H 0.75972 0.39494 0.29247 0.0
H645 H 0.78057 0.38751 0.37467 0.0
H646 H 0.8498 0.31576 0.44236 0.0
H647 H 0.836 0.36351 0.41194 0.0
H648 H 0.79937 0.23659 0.14565 0.0
H649 H 0.78781 0.2848 0.11321 0.0
H650 H 0.77181 0.20395 0.23192 0.0
H651 H 0.78355 0.19796 0.32047 0.0
C652 C 0.70626 0.83872 0.27636 0.0
C653 C 0.723 0.824 0.33975 0.0
C654 C 0.71274 0.75487 0.30045 0.0
C655 C 0.69846 0.76843 0.23454 0.0
N656 N 0.66936 0.82323 0.16911 0.0
N657 N 0.71591 0.77073 0.42382 0.0
C658 C 0.69136 0.81052 0.22523 0.0
C659 C 0.71699 0.78294 0.35587 0.0
N660 N 0.70393 0.87934 0.26578 0.0
N661 N 0.72649 0.71647 0.30899 0.0
H662 H 0.71656 0.79152 0.46526 0.0
H663 H 0.70961 0.74096 0.43779 0.0
H664 H 0.73003 0.69648 0.26729 0.0
H665 H 0.73973 0.70677 0.35545 0.0
H666 H 0.69757 0.89225 0.21752 0.0
H667 H 0.70778 0.90011 0.3066 0.0
H668 H 0.66065 0.85307 0.16158 0.0
H669 H 0.65647 0.8032 0.13309 0.0
C670 C 0.20451 0.72021 0.32594 0.0
C671 C 0.20917 0.76282 0.3205 0.0
C672 C 0.23694 0.75263 0.20279 0.0
C673 C 0.24121 0.71076 0.21446 0.0
N674 N 0.23207 0.65481 0.29413 0.0
N675 N 0.24344 0.8169 0.25986 0.0
C676 C 0.22537 0.69427 0.27762 0.0
C677 C 0.22859 0.77854 0.26014 0.0
N678 N 0.17994 0.70443 0.3764 0.0
N679 N 0.24173 0.76784 0.13713 0.0
H680 H 0.24412 0.83472 0.30488 0.0
H681 H 0.26033 0.82836 0.21825 0.0
H682 H 0.2459 0.74907 0.09348 0.0
H683 H 0.23682 0.79823 0.12585 0.0
H684 H 0.17288 0.67379 0.37885 0.0
H685 H 0.16326 0.72246 0.41095 0.0
H686 H 0.22501 0.64289 0.34304 0.0
H687 H 0.24747 0.63473 0.26151 0.0
C688 C 0.29619 0.82309 0.73017 0.0
C689 C 0.25788 0.80879 0.70707 0.0
C690 C 0.26634 0.74866 0.77966 0.0
C691 C 0.30184 0.76497 0.81022 0.0
N692 N 0.3491 0.82012 0.81867 0.0
N693 N 0.20225 0.76307 0.72814 0.0
C694 C 0.31633 0.80305 0.78673 0.0
C695 C 0.24178 0.77316 0.73719 0.0
N696 N 0.31328 0.85566 0.69812 0.0
N697 N 0.25581 0.70936 0.78981 0.0
H698 H 0.1824 0.78143 0.70191 0.0
H699 H 0.18798 0.73974 0.75501 0.0
H700 H 0.2732 0.68981 0.81861 0.0
H701 H 0.23267 0.69495 0.76235 0.0
H702 H 0.34277 0.86523 0.70743 0.0
H703 H 0.29855 0.87172 0.65892 0.0
H704 H 0.35873 0.84954 0.80933 0.0
H705 H 0.36541 0.80537 0.85754 0.0
C706 C 0.20878 0.3105 0.86617 0.0
C707 C 0.23796 0.34044 0.84968 0.0
C708 C 0.22412 0.33071 0.72389 0.0
C709 C 0.19492 0.30078 0.74039 0.0
N710 N 0.15186 0.26999 0.82663 0.0
N711 N 0.26541 0.38668 0.76515 0.0
C712 C 0.18472 0.29343 0.81153 0.0
C713 C 0.24286 0.35307 0.77914 0.0
N714 N 0.20585 0.2963 0.93303 0.0
N715 N 0.23604 0.33598 0.65596 0.0
H716 H 0.27903 0.40392 0.80455 0.0
H717 H 0.26731 0.39966 0.71574 0.0
H718 H 0.22294 0.32061 0.61395 0.0
H719 H 0.26079 0.35355 0.64161 0.0
H720 H 0.18883 0.27104 0.94649 0.0
H721 H 0.22271 0.30795 0.97456 0.0
H722 H 0.14052 0.26624 0.87711 0.0
H723 H 0.13356 0.25745 0.78765 0.0
C724 C 0.72377 0.19654 0.83977 0.0
C725 C 0.69621 0.22784 0.82348 0.0
C726 C 0.71114 0.21914 0.69792 0.0
C727 C 0.73894 0.18795 0.71409 0.0
N728 N 0.76378 0.13983 0.79754 0.0
N729 N 0.65535 0.2612 0.73755 0.0
C730 C 0.74254 0.1743 0.78426 0.0
C731 C 0.6871 0.23638 0.75251 0.0
N732 N 0.73389 0.18967 0.90799 0.0
N733 N 0.70966 0.23437 0.63162 0.0
H734 H 0.63714 0.27397 0.7766 0.0
H735 H 0.64472 0.26593 0.687 0.0
H736 H 0.72672 0.22285 0.59009 0.0
H737 H 0.69376 0.26039 0.61881 0.0
H738 H 0.75753 0.1709 0.92287 0.0
H739 H 0.72015 0.20469 0.94995 0.0
H740 H 0.76473 0.12622 0.84649 0.0
H741 H 0.77732 0.12265 0.75788 0.0
C742 C 0.79784 0.72711 0.85688 0.0
C743 C 0.79315 0.6859 0.83928 0.0
C744 C 0.82733 0.70026 0.72719 0.0
C745 C 0.81917 0.74221 0.73718 0.0
N746 N 0.78839 0.7935 0.81148 0.0
N747 N 0.8153 0.63114 0.76481 0.0
C748 C 0.80301 0.75537 0.80258 0.0
C749 C 0.81177 0.67166 0.77651 0.0
N750 N 0.79708 0.73929 0.9252 0.0
N751 N 0.85091 0.68808 0.67207 0.0
H752 H 0.81122 0.61019 0.80475 0.0
H753 H 0.82296 0.61848 0.7165 0.0
H754 H 0.86422 0.70844 0.6375 0.0
H755 H 0.86043 0.65845 0.66416 0.0
H756 H 0.80245 0.76916 0.94038 0.0
H757 H 0.79601 0.71849 0.96605 0.0
H758 H 0.77377 0.80286 0.8573 0.0
H759 H 0.78566 0.81356 0.77032 0.0
loop_
_geom_bond_atom_site_label_1
_geom_bond_atom_site_label_2
_geom_bond_distance
_geom_bond_site_symmetry_2
_ccdc_geom_bond_type
Co0 O2 2.143 1_556 S
Co0 O8 2.074 . S
Co0 O11 2.093 . S
Co0 O24 2.097 . S
Co0 N41 2.151 . S
Co0 N49 2.214 . S
Co1 O2 2.160 . S
Co1 O7 2.058 . S
Co1 O17 2.057 . S
Co1 O32 2.037 . S
Co1 N36 2.145 . S
Co1 N57 2.257 . S
O2 Co0 2.143 1_554 S
O2 Co1 2.160 . S
C3 O4 1.278 . S
C3 O11 1.224 . S
O4 C3 1.278 . S
C5 O6 1.245 . S
C5 O17 1.232 . S
O6 C5 1.245 . S
O7 Co1 2.058 . S
O7 C33 1.269 . S
O8 Co0 2.074 . S
O8 C33 1.257 1_556 S
H9 C34 0.930 . S
H10 C40 0.930 . S
O11 Co0 2.093 . S
O11 C3 1.224 . S
H12 C44 0.929 . S
H13 C46 0.930 . S
H14 C47 0.930 . S
H15 C45 0.929 . S
H16 C48 0.928 . S
O17 Co1 2.057 . S
O17 C5 1.232 . S
H18 C37 0.929 . S
H19 C38 0.929 . S
H20 C50 0.931 . S
H21 C42 0.929 . S
H22 C51 0.930 . S
H23 C43 0.931 . S
O24 Co0 2.097 . S
O24 C52 1.214 . S
H25 C53 0.929 . S
H26 C54 0.929 . S
H27 C55 0.930 . S
H28 C56 0.929 . S
H29 C58 0.930 . S
H30 C35 0.930 . S
H31 C39 0.930 . S
O32 Co1 2.037 . S
O32 C52 1.234 1_554 S
C33 O7 1.269 . S
C33 O8 1.257 1_554 S
C34 H9 0.930 . S
C34 C37 1.388 . S
C34 C39 1.418 . S
C35 H30 0.930 . S
C35 C38 1.404 . S
C35 C39 1.353 . S
N36 Co1 2.145 . S
N36 C37 1.397 . S
N36 C38 1.334 . S
C37 H18 0.929 . S
C37 C34 1.388 . S
C37 N36 1.397 . S
C38 H19 0.929 . S
C38 C35 1.404 . S
C38 N36 1.334 . S
C39 H31 0.930 . S
C39 C34 1.418 . S
C39 C35 1.353 . S
C40 H10 0.930 . S
C40 N41 1.330 . S
C40 C42 1.446 . S
N41 Co0 2.151 . S
N41 C40 1.330 . S
N41 C45 1.418 . S
C42 H21 0.929 . S
C42 C40 1.446 . S
C42 C43 1.332 . S
C43 H23 0.931 . S
C43 C42 1.332 . S
C43 C44 1.267 . S
C44 H12 0.929 . S
C44 C43 1.267 . S
C44 C45 1.251 . S
C45 H15 0.929 . S
C45 N41 1.418 . S
C45 C44 1.251 . S
C46 H13 0.930 . S
C46 C48 1.406 . S
C46 C51 1.261 . S
C47 H14 0.930 . S
C47 N49 1.325 . S
C47 C50 1.357 . S
C48 H16 0.928 . S
C48 C46 1.406 . S
C48 N49 1.261 . S
N49 Co0 2.214 . S
N49 C47 1.325 . S
N49 C48 1.261 . S
C50 H20 0.931 . S
C50 C47 1.357 . S
C50 C51 1.312 . S
C51 H22 0.930 . S
C51 C46 1.261 . S
C51 C50 1.312 . S
C52 O24 1.214 . S
C52 O32 1.234 1_556 S
C53 H25 0.929 . S
C53 C56 1.391 . S
C53 C58 1.391 . S
C54 H26 0.929 . S
C54 C55 1.390 . S
C54 N57 1.391 . S
C55 H27 0.930 . S
C55 C54 1.390 . S
C55 C56 1.392 . S
C56 H28 0.929 . S
C56 C53 1.391 . S
C56 C55 1.392 . S
N57 Co1 2.257 . S
N57 C54 1.391 . S
N57 C58 1.388 . S
C58 H29 0.930 . S
C58 C53 1.391 . S
C58 N57 1.388 . S
Co59 O61 2.143 . S
Co59 O67 2.074 . S
Co59 O70 2.093 . S
Co59 O83 2.097 . S
Co59 N100 2.151 . S
Co59 N108 2.214 . S
Co60 O61 2.160 1_556 S
Co60 O66 2.058 . S
Co60 O76 2.057 . S
Co60 O91 2.037 . S
Co60 N95 2.145 . S
Co60 N116 2.257 . S
O61 Co59 2.143 . S
O61 Co60 2.160 1_554 S
C62 O63 1.278 . S
C62 O70 1.224 . S
O63 C62 1.278 . S
C64 O65 1.245 . S
C64 O76 1.232 . S
O65 C64 1.245 . S
O66 Co60 2.058 . S
O66 C92 1.269 . S
O67 Co59 2.074 . S
O67 C92 1.257 1_554 S
H68 C93 0.930 . S
H69 C99 0.930 . S
O70 Co59 2.093 . S
O70 C62 1.224 . S
H71 C103 0.929 . S
H72 C105 0.930 . S
H73 C106 0.930 . S
H74 C104 0.929 . S
H75 C107 0.928 . S
O76 Co60 2.057 . S
O76 C64 1.232 . S
H77 C96 0.929 . S
H78 C97 0.929 . S
H79 C109 0.931 . S
H80 C101 0.929 . S
H81 C110 0.930 . S
H82 C102 0.931 . S
O83 Co59 2.097 . S
O83 C111 1.214 . S
H84 C112 0.929 . S
H85 C113 0.929 . S
H86 C114 0.930 . S
H87 C115 0.929 . S
H88 C117 0.930 . S
H89 C94 0.930 . S
H90 C98 0.930 . S
O91 Co60 2.037 . S
O91 C111 1.234 1_556 S
C92 O66 1.269 . S
C92 O67 1.257 1_556 S
C93 H68 0.930 . S
C93 C96 1.388 . S
C93 C98 1.418 . S
C94 H89 0.930 . S
C94 C97 1.404 . S
C94 C98 1.353 . S
N95 Co60 2.145 . S
N95 C96 1.397 . S
N95 C97 1.334 . S
C96 H77 0.929 . S
C96 C93 1.388 . S
C96 N95 1.397 . S
C97 H78 0.929 . S
C97 C94 1.404 . S
C97 N95 1.334 . S
C98 H90 0.930 . S
C98 C93 1.418 . S
C98 C94 1.353 . S
C99 H69 0.930 . S
C99 N100 1.330 . S
C99 C101 1.446 . S
N100 Co59 2.151 . S
N100 C99 1.330 . S
N100 C104 1.418 . S
C101 H80 0.929 . S
C101 C99 1.446 . S
C101 C102 1.332 . S
C102 H82 0.931 . S
C102 C101 1.332 . S
C102 C103 1.267 . S
C103 H71 0.929 . S
C103 C102 1.267 . S
C103 C104 1.251 . S
C104 H74 0.929 . S
C104 N100 1.418 . S
C104 C103 1.251 . S
C105 H72 0.930 . S
C105 C107 1.406 . S
C105 C110 1.261 . S
C106 H73 0.930 . S
C106 N108 1.325 . S
C106 C109 1.357 . S
C107 H75 0.928 . S
C107 C105 1.406 . S
C107 N108 1.261 . S
N108 Co59 2.214 . S
N108 C106 1.325 . S
N108 C107 1.261 . S
C109 H79 0.931 . S
C109 C106 1.357 . S
C109 C110 1.312 . S
C110 H81 0.930 . S
C110 C105 1.261 . S
C110 C109 1.312 . S
C111 O83 1.214 . S
C111 O91 1.234 1_554 S
C112 H84 0.929 . S
C112 C115 1.391 . S
C112 C117 1.391 . S
C113 H85 0.929 . S
C113 C114 1.390 . S
C113 N116 1.391 . S
C114 H86 0.930 . S
C114 C113 1.390 . S
C114 C115 1.392 . S
C115 H87 0.929 . S
C115 C112 1.391 . S
C115 C114 1.392 . S
N116 Co60 2.257 . S
N116 C113 1.391 . S
N116 C117 1.388 . S
C117 H88 0.930 . S
C117 C112 1.391 . S
C117 N116 1.388 . S
Co118 O120 2.143 . S
Co118 O126 2.074 . S
Co118 O129 2.093 . S
Co118 O142 2.097 . S
Co118 N159 2.151 . S
Co118 N167 2.214 . S
Co119 O120 2.160 1_556 S
Co119 O125 2.058 . S
Co119 O135 2.057 . S
Co119 O150 2.037 . S
Co119 N154 2.145 . S
Co119 N175 2.257 . S
O120 Co118 2.143 . S
O120 Co119 2.160 1_554 S
C121 O122 1.278 . S
C121 O129 1.224 . S
O122 C121 1.278 . S
C123 O124 1.245 . S
C123 O135 1.232 . S
O124 C123 1.245 . S
O125 Co119 2.058 . S
O125 C151 1.269 . S
O126 Co118 2.074 . S
O126 C151 1.257 1_554 S
H127 C152 0.930 . S
H128 C158 0.930 . S
O129 Co118 2.093 . S
O129 C121 1.224 . S
H130 C162 0.929 . S
H131 C164 0.930 . S
H132 C165 0.930 . S
H133 C163 0.929 . S
H134 C166 0.928 . S
O135 Co119 2.057 . S
O135 C123 1.232 . S
H136 C155 0.929 . S
H137 C156 0.929 . S
H138 C168 0.931 . S
H139 C160 0.929 . S
H140 C169 0.930 . S
H141 C161 0.931 . S
O142 Co118 2.097 . S
O142 C170 1.214 . S
H143 C171 0.929 . S
H144 C172 0.929 . S
H145 C173 0.930 . S
H146 C174 0.929 . S
H147 C176 0.930 . S
H148 C153 0.930 . S
H149 C157 0.930 . S
O150 Co119 2.037 . S
O150 C170 1.234 1_556 S
C151 O125 1.269 . S
C151 O126 1.257 1_556 S
C152 H127 0.930 . S
C152 C155 1.388 . S
C152 C157 1.418 . S
C153 H148 0.930 . S
C153 C156 1.404 . S
C153 C157 1.353 . S
N154 Co119 2.145 . S
N154 C155 1.397 . S
N154 C156 1.334 . S
C155 H136 0.929 . S
C155 C152 1.388 . S
C155 N154 1.397 . S
C156 H137 0.929 . S
C156 C153 1.404 . S
C156 N154 1.334 . S
C157 H149 0.930 . S
C157 C152 1.418 . S
C157 C153 1.353 . S
C158 H128 0.930 . S
C158 N159 1.330 . S
C158 C160 1.446 . S
N159 Co118 2.151 . S
N159 C158 1.330 . S
N159 C163 1.418 . S
C160 H139 0.929 . S
C160 C158 1.446 . S
C160 C161 1.332 . S
C161 H141 0.931 . S
C161 C160 1.332 . S
C161 C162 1.267 . S
C162 H130 0.929 . S
C162 C161 1.267 . S
C162 C163 1.251 . S
C163 H133 0.929 . S
C163 N159 1.418 . S
C163 C162 1.251 . S
C164 H131 0.930 . S
C164 C166 1.406 . S
C164 C169 1.261 . S
C165 H132 0.930 . S
C165 N167 1.325 . S
C165 C168 1.357 . S
C166 H134 0.928 . S
C166 C164 1.406 . S
C166 N167 1.261 . S
N167 Co118 2.214 . S
N167 C165 1.325 . S
N167 C166 1.261 . S
C168 H138 0.931 . S
C168 C165 1.357 . S
C168 C169 1.312 . S
C169 H140 0.930 . S
C169 C164 1.261 . S
C169 C168 1.312 . S
C170 O142 1.214 . S
C170 O150 1.234 1_554 S
C171 H143 0.929 . S
C171 C174 1.391 . S
C171 C176 1.391 . S
C172 H144 0.929 . S
C172 C173 1.390 . S
C172 N175 1.391 . S
C173 H145 0.930 . S
C173 C172 1.390 . S
C173 C174 1.392 . S
C174 H146 0.929 . S
C174 C171 1.391 . S
C174 C173 1.392 . S
N175 Co119 2.257 . S
N175 C172 1.391 . S
N175 C176 1.388 . S
C176 H147 0.930 . S
C176 C171 1.391 . S
C176 N175 1.388 . S
Co177 O179 2.143 1_556 S
Co177 O185 2.074 . S
Co177 O188 2.093 . S
Co177 O201 2.097 . S
Co177 N218 2.151 . S
Co177 N226 2.214 . S
Co178 O179 2.160 . S
Co178 O184 2.058 . S
Co178 O194 2.057 . S
Co178 O209 2.037 . S
Co178 N213 2.145 . S
Co178 N234 2.257 . S
O179 Co177 2.143 1_554 S
O179 Co178 2.160 . S
C180 O181 1.278 . S
C180 O188 1.224 . S
O181 C180 1.278 . S
C182 O183 1.245 . S
C182 O194 1.232 . S
O183 C182 1.245 . S
O184 Co178 2.058 . S
O184 C210 1.269 . S
O185 Co177 2.074 . S
O185 C210 1.257 1_556 S
H186 C211 0.930 . S
H187 C217 0.930 . S
O188 Co177 2.093 . S
O188 C180 1.224 . S
H189 C221 0.929 . S
H190 C223 0.930 . S
H191 C224 0.930 . S
H192 C222 0.929 . S
H193 C225 0.928 . S
O194 Co178 2.057 . S
O194 C182 1.232 . S
H195 C214 0.929 . S
H196 C215 0.929 . S
H197 C227 0.931 . S
H198 C219 0.929 . S
H199 C228 0.930 . S
H200 C220 0.931 . S
O201 Co177 2.097 . S
O201 C229 1.214 . S
H202 C230 0.929 . S
H203 C231 0.929 . S
H204 C232 0.930 . S
H205 C233 0.929 . S
H206 C235 0.930 . S
H207 C212 0.930 . S
H208 C216 0.930 . S
O209 Co178 2.037 . S
O209 C229 1.234 1_554 S
C210 O184 1.269 . S
C210 O185 1.257 1_554 S
C211 H186 0.930 . S
C211 C214 1.388 . S
C211 C216 1.418 . S
C212 H207 0.930 . S
C212 C215 1.404 . S
C212 C216 1.353 . S
N213 Co178 2.145 . S
N213 C214 1.397 . S
N213 C215 1.334 . S
C214 H195 0.929 . S
C214 C211 1.388 . S
C214 N213 1.397 . S
C215 H196 0.929 . S
C215 C212 1.404 . S
C215 N213 1.334 . S
C216 H208 0.930 . S
C216 C211 1.418 . S
C216 C212 1.353 . S
C217 H187 0.930 . S
C217 N218 1.330 . S
C217 C219 1.446 . S
N218 Co177 2.151 . S
N218 C217 1.330 . S
N218 C222 1.418 . S
C219 H198 0.929 . S
C219 C217 1.446 . S
C219 C220 1.332 . S
C220 H200 0.931 . S
C220 C219 1.332 . S
C220 C221 1.267 . S
C221 H189 0.929 . S
C221 C220 1.267 . S
C221 C222 1.251 . S
C222 H192 0.929 . S
C222 N218 1.418 . S
C222 C221 1.251 . S
C223 H190 0.930 . S
C223 C225 1.406 . S
C223 C228 1.261 . S
C224 H191 0.930 . S
C224 N226 1.325 . S
C224 C227 1.357 . S
C225 H193 0.928 . S
C225 C223 1.406 . S
C225 N226 1.261 . S
N226 Co177 2.214 . S
N226 C224 1.325 . S
N226 C225 1.261 . S
C227 H197 0.931 . S
C227 C224 1.357 . S
C227 C228 1.312 . S
C228 H199 0.930 . S
C228 C223 1.261 . S
C228 C227 1.312 . S
C229 O201 1.214 . S
C229 O209 1.234 1_556 S
C230 H202 0.929 . S
C230 C233 1.391 . S
C230 C235 1.391 . S
C231 H203 0.929 . S
C231 C232 1.390 . S
C231 N234 1.391 . S
C232 H204 0.930 . S
C232 C231 1.390 . S
C232 C233 1.392 . S
C233 H205 0.929 . S
C233 C230 1.391 . S
C233 C232 1.392 . S
N234 Co178 2.257 . S
N234 C231 1.391 . S
N234 C235 1.388 . S
C235 H206 0.930 . S
C235 C230 1.391 . S
C235 N234 1.388 . S
Co236 O238 2.143 . S
Co236 O244 2.074 . S
Co236 O247 2.093 . S
Co236 O260 2.097 . S
Co236 N277 2.151 . S
Co236 N285 2.214 . S
Co237 O238 2.160 . S
Co237 O243 2.058 . S
Co237 O253 2.057 . S
Co237 O268 2.037 . S
Co237 N272 2.145 . S
Co237 N293 2.257 . S
O238 Co236 2.143 . S
O238 Co237 2.160 . S
C239 O240 1.278 . S
C239 O247 1.224 . S
O240 C239 1.278 . S
C241 O242 1.245 . S
C241 O253 1.232 . S
O242 C241 1.245 . S
O243 Co237 2.058 . S
O243 C269 1.269 . S
O244 Co236 2.074 . S
O244 C269 1.257 . S
H245 C270 0.930 . S
H246 C276 0.930 . S
O247 Co236 2.093 . S
O247 C239 1.224 . S
H248 C280 0.929 . S
H249 C282 0.930 . S
H250 C283 0.930 . S
H251 C281 0.929 . S
H252 C284 0.928 . S
O253 Co237 2.057 . S
O253 C241 1.232 . S
H254 C273 0.929 . S
H255 C274 0.929 . S
H256 C286 0.931 . S
H257 C278 0.929 . S
H258 C287 0.930 . S
H259 C279 0.931 . S
O260 Co236 2.097 . S
O260 C288 1.214 . S
H261 C289 0.929 . S
H262 C290 0.929 . S
H263 C291 0.930 . S
H264 C292 0.929 . S
H265 C294 0.930 . S
H266 C271 0.930 . S
H267 C275 0.930 . S
O268 Co237 2.037 . S
O268 C288 1.234 . S
C269 O243 1.269 . S
C269 O244 1.257 . S
C270 H245 0.930 . S
C270 C273 1.388 . S
C270 C275 1.418 . S
C271 H266 0.930 . S
C271 C274 1.404 . S
C271 C275 1.353 . S
N272 Co237 2.145 . S
N272 C273 1.397 . S
N272 C274 1.334 . S
C273 H254 0.929 . S
C273 C270 1.388 . S
C273 N272 1.397 . S
C274 H255 0.929 . S
C274 C271 1.404 . S
C274 N272 1.334 . S
C275 H267 0.930 . S
C275 C270 1.418 . S
C275 C271 1.353 . S
C276 H246 0.930 . S
C276 N277 1.330 . S
C276 C278 1.446 . S
N277 Co236 2.151 . S
N277 C276 1.330 . S
N277 C281 1.418 . S
C278 H257 0.929 . S
C278 C276 1.446 . S
C278 C279 1.332 . S
C279 H259 0.931 . S
C279 C278 1.332 . S
C279 C280 1.267 . S
C280 H248 0.929 . S
C280 C279 1.267 . S
C280 C281 1.251 . S
C281 H251 0.929 . S
C281 N277 1.418 . S
C281 C280 1.251 . S
C282 H249 0.930 . S
C282 C284 1.406 . S
C282 C287 1.261 . S
C283 H250 0.930 . S
C283 N285 1.325 . S
C283 C286 1.357 . S
C284 H252 0.928 . S
C284 C282 1.406 . S
C284 N285 1.261 . S
N285 Co236 2.214 . S
N285 C283 1.325 . S
N285 C284 1.261 . S
C286 H256 0.931 . S
C286 C283 1.357 . S
C286 C287 1.312 . S
C287 H258 0.930 . S
C287 C282 1.261 . S
C287 C286 1.312 . S
C288 O260 1.214 . S
C288 O268 1.234 . S
C289 H261 0.929 . S
C289 C292 1.391 . S
C289 C294 1.391 . S
C290 H262 0.929 . S
C290 C291 1.390 . S
C290 N293 1.391 . S
C291 H263 0.930 . S
C291 C290 1.390 . S
C291 C292 1.392 . S
C292 H264 0.929 . S
C292 C289 1.391 . S
C292 C291 1.392 . S
N293 Co237 2.257 . S
N293 C290 1.391 . S
N293 C294 1.388 . S
C294 H265 0.930 . S
C294 C289 1.391 . S
C294 N293 1.388 . S
Co295 O297 2.143 . S
Co295 O303 2.074 . S
Co295 O306 2.093 . S
Co295 O319 2.097 . S
Co295 N336 2.151 . S
Co295 N344 2.214 . S
Co296 O297 2.160 . S
Co296 O302 2.058 . S
Co296 O312 2.057 . S
Co296 O327 2.037 . S
Co296 N331 2.145 . S
Co296 N352 2.257 . S
O297 Co295 2.143 . S
O297 Co296 2.160 . S
C298 O299 1.278 . S
C298 O306 1.224 . S
O299 C298 1.278 . S
C300 O301 1.245 . S
C300 O312 1.232 . S
O301 C300 1.245 . S
O302 Co296 2.058 . S
O302 C328 1.269 . S
O303 Co295 2.074 . S
O303 C328 1.257 . S
H304 C329 0.930 . S
H305 C335 0.930 . S
O306 Co295 2.093 . S
O306 C298 1.224 . S
H307 C339 0.929 . S
H308 C341 0.930 . S
H309 C342 0.930 . S
H310 C340 0.929 . S
H311 C343 0.928 . S
O312 Co296 2.057 . S
O312 C300 1.232 . S
H313 C332 0.929 . S
H314 C333 0.929 . S
H315 C345 0.931 . S
H316 C337 0.929 . S
H317 C346 0.930 . S
H318 C338 0.931 . S
O319 Co295 2.097 . S
O319 C347 1.214 . S
H320 C348 0.929 . S
H321 C349 0.929 . S
H322 C350 0.930 . S
H323 C351 0.929 . S
H324 C353 0.930 . S
H325 C330 0.930 . S
H326 C334 0.930 . S
O327 Co296 2.037 . S
O327 C347 1.234 . S
C328 O302 1.269 . S
C328 O303 1.257 . S
C329 H304 0.930 . S
C329 C332 1.388 . S
C329 C334 1.418 . S
C330 H325 0.930 . S
C330 C333 1.404 . S
C330 C334 1.353 . S
N331 Co296 2.145 . S
N331 C332 1.397 . S
N331 C333 1.334 . S
C332 H313 0.929 . S
C332 C329 1.388 . S
C332 N331 1.397 . S
C333 H314 0.929 . S
C333 C330 1.404 . S
C333 N331 1.334 . S
C334 H326 0.930 . S
C334 C329 1.418 . S
C334 C330 1.353 . S
C335 H305 0.930 . S
C335 N336 1.330 . S
C335 C337 1.446 . S
N336 Co295 2.151 . S
N336 C335 1.330 . S
N336 C340 1.418 . S
C337 H316 0.929 . S
C337 C335 1.446 . S
C337 C338 1.332 . S
C338 H318 0.931 . S
C338 C337 1.332 . S
C338 C339 1.267 . S
C339 H307 0.929 . S
C339 C338 1.267 . S
C339 C340 1.251 . S
C340 H310 0.929 . S
C340 N336 1.418 . S
C340 C339 1.251 . S
C341 H308 0.930 . S
C341 C343 1.406 . S
C341 C346 1.261 . S
C342 H309 0.930 . S
C342 N344 1.325 . S
C342 C345 1.357 . S
C343 H311 0.928 . S
C343 C341 1.406 . S
C343 N344 1.261 . S
N344 Co295 2.214 . S
N344 C342 1.325 . S
N344 C343 1.261 . S
C345 H315 0.931 . S
C345 C342 1.357 . S
C345 C346 1.312 . S
C346 H317 0.930 . S
C346 C341 1.261 . S
C346 C345 1.312 . S
C347 O319 1.214 . S
C347 O327 1.234 . S
C348 H320 0.929 . S
C348 C351 1.391 . S
C348 C353 1.391 . S
C349 H321 0.929 . S
C349 C350 1.390 . S
C349 N352 1.391 . S
C350 H322 0.930 . S
C350 C349 1.390 . S
C350 C351 1.392 . S
C351 H323 0.929 . S
C351 C348 1.391 . S
C351 C350 1.392 . S
N352 Co296 2.257 . S
N352 C349 1.391 . S
N352 C353 1.388 . S
C353 H324 0.930 . S
C353 C348 1.391 . S
C353 N352 1.388 . S
Co354 O356 2.143 . S
Co354 O362 2.074 . S
Co354 O365 2.093 . S
Co354 O378 2.097 . S
Co354 N395 2.151 . S
Co354 N403 2.214 . S
Co355 O356 2.160 . S
Co355 O361 2.058 . S
Co355 O371 2.057 . S
Co355 O386 2.037 . S
Co355 N390 2.145 . S
Co355 N411 2.257 . S
O356 Co354 2.143 . S
O356 Co355 2.160 . S
C357 O358 1.278 . S
C357 O365 1.224 . S
O358 C357 1.278 . S
C359 O360 1.245 . S
C359 O371 1.232 . S
O360 C359 1.245 . S
O361 Co355 2.058 . S
O361 C387 1.269 . S
O362 Co354 2.074 . S
O362 C387 1.257 . S
H363 C388 0.930 . S
H364 C394 0.930 . S
O365 Co354 2.093 . S
O365 C357 1.224 . S
H366 C398 0.929 . S
H367 C400 0.930 . S
H368 C401 0.930 . S
H369 C399 0.929 . S
H370 C402 0.928 . S
O371 Co355 2.057 . S
O371 C359 1.232 . S
H372 C391 0.929 . S
H373 C392 0.929 . S
H374 C404 0.931 . S
H375 C396 0.929 . S
H376 C405 0.930 . S
H377 C397 0.931 . S
O378 Co354 2.097 . S
O378 C406 1.214 . S
H379 C407 0.929 . S
H380 C408 0.929 . S
H381 C409 0.930 . S
H382 C410 0.929 . S
H383 C412 0.930 . S
H384 C389 0.930 . S
H385 C393 0.930 . S
O386 Co355 2.037 . S
O386 C406 1.234 . S
C387 O361 1.269 . S
C387 O362 1.257 . S
C388 H363 0.930 . S
C388 C391 1.388 . S
C388 C393 1.418 . S
C389 H384 0.930 . S
C389 C392 1.404 . S
C389 C393 1.353 . S
N390 Co355 2.145 . S
N390 C391 1.397 . S
N390 C392 1.334 . S
C391 H372 0.929 . S
C391 C388 1.388 . S
C391 N390 1.397 . S
C392 H373 0.929 . S
C392 C389 1.404 . S
C392 N390 1.334 . S
C393 H385 0.930 . S
C393 C388 1.418 . S
C393 C389 1.353 . S
C394 H364 0.930 . S
C394 N395 1.330 . S
C394 C396 1.446 . S
N395 Co354 2.151 . S
N395 C394 1.330 . S
N395 C399 1.418 . S
C396 H375 0.929 . S
C396 C394 1.446 . S
C396 C397 1.332 . S
C397 H377 0.931 . S
C397 C396 1.332 . S
C397 C398 1.267 . S
C398 H366 0.929 . S
C398 C397 1.267 . S
C398 C399 1.251 . S
C399 H369 0.929 . S
C399 N395 1.418 . S
C399 C398 1.251 . S
C400 H367 0.930 . S
C400 C402 1.406 . S
C400 C405 1.261 . S
C401 H368 0.930 . S
C401 N403 1.325 . S
C401 C404 1.357 . S
C402 H370 0.928 . S
C402 C400 1.406 . S
C402 N403 1.261 . S
N403 Co354 2.214 . S
N403 C401 1.325 . S
N403 C402 1.261 . S
C404 H374 0.931 . S
C404 C401 1.357 . S
C404 C405 1.312 . S
C405 H376 0.930 . S
C405 C400 1.261 . S
C405 C404 1.312 . S
C406 O378 1.214 . S
C406 O386 1.234 . S
C407 H379 0.929 . S
C407 C410 1.391 . S
C407 C412 1.391 . S
C408 H380 0.929 . S
C408 C409 1.390 . S
C408 N411 1.391 . S
C409 H381 0.930 . S
C409 C408 1.390 . S
C409 C410 1.392 . S
C410 H382 0.929 . S
C410 C407 1.391 . S
C410 C409 1.392 . S
N411 Co355 2.257 . S
N411 C408 1.391 . S
N411 C412 1.388 . S
C412 H383 0.930 . S
C412 C407 1.391 . S
C412 N411 1.388 . S
Co413 O415 2.143 . S
Co413 O421 2.074 . S
Co413 O424 2.093 . S
Co413 O437 2.097 . S
Co413 N454 2.151 . S
Co413 N462 2.214 . S
Co414 O415 2.160 . S
Co414 O420 2.058 . S
Co414 O430 2.057 . S
Co414 O445 2.037 . S
Co414 N449 2.145 . S
Co414 N470 2.257 . S
O415 Co413 2.143 . S
O415 Co414 2.160 . S
C416 O417 1.278 . S
C416 O424 1.224 . S
O417 C416 1.278 . S
C418 O419 1.245 . S
C418 O430 1.232 . S
O419 C418 1.245 . S
O420 Co414 2.058 . S
O420 C446 1.269 . S
O421 Co413 2.074 . S
O421 C446 1.257 . S
H422 C447 0.930 . S
H423 C453 0.930 . S
O424 Co413 2.093 . S
O424 C416 1.224 . S
H425 C457 0.929 . S
H426 C459 0.930 . S
H427 C460 0.930 . S
H428 C458 0.929 . S
H429 C461 0.928 . S
O430 Co414 2.057 . S
O430 C418 1.232 . S
H431 C450 0.929 . S
H432 C451 0.929 . S
H433 C463 0.931 . S
H434 C455 0.929 . S
H435 C464 0.930 . S
H436 C456 0.931 . S
O437 Co413 2.097 . S
O437 C465 1.214 . S
H438 C466 0.929 . S
H439 C467 0.929 . S
H440 C468 0.930 . S
H441 C469 0.929 . S
H442 C471 0.930 . S
H443 C448 0.930 . S
H444 C452 0.930 . S
O445 Co414 2.037 . S
O445 C465 1.234 . S
C446 O420 1.269 . S
C446 O421 1.257 . S
C447 H422 0.930 . S
C447 C450 1.388 . S
C447 C452 1.418 . S
C448 H443 0.930 . S
C448 C451 1.404 . S
C448 C452 1.353 . S
N449 Co414 2.145 . S
N449 C450 1.397 . S
N449 C451 1.334 . S
C450 H431 0.929 . S
C450 C447 1.388 . S
C450 N449 1.397 . S
C451 H432 0.929 . S
C451 C448 1.404 . S
C451 N449 1.334 . S
C452 H444 0.930 . S
C452 C447 1.418 . S
C452 C448 1.353 . S
C453 H423 0.930 . S
C453 N454 1.330 . S
C453 C455 1.446 . S
N454 Co413 2.151 . S
N454 C453 1.330 . S
N454 C458 1.418 . S
C455 H434 0.929 . S
C455 C453 1.446 . S
C455 C456 1.332 . S
C456 H436 0.931 . S
C456 C455 1.332 . S
C456 C457 1.267 . S
C457 H425 0.929 . S
C457 C456 1.267 . S
C457 C458 1.251 . S
C458 H428 0.929 . S
C458 N454 1.418 . S
C458 C457 1.251 . S
C459 H426 0.930 . S
C459 C461 1.406 . S
C459 C464 1.261 . S
C460 H427 0.930 . S
C460 N462 1.325 . S
C460 C463 1.357 . S
C461 H429 0.928 . S
C461 C459 1.406 . S
C461 N462 1.261 . S
N462 Co413 2.214 . S
N462 C460 1.325 . S
N462 C461 1.261 . S
C463 H433 0.931 . S
C463 C460 1.357 . S
C463 C464 1.312 . S
C464 H435 0.930 . S
C464 C459 1.261 . S
C464 C463 1.312 . S
C465 O437 1.214 . S
C465 O445 1.234 . S
C466 H438 0.929 . S
C466 C469 1.391 . S
C466 C471 1.391 . S
C467 H439 0.929 . S
C467 C468 1.390 . S
C467 N470 1.391 . S
C468 H440 0.930 . S
C468 C467 1.390 . S
C468 C469 1.392 . S
C469 H441 0.929 . S
C469 C466 1.391 . S
C469 C468 1.392 . S
N470 Co414 2.257 . S
N470 C467 1.391 . S
N470 C471 1.388 . S
C471 H442 0.930 . S
C471 C466 1.391 . S
C471 N470 1.388 . S
C472 C473 1.363 . S
C472 C478 1.379 . S
C472 N480 1.356 . S
C473 C472 1.363 . S
C473 C479 1.363 1_556 S
C474 C475 1.363 . S
C474 C479 1.379 . S
C474 N481 1.356 . S
C475 C474 1.363 . S
C475 C478 1.363 1_554 S
N476 C478 1.356 . S
N476 H488 0.984 . S
N476 H489 0.983 1_556 S
N477 C479 1.356 . S
N477 H482 0.984 . S
N477 H483 0.985 . S
C478 C472 1.379 . S
C478 C475 1.363 1_556 S
C478 N476 1.356 . S
C479 C473 1.363 1_554 S
C479 C474 1.379 . S
C479 N477 1.356 . S
N480 C472 1.356 . S
N480 H486 0.984 . S
N480 H487 0.984 . S
N481 C474 1.356 . S
N481 H484 0.984 . S
N481 H485 0.985 . S
H482 N477 0.984 . S
H483 N477 0.985 . S
H484 N481 0.984 . S
H485 N481 0.985 . S
H486 N480 0.984 . S
H487 N480 0.984 . S
H488 N476 0.984 . S
H489 N476 0.983 1_554 S
C490 C491 1.363 . S
C490 C496 1.379 . S
C490 N498 1.356 . S
C491 C490 1.363 . S
C491 C497 1.363 1_554 S
C492 C493 1.363 . S
C492 C497 1.379 . S
C492 N499 1.356 . S
C493 C492 1.363 . S
C493 C496 1.363 1_556 S
N494 C496 1.356 . S
N494 H506 0.984 . S
N494 H507 0.985 . S
N495 C497 1.356 . S
N495 H500 0.984 1_556 S
N495 H501 0.985 . S
C496 C490 1.379 . S
C496 C493 1.363 1_554 S
C496 N494 1.356 . S
C497 C491 1.363 1_556 S
C497 C492 1.379 . S
C497 N495 1.356 . S
N498 C490 1.356 . S
N498 H504 0.984 . S
N498 H505 0.984 . S
N499 C492 1.356 . S
N499 H502 0.984 . S
N499 H503 0.985 . S
H500 N495 0.984 1_554 S
H501 N495 0.985 . S
H502 N499 0.984 . S
H503 N499 0.985 . S
H504 N498 0.984 . S
H505 N498 0.984 . S
H506 N494 0.984 . S
H507 N494 0.985 . S
C508 C509 1.363 . S
C508 C514 1.379 . S
C508 N516 1.356 . S
C509 C508 1.363 . S
C509 C515 1.363 1_554 S
C510 C511 1.363 . S
C510 C515 1.379 . S
C510 N517 1.356 . S
C511 C510 1.363 . S
C511 C514 1.363 1_556 S
N512 C514 1.356 . S
N512 H524 0.984 . S
N512 H525 0.985 . S
N513 C515 1.356 . S
N513 H518 0.984 . S
N513 H519 0.985 . S
C514 C508 1.379 . S
C514 C511 1.363 1_554 S
C514 N512 1.356 . S
C515 C509 1.363 1_556 S
C515 C510 1.379 . S
C515 N513 1.356 . S
N516 C508 1.356 . S
N516 H522 0.984 . S
N516 H523 0.984 . S
N517 C510 1.356 . S
N517 H520 0.984 . S
N517 H521 0.985 . S
H518 N513 0.984 . S
H519 N513 0.985 . S
H520 N517 0.984 . S
H521 N517 0.985 . S
H522 N516 0.984 . S
H523 N516 0.984 . S
H524 N512 0.984 . S
H525 N512 0.985 . S
C526 C527 1.363 . S
C526 C532 1.379 . S
C526 N534 1.356 . S
C527 C526 1.363 . S
C527 C533 1.363 1_556 S
C528 C529 1.363 . S
C528 C533 1.379 . S
C528 N535 1.356 . S
C529 C528 1.363 . S
C529 C532 1.363 1_554 S
N530 C532 1.356 . S
N530 H542 0.984 . S
N530 H543 0.985 1_556 S
N531 C533 1.356 . S
N531 H536 0.984 . S
N531 H537 0.985 . S
C532 C526 1.379 . S
C532 C529 1.363 1_556 S
C532 N530 1.356 . S
C533 C527 1.363 1_554 S
C533 C528 1.379 . S
C533 N531 1.356 . S
N534 C526 1.356 . S
N534 H540 0.984 . S
N534 H541 0.984 . S
N535 C528 1.356 . S
N535 H538 0.984 . S
N535 H539 0.985 . S
H536 N531 0.984 . S
H537 N531 0.985 . S
H538 N535 0.984 . S
H539 N535 0.985 . S
H540 N534 0.984 . S
H541 N534 0.984 . S
H542 N530 0.984 . S
H543 N530 0.985 1_554 S
C544 C545 1.363 . S
C544 C550 1.379 1_565 S
C544 N552 1.356 . S
C545 C544 1.363 . S
C545 C551 1.363 . S
C546 C547 1.363 . S
C546 C551 1.379 1_545 S
C546 N553 1.356 . S
C547 C546 1.363 . S
C547 C550 1.363 . S
N548 C550 1.356 . S
N548 H560 0.984 . S
N548 H561 0.985 . S
N549 C551 1.356 . S
N549 H554 0.984 . S
N549 H555 0.985 . S
C550 C544 1.379 1_545 S
C550 C547 1.363 . S
C550 N548 1.356 . S
C551 C545 1.363 . S
C551 C546 1.379 1_565 S
C551 N549 1.356 . S
N552 C544 1.356 . S
N552 H558 0.984 . S
N552 H559 0.984 . S
N553 C546 1.356 . S
N553 H556 0.984 . S
N553 H557 0.985 . S
H554 N549 0.984 . S
H555 N549 0.985 . S
H556 N553 0.984 . S
H557 N553 0.985 . S
H558 N552 0.984 . S
H559 N552 0.984 . S
H560 N548 0.984 . S
H561 N548 0.985 . S
C562 C563 1.363 . S
C562 C568 1.379 1_455 S
C562 N570 1.356 . S
C563 C562 1.363 . S
C563 C569 1.363 . S
C564 C565 1.363 . S
C564 C569 1.379 1_655 S
C564 N571 1.356 . S
C565 C564 1.363 . S
C565 C568 1.363 . S
N566 C568 1.356 . S
N566 H578 0.984 . S
N566 H579 0.985 . S
N567 C569 1.356 . S
N567 H572 0.984 . S
N567 H573 0.985 . S
C568 C562 1.379 1_655 S
C568 C565 1.363 . S
C568 N566 1.356 . S
C569 C563 1.363 . S
C569 C564 1.379 1_455 S
C569 N567 1.356 . S
N570 C562 1.356 . S
N570 H576 0.984 . S
N570 H577 0.984 . S
N571 C564 1.356 . S
N571 H574 0.984 . S
N571 H575 0.985 . S
H572 N567 0.984 . S
H573 N567 0.985 . S
H574 N571 0.984 . S
H575 N571 0.985 . S
H576 N570 0.984 . S
H577 N570 0.984 . S
H578 N566 0.984 . S
H579 N566 0.985 . S
C580 C581 1.363 . S
C580 C586 1.379 1_545 S
C580 N588 1.356 . S
C581 C580 1.363 . S
C581 C587 1.363 . S
C582 C583 1.363 . S
C582 C587 1.379 1_565 S
C582 N589 1.356 . S
C583 C582 1.363 . S
C583 C586 1.363 . S
N584 C586 1.356 . S
N584 H596 0.984 . S
N584 H597 0.985 . S
N585 C587 1.356 . S
N585 H590 0.984 . S
N585 H591 0.985 . S
C586 C580 1.379 1_565 S
C586 C583 1.363 . S
C586 N584 1.356 . S
C587 C581 1.363 . S
C587 C582 1.379 1_545 S
C587 N585 1.356 . S
N588 C580 1.356 . S
N588 H594 0.984 . S
N588 H595 0.984 . S
N589 C582 1.356 . S
N589 H592 0.984 . S
N589 H593 0.985 . S
H590 N585 0.984 . S
H591 N585 0.985 . S
H592 N589 0.984 . S
H593 N589 0.985 . S
H594 N588 0.984 . S
H595 N588 0.984 . S
H596 N584 0.984 . S
H597 N584 0.985 . S
C598 C599 1.363 . S
C598 C604 1.379 1_655 S
C598 N606 1.356 . S
C599 C598 1.363 . S
C599 C605 1.363 . S
C600 C601 1.363 . S
C600 C605 1.379 1_455 S
C600 N607 1.356 . S
C601 C600 1.363 . S
C601 C604 1.363 . S
N602 C604 1.356 . S
N602 H614 0.984 . S
N602 H615 0.985 . S
N603 C605 1.356 . S
N603 H608 0.984 . S
N603 H609 0.985 . S
C604 C598 1.379 1_455 S
C604 C601 1.363 . S
C604 N602 1.356 . S
C605 C599 1.363 . S
C605 C600 1.379 1_655 S
C605 N603 1.356 . S
N606 C598 1.356 . S
N606 H612 0.984 . S
N606 H613 0.984 . S
N607 C600 1.356 . S
N607 H610 0.984 . S
N607 H611 0.985 . S
H608 N603 0.984 . S
H609 N603 0.985 . S
H610 N607 0.984 . S
H611 N607 0.985 . S
H612 N606 0.984 . S
H613 N606 0.984 . S
H614 N602 0.984 . S
H615 N602 0.985 . S
C616 C617 1.363 . S
C616 C622 1.379 . S
C616 N624 1.356 . S
C617 C616 1.363 . S
C617 C623 1.363 . S
C618 C619 1.363 . S
C618 C623 1.379 . S
C618 N625 1.356 . S
C619 C618 1.363 . S
C619 C622 1.363 . S
N620 C622 1.356 . S
N620 H632 0.984 . S
N620 H633 0.985 . S
N621 C623 1.356 . S
N621 H626 0.984 . S
N621 H627 0.985 . S
C622 C616 1.379 . S
C622 C619 1.363 . S
C622 N620 1.356 . S
C623 C617 1.363 . S
C623 C618 1.379 . S
C623 N621 1.356 . S
N624 C616 1.356 . S
N624 H630 0.984 . S
N624 H631 0.984 . S
N625 C618 1.356 . S
N625 H628 0.984 . S
N625 H629 0.985 . S
H626 N621 0.984 . S
H627 N621 0.985 . S
H628 N625 0.984 . S
H629 N625 0.985 . S
H630 N624 0.984 . S
H631 N624 0.984 . S
H632 N620 0.984 . S
H633 N620 0.985 . S
C634 C635 1.363 . S
C634 C640 1.379 . S
C634 N642 1.356 . S
C635 C634 1.363 . S
C635 C641 1.363 . S
C636 C637 1.363 . S
C636 C641 1.379 . S
C636 N643 1.356 . S
C637 C636 1.363 . S
C637 C640 1.363 . S
N638 C640 1.356 . S
N638 H650 0.984 . S
N638 H651 0.985 . S
N639 C641 1.356 . S
N639 H644 0.984 . S
N639 H645 0.985 . S
C640 C634 1.379 . S
C640 C637 1.363 . S
C640 N638 1.356 . S
C641 C635 1.363 . S
C641 C636 1.379 . S
C641 N639 1.356 . S
N642 C634 1.356 . S
N642 H648 0.984 . S
N642 H649 0.984 . S
N643 C636 1.356 . S
N643 H646 0.984 . S
N643 H647 0.985 . S
H644 N639 0.984 . S
H645 N639 0.985 . S
H646 N643 0.984 . S
H647 N643 0.985 . S
H648 N642 0.984 . S
H649 N642 0.984 . S
H650 N638 0.984 . S
H651 N638 0.985 . S
C652 C653 1.363 . S
C652 C658 1.379 . S
C652 N660 1.356 . S
C653 C652 1.363 . S
C653 C659 1.363 . S
C654 C655 1.363 . S
C654 C659 1.379 . S
C654 N661 1.356 . S
C655 C654 1.363 . S
C655 C658 1.363 . S
N656 C658 1.356 . S
N656 H668 0.984 . S
N656 H669 0.985 . S
N657 C659 1.356 . S
N657 H662 0.984 . S
N657 H663 0.985 . S
C658 C652 1.379 . S
C658 C655 1.363 . S
C658 N656 1.356 . S
C659 C653 1.363 . S
C659 C654 1.379 . S
C659 N657 1.356 . S
N660 C652 1.356 . S
N660 H666 0.984 . S
N660 H667 0.984 . S
N661 C654 1.356 . S
N661 H664 0.984 . S
N661 H665 0.985 . S
H662 N657 0.984 . S
H663 N657 0.985 . S
H664 N661 0.984 . S
H665 N661 0.985 . S
H666 N660 0.984 . S
H667 N660 0.984 . S
H668 N656 0.984 . S
H669 N656 0.985 . S
C670 C671 1.363 . S
C670 C676 1.379 . S
C670 N678 1.356 . S
C671 C670 1.363 . S
C671 C677 1.363 . S
C672 C673 1.363 . S
C672 C677 1.379 . S
C672 N679 1.356 . S
C673 C672 1.363 . S
C673 C676 1.363 . S
N674 C676 1.356 . S
N674 H686 0.984 . S
N674 H687 0.985 . S
N675 C677 1.356 . S
N675 H680 0.984 . S
N675 H681 0.985 . S
C676 C670 1.379 . S
C676 C673 1.363 . S
C676 N674 1.356 . S
C677 C671 1.363 . S
C677 C672 1.379 . S
C677 N675 1.356 . S
N678 C670 1.356 . S
N678 H684 0.984 . S
N678 H685 0.984 . S
N679 C672 1.356 . S
N679 H682 0.984 . S
N679 H683 0.985 . S
H680 N675 0.984 . S
H681 N675 0.985 . S
H682 N679 0.984 . S
H683 N679 0.985 . S
H684 N678 0.984 . S
H685 N678 0.984 . S
H686 N674 0.984 . S
H687 N674 0.985 . S
C688 C689 1.363 . S
C688 C694 1.379 . S
C688 N696 1.356 . S
C689 C688 1.363 . S
C689 C695 1.363 . S
C690 C691 1.363 . S
C690 C695 1.379 . S
C690 N697 1.356 . S
C691 C690 1.363 . S
C691 C694 1.363 . S
N692 C694 1.356 . S
N692 H704 0.984 . S
N692 H705 0.985 . S
N693 C695 1.356 . S
N693 H698 0.984 . S
N693 H699 0.985 . S
C694 C688 1.379 . S
C694 C691 1.363 . S
C694 N692 1.356 . S
C695 C689 1.363 . S
C695 C690 1.379 . S
C695 N693 1.356 . S
N696 C688 1.356 . S
N696 H702 0.984 . S
N696 H703 0.984 . S
N697 C690 1.356 . S
N697 H700 0.984 . S
N697 H701 0.985 . S
H698 N693 0.984 . S
H699 N693 0.985 . S
H700 N697 0.984 . S
H701 N697 0.985 . S
H702 N696 0.984 . S
H703 N696 0.984 . S
H704 N692 0.984 . S
H705 N692 0.985 . S
C706 C707 1.363 . S
C706 C712 1.379 . S
C706 N714 1.356 . S
C707 C706 1.363 . S
C707 C713 1.363 . S
C708 C709 1.363 . S
C708 C713 1.379 . S
C708 N715 1.356 . S
C709 C708 1.363 . S
C709 C712 1.363 . S
N710 C712 1.356 . S
N710 H722 0.984 . S
N710 H723 0.985 . S
N711 C713 1.356 . S
N711 H716 0.984 . S
N711 H717 0.985 . S
C712 C706 1.379 . S
C712 C709 1.363 . S
C712 N710 1.356 . S
C713 C707 1.363 . S
C713 C708 1.379 . S
C713 N711 1.356 . S
N714 C706 1.356 . S
N714 H720 0.984 . S
N714 H721 0.984 . S
N715 C708 1.356 . S
N715 H718 0.984 . S
N715 H719 0.985 . S
H716 N711 0.984 . S
H717 N711 0.985 . S
H718 N715 0.984 . S
H719 N715 0.985 . S
H720 N714 0.984 . S
H721 N714 0.984 . S
H722 N710 0.984 . S
H723 N710 0.985 . S
C724 C725 1.363 . S
C724 C730 1.379 . S
C724 N732 1.356 . S
C725 C724 1.363 . S
C725 C731 1.363 . S
C726 C727 1.363 . S
C726 C731 1.379 . S
C726 N733 1.356 . S
C727 C726 1.363 . S
C727 C730 1.363 . S
N728 C730 1.356 . S
N728 H740 0.984 . S
N728 H741 0.985 . S
N729 C731 1.356 . S
N729 H734 0.984 . S
N729 H735 0.985 . S
C730 C724 1.379 . S
C730 C727 1.363 . S
C730 N728 1.356 . S
C731 C725 1.363 . S
C731 C726 1.379 . S
C731 N729 1.356 . S
N732 C724 1.356 . S
N732 H738 0.984 . S
N732 H739 0.984 . S
N733 C726 1.356 . S
N733 H736 0.984 . S
N733 H737 0.985 . S
H734 N729 0.984 . S
H735 N729 0.985 . S
H736 N733 0.984 . S
H737 N733 0.985 . S
H738 N732 0.984 . S
H739 N732 0.984 . S
H740 N728 0.984 . S
H741 N728 0.985 . S
C742 C743 1.363 . S
C742 C748 1.379 . S
C742 N750 1.356 . S
C743 C742 1.363 . S
C743 C749 1.363 . S
C744 C745 1.363 . S
C744 C749 1.379 . S
C744 N751 1.356 . S
C745 C744 1.363 . S
C745 C748 1.363 . S
N746 C748 1.356 . S
N746 H758 0.984 . S
N746 H759 0.985 . S
N747 C749 1.356 . S
N747 H752 0.984 . S
N747 H753 0.985 . S
C748 C742 1.379 . S
C748 C745 1.363 . S
C748 N746 1.356 . S
C749 C743 1.363 . S
C749 C744 1.379 . S
C749 N747 1.356 . S
N750 C742 1.356 . S
N750 H756 0.984 . S
N750 H757 0.984 . S
N751 C744 1.356 . S
N751 H754 0.984 . S
N751 H755 0.985 . S
H752 N747 0.984 . S
H753 N747 0.985 . S
H754 N751 0.984 . S
H755 N751 0.985 . S
H756 N750 0.984 . S
H757 N750 0.984 . S
H758 N746 0.984 . S
H759 N746 0.985 . S
C473 C52 1.703 . S
C475 C210 1.705 . S
C491 C33 1.705 . S
C493 C92 1.705 . S
C509 C111 1.703 . S
C511 C151 1.705 . S
C527 C229 1.703 . S
C529 C170 1.703 . S
C545 C288 1.703 . S
C547 C465 1.703 . S
C563 C347 1.703 . S
C565 C269 1.705 . S
C581 C387 1.705 . S
C583 C328 1.705 . S
C599 C446 1.705 . S
C601 C406 1.703 . S
C617 C359 1.610 . S
C619 C5 1.610 . S
C635 C62 1.603 . S
C637 C418 1.610 . S
C653 C239 1.603 . S
C655 C121 1.603 . S
C671 C298 1.603 . S
C673 C182 1.610 . S
C689 C300 1.609 . S
C691 C180 1.603 . S
C707 C3 1.604 . S
C709 C357 1.604 . S
C725 C64 1.609 . S
C727 C416 1.603 . S
C743 C123 1.609 . S
C745 C241 1.609 . S
