# Generated by pormake.
# Topology sne, (6)-cn, num edge types: 1
# Building blocks:
#     Node 0, Type 0, BuildingBlock: OJICUG_clean_sbu_0, # of connection points: 6
#     Node 1, Type 0, BuildingBlock: OJICUG_clean_sbu_0, # of connection points: 6
#     Node 2, Type 0, BuildingBlock: OJICUG_clean_sbu_0, # of connection points: 6
#     Node 3, Type 0, BuildingBlock: OJICUG_clean_sbu_0, # of connection points: 6
#     Node 4, Type 0, BuildingBlock: OJICUG_clean_sbu_0, # of connection points: 6
#     Node 5, Type 0, BuildingBlock: OJICUG_clean_sbu_0, # of connection points: 6
#     Node 6, Type 0, BuildingBlock: OJICUG_clean_sbu_0, # of connection points: 6
#     Node 7, Type 0, BuildingBlock: OJICUG_clean_sbu_0, # of connection points: 6
#     Edge 8, Type (0, 0), BuildingBlock: XIVTED_clean_linker_0, # of connection points: 2
#     Edge 9, Type (0, 0), BuildingBlock: XIVTED_clean_linker_0, # of connection points: 2
#     Edge 10, Type (0, 0), BuildingBlock: XIVTED_clean_linker_0, # of connection points: 2
#     Edge 11, Type (0, 0), BuildingBlock: XIVTED_clean_linker_0, # of connection points: 2
#     Edge 12, Type (0, 0), BuildingBlock: XIVTED_clean_linker_0, # of connection points: 2
#     Edge 13, Type (0, 0), BuildingBlock: XIVTED_clean_linker_0, # of connection points: 2
#     Edge 14, Type (0, 0), BuildingBlock: XIVTED_clean_linker_0, # of connection points: 2
#     Edge 15, Type (0, 0), BuildingBlock: XIVTED_clean_linker_0, # of connection points: 2
#     Edge 16, Type (0, 0), BuildingBlock: XIVTED_clean_linker_0, # of connection points: 2
#     Edge 17, Type (0, 0), BuildingBlock: XIVTED_clean_linker_0, # of connection points: 2
#     Edge 18, Type (0, 0), BuildingBlock: XIVTED_clean_linker_0, # of connection points: 2
#     Edge 19, Type (0, 0), BuildingBlock: XIVTED_clean_linker_0, # of connection points: 2
#     Edge 20, Type (0, 0), BuildingBlock: XIVTED_clean_linker_0, # of connection points: 2
#     Edge 21, Type (0, 0), BuildingBlock: XIVTED_clean_linker_0, # of connection points: 2
#     Edge 22, Type (0, 0), BuildingBlock: XIVTED_clean_linker_0, # of connection points: 2
#     Edge 23, Type (0, 0), BuildingBlock: XIVTED_clean_linker_0, # of connection points: 2
#     Edge 24, Type (0, 0), BuildingBlock: XIVTED_clean_linker_0, # of connection points: 2
#     Edge 25, Type (0, 0), BuildingBlock: XIVTED_clean_linker_0, # of connection points: 2
#     Edge 26, Type (0, 0), BuildingBlock: XIVTED_clean_linker_0, # of connection points: 2
#     Edge 27, Type (0, 0), BuildingBlock: XIVTED_clean_linker_0, # of connection points: 2
#     Edge 28, Type (0, 0), BuildingBlock: XIVTED_clean_linker_0, # of connection points: 2
#     Edge 29, Type (0, 0), BuildingBlock: XIVTED_clean_linker_0, # of connection points: 2
#     Edge 30, Type (0, 0), BuildingBlock: XIVTED_clean_linker_0, # of connection points: 2
#     Edge 31, Type (0, 0), BuildingBlock: XIVTED_clean_linker_0, # of connection points: 2
# Relax obj value: 0.189
# Max RMSD: 0.224
# Mean RMSD: 0.224
data_MOF--net-sne--node1-OJICUG_clean_sbu_0--edge1-XIVTED_clean_linker_0
_symmetry_space_group_name_H-M    P1
_symmetry_Int_Tables_number       1
_symmetry_cell_setting            triclinic
loop_
_symmetry_equiv_pos_as_xyz
'x, y, z'
_cell_length_a     34.769057
_cell_length_b     35.023658
_cell_length_c     28.532026
_cell_angle_alpha  89.853351
_cell_angle_beta   89.977956
_cell_angle_gamma 90.242803
loop_
_atom_site_label
_atom_site_type_symbol
_atom_site_fract_x
_atom_site_fract_y
_atom_site_fract_z
_atom_type_partial_charge
Sc0 Sc 0.25251 0.12612 0.31584 0.0
Sc1 Sc 0.16241 0.11922 0.26285 0.0
Sc2 Sc 0.20744 0.20955 0.27691 0.0
O3 O 0.20727 0.15176 0.28523 0.0
C4 C 0.25214 0.20496 0.37269 0.0
C5 C 0.18323 0.08452 0.36448 0.0
C6 C 0.12097 0.19199 0.30679 0.0
C7 C 0.22815 0.06119 0.24255 0.0
C8 C 0.29157 0.18294 0.24493 0.0
C9 C 0.17036 0.18049 0.18097 0.0
O10 O 0.26392 0.17146 0.36447 0.0
O11 O 0.1613 0.08701 0.32859 0.0
O12 O 0.14966 0.2147 0.3045 0.0
O13 O 0.24972 0.07548 0.27375 0.0
O14 O 0.26575 0.20866 0.24847 0.0
O15 O 0.16072 0.14735 0.19517 0.0
O16 O 0.28984 0.15078 0.26547 0.0
O17 O 0.19663 0.0762 0.23067 0.0
O18 O 0.18622 0.2053 0.20693 0.0
O19 O 0.21618 0.10025 0.36664 0.0
O20 O 0.2287 0.222 0.34594 0.0
O21 O 0.12207 0.15783 0.29228 0.0
Sc22 Sc 0.12648 0.82074 0.66438 0.0
Sc23 Sc 0.13095 0.72835 0.62004 0.0
Sc24 Sc 0.21251 0.78764 0.61403 0.0
O25 O 0.15671 0.77897 0.63253 0.0
C26 C 0.17116 0.86612 0.58593 0.0
C27 C 0.06334 0.78241 0.59669 0.0
C28 C 0.18475 0.73772 0.52909 0.0
C29 C 0.09469 0.75111 0.72004 0.0
C30 C 0.20914 0.82864 0.71246 0.0
C31 C 0.21228 0.70323 0.65637 0.0
O32 O 0.14123 0.86015 0.61032 0.0
O33 O 0.08383 0.7542 0.58464 0.0
O34 O 0.20434 0.76543 0.54506 0.0
O35 O 0.10834 0.78471 0.72058 0.0
O36 O 0.2267 0.80921 0.68181 0.0
O37 O 0.17598 0.69951 0.65549 0.0
O38 O 0.17399 0.838 0.70841 0.0
O39 O 0.09867 0.72882 0.68518 0.0
O40 O 0.23026 0.73167 0.6389 0.0
O41 O 0.07438 0.80714 0.62651 0.0
O42 O 0.20044 0.8443 0.58658 0.0
O43 O 0.15892 0.72052 0.55278 0.0
Sc44 Sc 0.71233 0.77516 0.45102 0.0
Sc45 Sc 0.75911 0.86057 0.42076 0.0
Sc46 Sc 0.66449 0.8636 0.46277 0.0
O47 O 0.71194 0.83312 0.44464 0.0
C48 C 0.62814 0.7894 0.41503 0.0
C49 C 0.76162 0.78533 0.35792 0.0
C50 C 0.69094 0.90286 0.36705 0.0
C51 C 0.79424 0.7993 0.49057 0.0
C52 C 0.66978 0.8028 0.5444 0.0
C53 C 0.72961 0.92214 0.49368 0.0
O54 O 0.65882 0.76991 0.41407 0.0
O55 O 0.76955 0.82009 0.3659 0.0
O56 O 0.66411 0.89354 0.39563 0.0
O57 O 0.76666 0.77537 0.48807 0.0
O58 O 0.66347 0.83696 0.53124 0.0
O59 O 0.75619 0.90548 0.47138 0.0
O60 O 0.6837 0.77736 0.51768 0.0
O61 O 0.7952 0.83053 0.46798 0.0
O62 O 0.6951 0.91051 0.49327 0.0
O63 O 0.74114 0.76528 0.38544 0.0
O64 O 0.62569 0.82178 0.43461 0.0
O65 O 0.7258 0.89306 0.37262 0.0
Sc66 Sc 0.8693 0.22796 0.61931 0.0
Sc67 Sc 0.86224 0.32065 0.57291 0.0
Sc68 Sc 0.77922 0.27371 0.61625 0.0
O69 O 0.83695 0.27413 0.60304 0.0
C70 C 0.79317 0.18973 0.57822 0.0
C71 C 0.90598 0.25385 0.52141 0.0
C72 C 0.78297 0.31512 0.51652 0.0
C73 C 0.92682 0.295 0.64637 0.0
C74 C 0.81096 0.22856 0.70543 0.0
C75 C 0.80481 0.3578 0.64631 0.0
O76 O 0.8285 0.19011 0.58916 0.0
O77 O 0.8941 0.28789 0.52398 0.0
O78 O 0.76489 0.2981 0.54918 0.0
O79 O 0.91389 0.26123 0.65035 0.0
O80 O 0.78564 0.2476 0.68362 0.0
O81 O 0.83337 0.35893 0.61871 0.0
O82 O 0.8436 0.22059 0.68793 0.0
O83 O 0.91093 0.32022 0.62062 0.0
O84 O 0.7827 0.32889 0.65046 0.0
O85 O 0.89904 0.22882 0.55272 0.0
O86 O 0.77071 0.2178 0.58516 0.0
O87 O 0.81807 0.32496 0.5202 0.0
Sc88 Sc 0.28289 0.28952 0.78065 0.0
Sc89 Sc 0.32952 0.37796 0.76056 0.0
Sc90 Sc 0.2449 0.37402 0.8239 0.0
O91 O 0.28592 0.34679 0.78801 0.0
C92 C 0.19815 0.32182 0.75619 0.0
C93 C 0.31648 0.31508 0.68151 0.0
C94 C 0.26761 0.43846 0.7487 0.0
C95 C 0.3715 0.30559 0.80505 0.0
C96 C 0.24247 0.29415 0.87813 0.0
C97 C 0.31636 0.41325 0.86371 0.0
O98 O 0.2223 0.29422 0.759 0.0
O99 O 0.32974 0.3472 0.69468 0.0
O100 O 0.25115 0.42678 0.78577 0.0
O101 O 0.3427 0.28282 0.80241 0.0
O102 O 0.23038 0.32752 0.86982 0.0
O103 O 0.33247 0.41367 0.82337 0.0
O104 O 0.26656 0.27779 0.8518 0.0
O105 O 0.37031 0.34013 0.79136 0.0
O106 O 0.28671 0.39327 0.87296 0.0
O107 O 0.29895 0.29221 0.70863 0.0
O108 O 0.20365 0.35445 0.77461 0.0
O109 O 0.29264 0.41871 0.72773 0.0
Sc110 Sc 0.36379 0.67155 0.16212 0.0
Sc111 Sc 0.36881 0.75929 0.10561 0.0
Sc112 Sc 0.2802 0.71123 0.11283 0.0
O113 O 0.33732 0.71387 0.12646 0.0
C114 C 0.31168 0.62734 0.08931 0.0
C115 C 0.42717 0.69613 0.08466 0.0
C116 C 0.3076 0.75506 0.02214 0.0
C117 C 0.40693 0.73987 0.20488 0.0
C118 C 0.28275 0.67386 0.21446 0.0
C119 C 0.29461 0.79651 0.14906 0.0
O120 O 0.34162 0.63015 0.11461 0.0
O121 O 0.40834 0.72425 0.06859 0.0
O122 O 0.28581 0.73099 0.04222 0.0
O123 O 0.38706 0.71014 0.21249 0.0
O124 O 0.26588 0.69249 0.18242 0.0
O125 O 0.33077 0.79583 0.14241 0.0
O126 O 0.31719 0.66248 0.21052 0.0
O127 O 0.40613 0.75782 0.16614 0.0
O128 O 0.27175 0.76952 0.13721 0.0
O129 O 0.4157 0.67646 0.11975 0.0
O130 O 0.28608 0.65332 0.0862 0.0
O131 O 0.33755 0.76861 0.04137 0.0
Sc132 Sc 0.82727 0.61288 0.9688 0.0
Sc133 Sc 0.74022 0.61779 0.91067 0.0
Sc134 Sc 0.78334 0.70224 0.9476 0.0
O135 O 0.78387 0.64465 0.94257 0.0
C136 C 0.81877 0.678 0.04612 0.0
C137 C 0.76311 0.55486 0.98747 0.0
C138 C 0.69849 0.67395 0.97784 0.0
C139 C 0.80862 0.57519 0.86819 0.0
C140 C 0.87061 0.6831 0.92062 0.0
C141 C 0.73995 0.69576 0.85219 0.0
O142 O 0.83076 0.64538 0.03329 0.0
O143 O 0.74532 0.56616 0.95124 0.0
O144 O 0.72333 0.70069 0.97171 0.0
O145 O 0.82671 0.57561 0.90726 0.0
O146 O 0.84279 0.7067 0.92391 0.0
O147 O 0.72639 0.66333 0.8631 0.0
O148 O 0.86844 0.64871 0.93471 0.0
O149 O 0.77892 0.59521 0.86028 0.0
O150 O 0.76564 0.71211 0.87645 0.0
O151 O 0.79038 0.57392 0.0053 0.0
O152 O 0.80101 0.70066 0.01911 0.0
O153 O 0.70204 0.64045 0.96129 0.0
Sc154 Sc 0.62567 0.25663 0.11307 0.0
Sc155 Sc 0.62619 0.16448 0.06683 0.0
Sc156 Sc 0.71092 0.20299 0.11574 0.0
O157 O 0.65433 0.208 0.09875 0.0
C158 C 0.7047 0.28769 0.07451 0.0
C159 C 0.58896 0.23266 0.01346 0.0
C160 C 0.70862 0.1624 0.01666 0.0
C161 C 0.56211 0.19715 0.13745 0.0
C162 C 0.68194 0.25067 0.20227 0.0
C163 C 0.67495 0.12155 0.14396 0.0
O164 O 0.66834 0.28921 0.07763 0.0
O165 O 0.6039 0.19975 0.01238 0.0
O166 O 0.72559 0.18187 0.04787 0.0
O167 O 0.58068 0.22702 0.14865 0.0
O168 O 0.70314 0.22498 0.18481 0.0
O169 O 0.64503 0.12526 0.11901 0.0
O170 O 0.65399 0.26563 0.18015 0.0
O171 O 0.57426 0.1733 0.10725 0.0
O172 O 0.70244 0.14582 0.14416 0.0
O173 O 0.59272 0.25509 0.04828 0.0
O174 O 0.72476 0.25997 0.0899 0.0
O175 O 0.6737 0.15182 0.02042 0.0
H176 H 0.18472 0.01528 0.18497 0.0
H177 H 0.32814 0.83965 0.2157 0.0
H178 H 0.29286 0.01958 0.25948 0.0
H179 H 0.22764 0.83385 0.12735 0.0
H180 H 0.31091 0.90423 0.23795 0.0
H181 H 0.19721 0.94847 0.16559 0.0
C182 C 0.2113 0.00241 0.19673 0.0
C183 C 0.23772 0.02307 0.22413 0.0
C184 C 0.29234 0.88891 0.21395 0.0
C185 C 0.25166 0.94665 0.20284 0.0
C186 C 0.30204 0.85195 0.20153 0.0
C187 C 0.27939 0.83174 0.16941 0.0
C188 C 0.25991 0.90602 0.19376 0.0
C189 C 0.24572 0.84866 0.15235 0.0
C190 C 0.2182 0.9642 0.18596 0.0
C191 C 0.27156 0.00485 0.23849 0.0
N192 N 0.23716 0.88523 0.16432 0.0
N193 N 0.2774 0.96767 0.22789 0.0
H194 H 0.06857 0.67932 0.74223 0.0
H195 H 0.89441 0.75536 0.8942 0.0
H196 H 0.05991 0.79737 0.78426 0.0
H197 H 0.92985 0.63723 0.89409 0.0
H198 H 0.95375 0.77202 0.85209 0.0
H199 H 0.01688 0.6633 0.797 0.0
C200 C 0.05622 0.70176 0.76346 0.0
C201 C 0.06846 0.73974 0.75843 0.0
C202 C 0.94854 0.74254 0.86181 0.0
C203 C 0.00882 0.72179 0.82036 0.0
C204 C 0.91464 0.73302 0.88562 0.0
C205 C 0.90694 0.69485 0.89754 0.0
C206 C 0.97449 0.7136 0.84933 0.0
C207 C 0.93436 0.66706 0.88567 0.0
C208 C 0.0267 0.69263 0.79468 0.0
C209 C 0.05143 0.76767 0.78695 0.0
N210 N 0.96664 0.67694 0.86188 0.0
N211 N 0.02204 0.75824 0.81617 0.0
H212 H 0.62591 0.94581 0.34956 0.0
H213 H 0.73883 0.08653 0.18024 0.0
H214 H 0.73937 0.92161 0.29557 0.0
H215 H 0.61478 0.08003 0.17839 0.0
H216 H 0.74005 0.02988 0.2308 0.0
H217 H 0.62059 -0.00183 0.29241 0.0
C218 C 0.64935 0.951 0.32533 0.0
C219 C 0.68332 0.9296 0.32792 0.0
C220 C 0.7126 0.04084 0.21906 0.0
C221 C 0.6778 0.98966 0.26374 0.0
C222 C 0.71192 0.07324 0.19052 0.0
C223 C 0.67673 0.08781 0.17493 0.0
C224 C 0.67782 0.02345 0.23276 0.0
C225 C 0.64261 0.06946 0.18928 0.0
C226 C 0.64639 0.98096 0.29298 0.0
C227 C 0.71284 0.93768 0.29557 0.0
N228 N 0.64397 0.03835 0.2177 0.0
N229 N 0.70962 0.96738 0.26541 0.0
H230 H 0.15616 0.2555 0.74875 0.0
H231 H 0.97315 0.35842 0.63525 0.0
H232 H 0.1539 0.37543 0.71376 0.0
H233 H 0.96854 0.24828 0.70373 0.0
H234 H 0.04068 0.36428 0.6585 0.0
H235 H 0.089 0.25009 0.72316 0.0
C236 C 0.14176 0.28046 0.7349 0.0
C237 C 0.16042 0.31597 0.73366 0.0
C238 C 0.02468 0.33899 0.66867 0.0
C239 C 0.0838 0.31025 0.70514 0.0
C240 C 0.98603 0.33578 0.65578 0.0
C241 C 0.96506 0.30273 0.66726 0.0
C242 C 0.04249 0.30882 0.69283 0.0
C243 C 0.9835 0.27421 0.69372 0.0
C244 C 0.10336 0.27752 0.72085 0.0
C245 C 0.14037 0.34757 0.71575 0.0
N246 N 0.02118 0.27776 0.70517 0.0
N247 N 0.10312 0.344 0.70237 0.0
H248 H 0.33159 0.55454 0.11115 0.0
H249 H 0.33588 0.48706 0.8459 0.0
H250 H 0.28894 0.6244 -0.00203 0.0
H251 H 0.31629 0.40722 0.9589 0.0
H252 H 0.33449 0.53953 0.90257 0.0
H253 H 0.33845 0.50111 0.05651 0.0
C254 C 0.32311 0.55835 0.0749 0.0
C255 C 0.30929 0.59363 0.05894 0.0
C256 C 0.33115 0.51043 0.91491 0.0
C257 C 0.31853 0.53349 -0.00364 0.0
C258 C 0.33263 0.48051 0.88283 0.0
C259 C 0.32633 0.44289 0.89798 0.0
C260 C 0.32399 0.50244 0.96233 0.0
C261 C 0.32133 0.43593 0.94602 0.0
C262 C 0.32727 0.52805 0.04384 0.0
C263 C 0.2991 0.5974 0.01166 0.0
N264 N 0.32017 0.46551 0.97662 0.0
N265 N 0.30439 0.56774 0.98175 0.0
H266 H 0.65506 0.73909 0.97545 0.0
H267 H 0.47809 0.6397 0.10849 0.0
H268 H 0.6588 0.62542 0.03383 0.0
H269 H 0.46704 0.74064 0.02215 0.0
H270 H 0.54625 0.63707 0.08833 0.0
H271 H 0.58828 0.74482 0.00266 0.0
C272 C 0.6421 0.71579 -0.00503 0.0
C273 C 0.66213 0.68168 0.00221 0.0
C274 C 0.5288 0.65966 0.07362 0.0
C275 C 0.58617 0.68761 0.03244 0.0
C276 C 0.4898 0.66101 0.08482 0.0
C277 C 0.46668 0.69038 0.06698 0.0
C278 C 0.54488 0.68803 0.04466 0.0
C279 C 0.48363 0.71735 0.03665 0.0
C280 C 0.60394 0.71881 0.00991 0.0
C281 C 0.64406 0.65208 0.02721 0.0
N282 N 0.52175 0.71566 0.02671 0.0
N283 N 0.60702 0.65562 0.04117 0.0
H284 H 0.68531 0.32342 -0.00546 0.0
H285 H 0.80298 0.51357 0.05381 0.0
H286 H 0.76424 0.32954 0.11076 0.0
H287 H 0.70699 0.50609 0.95802 0.0
H288 H 0.79544 0.44529 0.07095 0.0
H289 H 0.70261 0.38843 0.9726 0.0
C290 C 0.70711 0.33833 0.01468 0.0
C291 C 0.7234 0.32146 0.05443 0.0
C292 C 0.77604 0.4588 0.04636 0.0
C293 C 0.7422 0.39631 0.03091 0.0
C294 C 0.78003 0.49779 0.03688 0.0
C295 C 0.75562 0.51563 0.0043 0.0
C296 C 0.74763 0.43767 0.02286 0.0
C297 C 0.7266 0.49369 0.98322 0.0
C298 C 0.71664 0.37556 0.00257 0.0
C299 C 0.75135 0.34174 0.07962 0.0
N300 N 0.72361 0.45592 -0.00732 0.0
N301 N 0.75952 0.37859 0.06787 0.0
H302 H 0.55376 0.18496 0.95095 0.0
H303 H 0.43394 0.34956 0.82675 0.0
H304 H 0.56266 0.30387 0.98935 0.0
H305 H 0.39153 0.23361 0.83681 0.0
H306 H 0.49034 0.33139 0.87152 0.0
H307 H 0.50352 0.20132 0.89456 0.0
C308 C 0.54566 0.21462 0.94701 0.0
C309 C 0.56239 0.24315 0.97511 0.0
C310 C 0.46882 0.30988 0.86367 0.0
C311 C 0.50498 0.26179 0.91059 0.0
C312 C 0.43654 0.32009 0.83789 0.0
C313 C 0.40752 0.2931 0.82821 0.0
C314 C 0.47261 0.27231 0.87965 0.0
C315 C 0.41294 0.25541 0.84367 0.0
C316 C 0.51677 0.22378 0.91507 0.0
C317 C 0.55045 0.28098 0.96864 0.0
N318 N 0.44488 0.24611 0.8688 0.0
N319 N 0.52243 0.28921 0.93704 0.0
H320 H 0.80627 0.58108 0.77328 0.0
H321 H 0.78418 0.35738 0.73876 0.0
H322 H 0.82642 0.501 0.88561 0.0
H323 H 0.81756 0.43236 0.6255 0.0
H324 H 0.78964 0.41133 0.7933 0.0
H325 H 0.80387 0.52788 0.71785 0.0
C326 C 0.81117 0.55231 0.78596 0.0
C327 C 0.81695 0.54527 0.8338 0.0
C328 C 0.79547 0.41589 0.75642 0.0
C329 C 0.81253 0.48449 0.77132 0.0
C330 C 0.79175 0.38538 0.7253 0.0
C331 C 0.80031 0.39065 0.67772 0.0
C332 C 0.80719 0.4518 0.73948 0.0
C333 C 0.81072 0.42725 0.66202 0.0
C334 C 0.80946 0.52203 0.75451 0.0
C335 C 0.82254 0.50754 0.8488 0.0
N336 N 0.81384 0.4565 0.69284 0.0
N337 N 0.81956 0.47837 0.81769 0.0
H338 H 0.51032 0.13985 0.11933 0.0
H339 H 0.33532 0.24808 0.24291 0.0
H340 H 0.52253 0.24669 0.1935 0.0
H341 H 0.32847 0.13342 0.18869 0.0
H342 H 0.40191 0.25242 0.2145 0.0
H343 H 0.44191 0.13969 0.13797 0.0
C344 C 0.49879 0.16302 0.14004 0.0
C345 C 0.5223 0.19331 0.15483 0.0
C346 C 0.38557 0.22654 0.20826 0.0
C347 C 0.44384 0.19371 0.17541 0.0
C348 C 0.34753 0.22433 0.22384 0.0
C349 C 0.32683 0.19029 0.21829 0.0
C350 C 0.40249 0.19452 0.18699 0.0
C351 C 0.34384 0.16004 0.19392 0.0
C352 C 0.45963 0.16308 0.15031 0.0
C353 C 0.5056 0.22267 0.18138 0.0
N354 N 0.38083 0.16272 0.17953 0.0
N355 N 0.46733 0.22223 0.19061 0.0
H356 H 0.26909 0.66127 0.61548 0.0
H357 H 0.22087 0.4905 0.79022 0.0
H358 H 0.20081 0.67124 0.74089 0.0
H359 H 0.30134 0.47818 0.6758 0.0
H360 H 0.21636 0.55798 0.77322 0.0
H361 H 0.28744 0.59639 0.63965 0.0
C362 C 0.25925 0.65026 0.64894 0.0
C363 C 0.23344 0.67116 0.67636 0.0
C364 C 0.23507 0.54067 0.75171 0.0
C365 C 0.25299 0.59741 0.70328 0.0
C366 C 0.23737 0.50188 0.76112 0.0
C367 C 0.26142 0.47847 0.73428 0.0
C368 C 0.25668 0.55644 0.71485 0.0
C369 C 0.28225 0.49513 0.69722 0.0
C370 C 0.26924 0.61318 0.6624 0.0
C371 C 0.22073 0.65572 0.71888 0.0
N372 N 0.27933 0.53321 0.68847 0.0
N373 N 0.23024 0.61958 0.73076 0.0
H374 H 0.6279 0.75123 0.33222 0.0
H375 H 0.40349 0.73321 0.30033 0.0
H376 H 0.55255 0.79871 0.43704 0.0
H377 H 0.4783 0.76735 0.18678 0.0
H378 H 0.45726 0.74228 0.35538 0.0
H379 H 0.57183 0.73902 0.28224 0.0
C380 C 0.59947 0.75826 0.34506 0.0
C381 C 0.5946 0.77612 0.3885 0.0
C382 C 0.46154 0.74799 0.31841 0.0
C383 C 0.53105 0.76227 0.33208 0.0
C384 C 0.43107 0.74301 0.2872 0.0
C385 C 0.4366 0.74992 0.23923 0.0
C386 C 0.49773 0.75863 0.30098 0.0
C387 C 0.47281 0.76226 0.22365 0.0
C388 C 0.56772 0.75168 0.31648 0.0
C389 C 0.55729 0.78511 0.40351 0.0
N390 N 0.50226 0.76571 0.25443 0.0
N391 N 0.52671 0.77802 0.37525 0.0
H392 H 0.72134 0.15762 0.59012 0.0
H393 H 0.79999 0.95555 0.50549 0.0
H394 H 0.83217 0.13859 0.52631 0.0
H395 H 0.67875 0.97485 0.52849 0.0
H396 H 0.81268 0.02193 0.52459 0.0
H397 H 0.70416 0.09066 0.57374 0.0
C398 C 0.74161 0.13964 0.57174 0.0
C399 C 0.77831 0.15337 0.5599 0.0
C400 C 0.78327 0.01165 0.52565 0.0
C401 C 0.75952 0.07731 0.54254 0.0
C402 C 0.77604 0.9736 0.51516 0.0
C403 C 0.73819 0.95969 0.51467 0.0
C404 C 0.7525 0.03611 0.53581 0.0
C405 C 0.70839 0.98443 0.52809 0.0
C406 C 0.73202 0.10146 0.56295 0.0
C407 C 0.80375 0.12895 0.53659 0.0
N408 N 0.71613 0.02167 0.53772 0.0
N409 N 0.79402 0.09207 0.52915 0.0
H410 H 0.10271 0.26278 0.3423 0.0
H411 H 0.9285 0.18306 0.49115 0.0
H412 H 0.05761 0.1484 0.32523 0.0
H413 H 0.94324 0.30358 0.46322 0.0
H414 H 0.97733 0.16943 0.43185 0.0
H415 H 0.04557 0.27881 0.38845 0.0
C416 C 0.08074 0.24121 0.34779 0.0
C417 C 0.08524 0.20411 0.3303 0.0
C418 C 0.96945 0.19882 0.43839 0.0
C419 C 0.02036 0.22206 0.38317 0.0
C420 C 0.9417 0.20658 0.47228 0.0
C421 C 0.93198 0.24446 0.48236 0.0
C422 C 0.98799 0.22919 0.4152 0.0
C423 C 0.94986 0.2739 0.45665 0.0
C424 C 0.04815 0.25037 0.37399 0.0
C425 C 0.05569 0.17731 0.33831 0.0
N426 N 0.97742 0.26566 0.42468 0.0
N427 N 0.02478 0.18669 0.36465 0.0
H428 H 0.23267 0.90939 0.55794 0.0
H429 H 0.12388 0.03203 0.36948 0.0
H430 H 0.10942 0.89927 0.54393 0.0
H431 H 0.22082 0.07611 0.44761 0.0
H432 H 0.11823 0.97982 0.42676 0.0
H433 H 0.231 0.96651 0.50816 0.0
C434 C 0.20535 0.91913 0.54423 0.0
C435 C 0.17116 0.89984 0.5551 0.0
C436 C 0.1403 0.00139 0.43145 0.0
C437 C 0.16904 0.96455 0.49825 0.0
C438 C 0.14343 0.03125 0.39901 0.0
C439 C 0.1733 0.05812 0.40318 0.0
C440 C 0.1676 -0.00169 0.46751 0.0
C441 C 0.19779 0.05568 0.4423 0.0
C442 C 0.20434 0.95178 0.51625 0.0
C443 C 0.1364 0.91365 0.53661 0.0
N444 N 0.19486 0.02588 0.47238 0.0
N445 N 0.13622 0.94506 0.50864 0.0
H446 H 0.02703 0.7324 0.53751 0.0
H447 H 0.82988 0.73026 0.50166 0.0
H448 H 0.00748 0.83362 0.62042 0.0
H449 H 0.83663 0.8489 0.54118 0.0
H450 H 0.89528 0.72107 0.53159 0.0
H451 H 0.95879 0.72992 0.51928 0.0
C452 C 0.00841 0.75416 0.55187 0.0
C453 C 0.02309 0.7833 0.58059 0.0
C454 C 0.8825 0.74911 0.53363 0.0
C455 C 0.94452 0.77962 0.56147 0.0
C456 C 0.84494 0.7541 0.51749 0.0
C457 C 0.82847 0.79049 0.51829 0.0
C458 C 0.90324 0.78089 0.55034 0.0
C459 C 0.84883 0.82054 0.5392 0.0
C460 C 0.96921 0.75224 0.54218 0.0
C461 C -0.00245 0.81069 0.59806 0.0
N462 N 0.88535 0.81516 0.55397 0.0
N463 N 0.95953 0.80819 0.58811 0.0
H464 H 0.25783 0.22079 0.90755 0.0
H465 H 0.14151 0.24567 0.1448 0.0
H466 H 0.19026 0.32011 0.94195 0.0
H467 H 0.19405 0.13929 0.10528 0.0
H468 H 0.15268 0.27021 0.06596 0.0
H469 H 0.23082 0.18797 0.97603 0.0
C470 C 0.23734 0.2357 0.92939 0.0
C471 C 0.22671 0.27349 0.91924 0.0
C472 C 0.16113 0.2412 0.07399 0.0
C473 C 0.19545 0.23596 -0.00278 0.0
C474 C 0.15445 0.22714 0.11889 0.0
C475 C 0.1669 0.19052 0.13122 0.0
C476 C 0.18136 0.21881 0.04157 0.0
C477 C 0.1838 0.16762 0.09675 0.0
C478 C 0.22173 0.21684 0.96826 0.0
C479 C 0.1997 0.29118 0.94853 0.0
N480 N 0.1913 0.18245 0.05355 0.0
N481 N 0.18526 0.27237 0.98623 0.0
H482 H 0.23482 0.75784 0.98783 0.0
H483 H 0.28584 0.82199 0.7336 0.0
H484 H 0.35178 0.78925 0.95372 0.0
H485 H 0.1753 0.84465 0.79657 0.0
H486 H 0.31246 0.81064 0.81177 0.0
H487 H 0.21337 0.78691 0.91489 0.0
C488 C 0.25607 0.77059 0.96477 0.0
C489 C 0.29521 0.7708 0.97661 0.0
C490 C 0.28264 0.81903 0.8084 0.0
C491 C 0.2707 0.80447 0.89315 0.0
C492 C 0.26741 0.82562 0.76387 0.0
C493 C 0.22806 0.83356 0.75843 0.0
C494 C 0.25813 0.81973 0.84742 0.0
C495 C 0.20566 0.83822 0.79893 0.0
C496 C 0.24371 0.78767 0.92345 0.0
C497 C 0.32135 0.78835 0.94572 0.0
N498 N 0.2208 0.8303 0.84165 0.0
N499 N 0.30867 0.80414 0.90494 0.0
H500 H 0.80402 0.81955 0.28868 0.0
H501 H 0.81209 0.63428 0.12563 0.0
H502 H 0.75519 0.71065 0.32899 0.0
H503 H 0.83308 0.74942 0.07783 0.0
H504 H 0.80485 0.65852 0.20599 0.0
H505 H 0.82756 0.79084 0.21668 0.0
C506 C 0.7983 0.78955 0.28254 0.0
C507 C 0.77708 0.76765 0.31479 0.0
C508 C 0.8117 0.6783 0.17794 0.0
C509 C 0.80425 0.73452 0.23216 0.0
C510 C 0.8162 0.66446 0.13231 0.0
C511 C 0.82285 0.69002 0.09525 0.0
C512 C 0.81433 0.71779 0.18622 0.0
C513 C 0.82756 0.72887 0.10548 0.0
C514 C 0.81186 0.77316 0.24137 0.0
C515 C 0.771 0.72878 0.30492 0.0
N516 N 0.82293 0.7416 0.14992 0.0
N517 N 0.78432 0.71348 0.2643 0.0
H518 H 0.85761 0.2076 0.7794 0.0
H519 H 0.67771 0.13873 0.93324 0.0
H520 H 0.73897 0.21108 0.73505 0.0
H521 H 0.78453 0.17622 -0.00434 0.0
H522 H 0.70637 0.14699 0.85586 0.0
H523 H 0.83648 0.18065 0.85509 0.0
C524 C 0.82726 0.20259 0.78551 0.0
C525 C 0.79995 0.2122 0.7513 0.0
C526 C 0.72371 0.15281 0.88658 0.0
C527 C 0.77591 0.1806 0.83652 0.0
C528 C 0.70746 0.1478 0.93084 0.0
C529 C 0.72843 0.15759 0.9711 0.0
C530 C 0.76119 0.16754 0.88249 0.0
C531 C 0.76703 0.169 0.96556 0.0
C532 C 0.81528 0.18717 0.82849 0.0
C533 C 0.76099 0.20484 0.76076 0.0
N534 N 0.78204 0.17423 0.922 0.0
N535 N 0.75019 0.1895 0.80237 0.0
H536 H 0.64405 0.73578 0.5807 0.0
H537 H 0.75558 0.76832 0.81962 0.0
H538 H 0.69 0.8455 0.62055 0.0
H539 H 0.688 0.66761 0.78917 0.0
H540 H 0.7292 0.79883 0.74936 0.0
H541 H 0.65496 0.71251 0.66016 0.0
C542 C 0.65552 0.75524 0.60669 0.0
C543 C 0.66624 0.7925 0.59422 0.0
C544 C 0.71995 0.77018 0.75839 0.0
C545 C 0.68022 0.76577 0.68476 0.0
C546 C 0.73522 0.75262 0.79828 0.0
C547 C 0.72437 0.71514 0.81011 0.0
C548 C 0.69389 0.74999 0.73001 0.0
C549 C 0.69753 0.69639 0.78137 0.0
C550 C 0.662 0.74193 0.65199 0.0
C551 C 0.68115 0.81661 0.629 0.0
N552 N 0.6835 0.71389 0.74258 0.0
N553 N 0.68847 0.80258 0.6726 0.0
H554 H 0.81626 0.334 0.43258 0.0
H555 H 0.63581 0.28012 0.27217 0.0
H556 H 0.70703 0.30206 0.49376 0.0
H557 H 0.75412 0.2571 0.23673 0.0
H558 H 0.65742 0.30472 0.34889 0.0
H559 H 0.78868 0.32489 0.35485 0.0
C560 C 0.78624 0.32591 0.42982 0.0
C561 C 0.76417 0.31816 0.46997 0.0
C562 C 0.67845 0.29442 0.32399 0.0
C563 C 0.73257 0.30752 0.38081 0.0
C564 C 0.66621 0.28041 0.28045 0.0
C565 C 0.6932 0.26608 0.24846 0.0
C566 C 0.71792 0.29503 0.33464 0.0
C567 C 0.73228 0.26726 0.26067 0.0
C568 C 0.77063 0.32046 0.38535 0.0
C569 C 0.72531 0.30786 0.46383 0.0
N570 N 0.74343 0.28158 0.30261 0.0
N571 N 0.7108 0.30243 0.42003 0.0
H572 H 0.3381 0.2463 0.64857 0.0
H573 H 0.23822 0.27861 0.40182 0.0
H574 H 0.29896 0.357 0.60332 0.0
H575 H 0.30029 0.17648 0.43974 0.0
H576 H 0.26238 0.30941 0.47304 0.0
H577 H 0.32853 0.22206 0.56946 0.0
C578 C 0.32827 0.26569 0.62147 0.0
C579 C 0.31928 0.30359 0.63217 0.0
C580 C 0.27093 0.28039 0.46543 0.0
C581 C 0.3069 0.27586 0.54191 0.0
C582 C 0.25695 0.26268 0.42496 0.0
C583 C 0.26684 0.22469 0.41495 0.0
C584 C 0.29472 0.25987 0.49618 0.0
C585 C 0.29154 0.20565 0.44604 0.0
C586 C 0.32262 0.25185 0.57636 0.0
C587 C 0.30646 0.32762 0.59611 0.0
N588 N 0.30433 0.22333 0.4853 0.0
N589 N 0.29993 0.31314 0.55257 0.0
H590 H 0.31542 0.653 0.29776 0.0
H591 H 0.13801 0.70589 0.46158 0.0
H592 H 0.20727 0.68836 0.23741 0.0
H593 H 0.25619 0.73461 0.49196 0.0
H594 H 0.15852 0.6813 0.38447 0.0
H595 H 0.2883 0.66205 0.37571 0.0
C596 C 0.28569 0.66178 0.30075 0.0
C597 C 0.26383 0.67061 0.26083 0.0
C598 C 0.17976 0.69286 0.40836 0.0
C599 C 0.23281 0.681 0.35012 0.0
C600 C 0.16816 0.70685 0.45207 0.0
C601 C 0.19544 0.72271 0.4827 0.0
C602 C 0.21892 0.69371 0.39633 0.0
C603 C 0.23418 0.72319 0.46904 0.0
C604 C 0.27037 0.66716 0.34531 0.0
C605 C 0.22534 0.68176 0.2672 0.0
N606 N 0.24477 0.70872 0.42701 0.0
N607 N 0.2111 0.68705 0.31113 0.0
loop_
_geom_bond_atom_site_label_1
_geom_bond_atom_site_label_2
_geom_bond_distance
_geom_bond_site_symmetry_2
_ccdc_geom_bond_type
Sc0 O3 2.025 . S
Sc0 O10 2.105 . S
Sc0 O13 2.105 . S
Sc0 O16 2.105 . S
Sc0 O19 2.105 . S
Sc1 O3 2.025 . S
Sc1 O11 2.105 . S
Sc1 O15 2.105 . S
Sc1 O17 2.105 . S
Sc1 O21 2.105 . S
Sc2 O3 2.025 . S
Sc2 O12 2.105 . S
Sc2 O14 2.105 . S
Sc2 O18 2.105 . S
Sc2 O20 2.105 . S
O3 Sc0 2.025 . S
O3 Sc1 2.025 . S
O3 Sc2 2.025 . S
C4 O10 1.268 . S
C4 O20 1.268 . S
C5 O11 1.268 . S
C5 O19 1.268 . S
C6 O12 1.268 . S
C6 O21 1.268 . S
C7 O13 1.268 . S
C7 O17 1.268 . S
C8 O14 1.268 . S
C8 O16 1.268 . S
C9 O15 1.268 . S
C9 O18 1.268 . S
O10 Sc0 2.105 . S
O10 C4 1.268 . S
O11 Sc1 2.105 . S
O11 C5 1.268 . S
O12 Sc2 2.105 . S
O12 C6 1.268 . S
O13 Sc0 2.105 . S
O13 C7 1.268 . S
O14 Sc2 2.105 . S
O14 C8 1.268 . S
O15 Sc1 2.105 . S
O15 C9 1.268 . S
O16 Sc0 2.105 . S
O16 C8 1.268 . S
O17 Sc1 2.105 . S
O17 C7 1.268 . S
O18 Sc2 2.105 . S
O18 C9 1.268 . S
O19 Sc0 2.105 . S
O19 C5 1.268 . S
O20 Sc2 2.105 . S
O20 C4 1.268 . S
O21 Sc1 2.105 . S
O21 C6 1.268 . S
Sc22 O25 2.025 . S
Sc22 O32 2.105 . S
Sc22 O35 2.105 . S
Sc22 O38 2.105 . S
Sc22 O41 2.105 . S
Sc23 O25 2.025 . S
Sc23 O33 2.105 . S
Sc23 O37 2.105 . S
Sc23 O39 2.105 . S
Sc23 O43 2.105 . S
Sc24 O25 2.025 . S
Sc24 O34 2.105 . S
Sc24 O36 2.105 . S
Sc24 O40 2.105 . S
Sc24 O42 2.105 . S
O25 Sc22 2.025 . S
O25 Sc23 2.025 . S
O25 Sc24 2.025 . S
C26 O32 1.268 . S
C26 O42 1.268 . S
C27 O33 1.268 . S
C27 O41 1.268 . S
C28 O34 1.268 . S
C28 O43 1.268 . S
C29 O35 1.268 . S
C29 O39 1.268 . S
C30 O36 1.268 . S
C30 O38 1.268 . S
C31 O37 1.268 . S
C31 O40 1.268 . S
O32 Sc22 2.105 . S
O32 C26 1.268 . S
O33 Sc23 2.105 . S
O33 C27 1.268 . S
O34 Sc24 2.105 . S
O34 C28 1.268 . S
O35 Sc22 2.105 . S
O35 C29 1.268 . S
O36 Sc24 2.105 . S
O36 C30 1.268 . S
O37 Sc23 2.105 . S
O37 C31 1.268 . S
O38 Sc22 2.105 . S
O38 C30 1.268 . S
O39 Sc23 2.105 . S
O39 C29 1.268 . S
O40 Sc24 2.105 . S
O40 C31 1.268 . S
O41 Sc22 2.105 . S
O41 C27 1.268 . S
O42 Sc24 2.105 . S
O42 C26 1.268 . S
O43 Sc23 2.105 . S
O43 C28 1.268 . S
Sc44 O47 2.025 . S
Sc44 O54 2.105 . S
Sc44 O57 2.105 . S
Sc44 O60 2.105 . S
Sc44 O63 2.105 . S
Sc45 O47 2.025 . S
Sc45 O55 2.105 . S
Sc45 O59 2.105 . S
Sc45 O61 2.105 . S
Sc45 O65 2.105 . S
Sc46 O47 2.025 . S
Sc46 O56 2.105 . S
Sc46 O58 2.105 . S
Sc46 O62 2.105 . S
Sc46 O64 2.105 . S
O47 Sc44 2.025 . S
O47 Sc45 2.025 . S
O47 Sc46 2.025 . S
C48 O54 1.268 . S
C48 O64 1.268 . S
C49 O55 1.268 . S
C49 O63 1.268 . S
C50 O56 1.268 . S
C50 O65 1.268 . S
C51 O57 1.268 . S
C51 O61 1.268 . S
C52 O58 1.268 . S
C52 O60 1.268 . S
C53 O59 1.268 . S
C53 O62 1.268 . S
O54 Sc44 2.105 . S
O54 C48 1.268 . S
O55 Sc45 2.105 . S
O55 C49 1.268 . S
O56 Sc46 2.105 . S
O56 C50 1.268 . S
O57 Sc44 2.105 . S
O57 C51 1.268 . S
O58 Sc46 2.105 . S
O58 C52 1.268 . S
O59 Sc45 2.105 . S
O59 C53 1.268 . S
O60 Sc44 2.105 . S
O60 C52 1.268 . S
O61 Sc45 2.105 . S
O61 C51 1.268 . S
O62 Sc46 2.105 . S
O62 C53 1.268 . S
O63 Sc44 2.105 . S
O63 C49 1.268 . S
O64 Sc46 2.105 . S
O64 C48 1.268 . S
O65 Sc45 2.105 . S
O65 C50 1.268 . S
Sc66 O69 2.025 . S
Sc66 O76 2.105 . S
Sc66 O79 2.105 . S
Sc66 O82 2.105 . S
Sc66 O85 2.105 . S
Sc67 O69 2.025 . S
Sc67 O77 2.105 . S
Sc67 O81 2.105 . S
Sc67 O83 2.105 . S
Sc67 O87 2.105 . S
Sc68 O69 2.025 . S
Sc68 O78 2.105 . S
Sc68 O80 2.105 . S
Sc68 O84 2.105 . S
Sc68 O86 2.105 . S
O69 Sc66 2.025 . S
O69 Sc67 2.025 . S
O69 Sc68 2.025 . S
C70 O76 1.268 . S
C70 O86 1.268 . S
C71 O77 1.268 . S
C71 O85 1.268 . S
C72 O78 1.268 . S
C72 O87 1.268 . S
C73 O79 1.268 . S
C73 O83 1.268 . S
C74 O80 1.268 . S
C74 O82 1.268 . S
C75 O81 1.268 . S
C75 O84 1.268 . S
O76 Sc66 2.105 . S
O76 C70 1.268 . S
O77 Sc67 2.105 . S
O77 C71 1.268 . S
O78 Sc68 2.105 . S
O78 C72 1.268 . S
O79 Sc66 2.105 . S
O79 C73 1.268 . S
O80 Sc68 2.105 . S
O80 C74 1.268 . S
O81 Sc67 2.105 . S
O81 C75 1.268 . S
O82 Sc66 2.105 . S
O82 C74 1.268 . S
O83 Sc67 2.105 . S
O83 C73 1.268 . S
O84 Sc68 2.105 . S
O84 C75 1.268 . S
O85 Sc66 2.105 . S
O85 C71 1.268 . S
O86 Sc68 2.105 . S
O86 C70 1.268 . S
O87 Sc67 2.105 . S
O87 C72 1.268 . S
Sc88 O91 2.025 . S
Sc88 O98 2.105 . S
Sc88 O101 2.105 . S
Sc88 O104 2.105 . S
Sc88 O107 2.105 . S
Sc89 O91 2.025 . S
Sc89 O99 2.105 . S
Sc89 O103 2.105 . S
Sc89 O105 2.105 . S
Sc89 O109 2.105 . S
Sc90 O91 2.025 . S
Sc90 O100 2.105 . S
Sc90 O102 2.105 . S
Sc90 O106 2.105 . S
Sc90 O108 2.105 . S
O91 Sc88 2.025 . S
O91 Sc89 2.025 . S
O91 Sc90 2.025 . S
C92 O98 1.268 . S
C92 O108 1.268 . S
C93 O99 1.268 . S
C93 O107 1.268 . S
C94 O100 1.268 . S
C94 O109 1.268 . S
C95 O101 1.268 . S
C95 O105 1.268 . S
C96 O102 1.268 . S
C96 O104 1.268 . S
C97 O103 1.268 . S
C97 O106 1.268 . S
O98 Sc88 2.105 . S
O98 C92 1.268 . S
O99 Sc89 2.105 . S
O99 C93 1.268 . S
O100 Sc90 2.105 . S
O100 C94 1.268 . S
O101 Sc88 2.105 . S
O101 C95 1.268 . S
O102 Sc90 2.105 . S
O102 C96 1.268 . S
O103 Sc89 2.105 . S
O103 C97 1.268 . S
O104 Sc88 2.105 . S
O104 C96 1.268 . S
O105 Sc89 2.105 . S
O105 C95 1.268 . S
O106 Sc90 2.105 . S
O106 C97 1.268 . S
O107 Sc88 2.105 . S
O107 C93 1.268 . S
O108 Sc90 2.105 . S
O108 C92 1.268 . S
O109 Sc89 2.105 . S
O109 C94 1.268 . S
Sc110 O113 2.025 . S
Sc110 O120 2.105 . S
Sc110 O123 2.105 . S
Sc110 O126 2.105 . S
Sc110 O129 2.105 . S
Sc111 O113 2.025 . S
Sc111 O121 2.105 . S
Sc111 O125 2.105 . S
Sc111 O127 2.105 . S
Sc111 O131 2.105 . S
Sc112 O113 2.025 . S
Sc112 O122 2.105 . S
Sc112 O124 2.105 . S
Sc112 O128 2.105 . S
Sc112 O130 2.105 . S
O113 Sc110 2.025 . S
O113 Sc111 2.025 . S
O113 Sc112 2.025 . S
C114 O120 1.268 . S
C114 O130 1.268 . S
C115 O121 1.268 . S
C115 O129 1.268 . S
C116 O122 1.268 . S
C116 O131 1.268 . S
C117 O123 1.268 . S
C117 O127 1.268 . S
C118 O124 1.268 . S
C118 O126 1.268 . S
C119 O125 1.268 . S
C119 O128 1.268 . S
O120 Sc110 2.105 . S
O120 C114 1.268 . S
O121 Sc111 2.105 . S
O121 C115 1.268 . S
O122 Sc112 2.105 . S
O122 C116 1.268 . S
O123 Sc110 2.105 . S
O123 C117 1.268 . S
O124 Sc112 2.105 . S
O124 C118 1.268 . S
O125 Sc111 2.105 . S
O125 C119 1.268 . S
O126 Sc110 2.105 . S
O126 C118 1.268 . S
O127 Sc111 2.105 . S
O127 C117 1.268 . S
O128 Sc112 2.105 . S
O128 C119 1.268 . S
O129 Sc110 2.105 . S
O129 C115 1.268 . S
O130 Sc112 2.105 . S
O130 C114 1.268 . S
O131 Sc111 2.105 . S
O131 C116 1.268 . S
Sc132 O135 2.025 . S
Sc132 O142 2.105 . S
Sc132 O145 2.105 . S
Sc132 O148 2.105 . S
Sc132 O151 2.105 . S
Sc133 O135 2.025 . S
Sc133 O143 2.105 . S
Sc133 O147 2.105 . S
Sc133 O149 2.105 . S
Sc133 O153 2.105 . S
Sc134 O135 2.025 . S
Sc134 O144 2.105 . S
Sc134 O146 2.105 . S
Sc134 O150 2.105 . S
Sc134 O152 2.105 . S
O135 Sc132 2.025 . S
O135 Sc133 2.025 . S
O135 Sc134 2.025 . S
C136 O142 1.268 . S
C136 O152 1.268 . S
C137 O143 1.268 . S
C137 O151 1.268 . S
C138 O144 1.268 . S
C138 O153 1.268 . S
C139 O145 1.268 . S
C139 O149 1.268 . S
C140 O146 1.268 . S
C140 O148 1.268 . S
C141 O147 1.268 . S
C141 O150 1.268 . S
O142 Sc132 2.105 . S
O142 C136 1.268 . S
O143 Sc133 2.105 . S
O143 C137 1.268 . S
O144 Sc134 2.105 . S
O144 C138 1.268 . S
O145 Sc132 2.105 . S
O145 C139 1.268 . S
O146 Sc134 2.105 . S
O146 C140 1.268 . S
O147 Sc133 2.105 . S
O147 C141 1.268 . S
O148 Sc132 2.105 . S
O148 C140 1.268 . S
O149 Sc133 2.105 . S
O149 C139 1.268 . S
O150 Sc134 2.105 . S
O150 C141 1.268 . S
O151 Sc132 2.105 . S
O151 C137 1.268 . S
O152 Sc134 2.105 . S
O152 C136 1.268 . S
O153 Sc133 2.105 . S
O153 C138 1.268 . S
Sc154 O157 2.025 . S
Sc154 O164 2.105 . S
Sc154 O167 2.105 . S
Sc154 O170 2.105 . S
Sc154 O173 2.105 . S
Sc155 O157 2.025 . S
Sc155 O165 2.105 . S
Sc155 O169 2.105 . S
Sc155 O171 2.105 . S
Sc155 O175 2.105 . S
Sc156 O157 2.025 . S
Sc156 O166 2.105 . S
Sc156 O168 2.105 . S
Sc156 O172 2.105 . S
Sc156 O174 2.105 . S
O157 Sc154 2.025 . S
O157 Sc155 2.025 . S
O157 Sc156 2.025 . S
C158 O164 1.268 . S
C158 O174 1.268 . S
C159 O165 1.268 . S
C159 O173 1.268 . S
C160 O166 1.268 . S
C160 O175 1.268 . S
C161 O167 1.268 . S
C161 O171 1.268 . S
C162 O168 1.268 . S
C162 O170 1.268 . S
C163 O169 1.268 . S
C163 O172 1.268 . S
O164 Sc154 2.105 . S
O164 C158 1.268 . S
O165 Sc155 2.105 . S
O165 C159 1.268 . S
O166 Sc156 2.105 . S
O166 C160 1.268 . S
O167 Sc154 2.105 . S
O167 C161 1.268 . S
O168 Sc156 2.105 . S
O168 C162 1.268 . S
O169 Sc155 2.105 . S
O169 C163 1.268 . S
O170 Sc154 2.105 . S
O170 C162 1.268 . S
O171 Sc155 2.105 . S
O171 C161 1.268 . S
O172 Sc156 2.105 . S
O172 C163 1.268 . S
O173 Sc154 2.105 . S
O173 C159 1.268 . S
O174 Sc156 2.105 . S
O174 C158 1.268 . S
O175 Sc155 2.105 . S
O175 C160 1.268 . S
H176 C182 0.930 . S
H177 C186 0.930 . S
H178 C191 0.929 . S
H179 C189 0.929 . S
H180 C184 0.929 . S
H181 C190 0.929 . S
C182 H176 0.930 . S
C182 C183 1.367 . S
C182 C190 1.378 . S
C183 C182 1.367 . S
C183 C191 1.433 . S
C184 H180 0.929 . S
C184 C186 1.378 . S
C184 C188 1.350 . S
C185 C188 1.463 . S
C185 C190 1.350 1_565 S
C185 N193 1.427 . S
C186 H177 0.930 . S
C186 C184 1.378 . S
C186 C187 1.367 . S
C187 C186 1.367 . S
C187 C189 1.433 . S
C188 C184 1.350 . S
C188 C185 1.463 . S
C188 N192 1.427 . S
C189 H179 0.929 . S
C189 C187 1.433 . S
C189 N192 1.384 . S
C190 H181 0.929 . S
C190 C182 1.378 . S
C190 C185 1.350 1_545 S
C191 H178 0.929 . S
C191 C183 1.433 . S
C191 N193 1.384 1_545 S
N192 C188 1.427 . S
N192 C189 1.384 . S
N193 C185 1.427 . S
N193 C191 1.384 1_565 S
H194 C200 0.930 . S
H195 C204 0.930 . S
H196 C209 0.929 . S
H197 C207 0.929 . S
H198 C202 0.929 . S
H199 C208 0.929 . S
C200 H194 0.930 . S
C200 C201 1.367 . S
C200 C208 1.378 1_455 S
C201 C200 1.367 . S
C201 C209 1.433 . S
C202 H198 0.929 . S
C202 C204 1.378 . S
C202 C206 1.350 . S
C203 C206 1.463 . S
C203 C208 1.350 . S
C203 N211 1.427 . S
C204 H195 0.930 . S
C204 C202 1.378 . S
C204 C205 1.367 . S
C205 C204 1.367 . S
C205 C207 1.433 . S
C206 C202 1.350 . S
C206 C203 1.463 . S
C206 N210 1.427 . S
C207 H197 0.929 . S
C207 C205 1.433 . S
C207 N210 1.384 . S
C208 H199 0.929 . S
C208 C200 1.378 1_655 S
C208 C203 1.350 . S
C209 H196 0.929 . S
C209 C201 1.433 . S
C209 N211 1.384 1_455 S
N210 C206 1.427 . S
N210 C207 1.384 . S
N211 C203 1.427 . S
N211 C209 1.384 1_655 S
H212 C218 0.930 . S
H213 C222 0.930 . S
H214 C227 0.929 . S
H215 C225 0.929 . S
H216 C220 0.929 . S
H217 C226 0.929 1_545 S
C218 H212 0.930 . S
C218 C219 1.367 . S
C218 C226 1.378 . S
C219 C218 1.367 . S
C219 C227 1.433 . S
C220 H216 0.929 . S
C220 C222 1.378 . S
C220 C224 1.350 . S
C221 C224 1.463 . S
C221 C226 1.350 1_545 S
C221 N229 1.427 . S
C222 H213 0.930 . S
C222 C220 1.378 . S
C222 C223 1.367 . S
C223 C222 1.367 . S
C223 C225 1.433 . S
C224 C220 1.350 . S
C224 C221 1.463 . S
C224 N228 1.427 . S
C225 H215 0.929 . S
C225 C223 1.433 . S
C225 N228 1.384 . S
C226 H217 0.929 1_565 S
C226 C218 1.378 . S
C226 C221 1.350 1_565 S
C227 H214 0.929 . S
C227 C219 1.433 . S
C227 N229 1.384 1_565 S
N228 C224 1.427 . S
N228 C225 1.384 . S
N229 C221 1.427 . S
N229 C227 1.384 1_545 S
H230 C236 0.930 . S
H231 C240 0.930 . S
H232 C245 0.929 . S
H233 C243 0.929 . S
H234 C238 0.929 . S
H235 C244 0.929 . S
C236 H230 0.930 . S
C236 C237 1.367 . S
C236 C244 1.378 . S
C237 C236 1.367 . S
C237 C245 1.433 . S
C238 H234 0.929 . S
C238 C240 1.378 1_455 S
C238 C242 1.350 . S
C239 C242 1.463 . S
C239 C244 1.350 . S
C239 N247 1.427 . S
C240 H231 0.930 . S
C240 C238 1.378 1_655 S
C240 C241 1.367 . S
C241 C240 1.367 . S
C241 C243 1.433 . S
C242 C238 1.350 . S
C242 C239 1.463 . S
C242 N246 1.427 . S
C243 H233 0.929 . S
C243 C241 1.433 . S
C243 N246 1.384 1_655 S
C244 H235 0.929 . S
C244 C236 1.378 . S
C244 C239 1.350 . S
C245 H232 0.929 . S
C245 C237 1.433 . S
C245 N247 1.384 . S
N246 C242 1.427 . S
N246 C243 1.384 1_455 S
N247 C239 1.427 . S
N247 C245 1.384 . S
H248 C254 0.930 . S
H249 C258 0.930 . S
H250 C263 0.929 . S
H251 C261 0.929 . S
H252 C256 0.929 . S
H253 C262 0.929 . S
C254 H248 0.930 . S
C254 C255 1.367 . S
C254 C262 1.378 . S
C255 C254 1.367 . S
C255 C263 1.433 . S
C256 H252 0.929 . S
C256 C258 1.378 . S
C256 C260 1.350 1_556 S
C257 C260 1.463 . S
C257 C262 1.350 . S
C257 N265 1.427 . S
C258 H249 0.930 . S
C258 C256 1.378 . S
C258 C259 1.367 . S
C259 C258 1.367 . S
C259 C261 1.433 1_556 S
C260 C256 1.350 1_554 S
C260 C257 1.463 . S
C260 N264 1.427 . S
C261 H251 0.929 . S
C261 C259 1.433 1_554 S
C261 N264 1.384 . S
C262 H253 0.929 . S
C262 C254 1.378 . S
C262 C257 1.350 . S
C263 H250 0.929 . S
C263 C255 1.433 . S
C263 N265 1.384 . S
N264 C260 1.427 . S
N264 C261 1.384 . S
N265 C257 1.427 . S
N265 C263 1.384 . S
H266 C272 0.930 . S
H267 C276 0.930 . S
H268 C281 0.929 . S
H269 C279 0.929 . S
H270 C274 0.929 . S
H271 C280 0.929 . S
C272 H266 0.930 . S
C272 C273 1.367 . S
C272 C280 1.378 . S
C273 C272 1.367 . S
C273 C281 1.433 . S
C274 H270 0.929 . S
C274 C276 1.378 1_556 S
C274 C278 1.350 . S
C275 C278 1.463 . S
C275 C280 1.350 . S
C275 N283 1.427 . S
C276 H267 0.930 . S
C276 C274 1.378 1_554 S
C276 C277 1.367 . S
C277 C276 1.367 . S
C277 C279 1.433 . S
C278 C274 1.350 . S
C278 C275 1.463 . S
C278 N282 1.427 1_556 S
C279 H269 0.929 . S
C279 C277 1.433 . S
C279 N282 1.384 . S
C280 H271 0.929 . S
C280 C272 1.378 . S
C280 C275 1.350 . S
C281 H268 0.929 . S
C281 C273 1.433 . S
C281 N283 1.384 . S
N282 C278 1.427 1_554 S
N282 C279 1.384 . S
N283 C275 1.427 . S
N283 C281 1.384 . S
H284 C290 0.930 . S
H285 C294 0.930 . S
H286 C299 0.929 . S
H287 C297 0.929 . S
H288 C292 0.929 . S
H289 C298 0.929 1_556 S
C290 H284 0.930 . S
C290 C291 1.367 . S
C290 C298 1.378 . S
C291 C290 1.367 . S
C291 C299 1.433 . S
C292 H288 0.929 . S
C292 C294 1.378 . S
C292 C296 1.350 . S
C293 C296 1.463 . S
C293 C298 1.350 . S
C293 N301 1.427 . S
C294 H285 0.930 . S
C294 C292 1.378 . S
C294 C295 1.367 1_554 S
C295 C294 1.367 1_556 S
C295 C297 1.433 . S
C296 C292 1.350 . S
C296 C293 1.463 . S
C296 N300 1.427 1_554 S
C297 H287 0.929 . S
C297 C295 1.433 . S
C297 N300 1.384 . S
C298 H289 0.929 1_554 S
C298 C290 1.378 . S
C298 C293 1.350 . S
C299 H286 0.929 . S
C299 C291 1.433 . S
C299 N301 1.384 . S
N300 C296 1.427 1_556 S
N300 C297 1.384 . S
N301 C293 1.427 . S
N301 C299 1.384 . S
H302 C308 0.930 . S
H303 C312 0.930 . S
H304 C317 0.929 . S
H305 C315 0.929 . S
H306 C310 0.929 . S
H307 C316 0.929 . S
C308 H302 0.930 . S
C308 C309 1.367 . S
C308 C316 1.378 1_554 S
C309 C308 1.367 . S
C309 C317 1.433 . S
C310 H306 0.929 . S
C310 C312 1.378 . S
C310 C314 1.350 . S
C311 C314 1.463 . S
C311 C316 1.350 . S
C311 N319 1.427 1_556 S
C312 H303 0.930 . S
C312 C310 1.378 . S
C312 C313 1.367 . S
C313 C312 1.367 . S
C313 C315 1.433 . S
C314 C310 1.350 . S
C314 C311 1.463 . S
C314 N318 1.427 . S
C315 H305 0.929 . S
C315 C313 1.433 . S
C315 N318 1.384 . S
C316 H307 0.929 . S
C316 C308 1.378 1_556 S
C316 C311 1.350 . S
C317 H304 0.929 . S
C317 C309 1.433 . S
C317 N319 1.384 . S
N318 C314 1.427 . S
N318 C315 1.384 . S
N319 C311 1.427 1_554 S
N319 C317 1.384 . S
H320 C326 0.930 . S
H321 C330 0.930 . S
H322 C335 0.929 . S
H323 C333 0.929 . S
H324 C328 0.929 . S
H325 C334 0.929 . S
C326 H320 0.930 . S
C326 C327 1.367 . S
C326 C334 1.378 . S
C327 C326 1.367 . S
C327 C335 1.433 . S
C328 H324 0.929 . S
C328 C330 1.378 . S
C328 C332 1.350 . S
C329 C332 1.463 . S
C329 C334 1.350 . S
C329 N337 1.427 . S
C330 H321 0.930 . S
C330 C328 1.378 . S
C330 C331 1.367 . S
C331 C330 1.367 . S
C331 C333 1.433 . S
C332 C328 1.350 . S
C332 C329 1.463 . S
C332 N336 1.427 . S
C333 H323 0.929 . S
C333 C331 1.433 . S
C333 N336 1.384 . S
C334 H325 0.929 . S
C334 C326 1.378 . S
C334 C329 1.350 . S
C335 H322 0.929 . S
C335 C327 1.433 . S
C335 N337 1.384 . S
N336 C332 1.427 . S
N336 C333 1.384 . S
N337 C329 1.427 . S
N337 C335 1.384 . S
H338 C344 0.930 . S
H339 C348 0.930 . S
H340 C353 0.929 . S
H341 C351 0.929 . S
H342 C346 0.929 . S
H343 C352 0.929 . S
C344 H338 0.930 . S
C344 C345 1.367 . S
C344 C352 1.378 . S
C345 C344 1.367 . S
C345 C353 1.433 . S
C346 H342 0.929 . S
C346 C348 1.378 . S
C346 C350 1.350 . S
C347 C350 1.463 . S
C347 C352 1.350 . S
C347 N355 1.427 . S
C348 H339 0.930 . S
C348 C346 1.378 . S
C348 C349 1.367 . S
C349 C348 1.367 . S
C349 C351 1.433 . S
C350 C346 1.350 . S
C350 C347 1.463 . S
C350 N354 1.427 . S
C351 H341 0.929 . S
C351 C349 1.433 . S
C351 N354 1.384 . S
C352 H343 0.929 . S
C352 C344 1.378 . S
C352 C347 1.350 . S
C353 H340 0.929 . S
C353 C345 1.433 . S
C353 N355 1.384 . S
N354 C350 1.427 . S
N354 C351 1.384 . S
N355 C347 1.427 . S
N355 C353 1.384 . S
H356 C362 0.930 . S
H357 C366 0.930 . S
H358 C371 0.929 . S
H359 C369 0.929 . S
H360 C364 0.929 . S
H361 C370 0.929 . S
C362 H356 0.930 . S
C362 C363 1.367 . S
C362 C370 1.378 . S
C363 C362 1.367 . S
C363 C371 1.433 . S
C364 H360 0.929 . S
C364 C366 1.378 . S
C364 C368 1.350 . S
C365 C368 1.463 . S
C365 C370 1.350 . S
C365 N373 1.427 . S
C366 H357 0.930 . S
C366 C364 1.378 . S
C366 C367 1.367 . S
C367 C366 1.367 . S
C367 C369 1.433 . S
C368 C364 1.350 . S
C368 C365 1.463 . S
C368 N372 1.427 . S
C369 H359 0.929 . S
C369 C367 1.433 . S
C369 N372 1.384 . S
C370 H361 0.929 . S
C370 C362 1.378 . S
C370 C365 1.350 . S
C371 H358 0.929 . S
C371 C363 1.433 . S
C371 N373 1.384 . S
N372 C368 1.427 . S
N372 C369 1.384 . S
N373 C365 1.427 . S
N373 C371 1.384 . S
H374 C380 0.930 . S
H375 C384 0.930 . S
H376 C389 0.929 . S
H377 C387 0.929 . S
H378 C382 0.929 . S
H379 C388 0.929 . S
C380 H374 0.930 . S
C380 C381 1.367 . S
C380 C388 1.378 . S
C381 C380 1.367 . S
C381 C389 1.433 . S
C382 H378 0.929 . S
C382 C384 1.378 . S
C382 C386 1.350 . S
C383 C386 1.463 . S
C383 C388 1.350 . S
C383 N391 1.427 . S
C384 H375 0.930 . S
C384 C382 1.378 . S
C384 C385 1.367 . S
C385 C384 1.367 . S
C385 C387 1.433 . S
C386 C382 1.350 . S
C386 C383 1.463 . S
C386 N390 1.427 . S
C387 H377 0.929 . S
C387 C385 1.433 . S
C387 N390 1.384 . S
C388 H379 0.929 . S
C388 C380 1.378 . S
C388 C383 1.350 . S
C389 H376 0.929 . S
C389 C381 1.433 . S
C389 N391 1.384 . S
N390 C386 1.427 . S
N390 C387 1.384 . S
N391 C383 1.427 . S
N391 C389 1.384 . S
H392 C398 0.930 . S
H393 C402 0.930 . S
H394 C407 0.929 . S
H395 C405 0.929 . S
H396 C400 0.929 . S
H397 C406 0.929 . S
C398 H392 0.930 . S
C398 C399 1.367 . S
C398 C406 1.378 . S
C399 C398 1.367 . S
C399 C407 1.433 . S
C400 H396 0.929 . S
C400 C402 1.378 1_545 S
C400 C404 1.350 . S
C401 C404 1.463 . S
C401 C406 1.350 . S
C401 N409 1.427 . S
C402 H393 0.930 . S
C402 C400 1.378 1_565 S
C402 C403 1.367 . S
C403 C402 1.367 . S
C403 C405 1.433 . S
C404 C400 1.350 . S
C404 C401 1.463 . S
C404 N408 1.427 . S
C405 H395 0.929 . S
C405 C403 1.433 . S
C405 N408 1.384 1_565 S
C406 H397 0.929 . S
C406 C398 1.378 . S
C406 C401 1.350 . S
C407 H394 0.929 . S
C407 C399 1.433 . S
C407 N409 1.384 . S
N408 C404 1.427 . S
N408 C405 1.384 1_545 S
N409 C401 1.427 . S
N409 C407 1.384 . S
H410 C416 0.930 . S
H411 C420 0.930 . S
H412 C425 0.929 . S
H413 C423 0.929 . S
H414 C418 0.929 . S
H415 C424 0.929 . S
C416 H410 0.930 . S
C416 C417 1.367 . S
C416 C424 1.378 . S
C417 C416 1.367 . S
C417 C425 1.433 . S
C418 H414 0.929 . S
C418 C420 1.378 1_455 S
C418 C422 1.350 . S
C419 C422 1.463 . S
C419 C424 1.350 . S
C419 N427 1.427 . S
C420 H411 0.930 . S
C420 C418 1.378 1_655 S
C420 C421 1.367 . S
C421 C420 1.367 . S
C421 C423 1.433 . S
C422 C418 1.350 . S
C422 C419 1.463 . S
C422 N426 1.427 . S
C423 H413 0.929 . S
C423 C421 1.433 . S
C423 N426 1.384 1_655 S
C424 H415 0.929 . S
C424 C416 1.378 . S
C424 C419 1.350 . S
C425 H412 0.929 . S
C425 C417 1.433 . S
C425 N427 1.384 . S
N426 C422 1.427 . S
N426 C423 1.384 1_455 S
N427 C419 1.427 . S
N427 C425 1.384 . S
H428 C434 0.930 . S
H429 C438 0.930 . S
H430 C443 0.929 . S
H431 C441 0.929 . S
H432 C436 0.929 . S
H433 C442 0.929 . S
C434 H428 0.930 . S
C434 C435 1.367 . S
C434 C442 1.378 . S
C435 C434 1.367 . S
C435 C443 1.433 . S
C436 H432 0.929 . S
C436 C438 1.378 1_565 S
C436 C440 1.350 . S
C437 C440 1.463 . S
C437 C442 1.350 . S
C437 N445 1.427 . S
C438 H429 0.930 . S
C438 C436 1.378 1_545 S
C438 C439 1.367 . S
C439 C438 1.367 . S
C439 C441 1.433 . S
C440 C436 1.350 . S
C440 C437 1.463 . S
C440 N444 1.427 . S
C441 H431 0.929 . S
C441 C439 1.433 . S
C441 N444 1.384 1_545 S
C442 H433 0.929 . S
C442 C434 1.378 . S
C442 C437 1.350 . S
C443 H430 0.929 . S
C443 C435 1.433 . S
C443 N445 1.384 . S
N444 C440 1.427 . S
N444 C441 1.384 1_565 S
N445 C437 1.427 . S
N445 C443 1.384 . S
H446 C452 0.930 . S
H447 C456 0.930 . S
H448 C461 0.929 . S
H449 C459 0.929 . S
H450 C454 0.929 . S
H451 C460 0.929 . S
C452 H446 0.930 . S
C452 C453 1.367 . S
C452 C460 1.378 1_455 S
C453 C452 1.367 . S
C453 C461 1.433 . S
C454 H450 0.929 . S
C454 C456 1.378 . S
C454 C458 1.350 . S
C455 C458 1.463 . S
C455 C460 1.350 . S
C455 N463 1.417 1_655 S
C456 H447 0.930 . S
C456 C454 1.378 . S
C456 C457 1.367 . S
C457 C456 1.367 . S
C457 C459 1.433 . S
C458 C454 1.350 . S
C458 C455 1.463 . S
C458 N462 1.427 . S
C459 H449 0.929 . S
C459 C457 1.433 . S
C459 N462 1.384 . S
C460 H451 0.929 . S
C460 C452 1.378 1_655 S
C460 C455 1.350 . S
C461 H448 0.929 . S
C461 C453 1.433 . S
C461 N463 1.396 . S
N462 C458 1.427 . S
N462 C459 1.384 . S
N463 C455 1.417 1_455 S
N463 C461 1.396 . S
H464 C470 0.930 1_556 S
H465 C474 0.930 . S
H466 C479 0.929 . S
H467 C477 0.929 . S
H468 C472 0.929 . S
H469 C478 0.929 . S
C470 H464 0.930 1_554 S
C470 C471 1.367 . S
C470 C478 1.378 . S
C471 C470 1.367 . S
C471 C479 1.433 . S
C472 H468 0.929 . S
C472 C474 1.378 . S
C472 C476 1.350 . S
C473 C476 1.463 . S
C473 C478 1.350 . S
C473 N481 1.427 . S
C474 H465 0.930 . S
C474 C472 1.378 . S
C474 C475 1.367 . S
C475 C474 1.367 . S
C475 C477 1.433 . S
C476 C472 1.350 . S
C476 C473 1.463 . S
C476 N480 1.427 . S
C477 H467 0.929 . S
C477 C475 1.433 . S
C477 N480 1.384 . S
C478 H469 0.929 . S
C478 C470 1.378 . S
C478 C473 1.350 . S
C479 H466 0.929 . S
C479 C471 1.433 . S
C479 N481 1.384 . S
N480 C476 1.427 . S
N480 C477 1.384 . S
N481 C473 1.427 . S
N481 C479 1.384 . S
H482 C488 0.930 1_554 S
H483 C492 0.930 . S
H484 C497 0.929 . S
H485 C495 0.929 . S
H486 C490 0.929 . S
H487 C496 0.929 . S
C488 H482 0.930 1_556 S
C488 C489 1.367 . S
C488 C496 1.378 . S
C489 C488 1.367 . S
C489 C497 1.433 . S
C490 H486 0.929 . S
C490 C492 1.378 . S
C490 C494 1.350 . S
C491 C494 1.463 . S
C491 C496 1.350 . S
C491 N499 1.427 . S
C492 H483 0.930 . S
C492 C490 1.378 . S
C492 C493 1.367 . S
C493 C492 1.367 . S
C493 C495 1.433 . S
C494 C490 1.350 . S
C494 C491 1.463 . S
C494 N498 1.427 . S
C495 H485 0.929 . S
C495 C493 1.433 . S
C495 N498 1.384 . S
C496 H487 0.929 . S
C496 C488 1.378 . S
C496 C491 1.350 . S
C497 H484 0.929 . S
C497 C489 1.433 . S
C497 N499 1.384 . S
N498 C494 1.427 . S
N498 C495 1.384 . S
N499 C491 1.427 . S
N499 C497 1.384 . S
H500 C506 0.930 . S
H501 C510 0.930 . S
H502 C515 0.929 . S
H503 C513 0.929 1_556 S
H504 C508 0.929 . S
H505 C514 0.929 . S
C506 H500 0.930 . S
C506 C507 1.367 . S
C506 C514 1.378 . S
C507 C506 1.367 . S
C507 C515 1.433 . S
C508 H504 0.929 . S
C508 C510 1.378 . S
C508 C512 1.350 . S
C509 C512 1.463 . S
C509 C514 1.350 . S
C509 N517 1.427 . S
C510 H501 0.930 . S
C510 C508 1.378 . S
C510 C511 1.367 . S
C511 C510 1.367 . S
C511 C513 1.433 . S
C512 C508 1.350 . S
C512 C509 1.463 . S
C512 N516 1.427 . S
C513 H503 0.929 1_554 S
C513 C511 1.433 . S
C513 N516 1.384 . S
C514 H505 0.929 . S
C514 C506 1.378 . S
C514 C509 1.350 . S
C515 H502 0.929 . S
C515 C507 1.433 . S
C515 N517 1.384 . S
N516 C512 1.427 . S
N516 C513 1.384 . S
N517 C509 1.427 . S
N517 C515 1.384 . S
H518 C524 0.930 . S
H519 C528 0.930 . S
H520 C533 0.929 . S
H521 C531 0.929 1_554 S
H522 C526 0.929 . S
H523 C532 0.929 . S
C524 H518 0.930 . S
C524 C525 1.367 . S
C524 C532 1.378 . S
C525 C524 1.367 . S
C525 C533 1.433 . S
C526 H522 0.929 . S
C526 C528 1.378 . S
C526 C530 1.350 . S
C527 C530 1.463 . S
C527 C532 1.350 . S
C527 N535 1.427 . S
C528 H519 0.930 . S
C528 C526 1.378 . S
C528 C529 1.367 . S
C529 C528 1.367 . S
C529 C531 1.433 . S
C530 C526 1.350 . S
C530 C527 1.463 . S
C530 N534 1.427 . S
C531 H521 0.929 1_556 S
C531 C529 1.433 . S
C531 N534 1.384 . S
C532 H523 0.929 . S
C532 C524 1.378 . S
C532 C527 1.350 . S
C533 H520 0.929 . S
C533 C525 1.433 . S
C533 N535 1.384 . S
N534 C530 1.427 . S
N534 C531 1.384 . S
N535 C527 1.427 . S
N535 C533 1.384 . S
H536 C542 0.930 . S
H537 C546 0.930 . S
H538 C551 0.929 . S
H539 C549 0.929 . S
H540 C544 0.929 . S
H541 C550 0.929 . S
C542 H536 0.930 . S
C542 C543 1.367 . S
C542 C550 1.378 . S
C543 C542 1.367 . S
C543 C551 1.433 . S
C544 H540 0.929 . S
C544 C546 1.378 . S
C544 C548 1.350 . S
C545 C548 1.463 . S
C545 C550 1.350 . S
C545 N553 1.427 . S
C546 H537 0.930 . S
C546 C544 1.378 . S
C546 C547 1.367 . S
C547 C546 1.367 . S
C547 C549 1.433 . S
C548 C544 1.350 . S
C548 C545 1.463 . S
C548 N552 1.427 . S
C549 H539 0.929 . S
C549 C547 1.433 . S
C549 N552 1.384 . S
C550 H541 0.929 . S
C550 C542 1.378 . S
C550 C545 1.350 . S
C551 H538 0.929 . S
C551 C543 1.433 . S
C551 N553 1.384 . S
N552 C548 1.427 . S
N552 C549 1.384 . S
N553 C545 1.427 . S
N553 C551 1.384 . S
H554 C560 0.930 . S
H555 C564 0.930 . S
H556 C569 0.929 . S
H557 C567 0.929 . S
H558 C562 0.929 . S
H559 C568 0.929 . S
C560 H554 0.930 . S
C560 C561 1.367 . S
C560 C568 1.378 . S
C561 C560 1.367 . S
C561 C569 1.433 . S
C562 H558 0.929 . S
C562 C564 1.378 . S
C562 C566 1.350 . S
C563 C566 1.463 . S
C563 C568 1.350 . S
C563 N571 1.427 . S
C564 H555 0.930 . S
C564 C562 1.378 . S
C564 C565 1.367 . S
C565 C564 1.367 . S
C565 C567 1.433 . S
C566 C562 1.350 . S
C566 C563 1.463 . S
C566 N570 1.427 . S
C567 H557 0.929 . S
C567 C565 1.433 . S
C567 N570 1.384 . S
C568 H559 0.929 . S
C568 C560 1.378 . S
C568 C563 1.350 . S
C569 H556 0.929 . S
C569 C561 1.433 . S
C569 N571 1.384 . S
N570 C566 1.427 . S
N570 C567 1.384 . S
N571 C563 1.427 . S
N571 C569 1.384 . S
H572 C578 0.930 . S
H573 C582 0.930 . S
H574 C587 0.929 . S
H575 C585 0.929 . S
H576 C580 0.929 . S
H577 C586 0.929 . S
C578 H572 0.930 . S
C578 C579 1.367 . S
C578 C586 1.378 . S
C579 C578 1.367 . S
C579 C587 1.433 . S
C580 H576 0.929 . S
C580 C582 1.378 . S
C580 C584 1.350 . S
C581 C584 1.463 . S
C581 C586 1.350 . S
C581 N589 1.427 . S
C582 H573 0.930 . S
C582 C580 1.378 . S
C582 C583 1.367 . S
C583 C582 1.367 . S
C583 C585 1.433 . S
C584 C580 1.350 . S
C584 C581 1.463 . S
C584 N588 1.427 . S
C585 H575 0.929 . S
C585 C583 1.433 . S
C585 N588 1.384 . S
C586 H577 0.929 . S
C586 C578 1.378 . S
C586 C581 1.350 . S
C587 H574 0.929 . S
C587 C579 1.433 . S
C587 N589 1.384 . S
N588 C584 1.427 . S
N588 C585 1.384 . S
N589 C581 1.427 . S
N589 C587 1.384 . S
H590 C596 0.930 . S
H591 C600 0.930 . S
H592 C605 0.929 . S
H593 C603 0.929 . S
H594 C598 0.929 . S
H595 C604 0.929 . S
C596 H590 0.930 . S
C596 C597 1.367 . S
C596 C604 1.378 . S
C597 C596 1.367 . S
C597 C605 1.433 . S
C598 H594 0.929 . S
C598 C600 1.378 . S
C598 C602 1.350 . S
C599 C602 1.463 . S
C599 C604 1.350 . S
C599 N607 1.427 . S
C600 H591 0.930 . S
C600 C598 1.378 . S
C600 C601 1.367 . S
C601 C600 1.367 . S
C601 C603 1.433 . S
C602 C598 1.350 . S
C602 C599 1.463 . S
C602 N606 1.427 . S
C603 H593 0.929 . S
C603 C601 1.433 . S
C603 N606 1.384 . S
C604 H595 0.929 . S
C604 C596 1.378 . S
C604 C599 1.350 . S
C605 H592 0.929 . S
C605 C597 1.433 . S
C605 N607 1.384 . S
N606 C602 1.427 . S
N606 C603 1.384 . S
N607 C599 1.427 . S
N607 C605 1.384 . S
C183 C7 1.158 . S
C187 C119 1.191 . S
C201 C29 1.152 . S
C205 C140 1.191 . S
C219 C50 1.159 . S
C223 C163 1.192 . S
C237 C92 1.191 . S
C241 C73 1.152 . S
C255 C114 1.189 . S
C259 C97 1.144 . S
C273 C138 1.192 . S
C277 C115 1.158 . S
C291 C158 1.189 . S
C295 C137 1.151 . S
C309 C159 1.144 . S
C313 C95 1.188 . S
C327 C139 1.156 . S
C331 C75 1.191 . S
C345 C161 1.140 . S
C349 C8 1.188 . S
C363 C31 1.189 . S
C367 C94 1.146 . S
C381 C48 1.191 . S
C385 C117 1.156 . S
C399 C70 1.190 . S
C403 C53 1.149 . S
C417 C6 1.191 . S
C421 C71 1.153 . S
C435 C26 1.190 . S
C439 C5 1.147 . S
C453 C27 1.140 . S
C457 C51 1.187 . S
C471 C96 1.436 1_554 S
C475 C9 1.434 . S
C489 C116 1.434 1_556 S
C493 C30 1.434 . S
C507 C49 1.443 . S
C511 C136 1.444 1_554 S
C525 C74 1.444 . S
C529 C160 1.445 1_556 S
C543 C52 1.434 . S
C547 C141 1.435 . S
C561 C72 1.440 . S
C565 C162 1.438 . S
C579 C93 1.435 . S
C583 C4 1.434 . S
C597 C118 1.445 . S
C601 C28 1.444 . S
