# Generated by pormake.
# Topology oof, (8)-cn, num edge types: 1
# Building blocks:
#     Node 0, Type 0, BuildingBlock: EBIMEJ_clean_sbu_0, # of connection points: 8
#     Node 1, Type 0, BuildingBlock: EBIMEJ_clean_sbu_0, # of connection points: 8
#     Node 2, Type 0, BuildingBlock: EBIMEJ_clean_sbu_0, # of connection points: 8
#     Node 3, Type 0, BuildingBlock: EBIMEJ_clean_sbu_0, # of connection points: 8
#     Edge 4, Type (0, 0), BuildingBlock: XUDNAN_clean_linker_2, # of connection points: 2
#     Edge 5, Type (0, 0), BuildingBlock: XUDNAN_clean_linker_2, # of connection points: 2
#     Edge 6, Type (0, 0), BuildingBlock: XUDNAN_clean_linker_2, # of connection points: 2
#     Edge 7, Type (0, 0), BuildingBlock: XUDNAN_clean_linker_2, # of connection points: 2
#     Edge 8, Type (0, 0), BuildingBlock: XUDNAN_clean_linker_2, # of connection points: 2
#     Edge 9, Type (0, 0), BuildingBlock: XUDNAN_clean_linker_2, # of connection points: 2
#     Edge 10, Type (0, 0), BuildingBlock: XUDNAN_clean_linker_2, # of connection points: 2
#     Edge 11, Type (0, 0), BuildingBlock: XUDNAN_clean_linker_2, # of connection points: 2
#     Edge 12, Type (0, 0), BuildingBlock: XUDNAN_clean_linker_2, # of connection points: 2
#     Edge 13, Type (0, 0), BuildingBlock: XUDNAN_clean_linker_2, # of connection points: 2
#     Edge 14, Type (0, 0), BuildingBlock: XUDNAN_clean_linker_2, # of connection points: 2
#     Edge 15, Type (0, 0), BuildingBlock: XUDNAN_clean_linker_2, # of connection points: 2
#     Edge 16, Type (0, 0), BuildingBlock: XUDNAN_clean_linker_2, # of connection points: 2
#     Edge 17, Type (0, 0), BuildingBlock: XUDNAN_clean_linker_2, # of connection points: 2
#     Edge 18, Type (0, 0), BuildingBlock: XUDNAN_clean_linker_2, # of connection points: 2
#     Edge 19, Type (0, 0), BuildingBlock: XUDNAN_clean_linker_2, # of connection points: 2
# Relax obj value: 0.053
# Max RMSD: 0.153
# Mean RMSD: 0.153
data_MOF--net-oof--node1-EBIMEJ_clean_sbu_0--edge1-XUDNAN_clean_linker_2
_symmetry_space_group_name_H-M    P1
_symmetry_Int_Tables_number       1
_symmetry_cell_setting            triclinic
loop_
_symmetry_equiv_pos_as_xyz
'x, y, z'
_cell_length_a     15.148235
_cell_length_b     67.384181
_cell_length_c     17.575503
_cell_angle_alpha  79.164824
_cell_angle_beta   122.61645
_cell_angle_gamma 95.523115
loop_
_atom_site_label
_atom_site_type_symbol
_atom_site_fract_x
_atom_site_fract_y
_atom_site_fract_z
_atom_type_partial_charge
Co0 Co 0.97866 0.18153 0.33693 0.0
Co1 Co 0.95558 0.16229 0.16662 0.0
Co2 Co 0.98849 0.13471 0.33824 0.0
H3 H -0.00099 0.15831 0.32455 0.0
O4 O 0.0351 0.16285 0.30048 0.0
H5 H 0.97146 0.13831 0.18964 0.0
O6 O 0.93187 0.13279 0.20877 0.0
Co7 Co 0.01787 0.1158 0.19305 0.0
O8 O 0.9648 0.12888 0.06214 0.0
O9 O 0.88921 0.15888 0.03432 0.0
O10 O 0.99238 0.09332 0.27343 0.0
O11 O 0.95789 0.1056 0.3654 0.0
O12 O 0.08029 0.20561 0.35918 0.0
O13 O 0.02393 0.19641 0.44465 0.0
O14 O 0.14858 0.1313 0.2644 0.0
O15 O 0.09174 0.16093 0.17658 0.0
C16 C 0.00496 0.15097 0.49399 0.0
C17 C 0.91828 0.20604 0.15377 0.0
C18 C 0.05018 0.08462 0.15214 0.0
C19 C 0.78914 0.15766 0.24216 0.0
C20 C 0.91274 0.14468 0.00792 0.0
C21 C 0.96801 0.0909 0.33374 0.0
C22 C 0.07993 0.2089 0.42688 0.0
C23 C 0.16372 0.1477 0.22434 0.0
O24 O 0.9734 0.16848 0.44713 0.0
O25 O 0.03187 0.13749 0.46708 0.0
O26 O 0.95248 0.19292 0.13046 0.0
O27 O 0.9102 0.20221 0.22352 0.0
O28 O 0.11193 0.09134 0.22548 0.0
O29 O 0.96958 0.09551 0.10219 0.0
O30 O 0.8316 0.17486 0.24374 0.0
O31 O 0.84147 0.14158 0.29124 0.0
Co32 Co 0.03134 0.9326 0.84106 0.0
Co33 Co 0.05102 0.91022 0.69867 0.0
Co34 Co 0.08176 0.88543 0.8735 0.0
H35 H 0.07305 0.90943 0.84761 0.0
O36 O 0.11291 0.91383 0.82723 0.0
H37 H 0.03608 0.88688 0.71624 0.0
O38 O 0.00124 0.88349 0.742 0.0
Co39 Co 0.04213 0.86268 0.70511 0.0
O40 O 0.04969 0.87351 0.59545 0.0
O41 O 0.00119 0.9057 0.5698 0.0
O42 O 0.15372 0.85255 0.83619 0.0
O43 O 0.07802 0.85494 0.91125 0.0
O44 O 0.9708 0.95803 0.84947 0.0
O45 O 0.12816 0.95082 0.93703 0.0
O46 O 0.19274 0.86801 0.75561 0.0
O47 O 0.19434 0.90185 0.73725 0.0
C48 C 0.10612 0.90348 0.02155 0.0
C49 C 0.05069 0.95415 0.67819 0.0
C50 C 0.90484 0.83693 0.63519 0.0
C51 C 0.87222 0.90153 0.78152 0.0
C52 C 0.02778 0.89111 0.54799 0.0
C53 C 0.12695 0.84425 0.8916 0.0
C54 C 0.05721 0.96302 0.91442 0.0
C55 C 0.23927 0.88482 0.75855 0.0
O56 O 0.05182 0.91871 0.96319 0.0
O57 O 0.14373 0.89027 1.00199 0.0
O58 O 0.0813 0.93858 0.66612 0.0
O59 O 0.02179 0.95351 0.7352 0.0
O60 O 0.96925 0.84293 0.61206 0.0
O61 O 0.91738 0.84577 0.69702 0.0
O62 O 0.89606 0.91923 0.75801 0.0
O63 O 0.94063 0.88934 0.84853 0.0
Co64 Co 0.45608 0.6836 0.32223 0.0
Co65 Co 0.43852 0.66085 0.16905 0.0
Co66 Co 0.47613 0.63657 0.34736 0.0
H67 H 0.48366 0.65987 0.32396 0.0
O68 O 0.51999 0.66374 0.29962 0.0
H69 H 0.45516 0.63683 0.19833 0.0
O70 O 0.41838 0.63199 0.22123 0.0
Co71 Co 0.49473 0.61344 0.20185 0.0
O72 O 0.45606 0.62681 0.07303 0.0
O73 O 0.36883 0.65542 0.04098 0.0
O74 O 0.50424 0.59311 0.30982 0.0
O75 O 0.45172 0.60811 0.38405 0.0
O76 O 0.48266 0.70124 0.41593 0.0
O77 O 0.56581 0.7065 0.35162 0.0
O78 O 0.63257 0.6272 0.24042 0.0
O79 O 0.57379 0.65891 0.1789 0.0
C80 C 0.47302 0.65673 0.48278 0.0
C81 C 0.40035 0.70567 0.14037 0.0
C82 C 0.47399 0.58279 0.13169 0.0
C83 C 0.2751 0.6579 0.23206 0.0
C84 C 0.40128 0.64224 0.01706 0.0
C85 C 0.47936 0.59251 0.36957 0.0
C86 C 0.55005 0.71201 0.40767 0.0
C87 C 0.64377 0.64541 0.21096 0.0
O88 O 0.43037 0.67195 0.42067 0.0
O89 O 0.51588 0.64262 0.47257 0.0
O90 O 0.43397 0.69139 0.12208 0.0
O91 O 0.38777 0.70313 0.20725 0.0
O92 O 0.53971 0.584 0.2145 0.0
O93 O 0.41998 0.59862 0.09077 0.0
O94 O 0.31884 0.67436 0.22272 0.0
O95 O 0.32715 0.64329 0.29566 0.0
Co96 Co 0.52423 0.43028 0.85748 0.0
Co97 Co 0.55215 0.41157 0.7119 0.0
Co98 Co 0.58176 0.38418 0.88342 0.0
H99 H 0.57192 0.40808 0.86206 0.0
O100 O 0.6125 0.41329 0.84327 0.0
H101 H 0.53491 0.38808 0.72303 0.0
O102 O 0.5009 0.38413 0.74927 0.0
Co103 Co 0.53662 0.36428 0.70351 0.0
O104 O 0.53004 0.37655 0.58717 0.0
O105 O 0.50041 0.40903 0.5808 0.0
O106 O 0.64923 0.35311 0.83306 0.0
O107 O 0.57892 0.35357 0.91431 0.0
O108 O 0.54979 0.4472 0.95536 0.0
O109 O 0.44891 0.45768 0.81752 0.0
O110 O 0.68512 0.36965 0.74952 0.0
O111 O 0.69449 0.40319 0.74715 0.0
C112 C 0.61986 0.40125 0.04142 0.0
C113 C 0.5729 0.45521 0.71553 0.0
C114 C 0.41236 0.33615 0.64255 0.0
C115 C 0.37092 0.39885 0.79435 0.0
C116 C 0.5122 0.39484 0.54698 0.0
C117 C 0.62498 0.34379 0.88894 0.0
C118 C 0.48977 0.46135 0.89735 0.0
C119 C 0.73493 0.38614 0.75987 0.0
O120 O 0.5702 0.41724 0.98711 0.0
O121 O 0.64408 0.38706 0.01562 0.0
O122 O 0.58623 0.44053 0.68558 0.0
O123 O 0.54724 0.45265 0.77507 0.0
O124 O 0.46977 0.34374 0.61357 0.0
O125 O 0.42312 0.34494 0.70383 0.0
O126 O 0.3928 0.41669 0.77109 0.0
O127 O 0.44105 0.38699 0.86148 0.0
H128 H 0.96581 0.17434 0.90725 0.0
H129 H 0.8157 0.11608 0.90143 0.0
H130 H 0.83082 0.11078 0.77398 0.0
H131 H 0.84587 0.18732 0.65157 0.0
H132 H 0.96392 0.19951 0.66571 0.0
H133 H 0.93037 0.19961 0.74965 0.0
H134 H 0.11194 0.1839 0.87594 0.0
H135 H 0.14455 0.1831 0.79201 0.0
H136 H 0.14939 0.1603 0.86671 0.0
H137 H 0.88628 0.10929 0.66396 0.0
H138 H 0.93972 0.11534 0.55105 0.0
H139 H 0.04344 0.17543 0.61783 0.0
C140 C 0.93101 0.16102 0.87566 0.0
C141 C 0.88704 0.14583 0.91293 0.0
C142 C 0.84718 0.12812 0.87254 0.0
C143 C 0.85686 0.12483 0.80093 0.0
C144 C 0.90568 0.13951 0.76906 0.0
C145 C 0.93899 0.15757 0.80273 0.0
C146 C 0.99046 0.17061 0.75665 0.0
C147 C 0.92896 0.19044 0.70266 0.0
C148 C 0.10591 0.17471 0.82704 0.0
C149 C 0.98149 0.15696 0.69289 0.0
C150 C 0.93425 0.13892 0.70266 0.0
C151 C 0.92174 0.1235 0.65451 0.0
C152 C 0.95369 0.12695 0.59139 0.0
C153 C 0.99592 0.14579 0.57562 0.0
C154 C 0.01149 0.16084 0.62845 0.0
H155 H 0.92439 0.91192 0.36731 0.0
H156 H 0.20646 0.87796 0.5778 0.0
H157 H 0.26186 0.87905 0.46969 0.0
H158 H 0.87518 0.88714 0.18876 0.0
H159 H 0.83003 0.9091 0.10055 0.0
H160 H 0.816 0.90801 0.19666 0.0
H161 H 0.91814 0.94152 0.23357 0.0
H162 H 0.93145 0.94283 0.13683 0.0
H163 H 0.04626 0.94372 0.24915 0.0
H164 H 0.27809 0.87961 0.33656 0.0
H165 H 0.26138 0.88323 0.18639 0.0
H166 H 0.97322 0.91741 0.06017 0.0
C167 C 0.99875 0.9052 0.39069 0.0
C168 C 0.06109 0.8949 0.48122 0.0
C169 C 0.15728 0.88595 0.50893 0.0
C170 C 0.18968 0.88643 0.44792 0.0
C171 C 0.12526 0.89593 0.3585 0.0
C172 C 0.03253 0.90542 0.32971 0.0
C173 C 0.9764 0.91365 0.22802 0.0
C174 C 0.868 0.90389 0.17542 0.0
C175 C 0.96758 0.93681 0.21091 0.0
C176 C 0.05115 0.90693 0.20494 0.0
C177 C 0.13634 0.89668 0.28124 0.0
C178 C 0.21269 0.88793 0.27624 0.0
C179 C 0.20242 0.88993 0.19079 0.0
C180 C 0.11711 0.90078 0.11195 0.0
C181 C 0.04066 0.90934 0.1196 0.0
H182 H 0.46115 0.61768 0.94262 0.0
H183 H 0.32374 0.67639 0.88848 0.0
H184 H 0.33445 0.68552 0.75152 0.0
H185 H 0.64179 0.63459 0.87531 0.0
H186 H 0.62787 0.61328 0.8212 0.0
H187 H 0.60539 0.61029 0.91351 0.0
H188 H 0.4199 0.59643 0.81105 0.0
H189 H 0.442 0.59903 0.71865 0.0
H190 H 0.32972 0.61099 0.70141 0.0
H191 H 0.37525 0.68994 0.63443 0.0
H192 H 0.41303 0.68845 0.51916 0.0
H193 H 0.51608 0.62578 0.63398 0.0
C194 C 0.43097 0.6323 0.90084 0.0
C195 C 0.3909 0.64632 0.92652 0.0
C196 C 0.35379 0.66534 0.87037 0.0
C197 C 0.36035 0.67072 0.79273 0.0
C198 C 0.40322 0.65685 0.77144 0.0
C199 C 0.43593 0.63788 0.82216 0.0
C200 C 0.47898 0.62605 0.78272 0.0
C201 C 0.59541 0.62074 0.85234 0.0
C202 C 0.41372 0.60699 0.75158 0.0
C203 C 0.46492 0.64148 0.70147 0.0
C204 C 0.42284 0.65914 0.69869 0.0
C205 C 0.40612 0.67609 0.63457 0.0
C206 C 0.42879 0.67494 0.56887 0.0
C207 C 0.46653 0.65679 0.5649 0.0
C208 C 0.48688 0.63983 0.63395 0.0
H209 H 0.56082 0.37176 0.13818 0.0
H210 H 0.71778 0.42941 0.15042 0.0
H211 H 0.70199 0.43443 0.2779 0.0
H212 H 0.37681 0.38628 0.17638 0.0
H213 H 0.3779 0.3634 0.24902 0.0
H214 H 0.4127 0.36257 0.16655 0.0
H215 H 0.59174 0.3461 0.29423 0.0
H216 H 0.55597 0.34628 0.37668 0.0
H217 H 0.67603 0.35801 0.39362 0.0
H218 H 0.64646 0.43575 0.38777 0.0
H219 H 0.58767 0.42994 0.49672 0.0
H220 H 0.47343 0.37076 0.42136 0.0
C221 C 0.5968 0.38488 0.17111 0.0
C222 C 0.64308 0.39997 0.13575 0.0
C223 C 0.68449 0.41744 0.17783 0.0
C224 C 0.67463 0.42055 0.24958 0.0
C225 C 0.62378 0.40597 0.27967 0.0
C226 C 0.5883 0.38817 0.24395 0.0
C227 C 0.53386 0.37531 0.28767 0.0
C228 C 0.41849 0.37168 0.21557 0.0
C229 C 0.59295 0.35523 0.34125 0.0
C230 C 0.54269 0.38884 0.35172 0.0
C231 C 0.59371 0.40656 0.34505 0.0
C232 C 0.6076 0.42179 0.3945 0.0
C233 C 0.57246 0.41849 0.45532 0.0
C234 C 0.52509 0.39998 0.46732 0.0
C235 C 0.50878 0.38513 0.41345 0.0
H236 H 0.6534 0.18632 0.20757 0.0
H237 H 0.67162 0.12595 0.16505 0.0
H238 H 0.48671 0.12045 0.11533 0.0
H239 H 0.5466 0.17472 0.32056 0.0
H240 H 0.45603 0.19539 0.27794 0.0
H241 H 0.56939 0.19893 0.26964 0.0
H242 H 0.45449 0.21 0.09421 0.0
H243 H 0.33971 0.20732 0.10182 0.0
H244 H 0.34783 0.19423 0.02527 0.0
H245 H 0.33583 0.11675 0.1265 0.0
H246 H 0.21293 0.11664 0.1764 0.0
H247 H 0.28531 0.17919 0.21361 0.0
C248 C 0.61607 0.17243 0.18266 0.0
C249 C 0.67524 0.15649 0.19016 0.0
C250 C 0.62655 0.13823 0.15994 0.0
C251 C 0.52145 0.13509 0.13074 0.0
C252 C 0.46706 0.15039 0.13223 0.0
C253 C 0.51154 0.16898 0.1551 0.0
C254 C 0.44497 0.1811 0.17055 0.0
C255 C 0.50806 0.1879 0.26528 0.0
C256 C 0.39367 0.19923 0.09332 0.0
C257 C 0.3644 0.16541 0.16477 0.0
C258 C 0.37641 0.14813 0.13919 0.0
C259 C 0.32305 0.1304 0.14339 0.0
C260 C 0.25547 0.13031 0.17416 0.0
C261 C 0.24208 0.1478 0.20048 0.0
C262 C 0.29504 0.16569 0.19369 0.0
H263 H 0.7005 0.9257 0.69624 0.0
H264 H 0.80151 0.86321 0.77022 0.0
H265 H 0.63106 0.85203 0.74662 0.0
H266 H 0.60477 0.92488 0.81323 0.0
H267 H 0.4859 0.93956 0.73865 0.0
H268 H 0.59125 0.9435 0.71907 0.0
H269 H 0.47143 0.93602 0.55365 0.0
H270 H 0.36282 0.93307 0.57001 0.0
H271 H 0.39493 0.91323 0.53291 0.0
H272 H 0.49643 0.84863 0.77992 0.0
H273 H 0.36201 0.85176 0.81405 0.0
H274 H 0.3383 0.91628 0.71229 0.0
C275 C 0.68369 0.90969 0.70174 0.0
C276 C 0.76329 0.89528 0.73697 0.0
C277 C 0.74104 0.87442 0.74491 0.0
C278 C 0.64431 0.86793 0.73091 0.0
C279 C 0.57117 0.88255 0.70716 0.0
C280 C 0.58687 0.90302 0.68775 0.0
C281 C 0.50284 0.91558 0.67827 0.0
C282 C 0.54911 0.93181 0.74112 0.0
C283 C 0.42859 0.92503 0.57774 0.0
C284 C 0.4484 0.89924 0.70907 0.0
C285 C 0.48738 0.8803 0.72309 0.0
C286 C 0.46069 0.86319 0.76425 0.0
C287 C 0.3862 0.86523 0.7854 0.0
C288 C 0.3386 0.88423 0.76419 0.0
C289 C 0.37275 0.90154 0.7285 0.0
H290 H 0.78857 0.6193 0.23739 0.0
H291 H 0.68484 0.68196 0.13844 0.0
H292 H 0.80849 0.68878 0.08741 0.0
H293 H 0.04511 0.62786 0.33714 0.0
H294 H 0.07674 0.60663 0.30681 0.0
H295 H 0.96323 0.60574 0.31443 0.0
H296 H 0.849 0.59832 0.14765 0.0
H297 H 0.96303 0.59986 0.13912 0.0
H298 H 0.85021 0.61561 0.05653 0.0
H299 H 0.95583 0.69049 0.06879 0.0
H300 H 0.14002 0.68901 0.11665 0.0
H301 H 0.15288 0.62544 0.22868 0.0
C302 C 0.7914 0.63443 0.20447 0.0
C303 C 0.72729 0.65007 0.19206 0.0
C304 C 0.7335 0.6697 0.14898 0.0
C305 C 0.80177 0.67364 0.11782 0.0
C306 C 0.86257 0.65779 0.12957 0.0
C307 C 0.8591 0.63863 0.17298 0.0
C308 C 0.94487 0.62521 0.19133 0.0
C309 C 0.01143 0.61585 0.29345 0.0
C310 C 0.89901 0.60878 0.12998 0.0
C311 C 0.00482 0.64058 0.1622 0.0
C312 C 0.95197 0.6589 0.12095 0.0
C313 C 0.99735 0.67619 0.09936 0.0
C314 C 0.10236 0.67521 0.12739 0.0
C315 C 0.16059 0.65717 0.17844 0.0
C316 C 0.10954 0.63937 0.19008 0.0
H317 H 0.82895 0.41628 0.70161 0.0
H318 H 0.86243 0.35353 0.83148 0.0
H319 H 0.99677 0.34831 0.80004 0.0
H320 H 0.89254 0.40841 0.53 0.0
H321 H 0.96713 0.43142 0.54342 0.0
H322 H 0.85629 0.42965 0.55652 0.0
H323 H 0.97257 0.43936 0.71901 0.0
H324 H 0.08146 0.44203 0.70419 0.0
H325 H 0.09187 0.42535 0.80194 0.0
H326 H 0.13075 0.34965 0.76798 0.0
H327 H 0.30325 0.36022 0.79525 0.0
H328 H 0.19657 0.42258 0.69467 0.0
C329 C 0.86581 0.40154 0.72439 0.0
C330 C 0.83468 0.38523 0.76736 0.0
C331 C 0.88478 0.36618 0.79718 0.0
C332 C 0.9589 0.36291 0.77745 0.0
C333 C 0.98305 0.37891 0.72931 0.0
C334 C 0.9415 0.39806 0.70655 0.0
C335 C 0.99655 0.41345 0.67241 0.0
C336 C 0.92381 0.42118 0.56948 0.0
C337 C 0.0382 0.43105 0.72779 0.0
C338 C 0.08339 0.40027 0.6903 0.0
C339 C 0.06829 0.38011 0.71565 0.0
C340 C 0.1436 0.36529 0.74762 0.0
C341 C 0.24152 0.37146 0.76372 0.0
C342 C 0.26253 0.39223 0.74942 0.0
C343 C 0.18106 0.40661 0.70561 0.0
H344 H 0.36563 0.31618 0.50222 0.0
H345 H 0.33261 0.31263 0.73483 0.0
H346 H 0.2501 0.27918 0.70789 0.0
H347 H 0.11671 0.29281 0.36035 0.0
H348 H 0.16446 0.27936 0.30991 0.0
H349 H 0.22311 0.30298 0.3473 0.0
H350 H 0.40569 0.28596 0.45067 0.0
H351 H 0.34886 0.26223 0.41359 0.0
H352 H 0.42454 0.26388 0.53394 0.0
H353 H 0.17409 0.24606 0.65818 0.0
H354 H 0.0983 0.21608 0.58221 0.0
H355 H 0.17661 0.24103 0.37955 0.0
C356 C 0.3401 0.30841 0.54685 0.0
C357 C 0.35477 0.31702 0.62028 0.0
C358 C 0.32094 0.30639 0.67757 0.0
C359 C 0.27467 0.28733 0.66321 0.0
C360 C 0.26195 0.27917 0.59077 0.0
C361 C 0.29257 0.28941 0.53285 0.0
C362 C 0.26738 0.27735 0.45877 0.0
C363 C 0.18821 0.2888 0.36343 0.0
C364 C 0.36761 0.27204 0.46466 0.0
C365 C 0.21871 0.25869 0.48476 0.0
C366 C 0.21679 0.26006 0.56133 0.0
C367 C 0.17489 0.24482 0.59807 0.0
C368 C 0.13218 0.22784 0.55457 0.0
C369 C 0.13184 0.22623 0.47529 0.0
C370 C 0.17657 0.2418 0.44053 0.0
H371 H 0.70509 0.31823 0.05872 0.0
H372 H 0.60119 0.31946 0.77466 0.0
H373 H 0.66489 0.285 0.81017 0.0
H374 H 0.94226 0.29223 0.152 0.0
H375 H 0.93999 0.27663 0.24621 0.0
H376 H 0.87494 0.30085 0.1988 0.0
H377 H 0.70043 0.28392 0.16921 0.0
H378 H 0.76616 0.25975 0.21858 0.0
H379 H 0.65044 0.26328 0.10488 0.0
H380 H 0.75497 0.25132 0.87675 0.0
H381 H 0.84627 0.21892 0.97031 0.0
H382 H 0.89894 0.2393 0.2118 0.0
C383 C 0.69239 0.31093 1.00376 0.0
C384 C 0.64465 0.32155 0.91303 0.0
C385 C 0.63377 0.31161 0.8439 0.0
C386 C 0.67133 0.292 0.86356 0.0
C387 C 0.72141 0.28223 0.9535 0.0
C388 C 0.73098 0.29115 0.02258 0.0
C389 C 0.79199 0.27729 0.11399 0.0
C390 C 0.89328 0.28737 0.18169 0.0
C391 C 0.72314 0.27067 0.15401 0.0
C392 C 0.816 0.25964 0.08497 0.0
C393 C 0.77471 0.26277 0.99214 0.0
C394 C 0.78723 0.24858 0.94973 0.0
C395 C 0.84017 0.2303 1.00335 0.0
C396 C 0.87964 0.22643 0.0982 0.0
C397 C 0.86923 0.24164 0.13922 0.0
H398 H 0.66941 0.74158 0.37484 0.0
H399 H 0.54016 0.72238 0.54509 0.0
H400 H 0.61356 0.75266 0.6191 0.0
H401 H 0.91089 0.76197 0.5474 0.0
H402 H 0.91374 0.78294 0.46822 0.0
H403 H 0.85178 0.75967 0.42882 0.0
H404 H 0.67763 0.77914 0.30527 0.0
H405 H 0.74252 0.80227 0.34426 0.0
H406 H 0.62286 0.79533 0.34082 0.0
H407 H 0.69609 0.78535 0.67165 0.0
H408 H 0.79245 0.81743 0.70626 0.0
H409 H 0.87053 0.81543 0.50376 0.0
C410 C 0.65736 0.74371 0.42818 0.0
C411 C 0.59922 0.72966 0.45442 0.0
C412 C 0.58429 0.733 0.52391 0.0
C413 C 0.62552 0.75015 0.56623 0.0
C414 C 0.6812 0.76387 0.53806 0.0
C415 C 0.69774 0.76084 0.47101 0.0
C416 C 0.76074 0.77797 0.45383 0.0
C417 C 0.86551 0.77017 0.47593 0.0
C418 C 0.69709 0.78933 0.35513 0.0
C419 C 0.77713 0.79102 0.52183 0.0
C420 C 0.72994 0.78268 0.56921 0.0
C421 C 0.73338 0.79204 0.63502 0.0
C422 C 0.78771 0.81031 0.6538 0.0
C423 C 0.83828 0.81894 0.6073 0.0
C424 C 0.83209 0.80922 0.54001 0.0
H425 H 0.41551 0.74039 0.20281 0.0
H426 H 0.30701 0.71715 0.9523 0.0
H427 H 0.21525 0.74983 0.86252 0.0
H428 H 0.17749 0.76438 0.12514 0.0
H429 H 0.23806 0.78543 0.18561 0.0
H430 H 0.30447 0.76135 0.22997 0.0
H431 H 0.4659 0.77771 0.23088 0.0
H432 H 0.4023 0.80204 0.18955 0.0
H433 H 0.45015 0.79288 0.12812 0.0
H434 H 0.1292 0.78417 0.80236 0.0
H435 H 0.07372 0.81895 0.77293 0.0
H436 H 0.22465 0.81935 0.06318 0.0
C437 C 0.37432 0.74225 0.12884 0.0
C438 C 0.36889 0.72616 0.08435 0.0
C439 C 0.31389 0.72928 0.98778 0.0
C440 C 0.26029 0.74769 0.93656 0.0
C441 C 0.26227 0.76266 0.98319 0.0
C442 C 0.31917 0.76021 0.07725 0.0
C443 C 0.30627 0.77825 0.11132 0.0
C444 C 0.25344 0.77197 0.16626 0.0
C445 C 0.41246 0.78834 0.16825 0.0
C446 C 0.23423 0.79165 0.02132 0.0
C447 C 0.2092 0.78214 0.94864 0.0
C448 C 0.147 0.79152 0.85878 0.0
C449 C 0.11327 0.81131 0.84256 0.0
C450 C 0.13902 0.82181 0.91489 0.0
C451 C 0.19925 0.81159 0.00603 0.0
H452 H 0.91095 0.06352 0.01224 0.0
H453 H 0.23367 0.06363 0.23974 0.0
H454 H 0.26934 0.03287 0.20295 0.0
H455 H 0.88117 1.00888 0.04319 0.0
H456 H 0.79917 1.00795 0.92236 0.0
H457 H 0.79867 0.03015 0.9655 0.0
H458 H 0.84532 0.05225 0.85451 0.0
H459 H 0.84591 0.03011 0.81107 0.0
H460 H 0.95972 0.04608 0.85632 0.0
H461 H 0.27155 1.00241 0.14101 0.0
H462 H 0.23937 0.97368 0.06067 0.0
H463 H 0.91388 0.99217 0.87422 0.0
C464 C 0.98913 0.05707 0.05409 0.0
C465 C 0.06981 0.06605 0.12883 0.0
C466 C 0.17073 0.05704 0.18234 0.0
C467 C 0.19176 0.03956 0.16187 0.0
C468 C 0.11082 0.03107 0.08798 0.0
C469 C 0.01127 0.03941 0.03513 0.0
C470 C 0.93809 0.02695 0.96065 0.0
C471 C 0.849 1.01795 0.97372 0.0
C472 C 0.89473 0.03961 0.86498 0.0
C473 C 0.01252 1.01052 0.97898 0.0
C474 C 0.11169 1.01323 0.05293 0.0
C475 C 0.19416 1.00013 0.08315 0.0
C476 C 0.17509 0.98384 0.0369 0.0
C477 C 0.07426 0.98062 0.96103 0.0
C478 C 0.99188 0.9942 0.93191 0.0
H479 H 0.99711 0.07412 0.50333 0.0
H480 H 0.9138 0.05943 0.24193 0.0
H481 H 0.92482 0.02335 0.30274 0.0
H482 H 0.18232 0.0354 0.64256 0.0
H483 H 0.1479 0.02916 0.72768 0.0
H484 H 0.12448 0.0543 0.66317 0.0
H485 H 0.92831 0.05171 0.6099 0.0
H486 H 0.95161 0.02667 0.67565 0.0
H487 H 0.8525 0.03073 0.5551 0.0
H488 H 0.96682 0.98954 0.39346 0.0
H489 H 0.00962 0.95833 0.50541 0.0
H490 H 0.05557 0.99317 0.70842 0.0
C491 C 0.9782 0.06328 0.45837 0.0
C492 C 0.95528 0.06966 0.36799 0.0
C493 C 0.93248 0.05498 0.31161 0.0
C494 C 0.93853 0.03439 0.34542 0.0
C495 C 0.96596 0.02856 0.43558 0.0
C496 C 0.98303 0.04242 0.49105 0.0
C497 C 0.01374 0.03166 0.58632 0.0
C498 C 0.12365 0.03802 0.65921 0.0
C499 C 0.93162 0.03541 0.60799 0.0
C500 C 0.01317 1.00977 0.5754 0.0
C501 C 0.9863 1.0085 0.48793 0.0
C502 C 0.98623 0.99023 0.46186 0.0
C503 C 0.01177 0.9726 0.52628 0.0
C504 C 0.03572 0.9733 0.61549 0.0
C505 C 0.03681 0.99219 0.64043 0.0
H506 H 0.55707 0.54367 0.20563 0.0
H507 H 0.37157 0.58401 0.94868 0.0
H508 H 0.35698 0.5575 0.86378 0.0
H509 H 0.69888 0.5188 0.13769 0.0
H510 H 0.69435 0.494 0.19572 0.0
H511 H 0.69195 0.51612 0.23839 0.0
H512 H 0.51966 0.50394 0.22922 0.0
H513 H 0.52171 0.48177 0.18669 0.0
H514 H 0.40863 0.49822 0.12235 0.0
H515 H 0.36181 0.52733 0.80494 0.0
H516 H 0.38433 0.49452 0.77485 0.0
H517 H 0.56363 0.4722 0.06699 0.0
C518 C 0.51343 0.54684 0.13155 0.0
C519 C 0.46554 0.566 0.08386 0.0
C520 C 0.40867 0.56952 0.98688 0.0
C521 C 0.39995 0.55453 0.93782 0.0
C522 C 0.44741 0.53586 0.98629 0.0
C523 C 0.50259 0.53181 0.08088 0.0
C524 C 0.54416 0.51017 0.11496 0.0
C525 C 0.6645 0.50976 0.17525 0.0
C526 C 0.49565 0.4978 0.16635 0.0
C527 C 0.50508 0.50294 0.02476 0.0
C528 C 0.44915 0.51808 0.9517 0.0
C529 C 0.40501 0.51531 0.86149 0.0
C530 C 0.41804 0.49656 0.84506 0.0
C531 C 0.47511 0.48072 0.91829 0.0
C532 C 0.51928 0.484 0.00952 0.0
H533 H 0.54324 0.47227 0.54536 0.0
H534 H 0.61935 0.48681 0.80502 0.0
H535 H 0.60095 0.52283 0.74259 0.0
H536 H 0.68268 0.51647 0.49513 0.0
H537 H 0.58558 0.52066 0.37413 0.0
H538 H 0.60955 0.49548 0.4387 0.0
H539 H 0.41336 0.4919 0.38362 0.0
H540 H 0.38842 0.51704 0.3188 0.0
H541 H 0.35156 0.51043 0.40225 0.0
H542 H 0.55615 0.55653 0.65166 0.0
H543 H 0.51493 0.58785 0.54089 0.0
H544 H 0.4785 0.55353 0.33956 0.0
C545 C 0.559 0.48309 0.58959 0.0
C546 C 0.58223 0.4766 0.68009 0.0
C547 C 0.60069 0.49128 0.73536 0.0
C548 C 0.59027 0.51186 0.70057 0.0
C549 C 0.56308 0.51775 0.61054 0.0
C550 C 0.55004 0.50399 0.55598 0.0
C551 C 0.52026 0.51488 0.46102 0.0
C552 C 0.60457 0.51168 0.4411 0.0
C553 C 0.41195 0.50816 0.38708 0.0
C554 C 0.51752 0.5367 0.47138 0.0
C555 C 0.54126 0.53782 0.55807 0.0
C556 C 0.53902 0.55598 0.58383 0.0
C557 C 0.51456 0.57368 0.52003 0.0
C558 C 0.49391 0.5732 0.43165 0.0
C559 C 0.49479 0.55439 0.40689 0.0
loop_
_geom_bond_atom_site_label_1
_geom_bond_atom_site_label_2
_geom_bond_distance
_geom_bond_site_symmetry_2
_ccdc_geom_bond_type
Co0 H3 2.400 1_655 S
Co0 O4 2.009 1_655 S
Co0 O12 2.115 . S
Co0 O13 2.315 1_655 S
Co0 O24 2.053 . S
Co0 O27 2.094 . S
Co0 O30 2.122 . S
Co1 O4 2.126 1_655 S
Co1 H5 2.388 . S
Co1 O6 2.053 . S
Co1 O9 2.047 . S
Co1 O15 2.113 1_655 S
Co1 O26 2.063 1_655 S
Co2 H3 2.388 . S
Co2 O4 2.053 . S
Co2 O6 2.126 1_455 S
Co2 O11 2.063 1_455 S
Co2 O25 2.047 . S
Co2 O31 2.113 1_455 S
H3 Co0 2.400 1_455 S
H3 Co2 2.388 . S
H3 O4 0.760 . S
O4 Co0 2.009 1_455 S
O4 Co1 2.126 1_455 S
O4 Co2 2.053 . S
O4 H3 0.760 . S
H5 Co1 2.388 . S
H5 O6 0.760 . S
H5 Co7 2.400 1_655 S
O6 Co1 2.053 . S
O6 Co2 2.126 1_655 S
O6 H5 0.760 . S
O6 Co7 2.009 1_655 S
Co7 H5 2.400 1_455 S
Co7 O6 2.009 1_455 S
Co7 O8 2.053 . S
Co7 O10 2.094 . S
Co7 O14 2.122 . S
Co7 O28 2.115 . S
Co7 O29 2.315 1_455 S
O8 Co7 2.053 . S
O8 C20 1.259 1_455 S
O9 Co1 2.047 . S
O9 C20 1.257 . S
O10 Co7 2.094 . S
O10 C21 1.253 . S
O11 Co2 2.063 1_655 S
O11 C21 1.268 1_655 S
O12 Co0 2.115 . S
O12 C22 1.281 1_655 S
O13 Co0 2.315 1_455 S
O13 C22 1.252 . S
O14 Co7 2.122 . S
O14 C23 1.272 . S
O15 Co1 2.113 1_455 S
O15 C23 1.245 . S
C16 O24 1.259 1_455 S
C16 O25 1.257 . S
C17 O26 1.268 1_655 S
C17 O27 1.253 . S
C18 O28 1.281 1_655 S
C18 O29 1.252 . S
C19 O30 1.272 . S
C19 O31 1.245 . S
C20 O8 1.259 1_655 S
C20 O9 1.257 . S
C21 O10 1.253 . S
C21 O11 1.268 1_455 S
C22 O12 1.281 1_455 S
C22 O13 1.252 . S
C23 O14 1.272 . S
C23 O15 1.245 . S
O24 Co0 2.053 . S
O24 C16 1.259 1_655 S
O25 Co2 2.047 . S
O25 C16 1.257 . S
O26 Co1 2.063 1_455 S
O26 C17 1.268 1_455 S
O27 Co0 2.094 . S
O27 C17 1.253 . S
O28 Co7 2.115 . S
O28 C18 1.281 1_455 S
O29 Co7 2.315 1_655 S
O29 C18 1.252 . S
O30 Co0 2.122 . S
O30 C19 1.272 . S
O31 Co2 2.113 1_655 S
O31 C19 1.245 . S
Co32 H35 2.400 1_655 S
Co32 O36 2.009 1_655 S
Co32 O44 2.115 . S
Co32 O45 2.315 1_655 S
Co32 O56 2.053 1_655 S
Co32 O59 2.094 . S
Co32 O62 2.122 . S
Co33 O36 2.126 . S
Co33 H37 2.388 1_455 S
Co33 O38 2.053 1_455 S
Co33 O41 2.047 1_455 S
Co33 O47 2.113 . S
Co33 O58 2.063 . S
Co34 H35 2.388 . S
Co34 O36 2.053 . S
Co34 O38 2.126 1_455 S
Co34 O43 2.063 . S
Co34 O57 2.047 . S
Co34 O63 2.113 1_455 S
H35 Co32 2.400 1_455 S
H35 Co34 2.388 . S
H35 O36 0.760 . S
O36 Co32 2.009 1_455 S
O36 Co33 2.126 . S
O36 Co34 2.053 . S
O36 H35 0.760 . S
H37 Co33 2.388 1_655 S
H37 O38 0.760 . S
H37 Co39 2.400 1_655 S
O38 Co33 2.053 1_655 S
O38 Co34 2.126 1_655 S
O38 H37 0.760 . S
O38 Co39 2.009 1_655 S
Co39 H37 2.400 1_455 S
Co39 O38 2.009 1_455 S
Co39 O40 2.053 . S
Co39 O42 2.094 . S
Co39 O46 2.122 . S
Co39 O60 2.115 . S
Co39 O61 2.315 1_455 S
O40 Co39 2.053 . S
O40 C52 1.259 1_455 S
O41 Co33 2.047 1_655 S
O41 C52 1.257 . S
O42 Co39 2.094 . S
O42 C53 1.253 . S
O43 Co34 2.063 . S
O43 C53 1.268 . S
O44 Co32 2.115 . S
O44 C54 1.281 1_655 S
O45 Co32 2.315 1_455 S
O45 C54 1.252 . S
O46 Co39 2.122 . S
O46 C55 1.272 . S
O47 Co33 2.113 . S
O47 C55 1.245 . S
C48 O56 1.259 . S
C48 O57 1.257 . S
C49 O58 1.268 1_655 S
C49 O59 1.253 . S
C50 O60 1.281 1_655 S
C50 O61 1.252 . S
C51 O62 1.272 . S
C51 O63 1.245 . S
C52 O40 1.259 1_655 S
C52 O41 1.257 . S
C53 O42 1.253 . S
C53 O43 1.268 . S
C54 O44 1.281 1_455 S
C54 O45 1.252 . S
C55 O46 1.272 . S
C55 O47 1.245 . S
O56 Co32 2.053 1_455 S
O56 C48 1.259 . S
O57 Co34 2.047 . S
O57 C48 1.257 . S
O58 Co33 2.063 . S
O58 C49 1.268 1_455 S
O59 Co32 2.094 . S
O59 C49 1.253 . S
O60 Co39 2.115 . S
O60 C50 1.281 1_455 S
O61 Co39 2.315 1_655 S
O61 C50 1.252 . S
O62 Co32 2.122 . S
O62 C51 1.272 . S
O63 Co34 2.113 1_655 S
O63 C51 1.245 . S
Co64 H67 2.400 . S
Co64 O68 2.009 . S
Co64 O76 2.115 . S
Co64 O77 2.315 . S
Co64 O88 2.053 . S
Co64 O91 2.094 . S
Co64 O94 2.122 . S
Co65 O68 2.126 . S
Co65 H69 2.388 . S
Co65 O70 2.053 . S
Co65 O73 2.047 . S
Co65 O79 2.113 . S
Co65 O90 2.063 . S
Co66 H67 2.388 . S
Co66 O68 2.053 . S
Co66 O70 2.126 . S
Co66 O75 2.063 . S
Co66 O89 2.047 . S
Co66 O95 2.113 . S
H67 Co64 2.400 . S
H67 Co66 2.388 . S
H67 O68 0.760 . S
O68 Co64 2.009 . S
O68 Co65 2.126 . S
O68 Co66 2.053 . S
O68 H67 0.760 . S
H69 Co65 2.388 . S
H69 O70 0.760 . S
H69 Co71 2.400 . S
O70 Co65 2.053 . S
O70 Co66 2.126 . S
O70 H69 0.760 . S
O70 Co71 2.009 . S
Co71 H69 2.400 . S
Co71 O70 2.009 . S
Co71 O72 2.053 . S
Co71 O74 2.094 . S
Co71 O78 2.122 . S
Co71 O92 2.115 . S
Co71 O93 2.315 . S
O72 Co71 2.053 . S
O72 C84 1.259 . S
O73 Co65 2.047 . S
O73 C84 1.257 . S
O74 Co71 2.094 . S
O74 C85 1.253 . S
O75 Co66 2.063 . S
O75 C85 1.268 . S
O76 Co64 2.115 . S
O76 C86 1.281 . S
O77 Co64 2.315 . S
O77 C86 1.252 . S
O78 Co71 2.122 . S
O78 C87 1.272 . S
O79 Co65 2.113 . S
O79 C87 1.245 . S
C80 O88 1.259 . S
C80 O89 1.257 . S
C81 O90 1.268 . S
C81 O91 1.253 . S
C82 O92 1.281 . S
C82 O93 1.252 . S
C83 O94 1.272 . S
C83 O95 1.245 . S
C84 O72 1.259 . S
C84 O73 1.257 . S
C85 O74 1.253 . S
C85 O75 1.268 . S
C86 O76 1.281 . S
C86 O77 1.252 . S
C87 O78 1.272 . S
C87 O79 1.245 . S
O88 Co64 2.053 . S
O88 C80 1.259 . S
O89 Co66 2.047 . S
O89 C80 1.257 . S
O90 Co65 2.063 . S
O90 C81 1.268 . S
O91 Co64 2.094 . S
O91 C81 1.253 . S
O92 Co71 2.115 . S
O92 C82 1.281 . S
O93 Co71 2.315 . S
O93 C82 1.252 . S
O94 Co64 2.122 . S
O94 C83 1.272 . S
O95 Co66 2.113 . S
O95 C83 1.245 . S
Co96 H99 2.400 . S
Co96 O100 2.009 . S
Co96 O108 2.115 . S
Co96 O109 2.315 . S
Co96 O120 2.053 . S
Co96 O123 2.094 . S
Co96 O126 2.122 . S
Co97 O100 2.126 . S
Co97 H101 2.388 . S
Co97 O102 2.053 . S
Co97 O105 2.047 . S
Co97 O111 2.113 . S
Co97 O122 2.063 . S
Co98 H99 2.388 . S
Co98 O100 2.053 . S
Co98 O102 2.126 . S
Co98 O107 2.063 . S
Co98 O121 2.047 . S
Co98 O127 2.113 . S
H99 Co96 2.400 . S
H99 Co98 2.388 . S
H99 O100 0.760 . S
O100 Co96 2.009 . S
O100 Co97 2.126 . S
O100 Co98 2.053 . S
O100 H99 0.760 . S
H101 Co97 2.388 . S
H101 O102 0.760 . S
H101 Co103 2.400 . S
O102 Co97 2.053 . S
O102 Co98 2.126 . S
O102 H101 0.760 . S
O102 Co103 2.009 . S
Co103 H101 2.400 . S
Co103 O102 2.009 . S
Co103 O104 2.053 . S
Co103 O106 2.094 . S
Co103 O110 2.122 . S
Co103 O124 2.115 . S
Co103 O125 2.315 . S
O104 Co103 2.053 . S
O104 C116 1.259 . S
O105 Co97 2.047 . S
O105 C116 1.257 . S
O106 Co103 2.094 . S
O106 C117 1.253 . S
O107 Co98 2.063 . S
O107 C117 1.268 . S
O108 Co96 2.115 . S
O108 C118 1.281 . S
O109 Co96 2.315 . S
O109 C118 1.252 . S
O110 Co103 2.122 . S
O110 C119 1.272 . S
O111 Co97 2.113 . S
O111 C119 1.245 . S
C112 O120 1.259 . S
C112 O121 1.257 . S
C113 O122 1.268 . S
C113 O123 1.253 . S
C114 O124 1.281 . S
C114 O125 1.252 . S
C115 O126 1.272 . S
C115 O127 1.245 . S
C116 O104 1.259 . S
C116 O105 1.257 . S
C117 O106 1.253 . S
C117 O107 1.268 . S
C118 O108 1.281 . S
C118 O109 1.252 . S
C119 O110 1.272 . S
C119 O111 1.245 . S
O120 Co96 2.053 . S
O120 C112 1.259 . S
O121 Co98 2.047 . S
O121 C112 1.257 . S
O122 Co97 2.063 . S
O122 C113 1.268 . S
O123 Co96 2.094 . S
O123 C113 1.253 . S
O124 Co103 2.115 . S
O124 C114 1.281 . S
O125 Co103 2.315 . S
O125 C114 1.252 . S
O126 Co96 2.122 . S
O126 C115 1.272 . S
O127 Co98 2.113 . S
O127 C115 1.245 . S
H128 C140 0.930 . S
H129 C142 0.930 1_554 S
H130 C143 0.930 . S
H131 C147 0.959 . S
H132 C147 0.959 . S
H133 C147 0.961 . S
H134 C148 0.969 . S
H135 C148 0.958 . S
H136 C148 0.948 1_455 S
H137 C151 0.929 . S
H138 C152 0.931 . S
H139 C154 0.930 . S
C140 H128 0.930 . S
C140 C141 1.399 . S
C140 C145 1.399 . S
C141 C140 1.399 . S
C141 C142 1.376 1_655 S
C142 H129 0.930 1_556 S
C142 C141 1.376 1_455 S
C142 C143 1.388 . S
C143 H130 0.930 . S
C143 C142 1.388 . S
C143 C144 1.390 . S
C144 C143 1.390 . S
C144 C145 1.394 1_455 S
C144 C150 1.465 . S
C145 C140 1.399 . S
C145 C144 1.394 1_655 S
C145 C146 1.516 . S
C146 C145 1.516 . S
C146 C147 1.502 . S
C146 C148 1.566 . S
C146 C149 1.526 . S
C147 H131 0.959 . S
C147 H132 0.959 . S
C147 H133 0.961 . S
C147 C146 1.502 . S
C148 H134 0.969 . S
C148 H135 0.958 . S
C148 H136 0.948 1_655 S
C148 C146 1.566 . S
C149 C146 1.526 . S
C149 C150 1.396 1_655 S
C149 C154 1.390 . S
C150 C144 1.465 . S
C150 C149 1.396 1_455 S
C150 C151 1.399 . S
C151 H137 0.929 . S
C151 C150 1.399 . S
C151 C152 1.385 . S
C152 H138 0.931 . S
C152 C151 1.385 . S
C152 C153 1.389 . S
C153 C152 1.389 . S
C153 C154 1.387 1_455 S
C154 H139 0.930 . S
C154 C149 1.390 . S
C154 C153 1.387 1_655 S
H155 C167 0.930 . S
H156 C169 0.930 . S
H157 C170 0.930 . S
H158 C174 0.959 . S
H159 C174 0.959 . S
H160 C174 0.961 . S
H161 C175 0.960 . S
H162 C175 0.961 . S
H163 C175 0.959 . S
H164 C178 0.929 . S
H165 C179 0.931 . S
H166 C181 0.930 . S
C167 H155 0.930 . S
C167 C168 1.399 1_655 S
C167 C172 1.399 . S
C168 C167 1.399 1_455 S
C168 C169 1.376 . S
C169 H156 0.930 . S
C169 C168 1.376 . S
C169 C170 1.388 . S
C170 H157 0.930 . S
C170 C169 1.388 . S
C170 C171 1.390 . S
C171 C170 1.390 . S
C171 C172 1.394 1_455 S
C171 C177 1.465 . S
C172 C167 1.399 . S
C172 C171 1.394 1_655 S
C172 C173 1.516 . S
C173 C172 1.516 . S
C173 C174 1.502 . S
C173 C175 1.561 . S
C173 C176 1.526 . S
C174 H158 0.959 . S
C174 H159 0.959 . S
C174 H160 0.961 . S
C174 C173 1.502 . S
C175 H161 0.960 . S
C175 H162 0.961 . S
C175 H163 0.959 . S
C175 C173 1.561 . S
C176 C173 1.526 . S
C176 C177 1.396 1_655 S
C176 C181 1.390 . S
C177 C171 1.465 . S
C177 C176 1.396 1_455 S
C177 C178 1.399 . S
C178 H164 0.929 . S
C178 C177 1.399 . S
C178 C179 1.385 . S
C179 H165 0.931 . S
C179 C178 1.385 . S
C179 C180 1.389 . S
C180 C179 1.389 . S
C180 C181 1.387 1_455 S
C181 H166 0.930 . S
C181 C176 1.390 . S
C181 C180 1.387 1_655 S
H182 C194 0.930 . S
H183 C196 0.930 . S
H184 C197 0.930 . S
H185 C201 0.959 . S
H186 C201 0.959 . S
H187 C201 0.961 . S
H188 C202 0.960 . S
H189 C202 0.961 . S
H190 C202 0.959 . S
H191 C205 0.929 . S
H192 C206 0.931 . S
H193 C208 0.930 . S
C194 H182 0.930 . S
C194 C195 1.399 . S
C194 C199 1.399 . S
C195 C194 1.399 . S
C195 C196 1.376 . S
C196 H183 0.930 . S
C196 C195 1.376 . S
C196 C197 1.388 . S
C197 H184 0.930 . S
C197 C196 1.388 . S
C197 C198 1.390 . S
C198 C197 1.390 . S
C198 C199 1.394 . S
C198 C204 1.465 . S
C199 C194 1.399 . S
C199 C198 1.394 . S
C199 C200 1.516 . S
C200 C199 1.516 . S
C200 C201 1.502 . S
C200 C202 1.561 . S
C200 C203 1.526 . S
C201 H185 0.959 . S
C201 H186 0.959 . S
C201 H187 0.961 . S
C201 C200 1.502 . S
C202 H188 0.960 . S
C202 H189 0.961 . S
C202 H190 0.959 . S
C202 C200 1.561 . S
C203 C200 1.526 . S
C203 C204 1.396 . S
C203 C208 1.390 . S
C204 C198 1.465 . S
C204 C203 1.396 . S
C204 C205 1.399 . S
C205 H191 0.929 . S
C205 C204 1.399 . S
C205 C206 1.385 . S
C206 H192 0.931 . S
C206 C205 1.385 . S
C206 C207 1.389 . S
C207 C206 1.389 . S
C207 C208 1.387 . S
C208 H193 0.930 . S
C208 C203 1.390 . S
C208 C207 1.387 . S
H209 C221 0.930 . S
H210 C223 0.930 . S
H211 C224 0.930 . S
H212 C228 0.959 . S
H213 C228 0.959 . S
H214 C228 0.961 . S
H215 C229 0.960 . S
H216 C229 0.961 . S
H217 C229 0.959 . S
H218 C232 0.929 . S
H219 C233 0.931 . S
H220 C235 0.930 . S
C221 H209 0.930 . S
C221 C222 1.399 . S
C221 C226 1.399 . S
C222 C221 1.399 . S
C222 C223 1.376 . S
C223 H210 0.930 . S
C223 C222 1.376 . S
C223 C224 1.388 . S
C224 H211 0.930 . S
C224 C223 1.388 . S
C224 C225 1.390 . S
C225 C224 1.390 . S
C225 C226 1.394 . S
C225 C231 1.465 . S
C226 C221 1.399 . S
C226 C225 1.394 . S
C226 C227 1.516 . S
C227 C226 1.516 . S
C227 C228 1.502 . S
C227 C229 1.561 . S
C227 C230 1.526 . S
C228 H212 0.959 . S
C228 H213 0.959 . S
C228 H214 0.961 . S
C228 C227 1.502 . S
C229 H215 0.960 . S
C229 H216 0.961 . S
C229 H217 0.959 . S
C229 C227 1.561 . S
C230 C227 1.526 . S
C230 C231 1.396 . S
C230 C235 1.390 . S
C231 C225 1.465 . S
C231 C230 1.396 . S
C231 C232 1.399 . S
C232 H218 0.929 . S
C232 C231 1.399 . S
C232 C233 1.385 . S
C233 H219 0.931 . S
C233 C232 1.385 . S
C233 C234 1.389 . S
C234 C233 1.389 . S
C234 C235 1.387 . S
C235 H220 0.930 . S
C235 C230 1.390 . S
C235 C234 1.387 . S
H236 C248 0.930 . S
H237 C250 0.930 . S
H238 C251 0.930 . S
H239 C255 0.959 . S
H240 C255 0.959 . S
H241 C255 0.961 . S
H242 C256 0.960 . S
H243 C256 0.961 . S
H244 C256 0.959 . S
H245 C259 0.929 . S
H246 C260 0.931 . S
H247 C262 0.930 . S
C248 H236 0.930 . S
C248 C249 1.399 . S
C248 C253 1.399 . S
C249 C248 1.399 . S
C249 C250 1.376 . S
C250 H237 0.930 . S
C250 C249 1.376 . S
C250 C251 1.388 . S
C251 H238 0.930 . S
C251 C250 1.388 . S
C251 C252 1.390 . S
C252 C251 1.390 . S
C252 C253 1.394 . S
C252 C258 1.465 . S
C253 C248 1.399 . S
C253 C252 1.394 . S
C253 C254 1.516 . S
C254 C253 1.516 . S
C254 C255 1.502 . S
C254 C256 1.561 . S
C254 C257 1.526 . S
C255 H239 0.959 . S
C255 H240 0.959 . S
C255 H241 0.961 . S
C255 C254 1.502 . S
C256 H242 0.960 . S
C256 H243 0.961 . S
C256 H244 0.959 . S
C256 C254 1.561 . S
C257 C254 1.526 . S
C257 C258 1.396 . S
C257 C262 1.390 . S
C258 C252 1.465 . S
C258 C257 1.396 . S
C258 C259 1.399 . S
C259 H245 0.929 . S
C259 C258 1.399 . S
C259 C260 1.385 . S
C260 H246 0.931 . S
C260 C259 1.385 . S
C260 C261 1.389 . S
C261 C260 1.389 . S
C261 C262 1.387 . S
C262 H247 0.930 . S
C262 C257 1.390 . S
C262 C261 1.387 . S
H263 C275 0.930 . S
H264 C277 0.930 . S
H265 C278 0.930 . S
H266 C282 0.959 . S
H267 C282 0.959 . S
H268 C282 0.961 . S
H269 C283 0.960 . S
H270 C283 0.961 . S
H271 C283 0.959 . S
H272 C286 0.929 . S
H273 C287 0.931 . S
H274 C289 0.930 . S
C275 H263 0.930 . S
C275 C276 1.399 . S
C275 C280 1.399 . S
C276 C275 1.399 . S
C276 C277 1.376 . S
C277 H264 0.930 . S
C277 C276 1.376 . S
C277 C278 1.388 . S
C278 H265 0.930 . S
C278 C277 1.388 . S
C278 C279 1.390 . S
C279 C278 1.390 . S
C279 C280 1.394 . S
C279 C285 1.465 . S
C280 C275 1.399 . S
C280 C279 1.394 . S
C280 C281 1.516 . S
C281 C280 1.516 . S
C281 C282 1.502 . S
C281 C283 1.561 . S
C281 C284 1.526 . S
C282 H266 0.959 . S
C282 H267 0.959 . S
C282 H268 0.961 . S
C282 C281 1.502 . S
C283 H269 0.960 . S
C283 H270 0.961 . S
C283 H271 0.959 . S
C283 C281 1.561 . S
C284 C281 1.526 . S
C284 C285 1.396 . S
C284 C289 1.390 . S
C285 C279 1.465 . S
C285 C284 1.396 . S
C285 C286 1.399 . S
C286 H272 0.929 . S
C286 C285 1.399 . S
C286 C287 1.385 . S
C287 H273 0.931 . S
C287 C286 1.385 . S
C287 C288 1.389 . S
C288 C287 1.389 . S
C288 C289 1.387 . S
C289 H274 0.930 . S
C289 C284 1.390 . S
C289 C288 1.387 . S
H290 C302 0.930 . S
H291 C304 0.930 . S
H292 C305 0.930 . S
H293 C309 0.959 . S
H294 C309 0.959 . S
H295 C309 0.961 . S
H296 C310 0.960 . S
H297 C310 0.961 1_455 S
H298 C310 0.959 . S
H299 C313 0.929 . S
H300 C314 0.931 . S
H301 C316 0.930 . S
C302 H290 0.930 . S
C302 C303 1.399 . S
C302 C307 1.399 . S
C303 C302 1.399 . S
C303 C304 1.376 . S
C304 H291 0.930 . S
C304 C303 1.376 . S
C304 C305 1.388 . S
C305 H292 0.930 . S
C305 C304 1.388 . S
C305 C306 1.390 . S
C306 C305 1.390 . S
C306 C307 1.394 . S
C306 C312 1.465 1_655 S
C307 C302 1.399 . S
C307 C306 1.394 . S
C307 C308 1.516 1_655 S
C308 C307 1.516 1_455 S
C308 C309 1.502 . S
C308 C310 1.561 1_455 S
C308 C311 1.526 . S
C309 H293 0.959 . S
C309 H294 0.959 . S
C309 H295 0.961 . S
C309 C308 1.502 . S
C310 H296 0.960 . S
C310 H297 0.961 1_655 S
C310 H298 0.959 . S
C310 C308 1.561 1_655 S
C311 C308 1.526 . S
C311 C312 1.396 . S
C311 C316 1.390 . S
C312 C306 1.465 1_455 S
C312 C311 1.396 . S
C312 C313 1.399 . S
C313 H299 0.929 . S
C313 C312 1.399 . S
C313 C314 1.385 . S
C314 H300 0.931 . S
C314 C313 1.385 . S
C314 C315 1.389 . S
C315 C314 1.389 . S
C315 C316 1.387 . S
C316 H301 0.930 . S
C316 C311 1.390 . S
C316 C315 1.387 . S
H317 C329 0.930 . S
H318 C331 0.930 . S
H319 C332 0.930 . S
H320 C336 0.959 1_655 S
H321 C336 0.959 . S
H322 C336 0.961 1_655 S
H323 C337 0.960 . S
H324 C337 0.961 . S
H325 C337 0.959 . S
H326 C340 0.929 . S
H327 C341 0.931 . S
H328 C343 0.930 . S
C329 H317 0.930 . S
C329 C330 1.399 . S
C329 C334 1.399 . S
C330 C329 1.399 . S
C330 C331 1.376 . S
C331 H318 0.930 . S
C331 C330 1.376 . S
C331 C332 1.388 . S
C332 H319 0.930 . S
C332 C331 1.388 . S
C332 C333 1.390 . S
C333 C332 1.390 . S
C333 C334 1.394 . S
C333 C339 1.465 1_655 S
C334 C329 1.399 . S
C334 C333 1.394 . S
C334 C335 1.516 1_655 S
C335 C334 1.516 1_455 S
C335 C336 1.502 . S
C335 C337 1.561 . S
C335 C338 1.526 . S
C336 H320 0.959 1_455 S
C336 H321 0.959 . S
C336 H322 0.961 1_455 S
C336 C335 1.502 . S
C337 H323 0.960 . S
C337 H324 0.961 . S
C337 H325 0.959 . S
C337 C335 1.561 . S
C338 C335 1.526 . S
C338 C339 1.396 . S
C338 C343 1.390 . S
C339 C333 1.465 1_455 S
C339 C338 1.396 . S
C339 C340 1.399 . S
C340 H326 0.929 . S
C340 C339 1.399 . S
C340 C341 1.385 . S
C341 H327 0.931 . S
C341 C340 1.385 . S
C341 C342 1.389 . S
C342 C341 1.389 . S
C342 C343 1.387 . S
C343 H328 0.930 . S
C343 C338 1.390 . S
C343 C342 1.387 . S
H344 C356 0.930 . S
H345 C358 0.930 . S
H346 C359 0.930 . S
H347 C363 0.959 . S
H348 C363 0.959 . S
H349 C363 0.961 . S
H350 C364 0.960 . S
H351 C364 0.961 . S
H352 C364 0.959 . S
H353 C367 0.929 . S
H354 C368 0.931 . S
H355 C370 0.930 . S
C356 H344 0.930 . S
C356 C357 1.399 . S
C356 C361 1.399 . S
C357 C356 1.399 . S
C357 C358 1.376 . S
C358 H345 0.930 . S
C358 C357 1.376 . S
C358 C359 1.388 . S
C359 H346 0.930 . S
C359 C358 1.388 . S
C359 C360 1.390 . S
C360 C359 1.390 . S
C360 C361 1.394 . S
C360 C366 1.465 . S
C361 C356 1.399 . S
C361 C360 1.394 . S
C361 C362 1.516 . S
C362 C361 1.516 . S
C362 C363 1.502 . S
C362 C364 1.561 . S
C362 C365 1.526 . S
C363 H347 0.959 . S
C363 H348 0.959 . S
C363 H349 0.961 . S
C363 C362 1.502 . S
C364 H350 0.960 . S
C364 H351 0.961 . S
C364 H352 0.959 . S
C364 C362 1.561 . S
C365 C362 1.526 . S
C365 C366 1.396 . S
C365 C370 1.390 . S
C366 C360 1.465 . S
C366 C365 1.396 . S
C366 C367 1.399 . S
C367 H353 0.929 . S
C367 C366 1.399 . S
C367 C368 1.385 . S
C368 H354 0.931 . S
C368 C367 1.385 . S
C368 C369 1.389 . S
C369 C368 1.389 . S
C369 C370 1.387 . S
C370 H355 0.930 . S
C370 C365 1.390 . S
C370 C369 1.387 . S
H371 C383 0.930 1_554 S
H372 C385 0.930 . S
H373 C386 0.930 . S
H374 C390 0.959 . S
H375 C390 0.959 . S
H376 C390 0.961 . S
H377 C391 0.960 . S
H378 C391 0.961 . S
H379 C391 0.959 . S
H380 C394 0.929 . S
H381 C395 0.931 . S
H382 C397 0.930 . S
C383 H371 0.930 1_556 S
C383 C384 1.399 . S
C383 C388 1.399 1_556 S
C384 C383 1.399 . S
C384 C385 1.376 . S
C385 H372 0.930 . S
C385 C384 1.376 . S
C385 C386 1.388 . S
C386 H373 0.930 . S
C386 C385 1.388 . S
C386 C387 1.390 . S
C387 C386 1.390 . S
C387 C388 1.394 1_556 S
C387 C393 1.465 . S
C388 C383 1.399 1_554 S
C388 C387 1.394 1_554 S
C388 C389 1.516 . S
C389 C388 1.516 . S
C389 C390 1.502 . S
C389 C391 1.561 . S
C389 C392 1.526 . S
C390 H374 0.959 . S
C390 H375 0.959 . S
C390 H376 0.961 . S
C390 C389 1.502 . S
C391 H377 0.960 . S
C391 H378 0.961 . S
C391 H379 0.959 . S
C391 C389 1.561 . S
C392 C389 1.526 . S
C392 C393 1.396 1_554 S
C392 C397 1.390 . S
C393 C387 1.465 . S
C393 C392 1.396 1_556 S
C393 C394 1.399 . S
C394 H380 0.929 . S
C394 C393 1.399 . S
C394 C395 1.385 . S
C395 H381 0.931 . S
C395 C394 1.385 . S
C395 C396 1.389 1_556 S
C396 C395 1.389 1_554 S
C396 C397 1.387 . S
C397 H382 0.930 . S
C397 C392 1.390 . S
C397 C396 1.387 . S
H398 C410 0.930 . S
H399 C412 0.930 . S
H400 C413 0.930 . S
H401 C417 0.959 . S
H402 C417 0.959 . S
H403 C417 0.961 . S
H404 C418 0.960 . S
H405 C418 0.961 . S
H406 C418 0.959 . S
H407 C421 0.929 . S
H408 C422 0.931 . S
H409 C424 0.930 . S
C410 H398 0.930 . S
C410 C411 1.399 . S
C410 C415 1.399 . S
C411 C410 1.399 . S
C411 C412 1.376 . S
C412 H399 0.930 . S
C412 C411 1.376 . S
C412 C413 1.388 . S
C413 H400 0.930 . S
C413 C412 1.388 . S
C413 C414 1.390 . S
C414 C413 1.390 . S
C414 C415 1.394 . S
C414 C420 1.465 . S
C415 C410 1.399 . S
C415 C414 1.394 . S
C415 C416 1.516 . S
C416 C415 1.516 . S
C416 C417 1.502 . S
C416 C418 1.561 . S
C416 C419 1.526 . S
C417 H401 0.959 . S
C417 H402 0.959 . S
C417 H403 0.961 . S
C417 C416 1.502 . S
C418 H404 0.960 . S
C418 H405 0.961 . S
C418 H406 0.959 . S
C418 C416 1.561 . S
C419 C416 1.526 . S
C419 C420 1.396 . S
C419 C424 1.390 . S
C420 C414 1.465 . S
C420 C419 1.396 . S
C420 C421 1.399 . S
C421 H407 0.929 . S
C421 C420 1.399 . S
C421 C422 1.385 . S
C422 H408 0.931 . S
C422 C421 1.385 . S
C422 C423 1.389 . S
C423 C422 1.389 . S
C423 C424 1.387 . S
C424 H409 0.930 . S
C424 C419 1.390 . S
C424 C423 1.387 . S
H425 C437 0.930 . S
H426 C439 0.930 1_556 S
H427 C440 0.930 . S
H428 C444 0.959 . S
H429 C444 0.959 . S
H430 C444 0.961 . S
H431 C445 0.960 . S
H432 C445 0.961 . S
H433 C445 0.959 . S
H434 C448 0.929 . S
H435 C449 0.931 . S
H436 C451 0.930 1_554 S
C437 H425 0.930 . S
C437 C438 1.399 . S
C437 C442 1.399 . S
C438 C437 1.399 . S
C438 C439 1.376 . S
C439 H426 0.930 1_554 S
C439 C438 1.376 . S
C439 C440 1.388 1_554 S
C440 H427 0.930 . S
C440 C439 1.388 1_556 S
C440 C441 1.390 . S
C441 C440 1.390 . S
C441 C442 1.394 1_556 S
C441 C447 1.465 . S
C442 C437 1.399 . S
C442 C441 1.394 1_554 S
C442 C443 1.516 . S
C443 C442 1.516 . S
C443 C444 1.502 . S
C443 C445 1.561 . S
C443 C446 1.526 . S
C444 H428 0.959 . S
C444 H429 0.959 . S
C444 H430 0.961 . S
C444 C443 1.502 . S
C445 H431 0.960 . S
C445 H432 0.961 . S
C445 H433 0.959 . S
C445 C443 1.561 . S
C446 C443 1.526 . S
C446 C447 1.396 1_554 S
C446 C451 1.390 1_554 S
C447 C441 1.465 . S
C447 C446 1.396 1_556 S
C447 C448 1.399 . S
C448 H434 0.929 . S
C448 C447 1.399 . S
C448 C449 1.385 . S
C449 H435 0.931 . S
C449 C448 1.385 . S
C449 C450 1.389 . S
C450 C449 1.389 . S
C450 C451 1.387 . S
C451 H436 0.930 1_556 S
C451 C446 1.390 1_556 S
C451 C450 1.387 . S
H452 C464 0.930 . S
H453 C466 0.930 . S
H454 C467 0.930 . S
H455 C471 0.959 1_554 S
H456 C471 0.959 . S
H457 C471 0.961 . S
H458 C472 0.960 . S
H459 C472 0.961 . S
H460 C472 0.959 . S
H461 C475 0.929 . S
H462 C476 0.931 . S
H463 C478 0.930 . S
C464 H452 0.930 . S
C464 C465 1.399 . S
C464 C469 1.402 . S
C465 C464 1.399 . S
C465 C466 1.376 1_655 S
C466 H453 0.930 . S
C466 C465 1.376 1_455 S
C466 C467 1.388 . S
C467 H454 0.930 . S
C467 C466 1.388 . S
C467 C468 1.390 . S
C468 C467 1.390 . S
C468 C469 1.393 1_455 S
C468 C474 1.457 1_544 S
C469 C464 1.402 . S
C469 C468 1.393 1_655 S
C469 C470 1.514 1_544 S
C470 C469 1.514 1_566 S
C470 C471 1.502 . S
C470 C472 1.561 1_565 S
C470 C473 1.526 . S
C471 H455 0.959 1_556 S
C471 H456 0.959 . S
C471 H457 0.961 . S
C471 C470 1.502 . S
C472 H458 0.960 . S
C472 H459 0.961 . S
C472 H460 0.959 . S
C472 C470 1.561 1_545 S
C473 C470 1.526 . S
C473 C474 1.399 1_655 S
C473 C478 1.390 . S
C474 C468 1.457 1_566 S
C474 C473 1.399 1_455 S
C474 C475 1.404 1_556 S
C475 H461 0.929 . S
C475 C474 1.404 1_554 S
C475 C476 1.385 1_554 S
C476 H462 0.931 . S
C476 C475 1.385 1_556 S
C476 C477 1.389 . S
C477 C476 1.389 . S
C477 C478 1.387 1_455 S
C478 H463 0.930 . S
C478 C473 1.390 . S
C478 C477 1.387 1_655 S
H479 C491 0.930 . S
H480 C493 0.930 . S
H481 C494 0.930 . S
H482 C498 0.956 . S
H483 C498 0.949 1_565 S
H484 C498 0.961 . S
H485 C499 0.960 . S
H486 C499 0.961 . S
H487 C499 0.959 1_655 S
H488 C502 0.929 . S
H489 C503 0.931 . S
H490 C505 0.930 . S
C491 H479 0.930 . S
C491 C492 1.399 . S
C491 C496 1.399 . S
C492 C491 1.399 . S
C492 C493 1.376 1_455 S
C493 H480 0.930 . S
C493 C492 1.376 1_655 S
C493 C494 1.388 . S
C494 H481 0.930 . S
C494 C493 1.388 . S
C494 C495 1.390 . S
C495 C494 1.390 . S
C495 C496 1.394 1_655 S
C495 C501 1.465 1_545 S
C496 C491 1.399 . S
C496 C495 1.394 1_455 S
C496 C497 1.516 . S
C497 C496 1.516 . S
C497 C498 1.502 . S
C497 C499 1.561 . S
C497 C500 1.526 1_545 S
C498 H482 0.956 . S
C498 H483 0.949 1_545 S
C498 H484 0.961 . S
C498 C497 1.502 . S
C499 H485 0.960 . S
C499 H486 0.961 . S
C499 H487 0.959 1_455 S
C499 C497 1.561 . S
C500 C497 1.526 1_565 S
C500 C501 1.396 1_455 S
C500 C505 1.390 . S
C501 C495 1.465 1_565 S
C501 C500 1.396 1_655 S
C501 C502 1.399 . S
C502 H488 0.929 . S
C502 C501 1.399 . S
C502 C503 1.385 . S
C503 H489 0.931 . S
C503 C502 1.385 . S
C503 C504 1.389 . S
C504 C503 1.389 . S
C504 C505 1.387 1_655 S
C505 H490 0.930 . S
C505 C500 1.390 . S
C505 C504 1.387 1_455 S
H506 C518 0.930 . S
H507 C520 0.930 . S
H508 C521 0.930 . S
H509 C525 0.959 . S
H510 C525 0.959 . S
H511 C525 0.961 . S
H512 C526 0.960 . S
H513 C526 0.961 . S
H514 C526 0.959 . S
H515 C529 0.929 . S
H516 C530 0.931 . S
H517 C532 0.930 1_554 S
C518 H506 0.930 . S
C518 C519 1.399 . S
C518 C523 1.399 . S
C519 C518 1.399 . S
C519 C520 1.376 1_554 S
C520 H507 0.930 . S
C520 C519 1.376 1_556 S
C520 C521 1.388 . S
C521 H508 0.930 . S
C521 C520 1.388 . S
C521 C522 1.390 . S
C522 C521 1.390 . S
C522 C523 1.394 1_556 S
C522 C528 1.465 . S
C523 C518 1.399 . S
C523 C522 1.394 1_554 S
C523 C524 1.516 . S
C524 C523 1.516 . S
C524 C525 1.502 . S
C524 C526 1.561 . S
C524 C527 1.526 . S
C525 H509 0.959 . S
C525 H510 0.959 . S
C525 H511 0.961 . S
C525 C524 1.502 . S
C526 H512 0.960 . S
C526 H513 0.961 . S
C526 H514 0.959 . S
C526 C524 1.561 . S
C527 C524 1.526 . S
C527 C528 1.396 1_554 S
C527 C532 1.390 1_554 S
C528 C522 1.465 . S
C528 C527 1.396 1_556 S
C528 C529 1.399 . S
C529 H515 0.929 . S
C529 C528 1.399 . S
C529 C530 1.385 . S
C530 H516 0.931 . S
C530 C529 1.385 . S
C530 C531 1.389 . S
C531 C530 1.389 . S
C531 C532 1.387 . S
C532 H517 0.930 1_556 S
C532 C527 1.390 1_556 S
C532 C531 1.387 . S
H533 C545 0.930 . S
H534 C547 0.930 . S
H535 C548 0.930 . S
H536 C552 0.959 . S
H537 C552 0.959 . S
H538 C552 0.961 . S
H539 C553 0.960 . S
H540 C553 0.961 . S
H541 C553 0.959 . S
H542 C556 0.929 . S
H543 C557 0.931 . S
H544 C559 0.930 . S
C545 H533 0.930 . S
C545 C546 1.399 . S
C545 C550 1.399 . S
C546 C545 1.399 . S
C546 C547 1.376 . S
C547 H534 0.930 . S
C547 C546 1.376 . S
C547 C548 1.388 . S
C548 H535 0.930 . S
C548 C547 1.388 . S
C548 C549 1.390 . S
C549 C548 1.390 . S
C549 C550 1.394 . S
C549 C555 1.465 . S
C550 C545 1.399 . S
C550 C549 1.394 . S
C550 C551 1.516 . S
C551 C550 1.516 . S
C551 C552 1.502 . S
C551 C553 1.561 . S
C551 C554 1.526 . S
C552 H536 0.959 . S
C552 H537 0.959 . S
C552 H538 0.961 . S
C552 C551 1.502 . S
C553 H539 0.960 . S
C553 H540 0.961 . S
C553 H541 0.959 . S
C553 C551 1.561 . S
C554 C551 1.526 . S
C554 C555 1.396 . S
C554 C559 1.390 . S
C555 C549 1.465 . S
C555 C554 1.396 . S
C555 C556 1.399 . S
C556 H542 0.929 . S
C556 C555 1.399 . S
C556 C557 1.385 . S
C557 H543 0.931 . S
C557 C556 1.385 . S
C557 C558 1.389 . S
C558 C557 1.389 . S
C558 C559 1.387 . S
C559 H544 0.930 . S
C559 C554 1.390 . S
C559 C558 1.387 . S
C141 C20 1.504 1_556 S
C153 C16 1.544 . S
C168 C52 1.510 1_455 S
C180 C48 1.542 1_554 S
C195 C84 1.544 1_556 S
C207 C80 1.504 . S
C222 C112 1.518 1_554 S
C234 C116 1.536 . S
C249 C19 0.676 . S
C261 C23 0.573 . S
C276 C51 0.709 . S
C288 C55 0.559 . S
C303 C87 0.629 . S
C315 C83 0.618 . S
C330 C119 0.584 . S
C342 C115 0.696 . S
C357 C114 1.869 . S
C369 C22 1.822 . S
C384 C117 2.081 . S
C396 C17 2.088 . S
C411 C86 1.847 . S
C423 C50 1.846 . S
C438 C81 2.111 . S
C450 C53 2.055 . S
C465 C18 1.835 . S
C477 C54 1.877 . S
C492 C21 1.742 . S
C504 C49 1.745 . S
C519 C82 1.846 . S
C531 C118 1.879 . S
C546 C113 1.751 . S
C558 C85 1.740 . S
