# Generated by pormake.
# Topology rho, (4)-cn, num edge types: 1
# Building blocks:
#     Node 0, Type 0, BuildingBlock: TATPOV_clean_sbu_0, # of connection points: 4
#     Node 1, Type 0, BuildingBlock: TATPOV_clean_sbu_0, # of connection points: 4
#     Node 2, Type 0, BuildingBlock: TATPOV_clean_sbu_0, # of connection points: 4
#     Node 3, Type 0, BuildingBlock: TATPOV_clean_sbu_0, # of connection points: 4
#     Node 4, Type 0, BuildingBlock: TATPOV_clean_sbu_0, # of connection points: 4
#     Node 5, Type 0, BuildingBlock: TATPOV_clean_sbu_0, # of connection points: 4
#     Node 6, Type 0, BuildingBlock: TATPOV_clean_sbu_0, # of connection points: 4
#     Node 7, Type 0, BuildingBlock: TATPOV_clean_sbu_0, # of connection points: 4
#     Node 8, Type 0, BuildingBlock: TATPOV_clean_sbu_0, # of connection points: 4
#     Node 9, Type 0, BuildingBlock: TATPOV_clean_sbu_0, # of connection points: 4
#     Node 10, Type 0, BuildingBlock: TATPOV_clean_sbu_0, # of connection points: 4
#     Node 11, Type 0, BuildingBlock: TATPOV_clean_sbu_0, # of connection points: 4
#     Node 12, Type 0, BuildingBlock: TATPOV_clean_sbu_0, # of connection points: 4
#     Node 13, Type 0, BuildingBlock: TATPOV_clean_sbu_0, # of connection points: 4
#     Node 14, Type 0, BuildingBlock: TATPOV_clean_sbu_0, # of connection points: 4
#     Node 15, Type 0, BuildingBlock: TATPOV_clean_sbu_0, # of connection points: 4
#     Node 16, Type 0, BuildingBlock: TATPOV_clean_sbu_0, # of connection points: 4
#     Node 17, Type 0, BuildingBlock: TATPOV_clean_sbu_0, # of connection points: 4
#     Node 18, Type 0, BuildingBlock: TATPOV_clean_sbu_0, # of connection points: 4
#     Node 19, Type 0, BuildingBlock: TATPOV_clean_sbu_0, # of connection points: 4
#     Node 20, Type 0, BuildingBlock: TATPOV_clean_sbu_0, # of connection points: 4
#     Node 21, Type 0, BuildingBlock: TATPOV_clean_sbu_0, # of connection points: 4
#     Node 22, Type 0, BuildingBlock: TATPOV_clean_sbu_0, # of connection points: 4
#     Node 23, Type 0, BuildingBlock: TATPOV_clean_sbu_0, # of connection points: 4
#     Node 24, Type 0, BuildingBlock: TATPOV_clean_sbu_0, # of connection points: 4
#     Node 25, Type 0, BuildingBlock: TATPOV_clean_sbu_0, # of connection points: 4
#     Node 26, Type 0, BuildingBlock: TATPOV_clean_sbu_0, # of connection points: 4
#     Node 27, Type 0, BuildingBlock: TATPOV_clean_sbu_0, # of connection points: 4
#     Node 28, Type 0, BuildingBlock: TATPOV_clean_sbu_0, # of connection points: 4
#     Node 29, Type 0, BuildingBlock: TATPOV_clean_sbu_0, # of connection points: 4
#     Node 30, Type 0, BuildingBlock: TATPOV_clean_sbu_0, # of connection points: 4
#     Node 31, Type 0, BuildingBlock: TATPOV_clean_sbu_0, # of connection points: 4
#     Node 32, Type 0, BuildingBlock: TATPOV_clean_sbu_0, # of connection points: 4
#     Node 33, Type 0, BuildingBlock: TATPOV_clean_sbu_0, # of connection points: 4
#     Node 34, Type 0, BuildingBlock: TATPOV_clean_sbu_0, # of connection points: 4
#     Node 35, Type 0, BuildingBlock: TATPOV_clean_sbu_0, # of connection points: 4
#     Node 36, Type 0, BuildingBlock: TATPOV_clean_sbu_0, # of connection points: 4
#     Node 37, Type 0, BuildingBlock: TATPOV_clean_sbu_0, # of connection points: 4
#     Node 38, Type 0, BuildingBlock: TATPOV_clean_sbu_0, # of connection points: 4
#     Node 39, Type 0, BuildingBlock: TATPOV_clean_sbu_0, # of connection points: 4
#     Node 40, Type 0, BuildingBlock: TATPOV_clean_sbu_0, # of connection points: 4
#     Node 41, Type 0, BuildingBlock: TATPOV_clean_sbu_0, # of connection points: 4
#     Node 42, Type 0, BuildingBlock: TATPOV_clean_sbu_0, # of connection points: 4
#     Node 43, Type 0, BuildingBlock: TATPOV_clean_sbu_0, # of connection points: 4
#     Node 44, Type 0, BuildingBlock: TATPOV_clean_sbu_0, # of connection points: 4
#     Node 45, Type 0, BuildingBlock: TATPOV_clean_sbu_0, # of connection points: 4
#     Node 46, Type 0, BuildingBlock: TATPOV_clean_sbu_0, # of connection points: 4
#     Node 47, Type 0, BuildingBlock: TATPOV_clean_sbu_0, # of connection points: 4
#     Edge 48, Type (0, 0), BuildingBlock: OJICUG_clean_linker_0, # of connection points: 2
#     Edge 49, Type (0, 0), BuildingBlock: OJICUG_clean_linker_0, # of connection points: 2
#     Edge 50, Type (0, 0), BuildingBlock: OJICUG_clean_linker_0, # of connection points: 2
#     Edge 51, Type (0, 0), BuildingBlock: OJICUG_clean_linker_0, # of connection points: 2
#     Edge 52, Type (0, 0), BuildingBlock: OJICUG_clean_linker_0, # of connection points: 2
#     Edge 53, Type (0, 0), BuildingBlock: OJICUG_clean_linker_0, # of connection points: 2
#     Edge 54, Type (0, 0), BuildingBlock: OJICUG_clean_linker_0, # of connection points: 2
#     Edge 55, Type (0, 0), BuildingBlock: OJICUG_clean_linker_0, # of connection points: 2
#     Edge 56, Type (0, 0), BuildingBlock: OJICUG_clean_linker_0, # of connection points: 2
#     Edge 57, Type (0, 0), BuildingBlock: OJICUG_clean_linker_0, # of connection points: 2
#     Edge 58, Type (0, 0), BuildingBlock: OJICUG_clean_linker_0, # of connection points: 2
#     Edge 59, Type (0, 0), BuildingBlock: OJICUG_clean_linker_0, # of connection points: 2
#     Edge 60, Type (0, 0), BuildingBlock: OJICUG_clean_linker_0, # of connection points: 2
#     Edge 61, Type (0, 0), BuildingBlock: OJICUG_clean_linker_0, # of connection points: 2
#     Edge 62, Type (0, 0), BuildingBlock: OJICUG_clean_linker_0, # of connection points: 2
#     Edge 63, Type (0, 0), BuildingBlock: OJICUG_clean_linker_0, # of connection points: 2
#     Edge 64, Type (0, 0), BuildingBlock: OJICUG_clean_linker_0, # of connection points: 2
#     Edge 65, Type (0, 0), BuildingBlock: OJICUG_clean_linker_0, # of connection points: 2
#     Edge 66, Type (0, 0), BuildingBlock: OJICUG_clean_linker_0, # of connection points: 2
#     Edge 67, Type (0, 0), BuildingBlock: OJICUG_clean_linker_0, # of connection points: 2
#     Edge 68, Type (0, 0), BuildingBlock: OJICUG_clean_linker_0, # of connection points: 2
#     Edge 69, Type (0, 0), BuildingBlock: OJICUG_clean_linker_0, # of connection points: 2
#     Edge 70, Type (0, 0), BuildingBlock: OJICUG_clean_linker_0, # of connection points: 2
#     Edge 71, Type (0, 0), BuildingBlock: OJICUG_clean_linker_0, # of connection points: 2
#     Edge 72, Type (0, 0), BuildingBlock: OJICUG_clean_linker_0, # of connection points: 2
#     Edge 73, Type (0, 0), BuildingBlock: OJICUG_clean_linker_0, # of connection points: 2
#     Edge 74, Type (0, 0), BuildingBlock: OJICUG_clean_linker_0, # of connection points: 2
#     Edge 75, Type (0, 0), BuildingBlock: OJICUG_clean_linker_0, # of connection points: 2
#     Edge 76, Type (0, 0), BuildingBlock: OJICUG_clean_linker_0, # of connection points: 2
#     Edge 77, Type (0, 0), BuildingBlock: OJICUG_clean_linker_0, # of connection points: 2
#     Edge 78, Type (0, 0), BuildingBlock: OJICUG_clean_linker_0, # of connection points: 2
#     Edge 79, Type (0, 0), BuildingBlock: OJICUG_clean_linker_0, # of connection points: 2
#     Edge 80, Type (0, 0), BuildingBlock: OJICUG_clean_linker_0, # of connection points: 2
#     Edge 81, Type (0, 0), BuildingBlock: OJICUG_clean_linker_0, # of connection points: 2
#     Edge 82, Type (0, 0), BuildingBlock: OJICUG_clean_linker_0, # of connection points: 2
#     Edge 83, Type (0, 0), BuildingBlock: OJICUG_clean_linker_0, # of connection points: 2
#     Edge 84, Type (0, 0), BuildingBlock: OJICUG_clean_linker_0, # of connection points: 2
#     Edge 85, Type (0, 0), BuildingBlock: OJICUG_clean_linker_0, # of connection points: 2
#     Edge 86, Type (0, 0), BuildingBlock: OJICUG_clean_linker_0, # of connection points: 2
#     Edge 87, Type (0, 0), BuildingBlock: OJICUG_clean_linker_0, # of connection points: 2
#     Edge 88, Type (0, 0), BuildingBlock: OJICUG_clean_linker_0, # of connection points: 2
#     Edge 89, Type (0, 0), BuildingBlock: OJICUG_clean_linker_0, # of connection points: 2
#     Edge 90, Type (0, 0), BuildingBlock: OJICUG_clean_linker_0, # of connection points: 2
#     Edge 91, Type (0, 0), BuildingBlock: OJICUG_clean_linker_0, # of connection points: 2
#     Edge 92, Type (0, 0), BuildingBlock: OJICUG_clean_linker_0, # of connection points: 2
#     Edge 93, Type (0, 0), BuildingBlock: OJICUG_clean_linker_0, # of connection points: 2
#     Edge 94, Type (0, 0), BuildingBlock: OJICUG_clean_linker_0, # of connection points: 2
#     Edge 95, Type (0, 0), BuildingBlock: OJICUG_clean_linker_0, # of connection points: 2
#     Edge 96, Type (0, 0), BuildingBlock: OJICUG_clean_linker_0, # of connection points: 2
#     Edge 97, Type (0, 0), BuildingBlock: OJICUG_clean_linker_0, # of connection points: 2
#     Edge 98, Type (0, 0), BuildingBlock: OJICUG_clean_linker_0, # of connection points: 2
#     Edge 99, Type (0, 0), BuildingBlock: OJICUG_clean_linker_0, # of connection points: 2
#     Edge 100, Type (0, 0), BuildingBlock: OJICUG_clean_linker_0, # of connection points: 2
#     Edge 101, Type (0, 0), BuildingBlock: OJICUG_clean_linker_0, # of connection points: 2
#     Edge 102, Type (0, 0), BuildingBlock: OJICUG_clean_linker_0, # of connection points: 2
#     Edge 103, Type (0, 0), BuildingBlock: OJICUG_clean_linker_0, # of connection points: 2
#     Edge 104, Type (0, 0), BuildingBlock: OJICUG_clean_linker_0, # of connection points: 2
#     Edge 105, Type (0, 0), BuildingBlock: OJICUG_clean_linker_0, # of connection points: 2
#     Edge 106, Type (0, 0), BuildingBlock: OJICUG_clean_linker_0, # of connection points: 2
#     Edge 107, Type (0, 0), BuildingBlock: OJICUG_clean_linker_0, # of connection points: 2
#     Edge 108, Type (0, 0), BuildingBlock: OJICUG_clean_linker_0, # of connection points: 2
#     Edge 109, Type (0, 0), BuildingBlock: OJICUG_clean_linker_0, # of connection points: 2
#     Edge 110, Type (0, 0), BuildingBlock: OJICUG_clean_linker_0, # of connection points: 2
#     Edge 111, Type (0, 0), BuildingBlock: OJICUG_clean_linker_0, # of connection points: 2
#     Edge 112, Type (0, 0), BuildingBlock: OJICUG_clean_linker_0, # of connection points: 2
#     Edge 113, Type (0, 0), BuildingBlock: OJICUG_clean_linker_0, # of connection points: 2
#     Edge 114, Type (0, 0), BuildingBlock: OJICUG_clean_linker_0, # of connection points: 2
#     Edge 115, Type (0, 0), BuildingBlock: OJICUG_clean_linker_0, # of connection points: 2
#     Edge 116, Type (0, 0), BuildingBlock: OJICUG_clean_linker_0, # of connection points: 2
#     Edge 117, Type (0, 0), BuildingBlock: OJICUG_clean_linker_0, # of connection points: 2
#     Edge 118, Type (0, 0), BuildingBlock: OJICUG_clean_linker_0, # of connection points: 2
#     Edge 119, Type (0, 0), BuildingBlock: OJICUG_clean_linker_0, # of connection points: 2
#     Edge 120, Type (0, 0), BuildingBlock: OJICUG_clean_linker_0, # of connection points: 2
#     Edge 121, Type (0, 0), BuildingBlock: OJICUG_clean_linker_0, # of connection points: 2
#     Edge 122, Type (0, 0), BuildingBlock: OJICUG_clean_linker_0, # of connection points: 2
#     Edge 123, Type (0, 0), BuildingBlock: OJICUG_clean_linker_0, # of connection points: 2
#     Edge 124, Type (0, 0), BuildingBlock: OJICUG_clean_linker_0, # of connection points: 2
#     Edge 125, Type (0, 0), BuildingBlock: OJICUG_clean_linker_0, # of connection points: 2
#     Edge 126, Type (0, 0), BuildingBlock: OJICUG_clean_linker_0, # of connection points: 2
#     Edge 127, Type (0, 0), BuildingBlock: OJICUG_clean_linker_0, # of connection points: 2
#     Edge 128, Type (0, 0), BuildingBlock: OJICUG_clean_linker_0, # of connection points: 2
#     Edge 129, Type (0, 0), BuildingBlock: OJICUG_clean_linker_0, # of connection points: 2
#     Edge 130, Type (0, 0), BuildingBlock: OJICUG_clean_linker_0, # of connection points: 2
#     Edge 131, Type (0, 0), BuildingBlock: OJICUG_clean_linker_0, # of connection points: 2
#     Edge 132, Type (0, 0), BuildingBlock: OJICUG_clean_linker_0, # of connection points: 2
#     Edge 133, Type (0, 0), BuildingBlock: OJICUG_clean_linker_0, # of connection points: 2
#     Edge 134, Type (0, 0), BuildingBlock: OJICUG_clean_linker_0, # of connection points: 2
#     Edge 135, Type (0, 0), BuildingBlock: OJICUG_clean_linker_0, # of connection points: 2
#     Edge 136, Type (0, 0), BuildingBlock: OJICUG_clean_linker_0, # of connection points: 2
#     Edge 137, Type (0, 0), BuildingBlock: OJICUG_clean_linker_0, # of connection points: 2
#     Edge 138, Type (0, 0), BuildingBlock: OJICUG_clean_linker_0, # of connection points: 2
#     Edge 139, Type (0, 0), BuildingBlock: OJICUG_clean_linker_0, # of connection points: 2
#     Edge 140, Type (0, 0), BuildingBlock: OJICUG_clean_linker_0, # of connection points: 2
#     Edge 141, Type (0, 0), BuildingBlock: OJICUG_clean_linker_0, # of connection points: 2
#     Edge 142, Type (0, 0), BuildingBlock: OJICUG_clean_linker_0, # of connection points: 2
#     Edge 143, Type (0, 0), BuildingBlock: OJICUG_clean_linker_0, # of connection points: 2
# Relax obj value: 0.159
# Max RMSD: 0.203
# Mean RMSD: 0.192
data_MOF--net-rho--node1-TATPOV_clean_sbu_0--edge1-OJICUG_clean_linker_0
_symmetry_space_group_name_H-M    P1
_symmetry_Int_Tables_number       1
_symmetry_cell_setting            triclinic
loop_
_symmetry_equiv_pos_as_xyz
'x, y, z'
_cell_length_a     53.26802
_cell_length_b     53.393627
_cell_length_c     54.36522
_cell_angle_alpha  89.705527
_cell_angle_beta   90.269739
_cell_angle_gamma 90.197874
loop_
_atom_site_label
_atom_site_type_symbol
_atom_site_fract_x
_atom_site_fract_y
_atom_site_fract_z
_atom_type_partial_charge
Zn0 Zn 0.0861 0.27815 0.38464 0.0
Zn1 Zn 0.10144 0.23279 0.37644 0.0
O2 O 0.12033 0.25435 0.3506 0.0
O3 O 0.11086 0.29264 0.36179 0.0
O4 O 0.11654 0.19869 0.37124 0.0
O5 O 0.09551 0.27701 0.41969 0.0
O6 O 0.10961 0.23889 0.41342 0.0
C7 C 0.12297 0.27793 0.34819 0.0
C8 C 0.04625 0.24611 0.36813 0.0
O9 O 0.0635 0.22957 0.36911 0.0
O10 O 0.05129 0.26869 0.37325 0.0
C11 C 0.12352 0.19087 0.3503 0.0
O12 O 0.11862 0.20443 0.33063 0.0
C13 C 0.10609 0.25744 0.42766 0.0
Zn14 Zn 0.78498 0.07342 0.38339 0.0
Zn15 Zn 0.741 0.0889 0.36895 0.0
O16 O 0.76657 0.11387 0.35317 0.0
O17 O 0.80299 0.09575 0.35973 0.0
O18 O 0.70827 0.09956 0.35278 0.0
O19 O 0.7793 0.03759 0.37456 0.0
O20 O 0.74294 0.05078 0.36033 0.0
C21 C 0.79025 0.11311 0.34997 0.0
C22 C 0.75368 0.09314 0.42297 0.0
O23 O 0.73662 0.0945 0.40647 0.0
O24 O 0.77559 0.08599 0.41731 0.0
C25 C 0.70784 0.10337 0.32962 0.0
O26 O 0.72863 0.1004 0.31706 0.0
C27 C 0.75862 0.03303 0.364 0.0
Zn28 Zn 0.8943 0.68203 0.37987 0.0
Zn29 Zn 0.87491 0.72505 0.36601 0.0
O30 O 0.86388 0.69926 0.33915 0.0
O31 O 0.87717 0.66307 0.35374 0.0
O32 O 0.85646 0.75747 0.35845 0.0
O33 O 0.87891 0.68304 0.41288 0.0
O34 O 0.86316 0.71946 0.40192 0.0
C35 C 0.86585 0.67547 0.33728 0.0
C36 C 0.93165 0.71907 0.36673 0.0
O37 O 0.91268 0.73332 0.36364 0.0
O38 O 0.92861 0.69649 0.37336 0.0
C39 C 0.84508 0.76349 0.33867 0.0
O40 O 0.8459 0.74832 0.31975 0.0
C41 C 0.86595 0.70211 0.41784 0.0
Zn42 Zn 0.19366 0.89714 0.37884 0.0
Zn43 Zn 0.23658 0.88026 0.36831 0.0
O44 O 0.20944 0.85733 0.35155 0.0
O45 O 0.17447 0.87872 0.35364 0.0
O46 O 0.26876 0.87173 0.34972 0.0
O47 O 0.19938 0.9332 0.37388 0.0
O48 O 0.23654 0.91908 0.36359 0.0
C49 C 0.18625 0.85983 0.34609 0.0
C50 C 0.22044 0.87302 0.42013 0.0
O51 O 0.23922 0.87169 0.40564 0.0
O52 O 0.1997 0.88169 0.41238 0.0
C53 C 0.27162 0.85215 0.33672 0.0
O54 O 0.25464 0.83429 0.33787 0.0
C55 C 0.22146 0.93734 0.3666 0.0
Zn56 Zn 0.06773 0.76932 0.56609 0.0
Zn57 Zn 0.08233 0.72632 0.57956 0.0
O58 O 0.1066 0.75284 0.59584 0.0
O59 O 0.08681 0.7885 0.5909 0.0
O60 O 0.09019 0.69376 0.59833 0.0
O61 O 0.03125 0.7653 0.57068 0.0
O62 O 0.04324 0.72856 0.58471 0.0
C63 C 0.10498 0.77633 0.59984 0.0
C64 C 0.09135 0.74043 0.52697 0.0
O65 O 0.09113 0.72229 0.54241 0.0
O66 O 0.08358 0.76186 0.53331 0.0
C67 C 0.1105 0.69003 0.61028 0.0
O68 O 0.1287 0.7066 0.60852 0.0
C69 C 0.02581 0.74437 0.58015 0.0
Zn70 Zn 0.27451 0.07033 0.57318 0.0
Zn71 Zn 0.23265 0.09146 0.5823 0.0
O72 O 0.25778 0.10788 0.60735 0.0
O73 O 0.29367 0.09163 0.59551 0.0
O74 O 0.20001 0.11044 0.58807 0.0
O75 O 0.27503 0.08042 0.53844 0.0
O76 O 0.23986 0.10061 0.54559 0.0
C77 C 0.28165 0.10655 0.60891 0.0
C78 C 0.23953 0.03408 0.58859 0.0
O79 O 0.22501 0.05316 0.58817 0.0
O80 O 0.26256 0.03671 0.58371 0.0
C81 C 0.19441 0.12081 0.60836 0.0
O82 O 0.20927 0.11759 0.62746 0.0
C83 C 0.25767 0.0947 0.53113 0.0
Zn84 Zn 0.89021 0.18425 0.55979 0.0
Zn85 Zn 0.87342 0.22785 0.57312 0.0
O86 O 0.84954 0.20141 0.58879 0.0
O87 O 0.86884 0.16557 0.58366 0.0
O88 O 0.86154 0.25954 0.58987 0.0
O89 O 0.92585 0.19121 0.56865 0.0
O90 O 0.91166 0.22746 0.58156 0.0
C91 C 0.85107 0.17796 0.59283 0.0
C92 C 0.8698 0.21498 0.51943 0.0
O93 O 0.86788 0.23217 0.53554 0.0
O94 O 0.87729 0.19332 0.52569 0.0
C95 C 0.85695 0.25861 0.61287 0.0
O96 O 0.85994 0.23728 0.62466 0.0
C97 C 0.92986 0.21229 0.57838 0.0
Zn98 Zn 0.67668 0.88588 0.5606 0.0
Zn99 Zn 0.72216 0.86949 0.5723 0.0
O100 O 0.69874 0.85531 0.59923 0.0
O101 O 0.66075 0.86606 0.58722 0.0
O102 O 0.75576 0.85351 0.57868 0.0
O103 O 0.6787 0.87219 0.5267 0.0
O104 O 0.71699 0.86004 0.53592 0.0
C105 C 0.67505 0.85537 0.60259 0.0
C106 C 0.71181 0.92497 0.57494 0.0
O107 O 0.72735 0.90697 0.5769 0.0
O108 O 0.68933 0.9208 0.56834 0.0
C109 C 0.76455 0.84633 0.5993 0.0
O110 O 0.75159 0.85028 0.61941 0.0
C111 C 0.6991 0.86206 0.52046 0.0
Zn112 Zn 0.39152 0.08386 0.17273 0.0
Zn113 Zn 0.37215 0.09218 0.21664 0.0
O114 O 0.35398 0.11744 0.19418 0.0
O115 O 0.36716 0.10754 0.15722 0.0
O116 O 0.35704 0.10066 0.24917 0.0
O117 O 0.38107 0.048 0.1754 0.0
O118 O 0.36376 0.05441 0.21154 0.0
C119 C 0.35312 0.12027 0.17101 0.0
C120 C 0.42848 0.10048 0.20761 0.0
O121 O 0.40971 0.09945 0.22204 0.0
O122 O 0.42565 0.0954 0.18502 0.0
C123 C 0.33448 0.10819 0.25078 0.0
O124 O 0.32034 0.10907 0.23094 0.0
C125 C 0.36893 0.03984 0.19374 0.0
Zn126 Zn 0.90176 0.37941 0.17056 0.0
Zn127 Zn 0.88224 0.37322 0.21393 0.0
O128 O 0.85645 0.35967 0.1877 0.0
O129 O 0.87648 0.35891 0.15242 0.0
O130 O 0.87207 0.35846 0.24739 0.0
O131 O 0.93624 0.36664 0.17763 0.0
O132 O 0.91994 0.36324 0.21447 0.0
C133 C 0.85684 0.35464 0.16471 0.0
C134 C 0.8852 0.42571 0.19625 0.0
O135 O 0.87962 0.41172 0.21456 0.0
O136 O 0.89399 0.41612 0.17678 0.0
C137 C 0.85465 0.34238 0.25065 0.0
O138 O 0.83984 0.33669 0.2321 0.0
C139 C 0.93878 0.36143 0.20019 0.0
Zn140 Zn 0.56365 0.88502 0.27808 0.0
Zn141 Zn 0.58089 0.87888 0.23341 0.0
O142 O 0.60609 0.86225 0.25694 0.0
O143 O 0.58792 0.8604 0.29298 0.0
O144 O 0.59313 0.86534 0.20125 0.0
O145 O 0.52844 0.87457 0.27005 0.0
O146 O 0.54326 0.86917 0.23281 0.0
C147 C 0.6061 0.85488 0.27918 0.0
C148 C 0.58148 0.93096 0.25178 0.0
O149 O 0.58498 0.91697 0.23319 0.0
O150 O 0.57388 0.9215 0.27193 0.0
C151 C 0.59746 0.84189 0.20115 0.0
O152 O 0.5935 0.82882 0.22131 0.0
C153 C 0.5249 0.86871 0.24781 0.0
Zn154 Zn 0.07824 0.57432 0.27598 0.0
Zn155 Zn 0.09963 0.58503 0.23424 0.0
O156 O 0.11375 0.61136 0.25968 0.0
O157 O 0.09927 0.59769 0.29524 0.0
O158 O 0.11852 0.59098 0.20206 0.0
O159 O 0.08782 0.5386 0.27519 0.0
O160 O 0.10656 0.54682 0.24009 0.0
C161 C 0.11245 0.61303 0.28312 0.0
C162 C 0.04305 0.59185 0.23954 0.0
O163 O 0.06242 0.5919 0.22579 0.0
O164 O 0.04504 0.58569 0.262 0.0
C165 C 0.12672 0.61179 0.19379 0.0
O166 O 0.12293 0.63227 0.20653 0.0
C167 C 0.10053 0.53132 0.25704 0.0
Zn168 Zn 0.40026 0.88033 0.67337 0.0
Zn169 Zn 0.38188 0.87483 0.71724 0.0
O170 O 0.35501 0.86205 0.69179 0.0
O171 O 0.37318 0.86189 0.65558 0.0
O172 O 0.37232 0.85997 0.75081 0.0
O173 O 0.43447 0.86603 0.67921 0.0
O174 O 0.41937 0.86429 0.71663 0.0
C175 C 0.354 0.85788 0.66865 0.0
C176 C 0.38593 0.92713 0.69951 0.0
O177 O 0.38 0.9134 0.71791 0.0
O178 O 0.39435 0.9172 0.68007 0.0
C179 C 0.35438 0.84454 0.75435 0.0
O180 O 0.33871 0.83986 0.73621 0.0
C181 C 0.43767 0.86152 0.70184 0.0
Zn182 Zn 0.06355 0.38396 0.77804 0.0
Zn183 Zn 0.08026 0.37725 0.73333 0.0
O184 O 0.10554 0.36075 0.75686 0.0
O185 O 0.08767 0.35926 0.79305 0.0
O186 O 0.09226 0.36308 0.70134 0.0
O187 O 0.02816 0.37382 0.77047 0.0
O188 O 0.04253 0.3679 0.73313 0.0
C189 C 0.10571 0.35355 0.77915 0.0
C190 C 0.08156 0.42948 0.75113 0.0
O191 O 0.08467 0.41531 0.73261 0.0
O192 O 0.07412 0.42027 0.77145 0.0
C193 C 0.09613 0.33955 0.70159 0.0
O194 O 0.0917 0.32683 0.72187 0.0
C195 C 0.02432 0.36778 0.74832 0.0
Zn196 Zn 0.57848 0.07513 0.77706 0.0
Zn197 Zn 0.60008 0.08578 0.73545 0.0
O198 O 0.61424 0.11203 0.76098 0.0
O199 O 0.59962 0.0983 0.79646 0.0
O200 O 0.61915 0.09155 0.70333 0.0
O201 O 0.58768 0.03929 0.77624 0.0
O202 O 0.60661 0.04747 0.74123 0.0
C203 C 0.61286 0.11366 0.78443 0.0
C204 C 0.54359 0.09312 0.74054 0.0
O205 O 0.56299 0.09301 0.72685 0.0
O206 O 0.54544 0.08687 0.76299 0.0
C207 C 0.62719 0.11232 0.69481 0.0
O208 O 0.62318 0.13294 0.70724 0.0
C209 C 0.60036 0.03195 0.75809 0.0
Zn210 Zn 0.89015 0.58236 0.67282 0.0
Zn211 Zn 0.87135 0.59165 0.71673 0.0
O212 O 0.85348 0.61699 0.6941 0.0
O213 O 0.86609 0.60625 0.65719 0.0
O214 O 0.8566 0.60064 0.74928 0.0
O215 O 0.87917 0.54671 0.67598 0.0
O216 O 0.86239 0.55392 0.71221 0.0
C217 C 0.85246 0.6195 0.6709 0.0
C218 C 0.92769 0.59891 0.70718 0.0
O219 O 0.90903 0.59841 0.72178 0.0
O220 O 0.92458 0.59351 0.68471 0.0
C221 C 0.8341 0.6083 0.75101 0.0
O222 O 0.81981 0.60913 0.73127 0.0
C223 C 0.86713 0.53901 0.69456 0.0
Zn224 Zn 0.17552 0.38622 0.06057 0.0
Zn225 Zn 0.22115 0.36973 0.07189 0.0
O226 O 0.19793 0.35526 0.09879 0.0
O227 O 0.15985 0.36616 0.08721 0.0
O228 O 0.25477 0.3538 0.07816 0.0
O229 O 0.1775 0.37269 0.02658 0.0
O230 O 0.21583 0.36045 0.03552 0.0
C231 C 0.17427 0.35527 0.10234 0.0
C232 C 0.21079 0.42521 0.07482 0.0
O233 O 0.22632 0.40719 0.07661 0.0
O234 O 0.18825 0.4211 0.06839 0.0
C235 C 0.26362 0.34686 0.09883 0.0
O236 O 0.25073 0.35107 0.11892 0.0
C237 C 0.19785 0.36259 0.02017 0.0
Zn238 Zn 0.28429 0.57363 0.88237 0.0
Zn239 Zn 0.24038 0.58917 0.86791 0.0
O240 O 0.26601 0.61409 0.85213 0.0
O241 O 0.30236 0.59585 0.85868 0.0
O242 O 0.20768 0.59975 0.85162 0.0
O243 O 0.2786 0.53779 0.87364 0.0
O244 O 0.24229 0.55103 0.85935 0.0
C245 C 0.28968 0.61325 0.84892 0.0
C246 C 0.25303 0.59347 0.92191 0.0
O247 O 0.23596 0.59482 0.90541 0.0
O248 O 0.27492 0.58629 0.91626 0.0
C249 C 0.2073 0.6033 0.82842 0.0
O250 O 0.22811 0.60018 0.81594 0.0
C251 C 0.25792 0.53325 0.86307 0.0
Zn252 Zn 0.39456 0.18339 0.87992 0.0
Zn253 Zn 0.37523 0.22654 0.86626 0.0
O254 O 0.36413 0.201 0.83926 0.0
O255 O 0.37737 0.16471 0.85363 0.0
O256 O 0.35683 0.259 0.85879 0.0
O257 O 0.37901 0.18424 0.91286 0.0
O258 O 0.36321 0.22069 0.90202 0.0
C259 C 0.36603 0.17722 0.83728 0.0
C260 C 0.43199 0.22043 0.86706 0.0
O261 O 0.41305 0.23472 0.86404 0.0
O262 O 0.42891 0.19782 0.87356 0.0
C263 C 0.34561 0.26507 0.83894 0.0
O264 O 0.34668 0.24999 0.81996 0.0
C265 C 0.36594 0.20323 0.91784 0.0
Zn266 Zn 0.69659 0.39683 0.88657 0.0
Zn267 Zn 0.73927 0.38019 0.87372 0.0
O268 O 0.71168 0.3577 0.85709 0.0
O269 O 0.67669 0.37867 0.8617 0.0
O270 O 0.77089 0.37175 0.85415 0.0
O271 O 0.70243 0.4329 0.88154 0.0
O272 O 0.73895 0.41901 0.86899 0.0
C273 C 0.68827 0.36031 0.85273 0.0
C274 C 0.72501 0.37225 0.92628 0.0
O275 O 0.74313 0.37121 0.91098 0.0
O276 O 0.70391 0.38093 0.91959 0.0
C277 C 0.77338 0.35213 0.84113 0.0
O278 O 0.7565 0.33423 0.84289 0.0
C279 C 0.72397 0.43717 0.87293 0.0
Zn280 Zn 0.58586 0.77852 0.88297 0.0
Zn281 Zn 0.60176 0.73331 0.87589 0.0
O282 O 0.62069 0.75451 0.84975 0.0
O283 O 0.61071 0.7929 0.86018 0.0
O284 O 0.61724 0.69924 0.8715 0.0
O285 O 0.59472 0.77837 0.91813 0.0
O286 O 0.60946 0.74033 0.91284 0.0
C287 C 0.62312 0.77807 0.84697 0.0
C288 C 0.5465 0.74585 0.86678 0.0
O289 O 0.5639 0.7295 0.8683 0.0
O290 O 0.55128 0.7686 0.87141 0.0
C291 C 0.62409 0.69097 0.85068 0.0
O292 O 0.6189 0.70401 0.83075 0.0
C293 C 0.60547 0.75913 0.92665 0.0
Zn294 Zn 0.7729 0.57174 0.07427 0.0
Zn295 Zn 0.73149 0.59384 0.0828 0.0
O296 O 0.75661 0.60987 0.1081 0.0
O297 O 0.79225 0.59279 0.09666 0.0
O298 O 0.69919 0.61337 0.08815 0.0
O299 O 0.77405 0.58157 0.03946 0.0
O300 O 0.73937 0.60273 0.04618 0.0
C301 C 0.78043 0.60803 0.10988 0.0
C302 C 0.73694 0.53644 0.08957 0.0
O303 O 0.72284 0.55581 0.08876 0.0
O304 O 0.7601 0.53851 0.08499 0.0
C305 C 0.69332 0.62354 0.10845 0.0
O306 O 0.70772 0.61989 0.12781 0.0
C307 C 0.75717 0.5963 0.03194 0.0
Zn308 Zn 0.39119 0.68346 0.06098 0.0
Zn309 Zn 0.37358 0.72715 0.07301 0.0
O310 O 0.34976 0.70076 0.08883 0.0
O311 O 0.36954 0.66503 0.08482 0.0
O312 O 0.36137 0.7591 0.08897 0.0
O313 O 0.42661 0.691 0.0702 0.0
O314 O 0.41172 0.72744 0.08176 0.0
C315 C 0.35143 0.67741 0.09337 0.0
C316 C 0.37096 0.7131 0.01965 0.0
O317 O 0.36843 0.73059 0.03535 0.0
O318 O 0.37877 0.69172 0.02649 0.0
C319 C 0.3565 0.75859 0.11192 0.0
O320 O 0.3592 0.73745 0.12409 0.0
C321 C 0.43019 0.71246 0.07927 0.0
Zn322 Zn 0.56573 0.27017 0.06618 0.0
Zn323 Zn 0.58079 0.22767 0.08072 0.0
O324 O 0.60422 0.25484 0.09716 0.0
O325 O 0.58411 0.29011 0.09086 0.0
O326 O 0.58907 0.19543 0.09983 0.0
O327 O 0.52931 0.26556 0.07049 0.0
O328 O 0.54162 0.22929 0.08545 0.0
C329 C 0.60216 0.2784 0.10059 0.0
C330 C 0.59029 0.2411 0.02793 0.0
O331 O 0.59018 0.22328 0.04372 0.0
O332 O 0.58209 0.26252 0.03373 0.0
C333 C 0.60939 0.19214 0.11188 0.0
O334 O 0.62729 0.20903 0.1101 0.0
C335 C 0.52404 0.24478 0.08037 0.0
Zn336 Zn 0.88071 0.68575 0.56384 0.0
Zn337 Zn 0.8656 0.73124 0.57157 0.0
O338 O 0.84718 0.71007 0.5981 0.0
O339 O 0.85648 0.67158 0.58737 0.0
O340 O 0.85056 0.76544 0.57657 0.0
O341 O 0.87059 0.68629 0.52896 0.0
O342 O 0.85669 0.72455 0.53485 0.0
C343 C 0.84458 0.68652 0.6009 0.0
C344 C 0.921 0.71802 0.57874 0.0
O345 O 0.90377 0.73459 0.57787 0.0
O346 O 0.91576 0.69534 0.57427 0.0
C347 C 0.84388 0.77349 0.59752 0.0
O348 O 0.84911 0.76016 0.61726 0.0
C349 C 0.85991 0.70575 0.52084 0.0
Zn350 Zn 0.18179 0.89095 0.56439 0.0
Zn351 Zn 0.22567 0.87542 0.57856 0.0
O352 O 0.20012 0.85 0.59378 0.0
O353 O 0.16372 0.86828 0.58767 0.0
O354 O 0.25845 0.86497 0.59479 0.0
O355 O 0.1871 0.92677 0.57343 0.0
O356 O 0.22349 0.9135 0.58747 0.0
C357 C 0.17644 0.85064 0.59696 0.0
C358 C 0.21303 0.87151 0.52459 0.0
O359 O 0.23016 0.87008 0.54102 0.0
O360 O 0.19115 0.87865 0.53037 0.0
C361 C 0.25894 0.86136 0.61798 0.0
O362 O 0.23812 0.8642 0.63052 0.0
C363 C 0.2078 0.93127 0.58399 0.0
Zn364 Zn 0.07114 0.28102 0.56847 0.0
Zn365 Zn 0.08949 0.23755 0.58236 0.0
O366 O 0.1008 0.26318 0.60923 0.0
O367 O 0.08842 0.29969 0.59468 0.0
O368 O 0.10773 0.20492 0.59007 0.0
O369 O 0.0867 0.27982 0.53558 0.0
O370 O 0.1015 0.24298 0.54648 0.0
C371 C 0.09936 0.28699 0.61116 0.0
C372 C 0.03282 0.24487 0.58131 0.0
O373 O 0.05142 0.23015 0.58453 0.0
O374 O 0.03648 0.26736 0.57469 0.0
C375 C 0.12013 0.19978 0.60951 0.0
O376 O 0.12017 0.21577 0.62779 0.0
C377 C 0.09922 0.26047 0.53062 0.0
Zn378 Zn 0.7717 0.06784 0.56934 0.0
Zn379 Zn 0.72851 0.08429 0.57897 0.0
O380 O 0.75525 0.10786 0.59535 0.0
O381 O 0.79039 0.08668 0.59465 0.0
O382 O 0.69629 0.09262 0.59758 0.0
O383 O 0.76652 0.03171 0.57438 0.0
O384 O 0.72903 0.04547 0.58394 0.0
C385 C 0.77834 0.10574 0.60133 0.0
C386 C 0.74512 0.09139 0.52744 0.0
O387 O 0.72605 0.09254 0.54159 0.0
O388 O 0.76583 0.08305 0.53562 0.0
C389 C 0.69319 0.11242 0.61018 0.0
O390 O 0.70976 0.13061 0.60839 0.0
C391 C 0.74436 0.02736 0.5813 0.0
Zn392 Zn 0.90009 0.19339 0.37486 0.0
Zn393 Zn 0.8851 0.23635 0.36314 0.0
O394 O 0.86075 0.20971 0.34716 0.0
O395 O 0.88123 0.17426 0.3499 0.0
O396 O 0.87677 0.26895 0.34454 0.0
O397 O 0.93651 0.19741 0.37058 0.0
O398 O 0.92432 0.23471 0.35829 0.0
C399 C 0.86244 0.1864 0.34228 0.0
C400 C 0.87647 0.22094 0.41514 0.0
O401 O 0.87643 0.23962 0.40033 0.0
O402 O 0.88435 0.19983 0.40797 0.0
C403 C 0.85653 0.27229 0.33237 0.0
O404 O 0.83865 0.25536 0.33391 0.0
C405 C 0.94186 0.21885 0.36224 0.0
Zn406 Zn 0.69219 0.8937 0.37555 0.0
Zn407 Zn 0.7343 0.87287 0.3665 0.0
O408 O 0.70946 0.85638 0.34135 0.0
O409 O 0.67335 0.87211 0.35319 0.0
O410 O 0.76686 0.85393 0.36068 0.0
O411 O 0.69175 0.88361 0.4103 0.0
O412 O 0.72706 0.86366 0.40318 0.0
C413 C 0.6856 0.85739 0.33977 0.0
C414 C 0.72715 0.9301 0.36009 0.0
O415 O 0.74179 0.91112 0.36058 0.0
O416 O 0.70411 0.92734 0.36494 0.0
C417 C 0.77252 0.84395 0.34022 0.0
O418 O 0.7579 0.84777 0.32105 0.0
C419 C 0.7092 0.86944 0.41762 0.0
Zn420 Zn 0.07453 0.78015 0.3855 0.0
Zn421 Zn 0.09064 0.73724 0.36951 0.0
O422 O 0.11424 0.76412 0.35443 0.0
O423 O 0.09552 0.79982 0.36198 0.0
O424 O 0.1001 0.70759 0.34865 0.0
O425 O 0.03833 0.77434 0.37771 0.0
O426 O 0.05214 0.73856 0.36336 0.0
C427 C 0.11292 0.78777 0.35172 0.0
C428 C 0.0967 0.74654 0.42329 0.0
O429 O 0.09815 0.73016 0.40633 0.0
O430 O 0.08877 0.76841 0.41839 0.0
C431 C 0.11998 0.69451 0.34902 0.0
O432 O 0.13693 0.69809 0.36628 0.0
C433 C 0.03402 0.7535 0.36761 0.0
Zn434 Zn 0.29036 0.07808 0.38806 0.0
Zn435 Zn 0.24495 0.0949 0.37634 0.0
O436 O 0.26852 0.1092 0.34964 0.0
O437 O 0.30641 0.09801 0.36155 0.0
O438 O 0.21144 0.11094 0.36978 0.0
O439 O 0.28815 0.09166 0.42202 0.0
O440 O 0.24998 0.10418 0.41277 0.0
C441 C 0.29221 0.109 0.34629 0.0
C442 C 0.255 0.03935 0.37339 0.0
O443 O 0.23962 0.05749 0.37151 0.0
O444 O 0.2775 0.04328 0.38006 0.0
C445 C 0.2028 0.11803 0.34907 0.0
O446 O 0.2159 0.11398 0.32907 0.0
C447 C 0.26782 0.10194 0.42826 0.0
Zn448 Zn 0.57498 0.88102 0.77569 0.0
Zn449 Zn 0.59458 0.87302 0.73189 0.0
O450 O 0.61275 0.84778 0.75437 0.0
O451 O 0.59944 0.85751 0.79131 0.0
O452 O 0.60992 0.86459 0.69945 0.0
O453 O 0.58513 0.91697 0.77314 0.0
O454 O 0.60277 0.91082 0.73711 0.0
C455 C 0.61359 0.8449 0.77754 0.0
C456 C 0.53823 0.86443 0.7406 0.0
O457 O 0.55706 0.86568 0.72625 0.0
O458 O 0.54096 0.86931 0.76324 0.0
C459 C 0.63258 0.85729 0.698 0.0
O460 O 0.64665 0.85675 0.7179 0.0
C461 C 0.59734 0.92529 0.75492 0.0
Zn462 Zn 0.06666 0.58426 0.77305 0.0
Zn463 Zn 0.08472 0.58965 0.72915 0.0
O464 O 0.11148 0.60287 0.75449 0.0
O465 O 0.09331 0.60335 0.7907 0.0
O466 O 0.09415 0.6043 0.69544 0.0
O467 O 0.03219 0.59784 0.76727 0.0
O468 O 0.04706 0.59971 0.72975 0.0
C469 C 0.11247 0.60732 0.77758 0.0
C470 C 0.08174 0.53748 0.74738 0.0
O471 O 0.08716 0.55112 0.72876 0.0
O472 O 0.07332 0.54744 0.76681 0.0
C473 C 0.11224 0.61949 0.69163 0.0
O474 O 0.1281 0.62417 0.70961 0.0
C475 C 0.0288 0.60224 0.74465 0.0
Zn476 Zn 0.40489 0.08151 0.67115 0.0
Zn477 Zn 0.3871 0.08735 0.71551 0.0
O478 O 0.36195 0.1034 0.69149 0.0
O479 O 0.3804 0.10556 0.65562 0.0
O480 O 0.37418 0.10119 0.74729 0.0
O481 O 0.43991 0.09243 0.67951 0.0
O482 O 0.42472 0.09734 0.71666 0.0
C483 C 0.36193 0.11066 0.66922 0.0
C484 C 0.38717 0.03531 0.69729 0.0
O485 O 0.38328 0.04921 0.71586 0.0
O486 O 0.39502 0.0449 0.67728 0.0
C487 C 0.36985 0.12464 0.74699 0.0
O488 O 0.37431 0.13744 0.72677 0.0
C489 C 0.44322 0.09812 0.70183 0.0
Zn490 Zn 0.88795 0.39034 0.67481 0.0
Zn491 Zn 0.86679 0.37894 0.71596 0.0
O492 O 0.85421 0.35182 0.69044 0.0
O493 O 0.86907 0.36574 0.65519 0.0
O494 O 0.84765 0.37279 0.74799 0.0
O495 O 0.87711 0.42564 0.67456 0.0
O496 O 0.85913 0.41708 0.70995 0.0
C497 C 0.85652 0.3497 0.66709 0.0
C498 C 0.92342 0.37372 0.71124 0.0
O499 O 0.904 0.37284 0.72489 0.0
O500 O 0.92141 0.38039 0.68894 0.0
C501 C 0.83877 0.35214 0.75599 0.0
O502 O 0.84187 0.33172 0.74298 0.0
C503 C 0.86447 0.43267 0.69284 0.0
Zn504 Zn 0.56684 0.08588 0.27441 0.0
Zn505 Zn 0.58506 0.0912 0.23053 0.0
O506 O 0.6119 0.1041 0.25593 0.0
O507 O 0.5937 0.10467 0.29212 0.0
O508 O 0.59458 0.10585 0.19685 0.0
O509 O 0.53248 0.09977 0.26858 0.0
O510 O 0.54749 0.10147 0.23112 0.0
C511 C 0.61291 0.10848 0.27903 0.0
C512 C 0.58161 0.03904 0.24863 0.0
O513 O 0.58724 0.05268 0.23008 0.0
O514 O 0.57318 0.04903 0.26805 0.0
C515 C 0.61204 0.12184 0.19339 0.0
O516 O 0.62717 0.12736 0.21173 0.0
C517 C 0.5292 0.10415 0.24595 0.0
Zn518 Zn 0.90386 0.58046 0.17031 0.0
Zn519 Zn 0.88637 0.58562 0.21499 0.0
O520 O 0.86125 0.60237 0.19144 0.0
O521 O 0.87944 0.60508 0.15547 0.0
O522 O 0.87374 0.59913 0.24709 0.0
O523 O 0.93901 0.59098 0.17877 0.0
O524 O 0.92403 0.59542 0.21607 0.0
C525 C 0.86115 0.6101 0.16931 0.0
C526 C 0.88592 0.53389 0.19569 0.0
O527 O 0.88229 0.54746 0.21456 0.0
O528 O 0.8937 0.54381 0.17581 0.0
C529 C 0.86992 0.62269 0.247 0.0
O530 O 0.87473 0.63557 0.22691 0.0
C531 C 0.94245 0.59634 0.20115 0.0
Zn532 Zn 0.38936 0.89075 0.17275 0.0
Zn533 Zn 0.36778 0.8796 0.21391 0.0
O534 O 0.3551 0.85267 0.18832 0.0
O535 O 0.37039 0.86619 0.1531 0.0
O536 O 0.34825 0.87343 0.24568 0.0
O537 O 0.3787 0.92616 0.17259 0.0
O538 O 0.36052 0.91778 0.20792 0.0
C539 C 0.35754 0.85038 0.165 0.0
C540 C 0.4244 0.874 0.20962 0.0
O541 O 0.40487 0.87325 0.22312 0.0
O542 O 0.42262 0.88062 0.18728 0.0
C543 C 0.33926 0.85271 0.25335 0.0
O544 O 0.34259 0.8324 0.24023 0.0
C545 C 0.36608 0.93332 0.19084 0.0
Zn546 Zn 0.07512 0.38087 0.27584 0.0
Zn547 Zn 0.09514 0.37232 0.23218 0.0
O548 O 0.11319 0.34732 0.25498 0.0
O549 O 0.09938 0.35731 0.29169 0.0
O550 O 0.11034 0.3636 0.19977 0.0
O551 O 0.08561 0.4167 0.27292 0.0
O552 O 0.10341 0.41011 0.23704 0.0
C553 C 0.11372 0.34461 0.27817 0.0
C554 C 0.03863 0.36416 0.24066 0.0
O555 O 0.05765 0.36509 0.22653 0.0
O556 O 0.0411 0.3693 0.26326 0.0
C557 C 0.13277 0.35572 0.19813 0.0
O558 O 0.14694 0.35454 0.21794 0.0
C559 C 0.09795 0.42477 0.25467 0.0
Zn560 Zn 0.79139 0.57922 0.88925 0.0
Zn561 Zn 0.74569 0.59531 0.8775 0.0
O562 O 0.76899 0.60932 0.85042 0.0
O563 O 0.80709 0.59882 0.86229 0.0
O564 O 0.71204 0.61107 0.8709 0.0
O565 O 0.7892 0.59335 0.92302 0.0
O566 O 0.75085 0.60523 0.9137 0.0
C567 C 0.79265 0.60935 0.84692 0.0
C568 C 0.75625 0.53981 0.8757 0.0
O569 O 0.74064 0.55773 0.87355 0.0
O570 O 0.77878 0.54415 0.88203 0.0
C571 C 0.70335 0.61801 0.85016 0.0
O572 O 0.71642 0.61384 0.83017 0.0
C573 C 0.76875 0.60344 0.92918 0.0
Zn574 Zn 0.68091 0.39259 0.06606 0.0
Zn575 Zn 0.72374 0.37791 0.08409 0.0
O576 O 0.69732 0.35275 0.09801 0.0
O577 O 0.66131 0.37044 0.08866 0.0
O578 O 0.75426 0.36944 0.10493 0.0
O579 O 0.68491 0.42891 0.07408 0.0
O580 O 0.72023 0.41623 0.09094 0.0
C581 C 0.67344 0.35322 0.09938 0.0
C582 C 0.71598 0.37169 0.02973 0.0
O583 O 0.73187 0.371 0.04738 0.0
O584 O 0.69369 0.37894 0.0336 0.0
C585 C 0.77005 0.35195 0.10179 0.0
O586 O 0.7681 0.33751 0.08238 0.0
C587 C 0.7048 0.43382 0.08586 0.0
Zn588 Zn 0.57 0.78409 0.06783 0.0
Zn589 Zn 0.58916 0.7407 0.08161 0.0
O590 O 0.60074 0.7664 0.1082 0.0
O591 O 0.58749 0.80275 0.094 0.0
O592 O 0.6076 0.70825 0.08928 0.0
O593 O 0.58538 0.78273 0.03479 0.0
O594 O 0.60074 0.74611 0.04565 0.0
C595 C 0.59898 0.79018 0.11021 0.0
C596 C 0.5324 0.74734 0.0812 0.0
O597 O 0.55126 0.73294 0.08429 0.0
O598 O 0.5356 0.76985 0.07443 0.0
C599 C 0.61933 0.70277 0.10901 0.0
O600 O 0.61861 0.71834 0.12762 0.0
C601 C 0.59807 0.76351 0.02975 0.0
Zn602 Zn 0.27133 0.56783 0.06808 0.0
Zn603 Zn 0.22817 0.58447 0.07799 0.0
O604 O 0.25497 0.60785 0.09454 0.0
O605 O 0.29007 0.58661 0.0934 0.0
O606 O 0.19592 0.59284 0.09653 0.0
O607 O 0.26589 0.53174 0.07318 0.0
O608 O 0.22855 0.54569 0.08304 0.0
C609 C 0.27808 0.6056 0.10039 0.0
C610 C 0.2447 0.59158 0.02636 0.0
O611 O 0.22571 0.59279 0.04061 0.0
O612 O 0.26541 0.58312 0.0344 0.0
C613 C 0.19289 0.61252 0.10932 0.0
O614 O 0.20959 0.63062 0.10781 0.0
C615 C 0.24379 0.5275 0.08031 0.0
Zn616 Zn 0.3791 0.18569 0.06374 0.0
Zn617 Zn 0.36406 0.23124 0.07153 0.0
O618 O 0.34568 0.21011 0.09808 0.0
O619 O 0.35478 0.17161 0.08725 0.0
O620 O 0.34913 0.26546 0.07649 0.0
O621 O 0.36906 0.18635 0.02884 0.0
O622 O 0.35526 0.22462 0.0348 0.0
C623 C 0.343 0.18658 0.10087 0.0
C624 C 0.41939 0.21797 0.07877 0.0
O625 O 0.40216 0.23454 0.07788 0.0
O626 O 0.41417 0.19529 0.07427 0.0
C627 C 0.34254 0.27363 0.09742 0.0
O628 O 0.34772 0.26035 0.1172 0.0
C629 C 0.35848 0.20587 0.02075 0.0
Zn630 Zn 0.19124 0.39403 0.87482 0.0
Zn631 Zn 0.23355 0.3732 0.86631 0.0
O632 O 0.20904 0.35624 0.8412 0.0
O633 O 0.17279 0.37216 0.85239 0.0
O634 O 0.26628 0.35451 0.86082 0.0
O635 O 0.19061 0.38412 0.90963 0.0
O636 O 0.22607 0.36425 0.90297 0.0
C637 C 0.18519 0.35722 0.83934 0.0
C638 C 0.22623 0.43039 0.8594 0.0
O639 O 0.24088 0.41142 0.86013 0.0
O640 O 0.20317 0.42765 0.8641 0.0
C641 C 0.2723 0.34481 0.84034 0.0
O642 O 0.25791 0.34874 0.82102 0.0
C643 C 0.20804 0.37007 0.9172 0.0
Zn644 Zn 0.57483 0.28089 0.88686 0.0
Zn645 Zn 0.59106 0.23827 0.87063 0.0
O646 O 0.61498 0.26541 0.85638 0.0
O647 O 0.59608 0.301 0.864 0.0
O648 O 0.60069 0.20884 0.84948 0.0
O649 O 0.53869 0.2754 0.87873 0.0
O650 O 0.55256 0.23973 0.86419 0.0
C651 C 0.61374 0.28911 0.85399 0.0
C652 C 0.59661 0.24691 0.92452 0.0
O653 O 0.59819 0.23069 0.90743 0.0
O654 O 0.58873 0.26882 0.91976 0.0
C655 C 0.62019 0.19521 0.85036 0.0
O656 O 0.63654 0.19809 0.86829 0.0
C657 C 0.53443 0.25467 0.86842 0.0
Zn658 Zn 0.40078 0.69174 0.87392 0.0
Zn659 Zn 0.38568 0.7351 0.86325 0.0
O660 O 0.36105 0.70903 0.84686 0.0
O661 O 0.38129 0.67339 0.8488 0.0
O662 O 0.37737 0.76821 0.84568 0.0
O663 O 0.43716 0.69586 0.86912 0.0
O664 O 0.42478 0.73343 0.85791 0.0
C665 C 0.36253 0.68581 0.84155 0.0
C666 C 0.37774 0.71856 0.91504 0.0
O667 O 0.37743 0.73749 0.90055 0.0
O668 O 0.38562 0.69762 0.90741 0.0
C669 C 0.35691 0.77221 0.83408 0.0
O670 O 0.33882 0.75549 0.83553 0.0
C671 C 0.44239 0.7175 0.86124 0.0
C672 C 0.14232 0.33087 0.31104 0.0
C673 C 0.12867 0.32489 0.28979 0.0
H674 H 0.15303 0.3187 0.347 0.0
C675 C 0.12284 0.29978 0.28481 0.0
H676 H 0.14721 0.35016 0.31501 0.0
C677 C 0.12608 0.28169 0.30325 0.0
C678 C 0.13493 0.28901 0.3265 0.0
H679 H 0.11236 0.29485 0.26838 0.0
H680 H 0.11771 0.26336 0.30067 0.0
C681 C 0.1458 0.31282 0.32927 0.0
C682 C 0.68299 0.1095 0.29069 0.0
C683 C 0.68394 0.10892 0.31657 0.0
H684 H 0.65981 0.11032 0.25838 0.0
C685 C 0.66158 0.11217 0.32973 0.0
H686 H 0.69991 0.10733 0.27995 0.0
C687 C 0.63861 0.1142 0.31734 0.0
C688 C 0.63741 0.11283 0.29148 0.0
H689 H 0.66166 0.11217 0.34965 0.0
H690 H 0.62164 0.11542 0.32816 0.0
C691 C 0.65998 0.1114 0.27827 0.0
C692 C 0.85884 0.63601 0.31408 0.0
C693 C 0.85946 0.66237 0.31425 0.0
H694 H 0.86166 0.6027 0.29262 0.0
C695 C 0.85917 0.6754 0.29179 0.0
H696 H 0.85874 0.62544 0.33115 0.0
C697 C 0.86099 0.66231 0.26967 0.0
C698 C 0.86304 0.63602 0.26972 0.0
H699 H 0.85963 0.69569 0.29133 0.0
H700 H 0.86231 0.67292 0.25269 0.0
C701 C 0.86064 0.62295 0.29202 0.0
C702 C 0.32139 0.87316 0.29105 0.0
C703 C 0.32386 0.85184 0.27615 0.0
H704 H 0.3034 0.88991 0.32205 0.0
C705 C 0.31064 0.82998 0.28273 0.0
H706 H 0.3314 0.89028 0.28666 0.0
C707 C 0.29452 0.82978 0.30302 0.0
C708 C 0.29132 0.85137 0.31739 0.0
H709 H 0.31216 0.81317 0.27177 0.0
H710 H 0.28403 0.81284 0.30704 0.0
C711 C 0.3054 0.8729 0.31146 0.0
C712 C 0.13379 0.65066 0.66408 0.0
C713 C 0.11322 0.63474 0.66861 0.0
H714 H 0.14924 0.68018 0.64204 0.0
C715 C 0.09271 0.63543 0.65219 0.0
H716 H 0.14996 0.65057 0.67622 0.0
C717 C 0.09221 0.65261 0.63255 0.0
C718 C 0.11228 0.6694 0.62878 0.0
H719 H 0.07653 0.62345 0.6551 0.0
H720 H 0.0757 0.65332 0.62087 0.0
C721 C 0.13336 0.66768 0.6444 0.0
C722 C 0.294 0.1128 0.65214 0.0
C723 C 0.29626 0.12006 0.62745 0.0
H724 H 0.31383 0.10443 0.68548 0.0
C725 C 0.31848 0.1317 0.61952 0.0
H726 H 0.27705 0.10363 0.65855 0.0
C727 C 0.33967 0.13168 0.63462 0.0
C728 C 0.33867 0.12028 0.65789 0.0
H729 H 0.32052 0.13749 0.60049 0.0
H730 H 0.3574 0.13795 0.62704 0.0
C731 C 0.3152 0.113 0.66742 0.0
C732 C 0.84976 0.28111 0.6527 0.0
C733 C 0.85119 0.28167 0.62681 0.0
H734 H 0.84969 0.30248 0.68603 0.0
C735 C 0.84913 0.30479 0.61462 0.0
H736 H 0.85093 0.26355 0.66268 0.0
C737 C 0.84809 0.327 0.62801 0.0
C738 C 0.84918 0.32661 0.6539 0.0
H739 H 0.84971 0.30588 0.59473 0.0
H740 H 0.8482 0.34461 0.61802 0.0
C741 C 0.84874 0.30341 0.66614 0.0
C742 C 0.67996 0.84718 0.64761 0.0
C743 C 0.66445 0.84831 0.62666 0.0
H744 H 0.68195 0.84934 0.68686 0.0
C745 C 0.63825 0.84813 0.62966 0.0
H746 H 0.70021 0.84724 0.64589 0.0
C747 C 0.62784 0.8497 0.65304 0.0
C748 C 0.64341 0.85126 0.67386 0.0
H749 H 0.62579 0.84865 0.61386 0.0
H750 H 0.60762 0.85101 0.65466 0.0
C751 C 0.66949 0.84866 0.67107 0.0
C752 C 0.33941 0.11497 0.29585 0.0
C753 C 0.32378 0.11399 0.27503 0.0
H754 H 0.34154 0.11526 0.33504 0.0
C755 C 0.29774 0.11686 0.27792 0.0
H756 H 0.35961 0.11344 0.29417 0.0
C757 C 0.28733 0.11802 0.30143 0.0
C758 C 0.30286 0.11631 0.32232 0.0
H759 H 0.28525 0.11661 0.26214 0.0
H760 H 0.26709 0.11819 0.30317 0.0
C761 C 0.32905 0.11623 0.31928 0.0
C762 C 0.83381 0.29387 0.29768 0.0
C763 C 0.85456 0.29284 0.31378 0.0
H764 H 0.8175 0.3103 0.26537 0.0
C765 C 0.8742 0.31021 0.31039 0.0
H766 H 0.81827 0.2809 0.29973 0.0
C767 C 0.87365 0.32729 0.29066 0.0
C768 C 0.85354 0.32727 0.27375 0.0
H769 H 0.89044 0.31004 0.32245 0.0
H770 H 0.88954 0.33972 0.28805 0.0
C771 C 0.83336 0.31076 0.2779 0.0
C772 C 0.64898 0.83227 0.32853 0.0
C773 C 0.6713 0.84397 0.32095 0.0
H774 H 0.61006 0.82649 0.32068 0.0
C775 C 0.67383 0.85154 0.29637 0.0
H776 H 0.64676 0.82621 0.34746 0.0
C777 C 0.65273 0.85176 0.28096 0.0
C778 C 0.62915 0.84457 0.29027 0.0
H779 H 0.69087 0.86071 0.29022 0.0
H780 H 0.65427 0.86066 0.26307 0.0
C781 C 0.6279 0.83272 0.3133 0.0
C782 C 0.13308 0.63199 0.31967 0.0
C783 C 0.12175 0.63514 0.29644 0.0
H784 H 0.14194 0.64868 0.3545 0.0
C785 C 0.11312 0.65892 0.28946 0.0
H786 H 0.13948 0.61367 0.32557 0.0
C787 C 0.11359 0.67861 0.30633 0.0
C788 C 0.12334 0.675 0.33017 0.0
H789 H 0.10385 0.66168 0.27187 0.0
H790 H 0.1053 0.69637 0.3011 0.0
C791 C 0.13426 0.65191 0.33628 0.0
C792 C 0.30694 0.85443 0.66939 0.0
C793 C 0.32953 0.85329 0.65619 0.0
H794 H 0.26694 0.85783 0.66768 0.0
C795 C 0.32836 0.85181 0.63034 0.0
H796 H 0.30709 0.85559 0.68927 0.0
C797 C 0.30536 0.85337 0.61794 0.0
C798 C 0.28293 0.8563 0.63107 0.0
H799 H 0.34536 0.8508 0.61953 0.0
H800 H 0.30528 0.85328 0.59801 0.0
C801 C 0.28389 0.85588 0.65696 0.0
C802 C 0.10419 0.29977 0.67884 0.0
C803 C 0.10272 0.3261 0.67887 0.0
H804 H 0.10489 0.26645 0.65706 0.0
C805 C 0.10549 0.33919 0.65662 0.0
H806 H 0.10256 0.28914 0.69578 0.0
C807 C 0.1071 0.32618 0.63453 0.0
C808 C 0.1059 0.29985 0.63427 0.0
H809 H 0.10494 0.35947 0.65608 0.0
H810 H 0.10751 0.33681 0.6175 0.0
C811 C 0.1058 0.28673 0.65668 0.0
C812 C 0.67025 0.1351 0.64366 0.0
C813 C 0.67383 0.11319 0.62984 0.0
H814 H 0.65272 0.15209 0.67477 0.0
C815 C 0.66055 0.09143 0.63665 0.0
H816 H 0.68013 0.15222 0.63896 0.0
C817 C 0.645 0.09129 0.65738 0.0
C818 C 0.64216 0.11296 0.67173 0.0
H819 H 0.66287 0.07419 0.62651 0.0
H820 H 0.6356 0.07401 0.66245 0.0
C821 C 0.65454 0.13501 0.66427 0.0
C822 C 0.82101 0.65229 0.62004 0.0
C823 C 0.83262 0.67575 0.62273 0.0
H824 H 0.81846 0.61502 0.63433 0.0
C825 C 0.84194 0.68277 0.6459 0.0
H826 H 0.81345 0.64665 0.60236 0.0
C827 C 0.84472 0.6646 0.66433 0.0
C828 C 0.83801 0.63968 0.65942 0.0
H829 H 0.85091 0.70084 0.64838 0.0
H830 H 0.8555 0.66919 0.68066 0.0
C831 C 0.824 0.63414 0.63826 0.0
C832 C 0.2998 0.32648 0.07778 0.0
C833 C 0.2865 0.33116 0.09954 0.0
H834 H 0.32816 0.30491 0.06011 0.0
C835 C 0.294 0.31899 0.12134 0.0
H836 H 0.29473 0.33574 0.0607 0.0
C837 C 0.31329 0.30126 0.121 0.0
C838 C 0.32542 0.29537 0.09885 0.0
H839 H 0.28425 0.3223 0.13845 0.0
H840 H 0.31785 0.29135 0.13786 0.0
C841 C 0.31903 0.30879 0.07743 0.0
C842 C 0.34437 0.64761 0.8229 0.0
C843 C 0.34046 0.67146 0.83294 0.0
H844 H 0.33067 0.61006 0.81997 0.0
C845 C 0.31638 0.67766 0.84145 0.0
H846 H 0.36265 0.64243 0.81593 0.0
C847 C 0.2979 0.65901 0.84364 0.0
C848 C 0.30349 0.63415 0.83737 0.0
H849 H 0.31283 0.69591 0.84929 0.0
H850 H 0.28056 0.66341 0.85298 0.0
C851 C 0.32608 0.62904 0.82527 0.0
C852 C 0.29753 0.31288 0.81744 0.0
C853 C 0.29327 0.32657 0.83906 0.0
H854 H 0.31741 0.28285 0.80037 0.0
C855 C 0.30796 0.32123 0.85998 0.0
H856 H 0.28662 0.31652 0.80095 0.0
C857 C 0.32567 0.30193 0.85962 0.0
C858 C 0.32907 0.28743 0.83835 0.0
H859 H 0.30528 0.33146 0.87692 0.0
H860 H 0.33611 0.29788 0.87631 0.0
C861 C 0.3152 0.29352 0.8171 0.0
C862 C 0.62999 0.32752 0.83387 0.0
C863 C 0.63477 0.30364 0.84364 0.0
H864 H 0.64421 0.36448 0.82804 0.0
C865 C 0.65965 0.29672 0.84896 0.0
H866 H 0.61101 0.33314 0.82924 0.0
C867 C 0.67877 0.3148 0.84838 0.0
C868 C 0.673 0.33978 0.84244 0.0
H869 H 0.6638 0.27834 0.85643 0.0
H870 H 0.69713 0.30992 0.85555 0.0
C871 C 0.64903 0.34544 0.83313 0.0
C872 C 0.67299 0.64565 0.82734 0.0
C873 C 0.68045 0.63367 0.84926 0.0
H874 H 0.64909 0.67305 0.81051 0.0
C875 C 0.66706 0.63851 0.87094 0.0
H876 H 0.68281 0.64222 0.81029 0.0
C877 C 0.64777 0.65614 0.87108 0.0
C878 C 0.64139 0.66934 0.84953 0.0
H879 H 0.67211 0.62941 0.88811 0.0
H880 H 0.63857 0.66014 0.88834 0.0
C881 C 0.65363 0.66331 0.82748 0.0
C882 C 0.6395 0.66575 0.08876 0.0
C883 C 0.63611 0.68057 0.10981 0.0
H884 H 0.66005 0.6361 0.07182 0.0
C885 C 0.65024 0.67501 0.13104 0.0
H886 H 0.62889 0.66941 0.07209 0.0
C887 C 0.66809 0.65581 0.1309 0.0
C888 C 0.67231 0.64177 0.10949 0.0
H889 H 0.64806 0.68595 0.14761 0.0
H890 H 0.67915 0.65256 0.14737 0.0
C891 C 0.65741 0.64661 0.08859 0.0
C892 C 0.30563 0.66964 0.09905 0.0
C893 C 0.3306 0.66351 0.10485 0.0
H894 H 0.26834 0.65545 0.09371 0.0
C895 C 0.3357 0.64068 0.11671 0.0
H896 H 0.30122 0.68724 0.09005 0.0
C897 C 0.31689 0.62266 0.11908 0.0
C898 C 0.29287 0.62713 0.10927 0.0
H899 H 0.35475 0.63575 0.1218 0.0
H900 H 0.32197 0.6042 0.12578 0.0
C901 C 0.28676 0.65144 0.10125 0.0
C902 C 0.63522 0.33646 0.1194 0.0
C903 C 0.65908 0.33194 0.10959 0.0
H904 H 0.59828 0.32206 0.1253 0.0
C905 C 0.66595 0.30722 0.104 0.0
H906 H 0.62958 0.35531 0.12412 0.0
C907 C 0.64788 0.28805 0.10457 0.0
C908 C 0.62291 0.29358 0.11078 0.0
H909 H 0.68427 0.30328 0.09639 0.0
H910 H 0.65269 0.26987 0.09725 0.0
C911 C 0.61732 0.31738 0.12013 0.0
C912 C 0.62266 0.8 0.78376 0.0
C913 C 0.62865 0.82506 0.78882 0.0
H914 H 0.61755 0.76352 0.79948 0.0
C915 C 0.64263 0.83084 0.80993 0.0
H916 H 0.61194 0.79523 0.76744 0.0
C917 C 0.64627 0.81265 0.82801 0.0
C918 C 0.63521 0.78893 0.82525 0.0
H919 H 0.64764 0.85009 0.81397 0.0
H920 H 0.65372 0.8184 0.84569 0.0
C921 C 0.62607 0.78179 0.80205 0.0
C922 C 0.18252 0.60889 0.78937 0.0
C923 C 0.18342 0.60862 0.81526 0.0
H924 H 0.15941 0.60919 0.75701 0.0
C925 C 0.16101 0.61192 0.82832 0.0
H926 H 0.19948 0.60667 0.7787 0.0
C927 C 0.13805 0.61367 0.81586 0.0
C928 C 0.13692 0.61198 0.79002 0.0
H929 H 0.16104 0.61215 0.84825 0.0
H930 H 0.12105 0.61494 0.82663 0.0
C931 C 0.15953 0.61052 0.77688 0.0
C932 C 0.36036 0.12489 0.79193 0.0
C933 C 0.36291 0.138 0.76967 0.0
H934 H 0.35841 0.1273 0.83105 0.0
C935 C 0.36104 0.1643 0.76966 0.0
H936 H 0.36122 0.10463 0.7925 0.0
C937 C 0.35931 0.17735 0.7918 0.0
C938 C 0.35948 0.16426 0.81423 0.0
H939 H 0.3625 0.17493 0.7527 0.0
H940 H 0.35994 0.19763 0.7914 0.0
C941 C 0.35862 0.13791 0.81401 0.0
C942 C 0.81086 0.32965 0.78619 0.0
C943 C 0.82389 0.35147 0.77913 0.0
H944 H 0.78495 0.31266 0.81132 0.0
C945 C 0.82178 0.3729 0.79394 0.0
H946 H 0.8121 0.31276 0.77532 0.0
C947 C 0.80635 0.37278 0.81477 0.0
C948 C 0.79248 0.35127 0.82122 0.0
H949 H 0.83167 0.39 0.78918 0.0
H950 H 0.80463 0.38985 0.82529 0.0
C951 C 0.7953 0.32958 0.80691 0.0
C952 C 0.63241 0.17052 0.14634 0.0
C953 C 0.6115 0.17161 0.13046 0.0
H954 H 0.64906 0.15395 0.17842 0.0
C955 C 0.59187 0.15425 0.13399 0.0
H956 H 0.64794 0.18348 0.14418 0.0
C957 C 0.59261 0.1371 0.15365 0.0
C958 C 0.61291 0.13704 0.17034 0.0
H959 H 0.57551 0.15447 0.12209 0.0
H960 H 0.57675 0.12467 0.15638 0.0
C961 C 0.63306 0.15355 0.16605 0.0
C962 C 0.83884 0.63212 0.13533 0.0
C963 C 0.83792 0.6203 0.1584 0.0
H964 H 0.81941 0.63886 0.10153 0.0
C965 C 0.81446 0.61326 0.16809 0.0
H966 H 0.85659 0.63823 0.12766 0.0
C967 C 0.79307 0.61369 0.15305 0.0
C968 C 0.79517 0.62133 0.12846 0.0
H969 H 0.81315 0.6044 0.18601 0.0
H970 H 0.77607 0.60465 0.1595 0.0
C971 C 0.81747 0.6328 0.12049 0.0
C972 C 0.34983 0.80498 0.11294 0.0
C973 C 0.35101 0.78197 0.12545 0.0
H974 H 0.35004 0.84486 0.11584 0.0
C975 C 0.34914 0.7818 0.15131 0.0
H976 H 0.35079 0.80579 0.09305 0.0
C977 C 0.34856 0.80429 0.16445 0.0
C978 C 0.3499 0.82731 0.15194 0.0
H979 H 0.34964 0.76434 0.16152 0.0
H980 H 0.34912 0.8036 0.18437 0.0
C981 C 0.34925 0.82739 0.12604 0.0
C982 C 0.13772 0.34767 0.12962 0.0
C983 C 0.16388 0.34781 0.12637 0.0
H984 H 0.10735 0.35021 0.15496 0.0
C985 C 0.17959 0.34617 0.14715 0.0
H986 H 0.1251 0.34856 0.11395 0.0
C987 C 0.16937 0.34722 0.17074 0.0
C988 C 0.14333 0.34991 0.17382 0.0
H989 H 0.19983 0.34616 0.14524 0.0
H990 H 0.18197 0.34756 0.18643 0.0
C991 C 0.12754 0.34883 0.15312 0.0
C992 C 0.78735 0.61807 0.80203 0.0
C993 C 0.80308 0.61649 0.8228 0.0
H994 H 0.78493 0.61657 0.76276 0.0
C995 C 0.82924 0.6165 0.81953 0.0
H996 H 0.76712 0.61818 0.80394 0.0
C997 C 0.83939 0.61524 0.79602 0.0
C998 C 0.82358 0.61416 0.77533 0.0
H999 H 0.84187 0.61565 0.83518 0.0
H1000 H 0.85958 0.6138 0.79417 0.0
C1001 C 0.79756 0.61691 0.77843 0.0
C1002 C 0.37411 0.82797 0.79344 0.0
C1003 C 0.35352 0.8289 0.77711 0.0
H1004 H 0.39138 0.80944 0.82425 0.0
C1005 C 0.33306 0.81278 0.78141 0.0
H1006 H 0.39022 0.84008 0.7907 0.0
C1007 C 0.33367 0.79531 0.8007 0.0
C1008 C 0.35486 0.79333 0.81615 0.0
H1009 H 0.31683 0.81304 0.76933 0.0
H1010 H 0.31789 0.78266 0.80284 0.0
C1011 C 0.3748 0.81034 0.81268 0.0
C1012 C 0.17348 0.35072 0.79606 0.0
C1013 C 0.17108 0.34337 0.82071 0.0
H1014 H 0.15376 0.35941 0.76275 0.0
C1015 C 0.1489 0.33151 0.82844 0.0
H1016 H 0.19043 0.36 0.78979 0.0
C1017 C 0.12777 0.33167 0.81328 0.0
C1018 C 0.12885 0.34336 0.79016 0.0
H1019 H 0.14678 0.32561 0.84743 0.0
H1020 H 0.11 0.32539 0.82076 0.0
C1021 C 0.15234 0.35064 0.7807 0.0
C1022 C 0.63316 0.13255 0.82119 0.0
C1023 C 0.62213 0.13574 0.79783 0.0
H1024 H 0.64172 0.1492 0.8561 0.0
C1025 C 0.61375 0.15958 0.79073 0.0
H1026 H 0.63938 0.1142 0.82719 0.0
C1027 C 0.61417 0.1793 0.80758 0.0
C1028 C 0.6236 0.17565 0.83154 0.0
H1029 H 0.60471 0.16238 0.77304 0.0
H1030 H 0.60607 0.19712 0.80222 0.0
C1031 C 0.63428 0.15248 0.83779 0.0
C1032 C 0.81041 0.35852 0.15907 0.0
C1033 C 0.83342 0.34876 0.1511 0.0
H1034 H 0.77242 0.36756 0.14952 0.0
C1035 C 0.83458 0.33755 0.12776 0.0
H1036 H 0.80897 0.3675 0.17683 0.0
C1037 C 0.81358 0.33738 0.11218 0.0
C1038 C 0.79116 0.34891 0.11942 0.0
H1039 H 0.85209 0.32994 0.12109 0.0
H1040 H 0.81535 0.32945 0.09397 0.0
C1041 C 0.78957 0.35883 0.14329 0.0
C1042 C 0.60588 0.80256 0.17781 0.0
C1043 C 0.60375 0.82884 0.17812 0.0
H1044 H 0.60664 0.76946 0.15574 0.0
C1045 C 0.60539 0.84218 0.1559 0.0
H1046 H 0.60514 0.79176 0.19471 0.0
C1047 C 0.6065 0.8294 0.13365 0.0
C1048 C 0.60593 0.80305 0.13321 0.0
H1049 H 0.60429 0.86243 0.15556 0.0
H1050 H 0.60602 0.84017 0.11671 0.0
C1051 C 0.607 0.78975 0.1555 0.0
C1052 C 0.15423 0.6347 0.16356 0.0
C1053 C 0.14168 0.61264 0.17073 0.0
H1054 H 0.17999 0.65205 0.13852 0.0
C1055 C 0.1444 0.59113 0.15612 0.0
H1056 H 0.1525 0.65165 0.17427 0.0
C1057 C 0.16001 0.59143 0.13543 0.0
C1058 C 0.17346 0.61319 0.12892 0.0
H1059 H 0.13488 0.57385 0.16096 0.0
H1060 H 0.16224 0.5743 0.12509 0.0
C1061 C 0.16999 0.63494 0.14299 0.0
C1062 C 0.34095 0.18318 0.14589 0.0
C1063 C 0.33139 0.17584 0.12291 0.0
H1064 H 0.35539 0.17006 0.18048 0.0
C1065 C 0.32013 0.15218 0.12056 0.0
H1066 H 0.34963 0.20142 0.14813 0.0
C1067 C 0.32382 0.13419 0.13881 0.0
C1068 C 0.3381 0.14011 0.15969 0.0
H1069 H 0.31238 0.14629 0.10304 0.0
H1070 H 0.31858 0.11494 0.13508 0.0
C1071 C 0.34441 0.16518 0.16437 0.0
C1072 C 0.8201 0.80857 0.57767 0.0
C1073 C 0.82661 0.79511 0.59903 0.0
H1074 H 0.79563 0.83545 0.56107 0.0
C1075 C 0.81447 0.80085 0.62121 0.0
H1076 H 0.82922 0.8048 0.56032 0.0
C1077 C 0.79508 0.81847 0.62165 0.0
C1078 C 0.78748 0.8307 0.59991 0.0
H1079 H 0.81911 0.79092 0.63804 0.0
H1080 H 0.78534 0.82167 0.63879 0.0
C1081 C 0.80078 0.82615 0.57811 0.0
C1082 C 0.84479 0.1478 0.32398 0.0
C1083 C 0.84057 0.17172 0.33374 0.0
H1084 H 0.83151 0.11008 0.32135 0.0
C1085 C 0.81638 0.17774 0.34209 0.0
H1086 H 0.86316 0.14275 0.31715 0.0
C1087 C 0.79809 0.15892 0.34439 0.0
C1088 C 0.80397 0.13406 0.33839 0.0
H1089 H 0.8126 0.19604 0.34973 0.0
H1090 H 0.78065 0.16323 0.3536 0.0
C1091 C 0.82669 0.12906 0.32646 0.0
C1092 C 0.80815 0.82016 0.35969 0.0
C1093 C 0.7933 0.8255 0.33888 0.0
H1094 H 0.83623 0.79665 0.37591 0.0
C1095 C 0.7972 0.81159 0.31732 0.0
H1096 H 0.80574 0.83054 0.37658 0.0
C1097 C 0.81467 0.79205 0.31695 0.0
C1098 C 0.82871 0.78599 0.3381 0.0
H1099 H 0.78617 0.81522 0.30091 0.0
H1100 H 0.81661 0.78124 0.30027 0.0
C1101 C 0.82566 0.80068 0.3593 0.0
C1102 C 0.15858 0.79575 0.34552 0.0
C1103 C 0.13352 0.8021 0.34038 0.0
H1104 H 0.19598 0.80971 0.3508 0.0
C1105 C 0.12822 0.82542 0.3296 0.0
H1106 H 0.16312 0.7778 0.35374 0.0
C1107 C 0.147 0.8435 0.3276 0.0
C1108 C 0.17121 0.83864 0.33678 0.0
H1109 H 0.10907 0.83056 0.32509 0.0
H1110 H 0.14182 0.86221 0.3217 0.0
C1111 C 0.17743 0.81403 0.34375 0.0
C1112 C 0.16623 0.13798 0.36987 0.0
C1113 C 0.17988 0.13364 0.34823 0.0
H1114 H 0.13751 0.15916 0.38741 0.0
C1115 C 0.17263 0.14607 0.32649 0.0
H1116 H 0.1711 0.12851 0.38689 0.0
C1117 C 0.15325 0.1637 0.32679 0.0
C1118 C 0.14076 0.16923 0.34883 0.0
H1119 H 0.18265 0.14303 0.30948 0.0
H1120 H 0.14889 0.17381 0.30999 0.0
C1121 C 0.1469 0.15556 0.37016 0.0
C1122 C 0.15794 0.14345 0.58893 0.0
C1123 C 0.17327 0.13888 0.6096 0.0
H1124 H 0.12902 0.166 0.57274 0.0
C1125 C 0.16938 0.15312 0.63095 0.0
H1126 H 0.16032 0.13279 0.57221 0.0
C1127 C 0.15146 0.17225 0.63123 0.0
C1128 C 0.1369 0.17756 0.61021 0.0
H1129 H 0.18076 0.15009 0.64725 0.0
H1130 H 0.14956 0.18335 0.64774 0.0
C1131 C 0.13995 0.16252 0.58925 0.0
C1132 C 0.78669 0.15166 0.60167 0.0
C1133 C 0.79306 0.12747 0.60988 0.0
H1134 H 0.80077 0.18744 0.58995 0.0
C1135 C 0.81722 0.12328 0.61947 0.0
H1136 H 0.76815 0.15546 0.5943 0.0
C1137 C 0.83587 0.14139 0.61669 0.0
C1138 C 0.83047 0.16406 0.60468 0.0
H1139 H 0.82251 0.10493 0.62631 0.0
H1140 H 0.85502 0.13664 0.62159 0.0
C1141 C 0.8054 0.16996 0.59909 0.0
C1142 C 0.16903 0.80458 0.60097 0.0
C1143 C 0.16263 0.82917 0.60753 0.0
H1144 H 0.15517 0.7675 0.59392 0.0
C1145 C 0.13939 0.83351 0.61874 0.0
H1146 H 0.18686 0.80076 0.59228 0.0
C1147 C 0.12141 0.81453 0.61987 0.0
C1148 C 0.12632 0.79098 0.60958 0.0
H1149 H 0.13414 0.85225 0.62425 0.0
H1150 H 0.1027 0.81916 0.6261 0.0
C1151 C 0.15088 0.78549 0.60198 0.0
C1152 C 0.11656 0.27864 0.46665 0.0
C1153 C 0.11212 0.25616 0.45406 0.0
H1154 H 0.1164 0.29739 0.50119 0.0
C1155 C 0.10903 0.23384 0.46753 0.0
H1156 H 0.11947 0.29603 0.45667 0.0
C1157 C 0.10736 0.23463 0.49324 0.0
C1158 C 0.10874 0.25774 0.50546 0.0
H1159 H 0.10562 0.21628 0.45818 0.0
H1160 H 0.10269 0.21765 0.50324 0.0
C1161 C 0.11484 0.27943 0.49211 0.0
C1162 C 0.72321 0.09197 0.48608 0.0
C1163 C 0.744 0.09808 0.50097 0.0
H1164 H 0.70984 0.08572 0.44912 0.0
C1165 C 0.7661 0.10663 0.48967 0.0
H1166 H 0.70599 0.08518 0.49431 0.0
C1167 C 0.76835 0.10677 0.46417 0.0
C1168 C 0.7485 0.09847 0.4492 0.0
H1169 H 0.78235 0.11176 0.50063 0.0
H1170 H 0.78621 0.11209 0.4562 0.0
C1171 C 0.72544 0.09221 0.46026 0.0
C1172 C 0.85753 0.72801 0.4551 0.0
C1173 C 0.85658 0.70478 0.44306 0.0
H1174 H 0.85916 0.74667 0.49 0.0
C1175 C 0.8511 0.68307 0.45662 0.0
H1176 H 0.86172 0.74501 0.44495 0.0
C1177 C 0.84955 0.68402 0.48209 0.0
C1178 C 0.8536 0.70668 0.49448 0.0
H1179 H 0.84988 0.665 0.44767 0.0
H1180 H 0.84712 0.66663 0.4922 0.0
C1181 C 0.85607 0.72895 0.48082 0.0
C1182 C 0.24287 0.87261 0.4612 0.0
C1183 C 0.22198 0.86624 0.44655 0.0
H1184 H 0.25656 0.87918 0.49799 0.0
C1185 C 0.20008 0.85752 0.45811 0.0
H1186 H 0.25992 0.87956 0.45276 0.0
C1187 C 0.19811 0.8575 0.48363 0.0
C1188 C 0.21802 0.86607 0.49836 0.0
H1189 H 0.18376 0.85222 0.44732 0.0
H1190 H 0.18037 0.85205 0.4918 0.0
C1191 C 0.24091 0.87248 0.48705 0.0
C1192 C 0.11128 0.75796 0.48965 0.0
C1193 C 0.09945 0.7375 0.50113 0.0
H1194 H 0.12017 0.77643 0.45584 0.0
C1195 C 0.09141 0.71725 0.4866 0.0
H1196 H 0.11786 0.77374 0.50039 0.0
C1197 C 0.09282 0.71879 0.46076 0.0
C1198 C 0.10225 0.7406 0.44937 0.0
H1199 H 0.08206 0.70135 0.495 0.0
H1200 H 0.08451 0.70403 0.44978 0.0
C1201 C 0.11263 0.7595 0.46411 0.0
C1202 C 0.23991 0.10633 0.46497 0.0
C1203 C 0.26398 0.10769 0.45444 0.0
H1204 H 0.21885 0.10121 0.4983 0.0
C1205 C 0.28503 0.11006 0.46984 0.0
H1206 H 0.22335 0.10455 0.45346 0.0
C1207 C 0.28243 0.10807 0.49518 0.0
C1208 C 0.25875 0.10381 0.50562 0.0
H1209 H 0.30374 0.11158 0.46224 0.0
H1210 H 0.29921 0.10817 0.50654 0.0
C1211 C 0.2373 0.1044 0.49056 0.0
C1212 C 0.87283 0.24234 0.4815 0.0
C1213 C 0.86527 0.21983 0.49293 0.0
H1214 H 0.88226 0.26062 0.44729 0.0
C1215 C 0.85712 0.1999 0.47817 0.0
H1216 H 0.87931 0.25796 0.49249 0.0
C1217 C 0.85872 0.20143 0.45266 0.0
C1218 C 0.8686 0.2229 0.44116 0.0
H1219 H 0.85092 0.18244 0.48642 0.0
H1220 H 0.85366 0.18509 0.44195 0.0
C1221 C 0.87451 0.24387 0.45568 0.0
C1222 C 0.72961 0.85976 0.45816 0.0
C1223 C 0.70816 0.8603 0.44311 0.0
H1224 H 0.74357 0.85962 0.49526 0.0
C1225 C 0.6845 0.8559 0.45355 0.0
H1226 H 0.74805 0.86305 0.45043 0.0
C1227 C 0.68192 0.85384 0.47889 0.0
C1228 C 0.70296 0.85629 0.49429 0.0
H1229 H 0.66771 0.85574 0.4422 0.0
H1230 H 0.66321 0.85223 0.48648 0.0
C1231 C 0.72702 0.85778 0.48375 0.0
C1232 C 0.4746 0.10737 0.20142 0.0
C1233 C 0.45397 0.1057 0.21742 0.0
H1234 H 0.51454 0.10872 0.19786 0.0
C1235 C 0.45828 0.10714 0.2429 0.0
H1236 H 0.47195 0.10663 0.18168 0.0
C1237 C 0.48278 0.10837 0.25221 0.0
C1238 C 0.50348 0.10825 0.23623 0.0
H1239 H 0.44281 0.10613 0.25574 0.0
H1240 H 0.48548 0.10815 0.27196 0.0
C1241 C 0.49906 0.10868 0.21072 0.0
C1242 C 0.88272 0.49282 0.1745 0.0
C1243 C 0.88247 0.50631 0.19659 0.0
H1244 H 0.88342 0.45718 0.15719 0.0
C1245 C 0.8807 0.493 0.21896 0.0
H1246 H 0.88369 0.50237 0.15689 0.0
C1247 C 0.88053 0.46664 0.21913 0.0
C1248 C 0.88218 0.45331 0.19694 0.0
H1249 H 0.88041 0.50288 0.2363 0.0
H1250 H 0.88011 0.45678 0.23658 0.0
C1251 C 0.88259 0.46677 0.17467 0.0
C1252 C 0.49441 0.8635 0.21315 0.0
C1253 C 0.49896 0.86514 0.23854 0.0
H1254 H 0.46727 0.86496 0.18417 0.0
C1255 C 0.47837 0.86663 0.25462 0.0
H1256 H 0.50977 0.86217 0.20024 0.0
C1257 C 0.45387 0.86822 0.24537 0.0
C1258 C 0.44956 0.86849 0.21987 0.0
H1259 H 0.48123 0.86779 0.27432 0.0
H1260 H 0.43849 0.8705 0.25812 0.0
C1261 C 0.47 0.86524 0.20392 0.0
C1262 C 0.10773 0.49033 0.27724 0.0
C1263 C 0.10633 0.50436 0.25539 0.0
H1264 H 0.10668 0.45416 0.29395 0.0
C1265 C 0.10656 0.49177 0.23271 0.0
H1266 H 0.10798 0.49951 0.29497 0.0
C1267 C 0.10577 0.46545 0.23212 0.0
C1268 C 0.10473 0.45163 0.25419 0.0
H1269 H 0.10546 0.50218 0.21559 0.0
H1270 H 0.10415 0.45609 0.21455 0.0
C1271 C 0.10694 0.46432 0.27665 0.0
C1272 C 0.4841 0.85712 0.6957 0.0
C1273 C 0.46333 0.85716 0.71161 0.0
H1274 H 0.52409 0.85925 0.69236 0.0
C1275 C 0.46765 0.85643 0.73713 0.0
H1276 H 0.48147 0.85756 0.67595 0.0
C1277 C 0.49208 0.85754 0.74654 0.0
C1278 C 0.51277 0.85931 0.73064 0.0
H1279 H 0.45211 0.85631 0.74993 0.0
H1280 H 0.49465 0.85806 0.7663 0.0
C1281 C 0.50856 0.85815 0.70513 0.0
C1282 C 0.08574 0.47115 0.77092 0.0
C1283 C 0.08506 0.45699 0.74926 0.0
H1284 H 0.08557 0.50729 0.78717 0.0
C1285 C 0.08575 0.46959 0.72643 0.0
H1286 H 0.08562 0.46213 0.78883 0.0
C1287 C 0.08572 0.49593 0.72546 0.0
C1288 C 0.08493 0.50992 0.74729 0.0
H1289 H 0.0853 0.45917 0.7094 0.0
H1290 H 0.08528 0.50527 0.70773 0.0
C1291 C 0.08566 0.49716 0.76996 0.0
C1292 C 0.47348 0.10332 0.73676 0.0
C1293 C 0.46907 0.10186 0.71133 0.0
H1294 H 0.50048 0.1018 0.76589 0.0
C1295 C 0.48978 0.10071 0.69536 0.0
H1296 H 0.45801 0.10436 0.74959 0.0
C1297 C 0.51424 0.09924 0.70475 0.0
C1298 C 0.51844 0.09877 0.73027 0.0
H1299 H 0.48706 0.09971 0.67564 0.0
H1300 H 0.5297 0.09719 0.69204 0.0
C1301 C 0.49787 0.10171 0.74613 0.0
C1302 C 0.85674 0.49946 0.67317 0.0
C1303 C 0.85998 0.51225 0.69546 0.0
H1304 H 0.85496 0.46415 0.65508 0.0
C1305 C 0.85977 0.49856 0.71763 0.0
H1306 H 0.85635 0.50954 0.65582 0.0
C1307 C 0.85891 0.47224 0.71719 0.0
C1308 C 0.85824 0.45953 0.69459 0.0
H1309 H 0.8622 0.50801 0.73507 0.0
H1310 H 0.8608 0.46191 0.7343 0.0
C1311 C 0.85588 0.47344 0.67274 0.0
C1312 C 0.20945 0.49557 0.08225 0.0
C1313 C 0.23517 0.50134 0.08275 0.0
H1314 H 0.18155 0.46686 0.0792 0.0
C1315 C 0.25273 0.48174 0.08291 0.0
H1316 H 0.19549 0.51027 0.08211 0.0
C1317 C 0.24478 0.45689 0.08131 0.0
C1318 C 0.21912 0.45118 0.07929 0.0
H1319 H 0.2727 0.48562 0.08346 0.0
H1320 H 0.2588 0.44226 0.0807 0.0
C1321 C 0.2015 0.4707 0.08041 0.0
C1322 C 0.2264 0.50064 0.8508 0.0
C1323 C 0.25107 0.5069 0.85756 0.0
H1324 H 0.19935 0.47146 0.84576 0.0
C1325 C 0.26851 0.48745 0.86147 0.0
H1326 H 0.21254 0.51508 0.84747 0.0
C1327 C 0.26097 0.46232 0.86037 0.0
C1328 C 0.23581 0.45618 0.85552 0.0
H1329 H 0.28777 0.49162 0.8665 0.0
H1330 H 0.27448 0.44783 0.86477 0.0
C1331 C 0.21885 0.47558 0.84987 0.0
C1332 C 0.47766 0.21301 0.86038 0.0
C1333 C 0.45786 0.22996 0.86393 0.0
H1334 H 0.51734 0.20759 0.85845 0.0
C1335 C 0.46335 0.25558 0.86609 0.0
H1336 H 0.47398 0.19316 0.85834 0.0
C1337 C 0.48831 0.26385 0.86634 0.0
C1338 C 0.50817 0.24668 0.86408 0.0
H1339 H 0.44848 0.26907 0.86875 0.0
H1340 H 0.49207 0.28358 0.86916 0.0
C1341 C 0.50252 0.22129 0.86028 0.0
C1342 C 0.72235 0.50775 0.87088 0.0
C1343 C 0.74801 0.5137 0.87189 0.0
H1344 H 0.69463 0.47874 0.87023 0.0
C1345 C 0.76575 0.4943 0.87051 0.0
H1346 H 0.70824 0.52227 0.87174 0.0
C1347 C 0.75796 0.46934 0.86936 0.0
C1348 C 0.73229 0.46335 0.86988 0.0
H1349 H 0.78569 0.49834 0.87096 0.0
H1350 H 0.77203 0.45474 0.86926 0.0
C1351 C 0.71457 0.4828 0.87002 0.0
C1352 C 0.4879 0.70625 0.86006 0.0
C1353 C 0.46909 0.72466 0.85845 0.0
H1354 H 0.52714 0.69844 0.86373 0.0
C1355 C 0.47622 0.74992 0.85676 0.0
H1356 H 0.48305 0.68656 0.86116 0.0
C1357 C 0.50154 0.75672 0.85835 0.0
C1358 C 0.52024 0.73838 0.8615 0.0
H1359 H 0.46221 0.76454 0.85543 0.0
H1360 H 0.50635 0.77645 0.858 0.0
C1361 C 0.51321 0.71303 0.8615 0.0
C1362 C 0.74299 0.49157 0.10091 0.0
C1363 C 0.72671 0.51093 0.09351 0.0
H1364 H 0.74878 0.45212 0.10467 0.0
C1365 C 0.70197 0.50487 0.0868 0.0
H1366 H 0.76213 0.49567 0.10644 0.0
C1367 C 0.69434 0.47975 0.08559 0.0
C1368 C 0.71127 0.46029 0.0913 0.0
H1369 H 0.68903 0.51937 0.08098 0.0
H1370 H 0.67555 0.47558 0.07909 0.0
C1371 C 0.73534 0.46656 0.09992 0.0
C1372 C 0.50112 0.7122 0.0838 0.0
C1373 C 0.50646 0.73794 0.08437 0.0
H1374 H 0.47266 0.68389 0.08188 0.0
C1375 C 0.48648 0.75499 0.08634 0.0
H1376 H 0.5161 0.69862 0.08241 0.0
C1377 C 0.46163 0.74659 0.08631 0.0
C1378 C 0.45622 0.72097 0.08402 0.0
H1379 H 0.49 0.77497 0.08716 0.0
H1380 H 0.4467 0.76029 0.08681 0.0
C1381 C 0.47622 0.7038 0.08348 0.0
C1382 C 0.47878 0.25676 0.08209 0.0
C1383 C 0.49733 0.23812 0.08396 0.0
H1384 H 0.4396 0.26509 0.07931 0.0
C1385 C 0.48987 0.21306 0.08691 0.0
H1386 H 0.48392 0.27631 0.08005 0.0
C1387 C 0.46441 0.20663 0.08632 0.0
C1388 C 0.44591 0.22516 0.08301 0.0
H1389 H 0.5037 0.1983 0.08845 0.0
H1390 H 0.45928 0.18702 0.08762 0.0
C1391 C 0.45334 0.25036 0.08173 0.0
C1392 C 0.61274 0.78247 -0.00915 0.0
C1393 C 0.60744 0.76078 0.00452 0.0
H1394 H 0.617 0.79867 0.9552 0.0
C1395 C 0.60694 0.73746 -0.00735 0.0
H1396 H 0.61365 0.80062 -0.00034 0.0
C1397 C 0.60876 0.73632 0.96695 0.0
C1398 C 0.61114 0.75852 0.95316 0.0
H1399 H 0.60291 0.72047 0.00288 0.0
H1400 H 0.6061 0.71849 0.95787 0.0
C1401 C 0.61464 0.78134 0.96542 0.0
C1402 C 0.22485 0.59248 0.95924 0.0
C1403 C 0.24786 0.59882 0.94814 0.0
H1404 H 0.20549 0.58534 -0.00668 0.0
C1405 C 0.26771 0.60717 0.96308 0.0
H1406 H 0.20924 0.58594 0.94813 0.0
C1407 C 0.26552 0.607 -0.01142 0.0
C1408 C 0.24347 0.59836 -8e-05 0.0
H1409 H 0.28554 0.61255 0.95508 0.0
H1410 H 0.28178 0.61215 -0.00048 0.0
C1411 C 0.22267 0.5922 -0.01494 0.0
C1412 C 0.35504 0.22942 -0.01909 0.0
C1413 C 0.35247 0.20701 -0.00567 0.0
H1414 H 0.36115 0.24585 0.94527 0.0
C1415 C 0.34869 0.18445 -0.01831 0.0
H1416 H 0.35792 0.24706 -0.00971 0.0
C1417 C 0.35063 0.18375 0.95623 0.0
C1418 C 0.35623 0.20562 0.94296 0.0
H1419 H 0.34619 0.16697 -0.00839 0.0
H1420 H 0.34961 0.16577 0.94711 0.0
C1421 C 0.35688 0.22873 0.95521 0.0
C1422 C 0.70456 0.3536 -0.01065 0.0
C1423 C 0.72278 0.36524 0.00416 0.0
H1424 H 0.69164 0.34598 0.95291 0.0
C1425 C 0.74483 0.37441 -0.00692 0.0
H1426 H 0.68749 0.34617 -0.0026 0.0
C1427 C 0.74723 0.37432 0.96727 0.0
C1428 C 0.72763 0.36496 0.95246 0.0
H1429 H 0.75908 0.38362 0.0041 0.0
H1430 H 0.7632 0.3836 0.95893 0.0
C1431 C 0.70699 0.35341 0.96386 0.0
C1432 C 0.61277 0.25945 0.96536 0.0
C1433 C 0.60205 0.24078 0.95057 0.0
H1434 H 0.61801 0.27364 0.00167 0.0
C1435 C 0.59208 0.21919 0.96191 0.0
H1436 H 0.6207 0.27621 0.95712 0.0
C1437 C 0.59045 0.21771 -0.01226 0.0
C1438 C 0.59883 0.23781 0.0023 0.0
H1439 H 0.58348 0.20463 0.95088 0.0
H1440 H 0.58064 0.20206 -0.00392 0.0
C1441 C 0.61121 0.25797 -0.00911 0.0
C1442 C 0.7827 0.6091 -0.0037 0.0
C1443 C 0.7588 0.60537 0.00645 0.0
H1444 H 0.8045 0.61223 0.96364 0.0
C1445 C 0.73756 0.60652 -0.00886 0.0
H1446 H 0.79934 0.60876 0.00786 0.0
C1447 C 0.74053 0.60845 0.96559 0.0
C1448 C 0.76475 0.60927 0.95534 0.0
H1449 H 0.71895 0.60376 -0.00135 0.0
H1450 H 0.72407 0.60709 0.9539 0.0
C1451 C 0.78566 0.61112 0.971 0.0
C1452 C 0.37483 0.74148 0.95557 0.0
C1453 C 0.37022 0.72009 0.94121 0.0
H1454 H 0.37849 0.7562 -0.00775 0.0
C1455 C 0.36162 0.69816 0.95287 0.0
H1456 H 0.38152 0.75862 0.94706 0.0
C1457 C 0.35997 0.69677 -0.02162 0.0
C1458 C 0.36676 0.7173 -0.00701 0.0
H1459 H 0.35751 0.68147 0.9423 0.0
H1460 H 0.35468 0.67907 -0.01326 0.0
C1461 C 0.37309 0.74009 -0.01861 0.0
C1462 C 0.22566 0.35816 -0.01661 0.0
C1463 C 0.20159 0.357 -0.00607 0.0
H1464 H 0.24676 0.36315 0.95007 0.0
C1465 C 0.1805 0.35499 -0.02147 0.0
H1466 H 0.24225 0.35965 -0.00511 0.0
C1467 C 0.1831 0.3571 0.9532 0.0
C1468 C 0.20683 0.36111 0.94276 0.0
H1469 H 0.16177 0.35363 -0.01387 0.0
H1470 H 0.16631 0.35723 0.94186 0.0
C1471 C 0.22828 0.36018 0.95781 0.0
C1472 C 0.98247 0.60681 0.75122 0.0
C1473 C 0.00302 0.60631 0.73507 0.0
H1474 H 0.94252 0.605 0.75511 0.0
C1475 C -0.00161 0.60639 0.7096 0.0
H1476 H -0.01465 0.60688 0.77095 0.0
C1477 C 0.97383 0.60515 0.70052 0.0
C1478 C 0.95334 0.60393 0.71671 0.0
H1479 H 0.01376 0.60611 0.69661 0.0
H1480 H 0.971 0.60416 0.68081 0.0
C1481 C 0.95789 0.60568 0.74213 0.0
C1482 C 0.38394 0.96788 0.67739 0.0
C1483 C 0.38336 0.95477 0.69987 0.0
H1484 H 0.3852 0.00315 0.65905 0.0
C1485 C 0.3817 0.96846 0.72184 0.0
H1486 H 0.38475 0.95802 0.66005 0.0
C1487 C 0.38195 -0.00518 0.72124 0.0
C1488 C 0.38382 0.00775 0.69866 0.0
H1489 H 0.38113 0.95888 0.73944 0.0
H1490 H 0.3816 0.00499 0.73842 0.0
C1491 C 0.38416 -0.0061 0.6768 0.0
C1492 C 0.97787 0.36612 0.75566 0.0
C1493 C -0.00175 0.36443 0.73935 0.0
H1494 H 0.93806 0.37027 0.75959 0.0
C1495 C -0.00661 0.36281 0.71401 0.0
H1496 H 0.98096 0.36727 0.77532 0.0
C1497 C 0.96889 0.36474 0.70505 0.0
C1498 C 0.94867 0.36814 0.72123 0.0
H1499 H 0.00859 0.36135 0.70093 0.0
H1500 H 0.96593 0.36445 0.68533 0.0
C1501 C 0.95327 0.36788 0.74667 0.0
C1502 C 0.60598 0.96471 0.77728 0.0
C1503 C 0.60404 0.95219 0.7547 0.0
H1504 H 0.60697 -0.00024 0.79587 0.0
C1505 C 0.6054 0.96618 0.73275 0.0
H1506 H 0.60549 0.95443 0.79451 0.0
C1507 C 0.60631 -0.00751 0.73355 0.0
C1508 C 0.60587 0.00492 0.75631 0.0
H1509 H 0.604 0.95696 0.7151 0.0
H1510 H 0.60551 0.00304 0.71649 0.0
C1511 C 0.60689 -0.00928 0.77807 0.0
C1512 C 0.96804 0.35674 0.23612 0.0
C1513 C 0.96421 0.35715 0.21052 0.0
H1514 H -0.00546 0.35856 0.26573 0.0
C1515 C -0.01474 0.35674 0.19499 0.0
H1516 H 0.95226 0.35694 0.24863 0.0
C1517 C 0.00954 0.35767 0.20482 0.0
C1518 C 0.0133 0.35913 0.23038 0.0
H1519 H 0.983 0.3569 0.17519 0.0
H1520 H 0.0253 0.35845 0.1923 0.0
C1521 C -0.00769 0.35778 0.24594 0.0
C1522 C 0.58604 -0.00241 0.22661 0.0
C1523 C 0.58459 0.01145 0.24849 0.0
H1524 H 0.58622 0.96093 0.21035 0.0
C1525 C 0.58461 -0.00145 0.2711 0.0
H1526 H 0.58616 0.00702 0.20893 0.0
C1527 C 0.58471 0.97253 0.27192 0.0
C1528 C 0.58477 0.9585 0.25017 0.0
H1529 H 0.58399 0.00857 0.28836 0.0
H1530 H 0.58408 0.96342 0.28976 0.0
C1531 C 0.5861 0.97125 0.22745 0.0
C1532 C -0.00273 0.60003 0.24527 0.0
C1533 C 0.01781 0.59724 0.22934 0.0
H1534 H 0.95742 0.60244 0.24888 0.0
C1535 C 0.01351 0.59765 0.20384 0.0
H1536 H -5e-05 0.60014 0.26503 0.0
C1537 C -0.011 0.59897 0.19454 0.0
C1538 C 0.96834 0.60002 0.21058 0.0
H1539 H 0.02893 0.59572 0.19107 0.0
H1540 H -0.01379 0.59797 0.17483 0.0
C1541 C 0.97284 0.60147 0.236 0.0
C1542 C 0.36108 -0.00095 0.21612 0.0
C1543 C 0.36204 0.01299 0.19412 0.0
H1544 H 0.36138 0.96224 0.23245 0.0
C1545 C 0.35959 0.00043 0.17161 0.0
H1546 H 0.36287 0.00831 0.23373 0.0
C1547 C 0.35867 0.97442 0.17089 0.0
C1548 C 0.36018 0.96026 0.19265 0.0
H1549 H 0.35977 0.01068 0.15435 0.0
H1550 H 0.35828 0.96533 0.15311 0.0
C1551 C 0.36016 0.97274 0.21539 0.0
C1552 C 0.75346 0.98161 0.58371 0.0
C1553 C 0.73583 0.00115 0.58351 0.0
H1554 H 0.75971 0.94217 0.5813 0.0
C1555 C 0.71014 -0.00472 0.58271 0.0
H1556 H 0.77341 -0.01443 0.58449 0.0
C1557 C 0.70231 0.9704 0.58062 0.0
C1558 C 0.72001 0.95095 0.57955 0.0
H1559 H 0.69612 0.00993 0.58252 0.0
H1560 H 0.68239 0.9665 0.5792 0.0
C1561 C 0.74563 0.95674 0.58186 0.0
C1562 C 0.72717 0.00037 0.35166 0.0
C1563 C 0.75183 0.00667 0.35843 0.0
H1564 H 0.70019 0.97114 0.34655 0.0
C1565 C 0.76931 -0.01275 0.3623 0.0
H1566 H 0.71328 0.01478 0.34836 0.0
C1567 C 0.76183 0.9621 0.36114 0.0
C1568 C 0.73669 0.95592 0.35626 0.0
H1569 H 0.78857 -0.00855 0.36734 0.0
H1570 H 0.77537 0.94763 0.3655 0.0
C1571 C 0.71968 0.9753 0.35066 0.0
C1572 C 0.96294 0.75427 0.36556 0.0
C1573 C 0.95749 0.72863 0.36351 0.0
H1574 H -0.00839 0.78234 0.36844 0.0
C1575 C 0.9773 0.7117 0.35999 0.0
H1576 H 0.94805 0.76775 0.3682 0.0
C1577 C 0.00215 0.72003 0.3598 0.0
C1578 C 0.00776 0.74544 0.36347 0.0
H1579 H 0.97366 0.69183 0.35804 0.0
H1580 H 0.01698 0.70634 0.35797 0.0
C1581 C -0.01212 0.76259 0.36572 0.0
C1582 C 0.22088 0.00795 0.36634 0.0
C1583 C 0.24656 0.01348 0.36862 0.0
H1584 H 0.19281 0.97941 0.36364 0.0
C1585 C 0.26407 -0.00613 0.36739 0.0
H1586 H 0.20694 0.02265 0.36701 0.0
C1587 C 0.25599 0.96908 0.36518 0.0
C1588 C 0.23025 0.96346 0.36443 0.0
H1589 H 0.28403 -0.00242 0.36878 0.0
H1590 H 0.26986 0.95429 0.36526 0.0
C1591 C 0.2128 -0.01683 0.36438 0.0
C1592 C 0.00137 0.25757 0.35993 0.0
C1593 C 0.0199 0.239 0.36282 0.0
H1594 H 0.96211 0.26579 0.35709 0.0
C1595 C 0.01262 0.21373 0.36247 0.0
H1596 H 0.00638 0.27725 0.35986 0.0
C1597 C -0.01275 0.20722 0.36094 0.0
C1598 C 0.96862 0.22582 0.35955 0.0
H1599 H 0.02639 0.19897 0.36448 0.0
H1600 H 0.98219 0.18756 0.36176 0.0
C1601 C 0.97598 0.25104 0.35822 0.0
C1602 C 0.20472 0.0022 0.58723 0.0
C1603 C 0.22985 0.00829 0.59232 0.0
H1604 H 0.17797 0.97295 0.58068 0.0
C1605 C 0.24676 -0.01116 0.59795 0.0
H1606 H 0.19127 0.01674 0.58283 0.0
C1607 C 0.23921 0.96379 0.59677 0.0
C1608 C 0.21459 0.95758 0.58977 0.0
H1609 H 0.26623 -0.00708 0.60222 0.0
H1610 H 0.25305 0.94933 0.60009 0.0
C1611 C 0.19718 0.97708 0.58588 0.0
C1612 C 0.96205 0.24555 0.58618 0.0
C1613 C 0.95607 0.22013 0.58329 0.0
H1614 H -0.00896 0.27326 0.58777 0.0
C1615 C 0.97569 0.20253 0.58239 0.0
H1616 H 0.94742 0.25956 0.58696 0.0
C1617 C 0.00078 0.21036 0.583 0.0
C1618 C 0.00668 0.23596 0.5842 0.0
H1619 H 0.97169 0.18275 0.58033 0.0
H1620 H 0.01546 0.1965 0.58135 0.0
C1621 C -0.01292 0.25339 0.58648 0.0
C1622 C -0.00854 0.71288 0.58683 0.0
C1623 C -0.00096 0.73789 0.58378 0.0
H1624 H 0.96076 0.68698 0.58771 0.0
C1625 C 0.98057 0.75661 0.58186 0.0
H1626 H 0.00521 0.69805 0.58844 0.0
C1627 C 0.95509 0.75032 0.58154 0.0
C1628 C 0.94755 0.72516 0.58295 0.0
H1629 H -0.0142 0.77612 0.57972 0.0
H1630 H 0.94141 0.76509 0.57907 0.0
C1631 C 0.96597 0.70656 0.58632 0.0
loop_
_geom_bond_atom_site_label_1
_geom_bond_atom_site_label_2
_geom_bond_distance
_geom_bond_site_symmetry_2
_ccdc_geom_bond_type
Zn0 O3 2.031 . S
Zn0 O5 2.049 . S
Zn0 O10 2.067 . S
Zn1 O2 1.962 . S
Zn1 O4 1.986 . S
Zn1 O6 1.996 . S
Zn1 O9 1.943 . S
O2 Zn1 1.962 . S
O2 C7 1.254 . S
O3 Zn0 2.031 . S
O3 C7 1.269 . S
O4 Zn1 1.986 . S
O4 C11 1.262 . S
O5 Zn0 2.049 . S
O5 C13 1.260 . S
O6 Zn1 1.996 . S
O6 C13 1.257 . S
C7 O2 1.254 . S
C7 O3 1.269 . S
C8 O9 1.249 . S
C8 O10 1.270 . S
O9 Zn1 1.943 . S
O9 C8 1.249 . S
O10 Zn0 2.067 . S
O10 C8 1.270 . S
C11 O4 1.262 . S
C11 O12 1.232 . S
O12 C11 1.232 . S
C13 O5 1.260 . S
C13 O6 1.257 . S
Zn14 O17 2.031 . S
Zn14 O19 2.049 . S
Zn14 O24 2.067 . S
Zn15 O16 1.962 . S
Zn15 O18 1.986 . S
Zn15 O20 1.996 . S
Zn15 O23 1.943 . S
O16 Zn15 1.962 . S
O16 C21 1.254 . S
O17 Zn14 2.031 . S
O17 C21 1.269 . S
O18 Zn15 1.986 . S
O18 C25 1.262 . S
O19 Zn14 2.049 . S
O19 C27 1.260 . S
O20 Zn15 1.996 . S
O20 C27 1.257 . S
C21 O16 1.254 . S
C21 O17 1.269 . S
C22 O23 1.249 . S
C22 O24 1.270 . S
O23 Zn15 1.943 . S
O23 C22 1.249 . S
O24 Zn14 2.067 . S
O24 C22 1.270 . S
C25 O18 1.262 . S
C25 O26 1.232 . S
O26 C25 1.232 . S
C27 O19 1.260 . S
C27 O20 1.257 . S
Zn28 O31 2.031 . S
Zn28 O33 2.049 . S
Zn28 O38 2.067 . S
Zn29 O30 1.962 . S
Zn29 O32 1.986 . S
Zn29 O34 1.996 . S
Zn29 O37 1.943 . S
O30 Zn29 1.962 . S
O30 C35 1.254 . S
O31 Zn28 2.031 . S
O31 C35 1.269 . S
O32 Zn29 1.986 . S
O32 C39 1.262 . S
O33 Zn28 2.049 . S
O33 C41 1.260 . S
O34 Zn29 1.996 . S
O34 C41 1.257 . S
C35 O30 1.254 . S
C35 O31 1.269 . S
C36 O37 1.249 . S
C36 O38 1.270 . S
O37 Zn29 1.943 . S
O37 C36 1.249 . S
O38 Zn28 2.067 . S
O38 C36 1.270 . S
C39 O32 1.262 . S
C39 O40 1.232 . S
O40 C39 1.232 . S
C41 O33 1.260 . S
C41 O34 1.257 . S
Zn42 O45 2.031 . S
Zn42 O47 2.049 . S
Zn42 O52 2.067 . S
Zn43 O44 1.962 . S
Zn43 O46 1.986 . S
Zn43 O48 1.996 . S
Zn43 O51 1.943 . S
O44 Zn43 1.962 . S
O44 C49 1.254 . S
O45 Zn42 2.031 . S
O45 C49 1.269 . S
O46 Zn43 1.986 . S
O46 C53 1.262 . S
O47 Zn42 2.049 . S
O47 C55 1.260 . S
O48 Zn43 1.996 . S
O48 C55 1.257 . S
C49 O44 1.254 . S
C49 O45 1.269 . S
C50 O51 1.249 . S
C50 O52 1.270 . S
O51 Zn43 1.943 . S
O51 C50 1.249 . S
O52 Zn42 2.067 . S
O52 C50 1.270 . S
C53 O46 1.262 . S
C53 O54 1.232 . S
O54 C53 1.232 . S
C55 O47 1.260 . S
C55 O48 1.257 . S
Zn56 O59 2.031 . S
Zn56 O61 2.049 . S
Zn56 O66 2.067 . S
Zn57 O58 1.962 . S
Zn57 O60 1.986 . S
Zn57 O62 1.996 . S
Zn57 O65 1.943 . S
O58 Zn57 1.962 . S
O58 C63 1.254 . S
O59 Zn56 2.031 . S
O59 C63 1.269 . S
O60 Zn57 1.986 . S
O60 C67 1.262 . S
O61 Zn56 2.049 . S
O61 C69 1.260 . S
O62 Zn57 1.996 . S
O62 C69 1.257 . S
C63 O58 1.254 . S
C63 O59 1.269 . S
C64 O65 1.249 . S
C64 O66 1.270 . S
O65 Zn57 1.943 . S
O65 C64 1.249 . S
O66 Zn56 2.067 . S
O66 C64 1.270 . S
C67 O60 1.262 . S
C67 O68 1.232 . S
O68 C67 1.232 . S
C69 O61 1.260 . S
C69 O62 1.257 . S
Zn70 O73 2.031 . S
Zn70 O75 2.049 . S
Zn70 O80 2.067 . S
Zn71 O72 1.962 . S
Zn71 O74 1.986 . S
Zn71 O76 1.996 . S
Zn71 O79 1.943 . S
O72 Zn71 1.962 . S
O72 C77 1.254 . S
O73 Zn70 2.031 . S
O73 C77 1.269 . S
O74 Zn71 1.986 . S
O74 C81 1.262 . S
O75 Zn70 2.049 . S
O75 C83 1.260 . S
O76 Zn71 1.996 . S
O76 C83 1.257 . S
C77 O72 1.254 . S
C77 O73 1.269 . S
C78 O79 1.249 . S
C78 O80 1.270 . S
O79 Zn71 1.943 . S
O79 C78 1.249 . S
O80 Zn70 2.067 . S
O80 C78 1.270 . S
C81 O74 1.262 . S
C81 O82 1.232 . S
O82 C81 1.232 . S
C83 O75 1.260 . S
C83 O76 1.257 . S
Zn84 O87 2.031 . S
Zn84 O89 2.049 . S
Zn84 O94 2.067 . S
Zn85 O86 1.962 . S
Zn85 O88 1.986 . S
Zn85 O90 1.996 . S
Zn85 O93 1.943 . S
O86 Zn85 1.962 . S
O86 C91 1.254 . S
O87 Zn84 2.031 . S
O87 C91 1.269 . S
O88 Zn85 1.986 . S
O88 C95 1.262 . S
O89 Zn84 2.049 . S
O89 C97 1.260 . S
O90 Zn85 1.996 . S
O90 C97 1.257 . S
C91 O86 1.254 . S
C91 O87 1.269 . S
C92 O93 1.249 . S
C92 O94 1.270 . S
O93 Zn85 1.943 . S
O93 C92 1.249 . S
O94 Zn84 2.067 . S
O94 C92 1.270 . S
C95 O88 1.262 . S
C95 O96 1.232 . S
O96 C95 1.232 . S
C97 O89 1.260 . S
C97 O90 1.257 . S
Zn98 O101 2.031 . S
Zn98 O103 2.049 . S
Zn98 O108 2.067 . S
Zn99 O100 1.962 . S
Zn99 O102 1.986 . S
Zn99 O104 1.996 . S
Zn99 O107 1.943 . S
O100 Zn99 1.962 . S
O100 C105 1.254 . S
O101 Zn98 2.031 . S
O101 C105 1.269 . S
O102 Zn99 1.986 . S
O102 C109 1.262 . S
O103 Zn98 2.049 . S
O103 C111 1.260 . S
O104 Zn99 1.996 . S
O104 C111 1.257 . S
C105 O100 1.254 . S
C105 O101 1.269 . S
C106 O107 1.249 . S
C106 O108 1.270 . S
O107 Zn99 1.943 . S
O107 C106 1.249 . S
O108 Zn98 2.067 . S
O108 C106 1.270 . S
C109 O102 1.262 . S
C109 O110 1.232 . S
O110 C109 1.232 . S
C111 O103 1.260 . S
C111 O104 1.257 . S
Zn112 O115 2.031 . S
Zn112 O117 2.049 . S
Zn112 O122 2.067 . S
Zn113 O114 1.962 . S
Zn113 O116 1.986 . S
Zn113 O118 1.996 . S
Zn113 O121 1.943 . S
O114 Zn113 1.962 . S
O114 C119 1.254 . S
O115 Zn112 2.031 . S
O115 C119 1.269 . S
O116 Zn113 1.986 . S
O116 C123 1.262 . S
O117 Zn112 2.049 . S
O117 C125 1.260 . S
O118 Zn113 1.996 . S
O118 C125 1.257 . S
C119 O114 1.254 . S
C119 O115 1.269 . S
C120 O121 1.249 . S
C120 O122 1.270 . S
O121 Zn113 1.943 . S
O121 C120 1.249 . S
O122 Zn112 2.067 . S
O122 C120 1.270 . S
C123 O116 1.262 . S
C123 O124 1.232 . S
O124 C123 1.232 . S
C125 O117 1.260 . S
C125 O118 1.257 . S
Zn126 O129 2.031 . S
Zn126 O131 2.049 . S
Zn126 O136 2.067 . S
Zn127 O128 1.962 . S
Zn127 O130 1.986 . S
Zn127 O132 1.996 . S
Zn127 O135 1.943 . S
O128 Zn127 1.962 . S
O128 C133 1.254 . S
O129 Zn126 2.031 . S
O129 C133 1.269 . S
O130 Zn127 1.986 . S
O130 C137 1.262 . S
O131 Zn126 2.049 . S
O131 C139 1.260 . S
O132 Zn127 1.996 . S
O132 C139 1.257 . S
C133 O128 1.254 . S
C133 O129 1.269 . S
C134 O135 1.249 . S
C134 O136 1.270 . S
O135 Zn127 1.943 . S
O135 C134 1.249 . S
O136 Zn126 2.067 . S
O136 C134 1.270 . S
C137 O130 1.262 . S
C137 O138 1.232 . S
O138 C137 1.232 . S
C139 O131 1.260 . S
C139 O132 1.257 . S
Zn140 O143 2.031 . S
Zn140 O145 2.049 . S
Zn140 O150 2.067 . S
Zn141 O142 1.962 . S
Zn141 O144 1.986 . S
Zn141 O146 1.996 . S
Zn141 O149 1.943 . S
O142 Zn141 1.962 . S
O142 C147 1.254 . S
O143 Zn140 2.031 . S
O143 C147 1.269 . S
O144 Zn141 1.986 . S
O144 C151 1.262 . S
O145 Zn140 2.049 . S
O145 C153 1.260 . S
O146 Zn141 1.996 . S
O146 C153 1.257 . S
C147 O142 1.254 . S
C147 O143 1.269 . S
C148 O149 1.249 . S
C148 O150 1.270 . S
O149 Zn141 1.943 . S
O149 C148 1.249 . S
O150 Zn140 2.067 . S
O150 C148 1.270 . S
C151 O144 1.262 . S
C151 O152 1.232 . S
O152 C151 1.232 . S
C153 O145 1.260 . S
C153 O146 1.257 . S
Zn154 O157 2.031 . S
Zn154 O159 2.049 . S
Zn154 O164 2.067 . S
Zn155 O156 1.962 . S
Zn155 O158 1.986 . S
Zn155 O160 1.996 . S
Zn155 O163 1.943 . S
O156 Zn155 1.962 . S
O156 C161 1.254 . S
O157 Zn154 2.031 . S
O157 C161 1.269 . S
O158 Zn155 1.986 . S
O158 C165 1.262 . S
O159 Zn154 2.049 . S
O159 C167 1.260 . S
O160 Zn155 1.996 . S
O160 C167 1.257 . S
C161 O156 1.254 . S
C161 O157 1.269 . S
C162 O163 1.249 . S
C162 O164 1.270 . S
O163 Zn155 1.943 . S
O163 C162 1.249 . S
O164 Zn154 2.067 . S
O164 C162 1.270 . S
C165 O158 1.262 . S
C165 O166 1.232 . S
O166 C165 1.232 . S
C167 O159 1.260 . S
C167 O160 1.257 . S
Zn168 O171 2.031 . S
Zn168 O173 2.049 . S
Zn168 O178 2.067 . S
Zn169 O170 1.962 . S
Zn169 O172 1.986 . S
Zn169 O174 1.996 . S
Zn169 O177 1.943 . S
O170 Zn169 1.962 . S
O170 C175 1.254 . S
O171 Zn168 2.031 . S
O171 C175 1.269 . S
O172 Zn169 1.986 . S
O172 C179 1.262 . S
O173 Zn168 2.049 . S
O173 C181 1.260 . S
O174 Zn169 1.996 . S
O174 C181 1.257 . S
C175 O170 1.254 . S
C175 O171 1.269 . S
C176 O177 1.249 . S
C176 O178 1.270 . S
O177 Zn169 1.943 . S
O177 C176 1.249 . S
O178 Zn168 2.067 . S
O178 C176 1.270 . S
C179 O172 1.262 . S
C179 O180 1.232 . S
O180 C179 1.232 . S
C181 O173 1.260 . S
C181 O174 1.257 . S
Zn182 O185 2.031 . S
Zn182 O187 2.049 . S
Zn182 O192 2.067 . S
Zn183 O184 1.962 . S
Zn183 O186 1.986 . S
Zn183 O188 1.996 . S
Zn183 O191 1.943 . S
O184 Zn183 1.962 . S
O184 C189 1.254 . S
O185 Zn182 2.031 . S
O185 C189 1.269 . S
O186 Zn183 1.986 . S
O186 C193 1.262 . S
O187 Zn182 2.049 . S
O187 C195 1.260 . S
O188 Zn183 1.996 . S
O188 C195 1.257 . S
C189 O184 1.254 . S
C189 O185 1.269 . S
C190 O191 1.249 . S
C190 O192 1.270 . S
O191 Zn183 1.943 . S
O191 C190 1.249 . S
O192 Zn182 2.067 . S
O192 C190 1.270 . S
C193 O186 1.262 . S
C193 O194 1.232 . S
O194 C193 1.232 . S
C195 O187 1.260 . S
C195 O188 1.257 . S
Zn196 O199 2.031 . S
Zn196 O201 2.049 . S
Zn196 O206 2.067 . S
Zn197 O198 1.962 . S
Zn197 O200 1.986 . S
Zn197 O202 1.996 . S
Zn197 O205 1.943 . S
O198 Zn197 1.962 . S
O198 C203 1.254 . S
O199 Zn196 2.031 . S
O199 C203 1.269 . S
O200 Zn197 1.986 . S
O200 C207 1.262 . S
O201 Zn196 2.049 . S
O201 C209 1.260 . S
O202 Zn197 1.996 . S
O202 C209 1.257 . S
C203 O198 1.254 . S
C203 O199 1.269 . S
C204 O205 1.249 . S
C204 O206 1.270 . S
O205 Zn197 1.943 . S
O205 C204 1.249 . S
O206 Zn196 2.067 . S
O206 C204 1.270 . S
C207 O200 1.262 . S
C207 O208 1.232 . S
O208 C207 1.232 . S
C209 O201 1.260 . S
C209 O202 1.257 . S
Zn210 O213 2.031 . S
Zn210 O215 2.049 . S
Zn210 O220 2.067 . S
Zn211 O212 1.962 . S
Zn211 O214 1.986 . S
Zn211 O216 1.996 . S
Zn211 O219 1.943 . S
O212 Zn211 1.962 . S
O212 C217 1.254 . S
O213 Zn210 2.031 . S
O213 C217 1.269 . S
O214 Zn211 1.986 . S
O214 C221 1.262 . S
O215 Zn210 2.049 . S
O215 C223 1.260 . S
O216 Zn211 1.996 . S
O216 C223 1.257 . S
C217 O212 1.254 . S
C217 O213 1.269 . S
C218 O219 1.249 . S
C218 O220 1.270 . S
O219 Zn211 1.943 . S
O219 C218 1.249 . S
O220 Zn210 2.067 . S
O220 C218 1.270 . S
C221 O214 1.262 . S
C221 O222 1.232 . S
O222 C221 1.232 . S
C223 O215 1.260 . S
C223 O216 1.257 . S
Zn224 O227 2.031 . S
Zn224 O229 2.049 . S
Zn224 O234 2.067 . S
Zn225 O226 1.962 . S
Zn225 O228 1.986 . S
Zn225 O230 1.996 . S
Zn225 O233 1.943 . S
O226 Zn225 1.962 . S
O226 C231 1.254 . S
O227 Zn224 2.031 . S
O227 C231 1.269 . S
O228 Zn225 1.986 . S
O228 C235 1.262 . S
O229 Zn224 2.049 . S
O229 C237 1.260 . S
O230 Zn225 1.996 . S
O230 C237 1.257 . S
C231 O226 1.254 . S
C231 O227 1.269 . S
C232 O233 1.249 . S
C232 O234 1.270 . S
O233 Zn225 1.943 . S
O233 C232 1.249 . S
O234 Zn224 2.067 . S
O234 C232 1.270 . S
C235 O228 1.262 . S
C235 O236 1.232 . S
O236 C235 1.232 . S
C237 O229 1.260 . S
C237 O230 1.257 . S
Zn238 O241 2.031 . S
Zn238 O243 2.049 . S
Zn238 O248 2.067 . S
Zn239 O240 1.962 . S
Zn239 O242 1.986 . S
Zn239 O244 1.996 . S
Zn239 O247 1.943 . S
O240 Zn239 1.962 . S
O240 C245 1.254 . S
O241 Zn238 2.031 . S
O241 C245 1.269 . S
O242 Zn239 1.986 . S
O242 C249 1.262 . S
O243 Zn238 2.049 . S
O243 C251 1.260 . S
O244 Zn239 1.996 . S
O244 C251 1.257 . S
C245 O240 1.254 . S
C245 O241 1.269 . S
C246 O247 1.249 . S
C246 O248 1.270 . S
O247 Zn239 1.943 . S
O247 C246 1.249 . S
O248 Zn238 2.067 . S
O248 C246 1.270 . S
C249 O242 1.262 . S
C249 O250 1.232 . S
O250 C249 1.232 . S
C251 O243 1.260 . S
C251 O244 1.257 . S
Zn252 O255 2.031 . S
Zn252 O257 2.049 . S
Zn252 O262 2.067 . S
Zn253 O254 1.962 . S
Zn253 O256 1.986 . S
Zn253 O258 1.996 . S
Zn253 O261 1.943 . S
O254 Zn253 1.962 . S
O254 C259 1.254 . S
O255 Zn252 2.031 . S
O255 C259 1.269 . S
O256 Zn253 1.986 . S
O256 C263 1.262 . S
O257 Zn252 2.049 . S
O257 C265 1.260 . S
O258 Zn253 1.996 . S
O258 C265 1.257 . S
C259 O254 1.254 . S
C259 O255 1.269 . S
C260 O261 1.249 . S
C260 O262 1.270 . S
O261 Zn253 1.943 . S
O261 C260 1.249 . S
O262 Zn252 2.067 . S
O262 C260 1.270 . S
C263 O256 1.262 . S
C263 O264 1.232 . S
O264 C263 1.232 . S
C265 O257 1.260 . S
C265 O258 1.257 . S
Zn266 O269 2.031 . S
Zn266 O271 2.049 . S
Zn266 O276 2.067 . S
Zn267 O268 1.962 . S
Zn267 O270 1.986 . S
Zn267 O272 1.996 . S
Zn267 O275 1.943 . S
O268 Zn267 1.962 . S
O268 C273 1.254 . S
O269 Zn266 2.031 . S
O269 C273 1.269 . S
O270 Zn267 1.986 . S
O270 C277 1.262 . S
O271 Zn266 2.049 . S
O271 C279 1.260 . S
O272 Zn267 1.996 . S
O272 C279 1.257 . S
C273 O268 1.254 . S
C273 O269 1.269 . S
C274 O275 1.249 . S
C274 O276 1.270 . S
O275 Zn267 1.943 . S
O275 C274 1.249 . S
O276 Zn266 2.067 . S
O276 C274 1.270 . S
C277 O270 1.262 . S
C277 O278 1.232 . S
O278 C277 1.232 . S
C279 O271 1.260 . S
C279 O272 1.257 . S
Zn280 O283 2.031 . S
Zn280 O285 2.049 . S
Zn280 O290 2.067 . S
Zn281 O282 1.962 . S
Zn281 O284 1.986 . S
Zn281 O286 1.996 . S
Zn281 O289 1.943 . S
O282 Zn281 1.962 . S
O282 C287 1.254 . S
O283 Zn280 2.031 . S
O283 C287 1.269 . S
O284 Zn281 1.986 . S
O284 C291 1.262 . S
O285 Zn280 2.049 . S
O285 C293 1.260 . S
O286 Zn281 1.996 . S
O286 C293 1.257 . S
C287 O282 1.254 . S
C287 O283 1.269 . S
C288 O289 1.249 . S
C288 O290 1.270 . S
O289 Zn281 1.943 . S
O289 C288 1.249 . S
O290 Zn280 2.067 . S
O290 C288 1.270 . S
C291 O284 1.262 . S
C291 O292 1.232 . S
O292 C291 1.232 . S
C293 O285 1.260 . S
C293 O286 1.257 . S
Zn294 O297 2.031 . S
Zn294 O299 2.049 . S
Zn294 O304 2.067 . S
Zn295 O296 1.962 . S
Zn295 O298 1.986 . S
Zn295 O300 1.996 . S
Zn295 O303 1.943 . S
O296 Zn295 1.962 . S
O296 C301 1.254 . S
O297 Zn294 2.031 . S
O297 C301 1.269 . S
O298 Zn295 1.986 . S
O298 C305 1.262 . S
O299 Zn294 2.049 . S
O299 C307 1.260 . S
O300 Zn295 1.996 . S
O300 C307 1.257 . S
C301 O296 1.254 . S
C301 O297 1.269 . S
C302 O303 1.249 . S
C302 O304 1.270 . S
O303 Zn295 1.943 . S
O303 C302 1.249 . S
O304 Zn294 2.067 . S
O304 C302 1.270 . S
C305 O298 1.262 . S
C305 O306 1.232 . S
O306 C305 1.232 . S
C307 O299 1.260 . S
C307 O300 1.257 . S
Zn308 O311 2.031 . S
Zn308 O313 2.049 . S
Zn308 O318 2.067 . S
Zn309 O310 1.962 . S
Zn309 O312 1.986 . S
Zn309 O314 1.996 . S
Zn309 O317 1.943 . S
O310 Zn309 1.962 . S
O310 C315 1.254 . S
O311 Zn308 2.031 . S
O311 C315 1.269 . S
O312 Zn309 1.986 . S
O312 C319 1.262 . S
O313 Zn308 2.049 . S
O313 C321 1.260 . S
O314 Zn309 1.996 . S
O314 C321 1.257 . S
C315 O310 1.254 . S
C315 O311 1.269 . S
C316 O317 1.249 . S
C316 O318 1.270 . S
O317 Zn309 1.943 . S
O317 C316 1.249 . S
O318 Zn308 2.067 . S
O318 C316 1.270 . S
C319 O312 1.262 . S
C319 O320 1.232 . S
O320 C319 1.232 . S
C321 O313 1.260 . S
C321 O314 1.257 . S
Zn322 O325 2.031 . S
Zn322 O327 2.049 . S
Zn322 O332 2.067 . S
Zn323 O324 1.962 . S
Zn323 O326 1.986 . S
Zn323 O328 1.996 . S
Zn323 O331 1.943 . S
O324 Zn323 1.962 . S
O324 C329 1.254 . S
O325 Zn322 2.031 . S
O325 C329 1.269 . S
O326 Zn323 1.986 . S
O326 C333 1.262 . S
O327 Zn322 2.049 . S
O327 C335 1.260 . S
O328 Zn323 1.996 . S
O328 C335 1.257 . S
C329 O324 1.254 . S
C329 O325 1.269 . S
C330 O331 1.249 . S
C330 O332 1.270 . S
O331 Zn323 1.943 . S
O331 C330 1.249 . S
O332 Zn322 2.067 . S
O332 C330 1.270 . S
C333 O326 1.262 . S
C333 O334 1.232 . S
O334 C333 1.232 . S
C335 O327 1.260 . S
C335 O328 1.257 . S
Zn336 O339 2.031 . S
Zn336 O341 2.049 . S
Zn336 O346 2.067 . S
Zn337 O338 1.962 . S
Zn337 O340 1.986 . S
Zn337 O342 1.996 . S
Zn337 O345 1.943 . S
O338 Zn337 1.962 . S
O338 C343 1.254 . S
O339 Zn336 2.031 . S
O339 C343 1.269 . S
O340 Zn337 1.986 . S
O340 C347 1.262 . S
O341 Zn336 2.049 . S
O341 C349 1.260 . S
O342 Zn337 1.996 . S
O342 C349 1.257 . S
C343 O338 1.254 . S
C343 O339 1.269 . S
C344 O345 1.249 . S
C344 O346 1.270 . S
O345 Zn337 1.943 . S
O345 C344 1.249 . S
O346 Zn336 2.067 . S
O346 C344 1.270 . S
C347 O340 1.262 . S
C347 O348 1.232 . S
O348 C347 1.232 . S
C349 O341 1.260 . S
C349 O342 1.257 . S
Zn350 O353 2.031 . S
Zn350 O355 2.049 . S
Zn350 O360 2.067 . S
Zn351 O352 1.962 . S
Zn351 O354 1.986 . S
Zn351 O356 1.996 . S
Zn351 O359 1.943 . S
O352 Zn351 1.962 . S
O352 C357 1.254 . S
O353 Zn350 2.031 . S
O353 C357 1.269 . S
O354 Zn351 1.986 . S
O354 C361 1.262 . S
O355 Zn350 2.049 . S
O355 C363 1.260 . S
O356 Zn351 1.996 . S
O356 C363 1.257 . S
C357 O352 1.254 . S
C357 O353 1.269 . S
C358 O359 1.249 . S
C358 O360 1.270 . S
O359 Zn351 1.943 . S
O359 C358 1.249 . S
O360 Zn350 2.067 . S
O360 C358 1.270 . S
C361 O354 1.262 . S
C361 O362 1.232 . S
O362 C361 1.232 . S
C363 O355 1.260 . S
C363 O356 1.257 . S
Zn364 O367 2.031 . S
Zn364 O369 2.049 . S
Zn364 O374 2.067 . S
Zn365 O366 1.962 . S
Zn365 O368 1.986 . S
Zn365 O370 1.996 . S
Zn365 O373 1.943 . S
O366 Zn365 1.962 . S
O366 C371 1.254 . S
O367 Zn364 2.031 . S
O367 C371 1.269 . S
O368 Zn365 1.986 . S
O368 C375 1.262 . S
O369 Zn364 2.049 . S
O369 C377 1.260 . S
O370 Zn365 1.996 . S
O370 C377 1.257 . S
C371 O366 1.254 . S
C371 O367 1.269 . S
C372 O373 1.249 . S
C372 O374 1.270 . S
O373 Zn365 1.943 . S
O373 C372 1.249 . S
O374 Zn364 2.067 . S
O374 C372 1.270 . S
C375 O368 1.262 . S
C375 O376 1.232 . S
O376 C375 1.232 . S
C377 O369 1.260 . S
C377 O370 1.257 . S
Zn378 O381 2.031 . S
Zn378 O383 2.049 . S
Zn378 O388 2.067 . S
Zn379 O380 1.962 . S
Zn379 O382 1.986 . S
Zn379 O384 1.996 . S
Zn379 O387 1.943 . S
O380 Zn379 1.962 . S
O380 C385 1.254 . S
O381 Zn378 2.031 . S
O381 C385 1.269 . S
O382 Zn379 1.986 . S
O382 C389 1.262 . S
O383 Zn378 2.049 . S
O383 C391 1.260 . S
O384 Zn379 1.996 . S
O384 C391 1.257 . S
C385 O380 1.254 . S
C385 O381 1.269 . S
C386 O387 1.249 . S
C386 O388 1.270 . S
O387 Zn379 1.943 . S
O387 C386 1.249 . S
O388 Zn378 2.067 . S
O388 C386 1.270 . S
C389 O382 1.262 . S
C389 O390 1.232 . S
O390 C389 1.232 . S
C391 O383 1.260 . S
C391 O384 1.257 . S
Zn392 O395 2.031 . S
Zn392 O397 2.049 . S
Zn392 O402 2.067 . S
Zn393 O394 1.962 . S
Zn393 O396 1.986 . S
Zn393 O398 1.996 . S
Zn393 O401 1.943 . S
O394 Zn393 1.962 . S
O394 C399 1.254 . S
O395 Zn392 2.031 . S
O395 C399 1.269 . S
O396 Zn393 1.986 . S
O396 C403 1.262 . S
O397 Zn392 2.049 . S
O397 C405 1.260 . S
O398 Zn393 1.996 . S
O398 C405 1.257 . S
C399 O394 1.254 . S
C399 O395 1.269 . S
C400 O401 1.249 . S
C400 O402 1.270 . S
O401 Zn393 1.943 . S
O401 C400 1.249 . S
O402 Zn392 2.067 . S
O402 C400 1.270 . S
C403 O396 1.262 . S
C403 O404 1.232 . S
O404 C403 1.232 . S
C405 O397 1.260 . S
C405 O398 1.257 . S
Zn406 O409 2.031 . S
Zn406 O411 2.049 . S
Zn406 O416 2.067 . S
Zn407 O408 1.962 . S
Zn407 O410 1.986 . S
Zn407 O412 1.996 . S
Zn407 O415 1.943 . S
O408 Zn407 1.962 . S
O408 C413 1.254 . S
O409 Zn406 2.031 . S
O409 C413 1.269 . S
O410 Zn407 1.986 . S
O410 C417 1.262 . S
O411 Zn406 2.049 . S
O411 C419 1.260 . S
O412 Zn407 1.996 . S
O412 C419 1.257 . S
C413 O408 1.254 . S
C413 O409 1.269 . S
C414 O415 1.249 . S
C414 O416 1.270 . S
O415 Zn407 1.943 . S
O415 C414 1.249 . S
O416 Zn406 2.067 . S
O416 C414 1.270 . S
C417 O410 1.262 . S
C417 O418 1.232 . S
O418 C417 1.232 . S
C419 O411 1.260 . S
C419 O412 1.257 . S
Zn420 O423 2.031 . S
Zn420 O425 2.049 . S
Zn420 O430 2.067 . S
Zn421 O422 1.962 . S
Zn421 O424 1.986 . S
Zn421 O426 1.996 . S
Zn421 O429 1.943 . S
O422 Zn421 1.962 . S
O422 C427 1.254 . S
O423 Zn420 2.031 . S
O423 C427 1.269 . S
O424 Zn421 1.986 . S
O424 C431 1.262 . S
O425 Zn420 2.049 . S
O425 C433 1.260 . S
O426 Zn421 1.996 . S
O426 C433 1.257 . S
C427 O422 1.254 . S
C427 O423 1.269 . S
C428 O429 1.249 . S
C428 O430 1.270 . S
O429 Zn421 1.943 . S
O429 C428 1.249 . S
O430 Zn420 2.067 . S
O430 C428 1.270 . S
C431 O424 1.262 . S
C431 O432 1.232 . S
O432 C431 1.232 . S
C433 O425 1.260 . S
C433 O426 1.257 . S
Zn434 O437 2.031 . S
Zn434 O439 2.049 . S
Zn434 O444 2.067 . S
Zn435 O436 1.962 . S
Zn435 O438 1.986 . S
Zn435 O440 1.996 . S
Zn435 O443 1.943 . S
O436 Zn435 1.962 . S
O436 C441 1.254 . S
O437 Zn434 2.031 . S
O437 C441 1.269 . S
O438 Zn435 1.986 . S
O438 C445 1.262 . S
O439 Zn434 2.049 . S
O439 C447 1.260 . S
O440 Zn435 1.996 . S
O440 C447 1.257 . S
C441 O436 1.254 . S
C441 O437 1.269 . S
C442 O443 1.249 . S
C442 O444 1.270 . S
O443 Zn435 1.943 . S
O443 C442 1.249 . S
O444 Zn434 2.067 . S
O444 C442 1.270 . S
C445 O438 1.262 . S
C445 O446 1.232 . S
O446 C445 1.232 . S
C447 O439 1.260 . S
C447 O440 1.257 . S
Zn448 O451 2.031 . S
Zn448 O453 2.049 . S
Zn448 O458 2.067 . S
Zn449 O450 1.962 . S
Zn449 O452 1.986 . S
Zn449 O454 1.996 . S
Zn449 O457 1.943 . S
O450 Zn449 1.962 . S
O450 C455 1.254 . S
O451 Zn448 2.031 . S
O451 C455 1.269 . S
O452 Zn449 1.986 . S
O452 C459 1.262 . S
O453 Zn448 2.049 . S
O453 C461 1.260 . S
O454 Zn449 1.996 . S
O454 C461 1.257 . S
C455 O450 1.254 . S
C455 O451 1.269 . S
C456 O457 1.249 . S
C456 O458 1.270 . S
O457 Zn449 1.943 . S
O457 C456 1.249 . S
O458 Zn448 2.067 . S
O458 C456 1.270 . S
C459 O452 1.262 . S
C459 O460 1.232 . S
O460 C459 1.232 . S
C461 O453 1.260 . S
C461 O454 1.257 . S
Zn462 O465 2.031 . S
Zn462 O467 2.049 . S
Zn462 O472 2.067 . S
Zn463 O464 1.962 . S
Zn463 O466 1.986 . S
Zn463 O468 1.996 . S
Zn463 O471 1.943 . S
O464 Zn463 1.962 . S
O464 C469 1.254 . S
O465 Zn462 2.031 . S
O465 C469 1.269 . S
O466 Zn463 1.986 . S
O466 C473 1.262 . S
O467 Zn462 2.049 . S
O467 C475 1.260 . S
O468 Zn463 1.996 . S
O468 C475 1.257 . S
C469 O464 1.254 . S
C469 O465 1.269 . S
C470 O471 1.249 . S
C470 O472 1.270 . S
O471 Zn463 1.943 . S
O471 C470 1.249 . S
O472 Zn462 2.067 . S
O472 C470 1.270 . S
C473 O466 1.262 . S
C473 O474 1.232 . S
O474 C473 1.232 . S
C475 O467 1.260 . S
C475 O468 1.257 . S
Zn476 O479 2.031 . S
Zn476 O481 2.049 . S
Zn476 O486 2.067 . S
Zn477 O478 1.962 . S
Zn477 O480 1.986 . S
Zn477 O482 1.996 . S
Zn477 O485 1.943 . S
O478 Zn477 1.962 . S
O478 C483 1.254 . S
O479 Zn476 2.031 . S
O479 C483 1.269 . S
O480 Zn477 1.986 . S
O480 C487 1.262 . S
O481 Zn476 2.049 . S
O481 C489 1.260 . S
O482 Zn477 1.996 . S
O482 C489 1.257 . S
C483 O478 1.254 . S
C483 O479 1.269 . S
C484 O485 1.249 . S
C484 O486 1.270 . S
O485 Zn477 1.943 . S
O485 C484 1.249 . S
O486 Zn476 2.067 . S
O486 C484 1.270 . S
C487 O480 1.262 . S
C487 O488 1.232 . S
O488 C487 1.232 . S
C489 O481 1.260 . S
C489 O482 1.257 . S
Zn490 O493 2.031 . S
Zn490 O495 2.049 . S
Zn490 O500 2.067 . S
Zn491 O492 1.962 . S
Zn491 O494 1.986 . S
Zn491 O496 1.996 . S
Zn491 O499 1.943 . S
O492 Zn491 1.962 . S
O492 C497 1.254 . S
O493 Zn490 2.031 . S
O493 C497 1.269 . S
O494 Zn491 1.986 . S
O494 C501 1.262 . S
O495 Zn490 2.049 . S
O495 C503 1.260 . S
O496 Zn491 1.996 . S
O496 C503 1.257 . S
C497 O492 1.254 . S
C497 O493 1.269 . S
C498 O499 1.249 . S
C498 O500 1.270 . S
O499 Zn491 1.943 . S
O499 C498 1.249 . S
O500 Zn490 2.067 . S
O500 C498 1.270 . S
C501 O494 1.262 . S
C501 O502 1.232 . S
O502 C501 1.232 . S
C503 O495 1.260 . S
C503 O496 1.257 . S
Zn504 O507 2.031 . S
Zn504 O509 2.049 . S
Zn504 O514 2.067 . S
Zn505 O506 1.962 . S
Zn505 O508 1.986 . S
Zn505 O510 1.996 . S
Zn505 O513 1.943 . S
O506 Zn505 1.962 . S
O506 C511 1.254 . S
O507 Zn504 2.031 . S
O507 C511 1.269 . S
O508 Zn505 1.986 . S
O508 C515 1.262 . S
O509 Zn504 2.049 . S
O509 C517 1.260 . S
O510 Zn505 1.996 . S
O510 C517 1.257 . S
C511 O506 1.254 . S
C511 O507 1.269 . S
C512 O513 1.249 . S
C512 O514 1.270 . S
O513 Zn505 1.943 . S
O513 C512 1.249 . S
O514 Zn504 2.067 . S
O514 C512 1.270 . S
C515 O508 1.262 . S
C515 O516 1.232 . S
O516 C515 1.232 . S
C517 O509 1.260 . S
C517 O510 1.257 . S
Zn518 O521 2.031 . S
Zn518 O523 2.049 . S
Zn518 O528 2.067 . S
Zn519 O520 1.962 . S
Zn519 O522 1.986 . S
Zn519 O524 1.996 . S
Zn519 O527 1.943 . S
O520 Zn519 1.962 . S
O520 C525 1.254 . S
O521 Zn518 2.031 . S
O521 C525 1.269 . S
O522 Zn519 1.986 . S
O522 C529 1.262 . S
O523 Zn518 2.049 . S
O523 C531 1.260 . S
O524 Zn519 1.996 . S
O524 C531 1.257 . S
C525 O520 1.254 . S
C525 O521 1.269 . S
C526 O527 1.249 . S
C526 O528 1.270 . S
O527 Zn519 1.943 . S
O527 C526 1.249 . S
O528 Zn518 2.067 . S
O528 C526 1.270 . S
C529 O522 1.262 . S
C529 O530 1.232 . S
O530 C529 1.232 . S
C531 O523 1.260 . S
C531 O524 1.257 . S
Zn532 O535 2.031 . S
Zn532 O537 2.049 . S
Zn532 O542 2.067 . S
Zn533 O534 1.962 . S
Zn533 O536 1.986 . S
Zn533 O538 1.996 . S
Zn533 O541 1.943 . S
O534 Zn533 1.962 . S
O534 C539 1.254 . S
O535 Zn532 2.031 . S
O535 C539 1.269 . S
O536 Zn533 1.986 . S
O536 C543 1.262 . S
O537 Zn532 2.049 . S
O537 C545 1.260 . S
O538 Zn533 1.996 . S
O538 C545 1.257 . S
C539 O534 1.254 . S
C539 O535 1.269 . S
C540 O541 1.249 . S
C540 O542 1.270 . S
O541 Zn533 1.943 . S
O541 C540 1.249 . S
O542 Zn532 2.067 . S
O542 C540 1.270 . S
C543 O536 1.262 . S
C543 O544 1.232 . S
O544 C543 1.232 . S
C545 O537 1.260 . S
C545 O538 1.257 . S
Zn546 O549 2.031 . S
Zn546 O551 2.049 . S
Zn546 O556 2.067 . S
Zn547 O548 1.962 . S
Zn547 O550 1.986 . S
Zn547 O552 1.996 . S
Zn547 O555 1.943 . S
O548 Zn547 1.962 . S
O548 C553 1.254 . S
O549 Zn546 2.031 . S
O549 C553 1.269 . S
O550 Zn547 1.986 . S
O550 C557 1.262 . S
O551 Zn546 2.049 . S
O551 C559 1.260 . S
O552 Zn547 1.996 . S
O552 C559 1.257 . S
C553 O548 1.254 . S
C553 O549 1.269 . S
C554 O555 1.249 . S
C554 O556 1.270 . S
O555 Zn547 1.943 . S
O555 C554 1.249 . S
O556 Zn546 2.067 . S
O556 C554 1.270 . S
C557 O550 1.262 . S
C557 O558 1.232 . S
O558 C557 1.232 . S
C559 O551 1.260 . S
C559 O552 1.257 . S
Zn560 O563 2.031 . S
Zn560 O565 2.049 . S
Zn560 O570 2.067 . S
Zn561 O562 1.962 . S
Zn561 O564 1.986 . S
Zn561 O566 1.996 . S
Zn561 O569 1.943 . S
O562 Zn561 1.962 . S
O562 C567 1.254 . S
O563 Zn560 2.031 . S
O563 C567 1.269 . S
O564 Zn561 1.986 . S
O564 C571 1.262 . S
O565 Zn560 2.049 . S
O565 C573 1.260 . S
O566 Zn561 1.996 . S
O566 C573 1.257 . S
C567 O562 1.254 . S
C567 O563 1.269 . S
C568 O569 1.249 . S
C568 O570 1.270 . S
O569 Zn561 1.943 . S
O569 C568 1.249 . S
O570 Zn560 2.067 . S
O570 C568 1.270 . S
C571 O564 1.262 . S
C571 O572 1.232 . S
O572 C571 1.232 . S
C573 O565 1.260 . S
C573 O566 1.257 . S
Zn574 O577 2.031 . S
Zn574 O579 2.049 . S
Zn574 O584 2.067 . S
Zn575 O576 1.962 . S
Zn575 O578 1.986 . S
Zn575 O580 1.996 . S
Zn575 O583 1.943 . S
O576 Zn575 1.962 . S
O576 C581 1.254 . S
O577 Zn574 2.031 . S
O577 C581 1.269 . S
O578 Zn575 1.986 . S
O578 C585 1.262 . S
O579 Zn574 2.049 . S
O579 C587 1.260 . S
O580 Zn575 1.996 . S
O580 C587 1.257 . S
C581 O576 1.254 . S
C581 O577 1.269 . S
C582 O583 1.249 . S
C582 O584 1.270 . S
O583 Zn575 1.943 . S
O583 C582 1.249 . S
O584 Zn574 2.067 . S
O584 C582 1.270 . S
C585 O578 1.262 . S
C585 O586 1.232 . S
O586 C585 1.232 . S
C587 O579 1.260 . S
C587 O580 1.257 . S
Zn588 O591 2.031 . S
Zn588 O593 2.049 . S
Zn588 O598 2.067 . S
Zn589 O590 1.962 . S
Zn589 O592 1.986 . S
Zn589 O594 1.996 . S
Zn589 O597 1.943 . S
O590 Zn589 1.962 . S
O590 C595 1.254 . S
O591 Zn588 2.031 . S
O591 C595 1.269 . S
O592 Zn589 1.986 . S
O592 C599 1.262 . S
O593 Zn588 2.049 . S
O593 C601 1.260 . S
O594 Zn589 1.996 . S
O594 C601 1.257 . S
C595 O590 1.254 . S
C595 O591 1.269 . S
C596 O597 1.249 . S
C596 O598 1.270 . S
O597 Zn589 1.943 . S
O597 C596 1.249 . S
O598 Zn588 2.067 . S
O598 C596 1.270 . S
C599 O592 1.262 . S
C599 O600 1.232 . S
O600 C599 1.232 . S
C601 O593 1.260 . S
C601 O594 1.257 . S
Zn602 O605 2.031 . S
Zn602 O607 2.049 . S
Zn602 O612 2.067 . S
Zn603 O604 1.962 . S
Zn603 O606 1.986 . S
Zn603 O608 1.996 . S
Zn603 O611 1.943 . S
O604 Zn603 1.962 . S
O604 C609 1.254 . S
O605 Zn602 2.031 . S
O605 C609 1.269 . S
O606 Zn603 1.986 . S
O606 C613 1.262 . S
O607 Zn602 2.049 . S
O607 C615 1.260 . S
O608 Zn603 1.996 . S
O608 C615 1.257 . S
C609 O604 1.254 . S
C609 O605 1.269 . S
C610 O611 1.249 . S
C610 O612 1.270 . S
O611 Zn603 1.943 . S
O611 C610 1.249 . S
O612 Zn602 2.067 . S
O612 C610 1.270 . S
C613 O606 1.262 . S
C613 O614 1.232 . S
O614 C613 1.232 . S
C615 O607 1.260 . S
C615 O608 1.257 . S
Zn616 O619 2.031 . S
Zn616 O621 2.049 . S
Zn616 O626 2.067 . S
Zn617 O618 1.962 . S
Zn617 O620 1.986 . S
Zn617 O622 1.996 . S
Zn617 O625 1.943 . S
O618 Zn617 1.962 . S
O618 C623 1.254 . S
O619 Zn616 2.031 . S
O619 C623 1.269 . S
O620 Zn617 1.986 . S
O620 C627 1.262 . S
O621 Zn616 2.049 . S
O621 C629 1.260 . S
O622 Zn617 1.996 . S
O622 C629 1.257 . S
C623 O618 1.254 . S
C623 O619 1.269 . S
C624 O625 1.249 . S
C624 O626 1.270 . S
O625 Zn617 1.943 . S
O625 C624 1.249 . S
O626 Zn616 2.067 . S
O626 C624 1.270 . S
C627 O620 1.262 . S
C627 O628 1.232 . S
O628 C627 1.232 . S
C629 O621 1.260 . S
C629 O622 1.257 . S
Zn630 O633 2.031 . S
Zn630 O635 2.049 . S
Zn630 O640 2.067 . S
Zn631 O632 1.962 . S
Zn631 O634 1.986 . S
Zn631 O636 1.996 . S
Zn631 O639 1.943 . S
O632 Zn631 1.962 . S
O632 C637 1.254 . S
O633 Zn630 2.031 . S
O633 C637 1.269 . S
O634 Zn631 1.986 . S
O634 C641 1.262 . S
O635 Zn630 2.049 . S
O635 C643 1.260 . S
O636 Zn631 1.996 . S
O636 C643 1.257 . S
C637 O632 1.254 . S
C637 O633 1.269 . S
C638 O639 1.249 . S
C638 O640 1.270 . S
O639 Zn631 1.943 . S
O639 C638 1.249 . S
O640 Zn630 2.067 . S
O640 C638 1.270 . S
C641 O634 1.262 . S
C641 O642 1.232 . S
O642 C641 1.232 . S
C643 O635 1.260 . S
C643 O636 1.257 . S
Zn644 O647 2.031 . S
Zn644 O649 2.049 . S
Zn644 O654 2.067 . S
Zn645 O646 1.962 . S
Zn645 O648 1.986 . S
Zn645 O650 1.996 . S
Zn645 O653 1.943 . S
O646 Zn645 1.962 . S
O646 C651 1.254 . S
O647 Zn644 2.031 . S
O647 C651 1.269 . S
O648 Zn645 1.986 . S
O648 C655 1.262 . S
O649 Zn644 2.049 . S
O649 C657 1.260 . S
O650 Zn645 1.996 . S
O650 C657 1.257 . S
C651 O646 1.254 . S
C651 O647 1.269 . S
C652 O653 1.249 . S
C652 O654 1.270 . S
O653 Zn645 1.943 . S
O653 C652 1.249 . S
O654 Zn644 2.067 . S
O654 C652 1.270 . S
C655 O648 1.262 . S
C655 O656 1.232 . S
O656 C655 1.232 . S
C657 O649 1.260 . S
C657 O650 1.257 . S
Zn658 O661 2.031 . S
Zn658 O663 2.049 . S
Zn658 O668 2.067 . S
Zn659 O660 1.962 . S
Zn659 O662 1.986 . S
Zn659 O664 1.996 . S
Zn659 O667 1.943 . S
O660 Zn659 1.962 . S
O660 C665 1.254 . S
O661 Zn658 2.031 . S
O661 C665 1.269 . S
O662 Zn659 1.986 . S
O662 C669 1.262 . S
O663 Zn658 2.049 . S
O663 C671 1.260 . S
O664 Zn659 1.996 . S
O664 C671 1.257 . S
C665 O660 1.254 . S
C665 O661 1.269 . S
C666 O667 1.249 . S
C666 O668 1.270 . S
O667 Zn659 1.943 . S
O667 C666 1.249 . S
O668 Zn658 2.067 . S
O668 C666 1.270 . S
C669 O662 1.262 . S
C669 O670 1.232 . S
O670 C669 1.232 . S
C671 O663 1.260 . S
C671 O664 1.257 . S
C672 C673 1.387 . S
C672 H676 0.950 . S
C672 C681 1.390 . S
C673 C672 1.387 . S
C673 C675 1.387 . S
H674 C681 0.950 . S
C675 C673 1.387 . S
C675 C677 1.390 . S
C675 H679 0.950 . S
H676 C672 0.950 . S
C677 C675 1.390 . S
C677 C678 1.387 . S
C677 H680 0.950 . S
C678 C677 1.387 . S
C678 C681 1.387 . S
H679 C675 0.950 . S
H680 C677 0.950 . S
C681 C672 1.390 . S
C681 H674 0.950 . S
C681 C678 1.387 . S
C682 C683 1.387 . S
C682 H686 0.950 . S
C682 C691 1.390 . S
C683 C682 1.387 . S
C683 C685 1.387 . S
H684 C691 0.950 . S
C685 C683 1.387 . S
C685 C687 1.390 . S
C685 H689 0.950 . S
H686 C682 0.950 . S
C687 C685 1.390 . S
C687 C688 1.387 . S
C687 H690 0.950 . S
C688 C687 1.387 . S
C688 C691 1.387 . S
H689 C685 0.950 . S
H690 C687 0.950 . S
C691 C682 1.390 . S
C691 H684 0.950 . S
C691 C688 1.387 . S
C692 C693 1.387 . S
C692 H696 0.950 . S
C692 C701 1.390 . S
C693 C692 1.387 . S
C693 C695 1.387 . S
H694 C701 0.950 . S
C695 C693 1.387 . S
C695 C697 1.390 . S
C695 H699 0.950 . S
H696 C692 0.950 . S
C697 C695 1.390 . S
C697 C698 1.387 . S
C697 H700 0.950 . S
C698 C697 1.387 . S
C698 C701 1.387 . S
H699 C695 0.950 . S
H700 C697 0.950 . S
C701 C692 1.390 . S
C701 H694 0.950 . S
C701 C698 1.387 . S
C702 C703 1.387 . S
C702 H706 0.950 . S
C702 C711 1.390 . S
C703 C702 1.387 . S
C703 C705 1.387 . S
H704 C711 0.950 . S
C705 C703 1.387 . S
C705 C707 1.390 . S
C705 H709 0.950 . S
H706 C702 0.950 . S
C707 C705 1.390 . S
C707 C708 1.387 . S
C707 H710 0.950 . S
C708 C707 1.387 . S
C708 C711 1.387 . S
H709 C705 0.950 . S
H710 C707 0.950 . S
C711 C702 1.390 . S
C711 H704 0.950 . S
C711 C708 1.387 . S
C712 C713 1.387 . S
C712 H716 0.950 . S
C712 C721 1.390 . S
C713 C712 1.387 . S
C713 C715 1.387 . S
H714 C721 0.950 . S
C715 C713 1.387 . S
C715 C717 1.390 . S
C715 H719 0.950 . S
H716 C712 0.950 . S
C717 C715 1.390 . S
C717 C718 1.387 . S
C717 H720 0.950 . S
C718 C717 1.387 . S
C718 C721 1.387 . S
H719 C715 0.950 . S
H720 C717 0.950 . S
C721 C712 1.390 . S
C721 H714 0.950 . S
C721 C718 1.387 . S
C722 C723 1.387 . S
C722 H726 0.950 . S
C722 C731 1.390 . S
C723 C722 1.387 . S
C723 C725 1.387 . S
H724 C731 0.950 . S
C725 C723 1.387 . S
C725 C727 1.390 . S
C725 H729 0.950 . S
H726 C722 0.950 . S
C727 C725 1.390 . S
C727 C728 1.387 . S
C727 H730 0.950 . S
C728 C727 1.387 . S
C728 C731 1.387 . S
H729 C725 0.950 . S
H730 C727 0.950 . S
C731 C722 1.390 . S
C731 H724 0.950 . S
C731 C728 1.387 . S
C732 C733 1.387 . S
C732 H736 0.950 . S
C732 C741 1.390 . S
C733 C732 1.387 . S
C733 C735 1.387 . S
H734 C741 0.950 . S
C735 C733 1.387 . S
C735 C737 1.390 . S
C735 H739 0.950 . S
H736 C732 0.950 . S
C737 C735 1.390 . S
C737 C738 1.387 . S
C737 H740 0.950 . S
C738 C737 1.387 . S
C738 C741 1.387 . S
H739 C735 0.950 . S
H740 C737 0.950 . S
C741 C732 1.390 . S
C741 H734 0.950 . S
C741 C738 1.387 . S
C742 C743 1.387 . S
C742 H746 0.950 . S
C742 C751 1.390 . S
C743 C742 1.387 . S
C743 C745 1.387 . S
H744 C751 0.950 . S
C745 C743 1.387 . S
C745 C747 1.390 . S
C745 H749 0.950 . S
H746 C742 0.950 . S
C747 C745 1.390 . S
C747 C748 1.387 . S
C747 H750 0.950 . S
C748 C747 1.387 . S
C748 C751 1.387 . S
H749 C745 0.950 . S
H750 C747 0.950 . S
C751 C742 1.390 . S
C751 H744 0.950 . S
C751 C748 1.387 . S
C752 C753 1.387 . S
C752 H756 0.950 . S
C752 C761 1.390 . S
C753 C752 1.387 . S
C753 C755 1.387 . S
H754 C761 0.950 . S
C755 C753 1.387 . S
C755 C757 1.390 . S
C755 H759 0.950 . S
H756 C752 0.950 . S
C757 C755 1.390 . S
C757 C758 1.387 . S
C757 H760 0.950 . S
C758 C757 1.387 . S
C758 C761 1.387 . S
H759 C755 0.950 . S
H760 C757 0.950 . S
C761 C752 1.390 . S
C761 H754 0.950 . S
C761 C758 1.387 . S
C762 C763 1.387 . S
C762 H766 0.950 . S
C762 C771 1.390 . S
C763 C762 1.387 . S
C763 C765 1.387 . S
H764 C771 0.950 . S
C765 C763 1.387 . S
C765 C767 1.390 . S
C765 H769 0.950 . S
H766 C762 0.950 . S
C767 C765 1.390 . S
C767 C768 1.387 . S
C767 H770 0.950 . S
C768 C767 1.387 . S
C768 C771 1.387 . S
H769 C765 0.950 . S
H770 C767 0.950 . S
C771 C762 1.390 . S
C771 H764 0.950 . S
C771 C768 1.387 . S
C772 C773 1.387 . S
C772 H776 0.950 . S
C772 C781 1.390 . S
C773 C772 1.387 . S
C773 C775 1.387 . S
H774 C781 0.950 . S
C775 C773 1.387 . S
C775 C777 1.390 . S
C775 H779 0.950 . S
H776 C772 0.950 . S
C777 C775 1.390 . S
C777 C778 1.387 . S
C777 H780 0.950 . S
C778 C777 1.387 . S
C778 C781 1.387 . S
H779 C775 0.950 . S
H780 C777 0.950 . S
C781 C772 1.390 . S
C781 H774 0.950 . S
C781 C778 1.387 . S
C782 C783 1.387 . S
C782 H786 0.950 . S
C782 C791 1.390 . S
C783 C782 1.387 . S
C783 C785 1.387 . S
H784 C791 0.950 . S
C785 C783 1.387 . S
C785 C787 1.390 . S
C785 H789 0.950 . S
H786 C782 0.950 . S
C787 C785 1.390 . S
C787 C788 1.387 . S
C787 H790 0.950 . S
C788 C787 1.387 . S
C788 C791 1.387 . S
H789 C785 0.950 . S
H790 C787 0.950 . S
C791 C782 1.390 . S
C791 H784 0.950 . S
C791 C788 1.387 . S
C792 C793 1.387 . S
C792 H796 0.950 . S
C792 C801 1.390 . S
C793 C792 1.387 . S
C793 C795 1.387 . S
H794 C801 0.950 . S
C795 C793 1.387 . S
C795 C797 1.390 . S
C795 H799 0.950 . S
H796 C792 0.950 . S
C797 C795 1.390 . S
C797 C798 1.387 . S
C797 H800 0.950 . S
C798 C797 1.387 . S
C798 C801 1.387 . S
H799 C795 0.950 . S
H800 C797 0.950 . S
C801 C792 1.390 . S
C801 H794 0.950 . S
C801 C798 1.387 . S
C802 C803 1.387 . S
C802 H806 0.950 . S
C802 C811 1.390 . S
C803 C802 1.387 . S
C803 C805 1.387 . S
H804 C811 0.950 . S
C805 C803 1.387 . S
C805 C807 1.390 . S
C805 H809 0.950 . S
H806 C802 0.950 . S
C807 C805 1.390 . S
C807 C808 1.387 . S
C807 H810 0.950 . S
C808 C807 1.387 . S
C808 C811 1.387 . S
H809 C805 0.950 . S
H810 C807 0.950 . S
C811 C802 1.390 . S
C811 H804 0.950 . S
C811 C808 1.387 . S
C812 C813 1.387 . S
C812 H816 0.950 . S
C812 C821 1.390 . S
C813 C812 1.387 . S
C813 C815 1.387 . S
H814 C821 0.950 . S
C815 C813 1.387 . S
C815 C817 1.390 . S
C815 H819 0.950 . S
H816 C812 0.950 . S
C817 C815 1.390 . S
C817 C818 1.387 . S
C817 H820 0.950 . S
C818 C817 1.387 . S
C818 C821 1.387 . S
H819 C815 0.950 . S
H820 C817 0.950 . S
C821 C812 1.390 . S
C821 H814 0.950 . S
C821 C818 1.387 . S
C822 C823 1.387 . S
C822 H826 0.950 . S
C822 C831 1.390 . S
C823 C822 1.387 . S
C823 C825 1.387 . S
H824 C831 0.950 . S
C825 C823 1.387 . S
C825 C827 1.390 . S
C825 H829 0.950 . S
H826 C822 0.950 . S
C827 C825 1.390 . S
C827 C828 1.387 . S
C827 H830 0.950 . S
C828 C827 1.387 . S
C828 C831 1.387 . S
H829 C825 0.950 . S
H830 C827 0.950 . S
C831 C822 1.390 . S
C831 H824 0.950 . S
C831 C828 1.387 . S
C832 C833 1.387 . S
C832 H836 0.950 . S
C832 C841 1.390 . S
C833 C832 1.387 . S
C833 C835 1.387 . S
H834 C841 0.950 . S
C835 C833 1.387 . S
C835 C837 1.390 . S
C835 H839 0.950 . S
H836 C832 0.950 . S
C837 C835 1.390 . S
C837 C838 1.387 . S
C837 H840 0.950 . S
C838 C837 1.387 . S
C838 C841 1.387 . S
H839 C835 0.950 . S
H840 C837 0.950 . S
C841 C832 1.390 . S
C841 H834 0.950 . S
C841 C838 1.387 . S
C842 C843 1.387 . S
C842 H846 0.950 . S
C842 C851 1.390 . S
C843 C842 1.387 . S
C843 C845 1.387 . S
H844 C851 0.950 . S
C845 C843 1.387 . S
C845 C847 1.390 . S
C845 H849 0.950 . S
H846 C842 0.950 . S
C847 C845 1.390 . S
C847 C848 1.387 . S
C847 H850 0.950 . S
C848 C847 1.387 . S
C848 C851 1.387 . S
H849 C845 0.950 . S
H850 C847 0.950 . S
C851 C842 1.390 . S
C851 H844 0.950 . S
C851 C848 1.387 . S
C852 C853 1.387 . S
C852 H856 0.950 . S
C852 C861 1.390 . S
C853 C852 1.387 . S
C853 C855 1.387 . S
H854 C861 0.950 . S
C855 C853 1.387 . S
C855 C857 1.390 . S
C855 H859 0.950 . S
H856 C852 0.950 . S
C857 C855 1.390 . S
C857 C858 1.387 . S
C857 H860 0.950 . S
C858 C857 1.387 . S
C858 C861 1.387 . S
H859 C855 0.950 . S
H860 C857 0.950 . S
C861 C852 1.390 . S
C861 H854 0.950 . S
C861 C858 1.387 . S
C862 C863 1.387 . S
C862 H866 0.950 . S
C862 C871 1.390 . S
C863 C862 1.387 . S
C863 C865 1.387 . S
H864 C871 0.950 . S
C865 C863 1.387 . S
C865 C867 1.390 . S
C865 H869 0.950 . S
H866 C862 0.950 . S
C867 C865 1.390 . S
C867 C868 1.387 . S
C867 H870 0.950 . S
C868 C867 1.387 . S
C868 C871 1.387 . S
H869 C865 0.950 . S
H870 C867 0.950 . S
C871 C862 1.390 . S
C871 H864 0.950 . S
C871 C868 1.387 . S
C872 C873 1.387 . S
C872 H876 0.950 . S
C872 C881 1.390 . S
C873 C872 1.387 . S
C873 C875 1.387 . S
H874 C881 0.950 . S
C875 C873 1.387 . S
C875 C877 1.390 . S
C875 H879 0.950 . S
H876 C872 0.950 . S
C877 C875 1.390 . S
C877 C878 1.387 . S
C877 H880 0.950 . S
C878 C877 1.387 . S
C878 C881 1.387 . S
H879 C875 0.950 . S
H880 C877 0.950 . S
C881 C872 1.390 . S
C881 H874 0.950 . S
C881 C878 1.387 . S
C882 C883 1.387 . S
C882 H886 0.950 . S
C882 C891 1.390 . S
C883 C882 1.387 . S
C883 C885 1.387 . S
H884 C891 0.950 . S
C885 C883 1.387 . S
C885 C887 1.390 . S
C885 H889 0.950 . S
H886 C882 0.950 . S
C887 C885 1.390 . S
C887 C888 1.387 . S
C887 H890 0.950 . S
C888 C887 1.387 . S
C888 C891 1.387 . S
H889 C885 0.950 . S
H890 C887 0.950 . S
C891 C882 1.390 . S
C891 H884 0.950 . S
C891 C888 1.387 . S
C892 C893 1.387 . S
C892 H896 0.950 . S
C892 C901 1.390 . S
C893 C892 1.387 . S
C893 C895 1.387 . S
H894 C901 0.950 . S
C895 C893 1.387 . S
C895 C897 1.390 . S
C895 H899 0.950 . S
H896 C892 0.950 . S
C897 C895 1.390 . S
C897 C898 1.387 . S
C897 H900 0.950 . S
C898 C897 1.387 . S
C898 C901 1.387 . S
H899 C895 0.950 . S
H900 C897 0.950 . S
C901 C892 1.390 . S
C901 H894 0.950 . S
C901 C898 1.387 . S
C902 C903 1.387 . S
C902 H906 0.950 . S
C902 C911 1.390 . S
C903 C902 1.387 . S
C903 C905 1.387 . S
H904 C911 0.950 . S
C905 C903 1.387 . S
C905 C907 1.390 . S
C905 H909 0.950 . S
H906 C902 0.950 . S
C907 C905 1.390 . S
C907 C908 1.387 . S
C907 H910 0.950 . S
C908 C907 1.387 . S
C908 C911 1.387 . S
H909 C905 0.950 . S
H910 C907 0.950 . S
C911 C902 1.390 . S
C911 H904 0.950 . S
C911 C908 1.387 . S
C912 C913 1.387 . S
C912 H916 0.950 . S
C912 C921 1.390 . S
C913 C912 1.387 . S
C913 C915 1.387 . S
H914 C921 0.950 . S
C915 C913 1.387 . S
C915 C917 1.390 . S
C915 H919 0.950 . S
H916 C912 0.950 . S
C917 C915 1.390 . S
C917 C918 1.387 . S
C917 H920 0.950 . S
C918 C917 1.387 . S
C918 C921 1.387 . S
H919 C915 0.950 . S
H920 C917 0.950 . S
C921 C912 1.390 . S
C921 H914 0.950 . S
C921 C918 1.387 . S
C922 C923 1.387 . S
C922 H926 0.950 . S
C922 C931 1.390 . S
C923 C922 1.387 . S
C923 C925 1.387 . S
H924 C931 0.950 . S
C925 C923 1.387 . S
C925 C927 1.390 . S
C925 H929 0.950 . S
H926 C922 0.950 . S
C927 C925 1.390 . S
C927 C928 1.387 . S
C927 H930 0.950 . S
C928 C927 1.387 . S
C928 C931 1.387 . S
H929 C925 0.950 . S
H930 C927 0.950 . S
C931 C922 1.390 . S
C931 H924 0.950 . S
C931 C928 1.387 . S
C932 C933 1.387 . S
C932 H936 0.950 . S
C932 C941 1.390 . S
C933 C932 1.387 . S
C933 C935 1.387 . S
H934 C941 0.950 . S
C935 C933 1.387 . S
C935 C937 1.390 . S
C935 H939 0.950 . S
H936 C932 0.950 . S
C937 C935 1.390 . S
C937 C938 1.387 . S
C937 H940 0.950 . S
C938 C937 1.387 . S
C938 C941 1.387 . S
H939 C935 0.950 . S
H940 C937 0.950 . S
C941 C932 1.390 . S
C941 H934 0.950 . S
C941 C938 1.387 . S
C942 C943 1.387 . S
C942 H946 0.950 . S
C942 C951 1.390 . S
C943 C942 1.387 . S
C943 C945 1.387 . S
H944 C951 0.950 . S
C945 C943 1.387 . S
C945 C947 1.390 . S
C945 H949 0.950 . S
H946 C942 0.950 . S
C947 C945 1.390 . S
C947 C948 1.387 . S
C947 H950 0.950 . S
C948 C947 1.387 . S
C948 C951 1.387 . S
H949 C945 0.950 . S
H950 C947 0.950 . S
C951 C942 1.390 . S
C951 H944 0.950 . S
C951 C948 1.387 . S
C952 C953 1.387 . S
C952 H956 0.950 . S
C952 C961 1.390 . S
C953 C952 1.387 . S
C953 C955 1.387 . S
H954 C961 0.950 . S
C955 C953 1.387 . S
C955 C957 1.390 . S
C955 H959 0.950 . S
H956 C952 0.950 . S
C957 C955 1.390 . S
C957 C958 1.387 . S
C957 H960 0.950 . S
C958 C957 1.387 . S
C958 C961 1.387 . S
H959 C955 0.950 . S
H960 C957 0.950 . S
C961 C952 1.390 . S
C961 H954 0.950 . S
C961 C958 1.387 . S
C962 C963 1.387 . S
C962 H966 0.950 . S
C962 C971 1.390 . S
C963 C962 1.387 . S
C963 C965 1.387 . S
H964 C971 0.950 . S
C965 C963 1.387 . S
C965 C967 1.390 . S
C965 H969 0.950 . S
H966 C962 0.950 . S
C967 C965 1.390 . S
C967 C968 1.387 . S
C967 H970 0.950 . S
C968 C967 1.387 . S
C968 C971 1.387 . S
H969 C965 0.950 . S
H970 C967 0.950 . S
C971 C962 1.390 . S
C971 H964 0.950 . S
C971 C968 1.387 . S
C972 C973 1.387 . S
C972 H976 0.950 . S
C972 C981 1.390 . S
C973 C972 1.387 . S
C973 C975 1.387 . S
H974 C981 0.950 . S
C975 C973 1.387 . S
C975 C977 1.390 . S
C975 H979 0.950 . S
H976 C972 0.950 . S
C977 C975 1.390 . S
C977 C978 1.387 . S
C977 H980 0.950 . S
C978 C977 1.387 . S
C978 C981 1.387 . S
H979 C975 0.950 . S
H980 C977 0.950 . S
C981 C972 1.390 . S
C981 H974 0.950 . S
C981 C978 1.387 . S
C982 C983 1.387 . S
C982 H986 0.950 . S
C982 C991 1.390 . S
C983 C982 1.387 . S
C983 C985 1.387 . S
H984 C991 0.950 . S
C985 C983 1.387 . S
C985 C987 1.390 . S
C985 H989 0.950 . S
H986 C982 0.950 . S
C987 C985 1.390 . S
C987 C988 1.387 . S
C987 H990 0.950 . S
C988 C987 1.387 . S
C988 C991 1.387 . S
H989 C985 0.950 . S
H990 C987 0.950 . S
C991 C982 1.390 . S
C991 H984 0.950 . S
C991 C988 1.387 . S
C992 C993 1.387 . S
C992 H996 0.950 . S
C992 C1001 1.390 . S
C993 C992 1.387 . S
C993 C995 1.387 . S
H994 C1001 0.950 . S
C995 C993 1.387 . S
C995 C997 1.390 . S
C995 H999 0.950 . S
H996 C992 0.950 . S
C997 C995 1.390 . S
C997 C998 1.387 . S
C997 H1000 0.950 . S
C998 C997 1.387 . S
C998 C1001 1.387 . S
H999 C995 0.950 . S
H1000 C997 0.950 . S
C1001 C992 1.390 . S
C1001 H994 0.950 . S
C1001 C998 1.387 . S
C1002 C1003 1.387 . S
C1002 H1006 0.950 . S
C1002 C1011 1.390 . S
C1003 C1002 1.387 . S
C1003 C1005 1.387 . S
H1004 C1011 0.950 . S
C1005 C1003 1.387 . S
C1005 C1007 1.390 . S
C1005 H1009 0.950 . S
H1006 C1002 0.950 . S
C1007 C1005 1.390 . S
C1007 C1008 1.387 . S
C1007 H1010 0.950 . S
C1008 C1007 1.387 . S
C1008 C1011 1.387 . S
H1009 C1005 0.950 . S
H1010 C1007 0.950 . S
C1011 C1002 1.390 . S
C1011 H1004 0.950 . S
C1011 C1008 1.387 . S
C1012 C1013 1.387 . S
C1012 H1016 0.950 . S
C1012 C1021 1.390 . S
C1013 C1012 1.387 . S
C1013 C1015 1.387 . S
H1014 C1021 0.950 . S
C1015 C1013 1.387 . S
C1015 C1017 1.390 . S
C1015 H1019 0.950 . S
H1016 C1012 0.950 . S
C1017 C1015 1.390 . S
C1017 C1018 1.387 . S
C1017 H1020 0.950 . S
C1018 C1017 1.387 . S
C1018 C1021 1.387 . S
H1019 C1015 0.950 . S
H1020 C1017 0.950 . S
C1021 C1012 1.390 . S
C1021 H1014 0.950 . S
C1021 C1018 1.387 . S
C1022 C1023 1.387 . S
C1022 H1026 0.950 . S
C1022 C1031 1.390 . S
C1023 C1022 1.387 . S
C1023 C1025 1.387 . S
H1024 C1031 0.950 . S
C1025 C1023 1.387 . S
C1025 C1027 1.390 . S
C1025 H1029 0.950 . S
H1026 C1022 0.950 . S
C1027 C1025 1.390 . S
C1027 C1028 1.387 . S
C1027 H1030 0.950 . S
C1028 C1027 1.387 . S
C1028 C1031 1.387 . S
H1029 C1025 0.950 . S
H1030 C1027 0.950 . S
C1031 C1022 1.390 . S
C1031 H1024 0.950 . S
C1031 C1028 1.387 . S
C1032 C1033 1.387 . S
C1032 H1036 0.950 . S
C1032 C1041 1.390 . S
C1033 C1032 1.387 . S
C1033 C1035 1.387 . S
H1034 C1041 0.950 . S
C1035 C1033 1.387 . S
C1035 C1037 1.390 . S
C1035 H1039 0.950 . S
H1036 C1032 0.950 . S
C1037 C1035 1.390 . S
C1037 C1038 1.387 . S
C1037 H1040 0.950 . S
C1038 C1037 1.387 . S
C1038 C1041 1.387 . S
H1039 C1035 0.950 . S
H1040 C1037 0.950 . S
C1041 C1032 1.390 . S
C1041 H1034 0.950 . S
C1041 C1038 1.387 . S
C1042 C1043 1.387 . S
C1042 H1046 0.950 . S
C1042 C1051 1.390 . S
C1043 C1042 1.387 . S
C1043 C1045 1.387 . S
H1044 C1051 0.950 . S
C1045 C1043 1.387 . S
C1045 C1047 1.390 . S
C1045 H1049 0.950 . S
H1046 C1042 0.950 . S
C1047 C1045 1.390 . S
C1047 C1048 1.387 . S
C1047 H1050 0.950 . S
C1048 C1047 1.387 . S
C1048 C1051 1.387 . S
H1049 C1045 0.950 . S
H1050 C1047 0.950 . S
C1051 C1042 1.390 . S
C1051 H1044 0.950 . S
C1051 C1048 1.387 . S
C1052 C1053 1.387 . S
C1052 H1056 0.950 . S
C1052 C1061 1.390 . S
C1053 C1052 1.387 . S
C1053 C1055 1.387 . S
H1054 C1061 0.950 . S
C1055 C1053 1.387 . S
C1055 C1057 1.390 . S
C1055 H1059 0.950 . S
H1056 C1052 0.950 . S
C1057 C1055 1.390 . S
C1057 C1058 1.387 . S
C1057 H1060 0.950 . S
C1058 C1057 1.387 . S
C1058 C1061 1.387 . S
H1059 C1055 0.950 . S
H1060 C1057 0.950 . S
C1061 C1052 1.390 . S
C1061 H1054 0.950 . S
C1061 C1058 1.387 . S
C1062 C1063 1.387 . S
C1062 H1066 0.950 . S
C1062 C1071 1.390 . S
C1063 C1062 1.387 . S
C1063 C1065 1.387 . S
H1064 C1071 0.950 . S
C1065 C1063 1.387 . S
C1065 C1067 1.390 . S
C1065 H1069 0.950 . S
H1066 C1062 0.950 . S
C1067 C1065 1.390 . S
C1067 C1068 1.387 . S
C1067 H1070 0.950 . S
C1068 C1067 1.387 . S
C1068 C1071 1.387 . S
H1069 C1065 0.950 . S
H1070 C1067 0.950 . S
C1071 C1062 1.390 . S
C1071 H1064 0.950 . S
C1071 C1068 1.387 . S
C1072 C1073 1.387 . S
C1072 H1076 0.950 . S
C1072 C1081 1.390 . S
C1073 C1072 1.387 . S
C1073 C1075 1.387 . S
H1074 C1081 0.950 . S
C1075 C1073 1.387 . S
C1075 C1077 1.390 . S
C1075 H1079 0.950 . S
H1076 C1072 0.950 . S
C1077 C1075 1.390 . S
C1077 C1078 1.387 . S
C1077 H1080 0.950 . S
C1078 C1077 1.387 . S
C1078 C1081 1.387 . S
H1079 C1075 0.950 . S
H1080 C1077 0.950 . S
C1081 C1072 1.390 . S
C1081 H1074 0.950 . S
C1081 C1078 1.387 . S
C1082 C1083 1.387 . S
C1082 H1086 0.950 . S
C1082 C1091 1.390 . S
C1083 C1082 1.387 . S
C1083 C1085 1.387 . S
H1084 C1091 0.950 . S
C1085 C1083 1.387 . S
C1085 C1087 1.390 . S
C1085 H1089 0.950 . S
H1086 C1082 0.950 . S
C1087 C1085 1.390 . S
C1087 C1088 1.387 . S
C1087 H1090 0.950 . S
C1088 C1087 1.387 . S
C1088 C1091 1.387 . S
H1089 C1085 0.950 . S
H1090 C1087 0.950 . S
C1091 C1082 1.390 . S
C1091 H1084 0.950 . S
C1091 C1088 1.387 . S
C1092 C1093 1.387 . S
C1092 H1096 0.950 . S
C1092 C1101 1.390 . S
C1093 C1092 1.387 . S
C1093 C1095 1.387 . S
H1094 C1101 0.950 . S
C1095 C1093 1.387 . S
C1095 C1097 1.390 . S
C1095 H1099 0.950 . S
H1096 C1092 0.950 . S
C1097 C1095 1.390 . S
C1097 C1098 1.387 . S
C1097 H1100 0.950 . S
C1098 C1097 1.387 . S
C1098 C1101 1.387 . S
H1099 C1095 0.950 . S
H1100 C1097 0.950 . S
C1101 C1092 1.390 . S
C1101 H1094 0.950 . S
C1101 C1098 1.387 . S
C1102 C1103 1.387 . S
C1102 H1106 0.950 . S
C1102 C1111 1.390 . S
C1103 C1102 1.387 . S
C1103 C1105 1.387 . S
H1104 C1111 0.950 . S
C1105 C1103 1.387 . S
C1105 C1107 1.390 . S
C1105 H1109 0.950 . S
H1106 C1102 0.950 . S
C1107 C1105 1.390 . S
C1107 C1108 1.387 . S
C1107 H1110 0.950 . S
C1108 C1107 1.387 . S
C1108 C1111 1.387 . S
H1109 C1105 0.950 . S
H1110 C1107 0.950 . S
C1111 C1102 1.390 . S
C1111 H1104 0.950 . S
C1111 C1108 1.387 . S
C1112 C1113 1.387 . S
C1112 H1116 0.950 . S
C1112 C1121 1.390 . S
C1113 C1112 1.387 . S
C1113 C1115 1.387 . S
H1114 C1121 0.950 . S
C1115 C1113 1.387 . S
C1115 C1117 1.390 . S
C1115 H1119 0.950 . S
H1116 C1112 0.950 . S
C1117 C1115 1.390 . S
C1117 C1118 1.387 . S
C1117 H1120 0.950 . S
C1118 C1117 1.387 . S
C1118 C1121 1.387 . S
H1119 C1115 0.950 . S
H1120 C1117 0.950 . S
C1121 C1112 1.390 . S
C1121 H1114 0.950 . S
C1121 C1118 1.387 . S
C1122 C1123 1.387 . S
C1122 H1126 0.950 . S
C1122 C1131 1.390 . S
C1123 C1122 1.387 . S
C1123 C1125 1.387 . S
H1124 C1131 0.950 . S
C1125 C1123 1.387 . S
C1125 C1127 1.390 . S
C1125 H1129 0.950 . S
H1126 C1122 0.950 . S
C1127 C1125 1.390 . S
C1127 C1128 1.387 . S
C1127 H1130 0.950 . S
C1128 C1127 1.387 . S
C1128 C1131 1.387 . S
H1129 C1125 0.950 . S
H1130 C1127 0.950 . S
C1131 C1122 1.390 . S
C1131 H1124 0.950 . S
C1131 C1128 1.387 . S
C1132 C1133 1.387 . S
C1132 H1136 0.950 . S
C1132 C1141 1.390 . S
C1133 C1132 1.387 . S
C1133 C1135 1.387 . S
H1134 C1141 0.950 . S
C1135 C1133 1.387 . S
C1135 C1137 1.390 . S
C1135 H1139 0.950 . S
H1136 C1132 0.950 . S
C1137 C1135 1.390 . S
C1137 C1138 1.387 . S
C1137 H1140 0.950 . S
C1138 C1137 1.387 . S
C1138 C1141 1.387 . S
H1139 C1135 0.950 . S
H1140 C1137 0.950 . S
C1141 C1132 1.390 . S
C1141 H1134 0.950 . S
C1141 C1138 1.387 . S
C1142 C1143 1.387 . S
C1142 H1146 0.950 . S
C1142 C1151 1.390 . S
C1143 C1142 1.387 . S
C1143 C1145 1.387 . S
H1144 C1151 0.950 . S
C1145 C1143 1.387 . S
C1145 C1147 1.390 . S
C1145 H1149 0.950 . S
H1146 C1142 0.950 . S
C1147 C1145 1.390 . S
C1147 C1148 1.387 . S
C1147 H1150 0.950 . S
C1148 C1147 1.387 . S
C1148 C1151 1.387 . S
H1149 C1145 0.950 . S
H1150 C1147 0.950 . S
C1151 C1142 1.390 . S
C1151 H1144 0.950 . S
C1151 C1148 1.387 . S
C1152 C1153 1.387 . S
C1152 H1156 0.950 . S
C1152 C1161 1.390 . S
C1153 C1152 1.387 . S
C1153 C1155 1.387 . S
H1154 C1161 0.950 . S
C1155 C1153 1.387 . S
C1155 C1157 1.390 . S
C1155 H1159 0.950 . S
H1156 C1152 0.950 . S
C1157 C1155 1.390 . S
C1157 C1158 1.387 . S
C1157 H1160 0.950 . S
C1158 C1157 1.387 . S
C1158 C1161 1.387 . S
H1159 C1155 0.950 . S
H1160 C1157 0.950 . S
C1161 C1152 1.390 . S
C1161 H1154 0.950 . S
C1161 C1158 1.387 . S
C1162 C1163 1.387 . S
C1162 H1166 0.950 . S
C1162 C1171 1.390 . S
C1163 C1162 1.387 . S
C1163 C1165 1.387 . S
H1164 C1171 0.950 . S
C1165 C1163 1.387 . S
C1165 C1167 1.390 . S
C1165 H1169 0.950 . S
H1166 C1162 0.950 . S
C1167 C1165 1.390 . S
C1167 C1168 1.387 . S
C1167 H1170 0.950 . S
C1168 C1167 1.387 . S
C1168 C1171 1.387 . S
H1169 C1165 0.950 . S
H1170 C1167 0.950 . S
C1171 C1162 1.390 . S
C1171 H1164 0.950 . S
C1171 C1168 1.387 . S
C1172 C1173 1.387 . S
C1172 H1176 0.950 . S
C1172 C1181 1.390 . S
C1173 C1172 1.387 . S
C1173 C1175 1.387 . S
H1174 C1181 0.950 . S
C1175 C1173 1.387 . S
C1175 C1177 1.390 . S
C1175 H1179 0.950 . S
H1176 C1172 0.950 . S
C1177 C1175 1.390 . S
C1177 C1178 1.387 . S
C1177 H1180 0.950 . S
C1178 C1177 1.387 . S
C1178 C1181 1.387 . S
H1179 C1175 0.950 . S
H1180 C1177 0.950 . S
C1181 C1172 1.390 . S
C1181 H1174 0.950 . S
C1181 C1178 1.387 . S
C1182 C1183 1.387 . S
C1182 H1186 0.950 . S
C1182 C1191 1.390 . S
C1183 C1182 1.387 . S
C1183 C1185 1.387 . S
H1184 C1191 0.950 . S
C1185 C1183 1.387 . S
C1185 C1187 1.390 . S
C1185 H1189 0.950 . S
H1186 C1182 0.950 . S
C1187 C1185 1.390 . S
C1187 C1188 1.387 . S
C1187 H1190 0.950 . S
C1188 C1187 1.387 . S
C1188 C1191 1.387 . S
H1189 C1185 0.950 . S
H1190 C1187 0.950 . S
C1191 C1182 1.390 . S
C1191 H1184 0.950 . S
C1191 C1188 1.387 . S
C1192 C1193 1.387 . S
C1192 H1196 0.950 . S
C1192 C1201 1.390 . S
C1193 C1192 1.387 . S
C1193 C1195 1.387 . S
H1194 C1201 0.950 . S
C1195 C1193 1.387 . S
C1195 C1197 1.390 . S
C1195 H1199 0.950 . S
H1196 C1192 0.950 . S
C1197 C1195 1.390 . S
C1197 C1198 1.387 . S
C1197 H1200 0.950 . S
C1198 C1197 1.387 . S
C1198 C1201 1.387 . S
H1199 C1195 0.950 . S
H1200 C1197 0.950 . S
C1201 C1192 1.390 . S
C1201 H1194 0.950 . S
C1201 C1198 1.387 . S
C1202 C1203 1.387 . S
C1202 H1206 0.950 . S
C1202 C1211 1.390 . S
C1203 C1202 1.387 . S
C1203 C1205 1.387 . S
H1204 C1211 0.950 . S
C1205 C1203 1.387 . S
C1205 C1207 1.390 . S
C1205 H1209 0.950 . S
H1206 C1202 0.950 . S
C1207 C1205 1.390 . S
C1207 C1208 1.387 . S
C1207 H1210 0.950 . S
C1208 C1207 1.387 . S
C1208 C1211 1.387 . S
H1209 C1205 0.950 . S
H1210 C1207 0.950 . S
C1211 C1202 1.390 . S
C1211 H1204 0.950 . S
C1211 C1208 1.387 . S
C1212 C1213 1.387 . S
C1212 H1216 0.950 . S
C1212 C1221 1.390 . S
C1213 C1212 1.387 . S
C1213 C1215 1.387 . S
H1214 C1221 0.950 . S
C1215 C1213 1.387 . S
C1215 C1217 1.390 . S
C1215 H1219 0.950 . S
H1216 C1212 0.950 . S
C1217 C1215 1.390 . S
C1217 C1218 1.387 . S
C1217 H1220 0.950 . S
C1218 C1217 1.387 . S
C1218 C1221 1.387 . S
H1219 C1215 0.950 . S
H1220 C1217 0.950 . S
C1221 C1212 1.390 . S
C1221 H1214 0.950 . S
C1221 C1218 1.387 . S
C1222 C1223 1.387 . S
C1222 H1226 0.950 . S
C1222 C1231 1.390 . S
C1223 C1222 1.387 . S
C1223 C1225 1.387 . S
H1224 C1231 0.950 . S
C1225 C1223 1.387 . S
C1225 C1227 1.390 . S
C1225 H1229 0.950 . S
H1226 C1222 0.950 . S
C1227 C1225 1.390 . S
C1227 C1228 1.387 . S
C1227 H1230 0.950 . S
C1228 C1227 1.387 . S
C1228 C1231 1.387 . S
H1229 C1225 0.950 . S
H1230 C1227 0.950 . S
C1231 C1222 1.390 . S
C1231 H1224 0.950 . S
C1231 C1228 1.387 . S
C1232 C1233 1.387 . S
C1232 H1236 0.950 . S
C1232 C1241 1.390 . S
C1233 C1232 1.387 . S
C1233 C1235 1.387 . S
H1234 C1241 0.950 . S
C1235 C1233 1.387 . S
C1235 C1237 1.390 . S
C1235 H1239 0.950 . S
H1236 C1232 0.950 . S
C1237 C1235 1.390 . S
C1237 C1238 1.387 . S
C1237 H1240 0.950 . S
C1238 C1237 1.387 . S
C1238 C1241 1.387 . S
H1239 C1235 0.950 . S
H1240 C1237 0.950 . S
C1241 C1232 1.390 . S
C1241 H1234 0.950 . S
C1241 C1238 1.387 . S
C1242 C1243 1.387 . S
C1242 H1246 0.950 . S
C1242 C1251 1.390 . S
C1243 C1242 1.387 . S
C1243 C1245 1.387 . S
H1244 C1251 0.950 . S
C1245 C1243 1.387 . S
C1245 C1247 1.390 . S
C1245 H1249 0.950 . S
H1246 C1242 0.950 . S
C1247 C1245 1.390 . S
C1247 C1248 1.387 . S
C1247 H1250 0.950 . S
C1248 C1247 1.387 . S
C1248 C1251 1.387 . S
H1249 C1245 0.950 . S
H1250 C1247 0.950 . S
C1251 C1242 1.390 . S
C1251 H1244 0.950 . S
C1251 C1248 1.387 . S
C1252 C1253 1.387 . S
C1252 H1256 0.950 . S
C1252 C1261 1.390 . S
C1253 C1252 1.387 . S
C1253 C1255 1.387 . S
H1254 C1261 0.950 . S
C1255 C1253 1.387 . S
C1255 C1257 1.390 . S
C1255 H1259 0.950 . S
H1256 C1252 0.950 . S
C1257 C1255 1.390 . S
C1257 C1258 1.387 . S
C1257 H1260 0.950 . S
C1258 C1257 1.387 . S
C1258 C1261 1.387 . S
H1259 C1255 0.950 . S
H1260 C1257 0.950 . S
C1261 C1252 1.390 . S
C1261 H1254 0.950 . S
C1261 C1258 1.387 . S
C1262 C1263 1.387 . S
C1262 H1266 0.950 . S
C1262 C1271 1.390 . S
C1263 C1262 1.387 . S
C1263 C1265 1.387 . S
H1264 C1271 0.950 . S
C1265 C1263 1.387 . S
C1265 C1267 1.390 . S
C1265 H1269 0.950 . S
H1266 C1262 0.950 . S
C1267 C1265 1.390 . S
C1267 C1268 1.387 . S
C1267 H1270 0.950 . S
C1268 C1267 1.387 . S
C1268 C1271 1.387 . S
H1269 C1265 0.950 . S
H1270 C1267 0.950 . S
C1271 C1262 1.390 . S
C1271 H1264 0.950 . S
C1271 C1268 1.387 . S
C1272 C1273 1.387 . S
C1272 H1276 0.950 . S
C1272 C1281 1.390 . S
C1273 C1272 1.387 . S
C1273 C1275 1.387 . S
H1274 C1281 0.950 . S
C1275 C1273 1.387 . S
C1275 C1277 1.390 . S
C1275 H1279 0.950 . S
H1276 C1272 0.950 . S
C1277 C1275 1.390 . S
C1277 C1278 1.387 . S
C1277 H1280 0.950 . S
C1278 C1277 1.387 . S
C1278 C1281 1.387 . S
H1279 C1275 0.950 . S
H1280 C1277 0.950 . S
C1281 C1272 1.390 . S
C1281 H1274 0.950 . S
C1281 C1278 1.387 . S
C1282 C1283 1.387 . S
C1282 H1286 0.950 . S
C1282 C1291 1.390 . S
C1283 C1282 1.387 . S
C1283 C1285 1.387 . S
H1284 C1291 0.950 . S
C1285 C1283 1.387 . S
C1285 C1287 1.390 . S
C1285 H1289 0.950 . S
H1286 C1282 0.950 . S
C1287 C1285 1.390 . S
C1287 C1288 1.387 . S
C1287 H1290 0.950 . S
C1288 C1287 1.387 . S
C1288 C1291 1.387 . S
H1289 C1285 0.950 . S
H1290 C1287 0.950 . S
C1291 C1282 1.390 . S
C1291 H1284 0.950 . S
C1291 C1288 1.387 . S
C1292 C1293 1.387 . S
C1292 H1296 0.950 . S
C1292 C1301 1.390 . S
C1293 C1292 1.387 . S
C1293 C1295 1.387 . S
H1294 C1301 0.950 . S
C1295 C1293 1.387 . S
C1295 C1297 1.390 . S
C1295 H1299 0.950 . S
H1296 C1292 0.950 . S
C1297 C1295 1.390 . S
C1297 C1298 1.387 . S
C1297 H1300 0.950 . S
C1298 C1297 1.387 . S
C1298 C1301 1.387 . S
H1299 C1295 0.950 . S
H1300 C1297 0.950 . S
C1301 C1292 1.390 . S
C1301 H1294 0.950 . S
C1301 C1298 1.387 . S
C1302 C1303 1.387 . S
C1302 H1306 0.950 . S
C1302 C1311 1.390 . S
C1303 C1302 1.387 . S
C1303 C1305 1.387 . S
H1304 C1311 0.950 . S
C1305 C1303 1.387 . S
C1305 C1307 1.390 . S
C1305 H1309 0.950 . S
H1306 C1302 0.950 . S
C1307 C1305 1.390 . S
C1307 C1308 1.387 . S
C1307 H1310 0.950 . S
C1308 C1307 1.387 . S
C1308 C1311 1.387 . S
H1309 C1305 0.950 . S
H1310 C1307 0.950 . S
C1311 C1302 1.390 . S
C1311 H1304 0.950 . S
C1311 C1308 1.387 . S
C1312 C1313 1.387 . S
C1312 H1316 0.950 . S
C1312 C1321 1.390 . S
C1313 C1312 1.387 . S
C1313 C1315 1.387 . S
H1314 C1321 0.950 . S
C1315 C1313 1.387 . S
C1315 C1317 1.390 . S
C1315 H1319 0.950 . S
H1316 C1312 0.950 . S
C1317 C1315 1.390 . S
C1317 C1318 1.387 . S
C1317 H1320 0.950 . S
C1318 C1317 1.387 . S
C1318 C1321 1.387 . S
H1319 C1315 0.950 . S
H1320 C1317 0.950 . S
C1321 C1312 1.390 . S
C1321 H1314 0.950 . S
C1321 C1318 1.387 . S
C1322 C1323 1.387 . S
C1322 H1326 0.950 . S
C1322 C1331 1.390 . S
C1323 C1322 1.387 . S
C1323 C1325 1.387 . S
H1324 C1331 0.950 . S
C1325 C1323 1.387 . S
C1325 C1327 1.390 . S
C1325 H1329 0.950 . S
H1326 C1322 0.950 . S
C1327 C1325 1.390 . S
C1327 C1328 1.387 . S
C1327 H1330 0.950 . S
C1328 C1327 1.387 . S
C1328 C1331 1.387 . S
H1329 C1325 0.950 . S
H1330 C1327 0.950 . S
C1331 C1322 1.390 . S
C1331 H1324 0.950 . S
C1331 C1328 1.387 . S
C1332 C1333 1.387 . S
C1332 H1336 0.950 . S
C1332 C1341 1.390 . S
C1333 C1332 1.387 . S
C1333 C1335 1.387 . S
H1334 C1341 0.950 . S
C1335 C1333 1.387 . S
C1335 C1337 1.390 . S
C1335 H1339 0.950 . S
H1336 C1332 0.950 . S
C1337 C1335 1.390 . S
C1337 C1338 1.387 . S
C1337 H1340 0.950 . S
C1338 C1337 1.387 . S
C1338 C1341 1.387 . S
H1339 C1335 0.950 . S
H1340 C1337 0.950 . S
C1341 C1332 1.390 . S
C1341 H1334 0.950 . S
C1341 C1338 1.387 . S
C1342 C1343 1.387 . S
C1342 H1346 0.950 . S
C1342 C1351 1.390 . S
C1343 C1342 1.387 . S
C1343 C1345 1.387 . S
H1344 C1351 0.950 . S
C1345 C1343 1.387 . S
C1345 C1347 1.390 . S
C1345 H1349 0.950 . S
H1346 C1342 0.950 . S
C1347 C1345 1.390 . S
C1347 C1348 1.387 . S
C1347 H1350 0.950 . S
C1348 C1347 1.387 . S
C1348 C1351 1.387 . S
H1349 C1345 0.950 . S
H1350 C1347 0.950 . S
C1351 C1342 1.390 . S
C1351 H1344 0.950 . S
C1351 C1348 1.387 . S
C1352 C1353 1.387 . S
C1352 H1356 0.950 . S
C1352 C1361 1.390 . S
C1353 C1352 1.387 . S
C1353 C1355 1.387 . S
H1354 C1361 0.950 . S
C1355 C1353 1.387 . S
C1355 C1357 1.390 . S
C1355 H1359 0.950 . S
H1356 C1352 0.950 . S
C1357 C1355 1.390 . S
C1357 C1358 1.387 . S
C1357 H1360 0.950 . S
C1358 C1357 1.387 . S
C1358 C1361 1.387 . S
H1359 C1355 0.950 . S
H1360 C1357 0.950 . S
C1361 C1352 1.390 . S
C1361 H1354 0.950 . S
C1361 C1358 1.387 . S
C1362 C1363 1.387 . S
C1362 H1366 0.950 . S
C1362 C1371 1.390 . S
C1363 C1362 1.387 . S
C1363 C1365 1.387 . S
H1364 C1371 0.950 . S
C1365 C1363 1.387 . S
C1365 C1367 1.390 . S
C1365 H1369 0.950 . S
H1366 C1362 0.950 . S
C1367 C1365 1.390 . S
C1367 C1368 1.387 . S
C1367 H1370 0.950 . S
C1368 C1367 1.387 . S
C1368 C1371 1.387 . S
H1369 C1365 0.950 . S
H1370 C1367 0.950 . S
C1371 C1362 1.390 . S
C1371 H1364 0.950 . S
C1371 C1368 1.387 . S
C1372 C1373 1.387 . S
C1372 H1376 0.950 . S
C1372 C1381 1.390 . S
C1373 C1372 1.387 . S
C1373 C1375 1.387 . S
H1374 C1381 0.950 . S
C1375 C1373 1.387 . S
C1375 C1377 1.390 . S
C1375 H1379 0.950 . S
H1376 C1372 0.950 . S
C1377 C1375 1.390 . S
C1377 C1378 1.387 . S
C1377 H1380 0.950 . S
C1378 C1377 1.387 . S
C1378 C1381 1.387 . S
H1379 C1375 0.950 . S
H1380 C1377 0.950 . S
C1381 C1372 1.390 . S
C1381 H1374 0.950 . S
C1381 C1378 1.387 . S
C1382 C1383 1.387 . S
C1382 H1386 0.950 . S
C1382 C1391 1.390 . S
C1383 C1382 1.387 . S
C1383 C1385 1.387 . S
H1384 C1391 0.950 . S
C1385 C1383 1.387 . S
C1385 C1387 1.390 . S
C1385 H1389 0.950 . S
H1386 C1382 0.950 . S
C1387 C1385 1.390 . S
C1387 C1388 1.387 . S
C1387 H1390 0.950 . S
C1388 C1387 1.387 . S
C1388 C1391 1.387 . S
H1389 C1385 0.950 . S
H1390 C1387 0.950 . S
C1391 C1382 1.390 . S
C1391 H1384 0.950 . S
C1391 C1388 1.387 . S
C1392 C1393 1.387 . S
C1392 H1396 0.950 . S
C1392 C1401 1.390 1_554 S
C1393 C1392 1.387 . S
C1393 C1395 1.387 . S
H1394 C1401 0.950 . S
C1395 C1393 1.387 . S
C1395 C1397 1.390 1_554 S
C1395 H1399 0.950 . S
H1396 C1392 0.950 . S
C1397 C1395 1.390 1_556 S
C1397 C1398 1.387 . S
C1397 H1400 0.950 . S
C1398 C1397 1.387 . S
C1398 C1401 1.387 . S
H1399 C1395 0.950 . S
H1400 C1397 0.950 . S
C1401 C1392 1.390 1_556 S
C1401 H1394 0.950 . S
C1401 C1398 1.387 . S
C1402 C1403 1.387 . S
C1402 H1406 0.950 . S
C1402 C1411 1.390 1_556 S
C1403 C1402 1.387 . S
C1403 C1405 1.387 . S
H1404 C1411 0.950 . S
C1405 C1403 1.387 . S
C1405 C1407 1.390 1_556 S
C1405 H1409 0.950 . S
H1406 C1402 0.950 . S
C1407 C1405 1.390 1_554 S
C1407 C1408 1.387 . S
C1407 H1410 0.950 . S
C1408 C1407 1.387 . S
C1408 C1411 1.387 . S
H1409 C1405 0.950 . S
H1410 C1407 0.950 . S
C1411 C1402 1.390 1_554 S
C1411 H1404 0.950 . S
C1411 C1408 1.387 . S
C1412 C1413 1.387 . S
C1412 H1416 0.950 . S
C1412 C1421 1.390 1_554 S
C1413 C1412 1.387 . S
C1413 C1415 1.387 . S
H1414 C1421 0.950 . S
C1415 C1413 1.387 . S
C1415 C1417 1.390 1_554 S
C1415 H1419 0.950 . S
H1416 C1412 0.950 . S
C1417 C1415 1.390 1_556 S
C1417 C1418 1.387 . S
C1417 H1420 0.950 . S
C1418 C1417 1.387 . S
C1418 C1421 1.387 . S
H1419 C1415 0.950 . S
H1420 C1417 0.950 . S
C1421 C1412 1.390 1_556 S
C1421 H1414 0.950 . S
C1421 C1418 1.387 . S
C1422 C1423 1.387 . S
C1422 H1426 0.950 . S
C1422 C1431 1.390 1_554 S
C1423 C1422 1.387 . S
C1423 C1425 1.387 . S
H1424 C1431 0.950 . S
C1425 C1423 1.387 . S
C1425 C1427 1.390 1_554 S
C1425 H1429 0.950 . S
H1426 C1422 0.950 . S
C1427 C1425 1.390 1_556 S
C1427 C1428 1.387 . S
C1427 H1430 0.950 . S
C1428 C1427 1.387 . S
C1428 C1431 1.387 . S
H1429 C1425 0.950 . S
H1430 C1427 0.950 . S
C1431 C1422 1.390 1_556 S
C1431 H1424 0.950 . S
C1431 C1428 1.387 . S
C1432 C1433 1.387 . S
C1432 H1436 0.950 . S
C1432 C1441 1.390 1_556 S
C1433 C1432 1.387 . S
C1433 C1435 1.387 . S
H1434 C1441 0.950 . S
C1435 C1433 1.387 . S
C1435 C1437 1.390 1_556 S
C1435 H1439 0.950 . S
H1436 C1432 0.950 . S
C1437 C1435 1.390 1_554 S
C1437 C1438 1.387 . S
C1437 H1440 0.950 . S
C1438 C1437 1.387 . S
C1438 C1441 1.387 . S
H1439 C1435 0.950 . S
H1440 C1437 0.950 . S
C1441 C1432 1.390 1_554 S
C1441 H1434 0.950 . S
C1441 C1438 1.387 . S
C1442 C1443 1.387 . S
C1442 H1446 0.950 . S
C1442 C1451 1.390 1_554 S
C1443 C1442 1.387 . S
C1443 C1445 1.387 . S
H1444 C1451 0.950 . S
C1445 C1443 1.387 . S
C1445 C1447 1.390 1_554 S
C1445 H1449 0.950 . S
H1446 C1442 0.950 . S
C1447 C1445 1.390 1_556 S
C1447 C1448 1.387 . S
C1447 H1450 0.950 . S
C1448 C1447 1.387 . S
C1448 C1451 1.387 . S
H1449 C1445 0.950 . S
H1450 C1447 0.950 . S
C1451 C1442 1.390 1_556 S
C1451 H1444 0.950 . S
C1451 C1448 1.387 . S
C1452 C1453 1.387 . S
C1452 H1456 0.950 . S
C1452 C1461 1.390 1_556 S
C1453 C1452 1.387 . S
C1453 C1455 1.387 . S
H1454 C1461 0.950 . S
C1455 C1453 1.387 . S
C1455 C1457 1.390 1_556 S
C1455 H1459 0.950 . S
H1456 C1452 0.950 . S
C1457 C1455 1.390 1_554 S
C1457 C1458 1.387 . S
C1457 H1460 0.950 . S
C1458 C1457 1.387 . S
C1458 C1461 1.387 . S
H1459 C1455 0.950 . S
H1460 C1457 0.950 . S
C1461 C1452 1.390 1_554 S
C1461 H1454 0.950 . S
C1461 C1458 1.387 . S
C1462 C1463 1.387 . S
C1462 H1466 0.950 . S
C1462 C1471 1.390 1_554 S
C1463 C1462 1.387 . S
C1463 C1465 1.387 . S
H1464 C1471 0.950 . S
C1465 C1463 1.387 . S
C1465 C1467 1.390 1_554 S
C1465 H1469 0.950 . S
H1466 C1462 0.950 . S
C1467 C1465 1.390 1_556 S
C1467 C1468 1.387 . S
C1467 H1470 0.950 . S
C1468 C1467 1.387 . S
C1468 C1471 1.387 . S
H1469 C1465 0.950 . S
H1470 C1467 0.950 . S
C1471 C1462 1.390 1_556 S
C1471 H1464 0.950 . S
C1471 C1468 1.387 . S
C1472 C1473 1.387 . S
C1472 H1476 0.950 . S
C1472 C1481 1.390 1_455 S
C1473 C1472 1.387 . S
C1473 C1475 1.387 . S
H1474 C1481 0.950 . S
C1475 C1473 1.387 . S
C1475 C1477 1.390 1_455 S
C1475 H1479 0.950 . S
H1476 C1472 0.950 . S
C1477 C1475 1.390 1_655 S
C1477 C1478 1.387 . S
C1477 H1480 0.950 . S
C1478 C1477 1.387 . S
C1478 C1481 1.387 . S
H1479 C1475 0.950 . S
H1480 C1477 0.950 . S
C1481 C1472 1.390 1_655 S
C1481 H1474 0.950 . S
C1481 C1478 1.387 . S
C1482 C1483 1.387 . S
C1482 H1486 0.950 . S
C1482 C1491 1.390 1_565 S
C1483 C1482 1.387 . S
C1483 C1485 1.387 . S
H1484 C1491 0.950 . S
C1485 C1483 1.387 . S
C1485 C1487 1.390 1_565 S
C1485 H1489 0.950 . S
H1486 C1482 0.950 . S
C1487 C1485 1.390 1_545 S
C1487 C1488 1.387 . S
C1487 H1490 0.950 . S
C1488 C1487 1.387 . S
C1488 C1491 1.387 . S
H1489 C1485 0.950 . S
H1490 C1487 0.950 . S
C1491 C1482 1.390 1_545 S
C1491 H1484 0.950 . S
C1491 C1488 1.387 . S
C1492 C1493 1.387 . S
C1492 H1496 0.950 . S
C1492 C1501 1.390 1_455 S
C1493 C1492 1.387 . S
C1493 C1495 1.387 . S
H1494 C1501 0.950 . S
C1495 C1493 1.387 . S
C1495 C1497 1.390 1_455 S
C1495 H1499 0.950 . S
H1496 C1492 0.950 . S
C1497 C1495 1.390 1_655 S
C1497 C1498 1.387 . S
C1497 H1500 0.950 . S
C1498 C1497 1.387 . S
C1498 C1501 1.387 . S
H1499 C1495 0.950 . S
H1500 C1497 0.950 . S
C1501 C1492 1.390 1_655 S
C1501 H1494 0.950 . S
C1501 C1498 1.387 . S
C1502 C1503 1.387 . S
C1502 H1506 0.950 . S
C1502 C1511 1.390 1_565 S
C1503 C1502 1.387 . S
C1503 C1505 1.387 . S
H1504 C1511 0.950 . S
C1505 C1503 1.387 . S
C1505 C1507 1.390 1_565 S
C1505 H1509 0.950 . S
H1506 C1502 0.950 . S
C1507 C1505 1.390 1_545 S
C1507 C1508 1.387 . S
C1507 H1510 0.950 . S
C1508 C1507 1.387 . S
C1508 C1511 1.387 . S
H1509 C1505 0.950 . S
H1510 C1507 0.950 . S
C1511 C1502 1.390 1_545 S
C1511 H1504 0.950 . S
C1511 C1508 1.387 . S
C1512 C1513 1.387 . S
C1512 H1516 0.950 . S
C1512 C1521 1.390 1_655 S
C1513 C1512 1.387 . S
C1513 C1515 1.387 . S
H1514 C1521 0.950 . S
C1515 C1513 1.387 . S
C1515 C1517 1.390 1_655 S
C1515 H1519 0.950 . S
H1516 C1512 0.950 . S
C1517 C1515 1.390 1_455 S
C1517 C1518 1.387 . S
C1517 H1520 0.950 . S
C1518 C1517 1.387 . S
C1518 C1521 1.387 . S
H1519 C1515 0.950 . S
H1520 C1517 0.950 . S
C1521 C1512 1.390 1_455 S
C1521 H1514 0.950 . S
C1521 C1518 1.387 . S
C1522 C1523 1.387 . S
C1522 H1526 0.950 . S
C1522 C1531 1.390 1_545 S
C1523 C1522 1.387 . S
C1523 C1525 1.387 . S
H1524 C1531 0.950 . S
C1525 C1523 1.387 . S
C1525 C1527 1.390 1_545 S
C1525 H1529 0.950 . S
H1526 C1522 0.950 . S
C1527 C1525 1.390 1_565 S
C1527 C1528 1.387 . S
C1527 H1530 0.950 . S
C1528 C1527 1.387 . S
C1528 C1531 1.387 . S
H1529 C1525 0.950 . S
H1530 C1527 0.950 . S
C1531 C1522 1.390 1_565 S
C1531 H1524 0.950 . S
C1531 C1528 1.387 . S
C1532 C1533 1.387 . S
C1532 H1536 0.950 . S
C1532 C1541 1.390 1_455 S
C1533 C1532 1.387 . S
C1533 C1535 1.387 . S
H1534 C1541 0.950 . S
C1535 C1533 1.387 . S
C1535 C1537 1.390 1_455 S
C1535 H1539 0.950 . S
H1536 C1532 0.950 . S
C1537 C1535 1.390 1_655 S
C1537 C1538 1.387 . S
C1537 H1540 0.950 . S
C1538 C1537 1.387 . S
C1538 C1541 1.387 . S
H1539 C1535 0.950 . S
H1540 C1537 0.950 . S
C1541 C1532 1.390 1_655 S
C1541 H1534 0.950 . S
C1541 C1538 1.387 . S
C1542 C1543 1.387 . S
C1542 H1546 0.950 . S
C1542 C1551 1.390 1_545 S
C1543 C1542 1.387 . S
C1543 C1545 1.387 . S
H1544 C1551 0.950 . S
C1545 C1543 1.387 . S
C1545 C1547 1.390 1_545 S
C1545 H1549 0.950 . S
H1546 C1542 0.950 . S
C1547 C1545 1.390 1_565 S
C1547 C1548 1.387 . S
C1547 H1550 0.950 . S
C1548 C1547 1.387 . S
C1548 C1551 1.387 . S
H1549 C1545 0.950 . S
H1550 C1547 0.950 . S
C1551 C1542 1.390 1_565 S
C1551 H1544 0.950 . S
C1551 C1548 1.387 . S
C1552 C1553 1.387 . S
C1552 H1556 0.950 . S
C1552 C1561 1.390 1_545 S
C1553 C1552 1.387 . S
C1553 C1555 1.387 . S
H1554 C1561 0.950 . S
C1555 C1553 1.387 . S
C1555 C1557 1.390 1_545 S
C1555 H1559 0.950 . S
H1556 C1552 0.950 . S
C1557 C1555 1.390 1_565 S
C1557 C1558 1.387 . S
C1557 H1560 0.950 . S
C1558 C1557 1.387 . S
C1558 C1561 1.387 . S
H1559 C1555 0.950 . S
H1560 C1557 0.950 . S
C1561 C1552 1.390 1_565 S
C1561 H1554 0.950 . S
C1561 C1558 1.387 . S
C1562 C1563 1.387 . S
C1562 H1566 0.950 . S
C1562 C1571 1.390 1_545 S
C1563 C1562 1.387 . S
C1563 C1565 1.387 . S
H1564 C1571 0.950 . S
C1565 C1563 1.387 . S
C1565 C1567 1.390 1_545 S
C1565 H1569 0.950 . S
H1566 C1562 0.950 . S
C1567 C1565 1.390 1_565 S
C1567 C1568 1.387 . S
C1567 H1570 0.950 . S
C1568 C1567 1.387 . S
C1568 C1571 1.387 . S
H1569 C1565 0.950 . S
H1570 C1567 0.950 . S
C1571 C1562 1.390 1_565 S
C1571 H1564 0.950 . S
C1571 C1568 1.387 . S
C1572 C1573 1.387 . S
C1572 H1576 0.950 . S
C1572 C1581 1.390 1_655 S
C1573 C1572 1.387 . S
C1573 C1575 1.387 . S
H1574 C1581 0.950 . S
C1575 C1573 1.387 . S
C1575 C1577 1.390 1_655 S
C1575 H1579 0.950 . S
H1576 C1572 0.950 . S
C1577 C1575 1.390 1_455 S
C1577 C1578 1.387 . S
C1577 H1580 0.950 . S
C1578 C1577 1.387 . S
C1578 C1581 1.387 . S
H1579 C1575 0.950 . S
H1580 C1577 0.950 . S
C1581 C1572 1.390 1_455 S
C1581 H1574 0.950 . S
C1581 C1578 1.387 . S
C1582 C1583 1.387 . S
C1582 H1586 0.950 . S
C1582 C1591 1.390 1_545 S
C1583 C1582 1.387 . S
C1583 C1585 1.387 . S
H1584 C1591 0.950 . S
C1585 C1583 1.387 . S
C1585 C1587 1.390 1_545 S
C1585 H1589 0.950 . S
H1586 C1582 0.950 . S
C1587 C1585 1.390 1_565 S
C1587 C1588 1.387 . S
C1587 H1590 0.950 . S
C1588 C1587 1.387 . S
C1588 C1591 1.387 . S
H1589 C1585 0.950 . S
H1590 C1587 0.950 . S
C1591 C1582 1.390 1_565 S
C1591 H1584 0.950 . S
C1591 C1588 1.387 . S
C1592 C1593 1.387 . S
C1592 H1596 0.950 . S
C1592 C1601 1.390 1_455 S
C1593 C1592 1.387 . S
C1593 C1595 1.387 . S
H1594 C1601 0.950 . S
C1595 C1593 1.387 . S
C1595 C1597 1.390 1_455 S
C1595 H1599 0.950 . S
H1596 C1592 0.950 . S
C1597 C1595 1.390 1_655 S
C1597 C1598 1.387 . S
C1597 H1600 0.950 . S
C1598 C1597 1.387 . S
C1598 C1601 1.387 . S
H1599 C1595 0.950 . S
H1600 C1597 0.950 . S
C1601 C1592 1.390 1_655 S
C1601 H1594 0.950 . S
C1601 C1598 1.387 . S
C1602 C1603 1.387 . S
C1602 H1606 0.950 . S
C1602 C1611 1.390 1_545 S
C1603 C1602 1.387 . S
C1603 C1605 1.387 . S
H1604 C1611 0.950 . S
C1605 C1603 1.387 . S
C1605 C1607 1.390 1_545 S
C1605 H1609 0.950 . S
H1606 C1602 0.950 . S
C1607 C1605 1.390 1_565 S
C1607 C1608 1.387 . S
C1607 H1610 0.950 . S
C1608 C1607 1.387 . S
C1608 C1611 1.387 . S
H1609 C1605 0.950 . S
H1610 C1607 0.950 . S
C1611 C1602 1.390 1_565 S
C1611 H1604 0.950 . S
C1611 C1608 1.387 . S
C1612 C1613 1.387 . S
C1612 H1616 0.950 . S
C1612 C1621 1.390 1_655 S
C1613 C1612 1.387 . S
C1613 C1615 1.387 . S
H1614 C1621 0.950 . S
C1615 C1613 1.387 . S
C1615 C1617 1.390 1_655 S
C1615 H1619 0.950 . S
H1616 C1612 0.950 . S
C1617 C1615 1.390 1_455 S
C1617 C1618 1.387 . S
C1617 H1620 0.950 . S
C1618 C1617 1.387 . S
C1618 C1621 1.387 . S
H1619 C1615 0.950 . S
H1620 C1617 0.950 . S
C1621 C1612 1.390 1_455 S
C1621 H1614 0.950 . S
C1621 C1618 1.387 . S
C1622 C1623 1.387 . S
C1622 H1626 0.950 . S
C1622 C1631 1.390 1_455 S
C1623 C1622 1.387 . S
C1623 C1625 1.387 . S
H1624 C1631 0.950 . S
C1625 C1623 1.387 . S
C1625 C1627 1.390 1_455 S
C1625 H1629 0.950 . S
H1626 C1622 0.950 . S
C1627 C1625 1.390 1_655 S
C1627 C1628 1.387 . S
C1627 H1630 0.950 . S
C1628 C1627 1.387 . S
C1628 C1631 1.387 . S
H1629 C1625 0.950 . S
H1630 C1627 0.950 . S
C1631 C1622 1.390 1_655 S
C1631 H1624 0.950 . S
C1631 C1628 1.387 . S
C673 C553 1.377 . S
C678 C7 1.375 . S
C683 C25 1.273 . S
C688 C511 1.277 . S
C693 C35 1.304 . S
C698 C529 1.307 . S
C703 C543 1.291 . S
C708 C53 1.290 . S
C713 C473 1.255 . S
C718 C67 1.251 . S
C723 C77 1.332 . S
C728 C483 1.340 . S
C733 C95 1.306 . S
C738 C497 1.302 . S
C743 C105 1.354 . S
C748 C459 1.349 . S
C753 C123 1.349 . S
C758 C441 1.354 . S
C763 C403 1.249 . S
C768 C137 1.256 . S
C773 C413 1.331 . S
C778 C147 1.341 . S
C783 C161 1.301 . S
C788 C431 1.304 . S
C793 C175 1.276 . S
C798 C361 1.271 . S
C803 C193 1.307 . S
C808 C371 1.304 . S
C813 C389 1.290 . S
C818 C207 1.291 . S
C823 C343 1.376 . S
C828 C217 1.376 . S
C833 C235 1.334 . S
C838 C627 1.329 . S
C843 C665 1.298 . S
C848 C245 1.299 . S
C853 C641 1.325 . S
C858 C263 1.333 . S
C863 C651 1.299 . S
C868 C273 1.298 . S
C873 C571 1.334 . S
C878 C291 1.329 . S
C883 C599 1.333 . S
C888 C305 1.325 . S
C893 C315 1.299 . S
C898 C609 1.298 . S
C903 C581 1.299 . S
C908 C329 1.297 . S
C913 C455 1.376 . S
C918 C287 1.376 . S
C923 C249 1.273 . S
C928 C469 1.277 . S
C933 C487 1.307 . S
C938 C259 1.304 . S
C943 C501 1.290 . S
C948 C277 1.291 . S
C953 C333 1.251 . S
C958 C515 1.255 . S
C963 C525 1.341 . S
C968 C301 1.331 . S
C973 C319 1.304 . S
C978 C539 1.302 . S
C983 C231 1.355 . S
C988 C557 1.350 . S
C993 C567 1.355 . S
C998 C221 1.350 . S
C1003 C179 1.255 . S
C1008 C669 1.251 . S
C1013 C637 1.330 . S
C1018 C189 1.341 . S
C1023 C203 1.301 . S
C1028 C655 1.305 . S
C1033 C133 1.277 . S
C1038 C585 1.273 . S
C1043 C151 1.307 . S
C1048 C595 1.304 . S
C1053 C165 1.291 . S
C1058 C613 1.290 . S
C1063 C623 1.375 . S
C1068 C119 1.376 . S
C1073 C347 1.329 . S
C1078 C109 1.334 . S
C1083 C399 1.298 . S
C1088 C21 1.299 . S
C1093 C417 1.327 . S
C1098 C39 1.332 . S
C1103 C427 1.299 . S
C1108 C49 1.299 . S
C1113 C445 1.335 . S
C1118 C11 1.327 . S
C1123 C81 1.325 . S
C1128 C375 1.333 . S
C1133 C385 1.298 . S
C1138 C91 1.299 . S
C1143 C357 1.299 . S
C1148 C63 1.298 . S
C1153 C13 1.226 . S
C1158 C377 1.219 . S
C1163 C386 1.371 . S
C1168 C22 1.381 . S
C1173 C41 1.219 . S
C1178 C349 1.226 . S
C1183 C50 1.375 . S
C1188 C358 1.377 . S
C1193 C64 1.369 . S
C1198 C428 1.384 . S
C1203 C447 1.217 . S
C1208 C83 1.226 . S
C1213 C92 1.384 . S
C1218 C400 1.369 . S
C1223 C419 1.228 . S
C1228 C111 1.216 . S
C1233 C120 1.284 . S
C1238 C517 1.322 . S
C1243 C526 1.416 . S
C1248 C134 1.419 . S
C1253 C153 1.307 . S
C1258 C540 1.287 . S
C1263 C167 1.186 . S
C1268 C559 1.175 . S
C1273 C181 1.323 . S
C1278 C456 1.285 . S
C1283 C190 1.414 . S
C1288 C470 1.421 . S
C1293 C489 1.310 . S
C1298 C204 1.285 . S
C1303 C223 1.179 . S
C1308 C503 1.183 . S
C1313 C615 1.365 . S
C1318 C232 1.327 . S
C1323 C251 1.285 . S
C1328 C638 1.248 . S
C1333 C260 1.291 . S
C1338 C657 1.315 . S
C1343 C568 1.327 . S
C1348 C279 1.363 . S
C1353 C671 1.333 . S
C1358 C288 1.285 . S
C1363 C302 1.246 . S
C1368 C587 1.282 . S
C1373 C596 1.292 . S
C1378 C321 1.311 . S
C1383 C335 1.336 . S
C1388 C624 1.281 . S
C1393 C601 1.221 . S
C1398 C293 1.224 . S
C1403 C246 1.380 . S
C1408 C610 1.372 . S
C1413 C629 1.226 . S
C1418 C265 1.218 . S
C1423 C582 1.380 . S
C1428 C274 1.371 . S
C1433 C652 1.384 . S
C1438 C330 1.369 . S
C1443 C307 1.226 . S
C1448 C573 1.217 . S
C1453 C666 1.369 . S
C1458 C316 1.383 . S
C1463 C237 1.217 . S
C1468 C643 1.227 . S
C1473 C475 1.320 . S
C1478 C218 1.288 . S
C1483 C176 1.418 . S
C1488 C484 1.417 . S
C1493 C195 1.310 . S
C1498 C498 1.284 . S
C1503 C461 1.175 . S
C1508 C209 1.186 . S
C1513 C139 1.319 . S
C1518 C554 1.287 . S
C1523 C512 1.418 . S
C1528 C148 1.417 . S
C1533 C162 1.285 . S
C1538 C531 1.310 . S
C1543 C125 1.175 . S
C1548 C545 1.186 . S
C1553 C391 1.365 . S
C1558 C106 1.330 . S
C1563 C27 1.284 . S
C1568 C414 1.249 . S
C1573 C36 1.292 . S
C1578 C433 1.315 . S
C1583 C442 1.327 . S
C1588 C55 1.364 . S
C1593 C8 1.281 . S
C1598 C405 1.336 . S
C1603 C78 1.249 . S
C1608 C363 1.283 . S
C1613 C97 1.315 . S
C1618 C372 1.292 . S
C1623 C69 1.334 . S
C1628 C344 1.285 . S
