# Generated by pormake.
# Topology wjf, (4)-cn, num edge types: 1
# Building blocks:
#     Node 0, Type 0, BuildingBlock: UXUYUI_clean_sbu_0, # of connection points: 4
#     Node 1, Type 0, BuildingBlock: UXUYUI_clean_sbu_0, # of connection points: 4
#     Node 2, Type 0, BuildingBlock: UXUYUI_clean_sbu_0, # of connection points: 4
#     Node 3, Type 0, BuildingBlock: UXUYUI_clean_sbu_0, # of connection points: 4
#     Node 4, Type 0, BuildingBlock: UXUYUI_clean_sbu_0, # of connection points: 4
#     Node 5, Type 0, BuildingBlock: UXUYUI_clean_sbu_0, # of connection points: 4
#     Node 6, Type 0, BuildingBlock: UXUYUI_clean_sbu_0, # of connection points: 4
#     Node 7, Type 0, BuildingBlock: UXUYUI_clean_sbu_0, # of connection points: 4
#     Node 8, Type 0, BuildingBlock: UXUYUI_clean_sbu_0, # of connection points: 4
#     Node 9, Type 0, BuildingBlock: UXUYUI_clean_sbu_0, # of connection points: 4
#     Node 10, Type 0, BuildingBlock: UXUYUI_clean_sbu_0, # of connection points: 4
#     Node 11, Type 0, BuildingBlock: UXUYUI_clean_sbu_0, # of connection points: 4
#     Edge 12, Type (0, 0), BuildingBlock: TEMPAE_clean_linker_10, # of connection points: 2
#     Edge 13, Type (0, 0), BuildingBlock: TEMPAE_clean_linker_10, # of connection points: 2
#     Edge 14, Type (0, 0), BuildingBlock: TEMPAE_clean_linker_10, # of connection points: 2
#     Edge 15, Type (0, 0), BuildingBlock: TEMPAE_clean_linker_10, # of connection points: 2
#     Edge 16, Type (0, 0), BuildingBlock: TEMPAE_clean_linker_10, # of connection points: 2
#     Edge 17, Type (0, 0), BuildingBlock: TEMPAE_clean_linker_10, # of connection points: 2
#     Edge 18, Type (0, 0), BuildingBlock: TEMPAE_clean_linker_10, # of connection points: 2
#     Edge 19, Type (0, 0), BuildingBlock: TEMPAE_clean_linker_10, # of connection points: 2
#     Edge 20, Type (0, 0), BuildingBlock: TEMPAE_clean_linker_10, # of connection points: 2
#     Edge 21, Type (0, 0), BuildingBlock: TEMPAE_clean_linker_10, # of connection points: 2
#     Edge 22, Type (0, 0), BuildingBlock: TEMPAE_clean_linker_10, # of connection points: 2
#     Edge 23, Type (0, 0), BuildingBlock: TEMPAE_clean_linker_10, # of connection points: 2
#     Edge 24, Type (0, 0), BuildingBlock: TEMPAE_clean_linker_10, # of connection points: 2
#     Edge 25, Type (0, 0), BuildingBlock: TEMPAE_clean_linker_10, # of connection points: 2
#     Edge 26, Type (0, 0), BuildingBlock: TEMPAE_clean_linker_10, # of connection points: 2
#     Edge 27, Type (0, 0), BuildingBlock: TEMPAE_clean_linker_10, # of connection points: 2
#     Edge 28, Type (0, 0), BuildingBlock: TEMPAE_clean_linker_10, # of connection points: 2
#     Edge 29, Type (0, 0), BuildingBlock: TEMPAE_clean_linker_10, # of connection points: 2
#     Edge 30, Type (0, 0), BuildingBlock: TEMPAE_clean_linker_10, # of connection points: 2
#     Edge 31, Type (0, 0), BuildingBlock: TEMPAE_clean_linker_10, # of connection points: 2
#     Edge 32, Type (0, 0), BuildingBlock: TEMPAE_clean_linker_10, # of connection points: 2
#     Edge 33, Type (0, 0), BuildingBlock: TEMPAE_clean_linker_10, # of connection points: 2
#     Edge 34, Type (0, 0), BuildingBlock: TEMPAE_clean_linker_10, # of connection points: 2
#     Edge 35, Type (0, 0), BuildingBlock: TEMPAE_clean_linker_10, # of connection points: 2
# Relax obj value: 0.355
# Max RMSD: 0.304
# Mean RMSD: 0.304
data_MOF--net-wjf--node1-UXUYUI_clean_sbu_0--edge1-TEMPAE_clean_linker_10
_symmetry_space_group_name_H-M    P1
_symmetry_Int_Tables_number       1
_symmetry_cell_setting            triclinic
loop_
_symmetry_equiv_pos_as_xyz
'x, y, z'
_cell_length_a     73.777941
_cell_length_b     73.760013
_cell_length_c     39.417484
_cell_angle_alpha  89.993604
_cell_angle_beta   90.03316
_cell_angle_gamma 119.99208
loop_
_atom_site_label
_atom_site_type_symbol
_atom_site_fract_x
_atom_site_fract_y
_atom_site_fract_z
_atom_type_partial_charge
Li0 Li 0.31107 0.39112 0.06126 0.0
Li1 Li 0.31327 0.36719 0.10114 0.0
Li2 Li 0.34544 0.39401 0.07111 0.0
Li3 Li 0.3179 0.36251 0.04206 0.0
C4 C 0.33047 0.41696 0.11651 0.0
N5 N 0.33675 0.45472 0.14135 0.0
C6 C 0.31938 0.41743 0.14492 0.0
C7 C 0.34498 0.43573 0.10107 0.0
C8 C 0.3227 0.43666 0.15699 0.0
C9 C 0.34788 0.45465 0.11391 0.0
C10 C 0.27454 0.34559 0.07887 0.0
C11 C 0.25147 0.3101 0.09711 0.0
N12 N 0.23821 0.31606 0.11029 0.0
C13 C 0.26062 0.35134 0.09231 0.0
C14 C 0.26988 0.32479 0.081 0.0
C15 C 0.24236 0.33619 0.1082 0.0
C16 C 0.29532 0.40785 0.01446 0.0
N17 N 0.29685 0.40547 0.04833 0.0
C18 C 0.2743 0.41923 0.06019 0.0
C19 C 0.28686 0.41118 0.07125 0.0
C20 C 0.27197 0.4213 0.02523 0.0
C21 C 0.28316 0.41602 0.00232 0.0
H22 H 0.30293 0.40264 -0.00328 0.0
H23 H 0.28776 0.4085 0.09797 0.0
C24 C 0.31092 0.34057 0.15339 0.0
N25 N 0.30326 0.353 0.14307 0.0
C26 C 0.30567 0.33106 0.18513 0.0
C27 C 0.28435 0.34696 0.19497 0.0
C28 C 0.28996 0.35612 0.16284 0.0
C29 C 0.29253 0.33451 0.20665 0.0
H30 H 0.32174 0.33865 0.13753 0.0
H31 H 0.28415 0.36614 0.15404 0.0
C32 C 0.34314 0.40605 0.00266 0.0
N33 N 0.36686 0.43413 0.95249 0.0
C34 C 0.3502 0.39942 0.97499 0.0
C35 C 0.34788 0.42689 0.00449 0.0
C36 C 0.36225 0.41387 0.94998 0.0
C37 C 0.35996 0.44086 0.97897 0.0
C38 C 0.34351 0.35091 0.0722 0.0
C39 C 0.3646 0.35898 0.06397 0.0
C40 C 0.32996 0.32925 0.07209 0.0
C41 C 0.37171 0.34523 0.05532 0.0
C42 C 0.33767 0.31603 0.06327 0.0
N43 N 0.35821 0.32423 0.05512 0.0
C44 C 0.38252 0.42158 0.10581 0.0
C45 C 0.38725 0.4182 0.04715 0.0
C46 C 0.40372 0.43639 0.10948 0.0
N47 N 0.37469 0.4131 0.07488 0.0
C48 C 0.40844 0.43307 0.04956 0.0
C49 C 0.41685 0.44249 0.08096 0.0
H50 H 0.37222 0.41705 0.12754 0.0
H51 H 0.38089 0.41068 0.02316 0.0
C52 C 0.29258 0.33443 0.99212 0.0
N53 N 0.31216 0.34356 0.00563 0.0
C54 C 0.28812 0.32307 0.96197 0.0
C55 C 0.32371 0.32973 0.96127 0.0
C56 C 0.32758 0.34125 0.99108 0.0
C57 C 0.30394 0.32101 0.9459 0.0
H58 H 0.28073 0.33688 0.00385 0.0
H59 H 0.34322 0.34935 0.0014 0.0
O60 O 0.32735 0.39823 0.10432 0.0
O61 O 0.29265 0.36025 0.06368 0.0
O62 O 0.33131 0.39206 0.02739 0.0
O63 O 0.33628 0.36414 0.08081 0.0
H64 H 0.30824 0.40309 0.15743 0.0
H65 H 0.35407 0.43574 0.07961 0.0
H66 H 0.31412 0.43723 0.17882 0.0
H67 H 0.35904 0.46929 0.10213 0.0
H68 H 0.24771 0.29396 0.09912 0.0
H69 H 0.26397 0.36736 0.09078 0.0
H70 H 0.28038 0.32005 0.07038 0.0
H71 H 0.2315 0.34044 0.11893 0.0
H72 H 0.26561 0.42269 0.07873 0.0
H73 H 0.28194 0.41748 0.97519 0.0
H74 H 0.31273 0.32199 0.1934 0.0
H75 H 0.27416 0.34999 0.21082 0.0
H76 H 0.34657 0.38335 0.97295 0.0
H77 H 0.34205 0.43219 0.0251 0.0
H78 H 0.36793 0.40897 0.92856 0.0
H79 H 0.36376 0.45704 0.98012 0.0
H80 H 0.37536 0.37566 0.06423 0.0
H81 H 0.31363 0.32272 0.07857 0.0
H82 H 0.38797 0.35127 0.04878 0.0
H83 H 0.32733 0.29925 0.0629 0.0
H84 H 0.40969 0.44332 0.13412 0.0
H85 H 0.4182 0.43707 0.02715 0.0
H86 H 0.27276 0.31671 0.95058 0.0
H87 H 0.33645 0.32893 0.9491 0.0
Li88 Li 0.95051 0.3203 0.44808 0.0
Li89 Li 0.92218 0.31412 0.41381 0.0
Li90 Li 0.95539 0.32364 0.38819 0.0
Li91 Li 0.94993 0.35038 0.41934 0.0
C92 C 0.93882 0.28299 0.43084 0.0
N93 N 0.94338 0.25372 0.46795 0.0
C94 C 0.9236 0.27035 0.45451 0.0
C95 C 0.9563 0.28065 0.42593 0.0
C96 C 0.9262 0.25566 0.47304 0.0
C97 C 0.95834 0.26579 0.44497 0.0
C98 C 0.91236 0.32875 0.46672 0.0
C99 C 0.88837 0.34165 0.4746 0.0
N100 N 0.87424 0.323 0.48857 0.0
C101 C 0.89762 0.30973 0.48128 0.0
C102 C 0.90772 0.34487 0.4634 0.0
C103 C 0.87843 0.30711 0.4921 0.0
C104 C 0.97977 0.31757 0.49074 0.0
N105 N 0.95971 0.31354 0.48874 0.0
C106 C 0.95347 0.30213 0.54637 0.0
C107 C 0.94649 0.30575 0.51562 0.0
C108 C 0.97436 0.30686 0.54957 0.0
C109 C 0.98747 0.3143 0.52105 0.0
H110 H 0.98999 0.32389 0.46912 0.0
H111 H 0.93064 0.30272 0.51338 0.0
C112 C 0.88618 0.27649 0.39874 0.0
N113 N 0.89288 0.29701 0.40472 0.0
C114 C 0.8658 0.26312 0.38789 0.0
C115 C 0.85938 0.2922 0.38921 0.0
C116 C 0.87992 0.30502 0.40051 0.0
C117 C 0.85221 0.27099 0.38255 0.0
H118 H 0.8969 0.27062 0.40101 0.0
H119 H 0.88573 0.32149 0.40465 0.0
C120 C 0.99314 0.35376 0.40972 0.0
N121 N 0.03265 0.3728 0.38114 0.0
C122 C 0.0033 0.37503 0.40135 0.0
C123 C 0.0032 0.34225 0.40383 0.0
C124 C 0.02324 0.38435 0.38687 0.0
C125 C 0.02313 0.35214 0.38927 0.0
C126 C 0.92245 0.33032 0.35263 0.0
C127 C 0.91644 0.31265 0.33241 0.0
C128 C 0.91294 0.34245 0.34797 0.0
C129 C 0.90085 0.3073 0.30796 0.0
C130 C 0.89744 0.3366 0.3232 0.0
N131 N 0.89175 0.31928 0.30391 0.0
C132 C 0.96187 0.30063 0.33713 0.0
C133 C 0.98033 0.33745 0.32974 0.0
C134 C 0.96859 0.29781 0.30547 0.0
N135 N 0.96771 0.32021 0.34842 0.0
C136 C 0.98774 0.3354 0.29834 0.0
C137 C 0.98143 0.31535 0.28535 0.0
H138 H 0.95119 0.28715 0.35195 0.0
H139 H 0.98415 0.35279 0.33881 0.0
C140 C 0.9632 0.38894 0.45174 0.0
N141 N 0.95801 0.379 0.42127 0.0
C142 C 0.97046 0.41039 0.45358 0.0
C143 C 0.96681 0.41087 0.39264 0.0
C144 C 0.95964 0.38942 0.39199 0.0
C145 C 0.97245 0.42165 0.42372 0.0
H146 H 0.96188 0.38019 0.47454 0.0
H147 H 0.95585 0.38115 0.36806 0.0
O148 O 0.93682 0.29786 0.4131 0.0
O149 O 0.93126 0.33164 0.45592 0.0
O150 O 0.97356 0.34436 0.42383 0.0
O151 O 0.93723 0.33546 0.37737 0.0
H152 H 0.91005 0.27204 0.45888 0.0
H153 H 0.96826 0.29029 0.40781 0.0
H154 H 0.91461 0.24587 0.49158 0.0
H155 H 0.97184 0.26389 0.44153 0.0
H156 H 0.88455 0.35397 0.47209 0.0
H157 H 0.90078 0.29697 0.48366 0.0
H158 H 0.91884 0.35965 0.45205 0.0
H159 H 0.86684 0.29242 0.50318 0.0
H160 H 0.94278 0.29614 0.56764 0.0
H161 H 0.00375 0.31845 0.52251 0.0
H162 H 0.86104 0.24698 0.3822 0.0
H163 H 0.84937 0.29884 0.38515 0.0
H164 H 0.99593 0.38428 0.40599 0.0
H165 H 0.99559 0.32578 0.40988 0.0
H166 H 0.03124 0.40077 0.3802 0.0
H167 H 0.031 0.34336 0.38433 0.0
H168 H 0.92346 0.30296 0.33596 0.0
H169 H 0.91723 0.35604 0.36369 0.0
H170 H 0.89592 0.29357 0.29231 0.0
H171 H 0.88985 0.34576 0.31945 0.0
H172 H 0.96297 0.28206 0.29626 0.0
H173 H -0.00215 0.3494 0.284 0.0
H174 H 0.97448 0.41807 0.47807 0.0
H175 H 0.96845 0.41902 0.36898 0.0
Li176 Li 0.62038 0.94872 0.7701 0.0
Li177 Li 0.60051 0.92129 0.73041 0.0
Li178 Li 0.62595 0.95718 0.71279 0.0
Li179 Li 0.59321 0.95072 0.73828 0.0
C180 C 0.64383 0.93143 0.75353 0.0
N181 N 0.66945 0.92065 0.7888 0.0
C182 C 0.63669 0.91052 0.762 0.0
C183 C 0.66407 0.94682 0.76271 0.0
C184 C 0.64988 0.9054 0.77989 0.0
C185 C 0.67675 0.94107 0.78065 0.0
C186 C 0.58735 0.92213 0.80402 0.0
C187 C 0.58455 0.92857 0.86329 0.0
N188 N 0.58497 0.91087 0.87147 0.0
C189 C 0.58787 0.90407 0.81306 0.0
C190 C 0.58571 0.93452 0.82935 0.0
C191 C 0.58657 0.8986 0.84727 0.0
C192 C 0.63757 0.9745 0.82615 0.0
N193 N 0.63347 0.9556 0.8139 0.0
C194 C 0.64487 0.94786 0.866 0.0
C195 C 0.63702 0.94231 0.83305 0.0
C196 C 0.64873 0.96709 0.87936 0.0
C197 C 0.64526 0.9806 0.85888 0.0
H198 H 0.63423 0.98463 0.81089 0.0
H199 H 0.63306 0.92709 0.82337 0.0
C200 C 0.5986 0.89183 0.6868 0.0
N201 N 0.58881 0.89352 0.71475 0.0
C202 C 0.59157 0.87246 0.67148 0.0
C203 C 0.5644 0.85679 0.71404 0.0
C204 C 0.57178 0.87664 0.72828 0.0
C205 C 0.57437 0.85463 0.68525 0.0
H206 H 0.61194 0.90565 0.67647 0.0
H207 H 0.56393 0.87857 0.74995 0.0
C208 C 0.63614 0.993 0.73809 0.0
N209 N 0.66571 0.03204 0.71453 0.0
C210 C 0.62992 0.0052 0.71978 0.0
C211 C 0.65737 0.00075 0.74475 0.0
C212 C 0.64512 0.02487 0.70801 0.0
C213 C 0.67208 0.02049 0.73253 0.0
C214 C 0.57928 0.92781 0.6776 0.0
C215 C 0.57967 0.92823 0.64217 0.0
C216 C 0.56039 0.91539 0.69458 0.0
C217 C 0.56107 0.9162 0.62423 0.0
C218 C 0.54213 0.90359 0.67573 0.0
N219 N 0.54284 0.90424 0.64124 0.0
C220 C 0.66388 0.97398 0.67508 0.0
C221 C 0.6373 0.97983 0.65306 0.0
C222 C 0.67643 0.98348 0.6467 0.0
N223 N 0.64467 0.9722 0.67743 0.0
C224 C 0.64927 0.98941 0.62437 0.0
C225 C 0.669 0.99108 0.62067 0.0
H226 H 0.6692 0.96754 0.69475 0.0
H227 H 0.62183 0.9779 0.65554 0.0
C228 C 0.55991 0.95589 0.76329 0.0
N229 N 0.5724 0.95863 0.73621 0.0
C230 C 0.54546 0.96285 0.76201 0.0
C231 C 0.55649 0.9746 0.70453 0.0
C232 C 0.57081 0.96755 0.70703 0.0
C233 C 0.54374 0.97254 0.73243 0.0
H234 H 0.5613 0.94853 0.78602 0.0
H235 H 0.58087 0.96938 0.68578 0.0
O236 O 0.63125 0.93669 0.73565 0.0
O237 O 0.58891 0.92789 0.77066 0.0
O238 O 0.62157 0.97347 0.74909 0.0
O239 O 0.59743 0.93933 0.69543 0.0
H240 H 0.62112 0.89837 0.75503 0.0
H241 H 0.66987 0.96306 0.75631 0.0
H242 H 0.64453 0.8893 0.78674 0.0
H243 H 0.6924 0.95284 0.78811 0.0
H244 H 0.58346 0.9381 0.88314 0.0
H245 H 0.58965 0.89456 0.79396 0.0
H246 H 0.5859 0.94886 0.82298 0.0
H247 H 0.58703 0.8847 0.8546 0.0
H248 H 0.64708 0.93691 0.88129 0.0
H249 H 0.64816 0.99562 0.8683 0.0
H250 H 0.59981 0.87135 0.64955 0.0
H251 H 0.55102 0.84333 0.72519 0.0
H252 H 0.61357 -0.00051 0.71451 0.0
H253 H 0.66242 0.99152 0.75898 0.0
H254 H 0.64054 0.03443 0.69363 0.0
H255 H 0.68858 0.02662 0.73731 0.0
H256 H 0.5942 0.93772 0.62869 0.0
H257 H 0.55981 0.91479 0.72199 0.0
H258 H 0.56112 0.91636 0.59679 0.0
H259 H 0.5274 0.89389 0.68851 0.0
H260 H 0.69156 0.98452 0.64485 0.0
H261 H 0.64271 0.99463 0.60463 0.0
H262 H 0.5361 0.96108 0.78424 0.0
H263 H 0.55545 0.98162 0.68101 0.0
Li264 Li 0.67254 0.62934 0.09599 0.0
Li265 Li 0.6764 0.60492 0.0588 0.0
Li266 Li 0.66729 0.6305 0.03665 0.0
Li267 Li 0.64088 0.59996 0.06724 0.0
C268 C 0.71178 0.6512 0.07269 0.0
N269 N 0.74894 0.68197 0.10044 0.0
C270 C 0.72803 0.64714 0.07937 0.0
C271 C 0.71451 0.67097 0.07986 0.0
C272 C 0.74668 0.66289 0.09346 0.0
C273 C 0.73338 0.6863 0.09397 0.0
C274 C 0.66078 0.58473 0.12376 0.0
C275 C 0.64563 0.55014 0.14809 0.0
N276 N 0.66205 0.55715 0.16994 0.0
C277 C 0.67736 0.59161 0.14673 0.0
C278 C 0.64466 0.56385 0.12467 0.0
C279 C 0.67779 0.57743 0.16975 0.0
C280 C 0.66747 0.65112 0.1488 0.0
N281 N 0.68088 0.64498 0.13713 0.0
C282 C 0.70253 0.65922 0.18623 0.0
C283 C 0.69835 0.64905 0.15489 0.0
C284 C 0.68862 0.66526 0.19922 0.0
C285 C 0.67108 0.66139 0.17981 0.0
H286 H 0.65357 0.64747 0.13445 0.0
H287 H 0.70884 0.64408 0.14515 0.0
C288 C 0.6932 0.5875 0.01498 0.0
N289 N 0.69218 0.59158 0.04833 0.0
C290 C 0.70592 0.57965 0.00432 0.0
C291 C 0.71698 0.58091 0.06237 0.0
C292 C 0.70353 0.58819 0.07206 0.0
C293 C 0.7186 0.57689 0.02793 0.0
H294 H 0.68472 0.59103 -0.00369 0.0
H295 H 0.70314 0.59227 0.09819 0.0
C296 C 0.64189 0.64218 0.05918 0.0
N297 N 0.62916 0.66754 0.02815 0.0
C298 C 0.62345 0.63333 0.04011 0.0
C299 C 0.65375 0.66392 0.06275 0.0
C300 C 0.61731 0.64642 0.02455 0.0
C301 C 0.64708 0.67648 0.04679 0.0
C302 C 0.64522 0.58105 0.00905 0.0
C303 C 0.63898 0.57863 0.97507 0.0
C304 C 0.64185 0.56356 0.02778 0.0
C305 C 0.62923 0.55868 0.96055 0.0
C306 C 0.63206 0.54387 0.01237 0.0
N307 N 0.62599 0.54185 0.97935 0.0
C308 C 0.68776 0.667 -0.00513 0.0
C309 C 0.65564 0.63907 0.9746 0.0
C310 C 0.69025 0.67846 0.9653 0.0
N311 N 0.67072 0.64765 -0.00126 0.0
C312 C 0.65757 0.64982 0.94459 0.0
C313 C 0.67515 0.66975 0.93944 0.0
H314 H 0.6996 0.6734 0.01437 0.0
H315 H 0.64226 0.62366 0.97849 0.0
C316 C 0.60375 0.57472 0.10367 0.0
N317 N 0.61197 0.5802 0.07197 0.0
C318 C 0.58264 0.55981 0.10801 0.0
C319 C 0.57886 0.55679 0.047 0.0
C320 C 0.59993 0.5719 0.04386 0.0
C321 C 0.57004 0.55049 0.07938 0.0
H322 H 0.61367 0.5818 0.12557 0.0
H323 H 0.60662 0.57706 0.01895 0.0
O324 O 0.69342 0.63595 0.05886 0.0
O325 O 0.65989 0.59853 0.10147 0.0
O326 O 0.64848 0.62965 0.07378 0.0
O327 O 0.65463 0.60048 0.02373 0.0
H328 H 0.72631 0.63203 0.07368 0.0
H329 H 0.70208 0.67436 0.07508 0.0
H330 H 0.75936 0.65994 0.09883 0.0
H331 H 0.73564 0.70162 0.09988 0.0
H332 H 0.6333 0.53394 0.14895 0.0
H333 H 0.68996 0.60763 0.14643 0.0
H334 H 0.63146 0.55823 0.10762 0.0
H335 H 0.69065 0.58254 0.18744 0.0
H336 H 0.71625 0.66197 0.20042 0.0
H337 H 0.65971 0.66537 0.18919 0.0
H338 H 0.70633 0.57651 0.97759 0.0
H339 H 0.72678 0.57954 0.08147 0.0
H340 H 0.61413 0.61654 0.03701 0.0
H341 H 0.66801 0.67102 0.07754 0.0
H342 H 0.60315 0.63979 0.00952 0.0
H343 H 0.65617 0.69333 0.04918 0.0
H344 H 0.64162 0.592 0.96004 0.0
H345 H 0.64698 0.56522 0.05377 0.0
H346 H 0.62427 0.55657 0.93432 0.0
H347 H 0.62937 0.53021 0.02662 0.0
H348 H 0.70394 0.69384 0.96259 0.0
H349 H 0.64572 0.64223 0.9252 0.0
H350 H 0.57633 0.55534 0.13339 0.0
H351 H 0.5695 0.55025 0.02434 0.0
Li352 Li 0.08621 0.68522 0.40987 0.0
Li353 Li 0.05665 0.67748 0.44898 0.0
Li354 Li 0.05675 0.64997 0.41539 0.0
Li355 Li 0.05277 0.6767 0.38894 0.0
C356 C 0.09124 0.67615 0.4769 0.0
N357 N 0.11941 0.69457 0.52948 0.0
C358 C 0.09661 0.69622 0.48812 0.0
C359 C 0.10017 0.66546 0.49246 0.0
C360 C 0.11087 0.70525 0.51477 0.0
C361 C 0.11442 0.67505 0.51896 0.0
C362 C 0.06985 0.71677 0.40154 0.0
C363 C 0.04927 0.73267 0.38636 0.0
N364 N 0.06556 0.74723 0.36771 0.0
C365 C 0.08645 0.73199 0.38244 0.0
C366 C 0.05116 0.71719 0.40376 0.0
C367 C 0.08395 0.74723 0.36545 0.0
C368 C 0.11823 0.70677 0.36489 0.0
N369 N 0.11515 0.70166 0.39836 0.0
C370 C 0.15202 0.72112 0.4086 0.0
C371 C 0.13157 0.70823 0.42016 0.0
C372 C 0.15548 0.72681 0.37424 0.0
C373 C 0.13834 0.71923 0.35217 0.0
H374 H 0.10493 0.70153 0.34814 0.0
H375 H 0.12897 0.70382 0.44651 0.0
C376 C 0.04694 0.66882 0.51683 0.0
N377 N 0.0478 0.68184 0.49175 0.0
C378 C 0.03943 0.66972 0.54878 0.0
C379 C 0.0333 0.69712 0.52843 0.0
C380 C 0.04144 0.69602 0.49696 0.0
C381 C 0.03199 0.68366 0.55479 0.0
H382 H 0.0519 0.65754 0.51187 0.0
H383 H 0.04225 0.70617 0.47658 0.0
C384 C 0.08186 0.65713 0.35984 0.0
N385 N 0.10534 0.64108 0.33232 0.0
C386 C 0.08168 0.65401 0.32486 0.0
C387 C 0.09399 0.65211 0.38085 0.0
C388 C 0.09365 0.64587 0.31142 0.0
C389 C 0.10575 0.64401 0.36644 0.0
C390 C 0.01563 0.64027 0.40742 0.0
C391 C 0.01588 0.63382 0.37415 0.0
C392 C 0.99702 0.63055 0.426 0.0
C393 C 0.99747 0.61775 0.36001 0.0
C394 C 0.97893 0.61452 0.41095 0.0
N395 N 0.97953 0.60851 0.37854 0.0
C396 C 0.04563 0.61195 0.44737 0.0
C397 C 0.04334 0.60968 0.38737 0.0
C398 C 0.03817 0.59047 0.44986 0.0
N399 N 0.04796 0.62102 0.41648 0.0
C400 C 0.03587 0.5882 0.38866 0.0
C401 C 0.03308 0.5783 0.42023 0.0
H402 H 0.04937 0.62139 0.47008 0.0
H403 H 0.04511 0.61722 0.36312 0.0
C404 C 0.0535 0.69121 0.32445 0.0
N405 N 0.04061 0.68292 0.35158 0.0
C406 C 0.04607 0.695 0.2944 0.0
C407 C 0.0123 0.68218 0.32107 0.0
C408 C 0.02048 0.67883 0.35084 0.0
C409 C 0.02509 0.69001 0.29221 0.0
H410 H 0.06945 0.69433 0.32595 0.0
H411 H 0.01066 0.67247 0.373 0.0
O412 O 0.07697 0.66669 0.45137 0.0
O413 O 0.07191 0.70153 0.41794 0.0
O414 O 0.07018 0.66514 0.37312 0.0
O415 O 0.03344 0.65588 0.42207 0.0
H416 H 0.08994 0.70481 0.4764 0.0
H417 H 0.0961 0.64988 0.48414 0.0
H418 H 0.11517 0.72075 0.5237 0.0
H419 H 0.12147 0.66696 0.53121 0.0
H420 H 0.0348 0.73302 0.38752 0.0
H421 H 0.10112 0.73209 0.38079 0.0
H422 H 0.03803 0.70534 0.41795 0.0
H423 H 0.09665 0.75906 0.35048 0.0
H424 H 0.16496 0.72675 0.42629 0.0
H425 H 0.14041 0.7236 0.32561 0.0
H426 H 0.03932 0.65942 0.56843 0.0
H427 H 0.02761 0.70798 0.53168 0.0
H428 H 0.07237 0.65784 0.30827 0.0
H429 H 0.09439 0.65441 0.40796 0.0
H430 H 0.09366 0.64337 0.28438 0.0
H431 H 0.1152 0.64005 0.38238 0.0
H432 H 0.0301 0.64114 0.35932 0.0
H433 H 0.99659 0.63533 0.45181 0.0
H434 H 0.99745 0.61262 0.33429 0.0
H435 H 0.96442 0.60685 0.42505 0.0
H436 H 0.03645 0.58349 0.47468 0.0
H437 H 0.03186 0.57935 0.36523 0.0
H438 H 0.05635 0.70072 0.27258 0.0
H439 H 0.99605 0.67821 0.32031 0.0
Li440 Li 0.38725 0.07976 0.73414 0.0
Li441 Li 0.36842 0.05073 0.76983 0.0
Li442 Li 0.39637 0.05294 0.73473 0.0
Li443 Li 0.36319 0.04707 0.70967 0.0
C444 C 0.40236 0.0844 0.80003 0.0
N445 N 0.40937 0.10993 0.85559 0.0
C446 C 0.38953 0.09301 0.80592 0.0
C447 C 0.41876 0.08879 0.82239 0.0
C448 C 0.39332 0.10587 0.83415 0.0
C449 C 0.42205 0.10174 0.85033 0.0
C450 C 0.33532 0.05411 0.74461 0.0
C451 C 0.30205 0.02267 0.75299 0.0
N452 N 0.29242 0.0343 0.75307 0.0
C453 C 0.32508 0.06574 0.74478 0.0
C454 C 0.32371 0.03238 0.74876 0.0
C455 C 0.30339 0.05544 0.74909 0.0
C456 C 0.38415 0.11313 0.71083 0.0
N457 N 0.39759 0.10869 0.72736 0.0
C458 C 0.42442 0.14466 0.72615 0.0
C459 C 0.41734 0.12389 0.73556 0.0
C460 C 0.41087 0.14962 0.70869 0.0
C461 C 0.39045 0.13359 0.70134 0.0
H462 H 0.36869 0.10062 0.70415 0.0
H463 H 0.42774 0.1198 0.74847 0.0
C464 C 0.35827 0.02547 0.82618 0.0
N465 N 0.35549 0.04073 0.8123 0.0
C466 C 0.34951 0.01697 0.85756 0.0
C467 C 0.33512 0.0401 0.85981 0.0
C468 C 0.34421 0.04818 0.82829 0.0
C469 C 0.33775 0.02429 0.87482 0.0
H470 H 0.36754 0.02008 0.81294 0.0
H471 H 0.34236 0.06043 0.81669 0.0
C472 C 0.4079 0.08314 0.67797 0.0
N473 N 0.43936 0.11829 0.64643 0.0
C474 C 0.40351 0.09127 0.6491 0.0
C475 C 0.42832 0.09285 0.69071 0.0
C476 C 0.41962 0.10908 0.63357 0.0
C477 C 0.444 0.11059 0.67439 0.0
C478 C 0.36646 0.01141 0.72504 0.0
C479 C 0.37398 0.01315 0.69194 0.0
C480 C 0.35782 0.99219 0.74184 0.0
C481 C 0.37268 0.99558 0.67618 0.0
C482 C 0.3568 0.97497 0.7252 0.0
N483 N 0.36419 0.97702 0.693 0.0
C484 C 0.42217 0.03908 0.76202 0.0
C485 C 0.42622 0.04494 0.70266 0.0
C486 C 0.43643 0.03188 0.76197 0.0
N487 N 0.41735 0.04534 0.73266 0.0
C488 C 0.44061 0.03792 0.70143 0.0
C489 C 0.44578 0.03112 0.73134 0.0
H490 H 0.4146 0.03932 0.78538 0.0
H491 H 0.42188 0.04978 0.67961 0.0
C492 C 0.34321 0.04788 0.65082 0.0
N493 N 0.3435 0.03443 0.67404 0.0
C494 C 0.33142 0.04026 0.62125 0.0
C495 C 0.31901 0.00503 0.6415 0.0
C496 C 0.33097 0.01337 0.67079 0.0
C497 C 0.31977 0.01857 0.61577 0.0
H498 H 0.35276 0.06456 0.65479 0.0
H499 H 0.33077 0.00298 0.69028 0.0
O500 O 0.399 0.07165 0.77271 0.0
O501 O 0.35657 0.06415 0.74039 0.0
O502 O 0.39224 0.06609 0.69423 0.0
O503 O 0.36778 0.02842 0.74133 0.0
H504 H 0.37676 0.08984 0.78897 0.0
H505 H 0.42882 0.08223 0.81819 0.0
H506 H 0.3835 0.11262 0.83901 0.0
H507 H 0.43468 0.10526 0.86785 0.0
H508 H 0.29289 0.00588 0.75623 0.0
H509 H 0.33384 0.08257 0.74166 0.0
H510 H 0.33126 0.02306 0.74883 0.0
H511 H 0.29528 0.06426 0.74929 0.0
H512 H 0.44029 0.15664 0.73218 0.0
H513 H 0.37967 0.13673 0.68734 0.0
H514 H 0.35235 0.00516 0.86855 0.0
H515 H 0.32615 0.04614 0.87228 0.0
H516 H 0.38786 0.084 0.63881 0.0
H517 H 0.43195 0.08702 0.71338 0.0
H518 H 0.41641 0.11559 0.61129 0.0
H519 H 0.45983 0.11833 0.68412 0.0
H520 H 0.38064 0.02784 0.67843 0.0
H521 H 0.35195 0.99058 0.76747 0.0
H522 H 0.37841 0.9967 0.65058 0.0
H523 H 0.35014 0.96 0.7379 0.0
H524 H 0.43968 0.02648 0.78551 0.0
H525 H 0.44759 0.0378 0.67734 0.0
H526 H 0.33246 0.05123 0.60201 0.0
H527 H 0.30994 0.9882 0.63838 0.0
Li528 Li 0.62475 0.678 0.60163 0.0
Li529 Li 0.594 0.64916 0.57761 0.0
Li530 Li 0.62275 0.67604 0.54029 0.0
Li531 Li 0.59898 0.68371 0.57474 0.0
C532 C 0.63725 0.64994 0.58361 0.0
N533 N 0.66539 0.63844 0.60693 0.0
C534 C 0.63381 0.63948 0.61456 0.0
C535 C 0.65499 0.65454 0.56448 0.0
C536 C 0.64823 0.63382 0.62594 0.0
C537 C 0.66903 0.64858 0.57671 0.0
C538 C 0.58165 0.65262 0.63794 0.0
C539 C 0.54619 0.62769 0.65413 0.0
N540 N 0.55354 0.62244 0.68189 0.0
C541 C 0.58884 0.64694 0.66662 0.0
C542 C 0.56014 0.64291 0.63164 0.0
C543 C 0.57438 0.63168 0.68854 0.0
C544 C 0.63718 0.69501 0.6656 0.0
N545 N 0.64372 0.6879 0.63916 0.0
C546 C 0.67379 0.6934 0.67044 0.0
C547 C 0.66222 0.68804 0.6404 0.0
C548 C 0.66655 0.69937 0.69883 0.0
C549 C 0.64843 0.70089 0.69584 0.0
H550 H 0.62274 0.69536 0.66356 0.0
H551 H 0.66778 0.6835 0.61851 0.0
C552 C 0.56055 0.61161 0.55256 0.0
N553 N 0.57411 0.61989 0.57899 0.0
C554 C 0.5462 0.59018 0.55137 0.0
C555 C 0.55991 0.58617 0.60477 0.0
C556 C 0.57411 0.60763 0.60474 0.0
C557 C 0.54579 0.57712 0.57769 0.0
H558 H 0.56109 0.62161 0.53207 0.0
H559 H 0.58509 0.61443 0.62534 0.0
C560 C 0.64704 0.71702 0.58199 0.0
N561 N 0.68206 0.74965 0.61171 0.0
C562 C 0.64496 0.73059 0.60429 0.0
C563 C 0.6669 0.72006 0.57465 0.0
C564 C 0.66287 0.747 0.61909 0.0
C565 C 0.68442 0.73665 0.58998 0.0
C566 C 0.57954 0.66921 0.51823 0.0
C567 C 0.58834 0.68337 0.49141 0.0
C568 C 0.55859 0.66152 0.52696 0.0
C569 C 0.576 0.68972 0.47384 0.0
C570 C 0.54679 0.66827 0.50879 0.0
N571 N 0.55567 0.68211 0.48284 0.0
C572 C 0.63238 0.66171 0.48257 0.0
C573 C 0.64976 0.69879 0.48549 0.0
C574 C 0.64118 0.66261 0.45096 0.0
N575 N 0.63671 0.67961 0.49893 0.0
C576 C 0.65895 0.70043 0.4538 0.0
C577 C 0.65444 0.68214 0.43599 0.0
H578 H 0.62191 0.64673 0.49407 0.0
H579 H 0.65271 0.71275 0.49907 0.0
C580 C 0.57163 0.69696 0.60005 0.0
N581 N 0.58667 0.70086 0.57666 0.0
C582 C 0.56529 0.71161 0.60589 0.0
C583 C 0.58953 0.73365 0.56258 0.0
C584 C 0.59531 0.71851 0.55745 0.0
C585 C 0.5748 0.73053 0.5878 0.0
H586 H 0.5654 0.68305 0.6155 0.0
H587 H 0.60747 0.7213 0.5394 0.0
O588 O 0.62329 0.65553 0.57186 0.0
O589 O 0.59555 0.66752 0.6161 0.0
O590 O 0.62967 0.70056 0.56795 0.0
O591 O 0.59151 0.66324 0.53631 0.0
H592 H 0.62044 0.63621 0.63002 0.0
H593 H 0.65796 0.66271 0.54054 0.0
H594 H 0.64585 0.62586 0.64998 0.0
H595 H 0.68284 0.65206 0.5622 0.0
H596 H 0.52953 0.61999 0.64944 0.0
H597 H 0.60539 0.65398 0.67173 0.0
H598 H 0.55428 0.64685 0.60934 0.0
H599 H 0.57974 0.6271 0.71075 0.0
H600 H 0.68786 0.69227 0.67184 0.0
H601 H 0.64231 0.70532 0.71729 0.0
H602 H 0.53587 0.58386 0.52969 0.0
H603 H 0.55999 0.5768 0.62585 0.0
H604 H 0.62966 0.72834 0.61037 0.0
H605 H 0.66871 0.70953 0.5577 0.0
H606 H 0.66151 0.75757 0.63654 0.0
H607 H 0.69989 0.73914 0.58472 0.0
H608 H 0.60456 0.68954 0.48445 0.0
H609 H 0.55158 0.65059 0.54771 0.0
H610 H 0.58262 0.70074 0.45311 0.0
H611 H 0.53059 0.66253 0.51536 0.0
H612 H 0.63754 0.64815 0.43826 0.0
H613 H 0.66895 0.71577 0.44293 0.0
H614 H 0.55413 0.70878 0.6259 0.0
H615 H 0.59714 0.74802 0.54804 0.0
Li616 Li 0.94727 0.59498 0.91876 0.0
Li617 Li 0.95364 0.62567 0.95038 0.0
Li618 Li 0.91909 0.6034 0.92559 0.0
Li619 Li 0.94895 0.62591 0.89078 0.0
C620 C 0.92036 0.57615 0.97274 0.0
N621 N 0.89341 0.53623 -0.00373 0.0
C622 C 0.91877 0.57193 0.0075 0.0
C623 C 0.9082 0.56007 0.94992 0.0
C624 C 0.90507 0.55164 0.0189 0.0
C625 C 0.89468 0.53999 0.96233 0.0
C626 C 0.99053 0.63575 0.92884 0.0
C627 C 0.02085 0.6696 0.93889 0.0
N628 N 0.02879 0.66054 0.95966 0.0
C629 C -0.00095 0.62673 0.95003 0.0
C630 C 0.00154 0.65731 0.92299 0.0
C631 C 0.0184 0.63955 0.96547 0.0
C632 C 0.95652 0.56721 0.884 0.0
N633 N 0.95427 0.57364 0.91521 0.0
C634 C 0.96333 0.55024 0.94204 0.0
C635 C 0.95763 0.56561 0.94398 0.0
C636 C 0.96588 0.54328 0.91015 0.0
C637 C 0.96234 0.55195 0.88084 0.0
H638 H 0.95408 0.57418 0.86158 0.0
H639 H 0.95606 0.57126 0.96848 0.0
C640 C 0.97099 0.66091 -0.00501 0.0
N641 N 0.96704 0.64104 0.98988 0.0
C642 C 0.97927 0.67095 0.02586 0.0
C643 C 0.97944 0.63992 0.04525 0.0
C644 C 0.97117 0.63051 0.0141 0.0
C645 C 0.9834 0.66033 0.05157 0.0
H646 H 0.9673 0.66881 0.9755 0.0
H647 H 0.96759 0.61461 0.00939 0.0
C648 C 0.91623 0.59224 0.85498 0.0
N649 N 0.89286 0.58622 0.79695 0.0
C650 C 0.90778 0.60509 0.84823 0.0
C651 C 0.91281 0.57631 0.83222 0.0
C652 C 0.89601 0.60182 0.81876 0.0
C653 C 0.90093 0.5735 0.80303 0.0
C654 C 0.93419 0.65101 0.91622 0.0
C655 C 0.91452 0.64896 0.9108 0.0
C656 C 0.95222 0.67042 0.91122 0.0
C657 C 0.91322 0.66632 0.90005 0.0
C658 C 0.95027 0.68742 0.90049 0.0
N659 N 0.93097 0.68503 0.89515 0.0
C660 C 0.88795 0.59661 0.96892 0.0
C661 C 0.87393 0.58152 0.91533 0.0
C662 C 0.86808 0.59041 0.98141 0.0
N663 N 0.89054 0.59237 0.93636 0.0
C664 C 0.8537 0.57541 0.92657 0.0
C665 C 0.85062 0.58017 0.95991 0.0
H666 H 0.90149 0.60504 0.98513 0.0
H667 H 0.8763 0.57787 0.88979 0.0
C668 C 0.97517 0.64082 0.83638 0.0
N669 N 0.95881 0.64178 0.8501 0.0
C670 C 0.98397 0.65089 0.80593 0.0
C671 C 0.95906 0.66307 0.80411 0.0
C672 C 0.95052 0.65246 0.83453 0.0
C673 C 0.976 0.6623 0.78931 0.0
H674 H 0.98115 0.63182 0.84885 0.0
H675 H 0.93714 0.6526 0.84531 0.0
O676 O 0.93366 0.596 0.96134 0.0
O677 O 0.97136 0.62355 0.91425 0.0
O678 O 0.92815 0.5954 0.88334 0.0
O679 O 0.93568 0.63418 0.92703 0.0
H680 H 0.92803 0.58424 0.02548 0.0
H681 H 0.90915 0.56301 0.92293 0.0
H682 H 0.90369 0.54815 0.04575 0.0
H683 H 0.88519 0.5274 0.94497 0.0
H684 H 0.02951 0.68633 0.93473 0.0
H685 H 0.99069 0.61006 0.95482 0.0
H686 H 0.99522 0.66448 0.9064 0.0
H687 H 0.02512 0.63282 0.98215 0.0
H688 H 0.96564 0.54385 0.9653 0.0
H689 H 0.96446 0.54732 0.85576 0.0
H690 H 0.9822 0.68673 0.0297 0.0
H691 H 0.98204 0.63102 0.06457 0.0
H692 H 0.91016 0.61735 0.86568 0.0
H693 H 0.91925 0.5662 0.83707 0.0
H694 H 0.88937 0.61166 0.81327 0.0
H695 H 0.89815 0.56123 0.78519 0.0
H696 H 0.90039 0.63409 0.91483 0.0
H697 H 0.96756 0.67228 0.91512 0.0
H698 H 0.89811 0.66493 0.89564 0.0
H699 H 0.96409 0.70249 0.89631 0.0
H700 H 0.86649 0.5939 0.00755 0.0
H701 H 0.84076 0.56765 0.909 0.0
H702 H 0.99652 0.64919 0.79509 0.0
H703 H 0.95237 0.67163 0.79225 0.0
Li704 Li 0.32803 0.95594 0.28039 0.0
Li705 Li 0.35706 0.95335 0.25544 0.0
Li706 Li 0.32765 0.95146 0.22006 0.0
Li707 Li 0.32177 0.92212 0.25632 0.0
C708 C 0.35452 0.99447 0.25956 0.0
N709 N 0.36478 0.03326 0.28545 0.0
C710 C 0.37246 0.00556 0.27947 0.0
C711 C 0.34199 0.00325 0.25236 0.0
C712 C 0.37733 0.02511 0.29245 0.0
C713 C 0.34739 0.02283 0.26581 0.0
C714 C 0.35024 0.93112 0.31521 0.0
C715 C 0.36641 0.9099 0.32227 0.0
N716 N 0.37136 0.91675 0.35483 0.0
C717 C 0.35532 0.93781 0.34882 0.0
C718 C 0.3557 0.91695 0.30189 0.0
C719 C 0.36606 0.93041 0.3684 0.0
C720 C 0.30188 0.96555 0.32081 0.0
N721 N 0.32135 0.96814 0.31688 0.0
C722 C 0.33259 0.98659 0.36927 0.0
C723 C 0.33663 0.9785 0.34023 0.0
C724 C 0.31255 0.98392 0.37445 0.0
C725 C 0.29712 0.97343 0.34958 0.0
H726 H 0.2899 0.9569 0.30214 0.0
H727 H 0.35184 0.97997 0.33667 0.0
C728 C 0.39615 0.9643 0.22731 0.0
N729 N 0.38625 0.9633 0.2569 0.0
C730 C 0.41765 0.97172 0.22702 0.0
C731 C 0.41838 0.97714 0.28762 0.0
C732 C 0.39689 0.96969 0.2867 0.0
C733 C 0.42902 0.97821 0.25749 0.0
H734 H 0.38732 0.95936 0.20392 0.0
H735 H 0.38876 0.96932 0.30971 0.0
C736 C 0.28667 0.93291 0.23637 0.0
N737 N 0.25125 0.92758 0.20342 0.0
C738 C 0.27145 0.91305 0.22525 0.0
C739 C 0.28374 0.95001 0.23108 0.0
C740 C 0.25368 0.91069 0.20857 0.0
C741 C 0.26577 0.94702 0.21425 0.0
C742 C 0.34148 0.91921 0.19693 0.0
C743 C 0.32774 0.91123 0.16942 0.0
C744 C 0.35579 0.91234 0.20267 0.0
C745 C 0.32817 0.89612 0.14859 0.0
C746 C 0.35574 0.89723 0.18127 0.0
N747 N 0.34203 0.88947 0.15492 0.0
C748 C 0.33745 0.97957 0.16758 0.0
C749 C 0.30588 0.94782 0.15727 0.0
C750 C 0.33629 0.98723 0.13589 0.0
N751 N 0.32249 0.96014 0.17754 0.0
C752 C 0.30404 0.95491 0.1253 0.0
C753 C 0.3196 0.97472 0.11412 0.0
H754 H 0.35062 0.98896 0.18397 0.0
H755 H 0.29438 0.93227 0.16541 0.0
C756 C 0.30372 0.88597 0.29603 0.0
N757 N 0.30613 0.8926 0.26329 0.0
C758 C 0.29087 0.8649 0.30391 0.0
C759 C 0.28267 0.85773 0.24432 0.0
C760 C 0.29607 0.87895 0.23749 0.0
C761 C 0.27985 0.8506 0.27795 0.0
H762 H 0.31106 0.89715 0.31629 0.0
H763 H 0.29752 0.88462 0.21186 0.0
O764 O 0.34931 0.97515 0.24707 0.0
O765 O 0.33996 0.9384 0.29551 0.0
O766 O 0.30418 0.93552 0.25272 0.0
O767 O 0.34145 0.93422 0.21732 0.0
H768 H 0.38239 -0.00094 0.28514 0.0
H769 H 0.32829 0.99506 0.2365 0.0
H770 H 0.39107 0.03379 0.30813 0.0
H771 H 0.33777 0.02976 0.26058 0.0
H772 H 0.37075 0.89895 0.31224 0.0
H773 H 0.35106 0.94862 0.35968 0.0
H774 H 0.3515 0.9113 0.27622 0.0
H775 H 0.37016 0.93553 0.39441 0.0
H776 H 0.34482 0.99409 0.38811 0.0
H777 H 0.28148 0.97104 0.3526 0.0
H778 H 0.42525 0.97218 0.20327 0.0
H779 H 0.42664 0.98235 0.31154 0.0
H780 H 0.27331 0.8996 0.22945 0.0
H781 H 0.29524 0.96544 0.23976 0.0
H782 H 0.24182 0.89542 0.19972 0.0
H783 H 0.26338 0.96014 0.20982 0.0
H784 H 0.31667 0.91642 0.16443 0.0
H785 H 0.36697 0.91874 0.22321 0.0
H786 H 0.31748 0.88968 0.1274 0.0
H787 H 0.36668 0.89174 0.18551 0.0
H788 H 0.34852 0.00266 0.12824 0.0
H789 H 0.29108 0.94471 0.109 0.0
H790 H 0.2886 0.86005 0.33024 0.0
H791 H 0.2741 0.84713 0.22375 0.0
Li792 Li 0.36604 0.32167 0.59834 0.0
Li793 Li 0.39766 0.34955 0.56798 0.0
Li794 Li 0.3667 0.3206 0.53795 0.0
Li795 Li 0.38926 0.31311 0.56839 0.0
C796 C 0.3578 0.35225 0.58219 0.0
N797 N 0.33725 0.36969 0.61563 0.0
C798 C 0.36883 0.37309 0.593 0.0
C799 C 0.33627 0.34036 0.58814 0.0
C800 C 0.35817 0.3816 0.60991 0.0
C801 C 0.32618 0.34943 0.60517 0.0
C802 C 0.40471 0.32591 0.6313 0.0
C803 C 0.43467 0.32957 0.66194 0.0
N804 N 0.42219 0.31103 0.67779 0.0
C805 C 0.39217 0.30692 0.64795 0.0
C806 C 0.42614 0.33736 0.63832 0.0
C807 C 0.4013 0.29965 0.67133 0.0
C808 C 0.33691 0.29776 0.65015 0.0
N809 N 0.35113 0.31733 0.63948 0.0
C810 C 0.34838 0.33212 0.69165 0.0
C811 C 0.35705 0.33435 0.65953 0.0
C812 C 0.33412 0.31206 0.70398 0.0
C813 C 0.32816 0.29473 0.68254 0.0
H814 H 0.33307 0.28441 0.63415 0.0
H815 H 0.36892 0.34963 0.65088 0.0
C816 C 0.42113 0.3897 0.53981 0.0
N817 N 0.41803 0.37824 0.56841 0.0
C818 C 0.4352 0.41121 0.53997 0.0
C819 C 0.44268 0.40859 0.59894 0.0
C820 C 0.42836 0.38717 0.59769 0.0
C821 C 0.44615 0.42096 0.56988 0.0
H822 H 0.41241 0.38214 0.51706 0.0
H823 H 0.42521 0.3777 0.62021 0.0
C824 C 0.3412 0.28277 0.5521 0.0
N825 N 0.30682 0.25525 0.51415 0.0
C826 C 0.34344 0.27139 0.52566 0.0
C827 C 0.32145 0.28004 0.55934 0.0
C828 C 0.32587 0.25758 0.50676 0.0
C829 C 0.30427 0.26608 0.53984 0.0
C830 C 0.41333 0.3303 0.51581 0.0
C831 C 0.4093 0.31198 0.49891 0.0
C832 C 0.43398 0.34656 0.51957 0.0
C833 C 0.42603 0.31019 0.48625 0.0
C834 C 0.45027 0.34418 0.50649 0.0
N835 N 0.44599 0.32619 0.49027 0.0
C836 C 0.33418 0.31916 0.49747 0.0
C837 C 0.35633 0.30928 0.46947 0.0
C838 C 0.32332 0.31711 0.4674 0.0
N839 N 0.3505 0.3155 0.49783 0.0
C840 C 0.34585 0.3069 0.43893 0.0
C841 C 0.32941 0.3113 0.43746 0.0
H842 H 0.32996 0.32425 0.52028 0.0
H843 H 0.36936 0.30651 0.47042 0.0
C844 C 0.38825 0.27506 0.57633 0.0
N845 N 0.40173 0.29593 0.57318 0.0
C846 C 0.3956 0.26161 0.58498 0.0
C847 C 0.43075 0.29128 0.58691 0.0
C848 C 0.4227 0.30418 0.57772 0.0
C849 C 0.41704 0.26973 0.59107 0.0
H850 H 0.37163 0.26895 0.57382 0.0
H851 H 0.43307 0.32089 0.57578 0.0
O852 O 0.36803 0.34361 0.56578 0.0
O853 O 0.39617 0.33291 0.60743 0.0
O854 O 0.35833 0.29678 0.57033 0.0
O855 O 0.39719 0.33236 0.5285 0.0
H856 H 0.38545 0.38261 0.5885 0.0
H857 H 0.32748 0.3242 0.58021 0.0
H858 H 0.36653 0.39768 0.61851 0.0
H859 H 0.30956 0.34035 0.61017 0.0
H860 H 0.45125 0.3382 0.66749 0.0
H861 H 0.37565 0.29765 0.64232 0.0
H862 H 0.43616 0.3519 0.62525 0.0
H863 H 0.39181 0.2849 0.6842 0.0
H864 H 0.3532 0.346 0.7069 0.0
H865 H 0.31753 0.27895 0.69113 0.0
H866 H 0.43709 0.42016 0.51714 0.0
H867 H 0.45091 0.41536 0.62244 0.0
H868 H 0.35862 0.27344 0.51944 0.0
H869 H 0.3194 0.28871 0.57961 0.0
H870 H 0.32741 0.2488 0.48609 0.0
H871 H 0.28891 0.2639 0.54507 0.0
H872 H 0.39348 0.2991 0.49614 0.0
H873 H 0.43745 0.36082 0.53263 0.0
H874 H 0.42313 0.29604 0.47336 0.0
H875 H 0.46632 0.35662 0.50933 0.0
H876 H 0.31091 0.3209 0.46732 0.0
H877 H 0.35086 0.3021 0.41653 0.0
H878 H 0.38445 0.24516 0.58876 0.0
H879 H 0.44736 0.29811 0.59161 0.0
Li880 Li 0.03988 0.39094 0.915 0.0
Li881 Li 0.03843 0.36061 0.94418 0.0
Li882 Li 0.07269 0.39026 0.92331 0.0
Li883 Li 0.04657 0.36503 0.88479 0.0
C884 C 0.05536 0.40466 0.98213 0.0
N885 N 0.05944 0.43341 0.03088 0.0
C886 C 0.04238 0.39817 0.01067 0.0
C887 C 0.07066 0.42573 0.97873 0.0
C888 C 0.04461 0.41295 0.03493 0.0
C889 C 0.07242 0.44004 0.00355 0.0
C890 C 0.00034 0.34654 0.91635 0.0
C891 C 0.97317 0.31103 0.92743 0.0
N892 N 0.96 0.31812 0.93637 0.0
C893 C 0.98648 0.35345 0.92538 0.0
C894 C 0.99359 0.32514 0.91711 0.0
C895 C 0.96617 0.33884 0.93552 0.0
C896 C 0.02787 0.41686 0.88103 0.0
N897 N 0.02794 0.40855 0.91178 0.0
C898 C 0.01176 0.42619 0.93756 0.0
C899 C 0.01975 0.41263 0.93966 0.0
C900 C 0.0119 0.43543 0.9063 0.0
C901 C 0.01993 0.43044 0.8777 0.0
H902 H 0.03416 0.41306 0.85913 0.0
H903 H 0.01933 0.40533 0.96356 0.0
C904 C 0.03781 0.33307 0.99343 0.0
N905 N 0.02674 0.34186 0.98118 0.0
C906 C 0.03203 0.32202 0.02396 0.0
C907 C 0.00292 0.32833 0.02766 0.0
C908 C 0.00942 0.33948 -0.00266 0.0
C909 C 0.01466 0.31999 0.04179 0.0
H910 H 0.05177 0.33558 0.98042 0.0
H911 H 0.00136 0.34727 0.98786 0.0
C912 C 0.07689 0.41498 0.86774 0.0
N913 N 0.10688 0.45301 0.84133 0.0
C914 C 0.08855 0.41564 0.83935 0.0
C915 C 0.08026 0.43368 0.88233 0.0
C916 C 0.10371 0.43501 0.82649 0.0
C917 C 0.09554 0.45274 0.86872 0.0
C918 C 0.06609 0.34552 0.90623 0.0
C919 C 0.08579 0.3522 0.89206 0.0
C920 C 0.05077 0.32436 0.90474 0.0
C921 C 0.08974 0.33761 0.87612 0.0
C922 C 0.05532 0.31026 0.88855 0.0
N923 N 0.07454 0.31712 0.87466 0.0
C924 C 0.1057 0.40853 0.96881 0.0
C925 C 0.11692 0.41166 0.91171 0.0
C926 C 0.12617 0.41697 0.98039 0.0
N927 N 0.10143 0.40584 0.93506 0.0
C928 C 0.13767 0.41993 0.92221 0.0
C929 C 0.14241 0.42212 0.95706 0.0
H930 H 0.09307 0.40321 0.98692 0.0
H931 H 0.11307 0.40872 0.88511 0.0
C932 C 0.02223 0.33711 0.83394 0.0
N933 N 0.04233 0.35048 0.84324 0.0
C934 C 0.01783 0.32719 0.80253 0.0
C935 C 0.05496 0.34461 0.79096 0.0
C936 C 0.05865 0.35415 0.82279 0.0
C937 C 0.03428 0.33121 0.78029 0.0
H938 H 0.00954 0.33473 0.85036 0.0
H939 H 0.07449 0.36488 0.83081 0.0
O940 O 0.05338 0.39034 0.95814 0.0
O941 O 0.02029 0.36063 0.90634 0.0
O942 O 0.06199 0.39612 0.88067 0.0
O943 O 0.06181 0.35961 0.9215 0.0
H944 H 0.03059 0.38193 0.01395 0.0
H945 H 0.08131 0.43096 0.95747 0.0
H946 H 0.03455 0.40815 0.057 0.0
H947 H 0.08417 0.45639 0.00118 0.0
H948 H 0.96779 0.29444 0.92832 0.0
H949 H 0.99132 0.3699 0.92458 0.0
H950 H 0.00403 0.31949 0.90996 0.0
H951 H 0.95531 0.34399 0.94271 0.0
H952 H 0.00588 0.42965 0.96035 0.0
H953 H 0.02001 0.43688 0.85298 0.0
H954 H 0.04153 0.31593 0.03427 0.0
H955 H 0.98975 0.32755 0.04111 0.0
H956 H 0.08602 0.40135 0.82747 0.0
H957 H 0.07106 0.43353 0.90373 0.0
H958 H 0.11293 0.43572 0.80467 0.0
H959 H 0.09833 0.46732 0.87984 0.0
H960 H 0.09783 0.36849 0.89308 0.0
H961 H 0.03554 0.3189 0.91594 0.0
H962 H 0.10488 0.34259 0.86484 0.0
H963 H 0.04357 0.29385 0.88705 0.0
H964 H 0.12913 0.41856 0.00745 0.0
H965 H 0.14963 0.42332 0.90337 0.0
H966 H 0.00164 0.31736 0.79503 0.0
H967 H 0.06807 0.3481 0.77453 0.0
Li968 Li 0.65566 0.05313 0.25371 0.0
Li969 Li 0.68315 0.04916 0.27931 0.0
Li970 Li 0.69134 0.0808 0.24985 0.0
Li971 Li 0.68023 0.04921 0.21917 0.0
C972 C 0.66945 0.08386 0.30427 0.0
N973 N 0.65991 0.11289 0.33021 0.0
C974 C 0.67344 0.08978 0.33834 0.0
C975 C 0.66059 0.09269 0.28338 0.0
C976 C 0.66851 0.10449 0.35098 0.0
C977 C 0.65588 0.10734 0.29697 0.0
C978 C 0.64475 0.01271 0.27071 0.0
C979 C 0.61841 0.97645 0.27814 0.0
N980 N 0.6147 0.98084 0.31004 0.0
C981 C 0.64066 0.01685 0.30358 0.0
C982 C 0.63355 0.99235 0.25787 0.0
C983 C 0.62542 0.00053 0.32306 0.0
C984 C 0.61605 0.03942 0.22694 0.0
N985 N 0.62705 0.04559 0.25641 0.0
C986 C 0.59637 0.03866 0.28722 0.0
C987 C 0.61772 0.04536 0.28628 0.0
C988 C 0.58455 0.03199 0.25719 0.0
C989 C 0.59467 0.03252 0.22673 0.0
H990 H 0.62392 0.03966 0.20364 0.0
H991 H 0.62676 0.05005 0.30947 0.0
C992 C 0.70176 0.05383 0.34176 0.0
N993 N 0.69101 0.03924 0.31756 0.0
C994 C 0.70607 0.04785 0.37288 0.0
C995 C 0.68912 0.01207 0.35284 0.0
C996 C 0.68526 0.01878 0.32197 0.0
C997 C 0.69913 0.02663 0.37906 0.0
H998 H 0.70621 0.07 0.33731 0.0
H999 H 0.67693 0.00754 0.3021 0.0
C1000 C 0.67869 0.08076 0.18366 0.0
N1001 N 0.69533 0.10296 0.12442 0.0
C1002 C 0.70004 0.08952 0.17678 0.0
C1003 C 0.66582 0.08331 0.16044 0.0
C1004 C 0.70814 0.10068 0.14668 0.0
C1005 C 0.67453 0.09458 0.13062 0.0
C1006 C 0.71775 0.05483 0.24419 0.0
C1007 C 0.73958 0.06675 0.24333 0.0
C1008 C 0.70794 0.033 0.24255 0.0
C1009 C 0.75125 0.05662 0.24095 0.0
C1010 C 0.72016 0.02346 0.24019 0.0
N1011 N 0.74138 0.03537 0.23945 0.0
C1012 C 0.7283 0.11538 0.26745 0.0
C1013 C 0.70474 0.12466 0.24265 0.0
C1014 C 0.74264 0.13628 0.27404 0.0
N1015 N 0.70976 0.11 0.25231 0.0
C1016 C 0.71856 0.14586 0.24931 0.0
C1017 C 0.73772 0.15178 0.26539 0.0
H1018 H 0.73164 0.10332 0.27535 0.0
H1019 H 0.68982 0.11988 0.2307 0.0
C1020 C 0.66413 0.02076 0.16666 0.0
N1021 N 0.68231 0.03702 0.17836 0.0
C1022 C 0.6638 0.01106 0.13619 0.0
C1023 C 0.70102 0.03489 0.13056 0.0
C1024 C 0.70062 0.04417 0.16122 0.0
C1025 C 0.68238 0.01819 0.11759 0.0
H1026 H 0.64981 0.01561 0.18079 0.0
H1027 H 0.71485 0.0572 0.17111 0.0
O1028 O 0.67439 0.0696 0.29161 0.0
O1029 O 0.65954 0.02837 0.25092 0.0
O1030 O 0.67023 0.06964 0.21283 0.0
O1031 O 0.70622 0.06467 0.24646 0.0
H1032 H 0.68029 0.08308 0.35485 0.0
H1033 H 0.65742 0.08834 0.25694 0.0
H1034 H 0.67153 0.10922 0.3773 0.0
H1035 H 0.64904 0.11431 0.28108 0.0
H1036 H 0.60962 0.96063 0.26851 0.0
H1037 H 0.64919 0.03244 0.3141 0.0
H1038 H 0.63653 0.98888 0.23248 0.0
H1039 H 0.62212 0.00352 0.34853 0.0
H1040 H 0.58909 0.03824 0.31129 0.0
H1041 H 0.58615 0.0277 0.20299 0.0
H1042 H 0.7136 0.05952 0.39257 0.0
H1043 H 0.68365 0.99558 0.35664 0.0
H1044 H 0.71028 0.08776 0.19437 0.0
H1045 H 0.64926 0.07661 0.16541 0.0
H1046 H 0.72463 0.10752 0.14102 0.0
H1047 H 0.66474 0.09666 0.11241 0.0
H1048 H 0.74743 0.08366 0.24444 0.0
H1049 H 0.69109 0.02346 0.24293 0.0
H1050 H 0.76817 0.06566 0.24027 0.0
H1051 H 0.71276 0.00659 0.2389 0.0
H1052 H 0.75708 0.1402 0.28705 0.0
H1053 H 0.71428 0.15743 0.24238 0.0
H1054 H 0.64901 0.99854 0.12679 0.0
H1055 H 0.71568 0.04081 0.11705 0.0
C1056 C 0.29278 0.34111 0.26879 0.0
C1057 C 0.28969 0.32717 0.24229 0.0
C1058 C 0.29514 0.33629 0.30232 0.0
C1059 C 0.29442 0.31712 0.30936 0.0
C1060 C 0.28925 0.30216 0.28324 0.0
C1061 C 0.28694 0.30738 0.24994 0.0
C1062 C 0.30046 0.35261 0.32952 0.0
C1063 C 0.28809 0.28144 0.28979 0.0
C1064 C 0.33282 0.32048 0.37605 0.0
C1065 C 0.31991 0.31154 0.4044 0.0
C1066 C 0.32456 0.32199 0.34493 0.0
C1067 C 0.30281 0.31447 0.34204 0.0
C1068 C 0.28958 0.30515 0.37037 0.0
C1069 C 0.29831 0.30382 0.40132 0.0
C1070 C 0.33924 0.33207 0.31531 0.0
C1071 C 0.26634 0.29693 0.3681 0.0
H1072 H 0.29499 0.35646 0.26306 0.0
H1073 H 0.28414 0.2964 0.22957 0.0
H1074 H 0.29172 0.34533 0.3532 0.0
H1075 H 0.31741 0.36017 0.33551 0.0
H1076 H 0.29695 0.36495 0.32137 0.0
H1077 H 0.28027 0.27021 0.26866 0.0
H1078 H 0.30417 0.28401 0.29262 0.0
H1079 H 0.27955 0.27432 0.31369 0.0
H1080 H 0.34956 0.32686 0.3784 0.0
H1081 H 0.28825 0.29676 0.42312 0.0
H1082 H 0.3389 0.3463 0.30717 0.0
H1083 H 0.3341 0.32117 0.29341 0.0
H1084 H 0.35565 0.3366 0.32159 0.0
H1085 H 0.26342 0.31002 0.36273 0.0
H1086 H 0.25805 0.28908 0.39189 0.0
H1087 H 0.2595 0.28565 0.34682 0.0
C1088 C 0.99743 0.29899 0.58632 0.0
C1089 C 0.98299 0.30602 0.58314 0.0
C1090 C 0.00716 0.30018 0.61753 0.0
C1091 C 0.00237 0.30868 0.64601 0.0
C1092 C 0.98728 0.31511 0.64318 0.0
C1093 C 0.97782 0.31372 0.6118 0.0
C1094 C 0.02305 0.29302 0.61974 0.0
C1095 C 0.98171 0.32427 0.673 0.0
C1096 C 0.01304 0.30323 0.73795 0.0
C1097 C 0.02947 0.3235 0.74489 0.0
C1098 C 0.00515 0.29741 0.70494 0.0
C1099 C 0.01388 0.31227 0.67845 0.0
C1100 C 0.03172 0.33206 0.68477 0.0
C1101 C 0.03932 0.33745 0.71798 0.0
C1102 C 0.98633 0.27603 0.69909 0.0
C1103 C 0.04156 0.34831 0.65714 0.0
H1104 H 0.00132 0.29281 0.56428 0.0
H1105 H 0.96696 0.31951 0.60944 0.0
H1106 H 0.03889 0.30679 0.62337 0.0
H1107 H 0.01979 0.28261 0.64196 0.0
H1108 H 0.02322 0.28459 0.59649 0.0
H1109 H 0.96894 0.32758 0.66693 0.0
H1110 H 0.97674 0.31336 0.69488 0.0
H1111 H 0.99567 0.33909 0.68108 0.0
H1112 H 0.00564 0.29229 0.75865 0.0
H1113 H 0.05196 0.35317 0.72318 0.0
H1114 H 0.98796 0.26911 0.67511 0.0
H1115 H 0.97213 0.27751 0.6968 0.0
H1116 H 0.98391 0.26514 0.72031 0.0
H1117 H 0.04364 0.34126 0.63366 0.0
H1118 H 0.05701 0.36157 0.66491 0.0
H1119 H 0.03107 0.35459 0.65095 0.0
C1120 C 0.64468 0.98012 0.93537 0.0
C1121 C 0.65518 0.97272 0.91509 0.0
C1122 C 0.65087 0.98637 0.96887 0.0
C1123 C 0.66806 0.98524 0.98241 0.0
C1124 C 0.67851 0.97739 0.9623 0.0
C1125 C 0.67185 0.9711 0.92878 0.0
C1126 C 0.63916 0.99443 0.98963 0.0
C1127 C 0.69693 0.97607 0.97595 0.0
C1128 C 0.69224 0.02234 0.05624 0.0
C1129 C 0.6818 0.00915 0.08373 0.0
C1130 C 0.68913 0.01443 0.02311 0.0
C1131 C 0.67517 0.99287 0.01742 0.0
C1132 C 0.66576 0.97925 0.04528 0.0
C1133 C 0.66922 0.98756 0.07816 0.0
C1134 C 0.69956 0.02944 -0.00597 0.0
C1135 C 0.65085 0.95614 0.04024 0.0
H1136 H 0.63154 0.981 0.92494 0.0
H1137 H 0.67999 0.96541 0.913 0.0
H1138 H 0.6331 0.98511 0.01323 0.0
H1139 H 0.64992 0.0109 -0.00279 0.0
H1140 H 0.6258 0.99376 0.97553 0.0
H1141 H 0.70263 0.96857 0.95768 0.0
H1142 H 0.70996 0.99203 0.98179 0.0
H1143 H 0.69263 0.96706 -0.0 0.0
H1144 H 0.70188 0.03906 0.06031 0.0
H1145 H 0.66146 0.97725 0.09944 0.0
H1146 H 0.68772 0.03164 0.98012 0.0
H1147 H 0.70636 0.02301 0.97581 0.0
H1148 H 0.71214 0.04499 0.00287 0.0
H1149 H 0.63598 0.95382 0.02926 0.0
H1150 H 0.64724 0.94729 0.06445 0.0
H1151 H 0.65743 0.94944 0.02211 0.0
C1152 C 0.6865 0.68953 0.24126 0.0
C1153 C 0.69088 0.67348 0.23419 0.0
C1154 C 0.68415 0.69438 0.27477 0.0
C1155 C 0.68618 0.68283 0.30171 0.0
C1156 C 0.69246 0.66794 0.29483 0.0
C1157 C 0.69474 0.66343 0.26108 0.0
C1158 C 0.67772 0.71056 0.28109 0.0
C1159 C 0.69488 0.65536 0.32287 0.0
C1160 C 0.68379 0.69715 0.39364 0.0
C1161 C 0.66273 0.68319 0.4014 0.0
C1162 C 0.69173 0.6975 0.36109 0.0
C1163 C 0.67824 0.68361 0.33594 0.0
C1164 C 0.65689 0.66982 0.34353 0.0
C1165 C 0.64942 0.66982 0.37611 0.0
C1166 C 0.71456 0.71241 0.35381 0.0
C1167 C 0.64193 0.65484 0.31732 0.0
H1168 H 0.6839 0.69761 0.2205 0.0
H1169 H 0.69805 0.65095 0.25578 0.0
H1170 H 0.66083 0.70256 0.28757 0.0
H1171 H 0.68647 0.72073 0.30286 0.0
H1172 H 0.68034 0.72056 0.25846 0.0
H1173 H 0.70298 0.64695 0.314 0.0
H1174 H 0.70377 0.6656 0.34448 0.0
H1175 H 0.67918 0.64362 0.33244 0.0
H1176 H 0.69414 0.70745 0.41322 0.0
H1177 H 0.63304 0.65931 0.38183 0.0
H1178 H 0.71623 0.72192 0.33098 0.0
H1179 H 0.72259 0.70342 0.34829 0.0
H1180 H 0.72264 0.72312 0.37543 0.0
H1181 H 0.64155 0.66364 0.29476 0.0
H1182 H 0.62574 0.64536 0.32725 0.0
H1183 H 0.64736 0.64403 0.30873 0.0
C1184 C 0.97125 0.67107 0.72954 0.0
C1185 C 0.98459 0.67196 0.75572 0.0
C1186 C 0.97868 0.67673 0.69624 0.0
C1187 C -0.00026 0.68284 0.68888 0.0
C1188 C 0.01363 0.68537 0.71558 0.0
C1189 C 0.00595 0.68023 0.74875 0.0
C1190 C 0.9636 0.67465 0.66859 0.0
C1191 C 0.03618 0.69168 0.70881 0.0
C1192 C 0.01089 0.66471 0.60588 0.0
C1193 C 0.02249 0.68359 0.58814 0.0
C1194 C 0.00316 0.66431 0.63842 0.0
C1195 C 0.0064 0.68317 0.65326 0.0
C1196 C 0.01698 0.70213 0.63485 0.0
C1197 C 0.02521 0.70219 0.60267 0.0
C1198 C 0.99211 0.64374 0.65732 0.0
C1199 C 0.02011 0.72242 0.64943 0.0
H1200 H 0.95474 0.66478 0.73451 0.0
H1201 H 0.01654 0.68171 0.76901 0.0
H1202 H 0.97116 0.6879 0.65046 0.0
H1203 H 0.95871 0.66001 0.65416 0.0
H1204 H 0.94934 0.67407 0.67908 0.0
H1205 H 0.0454 0.69494 0.73258 0.0
H1206 H 0.03678 0.67886 0.69505 0.0
H1207 H 0.04375 0.70578 0.69247 0.0
H1208 H 0.00798 0.65013 0.5945 0.0
H1209 H 0.03418 0.71689 0.58933 0.0
H1210 H 0.97604 0.63999 0.6642 0.0
H1211 H 0.00056 0.64495 0.68129 0.0
H1212 H 0.99107 0.63053 0.64222 0.0
H1213 H 0.00543 0.7201 0.66115 0.0
H1214 H 0.02528 0.73486 0.62984 0.0
H1215 H 0.03218 0.72796 0.66964 0.0
C1216 C 0.30109 0.97997 0.06495 0.0
C1217 C 0.31938 0.98179 0.07909 0.0
C1218 C 0.30099 0.98661 0.03158 0.0
C1219 C 0.31953 0.995 0.01203 0.0
C1220 C 0.33798 0.99678 0.02623 0.0
C1221 C 0.33767 0.99019 0.05959 0.0
C1222 C 0.28112 0.98468 0.01726 0.0
C1223 C 0.35803 0.00543 0.00607 0.0
C1224 C 0.3209 0.9948 0.91634 0.0
C1225 C 0.32943 0.01616 0.90912 0.0
C1226 C 0.31616 0.98738 0.94971 0.0
C1227 C 0.31991 0.00165 0.97641 0.0
C1228 C 0.32694 0.02293 0.969 0.0
C1229 C 0.3317 0.02996 0.93539 0.0
C1230 C 0.30863 0.96455 0.95657 0.0
C1231 C 0.33093 0.03857 -0.0032 0.0
H1232 H 0.28697 0.97356 0.08013 0.0
H1233 H 0.35173 0.99128 0.07029 0.0
H1234 H 0.28396 0.00027 0.00897 0.0
H1235 H 0.27614 0.97443 -0.00545 0.0
H1236 H 0.26813 0.97814 0.03598 0.0
H1237 H 0.37101 0.00582 0.02098 0.0
H1238 H 0.35544 0.99575 0.98308 0.0
H1239 H 0.36298 0.02157 -0.00256 0.0
H1240 H 0.31868 0.984 0.89598 0.0
H1241 H 0.33835 0.0465 0.93002 0.0
H1242 H 0.29515 0.95793 0.97427 0.0
H1243 H 0.32136 0.96305 0.96884 0.0
H1244 H 0.30393 0.95507 0.93294 0.0
H1245 H 0.31777 0.03217 0.01514 0.0
H1246 H 0.33317 0.05359 0.98659 0.0
H1247 H 0.34525 0.04184 0.01098 0.0
C1248 C 0.18168 0.44208 0.95251 0.0
C1249 C 0.16348 0.42711 0.96911 0.0
C1250 C 0.20138 0.44494 0.96147 0.0
C1251 C 0.20279 0.43245 0.98745 0.0
C1252 C 0.18461 0.41807 0.00535 0.0
C1253 C 0.1652 0.41554 -0.0041 0.0
C1254 C 0.22049 0.46054 0.94205 0.0
C1255 C 0.18542 0.40438 0.03316 0.0
C1256 C 0.24299 0.4151 0.98569 0.0
C1257 C 0.25617 0.42655 0.01267 0.0
C1258 C 0.22633 0.41789 0.97586 0.0
C1259 C 0.22263 0.43241 -0.00645 0.0
C1260 C 0.23648 0.44483 0.01964 0.0
C1261 C 0.2531 0.44172 0.02897 0.0
C1262 C 0.21188 0.40427 0.94794 0.0
C1263 C 0.2331 0.46059 0.03886 0.0
H1264 H 0.18047 0.45123 0.93204 0.0
H1265 H 0.15122 0.40368 0.00849 0.0
H1266 H 0.23349 0.47027 0.95971 0.0
H1267 H 0.22589 0.45207 0.92537 0.0
H1268 H 0.21726 0.471 0.92602 0.0
H1269 H 0.17021 0.39537 0.04655 0.0
H1270 H 0.18964 0.39314 0.02214 0.0
H1271 H 0.19763 0.41402 0.05204 0.0
H1272 H 0.24502 0.40312 0.97328 0.0
H1273 H 0.2634 0.45081 0.04954 0.0
H1274 H 0.20933 0.41395 0.9291 0.0
H1275 H 0.1964 0.39302 0.95888 0.0
H1276 H 0.21809 0.39528 0.93453 0.0
H1277 H 0.2299 0.47032 0.02108 0.0
H1278 H 0.24681 0.47103 0.05485 0.0
H1279 H 0.21922 0.45224 0.05555 0.0
C1280 C 0.81911 0.23671 0.37956 0.0
C1281 C 0.83134 0.2572 0.36753 0.0
C1282 C 0.80156 0.22196 0.36151 0.0
C1283 C 0.79608 0.2279 0.33071 0.0
C1284 C 0.80726 0.24904 0.32002 0.0
C1285 C 0.82487 0.2635 0.33858 0.0
C1286 C 0.78994 0.19961 0.37402 0.0
C1287 C 0.80167 0.25606 0.28768 0.0
C1288 C 0.77365 0.18249 0.26976 0.0
C1289 C 0.75216 0.17368 0.27558 0.0
C1290 C 0.78812 0.20119 0.28555 0.0
C1291 C 0.78087 0.21131 0.30772 0.0
C1292 C 0.75911 0.20348 0.31129 0.0
C1293 C 0.74494 0.18466 0.29514 0.0
C1294 C 0.8112 0.20913 0.28071 0.0
C1295 C 0.75079 0.21401 0.33425 0.0
H1296 H 0.82393 0.23194 0.40228 0.0
H1297 H 0.83433 0.27935 0.32917 0.0
H1298 H 0.77283 0.19356 0.37403 0.0
H1299 H 0.79297 0.18957 0.35668 0.0
H1300 H 0.79481 0.19805 0.40003 0.0
H1301 H 0.80881 0.27335 0.28666 0.0
H1302 H 0.80745 0.25105 0.26565 0.0
H1303 H 0.78445 0.24876 0.28498 0.0
H1304 H 0.77919 0.17412 0.25421 0.0
H1305 H 0.7283 0.17784 0.2997 0.0
H1306 H 0.81789 0.20692 0.30455 0.0
H1307 H 0.81963 0.22611 0.2749 0.0
H1308 H 0.81421 0.20078 0.25996 0.0
H1309 H 0.75206 0.21015 0.36103 0.0
H1310 H 0.73409 0.20872 0.32884 0.0
H1311 H 0.76007 0.23128 0.33158 0.0
C1312 C 0.56542 0.83095 0.63522 0.0
C1313 C 0.56792 0.83387 0.6704 0.0
C1314 C 0.56302 0.81267 0.6201 0.0
C1315 C 0.56347 0.79719 0.64069 0.0
C1316 C 0.56457 0.79947 0.67644 0.0
C1317 C 0.56667 0.8178 0.69092 0.0
C1318 C 0.56147 0.81063 0.58196 0.0
C1319 C 0.56525 0.78338 0.69925 0.0
C1320 C 0.55122 0.74434 0.6051 0.0
C1321 C 0.57139 0.74787 0.59827 0.0
C1322 C 0.54824 0.76041 0.61806 0.0
C1323 C 0.56588 0.78027 0.62479 0.0
C1324 C 0.58623 0.78397 0.61734 0.0
C1325 C 0.58871 0.76776 0.60404 0.0
C1326 C 0.52633 0.75604 0.6252 0.0
C1327 C 0.60548 0.80489 0.62443 0.0
H1328 H 0.56615 0.84333 0.61942 0.0
H1329 H 0.56871 0.82013 0.71812 0.0
H1330 H 0.57653 0.81314 0.57156 0.0
H1331 H 0.54913 0.79468 0.57443 0.0
H1332 H 0.558 0.82224 0.57017 0.0
H1333 H 0.56359 0.78621 0.72645 0.0
H1334 H 0.55267 0.76739 0.69242 0.0
H1335 H 0.58042 0.78385 0.69582 0.0
H1336 H 0.53781 0.72897 0.60055 0.0
H1337 H 0.60434 0.77043 0.59939 0.0
H1338 H 0.52365 0.76799 0.61274 0.0
H1339 H 0.52428 0.75708 0.65287 0.0
H1340 H 0.51424 0.74029 0.61624 0.0
H1341 H 0.60448 0.8175 0.61074 0.0
H1342 H 0.62014 0.80527 0.6167 0.0
H1343 H 0.60644 0.80847 0.65194 0.0
C1344 C 0.74576 0.58087 0.98586 0.0
C1345 C 0.73496 0.57213 0.01625 0.0
C1346 C 0.76279 0.57868 0.97611 0.0
C1347 C 0.7696 0.56793 -0.00236 0.0
C1348 C 0.75826 0.55821 0.02752 0.0
C1349 C 0.74095 0.56029 0.03636 0.0
C1350 C 0.77434 0.5891 0.9438 0.0
C1351 C 0.76516 0.54673 0.05121 0.0
C1352 C 0.81132 0.55779 0.96113 0.0
C1353 C 0.82967 0.57579 0.9717 0.0
C1354 C 0.79151 0.55451 0.97038 0.0
C1355 C 0.7901 0.56946 0.99098 0.0
C1356 C 0.80853 0.58719 0.00284 0.0
C1357 C 0.82803 0.59026 0.99275 0.0
C1358 C 0.77215 0.53552 0.95701 0.0
C1359 C 0.80769 0.60345 0.02508 0.0
H1360 H 0.74165 0.59039 0.97032 0.0
H1361 H 0.73249 0.55312 0.05953 0.0
H1362 H 0.78969 0.60293 0.95017 0.0
H1363 H 0.77744 0.57823 0.92875 0.0
H1364 H 0.76548 0.59439 0.92776 0.0
H1365 H 0.75316 0.53767 0.07077 0.0
H1366 H 0.76864 0.5359 0.03686 0.0
H1367 H 0.77979 0.5582 0.06425 0.0
H1368 H 0.81241 0.54636 0.94531 0.0
H1369 H 0.842 0.60445 0.00052 0.0
H1370 H 0.76416 0.54055 0.93856 0.0
H1371 H 0.76096 0.52726 0.97792 0.0
H1372 H 0.77585 0.52435 0.94418 0.0
H1373 H 0.80121 0.61176 0.01042 0.0
H1374 H 0.82338 0.61522 0.03478 0.0
H1375 H 0.79718 0.59586 0.04705 0.0
C1376 C 0.18448 0.73798 0.33223 0.0
C1377 C 0.17653 0.7421 0.36168 0.0
C1378 C 0.20303 0.75359 0.31733 0.0
C1379 C 0.21344 0.77385 0.33184 0.0
C1380 C 0.20591 0.77778 0.36243 0.0
C1381 C 0.18762 0.76176 0.37717 0.0
C1382 C 0.21091 0.74868 0.28528 0.0
C1383 C 0.21639 0.79927 0.37844 0.0
C1384 C 0.26802 0.81695 0.30888 0.0
C1385 C 0.26353 0.82911 0.28687 0.0
C1386 C 0.25192 0.79803 0.322 0.0
C1387 C 0.2309 0.79155 0.31356 0.0
C1388 C 0.22641 0.8033 0.29003 0.0
C1389 C 0.24284 0.82187 0.27671 0.0
C1390 C 0.25733 0.78559 0.34622 0.0
C1391 C 0.20418 0.79707 0.28074 0.0
H1392 H 0.17588 0.72269 0.32041 0.0
H1393 H 0.18131 0.76495 0.39977 0.0
H1394 H 0.20816 0.75646 0.2634 0.0
H1395 H 0.22802 0.75481 0.28692 0.0
H1396 H 0.20292 0.73159 0.28017 0.0
H1397 H 0.20923 0.79941 0.40315 0.0
H1398 H 0.23328 0.80499 0.3825 0.0
H1399 H 0.21518 0.81048 0.3611 0.0
H1400 H 0.28408 0.82258 0.31658 0.0
H1401 H 0.23938 0.83142 0.25999 0.0
H1402 H 0.24846 0.7687 0.33974 0.0
H1403 H 0.25284 0.7873 0.37238 0.0
H1404 H 0.27433 0.79093 0.34601 0.0
H1405 H 0.19555 0.78057 0.27203 0.0
H1406 H 0.20345 0.80716 0.26048 0.0
H1407 H 0.19595 0.79823 0.30347 0.0
C1408 C 0.4365 0.1821 0.67778 0.0
C1409 C 0.41792 0.1711 0.69644 0.0
C1410 C 0.44136 0.20083 0.66107 0.0
C1411 C 0.42723 0.20852 0.66308 0.0
C1412 C 0.40923 0.19819 0.68388 0.0
C1413 C 0.40483 0.17963 0.70034 0.0
C1414 C 0.46085 0.21157 0.63956 0.0
C1415 C 0.39383 0.20595 0.68698 0.0
C1416 C 0.43623 0.26138 0.63491 0.0
C1417 C 0.42428 0.25582 0.60508 0.0
C1418 C 0.43905 0.24651 0.65284 0.0
C1419 C 0.42957 0.22571 0.6406 0.0
C1420 C 0.41917 0.22061 0.60886 0.0
C1421 C 0.41667 0.23577 0.59146 0.0
C1422 C 0.45057 0.25263 0.68625 0.0
C1423 C 0.409 0.19866 0.59472 0.0
H1424 H 0.44662 0.17549 0.67466 0.0
H1425 H 0.39065 0.17128 0.71525 0.0
H1426 H 0.4565 0.20812 0.61242 0.0
H1427 H 0.4688 0.22881 0.64281 0.0
H1428 H 0.47205 0.20615 0.64584 0.0
H1429 H 0.38153 0.19706 0.70622 0.0
H1430 H 0.40207 0.22276 0.69401 0.0
H1431 H 0.3861 0.20442 0.66214 0.0
H1432 H 0.4421 0.27688 0.64556 0.0
H1433 H 0.40771 0.23159 0.56809 0.0
H1434 H 0.46052 0.24538 0.68922 0.0
H1435 H 0.43907 0.24691 0.70733 0.0
H1436 H 0.46054 0.26989 0.68871 0.0
H1437 H 0.41997 0.19251 0.5958 0.0
H1438 H 0.40379 0.1979 0.56805 0.0
H1439 H 0.39515 0.18819 0.61035 0.0
C1440 C 0.30595 0.29414 0.74818 0.0
C1441 C 0.32652 0.30932 0.73959 0.0
C1442 C 0.29878 0.29195 0.78179 0.0
C1443 C 0.31237 0.30556 0.8071 0.0
C1444 C 0.33321 0.32065 0.79869 0.0
C1445 C 0.34009 0.32211 0.76524 0.0
C1446 C 0.27662 0.27536 0.79008 0.0
C1447 C 0.34821 0.3356 0.8249 0.0
C1448 C 0.29491 0.32183 0.88547 0.0
C1449 C 0.30115 0.31285 0.91092 0.0
C1450 C 0.29686 0.3182 0.85116 0.0
C1451 C 0.30492 0.305 0.84226 0.0
C1452 C 0.30927 0.29427 0.86792 0.0
C1453 C 0.30761 0.29857 0.90208 0.0
C1454 C 0.29234 0.33019 0.82464 0.0
C1455 C 0.3173 0.27959 0.85939 0.0
H1456 H 0.29531 0.28422 0.72857 0.0
H1457 H 0.3562 0.33339 0.7592 0.0
H1458 H 0.27643 0.26606 0.81235 0.0
H1459 H 0.26733 0.28287 0.79691 0.0
H1460 H 0.26883 0.26457 0.76843 0.0
H1461 H 0.3638 0.34661 0.81401 0.0
H1462 H 0.34167 0.34487 0.83627 0.0
H1463 H 0.35036 0.32673 0.84571 0.0
H1464 H 0.29008 0.33303 0.89233 0.0
H1465 H 0.31228 0.29151 0.92186 0.0
H1466 H 0.28326 0.31983 0.80329 0.0
H1467 H 0.30733 0.3428 0.81415 0.0
H1468 H 0.28351 0.33745 0.83526 0.0
H1469 H 0.30867 0.26951 0.83746 0.0
H1470 H 0.31588 0.26946 0.88126 0.0
H1471 H 0.33405 0.28883 0.85221 0.0
C1472 C 0.98706 0.32609 0.22444 0.0
C1473 C 0.9869 0.31281 0.25006 0.0
C1474 C 0.992 0.32407 0.19094 0.0
C1475 C 0.99644 0.30804 0.18253 0.0
C1476 C 0.99598 0.29431 0.208 0.0
C1477 C 0.99136 0.29696 0.2416 0.0
C1478 C 0.99244 0.33916 0.16453 0.0
C1479 C 0.00036 0.27688 0.19975 0.0
C1480 C 0.99013 0.29881 0.08822 0.0
C1481 C 0.01061 0.31232 0.07716 0.0
C1482 C 0.98553 0.29542 0.12293 0.0
C1483 C 0.00176 0.30616 0.14691 0.0
C1484 C 0.02272 0.31832 0.13577 0.0
C1485 C 0.02691 0.32117 0.10092 0.0
C1486 C 0.96304 0.28192 0.13384 0.0
C1487 C 0.04046 0.33018 0.16047 0.0
H1488 H 0.98304 0.33799 0.23043 0.0
H1489 H 0.99139 0.2867 0.26126 0.0
H1490 H 0.008 0.34736 0.15207 0.0
H1491 H 0.98065 0.33046 0.14454 0.0
H1492 H 0.98916 0.35109 0.1755 0.0
H1493 H -0.00129 0.26711 0.22227 0.0
H1494 H 0.98947 0.26667 0.17971 0.0
H1495 H 0.01646 0.28349 0.18961 0.0
H1496 H 0.97757 0.29178 0.06977 0.0
H1497 H 0.04275 0.33175 0.09243 0.0
H1498 H 0.95667 0.29208 0.1417 0.0
H1499 H 0.96189 0.27208 0.15594 0.0
H1500 H 0.95313 0.27159 0.11298 0.0
H1501 H 0.03971 0.3439 0.17028 0.0
H1502 H 0.05598 0.33592 0.14836 0.0
H1503 H 0.03914 0.32026 0.18251 0.0
C1504 C 0.68087 0.01598 0.57186 0.0
C1505 C 0.68067 -0.00093 0.58842 0.0
C1506 C 0.68789 0.02101 0.53835 0.0
C1507 C 0.69518 0.00902 0.52121 0.0
C1508 C 0.69692 0.99325 0.53884 0.0
C1509 C 0.68949 0.98834 0.57226 0.0
C1510 C 0.68587 0.03804 0.5205 0.0
C1511 C 0.7051 0.9805 0.52166 0.0
C1512 C 0.68139 0.00333 0.42819 0.0
C1513 C 0.69972 0.01959 0.41398 0.0
C1514 C 0.68016 -0.00108 0.4629 0.0
C1515 C 0.69779 0.01095 0.48384 0.0
C1516 C 0.71685 0.02632 0.46922 0.0
C1517 C 0.71755 0.03061 0.4344 0.0
C1518 C 0.65948 0.98244 0.47752 0.0
C1519 C 0.73612 0.03906 0.4906 0.0
H1520 H 0.67455 0.02464 0.58457 0.0
H1521 H 0.68939 0.97524 0.58488 0.0
H1522 H 0.70067 0.04896 0.50738 0.0
H1523 H 0.67343 0.03093 0.5009 0.0
H1524 H 0.68183 0.04718 0.53826 0.0
H1525 H 0.70943 0.97202 0.54033 0.0
H1526 H 0.69284 0.96879 0.50467 0.0
H1527 H 0.71896 0.9906 0.50579 0.0
H1528 H 0.66751 0.99494 0.41258 0.0
H1529 H 0.73181 0.04307 0.42333 0.0
H1530 H 0.653 0.99002 0.49404 0.0
H1531 H 0.66168 0.9713 0.49345 0.0
H1532 H 0.64778 0.97345 0.45749 0.0
H1533 H 0.73434 0.05098 0.50505 0.0
H1534 H 0.75047 0.04728 0.47482 0.0
H1535 H 0.73819 0.02898 0.50927 0.0
C1536 C 0.67687 0.68376 0.74528 0.0
C1537 C 0.67573 0.70091 0.73271 0.0
C1538 C 0.6805 0.68235 0.77977 0.0
C1539 C 0.68349 0.69873 0.80196 0.0
C1540 C 0.6844 0.71701 0.78875 0.0
C1541 C 0.68015 0.71775 0.75423 0.0
C1542 C 0.67917 0.66247 0.79286 0.0
C1543 C 0.68836 0.73512 0.8114 0.0
C1544 C 0.66073 0.6787 0.88878 0.0
C1545 C 0.6781 0.68057 0.90638 0.0
C1546 C 0.66252 0.68554 0.8552 0.0
C1547 C 0.68232 0.69509 0.83911 0.0
C1548 C 0.70026 0.69876 0.85765 0.0
C1549 C 0.69791 0.69121 0.89099 0.0
C1550 C 0.64294 0.68125 0.83629 0.0
C1551 C 0.72172 0.70953 0.8417 0.0
H1552 H 0.67325 0.67066 0.72865 0.0
H1553 H 0.6794 0.73107 0.74434 0.0
H1554 H 0.69279 0.66614 0.80928 0.0
H1555 H 0.66486 0.65378 0.80855 0.0
H1556 H 0.67857 0.65207 0.77198 0.0
H1557 H 0.69306 0.74961 0.79656 0.0
H1558 H 0.67388 0.73121 0.82558 0.0
H1559 H 0.70076 0.73825 0.83028 0.0
H1560 H 0.64549 0.67112 0.90085 0.0
H1561 H 0.71147 0.69274 0.90428 0.0
H1562 H 0.63998 0.67007 0.81529 0.0
H1563 H 0.64496 0.69587 0.82481 0.0
H1564 H 0.62893 0.67454 0.85295 0.0
H1565 H 0.7233 0.69843 0.82467 0.0
H1566 H 0.73431 0.71509 0.86112 0.0
H1567 H 0.72408 0.72307 0.82612 0.0
C1568 C 0.02749 0.7073 0.23648 0.0
C1569 C 0.01626 0.69051 0.25876 0.0
C1570 C 0.02166 0.70587 0.20229 0.0
C1571 C 0.00435 0.68713 0.19025 0.0
C1572 C 0.99196 0.67085 0.21327 0.0
C1573 C -0.00196 0.67277 0.24734 0.0
C1574 C 0.03496 0.72375 0.17864 0.0
C1575 C 0.97336 0.65062 0.20141 0.0
C1576 C 0.9816 0.68022 0.10177 0.0
C1577 C 0.99077 0.66986 0.08549 0.0
C1578 C 0.98665 0.687 0.1355 0.0
C1579 C 0.00103 0.68312 0.15327 0.0
C1580 C 0.0111 0.67363 0.13639 0.0
C1581 C 0.00591 0.66721 0.10266 0.0
C1582 C 0.97584 0.69733 0.15256 0.0
C1583 C 0.02663 0.66931 0.15444 0.0
H1584 H 0.04143 0.72116 0.24544 0.0
H1585 H 0.98939 0.6597 0.26443 0.0
H1586 H 0.04496 0.71964 0.16319 0.0
H1587 H 0.02502 0.72667 0.16089 0.0
H1588 H 0.04528 0.73842 0.19272 0.0
H1589 H 0.96398 0.64061 0.22295 0.0
H1590 H 0.96304 0.65378 0.185 0.0
H1591 H 0.9789 0.64173 0.18605 0.0
H1592 H 0.96979 0.68221 0.08867 0.0
H1593 H 0.01334 0.6596 0.08992 0.0
H1594 H 0.98723 0.71128 0.16716 0.0
H1595 H 0.96407 0.68623 0.17078 0.0
H1596 H 0.96774 0.70218 0.13399 0.0
H1597 H 0.03927 0.6839 0.16597 0.0
H1598 H 0.03385 0.6628 0.13716 0.0
H1599 H 0.01866 0.65796 0.17531 0.0
C1600 C 0.32261 0.00922 0.42249 0.0
C1601 C 0.30763 0.99059 0.40702 0.0
C1602 C 0.32037 0.01359 0.45627 0.0
C1603 C 0.3025 -0.00087 0.4748 0.0
C1604 C 0.28627 0.98142 0.45826 0.0
C1605 C 0.2891 0.97723 0.42454 0.0
C1606 C 0.33803 0.03274 0.47292 0.0
C1607 C 0.2667 0.966 0.47689 0.0
C1608 C 0.31608 0.9963 0.5661 0.0
C1609 C 0.31124 0.01043 0.58163 0.0
C1610 C 0.31205 0.99148 0.53162 0.0
C1611 C 0.30272 0.00084 0.51231 0.0
C1612 C 0.29622 0.01377 0.52845 0.0
C1613 C 0.30079 0.01863 0.56297 0.0
C1614 C 0.31935 0.97767 0.51537 0.0
C1615 C 0.28564 0.0235 0.50892 0.0
H1616 H 0.33668 0.01989 0.40871 0.0
H1617 H 0.2774 0.9628 0.41277 0.0
H1618 H 0.3319 0.04158 0.48691 0.0
H1619 H 0.346 0.02782 0.49161 0.0
H1620 H 0.34982 0.0434 0.45424 0.0
H1621 H 0.25391 0.95591 0.45907 0.0
H1622 H 0.27017 0.95577 0.49298 0.0
H1623 H 0.26114 0.97424 0.49381 0.0
H1624 H 0.32436 0.99011 0.58033 0.0
H1625 H 0.29685 0.02941 0.57507 0.0
H1626 H 0.33231 0.98708 0.49746 0.0
H1627 H 0.30648 0.96497 0.50059 0.0
H1628 H 0.32499 0.97049 0.53437 0.0
H1629 H 0.29753 0.03709 0.49424 0.0
H1630 H 0.27752 0.0291 0.52608 0.0
H1631 H 0.27412 0.01218 0.49059 0.0
C1632 C 0.44787 0.47529 0.06034 0.0
C1633 C 0.43918 0.45874 0.08365 0.0
C1634 C 0.46914 0.49049 0.06172 0.0
C1635 C 0.48206 0.48893 0.08675 0.0
C1636 C 0.47331 0.47239 0.11065 0.0
C1637 C 0.45189 0.45754 0.10896 0.0
C1638 C 0.47784 0.50806 0.03609 0.0
C1639 C 0.48668 0.47009 0.1374 0.0
C1640 C 0.53969 0.51559 0.06451 0.0
C1641 C 0.54776 0.53426 0.08301 0.0
C1642 C 0.51844 0.50041 0.06636 0.0
C1643 C 0.50489 0.50415 0.08685 0.0
C1644 C 0.51302 0.52283 0.10606 0.0
C1645 C 0.53444 0.53764 0.10409 0.0
C1646 C 0.5104 0.48054 0.04588 0.0
C1647 C 0.49899 0.52746 0.12784 0.0
H1648 H 0.43797 0.47635 0.04104 0.0
H1649 H 0.44518 0.44466 0.12685 0.0
H1650 H 0.4859 0.52341 0.04926 0.0
H1651 H 0.48962 0.50707 0.01993 0.0
H1652 H 0.46548 0.50762 0.01942 0.0
H1653 H 0.47733 0.45679 0.15484 0.0
H1654 H 0.49874 0.46755 0.12506 0.0
H1655 H 0.49503 0.48465 0.15258 0.0
H1656 H 0.55007 0.51288 0.04853 0.0
H1657 H 0.54067 0.55215 0.11821 0.0
H1658 H 0.49916 0.47979 0.02646 0.0
H1659 H 0.50188 0.46668 0.06256 0.0
H1660 H 0.5232 0.4795 0.03285 0.0
H1661 H 0.48735 0.52867 0.11161 0.0
H1662 H 0.50791 0.54227 0.14235 0.0
H1663 H 0.49014 0.51447 0.14598 0.0
C1664 C 0.03132 0.54537 0.39941 0.0
C1665 C 0.0245 0.55534 0.42214 0.0
C1666 C 0.0229 0.52361 0.40025 0.0
C1667 C 0.00728 0.51153 0.42442 0.0
C1668 C 0.00046 0.5215 0.44765 0.0
C1669 C 0.00916 0.5433 0.44623 0.0
C1670 C 0.03063 0.51353 0.37516 0.0
C1671 C 0.9838 0.50911 0.47372 0.0
C1672 C 0.97187 0.45383 0.40505 0.0
C1673 C 0.98093 0.44461 0.42479 0.0
C1674 C 0.98016 0.47558 0.40498 0.0
C1675 C -0.00206 0.48842 0.4251 0.0
C1676 C 0.00702 0.47921 0.44537 0.0
C1677 C -0.0016 0.45741 0.44497 0.0
C1678 C 0.97 0.48485 0.38315 0.0
C1679 C 0.02603 0.49241 0.46708 0.0
H1680 H 0.04337 0.55464 0.38103 0.0
H1681 H 0.00363 0.55088 0.46357 0.0
H1682 H 0.03696 0.50474 0.38885 0.0
H1683 H 0.01743 0.50211 0.35925 0.0
H1684 H 0.04303 0.52518 0.35824 0.0
H1685 H 0.98051 0.51928 0.49036 0.0
H1686 H 0.96907 0.49773 0.46082 0.0
H1687 H 0.98871 0.49998 0.48981 0.0
H1688 H 0.95821 0.44399 0.38974 0.0
H1689 H 0.00564 0.4504 0.45992 0.0
H1690 H 0.9814 0.49567 0.36421 0.0
H1691 H 0.96521 0.49415 0.39903 0.0
H1692 H 0.95602 0.47267 0.36947 0.0
H1693 H 0.03932 0.50329 0.45081 0.0
H1694 H 0.03087 0.48277 0.48204 0.0
H1695 H 0.02278 0.5021 0.48485 0.0
C1696 C 0.53516 0.00013 0.71509 0.0
C1697 C 0.52911 0.9809 0.73098 0.0
C1698 C 0.52173 0.00845 0.71416 0.0
C1699 C 0.50185 0.9974 0.72979 0.0
C1700 C 0.49558 0.97795 0.74575 0.0
C1701 C 0.50925 0.9699 0.74603 0.0
C1702 C 0.52892 0.02919 0.69675 0.0
C1703 C 0.4745 0.96574 0.76277 0.0
C1704 C 0.47523 0.02782 0.75652 0.0
C1705 C 0.46047 0.02284 0.73054 0.0
C1706 C 0.48881 0.01966 0.75656 0.0
C1707 C 0.48769 0.00631 0.72986 0.0
C1708 C 0.473 0.00139 0.70338 0.0
C1709 C 0.45952 0.00966 0.70409 0.0
C1710 C 0.50428 0.02525 0.78526 0.0
C1711 C 0.47141 0.98725 0.67442 0.0
H1712 H 0.55059 0.00891 0.70387 0.0
H1713 H 0.50431 0.95489 0.75792 0.0
H1714 H 0.51754 0.02745 0.6768 0.0
H1715 H 0.52959 0.0408 0.71534 0.0
H1716 H 0.5446 0.0355 0.68492 0.0
H1717 H 0.47198 0.95083 0.77397 0.0
H1718 H 0.47308 0.97531 0.78319 0.0
H1719 H 0.46184 0.96212 0.74417 0.0
H1720 H 0.47627 0.03822 0.77679 0.0
H1721 H 0.44795 0.00548 0.68419 0.0
H1722 H 0.52046 0.03304 0.7751 0.0
H1723 H 0.50158 0.01082 0.79845 0.0
H1724 H 0.50312 0.03581 0.80413 0.0
H1725 H 0.48675 0.9937 0.66146 0.0
H1726 H 0.45944 0.98532 0.65542 0.0
H1727 H 0.46732 0.97159 0.68433 0.0
C1728 C 0.53749 0.54013 0.58727 0.0
C1729 C 0.53101 0.55416 0.57662 0.0
C1730 C 0.52376 0.51844 0.58639 0.0
C1731 C 0.50313 0.51056 0.57419 0.0
C1732 C 0.49649 0.52458 0.56323 0.0
C1733 C 0.51048 0.54622 0.56474 0.0
C1734 C 0.53136 0.50395 0.59847 0.0
C1735 C 0.47461 0.51673 0.54992 0.0
C1736 C 0.47386 0.45429 0.54324 0.0
C1737 C 0.4608 0.44394 0.57095 0.0
C1738 C 0.4876 0.476 0.54385 0.0
C1739 C 0.48846 0.48761 0.57299 0.0
C1740 C 0.47541 0.47729 0.6011 0.0
C1741 C 0.46166 0.45561 0.59966 0.0
C1742 C 0.50122 0.48651 0.51332 0.0
C1743 C 0.47598 0.48914 0.6327 0.0
H1744 H 0.55342 0.54608 0.59592 0.0
H1745 H 0.50524 0.55694 0.55691 0.0
H1746 H 0.52121 0.49389 0.61932 0.0
H1747 H 0.53034 0.49343 0.57754 0.0
H1748 H 0.54778 0.5126 0.60772 0.0
H1749 H 0.47201 0.52969 0.54187 0.0
H1750 H 0.4716 0.5062 0.52794 0.0
H1751 H 0.46298 0.50745 0.56976 0.0
H1752 H 0.47353 0.44539 0.52116 0.0
H1753 H 0.45138 0.44783 0.62095 0.0
H1754 H 0.51797 0.49413 0.52062 0.0
H1755 H 0.4983 0.49896 0.50374 0.0
H1756 H 0.49835 0.4753 0.49237 0.0
H1757 H 0.49204 0.49728 0.64343 0.0
H1758 H 0.465 0.47874 0.6525 0.0
H1759 H 0.47191 0.50132 0.62631 0.0
C1760 C 0.96371 0.51143 0.88304 0.0
C1761 C 0.9725 0.52732 0.9076 0.0
C1762 C 0.96969 0.49615 0.88076 0.0
C1763 C 0.98468 0.49668 0.90377 0.0
C1764 C 0.9937 0.51271 0.92847 0.0
C1765 C 0.98758 0.52789 0.92997 0.0
C1766 C 0.95986 0.47935 0.85394 0.0
C1767 C 0.0097 0.51376 0.95351 0.0
C1768 C 0.98643 0.44711 0.92231 0.0
C1769 C 0.00412 0.45049 0.90387 0.0
C1770 C 0.9797 0.46184 0.922 0.0
C1771 C 0.99079 0.4803 0.90248 0.0
C1772 C 0.00826 0.48353 0.88297 0.0
C1773 C 0.01478 0.46864 0.88404 0.0
C1774 C 0.96103 0.45789 0.94322 0.0
C1775 C 0.02038 0.50298 0.86166 0.0
H1776 H 0.95188 0.51073 0.86592 0.0
H1777 H 0.99476 0.54032 0.94858 0.0
H1778 H 0.9722 0.4793 0.83795 0.0
H1779 H 0.95111 0.46375 0.86615 0.0
H1780 H 0.94895 0.48155 0.83729 0.0
H1781 H 0.01519 0.52724 0.97117 0.0
H1782 H 0.00291 0.49913 0.96866 0.0
H1783 H 0.02343 0.51508 0.93979 0.0
H1784 H 0.97786 0.43295 0.93719 0.0
H1785 H 0.0286 0.47152 0.87003 0.0
H1786 H 0.94907 0.4586 0.92713 0.0
H1787 H 0.96591 0.47028 0.9628 0.0
H1788 H 0.95371 0.44243 0.95611 0.0
H1789 H 0.00964 0.50499 0.84438 0.0
H1790 H 0.03272 0.50247 0.84624 0.0
H1791 H 0.0279 0.51696 0.87832 0.0
C1792 C 0.54795 0.00595 0.23983 0.0
C1793 C 0.56171 0.02417 0.25768 0.0
C1794 C 0.52632 0.99833 0.23998 0.0
C1795 C 0.51827 0.00925 0.25832 0.0
C1796 C 0.53206 0.02764 0.27644 0.0
C1797 C 0.55363 0.03485 0.27597 0.0
C1798 C 0.51208 0.97858 0.22057 0.0
C1799 C 0.52404 0.03976 0.29611 0.0
C1800 C 0.4648 0.00035 0.23287 0.0
C1801 C 0.4519 0.98624 0.25782 0.0
C1802 C 0.48646 0.00808 0.23287 0.0
C1803 C 0.4954 0.00147 0.25836 0.0
C1804 C 0.48247 0.98725 0.28365 0.0
C1805 C 0.46087 0.97984 0.28311 0.0
C1806 C 0.49977 0.02333 0.20561 0.0
C1807 C 0.49144 0.97974 0.3111 0.0
H1808 H 0.55411 0.99748 0.22605 0.0
H1809 H 0.56424 0.04905 0.28953 0.0
H1810 H 0.50042 0.96664 0.23802 0.0
H1811 H 0.50326 0.98187 0.20107 0.0
H1812 H 0.52082 0.97186 0.20782 0.0
H1813 H 0.53682 0.05371 0.30896 0.0
H1814 H 0.5157 0.04499 0.2788 0.0
H1815 H 0.51262 0.02953 0.31554 0.0
H1816 H 0.45797 0.00556 0.21354 0.0
H1817 H 0.45092 0.96876 0.30222 0.0
H1818 H 0.50792 0.01673 0.19084 0.0
H1819 H 0.51199 0.03809 0.21736 0.0
H1820 H 0.49042 0.02708 0.18784 0.0
H1821 H 0.49921 0.97168 0.29951 0.0
H1822 H 0.47927 0.96879 0.32905 0.0
H1823 H 0.50353 0.99328 0.32563 0.0
loop_
_geom_bond_atom_site_label_1
_geom_bond_atom_site_label_2
_geom_bond_distance
_geom_bond_site_symmetry_2
_ccdc_geom_bond_type
Li0 N17 1.990 . S
Li0 O60 1.956 . S
Li0 O61 1.970 . S
Li0 O62 1.961 . S
Li1 N25 1.990 . S
Li1 O60 1.970 . S
Li1 O61 1.956 . S
Li1 O63 1.961 . S
Li2 N47 1.990 . S
Li2 O60 1.961 . S
Li2 O62 1.956 . S
Li2 O63 1.970 . S
Li3 N53 1.990 1_554 S
Li3 O61 1.961 . S
Li3 O62 1.970 . S
Li3 O63 1.956 . S
C4 C6 1.348 . S
C4 C7 1.356 . S
C4 O60 1.325 . S
N5 C8 1.314 . S
N5 C9 1.279 . S
C6 C4 1.348 . S
C6 C8 1.353 . S
C6 H64 0.929 . S
C7 C4 1.356 . S
C7 C9 1.358 . S
C7 H65 0.930 . S
C8 N5 1.314 . S
C8 C6 1.353 . S
C8 H66 0.930 . S
C9 N5 1.279 . S
C9 C7 1.358 . S
C9 H67 0.930 . S
C10 C13 1.348 . S
C10 C14 1.356 . S
C10 O61 1.325 . S
C11 N12 1.279 . S
C11 C14 1.358 . S
C11 H68 0.930 . S
N12 C11 1.279 . S
N12 C15 1.314 . S
C13 C10 1.348 . S
C13 C15 1.353 . S
C13 H69 0.929 . S
C14 C10 1.356 . S
C14 C11 1.358 . S
C14 H70 0.930 . S
C15 N12 1.314 . S
C15 C13 1.353 . S
C15 H71 0.930 . S
C16 N17 1.314 . S
C16 C21 1.353 . S
C16 H22 0.930 . S
N17 Li0 1.990 . S
N17 C16 1.314 . S
N17 C19 1.279 . S
C18 C19 1.358 . S
C18 C20 1.356 . S
C18 H72 0.930 . S
C19 N17 1.279 . S
C19 C18 1.358 . S
C19 H23 0.930 . S
C20 C18 1.356 . S
C20 C21 1.348 . S
C21 C16 1.353 . S
C21 C20 1.348 . S
C21 H73 0.916 1_554 S
H22 C16 0.930 . S
H23 C19 0.930 . S
C24 N25 1.314 . S
C24 C26 1.353 . S
C24 H30 0.930 . S
N25 Li1 1.990 . S
N25 C24 1.314 . S
N25 C28 1.279 . S
C26 C24 1.353 . S
C26 C29 1.348 . S
C26 H74 0.929 . S
C27 C28 1.358 . S
C27 C29 1.356 . S
C27 H75 0.930 . S
C28 N25 1.279 . S
C28 C27 1.358 . S
C28 H31 0.930 . S
C29 C26 1.348 . S
C29 C27 1.356 . S
H30 C24 0.930 . S
H31 C28 0.930 . S
C32 C34 1.348 . S
C32 C35 1.356 . S
C32 O62 1.325 1_556 S
N33 C36 1.314 . S
N33 C37 1.279 . S
C34 C32 1.348 . S
C34 C36 1.353 . S
C34 H76 0.929 . S
C35 C32 1.356 . S
C35 C37 1.358 . S
C35 H77 0.930 1_556 S
C36 N33 1.314 . S
C36 C34 1.353 . S
C36 H78 0.930 . S
C37 N33 1.279 . S
C37 C35 1.358 . S
C37 H79 0.930 . S
C38 C39 1.348 . S
C38 C40 1.356 . S
C38 O63 1.325 . S
C39 C38 1.348 . S
C39 C41 1.353 . S
C39 H80 0.929 . S
C40 C38 1.356 . S
C40 C42 1.358 . S
C40 H81 0.930 . S
C41 C39 1.353 . S
C41 N43 1.314 . S
C41 H82 0.930 . S
C42 C40 1.358 . S
C42 N43 1.279 . S
C42 H83 0.930 . S
N43 C41 1.314 . S
N43 C42 1.279 . S
C44 C46 1.353 . S
C44 N47 1.314 . S
C44 H50 0.930 . S
C45 N47 1.279 . S
C45 C48 1.358 . S
C45 H51 0.930 . S
C46 C44 1.353 . S
C46 C49 1.348 . S
C46 H84 0.929 . S
N47 Li2 1.990 . S
N47 C44 1.314 . S
N47 C45 1.279 . S
C48 C45 1.358 . S
C48 C49 1.356 . S
C48 H85 0.930 . S
C49 C46 1.348 . S
C49 C48 1.356 . S
H50 C44 0.930 . S
H51 C45 0.930 . S
C52 N53 1.314 . S
C52 C54 1.353 . S
C52 H58 0.930 . S
N53 Li3 1.990 1_556 S
N53 C52 1.314 . S
N53 C56 1.279 . S
C54 C52 1.353 . S
C54 C57 1.348 . S
C54 H86 0.929 . S
C55 C56 1.358 . S
C55 C57 1.356 . S
C55 H87 0.930 . S
C56 N53 1.279 . S
C56 C55 1.358 . S
C56 H59 0.930 . S
C57 C54 1.348 . S
C57 C55 1.356 . S
H58 C52 0.930 . S
H59 C56 0.930 . S
O60 Li0 1.956 . S
O60 Li1 1.970 . S
O60 Li2 1.961 . S
O60 C4 1.325 . S
O61 Li0 1.970 . S
O61 Li1 1.956 . S
O61 Li3 1.961 . S
O61 C10 1.325 . S
O62 Li0 1.961 . S
O62 Li2 1.956 . S
O62 Li3 1.970 . S
O62 C32 1.325 1_554 S
O63 Li1 1.961 . S
O63 Li2 1.970 . S
O63 Li3 1.956 . S
O63 C38 1.325 . S
H64 C6 0.929 . S
H65 C7 0.930 . S
H66 C8 0.930 . S
H67 C9 0.930 . S
H68 C11 0.930 . S
H69 C13 0.929 . S
H70 C14 0.930 . S
H71 C15 0.930 . S
H72 C18 0.930 . S
H73 C21 0.916 1_556 S
H74 C26 0.929 . S
H75 C27 0.930 . S
H76 C34 0.929 . S
H77 C35 0.930 1_554 S
H78 C36 0.930 . S
H79 C37 0.930 . S
H80 C39 0.929 . S
H81 C40 0.930 . S
H82 C41 0.930 . S
H83 C42 0.930 . S
H84 C46 0.929 . S
H85 C48 0.930 . S
H86 C54 0.929 . S
H87 C55 0.930 . S
Li88 N105 1.990 . S
Li88 O148 1.956 . S
Li88 O149 1.970 . S
Li88 O150 1.961 . S
Li89 N113 1.990 . S
Li89 O148 1.970 . S
Li89 O149 1.956 . S
Li89 O151 1.961 . S
Li90 N135 1.990 . S
Li90 O148 1.961 . S
Li90 O150 1.956 . S
Li90 O151 1.970 . S
Li91 N141 1.990 . S
Li91 O149 1.961 . S
Li91 O150 1.970 . S
Li91 O151 1.956 . S
C92 C94 1.348 . S
C92 C95 1.356 . S
C92 O148 1.325 . S
N93 C96 1.314 . S
N93 C97 1.279 . S
C94 C92 1.348 . S
C94 C96 1.353 . S
C94 H152 0.929 . S
C95 C92 1.356 . S
C95 C97 1.358 . S
C95 H153 0.930 . S
C96 N93 1.314 . S
C96 C94 1.353 . S
C96 H154 0.930 . S
C97 N93 1.279 . S
C97 C95 1.358 . S
C97 H155 0.930 . S
C98 C101 1.348 . S
C98 C102 1.356 . S
C98 O149 1.325 . S
C99 N100 1.279 . S
C99 C102 1.358 . S
C99 H156 0.930 . S
N100 C99 1.279 . S
N100 C103 1.314 . S
C101 C98 1.348 . S
C101 C103 1.353 . S
C101 H157 0.929 . S
C102 C98 1.356 . S
C102 C99 1.358 . S
C102 H158 0.930 . S
C103 N100 1.314 . S
C103 C101 1.353 . S
C103 H159 0.930 . S
C104 N105 1.314 . S
C104 C109 1.353 1_655 S
C104 H110 0.930 . S
N105 Li88 1.990 . S
N105 C104 1.314 . S
N105 C107 1.279 . S
C106 C107 1.358 . S
C106 C108 1.356 . S
C106 H160 0.930 . S
C107 N105 1.279 . S
C107 C106 1.358 . S
C107 H111 0.930 . S
C108 C106 1.356 . S
C108 C109 1.348 1_655 S
C109 C104 1.353 1_455 S
C109 C108 1.348 1_455 S
C109 H161 0.929 . S
H110 C104 0.930 . S
H111 C107 0.930 . S
C112 N113 1.314 . S
C112 C114 1.353 . S
C112 H118 0.930 . S
N113 Li89 1.990 . S
N113 C112 1.314 . S
N113 C116 1.279 . S
C114 C112 1.353 . S
C114 C117 1.348 . S
C114 H162 0.929 . S
C115 C116 1.358 . S
C115 C117 1.356 . S
C115 H163 0.930 . S
C116 N113 1.279 . S
C116 C115 1.358 . S
C116 H119 0.930 . S
C117 C114 1.348 . S
C117 C115 1.356 . S
H118 C112 0.930 . S
H119 C116 0.930 . S
C120 C122 1.348 . S
C120 C123 1.356 . S
C120 O150 1.325 1_455 S
N121 C124 1.314 . S
N121 C125 1.279 . S
C122 C120 1.348 . S
C122 C124 1.353 . S
C122 H164 0.929 1_455 S
C123 C120 1.356 . S
C123 C125 1.358 . S
C123 H165 0.930 . S
C124 N121 1.314 . S
C124 C122 1.353 . S
C124 H166 0.930 . S
C125 N121 1.279 . S
C125 C123 1.358 . S
C125 H167 0.930 . S
C126 C127 1.348 . S
C126 C128 1.356 . S
C126 O151 1.325 . S
C127 C126 1.348 . S
C127 C129 1.353 . S
C127 H168 0.929 . S
C128 C126 1.356 . S
C128 C130 1.358 . S
C128 H169 0.930 . S
C129 C127 1.353 . S
C129 N131 1.314 . S
C129 H170 0.930 . S
C130 C128 1.358 . S
C130 N131 1.279 . S
C130 H171 0.930 . S
N131 C129 1.314 . S
N131 C130 1.279 . S
C132 C134 1.353 . S
C132 N135 1.314 . S
C132 H138 0.930 . S
C133 N135 1.279 1_455 S
C133 C136 1.358 . S
C133 H139 0.930 . S
C134 C132 1.353 . S
C134 C137 1.348 1_655 S
C134 H172 0.929 . S
N135 Li90 1.990 . S
N135 C132 1.314 . S
N135 C133 1.279 1_655 S
C136 C133 1.358 . S
C136 C137 1.356 . S
C136 H173 0.930 . S
C137 C134 1.348 1_455 S
C137 C136 1.356 . S
H138 C132 0.930 . S
H139 C133 0.930 . S
C140 N141 1.314 . S
C140 C142 1.353 . S
C140 H146 0.930 . S
N141 Li91 1.990 . S
N141 C140 1.314 . S
N141 C144 1.279 . S
C142 C140 1.353 . S
C142 C145 1.348 . S
C142 H174 0.929 . S
C143 C144 1.358 . S
C143 C145 1.356 . S
C143 H175 0.930 . S
C144 N141 1.279 . S
C144 C143 1.358 . S
C144 H147 0.930 . S
C145 C142 1.348 . S
C145 C143 1.356 . S
H146 C140 0.930 . S
H147 C144 0.930 . S
O148 Li88 1.956 . S
O148 Li89 1.970 . S
O148 Li90 1.961 . S
O148 C92 1.325 . S
O149 Li88 1.970 . S
O149 Li89 1.956 . S
O149 Li91 1.961 . S
O149 C98 1.325 . S
O150 Li88 1.961 . S
O150 Li90 1.956 . S
O150 Li91 1.970 . S
O150 C120 1.325 1_655 S
O151 Li89 1.961 . S
O151 Li90 1.970 . S
O151 Li91 1.956 . S
O151 C126 1.325 . S
H152 C94 0.929 . S
H153 C95 0.930 . S
H154 C96 0.930 . S
H155 C97 0.930 . S
H156 C99 0.930 . S
H157 C101 0.929 . S
H158 C102 0.930 . S
H159 C103 0.930 . S
H160 C106 0.930 . S
H161 C109 0.929 . S
H162 C114 0.929 . S
H163 C115 0.930 . S
H164 C122 0.929 1_655 S
H165 C123 0.930 . S
H166 C124 0.930 . S
H167 C125 0.930 . S
H168 C127 0.929 . S
H169 C128 0.930 . S
H170 C129 0.930 . S
H171 C130 0.930 . S
H172 C134 0.929 . S
H173 C136 0.930 . S
H174 C142 0.929 . S
H175 C143 0.930 . S
Li176 N193 1.990 . S
Li176 O236 1.956 . S
Li176 O237 1.970 . S
Li176 O238 1.961 . S
Li177 N201 1.990 . S
Li177 O236 1.970 . S
Li177 O237 1.956 . S
Li177 O239 1.961 . S
Li178 N223 1.990 . S
Li178 O236 1.961 . S
Li178 O238 1.956 . S
Li178 O239 1.970 . S
Li179 N229 1.990 . S
Li179 O237 1.961 . S
Li179 O238 1.970 . S
Li179 O239 1.956 . S
C180 C182 1.348 . S
C180 C183 1.356 . S
C180 O236 1.325 . S
N181 C184 1.314 . S
N181 C185 1.279 . S
C182 C180 1.348 . S
C182 C184 1.353 . S
C182 H240 0.929 . S
C183 C180 1.356 . S
C183 C185 1.358 . S
C183 H241 0.930 . S
C184 N181 1.314 . S
C184 C182 1.353 . S
C184 H242 0.930 . S
C185 N181 1.279 . S
C185 C183 1.358 . S
C185 H243 0.930 . S
C186 C189 1.348 . S
C186 C190 1.356 . S
C186 O237 1.325 . S
C187 N188 1.279 . S
C187 C190 1.358 . S
C187 H244 0.930 . S
N188 C187 1.279 . S
N188 C191 1.314 . S
C189 C186 1.348 . S
C189 C191 1.353 . S
C189 H245 0.929 . S
C190 C186 1.356 . S
C190 C187 1.358 . S
C190 H246 0.930 . S
C191 N188 1.314 . S
C191 C189 1.353 . S
C191 H247 0.930 . S
C192 N193 1.314 . S
C192 C197 1.353 1_565 S
C192 H198 0.930 . S
N193 Li176 1.990 . S
N193 C192 1.314 . S
N193 C195 1.279 . S
C194 C195 1.358 . S
C194 C196 1.356 . S
C194 H248 0.930 . S
C195 N193 1.279 . S
C195 C194 1.358 . S
C195 H199 0.930 . S
C196 C194 1.356 . S
C196 C197 1.348 1_565 S
C197 C192 1.353 1_545 S
C197 C196 1.348 1_545 S
C197 H249 0.929 . S
H198 C192 0.930 . S
H199 C195 0.930 . S
C200 N201 1.314 . S
C200 C202 1.353 . S
C200 H206 0.930 . S
N201 Li177 1.990 . S
N201 C200 1.314 . S
N201 C204 1.279 . S
C202 C200 1.353 . S
C202 C205 1.348 . S
C202 H250 0.929 . S
C203 C204 1.358 . S
C203 C205 1.356 . S
C203 H251 0.930 . S
C204 N201 1.279 . S
C204 C203 1.358 . S
C204 H207 0.930 . S
C205 C202 1.348 . S
C205 C203 1.356 . S
H206 C200 0.930 . S
H207 C204 0.930 . S
C208 C210 1.348 . S
C208 C211 1.356 . S
C208 O238 1.325 1_545 S
N209 C212 1.314 . S
N209 C213 1.279 . S
C210 C208 1.348 . S
C210 C212 1.353 . S
C210 H252 0.929 1_545 S
C211 C208 1.356 . S
C211 C213 1.358 . S
C211 H253 0.930 . S
C212 N209 1.314 . S
C212 C210 1.353 . S
C212 H254 0.930 . S
C213 N209 1.279 . S
C213 C211 1.358 . S
C213 H255 0.930 . S
C214 C215 1.348 . S
C214 C216 1.356 . S
C214 O239 1.325 . S
C215 C214 1.348 . S
C215 C217 1.353 . S
C215 H256 0.929 . S
C216 C214 1.356 . S
C216 C218 1.358 . S
C216 H257 0.930 . S
C217 C215 1.353 . S
C217 N219 1.314 . S
C217 H258 0.930 . S
C218 C216 1.358 . S
C218 N219 1.279 . S
C218 H259 0.930 . S
N219 C217 1.314 . S
N219 C218 1.279 . S
C220 C222 1.353 . S
C220 N223 1.314 . S
C220 H226 0.930 . S
C221 N223 1.279 1_545 S
C221 C224 1.358 . S
C221 H227 0.930 . S
C222 C220 1.353 . S
C222 C225 1.348 1_565 S
C222 H260 0.929 . S
N223 Li178 1.990 . S
N223 C220 1.314 . S
N223 C221 1.279 1_565 S
C224 C221 1.358 . S
C224 C225 1.356 . S
C224 H261 0.930 . S
C225 C222 1.348 1_545 S
C225 C224 1.356 . S
H226 C220 0.930 . S
H227 C221 0.930 . S
C228 N229 1.314 . S
C228 C230 1.353 . S
C228 H234 0.930 . S
N229 Li179 1.990 . S
N229 C228 1.314 . S
N229 C232 1.279 . S
C230 C228 1.353 . S
C230 C233 1.348 . S
C230 H262 0.929 . S
C231 C232 1.358 . S
C231 C233 1.356 . S
C231 H263 0.930 . S
C232 N229 1.279 . S
C232 C231 1.358 . S
C232 H235 0.930 . S
C233 C230 1.348 . S
C233 C231 1.356 . S
H234 C228 0.930 . S
H235 C232 0.930 . S
O236 Li176 1.956 . S
O236 Li177 1.970 . S
O236 Li178 1.961 . S
O236 C180 1.325 . S
O237 Li176 1.970 . S
O237 Li177 1.956 . S
O237 Li179 1.961 . S
O237 C186 1.325 . S
O238 Li176 1.961 . S
O238 Li178 1.956 . S
O238 Li179 1.970 . S
O238 C208 1.325 1_565 S
O239 Li177 1.961 . S
O239 Li178 1.970 . S
O239 Li179 1.956 . S
O239 C214 1.325 . S
H240 C182 0.929 . S
H241 C183 0.930 . S
H242 C184 0.930 . S
H243 C185 0.930 . S
H244 C187 0.930 . S
H245 C189 0.929 . S
H246 C190 0.930 . S
H247 C191 0.930 . S
H248 C194 0.930 . S
H249 C197 0.929 . S
H250 C202 0.929 . S
H251 C203 0.930 . S
H252 C210 0.929 1_565 S
H253 C211 0.930 . S
H254 C212 0.930 . S
H255 C213 0.930 . S
H256 C215 0.929 . S
H257 C216 0.930 . S
H258 C217 0.930 . S
H259 C218 0.930 . S
H260 C222 0.929 . S
H261 C224 0.930 . S
H262 C230 0.929 . S
H263 C231 0.930 . S
Li264 N281 1.990 . S
Li264 O324 1.956 . S
Li264 O325 1.970 . S
Li264 O326 1.961 . S
Li265 N289 1.990 . S
Li265 O324 1.970 . S
Li265 O325 1.956 . S
Li265 O327 1.961 . S
Li266 N311 1.990 1_554 S
Li266 O324 1.961 . S
Li266 O326 1.956 . S
Li266 O327 1.970 . S
Li267 N317 1.990 . S
Li267 O325 1.961 . S
Li267 O326 1.970 . S
Li267 O327 1.956 . S
C268 C270 1.348 . S
C268 C271 1.356 . S
C268 O324 1.325 . S
N269 C272 1.314 . S
N269 C273 1.279 . S
C270 C268 1.348 . S
C270 C272 1.353 . S
C270 H328 0.929 . S
C271 C268 1.356 . S
C271 C273 1.358 . S
C271 H329 0.930 . S
C272 N269 1.314 . S
C272 C270 1.353 . S
C272 H330 0.930 . S
C273 N269 1.279 . S
C273 C271 1.358 . S
C273 H331 0.930 . S
C274 C277 1.348 . S
C274 C278 1.356 . S
C274 O325 1.325 . S
C275 N276 1.279 . S
C275 C278 1.358 . S
C275 H332 0.930 . S
N276 C275 1.279 . S
N276 C279 1.314 . S
C277 C274 1.348 . S
C277 C279 1.353 . S
C277 H333 0.929 . S
C278 C274 1.356 . S
C278 C275 1.358 . S
C278 H334 0.930 . S
C279 N276 1.314 . S
C279 C277 1.353 . S
C279 H335 0.930 . S
C280 N281 1.314 . S
C280 C285 1.353 . S
C280 H286 0.930 . S
N281 Li264 1.990 . S
N281 C280 1.314 . S
N281 C283 1.279 . S
C282 C283 1.358 . S
C282 C284 1.356 . S
C282 H336 0.930 . S
C283 N281 1.279 . S
C283 C282 1.358 . S
C283 H287 0.930 . S
C284 C282 1.356 . S
C284 C285 1.348 . S
C285 C280 1.353 . S
C285 C284 1.348 . S
C285 H337 0.929 . S
H286 C280 0.930 . S
H287 C283 0.930 . S
C288 N289 1.314 . S
C288 C290 1.353 . S
C288 H294 0.930 . S
N289 Li265 1.990 . S
N289 C288 1.314 . S
N289 C292 1.279 . S
C290 C288 1.353 . S
C290 C293 1.348 . S
C290 H338 0.916 1_554 S
C291 C292 1.358 . S
C291 C293 1.356 . S
C291 H339 0.930 . S
C292 N289 1.279 . S
C292 C291 1.358 . S
C292 H295 0.930 . S
C293 C290 1.348 . S
C293 C291 1.356 . S
H294 C288 0.930 . S
H295 C292 0.930 . S
C296 C298 1.348 . S
C296 C299 1.356 . S
C296 O326 1.325 . S
N297 C300 1.314 . S
N297 C301 1.279 . S
C298 C296 1.348 . S
C298 C300 1.353 . S
C298 H340 0.929 . S
C299 C296 1.356 . S
C299 C301 1.358 . S
C299 H341 0.930 . S
C300 N297 1.314 . S
C300 C298 1.353 . S
C300 H342 0.930 . S
C301 N297 1.279 . S
C301 C299 1.358 . S
C301 H343 0.930 . S
C302 C303 1.348 . S
C302 C304 1.356 . S
C302 O327 1.325 1_556 S
C303 C302 1.348 . S
C303 C305 1.353 . S
C303 H344 0.929 . S
C304 C302 1.356 . S
C304 C306 1.358 . S
C304 H345 0.930 1_556 S
C305 C303 1.353 . S
C305 N307 1.314 . S
C305 H346 0.930 . S
C306 C304 1.358 . S
C306 N307 1.279 . S
C306 H347 0.930 . S
N307 C305 1.314 . S
N307 C306 1.279 . S
C308 C310 1.353 . S
C308 N311 1.314 . S
C308 H314 0.930 . S
C309 N311 1.279 . S
C309 C312 1.358 . S
C309 H315 0.930 . S
C310 C308 1.353 . S
C310 C313 1.348 . S
C310 H348 0.929 . S
N311 Li266 1.990 1_556 S
N311 C308 1.314 . S
N311 C309 1.279 . S
C312 C309 1.358 . S
C312 C313 1.356 . S
C312 H349 0.930 . S
C313 C310 1.348 . S
C313 C312 1.356 . S
H314 C308 0.930 . S
H315 C309 0.930 . S
C316 N317 1.314 . S
C316 C318 1.353 . S
C316 H322 0.930 . S
N317 Li267 1.990 . S
N317 C316 1.314 . S
N317 C320 1.279 . S
C318 C316 1.353 . S
C318 C321 1.348 . S
C318 H350 0.929 . S
C319 C320 1.358 . S
C319 C321 1.356 . S
C319 H351 0.930 . S
C320 N317 1.279 . S
C320 C319 1.358 . S
C320 H323 0.930 . S
C321 C318 1.348 . S
C321 C319 1.356 . S
H322 C316 0.930 . S
H323 C320 0.930 . S
O324 Li264 1.956 . S
O324 Li265 1.970 . S
O324 Li266 1.961 . S
O324 C268 1.325 . S
O325 Li264 1.970 . S
O325 Li265 1.956 . S
O325 Li267 1.961 . S
O325 C274 1.325 . S
O326 Li264 1.961 . S
O326 Li266 1.956 . S
O326 Li267 1.970 . S
O326 C296 1.325 . S
O327 Li265 1.961 . S
O327 Li266 1.970 . S
O327 Li267 1.956 . S
O327 C302 1.325 1_554 S
H328 C270 0.929 . S
H329 C271 0.930 . S
H330 C272 0.930 . S
H331 C273 0.930 . S
H332 C275 0.930 . S
H333 C277 0.929 . S
H334 C278 0.930 . S
H335 C279 0.930 . S
H336 C282 0.930 . S
H337 C285 0.929 . S
H338 C290 0.916 1_556 S
H339 C291 0.930 . S
H340 C298 0.929 . S
H341 C299 0.930 . S
H342 C300 0.930 . S
H343 C301 0.930 . S
H344 C303 0.929 . S
H345 C304 0.930 1_554 S
H346 C305 0.930 . S
H347 C306 0.930 . S
H348 C310 0.929 . S
H349 C312 0.930 . S
H350 C318 0.929 . S
H351 C319 0.930 . S
Li352 N369 1.990 . S
Li352 O412 1.956 . S
Li352 O413 1.970 . S
Li352 O414 1.961 . S
Li353 N377 1.990 . S
Li353 O412 1.970 . S
Li353 O413 1.956 . S
Li353 O415 1.961 . S
Li354 N399 1.990 . S
Li354 O412 1.961 . S
Li354 O414 1.956 . S
Li354 O415 1.970 . S
Li355 N405 1.990 . S
Li355 O413 1.961 . S
Li355 O414 1.970 . S
Li355 O415 1.956 . S
C356 C358 1.348 . S
C356 C359 1.356 . S
C356 O412 1.325 . S
N357 C360 1.314 . S
N357 C361 1.279 . S
C358 C356 1.348 . S
C358 C360 1.353 . S
C358 H416 0.929 . S
C359 C356 1.356 . S
C359 C361 1.358 . S
C359 H417 0.930 . S
C360 N357 1.314 . S
C360 C358 1.353 . S
C360 H418 0.930 . S
C361 N357 1.279 . S
C361 C359 1.358 . S
C361 H419 0.930 . S
C362 C365 1.348 . S
C362 C366 1.356 . S
C362 O413 1.325 . S
C363 N364 1.279 . S
C363 C366 1.358 . S
C363 H420 0.930 . S
N364 C363 1.279 . S
N364 C367 1.314 . S
C365 C362 1.348 . S
C365 C367 1.353 . S
C365 H421 0.929 . S
C366 C362 1.356 . S
C366 C363 1.358 . S
C366 H422 0.930 . S
C367 N364 1.314 . S
C367 C365 1.353 . S
C367 H423 0.930 . S
C368 N369 1.314 . S
C368 C373 1.353 . S
C368 H374 0.930 . S
N369 Li352 1.990 . S
N369 C368 1.314 . S
N369 C371 1.279 . S
C370 C371 1.358 . S
C370 C372 1.356 . S
C370 H424 0.930 . S
C371 N369 1.279 . S
C371 C370 1.358 . S
C371 H375 0.930 . S
C372 C370 1.356 . S
C372 C373 1.348 . S
C373 C368 1.353 . S
C373 C372 1.348 . S
C373 H425 0.929 . S
H374 C368 0.930 . S
H375 C371 0.930 . S
C376 N377 1.314 . S
C376 C378 1.353 1_455 S
C376 H382 0.930 . S
N377 Li353 1.990 . S
N377 C376 1.314 . S
N377 C380 1.279 . S
C378 C376 1.353 1_655 S
C378 C381 1.348 1_655 S
C378 H426 0.929 . S
C379 C380 1.358 . S
C379 C381 1.356 . S
C379 H427 0.930 . S
C380 N377 1.279 . S
C380 C379 1.358 . S
C380 H383 0.930 . S
C381 C378 1.348 1_455 S
C381 C379 1.356 . S
H382 C376 0.930 . S
H383 C380 0.930 . S
C384 C386 1.348 . S
C384 C387 1.356 . S
C384 O414 1.325 . S
N385 C388 1.314 . S
N385 C389 1.279 . S
C386 C384 1.348 . S
C386 C388 1.353 . S
C386 H428 0.929 . S
C387 C384 1.356 . S
C387 C389 1.358 . S
C387 H429 0.930 . S
C388 N385 1.314 . S
C388 C386 1.353 . S
C388 H430 0.930 . S
C389 N385 1.279 . S
C389 C387 1.358 . S
C389 H431 0.930 . S
C390 C391 1.348 . S
C390 C392 1.356 . S
C390 O415 1.325 1_655 S
C391 C390 1.348 . S
C391 C393 1.353 . S
C391 H432 0.929 1_655 S
C392 C390 1.356 . S
C392 C394 1.358 . S
C392 H433 0.930 . S
C393 C391 1.353 . S
C393 N395 1.314 . S
C393 H434 0.930 . S
C394 C392 1.358 . S
C394 N395 1.279 . S
C394 H435 0.930 . S
N395 C393 1.314 . S
N395 C394 1.279 . S
C396 C398 1.353 . S
C396 N399 1.314 . S
C396 H402 0.930 . S
C397 N399 1.279 . S
C397 C400 1.358 . S
C397 H403 0.930 . S
C398 C396 1.353 . S
C398 C401 1.348 . S
C398 H436 0.929 . S
N399 Li354 1.990 . S
N399 C396 1.314 . S
N399 C397 1.279 . S
C400 C397 1.358 . S
C400 C401 1.356 . S
C400 H437 0.930 . S
C401 C398 1.348 . S
C401 C400 1.356 . S
H402 C396 0.930 . S
H403 C397 0.930 . S
C404 N405 1.314 . S
C404 C406 1.353 . S
C404 H410 0.930 . S
N405 Li355 1.990 . S
N405 C404 1.314 . S
N405 C408 1.279 1_455 S
C406 C404 1.353 . S
C406 C409 1.348 1_455 S
C406 H438 0.929 . S
C407 C408 1.358 . S
C407 C409 1.356 . S
C407 H439 0.930 . S
C408 N405 1.279 1_655 S
C408 C407 1.358 . S
C408 H411 0.930 . S
C409 C406 1.348 1_655 S
C409 C407 1.356 . S
H410 C404 0.930 . S
H411 C408 0.930 . S
O412 Li352 1.956 . S
O412 Li353 1.970 . S
O412 Li354 1.961 . S
O412 C356 1.325 . S
O413 Li352 1.970 . S
O413 Li353 1.956 . S
O413 Li355 1.961 . S
O413 C362 1.325 . S
O414 Li352 1.961 . S
O414 Li354 1.956 . S
O414 Li355 1.970 . S
O414 C384 1.325 . S
O415 Li353 1.961 . S
O415 Li354 1.970 . S
O415 Li355 1.956 . S
O415 C390 1.325 1_455 S
H416 C358 0.929 . S
H417 C359 0.930 . S
H418 C360 0.930 . S
H419 C361 0.930 . S
H420 C363 0.930 . S
H421 C365 0.929 . S
H422 C366 0.930 . S
H423 C367 0.930 . S
H424 C370 0.930 . S
H425 C373 0.929 . S
H426 C378 0.929 . S
H427 C379 0.930 . S
H428 C386 0.929 . S
H429 C387 0.930 . S
H430 C388 0.930 . S
H431 C389 0.930 . S
H432 C391 0.929 1_455 S
H433 C392 0.930 . S
H434 C393 0.930 . S
H435 C394 0.930 . S
H436 C398 0.929 . S
H437 C400 0.930 . S
H438 C406 0.929 . S
H439 C407 0.930 . S
Li440 N457 1.990 . S
Li440 O500 1.956 . S
Li440 O501 1.970 . S
Li440 O502 1.961 . S
Li441 N465 1.990 . S
Li441 O500 1.970 . S
Li441 O501 1.956 . S
Li441 O503 1.961 . S
Li442 N487 1.990 . S
Li442 O500 1.961 . S
Li442 O502 1.956 . S
Li442 O503 1.970 . S
Li443 N493 1.990 . S
Li443 O501 1.961 . S
Li443 O502 1.970 . S
Li443 O503 1.956 . S
C444 C446 1.348 . S
C444 C447 1.356 . S
C444 O500 1.325 . S
N445 C448 1.314 . S
N445 C449 1.279 . S
C446 C444 1.348 . S
C446 C448 1.353 . S
C446 H504 0.929 . S
C447 C444 1.356 . S
C447 C449 1.358 . S
C447 H505 0.930 . S
C448 N445 1.314 . S
C448 C446 1.353 . S
C448 H506 0.930 . S
C449 N445 1.279 . S
C449 C447 1.358 . S
C449 H507 0.930 . S
C450 C453 1.348 . S
C450 C454 1.356 . S
C450 O501 1.325 . S
C451 N452 1.279 . S
C451 C454 1.358 . S
C451 H508 0.930 . S
N452 C451 1.279 . S
N452 C455 1.314 . S
C453 C450 1.348 . S
C453 C455 1.353 . S
C453 H509 0.929 . S
C454 C450 1.356 . S
C454 C451 1.358 . S
C454 H510 0.930 . S
C455 N452 1.314 . S
C455 C453 1.353 . S
C455 H511 0.930 . S
C456 N457 1.314 . S
C456 C461 1.353 . S
C456 H462 0.930 . S
N457 Li440 1.990 . S
N457 C456 1.314 . S
N457 C459 1.279 . S
C458 C459 1.358 . S
C458 C460 1.356 . S
C458 H512 0.930 . S
C459 N457 1.279 . S
C459 C458 1.358 . S
C459 H463 0.930 . S
C460 C458 1.356 . S
C460 C461 1.348 . S
C461 C456 1.353 . S
C461 C460 1.348 . S
C461 H513 0.929 . S
H462 C456 0.930 . S
H463 C459 0.930 . S
C464 N465 1.314 . S
C464 C466 1.353 1_545 S
C464 H470 0.930 . S
N465 Li441 1.990 . S
N465 C464 1.314 . S
N465 C468 1.279 . S
C466 C464 1.353 1_565 S
C466 C469 1.348 1_565 S
C466 H514 0.929 . S
C467 C468 1.358 . S
C467 C469 1.356 . S
C467 H515 0.930 . S
C468 N465 1.279 . S
C468 C467 1.358 . S
C468 H471 0.930 . S
C469 C466 1.348 1_545 S
C469 C467 1.356 . S
H470 C464 0.930 . S
H471 C468 0.930 . S
C472 C474 1.348 . S
C472 C475 1.356 . S
C472 O502 1.325 . S
N473 C476 1.314 . S
N473 C477 1.279 . S
C474 C472 1.348 . S
C474 C476 1.353 . S
C474 H516 0.929 . S
C475 C472 1.356 . S
C475 C477 1.358 . S
C475 H517 0.930 . S
C476 N473 1.314 . S
C476 C474 1.353 . S
C476 H518 0.930 . S
C477 N473 1.279 . S
C477 C475 1.358 . S
C477 H519 0.930 . S
C478 C479 1.348 . S
C478 C480 1.356 . S
C478 O503 1.325 1_565 S
C479 C478 1.348 . S
C479 C481 1.353 . S
C479 H520 0.929 1_565 S
C480 C478 1.356 . S
C480 C482 1.358 . S
C480 H521 0.930 . S
C481 C479 1.353 . S
C481 N483 1.314 . S
C481 H522 0.930 . S
C482 C480 1.358 . S
C482 N483 1.279 . S
C482 H523 0.930 . S
N483 C481 1.314 . S
N483 C482 1.279 . S
C484 C486 1.353 . S
C484 N487 1.314 . S
C484 H490 0.930 . S
C485 N487 1.279 . S
C485 C488 1.358 . S
C485 H491 0.930 . S
C486 C484 1.353 . S
C486 C489 1.348 . S
C486 H524 0.929 . S
N487 Li442 1.990 . S
N487 C484 1.314 . S
N487 C485 1.279 . S
C488 C485 1.358 . S
C488 C489 1.356 . S
C488 H525 0.930 . S
C489 C486 1.348 . S
C489 C488 1.356 . S
H490 C484 0.930 . S
H491 C485 0.930 . S
C492 N493 1.314 . S
C492 C494 1.353 . S
C492 H498 0.930 . S
N493 Li443 1.990 . S
N493 C492 1.314 . S
N493 C496 1.279 1_545 S
C494 C492 1.353 . S
C494 C497 1.348 1_545 S
C494 H526 0.929 . S
C495 C496 1.358 . S
C495 C497 1.356 . S
C495 H527 0.930 . S
C496 N493 1.279 1_565 S
C496 C495 1.358 . S
C496 H499 0.930 . S
C497 C494 1.348 1_565 S
C497 C495 1.356 . S
H498 C492 0.930 . S
H499 C496 0.930 . S
O500 Li440 1.956 . S
O500 Li441 1.970 . S
O500 Li442 1.961 . S
O500 C444 1.325 . S
O501 Li440 1.970 . S
O501 Li441 1.956 . S
O501 Li443 1.961 . S
O501 C450 1.325 . S
O502 Li440 1.961 . S
O502 Li442 1.956 . S
O502 Li443 1.970 . S
O502 C472 1.325 . S
O503 Li441 1.961 . S
O503 Li442 1.970 . S
O503 Li443 1.956 . S
O503 C478 1.325 1_545 S
H504 C446 0.929 . S
H505 C447 0.930 . S
H506 C448 0.930 . S
H507 C449 0.930 . S
H508 C451 0.930 . S
H509 C453 0.929 . S
H510 C454 0.930 . S
H511 C455 0.930 . S
H512 C458 0.930 . S
H513 C461 0.929 . S
H514 C466 0.929 . S
H515 C467 0.930 . S
H516 C474 0.929 . S
H517 C475 0.930 . S
H518 C476 0.930 . S
H519 C477 0.930 . S
H520 C479 0.929 1_545 S
H521 C480 0.930 . S
H522 C481 0.930 . S
H523 C482 0.930 . S
H524 C486 0.929 . S
H525 C488 0.930 . S
H526 C494 0.929 . S
H527 C495 0.930 . S
Li528 N545 1.990 . S
Li528 O588 1.956 . S
Li528 O589 1.970 . S
Li528 O590 1.961 . S
Li529 N553 1.990 . S
Li529 O588 1.970 . S
Li529 O589 1.956 . S
Li529 O591 1.961 . S
Li530 N575 1.990 . S
Li530 O588 1.961 . S
Li530 O590 1.956 . S
Li530 O591 1.970 . S
Li531 N581 1.990 . S
Li531 O589 1.961 . S
Li531 O590 1.970 . S
Li531 O591 1.956 . S
C532 C534 1.348 . S
C532 C535 1.356 . S
C532 O588 1.325 . S
N533 C536 1.314 . S
N533 C537 1.279 . S
C534 C532 1.348 . S
C534 C536 1.353 . S
C534 H592 0.929 . S
C535 C532 1.356 . S
C535 C537 1.358 . S
C535 H593 0.930 . S
C536 N533 1.314 . S
C536 C534 1.353 . S
C536 H594 0.930 . S
C537 N533 1.279 . S
C537 C535 1.358 . S
C537 H595 0.930 . S
C538 C541 1.348 . S
C538 C542 1.356 . S
C538 O589 1.325 . S
C539 N540 1.279 . S
C539 C542 1.358 . S
C539 H596 0.930 . S
N540 C539 1.279 . S
N540 C543 1.314 . S
C541 C538 1.348 . S
C541 C543 1.353 . S
C541 H597 0.929 . S
C542 C538 1.356 . S
C542 C539 1.358 . S
C542 H598 0.930 . S
C543 N540 1.314 . S
C543 C541 1.353 . S
C543 H599 0.930 . S
C544 N545 1.314 . S
C544 C549 1.353 . S
C544 H550 0.930 . S
N545 Li528 1.990 . S
N545 C544 1.314 . S
N545 C547 1.279 . S
C546 C547 1.358 . S
C546 C548 1.356 . S
C546 H600 0.930 . S
C547 N545 1.279 . S
C547 C546 1.358 . S
C547 H551 0.930 . S
C548 C546 1.356 . S
C548 C549 1.348 . S
C549 C544 1.353 . S
C549 C548 1.348 . S
C549 H601 0.929 . S
H550 C544 0.930 . S
H551 C547 0.930 . S
C552 N553 1.314 . S
C552 C554 1.353 . S
C552 H558 0.930 . S
N553 Li529 1.990 . S
N553 C552 1.314 . S
N553 C556 1.279 . S
C554 C552 1.353 . S
C554 C557 1.348 . S
C554 H602 0.929 . S
C555 C556 1.358 . S
C555 C557 1.356 . S
C555 H603 0.930 . S
C556 N553 1.279 . S
C556 C555 1.358 . S
C556 H559 0.930 . S
C557 C554 1.348 . S
C557 C555 1.356 . S
H558 C552 0.930 . S
H559 C556 0.930 . S
C560 C562 1.348 . S
C560 C563 1.356 . S
C560 O590 1.325 . S
N561 C564 1.314 . S
N561 C565 1.279 . S
C562 C560 1.348 . S
C562 C564 1.353 . S
C562 H604 0.929 . S
C563 C560 1.356 . S
C563 C565 1.358 . S
C563 H605 0.930 . S
C564 N561 1.314 . S
C564 C562 1.353 . S
C564 H606 0.930 . S
C565 N561 1.279 . S
C565 C563 1.358 . S
C565 H607 0.930 . S
C566 C567 1.348 . S
C566 C568 1.356 . S
C566 O591 1.325 . S
C567 C566 1.348 . S
C567 C569 1.353 . S
C567 H608 0.929 . S
C568 C566 1.356 . S
C568 C570 1.358 . S
C568 H609 0.930 . S
C569 C567 1.353 . S
C569 N571 1.314 . S
C569 H610 0.930 . S
C570 C568 1.358 . S
C570 N571 1.279 . S
C570 H611 0.930 . S
N571 C569 1.314 . S
N571 C570 1.279 . S
C572 C574 1.353 . S
C572 N575 1.314 . S
C572 H578 0.930 . S
C573 N575 1.279 . S
C573 C576 1.358 . S
C573 H579 0.930 . S
C574 C572 1.353 . S
C574 C577 1.348 . S
C574 H612 0.929 . S
N575 Li530 1.990 . S
N575 C572 1.314 . S
N575 C573 1.279 . S
C576 C573 1.358 . S
C576 C577 1.356 . S
C576 H613 0.930 . S
C577 C574 1.348 . S
C577 C576 1.356 . S
H578 C572 0.930 . S
H579 C573 0.930 . S
C580 N581 1.314 . S
C580 C582 1.353 . S
C580 H586 0.930 . S
N581 Li531 1.990 . S
N581 C580 1.314 . S
N581 C584 1.279 . S
C582 C580 1.353 . S
C582 C585 1.348 . S
C582 H614 0.929 . S
C583 C584 1.358 . S
C583 C585 1.356 . S
C583 H615 0.930 . S
C584 N581 1.279 . S
C584 C583 1.358 . S
C584 H587 0.930 . S
C585 C582 1.348 . S
C585 C583 1.356 . S
H586 C580 0.930 . S
H587 C584 0.930 . S
O588 Li528 1.956 . S
O588 Li529 1.970 . S
O588 Li530 1.961 . S
O588 C532 1.325 . S
O589 Li528 1.970 . S
O589 Li529 1.956 . S
O589 Li531 1.961 . S
O589 C538 1.325 . S
O590 Li528 1.961 . S
O590 Li530 1.956 . S
O590 Li531 1.970 . S
O590 C560 1.325 . S
O591 Li529 1.961 . S
O591 Li530 1.970 . S
O591 Li531 1.956 . S
O591 C566 1.325 . S
H592 C534 0.929 . S
H593 C535 0.930 . S
H594 C536 0.930 . S
H595 C537 0.930 . S
H596 C539 0.930 . S
H597 C541 0.929 . S
H598 C542 0.930 . S
H599 C543 0.930 . S
H600 C546 0.930 . S
H601 C549 0.929 . S
H602 C554 0.929 . S
H603 C555 0.930 . S
H604 C562 0.929 . S
H605 C563 0.930 . S
H606 C564 0.930 . S
H607 C565 0.930 . S
H608 C567 0.929 . S
H609 C568 0.930 . S
H610 C569 0.930 . S
H611 C570 0.930 . S
H612 C574 0.929 . S
H613 C576 0.930 . S
H614 C582 0.929 . S
H615 C583 0.930 . S
Li616 N633 1.990 . S
Li616 O676 1.956 . S
Li616 O677 1.970 . S
Li616 O678 1.961 . S
Li617 N641 1.990 1_556 S
Li617 O676 1.970 . S
Li617 O677 1.956 . S
Li617 O679 1.961 . S
Li618 N663 1.990 . S
Li618 O676 1.961 . S
Li618 O678 1.956 . S
Li618 O679 1.970 . S
Li619 N669 1.990 . S
Li619 O677 1.961 . S
Li619 O678 1.970 . S
Li619 O679 1.956 . S
C620 C622 1.348 . S
C620 C623 1.356 . S
C620 O676 1.325 1_554 S
N621 C624 1.314 . S
N621 C625 1.279 . S
C622 C620 1.348 . S
C622 C624 1.353 . S
C622 H680 0.929 . S
C623 C620 1.356 . S
C623 C625 1.358 . S
C623 H681 0.930 1_554 S
C624 N621 1.314 . S
C624 C622 1.353 . S
C624 H682 0.930 . S
C625 N621 1.279 . S
C625 C623 1.358 . S
C625 H683 0.930 . S
C626 C629 1.348 . S
C626 C630 1.356 . S
C626 O677 1.325 1_455 S
C627 N628 1.279 . S
C627 C630 1.358 . S
C627 H684 0.930 . S
N628 C627 1.279 . S
N628 C631 1.314 . S
C629 C626 1.348 . S
C629 C631 1.353 . S
C629 H685 0.929 1_455 S
C630 C626 1.356 . S
C630 C627 1.358 . S
C630 H686 0.930 . S
C631 N628 1.314 . S
C631 C629 1.353 . S
C631 H687 0.930 . S
C632 N633 1.314 . S
C632 C637 1.353 . S
C632 H638 0.930 . S
N633 Li616 1.990 . S
N633 C632 1.314 . S
N633 C635 1.279 . S
C634 C635 1.358 . S
C634 C636 1.356 . S
C634 H688 0.930 . S
C635 N633 1.279 . S
C635 C634 1.358 . S
C635 H639 0.930 . S
C636 C634 1.356 . S
C636 C637 1.348 . S
C637 C632 1.353 . S
C637 C636 1.348 . S
C637 H689 0.929 . S
H638 C632 0.930 . S
H639 C635 0.930 . S
C640 N641 1.314 . S
C640 C642 1.353 . S
C640 H646 0.930 . S
N641 Li617 1.990 1_554 S
N641 C640 1.314 . S
N641 C644 1.279 1_655 S
C642 C640 1.353 . S
C642 C645 1.348 1_655 S
C642 H690 0.929 . S
C643 C644 1.358 . S
C643 C645 1.356 . S
C643 H691 0.930 . S
C644 N641 1.279 1_455 S
C644 C643 1.358 . S
C644 H647 0.930 . S
C645 C642 1.348 1_455 S
C645 C643 1.356 . S
H646 C640 0.930 . S
H647 C644 0.930 . S
C648 C650 1.348 . S
C648 C651 1.356 . S
C648 O678 1.325 . S
N649 C652 1.314 . S
N649 C653 1.279 . S
C650 C648 1.348 . S
C650 C652 1.353 . S
C650 H692 0.929 . S
C651 C648 1.356 . S
C651 C653 1.358 . S
C651 H693 0.930 . S
C652 N649 1.314 . S
C652 C650 1.353 . S
C652 H694 0.930 . S
C653 N649 1.279 . S
C653 C651 1.358 . S
C653 H695 0.930 . S
C654 C655 1.348 . S
C654 C656 1.356 . S
C654 O679 1.325 . S
C655 C654 1.348 . S
C655 C657 1.353 . S
C655 H696 0.929 . S
C656 C654 1.356 . S
C656 C658 1.358 . S
C656 H697 0.930 . S
C657 C655 1.353 . S
C657 N659 1.314 . S
C657 H698 0.930 . S
C658 C656 1.358 . S
C658 N659 1.279 . S
C658 H699 0.930 . S
N659 C657 1.314 . S
N659 C658 1.279 . S
C660 C662 1.353 . S
C660 N663 1.314 . S
C660 H666 0.930 . S
C661 N663 1.279 . S
C661 C664 1.358 . S
C661 H667 0.930 . S
C662 C660 1.353 . S
C662 C665 1.348 . S
C662 H700 0.915 1_556 S
N663 Li618 1.990 . S
N663 C660 1.314 . S
N663 C661 1.279 . S
C664 C661 1.358 . S
C664 C665 1.356 . S
C664 H701 0.930 . S
C665 C662 1.348 . S
C665 C664 1.356 . S
H666 C660 0.930 . S
H667 C661 0.930 . S
C668 N669 1.314 . S
C668 C670 1.353 1_655 S
C668 H674 0.930 . S
N669 Li619 1.990 . S
N669 C668 1.314 . S
N669 C672 1.279 . S
C670 C668 1.353 1_455 S
C670 C673 1.348 1_455 S
C670 H702 0.929 . S
C671 C672 1.358 . S
C671 C673 1.356 . S
C671 H703 0.930 . S
C672 N669 1.279 . S
C672 C671 1.358 . S
C672 H675 0.930 . S
C673 C670 1.348 1_655 S
C673 C671 1.356 . S
H674 C668 0.930 . S
H675 C672 0.930 . S
O676 Li616 1.956 . S
O676 Li617 1.970 . S
O676 Li618 1.961 . S
O676 C620 1.325 1_556 S
O677 Li616 1.970 . S
O677 Li617 1.956 . S
O677 Li619 1.961 . S
O677 C626 1.325 1_655 S
O678 Li616 1.961 . S
O678 Li618 1.956 . S
O678 Li619 1.970 . S
O678 C648 1.325 . S
O679 Li617 1.961 . S
O679 Li618 1.970 . S
O679 Li619 1.956 . S
O679 C654 1.325 . S
H680 C622 0.929 . S
H681 C623 0.930 1_556 S
H682 C624 0.930 . S
H683 C625 0.930 . S
H684 C627 0.930 . S
H685 C629 0.929 1_655 S
H686 C630 0.930 . S
H687 C631 0.930 . S
H688 C634 0.930 . S
H689 C637 0.929 . S
H690 C642 0.929 . S
H691 C643 0.930 . S
H692 C650 0.929 . S
H693 C651 0.930 . S
H694 C652 0.930 . S
H695 C653 0.930 . S
H696 C655 0.929 . S
H697 C656 0.930 . S
H698 C657 0.930 . S
H699 C658 0.930 . S
H700 C662 0.915 1_554 S
H701 C664 0.930 . S
H702 C670 0.929 . S
H703 C671 0.930 . S
Li704 N721 1.990 . S
Li704 O764 1.956 . S
Li704 O765 1.970 . S
Li704 O766 1.961 . S
Li705 N729 1.990 . S
Li705 O764 1.970 . S
Li705 O765 1.956 . S
Li705 O767 1.961 . S
Li706 N751 1.990 . S
Li706 O764 1.961 . S
Li706 O766 1.956 . S
Li706 O767 1.970 . S
Li707 N757 1.990 . S
Li707 O765 1.961 . S
Li707 O766 1.970 . S
Li707 O767 1.956 . S
C708 C710 1.348 . S
C708 C711 1.356 . S
C708 O764 1.325 1_545 S
N709 C712 1.314 . S
N709 C713 1.279 . S
C710 C708 1.348 . S
C710 C712 1.353 . S
C710 H768 0.929 1_545 S
C711 C708 1.356 . S
C711 C713 1.358 . S
C711 H769 0.930 . S
C712 N709 1.314 . S
C712 C710 1.353 . S
C712 H770 0.930 . S
C713 N709 1.279 . S
C713 C711 1.358 . S
C713 H771 0.930 . S
C714 C717 1.348 . S
C714 C718 1.356 . S
C714 O765 1.325 . S
C715 N716 1.279 . S
C715 C718 1.358 . S
C715 H772 0.930 . S
N716 C715 1.279 . S
N716 C719 1.314 . S
C717 C714 1.348 . S
C717 C719 1.353 . S
C717 H773 0.929 . S
C718 C714 1.356 . S
C718 C715 1.358 . S
C718 H774 0.930 . S
C719 N716 1.314 . S
C719 C717 1.353 . S
C719 H775 0.930 . S
C720 N721 1.314 . S
C720 C725 1.353 . S
C720 H726 0.930 . S
N721 Li704 1.990 . S
N721 C720 1.314 . S
N721 C723 1.279 1_565 S
C722 C723 1.358 . S
C722 C724 1.356 . S
C722 H776 0.930 . S
C723 N721 1.279 1_545 S
C723 C722 1.358 . S
C723 H727 0.930 . S
C724 C722 1.356 . S
C724 C725 1.348 1_545 S
C725 C720 1.353 . S
C725 C724 1.348 1_565 S
C725 H777 0.929 . S
H726 C720 0.930 . S
H727 C723 0.930 . S
C728 N729 1.314 . S
C728 C730 1.353 . S
C728 H734 0.930 . S
N729 Li705 1.990 . S
N729 C728 1.314 . S
N729 C732 1.279 . S
C730 C728 1.353 . S
C730 C733 1.348 . S
C730 H778 0.929 . S
C731 C732 1.358 . S
C731 C733 1.356 . S
C731 H779 0.930 . S
C732 N729 1.279 . S
C732 C731 1.358 . S
C732 H735 0.930 . S
C733 C730 1.348 . S
C733 C731 1.356 . S
H734 C728 0.930 . S
H735 C732 0.930 . S
C736 C738 1.348 . S
C736 C739 1.356 . S
C736 O766 1.325 . S
N737 C740 1.314 . S
N737 C741 1.279 . S
C738 C736 1.348 . S
C738 C740 1.353 . S
C738 H780 0.929 . S
C739 C736 1.356 . S
C739 C741 1.358 . S
C739 H781 0.930 . S
C740 N737 1.314 . S
C740 C738 1.353 . S
C740 H782 0.930 . S
C741 N737 1.279 . S
C741 C739 1.358 . S
C741 H783 0.930 . S
C742 C743 1.348 . S
C742 C744 1.356 . S
C742 O767 1.325 . S
C743 C742 1.348 . S
C743 C745 1.353 . S
C743 H784 0.929 . S
C744 C742 1.356 . S
C744 C746 1.358 . S
C744 H785 0.930 . S
C745 C743 1.353 . S
C745 N747 1.314 . S
C745 H786 0.930 . S
C746 C744 1.358 . S
C746 N747 1.279 . S
C746 H787 0.930 . S
N747 C745 1.314 . S
N747 C746 1.279 . S
C748 C750 1.353 1_565 S
C748 N751 1.314 . S
C748 H754 0.930 . S
C749 N751 1.279 . S
C749 C752 1.358 . S
C749 H755 0.930 . S
C750 C748 1.353 1_545 S
C750 C753 1.348 1_545 S
C750 H788 0.929 . S
N751 Li706 1.990 . S
N751 C748 1.314 . S
N751 C749 1.279 . S
C752 C749 1.358 . S
C752 C753 1.356 . S
C752 H789 0.930 . S
C753 C750 1.348 1_565 S
C753 C752 1.356 . S
H754 C748 0.930 . S
H755 C749 0.930 . S
C756 N757 1.314 . S
C756 C758 1.353 . S
C756 H762 0.930 . S
N757 Li707 1.990 . S
N757 C756 1.314 . S
N757 C760 1.279 . S
C758 C756 1.353 . S
C758 C761 1.348 . S
C758 H790 0.929 . S
C759 C760 1.358 . S
C759 C761 1.356 . S
C759 H791 0.930 . S
C760 N757 1.279 . S
C760 C759 1.358 . S
C760 H763 0.930 . S
C761 C758 1.348 . S
C761 C759 1.356 . S
H762 C756 0.930 . S
H763 C760 0.930 . S
O764 Li704 1.956 . S
O764 Li705 1.970 . S
O764 Li706 1.961 . S
O764 C708 1.325 1_565 S
O765 Li704 1.970 . S
O765 Li705 1.956 . S
O765 Li707 1.961 . S
O765 C714 1.325 . S
O766 Li704 1.961 . S
O766 Li706 1.956 . S
O766 Li707 1.970 . S
O766 C736 1.325 . S
O767 Li705 1.961 . S
O767 Li706 1.970 . S
O767 Li707 1.956 . S
O767 C742 1.325 . S
H768 C710 0.929 1_565 S
H769 C711 0.930 . S
H770 C712 0.930 . S
H771 C713 0.930 . S
H772 C715 0.930 . S
H773 C717 0.929 . S
H774 C718 0.930 . S
H775 C719 0.930 . S
H776 C722 0.930 . S
H777 C725 0.929 . S
H778 C730 0.929 . S
H779 C731 0.930 . S
H780 C738 0.929 . S
H781 C739 0.930 . S
H782 C740 0.930 . S
H783 C741 0.930 . S
H784 C743 0.929 . S
H785 C744 0.930 . S
H786 C745 0.930 . S
H787 C746 0.930 . S
H788 C750 0.929 . S
H789 C752 0.930 . S
H790 C758 0.929 . S
H791 C759 0.930 . S
Li792 N809 1.990 . S
Li792 O852 1.956 . S
Li792 O853 1.970 . S
Li792 O854 1.961 . S
Li793 N817 1.990 . S
Li793 O852 1.970 . S
Li793 O853 1.956 . S
Li793 O855 1.961 . S
Li794 N839 1.990 . S
Li794 O852 1.961 . S
Li794 O854 1.956 . S
Li794 O855 1.970 . S
Li795 N845 1.990 . S
Li795 O853 1.961 . S
Li795 O854 1.970 . S
Li795 O855 1.956 . S
C796 C798 1.348 . S
C796 C799 1.356 . S
C796 O852 1.325 . S
N797 C800 1.314 . S
N797 C801 1.279 . S
C798 C796 1.348 . S
C798 C800 1.353 . S
C798 H856 0.929 . S
C799 C796 1.356 . S
C799 C801 1.358 . S
C799 H857 0.930 . S
C800 N797 1.314 . S
C800 C798 1.353 . S
C800 H858 0.930 . S
C801 N797 1.279 . S
C801 C799 1.358 . S
C801 H859 0.930 . S
C802 C805 1.348 . S
C802 C806 1.356 . S
C802 O853 1.325 . S
C803 N804 1.279 . S
C803 C806 1.358 . S
C803 H860 0.930 . S
N804 C803 1.279 . S
N804 C807 1.314 . S
C805 C802 1.348 . S
C805 C807 1.353 . S
C805 H861 0.929 . S
C806 C802 1.356 . S
C806 C803 1.358 . S
C806 H862 0.930 . S
C807 N804 1.314 . S
C807 C805 1.353 . S
C807 H863 0.930 . S
C808 N809 1.314 . S
C808 C813 1.353 . S
C808 H814 0.930 . S
N809 Li792 1.990 . S
N809 C808 1.314 . S
N809 C811 1.279 . S
C810 C811 1.358 . S
C810 C812 1.356 . S
C810 H864 0.930 . S
C811 N809 1.279 . S
C811 C810 1.358 . S
C811 H815 0.930 . S
C812 C810 1.356 . S
C812 C813 1.348 . S
C813 C808 1.353 . S
C813 C812 1.348 . S
C813 H865 0.929 . S
H814 C808 0.930 . S
H815 C811 0.930 . S
C816 N817 1.314 . S
C816 C818 1.353 . S
C816 H822 0.930 . S
N817 Li793 1.990 . S
N817 C816 1.314 . S
N817 C820 1.279 . S
C818 C816 1.353 . S
C818 C821 1.348 . S
C818 H866 0.929 . S
C819 C820 1.358 . S
C819 C821 1.356 . S
C819 H867 0.930 . S
C820 N817 1.279 . S
C820 C819 1.358 . S
C820 H823 0.930 . S
C821 C818 1.348 . S
C821 C819 1.356 . S
H822 C816 0.930 . S
H823 C820 0.930 . S
C824 C826 1.348 . S
C824 C827 1.356 . S
C824 O854 1.325 . S
N825 C828 1.314 . S
N825 C829 1.279 . S
C826 C824 1.348 . S
C826 C828 1.353 . S
C826 H868 0.929 . S
C827 C824 1.356 . S
C827 C829 1.358 . S
C827 H869 0.930 . S
C828 N825 1.314 . S
C828 C826 1.353 . S
C828 H870 0.930 . S
C829 N825 1.279 . S
C829 C827 1.358 . S
C829 H871 0.930 . S
C830 C831 1.348 . S
C830 C832 1.356 . S
C830 O855 1.325 . S
C831 C830 1.348 . S
C831 C833 1.353 . S
C831 H872 0.929 . S
C832 C830 1.356 . S
C832 C834 1.358 . S
C832 H873 0.930 . S
C833 C831 1.353 . S
C833 N835 1.314 . S
C833 H874 0.930 . S
C834 C832 1.358 . S
C834 N835 1.279 . S
C834 H875 0.930 . S
N835 C833 1.314 . S
N835 C834 1.279 . S
C836 C838 1.353 . S
C836 N839 1.314 . S
C836 H842 0.930 . S
C837 N839 1.279 . S
C837 C840 1.358 . S
C837 H843 0.930 . S
C838 C836 1.353 . S
C838 C841 1.348 . S
C838 H876 0.929 . S
N839 Li794 1.990 . S
N839 C836 1.314 . S
N839 C837 1.279 . S
C840 C837 1.358 . S
C840 C841 1.356 . S
C840 H877 0.930 . S
C841 C838 1.348 . S
C841 C840 1.356 . S
H842 C836 0.930 . S
H843 C837 0.930 . S
C844 N845 1.314 . S
C844 C846 1.353 . S
C844 H850 0.930 . S
N845 Li795 1.990 . S
N845 C844 1.314 . S
N845 C848 1.279 . S
C846 C844 1.353 . S
C846 C849 1.348 . S
C846 H878 0.929 . S
C847 C848 1.358 . S
C847 C849 1.356 . S
C847 H879 0.930 . S
C848 N845 1.279 . S
C848 C847 1.358 . S
C848 H851 0.930 . S
C849 C846 1.348 . S
C849 C847 1.356 . S
H850 C844 0.930 . S
H851 C848 0.930 . S
O852 Li792 1.956 . S
O852 Li793 1.970 . S
O852 Li794 1.961 . S
O852 C796 1.325 . S
O853 Li792 1.970 . S
O853 Li793 1.956 . S
O853 Li795 1.961 . S
O853 C802 1.325 . S
O854 Li792 1.961 . S
O854 Li794 1.956 . S
O854 Li795 1.970 . S
O854 C824 1.325 . S
O855 Li793 1.961 . S
O855 Li794 1.970 . S
O855 Li795 1.956 . S
O855 C830 1.325 . S
H856 C798 0.929 . S
H857 C799 0.930 . S
H858 C800 0.930 . S
H859 C801 0.930 . S
H860 C803 0.930 . S
H861 C805 0.929 . S
H862 C806 0.930 . S
H863 C807 0.930 . S
H864 C810 0.930 . S
H865 C813 0.929 . S
H866 C818 0.929 . S
H867 C819 0.930 . S
H868 C826 0.929 . S
H869 C827 0.930 . S
H870 C828 0.930 . S
H871 C829 0.930 . S
H872 C831 0.929 . S
H873 C832 0.930 . S
H874 C833 0.930 . S
H875 C834 0.930 . S
H876 C838 0.929 . S
H877 C840 0.930 . S
H878 C846 0.929 . S
H879 C847 0.930 . S
Li880 N897 1.990 . S
Li880 O940 1.956 . S
Li880 O941 1.970 . S
Li880 O942 1.961 . S
Li881 N905 1.990 1_556 S
Li881 O940 1.970 . S
Li881 O941 1.956 . S
Li881 O943 1.961 . S
Li882 N927 1.990 . S
Li882 O940 1.961 . S
Li882 O942 1.956 . S
Li882 O943 1.970 . S
Li883 N933 1.990 . S
Li883 O941 1.961 . S
Li883 O942 1.970 . S
Li883 O943 1.956 . S
C884 C886 1.348 . S
C884 C887 1.356 . S
C884 O940 1.325 1_554 S
N885 C888 1.314 . S
N885 C889 1.279 . S
C886 C884 1.348 . S
C886 C888 1.353 . S
C886 H944 0.929 . S
C887 C884 1.356 . S
C887 C889 1.358 . S
C887 H945 0.930 1_554 S
C888 N885 1.314 . S
C888 C886 1.353 . S
C888 H946 0.930 . S
C889 N885 1.279 . S
C889 C887 1.358 . S
C889 H947 0.930 . S
C890 C893 1.348 . S
C890 C894 1.356 . S
C890 O941 1.325 1_655 S
C891 N892 1.279 . S
C891 C894 1.358 . S
C891 H948 0.930 . S
N892 C891 1.279 . S
N892 C895 1.314 . S
C893 C890 1.348 . S
C893 C895 1.353 . S
C893 H949 0.929 1_655 S
C894 C890 1.356 . S
C894 C891 1.358 . S
C894 H950 0.930 . S
C895 N892 1.314 . S
C895 C893 1.353 . S
C895 H951 0.930 . S
C896 N897 1.314 . S
C896 C901 1.353 . S
C896 H902 0.930 . S
N897 Li880 1.990 . S
N897 C896 1.314 . S
N897 C899 1.279 . S
C898 C899 1.358 . S
C898 C900 1.356 . S
C898 H952 0.930 . S
C899 N897 1.279 . S
C899 C898 1.358 . S
C899 H903 0.930 . S
C900 C898 1.356 . S
C900 C901 1.348 . S
C901 C896 1.353 . S
C901 C900 1.348 . S
C901 H953 0.929 . S
H902 C896 0.930 . S
H903 C899 0.930 . S
C904 N905 1.314 . S
C904 C906 1.353 . S
C904 H910 0.930 . S
N905 Li881 1.990 1_554 S
N905 C904 1.314 . S
N905 C908 1.279 1_455 S
C906 C904 1.353 . S
C906 C909 1.348 1_455 S
C906 H954 0.929 . S
C907 C908 1.358 . S
C907 C909 1.356 . S
C907 H955 0.930 . S
C908 N905 1.279 1_655 S
C908 C907 1.358 . S
C908 H911 0.930 . S
C909 C906 1.348 1_655 S
C909 C907 1.356 . S
H910 C904 0.930 . S
H911 C908 0.930 . S
C912 C914 1.348 . S
C912 C915 1.356 . S
C912 O942 1.325 . S
N913 C916 1.314 . S
N913 C917 1.279 . S
C914 C912 1.348 . S
C914 C916 1.353 . S
C914 H956 0.929 . S
C915 C912 1.356 . S
C915 C917 1.358 . S
C915 H957 0.930 . S
C916 N913 1.314 . S
C916 C914 1.353 . S
C916 H958 0.930 . S
C917 N913 1.279 . S
C917 C915 1.358 . S
C917 H959 0.930 . S
C918 C919 1.348 . S
C918 C920 1.356 . S
C918 O943 1.325 . S
C919 C918 1.348 . S
C919 C921 1.353 . S
C919 H960 0.929 . S
C920 C918 1.356 . S
C920 C922 1.358 . S
C920 H961 0.930 . S
C921 C919 1.353 . S
C921 N923 1.314 . S
C921 H962 0.930 . S
C922 C920 1.358 . S
C922 N923 1.279 . S
C922 H963 0.930 . S
N923 C921 1.314 . S
N923 C922 1.279 . S
C924 C926 1.353 . S
C924 N927 1.314 . S
C924 H930 0.930 . S
C925 N927 1.279 . S
C925 C928 1.358 . S
C925 H931 0.930 . S
C926 C924 1.353 . S
C926 C929 1.348 . S
C926 H964 0.915 1_556 S
N927 Li882 1.990 . S
N927 C924 1.314 . S
N927 C925 1.279 . S
C928 C925 1.358 . S
C928 C929 1.356 . S
C928 H965 0.930 . S
C929 C926 1.348 . S
C929 C928 1.356 . S
H930 C924 0.930 . S
H931 C925 0.930 . S
C932 N933 1.314 . S
C932 C934 1.353 1_455 S
C932 H938 0.930 . S
N933 Li883 1.990 . S
N933 C932 1.314 . S
N933 C936 1.279 . S
C934 C932 1.353 1_655 S
C934 C937 1.348 1_655 S
C934 H966 0.929 . S
C935 C936 1.358 . S
C935 C937 1.356 . S
C935 H967 0.930 . S
C936 N933 1.279 . S
C936 C935 1.358 . S
C936 H939 0.930 . S
C937 C934 1.348 1_455 S
C937 C935 1.356 . S
H938 C932 0.930 . S
H939 C936 0.930 . S
O940 Li880 1.956 . S
O940 Li881 1.970 . S
O940 Li882 1.961 . S
O940 C884 1.325 1_556 S
O941 Li880 1.970 . S
O941 Li881 1.956 . S
O941 Li883 1.961 . S
O941 C890 1.325 1_455 S
O942 Li880 1.961 . S
O942 Li882 1.956 . S
O942 Li883 1.970 . S
O942 C912 1.325 . S
O943 Li881 1.961 . S
O943 Li882 1.970 . S
O943 Li883 1.956 . S
O943 C918 1.325 . S
H944 C886 0.929 . S
H945 C887 0.930 1_556 S
H946 C888 0.930 . S
H947 C889 0.930 . S
H948 C891 0.930 . S
H949 C893 0.929 1_455 S
H950 C894 0.930 . S
H951 C895 0.930 . S
H952 C898 0.930 . S
H953 C901 0.929 . S
H954 C906 0.929 . S
H955 C907 0.930 . S
H956 C914 0.929 . S
H957 C915 0.930 . S
H958 C916 0.930 . S
H959 C917 0.930 . S
H960 C919 0.929 . S
H961 C920 0.930 . S
H962 C921 0.930 . S
H963 C922 0.930 . S
H964 C926 0.915 1_554 S
H965 C928 0.930 . S
H966 C934 0.929 . S
H967 C935 0.930 . S
Li968 N985 1.990 . S
Li968 O1028 1.956 . S
Li968 O1029 1.970 . S
Li968 O1030 1.961 . S
Li969 N993 1.990 . S
Li969 O1028 1.970 . S
Li969 O1029 1.956 . S
Li969 O1031 1.961 . S
Li970 N1015 1.990 . S
Li970 O1028 1.961 . S
Li970 O1030 1.956 . S
Li970 O1031 1.970 . S
Li971 N1021 1.990 . S
Li971 O1029 1.961 . S
Li971 O1030 1.970 . S
Li971 O1031 1.956 . S
C972 C974 1.348 . S
C972 C975 1.356 . S
C972 O1028 1.325 . S
N973 C976 1.314 . S
N973 C977 1.279 . S
C974 C972 1.348 . S
C974 C976 1.353 . S
C974 H1032 0.929 . S
C975 C972 1.356 . S
C975 C977 1.358 . S
C975 H1033 0.930 . S
C976 N973 1.314 . S
C976 C974 1.353 . S
C976 H1034 0.930 . S
C977 N973 1.279 . S
C977 C975 1.358 . S
C977 H1035 0.930 . S
C978 C981 1.348 . S
C978 C982 1.356 . S
C978 O1029 1.325 1_565 S
C979 N980 1.279 . S
C979 C982 1.358 . S
C979 H1036 0.930 . S
N980 C979 1.279 . S
N980 C983 1.314 . S
C981 C978 1.348 . S
C981 C983 1.353 . S
C981 H1037 0.929 1_565 S
C982 C978 1.356 . S
C982 C979 1.358 . S
C982 H1038 0.930 . S
C983 N980 1.314 . S
C983 C981 1.353 . S
C983 H1039 0.930 . S
C984 N985 1.314 . S
C984 C989 1.353 . S
C984 H990 0.930 . S
N985 Li968 1.990 . S
N985 C984 1.314 . S
N985 C987 1.279 . S
C986 C987 1.358 . S
C986 C988 1.356 . S
C986 H1040 0.930 . S
C987 N985 1.279 . S
C987 C986 1.358 . S
C987 H991 0.930 . S
C988 C986 1.356 . S
C988 C989 1.348 . S
C989 C984 1.353 . S
C989 C988 1.348 . S
C989 H1041 0.929 . S
H990 C984 0.930 . S
H991 C987 0.930 . S
C992 N993 1.314 . S
C992 C994 1.353 . S
C992 H998 0.930 . S
N993 Li969 1.990 . S
N993 C992 1.314 . S
N993 C996 1.279 1_545 S
C994 C992 1.353 . S
C994 C997 1.348 1_545 S
C994 H1042 0.929 . S
C995 C996 1.358 . S
C995 C997 1.356 . S
C995 H1043 0.930 . S
C996 N993 1.279 1_565 S
C996 C995 1.358 . S
C996 H999 0.930 . S
C997 C994 1.348 1_565 S
C997 C995 1.356 . S
H998 C992 0.930 . S
H999 C996 0.930 . S
C1000 C1002 1.348 . S
C1000 C1003 1.356 . S
C1000 O1030 1.325 . S
N1001 C1004 1.314 . S
N1001 C1005 1.279 . S
C1002 C1000 1.348 . S
C1002 C1004 1.353 . S
C1002 H1044 0.929 . S
C1003 C1000 1.356 . S
C1003 C1005 1.358 . S
C1003 H1045 0.930 . S
C1004 N1001 1.314 . S
C1004 C1002 1.353 . S
C1004 H1046 0.930 . S
C1005 N1001 1.279 . S
C1005 C1003 1.358 . S
C1005 H1047 0.930 . S
C1006 C1007 1.348 . S
C1006 C1008 1.356 . S
C1006 O1031 1.325 . S
C1007 C1006 1.348 . S
C1007 C1009 1.353 . S
C1007 H1048 0.929 . S
C1008 C1006 1.356 . S
C1008 C1010 1.358 . S
C1008 H1049 0.930 . S
C1009 C1007 1.353 . S
C1009 N1011 1.314 . S
C1009 H1050 0.930 . S
C1010 C1008 1.358 . S
C1010 N1011 1.279 . S
C1010 H1051 0.930 . S
N1011 C1009 1.314 . S
N1011 C1010 1.279 . S
C1012 C1014 1.353 . S
C1012 N1015 1.314 . S
C1012 H1018 0.930 . S
C1013 N1015 1.279 . S
C1013 C1016 1.358 . S
C1013 H1019 0.930 . S
C1014 C1012 1.353 . S
C1014 C1017 1.348 . S
C1014 H1052 0.929 . S
N1015 Li970 1.990 . S
N1015 C1012 1.314 . S
N1015 C1013 1.279 . S
C1016 C1013 1.358 . S
C1016 C1017 1.356 . S
C1016 H1053 0.930 . S
C1017 C1014 1.348 . S
C1017 C1016 1.356 . S
H1018 C1012 0.930 . S
H1019 C1013 0.930 . S
C1020 N1021 1.314 . S
C1020 C1022 1.353 1_545 S
C1020 H1026 0.930 . S
N1021 Li971 1.990 . S
N1021 C1020 1.314 . S
N1021 C1024 1.279 . S
C1022 C1020 1.353 1_565 S
C1022 C1025 1.348 1_565 S
C1022 H1054 0.929 . S
C1023 C1024 1.358 . S
C1023 C1025 1.356 . S
C1023 H1055 0.930 . S
C1024 N1021 1.279 . S
C1024 C1023 1.358 . S
C1024 H1027 0.930 . S
C1025 C1022 1.348 1_545 S
C1025 C1023 1.356 . S
H1026 C1020 0.930 . S
H1027 C1024 0.930 . S
O1028 Li968 1.956 . S
O1028 Li969 1.970 . S
O1028 Li970 1.961 . S
O1028 C972 1.325 . S
O1029 Li968 1.970 . S
O1029 Li969 1.956 . S
O1029 Li971 1.961 . S
O1029 C978 1.325 1_545 S
O1030 Li968 1.961 . S
O1030 Li970 1.956 . S
O1030 Li971 1.970 . S
O1030 C1000 1.325 . S
O1031 Li969 1.961 . S
O1031 Li970 1.970 . S
O1031 Li971 1.956 . S
O1031 C1006 1.325 . S
H1032 C974 0.929 . S
H1033 C975 0.930 . S
H1034 C976 0.930 . S
H1035 C977 0.930 . S
H1036 C979 0.930 . S
H1037 C981 0.929 1_545 S
H1038 C982 0.930 . S
H1039 C983 0.930 . S
H1040 C986 0.930 . S
H1041 C989 0.929 . S
H1042 C994 0.929 . S
H1043 C995 0.930 . S
H1044 C1002 0.929 . S
H1045 C1003 0.930 . S
H1046 C1004 0.930 . S
H1047 C1005 0.930 . S
H1048 C1007 0.929 . S
H1049 C1008 0.930 . S
H1050 C1009 0.930 . S
H1051 C1010 0.930 . S
H1052 C1014 0.929 . S
H1053 C1016 0.930 . S
H1054 C1022 0.929 . S
H1055 C1023 0.930 . S
C1056 C1057 1.391 . S
C1056 C1058 1.394 . S
C1056 H1072 0.931 . S
C1057 C1056 1.391 . S
C1057 C1061 1.376 . S
C1058 C1056 1.394 . S
C1058 C1059 1.369 . S
C1058 C1062 1.531 . S
C1059 C1058 1.369 . S
C1059 C1060 1.410 . S
C1059 C1067 1.503 . S
C1060 C1059 1.410 . S
C1060 C1061 1.392 . S
C1060 C1063 1.511 . S
C1061 C1057 1.376 . S
C1061 C1060 1.392 . S
C1061 H1073 0.929 . S
C1062 C1058 1.531 . S
C1062 H1074 0.960 . S
C1062 H1075 0.962 . S
C1062 H1076 0.960 . S
C1063 C1060 1.511 . S
C1063 H1077 0.961 . S
C1063 H1078 0.961 . S
C1063 H1079 0.961 . S
C1064 C1065 1.370 . S
C1064 C1066 1.363 . S
C1064 H1080 0.931 . S
C1065 C1064 1.370 . S
C1065 C1069 1.408 . S
C1066 C1064 1.363 . S
C1066 C1067 1.370 . S
C1066 C1070 1.524 . S
C1067 C1059 1.503 . S
C1067 C1066 1.370 . S
C1067 C1068 1.403 . S
C1068 C1067 1.403 . S
C1068 C1069 1.404 . S
C1068 C1071 1.539 . S
C1069 C1065 1.408 . S
C1069 C1068 1.404 . S
C1069 H1081 0.930 . S
C1070 C1066 1.524 . S
C1070 H1082 0.956 . S
C1070 H1083 0.961 . S
C1070 H1084 0.961 . S
C1071 C1068 1.539 . S
C1071 H1085 0.958 . S
C1071 H1086 0.961 . S
C1071 H1087 0.960 . S
H1072 C1056 0.931 . S
H1073 C1061 0.929 . S
H1074 C1062 0.960 . S
H1075 C1062 0.962 . S
H1076 C1062 0.960 . S
H1077 C1063 0.961 . S
H1078 C1063 0.961 . S
H1079 C1063 0.961 . S
H1080 C1064 0.931 . S
H1081 C1069 0.930 . S
H1082 C1070 0.956 . S
H1083 C1070 0.961 . S
H1084 C1070 0.961 . S
H1085 C1071 0.958 . S
H1086 C1071 0.961 . S
H1087 C1071 0.960 . S
C1088 C1089 1.391 . S
C1088 C1090 1.394 . S
C1088 H1104 0.931 . S
C1089 C1088 1.391 . S
C1089 C1093 1.376 1_455 S
C1090 C1088 1.394 . S
C1090 C1091 1.369 . S
C1090 C1094 1.531 . S
C1091 C1090 1.369 . S
C1091 C1092 1.410 1_455 S
C1091 C1099 1.505 . S
C1092 C1091 1.410 1_655 S
C1092 C1093 1.392 . S
C1092 C1095 1.511 . S
C1093 C1089 1.376 1_655 S
C1093 C1092 1.392 . S
C1093 H1105 0.929 . S
C1094 C1090 1.531 . S
C1094 H1106 0.960 . S
C1094 H1107 0.962 . S
C1094 H1108 0.960 . S
C1095 C1092 1.511 . S
C1095 H1109 0.961 . S
C1095 H1110 0.961 . S
C1095 H1111 0.961 . S
C1096 C1097 1.370 . S
C1096 C1098 1.363 . S
C1096 H1112 0.931 . S
C1097 C1096 1.370 . S
C1097 C1101 1.408 1_655 S
C1098 C1096 1.363 . S
C1098 C1099 1.377 1_655 S
C1098 C1102 1.524 . S
C1099 C1091 1.505 . S
C1099 C1098 1.377 1_455 S
C1099 C1100 1.396 . S
C1100 C1099 1.396 . S
C1100 C1101 1.404 . S
C1100 C1103 1.539 . S
C1101 C1097 1.408 1_455 S
C1101 C1100 1.404 . S
C1101 H1113 0.930 . S
C1102 C1098 1.524 . S
C1102 H1114 0.956 1_655 S
C1102 H1115 0.961 . S
C1102 H1116 0.961 . S
C1103 C1100 1.539 . S
C1103 H1117 0.958 . S
C1103 H1118 0.961 . S
C1103 H1119 0.960 . S
H1104 C1088 0.931 . S
H1105 C1093 0.929 . S
H1106 C1094 0.960 . S
H1107 C1094 0.962 . S
H1108 C1094 0.960 . S
H1109 C1095 0.961 . S
H1110 C1095 0.961 . S
H1111 C1095 0.961 . S
H1112 C1096 0.931 . S
H1113 C1101 0.930 . S
H1114 C1102 0.956 1_455 S
H1115 C1102 0.961 . S
H1116 C1102 0.961 . S
H1117 C1103 0.958 . S
H1118 C1103 0.961 . S
H1119 C1103 0.960 . S
C1120 C1121 1.391 1_565 S
C1120 C1122 1.394 . S
C1120 H1136 0.931 . S
C1121 C1120 1.391 1_545 S
C1121 C1125 1.376 . S
C1122 C1120 1.394 . S
C1122 C1123 1.369 . S
C1122 C1126 1.531 . S
C1123 C1122 1.369 . S
C1123 C1124 1.410 1_565 S
C1123 C1131 1.503 1_556 S
C1124 C1123 1.410 1_545 S
C1124 C1125 1.392 . S
C1124 C1127 1.511 . S
C1125 C1121 1.376 . S
C1125 C1124 1.392 . S
C1125 H1137 0.929 . S
C1126 C1122 1.531 . S
C1126 H1138 0.946 1_556 S
C1126 H1139 0.962 . S
C1126 H1140 0.960 . S
C1127 C1124 1.511 . S
C1127 H1141 0.961 . S
C1127 H1142 0.961 1_556 S
C1127 H1143 0.961 . S
C1128 C1129 1.370 1_545 S
C1128 C1130 1.363 . S
C1128 H1144 0.931 . S
C1129 C1128 1.370 1_565 S
C1129 C1133 1.408 . S
C1130 C1128 1.363 . S
C1130 C1131 1.370 1_545 S
C1130 C1134 1.524 . S
C1131 C1123 1.503 1_554 S
C1131 C1130 1.370 1_565 S
C1131 C1132 1.403 . S
C1132 C1131 1.403 . S
C1132 C1133 1.404 . S
C1132 C1135 1.539 . S
C1133 C1129 1.408 . S
C1133 C1132 1.404 . S
C1133 H1145 0.930 . S
C1134 C1130 1.524 . S
C1134 H1146 0.956 . S
C1134 H1147 0.961 . S
C1134 H1148 0.961 . S
C1135 C1132 1.539 . S
C1135 H1149 0.958 . S
C1135 H1150 0.961 . S
C1135 H1151 0.960 1_554 S
H1136 C1120 0.931 . S
H1137 C1125 0.929 . S
H1138 C1126 0.946 1_554 S
H1139 C1126 0.962 . S
H1140 C1126 0.960 . S
H1141 C1127 0.961 . S
H1142 C1127 0.961 1_554 S
H1143 C1127 0.961 . S
H1144 C1128 0.931 . S
H1145 C1133 0.930 . S
H1146 C1134 0.956 . S
H1147 C1134 0.961 . S
H1148 C1134 0.961 . S
H1149 C1135 0.958 . S
H1150 C1135 0.961 . S
H1151 C1135 0.960 1_556 S
C1152 C1153 1.391 . S
C1152 C1154 1.394 . S
C1152 H1168 0.931 . S
C1153 C1152 1.391 . S
C1153 C1157 1.376 . S
C1154 C1152 1.394 . S
C1154 C1155 1.369 . S
C1154 C1158 1.531 . S
C1155 C1154 1.369 . S
C1155 C1156 1.410 . S
C1155 C1163 1.503 . S
C1156 C1155 1.410 . S
C1156 C1157 1.392 . S
C1156 C1159 1.511 . S
C1157 C1153 1.376 . S
C1157 C1156 1.392 . S
C1157 H1169 0.929 . S
C1158 C1154 1.531 . S
C1158 H1170 0.960 . S
C1158 H1171 0.962 . S
C1158 H1172 0.960 . S
C1159 C1156 1.511 . S
C1159 H1173 0.961 . S
C1159 H1174 0.961 . S
C1159 H1175 0.961 . S
C1160 C1161 1.370 . S
C1160 C1162 1.363 . S
C1160 H1176 0.931 . S
C1161 C1160 1.370 . S
C1161 C1165 1.408 . S
C1162 C1160 1.363 . S
C1162 C1163 1.370 . S
C1162 C1166 1.524 . S
C1163 C1155 1.503 . S
C1163 C1162 1.370 . S
C1163 C1164 1.403 . S
C1164 C1163 1.403 . S
C1164 C1165 1.404 . S
C1164 C1167 1.539 . S
C1165 C1161 1.408 . S
C1165 C1164 1.404 . S
C1165 H1177 0.930 . S
C1166 C1162 1.524 . S
C1166 H1178 0.956 . S
C1166 H1179 0.961 . S
C1166 H1180 0.961 . S
C1167 C1164 1.539 . S
C1167 H1181 0.958 . S
C1167 H1182 0.961 . S
C1167 H1183 0.960 . S
H1168 C1152 0.931 . S
H1169 C1157 0.929 . S
H1170 C1158 0.960 . S
H1171 C1158 0.962 . S
H1172 C1158 0.960 . S
H1173 C1159 0.961 . S
H1174 C1159 0.961 . S
H1175 C1159 0.961 . S
H1176 C1160 0.931 . S
H1177 C1165 0.930 . S
H1178 C1166 0.956 . S
H1179 C1166 0.961 . S
H1180 C1166 0.961 . S
H1181 C1167 0.958 . S
H1182 C1167 0.961 . S
H1183 C1167 0.960 . S
C1184 C1185 1.391 1_655 S
C1184 C1186 1.394 . S
C1184 H1200 0.931 . S
C1185 C1184 1.391 1_455 S
C1185 C1189 1.376 . S
C1186 C1184 1.394 . S
C1186 C1187 1.369 1_655 S
C1186 C1190 1.531 . S
C1187 C1186 1.369 1_455 S
C1187 C1188 1.410 . S
C1187 C1195 1.503 . S
C1188 C1187 1.410 . S
C1188 C1189 1.392 . S
C1188 C1191 1.511 . S
C1189 C1185 1.376 . S
C1189 C1188 1.392 . S
C1189 H1201 0.929 . S
C1190 C1186 1.531 . S
C1190 H1202 0.960 . S
C1190 H1203 0.962 . S
C1190 H1204 0.960 . S
C1191 C1188 1.511 . S
C1191 H1205 0.961 . S
C1191 H1206 0.961 . S
C1191 H1207 0.961 . S
C1192 C1193 1.370 . S
C1192 C1194 1.363 . S
C1192 H1208 0.931 . S
C1193 C1192 1.370 . S
C1193 C1197 1.408 1_655 S
C1194 C1192 1.363 . S
C1194 C1195 1.370 1_655 S
C1194 C1198 1.524 . S
C1195 C1187 1.503 . S
C1195 C1194 1.370 1_455 S
C1195 C1196 1.403 . S
C1196 C1195 1.403 . S
C1196 C1197 1.404 . S
C1196 C1199 1.539 . S
C1197 C1193 1.408 1_455 S
C1197 C1196 1.404 . S
C1197 H1209 0.930 . S
C1198 C1194 1.524 . S
C1198 H1210 0.956 . S
C1198 H1211 0.961 . S
C1198 H1212 0.961 . S
C1199 C1196 1.539 . S
C1199 H1213 0.958 . S
C1199 H1214 0.961 . S
C1199 H1215 0.960 . S
H1200 C1184 0.931 . S
H1201 C1189 0.929 . S
H1202 C1190 0.960 . S
H1203 C1190 0.962 . S
H1204 C1190 0.960 . S
H1205 C1191 0.961 . S
H1206 C1191 0.961 . S
H1207 C1191 0.961 . S
H1208 C1192 0.931 . S
H1209 C1197 0.930 . S
H1210 C1198 0.956 . S
H1211 C1198 0.961 . S
H1212 C1198 0.961 . S
H1213 C1199 0.958 . S
H1214 C1199 0.961 . S
H1215 C1199 0.960 . S
C1216 C1217 1.391 . S
C1216 C1218 1.394 . S
C1216 H1232 0.931 . S
C1217 C1216 1.391 . S
C1217 C1221 1.376 1_545 S
C1218 C1216 1.394 . S
C1218 C1219 1.369 . S
C1218 C1222 1.531 . S
C1219 C1218 1.369 . S
C1219 C1220 1.410 1_545 S
C1219 C1227 1.503 1_554 S
C1220 C1219 1.410 1_565 S
C1220 C1221 1.392 . S
C1220 C1223 1.511 . S
C1221 C1217 1.376 1_565 S
C1221 C1220 1.392 . S
C1221 H1233 0.929 . S
C1222 C1218 1.531 . S
C1222 H1234 0.960 1_554 S
C1222 H1235 0.962 . S
C1222 H1236 0.960 . S
C1223 C1220 1.511 . S
C1223 H1237 0.961 . S
C1223 H1238 0.961 1_554 S
C1223 H1239 0.961 . S
C1224 C1225 1.370 . S
C1224 C1226 1.363 . S
C1224 H1240 0.931 . S
C1225 C1224 1.370 . S
C1225 C1229 1.408 1_565 S
C1226 C1224 1.363 . S
C1226 C1227 1.370 1_565 S
C1226 C1230 1.524 . S
C1227 C1219 1.503 1_556 S
C1227 C1226 1.370 1_545 S
C1227 C1228 1.403 . S
C1228 C1227 1.403 . S
C1228 C1229 1.404 . S
C1228 C1231 1.539 . S
C1229 C1225 1.408 1_545 S
C1229 C1228 1.404 . S
C1229 H1241 0.930 . S
C1230 C1226 1.524 . S
C1230 H1242 0.949 1_556 S
C1230 H1243 0.961 1_556 S
C1230 H1244 0.961 . S
C1231 C1228 1.539 . S
C1231 H1245 0.958 . S
C1231 H1246 0.961 . S
C1231 H1247 0.960 . S
H1232 C1216 0.931 . S
H1233 C1221 0.929 . S
H1234 C1222 0.960 1_556 S
H1235 C1222 0.962 . S
H1236 C1222 0.960 . S
H1237 C1223 0.961 . S
H1238 C1223 0.961 1_556 S
H1239 C1223 0.961 . S
H1240 C1224 0.931 . S
H1241 C1229 0.930 . S
H1242 C1230 0.949 1_554 S
H1243 C1230 0.961 1_554 S
H1244 C1230 0.961 . S
H1245 C1231 0.958 . S
H1246 C1231 0.961 . S
H1247 C1231 0.960 . S
C1248 C1249 1.391 . S
C1248 C1250 1.394 . S
C1248 H1264 0.931 . S
C1249 C1248 1.391 . S
C1249 C1253 1.376 . S
C1250 C1248 1.394 . S
C1250 C1251 1.369 . S
C1250 C1254 1.531 . S
C1251 C1250 1.369 . S
C1251 C1252 1.410 1_556 S
C1251 C1259 1.503 1_556 S
C1252 C1251 1.410 1_554 S
C1252 C1253 1.392 1_554 S
C1252 C1255 1.511 . S
C1253 C1249 1.376 . S
C1253 C1252 1.392 1_556 S
C1253 H1265 0.925 1_556 S
C1254 C1250 1.531 . S
C1254 H1266 0.960 . S
C1254 H1267 0.962 . S
C1254 H1268 0.960 . S
C1255 C1252 1.511 . S
C1255 H1269 0.961 . S
C1255 H1270 0.961 . S
C1255 H1271 0.961 . S
C1256 C1257 1.370 . S
C1256 C1258 1.366 . S
C1256 H1272 0.931 . S
C1257 C1256 1.370 . S
C1257 C1261 1.408 . S
C1258 C1256 1.366 . S
C1258 C1259 1.373 . S
C1258 C1262 1.520 1_554 S
C1259 C1251 1.503 1_554 S
C1259 C1258 1.373 . S
C1259 C1260 1.403 . S
C1260 C1259 1.403 . S
C1260 C1261 1.404 . S
C1260 C1263 1.539 . S
C1261 C1257 1.408 . S
C1261 C1260 1.404 . S
C1261 H1273 0.930 . S
C1262 C1258 1.520 1_556 S
C1262 H1274 0.956 . S
C1262 H1275 0.961 . S
C1262 H1276 0.961 . S
C1263 C1260 1.539 . S
C1263 H1277 0.958 . S
C1263 H1278 0.961 . S
C1263 H1279 0.960 . S
H1264 C1248 0.931 . S
H1265 C1253 0.925 1_554 S
H1266 C1254 0.960 . S
H1267 C1254 0.962 . S
H1268 C1254 0.960 . S
H1269 C1255 0.961 . S
H1270 C1255 0.961 . S
H1271 C1255 0.961 . S
H1272 C1256 0.931 . S
H1273 C1261 0.930 . S
H1274 C1262 0.956 . S
H1275 C1262 0.961 . S
H1276 C1262 0.961 . S
H1277 C1263 0.958 . S
H1278 C1263 0.961 . S
H1279 C1263 0.960 . S
C1280 C1281 1.391 . S
C1280 C1282 1.394 . S
C1280 H1296 0.931 . S
C1281 C1280 1.391 . S
C1281 C1285 1.376 . S
C1282 C1280 1.394 . S
C1282 C1283 1.369 . S
C1282 C1286 1.531 . S
C1283 C1282 1.369 . S
C1283 C1284 1.410 . S
C1283 C1291 1.503 . S
C1284 C1283 1.410 . S
C1284 C1285 1.392 . S
C1284 C1287 1.511 . S
C1285 C1281 1.376 . S
C1285 C1284 1.392 . S
C1285 H1297 0.929 . S
C1286 C1282 1.531 . S
C1286 H1298 0.960 . S
C1286 H1299 0.962 . S
C1286 H1300 0.960 . S
C1287 C1284 1.511 . S
C1287 H1301 0.961 . S
C1287 H1302 0.961 . S
C1287 H1303 0.961 . S
C1288 C1289 1.370 . S
C1288 C1290 1.363 . S
C1288 H1304 0.931 . S
C1289 C1288 1.370 . S
C1289 C1293 1.408 . S
C1290 C1288 1.363 . S
C1290 C1291 1.370 . S
C1290 C1294 1.524 . S
C1291 C1283 1.503 . S
C1291 C1290 1.370 . S
C1291 C1292 1.403 . S
C1292 C1291 1.403 . S
C1292 C1293 1.404 . S
C1292 C1295 1.539 . S
C1293 C1289 1.408 . S
C1293 C1292 1.404 . S
C1293 H1305 0.930 . S
C1294 C1290 1.524 . S
C1294 H1306 0.956 . S
C1294 H1307 0.961 . S
C1294 H1308 0.961 . S
C1295 C1292 1.539 . S
C1295 H1309 0.958 . S
C1295 H1310 0.961 . S
C1295 H1311 0.960 . S
H1296 C1280 0.931 . S
H1297 C1285 0.929 . S
H1298 C1286 0.960 . S
H1299 C1286 0.962 . S
H1300 C1286 0.960 . S
H1301 C1287 0.961 . S
H1302 C1287 0.961 . S
H1303 C1287 0.961 . S
H1304 C1288 0.931 . S
H1305 C1293 0.930 . S
H1306 C1294 0.956 . S
H1307 C1294 0.961 . S
H1308 C1294 0.961 . S
H1309 C1295 0.958 . S
H1310 C1295 0.961 . S
H1311 C1295 0.960 . S
C1312 C1313 1.391 . S
C1312 C1314 1.394 . S
C1312 H1328 0.931 . S
C1313 C1312 1.391 . S
C1313 C1317 1.376 . S
C1314 C1312 1.394 . S
C1314 C1315 1.369 . S
C1314 C1318 1.531 . S
C1315 C1314 1.369 . S
C1315 C1316 1.410 . S
C1315 C1323 1.503 . S
C1316 C1315 1.410 . S
C1316 C1317 1.392 . S
C1316 C1319 1.511 . S
C1317 C1313 1.376 . S
C1317 C1316 1.392 . S
C1317 H1329 0.929 . S
C1318 C1314 1.531 . S
C1318 H1330 0.960 . S
C1318 H1331 0.962 . S
C1318 H1332 0.960 . S
C1319 C1316 1.511 . S
C1319 H1333 0.961 . S
C1319 H1334 0.961 . S
C1319 H1335 0.961 . S
C1320 C1321 1.370 . S
C1320 C1322 1.363 . S
C1320 H1336 0.931 . S
C1321 C1320 1.370 . S
C1321 C1325 1.408 . S
C1322 C1320 1.363 . S
C1322 C1323 1.370 . S
C1322 C1326 1.524 . S
C1323 C1315 1.503 . S
C1323 C1322 1.370 . S
C1323 C1324 1.403 . S
C1324 C1323 1.403 . S
C1324 C1325 1.404 . S
C1324 C1327 1.539 . S
C1325 C1321 1.408 . S
C1325 C1324 1.404 . S
C1325 H1337 0.930 . S
C1326 C1322 1.524 . S
C1326 H1338 0.956 . S
C1326 H1339 0.961 . S
C1326 H1340 0.961 . S
C1327 C1324 1.539 . S
C1327 H1341 0.958 . S
C1327 H1342 0.961 . S
C1327 H1343 0.960 . S
H1328 C1312 0.931 . S
H1329 C1317 0.929 . S
H1330 C1318 0.960 . S
H1331 C1318 0.962 . S
H1332 C1318 0.960 . S
H1333 C1319 0.961 . S
H1334 C1319 0.961 . S
H1335 C1319 0.961 . S
H1336 C1320 0.931 . S
H1337 C1325 0.930 . S
H1338 C1326 0.956 . S
H1339 C1326 0.961 . S
H1340 C1326 0.961 . S
H1341 C1327 0.958 . S
H1342 C1327 0.961 . S
H1343 C1327 0.960 . S
C1344 C1345 1.391 . S
C1344 C1346 1.394 1_554 S
C1344 H1360 0.931 . S
C1345 C1344 1.391 . S
C1345 C1349 1.376 . S
C1346 C1344 1.394 1_556 S
C1346 C1347 1.369 1_556 S
C1346 C1350 1.531 . S
C1347 C1346 1.369 1_554 S
C1347 C1348 1.410 . S
C1347 C1355 1.503 1_554 S
C1348 C1347 1.410 . S
C1348 C1349 1.392 . S
C1348 C1351 1.511 . S
C1349 C1345 1.376 . S
C1349 C1348 1.392 . S
C1349 H1361 0.929 . S
C1350 C1346 1.531 . S
C1350 H1362 0.960 . S
C1350 H1363 0.962 . S
C1350 H1364 0.960 . S
C1351 C1348 1.511 . S
C1351 H1365 0.961 . S
C1351 H1366 0.961 . S
C1351 H1367 0.961 . S
C1352 C1353 1.370 . S
C1352 C1354 1.363 . S
C1352 H1368 0.931 . S
C1353 C1352 1.370 . S
C1353 C1357 1.408 . S
C1354 C1352 1.363 . S
C1354 C1355 1.370 . S
C1354 C1358 1.524 . S
C1355 C1347 1.503 1_556 S
C1355 C1354 1.370 . S
C1355 C1356 1.403 1_556 S
C1356 C1355 1.403 1_554 S
C1356 C1357 1.404 1_554 S
C1356 C1359 1.539 . S
C1357 C1353 1.408 . S
C1357 C1356 1.404 1_556 S
C1357 H1369 0.930 . S
C1358 C1354 1.524 . S
C1358 H1370 0.956 . S
C1358 H1371 0.961 . S
C1358 H1372 0.961 . S
C1359 C1356 1.539 . S
C1359 H1373 0.958 . S
C1359 H1374 0.961 . S
C1359 H1375 0.960 . S
H1360 C1344 0.931 . S
H1361 C1349 0.929 . S
H1362 C1350 0.960 . S
H1363 C1350 0.962 . S
H1364 C1350 0.960 . S
H1365 C1351 0.961 . S
H1366 C1351 0.961 . S
H1367 C1351 0.961 . S
H1368 C1352 0.931 . S
H1369 C1357 0.930 . S
H1370 C1358 0.956 . S
H1371 C1358 0.961 . S
H1372 C1358 0.961 . S
H1373 C1359 0.958 . S
H1374 C1359 0.961 . S
H1375 C1359 0.960 . S
C1376 C1377 1.391 . S
C1376 C1378 1.394 . S
C1376 H1392 0.931 . S
C1377 C1376 1.391 . S
C1377 C1381 1.376 . S
C1378 C1376 1.394 . S
C1378 C1379 1.369 . S
C1378 C1382 1.531 . S
C1379 C1378 1.369 . S
C1379 C1380 1.410 . S
C1379 C1387 1.503 . S
C1380 C1379 1.410 . S
C1380 C1381 1.392 . S
C1380 C1383 1.511 . S
C1381 C1377 1.376 . S
C1381 C1380 1.392 . S
C1381 H1393 0.929 . S
C1382 C1378 1.531 . S
C1382 H1394 0.960 . S
C1382 H1395 0.962 . S
C1382 H1396 0.960 . S
C1383 C1380 1.511 . S
C1383 H1397 0.961 . S
C1383 H1398 0.961 . S
C1383 H1399 0.961 . S
C1384 C1385 1.370 . S
C1384 C1386 1.363 . S
C1384 H1400 0.931 . S
C1385 C1384 1.370 . S
C1385 C1389 1.408 . S
C1386 C1384 1.363 . S
C1386 C1387 1.370 . S
C1386 C1390 1.524 . S
C1387 C1379 1.503 . S
C1387 C1386 1.370 . S
C1387 C1388 1.403 . S
C1388 C1387 1.403 . S
C1388 C1389 1.404 . S
C1388 C1391 1.539 . S
C1389 C1385 1.408 . S
C1389 C1388 1.404 . S
C1389 H1401 0.930 . S
C1390 C1386 1.524 . S
C1390 H1402 0.956 . S
C1390 H1403 0.961 . S
C1390 H1404 0.961 . S
C1391 C1388 1.539 . S
C1391 H1405 0.958 . S
C1391 H1406 0.961 . S
C1391 H1407 0.960 . S
H1392 C1376 0.931 . S
H1393 C1381 0.929 . S
H1394 C1382 0.960 . S
H1395 C1382 0.962 . S
H1396 C1382 0.960 . S
H1397 C1383 0.961 . S
H1398 C1383 0.961 . S
H1399 C1383 0.961 . S
H1400 C1384 0.931 . S
H1401 C1389 0.930 . S
H1402 C1390 0.956 . S
H1403 C1390 0.961 . S
H1404 C1390 0.961 . S
H1405 C1391 0.958 . S
H1406 C1391 0.961 . S
H1407 C1391 0.960 . S
C1408 C1409 1.391 . S
C1408 C1410 1.394 . S
C1408 H1424 0.931 . S
C1409 C1408 1.391 . S
C1409 C1413 1.376 . S
C1410 C1408 1.394 . S
C1410 C1411 1.369 . S
C1410 C1414 1.531 . S
C1411 C1410 1.369 . S
C1411 C1412 1.410 . S
C1411 C1419 1.503 . S
C1412 C1411 1.410 . S
C1412 C1413 1.392 . S
C1412 C1415 1.511 . S
C1413 C1409 1.376 . S
C1413 C1412 1.392 . S
C1413 H1425 0.929 . S
C1414 C1410 1.531 . S
C1414 H1426 0.960 . S
C1414 H1427 0.962 . S
C1414 H1428 0.960 . S
C1415 C1412 1.511 . S
C1415 H1429 0.961 . S
C1415 H1430 0.961 . S
C1415 H1431 0.961 . S
C1416 C1417 1.370 . S
C1416 C1418 1.363 . S
C1416 H1432 0.931 . S
C1417 C1416 1.370 . S
C1417 C1421 1.408 . S
C1418 C1416 1.363 . S
C1418 C1419 1.370 . S
C1418 C1422 1.524 . S
C1419 C1411 1.503 . S
C1419 C1418 1.370 . S
C1419 C1420 1.403 . S
C1420 C1419 1.403 . S
C1420 C1421 1.404 . S
C1420 C1423 1.539 . S
C1421 C1417 1.408 . S
C1421 C1420 1.404 . S
C1421 H1433 0.930 . S
C1422 C1418 1.524 . S
C1422 H1434 0.956 . S
C1422 H1435 0.961 . S
C1422 H1436 0.961 . S
C1423 C1420 1.539 . S
C1423 H1437 0.958 . S
C1423 H1438 0.961 . S
C1423 H1439 0.960 . S
H1424 C1408 0.931 . S
H1425 C1413 0.929 . S
H1426 C1414 0.960 . S
H1427 C1414 0.962 . S
H1428 C1414 0.960 . S
H1429 C1415 0.961 . S
H1430 C1415 0.961 . S
H1431 C1415 0.961 . S
H1432 C1416 0.931 . S
H1433 C1421 0.930 . S
H1434 C1422 0.956 . S
H1435 C1422 0.961 . S
H1436 C1422 0.961 . S
H1437 C1423 0.958 . S
H1438 C1423 0.961 . S
H1439 C1423 0.960 . S
C1440 C1441 1.391 . S
C1440 C1442 1.394 . S
C1440 H1456 0.931 . S
C1441 C1440 1.391 . S
C1441 C1445 1.376 . S
C1442 C1440 1.394 . S
C1442 C1443 1.369 . S
C1442 C1446 1.531 . S
C1443 C1442 1.369 . S
C1443 C1444 1.410 . S
C1443 C1451 1.503 . S
C1444 C1443 1.410 . S
C1444 C1445 1.392 . S
C1444 C1447 1.511 . S
C1445 C1441 1.376 . S
C1445 C1444 1.392 . S
C1445 H1457 0.929 . S
C1446 C1442 1.531 . S
C1446 H1458 0.960 . S
C1446 H1459 0.962 . S
C1446 H1460 0.960 . S
C1447 C1444 1.511 . S
C1447 H1461 0.961 . S
C1447 H1462 0.961 . S
C1447 H1463 0.961 . S
C1448 C1449 1.370 . S
C1448 C1450 1.363 . S
C1448 H1464 0.931 . S
C1449 C1448 1.370 . S
C1449 C1453 1.408 . S
C1450 C1448 1.363 . S
C1450 C1451 1.370 . S
C1450 C1454 1.524 . S
C1451 C1443 1.503 . S
C1451 C1450 1.370 . S
C1451 C1452 1.403 . S
C1452 C1451 1.403 . S
C1452 C1453 1.404 . S
C1452 C1455 1.539 . S
C1453 C1449 1.408 . S
C1453 C1452 1.404 . S
C1453 H1465 0.930 . S
C1454 C1450 1.524 . S
C1454 H1466 0.956 . S
C1454 H1467 0.961 . S
C1454 H1468 0.961 . S
C1455 C1452 1.539 . S
C1455 H1469 0.958 . S
C1455 H1470 0.961 . S
C1455 H1471 0.960 . S
H1456 C1440 0.931 . S
H1457 C1445 0.929 . S
H1458 C1446 0.960 . S
H1459 C1446 0.962 . S
H1460 C1446 0.960 . S
H1461 C1447 0.961 . S
H1462 C1447 0.961 . S
H1463 C1447 0.961 . S
H1464 C1448 0.931 . S
H1465 C1453 0.930 . S
H1466 C1454 0.956 . S
H1467 C1454 0.961 . S
H1468 C1454 0.961 . S
H1469 C1455 0.958 . S
H1470 C1455 0.961 . S
H1471 C1455 0.960 . S
C1472 C1473 1.391 . S
C1472 C1474 1.399 . S
C1472 H1488 0.931 . S
C1473 C1472 1.391 . S
C1473 C1477 1.376 . S
C1474 C1472 1.399 . S
C1474 C1475 1.381 . S
C1474 C1478 1.513 1_455 S
C1475 C1474 1.381 . S
C1475 C1476 1.410 . S
C1475 C1483 1.503 1_455 S
C1476 C1475 1.410 . S
C1476 C1477 1.392 . S
C1476 C1479 1.511 . S
C1477 C1473 1.376 . S
C1477 C1476 1.392 . S
C1477 H1489 0.929 . S
C1478 C1474 1.513 1_655 S
C1478 H1490 0.960 . S
C1478 H1491 0.962 . S
C1478 H1492 0.960 . S
C1479 C1476 1.511 . S
C1479 H1493 0.961 . S
C1479 H1494 0.961 . S
C1479 H1495 0.961 . S
C1480 C1481 1.370 . S
C1480 C1482 1.363 . S
C1480 H1496 0.931 . S
C1481 C1480 1.370 . S
C1481 C1485 1.408 . S
C1482 C1480 1.363 . S
C1482 C1483 1.370 . S
C1482 C1486 1.524 . S
C1483 C1475 1.503 1_655 S
C1483 C1482 1.370 . S
C1483 C1484 1.403 1_655 S
C1484 C1483 1.403 1_455 S
C1484 C1485 1.404 1_455 S
C1484 C1487 1.539 . S
C1485 C1481 1.408 . S
C1485 C1484 1.404 1_655 S
C1485 H1497 0.930 1_655 S
C1486 C1482 1.524 . S
C1486 H1498 0.956 . S
C1486 H1499 0.961 . S
C1486 H1500 0.961 . S
C1487 C1484 1.539 . S
C1487 H1501 0.958 . S
C1487 H1502 0.961 . S
C1487 H1503 0.960 . S
H1488 C1472 0.931 . S
H1489 C1477 0.929 . S
H1490 C1478 0.960 . S
H1491 C1478 0.962 . S
H1492 C1478 0.960 . S
H1493 C1479 0.961 . S
H1494 C1479 0.961 . S
H1495 C1479 0.961 . S
H1496 C1480 0.931 . S
H1497 C1485 0.930 1_455 S
H1498 C1486 0.956 . S
H1499 C1486 0.961 . S
H1500 C1486 0.961 . S
H1501 C1487 0.958 . S
H1502 C1487 0.961 . S
H1503 C1487 0.960 . S
C1504 C1505 1.391 . S
C1504 C1506 1.394 . S
C1504 H1520 0.931 . S
C1505 C1504 1.391 . S
C1505 C1509 1.376 1_545 S
C1506 C1504 1.394 . S
C1506 C1507 1.369 . S
C1506 C1510 1.531 . S
C1507 C1506 1.369 . S
C1507 C1508 1.410 1_545 S
C1507 C1515 1.503 1_545 S
C1508 C1507 1.410 1_565 S
C1508 C1509 1.392 . S
C1508 C1511 1.511 . S
C1509 C1505 1.376 1_565 S
C1509 C1508 1.392 . S
C1509 H1521 0.929 . S
C1510 C1506 1.531 . S
C1510 H1522 0.960 . S
C1510 H1523 0.962 . S
C1510 H1524 0.960 . S
C1511 C1508 1.511 . S
C1511 H1525 0.961 . S
C1511 H1526 0.961 . S
C1511 H1527 0.961 . S
C1512 C1513 1.370 . S
C1512 C1514 1.363 . S
C1512 H1528 0.931 . S
C1513 C1512 1.370 . S
C1513 C1517 1.408 . S
C1514 C1512 1.363 . S
C1514 C1515 1.370 . S
C1514 C1518 1.524 . S
C1515 C1507 1.503 1_565 S
C1515 C1514 1.370 . S
C1515 C1516 1.403 . S
C1516 C1515 1.403 . S
C1516 C1517 1.404 . S
C1516 C1519 1.539 . S
C1517 C1513 1.408 . S
C1517 C1516 1.404 . S
C1517 H1529 0.930 . S
C1518 C1514 1.524 . S
C1518 H1530 0.956 1_565 S
C1518 H1531 0.961 . S
C1518 H1532 0.961 . S
C1519 C1516 1.539 . S
C1519 H1533 0.958 1_565 S
C1519 H1534 0.961 . S
C1519 H1535 0.960 . S
H1520 C1504 0.931 . S
H1521 C1509 0.929 . S
H1522 C1510 0.960 . S
H1523 C1510 0.962 . S
H1524 C1510 0.960 . S
H1525 C1511 0.961 . S
H1526 C1511 0.961 . S
H1527 C1511 0.961 . S
H1528 C1512 0.931 . S
H1529 C1517 0.930 . S
H1530 C1518 0.956 1_545 S
H1531 C1518 0.961 . S
H1532 C1518 0.961 . S
H1533 C1519 0.958 1_545 S
H1534 C1519 0.961 . S
H1535 C1519 0.960 . S
C1536 C1537 1.391 . S
C1536 C1538 1.394 . S
C1536 H1552 0.931 . S
C1537 C1536 1.391 . S
C1537 C1541 1.376 . S
C1538 C1536 1.394 . S
C1538 C1539 1.369 . S
C1538 C1542 1.531 . S
C1539 C1538 1.369 . S
C1539 C1540 1.410 . S
C1539 C1547 1.503 . S
C1540 C1539 1.410 . S
C1540 C1541 1.392 . S
C1540 C1543 1.511 . S
C1541 C1537 1.376 . S
C1541 C1540 1.392 . S
C1541 H1553 0.929 . S
C1542 C1538 1.531 . S
C1542 H1554 0.960 . S
C1542 H1555 0.962 . S
C1542 H1556 0.960 . S
C1543 C1540 1.511 . S
C1543 H1557 0.961 . S
C1543 H1558 0.961 . S
C1543 H1559 0.961 . S
C1544 C1545 1.370 . S
C1544 C1546 1.363 . S
C1544 H1560 0.931 . S
C1545 C1544 1.370 . S
C1545 C1549 1.408 . S
C1546 C1544 1.363 . S
C1546 C1547 1.370 . S
C1546 C1550 1.524 . S
C1547 C1539 1.503 . S
C1547 C1546 1.370 . S
C1547 C1548 1.403 . S
C1548 C1547 1.403 . S
C1548 C1549 1.404 . S
C1548 C1551 1.539 . S
C1549 C1545 1.408 . S
C1549 C1548 1.404 . S
C1549 H1561 0.930 . S
C1550 C1546 1.524 . S
C1550 H1562 0.956 . S
C1550 H1563 0.961 . S
C1550 H1564 0.961 . S
C1551 C1548 1.539 . S
C1551 H1565 0.958 . S
C1551 H1566 0.961 . S
C1551 H1567 0.960 . S
H1552 C1536 0.931 . S
H1553 C1541 0.929 . S
H1554 C1542 0.960 . S
H1555 C1542 0.962 . S
H1556 C1542 0.960 . S
H1557 C1543 0.961 . S
H1558 C1543 0.961 . S
H1559 C1543 0.961 . S
H1560 C1544 0.931 . S
H1561 C1549 0.930 . S
H1562 C1550 0.956 . S
H1563 C1550 0.961 . S
H1564 C1550 0.961 . S
H1565 C1551 0.958 . S
H1566 C1551 0.961 . S
H1567 C1551 0.960 . S
C1568 C1569 1.391 . S
C1568 C1570 1.394 . S
C1568 H1584 0.931 . S
C1569 C1568 1.391 . S
C1569 C1573 1.376 . S
C1570 C1568 1.394 . S
C1570 C1571 1.361 1_655 S
C1570 C1574 1.531 . S
C1571 C1570 1.361 1_455 S
C1571 C1572 1.414 1_455 S
C1571 C1579 1.506 . S
C1572 C1571 1.414 1_655 S
C1572 C1573 1.392 . S
C1572 C1575 1.512 1_655 S
C1573 C1569 1.376 . S
C1573 C1572 1.392 . S
C1573 H1585 0.929 . S
C1574 C1570 1.531 . S
C1574 H1586 0.960 1_655 S
C1574 H1587 0.962 . S
C1574 H1588 0.960 . S
C1575 C1572 1.512 1_455 S
C1575 H1589 0.961 . S
C1575 H1590 0.961 . S
C1575 H1591 0.961 . S
C1576 C1577 1.366 1_655 S
C1576 C1578 1.365 . S
C1576 H1592 0.934 . S
C1577 C1576 1.366 1_455 S
C1577 C1581 1.408 . S
C1578 C1576 1.365 . S
C1578 C1579 1.370 1_655 S
C1578 C1582 1.524 . S
C1579 C1571 1.506 . S
C1579 C1578 1.370 1_455 S
C1579 C1580 1.403 . S
C1580 C1579 1.403 . S
C1580 C1581 1.404 . S
C1580 C1583 1.539 . S
C1581 C1577 1.408 . S
C1581 C1580 1.404 . S
C1581 H1593 0.930 . S
C1582 C1578 1.524 . S
C1582 H1594 0.956 . S
C1582 H1595 0.961 . S
C1582 H1596 0.961 . S
C1583 C1580 1.539 . S
C1583 H1597 0.958 . S
C1583 H1598 0.961 . S
C1583 H1599 0.960 . S
H1584 C1568 0.931 . S
H1585 C1573 0.929 . S
H1586 C1574 0.960 1_455 S
H1587 C1574 0.962 . S
H1588 C1574 0.960 . S
H1589 C1575 0.961 . S
H1590 C1575 0.961 . S
H1591 C1575 0.961 . S
H1592 C1576 0.934 . S
H1593 C1581 0.930 . S
H1594 C1582 0.956 . S
H1595 C1582 0.961 . S
H1596 C1582 0.961 . S
H1597 C1583 0.958 . S
H1598 C1583 0.961 . S
H1599 C1583 0.960 . S
C1600 C1601 1.391 . S
C1600 C1602 1.394 . S
C1600 H1616 0.931 . S
C1601 C1600 1.391 . S
C1601 C1605 1.415 . S
C1602 C1600 1.394 . S
C1602 C1603 1.369 . S
C1602 C1606 1.531 . S
C1603 C1602 1.369 . S
C1603 C1604 1.410 1_545 S
C1603 C1611 1.503 1_545 S
C1604 C1603 1.410 1_565 S
C1604 C1605 1.377 1_565 S
C1604 C1607 1.511 . S
C1605 C1601 1.415 . S
C1605 C1604 1.377 1_545 S
C1605 H1617 0.909 1_545 S
C1606 C1602 1.531 . S
C1606 H1618 0.960 . S
C1606 H1619 0.962 . S
C1606 H1620 0.960 . S
C1607 C1604 1.511 . S
C1607 H1621 0.961 . S
C1607 H1622 0.961 . S
C1607 H1623 0.961 . S
C1608 C1609 1.370 . S
C1608 C1610 1.363 . S
C1608 H1624 0.931 . S
C1609 C1608 1.370 . S
C1609 C1613 1.408 . S
C1610 C1608 1.363 . S
C1610 C1611 1.370 . S
C1610 C1614 1.524 . S
C1611 C1603 1.503 1_565 S
C1611 C1610 1.370 . S
C1611 C1612 1.401 . S
C1612 C1611 1.401 . S
C1612 C1613 1.403 . S
C1612 C1615 1.542 1_565 S
C1613 C1609 1.408 . S
C1613 C1612 1.403 . S
C1613 H1625 0.930 . S
C1614 C1610 1.524 . S
C1614 H1626 0.956 . S
C1614 H1627 0.961 . S
C1614 H1628 0.961 . S
C1615 C1612 1.542 1_545 S
C1615 H1629 0.958 . S
C1615 H1630 0.961 . S
C1615 H1631 0.960 . S
H1616 C1600 0.931 . S
H1617 C1605 0.909 1_565 S
H1618 C1606 0.960 . S
H1619 C1606 0.962 . S
H1620 C1606 0.960 . S
H1621 C1607 0.961 . S
H1622 C1607 0.961 . S
H1623 C1607 0.961 . S
H1624 C1608 0.931 . S
H1625 C1613 0.930 . S
H1626 C1614 0.956 . S
H1627 C1614 0.961 . S
H1628 C1614 0.961 . S
H1629 C1615 0.958 . S
H1630 C1615 0.961 . S
H1631 C1615 0.960 . S
C1632 C1633 1.391 . S
C1632 C1634 1.394 . S
C1632 H1648 0.931 . S
C1633 C1632 1.391 . S
C1633 C1637 1.376 . S
C1634 C1632 1.394 . S
C1634 C1635 1.369 . S
C1634 C1638 1.531 . S
C1635 C1634 1.369 . S
C1635 C1636 1.410 . S
C1635 C1643 1.503 . S
C1636 C1635 1.410 . S
C1636 C1637 1.392 . S
C1636 C1639 1.511 . S
C1637 C1633 1.376 . S
C1637 C1636 1.392 . S
C1637 H1649 0.929 . S
C1638 C1634 1.531 . S
C1638 H1650 0.960 . S
C1638 H1651 0.962 . S
C1638 H1652 0.960 . S
C1639 C1636 1.511 . S
C1639 H1653 0.961 . S
C1639 H1654 0.961 . S
C1639 H1655 0.961 . S
C1640 C1641 1.370 . S
C1640 C1642 1.363 . S
C1640 H1656 0.931 . S
C1641 C1640 1.370 . S
C1641 C1645 1.408 . S
C1642 C1640 1.363 . S
C1642 C1643 1.370 . S
C1642 C1646 1.524 . S
C1643 C1635 1.503 . S
C1643 C1642 1.370 . S
C1643 C1644 1.403 . S
C1644 C1643 1.403 . S
C1644 C1645 1.404 . S
C1644 C1647 1.539 . S
C1645 C1641 1.408 . S
C1645 C1644 1.404 . S
C1645 H1657 0.930 . S
C1646 C1642 1.524 . S
C1646 H1658 0.957 1_554 S
C1646 H1659 0.961 . S
C1646 H1660 0.961 1_554 S
C1647 C1644 1.539 . S
C1647 H1661 0.958 . S
C1647 H1662 0.961 . S
C1647 H1663 0.960 . S
H1648 C1632 0.931 . S
H1649 C1637 0.929 . S
H1650 C1638 0.960 . S
H1651 C1638 0.962 . S
H1652 C1638 0.960 . S
H1653 C1639 0.961 . S
H1654 C1639 0.961 . S
H1655 C1639 0.961 . S
H1656 C1640 0.931 . S
H1657 C1645 0.930 . S
H1658 C1646 0.957 1_556 S
H1659 C1646 0.961 . S
H1660 C1646 0.961 1_556 S
H1661 C1647 0.958 . S
H1662 C1647 0.961 . S
H1663 C1647 0.960 . S
C1664 C1665 1.391 . S
C1664 C1666 1.394 . S
C1664 H1680 0.931 . S
C1665 C1664 1.391 . S
C1665 C1669 1.376 . S
C1666 C1664 1.394 . S
C1666 C1667 1.369 . S
C1666 C1670 1.531 . S
C1667 C1666 1.369 . S
C1667 C1668 1.410 . S
C1667 C1675 1.503 1_455 S
C1668 C1667 1.410 . S
C1668 C1669 1.392 . S
C1668 C1671 1.511 1_455 S
C1669 C1665 1.376 . S
C1669 C1668 1.392 . S
C1669 H1681 0.929 . S
C1670 C1666 1.531 . S
C1670 H1682 0.960 . S
C1670 H1683 0.962 . S
C1670 H1684 0.960 . S
C1671 C1668 1.511 1_655 S
C1671 H1685 0.961 . S
C1671 H1686 0.961 . S
C1671 H1687 0.961 1_655 S
C1672 C1673 1.370 . S
C1672 C1674 1.363 . S
C1672 H1688 0.931 . S
C1673 C1672 1.370 . S
C1673 C1677 1.408 . S
C1674 C1672 1.363 . S
C1674 C1675 1.370 . S
C1674 C1678 1.524 . S
C1675 C1667 1.503 1_655 S
C1675 C1674 1.370 . S
C1675 C1676 1.364 1_655 S
C1676 C1675 1.364 1_455 S
C1676 C1677 1.393 1_455 S
C1676 C1679 1.589 . S
C1677 C1673 1.408 . S
C1677 C1676 1.393 1_655 S
C1677 H1689 0.930 . S
C1678 C1674 1.524 . S
C1678 H1690 0.956 . S
C1678 H1691 0.961 . S
C1678 H1692 0.961 . S
C1679 C1676 1.589 . S
C1679 H1693 0.958 . S
C1679 H1694 0.961 . S
C1679 H1695 0.960 . S
H1680 C1664 0.931 . S
H1681 C1669 0.929 . S
H1682 C1670 0.960 . S
H1683 C1670 0.962 . S
H1684 C1670 0.960 . S
H1685 C1671 0.961 . S
H1686 C1671 0.961 . S
H1687 C1671 0.961 1_455 S
H1688 C1672 0.931 . S
H1689 C1677 0.930 . S
H1690 C1678 0.956 . S
H1691 C1678 0.961 . S
H1692 C1678 0.961 . S
H1693 C1679 0.958 . S
H1694 C1679 0.961 . S
H1695 C1679 0.960 . S
C1696 C1697 1.391 . S
C1696 C1698 1.394 . S
C1696 H1712 0.931 . S
C1697 C1696 1.391 . S
C1697 C1701 1.376 . S
C1698 C1696 1.394 . S
C1698 C1699 1.369 . S
C1698 C1702 1.531 1_565 S
C1699 C1698 1.369 . S
C1699 C1700 1.410 . S
C1699 C1707 1.503 1_565 S
C1700 C1699 1.410 . S
C1700 C1701 1.392 . S
C1700 C1703 1.511 . S
C1701 C1697 1.376 . S
C1701 C1700 1.392 . S
C1701 H1713 0.929 . S
C1702 C1698 1.531 1_545 S
C1702 H1714 0.960 . S
C1702 H1715 0.962 . S
C1702 H1716 0.960 . S
C1703 C1700 1.511 . S
C1703 H1717 0.961 . S
C1703 H1718 0.961 . S
C1703 H1719 0.961 . S
C1704 C1705 1.370 . S
C1704 C1706 1.363 . S
C1704 H1720 0.931 . S
C1705 C1704 1.370 . S
C1705 C1709 1.408 . S
C1706 C1704 1.363 . S
C1706 C1707 1.370 . S
C1706 C1710 1.524 . S
C1707 C1699 1.503 1_545 S
C1707 C1706 1.370 . S
C1707 C1708 1.403 . S
C1708 C1707 1.403 . S
C1708 C1709 1.404 . S
C1708 C1711 1.539 1_545 S
C1709 C1705 1.408 . S
C1709 C1708 1.404 . S
C1709 H1721 0.930 . S
C1710 C1706 1.524 . S
C1710 H1722 0.956 . S
C1710 H1723 0.985 . S
C1710 H1724 0.961 . S
C1711 C1708 1.539 1_565 S
C1711 H1725 0.958 1_565 S
C1711 H1726 0.961 . S
C1711 H1727 0.960 . S
H1712 C1696 0.931 . S
H1713 C1701 0.929 . S
H1714 C1702 0.960 . S
H1715 C1702 0.962 . S
H1716 C1702 0.960 . S
H1717 C1703 0.961 . S
H1718 C1703 0.961 . S
H1719 C1703 0.961 . S
H1720 C1704 0.931 . S
H1721 C1709 0.930 . S
H1722 C1710 0.956 . S
H1723 C1710 0.985 . S
H1724 C1710 0.961 . S
H1725 C1711 0.958 1_545 S
H1726 C1711 0.961 . S
H1727 C1711 0.960 . S
C1728 C1729 1.391 . S
C1728 C1730 1.394 . S
C1728 H1744 0.931 . S
C1729 C1728 1.391 . S
C1729 C1733 1.376 . S
C1730 C1728 1.394 . S
C1730 C1731 1.369 . S
C1730 C1734 1.531 . S
C1731 C1730 1.369 . S
C1731 C1732 1.410 . S
C1731 C1739 1.503 . S
C1732 C1731 1.410 . S
C1732 C1733 1.392 . S
C1732 C1735 1.511 . S
C1733 C1729 1.376 . S
C1733 C1732 1.392 . S
C1733 H1745 0.929 . S
C1734 C1730 1.531 . S
C1734 H1746 0.960 . S
C1734 H1747 0.962 . S
C1734 H1748 0.960 . S
C1735 C1732 1.511 . S
C1735 H1749 0.961 . S
C1735 H1750 0.961 . S
C1735 H1751 0.961 . S
C1736 C1737 1.370 . S
C1736 C1738 1.363 . S
C1736 H1752 0.931 . S
C1737 C1736 1.370 . S
C1737 C1741 1.408 . S
C1738 C1736 1.363 . S
C1738 C1739 1.370 . S
C1738 C1742 1.524 . S
C1739 C1731 1.503 . S
C1739 C1738 1.370 . S
C1739 C1740 1.403 . S
C1740 C1739 1.403 . S
C1740 C1741 1.404 . S
C1740 C1743 1.539 . S
C1741 C1737 1.408 . S
C1741 C1740 1.404 . S
C1741 H1753 0.930 . S
C1742 C1738 1.524 . S
C1742 H1754 0.956 . S
C1742 H1755 0.961 . S
C1742 H1756 0.961 . S
C1743 C1740 1.539 . S
C1743 H1757 0.958 . S
C1743 H1758 0.961 . S
C1743 H1759 0.960 . S
H1744 C1728 0.931 . S
H1745 C1733 0.929 . S
H1746 C1734 0.960 . S
H1747 C1734 0.962 . S
H1748 C1734 0.960 . S
H1749 C1735 0.961 . S
H1750 C1735 0.961 . S
H1751 C1735 0.961 . S
H1752 C1736 0.931 . S
H1753 C1741 0.930 . S
H1754 C1742 0.956 . S
H1755 C1742 0.961 . S
H1756 C1742 0.961 . S
H1757 C1743 0.958 . S
H1758 C1743 0.961 . S
H1759 C1743 0.960 . S
C1760 C1761 1.391 . S
C1760 C1762 1.394 . S
C1760 H1776 0.931 . S
C1761 C1760 1.391 . S
C1761 C1765 1.376 . S
C1762 C1760 1.394 . S
C1762 C1763 1.369 . S
C1762 C1766 1.531 . S
C1763 C1762 1.369 . S
C1763 C1764 1.420 1_655 S
C1763 C1771 1.503 1_655 S
C1764 C1763 1.420 1_455 S
C1764 C1765 1.340 1_455 S
C1764 C1767 1.553 . S
C1765 C1761 1.376 . S
C1765 C1764 1.340 1_655 S
C1765 H1777 0.929 . S
C1766 C1762 1.531 . S
C1766 H1778 0.960 . S
C1766 H1779 0.962 . S
C1766 H1780 0.960 . S
C1767 C1764 1.553 . S
C1767 H1781 0.961 . S
C1767 H1782 0.961 . S
C1767 H1783 0.961 . S
C1768 C1769 1.370 . S
C1768 C1770 1.363 . S
C1768 H1784 0.931 . S
C1769 C1768 1.370 . S
C1769 C1773 1.408 . S
C1770 C1768 1.363 . S
C1770 C1771 1.370 . S
C1770 C1774 1.524 1_455 S
C1771 C1763 1.503 1_455 S
C1771 C1770 1.370 . S
C1771 C1772 1.403 . S
C1772 C1771 1.403 . S
C1772 C1773 1.404 . S
C1772 C1775 1.539 . S
C1773 C1769 1.408 . S
C1773 C1772 1.404 . S
C1773 H1785 0.930 . S
C1774 C1770 1.524 1_655 S
C1774 H1786 0.956 . S
C1774 H1787 0.961 . S
C1774 H1788 0.961 1_556 S
C1775 C1772 1.539 . S
C1775 H1789 0.958 . S
C1775 H1790 0.961 . S
C1775 H1791 0.960 . S
H1776 C1760 0.931 . S
H1777 C1765 0.929 . S
H1778 C1766 0.960 . S
H1779 C1766 0.962 . S
H1780 C1766 0.960 . S
H1781 C1767 0.961 . S
H1782 C1767 0.961 . S
H1783 C1767 0.961 . S
H1784 C1768 0.931 . S
H1785 C1773 0.930 . S
H1786 C1774 0.956 . S
H1787 C1774 0.961 . S
H1788 C1774 0.961 1_554 S
H1789 C1775 0.958 . S
H1790 C1775 0.961 . S
H1791 C1775 0.960 . S
C1792 C1793 1.391 . S
C1792 C1794 1.386 1_545 S
C1792 H1808 0.931 . S
C1793 C1792 1.391 . S
C1793 C1797 1.376 . S
C1794 C1792 1.386 1_565 S
C1794 C1795 1.327 1_565 S
C1794 C1798 1.583 . S
C1795 C1794 1.327 1_545 S
C1795 C1796 1.410 . S
C1795 C1803 1.503 1_545 S
C1796 C1795 1.410 . S
C1796 C1797 1.392 . S
C1796 C1799 1.511 . S
C1797 C1793 1.376 . S
C1797 C1796 1.392 . S
C1797 H1809 0.929 . S
C1798 C1794 1.583 . S
C1798 H1810 0.960 . S
C1798 H1811 0.962 . S
C1798 H1812 0.960 . S
C1799 C1796 1.511 . S
C1799 H1813 0.961 . S
C1799 H1814 0.961 . S
C1799 H1815 0.961 . S
C1800 C1801 1.370 . S
C1800 C1802 1.363 . S
C1800 H1816 0.931 . S
C1801 C1800 1.370 . S
C1801 C1805 1.408 . S
C1802 C1800 1.363 . S
C1802 C1803 1.370 . S
C1802 C1806 1.524 1_565 S
C1803 C1795 1.503 1_565 S
C1803 C1802 1.370 . S
C1803 C1804 1.403 . S
C1804 C1803 1.403 . S
C1804 C1805 1.404 . S
C1804 C1807 1.539 . S
C1805 C1801 1.408 . S
C1805 C1804 1.404 . S
C1805 H1817 0.930 . S
C1806 C1802 1.524 1_545 S
C1806 H1818 0.956 1_545 S
C1806 H1819 0.961 . S
C1806 H1820 0.967 1_545 S
C1807 C1804 1.539 . S
C1807 H1821 0.958 . S
C1807 H1822 0.961 . S
C1807 H1823 0.960 . S
H1808 C1792 0.931 . S
H1809 C1797 0.929 . S
H1810 C1798 0.960 . S
H1811 C1798 0.962 . S
H1812 C1798 0.960 . S
H1813 C1799 0.961 . S
H1814 C1799 0.961 . S
H1815 C1799 0.961 . S
H1816 C1800 0.931 . S
H1817 C1805 0.930 . S
H1818 C1806 0.956 1_565 S
H1819 C1806 0.961 . S
H1820 C1806 0.967 1_565 S
H1821 C1807 0.958 . S
H1822 C1807 0.961 . S
H1823 C1807 0.960 . S
C1057 C29 1.553 . S
C1065 C841 1.594 . S
C1089 C108 1.572 1_455 S
C1097 C937 1.577 1_655 S
C1121 C196 1.569 1_545 S
C1129 C1025 1.598 1_565 S
C1153 C284 1.586 . S
C1161 C577 1.574 . S
C1185 C673 1.611 1_455 S
C1193 C381 1.580 1_655 S
C1217 C753 1.592 1_545 S
C1225 C469 1.573 1_565 S
C1249 C929 1.280 . S
C1257 C20 1.302 . S
C1281 C117 1.314 . S
C1289 C1017 1.285 . S
C1313 C205 1.265 . S
C1321 C585 1.297 . S
C1345 C293 1.298 . S
C1353 C665 1.283 . S
C1377 C372 1.273 . S
C1385 C761 1.293 . S
C1409 C460 1.264 . S
C1417 C849 1.299 . S
C1441 C812 0.750 . S
C1449 C57 0.824 . S
C1473 C137 0.835 . S
C1481 C909 0.747 . S
C1505 C225 0.823 . S
C1513 C997 0.807 . S
C1537 C548 0.867 . S
C1545 C313 0.750 . S
C1569 C409 0.707 . S
C1577 C645 0.823 . S
C1601 C724 0.853 . S
C1609 C497 0.792 . S
C1633 C49 1.654 . S
C1641 C321 1.649 . S
C1665 C401 1.676 . S
C1673 C145 1.638 . S
C1697 C233 1.656 . S
C1705 C489 1.642 . S
C1729 C557 1.647 . S
C1737 C821 1.645 . S
C1761 C636 1.632 . S
C1769 C900 1.658 . S
C1793 C988 1.636 . S
C1801 C733 1.650 . S
