# Generated by pormake.
# Topology sxc, (6)-cn, num edge types: 1
# Building blocks:
#     Node 0, Type 0, BuildingBlock: BETGAK_clean_sbu_0, # of connection points: 6
#     Node 1, Type 0, BuildingBlock: BETGAK_clean_sbu_0, # of connection points: 6
#     Node 2, Type 0, BuildingBlock: BETGAK_clean_sbu_0, # of connection points: 6
#     Edge 3, Type (0, 0), BuildingBlock: EZIPEK_clean_linker_0, # of connection points: 2
#     Edge 4, Type (0, 0), BuildingBlock: EZIPEK_clean_linker_0, # of connection points: 2
#     Edge 5, Type (0, 0), BuildingBlock: EZIPEK_clean_linker_0, # of connection points: 2
#     Edge 6, Type (0, 0), BuildingBlock: EZIPEK_clean_linker_0, # of connection points: 2
#     Edge 7, Type (0, 0), BuildingBlock: EZIPEK_clean_linker_0, # of connection points: 2
#     Edge 8, Type (0, 0), BuildingBlock: EZIPEK_clean_linker_0, # of connection points: 2
#     Edge 9, Type (0, 0), BuildingBlock: EZIPEK_clean_linker_0, # of connection points: 2
#     Edge 10, Type (0, 0), BuildingBlock: EZIPEK_clean_linker_0, # of connection points: 2
#     Edge 11, Type (0, 0), BuildingBlock: EZIPEK_clean_linker_0, # of connection points: 2
# Relax obj value: 0.524
# Max RMSD: 0.188
# Mean RMSD: 0.104
data_MOF--net-sxc--node1-BETGAK_clean_sbu_0--edge1-EZIPEK_clean_linker_0
_symmetry_space_group_name_H-M    P1
_symmetry_Int_Tables_number       1
_symmetry_cell_setting            triclinic
loop_
_symmetry_equiv_pos_as_xyz
'x, y, z'
_cell_length_a     13.539386
_cell_length_b     11.934419
_cell_length_c     33.174369
_cell_angle_alpha  90.595644
_cell_angle_beta   96.441411
_cell_angle_gamma 87.556372
loop_
_atom_site_label
_atom_site_type_symbol
_atom_site_fract_x
_atom_site_fract_y
_atom_site_fract_z
_atom_type_partial_charge
La0 La 0.30577 0.14807 0.99445 0.0
La1 La 1.1018 0.1787 0.98587 0.0
C2 C 0.48878 0.14984 0.98685 0.0
C3 C 0.55898 0.24053 0.98988 0.0
C4 C 0.61363 0.264 0.02739 0.0
C5 C 0.66023 0.3654 0.03335 0.0
C6 C 0.6537 0.44255 0.00165 0.0
C7 C 0.60865 0.41456 0.96308 0.0
C8 C 0.56173 0.31356 0.95711 0.0
C9 C 0.23529 0.13762 0.06638 0.0
C10 C 0.2109 0.4075 0.99096 0.0
C11 C 0.91975 0.18255 -0.00462 0.0
C12 C 0.8547 0.09848 0.00812 0.0
C13 C 0.77007 1.07208 0.98205 0.0
C14 C 0.72317 0.97265 0.98728 0.0
C15 C 0.76089 0.89997 0.01868 0.0
C16 C 0.83803 0.93236 0.0475 0.0
C17 C 0.88528 1.03131 0.04217 0.0
C18 C 0.17357 0.1922 0.9142 0.0
C19 C 0.1963 0.92004 0.98944 0.0
O20 O 0.45335 0.12557 0.02052 0.0
O21 O 0.41877 0.15525 0.95636 0.0
O22 O 0.30458 1.0721 0.05426 0.0
O23 O 0.20755 0.20709 0.03808 0.0
O24 O 0.29263 0.33939 0.99204 0.0
O25 O 1.12413 0.36052 0.98997 0.0
O26 O 0.95411 0.16107 0.96077 0.0
O27 O 0.9891 0.2158 0.02292 0.0
O28 O 1.10366 0.25645 0.92654 0.0
O29 O 0.20025 0.12077 0.94203 0.0
O30 O 1.11659 0.98862 0.99295 0.0
O31 O 0.28108 0.96752 0.98553 0.0
H32 H 0.61472 0.20756 0.05282 0.0
H33 H 0.69632 0.38638 0.06312 0.0
H34 H 0.60449 0.47383 0.93835 0.0
H35 H 0.52223 0.2964 0.92761 0.0
H36 H 0.74551 0.12346 0.95577 0.0
H37 H 0.66331 0.94793 0.96494 0.0
H38 H 0.86748 0.87623 0.07181 0.0
H39 H 0.95052 1.04993 0.06275 0.0
La40 La 1.07459 0.16254 0.30327 0.0
La41 La 0.26485 0.14931 0.33359 0.0
C42 C 0.89211 0.12444 0.28652 0.0
C43 C 0.83755 1.02142 0.29035 0.0
C44 C 0.88284 0.91437 0.28528 0.0
C45 C 0.84269 0.81907 0.30026 0.0
C46 C 0.75669 0.83025 0.32014 0.0
C47 C 0.70245 0.93369 0.31787 0.0
C48 C 0.74378 1.02931 0.30417 0.0
C49 C 0.18022 0.19103 0.24138 0.0
C50 C 0.1725 0.39919 0.31576 0.0
C51 C 0.44364 0.15859 0.36474 0.0
C52 C 0.50011 1.08357 0.39475 0.0
C53 C 0.60336 1.07213 0.39619 0.0
C54 C 0.65264 0.97457 0.41222 0.0
C55 C 0.59761 0.88558 0.42493 0.0
C56 C 0.49865 0.90917 0.43171 0.0
C57 C 0.45035 1.00831 0.41688 0.0
C58 C 1.14434 0.12347 0.39228 0.0
C59 C 0.1827 0.91182 0.31687 0.0
O60 O 0.92938 0.16925 0.32067 0.0
O61 O 0.956 0.12115 0.26 0.0
O62 O 1.10156 0.24897 0.24884 0.0
O63 O 0.20297 0.12131 0.27058 0.0
O64 O 1.08597 0.34856 0.31341 0.0
O65 O 0.25409 0.33252 0.31817 0.0
O66 O 0.37009 0.21653 0.37767 0.0
O67 O 0.41717 0.1131 0.32937 0.0
O68 O 0.21662 1.05731 0.38427 0.0
O69 O 1.1354 0.19685 0.36461 0.0
O70 O 0.2662 0.96626 0.32053 0.0
O71 O 1.09865 0.97486 0.31491 0.0
H72 H 0.95206 0.90477 0.27199 0.0
H73 H 0.88228 0.73864 0.29872 0.0
H74 H 0.63162 0.94258 0.32992 0.0
H75 H 0.70541 0.11016 0.3068 0.0
H76 H 0.64426 0.13191 0.38098 0.0
H77 H 0.73085 0.96307 0.40855 0.0
H78 H 0.45577 0.84675 0.44446 0.0
H79 H 0.37256 1.02049 0.41985 0.0
La80 La 1.15743 0.10089 0.65064 0.0
La81 La 1.15224 0.19851 0.65438 0.0
C82 C 1.12489 0.89791 0.66612 0.0
C83 C 1.03922 0.82611 0.65993 0.0
C84 C 0.99192 0.80144 0.62115 0.0
C85 C 0.90046 0.74983 0.61724 0.0
C86 C 0.85482 0.72607 0.65202 0.0
C87 C 0.90462 0.74542 0.69054 0.0
C88 C 0.9967 0.79364 0.69446 0.0
C89 C 1.14764 0.11627 0.56946 0.0
C90 C 0.90618 0.12764 0.66457 0.0
C91 C 0.18594 0.40119 0.63869 0.0
C92 C 0.27294 0.47134 0.64406 0.0
C93 C 0.32087 0.49799 0.68254 0.0
C94 C 0.41264 0.54889 0.68582 0.0
C95 C 0.45799 0.57012 0.65075 0.0
C96 C 0.40784 0.54846 0.61247 0.0
C97 C 0.31547 0.50087 0.60915 0.0
C98 C 1.1599 0.18396 0.73552 0.0
C99 C 0.40338 0.17058 0.64003 0.0
O100 O 1.16772 0.92793 0.63512 0.0
O101 O 1.11102 0.98261 0.68965 0.0
O102 O 0.22346 1.07306 0.59226 0.0
O103 O 1.08802 0.15654 0.59294 0.0
O104 O 0.98219 0.16436 0.64421 0.0
O105 O 0.97821 0.1669 0.64275 0.0
O106 O 1.14476 0.37158 0.67017 0.0
O107 O 0.19696 0.31653 0.6149 0.0
O108 O 1.08512 0.2282 0.7124 0.0
O109 O 0.21988 0.14274 0.71234 0.0
O110 O 0.32748 0.13487 0.66069 0.0
O111 O 0.33145 0.13243 0.66213 0.0
H112 H 1.02332 0.82576 0.59408 0.0
H113 H 0.8629 0.73382 0.58729 0.0
H114 H 0.8707 0.72621 0.71759 0.0
H115 H 1.03222 0.81159 0.72463 0.0
H116 H 0.28958 0.47596 0.70989 0.0
H117 H 0.45053 0.56662 0.71557 0.0
H118 H 0.44157 0.56563 0.58519 0.0
H119 H 0.27953 0.48145 0.57918 0.0
C120 C 0.26392 0.602 0.96485 0.0
C121 C 0.21272 0.53917 0.99199 0.0
C122 C 1.14331 0.72481 0.01637 0.0
C123 C 0.19433 0.78791 0.989 0.0
N124 N 0.27997 0.77678 0.92915 0.0
N125 N 1.12288 0.548 0.05055 0.0
C126 C 0.24928 0.7233 0.96152 0.0
C127 C 1.15689 0.60314 0.01924 0.0
N128 N 0.32896 0.5465 0.94228 0.0
N129 N 1.07837 0.77988 0.03912 0.0
H130 H 1.13493 0.46204 0.05518 0.0
H131 H 1.09281 0.5879 0.07468 0.0
H132 H 1.06591 0.86619 0.03896 0.0
H133 H 1.02898 0.73974 0.0554 0.0
H134 H 0.37979 0.58668 0.9267 0.0
H135 H 0.3388 0.45977 0.94189 0.0
H136 H 0.31021 0.73536 0.90534 0.0
H137 H 0.26362 0.86146 0.92309 0.0
C138 C 0.58229 0.71776 0.38273 0.0
C139 C 0.63243 0.76738 0.41762 0.0
C140 C 0.78751 0.74117 0.38847 0.0
C141 C 0.73044 0.74575 0.3496 0.0
N142 N 0.57924 0.69813 0.30953 0.0
N143 N 0.78235 0.75213 0.46209 0.0
C144 C 0.62989 0.71583 0.34672 0.0
C145 C 0.7358 0.74756 0.42358 0.0
N146 N 0.48916 0.68032 0.38391 0.0
N147 N 0.88833 0.74273 0.39147 0.0
H148 H 0.74087 0.76431 0.48665 0.0
H149 H 0.85863 0.73933 0.46969 0.0
H150 H 0.92664 0.73344 0.36614 0.0
H151 H 0.93345 0.7488 0.41882 0.0
H152 H 0.44932 0.64081 0.35949 0.0
H153 H 0.45678 0.68052 0.41103 0.0
H154 H 0.50284 0.68739 0.30487 0.0
H155 H 0.61567 0.6971 0.28337 0.0
C156 C 0.67028 0.7593 0.63807 0.0
C157 C 0.75305 0.68435 0.64909 0.0
C158 C 0.64255 0.53712 0.66441 0.0
C159 C 0.55973 0.61181 0.6532 0.0
N160 N 0.49171 0.79654 0.63507 0.0
N161 N 0.82084 0.49926 0.66682 0.0
C162 C 0.57274 0.72354 0.64127 0.0
C163 C 0.73997 0.57256 0.6609 0.0
N164 N 0.6852 0.86407 0.62412 0.0
N165 N 0.62785 0.43309 0.67904 0.0
H166 H 0.89292 0.52181 0.6632 0.0
H167 H 0.81707 0.41415 0.6725 0.0
H168 H 0.55773 0.40092 0.67967 0.0
H169 H 0.68442 0.38 0.69274 0.0
H170 H 0.62885 0.91798 0.61075 0.0
H171 H 0.75535 0.8965 0.62392 0.0
H172 H 0.49524 0.88167 0.62938 0.0
H173 H 0.41955 0.77366 0.63835 0.0
C174 C 0.7117 0.20935 0.62661 0.0
C175 C 0.77645 0.14086 0.65595 0.0
C176 C 0.59789 1.08828 0.67773 0.0
C177 C 0.53314 0.15725 0.64855 0.0
N178 N 0.54781 0.27285 0.59073 0.0
N179 N 0.7617 1.02469 0.71362 0.0
C180 C 0.59751 0.21385 0.62231 0.0
C181 C 0.71207 1.08397 0.68209 0.0
N182 N 0.75939 0.27799 0.60329 0.0
N183 N 0.55025 1.01871 0.70072 0.0
H184 H 0.83882 1.01196 0.71716 0.0
H185 H 0.72816 0.99469 0.73783 0.0
H186 H 0.47303 1.02011 0.69949 0.0
H187 H 0.58541 0.95325 0.71798 0.0
H188 H 0.72436 0.34313 0.58583 0.0
H189 H 0.83658 0.27605 0.60435 0.0
H190 H 0.58122 0.30276 0.56648 0.0
H191 H 0.47068 0.28546 0.5872 0.0
C192 C 0.64268 0.75087 0.0288 0.0
C193 C 0.73419 0.78215 0.01645 0.0
C194 C 0.77936 0.58738 0.00121 0.0
C195 C 0.684 0.55768 0.00961 0.0
N196 N 0.51913 0.60943 0.02676 0.0
N197 N 0.8813 0.73608 0.98333 0.0
C198 C 0.61388 0.63885 0.02228 0.0
C199 C 0.80069 0.70204 0.00071 0.0
N200 N 0.58446 0.8278 0.04717 0.0
N201 N 0.84947 0.50596 0.99395 0.0
H202 H 0.89913 0.8199 0.98155 0.0
H203 H 0.92598 0.68223 0.96753 0.0
H204 H 0.8353 0.42068 0.99337 0.0
H205 H 0.92378 0.52219 0.99201 0.0
H206 H 0.52159 0.80744 0.06051 0.0
H207 H 0.60312 0.91129 0.05174 0.0
H208 H 0.46152 0.66732 0.03114 0.0
H209 H 0.49588 0.52731 0.02341 0.0
C210 C 1.13352 0.5984 0.34642 0.0
C211 C 0.17907 0.53108 0.31689 0.0
C212 C 0.22968 0.71283 0.28825 0.0
C213 C 0.18329 0.77992 0.3174 0.0
N214 N 1.11898 0.77845 0.38182 0.0
N215 N 0.29959 0.532 0.26831 0.0
C216 C 1.14233 0.72 0.34837 0.0
C217 C 0.23557 0.59079 0.29044 0.0
N218 N 1.0842 0.54572 0.37404 0.0
N219 N 0.26723 0.76555 0.25734 0.0
H220 H 0.30851 0.44516 0.26869 0.0
H221 H 0.35158 0.56972 0.25259 0.0
H222 H 0.26976 0.85244 0.25566 0.0
H223 H 0.28911 0.72371 0.23189 0.0
H224 H 1.04206 0.58761 0.39426 0.0
H225 H 1.08344 0.45879 0.37639 0.0
H226 H 1.1053 0.7404 0.4086 0.0
H227 H 1.1236 0.86516 0.38436 0.0
C228 C 0.18544 1.06847 0.17661 0.0
C229 C 0.19882 0.17407 0.19691 0.0
C230 C 0.23881 0.25468 0.13193 0.0
C231 C 0.22137 0.15129 0.11123 0.0
N232 N 0.17482 0.95953 0.11358 0.0
N233 N 0.21069 0.37417 0.18924 0.0
C234 C 0.19495 1.05789 0.13377 0.0
C235 C 0.2174 0.26871 0.17313 0.0
N236 N 1.15876 0.97896 0.19773 0.0
N237 N 0.28179 0.3385 0.1132 0.0
H238 H 0.19403 0.3899 0.21863 0.0
H239 H 0.21126 0.44683 0.17214 0.0
H240 H 0.30266 0.33109 0.08399 0.0
H241 H 0.30695 0.4108 0.12817 0.0
H242 H 1.16061 0.89652 0.18736 0.0
H243 H 1.13401 0.98605 0.22623 0.0
H244 H 1.14503 0.89051 0.12585 0.0
H245 H 0.18431 0.94768 0.08312 0.0
C246 C 0.19327 0.20952 0.46177 0.0
C247 C 1.12749 0.14241 0.4364 0.0
C248 C 1.06143 1.07432 0.49829 0.0
C249 C 1.13807 0.12794 0.52353 0.0
N250 N 0.28427 0.23849 0.52801 0.0
N251 N 0.99759 1.01038 0.43048 0.0
C252 C 0.20592 0.19318 0.50483 0.0
C253 C 1.06064 1.07528 0.45477 0.0
N254 N 0.24176 0.29202 0.44487 0.0
N255 N 0.98984 1.02135 0.51591 0.0
H256 H 0.99117 1.01469 0.39887 0.0
H257 H 0.95439 0.94986 0.44133 0.0
H258 H 0.99063 1.01446 0.54726 0.0
H259 H 0.92642 0.99012 0.49977 0.0
H260 H 0.28356 0.3509 0.46181 0.0
H261 H 0.23019 0.31055 0.41407 0.0
H262 H 0.34296 0.27454 0.51583 0.0
H263 H 0.29511 0.23259 0.55947 0.0
C264 C 1.09644 0.12258 0.80149 0.0
C265 C 1.16964 0.1766 0.78165 0.0
C266 C 0.25225 0.23076 0.84936 0.0
C267 C 0.18033 0.17482 0.86908 0.0
N268 N 1.04507 1.0496 0.86397 0.0
N269 N 0.326 0.268 0.78735 0.0
C270 C 1.10584 0.11541 0.84503 0.0
C271 C 0.25062 0.22546 0.80588 0.0
N272 N 1.01675 1.07867 0.77868 0.0
N273 N 0.32011 0.29317 0.87224 0.0
H274 H 0.32491 0.27239 0.75594 0.0
H275 H 0.39259 0.29289 0.80291 0.0
H276 H 0.3256 0.29504 0.9038 0.0
H277 H 0.36702 0.34765 0.86021 0.0
H278 H 0.95419 1.05163 0.79072 0.0
H279 H 1.01033 1.07429 0.74715 0.0
H280 H 0.99609 0.9944 0.8488 0.0
H281 H 1.04967 1.04263 0.89544 0.0
loop_
_geom_bond_atom_site_label_1
_geom_bond_atom_site_label_2
_geom_bond_distance
_geom_bond_site_symmetry_2
_ccdc_geom_bond_type
La0 C2 2.928 . S
La0 O20 2.521 . S
La0 O21 2.628 1_554 S
La0 O22 2.554 . S
La0 O23 2.757 1_545 S
La0 O24 2.470 . S
La0 O29 2.482 1_554 S
La0 O31 2.503 1_545 S
La1 C11 2.928 . S
La1 O23 2.482 1_656 S
La1 O25 2.503 1_565 S
La1 O26 2.521 . S
La1 O27 2.628 1_556 S
La1 O28 2.554 . S
La1 O29 2.757 1_665 S
La1 O30 2.470 . S
C2 La0 2.928 . S
C2 C3 1.503 . S
C2 O20 1.261 . S
C2 O21 1.243 1_554 S
C3 C2 1.503 . S
C3 C4 1.394 . S
C3 C8 1.373 1_554 S
C4 C3 1.394 . S
C4 C5 1.380 . S
C4 H32 0.930 . S
C5 C4 1.380 . S
C5 C6 1.376 . S
C5 H33 0.930 . S
C6 C5 1.376 . S
C6 C7 1.370 1_554 S
C7 C6 1.370 1_556 S
C7 C8 1.396 . S
C7 H34 0.929 . S
C8 C3 1.373 1_556 S
C8 C7 1.396 . S
C8 H35 0.929 . S
C9 O22 1.240 . S
C9 O23 1.289 1_545 S
C10 O24 1.258 . S
C10 O25 1.256 1_454 S
C11 La1 2.928 . S
C11 C12 1.503 . S
C11 O26 1.261 . S
C11 O27 1.243 1_556 S
C12 C11 1.503 . S
C12 C13 1.394 . S
C12 C17 1.373 1_556 S
C13 C12 1.394 . S
C13 C14 1.380 . S
C13 H36 0.930 . S
C14 C13 1.380 . S
C14 C15 1.376 . S
C14 H37 0.930 . S
C15 C14 1.376 . S
C15 C16 1.370 1_556 S
C16 C15 1.370 1_554 S
C16 C17 1.396 . S
C16 H38 0.929 . S
C17 C12 1.373 1_554 S
C17 C16 1.396 . S
C17 H39 0.929 . S
C18 O28 1.240 1_545 S
C18 O29 1.289 1_655 S
C19 O30 1.258 1_455 S
C19 O31 1.256 1_556 S
O20 La0 2.521 . S
O20 C2 1.261 . S
O21 La0 2.628 1_556 S
O21 C2 1.243 1_556 S
O22 La0 2.554 . S
O22 C9 1.240 . S
O23 La0 2.757 1_565 S
O23 La1 2.482 1_454 S
O23 C9 1.289 1_565 S
O24 La0 2.470 . S
O24 C10 1.258 . S
O25 La1 2.503 1_545 S
O25 C10 1.256 1_656 S
O26 La1 2.521 . S
O26 C11 1.261 . S
O27 La1 2.628 1_554 S
O27 C11 1.243 1_554 S
O28 La1 2.554 . S
O28 C18 1.240 1_565 S
O29 La0 2.482 1_556 S
O29 La1 2.757 1_445 S
O29 C18 1.289 1_455 S
O30 La1 2.470 . S
O30 C19 1.258 1_655 S
O31 La0 2.503 1_565 S
O31 C19 1.256 1_554 S
H32 C4 0.930 . S
H33 C5 0.930 . S
H34 C7 0.929 . S
H35 C8 0.929 . S
H36 C13 0.930 . S
H37 C14 0.930 . S
H38 C16 0.929 . S
H39 C17 0.929 . S
La40 C42 2.928 1_565 S
La40 O60 2.517 1_565 S
La40 O61 2.628 1_565 S
La40 O62 2.554 . S
La40 O63 2.757 1_665 S
La40 O64 2.470 1_565 S
La40 O69 2.482 1_565 S
La40 O71 2.503 . S
La41 C51 2.928 1_545 S
La41 O63 2.482 . S
La41 O65 2.503 . S
La41 O66 2.521 . S
La41 O67 2.628 1_545 S
La41 O68 2.554 . S
La41 O69 2.757 1_455 S
La41 O70 2.470 1_545 S
C42 La40 2.928 1_545 S
C42 C43 1.503 . S
C42 O60 1.267 . S
C42 O61 1.243 . S
C43 C42 1.503 . S
C43 C44 1.394 . S
C43 C48 1.373 . S
C44 C43 1.394 . S
C44 C45 1.380 . S
C44 H72 0.930 . S
C45 C44 1.380 . S
C45 C46 1.376 . S
C45 H73 0.930 . S
C46 C45 1.376 . S
C46 C47 1.370 . S
C47 C46 1.370 . S
C47 C48 1.396 . S
C47 H74 0.929 . S
C48 C43 1.373 . S
C48 C47 1.396 . S
C48 H75 0.929 . S
C49 O62 1.240 1_545 S
C49 O63 1.289 1_655 S
C50 O64 1.258 . S
C50 O65 1.256 1_655 S
C51 La41 2.928 1_565 S
C51 C52 1.503 . S
C51 O66 1.261 1_565 S
C51 O67 1.243 . S
C52 C51 1.503 . S
C52 C53 1.394 . S
C52 C57 1.373 . S
C53 C52 1.394 . S
C53 C54 1.380 . S
C53 H76 0.930 1_565 S
C54 C53 1.380 . S
C54 C55 1.376 . S
C54 H77 0.930 . S
C55 C54 1.376 . S
C55 C56 1.370 . S
C56 C55 1.370 . S
C56 C57 1.396 . S
C56 H78 0.929 . S
C57 C52 1.373 . S
C57 C56 1.396 . S
C57 H79 0.929 . S
C58 O68 1.240 . S
C58 O69 1.289 1_455 S
C59 O70 1.258 . S
C59 O71 1.256 1_455 S
O60 La40 2.517 1_545 S
O60 C42 1.267 . S
O61 La40 2.628 1_545 S
O61 C42 1.243 . S
O62 La40 2.554 . S
O62 C49 1.240 1_565 S
O63 La40 2.757 1_445 S
O63 La41 2.482 . S
O63 C49 1.289 1_455 S
O64 La40 2.470 1_545 S
O64 C50 1.258 . S
O65 La41 2.503 . S
O65 C50 1.256 1_455 S
O66 La41 2.521 . S
O66 C51 1.261 1_545 S
O67 La41 2.628 1_565 S
O67 C51 1.243 . S
O68 La41 2.554 . S
O68 C58 1.240 . S
O69 La40 2.482 1_545 S
O69 La41 2.757 1_655 S
O69 C58 1.289 1_655 S
O70 La41 2.470 1_565 S
O70 C59 1.258 . S
O71 La40 2.503 . S
O71 C59 1.256 1_655 S
H72 C44 0.930 . S
H73 C45 0.930 . S
H74 C47 0.929 . S
H75 C48 0.929 . S
H76 C53 0.930 1_545 S
H77 C54 0.930 . S
H78 C56 0.929 . S
H79 C57 0.929 . S
La80 C82 2.928 . S
La80 O100 2.521 . S
La80 O101 2.628 . S
La80 O102 2.554 . S
La80 O103 2.757 1_665 S
La80 O104 2.470 . S
La80 O109 2.482 1_565 S
La80 O111 2.503 1_655 S
La81 C91 2.928 . S
La81 O103 2.482 . S
La81 O105 2.503 1_455 S
La81 O106 2.521 . S
La81 O107 2.628 . S
La81 O108 2.554 . S
La81 O109 2.757 1_455 S
La81 O110 2.470 . S
C82 La80 2.928 . S
C82 C83 1.503 . S
C82 O100 1.261 . S
C82 O101 1.243 . S
C83 C82 1.503 . S
C83 C84 1.394 . S
C83 C88 1.373 . S
C84 C83 1.394 . S
C84 C85 1.380 . S
C84 H112 0.930 . S
C85 C84 1.380 . S
C85 C86 1.376 . S
C85 H113 0.930 . S
C86 C85 1.376 . S
C86 C87 1.370 . S
C87 C86 1.370 . S
C87 C88 1.396 . S
C87 H114 0.929 . S
C88 C83 1.373 . S
C88 C87 1.396 . S
C88 H115 0.929 . S
C89 O102 1.240 1_545 S
C89 O103 1.289 1_655 S
C90 O104 1.258 1_545 S
C90 O105 1.256 . S
C91 La81 2.928 . S
C91 C92 1.503 . S
C91 O106 1.261 . S
C91 O107 1.243 . S
C92 C91 1.503 . S
C92 C93 1.394 . S
C92 C97 1.373 . S
C93 C92 1.394 . S
C93 C94 1.380 . S
C93 H116 0.930 . S
C94 C93 1.380 . S
C94 C95 1.376 . S
C94 H117 0.930 . S
C95 C94 1.376 . S
C95 C96 1.370 . S
C96 C95 1.370 . S
C96 C97 1.396 . S
C96 H118 0.929 . S
C97 C92 1.373 . S
C97 C96 1.396 . S
C97 H119 0.929 . S
C98 O108 1.240 . S
C98 O109 1.289 1_455 S
C99 O110 1.258 . S
C99 O111 1.256 1_545 S
O100 La80 2.521 . S
O100 C82 1.261 . S
O101 La80 2.628 . S
O101 C82 1.243 . S
O102 La80 2.554 . S
O102 C89 1.240 1_565 S
O103 La80 2.757 1_445 S
O103 La81 2.482 . S
O103 C89 1.289 1_455 S
O104 La80 2.470 . S
O104 C90 1.258 1_565 S
O105 La81 2.503 1_655 S
O105 C90 1.256 . S
O106 La81 2.521 . S
O106 C91 1.261 . S
O107 La81 2.628 . S
O107 C91 1.243 . S
O108 La81 2.554 . S
O108 C98 1.240 . S
O109 La80 2.482 1_545 S
O109 La81 2.757 1_655 S
O109 C98 1.289 1_655 S
O110 La81 2.470 . S
O110 C99 1.258 . S
O111 La80 2.503 1_455 S
O111 C99 1.256 1_565 S
H112 C84 0.930 . S
H113 C85 0.930 . S
H114 C87 0.929 . S
H115 C88 0.929 . S
H116 C93 0.930 . S
H117 C94 0.930 . S
H118 C96 0.929 . S
H119 C97 0.929 . S
C120 C121 1.358 1_556 S
C120 C126 1.379 . S
C120 N128 1.356 . S
C121 C120 1.358 1_554 S
C121 C127 1.368 1_455 S
C122 C123 1.363 1_655 S
C122 C127 1.379 . S
C122 N129 1.356 . S
C123 C122 1.363 1_455 S
C123 C126 1.363 1_554 S
N124 C126 1.356 . S
N124 H136 0.984 . S
N124 H137 0.985 . S
N125 C127 1.356 . S
N125 H130 0.984 . S
N125 H131 0.985 . S
C126 C120 1.379 . S
C126 C123 1.363 1_556 S
C126 N124 1.356 . S
C127 C121 1.368 1_655 S
C127 C122 1.379 . S
C127 N125 1.356 . S
N128 C120 1.356 . S
N128 H134 0.984 . S
N128 H135 0.984 . S
N129 C122 1.356 . S
N129 H132 0.984 . S
N129 H133 0.985 . S
H130 N125 0.984 . S
H131 N125 0.985 . S
H132 N129 0.984 . S
H133 N129 0.985 . S
H134 N128 0.984 . S
H135 N128 0.984 . S
H136 N124 0.984 . S
H137 N124 0.985 . S
C138 C139 1.363 . S
C138 C144 1.379 1_565 S
C138 N146 1.356 . S
C139 C138 1.363 . S
C139 C145 1.363 . S
C140 C141 1.363 . S
C140 C145 1.379 1_545 S
C140 N147 1.356 . S
C141 C140 1.363 . S
C141 C144 1.363 . S
N142 C144 1.356 . S
N142 H154 0.984 . S
N142 H155 0.985 . S
N143 C145 1.356 . S
N143 H148 0.984 . S
N143 H149 0.985 . S
C144 C138 1.379 1_545 S
C144 C141 1.363 . S
C144 N142 1.356 . S
C145 C139 1.363 . S
C145 C140 1.379 1_565 S
C145 N143 1.356 . S
N146 C138 1.356 . S
N146 H152 0.984 . S
N146 H153 0.984 . S
N147 C140 1.356 . S
N147 H150 0.984 . S
N147 H151 0.985 . S
H148 N143 0.984 . S
H149 N143 0.985 . S
H150 N147 0.984 . S
H151 N147 0.985 . S
H152 N146 0.984 . S
H153 N146 0.984 . S
H154 N142 0.984 . S
H155 N142 0.985 . S
C156 C157 1.363 . S
C156 C162 1.379 . S
C156 N164 1.356 . S
C157 C156 1.363 . S
C157 C163 1.363 . S
C158 C159 1.363 . S
C158 C163 1.379 . S
C158 N165 1.356 . S
C159 C158 1.363 . S
C159 C162 1.363 . S
N160 C162 1.356 . S
N160 H172 0.984 . S
N160 H173 0.985 . S
N161 C163 1.356 . S
N161 H166 0.984 . S
N161 H167 0.985 . S
C162 C156 1.379 . S
C162 C159 1.363 . S
C162 N160 1.356 . S
C163 C157 1.363 . S
C163 C158 1.379 . S
C163 N161 1.356 . S
N164 C156 1.356 . S
N164 H170 0.984 . S
N164 H171 0.984 . S
N165 C158 1.356 . S
N165 H168 0.984 . S
N165 H169 0.985 . S
H166 N161 0.984 . S
H167 N161 0.985 . S
H168 N165 0.984 . S
H169 N165 0.985 . S
H170 N164 0.984 . S
H171 N164 0.984 . S
H172 N160 0.984 . S
H173 N160 0.985 . S
C174 C175 1.363 . S
C174 C180 1.379 . S
C174 N182 1.356 . S
C175 C174 1.363 . S
C175 C181 1.363 . S
C176 C177 1.363 . S
C176 C181 1.379 . S
C176 N183 1.356 1_545 S
C177 C176 1.363 . S
C177 C180 1.363 . S
N178 C180 1.356 . S
N178 H190 0.984 . S
N178 H191 0.985 . S
N179 C181 1.356 1_565 S
N179 H184 0.984 1_565 S
N179 H185 0.985 . S
C180 C174 1.379 . S
C180 C177 1.363 . S
C180 N178 1.356 . S
C181 C175 1.363 . S
C181 C176 1.379 . S
C181 N179 1.356 1_545 S
N182 C174 1.356 . S
N182 H188 0.984 . S
N182 H189 0.984 . S
N183 C176 1.356 1_565 S
N183 H186 0.984 . S
N183 H187 0.985 . S
H184 N179 0.984 1_545 S
H185 N179 0.985 . S
H186 N183 0.984 . S
H187 N183 0.985 . S
H188 N182 0.984 . S
H189 N182 0.984 . S
H190 N178 0.984 . S
H191 N178 0.985 . S
C192 C193 1.363 1_554 S
C192 C198 1.379 . S
C192 N200 1.356 . S
C193 C192 1.363 1_556 S
C193 C199 1.363 . S
C194 C195 1.363 1_556 S
C194 C199 1.379 . S
C194 N201 1.356 . S
C195 C194 1.363 1_554 S
C195 C198 1.363 . S
N196 C198 1.356 . S
N196 H208 0.984 . S
N196 H209 0.985 . S
N197 C199 1.356 . S
N197 H202 0.984 . S
N197 H203 0.985 . S
C198 C192 1.379 . S
C198 C195 1.363 . S
C198 N196 1.356 . S
C199 C193 1.363 . S
C199 C194 1.379 . S
C199 N197 1.356 . S
N200 C192 1.356 . S
N200 H206 0.984 . S
N200 H207 0.984 . S
N201 C194 1.356 . S
N201 H204 0.984 . S
N201 H205 0.985 . S
H202 N197 0.984 . S
H203 N197 0.985 . S
H204 N201 0.984 . S
H205 N201 0.985 . S
H206 N200 0.984 . S
H207 N200 0.984 . S
H208 N196 0.984 . S
H209 N196 0.985 . S
C210 C211 1.363 . S
C210 C216 1.379 . S
C210 N218 1.356 . S
C211 C210 1.363 . S
C211 C217 1.363 1_655 S
C212 C213 1.363 . S
C212 C217 1.379 . S
C212 N219 1.356 . S
C213 C212 1.363 . S
C213 C216 1.363 1_455 S
N214 C216 1.356 . S
N214 H226 0.984 . S
N214 H227 0.985 . S
N215 C217 1.356 . S
N215 H220 0.984 . S
N215 H221 0.985 . S
C216 C210 1.379 . S
C216 C213 1.363 1_655 S
C216 N214 1.356 . S
C217 C211 1.363 1_455 S
C217 C212 1.379 . S
C217 N215 1.356 . S
N218 C210 1.356 . S
N218 H224 0.984 . S
N218 H225 0.984 . S
N219 C212 1.356 . S
N219 H222 0.984 . S
N219 H223 0.985 . S
H220 N215 0.984 . S
H221 N215 0.985 . S
H222 N219 0.984 . S
H223 N219 0.985 . S
H224 N218 0.984 . S
H225 N218 0.984 . S
H226 N214 0.984 . S
H227 N214 0.985 . S
C228 C229 1.363 1_565 S
C228 C234 1.379 . S
C228 N236 1.356 . S
C229 C228 1.363 1_545 S
C229 C235 1.363 1_455 S
C230 C231 1.363 1_655 S
C230 C235 1.379 . S
C230 N237 1.356 . S
C231 C230 1.363 1_455 S
C231 C234 1.363 1_545 S
N232 C234 1.356 . S
N232 H244 0.984 . S
N232 H245 0.985 . S
N233 C235 1.356 . S
N233 H238 0.984 . S
N233 H239 0.985 . S
C234 C228 1.379 . S
C234 C231 1.363 1_565 S
C234 N232 1.356 . S
C235 C229 1.363 1_655 S
C235 C230 1.379 . S
C235 N233 1.356 . S
N236 C228 1.356 . S
N236 H242 0.984 . S
N236 H243 0.984 . S
N237 C230 1.356 . S
N237 H240 0.984 . S
N237 H241 0.985 . S
H238 N233 0.984 . S
H239 N233 0.985 . S
H240 N237 0.984 . S
H241 N237 0.985 . S
H242 N236 0.984 . S
H243 N236 0.984 . S
H244 N232 0.984 . S
H245 N232 0.985 . S
C246 C247 1.371 . S
C246 C252 1.379 . S
C246 N254 1.356 . S
C247 C246 1.371 . S
C247 C253 1.353 1_445 S
C248 C249 1.363 1_565 S
C248 C253 1.379 . S
C248 N255 1.356 . S
C249 C248 1.363 1_545 S
C249 C252 1.363 1_655 S
N250 C252 1.356 . S
N250 H262 0.984 . S
N250 H263 0.985 . S
N251 C253 1.356 . S
N251 H256 0.984 . S
N251 H257 0.985 . S
C252 C246 1.379 . S
C252 C249 1.363 1_455 S
C252 N250 1.356 . S
C253 C247 1.353 1_665 S
C253 C248 1.379 . S
C253 N251 1.356 . S
N254 C246 1.356 . S
N254 H260 0.984 . S
N254 H261 0.984 . S
N255 C248 1.356 . S
N255 H258 0.984 . S
N255 H259 0.985 . S
H256 N251 0.984 . S
H257 N251 0.985 . S
H258 N255 0.984 . S
H259 N255 0.985 . S
H260 N254 0.984 . S
H261 N254 0.984 . S
H262 N250 0.984 . S
H263 N250 0.985 . S
C264 C265 1.363 1_665 S
C264 C270 1.379 . S
C264 N272 1.356 . S
C265 C264 1.363 1_445 S
C265 C271 1.363 . S
C266 C267 1.363 . S
C266 C271 1.379 . S
C266 N273 1.356 . S
C267 C266 1.363 . S
C267 C270 1.363 1_445 S
N268 C270 1.356 . S
N268 H280 0.984 . S
N268 H281 0.985 . S
N269 C271 1.356 . S
N269 H274 0.984 . S
N269 H275 0.985 . S
C270 C264 1.379 . S
C270 C267 1.363 1_665 S
C270 N268 1.356 . S
C271 C265 1.363 . S
C271 C266 1.379 . S
C271 N269 1.356 . S
N272 C264 1.356 . S
N272 H278 0.984 . S
N272 H279 0.984 . S
N273 C266 1.356 . S
N273 H276 0.984 . S
N273 H277 0.985 . S
H274 N269 0.984 . S
H275 N269 0.985 . S
H276 N273 0.984 . S
H277 N273 0.985 . S
H278 N272 0.984 . S
H279 N272 0.984 . S
H280 N268 0.984 . S
H281 N268 0.985 . S
C121 C10 3.010 . S
C123 C19 3.009 1_554 S
C139 C55 0.868 . S
C141 C46 0.868 . S
C157 C86 0.930 . S
C159 C95 0.930 . S
C175 C90 4.977 . S
C177 C99 4.977 . S
C193 C15 0.550 . S
C195 C6 0.550 . S
C211 C50 3.101 . S
C213 C59 3.101 . S
C229 C49 1.468 1_455 S
C231 C9 1.470 . S
C247 C58 1.459 . S
C249 C89 1.441 . S
C265 C98 1.470 . S
C267 C18 1.447 1_455 S
