# Generated by pormake.
# Topology unj, (4)-cn, num edge types: 1
# Building blocks:
#     Node 0, Type 0, BuildingBlock: ICAMEG_clean_sbu_1, # of connection points: 4
#     Node 1, Type 0, BuildingBlock: ICAMEG_clean_sbu_1, # of connection points: 4
#     Node 2, Type 0, BuildingBlock: ICAMEG_clean_sbu_1, # of connection points: 4
#     Node 3, Type 0, BuildingBlock: ICAMEG_clean_sbu_1, # of connection points: 4
#     Node 4, Type 0, BuildingBlock: ICAMEG_clean_sbu_1, # of connection points: 4
#     Node 5, Type 0, BuildingBlock: ICAMEG_clean_sbu_1, # of connection points: 4
#     Edge 6, Type (0, 0), BuildingBlock: UVAHIK_clean_linker_0, # of connection points: 2
#     Edge 7, Type (0, 0), BuildingBlock: UVAHIK_clean_linker_0, # of connection points: 2
#     Edge 8, Type (0, 0), BuildingBlock: UVAHIK_clean_linker_0, # of connection points: 2
#     Edge 9, Type (0, 0), BuildingBlock: UVAHIK_clean_linker_0, # of connection points: 2
#     Edge 10, Type (0, 0), BuildingBlock: UVAHIK_clean_linker_0, # of connection points: 2
#     Edge 11, Type (0, 0), BuildingBlock: UVAHIK_clean_linker_0, # of connection points: 2
#     Edge 12, Type (0, 0), BuildingBlock: UVAHIK_clean_linker_0, # of connection points: 2
#     Edge 13, Type (0, 0), BuildingBlock: UVAHIK_clean_linker_0, # of connection points: 2
#     Edge 14, Type (0, 0), BuildingBlock: UVAHIK_clean_linker_0, # of connection points: 2
#     Edge 15, Type (0, 0), BuildingBlock: UVAHIK_clean_linker_0, # of connection points: 2
#     Edge 16, Type (0, 0), BuildingBlock: UVAHIK_clean_linker_0, # of connection points: 2
#     Edge 17, Type (0, 0), BuildingBlock: UVAHIK_clean_linker_0, # of connection points: 2
# Relax obj value: 0.087
# Max RMSD: 0.190
# Mean RMSD: 0.156
data_MOF--net-unj--node1-ICAMEG_clean_sbu_1--edge1-UVAHIK_clean_linker_0
_symmetry_space_group_name_H-M    P1
_symmetry_Int_Tables_number       1
_symmetry_cell_setting            triclinic
loop_
_symmetry_equiv_pos_as_xyz
'x, y, z'
_cell_length_a     40.535616
_cell_length_b     44.575589
_cell_length_c     51.092056
_cell_angle_alpha  90.082549
_cell_angle_beta   89.966694
_cell_angle_gamma 120.15064
loop_
_atom_site_label
_atom_site_type_symbol
_atom_site_fract_x
_atom_site_fract_y
_atom_site_fract_z
_atom_type_partial_charge
Co0 Co 0.56312 0.29646 0.59087 0.0
Co1 Co 0.47469 0.22563 0.60056 0.0
O2 O 0.51831 0.25447 0.57805 0.0
C3 C 0.54658 0.32443 0.54249 0.0
O4 O 0.5122 0.31484 0.55122 0.0
C5 C 0.49204 0.17424 0.57645 0.0
O6 O 0.52797 0.19452 0.58289 0.0
O7 O 0.50869 0.22136 0.62665 0.0
O8 O 0.55898 0.27536 0.62609 0.0
H9 H 0.40419 0.18796 0.68602 0.0
H10 H 0.56821 0.26335 0.54186 0.0
O11 O 0.56926 0.31858 0.55584 0.0
H12 H 0.66498 0.26407 0.60072 0.0
H13 H 0.69544 0.39999 0.58309 0.0
H14 H 0.58247 0.3377 0.63983 0.0
H15 H 0.6258 0.2891 0.61501 0.0
H16 H 0.63907 0.34605 0.5679 0.0
O17 O 0.4674 0.18301 0.58207 0.0
H18 H 0.45857 0.22477 0.65723 0.0
H19 H 0.39803 0.16345 0.59144 0.0
H20 H 0.63834 0.39142 0.65586 0.0
H21 H 0.60708 0.23836 0.52666 0.0
H22 H 0.69536 0.42295 0.6274 0.0
H23 H 0.65579 0.23852 0.55623 0.0
O24 O 0.53046 0.31535 0.60306 0.0
H25 H 0.42636 0.22512 0.50995 0.0
H26 H 0.41223 0.24255 0.60372 0.0
H27 H 0.37145 0.2496 0.57143 0.0
H28 H 0.37832 0.24079 0.52416 0.0
H29 H 0.46679 0.21861 0.5429 0.0
H30 H 0.34311 0.12578 0.61955 0.0
H31 H 0.34594 0.13804 0.66719 0.0
O32 O 0.48025 0.26748 0.6194 0.0
C33 C 0.53989 0.24531 0.63634 0.0
C34 C 0.40257 0.18241 0.66528 0.0
C35 C 0.36831 0.14748 0.62798 0.0
N36 N 0.43136 0.19641 0.62267 0.0
C37 C 0.43323 0.20321 0.64888 0.0
C38 C 0.39953 0.16885 0.61217 0.0
C39 C 0.36991 0.15438 0.65471 0.0
C40 C 0.58959 0.26379 0.55475 0.0
N41 N 0.59478 0.27775 0.57926 0.0
C42 C 0.61142 0.24949 0.54607 0.0
C43 C 0.6387 0.24954 0.56268 0.0
C44 C 0.64385 0.26384 0.58766 0.0
C45 C 0.62148 0.27789 0.59567 0.0
C46 C 0.6708 0.38645 0.59569 0.0
C47 C 0.60725 0.35117 0.62739 0.0
C48 C 0.63876 0.35593 0.58718 0.0
N49 N 0.60762 0.3386 0.60305 0.0
C50 C 0.63877 0.38162 0.63655 0.0
C51 C 0.67074 0.39931 0.62056 0.0
C52 C 0.49996 0.30039 0.61666 0.0
C53 C 0.42303 0.22895 0.5305 0.0
C54 C 0.4155 0.23879 0.58319 0.0
C55 C 0.39225 0.24274 0.565 0.0
C56 C 0.39611 0.23778 0.53848 0.0
N57 N 0.44177 0.23004 0.57521 0.0
C58 C 0.44576 0.22519 0.54925 0.0
Co59 Co 0.25355 0.45853 0.77323 0.0
Co60 Co 0.25985 0.53587 0.75721 0.0
O61 O 0.26291 0.49472 0.74745 0.0
C62 C 0.32569 0.4718 0.74726 0.0
O63 O 0.33916 0.50528 0.74982 0.0
C64 C 0.22642 0.51731 0.70246 0.0
O65 O 0.2265 0.48793 0.7025 0.0
O66 O 0.207 0.50549 0.77019 0.0
O67 O 0.21368 0.465 0.79158 0.0
H68 H 0.22828 0.60662 0.81797 0.0
H69 H 0.24997 0.44094 0.71689 0.0
O70 O 0.29244 0.45023 0.75561 0.0
H71 H 0.12251 0.359 0.75205 0.0
H72 H 0.23602 0.34342 0.80214 0.0
H73 H 0.24326 0.45226 0.83081 0.0
H74 H 0.17271 0.40215 0.78086 0.0
H75 H 0.24611 0.3885 0.77002 0.0
O76 O 0.23844 0.53754 0.72216 0.0
H77 H 0.23394 0.55613 0.80481 0.0
H78 H 0.27721 0.60191 0.73057 0.0
H79 H 0.23284 0.40775 0.86357 0.0
H80 H 0.20073 0.39782 0.68746 0.0
H81 H 0.22916 0.35286 0.84929 0.0
H82 H 0.1364 0.35654 0.70499 0.0
O83 O 0.29376 0.49361 0.79659 0.0
H84 H 0.36717 0.57265 0.69267 0.0
H85 H 0.32953 0.59811 0.7779 0.0
H86 H 0.39552 0.63474 0.76232 0.0
H87 H 0.41471 0.6222 0.71935 0.0
H88 H 0.30168 0.53642 0.70917 0.0
H89 H 0.27169 0.65273 0.74285 0.0
H90 H 0.24723 0.65538 0.78687 0.0
O91 O 0.28126 0.53692 0.79272 0.0
C92 C 0.19495 0.48022 0.78617 0.0
C93 C 0.2391 0.60582 0.79876 0.0
C94 C 0.26341 0.63168 0.75659 0.0
N95 N 0.25617 0.57618 0.76704 0.0
C96 C 0.24245 0.57734 0.79122 0.0
C97 C 0.26639 0.60279 0.74973 0.0
C98 C 0.2497 0.63315 0.7813 0.0
C99 C 0.22213 0.42293 0.72471 0.0
N100 N 0.21422 0.42425 0.75053 0.0
C101 C 0.19432 0.39863 0.70793 0.0
C102 C 0.15822 0.37551 0.71776 0.0
C103 C 0.15039 0.37691 0.74416 0.0
C104 C 0.1789 0.40156 0.76035 0.0
C105 C 0.23752 0.36721 0.8086 0.0
C106 C 0.2415 0.42837 0.82442 0.0
C107 C 0.24332 0.39287 0.79051 0.0
N108 N 0.24505 0.42291 0.79851 0.0
C109 C 0.23568 0.40329 0.84307 0.0
C110 C 0.23366 0.37251 0.83505 0.0
C111 C 0.2974 0.52234 0.80425 0.0
C112 C 0.3591 0.57851 0.71136 0.0
C113 C 0.33762 0.59238 0.75922 0.0
C114 C 0.37504 0.61329 0.75047 0.0
C115 C 0.38578 0.60626 0.72636 0.0
N116 N 0.31151 0.56529 0.74435 0.0
C117 C 0.32191 0.55819 0.72074 0.0
Co118 Co 0.74929 0.2934 0.92026 0.0
Co119 Co 0.76285 0.22412 0.91246 0.0
O120 O 0.74774 0.25167 0.9342 0.0
C121 C 0.78739 0.3172 0.9722 0.0
O122 O 0.80504 0.29965 0.96837 0.0
C123 C 0.69005 0.17057 0.93765 0.0
O124 O 0.67577 0.1911 0.93509 0.0
O125 O 0.72459 0.21815 0.88549 0.0
O126 O 0.73443 0.27227 0.88447 0.0
H127 H 0.79882 0.18951 0.82827 0.0
H128 H 0.70318 0.26051 0.96766 0.0
O129 O 0.76391 0.31644 0.95534 0.0
H130 H 0.61213 0.25757 0.9023 0.0
H131 H 0.7266 0.39461 0.92272 0.0
H132 H 0.78045 0.3351 0.87197 0.0
H133 H 0.68036 0.28361 0.89148 0.0
H134 H 0.72326 0.34136 0.93964 0.0
O135 O 0.72379 0.18023 0.92991 0.0
H136 H 0.78096 0.22425 0.85623 0.0
H137 H 0.77487 0.16431 0.92255 0.0
H138 H 0.78412 0.38811 0.85423 0.0
H139 H 0.63522 0.23462 0.97944 0.0
H140 H 0.75707 0.41825 0.87967 0.0
H141 H 0.58917 0.23293 0.94658 0.0
O142 O 0.80412 0.3135 0.91149 0.0
H143 H 0.80661 0.22354 1.00433 0.0
H144 H 0.8455 0.24532 0.91164 0.0
H145 H 0.893 0.2538 0.94529 0.0
H146 H 0.87363 0.24279 0.99202 0.0
H147 H 0.76011 0.21581 0.97005 0.0
H148 H 0.79235 0.12874 0.89526 0.0
H149 H 0.80461 0.14135 0.84778 0.0
O150 O 0.80321 0.26689 0.89421 0.0
C151 C 0.72099 0.24204 0.8746 0.0
C152 C 0.79366 0.18382 0.84895 0.0
C153 C 0.78999 0.14969 0.88654 0.0
N154 N 0.77715 0.1965 0.89102 0.0
C155 C 0.78363 0.20346 0.86489 0.0
C156 C 0.78002 0.16988 0.90188 0.0
C157 C 0.79687 0.15679 0.8599 0.0
C158 C 0.68335 0.26017 0.95336 0.0
N159 N 0.69574 0.2736 0.92895 0.0
C160 C 0.64489 0.24534 0.9601 0.0
C161 C 0.61906 0.24435 0.94164 0.0
C162 C 0.63191 0.25814 0.91678 0.0
C163 C 0.67057 0.27273 0.91073 0.0
C164 C 0.7384 0.38166 0.91142 0.0
C165 C 0.76839 0.34793 0.88308 0.0
C166 C 0.73665 0.35153 0.92091 0.0
N167 N 0.75136 0.33495 0.90669 0.0
C168 C 0.77065 0.378 0.87297 0.0
C169 C 0.7555 0.39491 0.88726 0.0
C170 C 0.81945 0.29956 0.89816 0.0
C171 C 0.81537 0.22834 0.98403 0.0
C172 C 0.83687 0.24068 0.93194 0.0
C173 C 0.86388 0.24541 0.9509 0.0
C174 C 0.85298 0.23919 0.97711 0.0
N175 N 0.80002 0.23001 0.93888 0.0
C176 C 0.78913 0.22386 0.96453 0.0
Co177 Co 0.45733 0.72357 0.09357 0.0
Co178 Co 0.54628 0.79532 0.10132 0.0
O179 O 0.50155 0.76549 0.07969 0.0
C180 C 0.4741 0.69758 0.04429 0.0
O181 O 0.51063 0.71456 0.04999 0.0
C182 C 0.52733 0.84537 0.07636 0.0
O183 O 0.49099 0.82352 0.08052 0.0
O184 O 0.51336 0.79983 0.12821 0.0
O185 O 0.46241 0.74621 0.12825 0.0
H186 H 0.62056 0.83487 0.18528 0.0
H187 H 0.44962 0.75341 0.04377 0.0
O188 O 0.45006 0.69932 0.05932 0.0
H189 H 0.35486 0.75527 0.10331 0.0
H190 H 0.32511 0.61916 0.08931 0.0
H191 H 0.44055 0.68458 0.14339 0.0
H192 H 0.39527 0.73174 0.11801 0.0
H193 H 0.38042 0.67266 0.07252 0.0
O194 O 0.55242 0.83773 0.08323 0.0
H195 H 0.56506 0.79726 0.15756 0.0
H196 H 0.62224 0.85778 0.09074 0.0
H197 H 0.38577 0.63135 0.16103 0.0
H198 H 0.40943 0.77679 0.02814 0.0
H199 H 0.32753 0.59824 0.13391 0.0
H200 H 0.36174 0.77793 0.05804 0.0
O201 O 0.49075 0.70556 0.10565 0.0
H202 H 0.59083 0.79566 0.00951 0.0
H203 H 0.6095 0.77921 0.10261 0.0
H204 H 0.64907 0.77232 0.06917 0.0
H205 H 0.63992 0.78064 0.02222 0.0
H206 H 0.55158 0.80193 0.0436 0.0
H207 H 0.67822 0.89621 0.11777 0.0
H208 H 0.67766 0.88477 0.16538 0.0
O209 O 0.54229 0.75401 0.11997 0.0
C210 C 0.48219 0.77637 0.13823 0.0
C211 C 0.62119 0.84006 0.16454 0.0
C212 C 0.65354 0.87452 0.12666 0.0
N213 N 0.59051 0.82517 0.12254 0.0
C214 C 0.58989 0.81881 0.14874 0.0
C215 C 0.62171 0.85271 0.11146 0.0
C216 C 0.65321 0.86808 0.15337 0.0
C217 C 0.42867 0.75352 0.05681 0.0
N218 N 0.42478 0.74119 0.08176 0.0
C219 C 0.40611 0.76692 0.04789 0.0
C220 C 0.3794 0.76761 0.06469 0.0
C221 C 0.37556 0.75493 0.0901 0.0
C222 C 0.39863 0.74177 0.09835 0.0
C223 C 0.35031 0.63338 0.10133 0.0
C224 C 0.41523 0.67041 0.13152 0.0
C225 C 0.38175 0.66365 0.0919 0.0
N226 N 0.41361 0.68183 0.10702 0.0
C227 C 0.38434 0.64025 0.1416 0.0
C228 C 0.35168 0.62167 0.12636 0.0
C229 C 0.52227 0.72102 0.11808 0.0
C230 C 0.59515 0.79204 0.0299 0.0
C231 C 0.60517 0.78267 0.08223 0.0
C232 C 0.62777 0.77886 0.06338 0.0
C233 C 0.62264 0.78356 0.03705 0.0
N234 N 0.57827 0.791 0.07507 0.0
C235 C 0.5731 0.79568 0.0493 0.0
Co236 Co 0.77092 0.56186 0.27125 0.0
Co237 Co 0.76075 0.48216 0.2607 0.0
O238 O 0.75812 0.52241 0.24799 0.0
C239 C 0.69817 0.54924 0.24643 0.0
O240 O 0.68261 0.51598 0.2515 0.0
C241 C 0.79866 0.49633 0.20839 0.0
O242 O 0.81482 0.52981 0.21272 0.0
O243 O 0.81525 0.51301 0.27008 0.0
O244 O 0.8107 0.55558 0.29 0.0
H245 H 0.79725 0.41819 0.32459 0.0
H246 H 0.77195 0.57211 0.2139 0.0
O247 O 0.73253 0.57022 0.25308 0.0
H248 H 0.9022 0.65552 0.24387 0.0
H249 H 0.79597 0.68183 0.29289 0.0
H250 H 0.78498 0.57429 0.32823 0.0
H251 H 0.85292 0.6172 0.27537 0.0
H252 H 0.78173 0.63268 0.26368 0.0
O253 O 0.77633 0.47465 0.22524 0.0
H254 H 0.79201 0.46773 0.30841 0.0
H255 H 0.73724 0.41185 0.23926 0.0
H256 H 0.79959 0.62292 0.35811 0.0
H257 H 0.82025 0.61034 0.18177 0.0
H258 H 0.80515 0.67717 0.34047 0.0
H259 H 0.88596 0.65233 0.1967 0.0
O260 O 0.7313 0.53032 0.29658 0.0
H261 H 0.64704 0.43847 0.20134 0.0
H262 H 0.69231 0.42595 0.28799 0.0
H263 H 0.62434 0.38924 0.27659 0.0
H264 H 0.60131 0.39532 0.23297 0.0
H265 H 0.71476 0.47492 0.21366 0.0
H266 H 0.74219 0.36182 0.25459 0.0
H267 H 0.77224 0.36475 0.29759 0.0
O268 O 0.74475 0.48738 0.29678 0.0
C269 C 0.82876 0.53963 0.28488 0.0
C270 C 0.78398 0.41655 0.30586 0.0
C271 C 0.75311 0.38493 0.26656 0.0
N272 N 0.76405 0.4426 0.27303 0.0
C273 C 0.78084 0.44449 0.29662 0.0
C274 C 0.75046 0.41338 0.25796 0.0
C275 C 0.76997 0.38659 0.29069 0.0
C276 C 0.80038 0.59054 0.22057 0.0
N277 N 0.80955 0.59241 0.24648 0.0
C278 C 0.82766 0.61202 0.20228 0.0
C279 C 0.86453 0.63554 0.21066 0.0
C280 C 0.87368 0.63731 0.23712 0.0
C281 C 0.84567 0.61542 0.25486 0.0
C282 C 0.79365 0.65834 0.30081 0.0
C283 C 0.78754 0.59787 0.32038 0.0
C284 C 0.78549 0.63038 0.28437 0.0
N285 N 0.78271 0.60069 0.29422 0.0
C286 C 0.79574 0.62529 0.33741 0.0
C287 C 0.79882 0.65571 0.3275 0.0
C288 C 0.72893 0.50325 0.3068 0.0
C289 C 0.65675 0.4355 0.22038 0.0
C290 C 0.68251 0.42885 0.269 0.0
C291 C 0.64399 0.40792 0.26263 0.0
C292 C 0.6311 0.41133 0.23815 0.0
N293 N 0.7075 0.45247 0.25145 0.0
C294 C 0.69507 0.45597 0.22742 0.0
Co295 Co 0.27394 0.72712 0.4199 0.0
Co296 Co 0.25737 0.79462 0.4137 0.0
O297 O 0.27334 0.76737 0.43466 0.0
C298 C 0.2336 0.69999 0.47049 0.0
O299 O 0.21325 0.71474 0.46549 0.0
C300 C 0.33008 0.84996 0.4375 0.0
O301 O 0.34766 0.83394 0.4288 0.0
O302 O 0.29672 0.8029 0.38683 0.0
O303 O 0.28886 0.74948 0.38459 0.0
H304 H 0.22156 0.83156 0.33067 0.0
H305 H 0.31866 0.76068 0.46771 0.0
O306 O 0.2594 0.70324 0.45462 0.0
H307 H 0.41258 0.7679 0.40289 0.0
H308 H 0.30154 0.62885 0.42075 0.0
H309 H 0.24506 0.68658 0.37082 0.0
H310 H 0.34426 0.73956 0.39163 0.0
H311 H 0.30223 0.68063 0.43853 0.0
O312 O 0.29469 0.83759 0.43297 0.0
H313 H 0.24032 0.79662 0.35752 0.0
H314 H 0.24284 0.85256 0.42558 0.0
H315 H 0.24405 0.63505 0.3522 0.0
H316 H 0.38671 0.78902 0.47988 0.0
H317 H 0.27242 0.60581 0.37724 0.0
H318 H 0.43418 0.79282 0.44731 0.0
O319 O 0.21913 0.70582 0.41051 0.0
H320 H 0.20971 0.78866 0.50543 0.0
H321 H 0.17421 0.77126 0.41203 0.0
H322 H 0.12507 0.75955 0.44527 0.0
H323 H 0.14272 0.76834 0.49235 0.0
H324 H 0.25788 0.79968 0.47157 0.0
H325 H 0.22443 0.8883 0.39943 0.0
H326 H 0.21351 0.87779 0.35162 0.0
O327 O 0.21866 0.75222 0.39413 0.0
C328 C 0.30143 0.7799 0.37536 0.0
C329 C 0.22613 0.83632 0.35149 0.0
C330 C 0.22779 0.8682 0.39008 0.0
N331 N 0.2424 0.82237 0.39312 0.0
C332 C 0.23666 0.81656 0.36681 0.0
C333 C 0.2383 0.84793 0.40478 0.0
C334 C 0.22165 0.86228 0.36326 0.0
C335 C 0.33914 0.76199 0.45352 0.0
N336 N 0.32749 0.74834 0.42905 0.0
C337 C 0.37763 0.77817 0.46048 0.0
C338 C 0.40426 0.78034 0.44219 0.0
C339 C 0.39216 0.76638 0.41726 0.0
C340 C 0.35344 0.75043 0.41098 0.0
C341 C 0.28916 0.64141 0.40963 0.0
C342 C 0.2577 0.67415 0.38175 0.0
C343 C 0.2894 0.6707 0.41962 0.0
N344 N 0.27398 0.68679 0.40562 0.0
C345 C 0.25694 0.64491 0.37114 0.0
C346 C 0.27283 0.6285 0.38521 0.0
C347 C 0.20334 0.71949 0.39737 0.0
C348 C 0.20168 0.78482 0.48498 0.0
C349 C 0.1821 0.77497 0.43249 0.0
C350 C 0.15416 0.7684 0.45121 0.0
C351 C 0.16409 0.77336 0.47762 0.0
N352 N 0.21893 0.78622 0.43985 0.0
C353 C 0.22887 0.79115 0.46571 0.0
C354 C 0.50559 0.13044 0.55514 0.0
C355 C 0.47939 0.14068 0.56291 0.0
C356 C 0.49296 0.09843 0.54263 0.0
C357 C 0.40623 0.01242 0.53402 0.0
H358 H 0.45646 1.0045 0.47195 0.0
C359 C 0.33046 0.89749 0.46376 0.0
C360 C 0.35077 0.88254 0.45291 0.0
C361 C 0.34915 0.9281 0.47827 0.0
C362 C 0.44246 1.00617 0.48949 0.0
H363 H 0.41938 0.12536 0.56325 0.0
H364 H 0.39763 0.07012 0.54154 0.0
H365 H 0.48392 0.05994 0.49532 0.0
H366 H 0.40693 0.88835 0.44883 0.0
H367 H 0.4398 0.94223 0.47434 0.0
H368 H 0.36451 0.95903 0.5281 0.0
C369 C 0.42786 0.08646 0.54539 0.0
C370 C 0.45817 0.03793 0.50287 0.0
C371 C 0.44042 0.11834 0.55772 0.0
C372 C 0.39044 0.89915 0.45692 0.0
C373 C 0.40928 0.93007 0.47142 0.0
C374 C 0.3906 0.98082 0.52071 0.0
C375 C 0.45386 0.07594 0.53782 0.0
C376 C 0.43971 0.0416 0.52495 0.0
C377 C 0.38874 0.94477 0.48239 0.0
C378 C 0.40799 0.97748 0.49794 0.0
H379 H 0.53583 0.14707 0.55877 0.0
H380 H 0.51371 0.09104 0.53711 0.0
H381 H 0.39176 0.0141 0.55131 0.0
H382 H 0.29991 0.88556 0.46108 0.0
H383 H 0.33252 0.93898 0.48601 0.0
C384 C 0.45369 0.30571 0.64611 0.0
C385 C 0.48662 0.32181 0.63038 0.0
C386 C 0.44085 0.32535 0.65928 0.0
C387 C 0.44481 0.40977 0.65942 0.0
H388 H 0.40456 0.38141 0.72957 0.0
C389 C 0.3834 0.48051 0.72197 0.0
C390 C 0.34861 0.45832 0.73456 0.0
C391 C 0.40424 0.46701 0.70979 0.0
C392 C 0.41555 0.3896 0.70995 0.0
H393 H 0.53173 0.37151 0.6162 0.0
H394 H 0.50915 0.40591 0.63939 0.0
H395 H 0.43377 0.35225 0.70732 0.0
H396 H 0.30857 0.40451 0.74413 0.0
H397 H 0.34463 0.3813 0.72309 0.0
H398 H 0.42593 0.44687 0.66207 0.0
C399 C 0.49326 0.37794 0.64131 0.0
C400 C 0.43226 0.37285 0.69717 0.0
C401 C 0.50627 0.35821 0.62811 0.0
C402 C 0.33527 0.42247 0.73474 0.0
C403 C 0.35611 0.40911 0.72279 0.0
C404 C 0.42805 0.42663 0.67227 0.0
C405 C 0.4605 0.3617 0.65718 0.0
C406 C 0.4463 0.38213 0.67152 0.0
C407 C 0.39088 0.43113 0.71021 0.0
C408 C 0.41244 0.41615 0.69747 0.0
H409 H 0.43763 0.27778 0.64833 0.0
H410 H 0.41511 0.31191 0.67092 0.0
H411 H 0.45519 0.41746 0.63963 0.0
H412 H 0.39441 0.50823 0.7214 0.0
H413 H 0.431 0.48466 0.70032 0.0
C414 C 0.87093 0.30892 0.86641 0.0
C415 C 0.85754 0.322 0.88627 0.0
C416 C 0.90706 0.32959 0.85546 0.0
C417 C 1.00161 0.40252 0.86988 0.0
H418 H 0.01641 0.40504 0.79471 0.0
C419 C 0.14726 0.44542 0.82091 0.0
C420 C 0.1573 0.46726 0.79893 0.0
C421 C 0.11104 0.4314 0.83212 0.0
C422 C 0.01269 0.40485 0.81571 0.0
H423 H 0.8718 0.36719 0.91016 0.0
H424 H 0.93539 0.40314 0.89126 0.0
H425 H 0.95184 0.37341 0.8128 0.0
H426 H 0.1371 0.4918 0.77171 0.0
H427 H 0.07345 0.46674 0.79112 0.0
H428 H 0.06255 0.4332 0.87282 0.0
C429 C 0.91764 0.37687 0.88414 0.0
C430 C 0.9758 0.38654 0.82607 0.0
C431 C 0.88119 0.35634 0.89486 0.0
C432 C 0.13036 0.47516 0.78866 0.0
C433 C 0.09386 0.46068 0.79967 0.0
C434 C 0.03856 0.42042 0.85954 0.0
C435 C 0.93093 0.36369 0.86432 0.0
C436 C 0.96989 0.38494 0.85327 0.0
C437 C 0.08377 0.4385 0.82143 0.0
C438 C 0.04451 0.42154 0.83236 0.0
H439 H 0.85351 0.28262 0.85927 0.0
H440 H 0.91668 0.31861 0.8404 0.0
H441 H 0.99793 0.40154 0.89092 0.0
H442 H 0.16729 0.43881 0.82937 0.0
H443 H 0.10398 0.41415 0.84872 0.0
C444 C 0.5776 0.90645 0.06695 0.0
C445 C 0.53999 0.87918 0.06344 0.0
C446 C 0.59082 0.93793 0.0539 0.0
C447 C 0.56022 0.99074 0.01498 0.0
H448 H 0.66567 0.03575 0.99241 0.0
C449 C 0.6766 0.11005 0.9443 0.0
C450 C 0.66775 0.13602 0.95006 0.0
C451 C 0.65801 0.07814 0.95713 0.0
C452 C 0.63599 0.02344 0.99816 0.0
H453 H 0.48643 0.86379 0.04384 0.0
H454 H 0.50993 0.9185 0.02014 0.0
H455 H 0.63884 0.98161 0.01597 0.0
H456 H 0.63168 0.14859 0.97338 0.0
H457 H 0.60001 0.09312 0.9967 0.0
H458 H 0.5572 0.03217 0.99597 0.0
C459 C 0.52904 0.91584 0.03349 0.0
C460 C 0.62069 0.9925 0.01222 0.0
C461 C 0.51556 0.88438 0.04696 0.0
C462 C 0.63903 0.129 0.9685 0.0
C463 C 0.62079 0.09712 0.98177 0.0
C464 C 0.57547 0.02165 1.00055 0.0
C465 C 0.56708 0.94291 0.0365 0.0
C466 C 0.58269 0.97575 0.02105 0.0
C467 C 0.63054 0.07146 0.97658 0.0
C468 C 0.61363 0.03844 0.99191 0.0
H469 H 0.59699 0.90349 0.07984 0.0
H470 H 0.61988 0.95836 0.05746 0.0
H471 H 0.53094 0.97884 0.0216 0.0
H472 H 0.69817 0.11444 0.92987 0.0
H473 H 0.66552 0.05879 0.95188 0.0
C474 C 0.63979 0.54132 0.22244 0.0
C475 C 0.67655 0.5632 0.23259 0.0
C476 C 0.62048 0.55526 0.20883 0.0
C477 C 0.6393 0.63496 0.1733 0.0
H478 H 0.53207 0.60276 0.18487 0.0
C479 C 0.57258 0.7166 0.14347 0.0
C480 C 0.53693 0.70003 0.1308 0.0
C481 C 0.58736 0.69731 0.1547 0.0
C482 C 0.56193 0.61173 0.1812 0.0
H483 H 0.72132 0.61701 0.23684 0.0
H484 H 0.68777 0.64099 0.21373 0.0
H485 H 0.56192 0.57338 0.20657 0.0
H486 H 0.48845 0.64984 0.12075 0.0
H487 H 0.51441 0.61608 0.14061 0.0
H488 H 0.63966 0.67365 0.14842 0.0
C489 C 0.67403 0.61307 0.21567 0.0
C490 C 0.57901 0.59489 0.1936 0.0
C491 C 0.69323 0.59924 0.22914 0.0
C492 C 0.51606 0.6635 0.13022 0.0
C493 C 0.53082 0.64413 0.14169 0.0
C494 C 0.62234 0.6518 0.16106 0.0
C495 C 0.6376 0.59134 0.20507 0.0
C496 C 0.61814 0.60679 0.1902 0.0
C497 C 0.56687 0.66088 0.15378 0.0
C498 C 0.58366 0.64086 0.16525 0.0
H499 H 0.62614 0.51345 0.22474 0.0
H500 H 0.5925 0.53778 0.20083 0.0
H501 H 0.66924 0.64428 0.16967 0.0
H502 H 0.58939 0.74462 0.14463 0.0
H503 H 0.61489 0.71101 0.16429 0.0
C504 C 0.15251 0.7096 0.36494 0.0
C505 C 0.16577 0.69669 0.38495 0.0
C506 C 0.11666 0.68869 0.35366 0.0
C507 C 0.02231 0.61581 0.36777 0.0
H508 H 1.00773 0.61318 0.29257 0.0
C509 C 0.87747 0.57509 0.31883 0.0
C510 C 0.86671 0.55264 0.29713 0.0
C511 C 0.91373 0.58873 0.32987 0.0
C512 C 0.0114 0.61339 0.31358 0.0
H513 H 0.15168 0.65152 0.40872 0.0
H514 H 0.08852 0.61514 0.38927 0.0
H515 H 0.07231 0.64449 0.31077 0.0
H516 H 0.88565 0.52679 0.27013 0.0
H517 H 0.94952 0.55132 0.28922 0.0
H518 H 0.96134 0.58562 0.37062 0.0
C519 C 0.10618 0.64145 0.38227 0.0
C520 C 0.04829 0.6315 0.32399 0.0
C521 C 0.14237 0.66223 0.3933 0.0
C522 C 0.89301 0.54391 0.28688 0.0
C523 C 0.92959 0.55805 0.29771 0.0
C524 C 0.98539 0.59815 0.35738 0.0
C525 C 0.09296 0.65451 0.36235 0.0
C526 C 0.05409 0.63318 0.35121 0.0
C527 C 0.94033 0.58067 0.31927 0.0
C528 C 0.97954 0.59705 0.33019 0.0
H529 H 0.16979 0.73598 0.35798 0.0
H530 H 0.10708 0.69956 0.33853 0.0
H531 H 0.02592 0.61687 0.38882 0.0
H532 H 0.85793 0.58232 0.32727 0.0
H533 H 0.92133 0.60636 0.34632 0.0
C534 C 0.59502 0.34869 0.50685 0.0
C535 C 0.56072 0.34378 0.51758 0.0
C536 C 0.61067 0.36902 0.48461 0.0
C537 C 0.58999 0.40719 0.4274 0.0
H538 H 0.7003 0.46479 0.42684 0.0
C539 C 0.68004 0.49697 0.34025 0.0
C540 C 0.7086 0.48996 0.33196 0.0
C541 C 0.66009 0.48267 0.36364 0.0
C542 C 0.66947 0.44897 0.42676 0.0
H543 H 0.51528 0.35554 0.51277 0.0
H544 H 0.54304 0.39162 0.4737 0.0
H545 H 0.66814 0.43271 0.46621 0.0
H546 H 0.73908 0.46307 0.34198 0.0
H547 H 0.70508 0.43901 0.38267 0.0
H548 H 0.59184 0.42352 0.38758 0.0
C549 C 0.55763 0.37948 0.48261 0.0
C550 C 0.65101 0.43041 0.44924 0.0
C551 C 0.54176 0.35887 0.50498 0.0
C552 C 0.71721 0.46896 0.3477 0.0
C553 C 0.69787 0.45528 0.37112 0.0
C554 C 0.60857 0.42609 0.40485 0.0
C555 C 0.59268 0.38529 0.47249 0.0
C556 C 0.61119 0.40836 0.44958 0.0
C557 C 0.66904 0.46183 0.37932 0.0
C558 C 0.64858 0.4463 0.40412 0.0
H559 H 0.61017 0.33707 0.51578 0.0
H560 H 0.63708 0.37205 0.47694 0.0
H561 H 0.5593 0.39044 0.42702 0.0
H562 H 0.67266 0.51292 0.32845 0.0
H563 H 0.63796 0.4881 0.36959 0.0
C564 C 0.23919 0.65456 0.49536 0.0
C565 C 0.22634 0.67856 0.49423 0.0
C566 C 0.2331 0.63442 0.51768 0.0
C567 C 0.22124 0.63461 0.58801 0.0
H568 H 0.18457 0.53594 0.58296 0.0
C569 C 0.206 0.55513 0.68028 0.0
C570 C 0.21689 0.52984 0.67844 0.0
C571 C 0.20137 0.57039 0.65779 0.0
C572 C 0.19525 0.56352 0.58474 0.0
H573 H 0.19691 0.70016 0.51565 0.0
H574 H 0.18703 0.66532 0.55513 0.0
H575 H 0.18774 0.56851 0.54374 0.0
H576 H 0.23047 0.49999 0.65157 0.0
H577 H 0.22375 0.52744 0.61223 0.0
H578 H 0.2306 0.63035 0.62859 0.0
C579 C 0.20154 0.66204 0.53852 0.0
C580 C 0.19683 0.58211 0.56227 0.0
C581 C 0.20708 0.68186 0.51594 0.0
C582 C 0.22177 0.51922 0.65357 0.0
C583 C 0.21778 0.53495 0.63101 0.0
C584 C 0.2202 0.61617 0.61041 0.0
C585 C 0.2145 0.63811 0.53956 0.0
C586 C 0.21011 0.61788 0.56366 0.0
C587 C 0.20824 0.56126 0.63284 0.0
C588 C 0.20742 0.58038 0.60909 0.0
H589 H 0.25395 0.65123 0.47893 0.0
H590 H 0.24374 0.61647 0.51803 0.0
H591 H 0.23212 0.66225 0.58958 0.0
H592 H 0.20166 0.5636 0.69921 0.0
H593 H 0.19296 0.58977 0.66006 0.0
C594 C 0.70881 0.26377 0.83287 0.0
C595 C 0.70168 0.23552 0.84888 0.0
C596 C 0.69048 0.2585 0.80884 0.0
C597 C 0.60451 0.20147 0.7731 0.0
H598 H 0.66507 0.25271 0.71304 0.0
C599 C 0.53891 0.20545 0.67191 0.0
C600 C 0.55561 0.23861 0.66046 0.0
C601 C 0.55543 0.19967 0.69408 0.0
C602 C 0.64768 0.2383 0.72962 0.0
H603 H 0.66945 0.17946 0.85221 0.0
H604 H 0.63647 0.17027 0.81 0.0
H605 H 0.69677 0.2521 0.75334 0.0
H606 H 0.60222 0.29184 0.66399 0.0
H607 H 0.63024 0.28187 0.70229 0.0
H608 H 0.55531 0.18901 0.74964 0.0
C609 C 0.65668 0.19646 0.81621 0.0
C610 C 0.66587 0.23784 0.75264 0.0
C611 C 0.67564 0.20172 0.84024 0.0
C612 C 0.58865 0.26584 0.67197 0.0
C613 C 0.60501 0.26008 0.69393 0.0
C614 C 0.58618 0.20214 0.75001 0.0
C615 C 0.66415 0.22487 0.80027 0.0
C616 C 0.64452 0.2203 0.77485 0.0
C617 C 0.58899 0.2269 0.70511 0.0
C618 C 0.60764 0.22154 0.7283 0.0
H619 H 0.72873 0.29015 0.83884 0.0
H620 H 0.69646 0.2809 0.7971 0.0
H621 H 0.58741 0.18784 0.79001 0.0
H622 H 0.51343 0.18391 0.66359 0.0
H623 H 0.54239 0.1738 0.70227 0.0
C624 C 0.32487 0.5717 0.83603 0.0
C625 C 0.32007 0.5395 0.8281 0.0
C626 C 0.34453 0.58768 0.85891 0.0
C627 C 0.36093 0.60235 0.91615 0.0
H628 H 0.45545 0.60802 0.93817 0.0
C629 C 0.42065 0.65183 0.01808 0.0
C630 C 0.45975 0.67622 0.02026 0.0
C631 C 0.40574 0.63311 0.99504 0.0
C632 C 0.42916 0.60677 0.93218 0.0
H633 H 0.3332 0.4993 0.83797 0.0
H634 H 0.36738 0.5273 0.87847 0.0
H635 H 0.4259 0.57974 0.89652 0.0
H636 H 0.51419 0.69904 1.00023 0.0
H637 H 0.4878 0.66654 0.95941 0.0
H638 H 0.36419 0.62978 0.95118 0.0
C639 C 0.35606 0.54018 0.8666 0.0
C640 C 0.41207 0.59029 0.9085 0.0
C641 C 0.33632 0.52407 0.84349 0.0
C642 C 0.48392 0.68049 0.9991 0.0
C643 C 0.46884 0.66178 0.9758 0.0
C644 C 0.37786 0.61866 0.93967 0.0
C645 C 0.3598 0.57191 0.87475 0.0
C646 C 0.37786 0.58815 0.90017 0.0
C647 C 0.42939 0.63844 0.97336 0.0
C648 C 0.41212 0.62106 0.94805 0.0
H649 H 0.31301 0.58459 0.82475 0.0
H650 H 0.34751 0.61243 0.86433 0.0
H651 H 0.33434 0.60077 0.91053 0.0
H652 H 0.40128 0.64736 0.03415 0.0
H653 H 0.37541 0.61472 0.99409 0.0
C654 C 0.8059 0.33065 0.01955 0.0
C655 C 0.79494 0.33891 0.99582 0.0
C656 C 0.81054 0.3504 0.04209 0.0
C657 C 0.78494 0.41445 0.06867 0.0
H658 H 0.85556 0.42454 0.12374 0.0
C659 C 0.81295 0.50139 0.16022 0.0
C660 C 0.80549 0.48286 0.18377 0.0
C661 C 0.8158 0.48664 0.13668 0.0
C662 C 0.83584 0.422 0.10842 0.0
H663 H 0.7822 0.37527 0.97666 0.0
H664 H 0.79217 0.41057 0.01524 0.0
H665 H 0.85306 0.39363 0.0836 0.0
H666 H 0.79691 0.43523 0.20141 0.0
H667 H 0.80308 0.41011 0.16051 0.0
H668 H 0.76845 0.44352 0.09348 0.0
C669 C 0.79552 0.38806 0.01707 0.0
C670 C 0.83408 0.404 0.08549 0.0
C671 C 0.79007 0.36793 0.9948 0.0
C672 C 0.80249 0.45004 0.18352 0.0
C673 C 0.80622 0.43572 0.16017 0.0
C674 C 0.78729 0.433 0.09134 0.0
C675 C 0.8051 0.37927 0.04122 0.0
C676 C 0.80828 0.39961 0.06536 0.0
C677 C 0.81223 0.45358 0.13647 0.0
C678 C 0.81243 0.43662 0.11154 0.0
H679 H 0.80968 0.30831 0.02089 0.0
H680 H 0.8174 0.34238 0.06029 0.0
H681 H 0.76401 0.41105 0.05406 0.0
H682 H 0.81521 0.52666 0.15986 0.0
H683 H 0.82047 0.50091 0.1186 0.0
C684 C 0.31309 0.75999 0.33263 0.0
C685 C 0.32081 0.78755 0.34965 0.0
C686 C 0.33169 0.76614 0.30865 0.0
C687 C 0.41904 0.82276 0.27463 0.0
H688 H 0.35899 0.77503 0.21335 0.0
C689 C 0.48474 0.81724 0.17363 0.0
C690 C 0.46707 0.78392 0.1623 0.0
C691 C 0.46863 0.82391 0.19565 0.0
C692 C 0.37622 0.78855 0.23026 0.0
H693 H 0.35425 0.84331 0.35483 0.0
H694 H 0.38779 0.85405 0.31264 0.0
H695 H 0.32699 0.77598 0.25344 0.0
H696 H 0.41921 0.7313 0.16596 0.0
H697 H 0.39178 0.74285 0.20391 0.0
H698 H 0.46828 0.83383 0.25167 0.0
C699 C 0.36688 0.82772 0.31804 0.0
C700 C 0.35788 0.78921 0.25315 0.0
C701 C 0.34762 0.8216 0.34204 0.0
C702 C 0.43352 0.75741 0.17381 0.0
C703 C 0.41752 0.76407 0.19557 0.0
C704 C 0.43751 0.82194 0.25164 0.0
C705 C 0.35889 0.79997 0.30112 0.0
C706 C 0.37899 0.80529 0.27582 0.0
C707 C 0.43449 0.79743 0.20658 0.0
C708 C 0.41613 0.80369 0.22952 0.0
H709 H 0.29252 0.73346 0.3378 0.0
H710 H 0.32528 0.74422 0.29614 0.0
H711 H 0.43593 0.83524 0.2919 0.0
H712 H 0.51065 0.83824 0.16531 0.0
H713 H 0.48241 0.84986 0.20378 0.0
loop_
_geom_bond_atom_site_label_1
_geom_bond_atom_site_label_2
_geom_bond_distance
_geom_bond_site_symmetry_2
_ccdc_geom_bond_type
Co0 O2 2.143 . S
Co0 O8 2.074 . S
Co0 O11 2.093 . S
Co0 O24 2.097 . S
Co0 N41 2.151 . S
Co0 N49 2.214 . S
Co1 O2 2.160 . S
Co1 O7 2.058 . S
Co1 O17 2.057 . S
Co1 O32 2.037 . S
Co1 N36 2.145 . S
Co1 N57 2.257 . S
O2 Co0 2.143 . S
O2 Co1 2.160 . S
C3 O4 1.278 . S
C3 O11 1.224 . S
O4 C3 1.278 . S
C5 O6 1.245 . S
C5 O17 1.232 . S
O6 C5 1.245 . S
O7 Co1 2.058 . S
O7 C33 1.269 . S
O8 Co0 2.074 . S
O8 C33 1.257 . S
H9 C34 0.930 . S
H10 C40 0.930 . S
O11 Co0 2.093 . S
O11 C3 1.224 . S
H12 C44 0.929 . S
H13 C46 0.930 . S
H14 C47 0.930 . S
H15 C45 0.929 . S
H16 C48 0.928 . S
O17 Co1 2.057 . S
O17 C5 1.232 . S
H18 C37 0.929 . S
H19 C38 0.929 . S
H20 C50 0.931 . S
H21 C42 0.929 . S
H22 C51 0.930 . S
H23 C43 0.931 . S
O24 Co0 2.097 . S
O24 C52 1.214 . S
H25 C53 0.929 . S
H26 C54 0.929 . S
H27 C55 0.930 . S
H28 C56 0.929 . S
H29 C58 0.930 . S
H30 C35 0.930 . S
H31 C39 0.930 . S
O32 Co1 2.037 . S
O32 C52 1.234 . S
C33 O7 1.269 . S
C33 O8 1.257 . S
C34 H9 0.930 . S
C34 C37 1.388 . S
C34 C39 1.418 . S
C35 H30 0.930 . S
C35 C38 1.404 . S
C35 C39 1.353 . S
N36 Co1 2.145 . S
N36 C37 1.397 . S
N36 C38 1.334 . S
C37 H18 0.929 . S
C37 C34 1.388 . S
C37 N36 1.397 . S
C38 H19 0.929 . S
C38 C35 1.404 . S
C38 N36 1.334 . S
C39 H31 0.930 . S
C39 C34 1.418 . S
C39 C35 1.353 . S
C40 H10 0.930 . S
C40 N41 1.330 . S
C40 C42 1.446 . S
N41 Co0 2.151 . S
N41 C40 1.330 . S
N41 C45 1.418 . S
C42 H21 0.929 . S
C42 C40 1.446 . S
C42 C43 1.332 . S
C43 H23 0.931 . S
C43 C42 1.332 . S
C43 C44 1.267 . S
C44 H12 0.929 . S
C44 C43 1.267 . S
C44 C45 1.251 . S
C45 H15 0.929 . S
C45 N41 1.418 . S
C45 C44 1.251 . S
C46 H13 0.930 . S
C46 C48 1.406 . S
C46 C51 1.261 . S
C47 H14 0.930 . S
C47 N49 1.325 . S
C47 C50 1.357 . S
C48 H16 0.928 . S
C48 C46 1.406 . S
C48 N49 1.261 . S
N49 Co0 2.214 . S
N49 C47 1.325 . S
N49 C48 1.261 . S
C50 H20 0.931 . S
C50 C47 1.357 . S
C50 C51 1.312 . S
C51 H22 0.930 . S
C51 C46 1.261 . S
C51 C50 1.312 . S
C52 O24 1.214 . S
C52 O32 1.234 . S
C53 H25 0.929 . S
C53 C56 1.391 . S
C53 C58 1.391 . S
C54 H26 0.929 . S
C54 C55 1.390 . S
C54 N57 1.391 . S
C55 H27 0.930 . S
C55 C54 1.390 . S
C55 C56 1.392 . S
C56 H28 0.929 . S
C56 C53 1.391 . S
C56 C55 1.392 . S
N57 Co1 2.257 . S
N57 C54 1.391 . S
N57 C58 1.388 . S
C58 H29 0.930 . S
C58 C53 1.391 . S
C58 N57 1.388 . S
Co59 O61 2.143 . S
Co59 O67 2.074 . S
Co59 O70 2.093 . S
Co59 O83 2.097 . S
Co59 N100 2.151 . S
Co59 N108 2.214 . S
Co60 O61 2.160 . S
Co60 O66 2.058 . S
Co60 O76 2.057 . S
Co60 O91 2.037 . S
Co60 N95 2.145 . S
Co60 N116 2.257 . S
O61 Co59 2.143 . S
O61 Co60 2.160 . S
C62 O63 1.278 . S
C62 O70 1.224 . S
O63 C62 1.278 . S
C64 O65 1.245 . S
C64 O76 1.232 . S
O65 C64 1.245 . S
O66 Co60 2.058 . S
O66 C92 1.269 . S
O67 Co59 2.074 . S
O67 C92 1.257 . S
H68 C93 0.930 . S
H69 C99 0.930 . S
O70 Co59 2.093 . S
O70 C62 1.224 . S
H71 C103 0.929 . S
H72 C105 0.930 . S
H73 C106 0.930 . S
H74 C104 0.929 . S
H75 C107 0.928 . S
O76 Co60 2.057 . S
O76 C64 1.232 . S
H77 C96 0.929 . S
H78 C97 0.929 . S
H79 C109 0.931 . S
H80 C101 0.929 . S
H81 C110 0.930 . S
H82 C102 0.931 . S
O83 Co59 2.097 . S
O83 C111 1.214 . S
H84 C112 0.929 . S
H85 C113 0.929 . S
H86 C114 0.930 . S
H87 C115 0.929 . S
H88 C117 0.930 . S
H89 C94 0.930 . S
H90 C98 0.930 . S
O91 Co60 2.037 . S
O91 C111 1.234 . S
C92 O66 1.269 . S
C92 O67 1.257 . S
C93 H68 0.930 . S
C93 C96 1.388 . S
C93 C98 1.418 . S
C94 H89 0.930 . S
C94 C97 1.404 . S
C94 C98 1.353 . S
N95 Co60 2.145 . S
N95 C96 1.397 . S
N95 C97 1.334 . S
C96 H77 0.929 . S
C96 C93 1.388 . S
C96 N95 1.397 . S
C97 H78 0.929 . S
C97 C94 1.404 . S
C97 N95 1.334 . S
C98 H90 0.930 . S
C98 C93 1.418 . S
C98 C94 1.353 . S
C99 H69 0.930 . S
C99 N100 1.330 . S
C99 C101 1.446 . S
N100 Co59 2.151 . S
N100 C99 1.330 . S
N100 C104 1.418 . S
C101 H80 0.929 . S
C101 C99 1.446 . S
C101 C102 1.332 . S
C102 H82 0.931 . S
C102 C101 1.332 . S
C102 C103 1.267 . S
C103 H71 0.929 . S
C103 C102 1.267 . S
C103 C104 1.251 . S
C104 H74 0.929 . S
C104 N100 1.418 . S
C104 C103 1.251 . S
C105 H72 0.930 . S
C105 C107 1.406 . S
C105 C110 1.261 . S
C106 H73 0.930 . S
C106 N108 1.325 . S
C106 C109 1.357 . S
C107 H75 0.928 . S
C107 C105 1.406 . S
C107 N108 1.261 . S
N108 Co59 2.214 . S
N108 C106 1.325 . S
N108 C107 1.261 . S
C109 H79 0.931 . S
C109 C106 1.357 . S
C109 C110 1.312 . S
C110 H81 0.930 . S
C110 C105 1.261 . S
C110 C109 1.312 . S
C111 O83 1.214 . S
C111 O91 1.234 . S
C112 H84 0.929 . S
C112 C115 1.391 . S
C112 C117 1.391 . S
C113 H85 0.929 . S
C113 C114 1.390 . S
C113 N116 1.391 . S
C114 H86 0.930 . S
C114 C113 1.390 . S
C114 C115 1.392 . S
C115 H87 0.929 . S
C115 C112 1.391 . S
C115 C114 1.392 . S
N116 Co60 2.257 . S
N116 C113 1.391 . S
N116 C117 1.388 . S
C117 H88 0.930 . S
C117 C112 1.391 . S
C117 N116 1.388 . S
Co118 O120 2.143 . S
Co118 O126 2.074 . S
Co118 O129 2.093 . S
Co118 O142 2.097 . S
Co118 N159 2.151 . S
Co118 N167 2.214 . S
Co119 O120 2.160 . S
Co119 O125 2.058 . S
Co119 O135 2.057 . S
Co119 O150 2.037 . S
Co119 N154 2.145 . S
Co119 N175 2.257 . S
O120 Co118 2.143 . S
O120 Co119 2.160 . S
C121 O122 1.278 . S
C121 O129 1.224 . S
O122 C121 1.278 . S
C123 O124 1.245 . S
C123 O135 1.232 . S
O124 C123 1.245 . S
O125 Co119 2.058 . S
O125 C151 1.269 . S
O126 Co118 2.074 . S
O126 C151 1.257 . S
H127 C152 0.930 . S
H128 C158 0.930 . S
O129 Co118 2.093 . S
O129 C121 1.224 . S
H130 C162 0.929 . S
H131 C164 0.930 . S
H132 C165 0.930 . S
H133 C163 0.929 . S
H134 C166 0.928 . S
O135 Co119 2.057 . S
O135 C123 1.232 . S
H136 C155 0.929 . S
H137 C156 0.929 . S
H138 C168 0.931 . S
H139 C160 0.929 . S
H140 C169 0.930 . S
H141 C161 0.931 . S
O142 Co118 2.097 . S
O142 C170 1.214 . S
H143 C171 0.929 1_554 S
H144 C172 0.929 . S
H145 C173 0.930 . S
H146 C174 0.929 . S
H147 C176 0.930 . S
H148 C153 0.930 . S
H149 C157 0.930 . S
O150 Co119 2.037 . S
O150 C170 1.234 . S
C151 O125 1.269 . S
C151 O126 1.257 . S
C152 H127 0.930 . S
C152 C155 1.388 . S
C152 C157 1.418 . S
C153 H148 0.930 . S
C153 C156 1.404 . S
C153 C157 1.353 . S
N154 Co119 2.145 . S
N154 C155 1.397 . S
N154 C156 1.334 . S
C155 H136 0.929 . S
C155 C152 1.388 . S
C155 N154 1.397 . S
C156 H137 0.929 . S
C156 C153 1.404 . S
C156 N154 1.334 . S
C157 H149 0.930 . S
C157 C152 1.418 . S
C157 C153 1.353 . S
C158 H128 0.930 . S
C158 N159 1.330 . S
C158 C160 1.446 . S
N159 Co118 2.151 . S
N159 C158 1.330 . S
N159 C163 1.418 . S
C160 H139 0.929 . S
C160 C158 1.446 . S
C160 C161 1.332 . S
C161 H141 0.931 . S
C161 C160 1.332 . S
C161 C162 1.267 . S
C162 H130 0.929 . S
C162 C161 1.267 . S
C162 C163 1.251 . S
C163 H133 0.929 . S
C163 N159 1.418 . S
C163 C162 1.251 . S
C164 H131 0.930 . S
C164 C166 1.406 . S
C164 C169 1.261 . S
C165 H132 0.930 . S
C165 N167 1.325 . S
C165 C168 1.357 . S
C166 H134 0.928 . S
C166 C164 1.406 . S
C166 N167 1.261 . S
N167 Co118 2.214 . S
N167 C165 1.325 . S
N167 C166 1.261 . S
C168 H138 0.931 . S
C168 C165 1.357 . S
C168 C169 1.312 . S
C169 H140 0.930 . S
C169 C164 1.261 . S
C169 C168 1.312 . S
C170 O142 1.214 . S
C170 O150 1.234 . S
C171 H143 0.929 1_556 S
C171 C174 1.391 . S
C171 C176 1.391 . S
C172 H144 0.929 . S
C172 C173 1.390 . S
C172 N175 1.391 . S
C173 H145 0.930 . S
C173 C172 1.390 . S
C173 C174 1.392 . S
C174 H146 0.929 . S
C174 C171 1.391 . S
C174 C173 1.392 . S
N175 Co119 2.257 . S
N175 C172 1.391 . S
N175 C176 1.388 . S
C176 H147 0.930 . S
C176 C171 1.391 . S
C176 N175 1.388 . S
Co177 O179 2.143 . S
Co177 O185 2.074 . S
Co177 O188 2.093 . S
Co177 O201 2.097 . S
Co177 N218 2.151 . S
Co177 N226 2.214 . S
Co178 O179 2.160 . S
Co178 O184 2.058 . S
Co178 O194 2.057 . S
Co178 O209 2.037 . S
Co178 N213 2.145 . S
Co178 N234 2.257 . S
O179 Co177 2.143 . S
O179 Co178 2.160 . S
C180 O181 1.278 . S
C180 O188 1.224 . S
O181 C180 1.278 . S
C182 O183 1.245 . S
C182 O194 1.232 . S
O183 C182 1.245 . S
O184 Co178 2.058 . S
O184 C210 1.269 . S
O185 Co177 2.074 . S
O185 C210 1.257 . S
H186 C211 0.930 . S
H187 C217 0.930 . S
O188 Co177 2.093 . S
O188 C180 1.224 . S
H189 C221 0.929 . S
H190 C223 0.930 . S
H191 C224 0.930 . S
H192 C222 0.929 . S
H193 C225 0.928 . S
O194 Co178 2.057 . S
O194 C182 1.232 . S
H195 C214 0.929 . S
H196 C215 0.929 . S
H197 C227 0.931 . S
H198 C219 0.929 . S
H199 C228 0.930 . S
H200 C220 0.931 . S
O201 Co177 2.097 . S
O201 C229 1.214 . S
H202 C230 0.929 . S
H203 C231 0.929 . S
H204 C232 0.930 . S
H205 C233 0.929 . S
H206 C235 0.930 . S
H207 C212 0.930 . S
H208 C216 0.930 . S
O209 Co178 2.037 . S
O209 C229 1.234 . S
C210 O184 1.269 . S
C210 O185 1.257 . S
C211 H186 0.930 . S
C211 C214 1.388 . S
C211 C216 1.418 . S
C212 H207 0.930 . S
C212 C215 1.404 . S
C212 C216 1.353 . S
N213 Co178 2.145 . S
N213 C214 1.397 . S
N213 C215 1.334 . S
C214 H195 0.929 . S
C214 C211 1.388 . S
C214 N213 1.397 . S
C215 H196 0.929 . S
C215 C212 1.404 . S
C215 N213 1.334 . S
C216 H208 0.930 . S
C216 C211 1.418 . S
C216 C212 1.353 . S
C217 H187 0.930 . S
C217 N218 1.330 . S
C217 C219 1.446 . S
N218 Co177 2.151 . S
N218 C217 1.330 . S
N218 C222 1.418 . S
C219 H198 0.929 . S
C219 C217 1.446 . S
C219 C220 1.332 . S
C220 H200 0.931 . S
C220 C219 1.332 . S
C220 C221 1.267 . S
C221 H189 0.929 . S
C221 C220 1.267 . S
C221 C222 1.251 . S
C222 H192 0.929 . S
C222 N218 1.418 . S
C222 C221 1.251 . S
C223 H190 0.930 . S
C223 C225 1.406 . S
C223 C228 1.261 . S
C224 H191 0.930 . S
C224 N226 1.325 . S
C224 C227 1.357 . S
C225 H193 0.928 . S
C225 C223 1.406 . S
C225 N226 1.261 . S
N226 Co177 2.214 . S
N226 C224 1.325 . S
N226 C225 1.261 . S
C227 H197 0.931 . S
C227 C224 1.357 . S
C227 C228 1.312 . S
C228 H199 0.930 . S
C228 C223 1.261 . S
C228 C227 1.312 . S
C229 O201 1.214 . S
C229 O209 1.234 . S
C230 H202 0.929 . S
C230 C233 1.391 . S
C230 C235 1.391 . S
C231 H203 0.929 . S
C231 C232 1.390 . S
C231 N234 1.391 . S
C232 H204 0.930 . S
C232 C231 1.390 . S
C232 C233 1.392 . S
C233 H205 0.929 . S
C233 C230 1.391 . S
C233 C232 1.392 . S
N234 Co178 2.257 . S
N234 C231 1.391 . S
N234 C235 1.388 . S
C235 H206 0.930 . S
C235 C230 1.391 . S
C235 N234 1.388 . S
Co236 O238 2.143 . S
Co236 O244 2.074 . S
Co236 O247 2.093 . S
Co236 O260 2.097 . S
Co236 N277 2.151 . S
Co236 N285 2.214 . S
Co237 O238 2.160 . S
Co237 O243 2.058 . S
Co237 O253 2.057 . S
Co237 O268 2.037 . S
Co237 N272 2.145 . S
Co237 N293 2.257 . S
O238 Co236 2.143 . S
O238 Co237 2.160 . S
C239 O240 1.278 . S
C239 O247 1.224 . S
O240 C239 1.278 . S
C241 O242 1.245 . S
C241 O253 1.232 . S
O242 C241 1.245 . S
O243 Co237 2.058 . S
O243 C269 1.269 . S
O244 Co236 2.074 . S
O244 C269 1.257 . S
H245 C270 0.930 . S
H246 C276 0.930 . S
O247 Co236 2.093 . S
O247 C239 1.224 . S
H248 C280 0.929 . S
H249 C282 0.930 . S
H250 C283 0.930 . S
H251 C281 0.929 . S
H252 C284 0.928 . S
O253 Co237 2.057 . S
O253 C241 1.232 . S
H254 C273 0.929 . S
H255 C274 0.929 . S
H256 C286 0.931 . S
H257 C278 0.929 . S
H258 C287 0.930 . S
H259 C279 0.931 . S
O260 Co236 2.097 . S
O260 C288 1.214 . S
H261 C289 0.929 . S
H262 C290 0.929 . S
H263 C291 0.930 . S
H264 C292 0.929 . S
H265 C294 0.930 . S
H266 C271 0.930 . S
H267 C275 0.930 . S
O268 Co237 2.037 . S
O268 C288 1.234 . S
C269 O243 1.269 . S
C269 O244 1.257 . S
C270 H245 0.930 . S
C270 C273 1.388 . S
C270 C275 1.418 . S
C271 H266 0.930 . S
C271 C274 1.404 . S
C271 C275 1.353 . S
N272 Co237 2.145 . S
N272 C273 1.397 . S
N272 C274 1.334 . S
C273 H254 0.929 . S
C273 C270 1.388 . S
C273 N272 1.397 . S
C274 H255 0.929 . S
C274 C271 1.404 . S
C274 N272 1.334 . S
C275 H267 0.930 . S
C275 C270 1.418 . S
C275 C271 1.353 . S
C276 H246 0.930 . S
C276 N277 1.330 . S
C276 C278 1.446 . S
N277 Co236 2.151 . S
N277 C276 1.330 . S
N277 C281 1.418 . S
C278 H257 0.929 . S
C278 C276 1.446 . S
C278 C279 1.332 . S
C279 H259 0.931 . S
C279 C278 1.332 . S
C279 C280 1.267 . S
C280 H248 0.929 . S
C280 C279 1.267 . S
C280 C281 1.251 . S
C281 H251 0.929 . S
C281 N277 1.418 . S
C281 C280 1.251 . S
C282 H249 0.930 . S
C282 C284 1.406 . S
C282 C287 1.261 . S
C283 H250 0.930 . S
C283 N285 1.325 . S
C283 C286 1.357 . S
C284 H252 0.928 . S
C284 C282 1.406 . S
C284 N285 1.261 . S
N285 Co236 2.214 . S
N285 C283 1.325 . S
N285 C284 1.261 . S
C286 H256 0.931 . S
C286 C283 1.357 . S
C286 C287 1.312 . S
C287 H258 0.930 . S
C287 C282 1.261 . S
C287 C286 1.312 . S
C288 O260 1.214 . S
C288 O268 1.234 . S
C289 H261 0.929 . S
C289 C292 1.391 . S
C289 C294 1.391 . S
C290 H262 0.929 . S
C290 C291 1.390 . S
C290 N293 1.391 . S
C291 H263 0.930 . S
C291 C290 1.390 . S
C291 C292 1.392 . S
C292 H264 0.929 . S
C292 C289 1.391 . S
C292 C291 1.392 . S
N293 Co237 2.257 . S
N293 C290 1.391 . S
N293 C294 1.388 . S
C294 H265 0.930 . S
C294 C289 1.391 . S
C294 N293 1.388 . S
Co295 O297 2.143 . S
Co295 O303 2.074 . S
Co295 O306 2.093 . S
Co295 O319 2.097 . S
Co295 N336 2.151 . S
Co295 N344 2.214 . S
Co296 O297 2.160 . S
Co296 O302 2.058 . S
Co296 O312 2.057 . S
Co296 O327 2.037 . S
Co296 N331 2.145 . S
Co296 N352 2.257 . S
O297 Co295 2.143 . S
O297 Co296 2.160 . S
C298 O299 1.278 . S
C298 O306 1.224 . S
O299 C298 1.278 . S
C300 O301 1.245 . S
C300 O312 1.232 . S
O301 C300 1.245 . S
O302 Co296 2.058 . S
O302 C328 1.269 . S
O303 Co295 2.074 . S
O303 C328 1.257 . S
H304 C329 0.930 . S
H305 C335 0.930 . S
O306 Co295 2.093 . S
O306 C298 1.224 . S
H307 C339 0.929 . S
H308 C341 0.930 . S
H309 C342 0.930 . S
H310 C340 0.929 . S
H311 C343 0.928 . S
O312 Co296 2.057 . S
O312 C300 1.232 . S
H313 C332 0.929 . S
H314 C333 0.929 . S
H315 C345 0.931 . S
H316 C337 0.929 . S
H317 C346 0.930 . S
H318 C338 0.931 . S
O319 Co295 2.097 . S
O319 C347 1.214 . S
H320 C348 0.929 . S
H321 C349 0.929 . S
H322 C350 0.930 . S
H323 C351 0.929 . S
H324 C353 0.930 . S
H325 C330 0.930 . S
H326 C334 0.930 . S
O327 Co296 2.037 . S
O327 C347 1.234 . S
C328 O302 1.269 . S
C328 O303 1.257 . S
C329 H304 0.930 . S
C329 C332 1.388 . S
C329 C334 1.418 . S
C330 H325 0.930 . S
C330 C333 1.404 . S
C330 C334 1.353 . S
N331 Co296 2.145 . S
N331 C332 1.397 . S
N331 C333 1.334 . S
C332 H313 0.929 . S
C332 C329 1.388 . S
C332 N331 1.397 . S
C333 H314 0.929 . S
C333 C330 1.404 . S
C333 N331 1.334 . S
C334 H326 0.930 . S
C334 C329 1.418 . S
C334 C330 1.353 . S
C335 H305 0.930 . S
C335 N336 1.330 . S
C335 C337 1.446 . S
N336 Co295 2.151 . S
N336 C335 1.330 . S
N336 C340 1.418 . S
C337 H316 0.929 . S
C337 C335 1.446 . S
C337 C338 1.332 . S
C338 H318 0.931 . S
C338 C337 1.332 . S
C338 C339 1.267 . S
C339 H307 0.929 . S
C339 C338 1.267 . S
C339 C340 1.251 . S
C340 H310 0.929 . S
C340 N336 1.418 . S
C340 C339 1.251 . S
C341 H308 0.930 . S
C341 C343 1.406 . S
C341 C346 1.261 . S
C342 H309 0.930 . S
C342 N344 1.325 . S
C342 C345 1.357 . S
C343 H311 0.928 . S
C343 C341 1.406 . S
C343 N344 1.261 . S
N344 Co295 2.214 . S
N344 C342 1.325 . S
N344 C343 1.261 . S
C345 H315 0.931 . S
C345 C342 1.357 . S
C345 C346 1.312 . S
C346 H317 0.930 . S
C346 C341 1.261 . S
C346 C345 1.312 . S
C347 O319 1.214 . S
C347 O327 1.234 . S
C348 H320 0.929 . S
C348 C351 1.391 . S
C348 C353 1.391 . S
C349 H321 0.929 . S
C349 C350 1.390 . S
C349 N352 1.391 . S
C350 H322 0.930 . S
C350 C349 1.390 . S
C350 C351 1.392 . S
C351 H323 0.929 . S
C351 C348 1.391 . S
C351 C350 1.392 . S
N352 Co296 2.257 . S
N352 C349 1.391 . S
N352 C353 1.388 . S
C353 H324 0.930 . S
C353 C348 1.391 . S
C353 N352 1.388 . S
C354 C355 1.349 . S
C354 C356 1.327 . S
C354 H379 0.950 . S
C355 C354 1.349 . S
C355 C371 1.349 . S
C356 C354 1.327 . S
C356 C375 1.429 . S
C356 H380 0.950 . S
C357 C374 1.574 1_545 S
C357 C376 1.368 . S
C357 H381 0.949 . S
H358 C362 0.949 . S
C359 C360 1.349 . S
C359 C361 1.327 . S
C359 H382 0.950 . S
C360 C359 1.349 . S
C360 C372 1.349 . S
C361 C359 1.327 . S
C361 C377 1.429 . S
C361 H383 0.950 . S
C362 H358 0.949 . S
C362 C370 1.574 1_565 S
C362 C378 1.368 . S
H363 C371 0.950 . S
H364 C369 0.950 . S
H365 C370 0.949 . S
H366 C372 0.950 . S
H367 C373 0.950 . S
H368 C374 0.949 . S
C369 H364 0.950 . S
C369 C371 1.327 . S
C369 C375 1.429 . S
C370 C362 1.574 1_545 S
C370 H365 0.949 . S
C370 C376 1.368 . S
C371 C355 1.349 . S
C371 H363 0.950 . S
C371 C369 1.327 . S
C372 C360 1.349 . S
C372 H366 0.950 . S
C372 C373 1.327 . S
C373 H367 0.950 . S
C373 C372 1.327 . S
C373 C377 1.429 . S
C374 C357 1.574 1_565 S
C374 H368 0.949 . S
C374 C378 1.368 . S
C375 C356 1.429 . S
C375 C369 1.429 . S
C375 C376 1.523 . S
C376 C357 1.368 . S
C376 C370 1.368 . S
C376 C375 1.523 . S
C377 C361 1.429 . S
C377 C373 1.429 . S
C377 C378 1.523 . S
C378 C362 1.368 . S
C378 C374 1.368 . S
C378 C377 1.523 . S
H379 C354 0.950 . S
H380 C356 0.950 . S
H381 C357 0.949 . S
H382 C359 0.950 . S
H383 C361 0.950 . S
C384 C385 1.349 . S
C384 C386 1.327 . S
C384 H409 0.950 . S
C385 C384 1.349 . S
C385 C401 1.349 . S
C386 C384 1.327 . S
C386 C405 1.429 . S
C386 H410 0.950 . S
C387 C404 1.574 . S
C387 C406 1.368 . S
C387 H411 0.949 . S
H388 C392 0.949 . S
C389 C390 1.349 . S
C389 C391 1.327 . S
C389 H412 0.950 . S
C390 C389 1.349 . S
C390 C402 1.349 . S
C391 C389 1.327 . S
C391 C407 1.429 . S
C391 H413 0.950 . S
C392 H388 0.949 . S
C392 C400 1.574 . S
C392 C408 1.368 . S
H393 C401 0.950 . S
H394 C399 0.950 . S
H395 C400 0.949 . S
H396 C402 0.950 . S
H397 C403 0.950 . S
H398 C404 0.949 . S
C399 H394 0.950 . S
C399 C401 1.327 . S
C399 C405 1.429 . S
C400 C392 1.574 . S
C400 H395 0.949 . S
C400 C406 1.368 . S
C401 C385 1.349 . S
C401 H393 0.950 . S
C401 C399 1.327 . S
C402 C390 1.349 . S
C402 H396 0.950 . S
C402 C403 1.327 . S
C403 H397 0.950 . S
C403 C402 1.327 . S
C403 C407 1.429 . S
C404 C387 1.574 . S
C404 H398 0.949 . S
C404 C408 1.368 . S
C405 C386 1.429 . S
C405 C399 1.429 . S
C405 C406 1.523 . S
C406 C387 1.368 . S
C406 C400 1.368 . S
C406 C405 1.523 . S
C407 C391 1.429 . S
C407 C403 1.429 . S
C407 C408 1.523 . S
C408 C392 1.368 . S
C408 C404 1.368 . S
C408 C407 1.523 . S
H409 C384 0.950 . S
H410 C386 0.950 . S
H411 C387 0.949 . S
H412 C389 0.950 . S
H413 C391 0.950 . S
C414 C415 1.349 . S
C414 C416 1.327 . S
C414 H439 0.950 . S
C415 C414 1.349 . S
C415 C431 1.349 . S
C416 C414 1.327 . S
C416 C435 1.429 . S
C416 H440 0.950 . S
C417 C434 1.574 1_655 S
C417 C436 1.368 . S
C417 H441 0.949 . S
H418 C422 0.949 . S
C419 C420 1.349 . S
C419 C421 1.327 . S
C419 H442 0.950 . S
C420 C419 1.349 . S
C420 C432 1.349 . S
C421 C419 1.327 . S
C421 C437 1.429 . S
C421 H443 0.950 . S
C422 H418 0.949 . S
C422 C430 1.574 1_455 S
C422 C438 1.368 . S
H423 C431 0.950 . S
H424 C429 0.950 . S
H425 C430 0.949 . S
H426 C432 0.950 . S
H427 C433 0.950 . S
H428 C434 0.949 . S
C429 H424 0.950 . S
C429 C431 1.327 . S
C429 C435 1.429 . S
C430 C422 1.574 1_655 S
C430 H425 0.949 . S
C430 C436 1.368 . S
C431 C415 1.349 . S
C431 H423 0.950 . S
C431 C429 1.327 . S
C432 C420 1.349 . S
C432 H426 0.950 . S
C432 C433 1.327 . S
C433 H427 0.950 . S
C433 C432 1.327 . S
C433 C437 1.429 . S
C434 C417 1.574 1_455 S
C434 H428 0.949 . S
C434 C438 1.368 . S
C435 C416 1.429 . S
C435 C429 1.429 . S
C435 C436 1.523 . S
C436 C417 1.368 . S
C436 C430 1.368 . S
C436 C435 1.523 . S
C437 C421 1.429 . S
C437 C433 1.429 . S
C437 C438 1.523 . S
C438 C422 1.368 . S
C438 C434 1.368 . S
C438 C437 1.523 . S
H439 C414 0.950 . S
H440 C416 0.950 . S
H441 C417 0.949 . S
H442 C419 0.950 . S
H443 C421 0.950 . S
C444 C445 1.349 . S
C444 C446 1.327 . S
C444 H469 0.950 . S
C445 C444 1.349 . S
C445 C461 1.349 . S
C446 C444 1.327 . S
C446 C465 1.429 . S
C446 H470 0.950 . S
C447 C464 1.574 1_565 S
C447 C466 1.368 1_556 S
C447 H471 0.949 . S
H448 C452 0.949 . S
C449 C450 1.349 . S
C449 C451 1.327 . S
C449 H472 0.950 . S
C450 C449 1.349 . S
C450 C462 1.349 . S
C451 C449 1.327 . S
C451 C467 1.429 . S
C451 H473 0.950 . S
C452 H448 0.949 . S
C452 C460 1.574 1_545 S
C452 C468 1.368 1_554 S
H453 C461 0.950 . S
H454 C459 0.950 1_556 S
H455 C460 0.949 . S
H456 C462 0.950 . S
H457 C463 0.950 1_554 S
H458 C464 0.949 . S
C459 H454 0.950 1_554 S
C459 C461 1.327 . S
C459 C465 1.429 . S
C460 C452 1.574 1_565 S
C460 H455 0.949 . S
C460 C466 1.368 . S
C461 C445 1.349 . S
C461 H453 0.950 . S
C461 C459 1.327 . S
C462 C450 1.349 . S
C462 H456 0.950 . S
C462 C463 1.327 . S
C463 H457 0.950 1_556 S
C463 C462 1.327 . S
C463 C467 1.429 . S
C464 C447 1.574 1_545 S
C464 H458 0.949 . S
C464 C468 1.368 . S
C465 C446 1.429 . S
C465 C459 1.429 . S
C465 C466 1.523 . S
C466 C447 1.368 1_554 S
C466 C460 1.368 . S
C466 C465 1.523 . S
C467 C451 1.429 . S
C467 C463 1.429 . S
C467 C468 1.523 . S
C468 C452 1.368 1_556 S
C468 C464 1.368 . S
C468 C467 1.523 . S
H469 C444 0.950 . S
H470 C446 0.950 . S
H471 C447 0.949 . S
H472 C449 0.950 . S
H473 C451 0.950 . S
C474 C475 1.349 . S
C474 C476 1.327 . S
C474 H499 0.950 . S
C475 C474 1.349 . S
C475 C491 1.349 . S
C476 C474 1.327 . S
C476 C495 1.429 . S
C476 H500 0.950 . S
C477 C494 1.574 . S
C477 C496 1.368 . S
C477 H501 0.949 . S
H478 C482 0.949 . S
C479 C480 1.349 . S
C479 C481 1.327 . S
C479 H502 0.950 . S
C480 C479 1.349 . S
C480 C492 1.349 . S
C481 C479 1.327 . S
C481 C497 1.429 . S
C481 H503 0.950 . S
C482 H478 0.949 . S
C482 C490 1.574 . S
C482 C498 1.368 . S
H483 C491 0.950 . S
H484 C489 0.950 . S
H485 C490 0.949 . S
H486 C492 0.950 . S
H487 C493 0.950 . S
H488 C494 0.949 . S
C489 H484 0.950 . S
C489 C491 1.327 . S
C489 C495 1.429 . S
C490 C482 1.574 . S
C490 H485 0.949 . S
C490 C496 1.368 . S
C491 C475 1.349 . S
C491 H483 0.950 . S
C491 C489 1.327 . S
C492 C480 1.349 . S
C492 H486 0.950 . S
C492 C493 1.327 . S
C493 H487 0.950 . S
C493 C492 1.327 . S
C493 C497 1.429 . S
C494 C477 1.574 . S
C494 H488 0.949 . S
C494 C498 1.368 . S
C495 C476 1.429 . S
C495 C489 1.429 . S
C495 C496 1.523 . S
C496 C477 1.368 . S
C496 C490 1.368 . S
C496 C495 1.523 . S
C497 C481 1.429 . S
C497 C493 1.429 . S
C497 C498 1.523 . S
C498 C482 1.368 . S
C498 C494 1.368 . S
C498 C497 1.523 . S
H499 C474 0.950 . S
H500 C476 0.950 . S
H501 C477 0.949 . S
H502 C479 0.950 . S
H503 C481 0.950 . S
C504 C505 1.349 . S
C504 C506 1.327 . S
C504 H529 0.950 . S
C505 C504 1.349 . S
C505 C521 1.349 . S
C506 C504 1.327 . S
C506 C525 1.429 . S
C506 H530 0.950 . S
C507 C524 1.574 1_455 S
C507 C526 1.368 . S
C507 H531 0.949 . S
H508 C512 0.949 . S
C509 C510 1.349 . S
C509 C511 1.327 . S
C509 H532 0.950 . S
C510 C509 1.349 . S
C510 C522 1.349 . S
C511 C509 1.327 . S
C511 C527 1.429 . S
C511 H533 0.950 . S
C512 H508 0.949 . S
C512 C520 1.574 1_655 S
C512 C528 1.368 . S
H513 C521 0.950 . S
H514 C519 0.950 . S
H515 C520 0.949 . S
H516 C522 0.950 . S
H517 C523 0.950 . S
H518 C524 0.949 . S
C519 H514 0.950 . S
C519 C521 1.327 . S
C519 C525 1.429 . S
C520 C512 1.574 1_455 S
C520 H515 0.949 . S
C520 C526 1.368 . S
C521 C505 1.349 . S
C521 H513 0.950 . S
C521 C519 1.327 . S
C522 C510 1.349 . S
C522 H516 0.950 . S
C522 C523 1.327 . S
C523 H517 0.950 . S
C523 C522 1.327 . S
C523 C527 1.429 . S
C524 C507 1.574 1_655 S
C524 H518 0.949 . S
C524 C528 1.368 . S
C525 C506 1.429 . S
C525 C519 1.429 . S
C525 C526 1.523 . S
C526 C507 1.368 . S
C526 C520 1.368 . S
C526 C525 1.523 . S
C527 C511 1.429 . S
C527 C523 1.429 . S
C527 C528 1.523 . S
C528 C512 1.368 . S
C528 C524 1.368 . S
C528 C527 1.523 . S
H529 C504 0.950 . S
H530 C506 0.950 . S
H531 C507 0.949 . S
H532 C509 0.950 . S
H533 C511 0.950 . S
C534 C535 1.349 . S
C534 C536 1.327 . S
C534 H559 0.950 . S
C535 C534 1.349 . S
C535 C551 1.349 . S
C536 C534 1.327 . S
C536 C555 1.429 . S
C536 H560 0.950 . S
C537 C554 1.574 . S
C537 C556 1.368 . S
C537 H561 0.949 . S
H538 C542 0.949 . S
C539 C540 1.349 . S
C539 C541 1.327 . S
C539 H562 0.950 . S
C540 C539 1.349 . S
C540 C552 1.349 . S
C541 C539 1.327 . S
C541 C557 1.429 . S
C541 H563 0.950 . S
C542 H538 0.949 . S
C542 C550 1.574 . S
C542 C558 1.368 . S
H543 C551 0.950 . S
H544 C549 0.950 . S
H545 C550 0.949 . S
H546 C552 0.950 . S
H547 C553 0.950 . S
H548 C554 0.949 . S
C549 H544 0.950 . S
C549 C551 1.327 . S
C549 C555 1.429 . S
C550 C542 1.574 . S
C550 H545 0.949 . S
C550 C556 1.368 . S
C551 C535 1.349 . S
C551 H543 0.950 . S
C551 C549 1.327 . S
C552 C540 1.349 . S
C552 H546 0.950 . S
C552 C553 1.327 . S
C553 H547 0.950 . S
C553 C552 1.327 . S
C553 C557 1.429 . S
C554 C537 1.574 . S
C554 H548 0.949 . S
C554 C558 1.368 . S
C555 C536 1.429 . S
C555 C549 1.429 . S
C555 C556 1.523 . S
C556 C537 1.368 . S
C556 C550 1.368 . S
C556 C555 1.523 . S
C557 C541 1.429 . S
C557 C553 1.429 . S
C557 C558 1.523 . S
C558 C542 1.368 . S
C558 C554 1.368 . S
C558 C557 1.523 . S
H559 C534 0.950 . S
H560 C536 0.950 . S
H561 C537 0.949 . S
H562 C539 0.950 . S
H563 C541 0.950 . S
C564 C565 1.349 . S
C564 C566 1.327 . S
C564 H589 0.950 . S
C565 C564 1.349 . S
C565 C581 1.349 . S
C566 C564 1.327 . S
C566 C585 1.429 . S
C566 H590 0.950 . S
C567 C584 1.574 . S
C567 C586 1.368 . S
C567 H591 0.949 . S
H568 C572 0.949 . S
C569 C570 1.349 . S
C569 C571 1.327 . S
C569 H592 0.950 . S
C570 C569 1.349 . S
C570 C582 1.349 . S
C571 C569 1.327 . S
C571 C587 1.429 . S
C571 H593 0.950 . S
C572 H568 0.949 . S
C572 C580 1.574 . S
C572 C588 1.368 . S
H573 C581 0.950 . S
H574 C579 0.950 . S
H575 C580 0.949 . S
H576 C582 0.950 . S
H577 C583 0.950 . S
H578 C584 0.949 . S
C579 H574 0.950 . S
C579 C581 1.327 . S
C579 C585 1.429 . S
C580 C572 1.574 . S
C580 H575 0.949 . S
C580 C586 1.368 . S
C581 C565 1.349 . S
C581 H573 0.950 . S
C581 C579 1.327 . S
C582 C570 1.349 . S
C582 H576 0.950 . S
C582 C583 1.327 . S
C583 H577 0.950 . S
C583 C582 1.327 . S
C583 C587 1.429 . S
C584 C567 1.574 . S
C584 H578 0.949 . S
C584 C588 1.368 . S
C585 C566 1.429 . S
C585 C579 1.429 . S
C585 C586 1.523 . S
C586 C567 1.368 . S
C586 C580 1.368 . S
C586 C585 1.523 . S
C587 C571 1.429 . S
C587 C583 1.429 . S
C587 C588 1.523 . S
C588 C572 1.368 . S
C588 C584 1.368 . S
C588 C587 1.523 . S
H589 C564 0.950 . S
H590 C566 0.950 . S
H591 C567 0.949 . S
H592 C569 0.950 . S
H593 C571 0.950 . S
C594 C595 1.349 . S
C594 C596 1.327 . S
C594 H619 0.950 . S
C595 C594 1.349 . S
C595 C611 1.349 . S
C596 C594 1.327 . S
C596 C615 1.429 . S
C596 H620 0.950 . S
C597 C614 1.574 . S
C597 C616 1.368 . S
C597 H621 0.949 . S
H598 C602 0.949 . S
C599 C600 1.349 . S
C599 C601 1.327 . S
C599 H622 0.950 . S
C600 C599 1.349 . S
C600 C612 1.349 . S
C601 C599 1.327 . S
C601 C617 1.429 . S
C601 H623 0.950 . S
C602 H598 0.949 . S
C602 C610 1.574 . S
C602 C618 1.368 . S
H603 C611 0.950 . S
H604 C609 0.950 . S
H605 C610 0.949 . S
H606 C612 0.950 . S
H607 C613 0.950 . S
H608 C614 0.949 . S
C609 H604 0.950 . S
C609 C611 1.327 . S
C609 C615 1.429 . S
C610 C602 1.574 . S
C610 H605 0.949 . S
C610 C616 1.368 . S
C611 C595 1.349 . S
C611 H603 0.950 . S
C611 C609 1.327 . S
C612 C600 1.349 . S
C612 H606 0.950 . S
C612 C613 1.327 . S
C613 H607 0.950 . S
C613 C612 1.327 . S
C613 C617 1.429 . S
C614 C597 1.574 . S
C614 H608 0.949 . S
C614 C618 1.368 . S
C615 C596 1.429 . S
C615 C609 1.429 . S
C615 C616 1.523 . S
C616 C597 1.368 . S
C616 C610 1.368 . S
C616 C615 1.523 . S
C617 C601 1.429 . S
C617 C613 1.429 . S
C617 C618 1.523 . S
C618 C602 1.368 . S
C618 C614 1.368 . S
C618 C617 1.523 . S
H619 C594 0.950 . S
H620 C596 0.950 . S
H621 C597 0.949 . S
H622 C599 0.950 . S
H623 C601 0.950 . S
C624 C625 1.349 . S
C624 C626 1.327 . S
C624 H649 0.950 . S
C625 C624 1.349 . S
C625 C641 1.349 . S
C626 C624 1.327 . S
C626 C645 1.429 . S
C626 H650 0.950 . S
C627 C644 1.574 . S
C627 C646 1.368 . S
C627 H651 0.949 . S
H628 C632 0.949 . S
C629 C630 1.351 . S
C629 C631 1.299 1_554 S
C629 H652 0.977 . S
C630 C629 1.351 . S
C630 C642 1.349 1_554 S
C631 C629 1.299 1_556 S
C631 C647 1.429 . S
C631 H653 0.950 . S
C632 H628 0.949 . S
C632 C640 1.574 . S
C632 C648 1.368 . S
H633 C641 0.950 . S
H634 C639 0.950 . S
H635 C640 0.949 . S
H636 C642 0.950 . S
H637 C643 0.950 . S
H638 C644 0.949 . S
C639 H634 0.950 . S
C639 C641 1.327 . S
C639 C645 1.429 . S
C640 C632 1.574 . S
C640 H635 0.949 . S
C640 C646 1.368 . S
C641 C625 1.349 . S
C641 H633 0.950 . S
C641 C639 1.327 . S
C642 C630 1.349 1_556 S
C642 H636 0.950 . S
C642 C643 1.327 . S
C643 H637 0.950 . S
C643 C642 1.327 . S
C643 C647 1.429 . S
C644 C627 1.574 . S
C644 H638 0.949 . S
C644 C648 1.368 . S
C645 C626 1.429 . S
C645 C639 1.429 . S
C645 C646 1.523 . S
C646 C627 1.368 . S
C646 C640 1.368 . S
C646 C645 1.523 . S
C647 C631 1.429 . S
C647 C643 1.429 . S
C647 C648 1.523 . S
C648 C632 1.368 . S
C648 C644 1.368 . S
C648 C647 1.523 . S
H649 C624 0.950 . S
H650 C626 0.950 . S
H651 C627 0.949 . S
H652 C629 0.977 . S
H653 C631 0.950 . S
C654 C655 1.349 1_554 S
C654 C656 1.327 . S
C654 H679 0.950 . S
C655 C654 1.349 1_556 S
C655 C671 1.349 . S
C656 C654 1.327 . S
C656 C675 1.429 . S
C656 H680 0.950 . S
C657 C674 1.574 . S
C657 C676 1.368 . S
C657 H681 0.949 . S
H658 C662 0.949 . S
C659 C660 1.349 . S
C659 C661 1.327 . S
C659 H682 0.950 . S
C660 C659 1.349 . S
C660 C672 1.349 . S
C661 C659 1.327 . S
C661 C677 1.429 . S
C661 H683 0.950 . S
C662 H658 0.949 . S
C662 C670 1.574 . S
C662 C678 1.368 . S
H663 C671 0.950 . S
H664 C669 0.950 . S
H665 C670 0.949 . S
H666 C672 0.950 . S
H667 C673 0.950 . S
H668 C674 0.949 . S
C669 H664 0.950 . S
C669 C671 1.327 1_554 S
C669 C675 1.429 . S
C670 C662 1.574 . S
C670 H665 0.949 . S
C670 C676 1.368 . S
C671 C655 1.349 . S
C671 H663 0.950 . S
C671 C669 1.327 1_556 S
C672 C660 1.349 . S
C672 H666 0.950 . S
C672 C673 1.327 . S
C673 H667 0.950 . S
C673 C672 1.327 . S
C673 C677 1.429 . S
C674 C657 1.574 . S
C674 H668 0.949 . S
C674 C678 1.368 . S
C675 C656 1.429 . S
C675 C669 1.429 . S
C675 C676 1.523 . S
C676 C657 1.368 . S
C676 C670 1.368 . S
C676 C675 1.523 . S
C677 C661 1.429 . S
C677 C673 1.429 . S
C677 C678 1.523 . S
C678 C662 1.368 . S
C678 C674 1.368 . S
C678 C677 1.523 . S
H679 C654 0.950 . S
H680 C656 0.950 . S
H681 C657 0.949 . S
H682 C659 0.950 . S
H683 C661 0.950 . S
C684 C685 1.349 . S
C684 C686 1.327 . S
C684 H709 0.950 . S
C685 C684 1.349 . S
C685 C701 1.349 . S
C686 C684 1.327 . S
C686 C705 1.429 . S
C686 H710 0.950 . S
C687 C704 1.574 . S
C687 C706 1.368 . S
C687 H711 0.949 . S
H688 C692 0.949 . S
C689 C690 1.349 . S
C689 C691 1.327 . S
C689 H712 0.950 . S
C690 C689 1.349 . S
C690 C702 1.349 . S
C691 C689 1.327 . S
C691 C707 1.429 . S
C691 H713 0.950 . S
C692 H688 0.949 . S
C692 C700 1.574 . S
C692 C708 1.368 . S
H693 C701 0.950 . S
H694 C699 0.950 . S
H695 C700 0.949 . S
H696 C702 0.950 . S
H697 C703 0.950 . S
H698 C704 0.949 . S
C699 H694 0.950 . S
C699 C701 1.327 . S
C699 C705 1.429 . S
C700 C692 1.574 . S
C700 H695 0.949 . S
C700 C706 1.368 . S
C701 C685 1.349 . S
C701 H693 0.950 . S
C701 C699 1.327 . S
C702 C690 1.349 . S
C702 H696 0.950 . S
C702 C703 1.327 . S
C703 H697 0.950 . S
C703 C702 1.327 . S
C703 C707 1.429 . S
C704 C687 1.574 . S
C704 H698 0.949 . S
C704 C708 1.368 . S
C705 C686 1.429 . S
C705 C699 1.429 . S
C705 C706 1.523 . S
C706 C687 1.368 . S
C706 C700 1.368 . S
C706 C705 1.523 . S
C707 C691 1.429 . S
C707 C703 1.429 . S
C707 C708 1.523 . S
C708 C692 1.368 . S
C708 C704 1.368 . S
C708 C707 1.523 . S
H709 C684 0.950 . S
H710 C686 0.950 . S
H711 C687 0.949 . S
H712 C689 0.950 . S
H713 C691 0.950 . S
C355 C5 1.854 . S
C360 C300 1.855 . S
C385 C52 1.779 . S
C390 C62 1.781 . S
C415 C170 1.711 . S
C420 C92 1.713 . S
C445 C182 1.854 . S
C450 C123 1.855 . S
C475 C239 1.781 . S
C480 C229 1.779 . S
C505 C347 1.711 . S
C510 C269 1.713 . S
C535 C3 1.448 . S
C540 C288 1.445 . S
C565 C298 1.269 . S
C570 C64 1.272 . S
C595 C151 1.579 . S
C600 C33 1.583 . S
C625 C111 1.445 . S
C630 C180 1.448 . S
C655 C121 1.269 . S
C660 C241 1.272 . S
C685 C328 1.580 . S
C690 C210 1.583 . S
